# generated using pymatgen
data_AgH8C7S2O2F7
_symmetry_space_group_name_H-M   'P 1'
_cell_length_a   9.10179500
_cell_length_b   10.88582300
_cell_length_c   13.57592600
_cell_angle_alpha   90.00000000
_cell_angle_beta   90.00000000
_cell_angle_gamma   90.00000000
_symmetry_Int_Tables_number   1
_chemical_formula_structural   AgH8C7S2O2F7
_chemical_formula_sum   'Ag4 H32 C28 S8 O8 F28'
_cell_volume   1345.10993453
_cell_formula_units_Z   4
loop_
 _symmetry_equiv_pos_site_id
 _symmetry_equiv_pos_as_xyz
  1  'x, y, z'
loop_
 _atom_site_type_symbol
 _atom_site_label
 _atom_site_symmetry_multiplicity
 _atom_site_fract_x
 _atom_site_fract_y
 _atom_site_fract_z
 _atom_site_occupancy
  Ag  Ag0  1  0.66758300  0.22805300  0.03720300  1
  Ag  Ag1  1  0.16758300  0.77194700  0.96279700  1
  Ag  Ag2  1  0.16758300  0.27194700  0.03720300  1
  Ag  Ag3  1  0.66758300  0.72805300  0.96279700  1
  H  H0  1  0.64183800  0.08066100  0.26132200  1
  H  H1  1  0.83644000  0.59790700  0.76016900  1
  H  H2  1  0.64183800  0.58066100  0.73867800  1
  H  H3  1  0.33644000  0.90209300  0.76016900  1
  H  H4  1  0.14183800  0.91933900  0.73867800  1
  H  H5  1  0.89534800  0.14294100  0.81929400  1
  H  H6  1  0.14183800  0.41933900  0.26132200  1
  H  H7  1  0.33708800  0.20828000  0.77956800  1
  H  H8  1  0.83708800  0.79172000  0.22043200  1
  H  H9  1  0.26113900  0.54943800  0.27284800  1
  H  H10  1  0.02957800  0.25804400  0.79074700  1
  H  H11  1  0.52957800  0.74195600  0.20925300  1
  H  H12  1  0.47283200  0.00677100  0.88454600  1
  H  H13  1  0.40968500  0.50620800  0.98991900  1
  H  H14  1  0.52957800  0.24195600  0.79074700  1
  H  H15  1  0.33708800  0.70828000  0.22043200  1
  H  H16  1  0.40968500  0.00620800  0.01008100  1
  H  H17  1  0.39534800  0.35705900  0.81929400  1
  H  H18  1  0.76113900  0.45056200  0.72715200  1
  H  H19  1  0.97283200  0.99322900  0.11545400  1
  H  H20  1  0.02957800  0.75804400  0.20925300  1
  H  H21  1  0.33644000  0.40209300  0.23983100  1
  H  H22  1  0.90968500  0.49379200  0.01008100  1
  H  H23  1  0.47283200  0.50677100  0.11545400  1
  H  H24  1  0.83644000  0.09790700  0.23983100  1
  H  H25  1  0.39534800  0.85705900  0.18070600  1
  H  H26  1  0.97283200  0.49322900  0.88454600  1
  H  H27  1  0.26113900  0.04943800  0.72715200  1
  H  H28  1  0.83708800  0.29172000  0.77956800  1
  H  H29  1  0.76113900  0.95056200  0.27284800  1
  H  H30  1  0.90968500  0.99379200  0.98991900  1
  H  H31  1  0.89534800  0.64294100  0.18070600  1
  C  C0  1  0.68632600  0.87019800  0.60767500  1
  C  C1  1  0.26081300  0.09705600  0.20717600  1
  C  C2  1  0.24161400  0.96339800  0.76677800  1
  C  C3  1  0.92019000  0.24154300  0.82155100  1
  C  C4  1  0.24277900  0.03788200  0.31261700  1
  C  C5  1  0.42019000  0.75845700  0.17844900  1
  C  C6  1  0.24161400  0.46339800  0.23322200  1
  C  C7  1  0.76081300  0.40294400  0.20717600  1
  C  C8  1  0.18632600  0.12980200  0.39232500  1
  C  C9  1  0.24277900  0.53788200  0.68738300  1
  C  C10  1  0.42019000  0.25845700  0.82155100  1
  C  C11  1  0.74161400  0.53660200  0.76677800  1
  C  C12  1  0.92019000  0.74154300  0.17844900  1
  C  C13  1  0.71030300  0.90812800  0.49780800  1
  C  C14  1  0.74277900  0.46211800  0.31261700  1
  C  C15  1  0.39003400  0.04257700  0.93585600  1
  C  C16  1  0.71030300  0.40812800  0.50219200  1
  C  C17  1  0.26081300  0.59705600  0.79282400  1
  C  C18  1  0.74277900  0.96211800  0.68738300  1
  C  C19  1  0.21030300  0.09187200  0.50219200  1
  C  C20  1  0.74161400  0.03660200  0.23322200  1
  C  C21  1  0.21030300  0.59187200  0.49780800  1
  C  C22  1  0.39003400  0.54257700  0.06414400  1
  C  C23  1  0.89003400  0.95742300  0.06414400  1
  C  C24  1  0.18632600  0.62980200  0.60767500  1
  C  C25  1  0.89003400  0.45742300  0.93585600  1
  C  C26  1  0.76081300  0.90294400  0.79282400  1
  C  C27  1  0.68632600  0.37019800  0.39232500  1
  S  S0  1  0.91263100  0.79130200  0.05062100  1
  S  S1  1  0.70854000  0.50507200  0.89595500  1
  S  S2  1  0.91263100  0.29130200  0.94937900  1
  S  S3  1  0.41263100  0.20869800  0.94937900  1
  S  S4  1  0.20854000  0.99492800  0.89595500  1
  S  S5  1  0.41263100  0.70869800  0.05062100  1
  S  S6  1  0.20854000  0.49492800  0.10404500  1
  S  S7  1  0.70854000  0.00507200  0.10404500  1
  O  O0  1  0.64103200  0.86104900  0.82727600  1
  O  O1  1  0.64103200  0.36104900  0.17272400  1
  O  O2  1  0.14103200  0.13895100  0.17272400  1
  O  O3  1  0.88580400  0.90548600  0.82967700  1
  O  O4  1  0.38580400  0.09451400  0.17032300  1
  O  O5  1  0.38580400  0.59451400  0.82967700  1
  O  O6  1  0.14103200  0.63895100  0.82727600  1
  O  O7  1  0.88580400  0.40548600  0.17032300  1
  F  F0  1  0.87373900  0.01054700  0.65493100  1
  F  F1  1  0.35342700  0.09917900  0.52880400  1
  F  F2  1  0.14404000  0.94100800  0.30754000  1
  F  F3  1  0.35342700  0.59917900  0.47119600  1
  F  F4  1  0.64404000  0.55899200  0.30754000  1
  F  F5  1  0.37373900  0.98945300  0.34506900  1
  F  F6  1  0.03904600  0.14778000  0.37973500  1
  F  F7  1  0.25666600  0.74010200  0.62083000  1
  F  F8  1  0.53904600  0.85222000  0.62026500  1
  F  F9  1  0.13335200  0.16926200  0.56157700  1
  F  F10  1  0.14404000  0.44100800  0.69246000  1
  F  F11  1  0.66204200  0.02413100  0.48178500  1
  F  F12  1  0.03904600  0.64778000  0.62026500  1
  F  F13  1  0.66204200  0.52413100  0.51821500  1
  F  F14  1  0.16204200  0.47586900  0.48178500  1
  F  F15  1  0.37373900  0.48945300  0.65493100  1
  F  F16  1  0.64404000  0.05899200  0.69246000  1
  F  F17  1  0.75666600  0.25989800  0.37917000  1
  F  F18  1  0.85342700  0.90082100  0.47119600  1
  F  F19  1  0.87373900  0.51054700  0.34506900  1
  F  F20  1  0.53904600  0.35222000  0.37973500  1
  F  F21  1  0.85342700  0.40082100  0.52880400  1
  F  F22  1  0.63335200  0.83073800  0.43842300  1
  F  F23  1  0.75666600  0.75989800  0.62083000  1
  F  F24  1  0.63335200  0.33073800  0.56157700  1
  F  F25  1  0.16204200  0.97586900  0.51821500  1
  F  F26  1  0.25666600  0.24010200  0.37917000  1
  F  F27  1  0.13335200  0.66926200  0.43842300  1
loop_
_geom_bond_atom_site_label_1
_geom_bond_atom_site_label_2
_geom_bond_distance
_geom_bond_site_symmetry_2
Ag0 O1 2.353591 1_555
Ag0 S3 2.617398 1_554
Ag0 S7 2.618083 1_555
Ag0 S2 2.621106 1_554
Ag1 O6 2.353591 1_555
Ag1 S0 2.617398 1_456
Ag1 S4 2.618083 1_555
Ag1 S5 2.621106 1_556
Ag2 O2 2.353591 1_555
Ag2 S2 2.617398 1_454
Ag2 S6 2.618083 1_555
Ag2 S3 2.621106 1_554
Ag3 O0 2.353591 1_555
Ag3 S5 2.617398 1_556
Ag3 S1 2.618083 1_555
Ag3 S0 2.621106 1_556
C0 F8 1.365463 1_555
C0 F23 1.372397 1_555
C1 O4 1.243105 1_555
C1 O2 1.270959 1_555
C2 H27 1.094638 1_565
C2 H3 1.094684 1_555
C2 H4 1.095574 1_555
C2 S4 1.812148 1_555
C3 H28 1.093304 1_555
C3 H10 1.094726 1_655
C3 H5 1.097348 1_555
C3 S2 1.819256 1_555
C4 F5 1.375799 1_545
C4 F2 1.387263 1_545
C5 H15 1.093304 1_555
C5 H11 1.094726 1_555
C5 H25 1.097348 1_555
C5 S5 1.819256 1_555
C6 H9 1.094638 1_555
C6 H21 1.094684 1_555
C6 H6 1.095574 1_555
C6 S6 1.812148 1_555
C7 O7 1.243105 1_555
C7 O1 1.270959 1_555
C8 F6 1.365463 1_555
C8 F26 1.372397 1_555
C9 F15 1.375799 1_555
C9 F10 1.387263 1_555
C10 H7 1.093304 1_555
C10 H14 1.094726 1_555
C10 H17 1.097348 1_555
C10 S3 1.819256 1_555
C11 H18 1.094638 1_555
C11 H1 1.094684 1_555
C11 H2 1.095574 1_555
C11 S1 1.812148 1_555
C12 H8 1.093304 1_555
C12 H20 1.094726 1_655
C12 H31 1.097348 1_555
C12 S0 1.819256 1_555
C13 F18 1.354194 1_555
C13 F11 1.354586 1_565
C13 F22 1.360238 1_555
C14 F19 1.375799 1_555
C14 F4 1.387263 1_555
C15 H16 1.097332 1_556
C15 H12 1.097761 1_555
C15 S4 1.814200 1_545
C15 S3 1.829258 1_555
C16 F21 1.354194 1_555
C16 F13 1.354586 1_555
C16 F24 1.360238 1_555
C17 O5 1.243105 1_555
C17 O6 1.270959 1_555
C18 F0 1.375799 1_565
C18 F16 1.387263 1_565
C19 F1 1.354194 1_555
C19 F25 1.354586 1_545
C19 F9 1.360238 1_555
C20 H29 1.094638 1_545
C20 H24 1.094684 1_555
C20 H0 1.095574 1_555
C20 S7 1.812148 1_555
C21 F3 1.354194 1_555
C21 F14 1.354586 1_555
C21 F27 1.360238 1_555
C22 H13 1.097332 1_554
C22 H23 1.097761 1_555
C22 S6 1.814200 1_555
C22 S5 1.829258 1_555
C23 H30 1.097332 1_554
C23 H19 1.097761 1_555
C23 S7 1.814200 1_565
C23 S0 1.829258 1_555
C24 F12 1.365463 1_555
C24 F7 1.372397 1_555
C25 H22 1.097332 1_556
C25 H26 1.097761 1_555
C25 S1 1.814200 1_555
C25 S2 1.829258 1_555
C26 O3 1.243105 1_555
C26 O0 1.270959 1_555
C27 F20 1.365463 1_555
C27 F17 1.372397 1_555
