# generated using pymatgen
data_BaH2Cl2O
_symmetry_space_group_name_H-M   'P 1'
_cell_length_a   4.65137100
_cell_length_b   9.09294200
_cell_length_c   11.13672800
_cell_angle_alpha   90.00000000
_cell_angle_beta   90.00000000
_cell_angle_gamma   90.00000000
_symmetry_Int_Tables_number   1
_chemical_formula_structural   BaH2Cl2O
_chemical_formula_sum   'Ba4 H8 Cl8 O4'
_cell_volume   471.02397642
_cell_formula_units_Z   4
loop_
 _symmetry_equiv_pos_site_id
 _symmetry_equiv_pos_as_xyz
  1  'x, y, z'
loop_
 _atom_site_type_symbol
 _atom_site_label
 _atom_site_symmetry_multiplicity
 _atom_site_fract_x
 _atom_site_fract_y
 _atom_site_fract_z
 _atom_site_occupancy
  Ba  Ba0  1  0.25000000  0.39347900  0.68711300  1
  Ba  Ba1  1  0.25000000  0.10652100  0.18711300  1
  Ba  Ba2  1  0.75000000  0.60652100  0.31288700  1
  Ba  Ba3  1  0.75000000  0.89347900  0.81288700  1
  H  H0  1  0.75000000  0.33557800  0.90180100  1
  H  H1  1  0.75000000  0.16442200  0.40180100  1
  H  H2  1  0.25000000  0.66442200  0.09819900  1
  H  H3  1  0.25000000  0.83557800  0.59819900  1
  H  H4  1  0.75000000  0.49950200  0.86929300  1
  H  H5  1  0.75000000  0.00049800  0.36929300  1
  H  H6  1  0.25000000  0.50049800  0.13070700  1
  H  H7  1  0.25000000  0.99950200  0.63070700  1
  Cl  Cl0  1  0.75000000  0.62269100  0.60206600  1
  Cl  Cl1  1  0.75000000  0.87730900  0.10206600  1
  Cl  Cl2  1  0.25000000  0.37730900  0.39793400  1
  Cl  Cl3  1  0.25000000  0.12269100  0.89793400  1
  Cl  Cl4  1  0.75000000  0.16289300  0.61836900  1
  Cl  Cl5  1  0.75000000  0.33710700  0.11836900  1
  Cl  Cl6  1  0.25000000  0.83710700  0.38163100  1
  Cl  Cl7  1  0.25000000  0.66289300  0.88163100  1
  O  O0  1  0.75000000  0.40166200  0.83236000  1
  O  O1  1  0.75000000  0.09833800  0.33236000  1
  O  O2  1  0.25000000  0.59833800  0.16764000  1
  O  O3  1  0.25000000  0.90166200  0.66764000  1
loop_
_geom_bond_atom_site_label_1
_geom_bond_atom_site_label_2
_geom_bond_distance
_geom_bond_site_symmetry_2
Ba0 O0 2.833885 1_555
Ba0 O0 2.833885 1_455
Ba0 Cl4 3.223523 1_555
Ba0 Cl4 3.223523 1_455
Ba0 Cl2 3.223863 1_555
Ba0 Cl0 3.263408 1_455
Ba0 Cl0 3.263408 1_555
Ba0 Cl7 3.270196 1_555
Ba0 Cl3 3.402227 1_555
Ba1 O1 2.833885 1_455
Ba1 O1 2.833885 1_555
Ba1 Cl5 3.223523 1_455
Ba1 Cl5 3.223523 1_555
Ba1 Cl3 3.223863 1_554
Ba1 Cl1 3.263408 1_545
Ba1 Cl1 3.263408 1_445
Ba1 Cl6 3.270196 1_545
Ba1 Cl2 3.402227 1_555
Ba2 O2 2.833885 1_555
Ba2 O2 2.833885 1_655
Ba2 Cl6 3.223523 1_555
Ba2 Cl6 3.223523 1_655
Ba2 Cl0 3.223863 1_555
Ba2 Cl2 3.263408 1_555
Ba2 Cl2 3.263408 1_655
Ba2 Cl5 3.270196 1_555
Ba2 Cl1 3.402227 1_555
Ba3 O3 2.833885 1_655
Ba3 O3 2.833885 1_555
Ba3 Cl7 3.223523 1_555
Ba3 Cl7 3.223523 1_655
Ba3 Cl1 3.223863 1_556
Ba3 Cl3 3.263408 1_565
Ba3 Cl3 3.263408 1_665
Ba3 Cl4 3.270196 1_565
Ba3 Cl0 3.402227 1_555
H0 O0 0.979358 1_555
H1 O1 0.979358 1_555
H2 O2 0.979358 1_555
H3 O3 0.979358 1_555
H4 O0 0.980133 1_555
H5 O1 0.980133 1_555
H6 O2 0.980133 1_555
H7 O3 0.980133 1_555
