# generated using pymatgen
data_NaCa2TiSi2O8F
_symmetry_space_group_name_H-M   'P 1'
_cell_length_a   5.80361300
_cell_length_b   7.63187475
_cell_length_c   19.44431316
_cell_angle_alpha   101.29642207
_cell_angle_beta   90.32228085
_cell_angle_gamma   89.95135184
_symmetry_Int_Tables_number   1
_chemical_formula_structural   NaCa2TiSi2O8F
_chemical_formula_sum   'Na4 Ca8 Ti4 Si8 O32 F4'
_cell_volume   844.53801030
_cell_formula_units_Z   4
loop_
 _symmetry_equiv_pos_site_id
 _symmetry_equiv_pos_as_xyz
  1  'x, y, z'
loop_
 _atom_site_type_symbol
 _atom_site_label
 _atom_site_symmetry_multiplicity
 _atom_site_fract_x
 _atom_site_fract_y
 _atom_site_fract_z
 _atom_site_occupancy
  Na  Na0  1  0.73702000  0.99579500  0.50812600  1
  Na  Na1  1  0.02064400  0.00491300  0.00351500  1
  Na  Na2  1  0.02026800  0.49867000  0.00337900  1
  Na  Na3  1  0.73321300  0.51956500  0.50897900  1
  Ca  Ca0  1  0.90919900  0.33446200  0.66935900  1
  Ca  Ca1  1  0.53820600  0.65931300  0.32609100  1
  Ca  Ca2  1  0.21743300  0.66314400  0.82360000  1
  Ca  Ca3  1  0.53019300  0.16035400  0.32287100  1
  Ca  Ca4  1  0.80816700  0.83543400  0.17705700  1
  Ca  Ca5  1  0.22510200  0.15739100  0.82228800  1
  Ca  Ca6  1  0.82088100  0.33979900  0.17685500  1
  Ca  Ca7  1  0.94297100  0.83600000  0.67378600  1
  Ti  Ti0  1  0.25789200  0.26253100  0.51655000  1
  Ti  Ti1  1  0.46364000  0.26219100  0.02561400  1
  Ti  Ti2  1  0.59556900  0.73555000  0.97178000  1
  Ti  Ti3  1  0.18124500  0.73374700  0.47432700  1
  Si  Si0  1  0.71319800  0.94332400  0.84758500  1
  Si  Si1  1  0.42214900  0.10012200  0.64784600  1
  Si  Si2  1  0.31127500  0.05793500  0.15319900  1
  Si  Si3  1  0.31290900  0.59473700  0.15184300  1
  Si  Si4  1  0.04350600  0.93632100  0.34711500  1
  Si  Si5  1  0.04400100  0.40285300  0.34954700  1
  Si  Si6  1  0.42549700  0.54946600  0.64895400  1
  Si  Si7  1  0.71361500  0.40491500  0.84436700  1
  O  O0  1  0.29648800  0.72279200  0.95017600  1
  O  O1  1  0.29004800  0.90411800  0.31139400  1
  O  O2  1  0.33570300  0.48153200  0.07264500  1
  O  O3  1  0.32265400  0.22106000  0.94217500  1
  O  O4  1  0.32803000  0.09640700  0.07453100  1
  O  O5  1  0.76392700  0.27369500  0.04718100  1
  O  O6  1  0.68582500  0.60819100  0.66591000  1
  O  O7  1  0.93821300  0.40056600  0.79580800  1
  O  O8  1  0.48130600  0.72528400  0.45350100  1
  O  O9  1  0.38832600  0.48038600  0.56533100  1
  O  O10  1  0.39018400  0.09233700  0.56455100  1
  O  O11  1  0.68010300  0.05429800  0.66614200  1
  O  O12  1  0.94864600  0.89681400  0.80486700  1
  O  O13  1  0.03134800  0.51457100  0.42959500  1
  O  O14  1  0.19660200  0.08501900  0.69315500  1
  O  O15  1  0.73280600  0.91145300  0.92715800  1
  O  O16  1  0.54424100  0.10013200  0.19797800  1
  O  O17  1  0.75145700  0.52780200  0.92121400  1
  O  O18  1  0.46504200  0.90830400  0.81271900  1
  O  O19  1  0.28944100  0.40355700  0.31361900  1
  O  O20  1  0.05637800  0.09052800  0.18330300  1
  O  O21  1  0.95960400  0.27345200  0.54533600  1
  O  O22  1  0.20194700  0.61140300  0.69485800  1
  O  O23  1  0.05541800  0.58930300  0.17931600  1
  O  O24  1  0.40355900  0.21794900  0.43545900  1
  O  O25  1  0.02845000  0.89889600  0.42620700  1
  O  O26  1  0.80805100  0.40963900  0.30613700  1
  O  O27  1  0.05760800  0.78170500  0.55855500  1
  O  O28  1  0.54151900  0.59654200  0.19846300  1
  O  O29  1  0.45858100  0.40403800  0.81411200  1
  O  O30  1  0.80651400  0.88901500  0.30418600  1
  O  O31  1  0.72904200  0.77451500  0.05608000  1
  F  F0  1  0.31493400  0.81697700  0.13220100  1
  F  F1  1  0.99826400  0.17819500  0.36645400  1
  F  F2  1  0.74804300  0.18650700  0.86657100  1
  F  F3  1  0.45690800  0.33749000  0.67448100  1
loop_
_geom_bond_atom_site_label_1
_geom_bond_atom_site_label_2
_geom_bond_distance
_geom_bond_site_symmetry_2
Na0 O10 2.346061 1_565
Na0 O25 2.347646 1_655
Na0 O21 2.464962 1_565
Na0 O8 2.592524 1_555
Na0 O27 2.773959 1_655
Na1 O15 2.250096 1_444
Na1 O4 2.274528 1_555
Na1 O5 2.544648 1_455
Na1 O0 2.722568 1_544
Na1 O31 2.780138 1_445
Na1 O3 2.831102 1_554
Na2 O17 2.268536 1_454
Na2 O2 2.285444 1_555
Na2 O5 2.545226 1_455
Na2 O0 2.698570 1_554
Na2 O31 2.739880 1_455
Na2 O3 2.830946 1_554
Na3 O13 2.320504 1_655
Na3 O9 2.334616 1_555
Na3 O21 2.501929 1_555
Na3 O8 2.531376 1_555
Na3 O27 2.776072 1_655
Ca0 O21 2.384473 1_555
Ca0 O7 2.416128 1_555
Ca0 O6 2.469533 1_555
Ca0 O11 2.508984 1_555
Ca0 F3 2.627281 1_555
Ca0 O14 2.636548 1_655
Ca0 O22 2.680616 1_655
Ca1 O19 2.401768 1_555
Ca1 O1 2.417949 1_555
Ca1 O28 2.433755 1_555
Ca1 O26 2.438466 1_555
Ca1 O30 2.446217 1_555
Ca1 O8 2.453632 1_555
Ca2 O29 2.399659 1_555
Ca2 O18 2.402839 1_555
Ca2 O12 2.447397 1_455
Ca2 O0 2.454358 1_555
Ca2 O22 2.457800 1_555
Ca2 O7 2.550542 1_455
Ca3 O24 2.272989 1_555
Ca3 O19 2.356542 1_555
Ca3 O1 2.376258 1_545
Ca3 O16 2.383315 1_555
Ca3 O26 2.565049 1_555
Ca3 O30 2.588089 1_545
Ca3 F1 2.836478 1_555
Ca4 O31 2.349503 1_555
Ca4 O23 2.369934 1_655
Ca4 O20 2.406288 1_665
Ca4 O30 2.425289 1_555
Ca4 O28 2.490269 1_555
Ca4 O16 2.504484 1_565
Ca5 O18 2.333962 1_545
Ca5 O29 2.351319 1_555
Ca5 O3 2.352152 1_555
Ca5 O14 2.467634 1_555
Ca5 O12 2.525721 1_445
Ca5 O7 2.615545 1_455
Ca5 F2 2.899502 1_455
Ca6 O23 2.334296 1_655
Ca6 O20 2.364302 1_655
Ca6 O26 2.466971 1_555
Ca6 O5 2.492769 1_555
Ca6 O28 2.514812 1_555
Ca6 O16 2.529570 1_555
Ca7 O6 2.273967 1_555
Ca7 O11 2.283698 1_565
Ca7 O27 2.299378 1_655
Ca7 O22 2.372519 1_655
Ca7 O14 2.374550 1_665
Ca7 O12 2.499683 1_555
O0 Ti2 1.781806 1_555
O1 Si4 1.591799 1_555
O2 Si3 1.617482 1_555
O2 Ti1 1.896206 1_555
O3 Ti1 1.785005 1_556
O4 Si2 1.616525 1_555
O4 Ti1 1.899089 1_555
O5 Ti1 1.788395 1_555
O6 Si6 1.590557 1_555
O7 Si7 1.610330 1_555
O8 Ti3 1.788367 1_555
O9 Si6 1.621340 1_555
O9 Ti0 1.900871 1_555
O10 Si1 1.618652 1_555
O10 Ti0 1.900775 1_555
O11 Si1 1.591205 1_555
O12 Si0 1.606097 1_555
O13 Si5 1.623651 1_555
O13 Ti3 1.932693 1_555
O14 Si1 1.598722 1_555
O15 Si0 1.616009 1_555
O15 Ti2 1.911888 1_555
O16 Si2 1.602340 1_555
O17 Si7 1.614991 1_555
O17 Ti2 1.922473 1_555
O18 Si0 1.588681 1_555
O19 Si5 1.590524 1_555
O20 Si2 1.595300 1_555
O21 Ti0 1.819200 1_655
O22 Si6 1.596890 1_555
O23 Si3 1.593114 1_555
O24 Ti0 1.766623 1_555
O25 Si4 1.621099 1_555
O25 Ti3 1.923848 1_555
O26 Si5 1.610685 1_655
O27 Ti3 1.763237 1_555
O28 Si3 1.601197 1_555
O29 Si7 1.589200 1_555
O30 Si4 1.608952 1_655
O31 Ti2 1.780576 1_554
F0 Si2 1.804109 1_565
F0 Si3 1.810153 1_555
F1 Si5 1.827794 1_655
F1 Si4 1.829269 1_645
F2 Si7 1.812500 1_555
F2 Si0 1.831141 1_545
F3 Si6 1.791609 1_555
F3 Si1 1.795148 1_555
