# generated using pymatgen
data_Dy7(CuTe4)3
_symmetry_space_group_name_H-M   'P 1'
_cell_length_a   7.50955453
_cell_length_b   7.51225476
_cell_length_c   14.21760420
_cell_angle_alpha   94.96457436
_cell_angle_beta   95.00781651
_cell_angle_gamma   119.98307166
_symmetry_Int_Tables_number   1
_chemical_formula_structural   Dy7(CuTe4)3
_chemical_formula_sum   'Dy7 Cu3 Te12'
_cell_volume   684.15768819
_cell_formula_units_Z   1
loop_
 _symmetry_equiv_pos_site_id
 _symmetry_equiv_pos_as_xyz
  1  'x, y, z'
loop_
 _atom_site_type_symbol
 _atom_site_label
 _atom_site_symmetry_multiplicity
 _atom_site_fract_x
 _atom_site_fract_y
 _atom_site_fract_z
 _atom_site_occupancy
  Dy  Dy0  1  0.41763019  0.41787972  0.25349067  1
  Dy  Dy1  1  0.33142207  0.66346580  0.99688890  1
  Dy  Dy2  1  0.08934257  0.75726679  0.25307414  1
  Dy  Dy3  1  0.24649025  0.90875633  0.74464053  1
  Dy  Dy4  1  0.74888691  0.07798438  0.25293112  1
  Dy  Dy5  1  0.91842432  0.25416224  0.74488616  1
  Dy  Dy6  1  0.57679309  0.58175622  0.74409066  1
  Cu  Cu0  1  0.86245870  0.52789947  0.58107371  1
  Cu  Cu1  1  0.80882497  0.80979632  0.42745783  1
  Cu  Cu2  1  0.47328733  0.14137336  0.42768341  1
  Te  Te0  1  0.12725145  0.13097074  0.38289115  1
  Te  Te1  1  0.29118435  0.29119912  0.87305385  1
  Te  Te2  1  0.79970799  0.46040174  0.38309792  1
  Te  Te3  1  0.95633575  0.62465244  0.87398725  1
  Te  Te4  1  0.45792313  0.79110412  0.38433430  1
  Te  Te5  1  0.62385107  0.95700451  0.87335698  1
  Te  Te6  1  0.37921119  0.04296320  0.12582936  1
  Te  Te7  1  0.53544842  0.20350571  0.61808110  1
  Te  Te8  1  0.04413713  0.37939530  0.12767269  1
  Te  Te9  1  0.20774159  0.53864268  0.61711995  1
  Te  Te10  1  0.70738407  0.70629261  0.12621474  1
  Te  Te11  1  0.87293444  0.87686121  0.61814259  1
loop_
_geom_bond_atom_site_label_1
_geom_bond_atom_site_label_2
_geom_bond_distance
_geom_bond_site_symmetry_2
Dy0 Te10 3.058990 1_555
Dy0 Te8 3.061750 1_555
Dy0 Te0 3.078058 1_555
Dy0 Te6 3.085730 1_555
Dy0 Te4 3.092622 1_555
Dy0 Te2 3.128755 1_555
Dy1 Te1 3.036813 1_555
Dy1 Te5 3.045232 1_555
Dy1 Te3 3.050238 1_455
Dy1 Te8 3.074312 1_556
Dy1 Te10 3.088502 1_556
Dy1 Te6 3.094352 1_566
Dy2 Te6 3.050842 1_565
Dy2 Te8 3.067122 1_555
Dy2 Te10 3.083270 1_455
Dy2 Te4 3.085669 1_555
Dy2 Te0 3.095406 1_565
Dy2 Te2 3.112722 1_455
Dy3 Te9 3.054359 1_555
Dy3 Te3 3.068484 1_455
Dy3 Te7 3.068906 1_565
Dy3 Te5 3.076381 1_555
Dy3 Te11 3.087744 1_455
Dy3 Te1 3.117930 1_565
Dy4 Te10 3.049757 1_545
Dy4 Te6 3.058333 1_555
Dy4 Te0 3.077581 1_655
Dy4 Te8 3.095791 1_655
Dy4 Te4 3.100339 1_545
Dy4 Te2 3.111967 1_555
Dy5 Te9 3.050817 1_655
Dy5 Te3 3.070674 1_555
Dy5 Te11 3.072190 1_545
Dy5 Te1 3.078490 1_655
Dy5 Te7 3.090072 1_555
Dy5 Te5 3.112635 1_545
Dy6 Te9 3.028640 1_555
Dy6 Te1 3.070263 1_555
Dy6 Te5 3.073009 1_555
Dy6 Te7 3.085494 1_555
Dy6 Te11 3.085706 1_555
Dy6 Te3 3.114198 1_555
Cu0 Te9 2.558142 1_655
Cu0 Te11 2.589144 1_555
Cu0 Te7 2.590777 1_555
Cu0 Te2 2.772098 1_555
Cu0 Dy3 3.367714 1_655
Cu0 Dy5 3.369205 1_555
Cu1 Te4 2.583151 1_555
Cu1 Te0 2.589108 1_665
Cu1 Te2 2.611142 1_555
Cu1 Te11 2.669993 1_555
Cu2 Te0 2.581428 1_555
Cu2 Te4 2.592377 1_545
Cu2 Te2 2.610904 1_555
Cu2 Te7 2.665810 1_555
