# generated using pymatgen
data_CeSI
_symmetry_space_group_name_H-M   'P 1'
_cell_length_a   7.09926209
_cell_length_b   7.36134317
_cell_length_c   14.53025261
_cell_angle_alpha   90.00000000
_cell_angle_beta   90.00000000
_cell_angle_gamma   90.00000000
_symmetry_Int_Tables_number   1
_chemical_formula_structural   CeSI
_chemical_formula_sum   'Ce8 S8 I8'
_cell_volume   759.35251978
_cell_formula_units_Z   8
loop_
 _symmetry_equiv_pos_site_id
 _symmetry_equiv_pos_as_xyz
  1  'x, y, z'
loop_
 _atom_site_type_symbol
 _atom_site_label
 _atom_site_symmetry_multiplicity
 _atom_site_fract_x
 _atom_site_fract_y
 _atom_site_fract_z
 _atom_site_occupancy
  Ce  Ce0  1  0.25790952  0.46817592  0.41706944  1
  Ce  Ce1  1  0.75790952  0.03182408  0.41706944  1
  Ce  Ce2  1  0.74209048  0.03182408  0.91706944  1
  Ce  Ce3  1  0.25790952  0.96817592  0.08293056  1
  Ce  Ce4  1  0.24209048  0.96817592  0.58293056  1
  Ce  Ce5  1  0.75790952  0.53182408  0.08293056  1
  Ce  Ce6  1  0.74209048  0.53182408  0.58293056  1
  Ce  Ce7  1  0.24209048  0.46817592  0.91706944  1
  S  S0  1  0.49971071  0.25804416  0.02319251  1
  S  S1  1  0.49971071  0.75804416  0.47680749  1
  S  S2  1  0.00028929  0.25804416  0.52319251  1
  S  S3  1  0.50028929  0.74195584  0.97680749  1
  S  S4  1  0.99971071  0.24195584  0.02319251  1
  S  S5  1  0.99971071  0.74195584  0.47680749  1
  S  S6  1  0.00028929  0.75804416  0.97680749  1
  S  S7  1  0.50028929  0.24195584  0.52319251  1
  I  I0  1  0.67448813  0.90171887  0.20086404  1
  I  I1  1  0.17448813  0.59828113  0.20086404  1
  I  I2  1  0.17448813  0.09828113  0.29913596  1
  I  I3  1  0.32551187  0.09828113  0.79913596  1
  I  I4  1  0.82551187  0.90171887  0.70086404  1
  I  I5  1  0.32551187  0.59828113  0.70086404  1
  I  I6  1  0.67448813  0.40171887  0.29913596  1
  I  I7  1  0.82551187  0.40171887  0.79913596  1
loop_
_geom_bond_atom_site_label_1
_geom_bond_atom_site_label_2
_geom_bond_distance
_geom_bond_site_symmetry_2
Ce0 S7 2.848120 1_555
Ce0 S2 2.848758 1_555
Ce0 S5 2.859230 1_455
Ce0 S1 2.872869 1_555
Ce0 I2 3.271312 1_555
Ce0 I1 3.337239 1_555
Ce0 I6 3.452823 1_555
Ce1 S2 2.848120 1_655
Ce1 S7 2.848758 1_555
Ce1 S1 2.859230 1_545
Ce1 S5 2.872869 1_545
Ce1 I6 3.271312 1_555
Ce1 I0 3.337239 1_545
Ce1 I2 3.452823 1_655
Ce2 S0 2.848120 1_556
Ce2 S4 2.848758 1_556
Ce2 S6 2.859230 1_645
Ce2 S3 2.872869 1_545
Ce2 I7 3.271312 1_555
Ce2 I4 3.337239 1_545
Ce2 I3 3.452823 1_555
Ce3 S3 2.848120 1_554
Ce3 S6 2.848758 1_554
Ce3 S4 2.859230 1_465
Ce3 S0 2.872869 1_565
Ce3 I1 3.271312 1_555
Ce3 I2 3.337239 1_565
Ce3 I0 3.452823 1_555
Ce4 S5 2.848120 1_455
Ce4 S1 2.848758 1_555
Ce4 S7 2.859230 1_565
Ce4 S2 2.872869 1_565
Ce4 I5 3.271312 1_555
Ce4 I3 3.337239 1_565
Ce4 I4 3.452823 1_455
Ce5 S6 2.848120 1_654
Ce5 S3 2.848758 1_554
Ce5 S0 2.859230 1_555
Ce5 S4 2.872869 1_555
Ce5 I0 3.271312 1_555
Ce5 I6 3.337239 1_555
Ce5 I1 3.452823 1_655
Ce6 S1 2.848120 1_555
Ce6 S5 2.848758 1_555
Ce6 S2 2.859230 1_655
Ce6 S7 2.872869 1_555
Ce6 I4 3.271312 1_555
Ce6 I7 3.337239 1_555
Ce6 I5 3.452823 1_555
Ce7 S4 2.848120 1_456
Ce7 S0 2.848758 1_556
Ce7 S3 2.859230 1_555
Ce7 S6 2.872869 1_555
Ce7 I3 3.271312 1_555
Ce7 I5 3.337239 1_555
Ce7 I7 3.452823 1_455
