# generated using pymatgen
data_K2H2RuO5
_symmetry_space_group_name_H-M   'P 1'
_cell_length_a   6.84473700
_cell_length_b   8.17447700
_cell_length_c   10.71409300
_cell_angle_alpha   90.00000000
_cell_angle_beta   90.00000000
_cell_angle_gamma   90.00000000
_symmetry_Int_Tables_number   1
_chemical_formula_structural   K2H2RuO5
_chemical_formula_sum   'K8 H8 Ru4 O20'
_cell_volume   599.47648698
_cell_formula_units_Z   4
loop_
 _symmetry_equiv_pos_site_id
 _symmetry_equiv_pos_as_xyz
  1  'x, y, z'
loop_
 _atom_site_type_symbol
 _atom_site_label
 _atom_site_symmetry_multiplicity
 _atom_site_fract_x
 _atom_site_fract_y
 _atom_site_fract_z
 _atom_site_occupancy
  K  K0  1  0.87600200  0.40265900  0.54261500  1
  K  K1  1  0.62399800  0.59734100  0.04261500  1
  K  K2  1  0.12399800  0.90265900  0.95738500  1
  K  K3  1  0.37600200  0.09734100  0.45738500  1
  K  K4  1  0.46192800  0.75456600  0.68742600  1
  K  K5  1  0.03807200  0.24543400  0.18742600  1
  K  K6  1  0.53807200  0.25456600  0.81257400  1
  K  K7  1  0.96192800  0.74543400  0.31257400  1
  H  H0  1  0.86088900  0.07457000  0.40534900  1
  H  H1  1  0.63911100  0.92543000  0.90534900  1
  H  H2  1  0.13911100  0.57457000  0.09465100  1
  H  H3  1  0.36088900  0.42543000  0.59465100  1
  H  H4  1  0.64985600  0.27099700  0.29169900  1
  H  H5  1  0.85014400  0.72900300  0.79169900  1
  H  H6  1  0.35014400  0.77099700  0.20830100  1
  H  H7  1  0.14985600  0.22900300  0.70830100  1
  Ru  Ru0  1  0.40873700  0.55952600  0.38170800  1
  Ru  Ru1  1  0.09126300  0.44047400  0.88170800  1
  Ru  Ru2  1  0.59126300  0.05952600  0.11829200  1
  Ru  Ru3  1  0.90873700  0.94047400  0.61829200  1
  O  O0  1  0.79455600  0.92305000  0.12656900  1
  O  O1  1  0.70544400  0.07695000  0.62656900  1
  O  O2  1  0.20544400  0.42305000  0.37343100  1
  O  O3  1  0.29455600  0.57695000  0.87343100  1
  O  O4  1  0.98261300  0.04090000  0.44937300  1
  O  O5  1  0.51738700  0.95910000  0.94937300  1
  O  O6  1  0.01738700  0.54090000  0.05062700  1
  O  O7  1  0.48261300  0.45910000  0.55062700  1
  O  O8  1  0.14697800  0.99310900  0.67688700  1
  O  O9  1  0.35302200  0.00689100  0.17688700  1
  O  O10  1  0.85302200  0.49310900  0.82311300  1
  O  O11  1  0.64697800  0.50689100  0.32311300  1
  O  O12  1  0.12959700  0.24242800  0.94402500  1
  O  O13  1  0.37040300  0.75757200  0.44402500  1
  O  O14  1  0.87040300  0.74242800  0.55597500  1
  O  O15  1  0.62959700  0.25757200  0.05597500  1
  O  O16  1  0.82464100  0.84763800  0.79094900  1
  O  O17  1  0.67535900  0.15236200  0.29094900  1
  O  O18  1  0.17535900  0.34763800  0.70905100  1
  O  O19  1  0.32464100  0.65236200  0.20905100  1
loop_
_geom_bond_atom_site_label_1
_geom_bond_atom_site_label_2
_geom_bond_distance
_geom_bond_site_symmetry_2
K0 O7 2.733234 1_555
K0 O18 2.753292 1_655
K0 O14 2.781384 1_555
K0 O2 2.897976 1_655
K0 O11 2.951978 1_555
K0 O1 3.043168 1_555
K0 O10 3.098894 1_555
K1 O6 2.733234 1_655
K1 O19 2.753292 1_555
K1 O15 2.781384 1_555
K1 O3 2.897976 1_554
K1 O10 2.951978 1_554
K1 O0 3.043168 1_555
K1 O11 3.098894 1_555
K2 O5 2.733234 1_555
K2 O16 2.753292 1_455
K2 O12 2.781384 1_565
K2 O0 2.897976 1_456
K2 O9 2.951978 1_566
K2 O3 3.043168 1_555
K2 O8 3.098894 1_555
K3 O4 2.733234 1_455
K3 O17 2.753292 1_555
K3 O13 2.781384 1_545
K3 O1 2.897976 1_555
K3 O8 2.951978 1_545
K3 O2 3.043168 1_555
K3 O9 3.098894 1_555
K4 O13 2.682124 1_555
K4 O3 2.718833 1_555
K4 O8 2.909015 1_555
K4 O1 3.185638 1_565
K5 O12 2.682124 1_554
K5 O2 2.718833 1_555
K5 O9 2.909015 1_555
K5 O0 3.185638 1_445
K6 O15 2.682124 1_556
K6 O1 2.718833 1_555
K6 O10 2.909015 1_555
K6 O3 3.185638 1_555
K7 O14 2.682124 1_555
K7 O0 2.718833 1_555
K7 O11 2.909015 1_555
K7 O2 3.185638 1_655
H0 O4 0.996195 1_555
H1 O5 0.996195 1_555
H2 O6 0.996195 1_555
H3 O7 0.996195 1_555
H4 O17 0.985397 1_555
H5 O16 0.985397 1_555
H6 O19 0.985397 1_555
H7 O18 0.985397 1_555
O0 Ru2 1.785696 1_565
O1 Ru3 1.785696 1_545
O2 Ru0 1.785696 1_555
O3 Ru1 1.785696 1_555
O4 Ru3 2.050621 1_545
O5 Ru2 2.050621 1_566
O6 Ru1 2.050621 1_554
O7 Ru0 2.050621 1_555
O8 Ru3 1.799562 1_455
O9 Ru2 1.799562 1_555
O10 Ru1 1.799562 1_655
O11 Ru0 1.799562 1_555
O12 Ru1 1.770746 1_555
O13 Ru0 1.770746 1_555
O14 Ru3 1.770746 1_555
O15 Ru2 1.770746 1_555
O16 Ru3 2.080681 1_555
O17 Ru2 2.080681 1_555
O18 Ru1 2.080681 1_555
O19 Ru0 2.080681 1_555
