# generated using pymatgen
data_Pr5In11Ni6
_symmetry_space_group_name_H-M   'P 1'
_cell_length_a   10.23142520
_cell_length_b   10.23142520
_cell_length_c   4.36253700
_cell_angle_alpha   90.00000000
_cell_angle_beta   90.00000000
_cell_angle_gamma   90.28348915
_symmetry_Int_Tables_number   1
_chemical_formula_structural   Pr5In11Ni6
_chemical_formula_sum   'Pr5 In11 Ni6'
_cell_volume   456.67377698
_cell_formula_units_Z   1
loop_
 _symmetry_equiv_pos_site_id
 _symmetry_equiv_pos_as_xyz
  1  'x, y, z'
loop_
 _atom_site_type_symbol
 _atom_site_label
 _atom_site_symmetry_multiplicity
 _atom_site_fract_x
 _atom_site_fract_y
 _atom_site_fract_z
 _atom_site_occupancy
  Pr  Pr0  1  0.03746000  0.68898900  0.00000000  1
  Pr  Pr1  1  0.31101100  0.96254000  0.00000000  1
  Pr  Pr2  1  0.68898900  0.03746000  0.00000000  1
  Pr  Pr3  1  0.96254000  0.31101100  0.00000000  1
  Pr  Pr4  1  0.50000000  0.50000000  0.50000000  1
  In  In0  1  0.30351000  0.30351000  0.00000000  1
  In  In1  1  0.69649000  0.69649000  0.00000000  1
  In  In2  1  0.72589400  0.27410600  0.50000000  1
  In  In3  1  0.84744600  0.53730500  0.50000000  1
  In  In4  1  0.15995000  0.15995000  0.50000000  1
  In  In5  1  0.84005000  0.84005000  0.50000000  1
  In  In6  1  0.15255400  0.46269500  0.50000000  1
  In  In7  1  0.27410600  0.72589400  0.50000000  1
  In  In8  1  0.53730500  0.84744600  0.50000000  1
  In  In9  1  0.00000000  0.00000000  0.00000000  1
  In  In10  1  0.46269500  0.15255400  0.50000000  1
  Ni  Ni0  1  0.90612000  0.09388000  0.50000000  1
  Ni  Ni1  1  0.55628900  0.28067300  0.00000000  1
  Ni  Ni2  1  0.44371100  0.71932700  0.00000000  1
  Ni  Ni3  1  0.09388000  0.90612000  0.50000000  1
  Ni  Ni4  1  0.71932700  0.44371100  0.00000000  1
  Ni  Ni5  1  0.28067300  0.55628900  0.00000000  1
loop_
_geom_bond_atom_site_label_1
_geom_bond_atom_site_label_2
_geom_bond_distance
_geom_bond_site_symmetry_2
In0 Ni5 2.597974 1_555
In0 Ni1 2.597974 1_555
In0 In4 3.008566 1_554
In0 In4 3.008566 1_555
In0 In10 3.133835 1_554
In0 In10 3.133835 1_555
In0 In6 3.133835 1_555
In0 In6 3.133835 1_554
In0 Pr1 3.489833 1_545
In0 Pr3 3.489833 1_455
In0 Pr4 3.577867 1_554
In0 Pr4 3.577867 1_555
In1 Ni2 2.597974 1_555
In1 Ni4 2.597974 1_555
In1 In5 3.008566 1_555
In1 In5 3.008566 1_554
In1 In3 3.133835 1_555
In1 In8 3.133835 1_554
In1 In3 3.133835 1_554
In1 In8 3.133835 1_555
In1 Pr0 3.489833 1_655
In1 Pr2 3.489833 1_565
In1 Pr4 3.577867 1_554
In1 Pr4 3.577867 1_555
In2 Ni0 2.614209 1_555
In2 Ni4 2.788345 1_555
In2 Ni4 2.788345 1_556
In2 Ni1 2.788345 1_555
In2 Ni1 2.788345 1_556
In2 In3 2.960615 1_555
In2 Pr4 3.276631 1_555
In2 Pr2 3.279298 1_556
In2 Pr2 3.279298 1_555
In2 Pr3 3.279298 1_555
In2 Pr3 3.279298 1_556
In3 Ni4 2.716765 1_555
In3 Ni4 2.716765 1_556
In3 In5 3.098811 1_555
In3 In6 3.217337 1_655
In3 Pr0 3.303965 1_656
In3 Pr0 3.303965 1_655
In3 Pr3 3.395918 1_556
In3 Pr3 3.395918 1_555
In3 Pr4 3.573421 1_555
In4 Ni0 2.680340 1_455
In4 Ni3 2.680340 1_545
In4 In6 3.098811 1_555
In4 In9 3.176130 1_555
In4 In9 3.176130 1_556
In4 Pr1 3.355166 1_546
In4 Pr3 3.355166 1_456
In4 Pr1 3.355166 1_545
In4 Pr3 3.355166 1_455
In5 Ni3 2.680340 1_655
In5 Ni0 2.680340 1_565
In5 In8 3.098811 1_555
In5 In9 3.176130 1_665
In5 In9 3.176130 1_666
In5 Pr2 3.355166 1_566
In5 Pr0 3.355166 1_656
In5 Pr0 3.355166 1_655
In5 Pr2 3.355166 1_565
In6 Ni5 2.716765 1_555
In6 Ni5 2.716765 1_556
In6 In7 2.960615 1_555
In6 Pr3 3.303965 1_456
In6 Pr3 3.303965 1_455
In6 Pr0 3.395918 1_555
In6 Pr0 3.395918 1_556
In6 Pr4 3.573421 1_555
In7 Ni3 2.614209 1_555
In7 Ni2 2.788345 1_556
In7 Ni2 2.788345 1_555
In7 Ni5 2.788345 1_555
In7 Ni5 2.788345 1_556
In7 In8 2.960615 1_555
In7 Pr4 3.276631 1_555
In7 Pr0 3.279298 1_555
In7 Pr0 3.279298 1_556
In7 Pr1 3.279298 1_556
In7 Pr1 3.279298 1_555
In8 Ni2 2.716765 1_556
In8 Ni2 2.716765 1_555
In8 Pr2 3.303965 1_565
In8 Pr2 3.303965 1_566
In8 Pr1 3.395918 1_555
In8 Pr1 3.395918 1_556
In8 Pr4 3.573421 1_555
In9 Ni0 2.571436 1_455
In9 Ni0 2.571436 1_454
In9 Ni3 2.571436 1_544
In9 Ni3 2.571436 1_545
In9 Pr1 3.206966 1_545
In9 Pr3 3.206966 1_455
In9 Pr2 3.206966 1_455
In9 Pr0 3.206966 1_545
In10 Ni1 2.716765 1_555
In10 Ni1 2.716765 1_556
In10 In2 2.960615 1_555
In10 In4 3.098811 1_555
In10 In8 3.217337 1_545
In10 Pr1 3.303965 1_545
In10 Pr1 3.303965 1_546
In10 Pr2 3.395918 1_556
In10 Pr2 3.395918 1_555
In10 Pr4 3.573421 1_555
Ni0 Ni3 2.723491 1_645
Ni0 Pr3 3.164458 1_556
Ni0 Pr3 3.164458 1_555
Ni0 Pr2 3.164458 1_556
Ni0 Pr2 3.164458 1_555
Ni1 Ni4 2.353222 1_555
Ni1 Pr2 2.840602 1_555
Ni1 Pr4 3.184032 1_554
Ni1 Pr4 3.184032 1_555
Ni2 Ni5 2.353222 1_555
Ni2 Pr1 2.840602 1_555
Ni2 Pr4 3.184032 1_554
Ni2 Pr4 3.184032 1_555
Ni3 Pr1 3.164458 1_555
Ni3 Pr1 3.164458 1_556
Ni3 Pr0 3.164458 1_555
Ni3 Pr0 3.164458 1_556
Ni4 Pr3 2.840602 1_555
Ni4 Pr4 3.184032 1_554
Ni4 Pr4 3.184032 1_555
Ni5 Pr0 2.840602 1_555
Ni5 Pr4 3.184032 1_554
Ni5 Pr4 3.184032 1_555
