# generated using pymatgen
data_SeCl4
_symmetry_space_group_name_H-M   'P 1'
_cell_length_a   16.94188500
_cell_length_b   16.94188500
_cell_length_c   16.94188500
_cell_angle_alpha   90.00000000
_cell_angle_beta   90.00000000
_cell_angle_gamma   90.00000000
_symmetry_Int_Tables_number   1
_chemical_formula_structural   SeCl4
_chemical_formula_sum   'Se32 Cl128'
_cell_volume   4862.78634374
_cell_formula_units_Z   32
loop_
 _symmetry_equiv_pos_site_id
 _symmetry_equiv_pos_as_xyz
  1  'x, y, z'
loop_
 _atom_site_type_symbol
 _atom_site_label
 _atom_site_symmetry_multiplicity
 _atom_site_fract_x
 _atom_site_fract_y
 _atom_site_fract_z
 _atom_site_occupancy
  Se  Se0  1  0.09147400  0.59861100  0.66943600  1
  Se  Se1  1  0.83056400  0.90138900  0.59147400  1
  Se  Se2  1  0.08830300  0.91169700  0.91169700  1
  Se  Se3  1  0.40138900  0.66943600  0.90852600  1
  Se  Se4  1  0.59147400  0.83056400  0.90138900  1
  Se  Se5  1  0.90852600  0.40138900  0.66943600  1
  Se  Se6  1  0.40138900  0.33056400  0.09147400  1
  Se  Se7  1  0.59861100  0.66943600  0.09147400  1
  Se  Se8  1  0.58830300  0.41169700  0.41169700  1
  Se  Se9  1  0.16943600  0.90138900  0.40852600  1
  Se  Se10  1  0.91169700  0.91169700  0.08830300  1
  Se  Se11  1  0.41169700  0.58830300  0.41169700  1
  Se  Se12  1  0.09861100  0.59147400  0.16943600  1
  Se  Se13  1  0.83056400  0.09861100  0.40852600  1
  Se  Se14  1  0.33056400  0.09147400  0.40138900  1
  Se  Se15  1  0.33056400  0.90852600  0.59861100  1
  Se  Se16  1  0.40852600  0.16943600  0.90138900  1
  Se  Se17  1  0.66943600  0.90852600  0.40138900  1
  Se  Se18  1  0.90852600  0.59861100  0.33056400  1
  Se  Se19  1  0.90138900  0.40852600  0.16943600  1
  Se  Se20  1  0.66943600  0.09147400  0.59861100  1
  Se  Se21  1  0.08830300  0.08830300  0.08830300  1
  Se  Se22  1  0.41169700  0.41169700  0.58830300  1
  Se  Se23  1  0.58830300  0.58830300  0.58830300  1
  Se  Se24  1  0.40852600  0.83056400  0.09861100  1
  Se  Se25  1  0.90138900  0.59147400  0.83056400  1
  Se  Se26  1  0.09861100  0.40852600  0.83056400  1
  Se  Se27  1  0.91169700  0.08830300  0.91169700  1
  Se  Se28  1  0.16943600  0.09861100  0.59147400  1
  Se  Se29  1  0.59861100  0.33056400  0.90852600  1
  Se  Se30  1  0.09147400  0.40138900  0.33056400  1
  Se  Se31  1  0.59147400  0.16943600  0.09861100  1
  Cl  Cl0  1  0.03842300  0.09893500  0.59556100  1
  Cl  Cl1  1  0.27939100  0.18703100  0.90280700  1
  Cl  Cl2  1  0.27939100  0.81296900  0.09719300  1
  Cl  Cl3  1  0.28146200  0.58374400  0.42139200  1
  Cl  Cl4  1  0.17022300  0.07147700  0.42129600  1
  Cl  Cl5  1  0.78146200  0.07860800  0.91625600  1
  Cl  Cl6  1  0.57694600  0.42305400  0.57694600  1
  Cl  Cl7  1  0.31832800  0.07629800  0.27270700  1
  Cl  Cl8  1  0.59893500  0.53842300  0.09556100  1
  Cl  Cl9  1  0.09893500  0.40443900  0.96157700  1
  Cl  Cl10  1  0.82977700  0.07147700  0.57870400  1
  Cl  Cl11  1  0.18703100  0.09719300  0.72060900  1
  Cl  Cl12  1  0.53842300  0.09556100  0.59893500  1
  Cl  Cl13  1  0.59556100  0.03842300  0.09893500  1
  Cl  Cl14  1  0.22729300  0.57629800  0.18167200  1
  Cl  Cl15  1  0.92305400  0.07694600  0.07694600  1
  Cl  Cl16  1  0.40106500  0.53842300  0.90443900  1
  Cl  Cl17  1  0.90443900  0.59893500  0.46157700  1
  Cl  Cl18  1  0.42852300  0.32977700  0.92129600  1
  Cl  Cl19  1  0.31832800  0.92370200  0.72729300  1
  Cl  Cl20  1  0.21853800  0.92139200  0.91625600  1
  Cl  Cl21  1  0.78146200  0.92139200  0.08374400  1
  Cl  Cl22  1  0.57694600  0.57694600  0.42305400  1
  Cl  Cl23  1  0.71853800  0.41625600  0.42139200  1
  Cl  Cl24  1  0.32977700  0.07870400  0.57147700  1
  Cl  Cl25  1  0.09556100  0.40106500  0.46157700  1
  Cl  Cl26  1  0.40106500  0.46157700  0.09556100  1
  Cl  Cl27  1  0.68703100  0.22060900  0.59719300  1
  Cl  Cl28  1  0.67022300  0.92129600  0.57147700  1
  Cl  Cl29  1  0.72060900  0.18703100  0.09719300  1
  Cl  Cl30  1  0.57870400  0.17022300  0.92852300  1
  Cl  Cl31  1  0.90106500  0.40443900  0.03842300  1
  Cl  Cl32  1  0.40443900  0.03842300  0.90106500  1
  Cl  Cl33  1  0.57147700  0.32977700  0.07870400  1
  Cl  Cl34  1  0.32977700  0.92129600  0.42852300  1
  Cl  Cl35  1  0.28146200  0.41625600  0.57860800  1
  Cl  Cl36  1  0.71853800  0.58374400  0.57860800  1
  Cl  Cl37  1  0.57629800  0.81832800  0.77270700  1
  Cl  Cl38  1  0.53842300  0.90443900  0.40106500  1
  Cl  Cl39  1  0.92129600  0.42852300  0.32977700  1
  Cl  Cl40  1  0.67022300  0.07870400  0.42852300  1
  Cl  Cl41  1  0.42305400  0.42305400  0.42305400  1
  Cl  Cl42  1  0.07629800  0.72729300  0.68167200  1
  Cl  Cl43  1  0.92139200  0.08374400  0.78146200  1
  Cl  Cl44  1  0.58374400  0.42139200  0.28146200  1
  Cl  Cl45  1  0.81832800  0.77270700  0.57629800  1
  Cl  Cl46  1  0.31296900  0.22060900  0.40280700  1
  Cl  Cl47  1  0.59556100  0.96157700  0.90106500  1
  Cl  Cl48  1  0.96157700  0.09893500  0.40443900  1
  Cl  Cl49  1  0.18167200  0.22729300  0.57629800  1
  Cl  Cl50  1  0.08374400  0.21853800  0.07860800  1
  Cl  Cl51  1  0.09719300  0.72060900  0.18703100  1
  Cl  Cl52  1  0.77270700  0.57629800  0.81832800  1
  Cl  Cl53  1  0.92852300  0.42129600  0.82977700  1
  Cl  Cl54  1  0.22060900  0.40280700  0.31296900  1
  Cl  Cl55  1  0.18167200  0.77270700  0.42370200  1
  Cl  Cl56  1  0.27270700  0.68167200  0.92370200  1
  Cl  Cl57  1  0.17022300  0.92852300  0.57870400  1
  Cl  Cl58  1  0.68167200  0.92370200  0.27270700  1
  Cl  Cl59  1  0.57147700  0.67022300  0.92129600  1
  Cl  Cl60  1  0.82977700  0.92852300  0.42129600  1
  Cl  Cl61  1  0.09556100  0.59893500  0.53842300  1
  Cl  Cl62  1  0.42305400  0.57694600  0.57694600  1
  Cl  Cl63  1  0.41625600  0.57860800  0.28146200  1
  Cl  Cl64  1  0.90280700  0.27939100  0.18703100  1
  Cl  Cl65  1  0.03842300  0.90106500  0.40443900  1
  Cl  Cl66  1  0.42139200  0.28146200  0.58374400  1
  Cl  Cl67  1  0.59719300  0.68703100  0.22060900  1
  Cl  Cl68  1  0.91625600  0.78146200  0.07860800  1
  Cl  Cl69  1  0.72060900  0.81296900  0.90280700  1
  Cl  Cl70  1  0.90106500  0.59556100  0.96157700  1
  Cl  Cl71  1  0.07860800  0.91625600  0.78146200  1
  Cl  Cl72  1  0.22729300  0.42370200  0.81832800  1
  Cl  Cl73  1  0.77939100  0.40280700  0.68703100  1
  Cl  Cl74  1  0.46157700  0.09556100  0.40106500  1
  Cl  Cl75  1  0.77939100  0.59719300  0.31296900  1
  Cl  Cl76  1  0.42129600  0.17022300  0.07147700  1
  Cl  Cl77  1  0.92370200  0.72729300  0.31832800  1
  Cl  Cl78  1  0.07694600  0.07694600  0.92305400  1
  Cl  Cl79  1  0.92305400  0.92305400  0.92305400  1
  Cl  Cl80  1  0.92370200  0.27270700  0.68167200  1
  Cl  Cl81  1  0.42370200  0.81832800  0.22729300  1
  Cl  Cl82  1  0.96157700  0.90106500  0.59556100  1
  Cl  Cl83  1  0.92852300  0.57870400  0.17022300  1
  Cl  Cl84  1  0.90280700  0.72060900  0.81296900  1
  Cl  Cl85  1  0.81296900  0.90280700  0.72060900  1
  Cl  Cl86  1  0.27270700  0.31832800  0.07629800  1
  Cl  Cl87  1  0.42370200  0.18167200  0.77270700  1
  Cl  Cl88  1  0.07629800  0.27270700  0.31832800  1
  Cl  Cl89  1  0.07694600  0.92305400  0.07694600  1
  Cl  Cl90  1  0.46157700  0.90443900  0.59893500  1
  Cl  Cl91  1  0.92129600  0.57147700  0.67022300  1
  Cl  Cl92  1  0.58374400  0.57860800  0.71853800  1
  Cl  Cl93  1  0.42129600  0.82977700  0.92852300  1
  Cl  Cl94  1  0.57860800  0.71853800  0.58374400  1
  Cl  Cl95  1  0.22060900  0.59719300  0.68703100  1
  Cl  Cl96  1  0.09893500  0.59556100  0.03842300  1
  Cl  Cl97  1  0.42852300  0.67022300  0.07870400  1
  Cl  Cl98  1  0.09719300  0.27939100  0.81296900  1
  Cl  Cl99  1  0.91625600  0.21853800  0.92139200  1
  Cl  Cl100  1  0.42139200  0.71853800  0.41625600  1
  Cl  Cl101  1  0.07147700  0.42129600  0.17022300  1
  Cl  Cl102  1  0.57870400  0.82977700  0.07147700  1
  Cl  Cl103  1  0.40443900  0.96157700  0.09893500  1
  Cl  Cl104  1  0.68167200  0.07629800  0.72729300  1
  Cl  Cl105  1  0.07870400  0.57147700  0.32977700  1
  Cl  Cl106  1  0.59893500  0.46157700  0.90443900  1
  Cl  Cl107  1  0.68703100  0.77939100  0.40280700  1
  Cl  Cl108  1  0.90443900  0.40106500  0.53842300  1
  Cl  Cl109  1  0.40280700  0.31296900  0.22060900  1
  Cl  Cl110  1  0.31296900  0.77939100  0.59719300  1
  Cl  Cl111  1  0.07870400  0.42852300  0.67022300  1
  Cl  Cl112  1  0.57860800  0.28146200  0.41625600  1
  Cl  Cl113  1  0.07860800  0.08374400  0.21853800  1
  Cl  Cl114  1  0.81832800  0.22729300  0.42370200  1
  Cl  Cl115  1  0.92139200  0.91625600  0.21853800  1
  Cl  Cl116  1  0.18703100  0.90280700  0.27939100  1
  Cl  Cl117  1  0.21853800  0.07860800  0.08374400  1
  Cl  Cl118  1  0.72729300  0.31832800  0.92370200  1
  Cl  Cl119  1  0.72729300  0.68167200  0.07629800  1
  Cl  Cl120  1  0.07147700  0.57870400  0.82977700  1
  Cl  Cl121  1  0.77270700  0.42370200  0.18167200  1
  Cl  Cl122  1  0.57629800  0.18167200  0.22729300  1
  Cl  Cl123  1  0.81296900  0.09719300  0.27939100  1
  Cl  Cl124  1  0.59719300  0.31296900  0.77939100  1
  Cl  Cl125  1  0.40280700  0.68703100  0.77939100  1
  Cl  Cl126  1  0.08374400  0.78146200  0.92139200  1
  Cl  Cl127  1  0.41625600  0.42139200  0.71853800  1
loop_
_geom_bond_atom_site_label_1
_geom_bond_atom_site_label_2
_geom_bond_distance
_geom_bond_site_symmetry_2
Cl0 Se28 2.220694 1_555
Cl1 Se16 2.208136 1_555
Cl2 Se24 2.208136 1_555
Cl3 Se11 2.213879 1_555
Cl4 Se14 2.758220 1_555
Cl4 Se9 2.889752 1_545
Cl4 Se28 2.919585 1_555
Cl5 Se27 2.213879 1_555
Cl6 Se8 2.812822 1_555
Cl6 Se22 2.812822 1_555
Cl6 Se23 2.812822 1_555
Cl7 Se14 2.204991 1_555
Cl8 Se7 2.220694 1_555
Cl9 Se26 2.220694 1_555
Cl10 Se20 2.758220 1_555
Cl10 Se1 2.889752 1_545
Cl10 Se13 2.919585 1_555
Cl11 Se28 2.208136 1_555
Cl12 Se20 2.220694 1_555
Cl13 Se31 2.220694 1_555
Cl14 Se12 2.204991 1_555
Cl15 Se21 2.812822 1_655
Cl15 Se10 2.812822 1_545
Cl15 Se27 2.812822 1_554
Cl16 Se3 2.220694 1_555
Cl17 Se18 2.220694 1_555
Cl18 Se16 2.758220 1_555
Cl18 Se29 2.889752 1_555
Cl18 Se6 2.919585 1_556
Cl19 Se15 2.204991 1_555
Cl20 Se2 2.213879 1_555
Cl21 Se10 2.213879 1_555
Cl22 Se11 2.812822 1_555
Cl22 Se8 2.812822 1_555
Cl22 Se23 2.812822 1_555
Cl23 Se8 2.213879 1_555
Cl24 Se28 2.758220 1_555
Cl24 Se14 2.889752 1_555
Cl24 Se15 2.919585 1_545
Cl25 Se30 2.220694 1_555
Cl26 Se6 2.220694 1_555
Cl27 Se20 2.208136 1_555
Cl28 Se1 2.758220 1_555
Cl28 Se17 2.889752 1_555
Cl28 Se20 2.919585 1_565
Cl29 Se31 2.208136 1_555
Cl30 Se29 2.758220 1_555
Cl30 Se31 2.889752 1_556
Cl30 Se16 2.919585 1_555
Cl31 Se19 2.220694 1_555
Cl32 Se16 2.220694 1_555
Cl33 Se31 2.758220 1_555
Cl33 Se6 2.889752 1_555
Cl33 Se29 2.919585 1_554
Cl34 Se9 2.758220 1_555
Cl34 Se15 2.889752 1_555
Cl34 Se14 2.919585 1_565
Cl35 Se22 2.213879 1_555
Cl36 Se23 2.213879 1_555
Cl37 Se4 2.204991 1_555
Cl38 Se17 2.220694 1_555
Cl39 Se19 2.758220 1_555
Cl39 Se18 2.889752 1_555
Cl39 Se30 2.919585 1_655
Cl40 Se13 2.758220 1_555
Cl40 Se20 2.889752 1_555
Cl40 Se17 2.919585 1_545
Cl41 Se11 2.812822 1_555
Cl41 Se8 2.812822 1_555
Cl41 Se22 2.812822 1_555
Cl42 Se0 2.204991 1_555
Cl43 Se27 2.213879 1_555
Cl44 Se8 2.213879 1_555
Cl45 Se1 2.204991 1_555
Cl46 Se14 2.208136 1_555
Cl47 Se4 2.220694 1_555
Cl48 Se13 2.220694 1_555
Cl49 Se28 2.204991 1_555
Cl50 Se21 2.213879 1_555
Cl51 Se12 2.208136 1_555
Cl52 Se25 2.204991 1_555
Cl53 Se5 2.758220 1_555
Cl53 Se26 2.889752 1_655
Cl53 Se25 2.919585 1_555
Cl54 Se30 2.208136 1_555
Cl55 Se9 2.204991 1_555
Cl56 Se3 2.204991 1_555
Cl57 Se15 2.758220 1_555
Cl57 Se28 2.889752 1_565
Cl57 Se9 2.919585 1_555
Cl58 Se17 2.204991 1_555
Cl59 Se4 2.758220 1_555
Cl59 Se3 2.889752 1_555
Cl59 Se7 2.919585 1_556
Cl60 Se17 2.758220 1_555
Cl60 Se13 2.889752 1_565
Cl60 Se1 2.919585 1_555
Cl61 Se0 2.220694 1_555
Cl62 Se22 2.812822 1_555
Cl62 Se11 2.812822 1_555
Cl62 Se23 2.812822 1_555
Cl63 Se11 2.213879 1_555
Cl64 Se19 2.208136 1_555
Cl65 Se9 2.220694 1_555
Cl66 Se22 2.213879 1_555
Cl67 Se7 2.208136 1_555
Cl68 Se10 2.213879 1_555
Cl69 Se4 2.208136 1_555
Cl70 Se25 2.220694 1_555
Cl71 Se2 2.213879 1_555
Cl72 Se26 2.204991 1_555
Cl73 Se5 2.208136 1_555
Cl74 Se14 2.220694 1_555
Cl75 Se18 2.208136 1_555
Cl76 Se6 2.758220 1_555
Cl76 Se16 2.889752 1_554
Cl76 Se31 2.919585 1_555
Cl77 Se18 2.204991 1_555
Cl78 Se21 2.812822 1_556
Cl78 Se27 2.812822 1_455
Cl78 Se2 2.812822 1_545
Cl79 Se27 2.812822 1_565
Cl79 Se2 2.812822 1_655
Cl79 Se10 2.812822 1_556
Cl80 Se5 2.204991 1_555
Cl81 Se24 2.204991 1_555
Cl82 Se1 2.220694 1_555
Cl83 Se18 2.758220 1_555
Cl83 Se12 2.889752 1_655
Cl83 Se19 2.919585 1_555
Cl84 Se25 2.208136 1_555
Cl85 Se1 2.208136 1_555
Cl86 Se6 2.204991 1_555
Cl87 Se16 2.204991 1_555
Cl88 Se30 2.204991 1_555
Cl89 Se21 2.812822 1_565
Cl89 Se2 2.812822 1_554
Cl89 Se10 2.812822 1_455
Cl90 Se15 2.220694 1_555
Cl91 Se25 2.758220 1_555
Cl91 Se5 2.889752 1_555
Cl91 Se0 2.919585 1_655
Cl92 Se23 2.213879 1_555
Cl93 Se3 2.758220 1_555
Cl93 Se24 2.889752 1_556
Cl93 Se4 2.919585 1_555
Cl94 Se23 2.213879 1_555
Cl95 Se0 2.208136 1_555
Cl96 Se12 2.220694 1_555
Cl97 Se24 2.758220 1_555
Cl97 Se7 2.889752 1_555
Cl97 Se3 2.919585 1_554
Cl98 Se26 2.208136 1_555
Cl99 Se27 2.213879 1_555
Cl100 Se11 2.213879 1_555
Cl101 Se30 2.758220 1_555
Cl101 Se19 2.889752 1_455
Cl101 Se12 2.919585 1_555
Cl102 Se7 2.758220 1_555
Cl102 Se4 2.889752 1_554
Cl102 Se24 2.919585 1_555
Cl103 Se24 2.220694 1_555
Cl104 Se20 2.204991 1_555
Cl105 Se12 2.758220 1_555
Cl105 Se30 2.889752 1_555
Cl105 Se18 2.919585 1_455
Cl106 Se29 2.220694 1_555
Cl107 Se17 2.208136 1_555
Cl108 Se5 2.220694 1_555
Cl109 Se6 2.208136 1_555
Cl110 Se15 2.208136 1_555
Cl111 Se26 2.758220 1_555
Cl111 Se0 2.889752 1_555
Cl111 Se5 2.919585 1_455
Cl112 Se8 2.213879 1_555
Cl113 Se21 2.213879 1_555
Cl114 Se13 2.204991 1_555
Cl115 Se10 2.213879 1_555
Cl116 Se9 2.208136 1_555
Cl117 Se21 2.213879 1_555
Cl118 Se29 2.204991 1_555
Cl119 Se7 2.204991 1_555
Cl120 Se0 2.758220 1_555
Cl120 Se25 2.889752 1_455
Cl120 Se26 2.919585 1_555
Cl121 Se19 2.204991 1_555
Cl122 Se31 2.204991 1_555
Cl123 Se13 2.208136 1_555
Cl124 Se29 2.208136 1_555
Cl125 Se3 2.208136 1_555
Cl126 Se2 2.213879 1_555
Cl127 Se22 2.213879 1_555
