# generated using pymatgen
data_Ba8Bi2F17
_symmetry_space_group_name_H-M   'P 1'
_cell_length_a   4.39242268
_cell_length_b   4.39242224
_cell_length_c   44.48082495
_cell_angle_alpha   60.41307339
_cell_angle_beta   60.41307689
_cell_angle_gamma   59.99999434
_symmetry_Int_Tables_number   1
_chemical_formula_structural   Ba8Bi2F17
_chemical_formula_sum   'Ba8 Bi2 F17'
_cell_volume   610.58982944
_cell_formula_units_Z   1
loop_
 _symmetry_equiv_pos_site_id
 _symmetry_equiv_pos_as_xyz
  1  'x, y, z'
loop_
 _atom_site_type_symbol
 _atom_site_label
 _atom_site_symmetry_multiplicity
 _atom_site_fract_x
 _atom_site_fract_y
 _atom_site_fract_z
 _atom_site_occupancy
  Ba  Ba0  1  0.00885781  0.00885781  0.99734266  1
  Ba  Ba1  1  0.99809506  0.99809506  0.30057148  1
  Ba  Ba2  1  0.99930372  0.99930372  0.10020889  1
  Ba  Ba3  1  0.00061880  0.00061880  0.19981436  1
  Ba  Ba4  1  0.98152227  0.98152227  0.50554332  1
  Ba  Ba5  1  0.99876612  0.99876612  0.40037017  1
  Ba  Ba6  1  -0.00047744  -0.00047744  0.70014323  1
  Ba  Ba7  1  0.01345424  0.01345424  0.89596373  1
  Bi  Bi0  1  0.98977472  0.98977472  0.60306759  1
  Bi  Bi1  1  0.00816396  0.00816396  0.79755081  1
  F  F0  1  0.24781611  0.24781611  0.12565517  1
  F  F1  1  0.75366350  0.75366350  0.07390095  1
  F  F2  1  0.24747409  0.24747409  0.32575777  1
  F  F3  1  0.74918449  0.74918449  0.17524465  1
  F  F4  1  0.75223081  0.75223081  0.27433076  1
  F  F5  1  0.25688395  0.25688395  0.52293481  1
  F  F6  1  0.74592931  0.74592931  0.37622121  1
  F  F7  1  0.25186098  0.25186098  0.62444171  1
  F  F8  1  0.76198244  0.76198244  0.47140527  1
  F  F9  1  0.24296638  0.24296638  0.72711008  1
  F  F10  1  0.74271668  0.74271668  0.57718499  1
  F  F11  1  0.25737451  0.25737451  0.82278765  1
  F  F12  1  0.74862912  0.74862912  0.67541126  1
  F  F13  1  0.24897719  0.24897719  0.92530684  1
  F  F14  1  0.74603310  0.74603310  0.77619007  1
  F  F15  1  0.75153047  0.75153047  0.87454086  1
  F  F16  1  0.74666761  0.74666761  0.97599972  1
loop_
_geom_bond_atom_site_label_1
_geom_bond_atom_site_label_2
_geom_bond_distance
_geom_bond_site_symmetry_2
Ba0 F13 2.632445 1_555
Ba0 F16 2.653194 1_455
Ba0 F16 2.653195 1_545
Ba0 F16 2.653195 1_445
Ba0 F1 2.797712 1_446
Ba1 F2 2.697824 1_655
Ba1 F2 2.697824 1_565
Ba1 F2 2.697824 1_665
Ba1 F4 2.711212 1_565
Ba1 F4 2.711212 1_555
Ba1 F4 2.711212 1_655
Ba1 F6 2.764510 1_555
Ba2 F0 2.701080 1_655
Ba2 F0 2.701080 1_665
Ba2 F0 2.701080 1_565
Ba2 F1 2.712081 1_565
Ba2 F1 2.712082 1_655
Ba2 F1 2.712082 1_555
Ba2 F3 2.742073 1_555
Ba3 F3 2.690220 1_455
Ba3 F3 2.690220 1_545
Ba3 F3 2.690221 1_445
Ba3 F0 2.710040 1_555
Ba3 F4 2.723094 1_445
Ba4 F5 2.614392 1_655
Ba4 F5 2.614392 1_665
Ba4 F5 2.614392 1_565
Ba4 F10 2.618041 1_555
Ba4 F8 2.826206 1_565
Ba4 F8 2.826207 1_655
Ba4 F8 2.826207 1_555
Ba5 F8 2.595875 1_555
Ba5 F6 2.685127 1_565
Ba5 F6 2.685128 1_655
Ba5 F6 2.685128 1_555
Ba5 F2 2.726602 1_665
Ba6 F12 2.692205 1_455
Ba6 F12 2.692205 1_545
Ba6 F12 2.692205 1_445
Ba6 F9 2.720710 1_545
Ba6 F9 2.720710 1_555
Ba6 F9 2.720711 1_455
Ba6 F7 2.766402 1_555
Ba6 F14 2.779022 1_445
Ba7 F15 2.654054 1_455
Ba7 F15 2.654055 1_545
Ba7 F15 2.654055 1_445
Ba7 F11 2.674114 1_555
Ba7 F13 2.753353 1_545
Ba7 F13 2.753353 1_555
Ba7 F13 2.753354 1_455
Ba7 F16 2.924799 1_445
Bi0 F12 2.643695 1_555
Bi0 F7 2.653530 1_655
Bi0 F7 2.653530 1_565
Bi0 F7 2.653530 1_665
Bi0 F10 2.706610 1_565
Bi0 F10 2.706611 1_655
Bi0 F10 2.706611 1_555
Bi1 F9 2.574154 1_555
Bi1 F14 2.653386 1_455
Bi1 F14 2.653386 1_545
Bi1 F14 2.653386 1_445
Bi1 F11 2.698454 1_545
Bi1 F11 2.698455 1_455
Bi1 F11 2.698455 1_555
Bi1 F15 2.813490 1_445
