# generated using pymatgen
data_TiPb9O11
_symmetry_space_group_name_H-M   'P 1'
_cell_length_a   9.17648000
_cell_length_b   9.17648000
_cell_length_c   4.73438900
_cell_angle_alpha   90.00000000
_cell_angle_beta   90.00000000
_cell_angle_gamma   90.00000000
_symmetry_Int_Tables_number   1
_chemical_formula_structural   TiPb9O11
_chemical_formula_sum   'Ti1 Pb9 O11'
_cell_volume   398.67241192
_cell_formula_units_Z   1
loop_
 _symmetry_equiv_pos_site_id
 _symmetry_equiv_pos_as_xyz
  1  'x, y, z'
loop_
 _atom_site_type_symbol
 _atom_site_label
 _atom_site_symmetry_multiplicity
 _atom_site_fract_x
 _atom_site_fract_y
 _atom_site_fract_z
 _atom_site_occupancy
  Ti  Ti0  1  0.50000000  0.50000000  0.00763600  1
  Pb  Pb0  1  0.30204400  0.90149500  0.75846600  1
  Pb  Pb1  1  0.40015500  0.20162200  0.25462300  1
  Pb  Pb2  1  0.09850500  0.30204400  0.75846600  1
  Pb  Pb3  1  0.20162200  0.59984500  0.25462300  1
  Pb  Pb4  1  0.90149500  0.69795600  0.75846600  1
  Pb  Pb5  1  0.00000000  0.00000000  0.24244000  1
  Pb  Pb6  1  0.69795600  0.09850500  0.75846600  1
  Pb  Pb7  1  0.79837800  0.40015500  0.25462300  1
  Pb  Pb8  1  0.59984500  0.79837800  0.25462300  1
  O  O0  1  0.40461600  0.69502700  0.97856000  1
  O  O1  1  0.19766200  0.10675000  0.00285100  1
  O  O2  1  0.30497300  0.40461600  0.97856000  1
  O  O3  1  0.00000000  0.50000000  0.01153200  1
  O  O4  1  0.10675000  0.80233800  0.00285100  1
  O  O5  1  0.80233800  0.89325000  0.00285100  1
  O  O6  1  0.89325000  0.19766200  0.00285100  1
  O  O7  1  0.59538400  0.30497300  0.97856000  1
  O  O8  1  0.50000000  0.50000000  0.37932600  1
  O  O9  1  0.69502700  0.59538400  0.97856000  1
  O  O10  1  0.50000000  0.00000000  0.01153200  1
loop_
_geom_bond_atom_site_label_1
_geom_bond_atom_site_label_2
_geom_bond_distance
_geom_bond_site_symmetry_2
O0 Ti0 1.996990 1_556
O0 Pb0 2.358269 1_555
O0 Pb8 2.411889 1_556
O0 Pb3 2.437422 1_556
O1 Pb2 2.319113 1_554
O1 Pb5 2.352928 1_555
O1 Pb1 2.373092 1_555
O1 Pb0 2.409111 1_544
O2 Ti0 1.996990 1_556
O2 Pb2 2.358269 1_555
O2 Pb3 2.411889 1_556
O2 Pb1 2.437422 1_556
O3 Pb2 2.356348 1_554
O3 Pb4 2.356348 1_454
O3 Pb3 2.363721 1_555
O3 Pb7 2.363721 1_455
O4 Pb0 2.319113 1_554
O4 Pb5 2.352928 1_565
O4 Pb3 2.373092 1_555
O4 Pb4 2.409111 1_454
O5 Pb4 2.319113 1_554
O5 Pb5 2.352928 1_665
O5 Pb8 2.373092 1_555
O5 Pb6 2.409111 1_564
O6 Pb6 2.319113 1_554
O6 Pb5 2.352928 1_655
O6 Pb7 2.373092 1_555
O6 Pb2 2.409111 1_654
O7 Ti0 1.996990 1_556
O7 Pb6 2.358269 1_555
O7 Pb1 2.411889 1_556
O7 Pb7 2.437422 1_556
O8 Ti0 1.759725 1_555
O9 Ti0 1.996990 1_556
O9 Pb4 2.358269 1_555
O9 Pb7 2.411889 1_556
O9 Pb8 2.437422 1_556
O10 Pb6 2.356348 1_554
O10 Pb0 2.356348 1_544
O10 Pb1 2.363721 1_555
O10 Pb8 2.363721 1_545
