# generated using pymatgen
data_MnGePd
_symmetry_space_group_name_H-M   'P 1'
_cell_length_a   6.67709981
_cell_length_b   6.67709981
_cell_length_c   3.56661000
_cell_angle_alpha   90.00000000
_cell_angle_beta   90.00000000
_cell_angle_gamma   119.99999808
_symmetry_Int_Tables_number   1
_chemical_formula_structural   MnGePd
_chemical_formula_sum   'Mn3 Ge3 Pd3'
_cell_volume   137.70889671
_cell_formula_units_Z   3
loop_
 _symmetry_equiv_pos_site_id
 _symmetry_equiv_pos_as_xyz
  1  'x, y, z'
loop_
 _atom_site_type_symbol
 _atom_site_label
 _atom_site_symmetry_multiplicity
 _atom_site_fract_x
 _atom_site_fract_y
 _atom_site_fract_z
 _atom_site_occupancy
  Mn  Mn0  1  0.00000000  0.59669500  0.50000000  1
  Mn  Mn1  1  0.40330500  0.40330500  0.50000000  1
  Mn  Mn2  1  0.59669500  0.00000000  0.50000000  1
  Ge  Ge0  1  0.00000000  0.00000000  0.50000000  1
  Ge  Ge1  1  0.66666700  0.33333300  0.00000000  1
  Ge  Ge2  1  0.33333300  0.66666700  0.00000000  1
  Pd  Pd0  1  0.00000000  0.26493400  0.00000000  1
  Pd  Pd1  1  0.73506600  0.73506600  0.00000000  1
  Pd  Pd2  1  0.26493400  0.00000000  0.00000000  1
loop_
_geom_bond_atom_site_label_1
_geom_bond_atom_site_label_2
_geom_bond_distance
_geom_bond_site_symmetry_2
Mn0 Pd0 2.843817 1_555
Mn0 Pd0 2.843817 1_556
Mn0 Pd1 2.966063 1_455
Mn0 Pd1 2.966063 1_456
Mn0 Pd2 2.966063 1_566
Mn0 Pd2 2.966063 1_565
Mn1 Pd1 2.843817 1_555
Mn1 Pd1 2.843817 1_556
Mn1 Pd2 2.966063 1_555
Mn1 Pd2 2.966063 1_556
Mn1 Pd0 2.966063 1_555
Mn1 Pd0 2.966063 1_556
Mn2 Pd2 2.843817 1_555
Mn2 Pd2 2.843817 1_556
Mn2 Pd1 2.966063 1_545
Mn2 Pd1 2.966063 1_546
Mn2 Pd0 2.966063 1_655
Mn2 Pd0 2.966063 1_656
Ge0 Pd0 2.511873 1_556
Ge0 Pd0 2.511873 1_555
Ge0 Pd2 2.511873 1_555
Ge0 Pd2 2.511873 1_556
Ge0 Pd1 2.511873 1_446
Ge0 Pd1 2.511873 1_445
Ge0 Mn0 2.692908 1_545
Ge0 Mn2 2.692908 1_455
Ge0 Mn1 2.692908 1_555
Ge1 Pd0 2.485720 1_655
Ge1 Pd2 2.485724 1_555
Ge1 Pd1 2.485726 1_555
Ge1 Mn2 2.704131 1_554
Ge1 Mn2 2.704131 1_555
Ge1 Mn0 2.704133 1_655
Ge1 Mn0 2.704133 1_654
Ge1 Mn1 2.704136 1_554
Ge1 Mn1 2.704136 1_555
Ge2 Pd2 2.485720 1_565
Ge2 Pd0 2.485724 1_555
Ge2 Pd1 2.485726 1_555
Ge2 Mn0 2.704131 1_555
Ge2 Mn0 2.704131 1_554
Ge2 Mn2 2.704133 1_564
Ge2 Mn2 2.704133 1_565
Ge2 Mn1 2.704136 1_554
Ge2 Mn1 2.704136 1_555
