# generated using pymatgen
data_H2W2O7
_symmetry_space_group_name_H-M   'P 1'
_cell_length_a   7.35320502
_cell_length_b   7.35320502
_cell_length_c   7.35320502
_cell_angle_alpha   119.62842943
_cell_angle_beta   119.62842943
_cell_angle_gamma   90.64479305
_symmetry_Int_Tables_number   1
_chemical_formula_structural   H2W2O7
_chemical_formula_sum   'H4 W4 O14'
_cell_volume   282.69462372
_cell_formula_units_Z   2
loop_
 _symmetry_equiv_pos_site_id
 _symmetry_equiv_pos_as_xyz
  1  'x, y, z'
loop_
 _atom_site_type_symbol
 _atom_site_label
 _atom_site_symmetry_multiplicity
 _atom_site_fract_x
 _atom_site_fract_y
 _atom_site_fract_z
 _atom_site_occupancy
  H  H0  1  0.34179000  0.84179000  0.50000000  1
  H  H1  1  0.15821000  0.65821000  0.50000000  1
  H  H2  1  0.40821000  0.40821000  0.00000000  1
  H  H3  1  0.59179000  0.59179000  0.00000000  1
  W  W0  1  0.87500000  0.12500000  0.25000000  1
  W  W1  1  0.87500000  0.62500000  0.75000000  1
  W  W2  1  0.87500000  0.12500000  0.75000000  1
  W  W3  1  0.37500000  0.12500000  0.25000000  1
  O  O0  1  0.18620900  0.18620900  0.00000000  1
  O  O1  1  0.81379100  0.81379100  0.00000000  1
  O  O2  1  0.18108000  0.81892000  0.00000000  1
  O  O3  1  0.81892000  0.18108000  0.00000000  1
  O  O4  1  0.18108000  0.18108000  0.36216000  1
  O  O5  1  0.81892000  0.81892000  0.63784000  1
  O  O6  1  0.56379100  0.06379100  0.50000000  1
  O  O7  1  0.93620900  0.43620900  0.50000000  1
  O  O8  1  0.56892000  0.43108000  0.50000000  1
  O  O9  1  0.93108000  0.06892000  0.50000000  1
  O  O10  1  0.56892000  0.06892000  0.13784000  1
  O  O11  1  0.93108000  0.43108000  0.86216000  1
  O  O12  1  0.25000000  0.75000000  0.50000000  1
  O  O13  1  0.50000000  0.50000000  0.00000000  1
loop_
_geom_bond_atom_site_label_1
_geom_bond_atom_site_label_2
_geom_bond_distance
_geom_bond_site_symmetry_2
H0 O12 0.949138 1_555
H1 O12 0.949138 1_555
H2 O13 0.949138 1_555
H3 O13 0.949138 1_555
O0 W2 1.953963 1_454
O0 W3 1.953963 1_555
O1 W1 1.953963 1_554
O1 W0 1.953963 1_565
O2 W3 1.929578 1_565
O2 W1 1.929578 1_454
O3 W0 1.929578 1_555
O3 W2 1.929578 1_554
O4 W3 1.929578 1_555
O4 W0 1.929578 1_455
O5 W1 1.929578 1_555
O5 W2 1.929578 1_565
O6 W2 1.953963 1_555
O6 W3 1.953963 1_555
O7 W1 1.953963 1_555
O7 W0 1.953963 1_555
O8 W1 1.929578 1_555
O8 W3 1.929578 1_555
O9 W0 1.929578 1_555
O9 W2 1.929578 1_555
O10 W3 1.929578 1_555
O10 W0 1.929578 1_555
O11 W1 1.929578 1_555
O11 W2 1.929578 1_555
