# generated using pymatgen
data_KBa6Zn4(GaO3)7
_symmetry_space_group_name_H-M   'P 1'
_cell_length_a   10.97135300
_cell_length_b   10.97952054
_cell_length_c   11.96538190
_cell_angle_alpha   90.00248320
_cell_angle_beta   90.18581660
_cell_angle_gamma   119.92086405
_symmetry_Int_Tables_number   1
_chemical_formula_structural   KBa6Zn4(GaO3)7
_chemical_formula_sum   'K2 Ba12 Zn8 Ga14 O42'
_cell_volume   1249.23298999
_cell_formula_units_Z   2
loop_
 _symmetry_equiv_pos_site_id
 _symmetry_equiv_pos_as_xyz
  1  'x, y, z'
loop_
 _atom_site_type_symbol
 _atom_site_label
 _atom_site_symmetry_multiplicity
 _atom_site_fract_x
 _atom_site_fract_y
 _atom_site_fract_z
 _atom_site_occupancy
  K  K0  1  0.66607000  0.33283800  0.59834900  1
  K  K1  1  0.33366200  0.66553900  0.09714400  1
  Ba  Ba0  1  0.26875800  0.14373700  0.03623900  1
  Ba  Ba1  1  0.39749500  0.20194700  0.36635000  1
  Ba  Ba2  1  0.80021700  0.60338700  0.36455800  1
  Ba  Ba3  1  0.87449800  0.73169100  0.03597400  1
  Ba  Ba4  1  0.12704500  0.86035000  0.54217400  1
  Ba  Ba5  1  0.80074000  0.19798300  0.36537400  1
  Ba  Ba6  1  0.19689100  0.80262900  0.86274000  1
  Ba  Ba7  1  0.85800900  0.12439100  0.03849500  1
  Ba  Ba8  1  0.19946000  0.39513600  0.86454800  1
  Ba  Ba9  1  0.14520500  0.26595800  0.54055700  1
  Ba  Ba10  1  0.60481100  0.80176300  0.86632700  1
  Ba  Ba11  1  0.73425000  0.87560900  0.53749500  1
  Zn  Zn0  1  0.34026100  0.17472000  0.71935800  1
  Zn  Zn1  1  0.52774600  0.52358700  0.11253700  1
  Zn  Zn2  1  0.47495300  0.00423700  0.11152400  1
  Zn  Zn3  1  0.83337200  0.65914500  0.72227100  1
  Zn  Zn4  1  0.99448400  0.46931600  0.11207600  1
  Zn  Zn5  1  0.00421600  0.47379000  0.61234300  1
  Zn  Zn6  1  0.46982000  0.99859300  0.61039900  1
  Zn  Zn7  1  0.44015000  0.56972300  0.37126100  1
  Ga  Ga0  1  0.57077500  0.44129200  0.86755400  1
  Ga  Ga1  1  0.56110200  0.13103400  0.86884800  1
  Ga  Ga2  1  0.66620600  0.33329800  0.18678800  1
  Ga  Ga3  1  0.00227100  0.00297500  0.79684100  1
  Ga  Ga4  1  0.86817800  0.43131800  0.86576100  1
  Ga  Ga5  1  0.82268300  0.16579200  0.72262500  1
  Ga  Ga6  1  0.16655500  0.82282400  0.22223900  1
  Ga  Ga7  1  0.13312200  0.56445900  0.36884500  1
  Ga  Ga8  1  0.42968000  0.86731100  0.36841300  1
  Ga  Ga9  1  0.33163100  0.66410800  0.68722200  1
  Ga  Ga10  1  0.17927700  0.34515900  0.22186200  1
  Ga  Ga11  1  0.65696300  0.83322300  0.22347900  1
  Ga  Ga12  1  0.52727200  0.52882600  0.61189300  1
  Ga  Ga13  1  0.99914500  0.99984900  0.29644200  1
  O  O0  1  0.15712400  0.16404600  0.24102900  1
  O  O1  1  0.43591100  0.41659500  0.97190700  1
  O  O2  1  0.47824300  0.39100500  0.72613100  1
  O  O3  1  0.37248000  0.10808600  0.57685900  1
  O  O4  1  0.37676600  0.08930300  0.85402100  1
  O  O5  1  0.48894700  0.18304500  0.15482200  1
  O  O6  1  0.71295200  0.62660700  0.85633000  1
  O  O7  1  0.72227100  0.62014700  0.58093000  1
  O  O8  1  0.69494600  0.51116400  0.15459100  1
  O  O9  1  0.66624000  0.33376800  0.88553100  1
  O  O10  1  0.66715300  0.33311700  0.34983000  1
  O  O11  1  0.58360500  0.01875800  0.97382200  1
  O  O12  1  0.62459200  0.09588200  0.73016600  1
  O  O13  1  0.00589200  0.84113300  0.24063400  1
  O  O14  1  0.00508600  0.84505300  0.74018600  1
  O  O15  1  0.90660000  0.52334400  0.72809000  1
  O  O16  1  0.81590500  0.30480300  0.15549400  1
  O  O17  1  0.98127400  0.56096400  0.97285100  1
  O  O18  1  0.01618200  0.57887900  0.47241900  1
  O  O19  1  0.88795600  0.25637700  0.58632000  1
  O  O20  1  0.90539100  0.28169200  0.84916300  1
  O  O21  1  0.09419900  0.62442400  0.22924900  1
  O  O22  1  0.25906000  0.88712800  0.08681100  1
  O  O23  1  0.28417400  0.90962900  0.34646100  1
  O  O24  1  0.83639900  0.99719100  0.23862300  1
  O  O25  1  0.30879200  0.81559200  0.65452400  1
  O  O26  1  0.09329200  0.37796000  0.34678600  1
  O  O27  1  0.10927200  0.36949900  0.08637500  1
  O  O28  1  0.18426500  0.48693300  0.65371700  1
  O  O29  1  0.32972400  0.67092300  0.38781800  1
  O  O30  1  0.99801800  0.99982300  0.95254500  1
  O  O31  1  0.33518500  0.66686500  0.84895500  1
  O  O32  1  0.56394600  0.98029300  0.47241400  1
  O  O33  1  0.52889100  0.90478500  0.22979200  1
  O  O34  1  0.15731200  0.16776600  0.74297800  1
  O  O35  1  0.37456600  0.46488400  0.22585000  1
  O  O36  1  0.50773800  0.68334400  0.65355400  1
  O  O37  1  0.42315900  0.43279900  0.48585800  1
  O  O38  1  0.62824400  0.74130900  0.08675200  1
  O  O39  1  0.63600800  0.72518700  0.34846200  1
  O  O40  1  0.83684200  0.00339000  0.74243600  1
  O  O41  1  0.99842400  0.99897000  0.45081200  1
loop_
_geom_bond_atom_site_label_1
_geom_bond_atom_site_label_2
_geom_bond_distance
_geom_bond_site_symmetry_2
K0 O15 2.866285 1_555
K0 O12 2.878773 1_555
K0 O2 2.885379 1_555
K0 O7 2.904319 1_555
K0 O3 2.931877 1_555
K0 O19 2.948354 1_555
K0 O10 2.973683 1_555
K1 O33 2.893396 1_555
K1 O35 2.899795 1_555
K1 O21 2.906639 1_555
K1 O38 2.910920 1_555
K1 O22 2.930927 1_555
K1 O27 2.942345 1_555
K1 O31 2.969773 1_554
Ba0 O5 2.640657 1_555
Ba0 O4 2.690413 1_554
Ba0 O1 2.731162 1_554
Ba0 O30 2.760627 1_444
Ba0 O0 2.801086 1_555
Ba0 O22 2.831427 1_545
Ba1 O10 2.572783 1_555
Ba1 O3 2.684094 1_555
Ba1 O5 2.771276 1_555
Ba1 O37 2.798855 1_555
Ba1 O23 2.814353 1_545
Ba1 O0 2.873326 1_555
Ba2 O10 2.577699 1_555
Ba2 O39 2.733590 1_555
Ba2 O8 2.735935 1_555
Ba2 O7 2.763924 1_555
Ba2 O18 2.822852 1_655
Ba2 O13 2.872336 1_655
Ba3 O8 2.649098 1_555
Ba3 O6 2.651028 1_554
Ba3 O30 2.743888 1_554
Ba3 O17 2.766382 1_554
Ba3 O13 2.787038 1_655
Ba3 O38 2.823998 1_555
Ba4 O25 2.642909 1_555
Ba4 O14 2.688594 1_555
Ba4 O3 2.739985 1_565
Ba4 O41 2.763249 1_455
Ba4 O23 2.800778 1_555
Ba4 O18 2.823118 1_555
Ba5 O10 2.559622 1_555
Ba5 O16 2.741918 1_555
Ba5 O19 2.772591 1_555
Ba5 O32 2.815977 1_545
Ba5 O26 2.816683 1_655
Ba5 O24 2.859626 1_545
Ba6 O31 2.609435 1_555
Ba6 O25 2.753192 1_555
Ba6 O4 2.759918 1_565
Ba6 O14 2.784518 1_555
Ba6 O22 2.805507 1_556
Ba6 O17 2.851497 1_455
Ba7 O16 2.648342 1_555
Ba7 O30 2.719158 1_544
Ba7 O24 2.722955 1_545
Ba7 O20 2.738167 1_554
Ba7 O11 2.740267 1_554
Ba7 O27 2.785430 1_655
Ba8 O31 2.592884 1_555
Ba8 O34 2.721316 1_555
Ba8 O28 2.751840 1_555
Ba8 O1 2.793582 1_555
Ba8 O27 2.800459 1_556
Ba8 O20 2.825189 1_455
Ba9 O28 2.619566 1_555
Ba9 O34 2.680904 1_555
Ba9 O37 2.742955 1_555
Ba9 O41 2.760198 1_445
Ba9 O26 2.811170 1_555
Ba9 O19 2.826749 1_455
Ba10 O31 2.571522 1_555
Ba10 O6 2.719843 1_555
Ba10 O38 2.762047 1_556
Ba10 O36 2.811961 1_555
Ba10 O11 2.817704 1_565
Ba10 O40 2.825158 1_565
Ba11 O39 2.685773 1_555
Ba11 O36 2.711040 1_555
Ba11 O41 2.722879 1_555
Ba11 O32 2.748039 1_555
Ba11 O40 2.766758 1_565
Ba11 O7 2.790589 1_555
Ga0 O6 1.851020 1_555
Ga0 O1 1.853018 1_555
Ga0 O2 1.904875 1_555
Ga0 O9 1.941417 1_555
Ga1 O4 1.845214 1_555
Ga1 O11 1.860110 1_555
Ga1 O12 1.913992 1_555
Ga1 O9 1.939627 1_555
Ga2 O5 1.855925 1_555
Ga2 O8 1.856918 1_555
Ga2 O16 1.858000 1_555
Ga2 O10 1.950860 1_555
Ga3 O30 1.863684 1_445
Ga3 O34 1.875996 1_555
Ga3 O14 1.876271 1_545
Ga3 O40 1.928349 1_455
Ga4 O17 1.853448 1_555
Ga4 O15 1.868663 1_555
Ga4 O20 1.890665 1_555
Ga4 O9 1.935936 1_555
Ga5 O19 1.859886 1_555
Ga5 O40 1.880394 1_555
Ga5 O20 1.890536 1_555
Ga5 O12 1.912521 1_555
Ga6 O22 1.857495 1_555
Ga6 O23 1.882381 1_555
Ga6 O13 1.884660 1_555
Ga6 O21 1.912512 1_555
Ga7 O18 1.849308 1_555
Ga7 O29 1.884676 1_555
Ga7 O26 1.886826 1_555
Ga7 O21 1.918790 1_555
Ga8 O32 1.849959 1_555
Ga8 O29 1.883788 1_555
Ga8 O23 1.889606 1_555
Ga8 O33 1.915775 1_555
Ga9 O25 1.843190 1_555
Ga9 O28 1.848526 1_555
Ga9 O36 1.880955 1_555
Ga9 O31 1.935395 1_555
Ga10 O27 1.867132 1_555
Ga10 O35 1.873636 1_555
Ga10 O0 1.893194 1_555
Ga10 O26 1.897894 1_555
Ga11 O39 1.851119 1_555
Ga11 O38 1.863725 1_555
Ga11 O24 1.900388 1_555
Ga11 O33 1.923408 1_555
Ga12 O37 1.864902 1_555
Ga12 O36 1.880423 1_555
Ga12 O7 1.893368 1_555
Ga12 O2 1.908007 1_555
Ga13 O41 1.847144 1_555
Ga13 O0 1.893196 1_665
Ga13 O24 1.899380 1_555
Ga13 O13 1.901851 1_655
O1 Zn1 2.008645 1_556
O2 Zn0 2.085756 1_555
O3 Zn0 1.956838 1_555
O3 Zn6 2.006209 1_545
O4 Zn0 2.001718 1_555
O5 Zn2 1.960849 1_555
O6 Zn3 1.997270 1_555
O7 Zn3 1.998793 1_555
O8 Zn1 1.969898 1_555
O11 Zn2 1.996087 1_556
O12 Zn6 2.062198 1_545
O14 Zn3 1.980574 1_455
O15 Zn5 1.987960 1_655
O15 Zn3 2.016971 1_555
O16 Zn4 1.961478 1_555
O17 Zn4 1.988158 1_556
O18 Zn5 2.000531 1_555
O19 Zn5 2.093316 1_655
O21 Zn4 2.047915 1_455
O22 Zn2 2.075641 1_565
O25 Zn6 1.975345 1_555
O27 Zn4 2.064240 1_455
O28 Zn5 1.969089 1_555
O29 Zn7 2.021413 1_555
O32 Zn6 2.012657 1_555
O33 Zn2 2.045586 1_565
O34 Zn0 1.991317 1_555
O35 Zn1 2.003084 1_555
O35 Zn7 2.008834 1_555
O37 Zn7 1.974153 1_555
O38 Zn1 2.097178 1_555
O39 Zn7 1.987511 1_555
