# generated using pymatgen
data_Li20Co21O40
_symmetry_space_group_name_H-M   'P 1'
_cell_length_a   9.95370815
_cell_length_b   8.12646300
_cell_length_c   9.95370815
_cell_angle_alpha   114.09262087
_cell_angle_beta   80.40761115
_cell_angle_gamma   114.09262087
_symmetry_Int_Tables_number   1
_chemical_formula_structural   Li20Co21O40
_chemical_formula_sum   'Li20 Co21 O40'
_cell_volume   670.97321452
_cell_formula_units_Z   1
loop_
 _symmetry_equiv_pos_site_id
 _symmetry_equiv_pos_as_xyz
  1  'x, y, z'
loop_
 _atom_site_type_symbol
 _atom_site_label
 _atom_site_symmetry_multiplicity
 _atom_site_fract_x
 _atom_site_fract_y
 _atom_site_fract_z
 _atom_site_occupancy
  Li  Li0  1  0.19855100  0.29656500  0.89873000  1
  Li  Li1  1  0.09873000  0.90216500  0.70144900  1
  Li  Li2  1  0.01006300  0.50880700  0.50404300  1
  Li  Li3  1  0.19447000  0.79099500  0.40479100  1
  Li  Li4  1  0.08993700  0.89470000  0.19595700  1
  Li  Li5  1  0.39595700  0.60125700  0.81006300  1
  Li  Li6  1  0.29366700  0.70703800  0.60162300  1
  Li  Li7  1  0.00127000  0.00198500  0.99855100  1
  Li  Li8  1  0.34641300  0.02181500  0.28198100  1
  Li  Li9  1  0.60479100  0.91379600  0.70553000  1
  Li  Li10  1  0.29837700  0.68662800  0.09366700  1
  Li  Li11  1  0.70404300  0.29523700  0.88993700  1
  Li  Li12  1  0.48198100  0.56016700  0.55358700  1
  Li  Li13  1  0.75358700  0.29342000  0.41801900  1
  Li  Li14  1  0.49520900  0.50347500  0.99447000  1
  Li  Li15  1  0.61801900  0.42459900  0.14641300  1
  Li  Li16  1  0.90144900  0.09928400  0.80127000  1
  Li  Li17  1  0.80162300  0.19458500  0.60633300  1
  Li  Li18  1  0.80633300  0.71174800  0.09837700  1
  Li  Li19  1  0.90553000  0.09173400  0.29520900  1
  Co  Co0  1  0.19971300  0.79881100  0.89792600  1
  Co  Co1  1  0.99809300  0.99924700  0.50089400  1
  Co  Co2  1  0.09792600  0.39911500  0.70028700  1
  Co  Co3  1  0.10190700  0.40026000  0.19910600  1
  Co  Co4  1  0.19762200  0.29881300  0.40034500  1
  Co  Co5  1  0.29764000  0.19996900  0.60084400  1
  Co  Co6  1  0.39910600  0.09884600  0.79809300  1
  Co  Co7  1  0.00207400  0.50090200  0.99971300  1
  Co  Co8  1  0.60034500  0.40153100  0.70237800  1
  Co  Co9  1  0.40020100  0.59982300  0.29971700  1
  Co  Co10  1  0.29915600  0.19767100  0.09764000  1
  Co  Co11  1  0.70089400  0.80164700  0.90190700  1
  Co  Co12  1  0.49971700  0.99989500  0.49979900  1
  Co  Co13  1  0.55000000  0.32500000  0.35000000  1
  Co  Co14  1  0.80084400  0.70087500  0.60236000  1
  Co  Co15  1  0.90028700  0.60117200  0.80207400  1
  Co  Co16  1  0.69979900  0.79990500  0.40028300  1
  Co  Co17  1  0.60028300  0.90037800  0.20020100  1
  Co  Co18  1  0.49965500  0.99880900  0.99762200  1
  Co  Co19  1  0.80236000  0.20148500  0.09915600  1
  Co  Co20  1  0.90237800  0.60084600  0.29965500  1
  O  O0  1  0.00509800  0.73554100  0.98770700  1
  O  O1  1  0.09490200  0.64273600  0.71229300  1
  O  O2  1  0.18770800  0.55216600  0.89490200  1
  O  O3  1  0.10143700  0.15603300  0.68812600  1
  O  O4  1  0.21187400  0.04540400  0.90143700  1
  O  O5  1  0.00666600  0.24554000  0.50684300  1
  O  O6  1  0.48620700  0.22940300  0.99179600  1
  O  O7  1  0.39315700  0.86112700  0.80666600  1
  O  O8  1  0.09333400  0.63203100  0.19315700  1
  O  O9  1  0.28410200  0.43092400  0.59824300  1
  O  O10  1  0.19179600  0.06239300  0.41379300  1
  O  O11  1  0.20541700  0.53579400  0.38706600  1
  O  O12  1  0.31227100  0.96927900  0.60274500  1
  O  O13  1  0.40249800  0.33487100  0.78770400  1
  O  O14  1  0.11229600  0.16762700  0.20249800  1
  O  O15  1  0.38760000  0.35138600  0.29350400  1
  O  O16  1  0.58706600  0.15127300  0.69458300  1
  O  O17  1  0.69750200  0.04466900  0.91229600  1
  O  O18  1  0.29725500  0.44299200  0.11227100  1
  O  O19  1  0.49350400  0.24211800  0.51240000  1
  O  O20  1  0.30175700  0.95317900  0.08410200  1
  O  O21  1  0.41214900  0.84542100  0.30393700  1
  O  O22  1  0.50393700  0.75851600  0.48785100  1
  O  O23  1  0.70684300  0.56130300  0.89333400  1
  O  O24  1  0.61379300  0.65140000  0.70820400  1
  O  O25  1  0.68785100  0.02933500  0.39606300  1
  O  O26  1  0.59606300  0.66672800  0.21214900  1
  O  O27  1  0.88812600  0.83209200  0.79856300  1
  O  O28  1  0.79824300  0.46731900  0.61589800  1
  O  O29  1  0.91229200  0.36955600  0.80509800  1
  O  O30  1  0.71240000  0.57028300  0.40649600  1
  O  O31  1  0.80274500  0.93346700  0.58772900  1
  O  O32  1  0.60649600  0.13621400  0.18760000  1
  O  O33  1  0.51293400  0.76962300  0.00541700  1
  O  O34  1  0.98770400  0.75283400  0.49750200  1
  O  O35  1  0.78772900  0.95426300  0.09725500  1
  O  O36  1  0.89458300  0.84331000  0.31293400  1
  O  O37  1  0.90820400  0.35680400  0.28620700  1
  O  O38  1  0.81589800  0.44857800  0.10175700  1
  O  O39  1  0.99856300  0.26647200  0.01187400  1
loop_
_geom_bond_atom_site_label_1
_geom_bond_atom_site_label_2
_geom_bond_distance
_geom_bond_site_symmetry_2
Li0 O39 2.090688 1_456
Li0 O4 2.109804 1_555
Li0 O3 2.110114 1_555
Li0 O13 2.111035 1_555
Li0 O18 2.139070 1_556
Li0 O2 2.139297 1_555
Li1 O4 2.090687 1_565
Li1 O3 2.109804 1_565
Li1 O27 2.110114 1_455
Li1 O34 2.111035 1_455
Li1 O12 2.139070 1_555
Li1 O1 2.139301 1_555
Li2 O1 2.045860 1_555
Li2 O11 2.071386 1_555
Li2 O34 2.111143 1_455
Li2 O5 2.137378 1_555
Li2 O28 2.177698 1_455
Li2 O37 2.186023 1_455
Li3 O11 2.055078 1_555
Li3 O34 2.064725 1_455
Li3 O12 2.099693 1_555
Li3 O8 2.131439 1_555
Li3 O21 2.180187 1_555
Li3 O10 2.181463 1_565
Li4 O0 2.045859 1_554
Li4 O36 2.071386 1_455
Li4 O14 2.111143 1_565
Li4 O8 2.137370 1_555
Li4 O20 2.177698 1_555
Li4 O10 2.186024 1_565
Li5 O2 2.045851 1_555
Li5 O33 2.071385 1_556
Li5 O13 2.111143 1_555
Li5 O7 2.137378 1_555
Li5 O9 2.177698 1_555
Li5 O24 2.186024 1_555
Li6 O12 2.057921 1_555
Li6 O7 2.070940 1_555
Li6 O1 2.073729 1_555
Li6 O11 2.114226 1_555
Li6 O22 2.172552 1_555
Li6 O9 2.193170 1_555
Li7 O27 2.090687 1_445
Li7 O39 2.109828 1_456
Li7 O4 2.110113 1_555
Li7 O14 2.111035 1_556
Li7 O35 2.139070 1_446
Li7 O0 2.139293 1_545
Li8 O20 1.892238 1_545
Li8 O10 1.893897 1_555
Li8 O21 1.897334 1_545
Li8 O15 2.494531 1_555
Li8 O19 2.497160 1_555
Li8 O32 2.527106 1_555
Li9 O16 2.055086 1_565
Li9 O17 2.064724 1_565
Li9 O31 2.099693 1_555
Li9 O7 2.131440 1_555
Li9 O22 2.180187 1_555
Li9 O24 2.181463 1_555
Li10 O18 2.057913 1_555
Li10 O8 2.070940 1_555
Li10 O2 2.073724 1_554
Li10 O33 2.114227 1_555
Li10 O21 2.172552 1_555
Li10 O20 2.193186 1_555
Li11 O29 2.045851 1_555
Li11 O16 2.071386 1_555
Li11 O17 2.111143 1_555
Li11 O23 2.137370 1_555
Li11 O38 2.177698 1_556
Li11 O6 2.186024 1_555
Li12 O9 1.892238 1_555
Li12 O24 1.893899 1_555
Li12 O22 1.897326 1_555
Li12 O19 2.494539 1_555
Li12 O30 2.497160 1_555
Li12 O15 2.527107 1_555
Li13 O28 1.892238 1_555
Li13 O37 1.893899 1_555
Li13 O25 1.897326 1_555
Li13 O30 2.494547 1_555
Li13 O32 2.497161 1_555
Li13 O19 2.527107 1_555
Li14 O33 2.055078 1_556
Li14 O13 2.064724 1_555
Li14 O18 2.099693 1_556
Li14 O23 2.131439 1_555
Li14 O26 2.180187 1_556
Li14 O6 2.181463 1_555
Li15 O38 1.892240 1_555
Li15 O6 1.893899 1_554
Li15 O26 1.897326 1_555
Li15 O32 2.494539 1_555
Li15 O15 2.497161 1_555
Li15 O30 2.527106 1_555
Li16 O3 2.090687 1_655
Li16 O27 2.109812 1_545
Li16 O39 2.110115 1_556
Li16 O17 2.111035 1_555
Li16 O31 2.139070 1_545
Li16 O29 2.139297 1_555
Li17 O31 2.057913 1_545
Li17 O5 2.070940 1_655
Li17 O29 2.073724 1_555
Li17 O16 2.114227 1_555
Li17 O25 2.172552 1_555
Li17 O28 2.193170 1_555
Li18 O35 2.057921 1_555
Li18 O23 2.070940 1_554
Li18 O0 2.073729 1_654
Li18 O36 2.114227 1_555
Li18 O26 2.172552 1_555
Li18 O38 2.193178 1_555
Li19 O36 2.055086 1_545
Li19 O14 2.064724 1_655
Li19 O35 2.099693 1_545
Li19 O5 2.131439 1_655
Li19 O25 2.180187 1_555
Li19 O37 2.181463 1_555
Co0 O20 1.930955 1_556
Co0 O1 1.939074 1_555
Co0 O4 1.943656 1_565
Co0 O7 1.945675 1_555
Co0 O2 1.946538 1_555
Co0 O0 1.949492 1_555
Co1 O10 1.931518 1_665
Co1 O31 1.944776 1_555
Co1 O5 1.944797 1_665
Co1 O3 1.945501 1_665
Co1 O34 1.949002 1_555
Co1 O36 1.951539 1_555
Co2 O9 1.930955 1_555
Co2 O29 1.939082 1_455
Co2 O3 1.943656 1_555
Co2 O5 1.945674 1_555
Co2 O1 1.946535 1_555
Co2 O2 1.949496 1_555
Co3 O37 1.931518 1_455
Co3 O18 1.944776 1_555
Co3 O8 1.944797 1_555
Co3 O39 1.945502 1_455
Co3 O14 1.949010 1_555
Co3 O11 1.951538 1_555
Co4 O11 1.953118 1_555
Co4 O10 1.956765 1_555
Co4 O14 1.959644 1_555
Co4 O9 1.964130 1_555
Co4 O15 1.982537 1_555
Co4 O5 1.988776 1_555
Co5 O9 1.946459 1_555
Co5 O12 1.946489 1_545
Co5 O13 1.949027 1_555
Co5 O3 1.953142 1_555
Co5 O10 1.954233 1_555
Co5 O19 1.955035 1_555
Co6 O6 1.931518 1_555
Co6 O12 1.944776 1_545
Co6 O7 1.944789 1_545
Co6 O4 1.945501 1_555
Co6 O13 1.949010 1_555
Co6 O16 1.951539 1_555
Co7 O38 1.930955 1_456
Co7 O2 1.939082 1_555
Co7 O39 1.943640 1_456
Co7 O8 1.945674 1_556
Co7 O0 1.946535 1_555
Co7 O29 1.949496 1_455
Co8 O16 1.953102 1_555
Co8 O24 1.956773 1_555
Co8 O13 1.959644 1_555
Co8 O28 1.964130 1_555
Co8 O19 1.982536 1_555
Co8 O23 1.988776 1_555
Co9 O21 1.933580 1_555
Co9 O11 1.941553 1_555
Co9 O18 1.945514 1_555
Co9 O15 1.946659 1_555
Co9 O26 1.952252 1_555
Co9 O22 1.954904 1_555
Co10 O20 1.946451 1_545
Co10 O18 1.946489 1_555
Co10 O14 1.949027 1_555
Co10 O4 1.953142 1_554
Co10 O6 1.954233 1_554
Co10 O15 1.955035 1_555
Co11 O24 1.931518 1_555
Co11 O35 1.944776 1_556
Co11 O23 1.944797 1_555
Co11 O27 1.945501 1_555
Co11 O17 1.949010 1_565
Co11 O33 1.951538 1_556
Co12 O22 1.933588 1_555
Co12 O16 1.941553 1_565
Co12 O12 1.945514 1_555
Co12 O19 1.946651 1_565
Co12 O21 1.952253 1_555
Co12 O25 1.954904 1_565
Co13 O32 1.913010 1_555
Co13 O19 1.913010 1_555
Co13 O15 1.913010 1_555
Co13 O30 1.913015 1_555
Co14 O28 1.946459 1_555
Co14 O31 1.946497 1_555
Co14 O34 1.949028 1_555
Co14 O27 1.953143 1_555
Co14 O24 1.954233 1_555
Co14 O30 1.955035 1_555
Co15 O28 1.930955 1_555
Co15 O0 1.939074 1_655
Co15 O27 1.943648 1_555
Co15 O23 1.945674 1_555
Co15 O29 1.946538 1_555
Co15 O1 1.949492 1_655
Co16 O25 1.933580 1_565
Co16 O36 1.941554 1_555
Co16 O31 1.945514 1_555
Co16 O30 1.946651 1_555
Co16 O22 1.952252 1_555
Co16 O26 1.954904 1_555
Co17 O26 1.933580 1_555
Co17 O33 1.941553 1_555
Co17 O35 1.945514 1_555
Co17 O32 1.946659 1_565
Co17 O25 1.952252 1_565
Co17 O21 1.954904 1_555
Co18 O33 1.953118 1_556
Co18 O6 1.956765 1_565
Co18 O17 1.959644 1_565
Co18 O20 1.964130 1_556
Co18 O32 1.982537 1_566
Co18 O7 1.988776 1_555
Co19 O38 1.946451 1_555
Co19 O35 1.946489 1_545
Co19 O17 1.949027 1_554
Co19 O39 1.953143 1_555
Co19 O37 1.954233 1_555
Co19 O32 1.955035 1_555
Co20 O36 1.953110 1_555
Co20 O37 1.956765 1_555
Co20 O34 1.959645 1_555
Co20 O38 1.964130 1_555
Co20 O30 1.982537 1_555
Co20 O8 1.988776 1_655
