# generated using pymatgen
data_KTb2Cu(MoO4)4
_symmetry_space_group_name_H-M   'P 1'
_cell_length_a   6.90614089
_cell_length_b   6.90614089
_cell_length_c   19.74273705
_cell_angle_alpha   88.81185389
_cell_angle_beta   88.81185389
_cell_angle_gamma   134.71989495
_symmetry_Int_Tables_number   1
_chemical_formula_structural   KTb2Cu(MoO4)4
_chemical_formula_sum   'K2 Tb4 Cu2 Mo8 O32'
_cell_volume   668.10549567
_cell_formula_units_Z   2
loop_
 _symmetry_equiv_pos_site_id
 _symmetry_equiv_pos_as_xyz
  1  'x, y, z'
loop_
 _atom_site_type_symbol
 _atom_site_label
 _atom_site_symmetry_multiplicity
 _atom_site_fract_x
 _atom_site_fract_y
 _atom_site_fract_z
 _atom_site_occupancy
  K  K0  1  0.97133200  0.02866800  0.75000000  1
  K  K1  1  0.02866800  0.97133200  0.25000000  1
  Tb  Tb0  1  0.14587600  0.85141300  0.46772600  1
  Tb  Tb1  1  0.85141300  0.14587600  0.96772600  1
  Tb  Tb2  1  0.85412400  0.14858700  0.53227400  1
  Tb  Tb3  1  0.14858700  0.85412400  0.03227400  1
  Cu  Cu0  1  0.30896400  0.69103600  0.25000000  1
  Cu  Cu1  1  0.69103600  0.30896400  0.75000000  1
  Mo  Mo0  1  0.73293500  0.25081400  0.14703300  1
  Mo  Mo1  1  0.54796300  0.42537500  0.59125000  1
  Mo  Mo2  1  0.26706500  0.74918600  0.85296700  1
  Mo  Mo3  1  0.45203700  0.57462500  0.40875000  1
  Mo  Mo4  1  0.42537500  0.54796300  0.09125000  1
  Mo  Mo5  1  0.74918600  0.26706500  0.35296700  1
  Mo  Mo6  1  0.25081400  0.73293500  0.64703300  1
  Mo  Mo7  1  0.57462500  0.45203700  0.90875000  1
  O  O0  1  0.93482400  0.52970800  0.28687500  1
  O  O1  1  0.32447600  0.22878700  0.10090800  1
  O  O2  1  0.47029200  0.06517600  0.21312500  1
  O  O3  1  0.26668000  0.98708000  0.67261300  1
  O  O4  1  0.49213800  0.82996500  0.45762000  1
  O  O5  1  0.25535800  0.21648800  0.96301700  1
  O  O6  1  0.98708000  0.26668000  0.17261300  1
  O  O7  1  0.06200500  0.58523800  0.56660600  1
  O  O8  1  0.90277600  0.60211000  0.13170200  1
  O  O9  1  0.93799500  0.41476200  0.43339400  1
  O  O10  1  0.67552400  0.77121300  0.89909200  1
  O  O11  1  0.58523800  0.06200500  0.06660600  1
  O  O12  1  0.09722400  0.39789000  0.86829800  1
  O  O13  1  0.69758400  0.51635000  0.67166200  1
  O  O14  1  0.21648800  0.25535800  0.46301700  1
  O  O15  1  0.06517600  0.47029200  0.71312500  1
  O  O16  1  0.22878700  0.32447600  0.60090800  1
  O  O17  1  0.73332000  0.01292000  0.32738700  1
  O  O18  1  0.50786200  0.17003500  0.54238000  1
  O  O19  1  0.01292000  0.73332000  0.82738700  1
  O  O20  1  0.51635000  0.69758400  0.17166200  1
  O  O21  1  0.52970800  0.93482400  0.78687500  1
  O  O22  1  0.48365000  0.30241600  0.82833800  1
  O  O23  1  0.30241600  0.48365000  0.32833800  1
  O  O24  1  0.39789000  0.09722400  0.36829800  1
  O  O25  1  0.74464200  0.78351200  0.03698300  1
  O  O26  1  0.60211000  0.90277600  0.63170200  1
  O  O27  1  0.82996500  0.49213800  0.95762000  1
  O  O28  1  0.78351200  0.74464200  0.53698300  1
  O  O29  1  0.41476200  0.93799500  0.93339400  1
  O  O30  1  0.77121300  0.67552400  0.39909200  1
  O  O31  1  0.17003500  0.50786200  0.04238000  1
loop_
_geom_bond_atom_site_label_1
_geom_bond_atom_site_label_2
_geom_bond_distance
_geom_bond_site_symmetry_2
K0 O3 2.700109 1_645
K0 O19 2.700109 1_645
K0 O21 2.712688 1_545
K0 O15 2.712688 1_655
K0 O22 3.069112 1_655
K0 O13 3.069112 1_545
K0 O26 3.150219 1_545
K0 O12 3.150219 1_655
K0 O16 3.228121 1_655
K0 O10 3.228121 1_545
K1 O6 2.700109 1_465
K1 O17 2.700109 1_465
K1 O0 2.712688 1_455
K1 O2 2.712688 1_565
K1 O20 3.069112 1_455
K1 O23 3.069112 1_565
K1 O8 3.150219 1_455
K1 O24 3.150219 1_565
K1 O1 3.228121 1_565
K1 O30 3.228121 1_455
Cu0 O20 2.063838 1_555
Cu0 O23 2.063838 1_555
Cu0 O2 2.069958 1_565
Cu0 O0 2.069958 1_455
Cu1 O13 2.063838 1_555
Cu1 O22 2.063838 1_555
Cu1 O15 2.069958 1_655
Cu1 O21 2.069958 1_545
Mo0 O6 1.765234 1_555
Mo0 O2 1.787796 1_555
Mo0 O8 1.817558 1_555
Mo0 O11 1.882352 1_555
Mo1 O13 1.782851 1_555
Mo1 O16 1.787801 1_555
Mo1 O28 1.854141 1_555
Mo1 O18 1.873924 1_555
Mo2 O19 1.765234 1_555
Mo2 O21 1.787796 1_555
Mo2 O12 1.817558 1_555
Mo2 O29 1.882352 1_555
Mo3 O23 1.782851 1_555
Mo3 O30 1.787801 1_555
Mo3 O14 1.854141 1_555
Mo3 O4 1.873924 1_555
Mo4 O20 1.782851 1_555
Mo4 O1 1.787801 1_555
Mo4 O25 1.854141 1_555
Mo4 O31 1.873924 1_555
Mo5 O17 1.765234 1_555
Mo5 O0 1.787796 1_555
Mo5 O24 1.817558 1_555
Mo5 O9 1.882352 1_555
Mo6 O3 1.765234 1_555
Mo6 O15 1.787796 1_555
Mo6 O26 1.817558 1_555
Mo6 O7 1.882352 1_555
Mo7 O22 1.782851 1_555
Mo7 O10 1.787801 1_555
Mo7 O5 1.854141 1_555
Mo7 O27 1.873924 1_555
O1 Tb3 2.407729 1_545
O4 Tb2 2.410354 1_565
O4 Tb0 2.502028 1_555
O5 Tb3 2.428043 1_546
O5 Tb1 2.470174 1_455
O7 Tb2 2.376289 1_455
O7 Tb0 2.414838 1_555
O8 Tb3 2.307917 1_655
O9 Tb0 2.376289 1_655
O9 Tb2 2.414838 1_555
O10 Tb1 2.407729 1_565
O11 Tb3 2.376289 1_545
O11 Tb1 2.414838 1_554
O12 Tb1 2.307917 1_455
O14 Tb2 2.428043 1_455
O14 Tb0 2.470174 1_545
O16 Tb2 2.407729 1_455
O18 Tb0 2.410354 1_545
O18 Tb2 2.502028 1_555
O24 Tb0 2.307917 1_545
O25 Tb1 2.428043 1_564
O25 Tb3 2.470174 1_655
O26 Tb2 2.307917 1_565
O27 Tb3 2.410354 1_656
O27 Tb1 2.502028 1_555
O28 Tb0 2.428043 1_655
O28 Tb2 2.470174 1_565
O29 Tb1 2.376289 1_565
O29 Tb3 2.414838 1_556
O30 Tb0 2.407729 1_655
O31 Tb1 2.410354 1_454
O31 Tb3 2.502028 1_555
