# generated using pymatgen
data_Tm10Ti6O27
_symmetry_space_group_name_H-M   'P 1'
_cell_length_a   7.36293081
_cell_length_b   7.36293081
_cell_length_c   12.08390792
_cell_angle_alpha   71.31834318
_cell_angle_beta   71.31834318
_cell_angle_gamma   61.42224291
_symmetry_Int_Tables_number   1
_chemical_formula_structural   Tm10Ti6O27
_chemical_formula_sum   'Tm10 Ti6 O27'
_cell_volume   533.87375459
_cell_formula_units_Z   1
loop_
 _symmetry_equiv_pos_site_id
 _symmetry_equiv_pos_as_xyz
  1  'x, y, z'
loop_
 _atom_site_type_symbol
 _atom_site_label
 _atom_site_symmetry_multiplicity
 _atom_site_fract_x
 _atom_site_fract_y
 _atom_site_fract_z
 _atom_site_occupancy
  Tm  Tm0  1  0.98267300  0.51049200  0.98221000  1
  Tm  Tm1  1  0.51049200  0.98267300  0.98221000  1
  Tm  Tm2  1  0.75303400  0.75303400  0.24574400  1
  Tm  Tm3  1  0.24141100  0.24141100  0.24917100  1
  Tm  Tm4  1  0.23407300  0.75029000  0.24895200  1
  Tm  Tm5  1  0.23176500  0.23176500  0.75892700  1
  Tm  Tm6  1  0.49381200  0.49381200  0.51883900  1
  Tm  Tm7  1  0.75029000  0.23407300  0.24895200  1
  Tm  Tm8  1  0.77768200  0.21991900  0.75288800  1
  Tm  Tm9  1  0.21991900  0.77768200  0.75288800  1
  Ti  Ti0  1  0.50324700  0.50324700  0.99693400  1
  Ti  Ti1  1  0.51631600  0.00439700  0.50002100  1
  Ti  Ti2  1  0.00439700  0.51631600  0.50002100  1
  Ti  Ti3  1  0.00341800  0.00341800  0.50887100  1
  Ti  Ti4  1  0.76069600  0.76069600  0.72097100  1
  Ti  Ti5  1  0.00710400  0.00710400  0.01619400  1
  O  O0  1  0.84781300  0.84781300  0.02943000  1
  O  O1  1  0.51093900  0.06968600  0.33978700  1
  O  O2  1  0.06968600  0.51093900  0.33978700  1
  O  O3  1  0.81764000  0.28478100  0.04715500  1
  O  O4  1  0.93205500  0.93205500  0.20088100  1
  O  O5  1  0.83276600  0.83276600  0.53342300  1
  O  O6  1  0.43828800  0.43828800  0.16952500  1
  O  O7  1  0.26115800  0.26115800  0.56452800  1
  O  O8  1  0.22314100  0.63700600  0.44512400  1
  O  O9  1  0.11249900  0.54580000  0.77185500  1
  O  O10  1  0.28478100  0.81764000  0.04715500  1
  O  O11  1  0.05880800  0.05880800  0.34109100  1
  O  O12  1  0.27400600  0.88846300  0.54409100  1
  O  O13  1  0.54580000  0.11249900  0.77185500  1
  O  O14  1  0.44744900  0.91693100  0.18367700  1
  O  O15  1  0.63700600  0.22314100  0.44512400  1
  O  O16  1  0.59375900  0.26539200  0.93393000  1
  O  O17  1  0.92152800  0.92152800  0.69057100  1
  O  O18  1  0.88846300  0.27400600  0.54409100  1
  O  O19  1  0.67420600  0.67420600  0.44754700  1
  O  O20  1  0.91693100  0.44744900  0.18367700  1
  O  O21  1  0.67571400  0.67571400  0.90322400  1
  O  O22  1  0.85707000  0.49217900  0.68725500  1
  O  O23  1  0.04751100  0.04751100  0.83685300  1
  O  O24  1  0.26539200  0.59375900  0.93393000  1
  O  O25  1  0.19558500  0.19558500  0.95588500  1
  O  O26  1  0.49217900  0.85707000  0.68725500  1
loop_
_geom_bond_atom_site_label_1
_geom_bond_atom_site_label_2
_geom_bond_distance
_geom_bond_site_symmetry_2
O0 Ti5 1.962753 1_665
O0 Tm1 2.380270 1_554
O0 Tm0 2.380270 1_554
O0 Tm2 2.436254 1_555
O1 Ti1 1.848337 1_555
O1 Tm3 2.200135 1_555
O1 Tm7 2.392906 1_555
O1 Tm2 2.515612 1_545
O2 Ti2 1.848337 1_555
O2 Tm3 2.200135 1_555
O2 Tm4 2.392906 1_555
O2 Tm2 2.515612 1_455
O3 Ti5 1.921748 1_655
O3 Ti0 2.241991 1_554
O3 Tm7 2.269537 1_555
O3 Tm0 2.310816 1_554
O4 Ti5 2.074473 1_665
O4 Tm2 2.124955 1_555
O4 Tm4 2.134435 1_655
O4 Tm7 2.134435 1_565
O5 Ti3 2.068431 1_665
O5 Ti4 2.104259 1_555
O5 Ti1 2.155813 1_565
O5 Ti2 2.155813 1_655
O6 Ti0 1.935962 1_554
O6 Tm3 2.313383 1_555
O6 Tm4 2.375450 1_555
O6 Tm7 2.375450 1_555
O7 Ti2 2.078259 1_555
O7 Ti1 2.078259 1_555
O7 Tm5 2.237272 1_555
O8 Ti2 2.032466 1_555
O8 Tm6 2.098149 1_555
O8 Tm4 2.235378 1_555
O9 Tm5 2.083954 1_555
O9 Tm9 2.125598 1_555
O9 Tm0 2.387564 1_455
O9 Ti4 2.463185 1_455
O10 Ti5 1.921748 1_565
O10 Ti0 2.241991 1_554
O10 Tm4 2.269537 1_555
O10 Tm1 2.310816 1_554
O11 Ti3 1.882256 1_555
O11 Tm3 2.159882 1_555
O11 Tm7 2.441398 1_455
O11 Tm4 2.441398 1_545
O12 Ti3 1.888387 1_565
O12 Ti1 2.180009 1_565
O12 Tm9 2.353412 1_555
O12 Tm6 2.628401 1_555
O13 Tm5 2.083954 1_555
O13 Tm8 2.125598 1_555
O13 Tm1 2.387564 1_545
O13 Ti4 2.463185 1_545
O14 Tm2 2.232687 1_555
O14 Tm4 2.241921 1_555
O14 Tm1 2.261129 1_554
O14 Tm3 2.368619 1_565
O15 Ti1 2.032466 1_555
O15 Tm6 2.098149 1_555
O15 Tm7 2.235378 1_555
O16 Ti0 1.871731 1_555
O16 Tm8 2.206707 1_555
O16 Tm1 2.294190 1_545
O17 Ti4 1.929721 1_555
O17 Ti3 2.049288 1_665
O17 Tm8 2.199661 1_565
O17 Tm9 2.199661 1_655
O18 Ti3 1.888387 1_655
O18 Ti2 2.180009 1_655
O18 Tm8 2.353412 1_555
O18 Tm6 2.628401 1_555
O19 Tm6 2.119502 1_555
O19 Tm2 2.264781 1_555
O19 Ti2 2.339989 1_655
O19 Ti1 2.339989 1_565
O20 Tm2 2.232687 1_555
O20 Tm7 2.241921 1_555
O20 Tm0 2.261129 1_554
O20 Tm3 2.368619 1_655
O21 Ti0 2.051278 1_555
O21 Ti4 2.059678 1_555
O21 Tm1 2.346640 1_555
O21 Tm0 2.346640 1_555
O22 Ti4 1.888642 1_555
O22 Ti2 2.163760 1_655
O22 Tm8 2.189696 1_555
O22 Tm5 2.728345 1_655
O23 Ti5 2.032762 1_556
O23 Tm9 2.154400 1_545
O23 Tm8 2.154400 1_455
O23 Tm5 2.166042 1_555
O24 Ti0 1.871731 1_555
O24 Tm9 2.206707 1_555
O24 Tm0 2.294190 1_455
O25 Tm0 2.147188 1_455
O25 Tm1 2.147188 1_545
O25 Ti5 2.220282 1_556
O25 Tm5 2.249889 1_555
O26 Ti4 1.888642 1_555
O26 Ti1 2.163760 1_565
O26 Tm9 2.189696 1_555
O26 Tm5 2.728345 1_565
