# generated using pymatgen
data_U(HO2)2
_symmetry_space_group_name_H-M   'P 1'
_cell_length_a   5.62208620
_cell_length_b   5.62208620
_cell_length_c   6.95331000
_cell_angle_alpha   90.00000000
_cell_angle_beta   90.00000000
_cell_angle_gamma   135.51127879
_symmetry_Int_Tables_number   1
_chemical_formula_structural   U(HO2)2
_chemical_formula_sum   'U2 H4 O8'
_cell_volume   154.01441784
_cell_formula_units_Z   2
loop_
 _symmetry_equiv_pos_site_id
 _symmetry_equiv_pos_as_xyz
  1  'x, y, z'
loop_
 _atom_site_type_symbol
 _atom_site_label
 _atom_site_symmetry_multiplicity
 _atom_site_fract_x
 _atom_site_fract_y
 _atom_site_fract_z
 _atom_site_occupancy
  U  U0  1  0.50000000  0.50000000  0.50000000  1
  U  U1  1  0.00000000  0.00000000  0.00000000  1
  H  H0  1  0.83563000  0.16437000  0.63402600  1
  H  H1  1  0.16437000  0.83563000  0.36597400  1
  H  H2  1  0.66437000  0.33563000  0.13402600  1
  H  H3  1  0.33563000  0.66437000  0.86597400  1
  O  O0  1  0.66253800  0.33746200  0.59475800  1
  O  O1  1  0.33746200  0.66253800  0.40524200  1
  O  O2  1  0.83746200  0.16253800  0.09475800  1
  O  O3  1  0.16253800  0.83746200  0.90524200  1
  O  O4  1  0.93053100  0.06946900  0.64760100  1
  O  O5  1  0.06946900  0.93053100  0.35239900  1
  O  O6  1  0.56946900  0.43053100  0.14760100  1
  O  O7  1  0.43053100  0.56946900  0.85239900  1
loop_
_geom_bond_atom_site_label_1
_geom_bond_atom_site_label_2
_geom_bond_distance
_geom_bond_site_symmetry_2
H0 O4 0.992169 1_555
H1 O5 0.992169 1_555
H2 O6 0.992169 1_555
H3 O7 0.992169 1_555
O0 U0 1.815380 1_555
O1 U0 1.815380 1_555
O2 U1 1.815380 1_655
O3 U1 1.815380 1_566
