# generated using pymatgen
data_Ce3Zn22
_symmetry_space_group_name_H-M   'P 1'
_cell_length_a   12.33109218
_cell_length_b   12.33109218
_cell_length_c   12.33109218
_cell_angle_alpha   137.71371586
_cell_angle_beta   137.71371586
_cell_angle_gamma   61.34174003
_symmetry_Int_Tables_number   1
_chemical_formula_structural   Ce3Zn22
_chemical_formula_sum   'Ce6 Zn44'
_cell_volume   839.28572270
_cell_formula_units_Z   2
loop_
 _symmetry_equiv_pos_site_id
 _symmetry_equiv_pos_as_xyz
  1  'x, y, z'
loop_
 _atom_site_type_symbol
 _atom_site_label
 _atom_site_symmetry_multiplicity
 _atom_site_fract_x
 _atom_site_fract_y
 _atom_site_fract_z
 _atom_site_occupancy
  Ce  Ce0  1  0.62114200  0.62114200  0.00000000  1
  Ce  Ce1  1  0.37114200  0.87114200  0.50000000  1
  Ce  Ce2  1  0.12885800  0.62885800  0.50000000  1
  Ce  Ce3  1  0.37885800  0.37885800  0.00000000  1
  Ce  Ce4  1  0.75000000  0.25000000  0.50000000  1
  Ce  Ce5  1  0.00000000  0.00000000  0.00000000  1
  Zn  Zn0  1  0.91752400  0.44402200  0.98934000  1
  Zn  Zn1  1  0.45468200  0.44402200  0.52649800  1
  Zn  Zn2  1  0.19402200  0.16752400  0.48934000  1
  Zn  Zn3  1  0.67818400  0.16752400  0.97350200  1
  Zn  Zn4  1  0.91752400  0.92818400  0.47350200  1
  Zn  Zn5  1  0.45468200  0.92818400  0.01066000  1
  Zn  Zn6  1  0.19402200  0.70468200  0.02649800  1
  Zn  Zn7  1  0.67818400  0.70468200  0.51066000  1
  Zn  Zn8  1  0.83247600  0.80597800  0.51066000  1
  Zn  Zn9  1  0.29531800  0.80597800  0.97350200  1
  Zn  Zn10  1  0.55597800  0.08247600  0.01066000  1
  Zn  Zn11  1  0.07181600  0.08247600  0.52649800  1
  Zn  Zn12  1  0.83247600  0.32181600  0.02649800  1
  Zn  Zn13  1  0.29531800  0.32181600  0.48934000  1
  Zn  Zn14  1  0.55597800  0.54531800  0.47350200  1
  Zn  Zn15  1  0.07181600  0.54531800  0.98934000  1
  Zn  Zn16  1  0.49823900  0.27569500  0.77745600  1
  Zn  Zn17  1  0.02569500  0.74823900  0.27745600  1
  Zn  Zn18  1  0.47078300  0.74823900  0.72254400  1
  Zn  Zn19  1  0.49823900  0.72078300  0.22254400  1
  Zn  Zn20  1  0.25176100  0.97430500  0.72254400  1
  Zn  Zn21  1  0.72430500  0.50176100  0.22254400  1
  Zn  Zn22  1  0.27921700  0.50176100  0.77745600  1
  Zn  Zn23  1  0.25176100  0.52921700  0.27745600  1
  Zn  Zn24  1  0.75786000  0.61027300  0.85241300  1
  Zn  Zn25  1  0.36027300  0.00786000  0.35241300  1
  Zn  Zn26  1  0.65544700  0.00786000  0.64758700  1
  Zn  Zn27  1  0.75786000  0.90544700  0.14758700  1
  Zn  Zn28  1  0.99214000  0.63972700  0.64758700  1
  Zn  Zn29  1  0.38972700  0.24214000  0.14758700  1
  Zn  Zn30  1  0.09455300  0.24214000  0.85241300  1
  Zn  Zn31  1  0.99214000  0.34455300  0.35241300  1
  Zn  Zn32  1  0.61225900  0.96043500  0.34817600  1
  Zn  Zn33  1  0.71043500  0.86225900  0.84817600  1
  Zn  Zn34  1  0.01408300  0.86225900  0.15182400  1
  Zn  Zn35  1  0.61225900  0.26408300  0.65182400  1
  Zn  Zn36  1  0.13774100  0.28956500  0.15182400  1
  Zn  Zn37  1  0.03956500  0.38774100  0.65182400  1
  Zn  Zn38  1  0.73591700  0.38774100  0.34817600  1
  Zn  Zn39  1  0.13774100  0.98591700  0.84817600  1
  Zn  Zn40  1  0.87500000  0.62500000  0.75000000  1
  Zn  Zn41  1  0.37500000  0.12500000  0.25000000  1
  Zn  Zn42  1  0.87500000  0.12500000  0.75000000  1
  Zn  Zn43  1  0.87500000  0.12500000  0.25000000  1
loop_
_geom_bond_atom_site_label_1
_geom_bond_atom_site_label_2
_geom_bond_distance
_geom_bond_site_symmetry_2
Ce0 Zn32 3.102971 1_555
Ce0 Zn35 3.102971 1_554
Ce0 Zn24 3.183426 1_554
Ce0 Zn27 3.183426 1_555
Ce0 Zn21 3.214315 1_555
Ce0 Zn22 3.214315 1_554
Ce0 Zn16 3.273497 1_554
Ce0 Zn19 3.273497 1_555
Ce0 Zn1 3.282404 1_554
Ce0 Zn0 3.282404 1_554
Ce0 Zn4 3.282404 1_555
Ce0 Zn5 3.282404 1_555
Ce0 Zn9 3.438036 1_554
Ce0 Zn8 3.438036 1_555
Ce0 Zn13 3.438036 1_554
Ce0 Zn12 3.438036 1_555
Ce0 Zn17 3.655164 1_655
Ce0 Zn18 3.655164 1_554
Ce1 Zn34 3.102971 1_555
Ce1 Zn33 3.102971 1_555
Ce1 Zn26 3.183426 1_565
Ce1 Zn25 3.183426 1_565
Ce1 Zn23 3.214315 1_555
Ce1 Zn20 3.214315 1_555
Ce1 Zn18 3.273497 1_555
Ce1 Zn17 3.273497 1_555
Ce1 Zn7 3.282404 1_555
Ce1 Zn6 3.282404 1_555
Ce1 Zn3 3.282404 1_565
Ce1 Zn2 3.282404 1_565
Ce1 Zn10 3.438036 1_566
Ce1 Zn14 3.438036 1_555
Ce1 Zn15 3.438036 1_554
Ce1 Zn11 3.438036 1_565
Ce1 Zn19 3.655164 1_555
Ce1 Zn16 3.655164 1_565
Ce2 Zn36 3.102971 1_555
Ce2 Zn39 3.102971 1_555
Ce2 Zn31 3.183426 1_455
Ce2 Zn28 3.183426 1_455
Ce2 Zn17 3.214315 1_555
Ce2 Zn18 3.214315 1_555
Ce2 Zn20 3.273497 1_555
Ce2 Zn23 3.273497 1_555
Ce2 Zn9 3.282404 1_555
Ce2 Zn12 3.282404 1_455
Ce2 Zn13 3.282404 1_555
Ce2 Zn8 3.282404 1_455
Ce2 Zn5 3.438036 1_556
Ce2 Zn1 3.438036 1_555
Ce2 Zn0 3.438036 1_454
Ce2 Zn4 3.438036 1_455
Ce2 Zn21 3.655164 1_455
Ce2 Zn22 3.655164 1_555
Ce3 Zn37 3.102971 1_554
Ce3 Zn38 3.102971 1_555
Ce3 Zn29 3.183426 1_555
Ce3 Zn30 3.183426 1_554
Ce3 Zn19 3.214315 1_555
Ce3 Zn16 3.214315 1_554
Ce3 Zn21 3.273497 1_555
Ce3 Zn22 3.273497 1_554
Ce3 Zn10 3.282404 1_555
Ce3 Zn15 3.282404 1_554
Ce3 Zn14 3.282404 1_555
Ce3 Zn11 3.282404 1_554
Ce3 Zn6 3.438036 1_555
Ce3 Zn2 3.438036 1_554
Ce3 Zn7 3.438036 1_555
Ce3 Zn3 3.438036 1_554
Ce3 Zn23 3.655164 1_555
Ce3 Zn20 3.655164 1_544
Ce4 Zn30 3.139366 1_655
Ce4 Zn29 3.139366 1_555
Ce4 Zn24 3.139366 1_555
Ce4 Zn27 3.139366 1_545
Ce4 Zn35 3.218839 1_555
Ce4 Zn32 3.218839 1_545
Ce4 Zn38 3.218839 1_555
Ce4 Zn37 3.218839 1_655
Ce4 Zn4 3.367363 1_545
Ce4 Zn14 3.367363 1_555
Ce4 Zn10 3.367363 1_555
Ce4 Zn0 3.367363 1_555
Ce4 Zn5 3.367363 1_545
Ce4 Zn1 3.367363 1_555
Ce4 Zn15 3.367363 1_655
Ce4 Zn11 3.367363 1_655
Ce4 Zn40 3.460690 1_555
Ce4 Zn42 3.460690 1_555
Ce4 Zn41 3.460690 1_555
Ce4 Zn43 3.460690 1_555
Ce5 Zn28 3.139366 1_444
Ce5 Zn31 3.139366 1_455
Ce5 Zn25 3.139366 1_555
Ce5 Zn26 3.139366 1_454
Ce5 Zn39 3.218839 1_544
Ce5 Zn34 3.218839 1_545
Ce5 Zn33 3.218839 1_444
Ce5 Zn36 3.218839 1_555
Ce5 Zn12 3.367363 1_455
Ce5 Zn7 3.367363 1_444
Ce5 Zn2 3.367363 1_555
Ce5 Zn6 3.367363 1_545
Ce5 Zn3 3.367363 1_454
Ce5 Zn8 3.367363 1_444
Ce5 Zn13 3.367363 1_555
Ce5 Zn9 3.367363 1_544
Ce5 Zn43 3.460690 1_455
Ce5 Zn41 3.460690 1_555
Ce5 Zn42 3.460690 1_454
Ce5 Zn40 3.460690 1_444
Zn0 Zn17 2.557800 1_656
Zn0 Zn12 2.613251 1_556
Zn0 Zn42 2.640326 1_555
Zn0 Zn24 2.694704 1_555
Zn0 Zn15 2.731216 1_655
Zn0 Zn35 2.753598 1_555
Zn0 Zn36 2.766099 1_656
Zn0 Zn23 2.770946 1_656
Zn0 Zn30 2.799180 1_655
Zn1 Zn18 2.557800 1_555
Zn1 Zn13 2.613251 1_555
Zn1 Zn41 2.640326 1_555
Zn1 Zn24 2.694704 1_555
Zn1 Zn14 2.731216 1_555
Zn1 Zn35 2.753598 1_555
Zn1 Zn36 2.766099 1_555
Zn1 Zn23 2.770946 1_555
Zn1 Zn29 2.799180 1_555
Zn2 Zn43 2.640326 1_455
Zn2 Zn25 2.694704 1_555
Zn2 Zn34 2.753598 1_545
Zn2 Zn37 2.766099 1_555
Zn2 Zn22 2.770946 1_555
Zn2 Zn31 2.799180 1_455
Zn3 Zn43 2.640326 1_556
Zn3 Zn33 2.753598 1_545
Zn3 Zn38 2.766099 1_556
Zn3 Zn31 2.799180 1_556
Zn4 Zn8 2.613251 1_555
Zn4 Zn42 2.640326 1_565
Zn5 Zn9 2.613251 1_554
Zn6 Zn9 2.731216 1_554
Zn7 Zn8 2.731216 1_555
Zn10 Zn20 2.557800 1_544
Zn10 Zn3 2.613251 1_554
Zn10 Zn43 2.640326 1_555
Zn10 Zn29 2.694704 1_555
Zn10 Zn5 2.731216 1_545
Zn10 Zn38 2.753598 1_555
Zn10 Zn33 2.766099 1_544
Zn10 Zn18 2.770946 1_544
Zn10 Zn27 2.799180 1_545
Zn11 Zn20 2.557800 1_545
Zn11 Zn2 2.613251 1_555
Zn11 Zn43 2.640326 1_455
Zn11 Zn30 2.694704 1_555
Zn11 Zn4 2.731216 1_445
Zn11 Zn37 2.753598 1_555
Zn11 Zn34 2.766099 1_545
Zn11 Zn17 2.770946 1_545
Zn11 Zn27 2.799180 1_445
Zn12 Zn21 2.557800 1_555
Zn12 Zn42 2.640326 1_554
Zn12 Zn31 2.694704 1_555
Zn12 Zn3 2.731216 1_554
Zn12 Zn36 2.753598 1_655
Zn12 Zn35 2.766099 1_554
Zn12 Zn16 2.770946 1_554
Zn12 Zn26 2.799180 1_554
Zn13 Zn22 2.557800 1_555
Zn13 Zn41 2.640326 1_555
Zn13 Zn31 2.694704 1_455
Zn13 Zn2 2.731216 1_555
Zn13 Zn36 2.753598 1_555
Zn13 Zn35 2.766099 1_555
Zn13 Zn16 2.770946 1_555
Zn13 Zn25 2.799180 1_555
Zn14 Zn23 2.557800 1_555
Zn14 Zn7 2.613251 1_555
Zn14 Zn40 2.640326 1_555
Zn14 Zn29 2.694704 1_555
Zn14 Zn38 2.753598 1_555
Zn14 Zn33 2.766099 1_555
Zn14 Zn18 2.770946 1_555
Zn14 Zn24 2.799180 1_555
Zn15 Zn23 2.557800 1_556
Zn15 Zn6 2.613251 1_556
Zn15 Zn40 2.640326 1_455
Zn15 Zn30 2.694704 1_555
Zn15 Zn37 2.753598 1_555
Zn15 Zn34 2.766099 1_556
Zn15 Zn17 2.770946 1_556
Zn15 Zn24 2.799180 1_455
Zn16 Zn2 2.557800 1_555
Zn16 Zn3 2.557800 1_555
Zn16 Zn35 2.664337 1_555
Zn16 Zn22 2.800672 1_555
Zn16 Zn21 2.800672 1_556
Zn16 Zn25 2.803042 1_555
Zn16 Zn26 2.803042 1_555
Zn17 Zn4 2.557800 1_455
Zn17 Zn34 2.664337 1_555
Zn17 Zn23 2.800672 1_555
Zn17 Zn20 2.800672 1_555
Zn17 Zn24 2.803042 1_454
Zn17 Zn27 2.803042 1_455
Zn18 Zn5 2.557800 1_556
Zn18 Zn33 2.664337 1_555
Zn18 Zn23 2.800672 1_555
Zn18 Zn20 2.800672 1_555
Zn18 Zn27 2.803042 1_556
Zn18 Zn24 2.803042 1_555
Zn19 Zn6 2.557800 1_555
Zn19 Zn7 2.557800 1_555
Zn19 Zn32 2.664337 1_555
Zn19 Zn8 2.770946 1_555
Zn19 Zn9 2.770946 1_554
Zn19 Zn21 2.800672 1_555
Zn19 Zn22 2.800672 1_554
Zn19 Zn25 2.803042 1_565
Zn19 Zn26 2.803042 1_565
Zn20 Zn39 2.664337 1_555
Zn20 Zn5 2.770946 1_556
Zn20 Zn4 2.770946 1_455
Zn20 Zn29 2.803042 1_566
Zn20 Zn30 2.803042 1_565
Zn21 Zn8 2.557800 1_555
Zn21 Zn38 2.664337 1_555
Zn21 Zn3 2.770946 1_554
Zn21 Zn7 2.770946 1_555
Zn21 Zn31 2.803042 1_555
Zn21 Zn28 2.803042 1_555
Zn22 Zn9 2.557800 1_555
Zn22 Zn37 2.664337 1_555
Zn22 Zn6 2.770946 1_556
Zn22 Zn31 2.803042 1_455
Zn22 Zn28 2.803042 1_455
Zn23 Zn36 2.664337 1_555
Zn23 Zn30 2.803042 1_554
Zn23 Zn29 2.803042 1_555
Zn24 Zn27 2.625759 1_556
Zn24 Zn40 2.646547 1_555
Zn24 Zn33 2.907209 1_555
Zn24 Zn34 2.907209 1_656
Zn25 Zn26 2.625759 1_555
Zn25 Zn41 2.646547 1_555
Zn25 Zn6 2.694704 1_545
Zn25 Zn9 2.799180 1_544
Zn25 Zn32 2.907209 1_545
Zn25 Zn35 2.907209 1_555
Zn26 Zn42 2.646547 1_555
Zn26 Zn3 2.694704 1_555
Zn26 Zn7 2.694704 1_545
Zn26 Zn8 2.799180 1_545
Zn26 Zn35 2.907209 1_555
Zn26 Zn32 2.907209 1_545
Zn27 Zn43 2.646547 1_565
Zn27 Zn4 2.694704 1_555
Zn27 Zn5 2.694704 1_555
Zn27 Zn33 2.907209 1_554
Zn27 Zn34 2.907209 1_655
Zn28 Zn31 2.625759 1_555
Zn28 Zn40 2.646547 1_555
Zn28 Zn9 2.694704 1_655
Zn28 Zn8 2.694704 1_555
Zn28 Zn6 2.799180 1_656
Zn28 Zn7 2.799180 1_555
Zn28 Zn37 2.907209 1_655
Zn28 Zn38 2.907209 1_555
Zn29 Zn30 2.625759 1_554
Zn29 Zn41 2.646547 1_555
Zn29 Zn5 2.799180 1_545
Zn29 Zn36 2.907209 1_555
Zn29 Zn39 2.907209 1_544
Zn30 Zn42 2.646547 1_455
Zn30 Zn4 2.799180 1_445
Zn30 Zn36 2.907209 1_556
Zn30 Zn39 2.907209 1_545
Zn31 Zn43 2.646547 1_555
Zn31 Zn38 2.907209 1_555
Zn31 Zn37 2.907209 1_655
Zn32 Zn41 2.615884 1_565
Zn32 Zn42 2.615884 1_565
Zn32 Zn35 2.701140 1_565
Zn32 Zn5 2.753598 1_555
Zn32 Zn4 2.753598 1_555
Zn32 Zn9 2.766099 1_554
Zn32 Zn8 2.766099 1_555
Zn33 Zn43 2.615884 1_566
Zn33 Zn40 2.615884 1_555
Zn33 Zn34 2.701140 1_656
Zn33 Zn7 2.753598 1_555
Zn34 Zn40 2.615884 1_454
Zn34 Zn43 2.615884 1_465
Zn34 Zn6 2.753598 1_555
Zn35 Zn41 2.615884 1_555
Zn35 Zn42 2.615884 1_555
Zn36 Zn41 2.615884 1_555
Zn36 Zn42 2.615884 1_454
Zn36 Zn39 2.701140 1_544
Zn37 Zn43 2.615884 1_455
Zn37 Zn40 2.615884 1_455
Zn37 Zn38 2.701140 1_455
Zn37 Zn6 2.766099 1_556
Zn38 Zn43 2.615884 1_555
Zn38 Zn40 2.615884 1_555
Zn38 Zn7 2.766099 1_555
Zn39 Zn42 2.615884 1_465
Zn39 Zn41 2.615884 1_566
Zn39 Zn9 2.753598 1_555
Zn39 Zn8 2.753598 1_455
Zn39 Zn4 2.766099 1_455
Zn39 Zn5 2.766099 1_556
Zn40 Zn6 2.640326 1_656
Zn40 Zn7 2.640326 1_555
Zn41 Zn5 2.640326 1_545
Zn41 Zn9 2.640326 1_544
Zn42 Zn8 2.640326 1_545
