# generated using pymatgen
data_Na2CaTi2(GeO4)3
_symmetry_space_group_name_H-M   'P 1'
_cell_length_a   10.73252876
_cell_length_b   10.73252876
_cell_length_c   10.73252876
_cell_angle_alpha   109.67146215
_cell_angle_beta   109.67146215
_cell_angle_gamma   109.07147563
_symmetry_Int_Tables_number   1
_chemical_formula_structural   Na2CaTi2(GeO4)3
_chemical_formula_sum   'Na8 Ca4 Ti8 Ge12 O48'
_cell_volume   951.63071304
_cell_formula_units_Z   4
loop_
 _symmetry_equiv_pos_site_id
 _symmetry_equiv_pos_as_xyz
  1  'x, y, z'
loop_
 _atom_site_type_symbol
 _atom_site_label
 _atom_site_symmetry_multiplicity
 _atom_site_fract_x
 _atom_site_fract_y
 _atom_site_fract_z
 _atom_site_occupancy
  Na  Na0  1  0.25097400  0.37500000  0.37597400  1
  Na  Na1  1  0.12500000  0.74902600  0.12402600  1
  Na  Na2  1  0.75097400  0.37500000  0.87597400  1
  Na  Na3  1  0.62500000  0.00097400  0.87597400  1
  Na  Na4  1  0.12500000  0.24902600  0.62402600  1
  Na  Na5  1  0.99902600  0.87500000  0.62402600  1
  Na  Na6  1  0.62500000  0.50097400  0.37597400  1
  Na  Na7  1  0.49902600  0.87500000  0.12402600  1
  Ca  Ca0  1  0.50000000  0.00000000  0.50000000  1
  Ca  Ca1  1  0.00000000  0.50000000  0.50000000  1
  Ca  Ca2  1  0.75000000  0.75000000  0.00000000  1
  Ca  Ca3  1  0.25000000  0.25000000  0.00000000  1
  Ti  Ti0  1  0.87500000  0.12500000  0.75000000  1
  Ti  Ti1  1  0.87500000  0.62500000  0.75000000  1
  Ti  Ti2  1  0.87500000  0.62500000  0.25000000  1
  Ti  Ti3  1  0.87500000  0.12500000  0.25000000  1
  Ti  Ti4  1  0.37500000  0.12500000  0.75000000  1
  Ti  Ti5  1  0.37500000  0.62500000  0.75000000  1
  Ti  Ti6  1  0.37500000  0.62500000  0.25000000  1
  Ti  Ti7  1  0.37500000  0.12500000  0.25000000  1
  Ge  Ge0  1  0.62500000  0.74997200  0.62497200  1
  Ge  Ge1  1  0.00000000  0.00000000  0.00000000  1
  Ge  Ge2  1  0.99997200  0.37500000  0.12497200  1
  Ge  Ge3  1  0.25000000  0.75000000  0.50000000  1
  Ge  Ge4  1  0.49997200  0.37500000  0.62497200  1
  Ge  Ge5  1  0.12500000  0.00002800  0.37502800  1
  Ge  Ge6  1  0.62500000  0.24997200  0.12497200  1
  Ge  Ge7  1  0.75002800  0.87500000  0.37502800  1
  Ge  Ge8  1  0.50000000  0.50000000  0.00000000  1
  Ge  Ge9  1  0.25002800  0.87500000  0.87502800  1
  Ge  Ge10  1  0.75000000  0.25000000  0.50000000  1
  Ge  Ge11  1  0.12500000  0.50002800  0.87502800  1
  O  O0  1  0.45865100  0.31903300  0.43361800  1
  O  O1  1  0.67716200  0.94107200  0.66498000  1
  O  O2  1  0.75809200  0.20534300  0.64673800  1
  O  O3  1  0.47496600  0.61458500  0.43361800  1
  O  O4  1  0.19139500  0.13864600  0.14673800  1
  O  O5  1  0.19107200  0.42716200  0.16498000  1
  O  O6  1  0.29465700  0.74190800  0.35326200  1
  O  O7  1  0.25809200  0.61135400  0.55274900  1
  O  O8  1  0.48781800  0.22390800  0.66498000  1
  O  O9  1  0.38864600  0.94139500  0.64673800  1
  O  O10  1  0.97496600  0.54134900  0.86038200  1
  O  O11  1  0.86135400  0.00809200  0.05274900  1
  O  O12  1  0.27609200  0.01218200  0.33502000  1
  O  O13  1  0.86458500  0.22496600  0.93361800  1
  O  O14  1  0.98781800  0.32283800  0.26391000  1
  O  O15  1  0.57283800  0.73781800  0.76391000  1
  O  O16  1  0.95865100  0.52503400  0.13961800  1
  O  O17  1  0.95534300  0.80860500  0.94725100  1
  O  O18  1  0.05860500  0.70534300  0.44725100  1
  O  O19  1  0.36458500  0.43096700  0.63961800  1
  O  O20  1  0.18096700  0.04134900  0.56638200  1
  O  O21  1  0.97390800  0.80892800  0.23609000  1
  O  O22  1  0.69107200  0.52609200  0.76391000  1
  O  O23  1  0.68096700  0.11458500  0.13961800  1
  O  O24  1  0.06903300  0.13541500  0.36038200  1
  O  O25  1  0.05892800  0.72390800  0.73609000  1
  O  O26  1  0.77609200  0.44107200  0.26391000  1
  O  O27  1  0.56903300  0.20865100  0.93361800  1
  O  O28  1  0.38541500  0.81903300  0.86038200  1
  O  O29  1  0.69139500  0.54465700  0.05274900  1
  O  O30  1  0.79465700  0.44139500  0.55274900  1
  O  O31  1  0.79134900  0.72496600  0.36038200  1
  O  O32  1  0.17716200  0.51218200  0.73609000  1
  O  O33  1  0.76218200  0.92716200  0.23609000  1
  O  O34  1  0.88541500  0.02503400  0.56638200  1
  O  O35  1  0.47390800  0.23781800  0.16498000  1
  O  O36  1  0.77503400  0.70865100  0.63961800  1
  O  O37  1  0.88864600  0.24190800  0.44725100  1
  O  O38  1  0.36135400  0.30860500  0.85326200  1
  O  O39  1  0.26218200  0.02609200  0.83502000  1
  O  O40  1  0.49190800  0.63864600  0.94725100  1
  O  O41  1  0.45534300  0.50809200  0.14673800  1
  O  O42  1  0.55892800  0.82283800  0.33502000  1
  O  O43  1  0.55860500  0.11135400  0.35326200  1
  O  O44  1  0.27503400  0.63541500  0.06638200  1
  O  O45  1  0.99190800  0.04465700  0.85326200  1
  O  O46  1  0.07283800  0.30892800  0.83502000  1
  O  O47  1  0.29134900  0.93096700  0.06638200  1
loop_
_geom_bond_atom_site_label_1
_geom_bond_atom_site_label_2
_geom_bond_distance
_geom_bond_site_symmetry_2
Na0 O0 2.430693 1_555
Na0 O19 2.430693 1_555
Na0 O14 2.441975 1_455
Na0 O5 2.441975 1_555
Na0 O7 2.564316 1_555
Na0 O4 2.564316 1_555
Na0 O3 2.581065 1_555
Na0 O24 2.581070 1_555
Na1 O10 2.430693 1_454
Na1 O44 2.430703 1_555
Na1 O12 2.441975 1_565
Na1 O21 2.441975 1_455
Na1 O6 2.564316 1_555
Na1 O17 2.564316 1_454
Na1 O16 2.581063 1_455
Na1 O47 2.581070 1_555
Na2 O16 2.430693 1_556
Na2 O13 2.430703 1_555
Na2 O22 2.441975 1_555
Na2 O8 2.441975 1_555
Na2 O29 2.564316 1_556
Na2 O2 2.564316 1_555
Na2 O10 2.581063 1_555
Na2 O27 2.581070 1_555
Na3 O23 2.430693 1_556
Na3 O27 2.430693 1_555
Na3 O1 2.441975 1_545
Na3 O15 2.441975 1_545
Na3 O11 2.564316 1_556
Na3 O9 2.564316 1_545
Na3 O13 2.581065 1_555
Na3 O28 2.581070 1_545
Na4 O24 2.430693 1_555
Na4 O20 2.430693 1_555
Na4 O32 2.441975 1_555
Na4 O46 2.441975 1_555
Na4 O38 2.564316 1_555
Na4 O37 2.564316 1_455
Na4 O34 2.581065 1_455
Na4 O19 2.581070 1_555
Na5 O31 2.430693 1_555
Na5 O34 2.430703 1_565
Na5 O39 2.441975 1_665
Na5 O25 2.441975 1_655
Na5 O45 2.564316 1_565
Na5 O18 2.564316 1_655
Na5 O36 2.581063 1_555
Na5 O20 2.581070 1_665
Na6 O36 2.430693 1_555
Na6 O3 2.430703 1_555
Na6 O35 2.441975 1_555
Na6 O26 2.441975 1_555
Na6 O30 2.564316 1_555
Na6 O41 2.564316 1_555
Na6 O31 2.581063 1_555
Na6 O0 2.581070 1_555
Na7 O47 2.430693 1_555
Na7 O28 2.430693 1_554
Na7 O42 2.441975 1_555
Na7 O33 2.441975 1_555
Na7 O43 2.564316 1_565
Na7 O40 2.564316 1_554
Na7 O44 2.581065 1_555
Na7 O23 2.581070 1_565
Ca0 O9 2.397278 1_545
Ca0 O6 2.397278 1_545
Ca0 O2 2.397278 1_555
Ca0 O43 2.397278 1_555
Ca0 O12 2.534491 1_555
Ca0 O42 2.534491 1_545
Ca0 O8 2.534491 1_555
Ca0 O1 2.534491 1_545
Ca1 O30 2.397278 1_455
Ca1 O18 2.397278 1_555
Ca1 O7 2.397278 1_555
Ca1 O37 2.397278 1_455
Ca1 O26 2.534491 1_455
Ca1 O32 2.534491 1_555
Ca1 O14 2.534491 1_455
Ca1 O25 2.534491 1_555
Ca2 O17 2.397278 1_554
Ca2 O11 2.397278 1_565
Ca2 O29 2.397278 1_555
Ca2 O40 2.397278 1_554
Ca2 O15 2.534491 1_554
Ca2 O22 2.534491 1_554
Ca2 O21 2.534491 1_555
Ca2 O33 2.534491 1_555
Ca3 O4 2.397278 1_555
Ca3 O38 2.397278 1_554
Ca3 O41 2.397278 1_555
Ca3 O45 2.397278 1_454
Ca3 O46 2.534491 1_554
Ca3 O35 2.534491 1_555
Ca3 O5 2.534491 1_555
Ca3 O39 2.534491 1_554
Ge0 O3 1.776916 1_555
Ge0 O36 1.776924 1_555
Ge0 O1 1.788640 1_555
Ge0 O15 1.788640 1_555
Ge1 O4 1.777854 1_555
Ge1 O45 1.777854 1_454
Ge1 O17 1.777854 1_444
Ge1 O11 1.777854 1_455
Ge2 O13 1.776916 1_554
Ge2 O16 1.776924 1_555
Ge2 O5 1.788640 1_655
Ge2 O14 1.788640 1_555
Ge3 O7 1.777854 1_555
Ge3 O18 1.777854 1_555
Ge3 O9 1.777854 1_555
Ge3 O6 1.777854 1_555
Ge4 O19 1.776914 1_555
Ge4 O0 1.776914 1_555
Ge4 O8 1.788640 1_555
Ge4 O22 1.788640 1_555
Ge5 O20 1.776914 1_555
Ge5 O24 1.776914 1_555
Ge5 O12 1.788640 1_555
Ge5 O21 1.788640 1_445
Ge6 O27 1.776914 1_554
Ge6 O23 1.776914 1_555
Ge6 O26 1.788640 1_555
Ge6 O35 1.788640 1_555
Ge7 O34 1.776916 1_565
Ge7 O31 1.776924 1_555
Ge7 O42 1.788640 1_555
Ge7 O33 1.788640 1_555
Ge8 O41 1.777854 1_555
Ge8 O40 1.777854 1_554
Ge8 O29 1.777854 1_555
Ge8 O38 1.777854 1_554
Ge9 O28 1.776914 1_555
Ge9 O47 1.776914 1_556
Ge9 O39 1.788640 1_565
Ge9 O25 1.788640 1_555
Ge10 O2 1.777854 1_555
Ge10 O37 1.777854 1_555
Ge10 O30 1.777854 1_555
Ge10 O43 1.777854 1_555
Ge11 O44 1.776916 1_556
Ge11 O10 1.776924 1_455
Ge11 O32 1.788640 1_555
Ge11 O46 1.788640 1_555
O0 Ti7 1.962243 1_555
O1 Ti0 1.995390 1_565
O2 Ti0 1.990054 1_555
O3 Ti6 1.962240 1_555
O4 Ti7 1.990054 1_555
O5 Ti6 1.995390 1_555
O6 Ti6 1.990054 1_555
O7 Ti5 1.990054 1_555
O8 Ti4 1.995390 1_555
O9 Ti4 1.990054 1_565
O10 Ti1 1.962237 1_555
O11 Ti3 1.990054 1_555
O12 Ti7 1.995390 1_555
O13 Ti0 1.962240 1_555
O14 Ti3 1.995390 1_555
O15 Ti5 1.995390 1_555
O16 Ti2 1.962237 1_555
O17 Ti1 1.990054 1_555
O18 Ti2 1.990054 1_455
O19 Ti5 1.962243 1_555
O20 Ti4 1.962243 1_555
O21 Ti2 1.995390 1_555
O22 Ti1 1.995390 1_555
O23 Ti3 1.962243 1_555
O24 Ti3 1.962243 1_455
O25 Ti1 1.995390 1_455
O26 Ti2 1.995390 1_555
O27 Ti4 1.962243 1_555
O28 Ti5 1.962243 1_555
O29 Ti2 1.990054 1_555
O30 Ti1 1.990054 1_555
O31 Ti2 1.962237 1_555
O32 Ti5 1.995390 1_555
O33 Ti3 1.995390 1_565
O34 Ti0 1.962240 1_555
O35 Ti7 1.995390 1_555
O36 Ti1 1.962237 1_555
O37 Ti3 1.990054 1_555
O38 Ti4 1.990054 1_555
O39 Ti4 1.995390 1_555
O40 Ti5 1.990054 1_555
O41 Ti6 1.990054 1_555
O42 Ti6 1.995390 1_555
O43 Ti7 1.990054 1_555
O44 Ti6 1.962240 1_555
O45 Ti0 1.990054 1_555
O46 Ti0 1.995390 1_455
O47 Ti7 1.962243 1_565
