# generated using pymatgen
data_K2Cr4Co(HO4)4
_symmetry_space_group_name_H-M   'P 1'
_cell_length_a   6.96476700
_cell_length_b   7.82987221
_cell_length_c   7.98691902
_cell_angle_alpha   89.85502923
_cell_angle_beta   81.67754958
_cell_angle_gamma   63.74867656
_symmetry_Int_Tables_number   1
_chemical_formula_structural   K2Cr4Co(HO4)4
_chemical_formula_sum   'K2 Cr4 Co1 H4 O16'
_cell_volume   385.58803658
_cell_formula_units_Z   1
loop_
 _symmetry_equiv_pos_site_id
 _symmetry_equiv_pos_as_xyz
  1  'x, y, z'
loop_
 _atom_site_type_symbol
 _atom_site_label
 _atom_site_symmetry_multiplicity
 _atom_site_fract_x
 _atom_site_fract_y
 _atom_site_fract_z
 _atom_site_occupancy
  K  K0  1  0.29297200  0.26154900  0.82721800  1
  K  K1  1  0.70704400  0.73844700  0.17277800  1
  Cr  Cr0  1  0.26147800  0.79499000  0.83550500  1
  Cr  Cr1  1  0.73852900  0.20501100  0.16452200  1
  Cr  Cr2  1  0.27074000  0.49792200  0.33230300  1
  Cr  Cr3  1  0.72922500  0.50209200  0.66767800  1
  Co  Co0  1  0.00000600  0.99999800  0.50000000  1
  H  H0  1  0.19355200  0.08116800  0.22489700  1
  H  H1  1  0.80646200  0.91883000  0.77509100  1
  H  H2  1  0.74187400  0.84765200  0.61703500  1
  H  H3  1  0.25813400  0.15234500  0.38295400  1
  O  O0  1  0.85138300  0.28025600  0.58534100  1
  O  O1  1  0.72169800  0.65457300  0.52468000  1
  O  O2  1  0.45448100  0.55654100  0.75679900  1
  O  O3  1  0.04386500  0.78395600  0.92684800  1
  O  O4  1  0.20567000  0.93949900  0.67791300  1
  O  O5  1  0.75551000  0.95794700  0.66624100  1
  O  O6  1  0.24449300  0.04205200  0.33375000  1
  O  O7  1  0.27828100  0.34541600  0.47533400  1
  O  O8  1  0.79435700  0.06049500  0.32207900  1
  O  O9  1  0.14861200  0.71972500  0.41466800  1
  O  O10  1  0.15192800  0.46892000  0.18221100  1
  O  O11  1  0.54549400  0.44345500  0.24321300  1
  O  O12  1  0.95614600  0.21606700  0.07314700  1
  O  O13  1  0.63242200  0.12811600  0.03226300  1
  O  O14  1  0.36760100  0.87189600  0.96773600  1
  O  O15  1  0.84804000  0.53108100  0.81779600  1
loop_
_geom_bond_atom_site_label_1
_geom_bond_atom_site_label_2
_geom_bond_distance
_geom_bond_site_symmetry_2
K0 O13 2.879247 1_556
K0 O15 2.888560 1_455
K0 O7 2.890482 1_555
K0 O12 2.981584 1_456
K0 O2 3.004211 1_555
K0 O10 3.073485 1_556
K0 O14 3.096231 1_545
K0 O5 3.118316 1_545
K0 O4 3.119567 1_545
K1 O14 2.879194 1_554
K1 O10 2.888313 1_655
K1 O1 2.890615 1_555
K1 O3 2.981661 1_654
K1 O11 3.004424 1_555
K1 O15 3.073409 1_554
K1 O13 3.096347 1_565
K1 O6 3.118370 1_565
K1 O8 3.119587 1_565
Cr0 O3 1.622419 1_555
Cr0 O14 1.627022 1_555
Cr0 O4 1.661617 1_555
Cr0 O2 1.796962 1_555
Cr1 O12 1.622604 1_555
Cr1 O13 1.627054 1_555
Cr1 O8 1.661434 1_555
Cr1 O11 1.796958 1_555
Cr2 O10 1.621156 1_555
Cr2 O7 1.639711 1_555
Cr2 O9 1.646019 1_555
Cr2 O11 1.798742 1_555
Cr3 O15 1.621302 1_555
Cr3 O1 1.639405 1_555
Cr3 O0 1.646158 1_555
Cr3 O2 1.798772 1_555
Co0 O0 2.036011 1_465
Co0 O9 2.036095 1_555
Co0 O8 2.069018 1_465
Co0 O4 2.069039 1_555
Co0 O6 2.147162 1_565
Co0 O5 2.147162 1_455
H0 O6 0.983544 1_555
H1 O5 0.983550 1_555
H2 O5 0.997169 1_555
H3 O6 0.997167 1_555
