# generated using pymatgen
data_Sr4Ru3O10
_symmetry_space_group_name_H-M   'P 1'
_cell_length_a   14.62933260
_cell_length_b   14.62933260
_cell_length_c   5.51674932
_cell_angle_alpha   90.00000000
_cell_angle_beta   90.00000000
_cell_angle_gamma   158.26425192
_symmetry_Int_Tables_number   1
_chemical_formula_structural   Sr4Ru3O10
_chemical_formula_sum   'Sr8 Ru6 O20'
_cell_volume   437.23703529
_cell_formula_units_Z   2
loop_
 _symmetry_equiv_pos_site_id
 _symmetry_equiv_pos_as_xyz
  1  'x, y, z'
loop_
 _atom_site_type_symbol
 _atom_site_label
 _atom_site_symmetry_multiplicity
 _atom_site_fract_x
 _atom_site_fract_y
 _atom_site_fract_z
 _atom_site_occupancy
  Sr  Sr0  1  0.70392052  0.29607948  0.00000000  1
  Sr  Sr1  1  0.20392052  0.79607948  0.50000000  1
  Sr  Sr2  1  0.43009455  0.56990545  0.00000000  1
  Sr  Sr3  1  0.06990545  0.93009455  0.50000000  1
  Sr  Sr4  1  0.56990545  0.43009455  0.00000000  1
  Sr  Sr5  1  0.29607948  0.70392052  0.00000000  1
  Sr  Sr6  1  0.79607948  0.20392052  0.50000000  1
  Sr  Sr7  1  0.93009455  0.06990545  0.50000000  1
  Ru  Ru0  1  0.86001367  0.13998633  0.00000000  1
  Ru  Ru1  1  0.63998633  0.36001367  0.50000000  1
  Ru  Ru2  1  0.50000000  0.50000000  0.50000000  1
  Ru  Ru3  1  0.13998633  0.86001367  0.00000000  1
  Ru  Ru4  1  0.36001367  0.63998633  0.50000000  1
  Ru  Ru5  1  -0.00000000  -0.00000000  0.00000000  1
  O  O0  1  0.79698334  0.79698334  0.70304541  1
  O  O1  1  0.57690222  0.85485768  0.78405586  1
  O  O2  1  0.21031586  0.78968414  0.00000000  1
  O  O3  1  0.42309778  0.14514232  0.21594414  1
  O  O4  1  0.70301666  0.70301666  0.20304541  1
  O  O5  1  0.14514232  0.42309778  0.21594414  1
  O  O6  1  0.06873250  0.93126750  0.00000000  1
  O  O7  1  0.28968414  0.71031586  0.50000000  1
  O  O8  1  0.93126750  0.06873250  0.00000000  1
  O  O9  1  0.29698334  0.29698334  0.79695459  1
  O  O10  1  0.35485768  0.07690222  0.71594414  1
  O  O11  1  0.78968414  0.21031586  0.00000000  1
  O  O12  1  0.92309778  0.64514232  0.28405586  1
  O  O13  1  0.07690222  0.35485768  0.71594414  1
  O  O14  1  0.43126750  0.56873250  0.50000000  1
  O  O15  1  0.20301666  0.20301666  0.29695459  1
  O  O16  1  0.71031586  0.28968414  0.50000000  1
  O  O17  1  0.64514232  0.92309778  0.28405586  1
  O  O18  1  0.56873250  0.43126750  0.50000000  1
  O  O19  1  0.85485768  0.57690222  0.78405586  1
loop_
_geom_bond_atom_site_label_1
_geom_bond_atom_site_label_2
_geom_bond_distance
_geom_bond_site_symmetry_2
O0 Ru5 1.984459 1_666
O0 Ru2 1.984656 1_555
O0 Sr3 2.558073 1_655
O0 Sr7 2.558073 1_565
O0 Sr4 3.066366 1_556
O0 Sr2 3.066366 1_556
O1 Ru4 1.968455 1_555
O1 Ru0 1.968934 1_566
O1 Sr5 2.513897 1_556
O1 Sr2 2.603190 1_556
O1 Sr6 2.897329 1_565
O1 Sr7 2.975136 1_565
O2 Ru3 2.020842 1_555
O2 Sr5 2.464323 1_555
O2 Sr0 2.764400 1_565
O2 Sr0 2.764400 1_455
O2 Sr1 2.764489 1_554
O2 Sr1 2.764489 1_555
O3 Ru1 1.968455 1_555
O3 Ru3 1.968934 1_545
O3 Sr0 2.513897 1_555
O3 Sr4 2.603190 1_555
O3 Sr1 2.897329 1_545
O3 Sr3 2.975136 1_545
O4 Ru2 1.984459 1_555
O4 Ru5 1.984656 1_665
O4 Sr4 2.558073 1_555
O4 Sr2 2.558073 1_555
O4 Sr7 3.066366 1_565
O4 Sr3 3.066366 1_655
O5 Ru4 1.968455 1_555
O5 Ru0 1.968934 1_455
O5 Sr5 2.513897 1_555
O5 Sr2 2.603190 1_555
O5 Sr6 2.897329 1_455
O5 Sr7 2.975136 1_455
O6 Ru5 1.974953 1_565
O6 Ru3 2.047400 1_555
O6 Sr4 2.758491 1_455
O6 Sr4 2.758491 1_565
O6 Sr3 2.758581 1_554
O6 Sr3 2.758581 1_555
O7 Ru4 2.020842 1_555
O7 Sr1 2.464323 1_555
O7 Sr6 2.764400 1_455
O7 Sr6 2.764400 1_565
O7 Sr5 2.764489 1_555
O7 Sr5 2.764489 1_556
O8 Ru5 1.974953 1_655
O8 Ru0 2.047400 1_555
O8 Sr2 2.758491 1_545
O8 Sr2 2.758491 1_655
O8 Sr7 2.758581 1_554
O8 Sr7 2.758581 1_555
O9 Ru2 1.984459 1_555
O9 Ru5 1.984656 1_556
O9 Sr4 2.558073 1_556
O9 Sr2 2.558073 1_556
O9 Sr7 3.066366 1_455
O9 Sr3 3.066366 1_545
O10 Ru3 1.968455 1_546
O10 Ru1 1.968934 1_555
O10 Sr1 2.513897 1_545
O10 Sr3 2.603190 1_545
O10 Sr0 2.897329 1_556
O10 Sr4 2.975136 1_556
O11 Ru0 2.020842 1_555
O11 Sr0 2.464323 1_555
O11 Sr5 2.764400 1_655
O11 Sr5 2.764400 1_545
O11 Sr6 2.764489 1_554
O11 Sr6 2.764489 1_555
O12 Ru3 1.968455 1_655
O12 Ru1 1.968934 1_555
O12 Sr1 2.513897 1_655
O12 Sr3 2.603190 1_655
O12 Sr0 2.897329 1_555
O12 Sr4 2.975136 1_555
O13 Ru0 1.968455 1_456
O13 Ru4 1.968934 1_555
O13 Sr6 2.513897 1_455
O13 Sr7 2.603190 1_455
O13 Sr5 2.897329 1_556
O13 Sr2 2.975136 1_556
O14 Ru2 1.974953 1_555
O14 Ru4 2.047400 1_555
O14 Sr7 2.758491 1_455
O14 Sr7 2.758491 1_565
O14 Sr2 2.758581 1_556
O14 Sr2 2.758581 1_555
O15 Ru5 1.984459 1_555
O15 Ru2 1.984656 1_555
O15 Sr3 2.558073 1_545
O15 Sr7 2.558073 1_455
O15 Sr4 3.066366 1_555
O15 Sr2 3.066366 1_555
O16 Ru1 2.020842 1_555
O16 Sr6 2.464323 1_555
O16 Sr1 2.764400 1_655
O16 Sr1 2.764400 1_545
O16 Sr0 2.764489 1_555
O16 Sr0 2.764489 1_556
O17 Ru0 1.968455 1_565
O17 Ru4 1.968934 1_555
O17 Sr6 2.513897 1_565
O17 Sr7 2.603190 1_565
O17 Sr5 2.897329 1_555
O17 Sr2 2.975136 1_555
O18 Ru2 1.974953 1_555
O18 Ru1 2.047400 1_555
O18 Sr3 2.758491 1_545
O18 Sr3 2.758491 1_655
O18 Sr4 2.758581 1_556
O18 Sr4 2.758581 1_555
O19 Ru1 1.968455 1_555
O19 Ru3 1.968934 1_656
O19 Sr0 2.513897 1_556
O19 Sr4 2.603190 1_556
O19 Sr1 2.897329 1_655
O19 Sr3 2.975136 1_655
