# generated using pymatgen
data_TiMnFe(PO4)3
_symmetry_space_group_name_H-M   'P 1'
_cell_length_a   8.65152375
_cell_length_b   8.65152375
_cell_length_c   8.65152322
_cell_angle_alpha   59.98689549
_cell_angle_beta   59.98689549
_cell_angle_gamma   59.98689514
_symmetry_Int_Tables_number   1
_chemical_formula_structural   TiMnFe(PO4)3
_chemical_formula_sum   'Ti2 Mn2 Fe2 P6 O24'
_cell_volume   457.75566036
_cell_formula_units_Z   2
loop_
 _symmetry_equiv_pos_site_id
 _symmetry_equiv_pos_as_xyz
  1  'x, y, z'
loop_
 _atom_site_type_symbol
 _atom_site_label
 _atom_site_symmetry_multiplicity
 _atom_site_fract_x
 _atom_site_fract_y
 _atom_site_fract_z
 _atom_site_occupancy
  Ti  Ti0  1  0.14535300  0.14535300  0.14535300  1
  Ti  Ti1  1  0.64535300  0.64535300  0.64535300  1
  Mn  Mn0  1  0.99761500  0.99761500  0.99761500  1
  Mn  Mn1  1  0.49761500  0.49761500  0.49761500  1
  Fe  Fe0  1  0.35411500  0.35411500  0.35411500  1
  Fe  Fe1  1  0.85411500  0.85411500  0.85411500  1
  P  P0  1  0.75054500  0.04417500  0.45760900  1
  P  P1  1  0.04417500  0.45760900  0.75054500  1
  P  P2  1  0.45760900  0.75054500  0.04417500  1
  P  P3  1  0.54417500  0.25054500  0.95760900  1
  P  P4  1  0.95760900  0.54417500  0.25054500  1
  P  P5  1  0.25054500  0.95760900  0.54417500  1
  O  O0  1  0.31208500  0.11447300  0.50323200  1
  O  O1  1  0.50323200  0.31208500  0.11447300  1
  O  O2  1  0.91544800  0.05666500  0.26342500  1
  O  O3  1  0.11447300  0.50323200  0.31208500  1
  O  O4  1  0.81208500  0.00323200  0.61447300  1
  O  O5  1  0.58713600  0.23537400  0.44108500  1
  O  O6  1  0.05666500  0.26342500  0.91544800  1
  O  O7  1  0.23537400  0.44108500  0.58713600  1
  O  O8  1  0.37809100  0.19249600  0.00107900  1
  O  O9  1  0.44108500  0.58713600  0.23537400  1
  O  O10  1  0.73537400  0.08713600  0.94108500  1
  O  O11  1  0.00107900  0.37809100  0.19249600  1
  O  O12  1  0.00323200  0.61447300  0.81208500  1
  O  O13  1  0.26342500  0.91544800  0.05666500  1
  O  O14  1  0.55666500  0.41544800  0.76342500  1
  O  O15  1  0.61447300  0.81208500  0.00323200  1
  O  O16  1  0.76342500  0.55666500  0.41544800  1
  O  O17  1  0.94108500  0.73537400  0.08713600  1
  O  O18  1  0.41544800  0.76342500  0.55666500  1
  O  O19  1  0.19249600  0.00107900  0.37809100  1
  O  O20  1  0.87809100  0.50107900  0.69249600  1
  O  O21  1  0.08713600  0.94108500  0.73537400  1
  O  O22  1  0.50107900  0.69249600  0.87809100  1
  O  O23  1  0.69249600  0.87809100  0.50107900  1
loop_
_geom_bond_atom_site_label_1
_geom_bond_atom_site_label_2
_geom_bond_distance
_geom_bond_site_symmetry_2
Mn0 O21 2.227030 1_655
Mn0 O10 2.227030 1_565
Mn0 O17 2.227030 1_556
Mn0 O2 2.287215 1_566
Mn0 O13 2.287215 1_656
Mn0 O6 2.287215 1_665
Mn1 O9 2.227030 1_555
Mn1 O5 2.227030 1_555
Mn1 O7 2.227030 1_555
Mn1 O14 2.287215 1_555
Mn1 O18 2.287215 1_555
Mn1 O16 2.287215 1_555
Fe0 O1 1.924611 1_555
Fe0 O3 1.924611 1_555
Fe0 O0 1.924611 1_555
Fe0 O7 2.087596 1_555
Fe0 O5 2.087596 1_555
Fe0 O9 2.087596 1_555
Fe1 O4 1.924611 1_565
Fe1 O12 1.924611 1_655
Fe1 O15 1.924611 1_556
Fe1 O17 2.087596 1_556
Fe1 O10 2.087596 1_565
Fe1 O21 2.087596 1_655
O0 P5 1.517878 1_545
O1 P3 1.517877 1_554
O2 P0 1.563423 1_555
O2 Ti0 2.073280 1_655
O3 P4 1.517878 1_455
O4 P0 1.517877 1_555
O5 P0 1.543205 1_555
O6 P1 1.563423 1_555
O6 Ti0 2.073280 1_556
O7 P1 1.543205 1_555
O8 P3 1.565451 1_554
O8 Ti0 1.891208 1_555
O9 P2 1.543205 1_555
O10 P3 1.543205 1_555
O11 P4 1.565451 1_455
O11 Ti0 1.891208 1_555
O12 P1 1.517878 1_555
O13 P2 1.563423 1_555
O13 Ti0 2.073280 1_565
O14 P3 1.563423 1_555
O14 Ti1 2.073280 1_555
O15 P2 1.517878 1_555
O16 P4 1.563423 1_555
O16 Ti1 2.073280 1_555
O17 P4 1.543205 1_555
O18 P5 1.563423 1_555
O18 Ti1 2.073280 1_555
O19 P5 1.565451 1_545
O19 Ti0 1.891208 1_555
O20 P1 1.565451 1_655
O20 Ti1 1.891208 1_555
O21 P5 1.543205 1_555
O22 P2 1.565451 1_556
O22 Ti1 1.891208 1_555
O23 P0 1.565451 1_565
O23 Ti1 1.891208 1_555
