# generated using pymatgen
data_ZrGaPt
_symmetry_space_group_name_H-M   'P 1'
_cell_length_a   7.16323799
_cell_length_b   7.16323864
_cell_length_c   7.10934343
_cell_angle_alpha   90.00000000
_cell_angle_beta   90.00000000
_cell_angle_gamma   120.00004954
_symmetry_Int_Tables_number   1
_chemical_formula_structural   ZrGaPt
_chemical_formula_sum   'Zr6 Ga6 Pt6'
_cell_volume   315.92115521
_cell_formula_units_Z   6
loop_
 _symmetry_equiv_pos_site_id
 _symmetry_equiv_pos_as_xyz
  1  'x, y, z'
loop_
 _atom_site_type_symbol
 _atom_site_label
 _atom_site_symmetry_multiplicity
 _atom_site_fract_x
 _atom_site_fract_y
 _atom_site_fract_z
 _atom_site_occupancy
  Zr  Zr0  1  0.38639406  0.40842914  0.75000000  1
  Zr  Zr1  1  0.02203508  0.61360594  0.75000000  1
  Zr  Zr2  1  0.59156986  0.97796392  0.75000000  1
  Zr  Zr3  1  0.61360594  0.02203508  0.25000000  1
  Zr  Zr4  1  0.97796392  0.59156986  0.25000000  1
  Zr  Zr5  1  0.40842914  0.38639406  0.25000000  1
  Ga  Ga0  1  0.26736594  0.99999900  -0.00000000  1
  Ga  Ga1  1  0.73263706  0.73263706  -0.00000000  1
  Ga  Ga2  1  0.99999900  0.26736494  -0.00000000  1
  Ga  Ga3  1  0.73263706  0.73263706  0.50000000  1
  Ga  Ga4  1  0.26736594  0.99999900  0.50000000  1
  Ga  Ga5  1  0.99999900  0.26736494  0.50000000  1
  Pt  Pt0  1  0.66666600  0.33333300  0.96850602  1
  Pt  Pt1  1  -0.00000000  0.00000100  0.75000000  1
  Pt  Pt2  1  0.66666600  0.33333300  0.53149398  1
  Pt  Pt3  1  0.33333300  0.66666600  0.46850602  1
  Pt  Pt4  1  0.33333300  0.66666600  0.03149398  1
  Pt  Pt5  1  0.00000100  -0.00000000  0.25000000  1
loop_
_geom_bond_atom_site_label_1
_geom_bond_atom_site_label_2
_geom_bond_distance
_geom_bond_site_symmetry_2
Ga0 Pt5 2.612838 1_565
Ga0 Pt1 2.612846 1_564
Ga0 Pt4 2.665154 1_555
Ga0 Pt0 2.665154 1_564
Ga0 Zr2 2.990604 1_554
Ga0 Zr3 2.990607 1_565
Ga0 Zr1 3.007329 1_554
Ga0 Zr5 3.007339 1_565
Ga0 Zr4 3.154515 1_455
Ga0 Zr0 3.154520 1_564
Ga1 Pt5 2.612827 1_665
Ga1 Pt1 2.612827 1_664
Ga1 Pt4 2.665171 1_555
Ga1 Pt0 2.665171 1_554
Ga1 Zr0 2.990625 1_554
Ga1 Zr5 2.990626 1_555
Ga1 Zr4 3.007331 1_555
Ga1 Zr2 3.007331 1_554
Ga1 Zr1 3.154511 1_654
Ga1 Zr3 3.154511 1_565
Ga2 Pt1 2.612833 1_654
Ga2 Pt5 2.612841 1_655
Ga2 Pt0 2.665158 1_554
Ga2 Pt4 2.665159 1_655
Ga2 Zr4 2.990610 1_555
Ga2 Zr1 2.990613 1_654
Ga2 Zr3 3.007328 1_555
Ga2 Zr0 3.007338 1_654
Ga2 Zr2 3.154513 1_544
Ga2 Zr5 3.154518 1_655
Ga3 Pt5 2.612827 1_665
Ga3 Pt1 2.612827 1_665
Ga3 Pt3 2.665171 1_555
Ga3 Pt2 2.665171 1_555
Ga3 Zr0 2.990625 1_555
Ga3 Zr5 2.990626 1_555
Ga3 Zr4 3.007331 1_555
Ga3 Zr2 3.007331 1_555
Ga3 Zr1 3.154511 1_655
Ga3 Zr3 3.154511 1_565
Ga4 Pt5 2.612838 1_565
Ga4 Pt1 2.612846 1_565
Ga4 Pt3 2.665154 1_555
Ga4 Pt2 2.665154 1_565
Ga4 Zr2 2.990604 1_555
Ga4 Zr3 2.990607 1_565
Ga4 Zr1 3.007329 1_555
Ga4 Zr5 3.007339 1_565
Ga4 Zr4 3.154515 1_455
Ga4 Zr0 3.154520 1_565
Ga5 Pt1 2.612833 1_655
Ga5 Pt5 2.612841 1_655
Ga5 Pt2 2.665158 1_555
Ga5 Pt3 2.665159 1_655
Ga5 Zr4 2.990610 1_555
Ga5 Zr1 2.990613 1_655
Ga5 Zr3 3.007328 1_555
Ga5 Zr0 3.007338 1_655
Ga5 Zr2 3.154513 1_545
Ga5 Zr5 3.154518 1_655
Pt0 Zr0 2.795208 1_555
Pt0 Zr1 2.795212 1_655
Pt0 Zr2 2.795213 1_545
Pt0 Zr4 2.876510 1_556
Pt0 Zr5 2.876511 1_556
Pt0 Zr3 2.876513 1_556
Pt0 Pt2 3.106869 1_555
Pt1 Zr0 2.850028 1_555
Pt1 Zr2 2.850034 1_445
Pt1 Zr1 2.850041 1_545
Pt2 Zr0 2.795208 1_555
Pt2 Zr1 2.795212 1_655
Pt2 Zr2 2.795213 1_545
Pt2 Zr4 2.876510 1_555
Pt2 Zr5 2.876511 1_555
Pt2 Zr3 2.876513 1_555
Pt3 Zr5 2.795208 1_555
Pt3 Zr3 2.795212 1_565
Pt3 Zr4 2.795213 1_455
Pt3 Zr2 2.876510 1_555
Pt3 Zr0 2.876511 1_555
Pt3 Zr1 2.876513 1_555
Pt3 Pt4 3.106869 1_555
Pt4 Zr5 2.795208 1_555
Pt4 Zr3 2.795212 1_565
Pt4 Zr4 2.795213 1_455
Pt4 Zr2 2.876510 1_554
Pt4 Zr0 2.876511 1_554
Pt4 Zr1 2.876513 1_554
Pt5 Zr5 2.850028 1_555
Pt5 Zr4 2.850035 1_445
Pt5 Zr3 2.850041 1_455
