# generated using pymatgen
data_Ti9Fe2(B4Ru9)2
_symmetry_space_group_name_H-M   'P 1'
_cell_length_a   17.59578300
_cell_length_b   17.59578300
_cell_length_c   2.99699200
_cell_angle_alpha   90.00000000
_cell_angle_beta   90.00000000
_cell_angle_gamma   90.00000000
_symmetry_Int_Tables_number   1
_chemical_formula_structural   Ti9Fe2(B4Ru9)2
_chemical_formula_sum   'Ti18 Fe4 B16 Ru36'
_cell_volume   927.90342652
_cell_formula_units_Z   2
loop_
 _symmetry_equiv_pos_site_id
 _symmetry_equiv_pos_as_xyz
  1  'x, y, z'
loop_
 _atom_site_type_symbol
 _atom_site_label
 _atom_site_symmetry_multiplicity
 _atom_site_fract_x
 _atom_site_fract_y
 _atom_site_fract_z
 _atom_site_occupancy
  Ti  Ti0  1  0.18801800  0.96423600  0.50000000  1
  Ti  Ti1  1  0.96423600  0.81198200  0.50000000  1
  Ti  Ti2  1  0.80409800  0.30409800  0.50000000  1
  Ti  Ti3  1  0.30409800  0.19590200  0.50000000  1
  Ti  Ti4  1  0.31198200  0.46423600  0.50000000  1
  Ti  Ti5  1  0.03576400  0.18801800  0.50000000  1
  Ti  Ti6  1  0.19590200  0.69590200  0.50000000  1
  Ti  Ti7  1  0.69590200  0.80409800  0.50000000  1
  Ti  Ti8  1  0.00000000  0.00000000  0.50000000  1
  Ti  Ti9  1  0.68801800  0.53576400  0.50000000  1
  Ti  Ti10  1  0.82841100  0.67158900  0.50000000  1
  Ti  Ti11  1  0.32841100  0.82841100  0.50000000  1
  Ti  Ti12  1  0.67158900  0.17158900  0.50000000  1
  Ti  Ti13  1  0.46423600  0.68801800  0.50000000  1
  Ti  Ti14  1  0.81198200  0.03576400  0.50000000  1
  Ti  Ti15  1  0.53576400  0.31198200  0.50000000  1
  Ti  Ti16  1  0.50000000  0.50000000  0.50000000  1
  Ti  Ti17  1  0.17158900  0.32841100  0.50000000  1
  Fe  Fe0  1  0.95188400  0.54811600  0.50000000  1
  Fe  Fe1  1  0.54811600  0.04811600  0.50000000  1
  Fe  Fe2  1  0.04811600  0.45188400  0.50000000  1
  Fe  Fe3  1  0.45188400  0.95188400  0.50000000  1
  B  B0  1  0.33531500  0.03716900  0.50000000  1
  B  B1  1  0.83531500  0.46283100  0.50000000  1
  B  B2  1  0.62103300  0.66951700  0.50000000  1
  B  B3  1  0.66468500  0.96283100  0.50000000  1
  B  B4  1  0.66951700  0.37896700  0.50000000  1
  B  B5  1  0.83048300  0.87896700  0.50000000  1
  B  B6  1  0.96283100  0.33531500  0.50000000  1
  B  B7  1  0.87896700  0.16951700  0.50000000  1
  B  B8  1  0.12103300  0.83048300  0.50000000  1
  B  B9  1  0.37896700  0.33048300  0.50000000  1
  B  B10  1  0.53716900  0.83531500  0.50000000  1
  B  B11  1  0.16951700  0.12103300  0.50000000  1
  B  B12  1  0.46283100  0.16468500  0.50000000  1
  B  B13  1  0.33048300  0.62103300  0.50000000  1
  B  B14  1  0.16468500  0.53716900  0.50000000  1
  B  B15  1  0.03716900  0.66468500  0.50000000  1
  Ru  Ru0  1  0.32987200  0.94842300  0.00000000  1
  Ru  Ru1  1  0.83125700  0.78928700  0.00000000  1
  Ru  Ru2  1  0.43076900  0.40207000  0.00000000  1
  Ru  Ru3  1  0.06923100  0.90207000  0.00000000  1
  Ru  Ru4  1  0.17012800  0.44842300  0.00000000  1
  Ru  Ru5  1  0.67012800  0.05157700  0.00000000  1
  Ru  Ru6  1  0.78928700  0.16874300  0.00000000  1
  Ru  Ru7  1  0.44842300  0.82987200  0.00000000  1
  Ru  Ru8  1  0.58050200  0.75421000  0.00000000  1
  Ru  Ru9  1  0.25421000  0.08050200  0.00000000  1
  Ru  Ru10  1  0.93076900  0.09793000  0.00000000  1
  Ru  Ru11  1  0.90207000  0.93076900  0.00000000  1
  Ru  Ru12  1  0.33125700  0.71071300  0.00000000  1
  Ru  Ru13  1  0.94842300  0.67012800  0.00000000  1
  Ru  Ru14  1  0.41732800  0.08267200  0.00000000  1
  Ru  Ru15  1  0.09793000  0.06923100  0.00000000  1
  Ru  Ru16  1  0.82987200  0.55157700  0.00000000  1
  Ru  Ru17  1  0.55157700  0.17012800  0.00000000  1
  Ru  Ru18  1  0.74579000  0.91949800  0.00000000  1
  Ru  Ru19  1  0.08267200  0.58267200  0.00000000  1
  Ru  Ru20  1  0.08050200  0.74579000  0.00000000  1
  Ru  Ru21  1  0.91732800  0.41732800  0.00000000  1
  Ru  Ru22  1  0.41949800  0.24579000  0.00000000  1
  Ru  Ru23  1  0.75421000  0.41949800  0.00000000  1
  Ru  Ru24  1  0.91949800  0.25421000  0.00000000  1
  Ru  Ru25  1  0.21071300  0.83125700  0.00000000  1
  Ru  Ru26  1  0.28928700  0.33125700  0.00000000  1
  Ru  Ru27  1  0.16874300  0.21071300  0.00000000  1
  Ru  Ru28  1  0.40207000  0.56923100  0.00000000  1
  Ru  Ru29  1  0.71071300  0.66874300  0.00000000  1
  Ru  Ru30  1  0.59793000  0.43076900  0.00000000  1
  Ru  Ru31  1  0.56923100  0.59793000  0.00000000  1
  Ru  Ru32  1  0.24579000  0.58050200  0.00000000  1
  Ru  Ru33  1  0.66874300  0.28928700  0.00000000  1
  Ru  Ru34  1  0.58267200  0.91732800  0.00000000  1
  Ru  Ru35  1  0.05157700  0.32987200  0.00000000  1
loop_
_geom_bond_atom_site_label_1
_geom_bond_atom_site_label_2
_geom_bond_distance
_geom_bond_site_symmetry_2
Fe0 Fe2 2.394656 1_655
Fe0 Ru16 2.618848 1_556
Fe0 Ru13 2.618848 1_556
Fe0 Ru16 2.618848 1_555
Fe0 Ru13 2.618848 1_555
Fe0 Ru21 2.812697 1_556
Fe0 Ru21 2.812697 1_555
Fe0 Ru19 2.812697 1_656
Fe0 Ru19 2.812697 1_655
Fe1 Fe3 2.394656 1_545
Fe1 Ru17 2.618848 1_555
Fe1 Ru17 2.618848 1_556
Fe1 Ru5 2.618848 1_555
Fe1 Ru5 2.618848 1_556
Fe1 Ru14 2.812697 1_556
Fe1 Ru14 2.812697 1_555
Fe1 Ru34 2.812697 1_545
Fe1 Ru34 2.812697 1_546
Fe2 Ru35 2.618848 1_555
Fe2 Ru35 2.618848 1_556
Fe2 Ru4 2.618848 1_556
Fe2 Ru4 2.618848 1_555
Fe2 Ru21 2.812697 1_456
Fe2 Ru21 2.812697 1_455
Fe2 Ru19 2.812697 1_556
Fe2 Ru19 2.812697 1_555
Fe3 Ru0 2.618848 1_556
Fe3 Ru0 2.618848 1_555
Fe3 Ru7 2.618848 1_556
Fe3 Ru7 2.618848 1_555
Fe3 Ru14 2.812697 1_565
Fe3 Ru14 2.812697 1_566
Fe3 Ru34 2.812697 1_555
Fe3 Ru34 2.812697 1_556
B0 Ru0 2.166361 1_546
B0 Ru0 2.166361 1_545
B0 Ru9 2.205333 1_556
B0 Ru9 2.205333 1_555
B0 Ru14 2.229134 1_555
B0 Ru14 2.229134 1_556
B0 Fe3 2.541471 1_545
B0 Ti3 2.846531 1_555
B0 Ti0 2.892119 1_545
B1 Ru16 2.166361 1_555
B1 Ru16 2.166361 1_556
B1 Ru23 2.205333 1_555
B1 Ru23 2.205333 1_556
B1 Ru21 2.229134 1_556
B1 Ru21 2.229134 1_555
B1 Fe0 2.541471 1_555
B1 Ti2 2.846531 1_555
B1 Ti9 2.892119 1_555
B2 Ru31 2.159394 1_556
B2 Ru31 2.159394 1_555
B2 Ru29 2.176173 1_555
B2 Ru29 2.176173 1_556
B2 Ru8 2.230453 1_556
B2 Ru8 2.230453 1_555
B2 Ti9 2.632135 1_555
B2 Ti7 2.709831 1_555
B2 Ti13 2.778105 1_555
B3 Ru5 2.166361 1_565
B3 Ru5 2.166361 1_566
B3 Ru18 2.205333 1_556
B3 Ru18 2.205333 1_555
B3 Ru34 2.229134 1_556
B3 Ru34 2.229134 1_555
B3 Fe1 2.541471 1_565
B3 Ti7 2.846531 1_555
B3 Ti14 2.892119 1_565
B4 Ru30 2.159394 1_556
B4 Ru30 2.159394 1_555
B4 Ru33 2.176173 1_556
B4 Ru33 2.176173 1_555
B4 Ru23 2.230453 1_555
B4 Ru23 2.230453 1_556
B4 Ti15 2.632135 1_555
B4 Ti2 2.709831 1_555
B4 Ti9 2.778105 1_555
B5 Ru11 2.159394 1_555
B5 Ru11 2.159394 1_556
B5 Ru1 2.176173 1_556
B5 Ru1 2.176173 1_555
B5 Ru18 2.230453 1_556
B5 Ru18 2.230453 1_555
B5 Ti1 2.632135 1_555
B5 Ti7 2.709831 1_555
B5 Ti14 2.778105 1_565
B6 Ru35 2.166361 1_655
B6 Ru35 2.166361 1_656
B6 Ru24 2.205333 1_555
B6 Ru24 2.205333 1_556
B6 Ru21 2.229134 1_556
B6 Ru21 2.229134 1_555
B6 Fe2 2.541471 1_655
B6 Ti2 2.846531 1_555
B6 Ti5 2.892119 1_655
B7 Ru10 2.159394 1_555
B7 Ru10 2.159394 1_556
B7 Ru6 2.176173 1_555
B7 Ru6 2.176173 1_556
B7 Ru24 2.230453 1_555
B7 Ru24 2.230453 1_556
B7 Ti14 2.632135 1_555
B7 Ti2 2.709831 1_555
B7 Ti5 2.778105 1_655
B8 Ru3 2.159394 1_556
B8 Ru3 2.159394 1_555
B8 Ru25 2.176173 1_556
B8 Ru25 2.176173 1_555
B8 Ru20 2.230453 1_555
B8 Ru20 2.230453 1_556
B8 Ti0 2.632135 1_555
B8 Ti6 2.709831 1_555
B8 Ti1 2.778105 1_455
B9 Ru2 2.159394 1_556
B9 Ru2 2.159394 1_555
B9 Ru26 2.176173 1_555
B9 Ru26 2.176173 1_556
B9 Ru22 2.230453 1_555
B9 Ru22 2.230453 1_556
B9 Ti4 2.632135 1_555
B9 Ti3 2.709831 1_555
B9 Ti15 2.778105 1_555
B10 Ru7 2.166361 1_556
B10 Ru7 2.166361 1_555
B10 Ru8 2.205333 1_556
B10 Ru8 2.205333 1_555
B10 Ru34 2.229134 1_556
B10 Ru34 2.229134 1_555
B10 Fe3 2.541471 1_555
B10 Ti7 2.846531 1_555
B10 Ti13 2.892119 1_555
B11 Ru15 2.159394 1_556
B11 Ru15 2.159394 1_555
B11 Ru27 2.176173 1_556
B11 Ru27 2.176173 1_555
B11 Ru9 2.230453 1_556
B11 Ru9 2.230453 1_555
B11 Ti5 2.632135 1_555
B11 Ti3 2.709831 1_555
B11 Ti0 2.778105 1_545
B12 Ru17 2.166361 1_555
B12 Ru17 2.166361 1_556
B12 Ru22 2.205333 1_556
B12 Ru22 2.205333 1_555
B12 Ru14 2.229134 1_556
B12 Ru14 2.229134 1_555
B12 Fe1 2.541471 1_555
B12 Ti3 2.846531 1_555
B12 Ti15 2.892119 1_555
B13 Ru28 2.159394 1_555
B13 Ru28 2.159394 1_556
B13 Ru12 2.176173 1_556
B13 Ru12 2.176173 1_555
B13 Ru32 2.230453 1_555
B13 Ru32 2.230453 1_556
B13 Ti13 2.632135 1_555
B13 Ti6 2.709831 1_555
B13 Ti4 2.778105 1_555
B14 Ru4 2.166361 1_556
B14 Ru4 2.166361 1_555
B14 Ru32 2.205333 1_555
B14 Ru32 2.205333 1_556
B14 Ru19 2.229134 1_556
B14 Ru19 2.229134 1_555
B14 Fe2 2.541471 1_555
B14 Ti6 2.846531 1_555
B14 Ti4 2.892119 1_555
B15 Ru13 2.166361 1_456
B15 Ru13 2.166361 1_455
B15 Ru20 2.205333 1_555
B15 Ru20 2.205333 1_556
B15 Ru19 2.229134 1_556
B15 Ru19 2.229134 1_555
B15 Fe0 2.541471 1_455
B15 Ti6 2.846531 1_555
B15 Ti1 2.892119 1_455
Ru0 Ti11 2.589488 1_554
Ru0 Ti11 2.589488 1_555
Ru0 Ti0 2.924566 1_554
Ru0 Ti0 2.924566 1_555
Ru1 Ti10 2.556754 1_555
Ru1 Ti10 2.556754 1_554
Ru1 Ti1 2.807125 1_554
Ru1 Ti1 2.807125 1_555
Ru1 Ti7 2.825915 1_555
Ru1 Ti7 2.825915 1_554
Ru2 Ti16 2.588185 1_554
Ru2 Ti16 2.588185 1_555
Ru2 Ti4 2.794771 1_554
Ru2 Ti4 2.794771 1_555
Ru2 Ti15 2.858565 1_555
Ru2 Ti15 2.858565 1_554
Ru3 Ti8 2.588185 1_564
Ru3 Ti8 2.588185 1_565
Ru3 Ti0 2.794771 1_555
Ru3 Ti0 2.794771 1_554
Ru3 Ti1 2.858565 1_455
Ru3 Ti1 2.858565 1_454
Ru4 Ti17 2.589488 1_554
Ru4 Ti17 2.589488 1_555
Ru4 Ti4 2.924566 1_554
Ru4 Ti4 2.924566 1_555
Ru5 Ti12 2.589488 1_555
Ru5 Ti12 2.589488 1_554
Ru5 Ti14 2.924566 1_555
Ru5 Ti14 2.924566 1_554
Ru6 Ti12 2.556754 1_554
Ru6 Ti12 2.556754 1_555
Ru6 Ti14 2.807125 1_554
Ru6 Ti14 2.807125 1_555
Ru6 Ti2 2.825915 1_554
Ru6 Ti2 2.825915 1_555
Ru7 Ti11 2.589488 1_554
Ru7 Ti11 2.589488 1_555
Ru7 Ti13 2.924566 1_554
Ru7 Ti13 2.924566 1_555
Ru8 Ti7 2.671929 1_555
Ru8 Ti7 2.671929 1_554
Ru8 Ti13 2.790570 1_554
Ru8 Ti13 2.790570 1_555
Ru9 Ti3 2.671929 1_554
Ru9 Ti3 2.671929 1_555
Ru9 Ti0 2.790570 1_545
Ru9 Ti0 2.790570 1_544
Ru10 Ti8 2.588185 1_655
Ru10 Ti8 2.588185 1_654
Ru10 Ti14 2.794771 1_554
Ru10 Ti14 2.794771 1_555
Ru10 Ti5 2.858565 1_655
Ru10 Ti5 2.858565 1_654
Ru11 Ti8 2.588185 1_665
Ru11 Ti8 2.588185 1_664
Ru11 Ti1 2.794771 1_555
Ru11 Ti1 2.794771 1_554
Ru11 Ti14 2.858565 1_565
Ru11 Ti14 2.858565 1_564
Ru12 Ti11 2.556754 1_554
Ru12 Ti11 2.556754 1_555
Ru12 Ti13 2.807125 1_554
Ru12 Ti13 2.807125 1_555
Ru12 Ti6 2.825915 1_555
Ru12 Ti6 2.825915 1_554
Ru13 Ti10 2.589488 1_555
Ru13 Ti10 2.589488 1_554
Ru13 Ti1 2.924566 1_554
Ru13 Ti1 2.924566 1_555
Ru15 Ti8 2.588185 1_555
Ru15 Ti8 2.588185 1_554
Ru15 Ti5 2.794771 1_555
Ru15 Ti5 2.794771 1_554
Ru15 Ti0 2.858565 1_544
Ru15 Ti0 2.858565 1_545
Ru16 Ti10 2.589488 1_554
Ru16 Ti10 2.589488 1_555
Ru16 Ti9 2.924566 1_554
Ru16 Ti9 2.924566 1_555
Ru17 Ti12 2.589488 1_555
Ru17 Ti12 2.589488 1_554
Ru17 Ti15 2.924566 1_554
Ru17 Ti15 2.924566 1_555
Ru18 Ti7 2.671929 1_555
Ru18 Ti7 2.671929 1_554
Ru18 Ti14 2.790570 1_564
Ru18 Ti14 2.790570 1_565
Ru20 Ti6 2.671929 1_555
Ru20 Ti6 2.671929 1_554
Ru20 Ti1 2.790570 1_455
Ru20 Ti1 2.790570 1_454
Ru22 Ti3 2.671929 1_555
Ru22 Ti3 2.671929 1_554
Ru22 Ti15 2.790570 1_554
Ru22 Ti15 2.790570 1_555
Ru23 Ti2 2.671929 1_554
Ru23 Ti2 2.671929 1_555
Ru23 Ti9 2.790570 1_554
Ru23 Ti9 2.790570 1_555
Ru24 Ti2 2.671929 1_554
Ru24 Ti2 2.671929 1_555
Ru24 Ti5 2.790570 1_655
Ru24 Ti5 2.790570 1_654
Ru25 Ti11 2.556754 1_555
Ru25 Ti11 2.556754 1_554
Ru25 Ti0 2.807125 1_554
Ru25 Ti0 2.807125 1_555
Ru25 Ti6 2.825915 1_555
Ru25 Ti6 2.825915 1_554
Ru26 Ti17 2.556754 1_554
Ru26 Ti17 2.556754 1_555
Ru26 Ti4 2.807125 1_554
Ru26 Ti4 2.807125 1_555
Ru26 Ti3 2.825915 1_555
Ru26 Ti3 2.825915 1_554
Ru27 Ti17 2.556754 1_554
Ru27 Ti17 2.556754 1_555
Ru27 Ti5 2.807125 1_554
Ru27 Ti5 2.807125 1_555
Ru27 Ti3 2.825915 1_555
Ru27 Ti3 2.825915 1_554
Ru28 Ti16 2.588185 1_554
Ru28 Ti16 2.588185 1_555
Ru28 Ti13 2.794771 1_554
Ru28 Ti13 2.794771 1_555
Ru28 Ti4 2.858565 1_554
Ru28 Ti4 2.858565 1_555
Ru29 Ti10 2.556754 1_554
Ru29 Ti10 2.556754 1_555
Ru29 Ti9 2.807125 1_554
Ru29 Ti9 2.807125 1_555
Ru29 Ti7 2.825915 1_555
Ru29 Ti7 2.825915 1_554
Ru30 Ti16 2.588185 1_555
Ru30 Ti16 2.588185 1_554
Ru30 Ti15 2.794771 1_554
Ru30 Ti15 2.794771 1_555
Ru30 Ti9 2.858565 1_554
Ru30 Ti9 2.858565 1_555
Ru31 Ti16 2.588185 1_554
Ru31 Ti16 2.588185 1_555
Ru31 Ti9 2.794771 1_554
Ru31 Ti9 2.794771 1_555
Ru31 Ti13 2.858565 1_554
Ru31 Ti13 2.858565 1_555
Ru32 Ti6 2.671929 1_555
Ru32 Ti6 2.671929 1_554
Ru32 Ti4 2.790570 1_554
Ru32 Ti4 2.790570 1_555
Ru33 Ti12 2.556754 1_555
Ru33 Ti12 2.556754 1_554
Ru33 Ti15 2.807125 1_554
Ru33 Ti15 2.807125 1_555
Ru33 Ti2 2.825915 1_554
Ru33 Ti2 2.825915 1_555
Ru35 Ti17 2.589488 1_555
Ru35 Ti17 2.589488 1_554
Ru35 Ti5 2.924566 1_554
Ru35 Ti5 2.924566 1_555
