# generated using pymatgen
data_La5Ti4FeO17
_symmetry_space_group_name_H-M   'P 1'
_cell_length_a   3.97274900
_cell_length_b   5.55709900
_cell_length_c   31.47044900
_cell_angle_alpha   90.00000000
_cell_angle_beta   90.00000000
_cell_angle_gamma   90.00000000
_symmetry_Int_Tables_number   1
_chemical_formula_structural   La5Ti4FeO17
_chemical_formula_sum   'La10 Ti8 Fe2 O34'
_cell_volume   694.77182787
_cell_formula_units_Z   2
loop_
 _symmetry_equiv_pos_site_id
 _symmetry_equiv_pos_as_xyz
  1  'x, y, z'
loop_
 _atom_site_type_symbol
 _atom_site_label
 _atom_site_symmetry_multiplicity
 _atom_site_fract_x
 _atom_site_fract_y
 _atom_site_fract_z
 _atom_site_occupancy
  La  La0  1  0.50000000  0.51971600  0.90953700  1
  La  La1  1  0.00000000  0.54824000  0.28676500  1
  La  La2  1  0.00000000  0.45176000  0.71323500  1
  La  La3  1  0.50000000  0.48028400  0.09046300  1
  La  La4  1  0.50000000  0.04824000  0.21323500  1
  La  La5  1  0.00000000  0.50000000  0.50000000  1
  La  La6  1  0.50000000  0.95176000  0.78676500  1
  La  La7  1  0.50000000  0.00000000  0.00000000  1
  La  La8  1  0.00000000  0.01971600  0.59046300  1
  La  La9  1  0.00000000  0.98028400  0.40953700  1
  Ti  Ti0  1  0.50000000  0.01468500  0.32217900  1
  Ti  Ti1  1  0.50000000  0.49501000  0.40817900  1
  Ti  Ti2  1  0.50000000  0.50499000  0.59182100  1
  Ti  Ti3  1  0.50000000  0.98531500  0.67782100  1
  Ti  Ti4  1  0.00000000  0.99501000  0.09182100  1
  Ti  Ti5  1  0.00000000  0.00499000  0.90817900  1
  Ti  Ti6  1  0.00000000  0.48531500  0.82217900  1
  Ti  Ti7  1  0.00000000  0.51468500  0.17782100  1
  Fe  Fe0  1  0.00000000  0.50000000  0.00000000  1
  Fe  Fe1  1  0.50000000  0.00000000  0.50000000  1
  O  O0  1  0.50000000  0.20715700  0.55396400  1
  O  O1  1  0.00000000  0.00000000  0.50000000  1
  O  O2  1  0.50000000  0.00642700  0.91578400  1
  O  O3  1  0.00000000  0.21951600  0.78742600  1
  O  O4  1  0.00000000  0.29443000  0.22400800  1
  O  O5  1  0.00000000  0.70715700  0.94603600  1
  O  O6  1  0.00000000  0.01068000  0.67159900  1
  O  O7  1  0.00000000  0.80397300  0.03530300  1
  O  O8  1  0.00000000  0.78048400  0.21257400  1
  O  O9  1  0.50000000  0.29759500  0.63776800  1
  O  O10  1  0.00000000  0.49357300  0.41578400  1
  O  O11  1  0.50000000  0.69602700  0.53530300  1
  O  O12  1  0.50000000  0.50000000  0.00000000  1
  O  O13  1  0.00000000  0.20240500  0.13776800  1
  O  O14  1  0.50000000  0.30397300  0.46469700  1
  O  O15  1  0.00000000  0.29284300  0.05396400  1
  O  O16  1  0.50000000  0.81005400  0.62126800  1
  O  O17  1  0.50000000  0.70240500  0.36223200  1
  O  O18  1  0.00000000  0.79759500  0.86223200  1
  O  O19  1  0.00000000  0.19602700  0.96469700  1
  O  O20  1  0.50000000  0.48932000  0.17159900  1
  O  O21  1  0.50000000  0.28048400  0.28742600  1
  O  O22  1  0.50000000  0.18994600  0.37873200  1
  O  O23  1  0.50000000  0.99357300  0.08421600  1
  O  O24  1  0.00000000  0.68994600  0.12126800  1
  O  O25  1  0.00000000  0.70557000  0.77599200  1
  O  O26  1  0.00000000  0.50642700  0.58421600  1
  O  O27  1  0.50000000  0.79443000  0.27599200  1
  O  O28  1  0.50000000  0.71951600  0.71257400  1
  O  O29  1  0.50000000  0.51068000  0.82840100  1
  O  O30  1  0.00000000  0.31005400  0.87873200  1
  O  O31  1  0.50000000  0.20557000  0.72400800  1
  O  O32  1  0.00000000  0.98932000  0.32840100  1
  O  O33  1  0.50000000  0.79284300  0.44603600  1
loop_
_geom_bond_atom_site_label_1
_geom_bond_atom_site_label_2
_geom_bond_distance
_geom_bond_site_symmetry_2
La0 O30 2.498599 1_555
La0 O30 2.498599 1_655
La0 O5 2.519930 1_555
La0 O5 2.519930 1_655
La0 O29 2.553880 1_555
La0 O2 2.711837 1_565
La0 O12 2.849019 1_556
La0 O2 2.859165 1_555
La0 O18 2.923439 1_555
La0 O18 2.923439 1_655
La0 O19 3.192906 1_655
La0 O19 3.192906 1_555
La1 O4 2.426922 1_555
La1 O27 2.435637 1_455
La1 O27 2.435637 1_555
La1 O21 2.481955 1_455
La1 O21 2.481955 1_555
La1 O8 2.667782 1_555
La1 O32 2.779372 1_555
La2 O25 2.426922 1_555
La2 O31 2.435637 1_455
La2 O31 2.435637 1_555
La2 O28 2.481955 1_455
La2 O28 2.481955 1_555
La2 O3 2.667782 1_555
La2 O6 2.779372 1_555
La3 O24 2.498599 1_555
La3 O24 2.498599 1_655
La3 O15 2.519930 1_555
La3 O15 2.519930 1_655
La3 O20 2.553880 1_555
La3 O23 2.711837 1_545
La3 O12 2.849019 1_555
La3 O23 2.859165 1_555
La3 O13 2.923439 1_555
La3 O13 2.923439 1_655
La3 O7 3.192906 1_555
La3 O7 3.192906 1_655
La4 O27 2.426922 1_545
La4 O4 2.435637 1_655
La4 O4 2.435637 1_555
La4 O8 2.481955 1_545
La4 O8 2.481955 1_645
La4 O21 2.667782 1_555
La4 O20 2.779372 1_555
La5 O11 2.523227 1_555
La5 O11 2.523227 1_455
La5 O14 2.523227 1_555
La5 O14 2.523227 1_455
La5 O26 2.650556 1_555
La5 O10 2.650556 1_555
La5 O1 2.778550 1_555
La5 O1 2.778550 1_565
La5 O33 3.078653 1_555
La5 O33 3.078653 1_455
La5 O0 3.078653 1_555
La5 O0 3.078653 1_455
La6 O31 2.426922 1_565
La6 O25 2.435637 1_555
La6 O25 2.435637 1_655
La6 O3 2.481955 1_565
La6 O3 2.481955 1_665
La6 O28 2.667782 1_555
La6 O29 2.779372 1_555
La7 O7 2.523227 1_645
La7 O7 2.523227 1_545
La7 O19 2.523227 1_654
La7 O19 2.523227 1_554
La7 O23 2.650556 1_545
La7 O2 2.650556 1_554
La7 O12 2.778550 1_545
La7 O12 2.778550 1_555
La7 O15 3.078653 1_555
La7 O15 3.078653 1_655
La7 O5 3.078653 1_544
La7 O5 3.078653 1_644
La8 O16 2.498599 1_445
La8 O16 2.498599 1_545
La8 O0 2.519930 1_455
La8 O0 2.519930 1_555
La8 O6 2.553880 1_555
La8 O26 2.711837 1_555
La8 O1 2.849019 1_555
La8 O26 2.859165 1_545
La8 O9 2.923439 1_555
La8 O9 2.923439 1_455
La8 O11 3.192906 1_445
La8 O11 3.192906 1_545
La9 O22 2.498599 1_465
La9 O22 2.498599 1_565
La9 O33 2.519930 1_455
La9 O33 2.519930 1_555
La9 O32 2.553880 1_555
La9 O10 2.711837 1_555
La9 O1 2.849019 1_565
La9 O10 2.859165 1_565
La9 O17 2.923439 1_455
La9 O17 2.923439 1_555
La9 O14 3.192906 1_465
La9 O14 3.192906 1_565
Fe0 O12 1.986374 1_455
Fe0 O12 1.986374 1_555
Fe0 O7 2.021818 1_555
Fe0 O19 2.021818 1_554
Fe0 O5 2.051675 1_554
Fe0 O15 2.051675 1_555
Fe1 O1 1.986374 1_555
Fe1 O1 1.986374 1_655
Fe1 O11 2.021818 1_545
Fe1 O14 2.021818 1_555
Fe1 O0 2.051675 1_555
Fe1 O33 2.051675 1_545
O0 Ti2 2.039287 1_555
O2 Ti5 2.000757 1_655
O2 Ti5 2.000757 1_555
O3 Ti6 1.837907 1_555
O4 Ti7 1.900227 1_555
O5 Ti5 2.039287 1_565
O6 Ti3 2.000973 1_445
O6 Ti3 2.000973 1_545
O7 Ti4 2.071377 1_555
O8 Ti7 1.837907 1_555
O9 Ti2 1.849088 1_555
O9 Ti3 2.144840 1_545
O10 Ti1 2.000757 1_455
O10 Ti1 2.000757 1_555
O11 Ti2 2.071377 1_555
O13 Ti4 1.849088 1_545
O13 Ti7 2.144840 1_555
O14 Ti1 2.071377 1_555
O15 Ti4 2.039287 1_545
O16 Ti2 1.932029 1_555
O16 Ti3 2.028810 1_555
O17 Ti1 1.849088 1_555
O17 Ti0 2.144840 1_565
O18 Ti5 1.849088 1_565
O18 Ti6 2.144840 1_555
O19 Ti5 2.071377 1_555
O20 Ti7 2.000973 1_655
O20 Ti7 2.000973 1_555
O21 Ti0 1.837907 1_555
O22 Ti1 1.932029 1_555
O22 Ti0 2.028810 1_555
O23 Ti4 2.000757 1_555
O23 Ti4 2.000757 1_655
O24 Ti4 1.932029 1_555
O24 Ti7 2.028810 1_555
O25 Ti6 1.900227 1_555
O26 Ti2 2.000757 1_555
O26 Ti2 2.000757 1_455
O27 Ti0 1.900227 1_565
O28 Ti3 1.837907 1_555
O29 Ti6 2.000973 1_555
O29 Ti6 2.000973 1_655
O30 Ti5 1.932029 1_555
O30 Ti6 2.028810 1_555
O31 Ti3 1.900227 1_545
O32 Ti0 2.000973 1_465
O32 Ti0 2.000973 1_565
O33 Ti1 2.039287 1_555
