# generated using pymatgen
data_RbHF2
_symmetry_space_group_name_H-M   'P 1'
_cell_length_a   5.60161772
_cell_length_b   5.60161772
_cell_length_c   5.60161772
_cell_angle_alpha   116.33680371
_cell_angle_beta   115.27242579
_cell_angle_gamma   97.43667462
_symmetry_Int_Tables_number   1
_chemical_formula_structural   RbHF2
_chemical_formula_sum   'Rb2 H2 F4'
_cell_volume   130.96010008
_cell_formula_units_Z   2
loop_
 _symmetry_equiv_pos_site_id
 _symmetry_equiv_pos_as_xyz
  1  'x, y, z'
loop_
 _atom_site_type_symbol
 _atom_site_label
 _atom_site_symmetry_multiplicity
 _atom_site_fract_x
 _atom_site_fract_y
 _atom_site_fract_z
 _atom_site_occupancy
  Rb  Rb0  1  0.11843800  0.00000000  0.11843800  1
  Rb  Rb1  1  0.61843800  0.50000000  0.11843800  1
  H  H0  1  0.35985200  0.75378500  0.61363700  1
  H  H1  1  0.85985200  0.24621500  0.60606700  1
  F  F0  1  0.72892700  0.10223000  0.33115700  1
  F  F1  1  0.22892700  0.89777000  0.62669800  1
  F  F2  1  0.48778200  0.61042400  0.59820600  1
  F  F3  1  0.98778200  0.38957600  0.87735800  1
loop_
_geom_bond_atom_site_label_1
_geom_bond_atom_site_label_2
_geom_bond_distance
_geom_bond_site_symmetry_2
F0 H1 1.157719 1_555
F0 Rb0 2.906253 1_655
F0 Rb1 2.906253 1_545
F0 Rb0 2.975001 1_555
F0 Rb1 2.975001 1_555
F1 H0 1.157719 1_555
F1 Rb0 2.906247 1_566
F1 Rb1 2.906252 1_566
F1 Rb1 2.975001 1_455
F1 Rb0 2.975006 1_565
F2 H0 1.142879 1_555
F2 Rb0 2.909028 1_555
F2 Rb1 2.909028 1_555
F2 Rb0 3.050568 1_666
F2 Rb1 3.050568 1_556
F3 H1 1.142879 1_555
F3 Rb1 2.909028 1_556
F3 Rb0 2.909028 1_666
F3 Rb1 3.050568 1_656
F3 Rb0 3.050568 1_656
