# generated using pymatgen
data_Zr4In5Co2
_symmetry_space_group_name_H-M   'P 1'
_cell_length_a   6.58064682
_cell_length_b   15.03377601
_cell_length_c   18.07507716
_cell_angle_alpha   94.78123753
_cell_angle_beta   90.00000000
_cell_angle_gamma   90.00000000
_symmetry_Int_Tables_number   1
_chemical_formula_structural   Zr4In5Co2
_chemical_formula_sum   'Zr32 In40 Co16'
_cell_volume   1781.98042144
_cell_formula_units_Z   8
loop_
 _symmetry_equiv_pos_site_id
 _symmetry_equiv_pos_as_xyz
  1  'x, y, z'
loop_
 _atom_site_type_symbol
 _atom_site_label
 _atom_site_symmetry_multiplicity
 _atom_site_fract_x
 _atom_site_fract_y
 _atom_site_fract_z
 _atom_site_occupancy
  Zr  Zr0_0  1  0.25000000  0.10033240  0.22085864  1
  Zr  Zr0_1  1  0.25000000  0.10033240  0.72085864  1
  Zr  Zr0_2  1  0.25000000  0.60033240  0.22085864  1
  Zr  Zr0_3  1  0.25000000  0.60033240  0.72085864  1
  Zr  Zr0_4  1  0.75000000  0.10033240  0.22085864  1
  Zr  Zr0_5  1  0.75000000  0.10033240  0.72085864  1
  Zr  Zr0_6  1  0.75000000  0.60033240  0.22085864  1
  Zr  Zr0_7  1  0.75000000  0.60033240  0.72085864  1
  Zr  Zr1_0  1  0.25000000  0.40911372  0.07939585  1
  Zr  Zr1_1  1  0.25000000  0.40911372  0.57939585  1
  Zr  Zr1_2  1  0.25000000  0.90911372  0.07939585  1
  Zr  Zr1_3  1  0.25000000  0.90911372  0.57939585  1
  Zr  Zr1_4  1  0.75000000  0.40911372  0.07939585  1
  Zr  Zr1_5  1  0.75000000  0.40911372  0.57939585  1
  Zr  Zr1_6  1  0.75000000  0.90911372  0.07939585  1
  Zr  Zr1_7  1  0.75000000  0.90911372  0.57939585  1
  Zr  Zr2_0  1  0.25000000  0.39967915  0.27918849  1
  Zr  Zr2_1  1  0.25000000  0.39967915  0.77918849  1
  Zr  Zr2_2  1  0.25000000  0.89967915  0.27918849  1
  Zr  Zr2_3  1  0.25000000  0.89967915  0.77918849  1
  Zr  Zr2_4  1  0.75000000  0.39967915  0.27918849  1
  Zr  Zr2_5  1  0.75000000  0.39967915  0.77918849  1
  Zr  Zr2_6  1  0.75000000  0.89967915  0.27918849  1
  Zr  Zr2_7  1  0.75000000  0.89967915  0.77918849  1
  Zr  Zr3_0  1  0.25000000  0.09088654  0.42057121  1
  Zr  Zr3_1  1  0.25000000  0.09088654  0.92057121  1
  Zr  Zr3_2  1  0.25000000  0.59088654  0.42057121  1
  Zr  Zr3_3  1  0.25000000  0.59088654  0.92057121  1
  Zr  Zr3_4  1  0.75000000  0.09088654  0.42057121  1
  Zr  Zr3_5  1  0.75000000  0.09088654  0.92057121  1
  Zr  Zr3_6  1  0.75000000  0.59088654  0.42057121  1
  Zr  Zr3_7  1  0.75000000  0.59088654  0.92057121  1
  In  In0_0  1  0.00000000  0.22987398  0.33400325  1
  In  In0_1  1  0.00000000  0.22987398  0.83400326  1
  In  In0_2  1  0.00000000  0.72987398  0.33400325  1
  In  In0_3  1  0.00000000  0.72987398  0.83400325  1
  In  In0_4  1  0.50000000  0.22987398  0.33400325  1
  In  In0_5  1  0.50000000  0.22987398  0.83400326  1
  In  In0_6  1  0.50000000  0.72987398  0.33400325  1
  In  In0_7  1  0.50000000  0.72987398  0.83400325  1
  In  In1_0  1  0.00000000  0.42091405  0.42846359  1
  In  In1_1  1  0.00000000  0.42091405  0.92846359  1
  In  In1_2  1  0.00000000  0.92091405  0.42846359  1
  In  In1_3  1  0.00000000  0.92091405  0.92846359  1
  In  In1_4  1  0.50000000  0.42091405  0.42846359  1
  In  In1_5  1  0.50000000  0.42091405  0.92846359  1
  In  In1_6  1  0.50000000  0.92091405  0.42846359  1
  In  In1_7  1  0.50000000  0.92091405  0.92846359  1
  In  In2_0  1  0.00000000  0.24998046  0.99997894  1
  In  In2_1  1  0.00000000  0.24998046  0.49997894  1
  In  In2_2  1  0.00000000  0.74998046  0.99997894  1
  In  In2_3  1  0.00000000  0.74998046  0.49997894  1
  In  In2_4  1  0.50000000  0.24998046  0.99997894  1
  In  In2_5  1  0.50000000  0.24998046  0.49997894  1
  In  In2_6  1  0.50000000  0.74998046  0.99997894  1
  In  In2_7  1  0.50000000  0.74998046  0.49997894  1
  In  In3_0  1  0.00000000  0.07910166  0.07150051  1
  In  In3_1  1  0.00000000  0.07910166  0.57150050  1
  In  In3_2  1  0.00000000  0.57910166  0.07150050  1
  In  In3_3  1  0.00000000  0.57910166  0.57150051  1
  In  In3_4  1  0.50000000  0.07910166  0.07150051  1
  In  In3_5  1  0.50000000  0.07910166  0.57150050  1
  In  In3_6  1  0.50000000  0.57910166  0.07150050  1
  In  In3_7  1  0.50000000  0.57910166  0.57150051  1
  In  In4_0  1  0.00000000  0.27010584  0.16600919  1
  In  In4_1  1  0.00000000  0.27010584  0.66600918  1
  In  In4_2  1  0.00000000  0.77010584  0.16600919  1
  In  In4_3  1  0.00000000  0.77010584  0.66600918  1
  In  In4_4  1  0.50000000  0.27010584  0.16600919  1
  In  In4_5  1  0.50000000  0.27010584  0.66600918  1
  In  In4_6  1  0.50000000  0.77010584  0.16600919  1
  In  In4_7  1  0.50000000  0.77010584  0.66600918  1
  Co  Co0_0  1  0.00000000  0.46118513  0.18312311  1
  Co  Co0_1  1  0.00000000  0.46118513  0.68312311  1
  Co  Co0_2  1  0.00000000  0.96118513  0.18312311  1
  Co  Co0_3  1  0.00000000  0.96118513  0.68312311  1
  Co  Co0_4  1  0.50000000  0.46118513  0.18312311  1
  Co  Co0_5  1  0.50000000  0.46118513  0.68312311  1
  Co  Co0_6  1  0.50000000  0.96118513  0.18312311  1
  Co  Co0_7  1  0.50000000  0.96118513  0.68312311  1
  Co  Co1_0  1  0.00000000  0.03882755  0.31690772  1
  Co  Co1_1  1  0.00000000  0.03882755  0.81690772  1
  Co  Co1_2  1  0.00000000  0.53882755  0.31690772  1
  Co  Co1_3  1  0.00000000  0.53882755  0.81690772  1
  Co  Co1_4  1  0.50000000  0.03882755  0.31690772  1
  Co  Co1_5  1  0.50000000  0.03882755  0.81690772  1
  Co  Co1_6  1  0.50000000  0.53882755  0.31690772  1
  Co  Co1_7  1  0.50000000  0.53882755  0.81690772  1
loop_
_geom_bond_atom_site_label_1
_geom_bond_atom_site_label_2
_geom_bond_distance
_geom_bond_site_symmetry_2
In0_0 In2_1 2.990040 1_555
In0_0 In4_0 3.145212 1_555
In0_0 Zr0_0 3.165088 1_555
In0_0 Zr0_4 3.165088 1_455
In0_0 Zr3_4 3.172693 1_455
In0_0 Zr3_0 3.172693 1_555
In0_0 In1_0 3.216578 1_555
In0_0 Zr2_0 3.259861 1_555
In0_0 Zr2_4 3.259861 1_455
In0_0 In0_4 3.290323 1_555
In0_0 In0_4 3.290323 1_455
In0_1 In2_0 2.990040 1_555
In0_1 In4_1 3.145212 1_555
In0_1 Zr0_1 3.165088 1_555
In0_1 Zr0_5 3.165088 1_455
In0_1 Zr3_5 3.172693 1_455
In0_1 Zr3_1 3.172693 1_555
In0_1 In1_1 3.216578 1_555
In0_1 Zr2_5 3.259861 1_455
In0_1 Zr2_1 3.259861 1_555
In0_1 In0_5 3.290323 1_555
In0_1 In0_5 3.290323 1_455
In0_2 In2_3 2.990040 1_555
In0_2 In4_2 3.145212 1_555
In0_2 Zr0_6 3.165088 1_455
In0_2 Zr0_2 3.165088 1_555
In0_2 Zr3_6 3.172693 1_455
In0_2 Zr3_2 3.172693 1_555
In0_2 In1_2 3.216578 1_555
In0_2 Zr2_6 3.259861 1_455
In0_2 Zr2_2 3.259861 1_555
In0_2 In0_6 3.290323 1_455
In0_2 In0_6 3.290323 1_555
In0_3 In2_2 2.990040 1_555
In0_3 In4_3 3.145212 1_555
In0_3 Zr0_7 3.165088 1_455
In0_3 Zr0_3 3.165088 1_555
In0_3 Zr3_7 3.172693 1_455
In0_3 Zr3_3 3.172693 1_555
In0_3 In1_3 3.216578 1_555
In0_3 Zr2_3 3.259861 1_555
In0_3 Zr2_7 3.259861 1_455
In0_3 In0_7 3.290323 1_455
In0_3 In0_7 3.290323 1_555
In0_4 In2_5 2.990040 1_555
In0_4 In4_4 3.145212 1_555
In0_4 Zr0_0 3.165088 1_555
In0_4 Zr0_4 3.165088 1_555
In0_4 Zr3_0 3.172693 1_555
In0_4 Zr3_4 3.172693 1_555
In0_4 In1_4 3.216578 1_555
In0_4 Zr2_0 3.259861 1_555
In0_4 Zr2_4 3.259861 1_555
In0_5 In2_4 2.990040 1_555
In0_5 In4_5 3.145212 1_555
In0_5 Zr0_1 3.165088 1_555
In0_5 Zr0_5 3.165088 1_555
In0_5 Zr3_1 3.172693 1_555
In0_5 Zr3_5 3.172693 1_555
In0_5 In1_5 3.216578 1_555
In0_5 Zr2_1 3.259861 1_555
In0_5 Zr2_5 3.259861 1_555
In0_6 In2_7 2.990040 1_555
In0_6 In4_6 3.145212 1_555
In0_6 Zr0_2 3.165088 1_555
In0_6 Zr0_6 3.165088 1_555
In0_6 Zr3_2 3.172693 1_555
In0_6 Zr3_6 3.172693 1_555
In0_6 In1_6 3.216578 1_555
In0_6 Zr2_2 3.259861 1_555
In0_6 Zr2_6 3.259861 1_555
In0_7 In2_6 2.990040 1_555
In0_7 In4_7 3.145212 1_555
In0_7 Zr0_3 3.165088 1_555
In0_7 Zr0_7 3.165088 1_555
In0_7 Zr3_3 3.172693 1_555
In0_7 Zr3_7 3.172693 1_555
In0_7 In1_7 3.216578 1_555
In0_7 Zr2_3 3.259861 1_555
In0_7 Zr2_7 3.259861 1_555
In1_0 In2_1 2.971270 1_555
In1_0 Zr3_2 3.052438 1_555
In1_0 Zr3_6 3.052438 1_455
In1_0 Zr2_4 3.153560 1_455
In1_0 Zr2_0 3.153560 1_555
In1_0 Zr1_5 3.203327 1_455
In1_0 Zr1_1 3.203327 1_555
In1_0 In1_4 3.290323 1_455
In1_0 In1_4 3.290323 1_555
In1_0 In3_3 3.363773 1_555
In1_1 In2_0 2.971270 1_555
In1_1 Zr3_3 3.052438 1_555
In1_1 Zr3_7 3.052438 1_455
In1_1 Zr2_1 3.153560 1_555
In1_1 Zr2_5 3.153560 1_455
In1_1 Zr1_4 3.203327 1_456
In1_1 Zr1_0 3.203327 1_556
In1_1 In1_5 3.290323 1_455
In1_1 In1_5 3.290323 1_555
In1_1 In3_2 3.363773 1_556
In1_2 In2_3 2.971270 1_555
In1_2 Zr3_4 3.052438 1_465
In1_2 Zr3_0 3.052438 1_565
In1_2 Zr2_6 3.153560 1_455
In1_2 Zr2_2 3.153560 1_555
In1_2 Zr1_3 3.203327 1_555
In1_2 Zr1_7 3.203327 1_455
In1_2 In1_6 3.290323 1_555
In1_2 In1_6 3.290323 1_455
In1_2 In3_1 3.363773 1_565
In1_3 In2_2 2.971270 1_555
In1_3 Zr3_5 3.052438 1_465
In1_3 Zr3_1 3.052438 1_565
In1_3 Zr2_7 3.153560 1_455
In1_3 Zr2_3 3.153560 1_555
In1_3 Zr1_6 3.203327 1_456
In1_3 Zr1_2 3.203327 1_556
In1_3 In1_7 3.290323 1_555
In1_3 In1_7 3.290323 1_455
In1_3 In3_0 3.363773 1_566
In1_4 In2_5 2.971270 1_555
In1_4 Zr3_2 3.052438 1_555
In1_4 Zr3_6 3.052438 1_555
In1_4 Zr2_0 3.153560 1_555
In1_4 Zr2_4 3.153560 1_555
In1_4 Zr1_1 3.203327 1_555
In1_4 Zr1_5 3.203327 1_555
In1_4 In3_7 3.363773 1_555
In1_5 In2_4 2.971270 1_555
In1_5 Zr3_3 3.052438 1_555
In1_5 Zr3_7 3.052438 1_555
In1_5 Zr2_1 3.153560 1_555
In1_5 Zr2_5 3.153560 1_555
In1_5 Zr1_0 3.203327 1_556
In1_5 Zr1_4 3.203327 1_556
In1_5 In3_6 3.363773 1_556
In1_6 In2_7 2.971270 1_555
In1_6 Zr3_0 3.052438 1_565
In1_6 Zr3_4 3.052438 1_565
In1_6 Zr2_2 3.153560 1_555
In1_6 Zr2_6 3.153560 1_555
In1_6 Zr1_3 3.203327 1_555
In1_6 Zr1_7 3.203327 1_555
In1_6 In3_5 3.363773 1_565
In1_7 In2_6 2.971270 1_555
In1_7 Zr3_1 3.052438 1_565
In1_7 Zr3_5 3.052438 1_565
In1_7 Zr2_3 3.153560 1_555
In1_7 Zr2_7 3.153560 1_555
In1_7 Zr1_6 3.203327 1_556
In1_7 Zr1_2 3.203327 1_556
In1_7 In3_4 3.363773 1_566
In2_0 In3_0 2.970584 1_556
In2_0 In4_0 2.991026 1_556
In2_0 Zr3_5 3.148808 1_455
In2_0 Zr3_1 3.148808 1_555
In2_0 Zr1_0 3.149299 1_556
In2_0 Zr1_4 3.149299 1_456
In2_0 In2_4 3.290323 1_555
In2_0 In2_4 3.290323 1_455
In2_1 In3_1 2.970584 1_555
In2_1 In4_1 2.991026 1_555
In2_1 Zr3_4 3.148808 1_455
In2_1 Zr3_0 3.148808 1_555
In2_1 Zr1_1 3.149299 1_555
In2_1 Zr1_5 3.149299 1_455
In2_1 In2_5 3.290323 1_555
In2_1 In2_5 3.290323 1_455
In2_2 In3_2 2.970584 1_556
In2_2 In4_2 2.991026 1_556
In2_2 Zr3_7 3.148808 1_455
In2_2 Zr3_3 3.148808 1_555
In2_2 Zr1_6 3.149299 1_456
In2_2 Zr1_2 3.149299 1_556
In2_2 In2_6 3.290323 1_555
In2_2 In2_6 3.290323 1_455
In2_3 In3_3 2.970584 1_555
In2_3 In4_3 2.991026 1_555
In2_3 Zr3_6 3.148808 1_455
In2_3 Zr3_2 3.148808 1_555
In2_3 Zr1_3 3.149299 1_555
In2_3 Zr1_7 3.149299 1_455
In2_3 In2_7 3.290323 1_555
In2_3 In2_7 3.290323 1_455
In2_4 In3_4 2.970584 1_556
In2_4 In4_4 2.991026 1_556
In2_4 Zr3_5 3.148808 1_555
In2_4 Zr3_1 3.148808 1_555
In2_4 Zr1_0 3.149299 1_556
In2_4 Zr1_4 3.149299 1_556
In2_5 In3_5 2.970584 1_555
In2_5 In4_5 2.991026 1_555
In2_5 Zr3_0 3.148808 1_555
In2_5 Zr3_4 3.148808 1_555
In2_5 Zr1_1 3.149299 1_555
In2_5 Zr1_5 3.149299 1_555
In2_6 In3_6 2.970584 1_556
In2_6 In4_6 2.991026 1_556
In2_6 Zr3_3 3.148808 1_555
In2_6 Zr3_7 3.148808 1_555
In2_6 Zr1_2 3.149299 1_556
In2_6 Zr1_6 3.149299 1_556
In2_7 In3_7 2.970584 1_555
In2_7 In4_7 2.991026 1_555
In2_7 Zr3_2 3.148808 1_555
In2_7 Zr3_6 3.148808 1_555
In2_7 Zr1_3 3.149299 1_555
In2_7 Zr1_7 3.149299 1_555
In3_0 Zr1_6 3.052640 1_445
In3_0 Zr1_2 3.052640 1_545
In3_0 Zr0_4 3.154830 1_455
In3_0 Zr0_0 3.154830 1_555
In3_0 Zr3_5 3.203252 1_454
In3_0 Zr3_1 3.203252 1_554
In3_0 In4_0 3.216519 1_555
In3_0 In3_4 3.290323 1_455
In3_0 In3_4 3.290323 1_555
In3_1 Zr1_7 3.052640 1_445
In3_1 Zr1_3 3.052640 1_545
In3_1 Zr0_5 3.154830 1_455
In3_1 Zr0_1 3.154830 1_555
In3_1 Zr3_4 3.203252 1_455
In3_1 Zr3_0 3.203252 1_555
In3_1 In4_1 3.216519 1_555
In3_1 In3_5 3.290323 1_455
In3_1 In3_5 3.290323 1_555
In3_2 Zr1_4 3.052640 1_455
In3_2 Zr1_0 3.052640 1_555
In3_2 Zr0_6 3.154830 1_455
In3_2 Zr0_2 3.154830 1_555
In3_2 Zr3_7 3.203252 1_454
In3_2 Zr3_3 3.203252 1_554
In3_2 In4_2 3.216519 1_555
In3_2 In3_6 3.290323 1_455
In3_2 In3_6 3.290323 1_555
In3_3 Zr1_1 3.052640 1_555
In3_3 Zr1_5 3.052640 1_455
In3_3 Zr0_3 3.154830 1_555
In3_3 Zr0_7 3.154830 1_455
In3_3 Zr3_6 3.203252 1_455
In3_3 Zr3_2 3.203252 1_555
In3_3 In4_3 3.216519 1_555
In3_3 In3_7 3.290323 1_455
In3_3 In3_7 3.290323 1_555
In3_4 Zr1_2 3.052640 1_545
In3_4 Zr1_6 3.052640 1_545
In3_4 Zr0_0 3.154830 1_555
In3_4 Zr0_4 3.154830 1_555
In3_4 Zr3_1 3.203252 1_554
In3_4 Zr3_5 3.203252 1_554
In3_4 In4_4 3.216519 1_555
In3_5 Zr1_3 3.052640 1_545
In3_5 Zr1_7 3.052640 1_545
In3_5 Zr0_5 3.154830 1_555
In3_5 Zr0_1 3.154830 1_555
In3_5 Zr3_0 3.203252 1_555
In3_5 Zr3_4 3.203252 1_555
In3_5 In4_5 3.216519 1_555
In3_6 Zr1_0 3.052640 1_555
In3_6 Zr1_4 3.052640 1_555
In3_6 Zr0_2 3.154830 1_555
In3_6 Zr0_6 3.154830 1_555
In3_6 Zr3_3 3.203252 1_554
In3_6 Zr3_7 3.203252 1_554
In3_6 In4_6 3.216519 1_555
In3_7 Zr1_1 3.052640 1_555
In3_7 Zr1_5 3.052640 1_555
In3_7 Zr0_3 3.154830 1_555
In3_7 Zr0_7 3.154830 1_555
In3_7 Zr3_2 3.203252 1_555
In3_7 Zr3_6 3.203252 1_555
In3_7 In4_7 3.216519 1_555
In4_0 Zr2_0 3.165729 1_555
In4_0 Zr2_4 3.165729 1_455
In4_0 Zr1_4 3.173358 1_455
In4_0 Zr1_0 3.173358 1_555
In4_0 Zr0_4 3.259707 1_455
In4_0 Zr0_0 3.259707 1_555
In4_0 In4_4 3.290323 1_555
In4_0 In4_4 3.290323 1_455
In4_1 Zr2_1 3.165729 1_555
In4_1 Zr2_5 3.165729 1_455
In4_1 Zr1_1 3.173358 1_555
In4_1 Zr1_5 3.173358 1_455
In4_1 Zr0_5 3.259707 1_455
In4_1 Zr0_1 3.259707 1_555
In4_1 In4_5 3.290323 1_555
In4_1 In4_5 3.290323 1_455
In4_2 Zr2_6 3.165729 1_455
In4_2 Zr2_2 3.165729 1_555
In4_2 Zr1_2 3.173358 1_555
In4_2 Zr1_6 3.173358 1_455
In4_2 Zr0_6 3.259707 1_455
In4_2 Zr0_2 3.259707 1_555
In4_2 In4_6 3.290323 1_455
In4_2 In4_6 3.290323 1_555
In4_3 Zr2_3 3.165729 1_555
In4_3 Zr2_7 3.165729 1_455
In4_3 Zr1_7 3.173358 1_455
In4_3 Zr1_3 3.173358 1_555
In4_3 Zr0_7 3.259707 1_455
In4_3 Zr0_3 3.259707 1_555
In4_3 In4_7 3.290323 1_555
In4_3 In4_7 3.290323 1_455
In4_4 Zr2_0 3.165729 1_555
In4_4 Zr2_4 3.165729 1_555
In4_4 Zr1_0 3.173358 1_555
In4_4 Zr1_4 3.173358 1_555
In4_4 Zr0_0 3.259707 1_555
In4_4 Zr0_4 3.259707 1_555
In4_5 Zr2_1 3.165729 1_555
In4_5 Zr2_5 3.165729 1_555
In4_5 Zr1_1 3.173358 1_555
In4_5 Zr1_5 3.173358 1_555
In4_5 Zr0_1 3.259707 1_555
In4_5 Zr0_5 3.259707 1_555
In4_6 Zr2_2 3.165729 1_555
In4_6 Zr2_6 3.165729 1_555
In4_6 Zr1_2 3.173358 1_555
In4_6 Zr1_6 3.173358 1_555
In4_6 Zr0_2 3.259707 1_555
In4_6 Zr0_6 3.259707 1_555
In4_7 Zr2_3 3.165729 1_555
In4_7 Zr2_7 3.165729 1_555
In4_7 Zr1_3 3.173358 1_555
In4_7 Zr1_7 3.173358 1_555
In4_7 Zr0_3 3.259707 1_555
In4_7 Zr0_7 3.259707 1_555
Co0_0 Zr1_4 2.567075 1_455
Co0_0 Zr1_0 2.567075 1_555
Co0_0 Co1_2 2.596052 1_555
Co0_0 Zr2_4 2.616155 1_455
Co0_0 Zr2_0 2.616155 1_555
Co0_0 Zr0_6 2.703702 1_455
Co0_0 Zr0_2 2.703702 1_555
Co0_0 In3_2 2.794543 1_555
Co0_0 In4_0 2.863500 1_555
Co0_1 Zr1_5 2.567075 1_455
Co0_1 Zr1_1 2.567075 1_555
Co0_1 Co1_3 2.596052 1_555
Co0_1 Zr2_1 2.616155 1_555
Co0_1 Zr2_5 2.616155 1_455
Co0_1 Zr0_7 2.703702 1_455
Co0_1 Zr0_3 2.703702 1_555
Co0_1 In3_3 2.794543 1_555
Co0_1 In4_1 2.863500 1_555
Co0_2 Zr1_6 2.567075 1_455
Co0_2 Zr1_2 2.567075 1_555
Co0_2 Co1_0 2.596052 1_565
Co0_2 Zr2_6 2.616155 1_455
Co0_2 Zr2_2 2.616155 1_555
Co0_2 Zr0_0 2.703702 1_565
Co0_2 Zr0_4 2.703702 1_465
Co0_2 In3_0 2.794543 1_565
Co0_2 In4_2 2.863500 1_555
Co0_3 Zr1_7 2.567075 1_455
Co0_3 Zr1_3 2.567075 1_555
Co0_3 Co1_1 2.596052 1_565
Co0_3 Zr2_7 2.616155 1_455
Co0_3 Zr2_3 2.616155 1_555
Co0_3 Zr0_5 2.703702 1_465
Co0_3 Zr0_1 2.703702 1_565
Co0_3 In3_1 2.794543 1_565
Co0_3 In4_3 2.863500 1_555
Co0_4 Zr1_0 2.567075 1_555
Co0_4 Zr1_4 2.567075 1_555
Co0_4 Co1_6 2.596052 1_555
Co0_4 Zr2_0 2.616155 1_555
Co0_4 Zr2_4 2.616155 1_555
Co0_4 Zr0_2 2.703702 1_555
Co0_4 Zr0_6 2.703702 1_555
Co0_4 In3_6 2.794543 1_555
Co0_4 In4_4 2.863500 1_555
Co0_5 Zr1_1 2.567075 1_555
Co0_5 Zr1_5 2.567075 1_555
Co0_5 Co1_7 2.596052 1_555
Co0_5 Zr2_1 2.616155 1_555
Co0_5 Zr2_5 2.616155 1_555
Co0_5 Zr0_3 2.703702 1_555
Co0_5 Zr0_7 2.703702 1_555
Co0_5 In3_7 2.794543 1_555
Co0_5 In4_5 2.863500 1_555
Co0_6 Zr1_2 2.567075 1_555
Co0_6 Zr1_6 2.567075 1_555
Co0_6 Co1_4 2.596052 1_565
Co0_6 Zr2_2 2.616155 1_555
Co0_6 Zr2_6 2.616155 1_555
Co0_6 Zr0_0 2.703702 1_565
Co0_6 Zr0_4 2.703702 1_565
Co0_6 In3_4 2.794543 1_565
Co0_6 In4_6 2.863500 1_555
Co0_7 Zr1_3 2.567075 1_555
Co0_7 Zr1_7 2.567075 1_555
Co0_7 Co1_5 2.596052 1_565
Co0_7 Zr2_3 2.616155 1_555
Co0_7 Zr2_7 2.616155 1_555
Co0_7 Zr0_1 2.703702 1_565
Co0_7 Zr0_5 2.703702 1_565
Co0_7 In3_5 2.794543 1_565
Co0_7 In4_7 2.863500 1_555
Co1_0 Zr3_0 2.566217 1_555
Co1_0 Zr3_4 2.566217 1_455
Co1_0 Zr0_4 2.615944 1_455
Co1_0 Zr0_0 2.615944 1_555
Co1_0 Zr2_6 2.703660 1_445
Co1_0 Zr2_2 2.703660 1_545
Co1_0 In1_2 2.793577 1_545
Co1_0 In0_0 2.863001 1_555
Co1_1 Zr3_5 2.566217 1_455
Co1_1 Zr3_1 2.566217 1_555
Co1_1 Zr0_5 2.615944 1_455
Co1_1 Zr0_1 2.615944 1_555
Co1_1 Zr2_7 2.703660 1_445
Co1_1 Zr2_3 2.703660 1_545
Co1_1 In1_3 2.793577 1_545
Co1_1 In0_1 2.863001 1_555
Co1_2 Zr3_6 2.566217 1_455
Co1_2 Zr3_2 2.566217 1_555
Co1_2 Zr0_6 2.615944 1_455
Co1_2 Zr0_2 2.615944 1_555
Co1_2 Zr2_4 2.703660 1_455
Co1_2 Zr2_0 2.703660 1_555
Co1_2 In1_0 2.793577 1_555
Co1_2 In0_2 2.863001 1_555
Co1_3 Zr3_7 2.566217 1_455
Co1_3 Zr3_3 2.566217 1_555
Co1_3 Zr0_3 2.615944 1_555
Co1_3 Zr0_7 2.615944 1_455
Co1_3 Zr2_5 2.703660 1_455
Co1_3 Zr2_1 2.703660 1_555
Co1_3 In1_1 2.793577 1_555
Co1_3 In0_3 2.863001 1_555
Co1_4 Zr3_0 2.566217 1_555
Co1_4 Zr3_4 2.566217 1_555
Co1_4 Zr0_0 2.615944 1_555
Co1_4 Zr0_4 2.615944 1_555
Co1_4 Zr2_2 2.703660 1_545
Co1_4 Zr2_6 2.703660 1_545
Co1_4 In1_6 2.793577 1_545
Co1_4 In0_4 2.863001 1_555
Co1_5 Zr3_1 2.566217 1_555
Co1_5 Zr3_5 2.566217 1_555
Co1_5 Zr0_1 2.615944 1_555
Co1_5 Zr0_5 2.615944 1_555
Co1_5 Zr2_3 2.703660 1_545
Co1_5 Zr2_7 2.703660 1_545
Co1_5 In1_7 2.793577 1_545
Co1_5 In0_5 2.863001 1_555
Co1_6 Zr3_2 2.566217 1_555
Co1_6 Zr3_6 2.566217 1_555
Co1_6 Zr0_2 2.615944 1_555
Co1_6 Zr0_6 2.615944 1_555
Co1_6 Zr2_0 2.703660 1_555
Co1_6 Zr2_4 2.703660 1_555
Co1_6 In1_4 2.793577 1_555
Co1_6 In0_6 2.863001 1_555
Co1_7 Zr3_3 2.566217 1_555
Co1_7 Zr3_7 2.566217 1_555
Co1_7 Zr0_3 2.615944 1_555
Co1_7 Zr0_7 2.615944 1_555
Co1_7 Zr2_1 2.703660 1_555
Co1_7 Zr2_5 2.703660 1_555
Co1_7 In1_5 2.793577 1_555
Co1_7 In0_7 2.863001 1_555
