# generated using pymatgen
data_Yb(BiTe2)2
_symmetry_space_group_name_H-M   'P 1'
_cell_length_a   8.61326055
_cell_length_b   8.61326055
_cell_length_c   8.61326055
_cell_angle_alpha   109.36459427
_cell_angle_beta   109.36459427
_cell_angle_gamma   109.68468448
_symmetry_Int_Tables_number   1
_chemical_formula_structural   Yb(BiTe2)2
_chemical_formula_sum   'Yb2 Bi4 Te8'
_cell_volume   491.89945321
_cell_formula_units_Z   2
loop_
 _symmetry_equiv_pos_site_id
 _symmetry_equiv_pos_as_xyz
  1  'x, y, z'
loop_
 _atom_site_type_symbol
 _atom_site_label
 _atom_site_symmetry_multiplicity
 _atom_site_fract_x
 _atom_site_fract_y
 _atom_site_fract_z
 _atom_site_occupancy
  Yb  Yb0  1  0.00000000  0.00000000  0.00000000  1
  Yb  Yb1  1  0.25000000  0.75000000  0.50000000  1
  Bi  Bi0  1  0.12500000  0.39056700  0.76556700  1
  Bi  Bi1  1  0.60943300  0.37500000  0.73443300  1
  Bi  Bi2  1  0.62500000  0.35943300  0.23443300  1
  Bi  Bi3  1  0.64056700  0.87500000  0.26556700  1
  Te  Te0  1  0.91448500  0.62830900  0.66821700  1
  Te  Te1  1  0.33551500  0.50373200  0.21382300  1
  Te  Te2  1  0.96009100  0.24626800  0.33178300  1
  Te  Te3  1  0.28990900  0.12169100  0.78617700  1
  Te  Te4  1  0.37169100  0.03990900  0.28617700  1
  Te  Te5  1  0.49626800  0.71009100  0.83178300  1
  Te  Te6  1  0.87830900  0.66448500  0.16821700  1
  Te  Te7  1  0.75373200  0.08551500  0.71382300  1
loop_
_geom_bond_atom_site_label_1
_geom_bond_atom_site_label_2
_geom_bond_distance
_geom_bond_site_symmetry_2
Bi0 Te2 3.119924 1_455
Bi0 Te3 3.119931 1_555
Bi0 Te5 3.153765 1_555
Bi0 Te7 3.153765 1_455
Bi0 Te1 3.288741 1_556
Bi0 Te0 3.288748 1_455
Bi1 Te7 3.119924 1_555
Bi1 Te6 3.119924 1_556
Bi1 Te3 3.153768 1_555
Bi1 Te0 3.153769 1_555
Bi1 Te4 3.288740 1_555
Bi1 Te5 3.288741 1_555
Bi2 Te1 3.119924 1_555
Bi2 Te0 3.119924 1_555
Bi2 Te4 3.153768 1_555
Bi2 Te6 3.153769 1_555
Bi2 Te3 3.288740 1_554
Bi2 Te2 3.288741 1_555
Bi3 Te5 3.119924 1_554
Bi3 Te4 3.119931 1_565
Bi3 Te2 3.153765 1_565
Bi3 Te1 3.153765 1_555
Bi3 Te7 3.288741 1_565
Bi3 Te6 3.288748 1_555
Te0 Yb0 3.147524 1_666
Te0 Yb1 3.645894 1_655
Te1 Yb1 3.147530 1_555
Te1 Yb0 3.645895 1_555
Te2 Yb0 3.147530 1_655
Te2 Yb1 3.645895 1_655
Te3 Yb1 3.147523 1_545
Te3 Yb0 3.645893 1_556
Te4 Yb0 3.147523 1_555
Te4 Yb1 3.645893 1_545
Te5 Yb1 3.147530 1_555
Te5 Yb0 3.645895 1_666
Te6 Yb1 3.147524 1_655
Te6 Yb0 3.645894 1_665
Te7 Yb0 3.147530 1_656
Te7 Yb1 3.645895 1_545
