# generated using pymatgen
data_RbAg4I5
_symmetry_space_group_name_H-M   'P 1'
_cell_length_a   11.78668500
_cell_length_b   12.04973132
_cell_length_c   12.24502387
_cell_angle_alpha   90.16674818
_cell_angle_beta   93.40105953
_cell_angle_gamma   93.36005620
_symmetry_Int_Tables_number   1
_chemical_formula_structural   RbAg4I5
_chemical_formula_sum   'Rb4 Ag16 I20'
_cell_volume   1733.03345624
_cell_formula_units_Z   4
loop_
 _symmetry_equiv_pos_site_id
 _symmetry_equiv_pos_as_xyz
  1  'x, y, z'
loop_
 _atom_site_type_symbol
 _atom_site_label
 _atom_site_symmetry_multiplicity
 _atom_site_fract_x
 _atom_site_fract_y
 _atom_site_fract_z
 _atom_site_occupancy
  Rb  Rb0  1  0.17241000  0.11418500  0.89327800  1
  Rb  Rb1  1  0.42136400  0.52008500  0.26673200  1
  Rb  Rb2  1  0.51545400  0.86681100  0.63749900  1
  Rb  Rb3  1  0.90257200  0.33616100  0.39281800  1
  Ag  Ag0  1  0.43117000  0.23272500  0.08920500  1
  Ag  Ag1  1  0.40300400  0.32189800  0.69691100  1
  Ag  Ag2  1  0.79793800  0.90536000  0.41773400  1
  Ag  Ag3  1  0.71342300  0.78444300  0.95999900  1
  Ag  Ag4  1  0.73235200  0.56878900  0.80087800  1
  Ag  Ag5  1  0.67865000  0.07723300  0.25920000  1
  Ag  Ag6  1  0.84902500  0.17332800  0.67626600  1
  Ag  Ag7  1  0.86927100  0.58158500  0.18580200  1
  Ag  Ag8  1  0.89147600  0.43121800  0.70101300  1
  Ag  Ag9  1  0.82339500  0.00869900  0.99644900  1
  Ag  Ag10  1  0.01722100  0.73734600  0.04429100  1
  Ag  Ag11  1  0.77576600  0.26347500  0.00378700  1
  Ag  Ag12  1  0.04149900  0.75283900  0.40570100  1
  Ag  Ag13  1  0.06448600  0.61783100  0.77738700  1
  Ag  Ag14  1  0.17919900  0.02421400  0.23554000  1
  Ag  Ag15  1  0.97121200  0.80989900  0.62432400  1
  I  I0  1  0.03072500  0.97680800  0.43171300  1
  I  I1  1  0.06153600  0.29288300  0.65499500  1
  I  I2  1  0.08509800  0.56532000  0.29859000  1
  I  I3  1  0.21475900  0.86506300  0.07859500  1
  I  I4  1  0.19900900  0.74177400  0.65279500  1
  I  I5  1  0.33216800  0.20122500  0.28738900  1
  I  I6  1  0.35574900  0.37206600  0.92916500  1
  I  I7  1  0.34869100  0.09608500  0.66982000  1
  I  I8  1  0.59495300  0.78474100  0.37512100  1
  I  I9  1  0.45221800  0.49365600  0.55883100  1
  I  I10  1  0.58902400  0.05952100  0.05021700  1
  I  I11  1  0.53903400  0.66747700  0.85933300  1
  I  I12  1  0.69678500  0.41546800  0.16773700  1
  I  I13  1  0.69580000  0.12391400  0.47725300  1
  I  I14  1  0.69184700  0.30783400  0.78939900  1
  I  I15  1  0.83077400  0.81659900  0.15708700  1
  I  I16  1  0.81712800  0.61868500  0.58172200  1
  I  I17  1  0.86198400  0.95418800  0.77488100  1
  I  I18  1  0.96538700  0.16976400  0.11792300  1
  I  I19  1  0.94744300  0.53180500  0.94362000  1
loop_
_geom_bond_atom_site_label_1
_geom_bond_atom_site_label_2
_geom_bond_distance
_geom_bond_site_symmetry_2
Ag0 I6 2.727120 1_554
Ag0 I5 2.772071 1_555
Ag0 I10 2.932620 1_555
Ag0 Rb0 3.962237 1_554
Ag0 Rb1 4.094075 1_555
Ag1 I9 2.733985 1_555
Ag1 I7 2.772903 1_555
Ag1 I6 2.996857 1_555
Ag1 I14 3.537403 1_555
Ag2 I8 2.747493 1_555
Ag2 I0 2.822301 1_655
Ag2 I13 3.062751 1_565
Ag2 I15 3.414005 1_555
Ag3 I11 2.660922 1_555
Ag3 I15 2.724561 1_556
Ag4 I11 2.761260 1_555
Ag4 Ag8 2.895816 1_555
Ag4 I16 2.969615 1_555
Ag4 I19 3.048307 1_555
Ag4 I14 3.154151 1_555
Ag5 I10 2.712868 1_555
Ag5 I13 2.720366 1_555
Ag5 Rb3 4.227296 1_555
Ag6 I1 2.841447 1_655
Ag6 I17 2.915150 1_545
Ag6 I14 2.936245 1_555
Ag6 I13 2.982969 1_555
Ag6 Ag8 3.129383 1_555
Ag6 Rb3 4.055760 1_555
Ag7 I12 2.766926 1_555
Ag7 I2 2.839074 1_655
Ag7 I15 2.913146 1_555
Ag7 I19 3.222068 1_554
Ag7 Rb3 3.922638 1_555
Ag8 I1 2.762983 1_655
Ag8 I16 2.846710 1_555
Ag8 I14 2.969789 1_555
Ag8 I19 3.222149 1_555
Ag8 Rb3 3.952470 1_555
Ag9 I18 2.843808 1_556
Ag9 I17 2.858378 1_545
Ag9 I10 2.975134 1_556
Ag9 I15 3.043781 1_546
Ag10 I3 2.725081 1_555
Ag10 I19 2.820158 1_454
Ag10 I15 2.871853 1_455
Ag11 I14 2.813846 1_554
Ag11 I18 2.856221 1_555
Ag11 I12 2.941337 1_555
Ag11 I10 3.275701 1_555
Ag12 I2 2.699765 1_555
Ag12 I0 2.727799 1_555
Ag12 I4 3.461794 1_555
Ag13 I4 2.663605 1_555
Ag13 I19 2.701644 1_455
Ag13 Ag8 3.051776 1_455
Ag14 I5 2.758406 1_555
Ag14 I3 2.777587 1_545
Ag14 I0 3.090103 1_545
Ag14 I18 3.406381 1_455
Ag15 I4 2.855422 1_655
Ag15 I16 2.875647 1_555
Ag15 I17 2.933340 1_555
Ag15 I0 3.187191 1_655
I1 Rb3 3.674176 1_455
I1 Rb0 3.843412 1_555
I2 Rb3 3.633351 1_455
I2 Rb1 4.073544 1_555
I3 Rb0 3.806638 1_564
I4 Rb2 3.955072 1_555
I5 Rb1 3.936407 1_555
I6 Rb0 3.689311 1_555
I7 Rb2 3.517824 1_545
I7 Rb0 3.546259 1_555
I8 Rb2 3.553246 1_555
I8 Rb1 3.873764 1_555
I9 Rb1 3.590648 1_555
I11 Rb2 3.640295 1_555
I12 Rb3 3.726468 1_555
I12 Rb1 3.812444 1_555
I13 Rb3 3.623992 1_555
I13 Rb2 4.210093 1_545
I16 Rb3 4.311244 1_555
I17 Rb0 4.211139 1_665
I18 Rb0 3.866099 1_654
I18 Rb3 4.040962 1_555
