# generated using pymatgen
data_Ta21Te13
_symmetry_space_group_name_H-M   'P 1'
_cell_length_a   19.57124417
_cell_length_b   19.57112545
_cell_length_c   10.70023405
_cell_angle_alpha   89.97603711
_cell_angle_beta   89.99454508
_cell_angle_gamma   120.00106285
_symmetry_Int_Tables_number   1
_chemical_formula_structural   Ta21Te13
_chemical_formula_sum   'Ta84 Te52'
_cell_volume   3549.38760737
_cell_formula_units_Z   4
loop_
 _symmetry_equiv_pos_site_id
 _symmetry_equiv_pos_as_xyz
  1  'x, y, z'
loop_
 _atom_site_type_symbol
 _atom_site_label
 _atom_site_symmetry_multiplicity
 _atom_site_fract_x
 _atom_site_fract_y
 _atom_site_fract_z
 _atom_site_occupancy
  Ta  Ta0  1  0.28723391  0.42824264  0.67738944  1
  Ta  Ta1  1  0.71454958  0.28532227  0.71809647  1
  Ta  Ta2  1  0.50000813  0.00004942  0.39682475  1
  Ta  Ta3  1  0.71267506  0.57166204  0.67726203  1
  Ta  Ta4  1  0.42523071  0.57449943  0.55256506  1
  Ta  Ta5  1  0.73159414  0.73164800  0.59945466  1
  Ta  Ta6  1  0.85218104  0.85220924  0.80198251  1
  Ta  Ta7  1  0.66662527  0.33329594  0.49150160  1
  Ta  Ta8  1  0.14563490  0.85446435  0.75951467  1
  Ta  Ta9  1  0.29112801  0.14560559  0.75949828  1
  Ta  Ta10  1  0.28730176  0.85898109  0.67732344  1
  Ta  Ta11  1  0.33027041  0.91716180  0.42142400  1
  Ta  Ta12  1  0.85441975  0.70882736  0.75950425  1
  Ta  Ta13  1  0.58687985  0.91716142  0.42144155  1
  Ta  Ta14  1  0.42823341  0.14098974  0.67733795  1
  Ta  Ta15  1  0.50053909  0.25029644  0.46691214  1
  Ta  Ta16  1  0.25035120  0.74969372  0.46690550  1
  Ta  Ta17  1  0.16354114  0.83656423  0.49373911  1
  Ta  Ta18  1  0.33018434  0.41312223  0.42147525  1
  Ta  Ta19  1  0.58681376  0.66976613  0.42147400  1
  Ta  Ta20  1  0.14101200  0.42824384  0.67736270  1
  Ta  Ta21  1  0.85071890  0.42525538  0.55259013  1
  Ta  Ta22  1  0.32689141  0.16349160  0.49368163  1
  Ta  Ta23  1  0.00010842  0.49997574  0.39682323  1
  Ta  Ta24  1  0.57462388  0.14930667  0.55262435  1
  Ta  Ta25  1  0.42793361  0.00002536  0.63741244  1
  Ta  Ta26  1  0.08297053  0.41313783  0.42142032  1
  Ta  Ta27  1  0.83660334  0.16350114  0.49366629  1
  Ta  Ta28  1  0.49934031  0.74967960  0.46698190  1
  Ta  Ta29  1  0.14784967  0.00006317  0.80194173  1
  Ta  Ta30  1  0.73166300  0.00007977  0.59952813  1
  Ta  Ta31  1  0.28536745  0.57072360  0.71806768  1
  Ta  Ta32  1  0.28537114  0.71451746  0.71806620  1
  Ta  Ta33  1  0.00005611  0.85222557  0.80199302  1
  Ta  Ta34  1  0.85448577  0.14560704  0.75950842  1
  Ta  Ta35  1  0.08309354  0.16617593  0.56854309  1
  Ta  Ta36  1  0.91699283  0.08311936  0.56860959  1
  Ta  Ta37  1  0.08298911  0.66979601  0.42139463  1
  Ta  Ta38  1  0.71273364  0.14099316  0.67735776  1
  Ta  Ta39  1  0.41312907  0.08293846  0.42145613  1
  Ta  Ta40  1  0.14559107  0.29114290  0.75951082  1
  Ta  Ta41  1  0.74967679  0.49936298  0.46701655  1
  Ta  Ta42  1  0.00009639  0.00014407  0.67733593  1
  Ta  Ta43  1  0.70880596  0.85443317  0.75950639  1
  Ta  Ta44  1  0.57206127  0.00002515  0.63740009  1
  Ta  Ta45  1  0.00008169  0.26837244  0.59962875  1
  Ta  Ta46  1  0.41306114  0.33023937  0.42151300  1
  Ta  Ta47  1  0.57196652  0.57200901  0.63736069  1
  Ta  Ta48  1  0.08311307  0.91699198  0.56871977  1
  Ta  Ta49  1  0.14926831  0.57452341  0.55257989  1
  Ta  Ta50  1  0.00006335  0.42790626  0.63744176  1
  Ta  Ta51  1  0.42820559  0.28724272  0.67737868  1
  Ta  Ta52  1  0.26824969  0.26830896  0.59966847  1
  Ta  Ta53  1  0.42535512  0.85075820  0.55256267  1
  Ta  Ta54  1  0.16347766  0.32691902  0.49366644  1
  Ta  Ta55  1  0.85222656  0.00006889  0.80195014  1
  Ta  Ta56  1  0.25029780  0.50057191  0.46685166  1
  Ta  Ta57  1  0.91719626  0.58689266  0.42145410  1
  Ta  Ta58  1  0.26838974  0.00005236  0.59955001  1
  Ta  Ta59  1  0.57451162  0.42522756  0.55258846  1
  Ta  Ta60  1  0.49986639  0.49993931  0.39684100  1
  Ta  Ta61  1  0.00006445  0.57204201  0.63736042  1
  Ta  Ta62  1  0.83387741  0.91698626  0.56875239  1
  Ta  Ta63  1  0.66980615  0.08294697  0.42144157  1
  Ta  Ta64  1  0.85904217  0.28726443  0.67737721  1
  Ta  Ta65  1  0.91696758  0.83390355  0.56879186  1
  Ta  Ta66  1  0.57165149  0.85896599  0.67726286  1
  Ta  Ta67  1  0.83652273  0.67303546  0.49380866  1
  Ta  Ta68  1  0.00010504  0.73163414  0.59944268  1
  Ta  Ta69  1  0.91719818  0.33026048  0.42145807  1
  Ta  Ta70  1  0.00005215  0.14784629  0.80190834  1
  Ta  Ta71  1  0.14781984  0.14785065  0.80188921  1
  Ta  Ta72  1  0.42911332  0.71449495  0.71804130  1
  Ta  Ta73  1  0.57073132  0.28533773  0.71808405  1
  Ta  Ta74  1  0.33331072  0.66662072  0.49157733  1
  Ta  Ta75  1  0.16615511  0.08311967  0.56857994  1
  Ta  Ta76  1  0.85899475  0.57166961  0.67724163  1
  Ta  Ta77  1  0.57162460  0.71268348  0.67726111  1
  Ta  Ta78  1  0.66971414  0.58687646  0.42149909  1
  Ta  Ta79  1  0.42785033  0.42789261  0.63745332  1
  Ta  Ta80  1  0.74972891  0.25030596  0.46688850  1
  Ta  Ta81  1  0.67300877  0.83653606  0.49381220  1
  Ta  Ta82  1  0.71451779  0.42910277  0.71806746  1
  Ta  Ta83  1  0.14105093  0.71269649  0.67729415  1
  Te  Te0  1  0.99996113  0.32820352  0.84050560  1
  Te  Te1  1  0.20539336  0.60277114  0.30719715  1
  Te  Te2  1  0.22035141  0.44069849  0.90861743  1
  Te  Te3  1  0.67180926  0.99991378  0.84046786  1
  Te  Te4  1  0.80158738  0.60310072  0.25484305  1
  Te  Te5  1  0.39697495  0.19849986  0.25478835  1
  Te  Te6  1  0.11133900  0.88858565  0.00074259  1
  Te  Te7  1  0.99994993  0.67188611  0.84045973  1
  Te  Te8  1  0.55767608  0.44244022  0.80981714  1
  Te  Te9  1  0.19849083  0.39700462  0.25477288  1
  Te  Te10  1  0.32812853  0.99991393  0.84047608  1
  Te  Te11  1  0.80142169  0.80141739  0.36962304  1
  Te  Te12  1  0.99997032  0.80139954  0.36963102  1
  Te  Te13  1  0.44070613  0.22033434  0.90859986  1
  Te  Te14  1  0.99999190  0.19863190  0.36961818  1
  Te  Te15  1  0.79471051  0.39742474  0.30718787  1
  Te  Te16  1  0.22032324  0.77959111  0.90861258  1
  Te  Te17  1  0.39732836  0.79464100  0.30720839  1
  Te  Te18  1  0.00005270  0.40078975  0.19669849  1
  Te  Te19  1  0.40072900  0.40077328  0.19682747  1
  Te  Te20  1  0.40073642  0.00001582  0.19674268  1
  Te  Te21  1  0.80157496  0.19852253  0.25478019  1
  Te  Te22  1  0.32827930  0.32826536  0.84045036  1
  Te  Te23  1  0.67190286  0.67188667  0.84038965  1
  Te  Te24  1  0.66664509  0.33331515  0.93908024  1
  Te  Te25  1  0.60305412  0.80158479  0.25484544  1
  Te  Te26  1  0.33331903  0.66663559  0.93900124  1
  Te  Te27  1  0.88859618  0.77721279  0.00073701  1
  Te  Te28  1  0.59930762  0.59935112  0.19687704  1
  Te  Te29  1  0.19851478  0.80157086  0.25479955  1
  Te  Te30  1  0.55925243  0.77957592  0.90857700  1
  Te  Te31  1  0.44242798  0.55769115  0.80982965  1
  Te  Te32  1  0.39737419  0.60276511  0.30719349  1
  Te  Te33  1  0.99993043  0.99989727  0.42228934  1
  Te  Te34  1  0.80137362  0.99994740  0.36963380  1
  Te  Te35  1  0.60267118  0.20531781  0.30718076  1
  Te  Te36  1  0.99995533  0.99991681  0.93392555  1
  Te  Te37  1  0.77959618  0.55924851  0.90856380  1
  Te  Te38  1  0.77960232  0.22030948  0.90861455  1
  Te  Te39  1  0.00008219  0.59935534  0.19675091  1
  Te  Te40  1  0.60272262  0.39745201  0.30716647  1
  Te  Te41  1  0.88470197  0.44239443  0.80983995  1
  Te  Te42  1  0.59931382  0.00004144  0.19674833  1
  Te  Te43  1  0.22266581  0.11130495  0.00073861  1
  Te  Te44  1  0.77723518  0.88858760  0.00070616  1
  Te  Te45  1  0.55764269  0.11528134  0.80987257  1
  Te  Te46  1  0.11532807  0.55768614  0.80988885  1
  Te  Te47  1  0.19859031  0.99996827  0.36962396  1
  Te  Te48  1  0.88860682  0.11131381  0.00076801  1
  Te  Te49  1  0.44234256  0.88465456  0.80986665  1
  Te  Te50  1  0.11131907  0.22265209  0.00074097  1
  Te  Te51  1  0.19864014  0.19863188  0.36960784  1
loop_
_geom_bond_atom_site_label_1
_geom_bond_atom_site_label_2
_geom_bond_distance
_geom_bond_site_symmetry_2
Ta0 Ta79 2.788369 1_555
Ta0 Ta31 2.840682 1_555
Ta0 Ta20 2.861756 1_555
Ta0 Te2 2.865914 1_555
Ta0 Ta40 2.866276 1_555
Ta0 Ta18 2.922616 1_555
Ta0 Ta56 2.936406 1_555
Ta0 Ta54 2.977323 1_555
Ta0 Te22 3.014535 1_555
Ta0 Ta52 3.076736 1_555
Ta0 Ta4 3.088149 1_555
Ta0 Te31 3.156062 1_555
Ta1 Ta38 2.840908 1_555
Ta1 Ta64 2.842633 1_555
Ta1 Te24 2.869590 1_555
Ta1 Ta80 2.939725 1_555
Ta1 Te38 3.002338 1_555
Ta1 Te45 3.353551 1_555
Ta1 Te41 3.356936 1_555
Ta2 Te20 2.890990 1_555
Ta2 Te42 2.891391 1_555
Ta2 Ta25 2.935243 1_555
Ta2 Ta44 2.935389 1_555
Ta2 Te35 3.608388 1_555
Ta2 Te17 3.611592 1_545
Ta3 Ta47 2.790143 1_555
Ta3 Ta82 2.841814 1_555
Ta3 Ta76 2.863584 1_555
Ta3 Te37 2.866753 1_555
Ta3 Ta78 2.921538 1_555
Ta3 Ta41 2.935078 1_555
Ta3 Ta67 2.975132 1_555
Ta3 Te23 3.016439 1_555
Ta3 Ta5 3.077733 1_555
Ta3 Ta59 3.091753 1_555
Ta3 Te8 3.151835 1_555
Ta4 Te32 2.792371 1_555
Ta4 Te31 2.812382 1_555
Ta4 Ta79 3.034020 1_555
Ta4 Ta47 3.035344 1_555
Ta4 Ta77 3.091613 1_555
Ta4 Ta56 3.115123 1_555
Ta5 Te11 2.812557 1_555
Ta5 Te23 2.830127 1_555
Ta5 Ta81 3.026291 1_555
Ta5 Ta67 3.027767 1_555
Ta5 Ta77 3.077338 1_555
Ta5 Ta62 3.163833 1_555
Ta5 Ta65 3.164401 1_555
Ta5 Ta6 3.204672 1_555
Ta6 Te44 2.867906 1_556
Ta6 Te27 2.868618 1_556
Ta6 Ta62 2.900918 1_555
Ta6 Ta65 2.901116 1_555
Ta6 Te36 3.218343 1_555
Ta6 Te23 3.552277 1_555
Ta7 Ta80 2.827501 1_555
Ta7 Te35 2.932478 1_555
Ta7 Te15 2.932482 1_555
Ta7 Te40 2.932565 1_555
Ta8 Te6 2.829912 1_556
Ta8 Ta83 2.869382 1_555
Ta8 Te16 2.994951 1_555
Ta8 Te10 3.383119 1_555
Ta8 Te7 3.384720 1_455
Ta9 Te43 2.829770 1_556
Ta9 Te13 2.995907 1_555
Ta9 Te22 3.385550 1_555
Ta9 Te10 3.386486 1_545
Ta10 Ta25 2.789003 1_565
Ta10 Ta32 2.842065 1_555
Ta10 Ta83 2.862587 1_555
Ta10 Te16 2.866481 1_555
Ta10 Ta8 2.867567 1_555
Ta10 Ta11 2.922459 1_555
Ta10 Ta16 2.936773 1_555
Ta10 Ta17 2.976084 1_555
Ta10 Te10 3.015666 1_555
Ta10 Ta58 3.077713 1_565
Ta10 Ta53 3.089094 1_555
Ta10 Te49 3.154020 1_555
Ta11 Te20 2.840951 1_565
Ta11 Ta16 2.880532 1_555
Ta11 Ta25 2.920420 1_565
Ta11 Ta17 2.930167 1_555
Ta11 Te29 3.019344 1_555
Ta11 Te17 3.480666 1_555
Ta12 Te27 2.830101 1_556
Ta12 Ta6 2.864783 1_555
Ta12 Ta33 2.865117 1_655
Ta12 Ta76 2.868933 1_555
Ta12 Ta3 2.869098 1_555
Ta12 Ta67 2.907325 1_555
Ta12 Ta65 2.941711 1_555
Ta12 Te37 2.994464 1_555
Ta12 Te7 3.382983 1_555
Ta12 Te23 3.383464 1_555
Ta13 Te42 2.841247 1_565
Ta13 Ta28 2.880855 1_555
Ta13 Ta44 2.920158 1_565
Ta13 Ta66 2.921794 1_555
Ta13 Ta81 2.930886 1_555
Ta13 Te25 3.018895 1_555
Ta13 Te17 3.480469 1_555
Ta14 Ta25 2.788995 1_555
Ta14 Ta73 2.840966 1_555
Ta14 Ta51 2.862608 1_555
Ta14 Te13 2.866820 1_555
Ta14 Ta9 2.867628 1_555
Ta14 Ta39 2.922616 1_555
Ta14 Ta15 2.935415 1_555
Ta14 Ta22 2.977105 1_555
Ta14 Te10 3.015721 1_545
Ta14 Ta58 3.075838 1_555
Ta14 Ta24 3.090064 1_555
Ta14 Te45 3.154887 1_555
Ta15 Ta7 2.827359 1_555
Ta15 Te5 2.869806 1_555
Ta15 Ta39 2.879119 1_555
Ta15 Ta46 2.879798 1_555
Ta15 Ta51 2.936501 1_555
Ta15 Ta73 2.939522 1_555
Ta15 Ta22 2.956963 1_555
Ta15 Te40 3.074256 1_555
Ta15 Te35 3.074372 1_555
Ta15 Ta59 3.115070 1_555
Ta15 Ta24 3.116814 1_555
Ta16 Ta74 2.826431 1_555
Ta16 Te29 2.870472 1_555
Ta16 Ta37 2.879237 1_555
Ta16 Ta83 2.935459 1_555
Ta16 Ta32 2.938861 1_555
Ta16 Ta17 2.957776 1_555
Ta16 Te17 3.071732 1_555
Ta16 Te1 3.071972 1_555
Ta16 Ta53 3.116185 1_555
Ta16 Ta49 3.117985 1_555
Ta17 Te29 2.818550 1_555
Ta17 Ta48 2.842126 1_555
Ta17 Ta8 2.908007 1_555
Ta17 Ta37 2.931550 1_555
Ta17 Ta83 2.976075 1_555
Ta17 Ta68 3.025940 1_555
Ta17 Ta58 3.027858 1_565
Ta17 Te47 3.203749 1_555
Ta17 Te12 3.206828 1_455
Ta18 Te19 2.841886 1_555
Ta18 Ta56 2.878527 1_555
Ta18 Ta79 2.920071 1_555
Ta18 Ta54 2.929464 1_555
Ta18 Te9 3.018709 1_555
Ta18 Te32 3.480672 1_555
Ta19 Te28 2.841506 1_555
Ta19 Ta28 2.879599 1_555
Ta19 Ta47 2.919131 1_555
Ta19 Ta77 2.921713 1_555
Ta19 Ta81 2.931553 1_555
Ta19 Te25 3.018541 1_555
Ta19 Te32 3.478679 1_555
Ta20 Ta50 2.788200 1_555
Ta20 Ta31 2.840798 1_555
Ta20 Te2 2.866408 1_555
Ta20 Ta40 2.866856 1_555
Ta20 Ta26 2.922904 1_555
Ta20 Ta56 2.936151 1_555
Ta20 Ta54 2.977307 1_555
Ta20 Te0 3.015378 1_455
Ta20 Ta45 3.075965 1_555
Ta20 Ta49 3.088523 1_555
Ta20 Te46 3.155578 1_555
Ta21 Te15 2.792499 1_555
Ta21 Te41 2.812449 1_555
Ta21 Ta50 3.036285 1_655
Ta21 Ta61 3.037181 1_655
Ta21 Ta64 3.088663 1_555
Ta21 Ta76 3.091181 1_555
Ta21 Ta80 3.115490 1_555
Ta21 Ta41 3.117698 1_555
Ta22 Te5 2.818347 1_555
Ta22 Ta75 2.839486 1_555
Ta22 Ta9 2.907964 1_555
Ta22 Ta46 2.929902 1_555
Ta22 Ta39 2.931370 1_555
Ta22 Ta51 2.977133 1_555
Ta22 Ta58 3.026560 1_555
Ta22 Ta52 3.027821 1_555
Ta22 Te51 3.203436 1_555
Ta22 Te47 3.205822 1_545
Ta23 Te18 2.890512 1_555
Ta23 Te39 2.891979 1_555
Ta23 Ta50 2.934983 1_555
Ta23 Ta61 2.935643 1_555
Ta23 Te1 3.608801 1_555
Ta23 Te15 3.611323 1_455
Ta24 Te35 2.792134 1_555
Ta24 Te45 2.812074 1_555
Ta24 Ta25 3.034857 1_555
Ta24 Ta44 3.035196 1_555
Ta24 Ta38 3.090994 1_555
Ta24 Ta80 3.117194 1_555
Ta25 Ta44 2.820760 1_555
Ta25 Ta39 2.919590 1_555
Ta25 Te10 2.920879 1_545
Ta25 Te45 3.035753 1_555
Ta25 Ta53 3.035753 1_545
Ta25 Te49 3.035838 1_545
Ta25 Ta58 3.148946 1_555
Ta26 Te18 2.843049 1_555
Ta26 Ta56 2.878512 1_555
Ta26 Ta50 2.920299 1_555
Ta26 Ta54 2.930094 1_555
Ta26 Te9 3.017371 1_555
Ta26 Te1 3.480174 1_555
Ta27 Te21 2.818220 1_555
Ta27 Ta36 2.840352 1_555
Ta27 Ta34 2.908377 1_555
Ta27 Ta69 2.930203 1_555
Ta27 Ta63 2.931562 1_555
Ta27 Ta80 2.957589 1_555
Ta27 Ta64 2.977317 1_555
Ta27 Ta38 2.977411 1_555
Ta27 Ta30 3.026246 1_555
Ta27 Ta45 3.028268 1_655
Ta27 Te14 3.203082 1_555
Ta27 Te34 3.206150 1_545
Ta28 Ta74 2.826225 1_555
Ta28 Te25 2.870490 1_555
Ta28 Ta77 2.934599 1_555
Ta28 Ta66 2.935624 1_555
Ta28 Ta72 2.937895 1_555
Ta28 Ta81 2.957577 1_555
Ta28 Te17 3.072354 1_555
Ta28 Te32 3.072403 1_555
Ta28 Ta53 3.116788 1_555
Ta28 Ta4 3.117852 1_555
Ta29 Ta9 2.862519 1_555
Ta29 Ta8 2.864503 1_545
Ta29 Te43 2.867974 1_556
Ta29 Te6 2.869221 1_546
Ta29 Ta71 2.892659 1_555
Ta29 Ta33 2.892879 1_545
Ta29 Ta75 2.901694 1_555
Ta29 Ta48 2.901757 1_545
Ta29 Ta42 3.185130 1_555
Ta29 Ta58 3.202337 1_555
Ta29 Te36 3.219223 1_445
Ta29 Te10 3.553783 1_545
Ta30 Te34 2.813451 1_545
Ta30 Te3 2.830987 1_545
Ta30 Ta81 3.028359 1_545
Ta30 Ta38 3.075717 1_555
Ta30 Ta66 3.078108 1_545
Ta30 Ta44 3.149213 1_555
Ta30 Ta62 3.163634 1_545
Ta30 Ta36 3.164041 1_555
Ta30 Ta55 3.203199 1_555
Ta31 Te26 2.869741 1_555
Ta31 Ta56 2.939876 1_555
Ta31 Te2 3.001508 1_555
Ta31 Te46 3.354882 1_555
Ta31 Te31 3.355923 1_555
Ta32 Ta83 2.840622 1_555
Ta32 Te26 2.868012 1_555
Ta32 Te16 3.003799 1_555
Ta32 Te46 3.353126 1_555
Ta32 Te49 3.356149 1_555
Ta33 Ta8 2.863759 1_555
Ta33 Te6 2.867891 1_556
Ta33 Te27 2.868830 1_456
Ta33 Ta6 2.893939 1_455
Ta33 Ta48 2.900950 1_555
Ta33 Ta65 2.901359 1_455
Ta33 Ta42 3.186581 1_565
Ta33 Ta68 3.205309 1_555
Ta33 Te36 3.218219 1_455
Ta33 Te7 3.552163 1_455
Ta34 Te48 2.829806 1_556
Ta34 Ta55 2.862557 1_555
Ta34 Ta70 2.863473 1_655
Ta34 Ta64 2.866560 1_555
Ta34 Ta38 2.868346 1_555
Ta34 Ta36 2.943196 1_555
Ta34 Te38 2.995850 1_555
Ta34 Te0 3.384706 1_555
Ta34 Te3 3.386099 1_545
Ta35 Ta36 2.815243 1_455
Ta35 Ta75 2.815570 1_555
Ta35 Ta54 2.839372 1_555
Ta35 Ta70 2.901862 1_555
Ta35 Ta71 2.902040 1_555
Ta35 Te51 2.934281 1_555
Ta35 Te14 2.934623 1_455
Ta35 Ta40 2.943856 1_555
Ta35 Ta42 3.044758 1_555
Ta35 Ta52 3.161493 1_555
Ta35 Ta45 3.162361 1_555
Ta35 Te33 3.224329 1_445
Ta36 Ta62 2.815775 1_545
Ta36 Ta55 2.901424 1_555
Ta36 Ta70 2.902257 1_655
Ta36 Te14 2.933617 1_555
Ta36 Te34 2.936550 1_545
Ta36 Ta42 3.045651 1_655
Ta36 Ta45 3.163024 1_655
Ta36 Te33 3.222481 1_545
Ta37 Te39 2.842156 1_555
Ta37 Ta61 2.919732 1_555
Ta37 Ta83 2.922717 1_555
Ta37 Te29 3.017456 1_555
Ta37 Te1 3.477940 1_555
Ta38 Ta44 2.789163 1_555
Ta38 Ta64 2.863021 1_555
Ta38 Te38 2.866667 1_555
Ta38 Ta63 2.922947 1_555
Ta38 Ta80 2.935914 1_555
Ta38 Te3 3.015854 1_545
Ta38 Te45 3.154059 1_555
Ta39 Te20 2.843220 1_555
Ta39 Te5 3.017838 1_555
Ta39 Te35 3.479113 1_555
Ta40 Te50 2.829669 1_556
Ta40 Ta71 2.862412 1_555
Ta40 Ta70 2.862582 1_555
Ta40 Ta54 2.908188 1_555
Ta40 Te2 2.995851 1_555
Ta40 Te22 3.386007 1_555
Ta40 Te0 3.386442 1_455
Ta41 Ta7 2.826682 1_555
Ta41 Te4 2.870786 1_555
Ta41 Ta78 2.880924 1_555
Ta41 Ta57 2.881611 1_555
Ta41 Ta76 2.935283 1_555
Ta41 Ta82 2.937834 1_555
Ta41 Ta67 2.957640 1_555
Ta41 Te40 3.072899 1_555
Ta41 Te15 3.072914 1_555
Ta41 Ta59 3.117725 1_555
Ta42 Te33 2.729064 1_445
Ta42 Te36 2.745570 1_445
Ta42 Ta75 3.045245 1_555
Ta42 Ta48 3.047010 1_545
Ta42 Ta62 3.047807 1_445
Ta42 Ta65 3.048167 1_445
Ta42 Ta71 3.183951 1_555
Ta42 Ta70 3.184122 1_555
Ta42 Ta55 3.185621 1_455
Ta42 Ta6 3.186860 1_445
Ta43 Te44 2.829889 1_556
Ta43 Ta6 2.864372 1_555
Ta43 Ta55 2.865247 1_565
Ta43 Ta66 2.868138 1_555
Ta43 Ta77 2.869307 1_555
Ta43 Ta81 2.907219 1_555
Ta43 Ta62 2.942246 1_555
Ta43 Te30 2.994429 1_555
Ta43 Te3 3.383050 1_555
Ta43 Te23 3.383982 1_555
Ta44 Ta66 2.789313 1_545
Ta44 Ta63 2.919667 1_555
Ta44 Te3 2.921899 1_545
Ta44 Te49 3.035171 1_545
Ta44 Te45 3.035387 1_555
Ta44 Ta53 3.035916 1_545
Ta45 Te14 2.814376 1_455
Ta45 Te0 2.831896 1_455
Ta45 Ta54 3.026336 1_555
Ta45 Ta64 3.077111 1_455
Ta45 Ta50 3.148709 1_555
Ta45 Ta70 3.200508 1_555
Ta46 Te19 2.841561 1_555
Ta46 Ta79 2.919924 1_555
Ta46 Ta51 2.922205 1_555
Ta46 Te5 3.020189 1_555
Ta46 Te40 3.481459 1_555
Ta47 Ta77 2.789554 1_555
Ta47 Ta79 2.820481 1_555
Ta47 Ta78 2.919138 1_555
Ta47 Te23 2.923526 1_555
Ta47 Ta60 2.935556 1_555
Ta47 Te31 3.033129 1_555
Ta47 Te8 3.033234 1_555
Ta47 Ta59 3.036911 1_555
Ta47 Ta5 3.150175 1_555
Ta48 Ta75 2.815683 1_565
Ta48 Ta65 2.816002 1_455
Ta48 Te47 2.934166 1_555
Ta48 Te12 2.937215 1_455
Ta48 Ta8 2.942543 1_555
Ta48 Ta58 3.163207 1_565
Ta48 Ta68 3.164261 1_555
Ta48 Te33 3.221480 1_455
Ta49 Te1 2.792348 1_555
Ta49 Te46 2.812524 1_555
Ta49 Ta50 3.033702 1_555
Ta49 Ta61 3.034794 1_555
Ta49 Ta83 3.091486 1_555
Ta49 Ta56 3.115827 1_555
Ta50 Ta64 2.788915 1_455
Ta50 Ta61 2.820888 1_555
Ta50 Te0 2.919126 1_455
Ta50 Ta69 2.920330 1_455
Ta50 Te46 3.036421 1_555
Ta50 Te41 3.036558 1_455
Ta51 Ta79 2.788896 1_555
Ta51 Ta73 2.841849 1_555
Ta51 Te13 2.865942 1_555
Ta51 Ta9 2.866008 1_555
Ta51 Te22 3.014080 1_555
Ta51 Ta52 3.077283 1_555
Ta51 Ta59 3.088391 1_555
Ta51 Te8 3.156298 1_555
Ta52 Te51 2.814452 1_555
Ta52 Te22 2.831891 1_555
Ta52 Ta54 3.026286 1_555
Ta52 Ta79 3.149622 1_555
Ta52 Ta75 3.161983 1_555
Ta52 Ta71 3.198938 1_555
Ta53 Te17 2.792808 1_555
Ta53 Te49 2.812817 1_555
Ta53 Ta66 3.089515 1_555
Ta54 Te9 2.818160 1_555
Ta54 Ta56 2.957026 1_555
Ta54 Te51 3.204675 1_555
Ta54 Te14 3.205171 1_455
Ta55 Te48 2.868251 1_556
Ta55 Te44 2.868905 1_546
Ta55 Ta70 2.892604 1_655
Ta55 Ta6 2.893334 1_545
Ta55 Ta62 2.901534 1_545
Ta55 Te36 3.219138 1_545
Ta55 Te3 3.553417 1_545
Ta56 Ta74 2.826897 1_555
Ta56 Te9 2.869710 1_555
Ta56 Te32 3.072989 1_555
Ta56 Te1 3.073546 1_555
Ta57 Te39 2.841668 1_655
Ta57 Ta61 2.919522 1_655
Ta57 Ta76 2.921763 1_555
Ta57 Ta67 2.932126 1_555
Ta57 Te4 3.019331 1_555
Ta57 Te15 3.479442 1_555
Ta58 Te47 2.813790 1_545
Ta58 Te10 2.831358 1_545
Ta58 Ta75 3.163675 1_555
Ta59 Te40 2.792429 1_555
Ta59 Te8 2.812365 1_555
Ta59 Ta79 3.035696 1_555
Ta60 Te19 2.889666 1_555
Ta60 Te28 2.891411 1_555
Ta60 Ta79 2.934652 1_555
Ta60 Te32 3.609599 1_555
Ta60 Te40 3.610438 1_555
Ta61 Ta83 2.789130 1_555
Ta61 Ta76 2.790059 1_455
Ta61 Te7 2.923890 1_455
Ta61 Te41 3.034500 1_455
Ta61 Te46 3.034808 1_555
Ta61 Ta68 3.149077 1_555
Ta62 Ta65 2.816503 1_555
Ta62 Ta81 2.842305 1_555
Ta62 Te34 2.934395 1_555
Ta62 Te11 2.937147 1_555
Ta62 Te33 3.220875 1_555
Ta63 Te42 2.842862 1_555
Ta63 Ta80 2.879132 1_555
Ta63 Te21 3.018196 1_555
Ta63 Te35 3.478732 1_555
Ta64 Te38 2.866292 1_555
Ta64 Ta69 2.922678 1_555
Ta64 Ta80 2.937300 1_555
Ta64 Te0 3.014529 1_555
Ta64 Te41 3.155610 1_555
Ta65 Ta67 2.842554 1_555
Ta65 Te12 2.935798 1_555
Ta65 Te11 2.936684 1_555
Ta65 Ta68 3.165042 1_655
Ta65 Te33 3.219930 1_555
Ta66 Ta72 2.842170 1_555
Ta66 Ta77 2.862650 1_555
Ta66 Te30 2.866853 1_555
Ta66 Ta81 2.975190 1_555
Ta66 Te3 3.016408 1_555
Ta66 Te49 3.153242 1_555
Ta67 Te4 2.818941 1_555
Ta67 Ta78 2.931965 1_555
Ta67 Ta76 2.975062 1_555
Ta67 Ta68 3.028620 1_655
Ta67 Te12 3.204597 1_555
Ta67 Te11 3.205345 1_555
Ta68 Te12 2.812819 1_455
Ta68 Te7 2.830584 1_455
Ta68 Ta83 3.076223 1_555
Ta68 Ta76 3.077707 1_455
Ta69 Te18 2.841978 1_655
Ta69 Ta80 2.880553 1_555
Ta69 Te21 3.019776 1_555
Ta69 Te15 3.481389 1_555
Ta70 Te50 2.868314 1_556
Ta70 Te48 2.869591 1_456
Ta70 Ta71 2.891955 1_555
Ta70 Te36 3.220008 1_445
Ta70 Te0 3.554930 1_455
Ta71 Ta9 2.863065 1_555
Ta71 Te50 2.868618 1_556
Ta71 Te43 2.869078 1_556
Ta71 Ta75 2.902262 1_555
Ta71 Te36 3.220261 1_445
Ta71 Te22 3.555545 1_555
Ta72 Ta77 2.840693 1_555
Ta72 Te26 2.867659 1_555
Ta72 Te30 3.004166 1_555
Ta72 Te31 3.353726 1_555
Ta72 Te49 3.356084 1_555
Ta73 Te24 2.870066 1_555
Ta73 Te13 3.001552 1_555
Ta73 Te45 3.354366 1_555
Ta73 Te8 3.357152 1_555
Ta74 Te32 2.931709 1_555
Ta74 Te17 2.931783 1_555
Ta74 Te1 2.931881 1_555
Ta75 Te51 2.933634 1_555
Ta75 Te47 2.935834 1_545
Ta75 Ta9 2.943297 1_555
Ta75 Te33 3.223482 1_445
Ta76 Ta82 2.842580 1_555
Ta76 Te37 2.867300 1_555
Ta76 Te7 3.016654 1_555
Ta76 Te41 3.152385 1_555
Ta77 Te30 2.866780 1_555
Ta77 Ta81 2.975104 1_555
Ta77 Te23 3.017041 1_555
Ta77 Te31 3.151590 1_555
Ta78 Te28 2.841083 1_555
Ta78 Te4 3.020118 1_555
Ta78 Te40 3.478896 1_555
Ta79 Te22 2.917753 1_555
Ta79 Te31 3.035760 1_555
Ta79 Te8 3.035860 1_555
Ta80 Te21 2.870138 1_555
Ta80 Te15 3.073456 1_555
Ta80 Te35 3.073615 1_555
Ta81 Te25 2.818896 1_555
Ta81 Te34 3.204076 1_555
Ta81 Te11 3.206550 1_555
Ta82 Te24 2.867805 1_555
Ta82 Te37 3.004232 1_555
Ta82 Te8 3.354883 1_555
Ta82 Te41 3.355595 1_555
Ta83 Te16 2.866995 1_555
Ta83 Te7 3.017340 1_455
Ta83 Te46 3.152597 1_555
