# generated using pymatgen
data_Zr2H16SN3(O2F3)3
_symmetry_space_group_name_H-M   'P 1'
_cell_length_a   8.03980552
_cell_length_b   8.03980552
_cell_length_c   12.30338767
_cell_angle_alpha   69.18127509
_cell_angle_beta   69.18127509
_cell_angle_gamma   79.44441077
_symmetry_Int_Tables_number   1
_chemical_formula_structural   Zr2H16SN3(O2F3)3
_chemical_formula_sum   'Zr4 H32 S2 N6 O12 F18'
_cell_volume   693.34138185
_cell_formula_units_Z   2
loop_
 _symmetry_equiv_pos_site_id
 _symmetry_equiv_pos_as_xyz
  1  'x, y, z'
loop_
 _atom_site_type_symbol
 _atom_site_label
 _atom_site_symmetry_multiplicity
 _atom_site_fract_x
 _atom_site_fract_y
 _atom_site_fract_z
 _atom_site_occupancy
  Zr  Zr0  1  0.88392400  0.24347000  0.61144400  1
  Zr  Zr1  1  0.24347000  0.88392400  0.61144400  1
  Zr  Zr2  1  0.11607600  0.75653000  0.38855600  1
  Zr  Zr3  1  0.75653000  0.11607600  0.38855600  1
  H  H0  1  0.37051200  0.96705800  0.15138900  1
  H  H1  1  0.96705800  0.37051200  0.15138900  1
  H  H2  1  0.62948800  0.03294200  0.84861100  1
  H  H3  1  0.03294200  0.62948800  0.84861100  1
  H  H4  1  0.43634900  0.75445000  0.18331000  1
  H  H5  1  0.75445000  0.43634900  0.18331000  1
  H  H6  1  0.56365100  0.24555000  0.81669000  1
  H  H7  1  0.24555000  0.56365100  0.81669000  1
  H  H8  1  0.80821700  0.27612100  0.92315500  1
  H  H9  1  0.27612100  0.80821700  0.92315500  1
  H  H10  1  0.19178300  0.72387900  0.07684500  1
  H  H11  1  0.72387900  0.19178300  0.07684500  1
  H  H12  1  0.94763400  0.18571400  0.00595400  1
  H  H13  1  0.18571400  0.94763400  0.00595400  1
  H  H14  1  0.05236600  0.81428600  0.99404600  1
  H  H15  1  0.81428600  0.05236600  0.99404600  1
  H  H16  1  0.82775100  0.66554500  0.69208000  1
  H  H17  1  0.66554500  0.82775100  0.69208000  1
  H  H18  1  0.17224900  0.33445500  0.30792000  1
  H  H19  1  0.33445500  0.17224900  0.30792000  1
  H  H20  1  0.64178500  0.64178500  0.66718700  1
  H  H21  1  0.35821500  0.35821500  0.33281300  1
  H  H22  1  0.63454100  0.63454100  0.80838400  1
  H  H23  1  0.36545900  0.36545900  0.19161600  1
  H  H24  1  0.40400500  0.40400500  0.65962900  1
  H  H25  1  0.59599500  0.59599500  0.34037100  1
  H  H26  1  0.19392400  0.35687300  0.68031300  1
  H  H27  1  0.35687300  0.19392400  0.68031300  1
  H  H28  1  0.80607600  0.64312700  0.31968700  1
  H  H29  1  0.64312700  0.80607600  0.31968700  1
  H  H30  1  0.36079600  0.36079600  0.55014900  1
  H  H31  1  0.63920400  0.63920400  0.44985100  1
  S  S0  1  0.28831100  0.28831100  0.00151400  1
  S  S1  1  0.71168900  0.71168900  0.99848600  1
  N  N0  1  0.17710700  0.82289300  0.00000000  1
  N  N1  1  0.82289300  0.17710700  0.00000000  1
  N  N2  1  0.69097900  0.69097900  0.71584000  1
  N  N3  1  0.30902100  0.30902100  0.28416000  1
  N  N4  1  0.67082200  0.67082200  0.35623300  1
  N  N5  1  0.32917800  0.32917800  0.64376700  1
  O  O0  1  0.17727900  0.41490600  0.06664100  1
  O  O1  1  0.41490600  0.17727900  0.06664100  1
  O  O2  1  0.82272100  0.58509400  0.93335900  1
  O  O3  1  0.58509400  0.82272100  0.93335900  1
  O  O4  1  0.82764600  0.82764600  0.00839200  1
  O  O5  1  0.17235400  0.17235400  0.99160800  1
  O  O6  1  0.60587500  0.60587500  0.12693000  1
  O  O7  1  0.39412500  0.39412500  0.87307000  1
  O  O8  1  0.34242500  0.84394700  0.21045200  1
  O  O9  1  0.84394700  0.34242500  0.21045200  1
  O  O10  1  0.65757500  0.15605300  0.78954800  1
  O  O11  1  0.15605300  0.65757500  0.78954800  1
  F  F0  1  0.03146900  0.03146900  0.29797100  1
  F  F1  1  0.96853100  0.96853100  0.70202900  1
  F  F2  1  0.83078700  0.83078700  0.46367000  1
  F  F3  1  0.16921300  0.16921300  0.53633000  1
  F  F4  1  0.04261900  0.68350100  0.27065800  1
  F  F5  1  0.68350100  0.04261900  0.27065800  1
  F  F6  1  0.95738100  0.31649900  0.72934200  1
  F  F7  1  0.31649900  0.95738100  0.72934200  1
  F  F8  1  0.06924700  0.73046500  0.58242800  1
  F  F9  1  0.73046500  0.06924700  0.58242800  1
  F  F10  1  0.93075300  0.26953500  0.41757200  1
  F  F11  1  0.26953500  0.93075300  0.41757200  1
  F  F12  1  0.32219100  0.57535100  0.40142900  1
  F  F13  1  0.57535100  0.32219100  0.40142900  1
  F  F14  1  0.67780900  0.42464900  0.59857100  1
  F  F15  1  0.42464900  0.67780900  0.59857100  1
  F  F16  1  0.00000000  0.50000000  0.50000000  1
  F  F17  1  0.50000000  0.00000000  0.50000000  1
loop_
_geom_bond_atom_site_label_1
_geom_bond_atom_site_label_2
_geom_bond_distance
_geom_bond_site_symmetry_2
H0 O8 1.006336 1_555
H0 O1 1.665818 1_565
H1 O9 1.006336 1_555
H1 O0 1.665818 1_655
H2 O10 1.006336 1_555
H2 O3 1.665818 1_545
H3 O11 1.006336 1_555
H3 O2 1.665818 1_455
H4 O8 0.995969 1_555
H5 O9 0.995969 1_555
H6 O10 0.995969 1_555
H7 O11 0.995969 1_555
H8 N1 1.025378 1_556
H9 N0 1.025378 1_556
H10 N0 1.025378 1_555
H11 N1 1.025378 1_555
H12 N1 1.047474 1_555
H13 N0 1.047474 1_555
H14 N0 1.047474 1_556
H15 N1 1.047474 1_556
H16 N2 1.033464 1_555
H17 N2 1.033464 1_555
H18 N3 1.033464 1_555
H19 N3 1.033464 1_555
H20 N2 1.032019 1_555
H21 N3 1.032019 1_555
H22 N2 1.024280 1_555
H23 N3 1.024280 1_555
H24 N5 1.030255 1_555
H25 N4 1.030255 1_555
H26 N5 1.033987 1_555
H27 N5 1.033987 1_555
H28 N4 1.033987 1_555
H29 N4 1.033987 1_555
H30 N5 1.031187 1_555
H31 N4 1.031187 1_555
O0 S0 1.487692 1_555
O1 S0 1.487692 1_555
O2 S1 1.487692 1_555
O3 S1 1.487692 1_555
O4 S1 1.494349 1_554
O5 S0 1.494349 1_556
O6 S1 1.516146 1_554
O7 S0 1.516146 1_556
O8 Zr2 2.268626 1_555
O9 Zr3 2.268626 1_555
O10 Zr0 2.268626 1_555
O11 Zr1 2.268626 1_555
F0 Zr2 2.197219 1_545
F0 Zr3 2.197219 1_455
F1 Zr0 2.197219 1_565
F1 Zr1 2.197219 1_655
F2 Zr3 2.203440 1_565
F2 Zr2 2.203440 1_655
F3 Zr1 2.203440 1_545
F3 Zr0 2.203440 1_455
F4 Zr2 2.034445 1_555
F5 Zr3 2.034445 1_555
F6 Zr0 2.034445 1_555
F7 Zr1 2.034445 1_555
F8 Zr2 2.215960 1_555
F8 Zr1 2.216614 1_555
F9 Zr3 2.215960 1_555
F9 Zr0 2.216614 1_555
F10 Zr0 2.215960 1_555
F10 Zr3 2.216614 1_555
F11 Zr1 2.215960 1_555
F11 Zr2 2.216614 1_555
F12 Zr2 2.007772 1_555
F13 Zr3 2.007772 1_555
F14 Zr0 2.007772 1_555
F15 Zr1 2.007772 1_555
F16 Zr0 2.188634 1_455
F16 Zr2 2.188634 1_555
F17 Zr1 2.188634 1_545
F17 Zr3 2.188634 1_555
