# generated using pymatgen
data_B3H7N
_symmetry_space_group_name_H-M   'P 1'
_cell_length_a   5.09335100
_cell_length_b   10.16287400
_cell_length_c   10.71472187
_cell_angle_alpha   61.73050356
_cell_angle_beta   90.00000000
_cell_angle_gamma   90.00000000
_symmetry_Int_Tables_number   1
_chemical_formula_structural   B3H7N
_chemical_formula_sum   'B12 H28 N4'
_cell_volume   488.47647774
_cell_formula_units_Z   4
loop_
 _symmetry_equiv_pos_site_id
 _symmetry_equiv_pos_as_xyz
  1  'x, y, z'
loop_
 _atom_site_type_symbol
 _atom_site_label
 _atom_site_symmetry_multiplicity
 _atom_site_fract_x
 _atom_site_fract_y
 _atom_site_fract_z
 _atom_site_occupancy
  B  B0  1  0.95052500  0.76507900  0.70709800  1
  B  B1  1  0.54947500  0.26507900  0.70709800  1
  B  B2  1  0.04947500  0.23492100  0.29290200  1
  B  B3  1  0.45052500  0.73492100  0.29290200  1
  B  B4  1  0.19806700  0.70130600  0.87532700  1
  B  B5  1  0.30193300  0.20130600  0.87532700  1
  B  B6  1  0.80193300  0.29869400  0.12467300  1
  B  B7  1  0.69806700  0.79869400  0.12467300  1
  B  B8  1  0.19425600  0.89122600  0.68343000  1
  B  B9  1  0.30574400  0.39122600  0.68343000  1
  B  B10  1  0.80574400  0.10877400  0.31657000  1
  B  B11  1  0.69425600  0.60877400  0.31657000  1
  H  H0  1  0.17861100  0.79205400  0.63012300  1
  H  H1  1  0.32138900  0.29205400  0.63012300  1
  H  H2  1  0.82138900  0.20794600  0.36987700  1
  H  H3  1  0.67861100  0.70794600  0.36987700  1
  H  H4  1  0.80858500  0.70822300  0.65737400  1
  H  H5  1  0.69141500  0.20822300  0.65737400  1
  H  H6  1  0.19141500  0.29177700  0.34262600  1
  H  H7  1  0.30858500  0.79177700  0.34262600  1
  H  H8  1  0.02468700  0.64129700  0.82542800  1
  H  H9  1  0.47531300  0.14129700  0.82542800  1
  H  H10  1  0.97531300  0.35870300  0.17457200  1
  H  H11  1  0.52468700  0.85870300  0.17457200  1
  H  H12  1  0.36701200  0.60798300  0.90210100  1
  H  H13  1  0.13298800  0.10798300  0.90210100  1
  H  H14  1  0.63298800  0.39201700  0.09789900  1
  H  H15  1  0.86701200  0.89201700  0.09789900  1
  H  H16  1  0.09629500  0.71987300  0.96601000  1
  H  H17  1  0.40370500  0.21987300  0.96601000  1
  H  H18  1  0.90370500  0.28012700  0.03399000  1
  H  H19  1  0.59629500  0.78012700  0.03399000  1
  H  H20  1  0.35221700  0.81635800  0.79703700  1
  H  H21  1  0.14778300  0.31635800  0.79703700  1
  H  H22  1  0.64778300  0.18364200  0.20296300  1
  H  H23  1  0.85221700  0.68364200  0.20296300  1
  H  H24  1  0.34778000  0.98144200  0.60330600  1
  H  H25  1  0.15222000  0.48144200  0.60330600  1
  H  H26  1  0.65222000  0.01855800  0.39669400  1
  H  H27  1  0.84778000  0.51855800  0.39669400  1
  N  N0  1  0.91898800  0.90276200  0.72179300  1
  N  N1  1  0.58101200  0.40276200  0.72179300  1
  N  N2  1  0.08101200  0.09723800  0.27820700  1
  N  N3  1  0.41898800  0.59723800  0.27820700  1
loop_
_geom_bond_atom_site_label_1
_geom_bond_atom_site_label_2
_geom_bond_distance
_geom_bond_site_symmetry_2
B0 H4 1.196660 1_555
B0 H8 1.349775 1_655
B0 H0 1.375070 1_655
B0 N0 1.489027 1_555
B1 H5 1.196660 1_555
B1 H9 1.349775 1_555
B1 H1 1.375070 1_555
B1 N1 1.489027 1_555
B2 H6 1.196660 1_555
B2 H10 1.349775 1_455
B2 H2 1.375070 1_455
B2 N2 1.489027 1_555
B3 H7 1.196660 1_555
B3 H11 1.349775 1_555
B3 H3 1.375070 1_555
B3 N3 1.489027 1_555
B4 H16 1.192503 1_555
B4 H12 1.210184 1_555
B4 H8 1.321549 1_555
B4 H20 1.325972 1_555
B5 H17 1.192503 1_555
B5 H13 1.210184 1_555
B5 H9 1.321549 1_555
B5 H21 1.325972 1_555
B6 H18 1.192503 1_555
B6 H14 1.210184 1_555
B6 H10 1.321549 1_555
B6 H22 1.325972 1_555
B7 H19 1.192503 1_555
B7 H15 1.210184 1_555
B7 H11 1.321549 1_555
B7 H23 1.325972 1_555
B8 H24 1.201460 1_555
B8 H20 1.353015 1_555
B8 H0 1.376112 1_555
B8 N0 1.481236 1_455
B9 H25 1.201460 1_555
B9 H21 1.353015 1_555
B9 H1 1.376112 1_555
B9 N1 1.481236 1_555
B10 H26 1.201460 1_555
B10 H22 1.353015 1_555
B10 H2 1.376112 1_555
B10 N2 1.481236 1_655
B11 H27 1.201460 1_555
B11 H23 1.353015 1_555
B11 H3 1.376112 1_555
B11 N3 1.481236 1_555
