# generated using pymatgen
data_BaTi(SiO3)3
_symmetry_space_group_name_H-M   'P 1'
_cell_length_a   6.65255723
_cell_length_b   6.65255906
_cell_length_c   9.78886771
_cell_angle_alpha   89.99999999
_cell_angle_beta   89.99999936
_cell_angle_gamma   119.99995831
_symmetry_Int_Tables_number   1
_chemical_formula_structural   BaTi(SiO3)3
_chemical_formula_sum   'Ba2 Ti2 Si6 O18'
_cell_volume   375.18082283
_cell_formula_units_Z   2
loop_
 _symmetry_equiv_pos_site_id
 _symmetry_equiv_pos_as_xyz
  1  'x, y, z'
loop_
 _atom_site_type_symbol
 _atom_site_label
 _atom_site_symmetry_multiplicity
 _atom_site_fract_x
 _atom_site_fract_y
 _atom_site_fract_z
 _atom_site_occupancy
  Ba  Ba0  1  0.66666694  0.33333287  0.49999964  1
  Ba  Ba1  1  0.66666692  0.33333285  0.00000036  1
  Ti  Ti0  1  0.33333325  0.66666692  0.49999977  1
  Ti  Ti1  1  0.33333324  0.66666692  0.00000022  1
  Si  Si0  1  0.21815619  0.92903325  0.24999999  1
  Si  Si1  1  0.21815605  0.28912372  0.75000001  1
  Si  Si2  1  0.71087587  0.92903189  0.75000002  1
  Si  Si3  1  0.71087720  0.78184403  0.24999999  1
  Si  Si4  1  0.07096693  0.28912285  0.24999998  1
  Si  Si5  1  0.07096777  0.78184395  0.75000000  1
  O  O0  1  0.08822747  0.65816730  0.61324403  1
  O  O1  1  0.34183290  0.91177528  0.38675633  1
  O  O2  1  0.56993951  0.91177228  0.61324402  1
  O  O3  1  0.34183264  0.43006018  0.88675589  1
  O  O4  1  0.56993951  0.91177229  0.88675598  1
  O  O5  1  0.08822748  0.65816730  0.88675595  1
  O  O6  1  0.56994258  0.65816723  0.11324379  1
  O  O7  1  0.08822452  0.43005752  0.11324381  1
  O  O8  1  0.25397190  0.19249632  0.24999998  1
  O  O9  1  0.93852495  0.74602880  0.25000002  1
  O  O10  1  0.80750435  0.06147551  0.25000000  1
  O  O11  1  0.80750416  0.74602794  0.75000000  1
  O  O12  1  0.56994258  0.65816722  0.38675622  1
  O  O13  1  0.25397134  0.06147580  0.74999999  1
  O  O14  1  0.93852366  0.19249478  0.75000001  1
  O  O15  1  0.08822455  0.43005751  0.38675620  1
  O  O16  1  0.34183290  0.91177529  0.11324367  1
  O  O17  1  0.34183264  0.43006020  0.61324412  1
loop_
_geom_bond_atom_site_label_1
_geom_bond_atom_site_label_2
_geom_bond_distance
_geom_bond_site_symmetry_2
Ba0 O15 2.775460 1_655
Ba0 O1 2.775463 1_545
Ba0 O12 2.775467 1_555
Ba0 O2 2.775478 1_545
Ba0 O0 2.775480 1_655
Ba0 O17 2.775483 1_555
Ba1 O7 2.775460 1_655
Ba1 O16 2.775463 1_545
Ba1 O6 2.775467 1_555
Ba1 O4 2.775477 1_544
Ba1 O5 2.775480 1_654
Ba1 O3 2.775483 1_554
O0 Si5 1.605204 1_555
O0 Ti0 1.949009 1_555
O1 Si0 1.605203 1_555
O1 Ti0 1.949019 1_555
O2 Si2 1.605204 1_555
O2 Ti0 1.949009 1_555
O3 Si1 1.605204 1_555
O3 Ti1 1.949012 1_556
O4 Si2 1.605204 1_555
O4 Ti1 1.949009 1_556
O5 Si5 1.605204 1_555
O5 Ti1 1.949009 1_556
O6 Si3 1.605202 1_555
O6 Ti1 1.949022 1_555
O7 Si4 1.605203 1_555
O7 Ti1 1.949023 1_555
O8 Si4 1.636456 1_555
O8 Si0 1.646551 1_545
O9 Si0 1.636456 1_655
O9 Si3 1.646551 1_555
O10 Si3 1.636457 1_545
O10 Si4 1.646550 1_655
O11 Si2 1.636459 1_555
O11 Si5 1.646554 1_655
O12 Si3 1.605203 1_555
O12 Ti0 1.949022 1_555
O13 Si5 1.636458 1_545
O13 Si1 1.646553 1_555
O14 Si1 1.636460 1_655
O14 Si2 1.646552 1_545
O15 Si4 1.605203 1_555
O15 Ti0 1.949023 1_555
O16 Si0 1.605203 1_555
O16 Ti1 1.949019 1_555
O17 Si1 1.605204 1_555
O17 Ti0 1.949012 1_555
