# generated using pymatgen
data_TlVTeO5
_symmetry_space_group_name_H-M   'P 1'
_cell_length_a   7.38666700
_cell_length_b   7.93803800
_cell_length_c   8.81933400
_cell_angle_alpha   90.00000000
_cell_angle_beta   90.00000000
_cell_angle_gamma   90.00000000
_symmetry_Int_Tables_number   1
_chemical_formula_structural   TlVTeO5
_chemical_formula_sum   'Tl4 V4 Te4 O20'
_cell_volume   517.12732291
_cell_formula_units_Z   4
loop_
 _symmetry_equiv_pos_site_id
 _symmetry_equiv_pos_as_xyz
  1  'x, y, z'
loop_
 _atom_site_type_symbol
 _atom_site_label
 _atom_site_symmetry_multiplicity
 _atom_site_fract_x
 _atom_site_fract_y
 _atom_site_fract_z
 _atom_site_occupancy
  Tl  Tl0  1  0.97647800  0.90223800  0.10770500  1
  Tl  Tl1  1  0.47647800  0.90223800  0.39229500  1
  Tl  Tl2  1  0.52352200  0.40223800  0.60770500  1
  Tl  Tl3  1  0.02352200  0.40223800  0.89229500  1
  V  V0  1  0.27834500  0.78550100  0.75776800  1
  V  V1  1  0.22165500  0.28550100  0.25776800  1
  V  V2  1  0.77834500  0.78550100  0.74223200  1
  V  V3  1  0.72165500  0.28550100  0.24223200  1
  Te  Te0  1  0.97726100  0.09707600  0.53256800  1
  Te  Te1  1  0.02273900  0.59707600  0.46743200  1
  Te  Te2  1  0.52273900  0.59707600  0.03256800  1
  Te  Te3  1  0.47726100  0.09707600  0.96743200  1
  O  O0  1  0.93631500  0.25937900  0.17490000  1
  O  O1  1  0.12760200  0.05103300  0.36468800  1
  O  O2  1  0.06368500  0.75937900  0.82510000  1
  O  O3  1  0.87239800  0.55103300  0.63531200  1
  O  O4  1  0.27470500  0.98169500  0.68179300  1
  O  O5  1  0.56368500  0.75937900  0.67490000  1
  O  O6  1  0.89877100  0.85990300  0.55065400  1
  O  O7  1  0.22529500  0.48169500  0.18179300  1
  O  O8  1  0.43631500  0.25937900  0.32510000  1
  O  O9  1  0.60122900  0.35990300  0.05065400  1
  O  O10  1  0.25534100  0.15017400  0.07763600  1
  O  O11  1  0.37239800  0.55103300  0.86468800  1
  O  O12  1  0.74465900  0.65017400  0.92236400  1
  O  O13  1  0.39877100  0.85990300  0.94934600  1
  O  O14  1  0.75534100  0.15017400  0.42236400  1
  O  O15  1  0.72529500  0.48169500  0.31820700  1
  O  O16  1  0.62760200  0.05103300  0.13531200  1
  O  O17  1  0.77470500  0.98169500  0.81820700  1
  O  O18  1  0.24465900  0.65017400  0.57763600  1
  O  O19  1  0.10122900  0.35990300  0.44934600  1
loop_
_geom_bond_atom_site_label_1
_geom_bond_atom_site_label_2
_geom_bond_distance
_geom_bond_site_symmetry_2
O0 V3 1.705820 1_555
O0 V1 2.240440 1_655
O0 Tl3 2.812997 1_654
O0 Tl0 2.911430 1_545
O1 Te0 1.886526 1_455
O1 V1 2.199083 1_555
O1 Tl0 2.788885 1_445
O1 Tl1 2.845252 1_545
O2 V0 1.705820 1_555
O2 V2 2.240440 1_455
O2 Tl0 2.812997 1_456
O2 Tl3 2.911430 1_555
O3 Te1 1.886526 1_655
O3 V2 2.199083 1_555
O3 Tl3 2.788885 1_655
O3 Tl2 2.845252 1_555
O4 V0 1.695632 1_555
O4 Te0 2.719969 1_465
O5 V2 1.705820 1_555
O5 V0 2.240440 1_555
O5 Tl1 2.812997 1_555
O5 Tl2 2.911430 1_555
O6 Te0 1.976386 1_565
O6 V2 1.998706 1_555
O6 Te1 2.393742 1_655
O7 V1 1.695632 1_555
O7 Te2 2.719969 1_555
O8 V1 1.705820 1_555
O8 V3 2.240440 1_555
O8 Tl2 2.812997 1_555
O8 Tl1 2.911430 1_545
O9 Te2 1.976386 1_555
O9 V3 1.998706 1_555
O9 Te3 2.393742 1_554
O10 V1 1.933825 1_555
O10 Te3 1.951777 1_554
O10 Tl0 2.861276 1_445
O11 Te2 1.886526 1_556
O11 V0 2.199083 1_555
O11 Tl2 2.788885 1_555
O11 Tl3 2.845252 1_555
O12 V2 1.933825 1_555
O12 Te2 1.951777 1_556
O12 Tl3 2.861276 1_655
O13 Te3 1.976386 1_565
O13 V0 1.998706 1_555
O13 Te2 2.393742 1_556
O14 V3 1.933825 1_555
O14 Te0 1.951777 1_555
O14 Tl1 2.861276 1_545
O15 V3 1.695632 1_555
O15 Te1 2.719969 1_655
O16 Te3 1.886526 1_554
O16 V3 2.199083 1_555
O16 Tl1 2.788885 1_545
O16 Tl0 2.845252 1_545
O17 V2 1.695632 1_555
O17 Te3 2.719969 1_565
O18 V0 1.933825 1_555
O18 Te1 1.951777 1_555
O18 Tl2 2.861276 1_555
O19 Te1 1.976386 1_555
O19 V1 1.998706 1_555
O19 Te0 2.393742 1_455
