# generated using pymatgen
data_Sr4Nb2O9
_symmetry_space_group_name_H-M   'P 1'
_cell_length_a   6.01562000
_cell_length_b   6.02141998
_cell_length_c   15.74330530
_cell_angle_alpha   94.03380157
_cell_angle_beta   94.11106628
_cell_angle_gamma   118.49888163
_symmetry_Int_Tables_number   1
_chemical_formula_structural   Sr4Nb2O9
_chemical_formula_sum   'Sr8 Nb4 O18'
_cell_volume   496.30432977
_cell_formula_units_Z   2
loop_
 _symmetry_equiv_pos_site_id
 _symmetry_equiv_pos_as_xyz
  1  'x, y, z'
loop_
 _atom_site_type_symbol
 _atom_site_label
 _atom_site_symmetry_multiplicity
 _atom_site_fract_x
 _atom_site_fract_y
 _atom_site_fract_z
 _atom_site_occupancy
  Sr  Sr0  1  0.33597400  0.68196100  0.95115400  1
  Sr  Sr1  1  0.62098600  0.30165800  0.81691300  1
  Sr  Sr2  1  0.71750700  0.43248400  0.56803000  1
  Sr  Sr3  1  0.07525100  0.03037300  0.20334900  1
  Sr  Sr4  1  0.95494700  0.97505100  0.77548300  1
  Sr  Sr5  1  0.44096300  0.76079500  0.41045900  1
  Sr  Sr6  1  0.39551400  0.68827200  0.16798000  1
  Sr  Sr7  1  0.69200500  0.34250600  0.04827900  1
  Nb  Nb0  1  0.00860100  0.98623000  0.99197300  1
  Nb  Nb1  1  0.26624800  0.55674600  0.70447800  1
  Nb  Nb2  1  0.77807400  0.37722000  0.30802400  1
  Nb  Nb3  1  0.05245200  0.10494700  0.49784100  1
  O  O0  1  0.78417800  0.04371700  0.90830300  1
  O  O1  1  0.29021700  0.87822900  0.72581300  1
  O  O2  1  0.30732300  0.11088900  0.92721200  1
  O  O3  1  0.90783300  0.30667400  0.69362100  1
  O  O4  1  0.77937100  0.56795700  0.40641000  1
  O  O5  1  0.88791400  0.62889400  0.93464900  1
  O  O6  1  0.28874100  0.44882200  0.81399400  1
  O  O7  1  0.59552300  0.57520900  0.69530800  1
  O  O8  1  0.78646100  0.87209200  0.54945400  1
  O  O9  1  0.33319100  0.04893300  0.49012000  1
  O  O10  1  0.11695300  0.32341800  0.06615400  1
  O  O11  1  0.88345700  0.13054200  0.39679100  1
  O  O12  1  0.19361300  0.43549400  0.56191100  1
  O  O13  1  0.11242400  0.44621200  0.28004400  1
  O  O14  1  0.71434800  0.54830800  0.21999700  1
  O  O15  1  0.72549500  0.82291000  0.07117300  1
  O  O16  1  0.47950500  0.04737200  0.28247100  1
  O  O17  1  0.25186300  0.93095300  0.08427500  1
loop_
_geom_bond_atom_site_label_1
_geom_bond_atom_site_label_2
_geom_bond_distance
_geom_bond_site_symmetry_2
Nb0 O2 1.978707 1_565
Nb0 O0 1.983103 1_465
Nb0 O5 2.028145 1_455
Nb0 O10 2.050713 1_566
Nb0 O15 2.073869 1_456
Nb0 O17 2.142853 1_556
Nb1 O1 1.875124 1_555
Nb1 O6 1.902995 1_555
Nb1 O3 1.938580 1_455
Nb1 O7 1.946756 1_555
Nb1 O12 2.255228 1_555
Nb2 O4 1.859495 1_555
Nb2 O14 1.905349 1_555
Nb2 O16 1.926739 1_555
Nb2 O13 1.940993 1_655
Nb2 O11 2.371649 1_555
Nb3 O8 1.841807 1_445
Nb3 O11 1.881544 1_455
Nb3 O9 1.883582 1_555
Nb3 O12 1.918829 1_555
O0 Sr4 2.488038 1_545
O0 Sr1 2.648224 1_555
O0 Sr0 2.707870 1_545
O0 Sr7 2.994984 1_556
O1 Sr4 2.510609 1_455
O1 Sr1 2.598450 1_565
O2 Sr1 2.564605 1_555
O2 Sr7 2.616626 1_556
O2 Sr0 2.719347 1_545
O2 Sr4 2.865818 1_445
O3 Sr2 2.551076 1_555
O3 Sr4 2.564842 1_545
O3 Sr1 2.680447 1_555
O4 Sr2 2.723261 1_555
O4 Sr5 2.785768 1_555
O5 Sr1 2.436536 1_555
O5 Sr7 2.521860 1_556
O5 Sr0 2.549624 1_655
O6 Sr0 2.412296 1_555
O6 Sr1 2.542571 1_555
O6 Sr4 2.579450 1_445
O7 Sr2 2.421267 1_555
O7 Sr4 2.505640 1_555
O7 Sr1 2.654086 1_555
O8 Sr2 2.518538 1_555
O8 Sr5 2.714701 1_555
O9 Sr5 2.426361 1_545
O9 Sr2 2.506554 1_555
O10 Sr6 2.410525 1_555
O10 Sr7 2.609405 1_455
O10 Sr0 2.802188 1_554
O10 Sr3 2.834292 1_555
O11 Sr5 2.565698 1_545
O12 Sr2 2.864051 1_455
O12 Sr2 3.154851 1_555
O12 Sr5 3.181259 1_555
O13 Sr6 2.561448 1_555
O13 Sr3 2.603694 1_555
O13 Sr5 2.647282 1_555
O14 Sr6 2.544408 1_555
O14 Sr3 2.717113 1_665
O14 Sr7 2.860032 1_555
O15 Sr6 2.447914 1_555
O15 Sr3 2.610707 1_665
O15 Sr0 2.650079 1_554
O15 Sr7 2.797331 1_555
O16 Sr6 2.541299 1_545
O16 Sr3 2.605021 1_555
O16 Sr5 2.695526 1_545
O17 Sr3 2.394986 1_565
O17 Sr6 2.435440 1_555
O17 Sr0 2.707398 1_554
O17 Sr7 2.761161 1_565
