# generated using pymatgen
data_ZnGaP2H4NO8
_symmetry_space_group_name_H-M   'P 1'
_cell_length_a   10.12274400
_cell_length_b   8.81565900
_cell_length_c   9.23004129
_cell_angle_alpha   89.52342983
_cell_angle_beta   90.00000000
_cell_angle_gamma   90.00000000
_symmetry_Int_Tables_number   1
_chemical_formula_structural   ZnGaP2H4NO8
_chemical_formula_sum   'Zn4 Ga4 P8 H16 N4 O32'
_cell_volume   823.64801651
_cell_formula_units_Z   4
loop_
 _symmetry_equiv_pos_site_id
 _symmetry_equiv_pos_as_xyz
  1  'x, y, z'
loop_
 _atom_site_type_symbol
 _atom_site_label
 _atom_site_symmetry_multiplicity
 _atom_site_fract_x
 _atom_site_fract_y
 _atom_site_fract_z
 _atom_site_occupancy
  Zn  Zn0  1  0.08509700  0.91876500  0.52579100  1
  Zn  Zn1  1  0.69392300  0.57275700  0.18147500  1
  Zn  Zn2  1  0.19392300  0.42724300  0.81852500  1
  Zn  Zn3  1  0.58509700  0.08123500  0.47420900  1
  Ga  Ga0  1  0.34886800  0.86547600  0.06717400  1
  Ga  Ga1  1  0.83599400  0.58317400  0.66578700  1
  Ga  Ga2  1  0.33599400  0.41682600  0.33421300  1
  Ga  Ga3  1  0.84886800  0.13452400  0.93282600  1
  P  P0  1  0.81183800  0.93233400  0.64376400  1
  P  P1  1  0.64241600  0.93682300  0.16647300  1
  P  P2  1  0.11209600  0.56754400  0.51071300  1
  P  P3  1  0.42277900  0.53027800  0.02177300  1
  P  P4  1  0.61209600  0.43245600  0.48928700  1
  P  P5  1  0.92277900  0.46972200  0.97822700  1
  P  P6  1  0.31183800  0.06766600  0.35623600  1
  P  P7  1  0.14241600  0.06317700  0.83352700  1
  H  H0  1  0.37646900  0.84690800  0.60982300  1
  H  H1  1  0.09426600  0.87413800  0.06948400  1
  H  H2  1  0.53226400  0.79827700  0.64288000  1
  H  H3  1  0.82819100  0.86259200  0.05082000  1
  H  H4  1  0.41096100  0.73485000  0.75624900  1
  H  H5  1  0.14922600  0.76754700  0.20703400  1
  H  H6  1  0.42400400  0.66385400  0.58785600  1
  H  H7  1  0.13407200  0.69264800  0.04337300  1
  H  H8  1  0.92400400  0.33614600  0.41214400  1
  H  H9  1  0.63407200  0.30735200  0.95662700  1
  H  H10  1  0.91096100  0.26515000  0.24375100  1
  H  H11  1  0.64922600  0.23245300  0.79296600  1
  H  H12  1  0.03226400  0.20172300  0.35712000  1
  H  H13  1  0.32819100  0.13740800  0.94918000  1
  H  H14  1  0.87646900  0.15309200  0.39017700  1
  H  H15  1  0.59426600  0.12586200  0.93051600  1
  N  N0  1  0.43492100  0.76024600  0.64950800  1
  N  N1  1  0.16018900  0.79017000  0.09800300  1
  N  N2  1  0.93492100  0.23975400  0.35049200  1
  N  N3  1  0.66018900  0.20983000  0.90199700  1
  O  O0  1  0.89325100  0.94938300  0.50358400  1
  O  O1  1  0.53474500  0.94820300  0.04788400  1
  O  O2  1  0.66260800  0.93321000  0.61065000  1
  O  O3  1  0.78597800  0.96127100  0.06892600  1
  O  O4  1  0.14702000  0.93053200  0.73040800  1
  O  O5  1  0.35080900  0.93391500  0.25739300  1
  O  O6  1  0.84756800  0.78146800  0.72634900  1
  O  O7  1  0.65614800  0.78222000  0.23661000  1
  O  O8  1  0.12545900  0.72355900  0.43705800  1
  O  O9  1  0.39759400  0.69404600  0.95507200  1
  O  O10  1  0.66722900  0.55554300  0.59460000  1
  O  O11  1  0.18513600  0.56510100  0.65576400  1
  O  O12  1  0.86020700  0.59048600  0.07524100  1
  O  O13  1  0.35623500  0.54136100  0.17465900  1
  O  O14  1  0.96182200  0.52216200  0.53005500  1
  O  O15  1  0.57061600  0.49638300  0.03494200  1
  O  O16  1  0.46182200  0.47783800  0.46994500  1
  O  O17  1  0.07061600  0.50361700  0.96505800  1
  O  O18  1  0.68513600  0.43489900  0.34423600  1
  O  O19  1  0.16722900  0.44445700  0.40540000  1
  O  O20  1  0.85623500  0.45863900  0.82534100  1
  O  O21  1  0.36020700  0.40951400  0.92475900  1
  O  O22  1  0.62545900  0.27644100  0.56294200  1
  O  O23  1  0.89759400  0.30595400  0.04492800  1
  O  O24  1  0.34756800  0.21853200  0.27365100  1
  O  O25  1  0.15614800  0.21778000  0.76339000  1
  O  O26  1  0.64702000  0.06946800  0.26959200  1
  O  O27  1  0.85080900  0.06608500  0.74260700  1
  O  O28  1  0.16260800  0.06679000  0.38935000  1
  O  O29  1  0.28597800  0.03872900  0.93107400  1
  O  O30  1  0.39325100  0.05061700  0.49641600  1
  O  O31  1  0.03474500  0.05179700  0.95211600  1
loop_
_geom_bond_atom_site_label_1
_geom_bond_atom_site_label_2
_geom_bond_distance
_geom_bond_site_symmetry_2
Ga0 O5 1.861345 1_555
Ga0 O9 1.903641 1_554
Ga0 O1 2.025283 1_555
Ga0 N1 2.041191 1_555
Ga0 O29 2.069829 1_564
Ga1 O20 1.840976 1_555
Ga1 O6 1.843442 1_555
Ga1 O10 1.847223 1_555
Ga1 O14 1.868801 1_555
Ga2 O13 1.840976 1_555
Ga2 O24 1.843442 1_555
Ga2 O19 1.847223 1_555
Ga2 O16 1.868801 1_555
Ga3 O27 1.861345 1_555
Ga3 O23 1.903641 1_556
Ga3 O31 2.025283 1_655
Ga3 N3 2.041191 1_555
Ga3 O3 2.069829 1_546
H0 N0 1.031159 1_555
H1 N1 1.029229 1_555
H2 N0 1.042486 1_555
H3 O3 0.984735 1_555
H4 N0 1.037278 1_555
H5 N1 1.030298 1_555
H6 N0 1.032553 1_555
H7 N1 1.034640 1_555
H8 N2 1.032553 1_555
H9 N3 1.034640 1_555
H10 N2 1.037278 1_555
H11 N3 1.030298 1_555
H12 N2 1.042486 1_455
H13 O29 0.984735 1_555
H14 N2 1.031159 1_555
H15 N3 1.029229 1_555
O0 P0 1.540333 1_555
O0 Zn0 1.971127 1_655
O1 P1 1.547348 1_555
O2 P0 1.541234 1_555
O2 Zn3 1.969045 1_565
O3 P1 1.722146 1_555
O4 P7 1.514590 1_565
O4 Zn0 1.993448 1_555
O5 P6 1.547947 1_565
O6 P0 1.569666 1_555
O7 P1 1.510397 1_555
O7 Zn1 1.957190 1_555
O8 P2 1.535116 1_555
O8 Zn0 1.955133 1_555
O9 P3 1.585425 1_556
O10 P4 1.565667 1_555
O11 P2 1.529412 1_555
O11 Zn2 1.926498 1_555
O12 P5 1.533713 1_554
O12 Zn1 1.953632 1_555
O13 P3 1.567455 1_555
O14 P2 1.582639 1_655
O15 P3 1.530691 1_555
O15 Zn1 1.963607 1_555
O16 P4 1.582639 1_555
O17 P5 1.530691 1_455
O17 Zn2 1.963607 1_555
O18 P4 1.529412 1_555
O18 Zn1 1.926498 1_555
O19 P2 1.565667 1_555
O20 P5 1.567455 1_555
O21 P3 1.533713 1_556
O21 Zn2 1.953632 1_555
O22 P4 1.535116 1_555
O22 Zn3 1.955133 1_555
O23 P5 1.585425 1_554
O24 P6 1.569666 1_555
O25 P7 1.510397 1_555
O25 Zn2 1.957190 1_555
O26 P1 1.514590 1_545
O26 Zn3 1.993448 1_555
O27 P0 1.547947 1_545
O28 P6 1.541234 1_555
O28 Zn0 1.969045 1_545
O29 P7 1.722146 1_555
O30 P6 1.540333 1_555
O30 Zn3 1.971127 1_555
O31 P7 1.547348 1_555
