# generated using pymatgen
data_Li3InCl6
_symmetry_space_group_name_H-M   'P 1'
_cell_length_a   6.55511455
_cell_length_b   6.55511455
_cell_length_c   35.89314868
_cell_angle_alpha   89.63131283
_cell_angle_beta   89.63131283
_cell_angle_gamma   119.68783153
_symmetry_Int_Tables_number   1
_chemical_formula_structural   Li3InCl6
_chemical_formula_sum   'Li18 In6 Cl36'
_cell_volume   1339.75280827
_cell_formula_units_Z   6
loop_
 _symmetry_equiv_pos_site_id
 _symmetry_equiv_pos_as_xyz
  1  'x, y, z'
loop_
 _atom_site_type_symbol
 _atom_site_label
 _atom_site_symmetry_multiplicity
 _atom_site_fract_x
 _atom_site_fract_y
 _atom_site_fract_z
 _atom_site_occupancy
  Li  Li0  1  0.33450100  0.00057000  0.08351500  1
  Li  Li1  1  0.01842800  0.34243300  0.08363200  1
  Li  Li2  1  0.64345500  0.65418500  0.08311200  1
  Li  Li3  1  0.34321500  0.65593200  0.24999100  1
  Li  Li4  1  0.65822700  0.34380200  0.24996900  1
  Li  Li5  1  0.99803400  0.99854700  0.24995000  1
  Li  Li6  1  0.67589900  0.99075600  0.41666300  1
  Li  Li7  1  0.99077900  0.67586300  0.41666100  1
  Li  Li8  1  0.33335500  0.33336300  0.41666400  1
  Li  Li9  1  0.00924400  0.32410100  0.58333700  1
  Li  Li10  1  0.32413700  0.00922100  0.58333900  1
  Li  Li11  1  0.66663700  0.66664500  0.58333600  1
  Li  Li12  1  0.34406800  0.65678500  0.75000900  1
  Li  Li13  1  0.00145300  0.00196600  0.75005000  1
  Li  Li14  1  0.65619800  0.34177300  0.75003100  1
  Li  Li15  1  0.34581500  0.35654500  0.91688800  1
  Li  Li16  1  0.65756700  0.98157200  0.91636800  1
  Li  Li17  1  0.99943000  0.66549900  0.91648500  1
  In  In0  1  0.33119400  0.66880600  0.00000000  1
  In  In1  1  0.33192600  0.33041700  0.16669300  1
  In  In2  1  0.66682000  0.66676000  0.33332700  1
  In  In3  1  0.00006600  0.99993400  0.50000000  1
  In  In4  1  0.33324000  0.33318000  0.66667300  1
  In  In5  1  0.66958300  0.66807400  0.83330700  1
  Cl  Cl0  1  0.33123400  0.35418000  0.04113400  1
  Cl  Cl1  1  0.63775100  0.97243600  0.04453500  1
  Cl  Cl2  1  0.02540800  0.66671700  0.04437000  1
  Cl  Cl3  1  0.64025800  0.33192000  0.12178100  1
  Cl  Cl4  1  0.32968800  0.64375500  0.12562700  1
  Cl  Cl5  1  0.02797400  0.02762000  0.12277200  1
  Cl  Cl6  1  0.64481800  0.64211400  0.20751500  1
  Cl  Cl7  1  0.33451600  0.02633400  0.21113100  1
  Cl  Cl8  1  0.02549300  0.33238900  0.21171500  1
  Cl  Cl9  1  0.66283600  0.97238500  0.28838400  1
  Cl  Cl10  1  0.97328100  0.66399200  0.28841600  1
  Cl  Cl11  1  0.35652400  0.35611400  0.29298600  1
  Cl  Cl12  1  0.97644300  0.97647700  0.37364600  1
  Cl  Cl13  1  0.66978100  0.36109700  0.37828400  1
  Cl  Cl14  1  0.36112300  0.66971600  0.37828700  1
  Cl  Cl15  1  0.30571600  0.99689500  0.45501600  1
  Cl  Cl16  1  0.99692200  0.30561700  0.45502600  1
  Cl  Cl17  1  0.69006500  0.69004000  0.45965000  1
  Cl  Cl18  1  0.30996000  0.30993500  0.54035000  1
  Cl  Cl19  1  0.00310500  0.69428400  0.54498400  1
  Cl  Cl20  1  0.69438300  0.00307800  0.54497400  1
  Cl  Cl21  1  0.63890300  0.33021900  0.62171600  1
  Cl  Cl22  1  0.33028400  0.63887700  0.62171300  1
  Cl  Cl23  1  0.02352300  0.02355700  0.62635400  1
  Cl  Cl24  1  0.64388600  0.64347600  0.70701400  1
  Cl  Cl25  1  0.33600800  0.02671900  0.71158400  1
  Cl  Cl26  1  0.02761500  0.33716400  0.71161600  1
  Cl  Cl27  1  0.97366600  0.66548400  0.78886900  1
  Cl  Cl28  1  0.66761100  0.97450700  0.78828500  1
  Cl  Cl29  1  0.35788600  0.35518200  0.79248500  1
  Cl  Cl30  1  0.97238000  0.97202600  0.87722800  1
  Cl  Cl31  1  0.66808000  0.35974200  0.87821900  1
  Cl  Cl32  1  0.35624500  0.67031200  0.87437300  1
  Cl  Cl33  1  0.02756400  0.36224900  0.95546500  1
  Cl  Cl34  1  0.33328300  0.97459200  0.95563000  1
  Cl  Cl35  1  0.64582000  0.66876600  0.95886600  1
loop_
_geom_bond_atom_site_label_1
_geom_bond_atom_site_label_2
_geom_bond_distance
_geom_bond_site_symmetry_2
Cl0 Li1 2.517744 1_555
Cl0 In0 2.528780 1_555
Cl0 Li2 2.533249 1_555
Cl0 Li0 2.773372 1_555
Cl1 Li0 2.504735 1_565
Cl1 Li2 2.512274 1_555
Cl1 In0 2.583653 1_555
Cl1 Li1 2.858758 1_665
Cl2 Li1 2.524083 1_555
Cl2 In0 2.546726 1_555
Cl2 Li0 2.559822 1_565
Cl2 Li2 2.821200 1_455
Cl3 Li2 2.511469 1_555
Cl3 Li0 2.526447 1_555
Cl3 In1 2.573313 1_555
Cl3 Li1 2.794774 1_655
Cl4 Li2 2.526391 1_555
Cl4 In1 2.526420 1_555
Cl4 Li1 2.534240 1_555
Cl4 Li0 2.763560 1_565
Cl5 Li1 2.515525 1_555
Cl5 Li0 2.524667 1_555
Cl5 In1 2.560878 1_555
Cl5 Li2 2.889836 1_445
Cl6 Li4 2.507431 1_555
Cl6 Li3 2.526196 1_555
Cl6 In1 2.540568 1_555
Cl6 Li5 2.805787 1_555
Cl7 Li5 2.529585 1_445
Cl7 Li4 2.545189 1_555
Cl7 In1 2.551582 1_555
Cl7 Li3 2.817560 1_545
Cl8 Li5 2.504552 1_445
Cl8 Li3 2.534188 1_555
Cl8 In1 2.575008 1_555
Cl8 Li4 2.797139 1_455
Cl9 Li5 2.518953 1_555
Cl9 Li3 2.522027 1_555
Cl9 In2 2.574361 1_555
Cl9 Li4 2.803563 1_565
Cl10 Li5 2.519462 1_555
Cl10 Li4 2.520923 1_555
Cl10 In2 2.574742 1_555
Cl10 Li3 2.805388 1_655
Cl11 In2 2.520622 1_555
Cl11 Li3 2.526710 1_555
Cl11 Li4 2.534205 1_555
Cl11 Li5 2.835403 1_445
Cl12 In2 2.515842 1_555
Cl12 Li6 2.533656 1_555
Cl12 Li7 2.534135 1_555
Cl12 Li8 2.828804 1_665
Cl13 Li8 2.520856 1_555
Cl13 Li7 2.521035 1_555
Cl13 In2 2.572196 1_555
Cl13 Li6 2.801200 1_545
Cl14 Li8 2.520317 1_555
Cl14 Li6 2.521161 1_555
Cl14 In2 2.572423 1_555
Cl14 Li7 2.801215 1_455
Cl15 Li8 2.520771 1_565
Cl15 Li7 2.521150 1_455
Cl15 In3 2.572936 1_555
Cl15 Li6 2.799906 1_555
Cl16 Li8 2.520517 1_655
Cl16 Li6 2.521081 1_545
Cl16 In3 2.573155 1_645
Cl16 Li7 2.800487 1_555
Cl17 In3 2.517989 1_655
Cl17 Li6 2.533583 1_555
Cl17 Li7 2.533646 1_555
Cl17 Li8 2.827030 1_555
Cl18 In3 2.517989 1_545
Cl18 Li9 2.533583 1_555
Cl18 Li10 2.533646 1_555
Cl18 Li11 2.827030 1_555
Cl19 Li11 2.520771 1_455
Cl19 Li10 2.521150 1_565
Cl19 In3 2.572936 1_555
Cl19 Li9 2.799906 1_555
Cl20 Li11 2.520517 1_545
Cl20 Li9 2.521081 1_655
Cl20 In3 2.573155 1_645
Cl20 Li10 2.800487 1_555
Cl21 Li11 2.520856 1_555
Cl21 Li10 2.521035 1_555
Cl21 In4 2.572196 1_555
Cl21 Li9 2.801200 1_655
Cl22 Li11 2.520317 1_555
Cl22 Li9 2.521161 1_555
Cl22 In4 2.572423 1_555
Cl22 Li10 2.801215 1_565
Cl23 In4 2.515842 1_555
Cl23 Li9 2.533656 1_555
Cl23 Li10 2.534135 1_555
Cl23 Li11 2.828804 1_445
Cl24 In4 2.520622 1_555
Cl24 Li12 2.526710 1_555
Cl24 Li14 2.534205 1_555
Cl24 Li13 2.835403 1_665
Cl25 Li13 2.519462 1_555
Cl25 Li14 2.520923 1_555
Cl25 In4 2.574742 1_555
Cl25 Li12 2.805388 1_545
Cl26 Li13 2.518953 1_555
Cl26 Li12 2.522027 1_555
Cl26 In4 2.574361 1_555
Cl26 Li14 2.803563 1_455
Cl27 Li13 2.529585 1_665
Cl27 Li14 2.545189 1_555
Cl27 In5 2.551582 1_555
Cl27 Li12 2.817560 1_655
Cl28 Li13 2.504552 1_665
Cl28 Li12 2.534188 1_555
Cl28 In5 2.575008 1_555
Cl28 Li14 2.797139 1_565
Cl29 Li14 2.507431 1_555
Cl29 Li12 2.526196 1_555
Cl29 In5 2.540568 1_555
Cl29 Li13 2.805787 1_555
Cl30 Li16 2.515525 1_555
Cl30 Li17 2.524667 1_555
Cl30 In5 2.560878 1_555
Cl30 Li15 2.889836 1_665
Cl31 Li15 2.511469 1_555
Cl31 Li17 2.526447 1_555
Cl31 In5 2.573313 1_555
Cl31 Li16 2.794774 1_545
Cl32 Li15 2.526391 1_555
Cl32 In5 2.526420 1_555
Cl32 Li16 2.534240 1_555
Cl32 Li17 2.763560 1_455
Cl33 Li17 2.504735 1_455
Cl33 Li15 2.512274 1_555
Cl33 In0 2.583653 1_556
Cl33 Li16 2.858758 1_445
Cl34 Li16 2.524083 1_555
Cl34 In0 2.546726 1_556
Cl34 Li17 2.559822 1_455
Cl34 Li15 2.821200 1_565
Cl35 Li16 2.517744 1_555
Cl35 In0 2.528780 1_556
Cl35 Li15 2.533249 1_555
Cl35 Li17 2.773372 1_555
