# generated using pymatgen
data_Sc3TaO7
_symmetry_space_group_name_H-M   'P 1'
_cell_length_a   7.74901333
_cell_length_b   7.74901333
_cell_length_c   5.10293100
_cell_angle_alpha   90.00000000
_cell_angle_beta   90.00000000
_cell_angle_gamma   124.97115893
_symmetry_Int_Tables_number   1
_chemical_formula_structural   Sc3TaO7
_chemical_formula_sum   'Sc6 Ta2 O14'
_cell_volume   251.09035073
_cell_formula_units_Z   2
loop_
 _symmetry_equiv_pos_site_id
 _symmetry_equiv_pos_as_xyz
  1  'x, y, z'
loop_
 _atom_site_type_symbol
 _atom_site_label
 _atom_site_symmetry_multiplicity
 _atom_site_fract_x
 _atom_site_fract_y
 _atom_site_fract_z
 _atom_site_occupancy
  Sc  Sc0  1  0.37425500  0.62574500  0.52763000  1
  Sc  Sc1  1  0.50000000  0.00000000  0.00000000  1
  Sc  Sc2  1  0.87425500  0.12574500  0.47237000  1
  Sc  Sc3  1  0.62574500  0.37425500  0.47237000  1
  Sc  Sc4  1  0.00000000  0.50000000  0.00000000  1
  Sc  Sc5  1  0.12574500  0.87425500  0.52763000  1
  Ta  Ta0  1  0.75000000  0.75000000  0.00000000  1
  Ta  Ta1  1  0.25000000  0.25000000  0.00000000  1
  O  O0  1  0.52153800  0.47846200  0.21974700  1
  O  O1  1  0.66896200  0.92365200  0.75786000  1
  O  O2  1  0.97846200  0.02153800  0.21974700  1
  O  O3  1  0.02153800  0.97846200  0.78025300  1
  O  O4  1  0.75000000  0.25000000  0.23597300  1
  O  O5  1  0.07634800  0.33103800  0.75786000  1
  O  O6  1  0.16896200  0.42365200  0.24214000  1
  O  O7  1  0.83103800  0.57634800  0.75786000  1
  O  O8  1  0.47846200  0.52153800  0.78025300  1
  O  O9  1  0.25000000  0.75000000  0.76402700  1
  O  O10  1  0.57634800  0.83103800  0.24214000  1
  O  O11  1  0.42365200  0.16896200  0.75786000  1
  O  O12  1  0.33103800  0.07634800  0.24214000  1
  O  O13  1  0.92365200  0.66896200  0.24214000  1
loop_
_geom_bond_atom_site_label_1
_geom_bond_atom_site_label_2
_geom_bond_distance
_geom_bond_site_symmetry_2
O0 Sc3 1.927022 1_555
O0 Ta1 2.132807 1_555
O0 Ta0 2.132807 1_555
O0 Sc0 2.562549 1_555
O1 Sc2 2.061480 1_565
O1 Sc1 2.116358 1_566
O1 Ta0 2.168061 1_556
O1 Sc0 2.425144 1_555
O2 Sc2 1.927022 1_555
O2 Ta1 2.132807 1_655
O2 Ta0 2.132807 1_545
O2 Sc5 2.562549 1_645
O3 Sc5 1.927022 1_555
O3 Ta1 2.132807 1_566
O3 Ta0 2.132807 1_456
O3 Sc2 2.562549 1_465
O4 Sc2 2.090962 1_555
O4 Sc3 2.090962 1_555
O4 Sc1 2.157261 1_555
O4 Sc4 2.157261 1_655
O5 Sc2 2.061480 1_455
O5 Sc4 2.116358 1_556
O5 Ta1 2.168061 1_556
O5 Sc0 2.425144 1_555
O6 Sc0 2.061480 1_555
O6 Sc4 2.116358 1_555
O6 Ta1 2.168061 1_555
O6 Sc2 2.425144 1_455
O7 Sc3 2.061480 1_555
O7 Sc4 2.116358 1_656
O7 Ta0 2.168061 1_556
O7 Sc5 2.425144 1_655
O8 Sc0 1.927022 1_555
O8 Ta1 2.132807 1_556
O8 Ta0 2.132807 1_556
O8 Sc3 2.562549 1_555
O9 Sc0 2.090962 1_555
O9 Sc5 2.090962 1_555
O9 Sc4 2.157261 1_556
O9 Sc1 2.157261 1_566
O10 Sc0 2.061480 1_555
O10 Sc1 2.116358 1_565
O10 Ta0 2.168061 1_555
O10 Sc2 2.425144 1_565
O11 Sc3 2.061480 1_555
O11 Sc1 2.116358 1_556
O11 Ta1 2.168061 1_556
O11 Sc5 2.425144 1_545
O12 Sc5 2.061480 1_545
O12 Sc1 2.116358 1_555
O12 Ta1 2.168061 1_555
O12 Sc3 2.425144 1_555
O13 Sc5 2.061480 1_655
O13 Sc4 2.116358 1_655
O13 Ta0 2.168061 1_555
O13 Sc3 2.425144 1_555
