# generated using pymatgen
data_Er2O3
_symmetry_space_group_name_H-M   'P 1'
_cell_length_a   9.05387457
_cell_length_b   9.05387505
_cell_length_c   9.05387466
_cell_angle_alpha   109.47122204
_cell_angle_beta   109.47122313
_cell_angle_gamma   109.47122024
_symmetry_Int_Tables_number   1
_chemical_formula_structural   Er2O3
_chemical_formula_sum   'Er16 O24'
_cell_volume   571.32277713
_cell_formula_units_Z   8
loop_
 _symmetry_equiv_pos_site_id
 _symmetry_equiv_pos_as_xyz
  1  'x, y, z'
loop_
 _atom_site_type_symbol
 _atom_site_label
 _atom_site_symmetry_multiplicity
 _atom_site_fract_x
 _atom_site_fract_y
 _atom_site_fract_z
 _atom_site_occupancy
  Er  Er0  1  0.25000000  0.03250711  0.78250711  1
  Er  Er1  1  0.71749289  0.75000000  0.46749289  1
  Er  Er2  1  0.46749289  0.71749289  0.75000000  1
  Er  Er3  1  0.78250711  0.25000000  0.03250711  1
  Er  Er4  1  0.03250711  0.78250711  0.25000000  1
  Er  Er5  1  0.75000000  0.46749289  0.71749289  1
  Er  Er6  1  0.75000000  0.96749289  0.21749289  1
  Er  Er7  1  0.28250711  0.25000000  0.53250711  1
  Er  Er8  1  0.53250711  0.28250711  0.25000000  1
  Er  Er9  1  0.21749289  0.75000000  0.96749289  1
  Er  Er10  1  0.96749289  0.21749289  0.75000000  1
  Er  Er11  1  0.25000000  0.53250711  0.28250711  1
  Er  Er12  1  0.50000000  0.50000000  0.00000000  1
  Er  Er13  1  0.50000000  0.00000000  0.50000000  1
  Er  Er14  1  0.00000000  0.50000000  0.50000000  1
  Er  Er15  1  0.00000000  0.00000000  0.00000000  1
  O  O0  1  0.01202646  0.46873172  0.73971722  1
  O  O1  1  0.22901350  0.27231224  0.76028278  1
  O  O2  1  0.27098650  0.03126828  0.04329674  1
  O  O3  1  0.22768776  0.45670326  0.48797354  1
  O  O4  1  0.45670326  0.48797354  0.22768776  1
  O  O5  1  0.73971722  0.01202646  0.46873172  1
  O  O6  1  0.27231224  0.76028278  0.22901350  1
  O  O7  1  0.04329674  0.27098650  0.03126828  1
  O  O8  1  0.46873172  0.73971722  0.01202646  1
  O  O9  1  0.76028278  0.22901350  0.27231224  1
  O  O10  1  0.03126828  0.04329674  0.27098650  1
  O  O11  1  0.48797354  0.22768776  0.45670326  1
  O  O12  1  0.98797354  0.53126828  0.26028278  1
  O  O13  1  0.77098650  0.72768776  0.23971722  1
  O  O14  1  0.72901350  0.96873172  0.95670326  1
  O  O15  1  0.77231224  0.54329674  0.51202646  1
  O  O16  1  0.51202646  0.77231224  0.54329674  1
  O  O17  1  0.96873172  0.95670326  0.72901350  1
  O  O18  1  0.23971722  0.77098650  0.72768776  1
  O  O19  1  0.53126828  0.26028278  0.98797354  1
  O  O20  1  0.95670326  0.72901350  0.96873172  1
  O  O21  1  0.72768776  0.23971722  0.77098650  1
  O  O22  1  0.26028278  0.98797354  0.53126828  1
  O  O23  1  0.54329674  0.51202646  0.77231224  1
loop_
_geom_bond_atom_site_label_1
_geom_bond_atom_site_label_2
_geom_bond_distance
_geom_bond_site_symmetry_2
Er0 O18 2.213626 1_545
Er0 O22 2.213639 1_545
Er0 O17 2.231949 1_445
Er0 O19 2.231954 1_555
Er0 O2 2.308955 1_556
Er0 O1 2.308969 1_555
Er1 O17 2.213632 1_555
Er1 O15 2.213634 1_555
Er1 O13 2.231955 1_555
Er1 O16 2.231971 1_555
Er1 O5 2.308939 1_565
Er1 O4 2.308953 1_555
Er2 O14 2.213632 1_555
Er2 O16 2.213634 1_555
Er2 O18 2.231955 1_555
Er2 O23 2.231971 1_555
Er2 O8 2.308939 1_556
Er2 O3 2.308953 1_555
Er3 O21 2.213626 1_554
Er3 O19 2.213639 1_554
Er3 O14 2.231949 1_544
Er3 O12 2.231954 1_555
Er3 O7 2.308955 1_655
Er3 O9 2.308969 1_555
Er4 O13 2.213626 1_455
Er4 O12 2.213639 1_455
Er4 O20 2.231949 1_454
Er4 O22 2.231954 1_555
Er4 O10 2.308955 1_565
Er4 O6 2.308969 1_555
Er5 O20 2.213632 1_555
Er5 O23 2.213634 1_555
Er5 O21 2.231955 1_555
Er5 O15 2.231971 1_555
Er5 O0 2.308939 1_655
Er5 O11 2.308952 1_555
Er6 O9 2.213626 1_565
Er6 O5 2.213639 1_565
Er6 O10 2.231949 1_665
Er6 O8 2.231954 1_555
Er6 O14 2.308955 1_554
Er6 O13 2.308969 1_555
Er7 O10 2.213632 1_555
Er7 O3 2.213634 1_555
Er7 O1 2.231955 1_555
Er7 O11 2.231971 1_555
Er7 O22 2.308939 1_545
Er7 O23 2.308953 1_555
Er8 O2 2.213632 1_555
Er8 O11 2.213634 1_555
Er8 O9 2.231955 1_555
Er8 O4 2.231971 1_555
Er8 O19 2.308939 1_554
Er8 O15 2.308953 1_555
Er9 O6 2.213626 1_556
Er9 O8 2.213639 1_556
Er9 O2 2.231949 1_566
Er9 O0 2.231954 1_555
Er9 O20 2.308955 1_455
Er9 O18 2.308969 1_555
Er10 O1 2.213626 1_655
Er10 O0 2.213639 1_655
Er10 O7 2.231949 1_656
Er10 O5 2.231954 1_555
Er10 O17 2.308955 1_545
Er10 O21 2.308969 1_555
Er11 O7 2.213632 1_555
Er11 O4 2.213634 1_555
Er11 O6 2.231955 1_555
Er11 O3 2.231971 1_555
Er11 O12 2.308939 1_455
Er11 O16 2.308952 1_555
Er12 O23 2.252786 1_554
Er12 O4 2.252786 1_555
Er12 O1 2.252802 1_554
Er12 O13 2.252802 1_555
Er12 O8 2.252804 1_555
Er12 O19 2.252804 1_554
Er13 O16 2.252786 1_545
Er13 O11 2.252786 1_555
Er13 O21 2.252802 1_555
Er13 O6 2.252802 1_545
Er13 O5 2.252804 1_555
Er13 O22 2.252804 1_545
Er14 O15 2.252786 1_455
Er14 O3 2.252786 1_555
Er14 O9 2.252802 1_455
Er14 O18 2.252802 1_555
Er14 O0 2.252804 1_555
Er14 O12 2.252804 1_455
Er15 O2 2.252809 1_555
Er15 O14 2.252809 1_444
Er15 O17 2.252809 1_444
Er15 O10 2.252809 1_555
Er15 O20 2.252809 1_444
Er15 O7 2.252809 1_555
