# generated using pymatgen
data_Th2Cu(PO4)3
_symmetry_space_group_name_H-M   'P 1'
_cell_length_a   11.55121409
_cell_length_b   11.55121409
_cell_length_c   7.12744036
_cell_angle_alpha   73.66393824
_cell_angle_beta   73.66393824
_cell_angle_gamma   34.18845083
_symmetry_Int_Tables_number   1
_chemical_formula_structural   Th2Cu(PO4)3
_chemical_formula_sum   'Th4 Cu2 P6 O24'
_cell_volume   510.73117857
_cell_formula_units_Z   2
loop_
 _symmetry_equiv_pos_site_id
 _symmetry_equiv_pos_as_xyz
  1  'x, y, z'
loop_
 _atom_site_type_symbol
 _atom_site_label
 _atom_site_symmetry_multiplicity
 _atom_site_fract_x
 _atom_site_fract_y
 _atom_site_fract_z
 _atom_site_occupancy
  Th  Th0  1  0.99347800  0.28635700  0.34303200  1
  Th  Th1  1  0.71364300  0.00652200  0.15696800  1
  Th  Th2  1  0.00652200  0.71364300  0.65696800  1
  Th  Th3  1  0.28635700  0.99347800  0.84303200  1
  Cu  Cu0  1  0.50000000  0.50000000  0.00000000  1
  Cu  Cu1  1  0.50000000  0.50000000  0.50000000  1
  P  P0  1  0.85901100  0.14098900  0.75000000  1
  P  P1  1  0.14098900  0.85901100  0.25000000  1
  P  P2  1  0.13582900  0.50122300  0.19493500  1
  P  P3  1  0.49877700  0.86417100  0.30506500  1
  P  P4  1  0.86417100  0.49877700  0.80506500  1
  P  P5  1  0.50122300  0.13582900  0.69493500  1
  O  O0  1  0.03876900  0.06572900  0.78854900  1
  O  O1  1  0.93427100  0.96123100  0.71145100  1
  O  O2  1  0.96123100  0.93427100  0.21145100  1
  O  O3  1  0.06572900  0.03876900  0.28854900  1
  O  O4  1  0.75865200  0.31194700  0.57289100  1
  O  O5  1  0.68805300  0.24134800  0.92710900  1
  O  O6  1  0.24134800  0.68805300  0.42710900  1
  O  O7  1  0.31194700  0.75865200  0.07289100  1
  O  O8  1  0.01658800  0.64232800  0.36202100  1
  O  O9  1  0.35767200  0.98341200  0.13797900  1
  O  O10  1  0.98341200  0.35767200  0.63797900  1
  O  O11  1  0.64232800  0.01658800  0.86202100  1
  O  O12  1  0.33984600  0.36823600  0.67765400  1
  O  O13  1  0.63176400  0.66015400  0.82234600  1
  O  O14  1  0.66015400  0.63176400  0.32234600  1
  O  O15  1  0.36823600  0.33984600  0.17765400  1
  O  O16  1  0.66223300  0.03203600  0.50821300  1
  O  O17  1  0.96796400  0.33776700  0.99178700  1
  O  O18  1  0.33776700  0.96796400  0.49178700  1
  O  O19  1  0.03203600  0.66223300  0.00821300  1
  O  O20  1  0.39596300  0.09957700  0.72418200  1
  O  O21  1  0.90042300  0.60403700  0.77581800  1
  O  O22  1  0.60403700  0.90042300  0.27581800  1
  O  O23  1  0.09957700  0.39596300  0.22418200  1
loop_
_geom_bond_atom_site_label_1
_geom_bond_atom_site_label_2
_geom_bond_distance
_geom_bond_site_symmetry_2
Cu0 O7 1.848337 1_555
Cu0 O5 1.848337 1_554
Cu1 O4 1.848337 1_555
Cu1 O6 1.848337 1_555
O0 P0 1.530677 1_455
O0 Th3 2.349516 1_545
O1 P0 1.530677 1_565
O1 Th2 2.349516 1_655
O2 P1 1.530677 1_655
O2 Th1 2.349516 1_565
O3 P1 1.530677 1_545
O3 Th0 2.349516 1_455
O4 P0 1.571827 1_555
O4 Th0 2.564222 1_555
O5 P0 1.571827 1_555
O5 Th1 2.564222 1_556
O6 P1 1.571827 1_555
O6 Th2 2.564222 1_555
O7 P1 1.571827 1_555
O7 Th3 2.564222 1_554
O8 P2 1.557923 1_555
O8 Th2 2.406171 1_555
O8 Th1 2.672602 1_465
O9 P3 1.557923 1_555
O9 Th3 2.406171 1_554
O9 Th0 2.672602 1_465
O10 P4 1.557923 1_555
O10 Th0 2.406171 1_555
O10 Th3 2.672602 1_645
O11 P5 1.557923 1_555
O11 Th1 2.406171 1_556
O11 Th2 2.672602 1_645
O12 P5 1.536578 1_555
O12 Th2 2.310628 1_555
O13 P4 1.536578 1_555
O13 Th3 2.310628 1_555
O14 P3 1.536578 1_555
O14 Th0 2.310628 1_555
O15 P2 1.536578 1_555
O15 Th1 2.310628 1_555
O16 P5 1.576021 1_555
O16 Th1 2.448694 1_555
O16 Th2 2.539118 1_645
O17 P4 1.576021 1_555
O17 Th0 2.448694 1_556
O17 Th3 2.539118 1_645
O18 P3 1.576021 1_555
O18 Th3 2.448694 1_555
O18 Th0 2.539118 1_465
O19 P2 1.576021 1_555
O19 Th2 2.448694 1_554
O19 Th1 2.539118 1_465
O20 P5 1.532263 1_555
O20 Th3 2.280854 1_545
O21 P4 1.532263 1_555
O21 Th2 2.280854 1_655
O22 P3 1.532263 1_555
O22 Th1 2.280854 1_565
O23 P2 1.532263 1_555
O23 Th0 2.280854 1_455
