# generated using pymatgen
data_Na2Sr6ZnFe6F34
_symmetry_space_group_name_H-M   'P 1'
_cell_length_a   9.95325000
_cell_length_b   9.96546268
_cell_length_c   15.23303727
_cell_angle_alpha   80.38177519
_cell_angle_beta   80.23499089
_cell_angle_gamma   68.77544899
_symmetry_Int_Tables_number   1
_chemical_formula_structural   Na2Sr6ZnFe6F34
_chemical_formula_sum   'Na4 Sr12 Zn2 Fe12 F68'
_cell_volume   1378.83528972
_cell_formula_units_Z   2
loop_
 _symmetry_equiv_pos_site_id
 _symmetry_equiv_pos_as_xyz
  1  'x, y, z'
loop_
 _atom_site_type_symbol
 _atom_site_label
 _atom_site_symmetry_multiplicity
 _atom_site_fract_x
 _atom_site_fract_y
 _atom_site_fract_z
 _atom_site_occupancy
  Na  Na0  1  0.43616100  0.86376900  0.85225400  1
  Na  Na1  1  0.49027500  0.51776900  0.99868300  1
  Na  Na2  1  0.50624500  0.49033900  0.49929800  1
  Na  Na3  1  0.26255800  0.23324600  0.47043100  1
  Sr  Sr0  1  0.00346900  0.99527800  0.99498100  1
  Sr  Sr1  1  0.75105000  0.73495000  0.55111400  1
  Sr  Sr2  1  0.45849700  0.84645500  0.34895700  1
  Sr  Sr3  1  0.73417200  0.74701600  0.05109100  1
  Sr  Sr4  1  0.84036500  0.45780300  0.84812100  1
  Sr  Sr5  1  0.85239000  0.45238500  0.34756700  1
  Sr  Sr6  1  0.15919900  0.53802300  0.64751400  1
  Sr  Sr7  1  0.15329900  0.54480900  0.15247200  1
  Sr  Sr8  1  0.26549800  0.25102000  0.94678400  1
  Sr  Sr9  1  0.54310100  0.14802400  0.65679000  1
  Sr  Sr10  1  0.00358100  0.00035500  0.50070000  1
  Sr  Sr11  1  0.53811600  0.16057200  0.15258100  1
  Zn  Zn0  1  0.51519600  0.48476200  0.74978500  1
  Zn  Zn1  1  0.48860600  0.51256500  0.25033400  1
  Fe  Fe0  1  0.83441800  0.82914000  0.77061400  1
  Fe  Fe1  1  0.83402900  0.84815800  0.26839700  1
  Fe  Fe2  1  0.36617500  0.84591300  0.60437300  1
  Fe  Fe3  1  0.34788400  0.86574100  0.09307000  1
  Fe  Fe4  1  0.14943900  0.63749700  0.89694200  1
  Fe  Fe5  1  0.13795500  0.65477900  0.40341000  1
  Fe  Fe6  1  0.86864600  0.34402100  0.59248500  1
  Fe  Fe7  1  0.84978400  0.36147500  0.10229700  1
  Fe  Fe8  1  0.65540000  0.13287400  0.90485300  1
  Fe  Fe9  1  0.63108900  0.15191100  0.39906400  1
  Fe  Fe10  1  0.16814500  0.15981500  0.73149300  1
  Fe  Fe11  1  0.15776000  0.16525500  0.23113600  1
  F  F0  1  0.87721700  0.91953100  0.65253900  1
  F  F1  1  0.75161900  0.99347800  0.48000800  1
  F  F2  1  0.99369200  0.74381000  0.98604400  1
  F  F3  1  0.63372400  0.90560000  0.74926000  1
  F  F4  1  0.25377400  0.00302700  0.99301900  1
  F  F5  1  0.92272600  0.89792400  0.15210600  1
  F  F6  1  0.51563000  0.93671400  0.59441700  1
  F  F7  1  0.26470700  0.95692200  0.70720600  1
  F  F8  1  0.77883700  0.72294600  0.88352000  1
  F  F9  1  0.47403900  0.97437600  0.09022200  1
  F  F10  1  0.65659400  0.88195800  0.21332800  1
  F  F11  1  0.86987600  0.65494800  0.71308800  1
  F  F12  1  0.19316800  0.99159500  0.17368600  1
  F  F13  1  0.73362000  0.76840000  0.37788400  1
  F  F14  1  0.23425100  0.78109500  0.89337600  1
  F  F15  1  0.49151300  0.73678200  0.50733400  1
  F  F16  1  0.90644100  0.65004300  0.23583200  1
  F  F17  1  0.48662600  0.69061400  0.68599600  1
  F  F18  1  0.22134800  0.75761100  0.61227900  1
  F  F19  1  0.23642800  0.78865100  0.40928500  1
  F  F20  1  0.96966400  0.47836700  0.58747500  1
  F  F21  1  0.44394600  0.73712400  0.19691800  1
  F  F22  1  0.49606400  0.74804600  0.00861200  1
  F  F23  1  0.57515200  0.54072600  0.85164800  1
  F  F24  1  0.04330000  0.73853900  0.79204100  1
  F  F25  1  0.94370200  0.50617000  0.09525100  1
  F  F26  1  0.99993700  0.81749300  0.33129300  1
  F  F27  1  0.22299100  0.75852000  0.08902200  1
  F  F28  1  0.74338100  0.49479800  0.50965000  1
  F  F29  1  0.56094400  0.57024600  0.35063300  1
  F  F30  1  0.00843800  0.73829900  0.51243200  1
  F  F31  1  0.74460400  0.42874300  0.69952700  1
  F  F32  1  0.25834700  0.50993000  0.99332200  1
  F  F33  1  0.30064400  0.51553600  0.81057100  1
  F  F34  1  0.70389900  0.48005000  0.19273600  1
  F  F35  1  0.73745300  0.49264000  0.00972300  1
  F  F36  1  0.26049200  0.58347100  0.29213400  1
  F  F37  1  0.99736000  0.26308100  0.48704400  1
  F  F38  1  0.44071000  0.42743500  0.65046200  1
  F  F39  1  0.26141900  0.50969500  0.48492800  1
  F  F40  1  0.78632500  0.23237400  0.91095900  1
  F  F41  1  0.00384000  0.18569800  0.66629400  1
  F  F42  1  0.06087700  0.48706900  0.90561500  1
  F  F43  1  0.95364700  0.25120400  0.20494700  1
  F  F44  1  0.43032200  0.44238300  0.14788100  1
  F  F45  1  0.50664900  0.26007700  0.98699900  1
  F  F46  1  0.57742800  0.25513300  0.79526900  1
  F  F47  1  0.01975400  0.54137200  0.40426000  1
  F  F48  1  0.76049400  0.21880600  0.59046200  1
  F  F49  1  0.76938300  0.24797800  0.39383300  1
  F  F50  1  0.52144700  0.30201100  0.30651500  1
  F  F51  1  0.07800900  0.36198200  0.75755900  1
  F  F52  1  0.51034300  0.25552300  0.49681400  1
  F  F53  1  0.75113700  0.22778000  0.10813200  1
  F  F54  1  0.27008900  0.23984300  0.62508600  1
  F  F55  1  0.81427500  0.99457100  0.83274200  1
  F  F56  1  0.11662600  0.35039800  0.27595600  1
  F  F57  1  0.33474000  0.14341600  0.79035900  1
  F  F58  1  0.52133300  0.03529800  0.90968800  1
  F  F59  1  0.24070000  0.26077700  0.11936100  1
  F  F60  1  0.74122300  0.05126200  0.29260500  1
  F  F61  1  0.49171900  0.05533400  0.40507200  1
  F  F62  1  0.07929700  0.10907700  0.84675600  1
  F  F63  1  0.73764800  0.00127700  0.01247000  1
  F  F64  1  0.35633900  0.08484500  0.25998400  1
  F  F65  1  0.00269000  0.25139900  0.01565900  1
  F  F66  1  0.25538900  0.99708900  0.51877900  1
  F  F67  1  0.09750000  0.08537300  0.34650200  1
loop_
_geom_bond_atom_site_label_1
_geom_bond_atom_site_label_2
_geom_bond_distance
_geom_bond_site_symmetry_2
F0 Fe0 1.924711 1_555
F0 Sr10 2.589325 1_665
F1 Fe9 1.982964 1_565
F1 Sr10 2.606361 1_665
F1 Sr1 2.624275 1_555
F2 Fe4 1.986312 1_655
F2 Sr0 2.569646 1_655
F2 Sr3 2.595705 1_556
F3 Fe0 1.926701 1_555
F3 Na0 2.414626 1_555
F3 Sr9 2.519964 1_565
F4 Fe3 1.982824 1_546
F4 Sr8 2.493308 1_555
F4 Sr0 2.515341 1_545
F4 Na0 2.769331 1_545
F5 Fe1 1.912161 1_555
F5 Sr0 2.540074 1_654
F6 Fe2 1.976579 1_555
F6 Sr1 2.544818 1_555
F6 Sr9 2.566227 1_565
F7 Fe10 1.967509 1_565
F7 Fe2 1.982689 1_555
F7 Na0 2.846503 1_555
F8 Fe0 1.969000 1_555
F8 Sr3 2.552151 1_556
F8 Sr4 2.615322 1_555
F9 Fe3 1.923704 1_555
F9 Sr11 2.530502 1_565
F9 Sr3 2.805877 1_555
F10 Fe1 1.978261 1_555
F10 Sr11 2.663997 1_565
F10 Sr2 2.675880 1_555
F10 Sr3 2.867691 1_555
F11 Fe0 1.966124 1_555
F11 Sr4 2.653232 1_555
F11 Sr6 2.762583 1_655
F11 Sr1 2.787845 1_555
F12 Fe11 1.960849 1_565
F12 Fe3 1.981721 1_555
F13 Fe1 1.994723 1_555
F13 Sr1 2.631360 1_555
F13 Sr2 2.655259 1_555
F13 Sr5 3.022204 1_555
F14 Fe4 1.896441 1_555
F14 Na0 2.389404 1_555
F14 Sr0 2.928436 1_555
F15 Fe2 1.963020 1_555
F15 Na2 2.429332 1_555
F15 Sr2 2.500146 1_555
F15 Sr1 2.768461 1_555
F16 Fe1 1.959372 1_555
F16 Sr7 2.504049 1_655
F16 Sr5 2.530355 1_555
F17 Fe2 1.974243 1_555
F17 Zn0 2.058786 1_555
F18 Fe2 1.921173 1_555
F18 Sr6 2.436055 1_555
F19 Fe5 1.940329 1_555
F19 Sr2 2.473413 1_555
F19 Sr10 2.847464 1_565
F20 Fe6 1.929688 1_555
F20 Sr6 2.515493 1_655
F20 Sr1 2.736172 1_555
F21 Fe3 2.001920 1_555
F21 Zn1 2.159062 1_555
F21 Sr2 2.764642 1_555
F22 Fe3 1.953001 1_555
F22 Na1 2.346712 1_554
F22 Na0 2.534647 1_554
F22 Sr3 2.556531 1_555
F23 Zn0 1.979681 1_555
F23 Na1 2.260429 1_555
F23 Sr4 2.457895 1_555
F24 Fe4 1.987002 1_555
F24 Fe0 2.004189 1_455
F24 Sr6 3.018315 1_555
F25 Fe7 1.963361 1_555
F25 Sr7 2.563350 1_655
F25 Sr3 2.621956 1_555
F26 Fe1 1.952351 1_555
F26 Fe5 2.006767 1_655
F27 Fe3 1.923674 1_555
F27 Sr7 2.470922 1_555
F27 Sr0 2.931323 1_554
F28 Fe6 1.986977 1_555
F28 Na2 2.408790 1_555
F28 Sr5 2.561224 1_555
F28 Sr1 2.605006 1_555
F29 Zn1 2.037022 1_555
F29 Na2 2.313456 1_555
F29 Sr2 2.563217 1_555
F29 Sr5 2.702222 1_555
F30 Fe5 2.017777 1_555
F30 Sr1 2.540601 1_455
F30 Sr10 2.570957 1_565
F30 Sr6 2.824152 1_555
F31 Fe6 1.979472 1_555
F31 Zn0 2.176780 1_555
F31 Sr4 2.695678 1_555
F32 Fe4 1.965969 1_555
F32 Na1 2.353360 1_555
F32 Sr7 2.500010 1_556
F32 Sr8 2.761518 1_555
F33 Fe4 2.002872 1_555
F33 Zn0 2.112277 1_555
F33 Sr6 2.995582 1_555
F34 Fe7 2.006428 1_555
F34 Zn1 2.102659 1_555
F34 Sr5 2.914323 1_555
F35 Fe7 1.951398 1_555
F35 Na1 2.413274 1_554
F35 Sr4 2.530299 1_554
F35 Sr3 2.700213 1_555
F36 Fe5 1.984809 1_555
F36 Zn1 2.134976 1_555
F36 Sr7 2.674776 1_555
F37 Fe6 1.964291 1_555
F37 Na3 2.519951 1_655
F37 Sr10 2.570408 1_655
F37 Sr5 2.807975 1_555
F38 Zn0 2.034983 1_555
F38 Na2 2.329164 1_555
F38 Sr9 2.586526 1_555
F38 Sr6 2.618744 1_555
F39 Fe5 1.942617 1_555
F39 Na2 2.418613 1_555
F39 Sr6 2.533711 1_555
F39 Na3 2.796147 1_555
F40 Fe8 1.922888 1_555
F40 Sr4 2.496800 1_555
F40 Sr0 2.849979 1_645
F41 Fe10 1.971624 1_555
F41 Fe6 1.986800 1_455
F42 Fe4 1.973017 1_555
F42 Sr8 2.558549 1_555
F42 Sr4 2.621102 1_455
F43 Fe7 1.967980 1_555
F43 Fe11 1.980141 1_655
F43 Sr5 3.000815 1_555
F44 Zn1 2.055970 1_555
F44 Na1 2.319439 1_554
F44 Sr7 2.563206 1_555
F44 Sr11 2.611600 1_555
F45 Fe8 1.976738 1_555
F45 Na1 2.548103 1_555
F45 Sr11 2.578910 1_556
F45 Sr8 2.611257 1_555
F46 Fe8 1.987075 1_555
F46 Zn0 2.165590 1_555
F46 Sr9 2.639471 1_555
F47 Fe5 1.901097 1_555
F47 Sr5 2.474000 1_455
F48 Fe6 1.927035 1_555
F48 Sr9 2.515082 1_555
F48 Sr10 2.919179 1_655
F49 Fe9 1.925873 1_555
F49 Sr5 2.422807 1_555
F50 Fe9 2.012762 1_555
F50 Zn1 2.059176 1_555
F50 Sr11 2.883725 1_555
F51 Fe10 1.964506 1_555
F51 Sr4 2.471373 1_455
F51 Sr6 2.474872 1_555
F52 Fe9 1.932862 1_555
F52 Na2 2.332142 1_555
F52 Sr9 2.517294 1_555
F52 Na3 2.656263 1_555
F53 Fe7 1.903957 1_555
F53 Sr11 2.406692 1_555
F54 Fe10 1.972043 1_555
F54 Na3 2.382282 1_555
F54 Sr9 2.636613 1_555
F54 Sr6 2.828677 1_555
F55 Fe0 1.967595 1_555
F55 Fe8 1.986315 1_565
F56 Fe11 1.953741 1_555
F56 Sr7 2.546833 1_555
F56 Sr5 2.569391 1_455
F57 Fe10 1.959463 1_555
F57 Sr9 2.655044 1_555
F57 Sr8 2.657896 1_555
F57 Na0 2.661249 1_545
F58 Fe8 1.901005 1_555
F58 Na0 2.491302 1_545
F58 Sr8 2.716472 1_555
F59 Fe11 2.009303 1_555
F59 Sr8 2.613289 1_554
F59 Sr7 2.751063 1_555
F59 Sr11 2.866237 1_555
F60 Fe1 1.966236 1_545
F60 Fe9 1.995496 1_555
F60 Sr11 2.985773 1_555
F61 Fe9 1.937291 1_555
F61 Na3 2.495736 1_555
F61 Sr2 2.522266 1_545
F62 Fe10 1.902874 1_555
F62 Sr0 2.477881 1_545
F63 Fe8 2.009208 1_554
F63 Sr3 2.515160 1_545
F63 Sr0 2.593533 1_644
F63 Sr11 2.903641 1_555
F64 Fe11 1.942164 1_555
F64 Sr11 2.468118 1_555
F64 Sr2 2.481355 1_545
F65 Fe7 1.963406 1_455
F65 Sr0 2.620561 1_544
F65 Sr8 2.646957 1_554
F66 Fe2 1.952971 1_555
F66 Na3 2.368676 1_565
F66 Sr10 2.555496 1_565
F67 Fe11 1.898022 1_555
F67 Sr10 2.504519 1_555
