# generated using pymatgen
data_CdInGaS4
_symmetry_space_group_name_H-M   'P 1'
_cell_length_a   3.91373754
_cell_length_b   3.91373754
_cell_length_c   25.36187200
_cell_angle_alpha   90.00000000
_cell_angle_beta   90.00000000
_cell_angle_gamma   119.99999222
_symmetry_Int_Tables_number   1
_chemical_formula_structural   CdInGaS4
_chemical_formula_sum   'Cd2 In2 Ga2 S8'
_cell_volume   336.43050538
_cell_formula_units_Z   2
loop_
 _symmetry_equiv_pos_site_id
 _symmetry_equiv_pos_as_xyz
  1  'x, y, z'
loop_
 _atom_site_type_symbol
 _atom_site_label
 _atom_site_symmetry_multiplicity
 _atom_site_fract_x
 _atom_site_fract_y
 _atom_site_fract_z
 _atom_site_occupancy
  Cd  Cd0  1  0.00000000  0.00000000  0.24608300  1
  Cd  Cd1  1  0.00000000  0.00000000  0.75391700  1
  In  In0  1  0.66666700  0.33333300  0.39749400  1
  In  In1  1  0.33333300  0.66666700  0.60250600  1
  Ga  Ga0  1  0.66666700  0.33333300  0.89770300  1
  Ga  Ga1  1  0.33333300  0.66666700  0.10229700  1
  S  S0  1  0.66666700  0.33333300  0.55746900  1
  S  S1  1  0.33333300  0.66666700  0.69708200  1
  S  S2  1  0.66666700  0.33333300  0.06558400  1
  S  S3  1  0.33333300  0.66666700  0.44253100  1
  S  S4  1  0.66666700  0.33333300  0.81038000  1
  S  S5  1  0.66666700  0.33333300  0.30291800  1
  S  S6  1  0.33333300  0.66666700  0.18962000  1
  S  S7  1  0.33333300  0.66666700  0.93441600  1
loop_
_geom_bond_atom_site_label_1
_geom_bond_atom_site_label_2
_geom_bond_distance
_geom_bond_site_symmetry_2
Cd0 S6 2.675148 1_545
Cd0 S6 2.675151 1_555
Cd0 S6 2.675151 1_445
Cd0 S5 2.680210 1_455
Cd0 S5 2.680213 1_445
Cd0 S5 2.680213 1_555
Cd1 S4 2.675148 1_455
Cd1 S4 2.675151 1_555
Cd1 S4 2.675151 1_445
Cd1 S1 2.680210 1_545
Cd1 S1 2.680213 1_555
Cd1 S1 2.680213 1_445
In0 S5 2.398624 1_555
In0 S3 2.531885 1_655
In0 S3 2.531885 1_545
In0 S3 2.531891 1_555
In1 S1 2.398624 1_555
In1 S0 2.531885 1_455
In1 S0 2.531885 1_565
In1 S0 2.531891 1_555
Ga0 S4 2.214675 1_555
Ga0 S7 2.443919 1_545
Ga0 S7 2.443919 1_655
Ga0 S7 2.443925 1_555
Ga1 S6 2.214675 1_555
Ga1 S2 2.443919 1_455
Ga1 S2 2.443919 1_565
Ga1 S2 2.443925 1_555
