# generated using pymatgen
data_PbSO4
_symmetry_space_group_name_H-M   'P 1'
_cell_length_a   5.34151100
_cell_length_b   5.56719800
_cell_length_c   12.89093900
_cell_angle_alpha   90.00000000
_cell_angle_beta   90.00000000
_cell_angle_gamma   90.00000000
_symmetry_Int_Tables_number   1
_chemical_formula_structural   PbSO4
_chemical_formula_sum   'Pb4 S4 O16'
_cell_volume   383.34106748
_cell_formula_units_Z   4
loop_
 _symmetry_equiv_pos_site_id
 _symmetry_equiv_pos_as_xyz
  1  'x, y, z'
loop_
 _atom_site_type_symbol
 _atom_site_label
 _atom_site_symmetry_multiplicity
 _atom_site_fract_x
 _atom_site_fract_y
 _atom_site_fract_z
 _atom_site_occupancy
  Pb  Pb0  1  0.25000000  0.40507600  0.62687000  1
  Pb  Pb1  1  0.25000000  0.09492400  0.12687000  1
  Pb  Pb2  1  0.75000000  0.59492400  0.37313000  1
  Pb  Pb3  1  0.75000000  0.90507600  0.87313000  1
  S  S0  1  0.25000000  0.27187300  0.87915500  1
  S  S1  1  0.75000000  0.72812700  0.12084500  1
  S  S2  1  0.25000000  0.22812700  0.37915500  1
  S  S3  1  0.75000000  0.77187300  0.62084500  1
  O  O0  1  0.02332000  0.26356200  0.44721000  1
  O  O1  1  0.25000000  0.51298300  0.83156600  1
  O  O2  1  0.52332000  0.76356200  0.05279000  1
  O  O3  1  0.75000000  0.01298300  0.66843400  1
  O  O4  1  0.25000000  0.41712900  0.29635500  1
  O  O5  1  0.25000000  0.98701700  0.33156600  1
  O  O6  1  0.52332000  0.73643800  0.55279000  1
  O  O7  1  0.47668000  0.26356200  0.44721000  1
  O  O8  1  0.75000000  0.91712900  0.20364500  1
  O  O9  1  0.97668000  0.73643800  0.55279000  1
  O  O10  1  0.25000000  0.08287100  0.79635500  1
  O  O11  1  0.02332000  0.23643800  0.94721000  1
  O  O12  1  0.97668000  0.76356200  0.05279000  1
  O  O13  1  0.75000000  0.58287100  0.70364500  1
  O  O14  1  0.75000000  0.48701700  0.16843400  1
  O  O15  1  0.47668000  0.23643800  0.94721000  1
loop_
_geom_bond_atom_site_label_1
_geom_bond_atom_site_label_2
_geom_bond_distance
_geom_bond_site_symmetry_2
O0 S2 1.508187 1_555
O0 Pb2 2.538998 1_455
O0 Pb0 2.729569 1_555
O1 S0 1.475849 1_555
O1 Pb0 2.706243 1_555
O2 S1 1.508187 1_555
O2 Pb1 2.538998 1_565
O2 Pb3 2.729569 1_554
O3 S3 1.475849 1_545
O3 Pb3 2.706243 1_545
O4 S2 1.498809 1_555
O4 Pb1 2.826851 1_555
O5 S2 1.475849 1_565
O5 Pb1 2.706243 1_565
O6 S3 1.508187 1_555
O6 Pb0 2.538998 1_555
O6 Pb2 2.729569 1_555
O7 S2 1.508187 1_555
O7 Pb2 2.538998 1_555
O7 Pb0 2.729569 1_555
O8 S1 1.498809 1_555
O8 Pb2 2.826851 1_555
O9 S3 1.508187 1_555
O9 Pb0 2.538998 1_655
O9 Pb2 2.729569 1_555
O10 S0 1.498809 1_555
O10 Pb0 2.826851 1_555
O11 S0 1.508187 1_555
O11 Pb3 2.538998 1_445
O11 Pb1 2.729569 1_556
O12 S1 1.508187 1_555
O12 Pb1 2.538998 1_665
O12 Pb3 2.729569 1_554
O13 S3 1.498809 1_555
O13 Pb3 2.826851 1_555
O14 S1 1.475849 1_555
O14 Pb2 2.706243 1_555
O15 S0 1.508187 1_555
O15 Pb3 2.538998 1_545
O15 Pb1 2.729569 1_556
