# generated using pymatgen
data_Na2Sn(HO)6
_symmetry_space_group_name_H-M   'P 1'
_cell_length_a   5.93476565
_cell_length_b   5.93476565
_cell_length_c   5.93476566
_cell_angle_alpha   67.84337859
_cell_angle_beta   67.84337859
_cell_angle_gamma   67.84337897
_symmetry_Int_Tables_number   1
_chemical_formula_structural   Na2Sn(HO)6
_chemical_formula_sum   'Na2 Sn1 H6 O6'
_cell_volume   172.44505902
_cell_formula_units_Z   1
loop_
 _symmetry_equiv_pos_site_id
 _symmetry_equiv_pos_as_xyz
  1  'x, y, z'
loop_
 _atom_site_type_symbol
 _atom_site_label
 _atom_site_symmetry_multiplicity
 _atom_site_fract_x
 _atom_site_fract_y
 _atom_site_fract_z
 _atom_site_occupancy
  Na  Na0  1  0.61724300  0.61724300  0.61724300  1
  Na  Na1  1  0.38275700  0.38275700  0.38275700  1
  Sn  Sn0  1  0.00000000  0.00000000  0.00000000  1
  H  H0  1  0.08856300  0.83494600  0.45316400  1
  H  H1  1  0.45316400  0.08856300  0.83494600  1
  H  H2  1  0.83494600  0.45316400  0.08856300  1
  H  H3  1  0.91143700  0.16505400  0.54683600  1
  H  H4  1  0.54683600  0.91143700  0.16505400  1
  H  H5  1  0.16505400  0.54683600  0.91143700  1
  O  O0  1  0.29189800  0.17483800  0.79396400  1
  O  O1  1  0.79396400  0.29189800  0.17483800  1
  O  O2  1  0.17483800  0.79396400  0.29189800  1
  O  O3  1  0.70810200  0.82516200  0.20603600  1
  O  O4  1  0.20603600  0.70810200  0.82516200  1
  O  O5  1  0.82516200  0.20603600  0.70810200  1
loop_
_geom_bond_atom_site_label_1
_geom_bond_atom_site_label_2
_geom_bond_distance
_geom_bond_site_symmetry_2
Na0 O3 2.237617 1_555
Na0 O4 2.237617 1_555
Na0 O5 2.237617 1_555
Na1 O0 2.237617 1_555
Na1 O1 2.237617 1_555
Na1 O2 2.237617 1_555
H0 O2 0.974337 1_555
H1 O0 0.974337 1_555
H2 O1 0.974337 1_555
H3 O5 0.974337 1_555
H4 O3 0.974337 1_555
H5 O4 0.974337 1_555
O0 Sn0 2.091391 1_556
O1 Sn0 2.091391 1_655
O2 Sn0 2.091391 1_565
O3 Sn0 2.091391 1_665
O4 Sn0 2.091391 1_566
O5 Sn0 2.091391 1_656
