# generated using pymatgen
data_Na3Zr2Si2PO12
_symmetry_space_group_name_H-M   'P 1'
_cell_length_a   9.15343862
_cell_length_b   9.17219113
_cell_length_c   18.59320519
_cell_angle_alpha   61.50131066
_cell_angle_beta   61.43161588
_cell_angle_gamma   59.98211895
_symmetry_Int_Tables_number   1
_chemical_formula_structural   Na3Zr2Si2PO12
_chemical_formula_sum   'Na12 Zr8 Si8 P4 O48'
_cell_volume   1127.49338704
_cell_formula_units_Z   4
loop_
 _symmetry_equiv_pos_site_id
 _symmetry_equiv_pos_as_xyz
  1  'x, y, z'
loop_
 _atom_site_type_symbol
 _atom_site_label
 _atom_site_symmetry_multiplicity
 _atom_site_fract_x
 _atom_site_fract_y
 _atom_site_fract_z
 _atom_site_occupancy
  Na  Na0  1  0.27185459  0.07552816  0.19153094  1
  Na  Na1  1  0.05754478  0.31245916  0.46267668  1
  Na  Na2  1  0.57046845  0.97882962  0.26502904  1
  Na  Na3  1  0.60170360  0.39807229  0.12652790  1
  Na  Na4  1  0.31242515  0.05759582  0.71454073  1
  Na  Na5  1  0.38468526  0.60357945  0.37885762  1
  Na  Na6  1  0.05521780  0.31297491  0.96383259  1
  Na  Na7  1  0.94859383  0.68491268  0.03581116  1
  Na  Na8  1  0.60185089  0.39489749  0.62657871  1
  Na  Na9  1  0.38678427  0.60767458  0.87750984  1
  Na  Na10  1  0.94630160  0.68786005  0.53492917  1
  Na  Na11  1  0.68480533  0.94895192  0.78666583  1
  Zr  Zr0  1  0.14910840  0.64995243  0.28107643  1
  Zr  Zr1  1  0.64476007  0.14401288  0.02889068  1
  Zr  Zr2  1  0.15446468  0.64795689  0.77959891  1
  Zr  Zr3  1  0.35092248  0.85226952  0.47013056  1
  Zr  Zr4  1  0.64581382  0.14335755  0.52796158  1
  Zr  Zr5  1  0.84996477  0.35090065  0.22191783  1
  Zr  Zr6  1  0.34750531  0.85172059  0.97148989  1
  Zr  Zr7  1  0.85704742  0.34901523  0.71990169  1
  Si  Si0  1  0.24936179  0.46975936  0.12004192  1
  Si  Si1  1  0.04707412  0.95591949  0.37515175  1
  Si  Si2  1  0.47176916  0.24731188  0.36644666  1
  Si  Si3  1  0.52722146  0.75201012  0.13210286  1
  Si  Si4  1  0.24936410  0.47341517  0.61754571  1
  Si  Si5  1  0.04337939  0.95520377  0.87555484  1
  Si  Si6  1  0.47280607  0.24633567  0.86762399  1
  Si  Si7  1  0.52859020  0.75120098  0.63119853  1
  P  P0  1  0.95353562  0.04186390  0.12692101  1
  P  P1  1  0.75245008  0.52997752  0.38073362  1
  P  P2  1  0.95645915  0.04361920  0.62490536  1
  P  P3  1  0.75277453  0.52694252  0.88129962  1
  O  O0  1  0.10633560  0.00878925  0.04260358  1
  O  O1  1  0.99730812  0.12175285  0.29097729  1
  O  O2  1  0.07150509  0.43040083  0.14461571  1
  O  O3  1  0.26744069  0.63025480  0.02709135  1
  O  O4  1  0.11111531  0.00684882  0.54272057  1
  O  O5  1  0.42413126  0.28505365  0.11463338  1
  O  O6  1  0.24203585  0.52649943  0.19294787  1
  O  O7  1  0.06691308  0.76665202  0.37597918  1
  O  O8  1  0.00743732  0.11967086  0.78848978  1
  O  O9  1  0.28629025  0.41989216  0.36115683  1
  O  O10  1  0.43358645  0.06947151  0.39252558  1
  O  O11  1  0.06853751  0.43745324  0.64390402  1
  O  O12  1  0.47488424  0.75880205  0.05752417  1
  O  O13  1  0.77410071  0.06856763  0.12477749  1
  O  O14  1  0.36200569  0.73997110  0.22287157  1
  O  O15  1  0.63015736  0.27317916  0.27406892  1
  O  O16  1  0.24194035  0.93263066  0.37097224  1
  O  O17  1  0.52246126  0.24507715  0.44083118  1
  O  O18  1  0.26360525  0.63609717  0.52564682  1
  O  O19  1  0.55839973  0.93346599  0.10903678  1
  O  O20  1  0.71176153  0.58128059  0.13844725  1
  O  O21  1  0.42473552  0.29156236  0.61038968  1
  O  O22  1  0.24144878  0.52742546  0.69197587  1
  O  O23  1  0.93797038  0.22089839  0.12557233  1
  O  O24  1  0.06259060  0.76738964  0.87513218  1
  O  O25  1  0.75518777  0.48156589  0.31042920  1
  O  O26  1  0.58937016  0.70467839  0.38621441  1
  O  O27  1  0.28748419  0.41818712  0.86081230  1
  O  O28  1  0.43773724  0.06526388  0.89587001  1
  O  O29  1  0.73372456  0.37902233  0.46796512  1
  O  O30  1  0.47682856  0.75423768  0.55733556  1
  O  O31  1  0.77705803  0.06993700  0.62338377  1
  O  O32  1  0.36479667  0.73758913  0.72308497  1
  O  O33  1  0.63624793  0.26203873  0.77633244  1
  O  O34  1  0.23521629  0.92874699  0.87574215  1
  O  O35  1  0.52025498  0.24873055  0.94190291  1
  O  O36  1  0.92496707  0.55784953  0.35600408  1
  O  O37  1  0.56168105  0.93199363  0.60588205  1
  O  O38  1  0.71125100  0.57821259  0.63967206  1
  O  O39  1  0.99263555  0.88847695  0.20708836  1
  O  O40  1  0.93977546  0.22215637  0.62432150  1
  O  O41  1  0.75475925  0.47831153  0.81156438  1
  O  O42  1  0.58949853  0.70127122  0.88869503  1
  O  O43  1  0.88715124  0.99493897  0.46314544  1
  O  O44  1  0.73793704  0.37510600  0.96846972  1
  O  O45  1  0.92321807  0.56139803  0.85509268  1
  O  O46  1  0.98963306  0.89047821  0.70766288  1
  O  O47  1  0.88058022  0.99374107  0.96280366  1
loop_
_geom_bond_atom_site_label_1
_geom_bond_atom_site_label_2
_geom_bond_distance
_geom_bond_site_symmetry_2
Na0 O1 2.269789 1_455
Na0 O19 2.360083 1_545
Na0 O5 2.415046 1_555
Na0 O14 2.588548 1_545
Na0 O2 2.750792 1_555
Na0 O16 2.869963 1_545
Na1 O9 2.329678 1_555
Na1 O4 2.377923 1_555
Na1 O36 2.404489 1_455
Na1 O40 2.510024 1_455
Na1 O29 2.671334 1_455
Na2 O13 2.406232 1_565
Na2 O10 2.424549 1_565
Na2 O26 2.441462 1_555
Na2 O16 2.813505 1_555
Na3 O5 2.452315 1_555
Na3 O20 2.480021 1_555
Na3 O15 2.508299 1_555
Na3 O13 2.626468 1_555
Na3 O44 2.656867 1_554
Na3 O23 2.661920 1_555
Na3 O6 2.714921 1_555
Na3 O12 2.733421 1_555
Na4 O8 2.343877 1_555
Na4 O21 2.397864 1_555
Na4 O37 2.407698 1_545
Na4 O34 2.511809 1_545
Na4 O32 2.662756 1_545
Na5 O9 2.467588 1_555
Na5 O18 2.513825 1_555
Na5 O7 2.533803 1_555
Na5 O26 2.548198 1_555
Na5 O16 2.579359 1_555
Na5 O14 2.621710 1_555
Na5 O17 2.712146 1_555
Na5 O25 2.794129 1_555
Na6 O27 2.348255 1_555
Na6 O0 2.366039 1_556
Na6 O45 2.434161 1_455
Na6 O23 2.511000 1_456
Na6 O44 2.630227 1_455
Na7 O20 2.370404 1_555
Na7 O47 2.372453 1_554
Na7 O2 2.418741 1_655
Na7 O24 2.497608 1_654
Na7 O3 2.637533 1_655
Na8 O21 2.427693 1_555
Na8 O38 2.489492 1_555
Na8 O33 2.560010 1_555
Na8 O31 2.598970 1_555
Na8 O29 2.646673 1_555
Na8 O40 2.667513 1_555
Na8 O22 2.720437 1_555
Na8 O30 2.723283 1_555
Na9 O27 2.511703 1_555
Na9 O42 2.521212 1_555
Na9 O3 2.527617 1_556
Na9 O34 2.542017 1_555
Na9 O24 2.582268 1_555
Na9 O32 2.598518 1_555
Na9 O35 2.716302 1_555
Na9 O41 2.774171 1_555
Na10 O43 2.363399 1_555
Na10 O38 2.392008 1_555
Na10 O11 2.405961 1_655
Na10 O7 2.472850 1_655
Na10 O18 2.628674 1_655
Na11 O46 2.359079 1_555
Na11 O28 2.374181 1_565
Na11 O42 2.410042 1_555
Na11 O31 2.536166 1_565
Na11 O33 2.599842 1_565
O0 P0 1.561477 1_455
O0 Zr6 2.130991 1_544
O1 Si1 1.639346 1_645
O1 Zr5 2.032230 1_555
O2 Si0 1.645807 1_555
O2 Zr5 2.097974 1_455
O3 Si0 1.650357 1_555
O3 Zr6 2.119677 1_554
O4 P2 1.548541 1_455
O4 Zr3 2.128118 1_545
O5 Si0 1.654234 1_555
O5 Zr1 2.137387 1_555
O6 Si0 1.632249 1_555
O6 Zr0 2.040725 1_555
O7 Si1 1.645803 1_555
O7 Zr0 2.133617 1_555
O8 Si5 1.639173 1_545
O8 Zr7 2.041586 1_455
O9 Si2 1.649245 1_555
O9 Zr0 2.094101 1_555
O10 Si2 1.634498 1_555
O10 Zr3 2.084309 1_545
O11 Si4 1.644625 1_555
O11 Zr7 2.064793 1_455
O12 Si3 1.636842 1_555
O12 Zr6 2.033050 1_554
O13 P0 1.552416 1_555
O13 Zr1 2.254051 1_555
O14 Si3 1.641861 1_555
O14 Zr0 2.095391 1_555
O15 Si2 1.637679 1_555
O15 Zr5 2.099065 1_555
O16 Si1 1.653871 1_555
O16 Zr3 2.159644 1_555
O17 Si2 1.644915 1_555
O17 Zr4 2.005723 1_555
O18 Si4 1.646717 1_555
O18 Zr3 2.116398 1_555
O19 Si3 1.646954 1_555
O19 Zr1 2.056577 1_565
O20 Si3 1.639253 1_555
O20 Zr5 2.132545 1_555
O21 Si4 1.644762 1_555
O21 Zr4 2.135729 1_555
O22 Si4 1.639587 1_555
O22 Zr2 2.026787 1_555
O23 P0 1.564473 1_555
O23 Zr5 2.230901 1_555
O24 Si5 1.645318 1_555
O24 Zr2 2.137484 1_555
O25 P1 1.554983 1_555
O25 Zr5 2.091352 1_555
O26 P1 1.556730 1_555
O26 Zr3 2.198442 1_555
O27 Si6 1.648586 1_555
O27 Zr2 2.087666 1_555
O28 Si6 1.636160 1_555
O28 Zr6 2.091731 1_545
O29 P1 1.551010 1_555
O29 Zr4 2.268267 1_555
O30 Si7 1.638282 1_555
O30 Zr3 2.030962 1_555
O31 P2 1.548221 1_555
O31 Zr4 2.265703 1_555
O32 Si7 1.648084 1_555
O32 Zr2 2.076317 1_555
O33 Si6 1.641240 1_555
O33 Zr7 2.146708 1_555
O34 Si5 1.649551 1_555
O34 Zr6 2.132638 1_555
O35 Si6 1.645811 1_555
O35 Zr1 2.005620 1_556
O36 P1 1.538737 1_555
O36 Zr0 2.177432 1_655
O37 Si7 1.638435 1_555
O37 Zr4 2.048630 1_565
O38 Si7 1.642237 1_555
O38 Zr7 2.128388 1_555
O39 P0 1.527898 1_565
O39 Zr0 2.146505 1_655
O40 P2 1.561891 1_555
O40 Zr7 2.211375 1_555
O41 P3 1.549755 1_555
O41 Zr7 2.116446 1_555
O42 P3 1.559332 1_555
O42 Zr6 2.210921 1_555
O43 Si1 1.640641 1_655
O43 Zr4 2.048422 1_565
O44 P3 1.552290 1_555
O44 Zr1 2.258841 1_556
O45 P3 1.546173 1_555
O45 Zr2 2.203942 1_655
O46 P2 1.546120 1_565
O46 Zr2 2.178621 1_655
O47 Si5 1.638699 1_655
O47 Zr1 2.042467 1_566
