# generated using pymatgen
data_SnO2
_symmetry_space_group_name_H-M   'P 1'
_cell_length_a   5.17525600
_cell_length_b   5.17525600
_cell_length_c   5.17525600
_cell_angle_alpha   90.00000000
_cell_angle_beta   90.00000000
_cell_angle_gamma   90.00000000
_symmetry_Int_Tables_number   1
_chemical_formula_structural   SnO2
_chemical_formula_sum   'Sn4 O8'
_cell_volume   138.61030291
_cell_formula_units_Z   4
loop_
 _symmetry_equiv_pos_site_id
 _symmetry_equiv_pos_as_xyz
  1  'x, y, z'
loop_
 _atom_site_type_symbol
 _atom_site_label
 _atom_site_symmetry_multiplicity
 _atom_site_fract_x
 _atom_site_fract_y
 _atom_site_fract_z
 _atom_site_occupancy
  Sn  Sn0  1  0.00000000  0.50000000  0.50000000  1
  Sn  Sn1  1  0.50000000  0.50000000  0.00000000  1
  Sn  Sn2  1  0.50000000  0.00000000  0.50000000  1
  Sn  Sn3  1  0.00000000  0.00000000  0.00000000  1
  O  O0  1  0.33890200  0.16109800  0.83890200  1
  O  O1  1  0.16109800  0.83890200  0.33890200  1
  O  O2  1  0.83890200  0.33890200  0.16109800  1
  O  O3  1  0.66109800  0.66109800  0.66109800  1
  O  O4  1  0.33890200  0.33890200  0.33890200  1
  O  O5  1  0.16109800  0.66109800  0.83890200  1
  O  O6  1  0.83890200  0.16109800  0.66109800  1
  O  O7  1  0.66109800  0.83890200  0.16109800  1
loop_
_geom_bond_atom_site_label_1
_geom_bond_atom_site_label_2
_geom_bond_distance
_geom_bond_site_symmetry_2
O0 Sn1 2.113379 1_556
O0 Sn3 2.113379 1_556
O0 Sn2 2.113379 1_555
O1 Sn3 2.113379 1_565
O1 Sn2 2.113379 1_565
O1 Sn0 2.113379 1_555
O2 Sn1 2.113379 1_555
O2 Sn3 2.113379 1_655
O2 Sn0 2.113379 1_655
O3 Sn1 2.113379 1_556
O3 Sn2 2.113379 1_565
O3 Sn0 2.113379 1_655
O4 Sn1 2.113379 1_555
O4 Sn0 2.113379 1_555
O4 Sn2 2.113379 1_555
O5 Sn3 2.113379 1_566
O5 Sn0 2.113379 1_555
O5 Sn1 2.113379 1_556
O6 Sn3 2.113379 1_656
O6 Sn0 2.113379 1_655
O6 Sn2 2.113379 1_555
O7 Sn1 2.113379 1_555
O7 Sn3 2.113379 1_665
O7 Sn2 2.113379 1_565
