# generated using pymatgen
data_Yb2Ge4Ru3
_symmetry_space_group_name_H-M   'P 1'
_cell_length_a   10.32899492
_cell_length_b   10.32899492
_cell_length_c   13.86150249
_cell_angle_alpha   53.20149698
_cell_angle_beta   53.20149698
_cell_angle_gamma   30.91987238
_symmetry_Int_Tables_number   1
_chemical_formula_structural   Yb2Ge4Ru3
_chemical_formula_sum   'Yb8 Ge16 Ru12'
_cell_volume   595.31821726
_cell_formula_units_Z   4
loop_
 _symmetry_equiv_pos_site_id
 _symmetry_equiv_pos_as_xyz
  1  'x, y, z'
loop_
 _atom_site_type_symbol
 _atom_site_label
 _atom_site_symmetry_multiplicity
 _atom_site_fract_x
 _atom_site_fract_y
 _atom_site_fract_z
 _atom_site_occupancy
  Yb  Yb0  1  0.29167851  0.56763303  0.64160069  1
  Yb  Yb1  1  0.71492726  0.95871211  0.85888441  1
  Yb  Yb2  1  0.28507274  0.04128789  0.14111559  1
  Yb  Yb3  1  0.43236697  0.70832149  0.85839931  1
  Yb  Yb4  1  0.04128789  0.28507274  0.64111559  1
  Yb  Yb5  1  0.56763303  0.29167851  0.14160069  1
  Yb  Yb6  1  0.95871211  0.71492726  0.35888441  1
  Yb  Yb7  1  0.70832149  0.43236697  0.35839931  1
  Ge  Ge0  1  0.03242532  0.74276379  0.10509876  1
  Ge  Ge1  1  0.61438350  0.85397724  0.60488777  1
  Ge  Ge2  1  0.96757468  0.25723621  0.89490124  1
  Ge  Ge3  1  0.38472568  0.61527432  0.25000000  1
  Ge  Ge4  1  0.38561650  0.14602276  0.39511223  1
  Ge  Ge5  1  0.56369754  0.09377762  0.06586156  1
  Ge  Ge6  1  0.14602276  0.38561650  0.89511223  1
  Ge  Ge7  1  0.25723621  0.96757468  0.39490124  1
  Ge  Ge8  1  0.09377762  0.56369754  0.56586156  1
  Ge  Ge9  1  0.43630246  0.90622238  0.93413844  1
  Ge  Ge10  1  0.12689455  0.87310545  0.75000000  1
  Ge  Ge11  1  0.74276379  0.03242532  0.60509876  1
  Ge  Ge12  1  0.87310545  0.12689455  0.25000000  1
  Ge  Ge13  1  0.61527432  0.38472568  0.75000000  1
  Ge  Ge14  1  0.90622238  0.43630246  0.43413844  1
  Ge  Ge15  1  0.85397724  0.61438350  0.10488777  1
  Ru  Ru0  1  0.14455997  0.89237951  0.08663546  1
  Ru  Ru1  1  0.16200702  0.35805699  0.21824660  1
  Ru  Ru2  1  0.35805699  0.16200702  0.71824660  1
  Ru  Ru3  1  0.83799298  0.64194301  0.78175340  1
  Ru  Ru4  1  0.51545739  0.23875941  0.43200298  1
  Ru  Ru5  1  0.85544003  0.10762049  0.91336454  1
  Ru  Ru6  1  0.64194301  0.83799298  0.28175340  1
  Ru  Ru7  1  0.23875941  0.51545739  0.93200298  1
  Ru  Ru8  1  0.76124059  0.48454261  0.06799702  1
  Ru  Ru9  1  0.10762049  0.85544003  0.41336454  1
  Ru  Ru10  1  0.89237951  0.14455997  0.58663546  1
  Ru  Ru11  1  0.48454261  0.76124059  0.56799702  1
loop_
_geom_bond_atom_site_label_1
_geom_bond_atom_site_label_2
_geom_bond_distance
_geom_bond_site_symmetry_2
Ge0 Ru1 2.442203 1_555
Ge0 Ru0 2.457106 1_555
Ge0 Ru5 2.570737 1_464
Ge0 Ru6 2.734562 1_455
Ge0 Ge5 2.748730 1_465
Ge0 Ru7 2.801566 1_554
Ge0 Yb5 2.976330 1_555
Ge0 Yb6 2.998789 1_455
Ge0 Yb5 3.045355 1_465
Ge0 Yb3 3.301188 1_554
Ge1 Ru2 2.480687 1_565
Ge1 Ru11 2.567133 1_555
Ge1 Ge8 2.657465 1_655
Ge1 Ru4 2.671760 1_565
Ge1 Ru3 2.795288 1_555
Ge1 Yb3 2.958257 1_555
Ge1 Yb4 2.980886 1_655
Ge1 Yb6 2.985580 1_555
Ge1 Yb4 3.002128 1_565
Ge2 Ru3 2.442203 1_555
Ge2 Ru5 2.457106 1_555
Ge2 Ru0 2.570737 1_646
Ge2 Ru2 2.734562 1_655
Ge2 Ge9 2.748730 1_645
Ge2 Ru8 2.801566 1_556
Ge2 Yb3 2.976330 1_555
Ge2 Yb4 2.998789 1_655
Ge2 Yb3 3.045355 1_645
Ge2 Yb5 3.301188 1_556
Ge3 Ru9 2.501285 1_555
Ge3 Ru0 2.501285 1_555
Ge3 Ru8 2.574760 1_555
Ge3 Ru4 2.574760 1_555
Ge3 Yb7 2.963121 1_555
Ge3 Yb5 2.963121 1_555
Ge3 Yb2 2.972135 1_565
Ge3 Yb6 2.972135 1_455
Ge4 Ru6 2.480687 1_545
Ge4 Ru4 2.567133 1_555
Ge4 Ru11 2.671760 1_545
Ge4 Ru1 2.795288 1_555
Ge4 Yb5 2.958257 1_555
Ge4 Yb6 2.980886 1_455
Ge4 Yb4 2.985580 1_555
Ge4 Yb6 3.002128 1_545
Ge5 Ru1 2.470566 1_555
Ge5 Ru5 2.513053 1_554
Ge5 Ru6 2.520093 1_545
Ge5 Ru7 2.524884 1_554
Ge5 Yb5 2.836710 1_555
Ge5 Yb2 2.840350 1_555
Ge5 Yb1 2.881779 1_544
Ge6 Ru3 2.480687 1_455
Ge6 Ru7 2.567133 1_555
Ge6 Ge9 2.657465 1_545
Ge6 Ru8 2.671760 1_456
Ge6 Ru2 2.795288 1_555
Ge6 Yb0 2.958257 1_555
Ge6 Yb1 2.980886 1_545
Ge6 Yb2 2.985580 1_556
Ge6 Yb1 3.002128 1_455
Ge7 Ru6 2.442203 1_555
Ge7 Ru9 2.457106 1_555
Ge7 Ru10 2.570737 1_465
Ge7 Ru1 2.734562 1_565
Ge7 Ru11 2.801566 1_555
Ge7 Yb7 2.976330 1_555
Ge7 Yb2 2.998789 1_565
Ge7 Yb7 3.045355 1_465
Ge7 Yb0 3.301188 1_555
Ge8 Ru2 2.470566 1_555
Ge8 Ru9 2.513053 1_555
Ge8 Ru3 2.520093 1_455
Ge8 Ru4 2.524884 1_555
Ge8 Yb0 2.836710 1_555
Ge8 Yb4 2.840350 1_555
Ge8 Yb6 2.881779 1_455
Ge9 Ru3 2.470566 1_555
Ge9 Ru0 2.513053 1_556
Ge9 Ru2 2.520093 1_565
Ge9 Ru8 2.524884 1_556
Ge9 Yb3 2.836710 1_555
Ge9 Yb1 2.840350 1_555
Ge9 Yb2 2.881779 1_566
Ge10 Ru5 2.483699 1_465
Ge10 Ru10 2.483699 1_465
Ge10 Ru7 2.519917 1_555
Ge10 Ru11 2.519917 1_555
Ge10 Yb0 2.917479 1_555
Ge10 Yb3 2.917479 1_555
Ge10 Yb4 2.935246 1_565
Ge10 Yb1 2.935246 1_455
Ge11 Ru2 2.442203 1_555
Ge11 Ru10 2.457106 1_555
Ge11 Ru9 2.570737 1_645
Ge11 Ru3 2.734562 1_545
Ge11 Ge8 2.748730 1_645
Ge11 Ru4 2.801566 1_555
Ge11 Yb0 2.976330 1_555
Ge11 Yb1 2.998789 1_545
Ge11 Yb0 3.045355 1_645
Ge11 Yb7 3.301188 1_555
Ge12 Ru9 2.483699 1_645
Ge12 Ru0 2.483699 1_645
Ge12 Ru4 2.519917 1_555
Ge12 Ru8 2.519917 1_555
Ge12 Yb5 2.917479 1_555
Ge12 Yb7 2.917479 1_555
Ge12 Yb2 2.935246 1_655
Ge12 Yb6 2.935246 1_545
Ge13 Ru5 2.501285 1_555
Ge13 Ru10 2.501285 1_555
Ge13 Ru11 2.574760 1_555
Ge13 Ru7 2.574760 1_555
Ge13 Yb3 2.963121 1_555
Ge13 Yb0 2.963121 1_555
Ge13 Yb4 2.972135 1_655
Ge13 Yb1 2.972135 1_545
Ge14 Ru6 2.470566 1_555
Ge14 Ru10 2.513053 1_555
Ge14 Ru1 2.520093 1_655
Ge14 Ru11 2.524884 1_555
Ge14 Ge4 2.657465 1_655
Ge14 Ge7 2.748730 1_645
Ge14 Yb7 2.836710 1_555
Ge14 Yb6 2.840350 1_555
Ge14 Yb4 2.881779 1_655
Ge15 Ru1 2.480687 1_655
Ge15 Ru8 2.567133 1_555
Ge15 Ge5 2.657465 1_565
Ge15 Ru7 2.671760 1_654
Ge15 Ru6 2.795288 1_555
Ge15 Yb7 2.958257 1_555
Ge15 Yb2 2.980886 1_565
Ge15 Yb1 2.985580 1_554
Ge15 Yb2 3.002128 1_655
Ru0 Yb3 2.949932 1_554
Ru0 Yb5 3.042624 1_465
Ru0 Yb5 3.158872 1_555
Ru0 Yb6 3.218325 1_455
Ru1 Yb2 2.981765 1_555
Ru1 Yb5 3.124716 1_555
Ru1 Yb7 3.321387 1_455
Ru2 Yb4 2.981765 1_555
Ru2 Yb0 3.124716 1_555
Ru2 Yb3 3.321387 1_545
Ru3 Yb1 2.981765 1_555
Ru3 Yb3 3.124716 1_555
Ru3 Yb0 3.321387 1_655
Ru4 Yb6 3.125922 1_545
Ru4 Yb6 3.281682 1_455
Ru4 Yb7 3.311264 1_555
Ru5 Yb5 2.949932 1_556
Ru5 Yb3 3.042624 1_645
Ru5 Yb3 3.158872 1_555
Ru5 Yb4 3.218325 1_655
Ru6 Yb6 2.981765 1_555
Ru6 Yb7 3.124716 1_555
Ru6 Yb5 3.321387 1_565
Ru7 Yb1 3.125922 1_455
Ru7 Yb1 3.281682 1_545
Ru7 Yb3 3.311264 1_555
Ru8 Yb2 3.125922 1_655
Ru8 Yb2 3.281682 1_565
Ru8 Yb5 3.311264 1_555
Ru9 Yb0 2.949932 1_555
Ru9 Yb7 3.042624 1_465
Ru9 Yb7 3.158872 1_555
Ru9 Yb2 3.218325 1_565
Ru10 Yb7 2.949932 1_555
Ru10 Yb0 3.042624 1_645
Ru10 Yb0 3.158872 1_555
Ru10 Yb1 3.218325 1_545
Ru11 Yb4 3.125922 1_565
Ru11 Yb4 3.281682 1_655
Ru11 Yb0 3.311264 1_555
