# generated using pymatgen
data_CrSn2
_symmetry_space_group_name_H-M   'P 1'
_cell_length_a   10.34443661
_cell_length_b   9.61760572
_cell_length_c   5.40397368
_cell_angle_alpha   81.87344077
_cell_angle_beta   66.98475045
_cell_angle_gamma   31.14180878
_symmetry_Int_Tables_number   1
_chemical_formula_structural   CrSn2
_chemical_formula_sum   'Cr4 Sn8'
_cell_volume   233.86465263
_cell_formula_units_Z   4
loop_
 _symmetry_equiv_pos_site_id
 _symmetry_equiv_pos_as_xyz
  1  'x, y, z'
loop_
 _atom_site_type_symbol
 _atom_site_label
 _atom_site_symmetry_multiplicity
 _atom_site_fract_x
 _atom_site_fract_y
 _atom_site_fract_z
 _atom_site_occupancy
  Cr  Cr0  1  0.37334400  0.37334400  0.62665600  1
  Cr  Cr1  1  0.62665600  0.62665600  0.37334400  1
  Cr  Cr2  1  0.87665600  0.87665600  0.62334400  1
  Cr  Cr3  1  0.62334400  0.62334400  0.87665600  1
  Sn  Sn0  1  0.08134400  0.08134400  0.91865600  1
  Sn  Sn1  1  0.91865600  0.91865600  0.08134400  1
  Sn  Sn2  1  0.16865600  0.16865600  0.33134400  1
  Sn  Sn3  1  0.33134400  0.33134400  0.16865600  1
  Sn  Sn4  1  0.33509200  0.66490800  0.33509200  1
  Sn  Sn5  1  0.66490800  0.33509200  0.66490800  1
  Sn  Sn6  1  0.91490800  0.58509200  0.91490800  1
  Sn  Sn7  1  0.58509200  0.91490800  0.58509200  1
loop_
_geom_bond_atom_site_label_1
_geom_bond_atom_site_label_2
_geom_bond_distance
_geom_bond_site_symmetry_2
Cr0 Cr2 2.702678 1_545
Cr0 Cr2 2.702678 1_455
Cr0 Sn7 2.766158 1_545
Cr0 Sn6 2.766158 1_455
Cr0 Sn5 2.800245 1_555
Cr0 Sn4 2.800245 1_555
Cr0 Sn3 2.810972 1_556
Cr0 Sn3 2.810972 1_555
Cr0 Sn1 2.836596 1_456
Cr0 Sn1 2.836596 1_545
Cr1 Cr3 2.702678 1_555
Cr1 Cr3 2.702678 1_554
Cr1 Sn7 2.766158 1_555
Cr1 Sn6 2.766158 1_554
Cr1 Sn5 2.800245 1_555
Cr1 Sn4 2.800245 1_555
Cr1 Sn2 2.810972 1_655
Cr1 Sn2 2.810972 1_565
Cr1 Sn0 2.836596 1_565
Cr1 Sn0 2.836596 1_654
Cr2 Sn5 2.766158 1_565
Cr2 Sn4 2.766158 1_655
Cr2 Sn6 2.800245 1_555
Cr2 Sn7 2.800245 1_555
Cr2 Sn1 2.810972 1_556
Cr2 Sn1 2.810972 1_555
Cr2 Sn3 2.836596 1_566
Cr2 Sn3 2.836596 1_655
Cr3 Sn4 2.766158 1_556
Cr3 Sn5 2.766158 1_555
Cr3 Sn6 2.800245 1_555
Cr3 Sn7 2.800245 1_555
Cr3 Sn0 2.810972 1_655
Cr3 Sn0 2.810972 1_565
Cr3 Sn2 2.836596 1_566
Cr3 Sn2 2.836596 1_655
Sn0 Sn1 3.002489 1_446
Sn0 Sn2 3.145997 1_556
Sn0 Sn2 3.145997 1_555
Sn1 Sn3 3.145997 1_655
Sn1 Sn3 3.145997 1_565
Sn2 Sn3 3.002489 1_555
Sn4 Sn5 3.083805 1_555
Sn4 Sn5 3.143084 1_554
Sn4 Sn5 3.143084 1_465
Sn6 Sn7 3.083805 1_555
Sn6 Sn7 3.143084 1_645
Sn6 Sn7 3.143084 1_556
