# generated using pymatgen
data_Ba2As6O11
_symmetry_space_group_name_H-M   'P 1'
_cell_length_a   7.02232400
_cell_length_b   7.03369942
_cell_length_c   7.49684471
_cell_angle_alpha   81.67001346
_cell_angle_beta   73.88259363
_cell_angle_gamma   78.02894065
_symmetry_Int_Tables_number   1
_chemical_formula_structural   Ba2As6O11
_chemical_formula_sum   'Ba2 As6 O11'
_cell_volume   346.49583570
_cell_formula_units_Z   1
loop_
 _symmetry_equiv_pos_site_id
 _symmetry_equiv_pos_as_xyz
  1  'x, y, z'
loop_
 _atom_site_type_symbol
 _atom_site_label
 _atom_site_symmetry_multiplicity
 _atom_site_fract_x
 _atom_site_fract_y
 _atom_site_fract_z
 _atom_site_occupancy
  Ba  Ba0  1  0.71868800  0.81502100  0.59491400  1
  Ba  Ba1  1  0.49717100  0.31303900  0.00140200  1
  As  As0  1  0.13305800  0.44815700  0.40784500  1
  As  As1  1  0.22689100  0.69678900  0.68703600  1
  As  As2  1  0.87259100  0.86413800  0.05066400  1
  As  As3  1  0.07098600  0.13769000  0.97535100  1
  As  As4  1  0.72679800  0.30547500  0.36025800  1
  As  As5  1  0.35469000  0.82446100  0.21701200  1
  O  O0  1  0.46143200  0.92813200  0.37916900  1
  O  O1  1  0.21810800  0.07313400  0.15549100  1
  O  O2  1  0.07522600  0.68091100  0.93140900  1
  O  O3  1  0.51522300  0.45987700  0.31493100  1
  O  O4  1  0.09289200  0.48876500  0.64411800  1
  O  O5  1  0.85700400  0.47529000  0.42732100  1
  O  O6  1  0.45305800  0.57702200  0.73930500  1
  O  O7  1  0.85772300  0.30845700  0.10210300  1
  O  O8  1  0.12247400  0.72503400  0.32364100  1
  O  O9  1  0.73372900  0.98138000  0.88494300  1
  O  O10  1  0.35995800  0.02402700  0.55198800  1
loop_
_geom_bond_atom_site_label_1
_geom_bond_atom_site_label_2
_geom_bond_distance
_geom_bond_site_symmetry_2
Ba0 O9 2.650260 1_555
Ba0 O6 2.665110 1_555
Ba0 O0 2.676890 1_555
Ba0 O10 2.717982 1_565
Ba0 O5 2.731586 1_555
Ba0 O8 3.000575 1_655
Ba0 O4 3.177849 1_655
Ba1 O6 2.539024 1_554
Ba1 O9 2.672269 1_544
Ba1 O3 2.744206 1_555
Ba1 O1 2.751769 1_555
Ba1 O7 2.828765 1_555
As0 O4 1.770432 1_555
As0 O5 1.874335 1_455
As0 O8 1.951014 1_555
As1 O6 1.755136 1_555
As1 O2 1.846576 1_555
As1 O4 2.001381 1_555
As2 O9 1.793500 1_554
As2 O2 1.830796 1_654
As3 O7 1.839253 1_456
As3 O1 1.870755 1_556
As4 O3 1.733891 1_555
As4 O5 1.843296 1_555
As4 O7 1.897267 1_555
As4 Ba0 3.642241 1_545
As5 O8 1.837011 1_555
As5 O1 1.872937 1_565
As5 O0 1.887047 1_555
O0 O10 1.477338 1_565
