# generated using pymatgen
data_K(WO3)9
_symmetry_space_group_name_H-M   'P 1'
_cell_length_a   7.50981289
_cell_length_b   7.50981289
_cell_length_c   46.37742800
_cell_angle_alpha   90.00000000
_cell_angle_beta   90.00000000
_cell_angle_gamma   120.00000786
_symmetry_Int_Tables_number   1
_chemical_formula_structural   K(WO3)9
_chemical_formula_sum   'K4 W36 O108'
_cell_volume   2265.14230079
_cell_formula_units_Z   4
loop_
 _symmetry_equiv_pos_site_id
 _symmetry_equiv_pos_as_xyz
  1  'x, y, z'
loop_
 _atom_site_type_symbol
 _atom_site_label
 _atom_site_symmetry_multiplicity
 _atom_site_fract_x
 _atom_site_fract_y
 _atom_site_fract_z
 _atom_site_occupancy
  K  K0  1  0.00000000  0.00000000  0.29089600  1
  K  K1  1  0.00000000  0.00000000  0.45369000  1
  K  K2  1  0.00000000  0.00000000  0.70910400  1
  K  K3  1  0.00000000  0.00000000  0.54631000  1
  W  W0  1  0.00000000  0.50911400  0.83394600  1
  W  W1  1  0.00000000  0.51082600  0.00000000  1
  W  W2  1  0.00000000  0.50911400  0.16605400  1
  W  W3  1  0.00000000  0.50222900  0.33304000  1
  W  W4  1  0.00000000  0.49920100  0.50000000  1
  W  W5  1  0.00000000  0.50222900  0.66696000  1
  W  W6  1  0.49088600  0.49088600  0.83394600  1
  W  W7  1  0.48917400  0.48917400  0.00000000  1
  W  W8  1  0.49088600  0.49088600  0.16605400  1
  W  W9  1  0.49777100  0.49777100  0.33304000  1
  W  W10  1  0.50079900  0.50079900  0.50000000  1
  W  W11  1  0.49777100  0.49777100  0.66696000  1
  W  W12  1  0.50400500  0.50400500  0.75060700  1
  W  W13  1  0.51047200  0.51047200  0.91697200  1
  W  W14  1  0.51047200  0.51047200  0.08302800  1
  W  W15  1  0.50400500  0.50400500  0.24939300  1
  W  W16  1  0.50098100  0.50098100  0.41634500  1
  W  W17  1  0.50098100  0.50098100  0.58365500  1
  W  W18  1  0.49599500  0.00000000  0.75060700  1
  W  W19  1  0.48952800  0.00000000  0.91697200  1
  W  W20  1  0.48952800  0.00000000  0.08302800  1
  W  W21  1  0.49599500  0.00000000  0.24939300  1
  W  W22  1  0.49901900  0.00000000  0.41634500  1
  W  W23  1  0.49901900  0.00000000  0.58365500  1
  W  W24  1  0.50911400  0.00000000  0.83394600  1
  W  W25  1  0.51082600  0.00000000  0.00000000  1
  W  W26  1  0.50911400  0.00000000  0.16605400  1
  W  W27  1  0.50222900  0.00000000  0.33304000  1
  W  W28  1  0.49920100  0.00000000  0.50000000  1
  W  W29  1  0.50222900  0.00000000  0.66696000  1
  W  W30  1  0.00000000  0.49599500  0.75060700  1
  W  W31  1  0.00000000  0.48952800  0.91697200  1
  W  W32  1  0.00000000  0.48952800  0.08302800  1
  W  W33  1  0.00000000  0.49599500  0.24939300  1
  W  W34  1  0.00000000  0.49901900  0.41634500  1
  W  W35  1  0.00000000  0.49901900  0.58365500  1
  O  O0  1  0.00000000  0.49988600  0.79117000  1
  O  O1  1  0.00000000  0.49976400  0.95830800  1
  O  O2  1  0.00000000  0.50083400  0.12519400  1
  O  O3  1  0.00000000  0.50049400  0.29184000  1
  O  O4  1  0.00000000  0.49940400  0.45852500  1
  O  O5  1  0.00000000  0.49976400  0.62486900  1
  O  O6  1  0.21102000  0.78766700  0.74988800  1
  O  O7  1  0.21172800  0.78495900  0.91714900  1
  O  O8  1  0.21172800  0.78495900  0.08285100  1
  O  O9  1  0.21102000  0.78766700  0.25011200  1
  O  O10  1  0.21129700  0.78831700  0.41782000  1
  O  O11  1  0.21129700  0.78831700  0.58218000  1
  O  O12  1  0.21503800  0.78817600  0.83233900  1
  O  O13  1  0.21503400  0.78840000  0.00000000  1
  O  O14  1  0.21503800  0.78817600  0.16766100  1
  O  O15  1  0.21222100  0.78860300  0.33245400  1
  O  O16  1  0.20972200  0.78938700  0.50000000  1
  O  O17  1  0.21222100  0.78860300  0.66754600  1
  O  O18  1  0.21182400  0.42686300  0.83233900  1
  O  O19  1  0.21160000  0.42663400  0.00000000  1
  O  O20  1  0.21182400  0.42686300  0.16766100  1
  O  O21  1  0.21139700  0.42361800  0.33245400  1
  O  O22  1  0.21061300  0.42033500  0.50000000  1
  O  O23  1  0.21139700  0.42361800  0.66754600  1
  O  O24  1  0.49988600  0.00000000  0.79117000  1
  O  O25  1  0.49976400  0.00000000  0.95830800  1
  O  O26  1  0.50083400  0.00000000  0.12519400  1
  O  O27  1  0.50049400  0.00000000  0.29184000  1
  O  O28  1  0.49940400  0.00000000  0.45852500  1
  O  O29  1  0.49976400  0.00000000  0.62486900  1
  O  O30  1  0.21233300  0.42335300  0.74988800  1
  O  O31  1  0.21504100  0.42676900  0.91714900  1
  O  O32  1  0.21504100  0.42676900  0.08285100  1
  O  O33  1  0.21233300  0.42335300  0.25011200  1
  O  O34  1  0.21168300  0.42298000  0.41782000  1
  O  O35  1  0.21168300  0.42298000  0.58218000  1
  O  O36  1  0.57664700  0.78898000  0.74988800  1
  O  O37  1  0.57323100  0.78827200  0.91714900  1
  O  O38  1  0.57323100  0.78827200  0.08285100  1
  O  O39  1  0.57664700  0.78898000  0.25011200  1
  O  O40  1  0.57702000  0.78870300  0.41782000  1
  O  O41  1  0.57702000  0.78870300  0.58218000  1
  O  O42  1  0.57313700  0.78496200  0.83233900  1
  O  O43  1  0.57336600  0.78496600  0.00000000  1
  O  O44  1  0.57638200  0.78777900  0.33245400  1
  O  O45  1  0.57313700  0.78496200  0.16766100  1
  O  O46  1  0.57966500  0.79027800  0.50000000  1
  O  O47  1  0.57638200  0.78777900  0.66754600  1
  O  O48  1  0.50011400  0.50011400  0.79117000  1
  O  O49  1  0.50023600  0.50023600  0.95830800  1
  O  O50  1  0.49916600  0.49916600  0.12519400  1
  O  O51  1  0.49950600  0.49950600  0.29184000  1
  O  O52  1  0.50059600  0.50059600  0.45852500  1
  O  O53  1  0.50023600  0.50023600  0.62486900  1
  O  O54  1  0.49916600  0.49916600  0.87480600  1
  O  O55  1  0.50023600  0.50023600  0.04169200  1
  O  O56  1  0.50011400  0.50011400  0.20883000  1
  O  O57  1  0.50023600  0.50023600  0.37513100  1
  O  O58  1  0.50059600  0.50059600  0.54147500  1
  O  O59  1  0.49950600  0.49950600  0.70816000  1
  O  O60  1  0.42676900  0.21504100  0.91714900  1
  O  O61  1  0.42676900  0.21504100  0.08285100  1
  O  O62  1  0.42335300  0.21233300  0.25011200  1
  O  O63  1  0.42298000  0.21168300  0.41782000  1
  O  O64  1  0.42298000  0.21168300  0.58218000  1
  O  O65  1  0.42335300  0.21233300  0.74988800  1
  O  O66  1  0.42686300  0.21182400  0.83233900  1
  O  O67  1  0.42663400  0.21160000  0.00000000  1
  O  O68  1  0.42686300  0.21182400  0.16766100  1
  O  O69  1  0.42361800  0.21139700  0.33245400  1
  O  O70  1  0.42033500  0.21061300  0.50000000  1
  O  O71  1  0.42361800  0.21139700  0.66754600  1
  O  O72  1  0.78496200  0.57313700  0.83233900  1
  O  O73  1  0.78496600  0.57336600  0.00000000  1
  O  O74  1  0.78496200  0.57313700  0.16766100  1
  O  O75  1  0.78777900  0.57638200  0.33245400  1
  O  O76  1  0.79027800  0.57966500  0.50000000  1
  O  O77  1  0.78777900  0.57638200  0.66754600  1
  O  O78  1  0.50083400  0.00000000  0.87480600  1
  O  O79  1  0.49976400  0.00000000  0.04169200  1
  O  O80  1  0.49988600  0.00000000  0.20883000  1
  O  O81  1  0.49976400  0.00000000  0.37513100  1
  O  O82  1  0.49940400  0.00000000  0.54147500  1
  O  O83  1  0.50049400  0.00000000  0.70816000  1
  O  O84  1  0.78827200  0.57323100  0.91714900  1
  O  O85  1  0.78827200  0.57323100  0.08285100  1
  O  O86  1  0.78898000  0.57664700  0.25011200  1
  O  O87  1  0.78870300  0.57702000  0.41782000  1
  O  O88  1  0.78870300  0.57702000  0.58218000  1
  O  O89  1  0.78898000  0.57664700  0.74988800  1
  O  O90  1  0.78495900  0.21172800  0.91714900  1
  O  O91  1  0.78495900  0.21172800  0.08285100  1
  O  O92  1  0.78766700  0.21102000  0.25011200  1
  O  O93  1  0.78831700  0.21129700  0.41782000  1
  O  O94  1  0.78831700  0.21129700  0.58218000  1
  O  O95  1  0.78766700  0.21102000  0.74988800  1
  O  O96  1  0.78817600  0.21503800  0.83233900  1
  O  O97  1  0.78840000  0.21503400  0.00000000  1
  O  O98  1  0.78817600  0.21503800  0.16766100  1
  O  O99  1  0.78860300  0.21222100  0.33245400  1
  O  O100  1  0.78938700  0.20972200  0.50000000  1
  O  O101  1  0.78860300  0.21222100  0.66754600  1
  O  O102  1  0.00000000  0.50083400  0.87480600  1
  O  O103  1  0.00000000  0.49976400  0.04169200  1
  O  O104  1  0.00000000  0.49988600  0.20883000  1
  O  O105  1  0.00000000  0.49940400  0.54147500  1
  O  O106  1  0.00000000  0.50049400  0.70816000  1
  O  O107  1  0.00000000  0.49976400  0.37513100  1
loop_
_geom_bond_atom_site_label_1
_geom_bond_atom_site_label_2
_geom_bond_distance
_geom_bond_site_symmetry_2
K0 O62 3.340449 1_555
K0 O33 3.340449 1_555
K0 O86 3.340449 1_445
K0 O39 3.340449 1_445
K0 O92 3.340450 1_455
K0 O9 3.340450 1_545
K0 O44 3.362315 1_445
K0 O75 3.362315 1_445
K0 O21 3.362315 1_555
K0 O69 3.362315 1_555
K0 O15 3.362315 1_545
K0 O99 3.362315 1_455
K1 O63 3.214816 1_555
K1 O34 3.214816 1_555
K1 O87 3.214816 1_445
K1 O40 3.214816 1_445
K1 O10 3.214817 1_545
K1 O93 3.214817 1_455
K2 O65 3.340449 1_555
K2 O30 3.340449 1_555
K2 O89 3.340449 1_445
K2 O36 3.340449 1_445
K2 O95 3.340450 1_455
K2 O6 3.340450 1_545
K2 O77 3.362315 1_445
K2 O47 3.362315 1_445
K2 O71 3.362315 1_555
K2 O23 3.362315 1_555
K2 O101 3.362315 1_455
K2 O17 3.362315 1_545
K3 O35 3.214816 1_555
K3 O64 3.214816 1_555
K3 O41 3.214816 1_445
K3 O88 3.214816 1_445
K3 O11 3.214817 1_545
K3 O94 3.214817 1_455
O0 W30 1.881435 1_555
O0 W0 1.985051 1_555
O1 W31 1.918598 1_555
O1 W1 1.935351 1_556
O2 W2 1.896002 1_555
O2 W32 1.957393 1_555
O3 W3 1.910794 1_555
O3 W33 1.968873 1_555
O4 W4 1.923504 1_555
O4 W34 1.956202 1_555
O5 W35 1.911408 1_555
O5 W5 1.952160 1_555
O6 W18 1.926471 1_565
O6 W30 1.959372 1_555
O7 W19 1.895068 1_565
O7 W31 1.980632 1_555
O8 W20 1.895068 1_565
O8 W32 1.980632 1_555
O9 W21 1.926471 1_565
O9 W33 1.959372 1_555
O10 W22 1.940538 1_565
O10 W34 1.948140 1_555
O11 W23 1.940538 1_565
O11 W35 1.948140 1_555
O12 W0 1.902911 1_555
O12 W24 1.974898 1_565
O13 W1 1.893889 1_555
O13 W25 1.982333 1_565
O14 W2 1.902911 1_555
O14 W26 1.974898 1_565
O15 W3 1.933486 1_555
O15 W27 1.951101 1_565
O16 W28 1.946590 1_565
O16 W4 1.948689 1_555
O17 W5 1.933486 1_555
O17 W29 1.951101 1_565
O18 W6 1.902914 1_555
O18 W0 1.974893 1_555
O19 W7 1.893889 1_555
O19 W1 1.982333 1_555
O20 W8 1.902914 1_555
O20 W2 1.974893 1_555
O21 W9 1.933486 1_555
O21 W3 1.951101 1_555
O22 W4 1.946591 1_555
O22 W10 1.948689 1_555
O23 W11 1.933486 1_555
O23 W5 1.951101 1_555
O24 W18 1.881435 1_555
O24 W24 1.985051 1_555
O25 W19 1.918598 1_555
O25 W25 1.935351 1_556
O26 W26 1.896002 1_555
O26 W20 1.957393 1_555
O27 W27 1.910794 1_555
O27 W21 1.968873 1_555
O28 W28 1.923504 1_555
O28 W22 1.956202 1_555
O29 W23 1.911408 1_555
O29 W29 1.952160 1_555
O30 W30 1.926471 1_555
O30 W12 1.959372 1_555
O31 W31 1.895068 1_555
O31 W13 1.980632 1_555
O32 W32 1.895068 1_555
O32 W14 1.980632 1_555
O33 W33 1.926471 1_555
O33 W15 1.959372 1_555
O34 W34 1.940539 1_555
O34 W16 1.948140 1_555
O35 W35 1.940539 1_555
O35 W17 1.948140 1_555
O36 W12 1.926471 1_555
O36 W18 1.959372 1_565
O37 W13 1.895068 1_555
O37 W19 1.980633 1_565
O38 W14 1.895068 1_555
O38 W20 1.980633 1_565
O39 W15 1.926471 1_555
O39 W21 1.959372 1_565
O40 W16 1.940538 1_555
O40 W22 1.948141 1_565
O41 W17 1.940538 1_555
O41 W23 1.948141 1_565
O42 W24 1.902907 1_565
O42 W6 1.974900 1_555
O43 W25 1.893889 1_565
O43 W7 1.982333 1_555
O44 W27 1.933487 1_565
O44 W9 1.951101 1_555
O45 W26 1.902907 1_565
O45 W8 1.974900 1_555
O46 W10 1.946590 1_555
O46 W28 1.948689 1_565
O47 W29 1.933487 1_565
O47 W11 1.951101 1_555
O48 W12 1.881435 1_555
O48 W6 1.985051 1_555
O49 W13 1.918598 1_555
O49 W7 1.935351 1_556
O50 W8 1.896002 1_555
O50 W14 1.957393 1_555
O51 W9 1.910794 1_555
O51 W15 1.968873 1_555
O52 W10 1.923504 1_555
O52 W16 1.956202 1_555
O53 W17 1.911408 1_555
O53 W11 1.952160 1_555
O54 W6 1.896002 1_555
O54 W13 1.957393 1_555
O55 W14 1.918598 1_555
O55 W7 1.935351 1_555
O56 W15 1.881435 1_555
O56 W8 1.985051 1_555
O57 W16 1.911408 1_555
O57 W9 1.952160 1_555
O58 W10 1.923504 1_555
O58 W17 1.956202 1_555
O59 W11 1.910794 1_555
O59 W12 1.968873 1_555
O60 W19 1.895068 1_555
O60 W13 1.980632 1_555
O61 W20 1.895068 1_555
O61 W14 1.980632 1_555
O62 W21 1.926471 1_555
O62 W15 1.959372 1_555
O63 W22 1.940539 1_555
O63 W16 1.948140 1_555
O64 W23 1.940539 1_555
O64 W17 1.948140 1_555
O65 W18 1.926471 1_555
O65 W12 1.959372 1_555
O66 W6 1.902914 1_555
O66 W24 1.974893 1_555
O67 W7 1.893889 1_555
O67 W25 1.982333 1_555
O68 W8 1.902914 1_555
O68 W26 1.974893 1_555
O69 W9 1.933486 1_555
O69 W27 1.951101 1_555
O70 W28 1.946591 1_555
O70 W10 1.948689 1_555
O71 W11 1.933486 1_555
O71 W29 1.951101 1_555
O72 W0 1.902907 1_655
O72 W6 1.974900 1_555
O73 W1 1.893889 1_655
O73 W7 1.982333 1_555
O74 W2 1.902907 1_655
O74 W8 1.974900 1_555
O75 W3 1.933487 1_655
O75 W9 1.951101 1_555
O76 W10 1.946590 1_555
O76 W4 1.948689 1_655
O77 W5 1.933487 1_655
O77 W11 1.951101 1_555
O78 W24 1.896002 1_555
O78 W19 1.957393 1_555
O79 W20 1.918598 1_555
O79 W25 1.935351 1_555
O80 W21 1.881435 1_555
O80 W26 1.985051 1_555
O81 W22 1.911408 1_555
O81 W27 1.952160 1_555
O82 W28 1.923504 1_555
O82 W23 1.956202 1_555
O83 W29 1.910794 1_555
O83 W18 1.968873 1_555
O84 W13 1.895068 1_555
O84 W31 1.980633 1_655
O85 W14 1.895068 1_555
O85 W32 1.980633 1_655
O86 W15 1.926471 1_555
O86 W33 1.959372 1_655
O87 W16 1.940538 1_555
O87 W34 1.948141 1_655
O88 W17 1.940538 1_555
O88 W35 1.948141 1_655
O89 W12 1.926471 1_555
O89 W30 1.959372 1_655
O90 W31 1.895068 1_655
O90 W19 1.980632 1_555
O91 W32 1.895068 1_655
O91 W20 1.980632 1_555
O92 W33 1.926471 1_655
O92 W21 1.959372 1_555
O93 W34 1.940538 1_655
O93 W22 1.948140 1_555
O94 W35 1.940538 1_655
O94 W23 1.948140 1_555
O95 W30 1.926471 1_655
O95 W18 1.959372 1_555
O96 W24 1.902911 1_555
O96 W0 1.974898 1_655
O97 W25 1.893889 1_555
O97 W1 1.982333 1_655
O98 W26 1.902911 1_555
O98 W2 1.974898 1_655
O99 W27 1.933486 1_555
O99 W3 1.951101 1_655
O100 W4 1.946590 1_655
O100 W28 1.948689 1_555
O101 W29 1.933486 1_555
O101 W5 1.951101 1_655
O102 W0 1.896002 1_555
O102 W31 1.957393 1_555
O103 W32 1.918598 1_555
O103 W1 1.935351 1_555
O104 W33 1.881435 1_555
O104 W2 1.985051 1_555
O105 W4 1.923504 1_555
O105 W35 1.956202 1_555
O106 W5 1.910794 1_555
O106 W30 1.968873 1_555
O107 W34 1.911408 1_555
O107 W3 1.952160 1_555
