# generated using pymatgen
data_Cs2Bi8Se13
_symmetry_space_group_name_H-M   'P 1'
_cell_length_a   4.22603900
_cell_length_b   14.14728200
_cell_length_c   25.38798032
_cell_angle_alpha   83.02472528
_cell_angle_beta   90.00000000
_cell_angle_gamma   90.00000000
_symmetry_Int_Tables_number   1
_chemical_formula_structural   Cs2Bi8Se13
_chemical_formula_sum   'Cs4 Bi16 Se26'
_cell_volume   1506.63601402
_cell_formula_units_Z   2
loop_
 _symmetry_equiv_pos_site_id
 _symmetry_equiv_pos_as_xyz
  1  'x, y, z'
loop_
 _atom_site_type_symbol
 _atom_site_label
 _atom_site_symmetry_multiplicity
 _atom_site_fract_x
 _atom_site_fract_y
 _atom_site_fract_z
 _atom_site_occupancy
  Cs  Cs0  1  0.25000000  0.58612900  0.87978800  1
  Cs  Cs1  1  0.75000000  0.41387100  0.12021200  1
  Cs  Cs2  1  0.25000000  0.27456300  0.36059200  1
  Cs  Cs3  1  0.75000000  0.72543700  0.63940800  1
  Bi  Bi0  1  0.25000000  0.95575800  0.93115100  1
  Bi  Bi1  1  0.25000000  0.11010000  0.21234700  1
  Bi  Bi2  1  0.75000000  0.72498900  0.03220600  1
  Bi  Bi3  1  0.25000000  0.27501100  0.96779400  1
  Bi  Bi4  1  0.25000000  0.94727100  0.44132100  1
  Bi  Bi5  1  0.25000000  0.80385700  0.16932800  1
  Bi  Bi6  1  0.25000000  0.12271500  0.69133900  1
  Bi  Bi7  1  0.25000000  0.57254200  0.43682600  1
  Bi  Bi8  1  0.25000000  0.43539300  0.73241600  1
  Bi  Bi9  1  0.75000000  0.42745800  0.56317400  1
  Bi  Bi10  1  0.75000000  0.88990000  0.78765300  1
  Bi  Bi11  1  0.75000000  0.05272900  0.55867900  1
  Bi  Bi12  1  0.75000000  0.04424200  0.06884900  1
  Bi  Bi13  1  0.75000000  0.19614300  0.83067200  1
  Bi  Bi14  1  0.75000000  0.87728500  0.30866100  1
  Bi  Bi15  1  0.75000000  0.56460700  0.26758400  1
  Se  Se0  1  0.25000000  0.32564300  0.85448200  1
  Se  Se1  1  0.25000000  0.19144400  0.58378600  1
  Se  Se2  1  0.25000000  0.90604200  0.55168500  1
  Se  Se3  1  0.25000000  0.17911200  0.08724400  1
  Se  Se4  1  0.75000000  0.80855600  0.41621400  1
  Se  Se5  1  0.25000000  0.59860700  0.02180000  1
  Se  Se6  1  0.75000000  0.40139300  0.97820000  1
  Se  Se7  1  0.75000000  0.95444500  0.18117000  1
  Se  Se8  1  0.75000000  0.22803700  0.23491600  1
  Se  Se9  1  0.75000000  0.09395800  0.44831500  1
  Se  Se10  1  0.25000000  0.51003800  0.62707500  1
  Se  Se11  1  0.75000000  0.82088800  0.91275600  1
  Se  Se12  1  0.25000000  0.77196300  0.76508400  1
  Se  Se13  1  0.75000000  0.60914800  0.51259400  1
  Se  Se14  1  0.25000000  0.89579200  0.04813300  1
  Se  Se15  1  0.75000000  0.10420800  0.95186700  1
  Se  Se16  1  0.75000000  0.26248900  0.72071500  1
  Se  Se17  1  0.25000000  0.44904500  0.24048300  1
  Se  Se18  1  0.75000000  0.55095500  0.75951700  1
  Se  Se19  1  0.25000000  0.01673300  0.31951000  1
  Se  Se20  1  0.25000000  0.73751100  0.27928500  1
  Se  Se21  1  0.75000000  0.98326700  0.68049000  1
  Se  Se22  1  0.75000000  0.67435700  0.14551800  1
  Se  Se23  1  0.25000000  0.39085200  0.48740600  1
  Se  Se24  1  0.25000000  0.04555500  0.81883000  1
  Se  Se25  1  0.75000000  0.48996200  0.37292500  1
loop_
_geom_bond_atom_site_label_1
_geom_bond_atom_site_label_2
_geom_bond_distance
_geom_bond_site_symmetry_2
Cs0 Se5 3.631066 1_556
Cs0 Se12 3.678683 1_555
Cs0 Se18 3.795392 1_455
Cs0 Se18 3.795392 1_555
Cs0 Se0 3.816842 1_555
Cs0 Se6 3.993962 1_555
Cs0 Se6 3.993962 1_455
Cs0 Se11 4.107427 1_455
Cs0 Se11 4.107427 1_555
Cs1 Se6 3.631066 1_554
Cs1 Se8 3.678683 1_555
Cs1 Se17 3.795392 1_555
Cs1 Se17 3.795392 1_655
Cs1 Se22 3.816842 1_555
Cs1 Se5 3.993962 1_555
Cs1 Se5 3.993962 1_655
Cs1 Se3 4.107427 1_555
Cs1 Se3 4.107427 1_655
Cs2 Se17 3.682854 1_555
Cs2 Se25 3.752430 1_555
Cs2 Se25 3.752430 1_455
Cs2 Se23 3.789272 1_555
Cs2 Se9 3.817218 1_555
Cs2 Se9 3.817218 1_455
Cs2 Se19 3.913667 1_555
Cs2 Se8 3.948227 1_455
Cs2 Se8 3.948227 1_555
Cs3 Se18 3.682854 1_555
Cs3 Se10 3.752430 1_555
Cs3 Se10 3.752430 1_655
Cs3 Se13 3.789272 1_555
Cs3 Se2 3.817218 1_655
Cs3 Se2 3.817218 1_555
Cs3 Se21 3.913667 1_555
Cs3 Se12 3.948227 1_555
Cs3 Se12 3.948227 1_655
Bi0 Se11 2.922330 1_555
Bi0 Se11 2.922330 1_455
Bi0 Se24 2.977523 1_565
Bi0 Se14 2.988022 1_556
Bi0 Se15 3.069271 1_465
Bi0 Se15 3.069271 1_565
Bi1 Se8 2.794496 1_555
Bi1 Se8 2.794496 1_455
Bi1 Se19 2.876431 1_555
Bi1 Se3 3.207453 1_555
Bi1 Se7 3.219305 1_545
Bi1 Se7 3.219305 1_445
Bi2 Se5 2.801103 1_555
Bi2 Se5 2.801103 1_655
Bi2 Se22 2.878952 1_555
Bi2 Se11 3.168278 1_554
Bi2 Se14 3.271796 1_655
Bi2 Se14 3.271796 1_555
Bi3 Se6 2.801103 1_555
Bi3 Se6 2.801103 1_455
Bi3 Se0 2.878952 1_555
Bi3 Se3 3.168278 1_556
Bi3 Se15 3.271796 1_555
Bi3 Se15 3.271796 1_455
Bi4 Se2 2.791778 1_555
Bi4 Se9 2.982017 1_565
Bi4 Se9 2.982017 1_465
Bi4 Se4 3.004354 1_555
Bi4 Se4 3.004354 1_455
Bi4 Se19 3.129113 1_565
Bi5 Se20 2.835057 1_555
Bi5 Se22 2.907874 1_555
Bi5 Se22 2.907874 1_455
Bi5 Se7 3.041292 1_455
Bi5 Se7 3.041292 1_555
Bi5 Se14 3.191699 1_555
Bi6 Se1 2.785048 1_555
Bi6 Se21 2.926546 1_545
Bi6 Se21 2.926546 1_445
Bi6 Se16 3.047861 1_555
Bi6 Se16 3.047861 1_455
Bi6 Se24 3.287844 1_555
Bi7 Se23 2.730264 1_555
Bi7 Se13 2.945373 1_455
Bi7 Se13 2.945373 1_555
Bi7 Se25 2.986970 1_455
Bi7 Se25 2.986970 1_555
Bi8 Se10 2.753475 1_555
Bi8 Se18 2.807903 1_455
Bi8 Se18 2.807903 1_555
Bi8 Se16 3.273088 1_555
Bi8 Se16 3.273088 1_455
Bi8 Se0 3.293318 1_555
Bi9 Se13 2.730264 1_555
Bi9 Se23 2.945373 1_655
Bi9 Se23 2.945373 1_555
Bi9 Se10 2.986970 1_655
Bi9 Se10 2.986970 1_555
Bi10 Se12 2.794496 1_555
Bi10 Se12 2.794496 1_655
Bi10 Se21 2.876431 1_555
Bi10 Se11 3.207453 1_555
Bi10 Se24 3.219305 1_565
Bi10 Se24 3.219305 1_665
Bi11 Se9 2.791778 1_555
Bi11 Se2 2.982017 1_545
Bi11 Se2 2.982017 1_645
Bi11 Se1 3.004354 1_555
Bi11 Se1 3.004354 1_655
Bi11 Se21 3.129113 1_545
Bi12 Se3 2.922330 1_655
Bi12 Se3 2.922330 1_555
Bi12 Se7 2.977523 1_545
Bi12 Se15 2.988022 1_554
Bi12 Se14 3.069271 1_645
Bi12 Se14 3.069271 1_545
Bi13 Se16 2.835057 1_555
Bi13 Se0 2.907874 1_655
Bi13 Se0 2.907874 1_555
Bi13 Se24 3.041292 1_655
Bi13 Se24 3.041292 1_555
Bi13 Se15 3.191699 1_555
Bi14 Se4 2.785048 1_555
Bi14 Se19 2.926546 1_565
Bi14 Se19 2.926546 1_665
Bi14 Se20 3.047861 1_655
Bi14 Se20 3.047861 1_555
Bi14 Se7 3.287844 1_555
Bi15 Se25 2.753475 1_555
Bi15 Se17 2.807903 1_655
Bi15 Se17 2.807903 1_555
Bi15 Se20 3.273088 1_655
Bi15 Se20 3.273088 1_555
Bi15 Se22 3.293318 1_555
