# generated using pymatgen
data_Yb15Mg5Ge16
_symmetry_space_group_name_H-M   'P 1'
_cell_length_a   7.80047300
_cell_length_b   7.20270000
_cell_length_c   30.28834127
_cell_angle_alpha   89.92171668
_cell_angle_beta   90.00000000
_cell_angle_gamma   90.00000000
_symmetry_Int_Tables_number   1
_chemical_formula_structural   Yb15Mg5Ge16
_chemical_formula_sum   'Yb30 Mg10 Ge32'
_cell_volume   1701.73271851
_cell_formula_units_Z   2
loop_
 _symmetry_equiv_pos_site_id
 _symmetry_equiv_pos_as_xyz
  1  'x, y, z'
loop_
 _atom_site_type_symbol
 _atom_site_label
 _atom_site_symmetry_multiplicity
 _atom_site_fract_x
 _atom_site_fract_y
 _atom_site_fract_z
 _atom_site_occupancy
  Yb  Yb0  1  0.06169200  0.98934600  0.04615800  1
  Yb  Yb1  1  0.07907100  0.98677900  0.20277500  1
  Yb  Yb2  1  0.07255400  0.98175100  0.54742900  1
  Yb  Yb3  1  0.06206300  0.99090600  0.70127000  1
  Yb  Yb4  1  0.58092300  0.82865200  0.06307800  1
  Yb  Yb5  1  0.57721800  0.82486300  0.18519400  1
  Yb  Yb6  1  0.55778900  0.81830600  0.56348300  1
  Yb  Yb7  1  0.56635500  0.83248200  0.68635500  1
  Yb  Yb8  1  0.06652300  0.66945700  0.31533400  1
  Yb  Yb9  1  0.06930100  0.67556700  0.81432000  1
  Yb  Yb10  1  0.07608600  0.66349200  0.93775100  1
  Yb  Yb11  1  0.57735700  0.50516700  0.30033800  1
  Yb  Yb12  1  0.58040200  0.50853900  0.45206800  1
  Yb  Yb13  1  0.56529700  0.50326100  0.95090000  1
  Yb  Yb14  1  0.57308500  0.52105700  0.79737600  1
  Yb  Yb15  1  0.92744600  0.48175100  0.04742900  1
  Yb  Yb16  1  0.93793700  0.49090600  0.20127000  1
  Yb  Yb17  1  0.93830800  0.48934600  0.54615800  1
  Yb  Yb18  1  0.92092900  0.48677900  0.70277500  1
  Yb  Yb19  1  0.44221100  0.31830600  0.06348300  1
  Yb  Yb20  1  0.43364500  0.33248200  0.18635500  1
  Yb  Yb21  1  0.41907700  0.32865200  0.56307800  1
  Yb  Yb22  1  0.42278200  0.32486300  0.68519400  1
  Yb  Yb23  1  0.93069900  0.17556700  0.31432000  1
  Yb  Yb24  1  0.92391400  0.16349200  0.43775100  1
  Yb  Yb25  1  0.93347700  0.16945700  0.81533400  1
  Yb  Yb26  1  0.42691500  0.02105700  0.29737600  1
  Yb  Yb27  1  0.43470300  0.00326100  0.45090000  1
  Yb  Yb28  1  0.42264300  0.00516700  0.80033800  1
  Yb  Yb29  1  0.41959800  0.00853900  0.95206800  1
  Mg  Mg0  1  0.72526800  0.84488900  0.37072300  1
  Mg  Mg1  1  0.73350400  0.85151200  0.88295000  1
  Mg  Mg2  1  0.05509100  0.69057600  0.43629300  1
  Mg  Mg3  1  0.22944000  0.65375600  0.11630000  1
  Mg  Mg4  1  0.21632200  0.65529800  0.63140100  1
  Mg  Mg5  1  0.26649600  0.35151200  0.38295000  1
  Mg  Mg6  1  0.27473200  0.34488900  0.87072300  1
  Mg  Mg7  1  0.94490900  0.19057600  0.93629300  1
  Mg  Mg8  1  0.78367800  0.15529800  0.13140100  1
  Mg  Mg9  1  0.77056000  0.15375600  0.61630000  1
  Ge  Ge0  1  0.15823400  0.97408800  0.37637800  1
  Ge  Ge1  1  0.15216500  0.97880800  0.87740400  1
  Ge  Ge2  1  0.77696100  0.84424000  0.26833800  1
  Ge  Ge3  1  0.77901500  0.83272500  0.48546300  1
  Ge  Ge4  1  0.78522300  0.84826100  0.76609900  1
  Ge  Ge5  1  0.77240500  0.84144300  0.97874500  1
  Ge  Ge6  1  0.89407200  0.77825000  0.12469300  1
  Ge  Ge7  1  0.87838700  0.77702800  0.62449900  1
  Ge  Ge8  1  0.38035000  0.72303600  0.37296200  1
  Ge  Ge9  1  0.38194400  0.72427900  0.87658000  1
  Ge  Ge10  1  0.30084900  0.66422500  0.23878400  1
  Ge  Ge11  1  0.27347100  0.65842700  0.73213600  1
  Ge  Ge12  1  0.28179900  0.65519700  0.01895500  1
  Ge  Ge13  1  0.27755200  0.66155600  0.50837300  1
  Ge  Ge14  1  0.66818700  0.52206500  0.12390400  1
  Ge  Ge15  1  0.65755400  0.52071700  0.62519300  1
  Ge  Ge16  1  0.84783500  0.47880800  0.37740400  1
  Ge  Ge17  1  0.84176600  0.47408800  0.87637800  1
  Ge  Ge18  1  0.22759500  0.34144300  0.47874500  1
  Ge  Ge19  1  0.22098500  0.33272500  0.98546300  1
  Ge  Ge20  1  0.21477700  0.34826100  0.26609900  1
  Ge  Ge21  1  0.22303900  0.34424000  0.76833800  1
  Ge  Ge22  1  0.12161300  0.27702800  0.12449900  1
  Ge  Ge23  1  0.10592800  0.27825000  0.62469300  1
  Ge  Ge24  1  0.61805600  0.22427900  0.37658000  1
  Ge  Ge25  1  0.61965000  0.22303600  0.87296200  1
  Ge  Ge26  1  0.72244800  0.16155600  0.00837300  1
  Ge  Ge27  1  0.72652900  0.15842700  0.23213600  1
  Ge  Ge28  1  0.69915100  0.16422500  0.73878400  1
  Ge  Ge29  1  0.71820100  0.15519700  0.51895500  1
  Ge  Ge30  1  0.34244600  0.02071700  0.12519300  1
  Ge  Ge31  1  0.33181300  0.02206500  0.62390400  1
loop_
_geom_bond_atom_site_label_1
_geom_bond_atom_site_label_2
_geom_bond_distance
_geom_bond_site_symmetry_2
Ge0 Ge8 2.506577 1_555
Ge0 Mg2 2.846121 1_555
Ge0 Mg5 2.853833 1_565
Ge0 Yb24 2.943529 1_465
Ge0 Yb8 2.959010 1_555
Ge0 Yb23 2.963399 1_465
Ge0 Yb27 3.129064 1_565
Ge0 Yb26 3.198509 1_565
Ge1 Ge9 2.564053 1_555
Ge1 Mg6 2.811787 1_565
Ge1 Mg7 2.851156 1_465
Ge1 Yb25 2.884956 1_465
Ge1 Yb10 2.973172 1_555
Ge1 Yb9 2.974987 1_555
Ge1 Yb29 3.084341 1_565
Ge1 Yb28 3.151956 1_565
Ge2 Ge27 2.543901 1_565
Ge2 Yb8 2.950920 1_655
Ge2 Yb5 2.964774 1_555
Ge2 Yb23 3.013642 1_565
Ge2 Yb11 3.053153 1_555
Ge2 Mg0 3.127188 1_555
Ge2 Yb26 3.139159 1_565
Ge2 Yb1 3.247371 1_655
Ge2 Yb16 3.492019 1_555
Ge3 Mg2 2.812127 1_655
Ge3 Yb6 2.927844 1_555
Ge3 Yb12 2.980284 1_555
Ge3 Yb24 3.005394 1_565
Ge3 Yb27 3.132837 1_565
Ge3 Yb2 3.150103 1_655
Ge3 Yb17 3.320853 1_555
Ge4 Yb9 2.930152 1_655
Ge4 Yb7 2.960100 1_555
Ge4 Yb25 2.987107 1_565
Ge4 Yb14 3.030495 1_555
Ge4 Yb3 3.093387 1_655
Ge4 Yb28 3.217941 1_565
Ge4 Yb18 3.404679 1_555
Ge5 Mg1 2.918099 1_555
Ge5 Yb4 2.960290 1_556
Ge5 Yb10 2.966534 1_655
Ge5 Yb13 3.043043 1_555
Ge5 Yb29 3.110075 1_565
Ge5 Mg7 3.127114 1_565
Ge5 Yb0 3.225214 1_656
Ge5 Yb15 3.533788 1_556
Ge6 Mg3 2.777213 1_655
Ge6 Mg8 2.856518 1_565
Ge6 Yb4 3.095083 1_555
Ge6 Yb5 3.095356 1_555
Ge6 Yb0 3.109615 1_655
Ge6 Yb16 3.125219 1_555
Ge6 Yb1 3.152968 1_655
Ge6 Yb15 3.180993 1_555
Ge7 Mg4 2.785808 1_655
Ge7 Mg9 2.851340 1_565
Ge7 Yb7 3.097738 1_555
Ge7 Yb6 3.123516 1_555
Ge7 Yb3 3.137290 1_655
Ge7 Yb2 3.147693 1_655
Ge7 Yb18 3.176164 1_555
Ge7 Yb17 3.186805 1_555
Ge8 Mg0 2.830841 1_555
Ge8 Mg5 2.835296 1_555
Ge8 Yb8 3.031516 1_555
Ge8 Yb11 3.109994 1_555
Ge8 Yb27 3.136736 1_565
Ge8 Yb26 3.157126 1_565
Ge8 Mg2 3.189067 1_555
Ge8 Yb12 3.248493 1_555
Ge9 Mg6 2.863473 1_555
Ge9 Mg1 2.897919 1_555
Ge9 Yb10 3.051958 1_555
Ge9 Yb28 3.084440 1_565
Ge9 Yb29 3.085243 1_565
Ge9 Yb9 3.102988 1_555
Ge9 Yb13 3.104377 1_555
Ge9 Yb14 3.182798 1_555
Ge10 Ge20 2.511840 1_555
Ge10 Yb5 2.935254 1_555
Ge10 Yb8 2.952708 1_555
Ge10 Yb20 3.051975 1_555
Ge10 Yb11 3.071600 1_555
Ge10 Yb1 3.094017 1_555
Ge10 Yb26 3.276367 1_565
Ge10 Yb16 3.296549 1_455
Ge11 Ge21 2.543901 1_555
Ge11 Yb7 2.951139 1_555
Ge11 Yb9 2.957825 1_555
Ge11 Yb22 3.026492 1_555
Ge11 Yb3 3.053222 1_555
Ge11 Mg4 3.083604 1_555
Ge11 Yb18 3.144015 1_455
Ge11 Yb14 3.215656 1_555
Ge11 Yb28 3.445670 1_565
Ge12 Ge19 2.579788 1_554
Ge12 Yb10 2.937245 1_554
Ge12 Yb4 2.965763 1_555
Ge12 Mg3 2.976576 1_555
Ge12 Yb19 3.043639 1_555
Ge12 Yb0 3.069972 1_555
Ge12 Yb15 3.153079 1_455
Ge12 Yb13 3.216051 1_554
Ge12 Yb29 3.423840 1_564
Ge13 Ge18 2.505785 1_555
Ge13 Mg2 2.796427 1_555
Ge13 Yb6 2.973979 1_555
Ge13 Yb2 3.046759 1_555
Ge13 Yb21 3.114924 1_555
Ge13 Yb12 3.115924 1_555
Ge13 Yb17 3.138012 1_455
Ge13 Yb27 3.252500 1_565
Ge14 Ge6 2.551513 1_555
Ge14 Mg8 2.800029 1_555
Ge14 Yb19 2.935558 1_555
Ge14 Yb5 2.952510 1_555
Ge14 Yb4 2.953432 1_555
Ge14 Yb20 2.963559 1_555
Ge14 Yb15 3.088895 1_555
Ge14 Yb16 3.157134 1_555
Ge15 Ge7 2.525053 1_555
Ge15 Mg9 2.799566 1_555
Ge15 Yb22 2.939299 1_555
Ge15 Yb6 2.946614 1_555
Ge15 Yb21 2.986780 1_555
Ge15 Yb7 2.998614 1_555
Ge15 Yb18 3.130599 1_555
Ge15 Yb17 3.252562 1_555
Ge16 Ge24 2.564053 1_555
Ge16 Mg0 2.811787 1_555
Ge16 Mg2 2.851156 1_655
Ge16 Yb8 2.884956 1_655
Ge16 Yb24 2.973172 1_555
Ge16 Yb23 2.974987 1_555
Ge16 Yb12 3.084341 1_555
Ge16 Yb11 3.151956 1_555
Ge17 Ge25 2.506577 1_555
Ge17 Mg7 2.846121 1_555
Ge17 Mg1 2.853833 1_555
Ge17 Yb10 2.943529 1_655
Ge17 Yb25 2.959010 1_555
Ge17 Yb9 2.963399 1_655
Ge17 Yb13 3.129064 1_555
Ge17 Yb14 3.198509 1_555
Ge18 Mg5 2.918099 1_555
Ge18 Yb21 2.960290 1_555
Ge18 Yb24 2.966534 1_455
Ge18 Yb27 3.043043 1_555
Ge18 Yb12 3.110075 1_555
Ge18 Mg2 3.127114 1_555
Ge18 Yb17 3.225214 1_455
Ge18 Yb2 3.533788 1_545
Ge19 Mg7 2.812127 1_455
Ge19 Yb19 2.927844 1_556
Ge19 Yb29 2.980284 1_555
Ge19 Yb10 3.005394 1_555
Ge19 Yb13 3.132837 1_555
Ge19 Yb15 3.150103 1_456
Ge19 Yb0 3.320853 1_546
Ge20 Yb23 2.930152 1_455
Ge20 Yb20 2.960100 1_555
Ge20 Yb8 2.987107 1_555
Ge20 Yb26 3.030495 1_555
Ge20 Yb16 3.093387 1_455
Ge20 Yb11 3.217941 1_555
Ge20 Yb1 3.404679 1_545
Ge21 Yb25 2.950920 1_455
Ge21 Yb22 2.964774 1_555
Ge21 Yb9 3.013642 1_555
Ge21 Yb28 3.053153 1_555
Ge21 Mg6 3.127188 1_555
Ge21 Yb14 3.139159 1_555
Ge21 Yb18 3.247371 1_455
Ge21 Yb3 3.492019 1_545
Ge22 Ge30 2.525053 1_555
Ge22 Mg8 2.785808 1_455
Ge22 Mg3 2.851340 1_555
Ge22 Yb20 3.097738 1_555
Ge22 Yb19 3.123516 1_555
Ge22 Yb16 3.137290 1_455
Ge22 Yb15 3.147693 1_455
Ge22 Yb1 3.176164 1_545
Ge22 Yb0 3.186805 1_545
Ge23 Ge31 2.551513 1_555
Ge23 Mg9 2.777213 1_455
Ge23 Mg4 2.856518 1_555
Ge23 Yb21 3.095083 1_555
Ge23 Yb22 3.095356 1_555
Ge23 Yb17 3.109615 1_455
Ge23 Yb3 3.125219 1_545
Ge23 Yb18 3.152968 1_455
Ge23 Yb2 3.180993 1_545
Ge24 Mg0 2.863473 1_545
Ge24 Mg5 2.897919 1_555
Ge24 Yb24 3.051958 1_555
Ge24 Yb11 3.084440 1_555
Ge24 Yb12 3.085243 1_555
Ge24 Yb23 3.102988 1_555
Ge24 Yb27 3.104377 1_555
Ge24 Yb26 3.182798 1_555
Ge25 Mg6 2.830841 1_555
Ge25 Mg1 2.835296 1_545
Ge25 Yb25 3.031516 1_555
Ge25 Yb28 3.109994 1_555
Ge25 Yb13 3.136736 1_555
Ge25 Yb14 3.157126 1_555
Ge25 Mg7 3.189067 1_555
Ge25 Yb29 3.248493 1_555
Ge26 Ge5 2.505785 1_544
Ge26 Mg7 2.796427 1_554
Ge26 Yb19 2.973979 1_555
Ge26 Yb15 3.046759 1_555
Ge26 Yb4 3.114924 1_545
Ge26 Yb29 3.115924 1_554
Ge26 Yb0 3.138012 1_645
Ge26 Yb13 3.252500 1_554
Ge27 Yb20 2.951139 1_555
Ge27 Yb23 2.957825 1_555
Ge27 Yb5 3.026492 1_545
Ge27 Yb16 3.053222 1_555
Ge27 Mg8 3.083604 1_555
Ge27 Yb1 3.144015 1_645
Ge27 Yb26 3.215656 1_555
Ge27 Yb11 3.445670 1_555
Ge28 Ge4 2.511840 1_545
Ge28 Yb22 2.935254 1_555
Ge28 Yb25 2.952708 1_555
Ge28 Yb7 3.051975 1_545
Ge28 Yb28 3.071600 1_555
Ge28 Yb18 3.094017 1_555
Ge28 Yb14 3.276367 1_555
Ge28 Yb3 3.296549 1_645
Ge29 Ge3 2.579788 1_545
Ge29 Yb24 2.937245 1_555
Ge29 Yb21 2.965763 1_555
Ge29 Mg9 2.976576 1_555
Ge29 Yb6 3.043639 1_545
Ge29 Yb17 3.069972 1_555
Ge29 Yb2 3.153079 1_645
Ge29 Yb27 3.216051 1_555
Ge29 Yb12 3.423840 1_555
Ge30 Mg3 2.799566 1_545
Ge30 Yb5 2.939299 1_545
Ge30 Yb19 2.946614 1_555
Ge30 Yb4 2.986780 1_545
Ge30 Yb20 2.998614 1_555
Ge30 Yb1 3.130599 1_545
Ge30 Yb0 3.252562 1_545
Ge31 Mg4 2.800029 1_545
Ge31 Yb6 2.935558 1_545
Ge31 Yb22 2.952510 1_555
Ge31 Yb21 2.953432 1_555
Ge31 Yb7 2.963559 1_545
Ge31 Yb2 3.088895 1_545
Ge31 Yb3 3.157134 1_545
