# generated using pymatgen
data_Yb(GdS2)2
_symmetry_space_group_name_H-M   'P 1'
_cell_length_a   7.26570184
_cell_length_b   7.26570184
_cell_length_c   7.26570184
_cell_angle_alpha   109.58722892
_cell_angle_beta   109.58722892
_cell_angle_gamma   109.23945237
_symmetry_Int_Tables_number   1
_chemical_formula_structural   Yb(GdS2)2
_chemical_formula_sum   'Yb2 Gd4 S8'
_cell_volume   295.26059989
_cell_formula_units_Z   2
loop_
 _symmetry_equiv_pos_site_id
 _symmetry_equiv_pos_as_xyz
  1  'x, y, z'
loop_
 _atom_site_type_symbol
 _atom_site_label
 _atom_site_symmetry_multiplicity
 _atom_site_fract_x
 _atom_site_fract_y
 _atom_site_fract_z
 _atom_site_occupancy
  Yb  Yb0  1  0.50000000  0.50000000  0.00000000  1
  Yb  Yb1  1  0.25000000  0.75000000  0.50000000  1
  Gd  Gd0  1  0.00364400  0.62500000  0.87864400  1
  Gd  Gd1  1  0.87500000  0.99635600  0.62135600  1
  Gd  Gd2  1  0.74635600  0.12500000  0.12135600  1
  Gd  Gd3  1  0.37500000  0.25364400  0.37864400  1
  S  S0  1  0.12202300  0.37248500  0.10482900  1
  S  S1  1  0.12248500  0.37202300  0.60482900  1
  S  S2  1  0.48234400  0.87751500  0.24953800  1
  S  S3  1  0.76719400  0.51765600  0.39517100  1
  S  S4  1  0.62751500  0.73234400  0.74953800  1
  S  S5  1  0.26765600  0.01719400  0.89517100  1
  S  S6  1  0.98280600  0.87797700  0.25046200  1
  S  S7  1  0.62797700  0.23280600  0.75046200  1
loop_
_geom_bond_atom_site_label_1
_geom_bond_atom_site_label_2
_geom_bond_distance
_geom_bond_site_symmetry_2
Gd0 S5 2.797826 1_565
Gd0 S7 2.797826 1_455
Gd0 S6 2.797839 1_456
Gd0 S1 2.797839 1_555
Gd0 S2 2.986719 1_556
Gd0 S0 2.986719 1_556
Gd0 S4 3.022093 1_455
Gd0 S3 3.022093 1_455
Gd1 S1 2.797826 1_665
Gd1 S4 2.797826 1_555
Gd1 S2 2.797839 1_555
Gd1 S5 2.797839 1_665
Gd1 S6 2.986719 1_555
Gd1 S3 2.986719 1_555
Gd1 S0 3.022093 1_666
Gd1 S7 3.022093 1_565
Gd2 S2 2.797826 1_545
Gd2 S0 2.797826 1_655
Gd2 S4 2.797839 1_544
Gd2 S3 2.797839 1_555
Gd2 S5 2.986719 1_554
Gd2 S7 2.986719 1_554
Gd2 S1 3.022093 1_655
Gd2 S6 3.022093 1_545
Gd3 S6 2.797826 1_445
Gd3 S3 2.797826 1_555
Gd3 S7 2.797839 1_555
Gd3 S0 2.797839 1_555
Gd3 S4 2.986719 1_555
Gd3 S1 2.986719 1_555
Gd3 S5 3.022093 1_554
Gd3 S2 3.022093 1_545
S0 Yb1 2.807260 1_555
S0 Yb0 3.029727 1_555
S1 Yb0 2.807260 1_556
S1 Yb1 3.029727 1_555
S2 Yb0 2.807260 1_555
S2 Yb1 3.029727 1_555
S3 Yb0 2.807260 1_555
S3 Yb1 3.029727 1_655
S4 Yb1 2.807260 1_555
S4 Yb0 3.029727 1_556
S5 Yb1 2.807260 1_545
S5 Yb0 3.029727 1_556
S6 Yb1 2.807260 1_655
S6 Yb0 3.029727 1_555
S7 Yb0 2.807260 1_556
S7 Yb1 3.029727 1_545
