# generated using pymatgen
data_U2Bi2O7
_symmetry_space_group_name_H-M   'P 1'
_cell_length_a   3.82732600
_cell_length_b   7.62174300
_cell_length_c   11.19739800
_cell_angle_alpha   90.00000000
_cell_angle_beta   90.00000000
_cell_angle_gamma   90.00000000
_symmetry_Int_Tables_number   1
_chemical_formula_structural   U2Bi2O7
_chemical_formula_sum   'U4 Bi4 O14'
_cell_volume   326.63812300
_cell_formula_units_Z   2
loop_
 _symmetry_equiv_pos_site_id
 _symmetry_equiv_pos_as_xyz
  1  'x, y, z'
loop_
 _atom_site_type_symbol
 _atom_site_label
 _atom_site_symmetry_multiplicity
 _atom_site_fract_x
 _atom_site_fract_y
 _atom_site_fract_z
 _atom_site_occupancy
  U  U0  1  0.00000000  0.25000000  0.24461700  1
  U  U1  1  0.00000000  0.75000000  0.75538300  1
  U  U2  1  0.50000000  0.50000000  0.00000000  1
  U  U3  1  0.50000000  0.00000000  0.00000000  1
  Bi  Bi0  1  0.50000000  0.50000000  0.50000000  1
  Bi  Bi1  1  0.00000000  0.25000000  0.73808600  1
  Bi  Bi2  1  0.50000000  0.00000000  0.50000000  1
  Bi  Bi3  1  0.00000000  0.75000000  0.26191400  1
  O  O0  1  0.50000000  0.25000000  0.34728600  1
  O  O1  1  0.00000000  0.51277300  0.63293000  1
  O  O2  1  0.50000000  0.75000000  0.87817300  1
  O  O3  1  0.00000000  0.51527400  0.88225600  1
  O  O4  1  0.00000000  0.48472600  0.11774400  1
  O  O5  1  0.00000000  0.01527400  0.11774400  1
  O  O6  1  0.50000000  0.75000000  0.10575700  1
  O  O7  1  0.50000000  0.25000000  0.12182700  1
  O  O8  1  0.00000000  0.48722700  0.36707000  1
  O  O9  1  0.00000000  0.98722700  0.63293000  1
  O  O10  1  0.00000000  0.01277300  0.36707000  1
  O  O11  1  0.50000000  0.75000000  0.65271400  1
  O  O12  1  0.50000000  0.25000000  0.89424300  1
  O  O13  1  0.00000000  0.98472600  0.88225600  1
loop_
_geom_bond_atom_site_label_1
_geom_bond_atom_site_label_2
_geom_bond_distance
_geom_bond_site_symmetry_2
Bi0 O8 2.426340 1_555
Bi0 O8 2.426340 1_655
Bi0 O1 2.426340 1_555
Bi0 O1 2.426340 1_655
Bi0 O0 2.560231 1_555
Bi0 O11 2.560231 1_555
Bi1 O1 2.323275 1_555
Bi1 O9 2.323275 1_545
Bi1 O3 2.587264 1_555
Bi1 O13 2.587264 1_545
Bi1 O12 2.592208 1_555
Bi1 O12 2.592208 1_455
Bi2 O10 2.426340 1_555
Bi2 O9 2.426340 1_545
Bi2 O10 2.426340 1_655
Bi2 O9 2.426340 1_645
Bi2 O11 2.560231 1_545
Bi2 O0 2.560231 1_555
Bi3 O10 2.323275 1_565
Bi3 O8 2.323275 1_555
Bi3 O5 2.587264 1_565
Bi3 O4 2.587264 1_555
Bi3 O6 2.592208 1_455
Bi3 O6 2.592208 1_555
O0 U0 2.232430 1_655
O0 U0 2.232430 1_555
O1 U1 2.269192 1_555
O2 U3 2.343412 1_566
O2 U2 2.343412 1_556
O2 U1 2.356382 1_555
O2 U1 2.356382 1_655
O3 U1 2.284477 1_555
O3 U2 2.326780 1_456
O3 U2 2.326780 1_556
O4 U0 2.284477 1_555
O4 U2 2.326780 1_455
O4 U2 2.326780 1_555
O5 U0 2.284477 1_555
O5 U3 2.326780 1_455
O5 U3 2.326780 1_555
O6 U3 2.243440 1_565
O6 U2 2.243440 1_555
O7 U3 2.343412 1_555
O7 U2 2.343412 1_555
O7 U0 2.356382 1_555
O7 U0 2.356382 1_655
O8 U0 2.269192 1_555
O9 U1 2.269192 1_555
O10 U0 2.269192 1_555
O11 U1 2.232430 1_555
O11 U1 2.232430 1_655
O12 U2 2.243440 1_556
O12 U3 2.243440 1_556
O13 U1 2.284477 1_555
O13 U3 2.326780 1_566
O13 U3 2.326780 1_466
