# generated using pymatgen
data_Cs2Ce10Os2I17
_symmetry_space_group_name_H-M   'P 1'
_cell_length_a   9.92960522
_cell_length_b   11.65109431
_cell_length_c   11.65109375
_cell_angle_alpha   107.56834888
_cell_angle_beta   93.61138368
_cell_angle_gamma   93.61138432
_symmetry_Int_Tables_number   1
_chemical_formula_structural   Cs2Ce10Os2I17
_chemical_formula_sum   'Cs2 Ce10 Os2 I17'
_cell_volume   1277.72973746
_cell_formula_units_Z   1
loop_
 _symmetry_equiv_pos_site_id
 _symmetry_equiv_pos_as_xyz
  1  'x, y, z'
loop_
 _atom_site_type_symbol
 _atom_site_label
 _atom_site_symmetry_multiplicity
 _atom_site_fract_x
 _atom_site_fract_y
 _atom_site_fract_z
 _atom_site_occupancy
  Cs  Cs0  1  0.00000000  0.82573400  0.17426600  1
  Cs  Cs1  1  0.00000000  0.17426600  0.82573400  1
  Ce  Ce0  1  0.55696200  0.83087000  0.83087000  1
  Ce  Ce1  1  0.81974800  0.29297900  0.29297900  1
  Ce  Ce2  1  0.42774200  0.79068300  0.49371500  1
  Ce  Ce3  1  0.57225800  0.50628500  0.20931700  1
  Ce  Ce4  1  0.18025200  0.70702100  0.70702100  1
  Ce  Ce5  1  0.67965900  0.56316000  0.56316000  1
  Ce  Ce6  1  0.32034100  0.43683900  0.43683900  1
  Ce  Ce7  1  0.42774200  0.49371500  0.79068300  1
  Ce  Ce8  1  0.57225800  0.20931700  0.50628500  1
  Ce  Ce9  1  0.44303800  0.16913000  0.16913000  1
  Os  Os0  1  0.57053400  0.35887700  0.35887700  1
  Os  Os1  1  0.42946600  0.64112300  0.64112300  1
  I  I0  1  0.42010400  0.97048000  0.30992400  1
  I  I1  1  0.86207500  0.11412900  0.45062700  1
  I  I2  1  0.42010400  0.30992400  0.97048000  1
  I  I3  1  0.72581200  0.74733200  0.40038200  1
  I  I4  1  0.13060000  0.21106300  0.21106300  1
  I  I5  1  0.57989600  0.69007600  0.02952000  1
  I  I6  1  0.27418800  0.59961800  0.25266800  1
  I  I7  1  0.86207500  0.45062700  0.11412900  1
  I  I8  1  0.27418800  0.25266800  0.59961800  1
  I  I9  1  0.57989600  0.02952000  0.69007600  1
  I  I10  1  0.72581200  0.40038200  0.74733200  1
  I  I11  1  0.71877400  0.06208800  0.06208800  1
  I  I12  1  0.13792500  0.54937300  0.88587100  1
  I  I13  1  0.00000000  0.50000000  0.50000000  1
  I  I14  1  0.86940000  0.78893700  0.78893700  1
  I  I15  1  0.13792500  0.88587100  0.54937300  1
  I  I16  1  0.28122600  0.93791200  0.93791200  1
loop_
_geom_bond_atom_site_label_1
_geom_bond_atom_site_label_2
_geom_bond_distance
_geom_bond_site_symmetry_2
Cs0 I3 4.150966 1_455
Cs0 I6 4.150966 1_555
Cs0 I12 4.258832 1_554
Cs0 I1 4.258832 1_465
Cs0 I15 4.329378 1_555
Cs0 I7 4.329378 1_455
Cs0 I5 4.406521 1_455
Cs0 I0 4.406521 1_555
Cs0 I16 4.446476 1_554
Cs0 I11 4.446476 1_465
Cs0 I14 4.478362 1_454
Cs0 I4 4.478362 1_565
Cs1 I8 4.150966 1_555
Cs1 I10 4.150966 1_455
Cs1 I7 4.258832 1_456
Cs1 I15 4.258832 1_545
Cs1 I1 4.329378 1_455
Cs1 I12 4.329378 1_555
Cs1 I2 4.406521 1_555
Cs1 I9 4.406521 1_455
Cs1 I11 4.446476 1_456
Cs1 I16 4.446476 1_545
Cs1 I4 4.478362 1_556
Cs1 I14 4.478362 1_445
Ce0 Os1 2.778844 1_555
Ce0 I14 3.215585 1_555
Ce0 I5 3.220609 1_556
Ce0 I9 3.220610 1_565
Ce0 I16 3.244770 1_555
Ce0 I11 3.409474 1_566
Ce1 Os0 2.724967 1_555
Ce1 I7 3.196288 1_555
Ce1 I1 3.196288 1_555
Ce1 I13 3.199893 1_655
Ce1 I11 3.229637 1_555
Ce1 I4 3.397275 1_655
Ce2 Os1 2.791621 1_555
Ce2 I15 3.183559 1_555
Ce2 I6 3.229021 1_555
Ce2 I9 3.232934 1_565
Ce2 I3 3.234155 1_555
Ce2 I0 3.418639 1_555
Ce3 Os0 2.791621 1_555
Ce3 I7 3.183559 1_555
Ce3 I3 3.229021 1_555
Ce3 I2 3.232934 1_554
Ce3 I6 3.234155 1_555
Ce3 I5 3.418639 1_555
Ce4 Os1 2.724967 1_555
Ce4 I12 3.196288 1_555
Ce4 I15 3.196288 1_555
Ce4 I13 3.199893 1_555
Ce4 I16 3.229637 1_555
Ce4 I14 3.397275 1_455
Ce5 Os1 2.809362 1_555
Ce5 Os0 2.904204 1_555
Ce5 I10 3.294503 1_555
Ce5 I3 3.294503 1_555
Ce5 I13 3.385819 1_655
Ce5 I14 3.458777 1_555
Ce6 Os0 2.809356 1_555
Ce6 Os1 2.904217 1_555
Ce6 I6 3.294503 1_555
Ce6 I8 3.294503 1_555
Ce6 I13 3.385823 1_555
Ce6 I4 3.458765 1_555
Ce7 Os1 2.791621 1_555
Ce7 I12 3.183559 1_555
Ce7 I8 3.229021 1_555
Ce7 I5 3.232934 1_556
Ce7 I10 3.234155 1_555
Ce7 I2 3.418639 1_555
Ce8 Os0 2.791621 1_555
Ce8 I1 3.183559 1_555
Ce8 I10 3.229021 1_555
Ce8 I0 3.232934 1_545
Ce8 I8 3.234155 1_555
Ce8 I9 3.418639 1_555
Ce9 Os0 2.778844 1_555
Ce9 I4 3.215585 1_555
Ce9 I2 3.220609 1_554
Ce9 I0 3.220610 1_545
Ce9 I11 3.244770 1_555
Ce9 I16 3.409474 1_544
