# generated using pymatgen
data_Zr5AlNi4
_symmetry_space_group_name_H-M   'P 1'
_cell_length_a   7.20503000
_cell_length_b   7.20503000
_cell_length_c   6.64621700
_cell_angle_alpha   90.00000000
_cell_angle_beta   90.00000000
_cell_angle_gamma   90.00000000
_symmetry_Int_Tables_number   1
_chemical_formula_structural   Zr5AlNi4
_chemical_formula_sum   'Zr10 Al2 Ni8'
_cell_volume   345.02145623
_cell_formula_units_Z   2
loop_
 _symmetry_equiv_pos_site_id
 _symmetry_equiv_pos_as_xyz
  1  'x, y, z'
loop_
 _atom_site_type_symbol
 _atom_site_label
 _atom_site_symmetry_multiplicity
 _atom_site_fract_x
 _atom_site_fract_y
 _atom_site_fract_z
 _atom_site_occupancy
  Zr  Zr0  1  0.35162300  0.18438000  0.00000000  1
  Zr  Zr1  1  0.81562000  0.35162300  0.50000000  1
  Zr  Zr2  1  0.18438000  0.64837700  0.50000000  1
  Zr  Zr3  1  0.00000000  0.00000000  0.75000000  1
  Zr  Zr4  1  0.18995800  0.65419700  0.00000000  1
  Zr  Zr5  1  0.64837700  0.81562000  0.00000000  1
  Zr  Zr6  1  0.34580300  0.18995800  0.50000000  1
  Zr  Zr7  1  0.65419700  0.81004200  0.50000000  1
  Zr  Zr8  1  0.81004200  0.34580300  0.00000000  1
  Zr  Zr9  1  0.00000000  0.00000000  0.25000000  1
  Al  Al0  1  0.50000000  0.50000000  0.25000000  1
  Al  Al1  1  0.50000000  0.50000000  0.75000000  1
  Ni  Ni0  1  0.63209500  0.12099000  0.74240000  1
  Ni  Ni1  1  0.12099000  0.36790500  0.75760000  1
  Ni  Ni2  1  0.87901000  0.63209500  0.75760000  1
  Ni  Ni3  1  0.87901000  0.63209500  0.24240000  1
  Ni  Ni4  1  0.36790500  0.87901000  0.74240000  1
  Ni  Ni5  1  0.36790500  0.87901000  0.25760000  1
  Ni  Ni6  1  0.63209500  0.12099000  0.25760000  1
  Ni  Ni7  1  0.12099000  0.36790500  0.24240000  1
loop_
_geom_bond_atom_site_label_1
_geom_bond_atom_site_label_2
_geom_bond_distance
_geom_bond_site_symmetry_2
Zr0 Zr9 3.308167 1_555
Zr0 Zr3 3.308167 1_554
Zr1 Zr9 3.308167 1_655
Zr1 Zr3 3.308167 1_655
Zr2 Zr9 3.308167 1_565
Zr2 Zr3 3.308167 1_565
Zr3 Zr6 3.292666 1_555
Zr3 Zr8 3.292666 1_456
Zr3 Zr4 3.292666 1_546
Zr3 Zr7 3.292666 1_445
Zr3 Zr5 3.308167 1_446
Zr3 Zr9 3.323109 1_556
Zr3 Zr9 3.323109 1_555
Zr4 Zr9 3.292666 1_565
Zr5 Zr9 3.308167 1_665
Zr6 Zr9 3.292666 1_555
Zr7 Zr9 3.292666 1_665
Zr8 Zr9 3.292666 1_655
Al0 Ni6 2.892322 1_555
Al0 Ni7 2.892322 1_555
Al0 Ni3 2.892322 1_555
Al0 Ni5 2.892322 1_555
Al0 Zr7 2.997534 1_555
Al0 Zr8 2.997534 1_555
Al0 Zr4 2.997534 1_555
Al0 Zr6 2.997534 1_555
Al0 Zr5 3.012468 1_555
Al0 Zr2 3.012468 1_555
Al0 Zr0 3.012468 1_555
Al0 Zr1 3.012468 1_555
Al1 Ni0 2.892322 1_555
Al1 Ni1 2.892322 1_555
Al1 Ni2 2.892322 1_555
Al1 Ni4 2.892322 1_555
Al1 Zr7 2.997534 1_555
Al1 Zr8 2.997534 1_556
Al1 Zr4 2.997534 1_556
Al1 Zr6 2.997534 1_555
Al1 Zr5 3.012468 1_556
Al1 Zr2 3.012468 1_555
Al1 Zr0 3.012468 1_556
Al1 Zr1 3.012468 1_555
Ni0 Ni4 2.581279 1_545
Ni0 Zr6 2.664074 1_555
Ni0 Zr1 2.665568 1_555
Ni0 Zr8 2.683036 1_556
Ni0 Zr0 2.687645 1_556
Ni0 Zr7 2.764085 1_545
Ni0 Zr5 2.790307 1_546
Ni0 Zr3 2.790885 1_655
Ni1 Ni2 2.581279 1_455
Ni1 Zr4 2.664074 1_556
Ni1 Zr0 2.665568 1_556
Ni1 Zr6 2.683036 1_555
Ni1 Zr2 2.687645 1_555
Ni1 Zr8 2.764085 1_456
Ni1 Zr1 2.790307 1_455
Ni1 Zr3 2.790885 1_555
Ni2 Zr8 2.664074 1_556
Ni2 Zr5 2.665568 1_556
Ni2 Zr7 2.683036 1_555
Ni2 Zr1 2.687645 1_555
Ni2 Zr4 2.764085 1_656
Ni2 Zr2 2.790307 1_655
Ni2 Zr3 2.790885 1_665
Ni3 Ni7 2.581279 1_655
Ni3 Zr8 2.664074 1_555
Ni3 Zr5 2.665568 1_555
Ni3 Zr7 2.683036 1_555
Ni3 Zr1 2.687645 1_555
Ni3 Zr4 2.764085 1_655
Ni3 Zr2 2.790307 1_655
Ni3 Zr9 2.790885 1_665
Ni4 Zr7 2.664074 1_555
Ni4 Zr2 2.665568 1_555
Ni4 Zr4 2.683036 1_556
Ni4 Zr5 2.687645 1_556
Ni4 Zr6 2.764085 1_565
Ni4 Zr0 2.790307 1_566
Ni4 Zr3 2.790885 1_565
Ni5 Ni6 2.581279 1_565
Ni5 Zr7 2.664074 1_555
Ni5 Zr2 2.665568 1_555
Ni5 Zr4 2.683036 1_555
Ni5 Zr5 2.687645 1_555
Ni5 Zr6 2.764085 1_565
Ni5 Zr0 2.790307 1_565
Ni5 Zr9 2.790885 1_565
Ni6 Zr6 2.664074 1_555
Ni6 Zr1 2.665568 1_555
Ni6 Zr8 2.683036 1_555
Ni6 Zr0 2.687645 1_555
Ni6 Zr7 2.764085 1_545
Ni6 Zr5 2.790307 1_545
Ni6 Zr9 2.790885 1_655
Ni7 Zr4 2.664074 1_555
Ni7 Zr0 2.665568 1_555
Ni7 Zr6 2.683036 1_555
Ni7 Zr2 2.687645 1_555
Ni7 Zr8 2.764085 1_455
Ni7 Zr1 2.790307 1_455
Ni7 Zr9 2.790885 1_555
