# generated using pymatgen
data_Fe7S12
_symmetry_space_group_name_H-M   'P 1'
_cell_length_a   5.40380700
_cell_length_b   5.40067600
_cell_length_c   37.80893896
_cell_angle_alpha   87.58488117
_cell_angle_beta   90.00000000
_cell_angle_gamma   90.00000000
_symmetry_Int_Tables_number   1
_chemical_formula_structural   Fe7S12
_chemical_formula_sum   'Fe28 S48'
_cell_volume   1102.44392236
_cell_formula_units_Z   4
loop_
 _symmetry_equiv_pos_site_id
 _symmetry_equiv_pos_as_xyz
  1  'x, y, z'
loop_
 _atom_site_type_symbol
 _atom_site_label
 _atom_site_symmetry_multiplicity
 _atom_site_fract_x
 _atom_site_fract_y
 _atom_site_fract_z
 _atom_site_occupancy
  Fe  Fe0  1  0.26464200  0.99323300  0.99529300  1
  Fe  Fe1  1  0.28069100  0.98782100  0.42895900  1
  Fe  Fe2  1  0.26246300  0.99348700  0.85269200  1
  Fe  Fe3  1  0.75794000  0.49161800  0.00093700  1
  Fe  Fe4  1  0.74496800  0.53394000  0.28775700  1
  Fe  Fe5  1  0.24356600  0.49556400  0.21532500  1
  Fe  Fe6  1  0.74903000  0.53146100  0.14527400  1
  Fe  Fe7  1  0.25081900  0.52457300  0.07371700  1
  Fe  Fe8  1  0.74476100  0.53398500  0.43055300  1
  Fe  Fe9  1  0.24383300  0.49343600  0.35807100  1
  Fe  Fe10  1  0.24206000  0.49161800  0.50093700  1
  Fe  Fe11  1  0.75616700  0.49343600  0.85807100  1
  Fe  Fe12  1  0.74918100  0.52457300  0.57371700  1
  Fe  Fe13  1  0.25097000  0.53146100  0.64527400  1
  Fe  Fe14  1  0.75643400  0.49556400  0.71532500  1
  Fe  Fe15  1  0.25503200  0.53394000  0.78775700  1
  Fe  Fe16  1  0.25523900  0.53398500  0.93055300  1
  Fe  Fe17  1  0.68466400  0.96559300  0.06941100  1
  Fe  Fe18  1  0.28423400  0.99843700  0.14213200  1
  Fe  Fe19  1  0.73553400  0.99296300  0.20986700  1
  Fe  Fe20  1  0.73753700  0.99348700  0.35269200  1
  Fe  Fe21  1  0.73535800  0.99323300  0.49529300  1
  Fe  Fe22  1  0.28086200  0.98770200  0.28608100  1
  Fe  Fe23  1  0.31533600  0.96559300  0.56941100  1
  Fe  Fe24  1  0.71576600  0.99843700  0.64213200  1
  Fe  Fe25  1  0.71913800  0.98770200  0.78608100  1
  Fe  Fe26  1  0.71930900  0.98782100  0.92895900  1
  Fe  Fe27  1  0.26446600  0.99296300  0.70986700  1
  S  S0  1  0.12230600  0.11774500  0.19780400  1
  S  S1  1  0.12551000  0.11483200  0.34078100  1
  S  S2  1  0.12271800  0.11583100  0.48346500  1
  S  S3  1  0.87769400  0.11774500  0.69780400  1
  S  S4  1  0.87449000  0.11483200  0.84078100  1
  S  S5  1  0.87728200  0.11583100  0.98346500  1
  S  S6  1  0.63162500  0.36030000  0.05566900  1
  S  S7  1  0.62285500  0.38481500  0.19849300  1
  S  S8  1  0.62322400  0.38590500  0.34105300  1
  S  S9  1  0.62384700  0.39302700  0.62683300  1
  S  S10  1  0.62111900  0.38603700  0.48386400  1
  S  S11  1  0.63564200  0.37655400  0.76959400  1
  S  S12  1  0.63545100  0.37654900  0.91240100  1
  S  S13  1  0.36435800  0.37655400  0.26959400  1
  S  S14  1  0.37615300  0.39302700  0.12683300  1
  S  S15  1  0.36454900  0.37654900  0.41240100  1
  S  S16  1  0.36837500  0.36030000  0.55566900  1
  S  S17  1  0.37677600  0.38590500  0.84105300  1
  S  S18  1  0.37714500  0.38481500  0.69849300  1
  S  S19  1  0.37888100  0.38603700  0.98386400  1
  S  S20  1  0.86592700  0.60509000  0.08972500  1
  S  S21  1  0.86518600  0.61121300  0.23196800  1
  S  S22  1  0.86241900  0.62115300  0.66086300  1
  S  S23  1  0.86449400  0.60937500  0.51793700  1
  S  S24  1  0.86566500  0.61033200  0.37469100  1
  S  S25  1  0.86567300  0.61542700  0.80338300  1
  S  S26  1  0.86645600  0.61593300  0.94637500  1
  S  S27  1  0.13550600  0.60937500  0.01793700  1
  S  S28  1  0.13758100  0.62115300  0.16086300  1
  S  S29  1  0.13354400  0.61593300  0.44637500  1
  S  S30  1  0.13407300  0.60509000  0.58972500  1
  S  S31  1  0.13432700  0.61542700  0.30338300  1
  S  S32  1  0.13481400  0.61121300  0.73196800  1
  S  S33  1  0.13433500  0.61033200  0.87469100  1
  S  S34  1  0.31651900  0.90143300  0.08671100  1
  S  S35  1  0.63062800  0.86751700  0.01565400  1
  S  S36  1  0.65084500  0.90100000  0.15677600  1
  S  S37  1  0.36352700  0.87439900  0.23040200  1
  S  S38  1  0.36462200  0.87333100  0.37339700  1
  S  S39  1  0.36937200  0.86751700  0.51565400  1
  S  S40  1  0.65157400  0.90243700  0.44252400  1
  S  S41  1  0.65173000  0.90235200  0.29979900  1
  S  S42  1  0.34915500  0.90100000  0.65677600  1
  S  S43  1  0.34827000  0.90235200  0.79979900  1
  S  S44  1  0.34842600  0.90243700  0.94252400  1
  S  S45  1  0.63647300  0.87439900  0.73040200  1
  S  S46  1  0.63537800  0.87333100  0.87339700  1
  S  S47  1  0.68348100  0.90143300  0.58671100  1
loop_
_geom_bond_atom_site_label_1
_geom_bond_atom_site_label_2
_geom_bond_distance
_geom_bond_site_symmetry_2
Fe0 S44 2.123317 1_555
Fe0 S35 2.218316 1_556
Fe0 S19 2.234038 1_565
Fe0 S5 2.234948 1_465
Fe0 S27 2.316911 1_556
Fe1 S40 2.114827 1_555
Fe1 S15 2.212230 1_565
Fe1 S29 2.233442 1_555
Fe1 S38 2.260666 1_555
Fe1 S2 2.360870 1_565
Fe2 S43 2.130616 1_555
Fe2 S17 2.233420 1_565
Fe2 S4 2.236706 1_465
Fe2 S46 2.247663 1_555
Fe2 S33 2.303940 1_555
Fe3 S26 2.221166 1_554
Fe3 S19 2.229042 1_554
Fe3 S35 2.235948 1_555
Fe3 S27 2.239382 1_655
Fe3 S5 2.254809 1_554
Fe3 S6 2.264387 1_555
Fe4 S41 2.120448 1_555
Fe4 S21 2.229628 1_555
Fe4 S31 2.234175 1_655
Fe4 S8 2.235331 1_555
Fe4 S13 2.339543 1_555
Fe5 S28 2.215953 1_555
Fe5 S13 2.222190 1_555
Fe5 S7 2.235109 1_555
Fe5 S21 2.236058 1_455
Fe5 S37 2.242642 1_555
Fe5 S0 2.268410 1_555
Fe6 S36 2.127636 1_555
Fe6 S20 2.213100 1_555
Fe6 S7 2.237540 1_555
Fe6 S28 2.239341 1_655
Fe6 S14 2.269157 1_555
Fe7 S34 2.143391 1_555
Fe7 S14 2.208233 1_555
Fe7 S20 2.214386 1_455
Fe7 S27 2.228104 1_555
Fe7 S6 2.353360 1_555
Fe8 S40 2.119906 1_555
Fe8 S24 2.232570 1_555
Fe8 S29 2.233799 1_655
Fe8 S10 2.238723 1_555
Fe8 S15 2.337625 1_555
Fe9 S15 2.221332 1_555
Fe9 S31 2.223687 1_555
Fe9 S8 2.232912 1_555
Fe9 S24 2.236727 1_455
Fe9 S38 2.251987 1_555
Fe9 S1 2.264883 1_555
Fe10 S29 2.221166 1_555
Fe10 S10 2.229042 1_555
Fe10 S39 2.235948 1_555
Fe10 S23 2.239382 1_455
Fe10 S2 2.254809 1_555
Fe10 S16 2.264387 1_555
Fe11 S12 2.221332 1_555
Fe11 S25 2.223687 1_555
Fe11 S17 2.232912 1_555
Fe11 S33 2.236727 1_655
Fe11 S46 2.251987 1_555
Fe11 S4 2.264883 1_555
Fe12 S47 2.143391 1_555
Fe12 S9 2.208233 1_555
Fe12 S30 2.214386 1_655
Fe12 S23 2.228104 1_555
Fe12 S16 2.353360 1_555
Fe13 S42 2.127636 1_555
Fe13 S30 2.213100 1_555
Fe13 S18 2.237540 1_555
Fe13 S22 2.239341 1_455
Fe13 S9 2.269157 1_555
Fe14 S22 2.215953 1_555
Fe14 S11 2.222190 1_555
Fe14 S18 2.235109 1_555
Fe14 S32 2.236058 1_655
Fe14 S45 2.242642 1_555
Fe14 S3 2.268410 1_555
Fe15 S43 2.120448 1_555
Fe15 S32 2.229628 1_555
Fe15 S25 2.234175 1_455
Fe15 S17 2.235331 1_555
Fe15 S11 2.339543 1_555
Fe16 S44 2.119906 1_555
Fe16 S33 2.232570 1_555
Fe16 S26 2.233799 1_455
Fe16 S19 2.238723 1_555
Fe16 S12 2.337625 1_555
Fe17 S34 2.118126 1_555
Fe17 S35 2.141866 1_555
Fe17 S6 2.191537 1_565
Fe17 S20 2.283411 1_555
Fe18 S36 2.117463 1_555
Fe18 S34 2.188185 1_555
Fe18 S14 2.240270 1_565
Fe18 S28 2.271504 1_555
Fe18 S0 2.392856 1_565
Fe19 S36 2.137626 1_555
Fe19 S7 2.226560 1_565
Fe19 S0 2.237082 1_665
Fe19 S37 2.238760 1_555
Fe19 S21 2.300991 1_555
Fe20 S41 2.130616 1_555
Fe20 S8 2.233420 1_565
Fe20 S1 2.236706 1_665
Fe20 S38 2.247663 1_555
Fe20 S24 2.303940 1_555
Fe21 S40 2.123317 1_555
Fe21 S39 2.218316 1_555
Fe21 S10 2.234038 1_565
Fe21 S2 2.234948 1_665
Fe21 S23 2.316911 1_555
Fe22 S41 2.116069 1_555
Fe22 S13 2.211807 1_565
Fe22 S31 2.233019 1_555
Fe22 S37 2.261474 1_555
Fe22 S1 2.360734 1_565
Fe23 S47 2.118126 1_555
Fe23 S39 2.141866 1_555
Fe23 S16 2.191537 1_565
Fe23 S30 2.283411 1_555
Fe24 S42 2.117463 1_555
Fe24 S47 2.188185 1_555
Fe24 S9 2.240270 1_565
Fe24 S22 2.271504 1_555
Fe24 S3 2.392856 1_565
Fe25 S43 2.116069 1_555
Fe25 S11 2.211807 1_565
Fe25 S25 2.233019 1_555
Fe25 S45 2.261474 1_555
Fe25 S4 2.360734 1_565
Fe26 S44 2.114827 1_555
Fe26 S12 2.212230 1_565
Fe26 S26 2.233442 1_555
Fe26 S46 2.260666 1_555
Fe26 S5 2.360870 1_565
Fe27 S42 2.137626 1_555
Fe27 S18 2.226560 1_565
Fe27 S3 2.237082 1_465
Fe27 S45 2.238760 1_555
Fe27 S32 2.300991 1_555
S0 S37 2.192917 1_545
S1 S38 2.180791 1_545
S2 S39 2.217794 1_545
S3 S45 2.192917 1_545
S4 S46 2.180791 1_545
S10 S23 2.230486 1_555
S11 S25 2.231687 1_555
S12 S26 2.240457 1_555
S13 S31 2.231687 1_555
S14 S28 2.229119 1_555
S15 S29 2.240457 1_555
S16 S30 2.269861 1_555
S17 S33 2.221012 1_555
S18 S32 2.223088 1_555
S19 S27 2.230486 1_556
S20 S6 2.269861 1_555
S21 S7 2.223088 1_555
S22 S9 2.229119 1_555
S24 S8 2.221012 1_555
S35 S5 2.217794 1_564
