# generated using pymatgen
data_K3GdSi2O7
_symmetry_space_group_name_H-M   'P 1'
_cell_length_a   10.02537700
_cell_length_b   10.02537797
_cell_length_c   14.57954600
_cell_angle_alpha   90.00000000
_cell_angle_beta   90.00000000
_cell_angle_gamma   120.00000009
_symmetry_Int_Tables_number   1
_chemical_formula_structural   K3GdSi2O7
_chemical_formula_sum   'K18 Gd6 Si12 O42'
_cell_volume   1269.04230508
_cell_formula_units_Z   6
loop_
 _symmetry_equiv_pos_site_id
 _symmetry_equiv_pos_as_xyz
  1  'x, y, z'
loop_
 _atom_site_type_symbol
 _atom_site_label
 _atom_site_symmetry_multiplicity
 _atom_site_fract_x
 _atom_site_fract_y
 _atom_site_fract_z
 _atom_site_occupancy
  K  K0  1  0.00000000  0.66827200  0.40923600  1
  K  K1  1  0.66827200  0.00000000  0.09076400  1
  K  K2  1  0.33333300  0.66666700  0.75000000  1
  K  K3  1  0.00000000  0.33172800  0.59076400  1
  K  K4  1  0.66827200  0.66827200  0.90923600  1
  K  K5  1  0.33172800  0.33172800  0.40923600  1
  K  K6  1  0.33172800  0.00000000  0.59076400  1
  K  K7  1  0.66666700  0.33333300  0.25000000  1
  K  K8  1  0.33172800  0.00000000  0.90923600  1
  K  K9  1  0.00000000  0.00000000  0.00000000  1
  K  K10  1  0.66827200  0.00000000  0.40923600  1
  K  K11  1  0.00000000  0.66827200  0.09076400  1
  K  K12  1  0.66666700  0.33333300  0.75000000  1
  K  K13  1  0.66827200  0.66827200  0.59076400  1
  K  K14  1  0.00000000  0.33172800  0.90923600  1
  K  K15  1  0.33333300  0.66666700  0.25000000  1
  K  K16  1  0.00000000  0.00000000  0.50000000  1
  K  K17  1  0.33172800  0.33172800  0.09076400  1
  Gd  Gd0  1  0.33333300  0.66666700  0.50000000  1
  Gd  Gd1  1  0.66666700  0.33333300  0.00000000  1
  Gd  Gd2  1  0.66666700  0.33333300  0.50000000  1
  Gd  Gd3  1  0.00000000  0.00000000  0.75000000  1
  Gd  Gd4  1  0.33333300  0.66666700  0.00000000  1
  Gd  Gd5  1  0.00000000  0.00000000  0.25000000  1
  Si  Si0  1  0.65948500  0.00000000  0.85687200  1
  Si  Si1  1  0.34051500  0.00000000  0.14312800  1
  Si  Si2  1  0.65948500  0.65948500  0.35687200  1
  Si  Si3  1  0.00000000  0.65948500  0.85687200  1
  Si  Si4  1  0.00000000  0.65948500  0.64312800  1
  Si  Si5  1  0.34051500  0.34051500  0.64312800  1
  Si  Si6  1  0.34051500  0.34051500  0.85687200  1
  Si  Si7  1  0.65948500  0.65948500  0.14312800  1
  Si  Si8  1  0.00000000  0.34051500  0.14312800  1
  Si  Si9  1  0.34051500  0.00000000  0.35687200  1
  Si  Si10  1  0.00000000  0.34051500  0.35687200  1
  Si  Si11  1  0.65948500  0.00000000  0.64312800  1
  O  O0  1  0.84543100  0.32171900  0.09277100  1
  O  O1  1  0.67828100  0.52371200  0.09277100  1
  O  O2  1  0.00000000  0.17735500  0.14628500  1
  O  O3  1  0.52371200  0.67828100  0.09277100  1
  O  O4  1  0.82264500  0.82264500  0.35371500  1
  O  O5  1  0.67828100  0.15456900  0.90722900  1
  O  O6  1  0.17735500  0.17735500  0.85371500  1
  O  O7  1  0.00000000  0.82264500  0.64628500  1
  O  O8  1  0.59472600  0.59472600  0.25000000  1
  O  O9  1  0.52371200  0.84543100  0.59277100  1
  O  O10  1  0.67828100  0.52371200  0.40722900  1
  O  O11  1  0.15456900  0.67828100  0.59277100  1
  O  O12  1  0.00000000  0.82264500  0.85371500  1
  O  O13  1  0.15456900  0.47628800  0.40722900  1
  O  O14  1  0.32171900  0.47628800  0.90722900  1
  O  O15  1  0.84543100  0.52371200  0.59277100  1
  O  O16  1  0.00000000  0.40527400  0.25000000  1
  O  O17  1  0.47628800  0.15456900  0.09277100  1
  O  O18  1  0.32171900  0.84543100  0.40722900  1
  O  O19  1  0.40527400  0.00000000  0.25000000  1
  O  O20  1  0.52371200  0.67828100  0.40722900  1
  O  O21  1  0.15456900  0.67828100  0.90722900  1
  O  O22  1  0.47628800  0.15456900  0.40722900  1
  O  O23  1  0.17735500  0.17735500  0.64628500  1
  O  O24  1  0.67828100  0.15456900  0.59277100  1
  O  O25  1  0.47628800  0.32171900  0.90722900  1
  O  O26  1  0.17735500  0.00000000  0.35371500  1
  O  O27  1  0.40527400  0.40527400  0.75000000  1
  O  O28  1  0.82264500  0.82264500  0.14628500  1
  O  O29  1  0.84543100  0.32171900  0.40722900  1
  O  O30  1  0.15456900  0.47628800  0.09277100  1
  O  O31  1  0.82264500  0.00000000  0.85371500  1
  O  O32  1  0.84543100  0.52371200  0.90722900  1
  O  O33  1  0.00000000  0.17735500  0.35371500  1
  O  O34  1  0.82264500  0.00000000  0.64628500  1
  O  O35  1  0.32171900  0.47628800  0.59277100  1
  O  O36  1  0.32171900  0.84543100  0.09277100  1
  O  O37  1  0.00000000  0.59472600  0.75000000  1
  O  O38  1  0.52371200  0.84543100  0.90722900  1
  O  O39  1  0.59472600  0.00000000  0.75000000  1
  O  O40  1  0.17735500  0.00000000  0.14628500  1
  O  O41  1  0.47628800  0.32171900  0.59277100  1
loop_
_geom_bond_atom_site_label_1
_geom_bond_atom_site_label_2
_geom_bond_distance
_geom_bond_site_symmetry_2
K0 O10 2.798167 1_455
K0 O18 2.798167 1_555
K0 O4 2.993947 1_455
K0 O26 2.993947 1_565
K0 O13 3.014835 1_555
K0 O29 3.014835 1_455
K0 O11 3.068564 1_555
K0 O15 3.068564 1_455
K1 O0 2.798168 1_555
K1 O3 2.798168 1_545
K1 O2 2.993947 1_655
K1 O28 2.993947 1_545
K1 O36 3.014835 1_545
K1 O17 3.014835 1_555
K1 O38 3.068564 1_544
K1 O5 3.068564 1_554
K2 O21 2.947692 1_555
K2 O11 2.947692 1_555
K2 O9 2.947696 1_555
K2 O38 2.947696 1_555
K2 O14 2.947699 1_555
K2 O35 2.947699 1_555
K2 O37 3.045902 1_555
K2 O39 3.045905 1_565
K2 O27 3.045912 1_555
K3 O35 2.798167 1_555
K3 O24 2.798167 1_455
K3 O23 2.993947 1_555
K3 O34 2.993947 1_455
K3 O15 3.014835 1_455
K3 O11 3.014835 1_555
K3 O29 3.068564 1_455
K3 O13 3.068564 1_555
K4 O32 2.798168 1_555
K4 O38 2.798168 1_555
K4 O12 2.993947 1_655
K4 O31 2.993947 1_565
K4 O14 3.014835 1_555
K4 O25 3.014835 1_555
K4 O3 3.068564 1_556
K4 O1 3.068564 1_556
K5 O13 2.798168 1_555
K5 O22 2.798168 1_555
K5 O33 2.993947 1_555
K5 O26 2.993947 1_555
K5 O10 3.014835 1_555
K5 O20 3.014835 1_555
K5 O41 3.068564 1_555
K5 O35 3.068564 1_555
K6 O11 2.798168 1_545
K6 O41 2.798168 1_555
K6 O7 2.993947 1_545
K6 O23 2.993947 1_555
K6 O24 3.014835 1_555
K6 O9 3.014835 1_545
K6 O22 3.068564 1_555
K6 O18 3.068564 1_545
K7 O29 2.947692 1_555
K7 O0 2.947692 1_555
K7 O17 2.947696 1_555
K7 O22 2.947696 1_555
K7 O1 2.947699 1_555
K7 O10 2.947699 1_555
K7 O16 3.045902 1_655
K7 O19 3.045905 1_555
K7 O8 3.045912 1_555
K8 O21 2.798168 1_545
K8 O25 2.798168 1_555
K8 O12 2.993947 1_545
K8 O6 2.993947 1_555
K8 O5 3.014835 1_555
K8 O38 3.014835 1_545
K8 O17 3.068564 1_556
K8 O36 3.068564 1_546
K9 O31 2.776719 1_454
K9 O40 2.776719 1_555
K9 O6 2.776719 1_554
K9 O28 2.776719 1_445
K9 O12 2.776719 1_544
K9 O2 2.776719 1_555
K10 O29 2.798168 1_555
K10 O20 2.798168 1_545
K10 O33 2.993947 1_655
K10 O4 2.993947 1_545
K10 O18 3.014835 1_545
K10 O22 3.014835 1_555
K10 O9 3.068564 1_545
K10 O24 3.068564 1_555
K11 O1 2.798167 1_455
K11 O36 2.798167 1_555
K11 O28 2.993947 1_455
K11 O40 2.993947 1_565
K11 O30 3.014835 1_555
K11 O0 3.014835 1_455
K11 O21 3.068564 1_554
K11 O32 3.068564 1_454
K12 O24 2.947692 1_555
K12 O5 2.947692 1_555
K12 O15 2.947696 1_555
K12 O32 2.947696 1_555
K12 O25 2.947699 1_555
K12 O41 2.947699 1_555
K12 O39 3.045902 1_555
K12 O37 3.045905 1_655
K12 O27 3.045912 1_555
K13 O15 2.798168 1_555
K13 O9 2.798168 1_555
K13 O7 2.993947 1_655
K13 O34 2.993947 1_565
K13 O35 3.014835 1_555
K13 O41 3.014835 1_555
K13 O20 3.068564 1_555
K13 O10 3.068564 1_555
K14 O14 2.798167 1_555
K14 O5 2.798167 1_455
K14 O6 2.993947 1_555
K14 O31 2.993947 1_455
K14 O32 3.014835 1_455
K14 O21 3.014835 1_555
K14 O0 3.068564 1_456
K14 O30 3.068564 1_556
K15 O36 2.947692 1_555
K15 O18 2.947692 1_555
K15 O30 2.947696 1_555
K15 O13 2.947696 1_555
K15 O3 2.947699 1_555
K15 O20 2.947699 1_555
K15 O19 3.045902 1_565
K15 O16 3.045905 1_555
K15 O8 3.045912 1_555
K16 O26 2.776719 1_555
K16 O34 2.776719 1_455
K16 O23 2.776719 1_555
K16 O4 2.776719 1_445
K16 O7 2.776719 1_545
K16 O33 2.776719 1_555
K17 O30 2.798168 1_555
K17 O17 2.798168 1_555
K17 O2 2.993947 1_555
K17 O40 2.993947 1_555
K17 O1 3.014835 1_555
K17 O3 3.014835 1_555
K17 O25 3.068564 1_554
K17 O14 3.068564 1_554
Gd0 O11 2.294241 1_555
Gd0 O18 2.294241 1_555
Gd0 O9 2.294245 1_555
Gd0 O13 2.294245 1_555
Gd0 O20 2.294249 1_555
Gd0 O35 2.294249 1_555
Gd1 O0 2.294241 1_555
Gd1 O5 2.294241 1_554
Gd1 O17 2.294245 1_555
Gd1 O32 2.294245 1_554
Gd1 O25 2.294249 1_554
Gd1 O1 2.294249 1_555
Gd2 O29 2.294241 1_555
Gd2 O24 2.294241 1_555
Gd2 O22 2.294245 1_555
Gd2 O15 2.294245 1_555
Gd2 O41 2.294249 1_555
Gd2 O10 2.294249 1_555
Gd3 O34 2.334087 1_455
Gd3 O31 2.334087 1_455
Gd3 O6 2.334087 1_555
Gd3 O23 2.334087 1_555
Gd3 O12 2.334088 1_545
Gd3 O7 2.334088 1_545
Gd4 O21 2.294241 1_554
Gd4 O36 2.294241 1_555
Gd4 O38 2.294245 1_554
Gd4 O30 2.294245 1_555
Gd4 O3 2.294249 1_555
Gd4 O14 2.294249 1_554
Gd5 O40 2.334087 1_555
Gd5 O26 2.334087 1_555
Gd5 O28 2.334087 1_445
Gd5 O4 2.334087 1_445
Gd5 O33 2.334088 1_555
Gd5 O2 2.334088 1_555
O0 Si8 1.638239 1_655
O1 Si7 1.638239 1_555
O2 Si8 1.636388 1_555
O3 Si7 1.638239 1_555
O4 Si2 1.636388 1_555
O5 Si0 1.638239 1_555
O6 Si6 1.636388 1_555
O7 Si4 1.636388 1_555
O8 Si7 1.687993 1_555
O8 Si2 1.687993 1_555
O9 Si11 1.638239 1_565
O10 Si2 1.638239 1_555
O11 Si4 1.638239 1_555
O12 Si3 1.636388 1_555
O13 Si10 1.638239 1_555
O14 Si6 1.638239 1_555
O15 Si4 1.638239 1_655
O16 Si8 1.687993 1_555
O16 Si10 1.687993 1_555
O17 Si1 1.638239 1_555
O18 Si9 1.638239 1_565
O19 Si1 1.687993 1_555
O19 Si9 1.687993 1_555
O20 Si2 1.638239 1_555
O21 Si3 1.638239 1_555
O22 Si9 1.638239 1_555
O23 Si5 1.636388 1_555
O24 Si11 1.638239 1_555
O25 Si6 1.638239 1_555
O26 Si9 1.636388 1_555
O27 Si5 1.687993 1_555
O27 Si6 1.687993 1_555
O28 Si7 1.636388 1_555
O29 Si10 1.638239 1_655
O30 Si8 1.638239 1_555
O31 Si0 1.636388 1_555
O32 Si3 1.638239 1_655
O33 Si10 1.636388 1_555
O34 Si11 1.636388 1_555
O35 Si5 1.638239 1_555
O36 Si1 1.638239 1_565
O37 Si4 1.687993 1_555
O37 Si3 1.687993 1_555
O38 Si0 1.638239 1_565
O39 Si11 1.687993 1_555
O39 Si0 1.687993 1_555
O40 Si1 1.636388 1_555
O41 Si5 1.638239 1_555
