# generated using pymatgen
data_SrU2O6
_symmetry_space_group_name_H-M   'P 1'
_cell_length_a   6.55831107
_cell_length_b   6.55831107
_cell_length_c   6.55831107
_cell_angle_alpha   145.49278948
_cell_angle_beta   130.12090800
_cell_angle_gamma   62.06577630
_symmetry_Int_Tables_number   1
_chemical_formula_structural   SrU2O6
_chemical_formula_sum   'Sr1 U2 O6'
_cell_volume   120.91760737
_cell_formula_units_Z   1
loop_
 _symmetry_equiv_pos_site_id
 _symmetry_equiv_pos_as_xyz
  1  'x, y, z'
loop_
 _atom_site_type_symbol
 _atom_site_label
 _atom_site_symmetry_multiplicity
 _atom_site_fract_x
 _atom_site_fract_y
 _atom_site_fract_z
 _atom_site_occupancy
  Sr  Sr0  1  0.50000000  0.50000000  0.00000000  1
  U  U0  1  0.83471000  0.83471000  0.00000000  1
  U  U1  1  0.16529000  0.16529000  0.00000000  1
  O  O0  1  0.94500600  0.67867100  0.26633500  1
  O  O1  1  0.21889500  0.00000000  0.21889500  1
  O  O2  1  0.05499400  0.32132900  0.73366500  1
  O  O3  1  0.58766300  0.32132900  0.26633500  1
  O  O4  1  0.41233700  0.67867100  0.73366500  1
  O  O5  1  0.78110500  0.00000000  0.78110500  1
loop_
_geom_bond_atom_site_label_1
_geom_bond_atom_site_label_2
_geom_bond_distance
_geom_bond_site_symmetry_2
O0 U0 2.290312 1_555
O0 U1 2.340216 1_666
O0 U1 2.340216 1_655
O0 Sr0 2.490468 1_555
O1 U1 2.217405 1_555
O1 U0 2.217405 1_445
O1 Sr0 2.490183 1_556
O1 Sr0 2.490183 1_545
O2 U1 2.290312 1_556
O2 U0 2.340216 1_445
O2 U0 2.340216 1_456
O2 Sr0 2.490468 1_556
O3 U1 2.290306 1_555
O3 U0 2.340216 1_556
O3 U0 2.340219 1_545
O3 Sr0 2.490471 1_555
O4 U0 2.290306 1_556
O4 U1 2.340216 1_555
O4 U1 2.340219 1_566
O4 Sr0 2.490471 1_556
O5 U1 2.217405 1_656
O5 U0 2.217405 1_546
O5 Sr0 2.490183 1_556
O5 Sr0 2.490183 1_545
