# generated using pymatgen
data_Sm2PbSe4
_symmetry_space_group_name_H-M   'P 1'
_cell_length_a   7.79991035
_cell_length_b   7.79991035
_cell_length_c   7.79991035
_cell_angle_alpha   109.42184587
_cell_angle_beta   109.42184587
_cell_angle_gamma   109.57001536
_symmetry_Int_Tables_number   1
_chemical_formula_structural   Sm2PbSe4
_chemical_formula_sum   'Sm4 Pb2 Se8'
_cell_volume   365.29688917
_cell_formula_units_Z   2
loop_
 _symmetry_equiv_pos_site_id
 _symmetry_equiv_pos_as_xyz
  1  'x, y, z'
loop_
 _atom_site_type_symbol
 _atom_site_label
 _atom_site_symmetry_multiplicity
 _atom_site_fract_x
 _atom_site_fract_y
 _atom_site_fract_z
 _atom_site_occupancy
  Sm  Sm0  1  0.12500000  0.50538200  0.88038200  1
  Sm  Sm1  1  0.75538200  0.87500000  0.38038200  1
  Sm  Sm2  1  0.62500000  0.24461800  0.11961800  1
  Sm  Sm3  1  0.49461800  0.37500000  0.61961800  1
  Pb  Pb0  1  0.25000000  0.75000000  0.50000000  1
  Pb  Pb1  1  0.00000000  0.00000000  0.00000000  1
  Se  Se0  1  0.38773800  0.98577000  0.25301800  1
  Se  Se1  1  0.86528000  0.61226200  0.59803200  1
  Se  Se2  1  0.01423000  0.26724800  0.40196800  1
  Se  Se3  1  0.23577000  0.13773800  0.75301800  1
  Se  Se4  1  0.86226200  0.61528000  0.09803200  1
  Se  Se5  1  0.51724800  0.76423000  0.90196800  1
  Se  Se6  1  0.73275200  0.13472000  0.74698200  1
  Se  Se7  1  0.38472000  0.48275200  0.24698200  1
loop_
_geom_bond_atom_site_label_1
_geom_bond_atom_site_label_2
_geom_bond_distance
_geom_bond_site_symmetry_2
Pb0 Se3 3.074871 1_565
Pb0 Se4 3.074871 1_455
Pb0 Se7 3.074871 1_555
Pb0 Se5 3.074871 1_555
Pb0 Se6 3.264373 1_565
Pb0 Se1 3.264373 1_455
Pb0 Se0 3.264373 1_555
Pb0 Se2 3.264373 1_555
Pb1 Se1 3.074871 1_444
Pb1 Se2 3.074871 1_555
Pb1 Se6 3.074871 1_454
Pb1 Se0 3.074871 1_545
Pb1 Se4 3.264373 1_445
Pb1 Se5 3.264373 1_444
Pb1 Se7 3.264373 1_555
Pb1 Se3 3.264373 1_554
Se0 Sm2 2.959462 1_565
Se0 Sm3 3.005710 1_565
Se0 Sm1 3.208196 1_555
Se0 Sm0 3.215482 1_554
Se1 Sm3 2.959462 1_555
Se1 Sm0 3.005710 1_655
Se1 Sm2 3.208196 1_555
Se1 Sm1 3.215482 1_555
Se2 Sm1 2.959462 1_445
Se2 Sm2 3.005710 1_455
Se2 Sm0 3.208196 1_555
Se2 Sm3 3.215482 1_555
Se3 Sm3 2.959462 1_555
Se3 Sm2 3.005710 1_556
Se3 Sm0 3.208196 1_555
Se3 Sm1 3.215482 1_445
Se4 Sm2 2.959462 1_555
Se4 Sm1 3.005710 1_555
Se4 Sm3 3.208196 1_554
Se4 Sm0 3.215482 1_654
Se5 Sm0 2.959462 1_555
Se5 Sm3 3.005710 1_555
Se5 Sm1 3.208196 1_556
Se5 Sm2 3.215482 1_566
Se6 Sm0 2.959462 1_655
Se6 Sm1 3.005710 1_545
Se6 Sm3 3.208196 1_555
Se6 Sm2 3.215482 1_556
Se7 Sm1 2.959462 1_555
Se7 Sm0 3.005710 1_554
Se7 Sm2 3.208196 1_555
Se7 Sm3 3.215482 1_555
