# generated using pymatgen
data_H3ClO5
_symmetry_space_group_name_H-M   'P 1'
_cell_length_a   6.45749200
_cell_length_b   7.10886300
_cell_length_c   9.79244000
_cell_angle_alpha   90.00000000
_cell_angle_beta   90.00000000
_cell_angle_gamma   90.00000000
_symmetry_Int_Tables_number   1
_chemical_formula_structural   H3ClO5
_chemical_formula_sum   'H12 Cl4 O20'
_cell_volume   449.52612931
_cell_formula_units_Z   4
loop_
 _symmetry_equiv_pos_site_id
 _symmetry_equiv_pos_as_xyz
  1  'x, y, z'
loop_
 _atom_site_type_symbol
 _atom_site_label
 _atom_site_symmetry_multiplicity
 _atom_site_fract_x
 _atom_site_fract_y
 _atom_site_fract_z
 _atom_site_occupancy
  H  H0  1  0.25000000  0.58038000  0.81323900  1
  H  H1  1  0.25000000  0.91962000  0.31323900  1
  H  H2  1  0.75000000  0.41962000  0.18676100  1
  H  H3  1  0.75000000  0.08038000  0.68676100  1
  H  H4  1  0.75000000  0.14083000  0.10429000  1
  H  H5  1  0.75000000  0.15034200  0.26611900  1
  H  H6  1  0.75000000  0.34965800  0.76611900  1
  H  H7  1  0.75000000  0.35917000  0.60429000  1
  H  H8  1  0.25000000  0.84965800  0.73388100  1
  H  H9  1  0.25000000  0.85917000  0.89571000  1
  H  H10  1  0.25000000  0.65034200  0.23388100  1
  H  H11  1  0.25000000  0.64083000  0.39571000  1
  Cl  Cl0  1  0.25000000  0.30558700  0.92361100  1
  Cl  Cl1  1  0.25000000  0.19441300  0.42361100  1
  Cl  Cl2  1  0.75000000  0.69441300  0.07638900  1
  Cl  Cl3  1  0.75000000  0.80558700  0.57638900  1
  O  O0  1  0.25000000  0.43163700  0.79001600  1
  O  O1  1  0.25000000  0.06836300  0.29001600  1
  O  O2  1  0.75000000  0.56836300  0.20998400  1
  O  O3  1  0.75000000  0.93163700  0.70998400  1
  O  O4  1  0.25000000  0.43136500  0.03831800  1
  O  O5  1  0.25000000  0.06863500  0.53831800  1
  O  O6  1  0.75000000  0.56863500  0.96168200  1
  O  O7  1  0.75000000  0.93136500  0.46168200  1
  O  O8  1  0.06588500  0.19238200  0.91438900  1
  O  O9  1  0.43411500  0.30761800  0.41438900  1
  O  O10  1  0.56588500  0.80761800  0.08561100  1
  O  O11  1  0.93411500  0.69238200  0.58561100  1
  O  O12  1  0.93411500  0.80761800  0.08561100  1
  O  O13  1  0.56588500  0.69238200  0.58561100  1
  O  O14  1  0.43411500  0.19238200  0.91438900  1
  O  O15  1  0.06588500  0.30761800  0.41438900  1
  O  O16  1  0.75000000  0.22452600  0.18302800  1
  O  O17  1  0.75000000  0.27547400  0.68302800  1
  O  O18  1  0.25000000  0.77547400  0.81697200  1
  O  O19  1  0.25000000  0.72452600  0.31697200  1
loop_
_geom_bond_atom_site_label_1
_geom_bond_atom_site_label_2
_geom_bond_distance
_geom_bond_site_symmetry_2
H0 O0 1.081571 1_555
H0 O18 1.387378 1_555
H1 O1 1.081571 1_565
H1 O19 1.387378 1_555
H2 O2 1.081571 1_555
H2 O16 1.387378 1_555
H3 O3 1.081571 1_545
H3 O17 1.387378 1_555
H4 O16 0.973911 1_555
H5 O16 0.969619 1_555
H6 O17 0.969619 1_555
H7 O17 0.973911 1_555
H8 O18 0.969619 1_555
H9 O18 0.973911 1_555
H10 O19 0.969619 1_555
H11 O19 0.973911 1_555
Cl0 O4 1.435688 1_556
Cl0 O14 1.438515 1_555
Cl0 O8 1.438515 1_555
Cl0 O0 1.585682 1_555
Cl1 O5 1.435688 1_555
Cl1 O9 1.438515 1_555
Cl1 O15 1.438515 1_555
Cl1 O1 1.585682 1_555
Cl2 O6 1.435688 1_554
Cl2 O12 1.438515 1_555
Cl2 O10 1.438515 1_555
Cl2 O2 1.585682 1_555
Cl3 O7 1.435688 1_555
Cl3 O11 1.438515 1_555
Cl3 O13 1.438515 1_555
Cl3 O3 1.585682 1_555
