# generated using pymatgen
data_Al3Bi5I12
_symmetry_space_group_name_H-M   'P 1'
_cell_length_a   8.35858800
_cell_length_b   19.10878900
_cell_length_c   22.47994400
_cell_angle_alpha   90.00000000
_cell_angle_beta   90.00000000
_cell_angle_gamma   90.00000000
_symmetry_Int_Tables_number   1
_chemical_formula_structural   Al3Bi5I12
_chemical_formula_sum   'Al12 Bi20 I48'
_cell_volume   3590.55273033
_cell_formula_units_Z   4
loop_
 _symmetry_equiv_pos_site_id
 _symmetry_equiv_pos_as_xyz
  1  'x, y, z'
loop_
 _atom_site_type_symbol
 _atom_site_label
 _atom_site_symmetry_multiplicity
 _atom_site_fract_x
 _atom_site_fract_y
 _atom_site_fract_z
 _atom_site_occupancy
  Al  Al0  1  0.46178900  0.25000000  0.57567700  1
  Al  Al1  1  0.67260700  0.53942000  0.13316400  1
  Al  Al2  1  0.67260700  0.96058000  0.13316400  1
  Al  Al3  1  0.32739300  0.46058000  0.86683600  1
  Al  Al4  1  0.03821100  0.25000000  0.07567700  1
  Al  Al5  1  0.82739300  0.96058000  0.63316400  1
  Al  Al6  1  0.17260700  0.46058000  0.36683600  1
  Al  Al7  1  0.32739300  0.03942000  0.86683600  1
  Al  Al8  1  0.96178900  0.75000000  0.92432300  1
  Al  Al9  1  0.82739300  0.53942000  0.63316400  1
  Al  Al10  1  0.17260700  0.03942000  0.36683600  1
  Al  Al11  1  0.53821100  0.75000000  0.42432300  1
  Bi  Bi0  1  0.41374400  0.66025600  0.72270300  1
  Bi  Bi1  1  0.42627500  0.75000000  0.83500600  1
  Bi  Bi2  1  0.91374400  0.33974400  0.77729700  1
  Bi  Bi3  1  0.91374400  0.16025600  0.77729700  1
  Bi  Bi4  1  0.27038000  0.25000000  0.24076600  1
  Bi  Bi5  1  0.41356100  0.25000000  0.37108700  1
  Bi  Bi6  1  0.08625600  0.83974400  0.22270300  1
  Bi  Bi7  1  0.57372500  0.25000000  0.16499400  1
  Bi  Bi8  1  0.92627500  0.25000000  0.66499400  1
  Bi  Bi9  1  0.08625600  0.66025600  0.22270300  1
  Bi  Bi10  1  0.77038000  0.75000000  0.25923400  1
  Bi  Bi11  1  0.58643900  0.75000000  0.62891300  1
  Bi  Bi12  1  0.41374400  0.83974400  0.72270300  1
  Bi  Bi13  1  0.22962000  0.25000000  0.74076600  1
  Bi  Bi14  1  0.58625600  0.33974400  0.27729700  1
  Bi  Bi15  1  0.72962000  0.75000000  0.75923400  1
  Bi  Bi16  1  0.91356100  0.75000000  0.12891300  1
  Bi  Bi17  1  0.58625600  0.16025600  0.27729700  1
  Bi  Bi18  1  0.07372500  0.75000000  0.33500600  1
  Bi  Bi19  1  0.08643900  0.25000000  0.87108700  1
  I  I0  1  0.18096200  0.75000000  0.00499400  1
  I  I1  1  0.47952500  0.85484800  0.13775900  1
  I  I2  1  0.97223700  0.43306300  0.59185600  1
  I  I3  1  0.49180700  0.35644500  0.64460900  1
  I  I4  1  0.47223700  0.56693700  0.90814400  1
  I  I5  1  0.68096200  0.25000000  0.49500600  1
  I  I6  1  0.02047500  0.64515200  0.63775900  1
  I  I7  1  0.02776300  0.93306300  0.40814400  1
  I  I8  1  0.81903800  0.25000000  0.99500600  1
  I  I9  1  0.97223700  0.06693700  0.59185600  1
  I  I10  1  0.50819300  0.85644500  0.35539100  1
  I  I11  1  0.21285800  0.47988400  0.76087200  1
  I  I12  1  0.21285800  0.02011600  0.76087200  1
  I  I13  1  0.52776300  0.06693700  0.09185600  1
  I  I14  1  0.91238300  0.57712800  0.06853900  1
  I  I15  1  0.47952500  0.64515200  0.13775900  1
  I  I16  1  0.00819300  0.14355500  0.14460900  1
  I  I17  1  0.47223700  0.93306300  0.90814400  1
  I  I18  1  0.99180700  0.85644500  0.85539100  1
  I  I19  1  0.91238300  0.92287200  0.06853900  1
  I  I20  1  0.81403500  0.75000000  0.47415900  1
  I  I21  1  0.02776300  0.56693700  0.40814400  1
  I  I22  1  0.28714200  0.47988400  0.26087200  1
  I  I23  1  0.02047500  0.85484800  0.63775900  1
  I  I24  1  0.31403500  0.25000000  0.02584100  1
  I  I25  1  0.78714200  0.52011600  0.23912800  1
  I  I26  1  0.31903800  0.75000000  0.50499400  1
  I  I27  1  0.08761700  0.07712800  0.93146100  1
  I  I28  1  0.78714200  0.97988400  0.23912800  1
  I  I29  1  0.68596500  0.75000000  0.97415900  1
  I  I30  1  0.52776300  0.43306300  0.09185600  1
  I  I31  1  0.50819300  0.64355500  0.35539100  1
  I  I32  1  0.97952500  0.35484800  0.36224100  1
  I  I33  1  0.49180700  0.14355500  0.64460900  1
  I  I34  1  0.41238300  0.07712800  0.43146100  1
  I  I35  1  0.58761700  0.57712800  0.56853900  1
  I  I36  1  0.08761700  0.42287200  0.93146100  1
  I  I37  1  0.52047500  0.14515200  0.86224100  1
  I  I38  1  0.18596500  0.25000000  0.52584100  1
  I  I39  1  0.58761700  0.92287200  0.56853900  1
  I  I40  1  0.71285800  0.97988400  0.73912800  1
  I  I41  1  0.28714200  0.02011600  0.26087200  1
  I  I42  1  0.52047500  0.35484800  0.86224100  1
  I  I43  1  0.97952500  0.14515200  0.36224100  1
  I  I44  1  0.41238300  0.42287200  0.43146100  1
  I  I45  1  0.99180700  0.64355500  0.85539100  1
  I  I46  1  0.71285800  0.52011600  0.73912800  1
  I  I47  1  0.00819300  0.35644500  0.14460900  1
loop_
_geom_bond_atom_site_label_1
_geom_bond_atom_site_label_2
_geom_bond_distance
_geom_bond_site_symmetry_2
Al0 I38 2.563283 1_555
Al0 I3 2.569334 1_555
Al0 I33 2.569334 1_555
Al0 I5 2.577760 1_555
Al1 I30 2.541365 1_555
Al1 I14 2.578081 1_555
Al1 I15 2.587929 1_555
Al1 I25 2.593612 1_555
Al2 I13 2.541365 1_565
Al2 I19 2.578081 1_555
Al2 I1 2.587929 1_555
Al2 I28 2.593612 1_555
Al3 I4 2.541365 1_555
Al3 I36 2.578081 1_555
Al3 I42 2.587929 1_555
Al3 I11 2.593612 1_555
Al4 I24 2.563283 1_555
Al4 I47 2.569334 1_555
Al4 I16 2.569334 1_555
Al4 I8 2.577760 1_454
Al5 I9 2.541365 1_565
Al5 I39 2.578081 1_555
Al5 I23 2.587929 1_655
Al5 I40 2.593612 1_555
Al6 I21 2.541365 1_555
Al6 I44 2.578081 1_555
Al6 I32 2.587929 1_455
Al6 I22 2.593612 1_555
Al7 I17 2.541365 1_545
Al7 I27 2.578081 1_555
Al7 I37 2.587929 1_555
Al7 I12 2.593612 1_555
Al8 I29 2.563283 1_555
Al8 I18 2.569334 1_555
Al8 I45 2.569334 1_555
Al8 I0 2.577760 1_656
Al9 I2 2.541365 1_555
Al9 I35 2.578081 1_555
Al9 I6 2.587929 1_655
Al9 I46 2.593612 1_555
Al10 I7 2.541365 1_545
Al10 I34 2.578081 1_555
Al10 I43 2.587929 1_455
Al10 I41 2.593612 1_555
Al11 I20 2.563283 1_555
Al11 I31 2.569334 1_555
Al11 I10 2.569334 1_555
Al11 I26 2.577760 1_555
Bi0 Bi1 3.053732 1_555
Bi0 Bi11 3.077313 1_555
Bi0 Bi15 3.253665 1_555
Bi0 Bi12 3.429798 1_555
Bi0 I46 3.682169 1_555
Bi1 Bi12 3.053732 1_555
Bi1 Bi15 3.054561 1_555
Bi2 Bi8 3.053732 1_555
Bi2 Bi3 3.429798 1_555
Bi2 I11 3.682169 1_655
Bi3 Bi8 3.053732 1_555
Bi3 I12 3.682169 1_655
Bi4 Bi7 3.054561 1_555
Bi4 Bi5 3.164635 1_555
Bi4 I47 3.689520 1_555
Bi4 I16 3.689520 1_555
Bi5 I44 3.571328 1_555
Bi5 I34 3.571328 1_555
Bi5 I5 3.571516 1_555
Bi6 Bi9 3.429798 1_555
Bi6 I28 3.682169 1_455
Bi9 I25 3.682169 1_455
Bi10 Bi18 3.054561 1_655
Bi10 Bi16 3.164635 1_555
Bi10 Bi6 3.253665 1_655
Bi10 Bi9 3.253665 1_655
Bi10 I10 3.689520 1_555
Bi10 I31 3.689520 1_555
Bi11 Bi12 3.077313 1_555
Bi11 Bi15 3.164635 1_555
Bi11 I39 3.571328 1_555
Bi11 I35 3.571328 1_555
Bi11 I26 3.571516 1_555
Bi12 Bi15 3.253665 1_555
Bi12 I40 3.682169 1_555
Bi13 Bi8 3.054561 1_455
Bi13 Bi19 3.164635 1_555
Bi13 Bi2 3.253665 1_455
Bi13 Bi3 3.253665 1_455
Bi13 I3 3.689520 1_555
Bi13 I33 3.689520 1_555
Bi14 Bi7 3.053732 1_555
Bi14 Bi5 3.077313 1_555
Bi14 Bi4 3.253665 1_555
Bi14 Bi17 3.429798 1_555
Bi14 I22 3.682169 1_555
Bi15 I45 3.689520 1_555
Bi15 I18 3.689520 1_555
Bi16 Bi6 3.077313 1_655
Bi16 Bi9 3.077313 1_655
Bi16 I19 3.571328 1_555
Bi16 I14 3.571328 1_555
Bi16 I0 3.571516 1_655
Bi17 Bi7 3.053732 1_555
Bi17 Bi5 3.077313 1_555
Bi17 Bi4 3.253665 1_555
Bi17 I41 3.682169 1_555
Bi18 Bi6 3.053732 1_555
Bi18 Bi9 3.053732 1_555
Bi19 Bi2 3.077313 1_455
Bi19 Bi3 3.077313 1_455
Bi19 I36 3.571328 1_555
Bi19 I27 3.571328 1_555
Bi19 I8 3.571516 1_455
