# generated using pymatgen
data_Rb2Cd2(SO4)3
_symmetry_space_group_name_H-M   'P 1'
_cell_length_a   10.59517800
_cell_length_b   10.59517800
_cell_length_c   10.59517800
_cell_angle_alpha   90.00000000
_cell_angle_beta   90.00000000
_cell_angle_gamma   90.00000000
_symmetry_Int_Tables_number   1
_chemical_formula_structural   Rb2Cd2(SO4)3
_chemical_formula_sum   'Rb8 Cd8 S12 O48'
_cell_volume   1189.39133953
_cell_formula_units_Z   4
loop_
 _symmetry_equiv_pos_site_id
 _symmetry_equiv_pos_as_xyz
  1  'x, y, z'
loop_
 _atom_site_type_symbol
 _atom_site_label
 _atom_site_symmetry_multiplicity
 _atom_site_fract_x
 _atom_site_fract_y
 _atom_site_fract_z
 _atom_site_occupancy
  Rb  Rb0  1  0.43776000  0.93776000  0.56224000  1
  Rb  Rb1  1  0.56224000  0.43776000  0.93776000  1
  Rb  Rb2  1  0.69849600  0.80150400  0.19849600  1
  Rb  Rb3  1  0.93776000  0.56224000  0.43776000  1
  Rb  Rb4  1  0.30150400  0.30150400  0.30150400  1
  Rb  Rb5  1  0.19849600  0.69849600  0.80150400  1
  Rb  Rb6  1  0.80150400  0.19849600  0.69849600  1
  Rb  Rb7  1  0.06224000  0.06224000  0.06224000  1
  Cd  Cd0  1  0.41891000  0.08109000  0.91891000  1
  Cd  Cd1  1  0.91891000  0.41891000  0.08109000  1
  Cd  Cd2  1  0.08109000  0.91891000  0.41891000  1
  Cd  Cd3  1  0.58109000  0.58109000  0.58109000  1
  Cd  Cd4  1  0.16432900  0.33567100  0.66432900  1
  Cd  Cd5  1  0.33567100  0.66432900  0.16432900  1
  Cd  Cd6  1  0.83567100  0.83567100  0.83567100  1
  Cd  Cd7  1  0.66432900  0.16432900  0.33567100  1
  S  S0  1  0.37432600  0.97633800  0.23639900  1
  S  S1  1  0.87432600  0.52366200  0.76360100  1
  S  S2  1  0.62567400  0.47633800  0.26360100  1
  S  S3  1  0.52366200  0.76360100  0.87432600  1
  S  S4  1  0.26360100  0.62567400  0.47633800  1
  S  S5  1  0.76360100  0.87432600  0.52366200  1
  S  S6  1  0.97633800  0.23639900  0.37432600  1
  S  S7  1  0.23639900  0.37432600  0.97633800  1
  S  S8  1  0.47633800  0.26360100  0.62567400  1
  S  S9  1  0.12567400  0.02366200  0.73639900  1
  S  S10  1  0.73639900  0.12567400  0.02366200  1
  S  S11  1  0.02366200  0.73639900  0.12567400  1
  O  O0  1  0.33660900  0.00350500  0.10379600  1
  O  O1  1  0.83660900  0.49649500  0.89620400  1
  O  O2  1  0.66339100  0.50350500  0.39620400  1
  O  O3  1  0.49649500  0.89620400  0.83660900  1
  O  O4  1  0.39620400  0.66339100  0.50350500  1
  O  O5  1  0.89620400  0.83660900  0.49649500  1
  O  O6  1  0.00350500  0.10379600  0.33660900  1
  O  O7  1  0.10379600  0.33660900  0.00350500  1
  O  O8  1  0.50350500  0.39620400  0.66339100  1
  O  O9  1  0.99649500  0.60379600  0.16339100  1
  O  O10  1  0.60379600  0.16339100  0.99649500  1
  O  O11  1  0.16339100  0.99649500  0.60379600  1
  O  O12  1  0.26174200  0.99406200  0.31899800  1
  O  O13  1  0.76174200  0.50593800  0.68100200  1
  O  O14  1  0.73825800  0.49406200  0.18100200  1
  O  O15  1  0.50593800  0.68100200  0.76174200  1
  O  O16  1  0.18100200  0.73825800  0.49406200  1
  O  O17  1  0.68100200  0.76174200  0.50593800  1
  O  O18  1  0.25225300  0.57643900  0.34416100  1
  O  O19  1  0.99406200  0.31899800  0.26174200  1
  O  O20  1  0.49406200  0.18100200  0.73825800  1
  O  O21  1  0.00593800  0.81899800  0.23825800  1
  O  O22  1  0.81899800  0.23825800  0.00593800  1
  O  O23  1  0.23825800  0.00593800  0.81899800  1
  O  O24  1  0.42356100  0.84416100  0.24774700  1
  O  O25  1  0.92356100  0.65583900  0.75225300  1
  O  O26  1  0.57643900  0.34416100  0.25225300  1
  O  O27  1  0.65583900  0.75225300  0.92356100  1
  O  O28  1  0.02654600  0.93492300  0.78031100  1
  O  O29  1  0.78031100  0.02654600  0.93492300  1
  O  O30  1  0.93492300  0.78031100  0.02654600  1
  O  O31  1  0.56507700  0.21968900  0.52654600  1
  O  O32  1  0.28031100  0.47345400  0.06507700  1
  O  O33  1  0.06507700  0.28031100  0.47345400  1
  O  O34  1  0.71968900  0.97345400  0.43492300  1
  O  O35  1  0.21968900  0.52654600  0.56507700  1
  O  O36  1  0.43492300  0.71968900  0.97345400  1
  O  O37  1  0.52654600  0.56507700  0.21968900  1
  O  O38  1  0.97345400  0.43492300  0.71968900  1
  O  O39  1  0.47345400  0.06507700  0.28031100  1
  O  O40  1  0.07643900  0.15583900  0.74774700  1
  O  O41  1  0.74774700  0.07643900  0.15583900  1
  O  O42  1  0.15583900  0.74774700  0.07643900  1
  O  O43  1  0.34416100  0.25225300  0.57643900  1
  O  O44  1  0.24774700  0.42356100  0.84416100  1
  O  O45  1  0.84416100  0.24774700  0.42356100  1
  O  O46  1  0.75225300  0.92356100  0.65583900  1
  O  O47  1  0.31899800  0.26174200  0.99406200  1
loop_
_geom_bond_atom_site_label_1
_geom_bond_atom_site_label_2
_geom_bond_distance
_geom_bond_site_symmetry_2
Cd0 O3 2.296386 1_545
Cd0 O10 2.296386 1_555
Cd0 O0 2.296386 1_556
Cd0 O23 2.327695 1_555
Cd0 O47 2.327695 1_555
Cd0 O20 2.327695 1_555
Cd1 O1 2.296386 1_554
Cd1 O7 2.296386 1_655
Cd1 O9 2.296386 1_555
Cd1 O22 2.327695 1_555
Cd1 O14 2.327695 1_555
Cd1 O19 2.327695 1_555
Cd2 O5 2.296386 1_455
Cd2 O6 2.296386 1_565
Cd2 O11 2.296386 1_555
Cd2 O21 2.327695 1_555
Cd2 O12 2.327695 1_555
Cd2 O16 2.327695 1_555
Cd3 O2 2.296386 1_555
Cd3 O4 2.296386 1_555
Cd3 O8 2.296386 1_555
Cd3 O13 2.327695 1_555
Cd3 O15 2.327695 1_555
Cd3 O17 2.327695 1_555
Cd4 O43 2.297536 1_555
Cd4 O40 2.297536 1_555
Cd4 O44 2.297536 1_555
Cd4 O35 2.353679 1_555
Cd4 O33 2.353679 1_555
Cd4 O38 2.353679 1_455
Cd5 O18 2.297536 1_555
Cd5 O42 2.297536 1_555
Cd5 O24 2.297536 1_555
Cd5 O37 2.353679 1_555
Cd5 O36 2.353679 1_554
Cd5 O32 2.353679 1_555
Cd6 O25 2.297536 1_555
Cd6 O27 2.297536 1_555
Cd6 O46 2.297536 1_555
Cd6 O28 2.353679 1_655
Cd6 O30 2.353679 1_556
Cd6 O29 2.353679 1_565
Cd7 O26 2.297536 1_555
Cd7 O41 2.297536 1_555
Cd7 O45 2.297536 1_555
Cd7 O31 2.353679 1_555
Cd7 O39 2.353679 1_555
Cd7 O34 2.353679 1_545
O0 S0 1.488770 1_545
O0 Rb7 3.005280 1_555
O1 S1 1.488770 1_555
O1 Rb1 3.005280 1_555
O2 S2 1.488770 1_555
O2 Rb3 3.005280 1_555
O3 S3 1.488770 1_555
O3 Rb0 3.005280 1_555
O4 S4 1.488770 1_555
O4 Rb0 3.005280 1_555
O5 S5 1.488770 1_555
O5 Rb3 3.005280 1_555
O6 S6 1.488770 1_455
O6 Rb7 3.005280 1_555
O7 S7 1.488770 1_554
O7 Rb7 3.005280 1_555
O8 S8 1.488770 1_555
O8 Rb1 3.005280 1_555
O9 S11 1.488770 1_655
O9 Rb3 3.005280 1_555
O10 S10 1.488770 1_556
O10 Rb1 3.005280 1_555
O11 S9 1.488770 1_565
O11 Rb0 3.005280 1_555
O12 S0 1.491321 1_555
O12 Rb0 3.236630 1_555
O12 Rb4 3.289758 1_565
O12 Rb7 3.519991 1_565
O13 S1 1.491321 1_555
O13 Rb3 3.236630 1_555
O13 Rb6 3.289758 1_555
O13 Rb1 3.519991 1_555
O14 S2 1.491321 1_555
O14 Rb1 3.236630 1_554
O14 Rb2 3.289758 1_555
O14 Rb3 3.519991 1_555
O15 S3 1.491321 1_555
O15 Rb1 3.236630 1_555
O15 Rb5 3.289758 1_555
O15 Rb0 3.519991 1_555
O16 S4 1.491321 1_555
O16 Rb3 3.236630 1_455
O16 Rb5 3.289758 1_555
O16 Rb0 3.519991 1_555
O17 S5 1.491321 1_555
O17 Rb0 3.236630 1_555
O17 Rb2 3.289758 1_555
O17 Rb3 3.519991 1_555
O18 S4 1.499269 1_555
O18 Rb4 2.993668 1_555
O18 Rb3 3.479806 1_455
O19 S6 1.491321 1_555
O19 Rb3 3.236630 1_555
O19 Rb4 3.289758 1_655
O19 Rb7 3.519991 1_655
O20 S8 1.491321 1_555
O20 Rb0 3.236630 1_545
O20 Rb6 3.289758 1_555
O20 Rb1 3.519991 1_555
O21 S11 1.491321 1_555
O21 Rb7 3.236630 1_565
O21 Rb2 3.289758 1_455
O21 Rb3 3.519991 1_455
O22 S10 1.491321 1_555
O22 Rb7 3.236630 1_655
O22 Rb6 3.289758 1_554
O22 Rb1 3.519991 1_554
O23 S9 1.491321 1_555
O23 Rb7 3.236630 1_556
O23 Rb5 3.289758 1_545
O23 Rb0 3.519991 1_545
O24 S0 1.499269 1_555
O24 Rb2 2.993668 1_555
O24 Rb0 3.479806 1_555
O25 S1 1.499269 1_555
O25 Rb5 2.993668 1_655
O25 Rb3 3.479806 1_555
O26 S2 1.499269 1_555
O26 Rb4 2.993668 1_555
O26 Rb1 3.479806 1_554
O27 S3 1.499269 1_555
O27 Rb2 2.993668 1_556
O27 Rb1 3.479806 1_555
O28 S9 1.484431 1_565
O28 Rb5 3.105556 1_555
O28 Rb7 3.299299 1_566
O29 S10 1.484431 1_556
O29 Rb6 3.105556 1_555
O29 Rb7 3.299299 1_656
O30 S11 1.484431 1_655
O30 Rb2 3.105556 1_555
O30 Rb7 3.299299 1_665
O31 S8 1.484431 1_555
O31 Rb6 3.105556 1_555
O31 Rb0 3.299299 1_545
O32 S7 1.484431 1_554
O32 Rb4 3.105556 1_555
O32 Rb1 3.299299 1_554
O33 S6 1.484431 1_455
O33 Rb4 3.105556 1_555
O33 Rb3 3.299299 1_455
O34 S5 1.484431 1_555
O34 Rb2 3.105556 1_555
O34 Rb0 3.299299 1_555
O35 S4 1.484431 1_555
O35 Rb5 3.105556 1_555
O35 Rb3 3.299299 1_455
O36 S3 1.484431 1_555
O36 Rb5 3.105556 1_555
O36 Rb1 3.299299 1_555
O37 S2 1.484431 1_555
O37 Rb2 3.105556 1_555
O37 Rb1 3.299299 1_554
O38 S1 1.484431 1_555
O38 Rb6 3.105556 1_555
O38 Rb3 3.299299 1_555
O39 S0 1.484431 1_545
O39 Rb4 3.105556 1_555
O39 Rb0 3.299299 1_545
O40 S9 1.499269 1_555
O40 Rb6 2.993668 1_455
O40 Rb7 3.479806 1_556
O41 S10 1.499269 1_555
O41 Rb2 2.993668 1_545
O41 Rb7 3.479806 1_655
O42 S11 1.499269 1_555
O42 Rb5 2.993668 1_554
O42 Rb7 3.479806 1_565
O43 S8 1.499269 1_555
O43 Rb4 2.993668 1_555
O43 Rb0 3.479806 1_545
O44 S7 1.499269 1_555
O44 Rb5 2.993668 1_555
O44 Rb1 3.479806 1_555
O45 S6 1.499269 1_555
O45 Rb6 2.993668 1_555
O45 Rb3 3.479806 1_555
O46 S5 1.499269 1_555
O46 Rb6 2.993668 1_565
O46 Rb0 3.479806 1_555
O47 S7 1.491321 1_555
O47 Rb1 3.236630 1_555
O47 Rb4 3.289758 1_556
O47 Rb7 3.519991 1_556
