# generated using pymatgen
data_Na2LiAlF6
_symmetry_space_group_name_H-M   'P 1'
_cell_length_a   5.44491000
_cell_length_b   5.33241300
_cell_length_c   9.26143162
_cell_angle_alpha   54.95790727
_cell_angle_beta   90.00000000
_cell_angle_gamma   90.00000000
_symmetry_Int_Tables_number   1
_chemical_formula_structural   Na2LiAlF6
_chemical_formula_sum   'Na4 Li2 Al2 F12'
_cell_volume   220.15753149
_cell_formula_units_Z   2
loop_
 _symmetry_equiv_pos_site_id
 _symmetry_equiv_pos_as_xyz
  1  'x, y, z'
loop_
 _atom_site_type_symbol
 _atom_site_label
 _atom_site_symmetry_multiplicity
 _atom_site_fract_x
 _atom_site_fract_y
 _atom_site_fract_z
 _atom_site_occupancy
  Na  Na0  1  0.95612000  0.76005000  0.24969000  1
  Na  Na1  1  0.04388000  0.23995000  0.75031000  1
  Na  Na2  1  0.54388000  0.76005000  0.74969000  1
  Na  Na3  1  0.45612000  0.23995000  0.25031000  1
  Li  Li0  1  0.00000000  0.00000000  0.50000000  1
  Li  Li1  1  0.50000000  0.00000000  0.00000000  1
  Al  Al0  1  0.00000000  0.50000000  0.00000000  1
  Al  Al1  1  0.50000000  0.50000000  0.50000000  1
  F  F0  1  0.02311300  0.34520500  0.23446600  1
  F  F1  1  0.47688700  0.34520500  0.73446600  1
  F  F2  1  0.97688700  0.65479500  0.76553400  1
  F  F3  1  0.52311300  0.65479500  0.26553400  1
  F  F4  1  0.19300900  0.18462400  0.03900200  1
  F  F5  1  0.22489200  0.73255000  0.45629000  1
  F  F6  1  0.80699100  0.81537600  0.96099800  1
  F  F7  1  0.30699100  0.18462400  0.53900200  1
  F  F8  1  0.69300900  0.81537600  0.46099800  1
  F  F9  1  0.77510800  0.26745000  0.54371000  1
  F  F10  1  0.27510800  0.73255000  0.95629000  1
  F  F11  1  0.72489200  0.26745000  0.04371000  1
loop_
_geom_bond_atom_site_label_1
_geom_bond_atom_site_label_2
_geom_bond_distance
_geom_bond_site_symmetry_2
Al0 F2 1.831452 1_454
Al0 F0 1.831452 1_555
Al0 F4 1.834526 1_555
Al0 F6 1.834526 1_454
Al0 F11 1.835472 1_455
Al0 F10 1.835472 1_554
Al1 F1 1.831452 1_555
Al1 F3 1.831452 1_555
Al1 F8 1.834526 1_555
Al1 F7 1.834526 1_555
Al1 F5 1.835472 1_555
Al1 F9 1.835472 1_555
F0 Li0 2.062428 1_555
F0 Na0 2.324781 1_455
F0 Na3 2.408453 1_555
F1 Li1 2.062428 1_556
F1 Na2 2.324781 1_555
F1 Na1 2.408453 1_555
F2 Li0 2.062428 1_665
F2 Na1 2.324781 1_655
F2 Na2 2.408453 1_555
F3 Li1 2.062428 1_565
F3 Na3 2.324781 1_555
F3 Na0 2.408453 1_555
F4 Li1 2.074153 1_555
F4 Na0 2.350273 1_445
F4 Na3 2.575334 1_555
F4 Na1 2.643715 1_554
F5 Li0 2.088113 1_565
F5 Na0 2.345654 1_455
F5 Na3 2.572488 1_565
F5 Na1 2.659373 1_555
F6 Li1 2.074153 1_566
F6 Na1 2.350273 1_665
F6 Na2 2.575334 1_555
F6 Na0 2.643715 1_556
F7 Li0 2.074153 1_555
F7 Na2 2.350273 1_545
F7 Na1 2.575334 1_555
F7 Na3 2.643715 1_555
F8 Li0 2.074153 1_665
F8 Na3 2.350273 1_565
F8 Na0 2.575334 1_555
F8 Na2 2.643715 1_555
F9 Li0 2.088113 1_655
F9 Na1 2.345654 1_655
F9 Na2 2.572488 1_545
F9 Na0 2.659373 1_555
F10 Li1 2.088113 1_566
F10 Na2 2.345654 1_555
F10 Na1 2.572488 1_565
F10 Na3 2.659373 1_556
F11 Li1 2.088113 1_555
F11 Na3 2.345654 1_555
F11 Na0 2.572488 1_545
F11 Na2 2.659373 1_554
