# generated using pymatgen
data_Ho2B4O9
_symmetry_space_group_name_H-M   'P 1'
_cell_length_a   12.81295828
_cell_length_b   12.81295828
_cell_length_c   24.90814437
_cell_angle_alpha   80.16426645
_cell_angle_beta   80.16426645
_cell_angle_gamma   19.85587762
_symmetry_Int_Tables_number   1
_chemical_formula_structural   Ho2B4O9
_chemical_formula_sum   'Ho20 B40 O90'
_cell_volume   1367.87929480
_cell_formula_units_Z   10
loop_
 _symmetry_equiv_pos_site_id
 _symmetry_equiv_pos_as_xyz
  1  'x, y, z'
loop_
 _atom_site_type_symbol
 _atom_site_label
 _atom_site_symmetry_multiplicity
 _atom_site_fract_x
 _atom_site_fract_y
 _atom_site_fract_z
 _atom_site_occupancy
  Ho  Ho0  1  0.57928400  0.98951700  0.12884400  1
  Ho  Ho1  1  0.08299200  0.61091800  0.46174000  1
  Ho  Ho2  1  0.65853500  0.31847400  0.67869900  1
  Ho  Ho3  1  0.68152600  0.34146500  0.82130100  1
  Ho  Ho4  1  0.31847400  0.65853500  0.17869900  1
  Ho  Ho5  1  0.46382700  0.81760800  0.20727300  1
  Ho  Ho6  1  0.72861300  0.14100900  0.07307800  1
  Ho  Ho7  1  0.91700800  0.38908200  0.53826000  1
  Ho  Ho8  1  0.85899100  0.27138700  0.42692200  1
  Ho  Ho9  1  0.27138700  0.85899100  0.92692200  1
  Ho  Ho10  1  0.81760800  0.46382700  0.70727300  1
  Ho  Ho11  1  0.53617300  0.18239200  0.79272700  1
  Ho  Ho12  1  0.34146500  0.68152600  0.32130100  1
  Ho  Ho13  1  0.42071600  0.01048300  0.87115600  1
  Ho  Ho14  1  0.38908200  0.91700800  0.03826000  1
  Ho  Ho15  1  0.14100900  0.72861300  0.57307800  1
  Ho  Ho16  1  0.01048300  0.42071600  0.37115600  1
  Ho  Ho17  1  0.18239200  0.53617300  0.29272700  1
  Ho  Ho18  1  0.98951700  0.57928400  0.62884400  1
  Ho  Ho19  1  0.61091800  0.08299200  0.96174000  1
  B  B0  1  0.08797600  0.41422600  0.21821200  1
  B  B1  1  0.48023600  0.03557100  0.53874400  1
  B  B2  1  0.65239500  0.95674900  0.36650600  1
  B  B3  1  0.21653900  0.84055000  0.06587600  1
  B  B4  1  0.03821700  0.77879500  0.87672600  1
  B  B5  1  0.96178300  0.22120500  0.12327400  1
  B  B6  1  0.76826100  0.12688900  0.27549100  1
  B  B7  1  0.45107800  0.84104300  0.33701000  1
  B  B8  1  0.41891000  0.87444100  0.44114200  1
  B  B9  1  0.23173900  0.87311100  0.72450900  1
  B  B10  1  0.51976400  0.96442900  0.46125600  1
  B  B11  1  0.54892200  0.15895700  0.66299000  1
  B  B12  1  0.95674900  0.65239500  0.86650600  1
  B  B13  1  0.07485700  0.72615100  0.69257800  1
  B  B14  1  0.91202400  0.58577400  0.78178800  1
  B  B15  1  0.03557100  0.48023600  0.03874400  1
  B  B16  1  0.27384900  0.92514300  0.80742200  1
  B  B17  1  0.15895700  0.54892200  0.16299000  1
  B  B18  1  0.72615100  0.07485700  0.19257800  1
  B  B19  1  0.62989400  0.22668400  0.46978700  1
  B  B20  1  0.34760500  0.04325100  0.63349400  1
  B  B21  1  0.84104300  0.45107800  0.83701000  1
  B  B22  1  0.12688900  0.76826100  0.77549100  1
  B  B23  1  0.58577400  0.91202400  0.28178800  1
  B  B24  1  0.77331600  0.37010600  0.03021300  1
  B  B25  1  0.78346100  0.15945000  0.93412400  1
  B  B26  1  0.92514300  0.27384900  0.30742200  1
  B  B27  1  0.41422600  0.08797600  0.71821200  1
  B  B28  1  0.22120500  0.96178300  0.62327400  1
  B  B29  1  0.15945000  0.78346100  0.43412400  1
  B  B30  1  0.96442900  0.51976400  0.96125600  1
  B  B31  1  0.87311100  0.23173900  0.22450900  1
  B  B32  1  0.84055000  0.21653900  0.56587600  1
  B  B33  1  0.12555900  0.58109000  0.05885800  1
  B  B34  1  0.04325100  0.34760500  0.13349400  1
  B  B35  1  0.77879500  0.03821700  0.37672600  1
  B  B36  1  0.37010600  0.77331600  0.53021300  1
  B  B37  1  0.58109000  0.12555900  0.55885800  1
  B  B38  1  0.22668400  0.62989400  0.96978700  1
  B  B39  1  0.87444100  0.41891000  0.94114200  1
  O  O0  1  0.19505800  0.61034200  0.74734700  1
  O  O1  1  0.38965800  0.80494200  0.75265300  1
  O  O2  1  0.24689200  0.21169800  0.58117200  1
  O  O3  1  0.66564700  0.72906300  0.63472600  1
  O  O4  1  0.13941500  0.14544000  0.63540500  1
  O  O5  1  0.44123900  0.68244600  0.02057900  1
  O  O6  1  0.26817400  0.97098500  0.29805900  1
  O  O7  1  0.80540200  0.09131800  0.77418000  1
  O  O8  1  0.59359600  0.19009000  0.42791700  1
  O  O9  1  0.24396400  0.96721000  0.48398400  1
  O  O10  1  0.96721000  0.24396400  0.98398400  1
  O  O11  1  0.34147000  0.21432100  0.48566300  1
  O  O12  1  0.13016700  0.77730300  0.65998400  1
  O  O13  1  0.30810000  0.08980600  0.44438400  1
  O  O14  1  0.91522200  0.20626200  0.61124700  1
  O  O15  1  0.55909300  0.74448500  0.94430700  1
  O  O16  1  0.65853000  0.78567900  0.51433700  1
  O  O17  1  0.02901500  0.73182600  0.20194100  1
  O  O18  1  0.38235800  0.74838200  0.66862500  1
  O  O19  1  0.22008800  0.20559900  0.68601200  1
  O  O20  1  0.21432100  0.34147000  0.98566300  1
  O  O21  1  0.44090700  0.25551500  0.05569300  1
  O  O22  1  0.32689600  0.21838100  0.25482000  1
  O  O23  1  0.69190000  0.91019400  0.55561600  1
  O  O24  1  0.90868200  0.19459800  0.72582000  1
  O  O25  1  0.21838100  0.32689600  0.75482000  1
  O  O26  1  0.78161900  0.67310400  0.24518000  1
  O  O27  1  0.33968900  0.70599800  0.41318700  1
  O  O28  1  0.74838200  0.38235800  0.16862500  1
  O  O29  1  0.75310800  0.78830200  0.41882800  1
  O  O30  1  0.70599800  0.33968900  0.91318700  1
  O  O31  1  0.75603600  0.03279000  0.51601600  1
  O  O32  1  0.70727500  0.03403500  0.60928200  1
  O  O33  1  0.19459800  0.90868200  0.22582000  1
  O  O34  1  0.20559900  0.22008800  0.18601200  1
  O  O35  1  0.33435300  0.27093700  0.36527400  1
  O  O36  1  0.80991000  0.40640400  0.07208300  1
  O  O37  1  0.80494200  0.38965800  0.25265300  1
  O  O38  1  0.61764200  0.25161800  0.33137500  1
  O  O39  1  0.78830200  0.75310800  0.91882800  1
  O  O40  1  0.09752800  0.85624800  0.95588600  1
  O  O41  1  0.90247200  0.14375200  0.04411400  1
  O  O42  1  0.50298300  0.22316900  0.16385800  1
  O  O43  1  0.96596500  0.29272500  0.89071800  1
  O  O44  1  0.67576000  0.32424000  0.25000000  1
  O  O45  1  0.03403500  0.70727500  0.10928200  1
  O  O46  1  0.85456000  0.86058500  0.86459500  1
  O  O47  1  0.77991200  0.79440100  0.31398800  1
  O  O48  1  0.61034200  0.19505800  0.24734700  1
  O  O49  1  0.74448500  0.55909300  0.44430700  1
  O  O50  1  0.55876100  0.31755400  0.97942100  1
  O  O51  1  0.77683100  0.49701700  0.33614200  1
  O  O52  1  0.77730300  0.13016700  0.15998400  1
  O  O53  1  0.31755400  0.55876100  0.47942100  1
  O  O54  1  0.72906300  0.66564700  0.13472600  1
  O  O55  1  0.66031100  0.29400200  0.58681300  1
  O  O56  1  0.27093700  0.33435300  0.86527400  1
  O  O57  1  0.20626200  0.91522200  0.11124700  1
  O  O58  1  0.79440100  0.77991200  0.81398800  1
  O  O59  1  0.40640400  0.80991000  0.57208300  1
  O  O60  1  0.86983300  0.22269700  0.34001600  1
  O  O61  1  0.67310400  0.78161900  0.74518000  1
  O  O62  1  0.29272500  0.96596500  0.39071800  1
  O  O63  1  0.22316900  0.50298300  0.66385800  1
  O  O64  1  0.95122000  0.45884500  0.82784900  1
  O  O65  1  0.91019400  0.69190000  0.05561600  1
  O  O66  1  0.19009000  0.59359600  0.92791700  1
  O  O67  1  0.14544000  0.13941500  0.13540500  1
  O  O68  1  0.04878000  0.54115500  0.17215100  1
  O  O69  1  0.73182600  0.02901500  0.70194100  1
  O  O70  1  0.49701700  0.77683100  0.83614200  1
  O  O71  1  0.25161800  0.61764200  0.83137500  1
  O  O72  1  0.08477800  0.79373800  0.38875300  1
  O  O73  1  0.21169800  0.24689200  0.08117200  1
  O  O74  1  0.25551500  0.44090700  0.55569300  1
  O  O75  1  0.09131800  0.80540200  0.27418000  1
  O  O76  1  0.29400200  0.66031100  0.08681300  1
  O  O77  1  0.45884500  0.95122000  0.32784900  1
  O  O78  1  0.79373800  0.08477800  0.88875300  1
  O  O79  1  0.08980600  0.30810000  0.94438400  1
  O  O80  1  0.54115500  0.04878000  0.67215100  1
  O  O81  1  0.14375200  0.90247200  0.54411400  1
  O  O82  1  0.22269700  0.86983300  0.84001600  1
  O  O83  1  0.03279000  0.75603600  0.01601600  1
  O  O84  1  0.68244600  0.44123900  0.52057900  1
  O  O85  1  0.86058500  0.85456000  0.36459500  1
  O  O86  1  0.32424000  0.67576000  0.75000000  1
  O  O87  1  0.78567900  0.65853000  0.01433700  1
  O  O88  1  0.97098500  0.26817400  0.79805900  1
  O  O89  1  0.85624800  0.09752800  0.45588600  1
loop_
_geom_bond_atom_site_label_1
_geom_bond_atom_site_label_2
_geom_bond_distance
_geom_bond_site_symmetry_2
Ho0 O65 2.272762 1_555
Ho0 O68 2.333615 1_655
Ho0 O21 2.386284 1_565
Ho0 O42 2.402944 1_565
Ho0 O73 2.413233 1_565
Ho0 O54 2.415032 1_555
Ho0 O34 2.485944 1_565
Ho0 O68 2.655029 1_565
Ho0 O45 2.694533 1_655
Ho1 O11 2.264444 1_555
Ho1 O8 2.428219 1_555
Ho1 O74 2.464918 1_555
Ho1 O53 2.499335 1_555
Ho1 O31 2.561424 1_465
Ho1 O85 2.600347 1_455
Ho1 O29 2.610797 1_455
Ho1 O8 2.689739 1_465
Ho1 O72 2.724773 1_555
Ho1 O23 2.862942 1_455
Ho1 O35 3.108535 1_555
Ho2 O24 2.291030 1_555
Ho2 O55 2.356055 1_555
Ho2 O14 2.397746 1_555
Ho2 O86 2.398137 1_555
Ho2 O12 2.425972 1_555
Ho2 O18 2.468125 1_555
Ho2 O12 2.476945 1_645
Ho2 O7 2.555336 1_555
Ho2 O69 2.805880 1_555
Ho3 O7 2.291030 1_555
Ho3 O30 2.356055 1_555
Ho3 O78 2.397746 1_555
Ho3 O86 2.398137 1_555
Ho3 O82 2.425972 1_555
Ho3 O71 2.468125 1_555
Ho3 O82 2.476945 1_645
Ho3 O24 2.555336 1_555
Ho3 O88 2.805880 1_555
Ho4 O33 2.291030 1_555
Ho4 O76 2.356055 1_555
Ho4 O57 2.397746 1_555
Ho4 O44 2.398137 1_555
Ho4 O52 2.425972 1_555
Ho4 O28 2.468125 1_555
Ho4 O52 2.476945 1_465
Ho4 O75 2.555336 1_555
Ho4 O17 2.805880 1_555
Ho5 O37 2.221584 1_555
Ho5 O67 2.275869 1_565
Ho5 O54 2.294025 1_555
Ho5 O34 2.321849 1_565
Ho5 O33 2.354241 1_555
Ho5 O6 2.360980 1_555
Ho5 O26 2.726539 1_555
Ho5 O28 2.776241 1_555
Ho6 O41 2.252482 1_555
Ho6 O52 2.299979 1_555
Ho6 O45 2.365472 1_645
Ho6 O76 2.413913 1_555
Ho6 O83 2.424938 1_645
Ho6 O50 2.442622 1_554
Ho6 O21 2.466529 1_555
Ho6 O76 2.593568 1_645
Ho6 O42 2.726510 1_555
Ho7 O16 2.264444 1_555
Ho7 O59 2.428219 1_555
Ho7 O49 2.464918 1_555
Ho7 O84 2.499335 1_555
Ho7 O9 2.561424 1_645
Ho7 O4 2.600347 1_655
Ho7 O2 2.610797 1_655
Ho7 O59 2.689739 1_645
Ho7 O14 2.724773 1_555
Ho7 O13 2.862942 1_655
Ho7 O3 3.108535 1_555
Ho8 O89 2.252482 1_555
Ho8 O60 2.299979 1_555
Ho8 O62 2.365472 1_645
Ho8 O27 2.413913 1_555
Ho8 O9 2.424938 1_645
Ho8 O84 2.442622 1_555
Ho8 O49 2.466529 1_555
Ho8 O27 2.593568 1_645
Ho8 O51 2.726510 1_555
Ho9 O40 2.252482 1_555
Ho9 O82 2.299979 1_555
Ho9 O43 2.365472 1_465
Ho9 O30 2.413913 1_555
Ho9 O10 2.424938 1_465
Ho9 O5 2.442622 1_556
Ho9 O15 2.466529 1_555
Ho9 O30 2.593568 1_465
Ho9 O70 2.726510 1_555
Ho10 O1 2.221584 1_555
Ho10 O4 2.275869 1_655
Ho10 O3 2.294025 1_555
Ho10 O19 2.321849 1_655
Ho10 O24 2.354241 1_555
Ho10 O88 2.360980 1_555
Ho10 O61 2.726539 1_555
Ho10 O18 2.776241 1_555
Ho11 O0 2.221584 1_555
Ho11 O46 2.275869 1_545
Ho11 O56 2.294025 1_555
Ho11 O58 2.321849 1_545
Ho11 O7 2.354241 1_555
Ho11 O69 2.360980 1_555
Ho11 O25 2.726539 1_555
Ho11 O71 2.776241 1_555
Ho12 O75 2.291030 1_555
Ho12 O27 2.356055 1_555
Ho12 O72 2.397746 1_555
Ho12 O44 2.398137 1_555
Ho12 O60 2.425972 1_555
Ho12 O38 2.468125 1_555
Ho12 O60 2.476945 1_465
Ho12 O33 2.555336 1_555
Ho12 O6 2.805880 1_555
Ho13 O79 2.272762 1_555
Ho13 O64 2.333615 1_455
Ho13 O15 2.386284 1_545
Ho13 O70 2.402944 1_545
Ho13 O39 2.413233 1_545
Ho13 O56 2.415032 1_555
Ho13 O58 2.485944 1_545
Ho13 O64 2.655029 1_545
Ho13 O43 2.694533 1_455
Ho14 O87 2.264444 1_555
Ho14 O36 2.428219 1_555
Ho14 O15 2.464918 1_554
Ho14 O5 2.499335 1_555
Ho14 O10 2.561424 1_464
Ho14 O67 2.600347 1_565
Ho14 O73 2.610797 1_565
Ho14 O36 2.689739 1_465
Ho14 O57 2.724773 1_555
Ho14 O79 2.862942 1_564
Ho14 O54 3.108535 1_555
Ho15 O81 2.252482 1_555
Ho15 O12 2.299979 1_555
Ho15 O32 2.365472 1_465
Ho15 O55 2.413913 1_555
Ho15 O31 2.424938 1_465
Ho15 O53 2.442622 1_555
Ho15 O74 2.466529 1_555
Ho15 O55 2.593568 1_465
Ho15 O63 2.726510 1_555
Ho16 O13 2.272762 1_555
Ho16 O77 2.333615 1_545
Ho16 O49 2.386284 1_455
Ho16 O51 2.402944 1_455
Ho16 O29 2.413233 1_455
Ho16 O35 2.415032 1_555
Ho16 O47 2.485944 1_455
Ho16 O77 2.655029 1_455
Ho16 O62 2.694533 1_545
Ho17 O48 2.221584 1_555
Ho17 O85 2.275869 1_455
Ho17 O35 2.294025 1_555
Ho17 O47 2.321849 1_455
Ho17 O75 2.354241 1_555
Ho17 O17 2.360980 1_555
Ho17 O22 2.726539 1_555
Ho17 O38 2.776241 1_555
Ho18 O23 2.272762 1_555
Ho18 O80 2.333615 1_565
Ho18 O74 2.386284 1_655
Ho18 O63 2.402944 1_655
Ho18 O2 2.413233 1_655
Ho18 O3 2.415032 1_555
Ho18 O19 2.485944 1_655
Ho18 O80 2.655029 1_655
Ho18 O32 2.694533 1_565
Ho19 O20 2.264444 1_555
Ho19 O66 2.428219 1_555
Ho19 O21 2.464918 1_556
Ho19 O50 2.499335 1_555
Ho19 O83 2.561424 1_646
Ho19 O46 2.600347 1_545
Ho19 O39 2.610797 1_545
Ho19 O66 2.689739 1_645
Ho19 O78 2.724773 1_555
Ho19 O65 2.862942 1_546
Ho19 O56 3.108535 1_555
B0 O22 1.490425 1_555
B0 O26 1.493253 1_455
B0 O68 1.495467 1_555
B0 O34 1.522763 1_555
B1 O23 1.440729 1_545
B1 O2 1.480486 1_555
B1 O11 1.504430 1_555
B1 O16 1.507121 1_545
B2 O35 1.398012 1_565
B2 O85 1.496707 1_555
B2 O29 1.548025 1_555
B2 O47 1.585537 1_555
B3 O76 1.429688 1_555
B3 O41 1.482495 1_465
B3 O57 1.513758 1_555
B3 O5 1.538063 1_555
B4 O71 1.461889 1_555
B4 O66 1.473487 1_555
B4 O46 1.490923 1_455
B4 O78 1.500547 1_465
B5 O28 1.461889 1_555
B5 O36 1.473487 1_555
B5 O67 1.490923 1_655
B5 O57 1.500547 1_645
B6 O75 1.424279 1_645
B6 O38 1.502189 1_555
B6 O44 1.507609 1_555
B6 O48 1.516374 1_555
B7 O6 1.445906 1_555
B7 O62 1.470874 1_555
B7 O77 1.483682 1_555
B7 O51 1.498191 1_555
B8 O49 1.425141 1_555
B8 O9 1.476592 1_555
B8 O62 1.480099 1_555
B8 O13 1.517895 1_565
B9 O24 1.424279 1_465
B9 O18 1.502189 1_555
B9 O86 1.507609 1_555
B9 O1 1.516374 1_555
B10 O13 1.440729 1_565
B10 O29 1.480486 1_555
B10 O16 1.504430 1_555
B10 O11 1.507121 1_565
B11 O69 1.445906 1_555
B11 O32 1.470874 1_555
B11 O80 1.483682 1_555
B11 O63 1.498191 1_555
B12 O56 1.398012 1_655
B12 O46 1.496707 1_555
B12 O39 1.548025 1_555
B12 O58 1.585537 1_555
B13 O12 1.444395 1_555
B13 O0 1.470424 1_555
B13 O69 1.518627 1_465
B13 O63 1.520580 1_555
B14 O61 1.490425 1_555
B14 O25 1.493253 1_655
B14 O64 1.495467 1_555
B14 O58 1.522763 1_555
B15 O65 1.440729 1_455
B15 O73 1.480486 1_555
B15 O20 1.504430 1_554
B15 O87 1.507121 1_455
B16 O82 1.444395 1_555
B16 O1 1.470424 1_555
B16 O88 1.518627 1_465
B16 O70 1.520580 1_555
B17 O17 1.445906 1_555
B17 O45 1.470874 1_555
B17 O68 1.483682 1_555
B17 O42 1.498191 1_555
B18 O52 1.444395 1_555
B18 O48 1.470424 1_555
B18 O17 1.518627 1_645
B18 O42 1.520580 1_555
B19 O89 1.447148 1_555
B19 O53 1.472042 1_555
B19 O31 1.488428 1_555
B19 O8 1.505584 1_555
B20 O3 1.398012 1_545
B20 O4 1.496707 1_555
B20 O2 1.548025 1_555
B20 O19 1.585537 1_555
B21 O88 1.445906 1_555
B21 O43 1.470874 1_555
B21 O64 1.483682 1_555
B21 O70 1.498191 1_555
B22 O7 1.424279 1_465
B22 O71 1.502189 1_555
B22 O86 1.507609 1_555
B22 O0 1.516374 1_555
B23 O26 1.490425 1_555
B23 O22 1.493253 1_565
B23 O77 1.495467 1_555
B23 O47 1.522763 1_555
B24 O41 1.447148 1_555
B24 O5 1.472042 1_555
B24 O10 1.488428 1_554
B24 O36 1.505584 1_555
B25 O30 1.429688 1_555
B25 O40 1.482495 1_645
B25 O78 1.513758 1_555
B25 O50 1.538063 1_555
B26 O60 1.444395 1_555
B26 O37 1.470424 1_555
B26 O6 1.518627 1_645
B26 O51 1.520580 1_555
B27 O25 1.490425 1_555
B27 O61 1.493253 1_545
B27 O80 1.495467 1_555
B27 O19 1.522763 1_555
B28 O18 1.461889 1_555
B28 O59 1.473487 1_555
B28 O4 1.490923 1_565
B28 O14 1.500547 1_465
B29 O27 1.429688 1_555
B29 O89 1.482495 1_465
B29 O72 1.513758 1_555
B29 O53 1.538063 1_555
B30 O79 1.440729 1_655
B30 O39 1.480486 1_555
B30 O87 1.504430 1_556
B30 O20 1.507121 1_655
B31 O33 1.424279 1_645
B31 O28 1.502189 1_555
B31 O44 1.507609 1_555
B31 O37 1.516374 1_555
B32 O55 1.429688 1_555
B32 O81 1.482495 1_645
B32 O14 1.513758 1_555
B32 O84 1.538063 1_555
B33 O21 1.425141 1_555
B33 O83 1.476592 1_555
B33 O45 1.480099 1_555
B33 O65 1.517895 1_455
B34 O54 1.398012 1_455
B34 O67 1.496707 1_555
B34 O73 1.548025 1_555
B34 O34 1.585537 1_555
B35 O38 1.461889 1_555
B35 O8 1.473487 1_555
B35 O85 1.490923 1_545
B35 O72 1.500547 1_645
B36 O81 1.447148 1_555
B36 O84 1.472042 1_555
B36 O9 1.488428 1_555
B36 O59 1.505584 1_555
B37 O74 1.425141 1_555
B37 O31 1.476592 1_555
B37 O32 1.480099 1_555
B37 O23 1.517895 1_545
B38 O40 1.447148 1_555
B38 O50 1.472042 1_555
B38 O83 1.488428 1_556
B38 O66 1.505584 1_555
B39 O15 1.425141 1_555
B39 O10 1.476592 1_555
B39 O43 1.480099 1_555
B39 O79 1.517895 1_655
