# generated using pymatgen
data_SiO2
_symmetry_space_group_name_H-M   'P 1'
_cell_length_a   8.79860408
_cell_length_b   8.79860408
_cell_length_c   19.22255767
_cell_angle_alpha   90.00000000
_cell_angle_beta   90.00000000
_cell_angle_gamma   117.30194267
_symmetry_Int_Tables_number   1
_chemical_formula_structural   SiO2
_chemical_formula_sum   'Si24 O48'
_cell_volume   1322.34827878
_cell_formula_units_Z   24
loop_
 _symmetry_equiv_pos_site_id
 _symmetry_equiv_pos_as_xyz
  1  'x, y, z'
loop_
 _atom_site_type_symbol
 _atom_site_label
 _atom_site_symmetry_multiplicity
 _atom_site_fract_x
 _atom_site_fract_y
 _atom_site_fract_z
 _atom_site_occupancy
  Si  Si0  1  0.31698606  0.03250283  0.32168697  1
  Si  Si1  1  0.03250283  0.31698606  0.67831303  1
  Si  Si2  1  0.46749717  0.18301394  0.17831303  1
  Si  Si3  1  0.18301394  0.46749717  0.82168697  1
  Si  Si4  1  0.68301394  0.96749717  0.67831303  1
  Si  Si5  1  0.96749717  0.68301394  0.32168697  1
  Si  Si6  1  0.53250283  0.81698606  0.82168697  1
  Si  Si7  1  0.81698606  0.53250283  0.17831303  1
  Si  Si8  1  0.17500397  0.16760363  0.08182627  1
  Si  Si9  1  0.16760363  0.17500397  0.91817373  1
  Si  Si10  1  0.33239637  0.32499603  0.41817373  1
  Si  Si11  1  0.32499603  0.33239637  0.58182627  1
  Si  Si12  1  0.82499603  0.83239637  0.91817373  1
  Si  Si13  1  0.83239637  0.82499603  0.08182627  1
  Si  Si14  1  0.66760363  0.67500397  0.58182627  1
  Si  Si15  1  0.67500397  0.66760363  0.41817373  1
  Si  Si16  1  0.17250810  0.48211051  0.32019309  1
  Si  Si17  1  0.48211051  0.17250810  0.67980691  1
  Si  Si18  1  0.01788949  0.32749190  0.17980691  1
  Si  Si19  1  0.32749190  0.01788949  0.82019309  1
  Si  Si20  1  0.82749190  0.51788949  0.67980691  1
  Si  Si21  1  0.51788949  0.82749190  0.32019309  1
  Si  Si22  1  0.98211051  0.67250810  0.82019309  1
  Si  Si23  1  0.67250810  0.98211051  0.17980691  1
  O  O0  1  0.35968790  0.14031210  0.25000000  1
  O  O1  1  0.14031210  0.35968790  0.75000000  1
  O  O2  1  0.64031210  0.85968790  0.75000000  1
  O  O3  1  0.85968790  0.64031210  0.25000000  1
  O  O4  1  0.13416496  0.86583504  0.31487951  1
  O  O5  1  0.86583504  0.13416496  0.68512049  1
  O  O6  1  0.63416496  0.36583504  0.18512049  1
  O  O7  1  0.36583504  0.63416496  0.81487951  1
  O  O8  1  0.46550734  0.97693653  0.33739408  1
  O  O9  1  0.97693553  0.46550734  0.66260592  1
  O  O10  1  0.52306447  0.03449266  0.16260592  1
  O  O11  1  0.03449266  0.52306447  0.83739408  1
  O  O12  1  0.53449266  0.02306447  0.66260592  1
  O  O13  1  0.02306447  0.53449266  0.33739408  1
  O  O14  1  0.47693553  0.96550734  0.83739408  1
  O  O15  1  0.96550734  0.47693553  0.16260592  1
  O  O16  1  0.31303630  0.14983715  0.38474384  1
  O  O17  1  0.14983715  0.31303630  0.61525616  1
  O  O18  1  0.35016285  0.18696370  0.11525616  1
  O  O19  1  0.18696370  0.35016285  0.88474384  1
  O  O20  1  0.68696370  0.85016285  0.61525616  1
  O  O21  1  0.85016285  0.68696370  0.38474384  1
  O  O22  1  0.64983715  0.81303630  0.88474384  1
  O  O23  1  0.81303630  0.64983715  0.11525616  1
  O  O24  1  0.12460493  0.30663960  0.11575667  1
  O  O25  1  0.30663960  0.12460493  0.88424333  1
  O  O26  1  0.19336040  0.37539507  0.38424333  1
  O  O27  1  0.37539507  0.19336040  0.61575667  1
  O  O28  1  0.87539507  0.69336040  0.88424333  1
  O  O29  1  0.69336040  0.87539507  0.11575667  1
  O  O30  1  0.80663960  0.62460493  0.61575667  1
  O  O31  1  0.62460493  0.80663960  0.38424333  1
  O  O32  1  0.20418365  0.20418365  0.00000000  1
  O  O33  1  0.29581635  0.29581635  0.50000000  1
  O  O34  1  0.79581635  0.79581635  0.00000000  1
  O  O35  1  0.70418365  0.70418365  0.50000000  1
  O  O36  1  0.02386049  0.97613951  0.09565676  1
  O  O37  1  0.97613951  0.02386049  0.90434324  1
  O  O38  1  0.52386049  0.47613951  0.40434324  1
  O  O39  1  0.47613951  0.52386049  0.59565676  1
  O  O40  1  0.12974587  0.37025413  0.25000000  1
  O  O41  1  0.37025413  0.12974587  0.75000000  1
  O  O42  1  0.87025413  0.62974587  0.75000000  1
  O  O43  1  0.62974587  0.87025413  0.25000000  1
  O  O44  1  0.34828595  0.65171405  0.30731035  1
  O  O45  1  0.65171405  0.34828595  0.69268965  1
  O  O46  1  0.84828595  0.15171405  0.19268965  1
  O  O47  1  0.15171405  0.84828595  0.80731035  1
loop_
_geom_bond_atom_site_label_1
_geom_bond_atom_site_label_2
_geom_bond_distance
_geom_bond_site_symmetry_2
O0 Si2 1.616450 1_555
O0 Si0 1.616450 1_555
O1 Si1 1.616450 1_555
O1 Si3 1.616450 1_555
O2 Si6 1.616450 1_555
O2 Si4 1.616450 1_555
O3 Si7 1.616450 1_555
O3 Si5 1.616450 1_555
O4 Si5 1.609702 1_455
O4 Si0 1.609702 1_565
O5 Si4 1.609702 1_545
O5 Si1 1.609702 1_655
O6 Si2 1.609702 1_555
O6 Si7 1.609702 1_555
O7 Si3 1.609702 1_555
O7 Si6 1.609702 1_555
O8 Si21 1.614516 1_555
O8 Si0 1.619864 1_565
O9 Si20 1.614508 1_555
O9 Si1 1.619870 1_655
O10 Si23 1.614508 1_545
O10 Si2 1.619870 1_555
O11 Si22 1.614508 1_455
O11 Si3 1.619870 1_555
O12 Si17 1.614508 1_555
O12 Si4 1.619870 1_545
O13 Si16 1.614508 1_555
O13 Si5 1.619870 1_455
O14 Si19 1.614508 1_565
O14 Si6 1.619870 1_555
O15 Si18 1.614508 1_655
O15 Si7 1.619870 1_555
O16 Si0 1.602856 1_555
O16 Si10 1.605082 1_555
O17 Si1 1.602856 1_555
O17 Si11 1.605082 1_555
O18 Si2 1.602856 1_555
O18 Si8 1.605082 1_555
O19 Si3 1.602856 1_555
O19 Si9 1.605082 1_555
O20 Si4 1.602856 1_555
O20 Si14 1.605082 1_555
O21 Si5 1.602856 1_555
O21 Si15 1.605082 1_555
O22 Si6 1.602856 1_555
O22 Si12 1.605082 1_555
O23 Si7 1.602856 1_555
O23 Si13 1.605082 1_555
O24 Si18 1.609097 1_555
O24 Si8 1.617468 1_555
O25 Si19 1.609097 1_555
O25 Si9 1.617468 1_555
O26 Si16 1.609097 1_555
O26 Si10 1.617468 1_555
O27 Si17 1.609097 1_555
O27 Si11 1.617468 1_555
O28 Si22 1.609097 1_555
O28 Si12 1.617468 1_555
O29 Si23 1.609097 1_555
O29 Si13 1.617468 1_555
O30 Si20 1.609097 1_555
O30 Si14 1.617468 1_555
O31 Si21 1.609097 1_555
O31 Si15 1.617468 1_555
O32 Si9 1.602419 1_554
O32 Si8 1.602419 1_555
O33 Si11 1.602419 1_555
O33 Si10 1.602419 1_555
O34 Si12 1.602419 1_554
O34 Si13 1.602419 1_555
O35 Si14 1.602419 1_555
O35 Si15 1.602419 1_555
O36 Si8 1.619249 1_565
O36 Si13 1.619249 1_455
O37 Si9 1.619249 1_655
O37 Si12 1.619249 1_545
O38 Si10 1.619249 1_555
O38 Si15 1.619249 1_555
O39 Si11 1.619249 1_555
O39 Si14 1.619249 1_555
O40 Si18 1.609678 1_555
O40 Si16 1.609678 1_555
O41 Si17 1.609678 1_555
O41 Si19 1.609678 1_555
O42 Si20 1.609678 1_555
O42 Si22 1.609678 1_555
O43 Si23 1.609678 1_555
O43 Si21 1.609678 1_555
O44 Si21 1.600924 1_555
O44 Si16 1.600924 1_555
O45 Si20 1.600924 1_555
O45 Si17 1.600924 1_555
O46 Si18 1.600924 1_655
O46 Si23 1.600924 1_545
O47 Si19 1.600924 1_565
O47 Si22 1.600924 1_455
