# generated using pymatgen
data_Na2ZnSi3O8
_symmetry_space_group_name_H-M   'P 1'
_cell_length_a   8.74969700
_cell_length_b   6.48052800
_cell_length_c   6.76923621
_cell_angle_alpha   76.42462153
_cell_angle_beta   90.00000000
_cell_angle_gamma   90.00000000
_symmetry_Int_Tables_number   1
_chemical_formula_structural   Na2ZnSi3O8
_chemical_formula_sum   'Na4 Zn2 Si6 O16'
_cell_volume   373.11011332
_cell_formula_units_Z   2
loop_
 _symmetry_equiv_pos_site_id
 _symmetry_equiv_pos_as_xyz
  1  'x, y, z'
loop_
 _atom_site_type_symbol
 _atom_site_label
 _atom_site_symmetry_multiplicity
 _atom_site_fract_x
 _atom_site_fract_y
 _atom_site_fract_z
 _atom_site_occupancy
  Na  Na0  1  0.63346400  0.40819800  0.47085300  1
  Na  Na1  1  0.13346400  0.59180200  0.52914700  1
  Na  Na2  1  0.19059000  0.16885300  0.22061300  1
  Na  Na3  1  0.69059000  0.83114700  0.77938700  1
  Zn  Zn0  1  0.50211100  0.96311400  0.38899700  1
  Zn  Zn1  1  0.00211100  0.03688600  0.61100300  1
  Si  Si0  1  0.31414100  0.75023400  0.09998600  1
  Si  Si1  1  0.81414100  0.24976600  0.90001400  1
  Si  Si2  1  0.99652800  0.59427200  0.01143000  1
  Si  Si3  1  0.49652800  0.40572800  0.98857000  1
  Si  Si4  1  0.83229600  0.85561600  0.26768000  1
  Si  Si5  1  0.33229600  0.14438400  0.73232000  1
  O  O0  1  0.17115600  0.57946600  0.10905300  1
  O  O1  1  0.67115600  0.42053400  0.89094700  1
  O  O2  1  0.33757100  0.78254300  0.32633700  1
  O  O3  1  0.83757100  0.21745700  0.67366300  1
  O  O4  1  0.76900200  0.02440300  0.05736800  1
  O  O5  1  0.26900200  0.97559700  0.94263200  1
  O  O6  1  0.98541700  0.94091800  0.35536800  1
  O  O7  1  0.48541700  0.05908200  0.64463200  1
  O  O8  1  0.69079700  0.79188700  0.42554700  1
  O  O9  1  0.19079700  0.20811300  0.57445300  1
  O  O10  1  0.48013400  0.24942300  0.20813200  1
  O  O11  1  0.98013400  0.75057700  0.79186800  1
  O  O12  1  0.37750000  0.36167000  0.81386300  1
  O  O13  1  0.87750000  0.63833000  0.18613700  1
  O  O14  1  0.46458300  0.65305700  0.00483700  1
  O  O15  1  0.96458300  0.34694300  0.99516300  1
loop_
_geom_bond_atom_site_label_1
_geom_bond_atom_site_label_2
_geom_bond_distance
_geom_bond_site_symmetry_2
Na0 O3 2.409441 1_555
Na0 O8 2.484036 1_555
Na0 O10 2.623055 1_555
Na0 O7 2.632693 1_555
Na0 O1 2.882464 1_555
Na0 O13 3.024669 1_555
Na1 O2 2.409441 1_555
Na1 O9 2.484036 1_555
Na1 O11 2.623055 1_455
Na1 O6 2.632693 1_455
Na1 O0 2.882464 1_555
Na1 O12 3.024669 1_555
Na2 O6 2.367325 1_445
Na2 O9 2.467373 1_555
Na2 O10 2.584044 1_555
Na2 O5 2.585811 1_544
Na2 O0 2.595516 1_555
Na2 O15 2.597050 1_454
Na2 O2 2.755441 1_545
Na3 O7 2.367325 1_565
Na3 O8 2.467373 1_555
Na3 O11 2.584044 1_555
Na3 O4 2.585811 1_566
Na3 O1 2.595516 1_555
Na3 O14 2.597050 1_556
Na3 O3 2.755441 1_565
O0 Si2 1.658538 1_455
O0 Si0 1.661861 1_555
O1 Si3 1.658538 1_555
O1 Si1 1.661861 1_555
O2 Si0 1.607539 1_555
O2 Zn0 1.963401 1_555
O3 Si1 1.607539 1_555
O3 Zn1 1.963401 1_655
O4 Si1 1.641112 1_554
O4 Si4 1.672992 1_545
O5 Si0 1.641112 1_556
O5 Si5 1.672992 1_565
O6 Si4 1.614600 1_555
O6 Zn1 1.976821 1_665
O7 Si5 1.614600 1_555
O7 Zn0 1.976821 1_545
O8 Si4 1.624252 1_555
O8 Zn0 1.972119 1_555
O9 Si5 1.624252 1_555
O9 Zn1 1.972119 1_555
O10 Si3 1.596514 1_554
O10 Zn0 1.977914 1_545
O11 Si2 1.596514 1_556
O11 Zn1 1.977914 1_665
O12 Si3 1.650241 1_555
O12 Si5 1.675957 1_555
O13 Si2 1.650241 1_555
O13 Si4 1.675957 1_555
O14 Si0 1.653651 1_555
O14 Si3 1.655943 1_554
O15 Si1 1.653651 1_555
O15 Si2 1.655943 1_556
