# generated using pymatgen
data_FeCu4Re14(Mo3S20)2
_symmetry_space_group_name_H-M   'P 1'
_cell_length_a   6.83017945
_cell_length_b   6.83017945
_cell_length_c   28.08326007
_cell_angle_alpha   83.18932620
_cell_angle_beta   83.18932620
_cell_angle_gamma   59.73603405
_symmetry_Int_Tables_number   1
_chemical_formula_structural   FeCu4Re14(Mo3S20)2
_chemical_formula_sum   'Fe1 Cu4 Re14 Mo6 S40'
_cell_volume   1120.93809173
_cell_formula_units_Z   1
loop_
 _symmetry_equiv_pos_site_id
 _symmetry_equiv_pos_as_xyz
  1  'x, y, z'
loop_
 _atom_site_type_symbol
 _atom_site_label
 _atom_site_symmetry_multiplicity
 _atom_site_fract_x
 _atom_site_fract_y
 _atom_site_fract_z
 _atom_site_occupancy
  Fe  Fe0  1  0.59995400  0.59995400  0.19979100  1
  Cu  Cu0  1  0.00045700  0.00045700  0.99985500  1
  Cu  Cu1  1  0.40032800  0.40032800  0.79999500  1
  Cu  Cu2  1  0.80025900  0.80025900  0.60004800  1
  Cu  Cu3  1  0.20035400  0.20035400  0.39993600  1
  Re  Re0  1  0.42885900  0.84533700  0.87917200  1
  Re  Re1  1  0.67873400  0.67873400  0.96246800  1
  Re  Re2  1  0.84533700  0.42885900  0.87917200  1
  Re  Re3  1  0.82875500  0.24529900  0.67929700  1
  Re  Re4  1  0.07869100  0.07869100  0.76253400  1
  Re  Re5  1  0.24529900  0.82875500  0.67929700  1
  Re  Re6  1  0.22889400  0.64526800  0.47929200  1
  Re  Re7  1  0.64526800  0.22889400  0.47929200  1
  Re  Re8  1  0.47869300  0.47869300  0.56256300  1
  Re  Re9  1  0.62998200  0.04451400  0.27963000  1
  Re  Re10  1  0.04451400  0.62998200  0.27963000  1
  Re  Re11  1  0.87866500  0.87866500  0.36267300  1
  Re  Re12  1  0.02926000  0.44539700  0.07872500  1
  Re  Re13  1  0.44539700  0.02926000  0.07872500  1
  Mo  Mo0  1  0.84451200  0.84451200  0.87930100  1
  Mo  Mo1  1  0.24445300  0.24445300  0.67944900  1
  Mo  Mo2  1  0.64440700  0.64440700  0.47942200  1
  Mo  Mo3  1  0.04381500  0.04381500  0.27966900  1
  Mo  Mo4  1  0.27925100  0.27925100  0.16140600  1
  Mo  Mo5  1  0.44445500  0.44445500  0.07891100  1
  S  S0  1  0.51140000  0.51140000  0.92691600  1
  S  S1  1  0.72560500  0.72560500  0.81891200  1
  S  S2  1  0.50877600  0.05082200  0.92728600  1
  S  S3  1  0.91143100  0.91143100  0.72697400  1
  S  S4  1  0.75266400  0.21383000  0.82652100  1
  S  S5  1  0.05082200  0.50877600  0.92728600  1
  S  S6  1  0.02936400  0.02936400  0.91878200  1
  S  S7  1  0.12554700  0.12554700  0.61908900  1
  S  S8  1  0.21383000  0.75266400  0.82652100  1
  S  S9  1  0.90876900  0.45074400  0.72734500  1
  S  S10  1  0.21000800  0.21000800  0.82705800  1
  S  S11  1  0.31153000  0.31153000  0.52698700  1
  S  S12  1  0.15280900  0.61367600  0.62665400  1
  S  S13  1  0.45074400  0.90876900  0.72734500  1
  S  S14  1  0.42932200  0.42932200  0.71890900  1
  S  S15  1  0.52551400  0.52551400  0.41909100  1
  S  S16  1  0.30885500  0.85051400  0.52736500  1
  S  S17  1  0.61367600  0.15280900  0.62665400  1
  S  S18  1  0.60983000  0.60983000  0.62721400  1
  S  S19  1  0.71137700  0.71137700  0.32718200  1
  S  S20  1  0.55265300  0.01380400  0.42662600  1
  S  S21  1  0.85051400  0.30885500  0.52736500  1
  S  S22  1  0.82932600  0.82932600  0.51891200  1
  S  S23  1  0.92531300  0.92531300  0.21908000  1
  S  S24  1  0.70887300  0.25043200  0.32755200  1
  S  S25  1  0.01380400  0.55265300  0.42662600  1
  S  S26  1  0.00995200  0.00995200  0.42719400  1
  S  S27  1  0.11084400  0.11084400  0.12601200  1
  S  S28  1  0.94993500  0.41513500  0.22763800  1
  S  S29  1  0.25043200  0.70887300  0.32755200  1
  S  S30  1  0.22940700  0.22940700  0.31845200  1
  S  S31  1  0.32550000  0.32550000  0.01870300  1
  S  S32  1  0.10839900  0.65256200  0.12650900  1
  S  S33  1  0.41513500  0.94993500  0.22763800  1
  S  S34  1  0.41017900  0.41017900  0.22846000  1
  S  S35  1  0.35300800  0.81359700  0.02658800  1
  S  S36  1  0.65256200  0.10839900  0.12650900  1
  S  S37  1  0.63029100  0.63029100  0.11850900  1
  S  S38  1  0.81359700  0.35300800  0.02658800  1
  S  S39  1  0.80980700  0.80980700  0.02714300  1
loop_
_geom_bond_atom_site_label_1
_geom_bond_atom_site_label_2
_geom_bond_distance
_geom_bond_site_symmetry_2
Fe0 S28 2.255417 1_555
Fe0 S33 2.255417 1_555
Fe0 S37 2.261711 1_555
Fe0 S34 2.281875 1_555
Cu0 S6 2.255618 1_555
Cu0 S35 2.257138 1_546
Cu0 S38 2.257138 1_456
Cu0 S39 2.283504 1_446
Cu1 S8 2.253687 1_555
Cu1 S4 2.253687 1_555
Cu1 S14 2.255993 1_555
Cu1 S10 2.278557 1_555
Cu2 S17 2.255759 1_565
Cu2 S12 2.255759 1_655
Cu2 S22 2.257394 1_555
Cu2 S18 2.280350 1_555
Cu3 S25 2.255276 1_555
Cu3 S20 2.255276 1_555
Cu3 S30 2.267053 1_555
Cu3 S26 2.280565 1_555
Re0 S0 2.340023 1_555
Re0 S1 2.341939 1_555
Re0 S2 2.343163 1_565
Re0 S6 2.533247 1_565
Re0 S8 2.533392 1_555
Re0 S10 2.545915 1_565
Re1 S0 2.338235 1_555
Re1 S2 2.342087 1_565
Re1 S5 2.342087 1_655
Re1 S38 2.533414 1_556
Re1 S35 2.533414 1_556
Re1 S39 2.545786 1_556
Re2 S0 2.340023 1_555
Re2 S1 2.341939 1_555
Re2 S5 2.343163 1_655
Re2 S6 2.533247 1_655
Re2 S4 2.533392 1_555
Re2 S10 2.545915 1_655
Re3 S3 2.338570 1_545
Re3 S7 2.341163 1_655
Re3 S9 2.342097 1_555
Re3 S17 2.532740 1_555
Re3 S14 2.532940 1_555
Re3 S18 2.544949 1_555
Re4 S3 2.337563 1_445
Re4 S13 2.341969 1_545
Re4 S9 2.341969 1_455
Re4 S8 2.532256 1_545
Re4 S4 2.532256 1_455
Re4 S10 2.544456 1_555
Re5 S3 2.338570 1_455
Re5 S7 2.341163 1_565
Re5 S13 2.342097 1_555
Re5 S12 2.532740 1_555
Re5 S14 2.532940 1_555
Re5 S18 2.544949 1_555
Re6 S11 2.338168 1_555
Re6 S15 2.340323 1_555
Re6 S16 2.341286 1_555
Re6 S22 2.533739 1_455
Re6 S25 2.533760 1_555
Re6 S26 2.545833 1_565
Re7 S11 2.338168 1_555
Re7 S15 2.340323 1_555
Re7 S21 2.341286 1_555
Re7 S22 2.533739 1_545
Re7 S20 2.533760 1_555
Re7 S26 2.545833 1_655
Re8 S11 2.336766 1_555
Re8 S21 2.340815 1_555
Re8 S16 2.340815 1_555
Re8 S12 2.533549 1_555
Re8 S17 2.533549 1_555
Re8 S18 2.545785 1_555
Re9 S19 2.334549 1_545
Re9 S24 2.337624 1_555
Re9 S23 2.341526 1_545
Re9 S33 2.527846 1_545
Re9 S30 2.530909 1_555
Re9 S34 2.537262 1_555
Re10 S19 2.334549 1_455
Re10 S29 2.337624 1_555
Re10 S23 2.341526 1_455
Re10 S28 2.527846 1_455
Re10 S30 2.530909 1_555
Re10 S34 2.537262 1_555
Re11 S19 2.336812 1_555
Re11 S24 2.339764 1_565
Re11 S29 2.339764 1_655
Re11 S20 2.531574 1_565
Re11 S25 2.531574 1_655
Re11 S26 2.544137 1_665
Re12 S31 2.335433 1_555
Re12 S27 2.338342 1_555
Re12 S32 2.342741 1_555
Re12 S38 2.525748 1_455
Re12 S37 2.532324 1_455
Re12 S39 2.537623 1_455
Re13 S31 2.335433 1_555
Re13 S27 2.338342 1_555
Re13 S36 2.342741 1_555
Re13 S35 2.525748 1_545
Re13 S37 2.532324 1_545
Re13 S39 2.537623 1_545
Mo0 S1 2.348095 1_555
Mo0 S2 2.349567 1_565
Mo0 S5 2.349567 1_655
Mo0 S6 2.586185 1_665
Mo0 S4 2.586946 1_565
Mo0 S8 2.586946 1_655
Mo1 S7 2.347431 1_555
Mo1 S9 2.348008 1_455
Mo1 S13 2.348008 1_545
Mo1 S14 2.586046 1_555
Mo1 S12 2.586894 1_555
Mo1 S17 2.586894 1_555
Mo2 S15 2.346669 1_555
Mo2 S21 2.347939 1_555
Mo2 S16 2.347939 1_555
Mo2 S22 2.587041 1_555
Mo2 S20 2.587704 1_565
Mo2 S25 2.587704 1_655
Mo3 S24 2.345142 1_455
Mo3 S29 2.345142 1_545
Mo3 S23 2.349270 1_445
Mo3 S30 2.583526 1_555
Mo3 S33 2.585064 1_545
Mo3 S28 2.585064 1_455
Mo4 S32 2.345846 1_555
Mo4 S36 2.345846 1_555
Mo4 S27 2.347361 1_555
Mo4 S33 2.587133 1_545
Mo4 S28 2.587133 1_455
Mo4 S34 2.598141 1_555
Mo5 S31 2.344406 1_555
Mo5 S36 2.347347 1_555
Mo5 S32 2.347347 1_555
Mo5 S38 2.580285 1_555
Mo5 S35 2.580285 1_555
Mo5 S37 2.598528 1_555
