# generated using pymatgen
data_GdSn3
_symmetry_space_group_name_H-M   'P 1'
_cell_length_a   11.69821390
_cell_length_b   11.69821390
_cell_length_c   4.67148000
_cell_angle_alpha   90.00000000
_cell_angle_beta   90.00000000
_cell_angle_gamma   158.07761587
_symmetry_Int_Tables_number   1
_chemical_formula_structural   GdSn3
_chemical_formula_sum   'Gd2 Sn6'
_cell_volume   238.67670988
_cell_formula_units_Z   2
loop_
 _symmetry_equiv_pos_site_id
 _symmetry_equiv_pos_as_xyz
  1  'x, y, z'
loop_
 _atom_site_type_symbol
 _atom_site_label
 _atom_site_symmetry_multiplicity
 _atom_site_fract_x
 _atom_site_fract_y
 _atom_site_fract_z
 _atom_site_occupancy
  Gd  Gd0  1  0.76931000  0.23069000  0.00000000  1
  Gd  Gd1  1  0.01020500  0.98979500  0.50000000  1
  Sn  Sn0  1  0.26430100  0.73569900  0.50000000  1
  Sn  Sn1  1  0.63580200  0.36419800  0.50000000  1
  Sn  Sn2  1  0.15357600  0.84642400  0.00000000  1
  Sn  Sn3  1  0.53374500  0.46625500  0.00000000  1
  Sn  Sn4  1  0.39449300  0.60550700  0.50000000  1
  Sn  Sn5  1  0.90826900  0.09173100  0.00000000  1
loop_
_geom_bond_atom_site_label_1
_geom_bond_atom_site_label_2
_geom_bond_distance
_geom_bond_site_symmetry_2
Gd0 Sn5 3.191831 1_555
Gd0 Sn0 3.227481 1_544
Gd0 Sn0 3.227481 1_655
Gd0 Sn0 3.227481 1_545
Gd0 Sn0 3.227481 1_654
Gd0 Sn2 3.466209 1_545
Gd0 Sn2 3.466209 1_655
Gd0 Sn1 3.854849 1_554
Gd0 Sn1 3.854849 1_555
Gd1 Sn3 3.270437 1_456
Gd1 Sn3 3.270437 1_455
Gd1 Sn3 3.270437 1_565
Gd1 Sn3 3.270437 1_566
Gd1 Sn5 3.307260 1_466
Gd1 Sn5 3.307260 1_465
Gd1 Sn4 3.465822 1_455
Gd1 Sn4 3.465822 1_565
Gd1 Sn1 3.642860 1_565
Gd1 Sn1 3.642860 1_455
Sn0 Sn4 2.990457 1_555
Sn1 Sn2 3.251165 1_546
Sn1 Sn2 3.251165 1_545
Sn1 Sn2 3.251165 1_655
Sn1 Sn2 3.251165 1_656
Sn1 Sn3 3.309228 1_556
Sn1 Sn3 3.309228 1_555
Sn4 Sn5 3.240914 1_566
Sn4 Sn5 3.240914 1_456
Sn4 Sn5 3.240914 1_455
Sn4 Sn5 3.240914 1_565
