# generated using pymatgen
data_La2Zr2O7
_symmetry_space_group_name_H-M   'P 1'
_cell_length_a   3.70019900
_cell_length_b   7.71053100
_cell_length_c   11.15363100
_cell_angle_alpha   90.00000000
_cell_angle_beta   90.00000000
_cell_angle_gamma   90.00000000
_symmetry_Int_Tables_number   1
_chemical_formula_structural   La2Zr2O7
_chemical_formula_sum   'La4 Zr4 O14'
_cell_volume   318.21865916
_cell_formula_units_Z   2
loop_
 _symmetry_equiv_pos_site_id
 _symmetry_equiv_pos_as_xyz
  1  'x, y, z'
loop_
 _atom_site_type_symbol
 _atom_site_label
 _atom_site_symmetry_multiplicity
 _atom_site_fract_x
 _atom_site_fract_y
 _atom_site_fract_z
 _atom_site_occupancy
  La  La0  1  0.50000000  0.50000000  0.50000000  1
  La  La1  1  0.00000000  0.25000000  0.77645100  1
  La  La2  1  0.00000000  0.75000000  0.22354900  1
  La  La3  1  0.50000000  0.00000000  0.50000000  1
  Zr  Zr0  1  0.00000000  0.25000000  0.23630600  1
  Zr  Zr1  1  0.00000000  0.75000000  0.76369400  1
  Zr  Zr2  1  0.50000000  0.50000000  0.00000000  1
  Zr  Zr3  1  0.50000000  0.00000000  0.00000000  1
  O  O0  1  0.50000000  0.25000000  0.36674800  1
  O  O1  1  0.00000000  0.46452700  0.63431100  1
  O  O2  1  0.50000000  0.25000000  0.90293200  1
  O  O3  1  0.50000000  0.75000000  0.86615300  1
  O  O4  1  0.00000000  0.52566500  0.88645000  1
  O  O5  1  0.00000000  0.47433500  0.11355000  1
  O  O6  1  0.00000000  0.02566500  0.11355000  1
  O  O7  1  0.50000000  0.25000000  0.13384700  1
  O  O8  1  0.50000000  0.75000000  0.09706800  1
  O  O9  1  0.00000000  0.53547300  0.36568900  1
  O  O10  1  0.00000000  0.96452700  0.36568900  1
  O  O11  1  0.00000000  0.03547300  0.63431100  1
  O  O12  1  0.50000000  0.75000000  0.63325200  1
  O  O13  1  0.00000000  0.97433500  0.88645000  1
loop_
_geom_bond_atom_site_label_1
_geom_bond_atom_site_label_2
_geom_bond_distance
_geom_bond_site_symmetry_2
La0 O9 2.396216 1_655
La0 O9 2.396216 1_555
La0 O1 2.396216 1_555
La0 O1 2.396216 1_655
La0 O12 2.434068 1_555
La0 O0 2.434068 1_555
La1 O1 2.291184 1_555
La1 O11 2.291184 1_555
La1 O2 2.326587 1_455
La1 O2 2.326587 1_555
La1 O4 2.454202 1_555
La1 O13 2.454202 1_545
La2 O10 2.291184 1_555
La2 O9 2.291184 1_555
La2 O8 2.326587 1_455
La2 O8 2.326587 1_555
La2 O6 2.454202 1_565
La2 O5 2.454202 1_555
La3 O11 2.396216 1_655
La3 O11 2.396216 1_555
La3 O10 2.396216 1_545
La3 O10 2.396216 1_645
La3 O12 2.434068 1_545
La3 O0 2.434068 1_555
O0 Zr0 2.353637 1_555
O0 Zr0 2.353637 1_655
O1 Zr1 2.632027 1_555
O2 Zr2 2.210865 1_556
O2 Zr3 2.210865 1_556
O3 Zr1 2.174589 1_655
O3 Zr1 2.174589 1_555
O3 Zr2 2.438126 1_556
O3 Zr3 2.438126 1_566
O4 Zr1 2.206048 1_555
O4 Zr2 2.250786 1_456
O4 Zr2 2.250786 1_556
O5 Zr0 2.206048 1_555
O5 Zr2 2.250786 1_555
O5 Zr2 2.250786 1_455
O6 Zr0 2.206048 1_555
O6 Zr3 2.250786 1_455
O6 Zr3 2.250786 1_555
O7 Zr0 2.174589 1_655
O7 Zr0 2.174589 1_555
O7 Zr3 2.438126 1_555
O7 Zr2 2.438126 1_555
O8 Zr3 2.210865 1_565
O8 Zr2 2.210865 1_555
O9 Zr0 2.632027 1_555
O10 Zr0 2.632027 1_565
O11 Zr1 2.632027 1_545
O12 Zr1 2.353637 1_655
O12 Zr1 2.353637 1_555
O13 Zr1 2.206048 1_555
O13 Zr3 2.250786 1_566
O13 Zr3 2.250786 1_466
