# generated using pymatgen
data_K2OsNCl5
_symmetry_space_group_name_H-M   'P 1'
_cell_length_a   6.92383100
_cell_length_b   9.95967900
_cell_length_c   13.43600100
_cell_angle_alpha   90.00000000
_cell_angle_beta   90.00000000
_cell_angle_gamma   90.00000000
_symmetry_Int_Tables_number   1
_chemical_formula_structural   K2OsNCl5
_chemical_formula_sum   'K8 Os4 N4 Cl20'
_cell_volume   926.53499621
_cell_formula_units_Z   4
loop_
 _symmetry_equiv_pos_site_id
 _symmetry_equiv_pos_as_xyz
  1  'x, y, z'
loop_
 _atom_site_type_symbol
 _atom_site_label
 _atom_site_symmetry_multiplicity
 _atom_site_fract_x
 _atom_site_fract_y
 _atom_site_fract_z
 _atom_site_occupancy
  K  K0  1  0.83043800  0.50093300  0.35459600  1
  K  K1  1  0.33043800  0.00093300  0.14540400  1
  K  K2  1  0.66956200  0.50093300  0.85459600  1
  K  K3  1  0.16956200  0.00093300  0.64540400  1
  K  K4  1  0.16956200  0.49906700  0.64540400  1
  K  K5  1  0.66956200  0.99906700  0.85459600  1
  K  K6  1  0.33043800  0.49906700  0.14540400  1
  K  K7  1  0.83043800  0.99906700  0.35459600  1
  Os  Os0  1  0.32980400  0.25000000  0.40733800  1
  Os  Os1  1  0.67019600  0.75000000  0.59266200  1
  Os  Os2  1  0.82980400  0.75000000  0.09266200  1
  Os  Os3  1  0.17019600  0.25000000  0.90733800  1
  N  N0  1  0.01788500  0.25000000  0.00330400  1
  N  N1  1  0.98211500  0.75000000  0.99669600  1
  N  N2  1  0.48211500  0.25000000  0.50330400  1
  N  N3  1  0.51788500  0.75000000  0.49669600  1
  Cl  Cl0  1  0.46529300  0.25000000  0.99971800  1
  Cl  Cl1  1  0.59653600  0.75000000  0.24802200  1
  Cl  Cl2  1  0.90346400  0.75000000  0.74802200  1
  Cl  Cl3  1  0.69133000  0.51118900  0.60627900  1
  Cl  Cl4  1  0.07178800  0.75000000  0.21980000  1
  Cl  Cl5  1  0.53470700  0.75000000  0.00028200  1
  Cl  Cl6  1  0.42821200  0.75000000  0.71980000  1
  Cl  Cl7  1  0.03470700  0.25000000  0.49971800  1
  Cl  Cl8  1  0.40346400  0.25000000  0.75197800  1
  Cl  Cl9  1  0.80867000  0.98881100  0.10627900  1
  Cl  Cl10  1  0.96529300  0.75000000  0.50028200  1
  Cl  Cl11  1  0.09653600  0.25000000  0.25197800  1
  Cl  Cl12  1  0.80867000  0.51118900  0.10627900  1
  Cl  Cl13  1  0.19133000  0.48881100  0.89372100  1
  Cl  Cl14  1  0.92821200  0.25000000  0.78020000  1
  Cl  Cl15  1  0.30867000  0.48881100  0.39372100  1
  Cl  Cl16  1  0.57178800  0.25000000  0.28020000  1
  Cl  Cl17  1  0.19133000  0.01118900  0.89372100  1
  Cl  Cl18  1  0.69133000  0.98881100  0.60627900  1
  Cl  Cl19  1  0.30867000  0.01118900  0.39372100  1
loop_
_geom_bond_atom_site_label_1
_geom_bond_atom_site_label_2
_geom_bond_distance
_geom_bond_site_symmetry_2
N0 Os3 1.665737 1_554
N1 Os2 1.665737 1_556
N2 Os0 1.665737 1_555
N3 Os1 1.665737 1_555
Cl0 Os3 2.390668 1_555
Cl0 K1 3.294980 1_556
Cl0 K6 3.294980 1_556
Cl0 K5 3.471070 1_545
Cl0 K2 3.471070 1_555
Cl1 Os2 2.639296 1_555
Cl1 K7 3.290396 1_555
Cl1 K0 3.290396 1_555
Cl1 K6 3.397291 1_555
Cl1 K1 3.397291 1_565
Cl2 Os1 2.639296 1_555
Cl2 K2 3.290396 1_555
Cl2 K5 3.290396 1_555
Cl2 K4 3.397291 1_655
Cl2 K3 3.397291 1_665
Cl3 Os1 2.389991 1_555
Cl3 K2 3.341352 1_555
Cl3 K4 3.354840 1_655
Cl3 K0 3.517587 1_555
Cl3 K4 3.652676 1_555
Cl4 Os2 2.392737 1_455
Cl4 K6 3.233013 1_555
Cl4 K1 3.233013 1_565
Cl4 K7 3.496588 1_455
Cl4 K0 3.496588 1_455
Cl5 Os2 2.390668 1_555
Cl5 K5 3.294980 1_554
Cl5 K2 3.294980 1_554
Cl5 K6 3.471070 1_555
Cl5 K1 3.471070 1_565
Cl6 Os1 2.392737 1_555
Cl6 K4 3.233013 1_555
Cl6 K3 3.233013 1_565
Cl6 K2 3.496588 1_555
Cl6 K5 3.496588 1_555
Cl7 Os0 2.390668 1_555
Cl7 K3 3.294980 1_555
Cl7 K4 3.294980 1_555
Cl7 K7 3.471070 1_445
Cl7 K0 3.471070 1_455
Cl8 Os3 2.639296 1_555
Cl8 K4 3.290396 1_555
Cl8 K3 3.290396 1_555
Cl8 K2 3.397291 1_555
Cl8 K5 3.397291 1_545
Cl9 Os2 2.389991 1_555
Cl9 K7 3.341352 1_555
Cl9 K1 3.354840 1_565
Cl9 K5 3.517587 1_554
Cl9 K1 3.652676 1_665
Cl10 Os1 2.390668 1_555
Cl10 K7 3.294980 1_555
Cl10 K0 3.294980 1_555
Cl10 K4 3.471070 1_655
Cl10 K3 3.471070 1_665
Cl11 Os0 2.639296 1_555
Cl11 K6 3.290396 1_555
Cl11 K1 3.290396 1_555
Cl11 K7 3.397291 1_445
Cl11 K0 3.397291 1_455
Cl12 Os2 2.389991 1_555
Cl12 K0 3.341352 1_555
Cl12 K6 3.354840 1_555
Cl12 K2 3.517587 1_554
Cl12 K6 3.652676 1_655
Cl13 Os3 2.389991 1_555
Cl13 K4 3.341352 1_555
Cl13 K2 3.354840 1_555
Cl13 K6 3.517587 1_556
Cl13 K2 3.652676 1_455
Cl14 Os3 2.392737 1_655
Cl14 K5 3.233013 1_545
Cl14 K2 3.233013 1_555
Cl14 K3 3.496588 1_655
Cl14 K4 3.496588 1_655
Cl15 Os0 2.389991 1_555
Cl15 K6 3.341352 1_555
Cl15 K0 3.354840 1_455
Cl15 K4 3.517587 1_555
Cl15 K0 3.652676 1_555
Cl16 Os0 2.392737 1_555
Cl16 K7 3.233013 1_545
Cl16 K0 3.233013 1_555
Cl16 K1 3.496588 1_555
Cl16 K6 3.496588 1_555
Cl17 Os3 2.389991 1_555
Cl17 K3 3.341352 1_555
Cl17 K5 3.354840 1_545
Cl17 K1 3.517587 1_556
Cl17 K5 3.652676 1_445
Cl18 Os1 2.389991 1_555
Cl18 K5 3.341352 1_555
Cl18 K3 3.354840 1_665
Cl18 K7 3.517587 1_555
Cl18 K3 3.652676 1_565
Cl19 Os0 2.389991 1_555
Cl19 K1 3.341352 1_555
Cl19 K7 3.354840 1_445
Cl19 K3 3.517587 1_555
Cl19 K7 3.652676 1_545
