# generated using pymatgen
data_NaSr8NdTi10O30
_symmetry_space_group_name_H-M   'P 1'
_cell_length_a   5.55392000
_cell_length_b   5.55392000
_cell_length_c   39.36908600
_cell_angle_alpha   90.00000000
_cell_angle_beta   90.00000000
_cell_angle_gamma   90.00000000
_symmetry_Int_Tables_number   1
_chemical_formula_structural   NaSr8NdTi10O30
_chemical_formula_sum   'Na2 Sr16 Nd2 Ti20 O60'
_cell_volume   1214.37990415
_cell_formula_units_Z   2
loop_
 _symmetry_equiv_pos_site_id
 _symmetry_equiv_pos_as_xyz
  1  'x, y, z'
loop_
 _atom_site_type_symbol
 _atom_site_label
 _atom_site_symmetry_multiplicity
 _atom_site_fract_x
 _atom_site_fract_y
 _atom_site_fract_z
 _atom_site_occupancy
  Na  Na0  1  0.00000000  0.50000000  0.54955900  1
  Na  Na1  1  0.50000000  0.00000000  0.45044100  1
  Sr  Sr0  1  0.50000000  0.00000000  0.35068300  1
  Sr  Sr1  1  0.00000000  0.50000000  0.25003500  1
  Sr  Sr2  1  0.00000000  0.50000000  0.35047800  1
  Sr  Sr3  1  0.50000000  0.00000000  0.14999900  1
  Sr  Sr4  1  0.50000000  0.00000000  0.25011000  1
  Sr  Sr5  1  0.00000000  0.50000000  0.04999600  1
  Sr  Sr6  1  0.00000000  0.50000000  0.14999700  1
  Sr  Sr7  1  0.50000000  0.00000000  0.95000400  1
  Sr  Sr8  1  0.50000000  0.00000000  0.04999600  1
  Sr  Sr9  1  0.00000000  0.50000000  0.85000100  1
  Sr  Sr10  1  0.00000000  0.50000000  0.95000400  1
  Sr  Sr11  1  0.50000000  0.00000000  0.74996500  1
  Sr  Sr12  1  0.50000000  0.00000000  0.85000300  1
  Sr  Sr13  1  0.00000000  0.50000000  0.64931700  1
  Sr  Sr14  1  0.00000000  0.50000000  0.74989000  1
  Sr  Sr15  1  0.50000000  0.00000000  0.64952200  1
  Nd  Nd0  1  0.50000000  0.00000000  0.54987300  1
  Nd  Nd1  1  0.00000000  0.50000000  0.45012700  1
  Ti  Ti0  1  0.00000000  0.00000000  0.50000000  1
  Ti  Ti1  1  0.50000000  0.50000000  0.40156900  1
  Ti  Ti2  1  0.50000000  0.50000000  0.50000000  1
  Ti  Ti3  1  0.00000000  0.00000000  0.30043300  1
  Ti  Ti4  1  0.00000000  0.00000000  0.40156900  1
  Ti  Ti5  1  0.50000000  0.50000000  0.20006700  1
  Ti  Ti6  1  0.50000000  0.50000000  0.30043300  1
  Ti  Ti7  1  0.00000000  0.00000000  0.10000200  1
  Ti  Ti8  1  0.00000000  0.00000000  0.20006700  1
  Ti  Ti9  1  0.50000000  0.50000000  0.00000000  1
  Ti  Ti10  1  0.50000000  0.50000000  0.10000200  1
  Ti  Ti11  1  0.00000000  0.00000000  0.89999800  1
  Ti  Ti12  1  0.00000000  0.00000000  0.00000000  1
  Ti  Ti13  1  0.50000000  0.50000000  0.79993300  1
  Ti  Ti14  1  0.50000000  0.50000000  0.89999800  1
  Ti  Ti15  1  0.00000000  0.00000000  0.69956700  1
  Ti  Ti16  1  0.00000000  0.00000000  0.79993300  1
  Ti  Ti17  1  0.50000000  0.50000000  0.59843100  1
  Ti  Ti18  1  0.50000000  0.50000000  0.69956700  1
  Ti  Ti19  1  0.00000000  0.00000000  0.59843100  1
  O  O0  1  0.00000000  0.00000000  0.54955600  1
  O  O1  1  0.71935200  0.21935200  0.50152700  1
  O  O2  1  0.21935200  0.28064800  0.49847300  1
  O  O3  1  0.50000000  0.50000000  0.45044400  1
  O  O4  1  0.50000000  0.50000000  0.54955600  1
  O  O5  1  0.22001900  0.72001900  0.40249900  1
  O  O6  1  0.78064800  0.71935200  0.49847300  1
  O  O7  1  0.73565000  0.76435000  0.40096000  1
  O  O8  1  0.28064800  0.78064800  0.50152700  1
  O  O9  1  0.00000000  0.00000000  0.35070200  1
  O  O10  1  0.00000000  0.00000000  0.45044400  1
  O  O11  1  0.73418800  0.23418800  0.30036100  1
  O  O12  1  0.26435000  0.23565000  0.40096000  1
  O  O13  1  0.23477600  0.26522400  0.30011100  1
  O  O14  1  0.77998100  0.27998100  0.40249900  1
  O  O15  1  0.50000000  0.50000000  0.25015300  1
  O  O16  1  0.50000000  0.50000000  0.35070200  1
  O  O17  1  0.23456400  0.73456400  0.20003400  1
  O  O18  1  0.76522400  0.73477600  0.30011100  1
  O  O19  1  0.73462200  0.76537800  0.20001700  1
  O  O20  1  0.26581200  0.76581200  0.30036100  1
  O  O21  1  0.00000000  0.00000000  0.15003700  1
  O  O22  1  0.00000000  0.00000000  0.25015300  1
  O  O23  1  0.73457600  0.23457600  0.10000000  1
  O  O24  1  0.26537800  0.23462200  0.20001700  1
  O  O25  1  0.23460700  0.26539300  0.09999900  1
  O  O26  1  0.76543600  0.26543600  0.20003400  1
  O  O27  1  0.50000000  0.50000000  0.05000600  1
  O  O28  1  0.50000000  0.50000000  0.15003700  1
  O  O29  1  0.23457600  0.73457600  0.00000000  1
  O  O30  1  0.76539300  0.73460700  0.09999900  1
  O  O31  1  0.73457600  0.76542400  0.00000000  1
  O  O32  1  0.26542400  0.76542400  0.10000000  1
  O  O33  1  0.00000000  0.00000000  0.94999400  1
  O  O34  1  0.00000000  0.00000000  0.05000600  1
  O  O35  1  0.73460700  0.23460700  0.90000100  1
  O  O36  1  0.26542400  0.23457600  0.00000000  1
  O  O37  1  0.23457600  0.26542400  0.90000000  1
  O  O38  1  0.76542400  0.26542400  0.00000000  1
  O  O39  1  0.50000000  0.50000000  0.84996300  1
  O  O40  1  0.50000000  0.50000000  0.94999400  1
  O  O41  1  0.23462200  0.73462200  0.79998300  1
  O  O42  1  0.76542400  0.73457600  0.90000000  1
  O  O43  1  0.73456400  0.76543600  0.79996600  1
  O  O44  1  0.26539300  0.76539300  0.90000100  1
  O  O45  1  0.00000000  0.00000000  0.74984700  1
  O  O46  1  0.00000000  0.00000000  0.84996300  1
  O  O47  1  0.73477600  0.23477600  0.69988900  1
  O  O48  1  0.26543600  0.23456400  0.79996600  1
  O  O49  1  0.23418800  0.26581200  0.69963900  1
  O  O50  1  0.76537800  0.26537800  0.79998300  1
  O  O51  1  0.50000000  0.50000000  0.64929800  1
  O  O52  1  0.50000000  0.50000000  0.74984700  1
  O  O53  1  0.23565000  0.73565000  0.59904000  1
  O  O54  1  0.76581200  0.73418800  0.69963900  1
  O  O55  1  0.72001900  0.77998100  0.59750100  1
  O  O56  1  0.26522400  0.76522400  0.69988900  1
  O  O57  1  0.00000000  0.00000000  0.64929800  1
  O  O58  1  0.27998100  0.22001900  0.59750100  1
  O  O59  1  0.76435000  0.26435000  0.59904000  1
loop_
_geom_bond_atom_site_label_1
_geom_bond_atom_site_label_2
_geom_bond_distance
_geom_bond_site_symmetry_2
Na0 O6 2.648262 1_455
Na0 O2 2.648262 1_555
Na0 O59 2.687118 1_455
Na0 O53 2.687118 1_555
Na0 O4 2.776960 1_555
Na0 O4 2.776960 1_455
Na0 O0 2.776960 1_555
Na0 O0 2.776960 1_565
Na0 O55 2.898000 1_455
Na0 O58 2.898000 1_555
Na0 O8 2.904283 1_555
Na0 O1 2.904283 1_455
Na1 O8 2.648262 1_545
Na1 O1 2.648262 1_555
Na1 O7 2.687118 1_545
Na1 O12 2.687118 1_555
Na1 O3 2.776960 1_555
Na1 O3 2.776960 1_545
Na1 O10 2.776960 1_555
Na1 O10 2.776960 1_655
Na1 O14 2.898000 1_555
Na1 O5 2.898000 1_545
Na1 O6 2.904283 1_545
Na1 O2 2.904283 1_555
Nd0 O58 2.549961 1_555
Nd0 O55 2.549961 1_545
Nd0 O1 2.567299 1_555
Nd0 O8 2.567299 1_545
Nd0 O0 2.776988 1_655
Nd0 O4 2.776988 1_555
Nd0 O4 2.776988 1_545
Nd0 O0 2.776988 1_555
Nd0 O53 2.838640 1_545
Nd0 O59 2.838640 1_555
Nd0 O6 2.992308 1_545
Nd0 O2 2.992308 1_555
Nd1 O5 2.549961 1_555
Nd1 O14 2.549961 1_455
Nd1 O6 2.567299 1_455
Nd1 O2 2.567299 1_555
Nd1 O3 2.776988 1_455
Nd1 O3 2.776988 1_555
Nd1 O10 2.776988 1_555
Nd1 O10 2.776988 1_565
Nd1 O12 2.838640 1_555
Nd1 O7 2.838640 1_455
Nd1 O1 2.992308 1_455
Nd1 O8 2.992308 1_555
O0 Ti19 1.924164 1_555
O0 Ti0 1.950974 1_555
O1 Ti2 1.979221 1_555
O1 Ti0 1.979221 1_655
O2 Ti0 1.979221 1_555
O2 Ti2 1.979221 1_555
O3 Ti1 1.924164 1_555
O3 Ti2 1.950974 1_555
O4 Ti17 1.924164 1_555
O4 Ti2 1.950974 1_555
O5 Ti1 1.978016 1_555
O5 Ti4 1.978016 1_565
O5 Sr2 2.679700 1_555
O5 Sr0 2.999565 1_565
O6 Ti0 1.979221 1_665
O6 Ti2 1.979221 1_555
O7 Ti4 1.966986 1_665
O7 Ti1 1.966986 1_555
O7 Sr0 2.709923 1_565
O7 Sr2 2.874191 1_655
O8 Ti0 1.979221 1_565
O8 Ti2 1.979221 1_555
O9 Ti3 1.979045 1_555
O9 Ti4 2.002587 1_555
O9 Sr0 2.776960 1_455
O9 Sr0 2.776960 1_555
O9 Sr2 2.776974 1_555
O9 Sr2 2.776974 1_545
O10 Ti4 1.924164 1_555
O10 Ti0 1.950974 1_555
O11 Ti3 1.967533 1_655
O11 Ti6 1.967533 1_555
O11 Sr4 2.701343 1_555
O11 Sr0 2.703391 1_555
O11 Sr2 2.872609 1_655
O11 Sr1 2.878267 1_655
O12 Ti1 1.966986 1_555
O12 Ti4 1.966986 1_555
O12 Sr0 2.709923 1_555
O12 Sr2 2.874191 1_555
O13 Ti3 1.967286 1_555
O13 Ti6 1.967286 1_555
O13 Sr1 2.699454 1_555
O13 Sr2 2.707832 1_555
O13 Sr4 2.866116 1_555
O13 Sr0 2.881601 1_555
O14 Ti1 1.978016 1_555
O14 Ti4 1.978016 1_655
O14 Sr2 2.679700 1_655
O14 Sr0 2.999565 1_555
O15 Ti5 1.971840 1_555
O15 Ti6 1.979478 1_555
O15 Sr4 2.776961 1_555
O15 Sr4 2.776961 1_565
O15 Sr1 2.776964 1_555
O15 Sr1 2.776964 1_655
O16 Ti6 1.979045 1_555
O16 Ti1 2.002587 1_555
O16 Sr0 2.776960 1_555
O16 Sr0 2.776960 1_565
O16 Sr2 2.776974 1_555
O16 Sr2 2.776974 1_655
O17 Ti5 1.967347 1_555
O17 Ti8 1.967347 1_565
O17 Sr1 2.696160 1_555
O17 Sr6 2.697195 1_555
O17 Sr3 2.868245 1_565
O17 Sr4 2.869354 1_565
O18 Ti6 1.967286 1_555
O18 Ti3 1.967286 1_665
O18 Sr1 2.699454 1_655
O18 Sr2 2.707832 1_655
O18 Sr4 2.866116 1_565
O18 Sr0 2.881601 1_565
O19 Ti5 1.967320 1_555
O19 Ti8 1.967320 1_665
O19 Sr3 2.696960 1_565
O19 Sr4 2.699117 1_565
O19 Sr1 2.867455 1_655
O19 Sr6 2.867509 1_655
O20 Ti6 1.967533 1_555
O20 Ti3 1.967533 1_565
O20 Sr4 2.701343 1_565
O20 Sr0 2.703391 1_565
O20 Sr2 2.872609 1_555
O20 Sr1 2.878267 1_555
O21 Ti8 1.969635 1_555
O21 Ti7 1.969832 1_555
O21 Sr3 2.776960 1_555
O21 Sr3 2.776960 1_455
O21 Sr6 2.776960 1_545
O21 Sr6 2.776960 1_555
O22 Ti8 1.971840 1_555
O22 Ti3 1.979478 1_555
O22 Sr4 2.776961 1_455
O22 Sr4 2.776961 1_555
O22 Sr1 2.776964 1_555
O22 Sr1 2.776964 1_545
O23 Ti7 1.967341 1_655
O23 Ti10 1.967341 1_555
O23 Sr3 2.696167 1_555
O23 Sr8 2.696311 1_555
O23 Sr6 2.867150 1_655
O23 Sr5 2.867339 1_655
O24 Ti5 1.967320 1_555
O24 Ti8 1.967320 1_555
O24 Sr3 2.696960 1_555
O24 Sr4 2.699117 1_555
O24 Sr1 2.867455 1_555
O24 Sr6 2.867509 1_555
O25 Ti7 1.967326 1_555
O25 Ti10 1.967326 1_555
O25 Sr6 2.696305 1_555
O25 Sr5 2.696449 1_555
O25 Sr3 2.867054 1_555
O25 Sr8 2.867135 1_555
O26 Ti5 1.967347 1_555
O26 Ti8 1.967347 1_655
O26 Sr1 2.696160 1_655
O26 Sr6 2.697195 1_655
O26 Sr3 2.868245 1_555
O26 Sr4 2.869354 1_555
O27 Ti10 1.968297 1_555
O27 Ti9 1.968691 1_555
O27 Sr8 2.776960 1_565
O27 Sr8 2.776960 1_555
O27 Sr5 2.776960 1_655
O27 Sr5 2.776960 1_555
O28 Ti5 1.969635 1_555
O28 Ti10 1.969832 1_555
O28 Sr3 2.776960 1_565
O28 Sr3 2.776960 1_555
O28 Sr6 2.776960 1_655
O28 Sr6 2.776960 1_555
O29 Ti12 1.967341 1_565
O29 Ti9 1.967341 1_555
O29 Sr5 2.696081 1_555
O29 Sr10 2.696081 1_554
O29 Sr8 2.867123 1_565
O29 Sr7 2.867123 1_564
O30 Ti7 1.967326 1_665
O30 Ti10 1.967326 1_555
O30 Sr6 2.696305 1_655
O30 Sr5 2.696449 1_655
O30 Sr3 2.867054 1_565
O30 Sr8 2.867135 1_565
O31 Ti9 1.967341 1_555
O31 Ti12 1.967341 1_665
O31 Sr8 2.696081 1_565
O31 Sr7 2.696081 1_564
O31 Sr5 2.867123 1_655
O31 Sr10 2.867123 1_654
O32 Ti7 1.967341 1_565
O32 Ti10 1.967341 1_555
O32 Sr3 2.696167 1_565
O32 Sr8 2.696311 1_565
O32 Sr6 2.867150 1_555
O32 Sr5 2.867339 1_555
O33 Ti11 1.968297 1_555
O33 Ti12 1.968691 1_556
O33 Sr10 2.776960 1_555
O33 Sr10 2.776960 1_545
O33 Sr7 2.776960 1_555
O33 Sr7 2.776960 1_455
O34 Ti7 1.968297 1_555
O34 Ti12 1.968691 1_555
O34 Sr8 2.776960 1_455
O34 Sr8 2.776960 1_555
O34 Sr5 2.776960 1_545
O34 Sr5 2.776960 1_555
O35 Ti11 1.967326 1_655
O35 Ti14 1.967326 1_555
O35 Sr12 2.696305 1_555
O35 Sr7 2.696449 1_555
O35 Sr9 2.867054 1_655
O35 Sr10 2.867135 1_655
O36 Ti12 1.967341 1_555
O36 Ti9 1.967341 1_555
O36 Sr8 2.696081 1_555
O36 Sr7 2.696081 1_554
O36 Sr5 2.867123 1_555
O36 Sr10 2.867123 1_554
O37 Ti11 1.967341 1_555
O37 Ti14 1.967341 1_555
O37 Sr9 2.696167 1_555
O37 Sr10 2.696311 1_555
O37 Sr12 2.867150 1_555
O37 Sr7 2.867339 1_555
O38 Ti12 1.967341 1_655
O38 Ti9 1.967341 1_555
O38 Sr5 2.696081 1_655
O38 Sr10 2.696081 1_654
O38 Sr8 2.867123 1_555
O38 Sr7 2.867123 1_554
O39 Ti13 1.969635 1_555
O39 Ti14 1.969832 1_555
O39 Sr9 2.776960 1_555
O39 Sr9 2.776960 1_655
O39 Sr12 2.776960 1_565
O39 Sr12 2.776960 1_555
O40 Ti14 1.968297 1_555
O40 Ti9 1.968691 1_556
O40 Sr10 2.776960 1_555
O40 Sr10 2.776960 1_655
O40 Sr7 2.776960 1_565
O40 Sr7 2.776960 1_555
O41 Ti16 1.967320 1_565
O41 Ti13 1.967320 1_555
O41 Sr9 2.696960 1_555
O41 Sr14 2.699117 1_555
O41 Sr11 2.867455 1_565
O41 Sr12 2.867509 1_565
O42 Ti11 1.967341 1_665
O42 Ti14 1.967341 1_555
O42 Sr9 2.696167 1_655
O42 Sr10 2.696311 1_655
O42 Sr12 2.867150 1_565
O42 Sr7 2.867339 1_565
O43 Ti13 1.967347 1_555
O43 Ti16 1.967347 1_665
O43 Sr11 2.696160 1_565
O43 Sr12 2.697195 1_565
O43 Sr9 2.868245 1_655
O43 Sr14 2.869354 1_655
O44 Ti14 1.967326 1_555
O44 Ti11 1.967326 1_565
O44 Sr12 2.696305 1_565
O44 Sr7 2.696449 1_565
O44 Sr9 2.867054 1_555
O44 Sr10 2.867135 1_555
O45 Ti16 1.971840 1_555
O45 Ti15 1.979478 1_555
O45 Sr14 2.776961 1_555
O45 Sr14 2.776961 1_545
O45 Sr11 2.776964 1_455
O45 Sr11 2.776964 1_555
O46 Ti16 1.969635 1_555
O46 Ti11 1.969832 1_555
O46 Sr9 2.776960 1_555
O46 Sr9 2.776960 1_545
O46 Sr12 2.776960 1_455
O46 Sr12 2.776960 1_555
O47 Ti15 1.967286 1_655
O47 Ti18 1.967286 1_555
O47 Sr11 2.699454 1_555
O47 Sr15 2.707832 1_555
O47 Sr14 2.866116 1_655
O47 Sr13 2.881601 1_655
O48 Ti13 1.967347 1_555
O48 Ti16 1.967347 1_555
O48 Sr11 2.696160 1_555
O48 Sr12 2.697195 1_555
O48 Sr9 2.868245 1_555
O48 Sr14 2.869354 1_555
O49 Ti15 1.967533 1_555
O49 Ti18 1.967533 1_555
O49 Sr14 2.701343 1_555
O49 Sr13 2.703391 1_555
O49 Sr15 2.872609 1_555
O49 Sr11 2.878267 1_555
O50 Ti16 1.967320 1_655
O50 Ti13 1.967320 1_555
O50 Sr9 2.696960 1_655
O50 Sr14 2.699117 1_655
O50 Sr11 2.867455 1_555
O50 Sr12 2.867509 1_555
O51 Ti18 1.979045 1_555
O51 Ti17 2.002587 1_555
O51 Sr13 2.776960 1_655
O51 Sr13 2.776960 1_555
O51 Sr15 2.776974 1_555
O51 Sr15 2.776974 1_565
O52 Ti13 1.971840 1_555
O52 Ti18 1.979478 1_555
O52 Sr14 2.776961 1_555
O52 Sr14 2.776961 1_655
O52 Sr11 2.776964 1_565
O52 Sr11 2.776964 1_555
O53 Ti19 1.966986 1_565
O53 Ti17 1.966986 1_555
O53 Sr13 2.709923 1_555
O53 Sr15 2.874191 1_565
O54 Ti18 1.967533 1_555
O54 Ti15 1.967533 1_665
O54 Sr14 2.701343 1_655
O54 Sr13 2.703391 1_655
O54 Sr15 2.872609 1_565
O54 Sr11 2.878267 1_565
O55 Ti17 1.978016 1_555
O55 Ti19 1.978016 1_665
O55 Sr15 2.679700 1_565
O55 Sr13 2.999565 1_655
O56 Ti18 1.967286 1_555
O56 Ti15 1.967286 1_565
O56 Sr11 2.699454 1_565
O56 Sr15 2.707832 1_565
O56 Sr14 2.866116 1_555
O56 Sr13 2.881601 1_555
O57 Ti15 1.979045 1_555
O57 Ti19 2.002587 1_555
O57 Sr13 2.776960 1_545
O57 Sr13 2.776960 1_555
O57 Sr15 2.776974 1_455
O57 Sr15 2.776974 1_555
O58 Ti19 1.978016 1_555
O58 Ti17 1.978016 1_555
O58 Sr15 2.679700 1_555
O58 Sr13 2.999565 1_555
O59 Ti19 1.966986 1_655
O59 Ti17 1.966986 1_555
O59 Sr13 2.709923 1_655
O59 Sr15 2.874191 1_555
