# generated using pymatgen
data_Mg2SiO4
_symmetry_space_group_name_H-M   'P 1'
_cell_length_a   5.83251709
_cell_length_b   5.83251709
_cell_length_c   5.83251709
_cell_angle_alpha   121.24713881
_cell_angle_beta   119.76497787
_cell_angle_gamma   89.13055985
_symmetry_Int_Tables_number   1
_chemical_formula_structural   Mg2SiO4
_chemical_formula_sum   'Mg4 Si2 O8'
_cell_volume   139.17831379
_cell_formula_units_Z   2
loop_
 _symmetry_equiv_pos_site_id
 _symmetry_equiv_pos_as_xyz
  1  'x, y, z'
loop_
 _atom_site_type_symbol
 _atom_site_label
 _atom_site_symmetry_multiplicity
 _atom_site_fract_x
 _atom_site_fract_y
 _atom_site_fract_z
 _atom_site_occupancy
  Mg  Mg0  1  0.85947800  0.10947800  0.75000000  1
  Mg  Mg1  1  0.50000000  0.50000000  0.00000000  1
  Mg  Mg2  1  0.00000000  0.50000000  0.50000000  1
  Mg  Mg3  1  0.14052200  0.89052200  0.25000000  1
  Si  Si0  1  0.50000000  0.50000000  0.50000000  1
  Si  Si1  1  0.50000000  0.00000000  0.00000000  1
  O  O0  1  0.28483000  0.24897900  0.03585100  1
  O  O1  1  0.71032600  0.22147500  0.01114900  1
  O  O2  1  0.71312800  0.24897900  0.46414900  1
  O  O3  1  0.71032600  0.69917700  0.48885100  1
  O  O4  1  0.28967400  0.30082300  0.51114900  1
  O  O5  1  0.28687200  0.75102100  0.53585100  1
  O  O6  1  0.28967400  0.77852500  0.98885100  1
  O  O7  1  0.71517000  0.75102100  0.96414900  1
loop_
_geom_bond_atom_site_label_1
_geom_bond_atom_site_label_2
_geom_bond_distance
_geom_bond_site_symmetry_2
Mg0 O3 1.941552 1_545
Mg0 O1 1.941552 1_556
Mg0 O0 2.035571 1_656
Mg0 O2 2.035571 1_555
Mg1 O6 2.029289 1_554
Mg1 O4 2.029289 1_554
Mg1 O3 2.029289 1_555
Mg1 O1 2.029289 1_555
Mg1 O7 2.096705 1_554
Mg1 O0 2.096705 1_555
Mg2 O6 2.029289 1_555
Mg2 O3 2.029289 1_455
Mg2 O4 2.029289 1_555
Mg2 O1 2.029289 1_455
Mg2 O5 2.096705 1_555
Mg2 O2 2.096705 1_455
Mg3 O4 1.941552 1_565
Mg3 O6 1.941552 1_554
Mg3 O7 2.035571 1_454
Mg3 O5 2.035571 1_555
O0 Si1 1.902034 1_555
O0 Si0 1.902034 1_555
O1 Si1 1.749135 1_555
O2 Si1 1.902034 1_555
O2 Si0 1.902034 1_555
O3 Si0 1.749135 1_555
O4 Si0 1.749135 1_555
O5 Si1 1.902034 1_566
O5 Si0 1.902034 1_555
O6 Si1 1.749135 1_566
O7 Si0 1.902034 1_555
O7 Si1 1.902034 1_566
