# generated using pymatgen
data_Bi2O3
_symmetry_space_group_name_H-M   'P 1'
_cell_length_a   9.38215723
_cell_length_b   9.38215723
_cell_length_c   9.38215723
_cell_angle_alpha   109.47122063
_cell_angle_beta   109.47122063
_cell_angle_gamma   109.47122063
_symmetry_Int_Tables_number   1
_chemical_formula_structural   Bi2O3
_chemical_formula_sum   'Bi12 O18'
_cell_volume   635.74979522
_cell_formula_units_Z   6
loop_
 _symmetry_equiv_pos_site_id
 _symmetry_equiv_pos_as_xyz
  1  'x, y, z'
loop_
 _atom_site_type_symbol
 _atom_site_label
 _atom_site_symmetry_multiplicity
 _atom_site_fract_x
 _atom_site_fract_y
 _atom_site_fract_z
 _atom_site_occupancy
  Bi  Bi0  1  0.08513900  0.49224900  0.28183900  1
  Bi  Bi1  1  0.59289000  0.78959000  0.50775100  1
  Bi  Bi2  1  0.19670000  0.40711000  0.91486100  1
  Bi  Bi3  1  0.80330000  0.71816100  0.21041000  1
  Bi  Bi4  1  0.49224900  0.28183900  0.08513900  1
  Bi  Bi5  1  0.91486100  0.19670000  0.40711000  1
  Bi  Bi6  1  0.40711000  0.91486100  0.19670000  1
  Bi  Bi7  1  0.50775100  0.59289000  0.78959000  1
  Bi  Bi8  1  0.21041000  0.80330000  0.71816100  1
  Bi  Bi9  1  0.28183900  0.08513900  0.49224900  1
  Bi  Bi10  1  0.78959000  0.50775100  0.59289000  1
  Bi  Bi11  1  0.71816100  0.21041000  0.80330000  1
  O  O0  1  0.23106600  0.00000000  0.23106600  1
  O  O1  1  0.40163100  0.07164800  0.83142400  1
  O  O2  1  0.07164800  0.83142400  0.40163100  1
  O  O3  1  0.76893400  0.76893400  0.00000000  1
  O  O4  1  0.76893400  0.00000000  0.76893400  1
  O  O5  1  0.92835200  0.32998300  0.75977700  1
  O  O6  1  0.00000000  0.76893400  0.76893400  1
  O  O7  1  0.67001600  0.59836900  0.42979300  1
  O  O8  1  0.57020700  0.16857600  0.24022300  1
  O  O9  1  0.42979300  0.67001600  0.59836900  1
  O  O10  1  0.59836900  0.42979300  0.67001600  1
  O  O11  1  0.24022300  0.57020700  0.16857600  1
  O  O12  1  0.23106600  0.23106600  0.00000000  1
  O  O13  1  0.00000000  0.23106600  0.23106600  1
  O  O14  1  0.32998300  0.75977700  0.92835200  1
  O  O15  1  0.83142400  0.40163100  0.07164800  1
  O  O16  1  0.75977700  0.92835200  0.32998400  1
  O  O17  1  0.16857600  0.24022300  0.57020700  1
loop_
_geom_bond_atom_site_label_1
_geom_bond_atom_site_label_2
_geom_bond_distance
_geom_bond_site_symmetry_2
Bi0 O13 2.129068 1_555
Bi0 O11 2.149593 1_555
Bi0 O15 2.163707 1_455
Bi1 O4 2.129068 1_565
Bi1 O7 2.149593 1_555
Bi1 O9 2.163711 1_555
Bi2 O12 2.129068 1_556
Bi2 O5 2.149598 1_455
Bi2 O11 2.163711 1_556
Bi3 O3 2.129068 1_555
Bi3 O2 2.149599 1_655
Bi3 O16 2.163703 1_555
Bi4 O12 2.129068 1_555
Bi4 O8 2.149593 1_555
Bi4 O1 2.163707 1_554
Bi5 O13 2.129068 1_655
Bi5 O16 2.149600 1_545
Bi5 O17 2.163711 1_655
Bi6 O0 2.129068 1_565
Bi6 O14 2.149598 1_554
Bi6 O8 2.163711 1_565
Bi7 O3 2.129068 1_556
Bi7 O9 2.149593 1_555
Bi7 O10 2.163711 1_555
Bi8 O6 2.129068 1_555
Bi8 O1 2.149599 1_565
Bi8 O14 2.163701 1_555
Bi9 O0 2.129068 1_555
Bi9 O17 2.149593 1_555
Bi9 O2 2.163707 1_545
Bi10 O6 2.129068 1_655
Bi10 O10 2.149593 1_555
Bi10 O7 2.163711 1_555
Bi11 O4 2.129068 1_555
Bi11 O15 2.149599 1_556
Bi11 O5 2.163701 1_555
