# generated using pymatgen
data_K
_symmetry_space_group_name_H-M   'P 1'
_cell_length_a   8.82884950
_cell_length_b   8.83810582
_cell_length_c   17.21549893
_cell_angle_alpha   104.72610099
_cell_angle_beta   105.28165985
_cell_angle_gamma   89.98046691
_symmetry_Int_Tables_number   1
_chemical_formula_structural   K
_chemical_formula_sum   K16
_cell_volume   1250.06465086
_cell_formula_units_Z   16
loop_
 _symmetry_equiv_pos_site_id
 _symmetry_equiv_pos_as_xyz
  1  'x, y, z'
loop_
 _atom_site_type_symbol
 _atom_site_label
 _atom_site_symmetry_multiplicity
 _atom_site_fract_x
 _atom_site_fract_y
 _atom_site_fract_z
 _atom_site_occupancy
  K  K0_0  1  0.06222468  0.18731545  0.37612143  1
  K  K0_1  1  0.06222468  0.18731545  0.87612143  1
  K  K0_2  1  0.06222468  0.68731545  0.37612143  1
  K  K0_3  1  0.06222468  0.68731545  0.87612143  1
  K  K0_4  1  0.56222468  0.18731545  0.37612143  1
  K  K0_5  1  0.56222468  0.18731545  0.87612143  1
  K  K0_6  1  0.56222468  0.68731545  0.37612143  1
  K  K0_7  1  0.56222468  0.68731545  0.87612143  1
  K  K1_0  1  0.44405432  0.30827505  0.12676157  1
  K  K1_1  1  0.44405432  0.30827505  0.62676157  1
  K  K1_2  1  0.44405432  0.80827505  0.12676157  1
  K  K1_3  1  0.44405432  0.80827505  0.62676157  1
  K  K1_4  1  0.94405432  0.30827505  0.12676157  1
  K  K1_5  1  0.94405432  0.30827505  0.62676157  1
  K  K1_6  1  0.94405432  0.80827505  0.12676157  1
  K  K1_7  1  0.94405432  0.80827505  0.62676157  1
loop_
_geom_bond_atom_site_label_1
_geom_bond_atom_site_label_2
_geom_bond_distance
_geom_bond_site_symmetry_2
K0_0 K0_4 4.414425 1_455
K0_0 K0_4 4.414425 1_555
K0_0 K0_2 4.419053 1_545
K0_0 K0_2 4.419053 1_555
K0_0 K1_4 4.542191 1_455
K0_0 K1_5 4.569111 1_455
K0_0 K1_6 4.590184 1_445
K0_0 K1_1 4.595138 1_555
K0_1 K0_5 4.414425 1_555
K0_1 K0_5 4.414425 1_455
K0_1 K0_3 4.419053 1_555
K0_1 K0_3 4.419053 1_545
K0_1 K1_5 4.542191 1_455
K0_1 K1_4 4.569111 1_456
K0_1 K1_7 4.590184 1_445
K0_1 K1_0 4.595138 1_556
K0_2 K0_6 4.414425 1_455
K0_2 K0_6 4.414425 1_555
K0_2 K1_6 4.542191 1_455
K0_2 K1_7 4.569111 1_455
K0_2 K1_4 4.590184 1_455
K0_2 K1_3 4.595138 1_555
K0_3 K0_7 4.414425 1_455
K0_3 K0_7 4.414425 1_555
K0_3 K1_7 4.542191 1_455
K0_3 K1_6 4.569111 1_456
K0_3 K1_5 4.590184 1_455
K0_3 K1_2 4.595138 1_556
K0_4 K0_6 4.419053 1_555
K0_4 K0_6 4.419053 1_545
K0_4 K1_0 4.542191 1_555
K0_4 K1_1 4.569111 1_555
K0_4 K1_2 4.590184 1_545
K0_4 K1_5 4.595138 1_555
K0_5 K0_7 4.419053 1_555
K0_5 K0_7 4.419053 1_545
K0_5 K1_1 4.542191 1_555
K0_5 K1_0 4.569111 1_556
K0_5 K1_3 4.590184 1_545
K0_5 K1_4 4.595138 1_556
K0_6 K1_2 4.542191 1_555
K0_6 K1_3 4.569111 1_555
K0_6 K1_0 4.590184 1_555
K0_6 K1_7 4.595138 1_555
K0_7 K1_3 4.542191 1_555
K0_7 K1_2 4.569111 1_556
K0_7 K1_1 4.590184 1_555
K0_7 K1_6 4.595138 1_556
K1_0 K1_4 4.414425 1_455
K1_0 K1_4 4.414425 1_555
K1_0 K1_2 4.419053 1_545
K1_0 K1_2 4.419053 1_555
K1_1 K1_5 4.414425 1_555
K1_1 K1_5 4.414425 1_455
K1_1 K1_3 4.419053 1_545
K1_1 K1_3 4.419053 1_555
K1_2 K1_6 4.414425 1_455
K1_2 K1_6 4.414425 1_555
K1_3 K1_7 4.414425 1_455
K1_3 K1_7 4.414425 1_555
K1_4 K1_6 4.419053 1_545
K1_4 K1_6 4.419053 1_555
K1_5 K1_7 4.419053 1_555
K1_5 K1_7 4.419053 1_545
