# generated using pymatgen
data_La3Ga5SnO14
_symmetry_space_group_name_H-M   'P 1'
_cell_length_a   8.35378386
_cell_length_b   8.35378386
_cell_length_c   5.21875200
_cell_angle_alpha   90.00000000
_cell_angle_beta   90.00000000
_cell_angle_gamma   119.99999889
_symmetry_Int_Tables_number   1
_chemical_formula_structural   La3Ga5SnO14
_chemical_formula_sum   'La3 Ga5 Sn1 O14'
_cell_volume   315.40150745
_cell_formula_units_Z   1
loop_
 _symmetry_equiv_pos_site_id
 _symmetry_equiv_pos_as_xyz
  1  'x, y, z'
loop_
 _atom_site_type_symbol
 _atom_site_label
 _atom_site_symmetry_multiplicity
 _atom_site_fract_x
 _atom_site_fract_y
 _atom_site_fract_z
 _atom_site_occupancy
  La  La0  1  0.57254000  0.57254000  0.00000000  1
  La  La1  1  0.00000000  0.42746000  0.00000000  1
  La  La2  1  0.42746000  0.00000000  0.00000000  1
  Ga  Ga0  1  0.66666700  0.33333300  0.53028800  1
  Ga  Ga1  1  0.33333300  0.66666700  0.46971200  1
  Ga  Ga2  1  0.24514900  0.24514900  0.50000000  1
  Ga  Ga3  1  0.00000000  0.75485100  0.50000000  1
  Ga  Ga4  1  0.75485100  0.00000000  0.50000000  1
  Sn  Sn0  1  0.00000000  0.00000000  0.00000000  1
  O  O0  1  0.08223600  0.22791600  0.75810500  1
  O  O1  1  0.77208400  0.85432000  0.75810500  1
  O  O2  1  0.14568000  0.91776400  0.75810500  1
  O  O3  1  0.85432000  0.77208400  0.24189500  1
  O  O4  1  0.91776400  0.14568000  0.24189500  1
  O  O5  1  0.22791600  0.08223600  0.24189500  1
  O  O6  1  0.31568400  0.46009100  0.30244600  1
  O  O7  1  0.53990900  0.85559300  0.30244600  1
  O  O8  1  0.14440700  0.68431600  0.30244600  1
  O  O9  1  0.33333300  0.66666700  0.81908500  1
  O  O10  1  0.66666700  0.33333300  0.18091500  1
  O  O11  1  0.46009100  0.31568400  0.69755400  1
  O  O12  1  0.68431600  0.14440700  0.69755400  1
  O  O13  1  0.85559300  0.53990900  0.69755400  1
loop_
_geom_bond_atom_site_label_1
_geom_bond_atom_site_label_2
_geom_bond_distance
_geom_bond_site_symmetry_2
La0 O6 2.441766 1_555
La0 O11 2.441766 1_554
La0 O1 2.447335 1_554
La0 O3 2.447335 1_555
La0 O9 2.659725 1_554
La0 O10 2.659725 1_555
La0 O13 2.966706 1_554
La0 O7 2.966706 1_555
La1 O13 2.441766 1_454
La1 O8 2.441766 1_555
La1 O0 2.447335 1_554
La1 O4 2.447335 1_455
La1 O10 2.659717 1_455
La1 O9 2.659719 1_554
La1 O6 2.966706 1_555
La1 O12 2.966706 1_454
La2 O7 2.441766 1_545
La2 O12 2.441766 1_554
La2 O5 2.447335 1_555
La2 O2 2.447335 1_544
La2 O9 2.659717 1_544
La2 O10 2.659719 1_555
La2 O11 2.966706 1_554
La2 O8 2.966706 1_545
Ga0 O10 1.823291 1_555
Ga0 O12 1.872773 1_555
Ga0 O13 1.872778 1_555
Ga0 O11 1.872781 1_555
Ga1 O9 1.823291 1_555
Ga1 O8 1.872773 1_555
Ga1 O7 1.872778 1_555
Ga1 O6 1.872781 1_555
Ga2 O5 1.868511 1_555
Ga2 O0 1.868511 1_555
Ga2 O11 1.891088 1_555
Ga2 O6 1.891088 1_555
Ga3 O3 1.868511 1_455
Ga3 O2 1.868511 1_555
Ga3 O8 1.891088 1_555
Ga3 O13 1.891088 1_455
Ga4 O1 1.868511 1_545
Ga4 O4 1.868511 1_555
Ga4 O12 1.891088 1_555
Ga4 O7 1.891088 1_545
O0 Sn0 2.093479 1_556
O1 Sn0 2.093479 1_666
O2 Sn0 2.093479 1_566
O3 Sn0 2.093479 1_665
O4 Sn0 2.093479 1_655
O5 Sn0 2.093479 1_555
