# generated using pymatgen
data_Ba4Er3F17
_symmetry_space_group_name_H-M   'P 1'
_cell_length_a   9.35810200
_cell_length_b   9.39146363
_cell_length_c   9.39978577
_cell_angle_alpha   72.69454020
_cell_angle_beta   72.85552577
_cell_angle_gamma   72.97161650
_symmetry_Int_Tables_number   1
_chemical_formula_structural   Ba4Er3F17
_chemical_formula_sum   'Ba8 Er6 F34'
_cell_volume   734.36535968
_cell_formula_units_Z   2
loop_
 _symmetry_equiv_pos_site_id
 _symmetry_equiv_pos_as_xyz
  1  'x, y, z'
loop_
 _atom_site_type_symbol
 _atom_site_label
 _atom_site_symmetry_multiplicity
 _atom_site_fract_x
 _atom_site_fract_y
 _atom_site_fract_z
 _atom_site_occupancy
  Ba  Ba0  1  0.88640300  0.05388500  0.31371900  1
  Ba  Ba1  1  0.26737000  0.26689200  0.26709200  1
  Ba  Ba2  1  0.05583600  0.31414700  0.88568300  1
  Ba  Ba3  1  0.68609400  0.11337300  0.94557700  1
  Ba  Ba4  1  0.31304700  0.88567600  0.05647900  1
  Ba  Ba5  1  0.94463700  0.68692000  0.11462100  1
  Ba  Ba6  1  0.73361900  0.73282100  0.73207000  1
  Ba  Ba7  1  0.11421100  0.94369400  0.68611800  1
  Er  Er0  1  0.46840700  0.16434500  0.60843700  1
  Er  Er1  1  0.60751300  0.46939300  0.16635800  1
  Er  Er2  1  0.83674400  0.39216500  0.53112500  1
  Er  Er3  1  0.18196200  0.60813300  0.46963600  1
  Er  Er4  1  0.39123900  0.53268100  0.82695900  1
  Er  Er5  1  0.52741400  0.82215000  0.39492000  1
  F  F0  1  0.99992400  0.00037000  0.99972800  1
  F  F1  1  0.45425200  0.01180500  0.18509600  1
  F  F2  1  0.13898600  0.13960700  0.13878200  1
  F  F3  1  0.36387100  0.04083100  0.48966400  1
  F  F4  1  0.01148900  0.18553500  0.45417400  1
  F  F5  1  0.26658600  0.08549900  0.77931000  1
  F  F6  1  0.18565300  0.45378100  0.01175800  1
  F  F7  1  0.48947000  0.36416400  0.03979700  1
  F  F8  1  0.77849500  0.26752700  0.08590600  1
  F  F9  1  0.54666100  0.26252900  0.34982100  1
  F  F10  1  0.69934300  0.20624400  0.58930200  1
  F  F11  1  0.26056400  0.34660900  0.54757500  1
  F  F12  1  0.04071200  0.48841700  0.36385200  1
  F  F13  1  0.41026600  0.29873500  0.79563000  1
  F  F14  1  0.91445000  0.22096000  0.73297700  1
  F  F15  1  0.34810600  0.54650100  0.25624000  1
  F  F16  1  0.79447700  0.41073500  0.30045500  1
  F  F17  1  0.45272500  0.55410700  0.49812900  1
  F  F18  1  0.19397800  0.59136800  0.70915400  1
  F  F19  1  0.65118900  0.45300000  0.73795000  1
  F  F20  1  0.08610900  0.77785700  0.26767900  1
  F  F21  1  0.59140600  0.70189400  0.19978500  1
  F  F22  1  0.95970100  0.51029000  0.63608000  1
  F  F23  1  0.73984300  0.65009000  0.45348200  1
  F  F24  1  0.28799100  0.81442900  0.40391600  1
  F  F25  1  0.45289500  0.74545700  0.65651100  1
  F  F26  1  0.22122600  0.73287200  0.91440200  1
  F  F27  1  0.51095000  0.63607300  0.95924800  1
  F  F28  1  0.81453000  0.54594100  0.98827300  1
  F  F29  1  0.73181400  0.91335300  0.22236000  1
  F  F30  1  0.98819500  0.81469600  0.54628900  1
  F  F31  1  0.63601600  0.95982400  0.51125200  1
  F  F32  1  0.86045300  0.86120600  0.86092400  1
  F  F33  1  0.54607800  0.98832100  0.81460700  1
loop_
_geom_bond_atom_site_label_1
_geom_bond_atom_site_label_2
_geom_bond_distance
_geom_bond_site_symmetry_2
Ba0 F2 2.640939 1_655
Ba0 F29 2.664046 1_545
Ba0 F8 2.676388 1_555
Ba0 F4 2.715115 1_655
Ba0 F31 2.718409 1_545
Ba0 F20 2.784444 1_645
Ba0 F30 2.790235 1_545
Ba0 F0 2.968744 1_554
Ba0 F10 3.144314 1_555
Ba0 F16 3.180123 1_555
Ba0 F9 3.189616 1_555
Ba1 F2 2.623021 1_555
Ba1 F3 2.654867 1_555
Ba1 F7 2.655561 1_555
Ba1 F12 2.656750 1_555
Ba1 F4 2.683235 1_555
Ba1 F6 2.686183 1_555
Ba1 F1 2.691028 1_555
Ba1 F15 2.904134 1_555
Ba1 F9 2.924732 1_555
Ba1 F11 2.926250 1_555
Ba2 F2 2.641344 1_556
Ba2 F14 2.668734 1_455
Ba2 F5 2.671109 1_555
Ba2 F6 2.703026 1_556
Ba2 F22 2.722110 1_455
Ba2 F8 2.786635 1_456
Ba2 F28 2.802499 1_455
Ba2 F0 2.966431 1_455
Ba2 F18 3.056022 1_555
Ba2 F13 3.142458 1_555
Ba2 F11 3.168586 1_555
Ba3 F32 2.645075 1_545
Ba3 F8 2.669329 1_556
Ba3 F14 2.669601 1_555
Ba3 F33 2.706316 1_545
Ba3 F7 2.731200 1_556
Ba3 F1 2.782187 1_556
Ba3 F29 2.785419 1_546
Ba3 F0 2.957188 1_555
Ba3 F13 3.119808 1_555
Ba3 F10 3.173655 1_555
Ba3 F19 3.186118 1_555
Ba4 F2 2.649244 1_565
Ba4 F20 2.656035 1_555
Ba4 F26 2.668375 1_554
Ba4 F1 2.705821 1_565
Ba4 F27 2.737550 1_554
Ba4 F5 2.789213 1_564
Ba4 F33 2.803238 1_554
Ba4 F0 2.960102 1_464
Ba4 F24 3.083623 1_555
Ba4 F21 3.103445 1_555
Ba4 F15 3.157946 1_555
Ba5 F32 2.648908 1_554
Ba5 F20 2.658603 1_655
Ba5 F29 2.669435 1_555
Ba5 F28 2.716263 1_554
Ba5 F12 2.726512 1_655
Ba5 F26 2.779720 1_654
Ba5 F6 2.810223 1_655
Ba5 F0 2.961576 1_564
Ba5 F16 3.121808 1_555
Ba5 F21 3.134012 1_555
Ba5 F23 3.173645 1_555
Ba6 F32 2.623763 1_555
Ba6 F31 2.651823 1_555
Ba6 F27 2.656848 1_555
Ba6 F22 2.657943 1_555
Ba6 F30 2.671642 1_555
Ba6 F28 2.689877 1_555
Ba6 F33 2.697783 1_555
Ba6 F25 2.878745 1_555
Ba6 F23 2.925494 1_555
Ba6 F19 2.929137 1_555
Ba7 F32 2.637976 1_455
Ba7 F26 2.665632 1_555
Ba7 F5 2.667758 1_565
Ba7 F30 2.698853 1_455
Ba7 F3 2.720891 1_565
Ba7 F14 2.795529 1_465
Ba7 F4 2.801225 1_565
Ba7 F0 2.976305 1_465
Ba7 F24 3.061241 1_555
Ba7 F18 3.126507 1_555
Ba7 F25 3.149780 1_555
Er0 F5 2.240136 1_555
Er0 F10 2.254867 1_555
Er0 F11 2.272410 1_555
Er0 F33 2.288567 1_545
Er0 F9 2.303988 1_555
Er0 F13 2.310773 1_555
Er0 F31 2.327793 1_545
Er0 F3 2.372332 1_555
Er1 F21 2.253155 1_555
Er1 F8 2.255909 1_555
Er1 F9 2.268989 1_555
Er1 F15 2.292695 1_555
Er1 F28 2.293440 1_554
Er1 F16 2.296972 1_555
Er1 F27 2.335082 1_554
Er1 F7 2.392862 1_555
Er2 F14 2.242253 1_555
Er2 F16 2.264602 1_555
Er2 F19 2.282696 1_555
Er2 F4 2.289589 1_655
Er2 F23 2.296602 1_555
Er2 F12 2.308304 1_655
Er2 F10 2.309427 1_555
Er2 F22 2.365581 1_555
Er3 F18 2.243727 1_555
Er3 F15 2.258519 1_555
Er3 F24 2.274255 1_555
Er3 F11 2.302012 1_555
Er3 F20 2.305508 1_555
Er3 F30 2.360411 1_455
Er3 F22 2.442101 1_455
Er3 F12 2.512063 1_555
Er3 F17 2.513111 1_555
Er4 F13 2.251787 1_555
Er4 F25 2.262418 1_555
Er4 F26 2.266727 1_555
Er4 F18 2.276798 1_555
Er4 F19 2.298712 1_555
Er4 F6 2.316623 1_556
Er4 F7 2.387620 1_556
Er4 F27 2.433277 1_555
Er4 F17 2.928254 1_555
Er5 F24 2.238807 1_555
Er5 F23 2.258443 1_555
Er5 F21 2.277548 1_555
Er5 F25 2.298010 1_555
Er5 F29 2.308083 1_555
Er5 F1 2.350129 1_565
Er5 F3 2.407673 1_565
Er5 F31 2.483210 1_555
Er5 F17 2.635224 1_555
