# generated using pymatgen
data_SrMg2Al6(Si3O10)3
_symmetry_space_group_name_H-M   'P 1'
_cell_length_a   10.25966800
_cell_length_b   10.32237334
_cell_length_c   14.27236046
_cell_angle_alpha   89.48334048
_cell_angle_beta   89.33167809
_cell_angle_gamma   60.33910201
_symmetry_Int_Tables_number   1
_chemical_formula_structural   SrMg2Al6(Si3O10)3
_chemical_formula_sum   'Sr2 Mg4 Al12 Si18 O60'
_cell_volume   1313.35038463
_cell_formula_units_Z   2
loop_
 _symmetry_equiv_pos_site_id
 _symmetry_equiv_pos_as_xyz
  1  'x, y, z'
loop_
 _atom_site_type_symbol
 _atom_site_label
 _atom_site_symmetry_multiplicity
 _atom_site_fract_x
 _atom_site_fract_y
 _atom_site_fract_z
 _atom_site_occupancy
  Sr  Sr0  1  0.98709800  0.01585700  0.75658300  1
  Sr  Sr1  1  0.01101000  0.00445100  0.25616700  1
  Mg  Mg0  1  0.67093900  0.66246100  0.75210100  1
  Mg  Mg1  1  0.67014100  0.66533900  0.25192400  1
  Mg  Mg2  1  0.32510900  0.33945400  0.75305700  1
  Mg  Mg3  1  0.32732200  0.33128600  0.25063300  1
  Al  Al0  1  0.89883700  0.75659200  0.38576100  1
  Al  Al1  1  0.99715700  0.49858600  0.24710000  1
  Al  Al2  1  0.49861200  0.99672000  0.75062500  1
  Al  Al3  1  0.64002600  0.25149500  0.88667100  1
  Al  Al4  1  0.50152000  0.49614700  0.25294800  1
  Al  Al5  1  0.49037300  0.50646500  0.74734500  1
  Al  Al6  1  0.50250800  0.00172000  0.25044400  1
  Al  Al7  1  0.10161500  0.65836800  0.88735700  1
  Al  Al8  1  0.24729300  0.10338000  0.11349800  1
  Al  Al9  1  0.00637400  0.49800400  0.75250700  1
  Al  Al10  1  0.10407900  0.23756000  0.38517300  1
  Al  Al11  1  0.10660500  0.24103500  0.61302700  1
  Si  Si0  1  0.90077100  0.75501700  0.61324200  1
  Si  Si1  1  0.75543500  0.90604100  0.11048600  1
  Si  Si2  1  0.75068800  0.90082400  0.88570900  1
  Si  Si3  1  0.90285900  0.33822000  0.88647000  1
  Si  Si4  1  0.89712200  0.34137100  0.11092700  1
  Si  Si5  1  0.75302400  0.34559200  0.61368600  1
  Si  Si6  1  0.74892300  0.34985500  0.39005700  1
  Si  Si7  1  0.35169200  0.89407800  0.38731900  1
  Si  Si8  1  0.34850400  0.89797300  0.61092600  1
  Si  Si9  1  0.64170400  0.25252700  0.11141100  1
  Si  Si10  1  0.35218100  0.75026200  0.11276700  1
  Si  Si11  1  0.34863800  0.75791500  0.88829700  1
  Si  Si12  1  0.65228800  0.10181800  0.38945500  1
  Si  Si13  1  0.65555400  0.09640300  0.61255800  1
  Si  Si14  1  0.24898700  0.64842400  0.38655200  1
  Si  Si15  1  0.24595900  0.65091200  0.60762900  1
  Si  Si16  1  0.09906400  0.66259900  0.11331700  1
  Si  Si17  1  0.25015300  0.10458500  0.88896700  1
  O  O0  1  0.92251600  0.79694300  0.85277600  1
  O  O1  1  0.93232500  0.80722900  0.14142600  1
  O  O2  1  0.79654200  0.93309100  0.64497300  1
  O  O3  1  0.79601800  0.94788600  0.35542700  1
  O  O4  1  0.88251100  0.73243500  0.50530600  1
  O  O5  1  0.86500200  0.64775900  0.68216500  1
  O  O6  1  0.85764100  0.64229800  0.31652700  1
  O  O7  1  0.73069400  0.88916400  0.99978800  1
  O  O8  1  0.86672100  0.48742000  0.82497600  1
  O  O9  1  0.86481700  0.48922600  0.17024700  1
  O  O10  1  0.89086300  0.37391900  0.99824900  1
  O  O11  1  0.64754300  0.86571800  0.17529200  1
  O  O12  1  0.63839900  0.85901000  0.82621700  1
  O  O13  1  0.92187000  0.26816600  0.35617800  1
  O  O14  1  0.92451100  0.27334400  0.64625200  1
  O  O15  1  0.79786700  0.27060400  0.85545700  1
  O  O16  1  0.77017600  0.29590400  0.14206500  1
  O  O17  1  0.49685700  0.85913600  0.67455400  1
  O  O18  1  0.49957500  0.86174600  0.32413900  1
  O  O19  1  0.72470800  0.38613300  0.50227400  1
  O  O20  1  0.64136800  0.49353000  0.67586600  1
  O  O21  1  0.64173000  0.49765000  0.32610600  1
  O  O22  1  0.38606500  0.89295800  0.49895600  1
  O  O23  1  0.71190900  0.21331500  0.64153800  1
  O  O24  1  0.68900500  0.23464800  0.36170800  1
  O  O25  1  0.49379000  0.64479000  0.82281400  1
  O  O26  1  0.49853600  0.63545600  0.17553300  1
  O  O27  1  0.38633400  0.72360900  0.00001100  1
  O  O28  1  0.71777400  0.07478000  0.14105900  1
  O  O29  1  0.70958000  0.06681400  0.85278500  1
  O  O30  1  0.29336800  0.92001400  0.14310800  1
  O  O31  1  0.30202100  0.93050500  0.86233000  1
  O  O32  1  0.59893300  0.27908000  0.00431500  1
  O  O33  1  0.48905700  0.36813000  0.81735900  1
  O  O34  1  0.50169800  0.35429400  0.18201300  1
  O  O35  1  0.29787600  0.77250800  0.63317000  1
  O  O36  1  0.31533100  0.76087900  0.36231900  1
  O  O37  1  0.62341300  0.10483900  0.50196100  1
  O  O38  1  0.35322900  0.50723200  0.67072800  1
  O  O39  1  0.35591500  0.50044600  0.32475000  1
  O  O40  1  0.26523200  0.60993700  0.49783800  1
  O  O41  1  0.50926700  0.12750600  0.67377600  1
  O  O42  1  0.50567900  0.13167100  0.33060900  1
  O  O43  1  0.20583400  0.74542900  0.85389900  1
  O  O44  1  0.21440200  0.72090500  0.14756200  1
  O  O45  1  0.06989200  0.72726500  0.64094700  1
  O  O46  1  0.07701400  0.73233300  0.35350400  1
  O  O47  1  0.36371400  0.14235000  0.18116600  1
  O  O48  1  0.35718200  0.14002300  0.82068500  1
  O  O49  1  0.11421300  0.62728900  0.00518500  1
  O  O50  1  0.14212900  0.50147700  0.82413900  1
  O  O51  1  0.12881400  0.51893500  0.17577700  1
  O  O52  1  0.26830000  0.12912000  0.99653300  1
  O  O53  1  0.14219700  0.35791400  0.68218400  1
  O  O54  1  0.13800300  0.35449800  0.31191100  1
  O  O55  1  0.13355500  0.25809600  0.49814300  1
  O  O56  1  0.20903600  0.05090600  0.65031900  1
  O  O57  1  0.20505300  0.04485300  0.35061400  1
  O  O58  1  0.07228700  0.20001600  0.85646500  1
  O  O59  1  0.05394300  0.19753300  0.14333000  1
loop_
_geom_bond_atom_site_label_1
_geom_bond_atom_site_label_2
_geom_bond_distance
_geom_bond_site_symmetry_2
Mg0 O25 2.153397 1_555
Mg0 O5 2.154257 1_555
Mg0 O12 2.169504 1_555
Mg0 O8 2.191796 1_555
Mg0 O20 2.209561 1_555
Mg0 O17 2.225597 1_555
Mg1 O6 2.047410 1_555
Mg1 O21 2.158986 1_555
Mg1 O18 2.172357 1_555
Mg1 O26 2.229790 1_555
Mg1 O11 2.240243 1_555
Mg1 O9 2.245708 1_555
Mg2 O50 2.056535 1_555
Mg2 O53 2.065931 1_555
Mg2 O33 2.071922 1_555
Mg2 O48 2.139832 1_555
Mg2 O38 2.216574 1_555
Mg2 O41 2.353776 1_555
Mg3 O54 2.024491 1_555
Mg3 O47 2.057056 1_555
Mg3 O34 2.142824 1_555
Mg3 O39 2.191245 1_555
Mg3 O51 2.269406 1_555
Mg3 O42 2.274112 1_555
Al0 O4 1.740206 1_555
Al0 O6 1.752493 1_555
Al0 O3 1.770010 1_555
Al0 O46 1.773630 1_655
Al1 O54 1.742156 1_655
Al1 O6 1.767253 1_555
Al1 O51 1.774757 1_655
Al1 O9 1.795127 1_555
Al2 O41 1.775973 1_565
Al2 O48 1.778174 1_565
Al2 O12 1.797823 1_555
Al2 O17 1.802670 1_555
Al3 O32 1.717950 1_556
Al3 O33 1.730836 1_555
Al3 O29 1.743404 1_555
Al3 O15 1.776950 1_555
Al4 O39 1.784170 1_555
Al4 O34 1.786919 1_555
Al4 O21 1.793652 1_555
Al4 O26 1.793916 1_555
Al5 O33 1.740912 1_555
Al5 O38 1.788945 1_555
Al5 O20 1.794253 1_555
Al5 O25 1.810611 1_555
Al6 O47 1.753197 1_555
Al6 O42 1.783599 1_555
Al6 O18 1.791566 1_545
Al6 O11 1.804960 1_545
Al7 O49 1.703522 1_556
Al7 O50 1.720745 1_555
Al7 O0 1.753030 1_455
Al7 O43 1.763616 1_555
Al8 O52 1.715842 1_554
Al8 O47 1.740891 1_555
Al8 O30 1.757647 1_545
Al8 O59 1.772162 1_555
Al9 O53 1.743402 1_555
Al9 O50 1.752054 1_555
Al9 O8 1.803590 1_455
Al9 O5 1.813319 1_455
Al10 O55 1.678405 1_555
Al10 O54 1.748158 1_555
Al10 O13 1.787986 1_455
Al10 O57 1.799888 1_555
Al11 O55 1.681779 1_555
Al11 O53 1.740420 1_555
Al11 O14 1.786581 1_455
Al11 O56 1.786706 1_555
O0 Si2 1.611639 1_555
O0 Sr0 2.972356 1_565
O1 Si1 1.645437 1_555
O1 Si16 1.668326 1_655
O1 Sr1 3.032417 1_665
O2 Si13 1.654182 1_565
O2 Si0 1.669032 1_555
O2 Sr0 2.973189 1_565
O3 Si12 1.616569 1_565
O3 Sr1 2.898287 1_665
O4 Si0 1.587138 1_555
O5 Si0 1.643834 1_555
O7 Si1 1.627581 1_556
O7 Si2 1.649435 1_555
O8 Si3 1.642476 1_555
O9 Si4 1.634650 1_555
O10 Si3 1.630097 1_555
O10 Si4 1.635408 1_556
O11 Si1 1.636838 1_555
O12 Si2 1.660131 1_555
O13 Si6 1.612375 1_555
O13 Sr1 2.803510 1_655
O14 Si5 1.606824 1_555
O14 Sr0 2.866219 1_555
O15 Si3 1.613750 1_555
O15 Sr0 2.761446 1_555
O16 Si4 1.643716 1_555
O16 Si9 1.652371 1_555
O16 Sr1 3.233651 1_655
O17 Si8 1.650397 1_555
O18 Si7 1.642812 1_555
O19 Si5 1.632921 1_555
O19 Si6 1.636012 1_555
O20 Si5 1.643521 1_555
O21 Si6 1.645521 1_555
O22 Si7 1.634601 1_555
O22 Si8 1.634752 1_555
O23 Si13 1.633075 1_555
O23 Si5 1.660319 1_555
O23 Sr0 3.028857 1_555
O24 Si12 1.636043 1_555
O24 Si6 1.641297 1_555
O24 Sr1 3.317890 1_655
O25 Si11 1.649509 1_555
O26 Si10 1.646999 1_555
O27 Si11 1.638845 1_554
O27 Si10 1.639426 1_555
O28 Si1 1.648392 1_545
O28 Si9 1.652573 1_555
O28 Sr1 3.195196 1_655
O29 Si2 1.615347 1_545
O29 Sr0 2.950972 1_555
O30 Si10 1.607206 1_555
O30 Sr1 3.028662 1_565
O31 Si11 1.639784 1_555
O31 Si17 1.648582 1_565
O32 Si9 1.578951 1_555
O34 Si9 1.635256 1_555
O35 Si15 1.632943 1_555
O35 Si8 1.643900 1_555
O36 Si7 1.636007 1_555
O36 Si14 1.643066 1_555
O36 Sr1 3.261488 1_565
O37 Si13 1.609088 1_555
O37 Si12 1.627192 1_555
O38 Si15 1.614135 1_555
O39 Si14 1.630325 1_555
O40 Si15 1.611012 1_555
O40 Si14 1.624072 1_555
O41 Si13 1.617590 1_555
O42 Si12 1.621385 1_555
O43 Si11 1.615249 1_555
O43 Sr0 2.925791 1_465
O44 Si16 1.650776 1_555
O44 Si10 1.655744 1_555
O44 Sr1 3.047155 1_565
O45 Si15 1.639507 1_555
O45 Si0 1.664658 1_455
O45 Sr0 3.141821 1_465
O46 Si14 1.607876 1_555
O46 Sr1 2.889194 1_565
O48 Si17 1.629571 1_555
O49 Si16 1.577104 1_555
O51 Si16 1.619110 1_555
O52 Si17 1.586208 1_555
O56 Si8 1.617783 1_545
O56 Sr0 2.888034 1_455
O57 Si7 1.626758 1_545
O57 Sr1 2.617023 1_555
O58 Si17 1.657702 1_555
O58 Si3 1.667173 1_455
O58 Sr0 2.851678 1_455
O59 Si4 1.627164 1_455
O59 Sr1 2.748514 1_555
