# generated using pymatgen
data_Tm10Ti6O27
_symmetry_space_group_name_H-M   'P 1'
_cell_length_a   7.24676479
_cell_length_b   7.24676479
_cell_length_c   23.96132633
_cell_angle_alpha   81.83883706
_cell_angle_beta   81.83883706
_cell_angle_gamma   59.97163853
_symmetry_Int_Tables_number   1
_chemical_formula_structural   Tm10Ti6O27
_chemical_formula_sum   'Tm20 Ti12 O54'
_cell_volume   1074.71398354
_cell_formula_units_Z   2
loop_
 _symmetry_equiv_pos_site_id
 _symmetry_equiv_pos_as_xyz
  1  'x, y, z'
loop_
 _atom_site_type_symbol
 _atom_site_label
 _atom_site_symmetry_multiplicity
 _atom_site_fract_x
 _atom_site_fract_y
 _atom_site_fract_z
 _atom_site_occupancy
  Tm  Tm0  1  0.98836000  0.98836000  0.99743500  1
  Tm  Tm1  1  0.23627400  0.23627400  0.25498400  1
  Tm  Tm2  1  0.11812600  0.63066000  0.12426600  1
  Tm  Tm3  1  0.63342300  0.63342300  0.11277900  1
  Tm  Tm4  1  0.73082300  0.73082300  0.24474500  1
  Tm  Tm5  1  0.34978400  0.87694800  0.37654200  1
  Tm  Tm6  1  0.11230100  0.11230100  0.13432500  1
  Tm  Tm7  1  0.63066000  0.11812600  0.12426600  1
  Tm  Tm8  1  0.86736900  0.86736900  0.39273600  1
  Tm  Tm9  1  0.01160900  0.01160900  0.50482400  1
  Tm  Tm10  1  0.35977000  0.35977000  0.38949900  1
  Tm  Tm11  1  0.62151000  0.11412400  0.63019900  1
  Tm  Tm12  1  0.87694800  0.34978400  0.37654200  1
  Tm  Tm13  1  0.11743600  0.11743600  0.63477500  1
  Tm  Tm14  1  0.87444200  0.35781000  0.86703500  1
  Tm  Tm15  1  0.26805200  0.26805200  0.74998400  1
  Tm  Tm16  1  0.37349800  0.37349800  0.88013300  1
  Tm  Tm17  1  0.11412400  0.62151000  0.63019900  1
  Tm  Tm18  1  0.52206100  0.52206100  0.99071700  1
  Tm  Tm19  1  0.35781000  0.87444200  0.86703500  1
  Ti  Ti0  1  0.48134800  0.00907400  0.99980600  1
  Ti  Ti1  1  0.00907400  0.48134800  0.99980600  1
  Ti  Ti2  1  0.74483400  0.24442700  0.25487700  1
  Ti  Ti3  1  0.24442700  0.74483400  0.25487700  1
  Ti  Ti4  1  0.50167800  0.50167800  0.49959900  1
  Ti  Ti5  1  0.98903300  0.50122400  0.50227600  1
  Ti  Ti6  1  0.50122400  0.98903300  0.50227600  1
  Ti  Ti7  1  0.74328700  0.74328700  0.75131000  1
  Ti  Ti8  1  0.24538900  0.74758900  0.74927900  1
  Ti  Ti9  1  0.74758900  0.24538900  0.74927900  1
  Ti  Ti10  1  0.61944800  0.61944800  0.62435000  1
  Ti  Ti11  1  0.87935900  0.87935900  0.87624100  1
  O  O0  1  0.28518400  0.28518400  0.16135700  1
  O  O1  1  0.63670600  0.19159600  0.02952900  1
  O  O2  1  0.74687700  0.31257500  0.15521200  1
  O  O3  1  0.19159600  0.63670600  0.02952900  1
  O  O4  1  0.53381700  0.53381700  0.41004600  1
  O  O5  1  0.99695200  0.41895500  0.07735500  1
  O  O6  1  0.52979100  0.52979100  0.24544000  1
  O  O7  1  0.88615600  0.41352200  0.28557000  1
  O  O8  1  0.68912200  0.68912200  0.01754800  1
  O  O9  1  0.31257500  0.74687700  0.15521200  1
  O  O10  1  0.41352200  0.88615600  0.28557000  1
  O  O11  1  0.41895500  0.99695200  0.07735500  1
  O  O12  1  0.76796200  0.76796200  0.15478200  1
  O  O13  1  0.08319900  0.62990100  0.23839200  1
  O  O14  1  0.99830100  0.52758800  0.41581300  1
  O  O15  1  0.74341600  0.74341600  0.66868700  1
  O  O16  1  0.18603400  0.70551200  0.33577400  1
  O  O17  1  0.81618000  0.81618000  0.49055600  1
  O  O18  1  0.20883000  0.56687300  0.50093100  1
  O  O19  1  0.06000900  0.06000900  0.23206600  1
  O  O20  1  0.62990100  0.08319900  0.23839200  1
  O  O21  1  0.97345600  0.97345600  0.09010800  1
  O  O22  1  0.52758800  0.99830100  0.41581300  1
  O  O23  1  0.33818500  0.75213300  0.66554500  1
  O  O24  1  0.70551200  0.18603400  0.33577400  1
  O  O25  1  0.02409500  0.02409500  0.41486200  1
  O  O26  1  0.96483300  0.96483300  0.59748600  1
  O  O27  1  0.37460800  0.80618400  0.49539200  1
  O  O28  1  0.56687300  0.20883000  0.50093100  1
  O  O29  1  0.02289900  0.02289900  0.89889400  1
  O  O30  1  0.49823500  0.92824700  0.58507500  1
  O  O31  1  0.05489900  0.05489900  0.72883600  1
  O  O32  1  0.44017700  0.85397000  0.76879300  1
  O  O33  1  0.19827900  0.19827900  0.50491300  1
  O  O34  1  0.80618400  0.37460800  0.49539200  1
  O  O35  1  0.22490200  0.22490200  0.34619600  1
  O  O36  1  0.75213300  0.33818500  0.66554500  1
  O  O37  1  0.92824700  0.49823500  0.58507500  1
  O  O38  1  0.22873000  0.22873000  0.84148300  1
  O  O39  1  0.27823700  0.27823700  0.65863700  1
  O  O40  1  0.64814200  0.06184900  0.72694300  1
  O  O41  1  0.64808000  0.01910400  0.92736600  1
  O  O42  1  0.85397000  0.44017700  0.76879300  1
  O  O43  1  0.72802700  0.18262400  0.82914800  1
  O  O44  1  0.29466700  0.29466700  0.96947700  1
  O  O45  1  0.44403700  0.44403700  0.75904500  1
  O  O46  1  0.06184900  0.64814200  0.72694300  1
  O  O47  1  0.48725400  0.48725400  0.58541900  1
  O  O48  1  0.01910400  0.64808000  0.92736600  1
  O  O49  1  0.18262400  0.72802700  0.82914800  1
  O  O50  1  0.53587200  0.53587200  0.90035600  1
  O  O51  1  0.90211700  0.33405700  0.96645200  1
  O  O52  1  0.33405700  0.90211700  0.96645200  1
  O  O53  1  0.75847700  0.75847700  0.83273300  1
loop_
_geom_bond_atom_site_label_1
_geom_bond_atom_site_label_2
_geom_bond_distance
_geom_bond_site_symmetry_2
O0 Tm1 2.226755 1_555
O0 Tm7 2.272371 1_555
O0 Tm2 2.272371 1_555
O0 Tm6 2.364429 1_555
O1 Tm18 2.210411 1_554
O1 Tm7 2.256184 1_555
O1 Tm0 2.294203 1_544
O1 Ti0 2.347297 1_554
O2 Tm3 2.183747 1_555
O2 Tm7 2.215064 1_555
O2 Tm6 2.313615 1_655
O2 Ti2 2.368458 1_555
O3 Tm18 2.210411 1_554
O3 Tm2 2.256184 1_555
O3 Tm0 2.294203 1_454
O3 Ti1 2.347297 1_554
O4 Ti4 2.117425 1_555
O4 Tm12 2.241510 1_555
O4 Tm5 2.241510 1_555
O4 Tm10 2.317073 1_555
O5 Ti1 1.849283 1_654
O5 Tm6 2.259221 1_655
O5 Tm3 2.391212 1_555
O5 Tm2 2.550779 1_655
O6 Ti2 1.870292 1_555
O6 Ti3 1.870292 1_555
O6 Tm4 2.520991 1_555
O7 Tm4 2.143534 1_555
O7 Tm12 2.161727 1_555
O7 Ti2 2.194776 1_555
O7 Tm1 2.258767 1_655
O8 Ti1 2.057082 1_654
O8 Ti0 2.057082 1_564
O8 Tm3 2.274379 1_555
O8 Tm18 2.292069 1_554
O9 Tm3 2.183747 1_555
O9 Tm2 2.215064 1_555
O9 Tm6 2.313615 1_565
O9 Ti3 2.368458 1_555
O10 Tm4 2.143534 1_555
O10 Tm5 2.161727 1_555
O10 Ti3 2.194776 1_555
O10 Tm1 2.258767 1_565
O11 Ti0 1.849283 1_564
O11 Tm6 2.259221 1_565
O11 Tm3 2.391212 1_555
O11 Tm7 2.550779 1_565
O12 Tm3 2.103011 1_555
O12 Tm4 2.129480 1_555
O12 Tm2 2.261992 1_655
O12 Tm7 2.261992 1_565
O13 Ti3 1.847501 1_555
O13 Tm4 2.265153 1_455
O13 Tm1 2.482279 1_555
O13 Tm2 2.709760 1_555
O14 Ti5 2.047973 1_555
O14 Tm8 2.166356 1_555
O14 Tm12 2.243291 1_555
O14 Tm10 2.301874 1_655
O15 Ti7 1.979492 1_555
O15 Ti10 2.022982 1_555
O15 Tm17 2.449587 1_655
O15 Tm11 2.449587 1_565
O16 Ti3 1.936140 1_555
O16 Tm8 2.328130 1_455
O16 Tm10 2.430461 1_555
O16 Tm5 2.460700 1_555
O17 Ti5 1.978326 1_555
O17 Ti6 1.978326 1_555
O17 Tm8 2.326602 1_555
O17 Tm9 2.531924 1_665
O18 Ti5 1.871879 1_455
O18 Ti4 1.926011 1_555
O18 Tm9 2.806380 1_565
O19 Ti3 2.024693 1_545
O19 Ti2 2.024693 1_455
O19 Tm6 2.326362 1_555
O19 Tm1 2.365617 1_555
O20 Ti2 1.847501 1_555
O20 Tm4 2.265153 1_545
O20 Tm1 2.482279 1_555
O20 Tm7 2.709760 1_555
O21 Tm6 2.183097 1_665
O21 Tm0 2.197668 1_554
O21 Tm2 2.236031 1_655
O21 Tm7 2.236031 1_565
O22 Ti6 2.047973 1_555
O22 Tm8 2.166356 1_555
O22 Tm5 2.243291 1_555
O22 Tm10 2.301874 1_565
O23 Ti10 1.946809 1_555
O23 Ti8 2.024646 1_555
O23 Tm13 2.377586 1_565
O23 Tm17 2.531042 1_555
O24 Ti2 1.936140 1_555
O24 Tm8 2.328130 1_545
O24 Tm10 2.430461 1_555
O24 Tm12 2.460700 1_555
O25 Tm8 2.119889 1_445
O25 Tm9 2.135524 1_555
O25 Tm5 2.166669 1_545
O25 Tm12 2.166669 1_455
O26 Tm9 2.201635 1_665
O26 Tm17 2.228902 1_655
O26 Tm11 2.228902 1_565
O26 Tm13 2.242621 1_665
O27 Ti4 1.912332 1_555
O27 Ti6 1.986656 1_555
O27 Tm9 2.279129 1_565
O27 Tm5 2.836162 1_555
O28 Ti6 1.871879 1_545
O28 Ti4 1.926011 1_555
O28 Tm9 2.806380 1_655
O29 Ti11 1.965252 1_445
O29 Tm19 2.173579 1_545
O29 Tm14 2.173579 1_455
O29 Tm0 2.329711 1_445
O30 Ti6 1.969742 1_555
O30 Ti10 2.081913 1_555
O30 Tm11 2.381946 1_565
O30 Tm13 2.580101 1_565
O31 Ti9 1.977495 1_455
O31 Ti8 1.977495 1_545
O31 Tm13 2.261872 1_555
O31 Tm15 2.803801 1_555
O32 Ti7 1.927313 1_555
O32 Ti8 2.045580 1_555
O32 Tm19 2.351860 1_555
O32 Tm15 2.606333 1_565
O33 Ti6 1.943961 1_545
O33 Ti5 1.943961 1_455
O33 Tm9 2.343723 1_555
O34 Ti4 1.912332 1_555
O34 Ti5 1.986656 1_555
O34 Tm9 2.279129 1_655
O34 Tm12 2.836162 1_555
O35 Tm10 2.125781 1_555
O35 Tm1 2.166744 1_555
O35 Tm5 2.255713 1_545
O35 Tm12 2.255713 1_455
O36 Ti10 1.946809 1_555
O36 Ti9 2.024646 1_555
O36 Tm13 2.377586 1_655
O36 Tm11 2.531042 1_555
O37 Ti5 1.969742 1_555
O37 Ti10 2.081913 1_555
O37 Tm17 2.381946 1_655
O37 Tm13 2.580101 1_655
O38 Tm15 2.166956 1_555
O38 Tm16 2.170746 1_555
O38 Tm14 2.270296 1_455
O38 Tm19 2.270296 1_545
O39 Tm15 2.171506 1_555
O39 Tm13 2.186342 1_555
O39 Tm17 2.203353 1_555
O39 Tm11 2.203353 1_555
O40 Ti9 1.961089 1_555
O40 Ti7 2.069830 1_545
O40 Tm11 2.314937 1_555
O40 Tm15 2.409897 1_555
O41 Ti11 1.845489 1_545
O41 Ti0 1.983604 1_555
O41 Tm16 2.556460 1_555
O42 Ti7 1.927313 1_555
O42 Ti9 2.045580 1_555
O42 Tm14 2.351860 1_555
O42 Tm15 2.606333 1_655
O43 Ti9 1.905217 1_555
O43 Ti11 2.130937 1_545
O43 Tm14 2.347448 1_555
O43 Tm16 2.457304 1_555
O44 Ti1 1.921323 1_555
O44 Ti0 1.921323 1_555
O44 Tm16 2.206334 1_555
O45 Ti9 1.935498 1_555
O45 Ti8 1.935498 1_555
O45 Tm15 2.255016 1_555
O45 Tm16 2.891409 1_555
O46 Ti8 1.961089 1_555
O46 Ti7 2.069830 1_455
O46 Tm17 2.314937 1_555
O46 Tm15 2.409897 1_555
O47 Ti10 2.032629 1_555
O47 Ti4 2.034540 1_555
O47 Tm11 2.499809 1_555
O47 Tm17 2.499809 1_555
O48 Ti11 1.845489 1_455
O48 Ti1 1.983604 1_555
O48 Tm16 2.556460 1_555
O49 Ti8 1.905217 1_555
O49 Ti11 2.130937 1_455
O49 Tm19 2.347448 1_555
O49 Tm16 2.457304 1_555
O50 Tm18 2.143588 1_555
O50 Tm16 2.171068 1_555
O50 Tm14 2.211337 1_555
O50 Tm19 2.211337 1_555
O51 Ti1 1.903919 1_655
O51 Tm0 2.292239 1_545
O51 Tm14 2.393580 1_555
O51 Tm18 2.407160 1_555
O52 Ti0 1.903919 1_565
O52 Tm0 2.292239 1_455
O52 Tm19 2.393580 1_555
O52 Tm18 2.407160 1_555
O53 Ti11 1.976916 1_555
O53 Ti7 1.991162 1_555
O53 Tm19 2.624638 1_555
O53 Tm14 2.624638 1_555
