# generated using pymatgen
data_MgC2S2(OF3)2
_symmetry_space_group_name_H-M   'P 1'
_cell_length_a   4.60890900
_cell_length_b   4.69012212
_cell_length_c   20.34447480
_cell_angle_alpha   90.12276674
_cell_angle_beta   96.18108207
_cell_angle_gamma   115.41682227
_symmetry_Int_Tables_number   1
_chemical_formula_structural   MgC2S2(OF3)2
_chemical_formula_sum   'Mg2 C4 S4 O4 F12'
_cell_volume   394.32513665
_cell_formula_units_Z   2
loop_
 _symmetry_equiv_pos_site_id
 _symmetry_equiv_pos_as_xyz
  1  'x, y, z'
loop_
 _atom_site_type_symbol
 _atom_site_label
 _atom_site_symmetry_multiplicity
 _atom_site_fract_x
 _atom_site_fract_y
 _atom_site_fract_z
 _atom_site_occupancy
  Mg  Mg0  1  0.00000000  0.00000000  0.00000000  1
  Mg  Mg1  1  0.50000000  0.00000000  0.50000000  1
  C  C0  1  0.40390500  0.80025800  0.15698400  1
  C  C1  1  0.85367900  0.75339700  0.65633300  1
  C  C2  1  0.14632100  0.24660300  0.34366700  1
  C  C3  1  0.59609500  0.19974200  0.84301600  1
  S  S0  1  0.37278600  0.74509500  0.06546300  1
  S  S1  1  0.79323900  0.67113400  0.56504800  1
  S  S2  1  0.20676100  0.32886600  0.43495200  1
  S  S3  1  0.62721400  0.25490500  0.93453700  1
  O  O0  1  0.16192000  0.38017000  0.05464300  1
  O  O1  1  0.15015600  0.78323900  0.54981400  1
  O  O2  1  0.84984400  0.21676100  0.45018600  1
  O  O3  1  0.83808000  0.61983000  0.94535700  1
  F  F0  1  0.89833300  0.95911800  0.32706500  1
  F  F1  1  0.46360900  0.57081800  0.18638300  1
  F  F2  1  0.87209600  0.21118800  0.82281000  1
  F  F3  1  0.35157200  0.91480600  0.82365300  1
  F  F4  1  0.57933700  0.74604400  0.67553700  1
  F  F5  1  0.92427200  0.53668900  0.68925300  1
  F  F6  1  0.07572800  0.46331100  0.31074700  1
  F  F7  1  0.42066300  0.25395600  0.32446300  1
  F  F8  1  0.64842800  0.08519400  0.17634700  1
  F  F9  1  0.12790400  0.78881200  0.17719000  1
  F  F10  1  0.53639100  0.42918200  0.81361700  1
  F  F11  1  0.10166700  0.04088200  0.67293500  1
loop_
_geom_bond_atom_site_label_1
_geom_bond_atom_site_label_2
_geom_bond_distance
_geom_bond_site_symmetry_2
Mg0 O3 1.908570 1_444
Mg0 O0 1.908570 1_555
Mg1 O1 1.899902 1_545
Mg1 O2 1.899902 1_555
C0 F1 1.346456 1_555
C0 F8 1.349265 1_565
C0 F9 1.357975 1_555
C1 F4 1.349663 1_555
C1 F5 1.351779 1_555
C1 F11 1.352956 1_665
C2 F7 1.349663 1_555
C2 F6 1.351779 1_555
C2 F0 1.352956 1_445
C3 F10 1.346456 1_555
C3 F3 1.349265 1_545
C3 F2 1.357975 1_555
O0 S0 1.564231 1_555
O1 S1 1.564150 1_455
O2 S2 1.564150 1_655
O3 S3 1.564231 1_555
