# generated using pymatgen
data_Fe8H10O17
_symmetry_space_group_name_H-M   'P 1'
_cell_length_a   6.13081000
_cell_length_b   10.51725659
_cell_length_c   11.04037398
_cell_angle_alpha   90.91883109
_cell_angle_beta   90.77585183
_cell_angle_gamma   92.60081700
_symmetry_Int_Tables_number   1
_chemical_formula_structural   Fe8H10O17
_chemical_formula_sum   'Fe16 H20 O34'
_cell_volume   710.97832566
_cell_formula_units_Z   2
loop_
 _symmetry_equiv_pos_site_id
 _symmetry_equiv_pos_as_xyz
  1  'x, y, z'
loop_
 _atom_site_type_symbol
 _atom_site_label
 _atom_site_symmetry_multiplicity
 _atom_site_fract_x
 _atom_site_fract_y
 _atom_site_fract_z
 _atom_site_occupancy
  Fe  Fe0  1  0.01471500  0.67521100  0.08089900  1
  Fe  Fe1  1  0.02785800  0.85810100  0.62504200  1
  Fe  Fe2  1  0.28592600  0.17785100  0.58181200  1
  Fe  Fe3  1  0.23702900  0.27280400  0.07591700  1
  Fe  Fe4  1  0.99767700  0.30442500  0.79586200  1
  Fe  Fe5  1  0.99390500  0.12054000  0.25194700  1
  Fe  Fe6  1  0.26489300  0.83012200  0.33306800  1
  Fe  Fe7  1  0.27015100  0.66245200  0.79522700  1
  Fe  Fe8  1  0.50062700  0.68228100  0.08115700  1
  Fe  Fe9  1  0.53382500  0.85643400  0.62560000  1
  Fe  Fe10  1  0.77992700  0.18215000  0.53371000  1
  Fe  Fe11  1  0.69914500  0.12714700  0.96015600  1
  Fe  Fe12  1  0.48033200  0.32504100  0.80392700  1
  Fe  Fe13  1  0.51069600  0.13141400  0.25940900  1
  Fe  Fe14  1  0.76476000  0.83267200  0.33975200  1
  Fe  Fe15  1  0.76900400  0.66003700  0.79483100  1
  H  H0  1  0.01153200  0.62166700  0.29881800  1
  H  H1  1  0.01876100  0.62181400  0.58218500  1
  H  H2  1  0.23708400  0.46814500  0.90919400  1
  H  H3  1  0.25201600  0.27860000  0.36830100  1
  H  H4  1  0.05127400  0.39223500  0.55432500  1
  H  H5  1  0.03063600  0.01712400  0.47297700  1
  H  H6  1  0.91281800  0.34869600  0.21847800  1
  H  H7  1  0.24863600  0.48553400  0.16274800  1
  H  H8  1  0.34841000  0.91408600  0.83357000  1
  H  H9  1  0.52106100  0.61781400  0.30311800  1
  H  H10  1  0.51808700  0.61354800  0.58531900  1
  H  H11  1  0.76891200  0.45163700  0.90629400  1
  H  H12  1  0.63846800  0.23607300  0.68498300  1
  H  H13  1  0.51573700  0.01128600  0.47231700  1
  H  H14  1  0.78623700  0.87893100  0.07648700  1
  H  H15  1  0.70254100  0.47625000  0.14004300  1
  H  H16  1  0.84689200  0.92000000  0.84726300  1
  H  H17  1  0.36911400  0.00006200  0.01005800  1
  H  H18  1  0.05289100  0.00346000  0.92572600  1
  H  H19  1  0.60120100  0.30710600  0.12891600  1
  O  O0  1  0.00811300  0.70000100  0.34595300  1
  O  O1  1  0.01996500  0.95419000  0.33013700  1
  O  O2  1  0.02152600  0.65233300  0.66618000  1
  O  O3  1  0.02180700  0.67128300  0.90690400  1
  O  O4  1  0.24553900  0.19941600  0.75589800  1
  O  O5  1  0.24535700  0.45778300  0.81994300  1
  O  O6  1  0.24905700  0.10512400  0.14634600  1
  O  O7  1  0.27985300  0.19205500  0.39436900  1
  O  O8  1  0.02199700  0.31171300  0.59406500  1
  O  O9  1  0.02250400  0.05136100  0.56036100  1
  O  O10  1  0.06271900  0.32230500  0.22391900  1
  O  O11  1  0.98543200  0.26944400  0.96501600  1
  O  O12  1  0.26139800  0.77783800  0.14146700  1
  O  O13  1  0.24930300  0.53327600  0.08677600  1
  O  O14  1  0.29363500  0.85592100  0.75885600  1
  O  O15  1  0.27325400  0.83250100  0.51952500  1
  O  O16  1  0.51268800  0.70139900  0.34061900  1
  O  O17  1  0.51783900  0.95531600  0.33080500  1
  O  O18  1  0.51615700  0.65172600  0.66640800  1
  O  O19  1  0.51952000  0.67101000  0.90704100  1
  O  O20  1  0.73246800  0.19280700  0.77142300  1
  O  O21  1  0.75501500  0.45437500  0.81761200  1
  O  O22  1  0.74282900  0.10688200  0.13730300  1
  O  O23  1  0.77151800  0.18466900  0.36853700  1
  O  O24  1  0.54942500  0.29580800  0.60652900  1
  O  O25  1  0.53022900  0.04624400  0.55914400  1
  O  O26  1  0.49683400  0.27801400  0.96784200  1
  O  O27  1  0.77049700  0.79954500  0.12318500  1
  O  O28  1  0.74410600  0.56605500  0.12826700  1
  O  O29  1  0.78851100  0.84763400  0.75136600  1
  O  O30  1  0.77485400  0.82957600  0.51726700  1
  O  O31  1  0.45168700  0.99955800  0.93422700  1
  O  O32  1  0.89704000  0.97977100  0.92786300  1
  O  O33  1  0.50388900  0.32334200  0.19739700  1
loop_
_geom_bond_atom_site_label_1
_geom_bond_atom_site_label_2
_geom_bond_distance
_geom_bond_site_symmetry_2
Fe0 O3 1.921875 1_554
Fe0 O12 1.923728 1_555
Fe0 O28 2.052753 1_455
Fe0 O27 2.084878 1_455
Fe0 O13 2.120482 1_555
Fe1 O15 1.940930 1_555
Fe1 O30 1.951440 1_455
Fe1 O29 2.038659 1_455
Fe1 O9 2.166636 1_565
Fe1 O14 2.185733 1_555
Fe1 O2 2.217105 1_555
Fe2 O4 1.952111 1_555
Fe2 O24 2.004633 1_555
Fe2 O9 2.053925 1_555
Fe2 O7 2.077167 1_555
Fe2 O25 2.099763 1_555
Fe2 O8 2.196629 1_555
Fe3 O6 1.942761 1_555
Fe3 O11 1.955040 1_454
Fe3 O26 2.002350 1_554
Fe3 O10 2.038019 1_555
Fe3 O33 2.144015 1_555
Fe4 O11 1.911010 1_555
Fe4 O4 1.969364 1_655
Fe4 O20 1.974668 1_555
Fe4 O5 2.175079 1_655
Fe4 O21 2.229023 1_555
Fe4 O8 2.237218 1_655
Fe5 O6 1.974562 1_655
Fe5 O1 1.975273 1_645
Fe5 O22 1.978242 1_555
Fe5 O23 2.018367 1_555
Fe5 O10 2.172564 1_655
Fe5 O7 2.424710 1_655
Fe6 O17 1.988964 1_555
Fe6 O1 2.033809 1_555
Fe6 O0 2.046505 1_555
Fe6 O15 2.058222 1_555
Fe6 O16 2.081952 1_555
Fe6 O12 2.176677 1_555
Fe7 O19 1.949919 1_555
Fe7 O3 1.976604 1_555
Fe7 O2 2.070310 1_555
Fe7 O14 2.079282 1_555
Fe7 O18 2.092488 1_555
Fe7 O5 2.172863 1_555
Fe8 O19 1.929429 1_554
Fe8 O12 1.934746 1_555
Fe8 O28 2.039096 1_555
Fe8 O27 2.061415 1_555
Fe8 O13 2.149515 1_555
Fe9 O30 1.941343 1_555
Fe9 O15 1.972379 1_555
Fe9 O29 2.081610 1_555
Fe9 O14 2.095491 1_555
Fe9 O25 2.138800 1_565
Fe9 O18 2.204824 1_555
Fe10 O23 1.824253 1_555
Fe10 H12 1.979020 1_555
Fe10 O24 2.055609 1_555
Fe10 O8 2.064920 1_655
Fe10 O25 2.071557 1_555
Fe10 O9 2.092181 1_655
Fe11 O22 1.986592 1_556
Fe11 O31 1.993844 1_545
Fe11 O32 2.041135 1_545
Fe11 O26 2.059223 1_555
Fe11 O20 2.214774 1_555
Fe11 O11 2.253824 1_555
Fe12 O26 1.886293 1_555
Fe12 H12 1.901926 1_555
Fe12 O4 1.970573 1_555
Fe12 O5 2.058423 1_555
Fe12 O21 2.118410 1_555
Fe12 O20 2.155584 1_555
Fe12 O24 2.244738 1_555
Fe13 O22 1.995859 1_555
Fe13 O6 2.025354 1_555
Fe13 O17 2.026485 1_545
Fe13 O23 2.041359 1_555
Fe13 O33 2.143882 1_555
Fe13 O7 2.176782 1_555
Fe14 O30 1.960810 1_555
Fe14 O1 1.979907 1_655
Fe14 O16 2.025266 1_555
Fe14 O17 2.035304 1_555
Fe14 O0 2.089687 1_655
Fe14 O27 2.411656 1_555
Fe15 O3 1.968211 1_655
Fe15 O19 1.987532 1_555
Fe15 O29 2.036623 1_555
Fe15 O18 2.084490 1_555
Fe15 O2 2.118497 1_655
Fe15 O21 2.179536 1_555
H0 O0 0.968555 1_555
H1 O2 0.976115 1_555
H2 O5 0.991869 1_555
H3 O7 0.980621 1_555
H4 O8 0.970648 1_555
H5 O9 1.026976 1_555
H5 O1 1.699745 1_545
H6 O10 0.973358 1_655
H7 O13 0.984412 1_555
H8 O14 1.060696 1_555
H8 O31 1.530098 1_555
H9 O16 0.969454 1_555
H10 O18 0.975721 1_555
H11 O21 0.982628 1_555
H12 O20 1.213572 1_555
H12 O24 1.216025 1_555
H13 O25 1.022455 1_555
H13 O17 1.661125 1_545
H14 O27 0.989977 1_555
H15 O28 0.978221 1_555
H16 O32 1.112945 1_555
H16 O29 1.329462 1_555
H17 O31 0.984273 1_544
H18 O32 0.977134 1_445
H19 O33 0.986931 1_555
