# generated using pymatgen
data_Eu(Sb3Os)4
_symmetry_space_group_name_H-M   'P 1'
_cell_length_a   8.36493938
_cell_length_b   8.36493938
_cell_length_c   8.36493938
_cell_angle_alpha   109.47122063
_cell_angle_beta   109.47122063
_cell_angle_gamma   109.47122063
_symmetry_Int_Tables_number   1
_chemical_formula_structural   Eu(Sb3Os)4
_chemical_formula_sum   'Eu1 Sb12 Os4'
_cell_volume   450.57438909
_cell_formula_units_Z   1
loop_
 _symmetry_equiv_pos_site_id
 _symmetry_equiv_pos_as_xyz
  1  'x, y, z'
loop_
 _atom_site_type_symbol
 _atom_site_label
 _atom_site_symmetry_multiplicity
 _atom_site_fract_x
 _atom_site_fract_y
 _atom_site_fract_z
 _atom_site_occupancy
  Eu  Eu0  1  0.00000000  0.00000000  0.00000000  1
  Sb  Sb0  1  0.33963600  0.15686000  0.49649600  1
  Sb  Sb1  1  0.33963600  0.84314000  0.18277700  1
  Sb  Sb2  1  0.66036400  0.15686000  0.81722300  1
  Sb  Sb3  1  0.81722300  0.66036400  0.15686000  1
  Sb  Sb4  1  0.15686000  0.49649600  0.33963600  1
  Sb  Sb5  1  0.50350400  0.66036400  0.84314000  1
  Sb  Sb6  1  0.84314000  0.18277700  0.33963600  1
  Sb  Sb7  1  0.66036400  0.84314000  0.50350400  1
  Sb  Sb8  1  0.18277700  0.33963600  0.84314000  1
  Sb  Sb9  1  0.15686000  0.81722300  0.66036400  1
  Sb  Sb10  1  0.49649600  0.33963600  0.15686000  1
  Sb  Sb11  1  0.84314000  0.50350400  0.66036400  1
  Os  Os0  1  0.50000000  0.50000000  0.50000000  1
  Os  Os1  1  0.00000000  0.50000000  0.00000000  1
  Os  Os2  1  0.50000000  0.00000000  0.00000000  1
  Os  Os3  1  0.00000000  0.00000000  0.50000000  1
loop_
_geom_bond_atom_site_label_1
_geom_bond_atom_site_label_2
_geom_bond_distance
_geom_bond_site_symmetry_2
Eu0 Sb4 3.613520 1_555
Eu0 Sb10 3.613520 1_555
Eu0 Sb0 3.613520 1_555
Eu0 Sb7 3.613520 1_444
Eu0 Sb11 3.613520 1_444
Eu0 Sb5 3.613520 1_444
Eu0 Sb6 3.613523 1_455
Eu0 Sb8 3.613523 1_554
Eu0 Sb1 3.613523 1_545
Eu0 Sb3 3.613523 1_445
Eu0 Sb9 3.613523 1_544
Eu0 Sb2 3.613523 1_454
Sb0 Sb1 3.030217 1_545
Sb0 Sb2 3.097907 1_555
Sb1 Sb7 3.097907 1_555
Sb2 Sb7 3.030217 1_545
Sb3 Sb5 3.030217 1_554
Sb4 Sb6 3.030217 1_455
Sb4 Sb9 3.097907 1_555
Sb5 Sb8 3.097907 1_555
Sb10 Sb8 3.030217 1_554
Sb10 Sb3 3.097907 1_555
Sb11 Sb9 3.030217 1_655
Sb11 Sb6 3.097907 1_555
Os0 Sb10 2.718450 1_555
Os0 Sb4 2.718450 1_555
Os0 Sb0 2.718450 1_555
Os0 Sb11 2.718450 1_555
Os0 Sb7 2.718450 1_555
Os0 Sb5 2.718450 1_555
Os1 Sb2 2.718448 1_454
Os1 Sb1 2.718448 1_555
Os1 Sb4 2.718450 1_555
Os1 Sb11 2.718450 1_454
Os1 Sb8 2.718457 1_554
Os1 Sb3 2.718457 1_455
Os2 Sb9 2.718448 1_544
Os2 Sb6 2.718448 1_555
Os2 Sb10 2.718450 1_555
Os2 Sb5 2.718450 1_544
Os2 Sb1 2.718457 1_545
Os2 Sb2 2.718457 1_554
Os3 Sb3 2.718448 1_445
Os3 Sb8 2.718448 1_555
Os3 Sb0 2.718450 1_555
Os3 Sb7 2.718450 1_445
Os3 Sb6 2.718457 1_455
Os3 Sb9 2.718457 1_545
