# generated using pymatgen
data_Ca3Si2(H3O5)2
_symmetry_space_group_name_H-M   'P 1'
_cell_length_a   8.66435709
_cell_length_b   8.66435709
_cell_length_c   11.68601872
_cell_angle_alpha   56.20323294
_cell_angle_beta   56.20323294
_cell_angle_gamma   38.31638819
_symmetry_Int_Tables_number   1
_chemical_formula_structural   Ca3Si2(H3O5)2
_chemical_formula_sum   'Ca6 Si4 H12 O20'
_cell_volume   439.61266580
_cell_formula_units_Z   2
loop_
 _symmetry_equiv_pos_site_id
 _symmetry_equiv_pos_as_xyz
  1  'x, y, z'
loop_
 _atom_site_type_symbol
 _atom_site_label
 _atom_site_symmetry_multiplicity
 _atom_site_fract_x
 _atom_site_fract_y
 _atom_site_fract_z
 _atom_site_occupancy
  Ca  Ca0  1  0.55945600  0.13643700  0.20687900  1
  Ca  Ca1  1  0.13643700  0.55945600  0.70687900  1
  Ca  Ca2  1  0.85678200  0.46747800  0.28723900  1
  Ca  Ca3  1  0.46747800  0.85678200  0.78723900  1
  Ca  Ca4  1  0.00416400  0.56822500  0.45970400  1
  Ca  Ca5  1  0.56822500  0.00416400  0.95970400  1
  Si  Si0  1  0.33055000  0.94618500  0.49647200  1
  Si  Si1  1  0.94618500  0.33055000  0.99647200  1
  Si  Si2  1  0.65383400  0.11848300  0.49707500  1
  Si  Si3  1  0.11848300  0.65383400  0.99707500  1
  H  H0  1  0.83710500  0.14117000  0.26278700  1
  H  H1  1  0.14117000  0.83710500  0.76278700  1
  H  H2  1  0.03002100  0.99762000  0.49684400  1
  H  H3  1  0.99762000  0.03002100  0.99684400  1
  H  H4  1  0.26393800  0.66153500  0.12702100  1
  H  H5  1  0.66153500  0.26393800  0.62702100  1
  H  H6  1  0.35825700  0.62500300  0.23276700  1
  H  H7  1  0.62500300  0.35825700  0.73276700  1
  H  H8  1  0.22161200  0.98085100  0.20254400  1
  H  H9  1  0.98085100  0.22161200  0.70254400  1
  H  H10  1  0.32872500  0.80621400  0.34019000  1
  H  H11  1  0.80621400  0.32872500  0.84019000  1
  O  O0  1  0.95539500  0.25515600  0.15721900  1
  O  O1  1  0.25515600  0.95539500  0.65721900  1
  O  O2  1  0.75684100  0.06575600  0.33943000  1
  O  O3  1  0.06575600  0.75684100  0.83943000  1
  O  O4  1  0.76484000  0.22333300  0.47755600  1
  O  O5  1  0.22333300  0.76484000  0.97755600  1
  O  O6  1  0.22017700  0.83877300  0.50793400  1
  O  O7  1  0.83877300  0.22017700  0.00793400  1
  O  O8  1  0.83053000  0.79489600  0.10286300  1
  O  O9  1  0.79489600  0.83053000  0.60286300  1
  O  O10  1  0.31247900  0.34493500  0.05573900  1
  O  O11  1  0.34493500  0.31247900  0.55573900  1
  O  O12  1  0.18221000  0.23532600  0.39069100  1
  O  O13  1  0.23532600  0.18221000  0.89069100  1
  O  O14  1  0.63485400  0.76290600  0.41802900  1
  O  O15  1  0.76290600  0.63485400  0.91802900  1
  O  O16  1  0.29476400  0.57149500  0.22738200  1
  O  O17  1  0.57149500  0.29476400  0.72738200  1
  O  O18  1  0.38494400  0.80824200  0.23788700  1
  O  O19  1  0.80824200  0.38494400  0.73788700  1
loop_
_geom_bond_atom_site_label_1
_geom_bond_atom_site_label_2
_geom_bond_distance
_geom_bond_site_symmetry_2
Ca0 O10 2.356090 1_555
Ca0 O8 2.381203 1_545
Ca0 O12 2.423600 1_555
Ca0 O2 2.438763 1_555
Ca0 O16 2.520718 1_555
Ca0 O7 2.531356 1_555
Ca0 O14 2.565353 1_545
Ca1 O11 2.356090 1_555
Ca1 O9 2.381203 1_455
Ca1 O13 2.423600 1_555
Ca1 O3 2.438763 1_555
Ca1 O17 2.520718 1_555
Ca1 O6 2.531356 1_555
Ca1 O15 2.565353 1_455
Ca2 O8 2.339789 1_555
Ca2 O4 2.344161 1_555
Ca2 O0 2.371028 1_555
Ca2 O12 2.375910 1_655
Ca2 O14 2.438201 1_555
Ca3 O9 2.339789 1_555
Ca3 O5 2.344161 1_555
Ca3 O1 2.371028 1_555
Ca3 O13 2.375910 1_565
Ca3 O15 2.438201 1_555
Ca4 O11 2.353823 1_555
Ca4 O12 2.360352 1_555
Ca4 O9 2.374968 1_455
Ca4 O14 2.381490 1_455
Ca4 O16 2.476446 1_555
Ca4 O2 2.695367 1_465
Ca5 O10 2.353823 1_556
Ca5 O13 2.360352 1_555
Ca5 O8 2.374968 1_546
Ca5 O15 2.381490 1_545
Ca5 O17 2.476446 1_555
Ca5 O3 2.695367 1_645
H0 O2 1.040106 1_555
H0 O0 1.540788 1_555
H1 O3 1.040106 1_555
H1 O1 1.540788 1_555
H2 O6 1.051842 1_555
H2 O4 1.479610 1_465
H3 O7 1.051842 1_556
H3 O5 1.479610 1_645
H4 O16 1.029119 1_555
H4 O5 1.557547 1_554
H5 O17 1.029119 1_555
H5 O4 1.557547 1_555
H6 O16 0.996354 1_555
H7 O17 0.996354 1_555
H8 O18 1.025613 1_555
H8 O0 1.614261 1_465
H9 O19 1.025613 1_555
H9 O1 1.614261 1_645
H10 O18 1.004512 1_555
H11 O19 1.004512 1_555
O0 Si1 1.637570 1_554
O1 Si0 1.637570 1_555
O2 Si2 1.693058 1_555
O3 Si3 1.693058 1_555
O4 Si2 1.642823 1_555
O5 Si3 1.642823 1_555
O6 Si0 1.707041 1_555
O7 Si1 1.707041 1_554
O8 Si3 1.646623 1_654
O9 Si2 1.646623 1_565
O10 Si3 1.624764 1_554
O11 Si2 1.624764 1_555
O12 Si0 1.650999 1_545
O13 Si1 1.650999 1_455
O14 Si0 1.635308 1_555
O15 Si1 1.635308 1_555
