# generated using pymatgen
data_NaMgPO4
_symmetry_space_group_name_H-M   'P 1'
_cell_length_a   6.93217300
_cell_length_b   8.89949700
_cell_length_c   15.50652800
_cell_angle_alpha   90.00000000
_cell_angle_beta   90.00000000
_cell_angle_gamma   90.00000000
_symmetry_Int_Tables_number   1
_chemical_formula_structural   NaMgPO4
_chemical_formula_sum   'Na12 Mg12 P12 O48'
_cell_volume   956.64194961
_cell_formula_units_Z   12
loop_
 _symmetry_equiv_pos_site_id
 _symmetry_equiv_pos_as_xyz
  1  'x, y, z'
loop_
 _atom_site_type_symbol
 _atom_site_label
 _atom_site_symmetry_multiplicity
 _atom_site_fract_x
 _atom_site_fract_y
 _atom_site_fract_z
 _atom_site_occupancy
  Na  Na0  1  0.44648100  0.60858300  0.15555800  1
  Na  Na1  1  0.94648100  0.89141700  0.84444200  1
  Na  Na2  1  0.55351900  0.10858300  0.34444200  1
  Na  Na3  1  0.05351900  0.39141700  0.65555800  1
  Na  Na4  1  0.53625500  0.59882800  0.48629300  1
  Na  Na5  1  0.03625500  0.90117200  0.51370700  1
  Na  Na6  1  0.46374500  0.09882800  0.01370700  1
  Na  Na7  1  0.96374500  0.40117200  0.98629300  1
  Na  Na8  1  0.52095200  0.60102300  0.81992500  1
  Na  Na9  1  0.02095200  0.89897700  0.18007500  1
  Na  Na10  1  0.47904800  0.10102300  0.68007500  1
  Na  Na11  1  0.97904800  0.39897700  0.31992500  1
  Mg  Mg0  1  0.30563200  0.26603500  0.48777700  1
  Mg  Mg1  1  0.80563200  0.23396500  0.51222300  1
  Mg  Mg2  1  0.69436800  0.76603500  0.01222300  1
  Mg  Mg3  1  0.19436800  0.73396500  0.98777700  1
  Mg  Mg4  1  0.70269500  0.27340400  0.15141600  1
  Mg  Mg5  1  0.20269500  0.22659600  0.84858400  1
  Mg  Mg6  1  0.29730500  0.77340400  0.34858400  1
  Mg  Mg7  1  0.79730500  0.72659600  0.65141600  1
  Mg  Mg8  1  0.72055000  0.25574500  0.82673100  1
  Mg  Mg9  1  0.22055000  0.24425500  0.17326900  1
  Mg  Mg10  1  0.27945000  0.75574500  0.67326900  1
  Mg  Mg11  1  0.77945000  0.74425500  0.32673100  1
  P  P0  1  0.53777900  0.42936700  0.64867000  1
  P  P1  1  0.03777900  0.07063300  0.35133000  1
  P  P2  1  0.46222100  0.92936700  0.85133000  1
  P  P3  1  0.96222100  0.57063300  0.14867000  1
  P  P4  1  0.47057600  0.43046300  0.98409300  1
  P  P5  1  0.97057600  0.06953700  0.01590700  1
  P  P6  1  0.52942400  0.93046300  0.51590700  1
  P  P7  1  0.02942400  0.56953700  0.48409300  1
  P  P8  1  0.49280200  0.43539500  0.31436700  1
  P  P9  1  0.99280200  0.06460500  0.68563300  1
  P  P10  1  0.50719800  0.93539500  0.18563300  1
  P  P11  1  0.00719800  0.56460500  0.81436700  1
  O  O0  1  0.01764700  0.63078400  0.57867800  1
  O  O1  1  0.51764700  0.86921600  0.42132200  1
  O  O2  1  0.98235300  0.13078400  0.92132200  1
  O  O3  1  0.48235300  0.36921600  0.07867800  1
  O  O4  1  0.83317500  0.63539700  0.76721400  1
  O  O5  1  0.33317500  0.86460300  0.23278600  1
  O  O6  1  0.16682500  0.13539700  0.73278600  1
  O  O7  1  0.66682500  0.36460300  0.26721400  1
  O  O8  1  0.77779700  0.61317100  0.09831100  1
  O  O9  1  0.27779700  0.88682900  0.90168900  1
  O  O10  1  0.22220300  0.11317100  0.40168900  1
  O  O11  1  0.72220300  0.38682900  0.59831100  1
  O  O12  1  0.84909900  0.61452200  0.43137200  1
  O  O13  1  0.34909900  0.88547800  0.56862800  1
  O  O14  1  0.15090100  0.11452200  0.06862800  1
  O  O15  1  0.65090100  0.38547800  0.93137200  1
  O  O16  1  0.98195900  0.38877900  0.81573400  1
  O  O17  1  0.48195900  0.11122100  0.18426600  1
  O  O18  1  0.01804100  0.88877900  0.68426600  1
  O  O19  1  0.51804100  0.61122100  0.31573400  1
  O  O20  1  0.21137600  0.63532900  0.44140700  1
  O  O21  1  0.01043500  0.62686300  0.90795000  1
  O  O22  1  0.98956500  0.12686300  0.59205000  1
  O  O23  1  0.48956500  0.37313700  0.40795000  1
  O  O24  1  0.04367200  0.39289900  0.48347400  1
  O  O25  1  0.54367200  0.10710100  0.51652600  1
  O  O26  1  0.95632800  0.89289900  0.01652600  1
  O  O27  1  0.45632800  0.60710100  0.98347400  1
  O  O28  1  0.95681500  0.63120800  0.24208900  1
  O  O29  1  0.45681500  0.86879200  0.75791100  1
  O  O30  1  0.04318500  0.13120800  0.25791100  1
  O  O31  1  0.54318500  0.36879200  0.74208900  1
  O  O32  1  0.97555700  0.39331800  0.14694700  1
  O  O33  1  0.47555700  0.10668200  0.85305300  1
  O  O34  1  0.02444300  0.89331800  0.35305300  1
  O  O35  1  0.52444300  0.60668200  0.64694700  1
  O  O36  1  0.36014700  0.36450700  0.60115100  1
  O  O37  1  0.86014700  0.13549300  0.39884900  1
  O  O38  1  0.63985300  0.86450700  0.89884900  1
  O  O39  1  0.13985300  0.63549300  0.10115100  1
  O  O40  1  0.30607800  0.39838000  0.26406300  1
  O  O41  1  0.80607800  0.10162000  0.73593700  1
  O  O42  1  0.69392200  0.89838000  0.23593700  1
  O  O43  1  0.19392200  0.60162000  0.76406300  1
  O  O44  1  0.28862400  0.36467100  0.94140700  1
  O  O45  1  0.78862400  0.13532900  0.05859300  1
  O  O46  1  0.71137600  0.86467100  0.55859300  1
  O  O47  1  0.51043500  0.87313700  0.09205000  1
loop_
_geom_bond_atom_site_label_1
_geom_bond_atom_site_label_2
_geom_bond_distance
_geom_bond_site_symmetry_2
Na0 O39 2.299411 1_555
Na0 O3 2.453770 1_555
Na0 O8 2.462660 1_555
Na0 O19 2.532936 1_555
Na0 O47 2.590279 1_555
Na0 O27 2.669331 1_554
Na0 O5 2.691165 1_555
Na0 O40 2.697732 1_555
Na1 O38 2.299411 1_555
Na1 O2 2.453770 1_565
Na1 O9 2.462660 1_655
Na1 O18 2.532936 1_655
Na1 O21 2.590279 1_655
Na1 O26 2.669331 1_556
Na1 O4 2.691165 1_555
Na1 O41 2.697732 1_565
Na2 O37 2.299411 1_555
Na2 O1 2.453770 1_545
Na2 O10 2.462660 1_555
Na2 O17 2.532936 1_555
Na2 O23 2.590279 1_555
Na2 O25 2.669331 1_555
Na2 O7 2.691165 1_555
Na2 O42 2.697732 1_545
Na3 O36 2.299411 1_555
Na3 O0 2.453770 1_555
Na3 O11 2.462660 1_455
Na3 O16 2.532936 1_455
Na3 O22 2.590279 1_455
Na3 O24 2.669331 1_555
Na3 O6 2.691165 1_555
Na3 O43 2.697732 1_555
Na4 O12 2.334095 1_555
Na4 O23 2.369553 1_555
Na4 O20 2.379497 1_555
Na4 O35 2.493511 1_555
Na4 O1 2.611897 1_555
Na4 O19 2.650086 1_555
Na4 O11 2.870255 1_555
Na4 O46 2.885822 1_555
Na5 O13 2.334095 1_555
Na5 O22 2.369553 1_465
Na5 O46 2.379497 1_455
Na5 O34 2.493511 1_555
Na5 O0 2.611897 1_555
Na5 O18 2.650086 1_555
Na5 O10 2.870255 1_565
Na5 O20 2.885822 1_555
Na6 O14 2.334095 1_555
Na6 O47 2.369553 1_545
Na6 O45 2.379497 1_555
Na6 O33 2.493511 1_554
Na6 O3 2.611897 1_555
Na6 O17 2.650086 1_555
Na6 O9 2.870255 1_544
Na6 O44 2.885822 1_554
Na7 O15 2.334095 1_555
Na7 O21 2.369553 1_655
Na7 O44 2.379497 1_655
Na7 O32 2.493511 1_556
Na7 O2 2.611897 1_555
Na7 O16 2.650086 1_555
Na7 O8 2.870255 1_556
Na7 O45 2.885822 1_556
Na8 O4 2.333715 1_555
Na8 O31 2.398318 1_555
Na8 O43 2.426890 1_555
Na8 O27 2.575908 1_555
Na8 O29 2.607897 1_555
Na8 O35 2.682870 1_555
Na8 O15 2.734533 1_555
Na8 O38 2.770486 1_555
Na9 O5 2.333715 1_555
Na9 O30 2.398318 1_565
Na9 O42 2.426890 1_455
Na9 O26 2.575908 1_455
Na9 O28 2.607897 1_455
Na9 O34 2.682870 1_555
Na9 O14 2.734533 1_565
Na9 O39 2.770486 1_555
Na10 O6 2.333715 1_555
Na10 O29 2.398318 1_545
Na10 O41 2.426890 1_555
Na10 O25 2.575908 1_555
Na10 O31 2.607897 1_555
Na10 O33 2.682870 1_555
Na10 O13 2.734533 1_545
Na10 O36 2.770486 1_555
Na11 O7 2.333715 1_555
Na11 O28 2.398318 1_555
Na11 O40 2.426890 1_655
Na11 O24 2.575908 1_655
Na11 O30 2.607897 1_655
Na11 O32 2.682870 1_555
Na11 O12 2.734533 1_555
Na11 O37 2.770486 1_555
Mg0 O10 1.991791 1_555
Mg0 O36 2.000375 1_555
Mg0 O23 2.016560 1_555
Mg0 O24 2.139353 1_555
Mg0 O25 2.218625 1_555
Mg1 O11 1.991791 1_555
Mg1 O37 2.000375 1_555
Mg1 O22 2.016560 1_555
Mg1 O25 2.139353 1_555
Mg1 O24 2.218625 1_655
Mg2 O8 1.991791 1_555
Mg2 O38 2.000375 1_554
Mg2 O47 2.016560 1_555
Mg2 O26 2.139353 1_555
Mg2 O27 2.218625 1_554
Mg3 O9 1.991791 1_555
Mg3 O39 2.000375 1_556
Mg3 O21 2.016560 1_555
Mg3 O27 2.139353 1_555
Mg3 O26 2.218625 1_456
Mg4 O45 1.984071 1_555
Mg4 O7 1.986161 1_555
Mg4 O3 2.081430 1_555
Mg4 O17 2.164297 1_555
Mg4 O32 2.172910 1_555
Mg5 O44 1.984071 1_555
Mg5 O6 1.986161 1_555
Mg5 O2 2.081430 1_455
Mg5 O16 2.164297 1_455
Mg5 O33 2.172910 1_555
Mg6 O20 1.984071 1_555
Mg6 O5 1.986161 1_555
Mg6 O1 2.081430 1_555
Mg6 O19 2.164297 1_555
Mg6 O34 2.172910 1_555
Mg7 O46 1.984071 1_555
Mg7 O4 1.986161 1_555
Mg7 O0 2.081430 1_655
Mg7 O18 2.164297 1_655
Mg7 O35 2.172910 1_555
Mg8 O15 2.049149 1_555
Mg8 O41 2.053068 1_555
Mg8 O31 2.060717 1_555
Mg8 O16 2.171314 1_555
Mg8 O33 2.193345 1_555
Mg8 O2 2.584939 1_555
Mg9 O14 2.049149 1_555
Mg9 O40 2.053068 1_555
Mg9 O30 2.060717 1_555
Mg9 O17 2.171314 1_555
Mg9 O32 2.193345 1_455
Mg9 O3 2.584939 1_555
Mg10 O13 2.049149 1_555
Mg10 O43 2.053068 1_555
Mg10 O29 2.060717 1_555
Mg10 O18 2.171314 1_555
Mg10 O35 2.193345 1_555
Mg10 O0 2.584939 1_555
Mg11 O12 2.049149 1_555
Mg11 O42 2.053068 1_555
Mg11 O28 2.060717 1_555
Mg11 O19 2.171314 1_555
Mg11 O34 2.193345 1_655
Mg11 O1 2.584939 1_555
O0 P7 1.566821 1_555
O1 P6 1.566821 1_555
O2 P5 1.566821 1_556
O3 P4 1.566821 1_554
O4 P11 1.544940 1_655
O5 P10 1.544940 1_555
O6 P9 1.544940 1_455
O7 P8 1.544940 1_555
O8 P3 1.545175 1_555
O9 P2 1.545175 1_555
O10 P1 1.545175 1_555
O11 P0 1.545175 1_555
O12 P7 1.546358 1_655
O13 P6 1.546358 1_555
O14 P5 1.546358 1_455
O15 P4 1.546358 1_555
O16 P11 1.574657 1_655
O17 P10 1.574657 1_545
O18 P9 1.574657 1_465
O19 P8 1.574657 1_555
O20 P7 1.540094 1_555
O21 P11 1.553486 1_555
O22 P9 1.553486 1_555
O23 P8 1.553486 1_555
O24 P7 1.575118 1_555
O25 P6 1.575118 1_545
O26 P5 1.575118 1_565
O27 P4 1.575118 1_555
O28 P3 1.546116 1_555
O29 P2 1.546116 1_555
O30 P1 1.546116 1_555
O31 P0 1.546116 1_555
O32 P3 1.580946 1_555
O33 P2 1.580946 1_545
O34 P1 1.580946 1_565
O35 P0 1.580946 1_555
O36 P0 1.546747 1_555
O37 P1 1.546747 1_655
O38 P2 1.546747 1_555
O39 P3 1.546747 1_455
O40 P8 1.546757 1_555
O41 P9 1.546757 1_555
O42 P10 1.546757 1_555
O43 P11 1.546757 1_555
O44 P4 1.540094 1_555
O45 P5 1.540094 1_555
O46 P6 1.540094 1_555
O47 P10 1.553486 1_555
