# generated using pymatgen
data_Na6Ga5Si7H15O32
_symmetry_space_group_name_H-M   'P 1'
_cell_length_a   8.77372100
_cell_length_b   9.27820371
_cell_length_c   9.31162413
_cell_angle_alpha   90.62998478
_cell_angle_beta   90.25447648
_cell_angle_gamma   90.17786773
_symmetry_Int_Tables_number   1
_chemical_formula_structural   Na6Ga5Si7H15O32
_chemical_formula_sum   'Na6 Ga5 Si7 H15 O32'
_cell_volume   757.94983851
_cell_formula_units_Z   1
loop_
 _symmetry_equiv_pos_site_id
 _symmetry_equiv_pos_as_xyz
  1  'x, y, z'
loop_
 _atom_site_type_symbol
 _atom_site_label
 _atom_site_symmetry_multiplicity
 _atom_site_fract_x
 _atom_site_fract_y
 _atom_site_fract_z
 _atom_site_occupancy
  Na  Na0  1  0.35216200  0.38170000  0.37826400  1
  Na  Na1  1  0.34945500  0.63695400  0.62168900  1
  Na  Na2  1  0.62526100  0.65093400  0.34079500  1
  Na  Na3  1  0.62249900  0.33118700  0.65815900  1
  Na  Na4  1  0.88471600  0.13417600  0.13233200  1
  Na  Na5  1  0.97413700  0.89493700  0.87302100  1
  Ga  Ga0  1  0.02877400  0.25891800  0.50482200  1
  Ga  Ga1  1  0.36773600  0.96828600  0.79351100  1
  Ga  Ga2  1  0.46091600  0.00608100  0.23038300  1
  Ga  Ga3  1  0.75414600  0.49934200  0.00445700  1
  Ga  Ga4  1  0.75210300  0.99405300  0.50386500  1
  Si  Si0  1  0.00472400  0.50106500  0.74587500  1
  Si  Si1  1  0.25024500  0.49646300  0.99632000  1
  Si  Si2  1  0.24838300  0.98881300  0.49950600  1
  Si  Si3  1  0.48661800  0.24813800  0.99687300  1
  Si  Si4  1  0.49195500  0.74080900  0.00134800  1
  Si  Si5  1  0.01969300  0.50085600  0.25258200  1
  Si  Si6  1  0.00738700  0.73612400  0.49494800  1
  H  H0  1  0.17889200  0.12593500  0.21694200  1
  H  H1  1  0.32417800  0.68202300  0.31653200  1
  H  H2  1  0.33588200  0.32551600  0.68630500  1
  H  H3  1  0.59753500  0.28377900  0.27076000  1
  H  H4  1  0.58878200  0.76598700  0.77526800  1
  H  H5  1  0.76872900  0.23398500  0.40143200  1
  H  H6  1  0.72441000  0.72201200  0.61542600  1
  H  H7  1  0.72972100  0.39643600  0.27889600  1
  H  H8  1  0.72507200  0.60976700  0.73522400  1
  H  H9  1  0.78008900  0.77920100  0.09715700  1
  H  H10  1  0.77196300  0.22078100  0.89674100  1
  H  H11  1  0.72327900  0.91336200  0.25904700  1
  H  H12  1  0.72172000  0.07486600  0.74176900  1
  H  H13  1  0.94123400  0.82100100  0.16720300  1
  H  H14  1  0.93069100  0.19564800  0.82356800  1
  O  O0  1  0.08459400  0.38989800  0.36988400  1
  O  O1  1  0.05224400  0.62408200  0.62601700  1
  O  O2  1  0.12127200  0.16106300  0.13518700  1
  O  O3  1  0.20763200  0.86486800  0.83376400  1
  O  O4  1  0.14250600  0.55091900  0.13023800  1
  O  O5  1  0.14422000  0.46097700  0.85522100  1
  O  O6  1  0.13777300  0.85028600  0.45089200  1
  O  O7  1  0.13716600  0.10999800  0.57388900  1
  O  O8  1  0.32080800  0.06401900  0.35597300  1
  O  O9  1  0.38954500  0.93165900  0.59520700  1
  O  O10  1  0.35840600  0.36535200  0.04761800  1
  O  O11  1  0.37093000  0.62058500  0.94684500  1
  O  O12  1  0.38496900  0.61978500  0.37646900  1
  O  O13  1  0.38261200  0.39028100  0.61806500  1
  O  O14  1  0.42704500  0.85442900  0.11466100  1
  O  O15  1  0.43862000  0.14181000  0.86861900  1
  O  O16  1  0.54675800  0.16773900  0.14580500  1
  O  O17  1  0.55358600  0.83128500  0.85833700  1
  O  O18  1  0.64862400  0.35272100  0.34261700  1
  O  O19  1  0.65238400  0.65267800  0.66437200  1
  O  O20  1  0.64489400  0.65867100  0.07077100  1
  O  O21  1  0.64176900  0.34128100  0.94139800  1
  O  O22  1  0.64422700  0.93295200  0.33479100  1
  O  O23  1  0.65371200  0.06404900  0.65741100  1
  O  O24  1  0.85352200  0.82382000  0.54597600  1
  O  O25  1  0.85020500  0.16076900  0.42405600  1
  O  O26  1  0.86146500  0.44738700  0.16887700  1
  O  O27  1  0.86335500  0.56480700  0.84618200  1
  O  O28  1  0.85210800  0.86230000  0.11737300  1
  O  O29  1  0.85110300  0.14447000  0.87700700  1
  O  O30  1  0.96135500  0.64640400  0.34526900  1
  O  O31  1  0.94270400  0.35652300  0.66218900  1
loop_
_geom_bond_atom_site_label_1
_geom_bond_atom_site_label_2
_geom_bond_distance
_geom_bond_site_symmetry_2
Na0 O12 2.227044 1_555
Na0 O13 2.248195 1_555
Na0 O0 2.350012 1_555
Na1 O13 2.307890 1_555
Na1 O12 2.309760 1_555
Na1 O1 2.610520 1_555
Na1 O19 2.688896 1_555
Na1 O9 2.769608 1_555
Na2 O12 2.154799 1_555
Na2 O20 2.522812 1_555
Na3 O13 2.207817 1_555
Na3 O23 2.494426 1_555
Na3 O21 2.642692 1_555
Na3 O31 2.818529 1_555
Na4 O2 2.089663 1_655
Na5 O3 2.101490 1_655
Na5 O28 2.539649 1_556
Na5 O29 2.557507 1_565
Ga0 O7 1.802610 1_555
Ga0 O0 1.825056 1_555
Ga0 O31 1.876830 1_455
Ga0 O25 1.953224 1_455
Ga1 O3 1.743163 1_555
Ga1 O15 1.852873 1_565
Ga1 O9 1.884549 1_555
Ga1 O17 2.158697 1_555
Ga2 O8 1.780653 1_555
Ga2 O14 1.786191 1_545
Ga2 O16 1.860486 1_555
Ga2 O22 1.999911 1_545
Ga3 O21 1.853251 1_554
Ga3 O26 1.862582 1_555
Ga3 O20 1.865321 1_555
Ga3 O27 1.867542 1_554
Ga4 O23 1.790314 1_565
Ga4 O24 1.859965 1_555
Ga4 O22 1.913006 1_555
Ga4 O25 1.925740 1_565
H0 O2 0.971800 1_555
H1 O12 0.967355 1_555
H2 O13 0.970632 1_555
H3 O18 1.021728 1_555
H3 O16 1.635944 1_555
H4 O17 1.026499 1_555
H4 O19 1.570933 1_555
H5 O25 1.010781 1_555
H6 O19 1.013596 1_555
H6 O24 1.614617 1_555
H7 O18 1.014930 1_555
H7 O26 1.620751 1_555
H8 O19 1.002054 1_555
H8 O27 1.647722 1_555
H9 O28 1.010883 1_555
H9 O20 1.643497 1_555
H10 O29 1.009218 1_555
H10 O21 1.652160 1_555
H11 O22 1.006900 1_555
H12 O23 0.988363 1_555
H13 O28 0.987998 1_555
H14 O29 0.983313 1_555
O0 Si5 1.612450 1_555
O1 Si6 1.658693 1_555
O1 Si0 1.658728 1_555
O4 Si5 1.641365 1_555
O4 Si1 1.644201 1_554
O5 Si0 1.634951 1_555
O5 Si1 1.636367 1_555
O6 Si6 1.614033 1_555
O6 Si2 1.665598 1_555
O7 Si2 1.640674 1_545
O8 Si2 1.643859 1_545
O9 Si2 1.616758 1_555
O10 Si1 1.620015 1_554
O10 Si3 1.634752 1_554
O11 Si4 1.613920 1_556
O11 Si1 1.633430 1_555
O14 Si4 1.591713 1_555
O15 Si3 1.594953 1_555
O16 Si3 1.666365 1_554
O17 Si4 1.672892 1_556
O20 Si4 1.675916 1_555
O21 Si3 1.695713 1_555
O24 Si6 1.647497 1_655
O26 Si5 1.660863 1_655
O27 Si0 1.662313 1_655
O30 Si6 1.663136 1_655
O30 Si5 1.677229 1_655
O31 Si0 1.634189 1_655
