# generated using pymatgen
data_Ba21(Cd2Sb9)2
_symmetry_space_group_name_H-M   'P 1'
_cell_length_a   13.36795563
_cell_length_b   13.36795563
_cell_length_c   37.83666300
_cell_angle_alpha   90.00000000
_cell_angle_beta   90.00000000
_cell_angle_gamma   92.65293406
_symmetry_Int_Tables_number   1
_chemical_formula_structural   Ba21(Cd2Sb9)2
_chemical_formula_sum   'Ba84 Cd16 Sb72'
_cell_volume   6754.24960240
_cell_formula_units_Z   4
loop_
 _symmetry_equiv_pos_site_id
 _symmetry_equiv_pos_as_xyz
  1  'x, y, z'
loop_
 _atom_site_type_symbol
 _atom_site_label
 _atom_site_symmetry_multiplicity
 _atom_site_fract_x
 _atom_site_fract_y
 _atom_site_fract_z
 _atom_site_occupancy
  Ba  Ba0  1  0.89548500  0.10451500  0.37781700  1
  Ba  Ba1  1  0.76751400  0.89267100  0.67019100  1
  Ba  Ba2  1  0.56353400  0.75775000  0.32292200  1
  Ba  Ba3  1  0.39267100  0.26751400  0.17019100  1
  Ba  Ba4  1  0.06345900  0.24202400  0.07565900  1
  Ba  Ba5  1  0.32306800  0.00170000  0.53144700  1
  Ba  Ba6  1  0.49830000  0.17693200  0.96855300  1
  Ba  Ba7  1  0.93654100  0.75797600  0.92434100  1
  Ba  Ba8  1  0.48548400  0.26949000  0.27749400  1
  Ba  Ba9  1  0.26751400  0.39267100  0.82980900  1
  Ba  Ba10  1  0.10451500  0.89548500  0.62218300  1
  Ba  Ba11  1  0.75564200  0.24435800  0.54246500  1
  Ba  Ba12  1  0.41171000  0.93992600  0.12909800  1
  Ba  Ba13  1  0.92454600  0.82440100  0.43928100  1
  Ba  Ba14  1  0.24225000  0.43646600  0.32292200  1
  Ba  Ba15  1  0.26900700  0.73099300  0.79610200  1
  Ba  Ba16  1  0.00731900  0.72980300  0.71870400  1
  Ba  Ba17  1  0.25564200  0.74435800  0.95753500  1
  Ba  Ba18  1  0.98809200  0.77310100  0.03907800  1
  Ba  Ba19  1  0.60451500  0.39548500  0.87781700  1
  Ba  Ba20  1  0.74202400  0.56345900  0.57565900  1
  Ba  Ba21  1  0.56007400  0.08829000  0.37090200  1
  Ba  Ba22  1  0.73051000  0.51451600  0.27749400  1
  Ba  Ba23  1  0.27019700  0.99268100  0.71870400  1
  Ba  Ba24  1  0.32440100  0.42454600  0.93928100  1
  Ba  Ba25  1  0.06353400  0.25775000  0.17707800  1
  Ba  Ba26  1  0.74225000  0.93646600  0.17707800  1
  Ba  Ba27  1  0.89267100  0.76751400  0.32980900  1
  Ba  Ba28  1  0.43654100  0.25797600  0.57565900  1
  Ba  Ba29  1  0.98548400  0.76949000  0.22250600  1
  Ba  Ba30  1  0.76900700  0.23099300  0.70389800  1
  Ba  Ba31  1  0.93646600  0.74225000  0.82292200  1
  Ba  Ba32  1  0.72689900  0.51190800  0.46092200  1
  Ba  Ba33  1  0.73099300  0.26900700  0.20389800  1
  Ba  Ba34  1  0.77019700  0.49268100  0.78129600  1
  Ba  Ba35  1  0.43646600  0.24225000  0.67707800  1
  Ba  Ba36  1  0.77310100  0.98809200  0.96092200  1
  Ba  Ba37  1  0.60732900  0.73248600  0.82980900  1
  Ba  Ba38  1  0.51451600  0.73051000  0.72250600  1
  Ba  Ba39  1  0.48809200  0.27310100  0.46092200  1
  Ba  Ba40  1  0.25775000  0.06353400  0.82292200  1
  Ba  Ba41  1  0.23248600  0.10732900  0.32980900  1
  Ba  Ba42  1  0.26949000  0.48548400  0.72250600  1
  Ba  Ba43  1  0.99830000  0.67693200  0.53144700  1
  Ba  Ba44  1  0.17693200  0.49830000  0.03144700  1
  Ba  Ba45  1  0.91171000  0.43992600  0.37090200  1
  Ba  Ba46  1  0.56345900  0.74202400  0.42434100  1
  Ba  Ba47  1  0.24435800  0.75564200  0.45753500  1
  Ba  Ba48  1  0.93992600  0.41171000  0.87090200  1
  Ba  Ba49  1  0.82306800  0.50170000  0.96855300  1
  Ba  Ba50  1  0.01190800  0.22689900  0.96092200  1
  Ba  Ba51  1  0.39548500  0.60451500  0.12218300  1
  Ba  Ba52  1  0.74435800  0.25564200  0.04246500  1
  Ba  Ba53  1  0.75797600  0.93654100  0.07565900  1
  Ba  Ba54  1  0.75775000  0.56353400  0.67707800  1
  Ba  Ba55  1  0.17559900  0.07545400  0.43928100  1
  Ba  Ba56  1  0.10732900  0.23248600  0.67019100  1
  Ba  Ba57  1  0.42454600  0.32440100  0.06071900  1
  Ba  Ba58  1  0.73248600  0.60732900  0.17019100  1
  Ba  Ba59  1  0.24202400  0.06345900  0.92434100  1
  Ba  Ba60  1  0.23099300  0.76900700  0.29610200  1
  Ba  Ba61  1  0.01451600  0.23051000  0.77749400  1
  Ba  Ba62  1  0.00170000  0.32306800  0.46855300  1
  Ba  Ba63  1  0.50170000  0.82306800  0.03144700  1
  Ba  Ba64  1  0.27310100  0.48809200  0.53907800  1
  Ba  Ba65  1  0.82440100  0.92454600  0.56071900  1
  Ba  Ba66  1  0.22980300  0.50731900  0.21870400  1
  Ba  Ba67  1  0.43992600  0.91171000  0.62909800  1
  Ba  Ba68  1  0.23051000  0.01451600  0.22250600  1
  Ba  Ba69  1  0.67693200  0.99830000  0.46855300  1
  Ba  Ba70  1  0.72980300  0.00731900  0.28129600  1
  Ba  Ba71  1  0.50731900  0.22980300  0.78129600  1
  Ba  Ba72  1  0.57545400  0.67559900  0.93928100  1
  Ba  Ba73  1  0.07545400  0.17559900  0.56071900  1
  Ba  Ba74  1  0.67559900  0.57545400  0.06071900  1
  Ba  Ba75  1  0.58829000  0.06007400  0.87090200  1
  Ba  Ba76  1  0.22689900  0.01190800  0.03907800  1
  Ba  Ba77  1  0.51190800  0.72689900  0.53907800  1
  Ba  Ba78  1  0.76949000  0.98548400  0.77749400  1
  Ba  Ba79  1  0.49268100  0.77019700  0.21870400  1
  Ba  Ba80  1  0.99268100  0.27019700  0.28129600  1
  Ba  Ba81  1  0.06007400  0.58829000  0.12909800  1
  Ba  Ba82  1  0.08829000  0.56007400  0.62909800  1
  Ba  Ba83  1  0.25797600  0.43654100  0.42434100  1
  Cd  Cd0  1  0.61139400  0.15235700  0.12692800  1
  Cd  Cd1  1  0.34764300  0.88860600  0.37307200  1
  Cd  Cd2  1  0.49037500  0.50962500  0.35438900  1
  Cd  Cd3  1  0.50962500  0.49037500  0.64561100  1
  Cd  Cd4  1  0.00962500  0.99037500  0.85438900  1
  Cd  Cd5  1  0.88860600  0.34764300  0.62692800  1
  Cd  Cd6  1  0.64847800  0.35152200  0.37307100  1
  Cd  Cd7  1  0.14847800  0.85152200  0.12692900  1
  Cd  Cd8  1  0.15235700  0.61139400  0.87307200  1
  Cd  Cd9  1  0.65235700  0.11139400  0.62692800  1
  Cd  Cd10  1  0.85152200  0.14847800  0.87307100  1
  Cd  Cd11  1  0.38860600  0.84764300  0.87307200  1
  Cd  Cd12  1  0.11139400  0.65235700  0.37307200  1
  Cd  Cd13  1  0.84764300  0.38860600  0.12692800  1
  Cd  Cd14  1  0.99037500  0.00962500  0.14561100  1
  Cd  Cd15  1  0.35152200  0.64847800  0.62692900  1
  Sb  Sb0  1  0.37922600  0.62077400  0.87622800  1
  Sb  Sb1  1  0.46655300  0.92075100  0.94260100  1
  Sb  Sb2  1  0.53523900  0.07114600  0.20092900  1
  Sb  Sb3  1  0.25722300  0.74277700  0.68937600  1
  Sb  Sb4  1  0.02245100  0.97754900  0.28836900  1
  Sb  Sb5  1  0.75444400  0.75444400  0.00000000  1
  Sb  Sb6  1  0.25469800  0.74530200  0.56348100  1
  Sb  Sb7  1  0.19736100  0.07521000  0.13002400  1
  Sb  Sb8  1  0.53344700  0.07924900  0.05739900  1
  Sb  Sb9  1  0.42075100  0.96655300  0.44260100  1
  Sb  Sb10  1  0.24555600  0.24555600  0.00000000  1
  Sb  Sb11  1  0.24277700  0.75722300  0.18937600  1
  Sb  Sb12  1  0.59415700  0.76983700  0.12177600  1
  Sb  Sb13  1  0.75469800  0.24530200  0.93651900  1
  Sb  Sb14  1  0.06956400  0.93043600  0.51593700  1
  Sb  Sb15  1  0.73667600  0.76332400  0.25000000  1
  Sb  Sb16  1  0.96655300  0.42075100  0.55739900  1
  Sb  Sb17  1  0.24530200  0.75469800  0.06348100  1
  Sb  Sb18  1  0.12077400  0.87922600  0.37622800  1
  Sb  Sb19  1  0.23667600  0.26332400  0.25000000  1
  Sb  Sb20  1  0.42479000  0.30263900  0.36997600  1
  Sb  Sb21  1  0.57114600  0.03523900  0.70092900  1
  Sb  Sb22  1  0.23016300  0.40584300  0.12177600  1
  Sb  Sb23  1  0.69736100  0.57521000  0.36997600  1
  Sb  Sb24  1  0.07521000  0.19736100  0.86997600  1
  Sb  Sb25  1  0.92479000  0.80263900  0.13002400  1
  Sb  Sb26  1  0.07924900  0.53344700  0.94260100  1
  Sb  Sb27  1  0.03523900  0.57114600  0.29907100  1
  Sb  Sb28  1  0.45484000  0.54516000  0.47004600  1
  Sb  Sb29  1  0.95484000  0.04516000  0.02995400  1
  Sb  Sb30  1  0.76983700  0.59415700  0.87822400  1
  Sb  Sb31  1  0.54516000  0.45484000  0.52995400  1
  Sb  Sb32  1  0.93043600  0.06956400  0.48406300  1
  Sb  Sb33  1  0.15938000  0.84062000  0.87484000  1
  Sb  Sb34  1  0.57924900  0.03344700  0.55739900  1
  Sb  Sb35  1  0.96476100  0.42885400  0.70092900  1
  Sb  Sb36  1  0.93923500  0.06076500  0.22311200  1
  Sb  Sb37  1  0.75722300  0.24277700  0.81062400  1
  Sb  Sb38  1  0.34062000  0.65938000  0.37484000  1
  Sb  Sb39  1  0.84062000  0.15938000  0.12516000  1
  Sb  Sb40  1  0.06076500  0.93923500  0.77688800  1
  Sb  Sb41  1  0.40584300  0.23016300  0.87822400  1
  Sb  Sb42  1  0.90584300  0.73016300  0.62177600  1
  Sb  Sb43  1  0.52245100  0.47754900  0.21163100  1
  Sb  Sb44  1  0.92885400  0.46476100  0.20092900  1
  Sb  Sb45  1  0.62077400  0.37922600  0.12377200  1
  Sb  Sb46  1  0.74530200  0.25469800  0.43651900  1
  Sb  Sb47  1  0.26332400  0.23667600  0.75000000  1
  Sb  Sb48  1  0.25444400  0.25444400  0.50000000  1
  Sb  Sb49  1  0.04516000  0.95484000  0.97004600  1
  Sb  Sb50  1  0.09415700  0.26983700  0.37822400  1
  Sb  Sb51  1  0.43043600  0.56956400  0.01593700  1
  Sb  Sb52  1  0.74277700  0.25722300  0.31062400  1
  Sb  Sb53  1  0.76332400  0.73667600  0.75000000  1
  Sb  Sb54  1  0.07114600  0.53523900  0.79907100  1
  Sb  Sb55  1  0.26983700  0.09415700  0.62177600  1
  Sb  Sb56  1  0.56956400  0.43043600  0.98406300  1
  Sb  Sb57  1  0.56076500  0.43923500  0.72311200  1
  Sb  Sb58  1  0.92075100  0.46655300  0.05739900  1
  Sb  Sb59  1  0.74555600  0.74555600  0.50000000  1
  Sb  Sb60  1  0.97754900  0.02245100  0.71163100  1
  Sb  Sb61  1  0.42885400  0.96476100  0.29907100  1
  Sb  Sb62  1  0.47754900  0.52245100  0.78836900  1
  Sb  Sb63  1  0.30263900  0.42479000  0.63002400  1
  Sb  Sb64  1  0.03344700  0.57924900  0.44260100  1
  Sb  Sb65  1  0.87922600  0.12077400  0.62377200  1
  Sb  Sb66  1  0.65938000  0.34062000  0.62516000  1
  Sb  Sb67  1  0.73016300  0.90584300  0.37822400  1
  Sb  Sb68  1  0.57521000  0.69736100  0.63002400  1
  Sb  Sb69  1  0.46476100  0.92885400  0.79907100  1
  Sb  Sb70  1  0.43923500  0.56076500  0.27688800  1
  Sb  Sb71  1  0.80263900  0.92479000  0.86997600  1
loop_
_geom_bond_atom_site_label_1
_geom_bond_atom_site_label_2
_geom_bond_distance
_geom_bond_site_symmetry_2
Ba0 Sb50 3.375581 1_655
Ba0 Sb67 3.375581 1_545
Ba0 Sb46 3.656171 1_555
Ba0 Sb52 3.896657 1_555
Ba0 Sb32 4.076415 1_555
Ba0 Sb4 4.181199 1_645
Ba1 Sb42 3.444759 1_555
Ba1 Sb21 3.512665 1_565
Ba1 Sb60 3.591767 1_565
Ba1 Sb53 3.668729 1_555
Ba1 Cd9 3.743670 1_565
Ba1 Sb65 3.767143 1_565
Ba1 Sb68 3.887641 1_555
Ba2 Sb61 3.489280 1_555
Ba2 Sb70 3.510543 1_555
Ba2 Sb23 3.567749 1_555
Ba2 Sb67 3.584832 1_555
Ba2 Sb15 3.599934 1_555
Ba2 Cd2 3.616032 1_555
Ba2 Sb38 3.755689 1_555
Ba2 Cd1 3.931536 1_555
Ba3 Sb22 3.444759 1_555
Ba3 Sb2 3.512665 1_555
Ba3 Sb43 3.591767 1_555
Ba3 Sb19 3.668729 1_555
Ba3 Cd0 3.743670 1_555
Ba3 Sb45 3.767143 1_555
Ba3 Sb7 3.887641 1_555
Ba4 Sb29 3.416263 1_455
Ba4 Sb22 3.514954 1_555
Ba4 Sb7 3.574568 1_555
Ba4 Sb39 3.646600 1_455
Ba4 Sb58 3.695368 1_455
Ba4 Sb10 3.756620 1_555
Ba5 Sb14 3.526649 1_545
Ba5 Sb34 3.569000 1_555
Ba5 Sb9 3.644629 1_545
Ba5 Sb6 3.709758 1_545
Ba5 Sb55 3.714347 1_555
Ba5 Sb48 3.736259 1_555
Ba6 Sb56 3.526649 1_555
Ba6 Sb1 3.569000 1_545
Ba6 Sb8 3.644629 1_556
Ba6 Sb13 3.709758 1_555
Ba6 Sb41 3.714347 1_555
Ba6 Sb10 3.736259 1_556
Ba7 Sb49 3.416263 1_655
Ba7 Sb30 3.514954 1_555
Ba7 Sb71 3.574568 1_555
Ba7 Sb33 3.646600 1_655
Ba7 Sb26 3.695368 1_655
Ba7 Sb5 3.756620 1_556
Ba8 Sb19 3.482275 1_555
Ba8 Sb20 3.623868 1_555
Ba8 Sb52 3.671576 1_555
Ba8 Sb43 3.750063 1_555
Ba8 Sb70 3.970757 1_555
Ba8 Sb2 4.003530 1_555
Ba8 Sb61 4.189078 1_545
Ba9 Sb41 3.444759 1_555
Ba9 Sb54 3.512665 1_555
Ba9 Sb62 3.591767 1_555
Ba9 Sb47 3.668729 1_555
Ba9 Cd8 3.743670 1_555
Ba9 Sb0 3.767143 1_555
Ba9 Sb24 3.887641 1_555
Ba10 Sb55 3.375581 1_565
Ba10 Sb42 3.375581 1_455
Ba10 Sb6 3.656171 1_555
Ba10 Sb3 3.896657 1_555
Ba10 Sb14 4.076415 1_555
Ba10 Sb60 4.181199 1_465
Ba11 Sb34 3.635019 1_555
Ba11 Sb16 3.635019 1_555
Ba11 Sb66 3.640765 1_555
Ba11 Cd9 3.879646 1_555
Ba11 Cd5 3.879646 1_555
Ba11 Sb65 3.895568 1_555
Ba11 Sb46 4.013627 1_555
Ba11 Sb32 4.038332 1_555
Ba11 Sb31 4.097676 1_555
Ba12 Sb12 3.421763 1_555
Ba12 Sb7 3.458622 1_565
Ba12 Sb2 3.594780 1_565
Ba12 Sb8 3.632644 1_565
Ba12 Cd7 3.660717 1_555
Ba12 Cd0 3.807206 1_565
Ba12 Sb11 3.969397 1_555
Ba12 Sb17 4.090692 1_555
Ba13 Sb59 3.446835 1_555
Ba13 Sb18 3.596083 1_655
Ba13 Sb64 3.649198 1_655
Ba13 Sb67 3.679184 1_555
Ba13 Sb32 3.687030 1_565
Ba13 Sb14 3.731669 1_655
Ba14 Sb27 3.489280 1_555
Ba14 Sb70 3.510543 1_555
Ba14 Sb20 3.567749 1_555
Ba14 Sb50 3.584832 1_555
Ba14 Sb19 3.599934 1_555
Ba14 Cd2 3.616032 1_555
Ba14 Sb38 3.755689 1_555
Ba14 Cd12 3.931536 1_555
Ba15 Sb69 3.635340 1_555
Ba15 Sb54 3.635340 1_555
Ba15 Cd11 3.638463 1_555
Ba15 Cd8 3.638463 1_555
Ba15 Sb33 3.656455 1_555
Ba15 Sb0 3.705942 1_555
Ba15 Sb62 4.043326 1_555
Ba15 Sb3 4.044580 1_555
Ba15 Sb40 4.092022 1_555
Ba16 Sb53 3.475218 1_455
Ba16 Sb3 3.516836 1_555
Ba16 Sb40 3.606943 1_555
Ba16 Sb42 3.910352 1_455
Ba16 Sb60 3.959632 1_465
Ba16 Sb35 4.092581 1_455
Ba16 Sb54 4.116410 1_555
Ba17 Sb26 3.635019 1_555
Ba17 Sb1 3.635019 1_555
Ba17 Sb33 3.640765 1_555
Ba17 Cd11 3.879646 1_555
Ba17 Cd8 3.879646 1_555
Ba17 Sb0 3.895568 1_555
Ba17 Sb17 4.013627 1_556
Ba17 Sb51 4.038332 1_556
Ba17 Sb49 4.097676 1_555
Ba18 Sb5 3.454258 1_555
Ba18 Sb25 3.569882 1_555
Ba18 Sb17 3.579631 1_655
Ba18 Sb49 3.624226 1_654
Ba18 Sb29 3.700441 1_565
Ba18 Sb58 4.212169 1_555
Ba19 Sb30 3.375581 1_555
Ba19 Sb41 3.375581 1_555
Ba19 Sb13 3.656171 1_555
Ba19 Sb37 3.896657 1_555
Ba19 Sb56 4.076415 1_555
Ba19 Sb62 4.181199 1_555
Ba20 Sb31 3.416263 1_555
Ba20 Sb42 3.514954 1_555
Ba20 Sb68 3.574568 1_555
Ba20 Sb66 3.646600 1_555
Ba20 Sb16 3.695368 1_555
Ba20 Sb59 3.756620 1_555
Ba21 Sb67 3.421763 1_545
Ba21 Sb20 3.458622 1_555
Ba21 Sb61 3.594780 1_545
Ba21 Sb9 3.632644 1_545
Ba21 Cd6 3.660717 1_555
Ba21 Cd1 3.807206 1_545
Ba21 Sb52 3.969397 1_555
Ba21 Sb46 4.090692 1_555
Ba22 Sb15 3.482275 1_555
Ba22 Sb23 3.623868 1_555
Ba22 Sb52 3.671576 1_555
Ba22 Sb43 3.750063 1_555
Ba22 Sb70 3.970757 1_555
Ba22 Sb44 4.003530 1_555
Ba22 Sb27 4.189078 1_655
Ba23 Sb47 3.475218 1_565
Ba23 Sb3 3.516836 1_555
Ba23 Sb40 3.606943 1_555
Ba23 Sb55 3.910352 1_565
Ba23 Sb60 3.959632 1_465
Ba23 Sb21 4.092581 1_565
Ba23 Sb69 4.116410 1_555
Ba24 Sb10 3.446835 1_556
Ba24 Sb0 3.596083 1_555
Ba24 Sb26 3.649198 1_555
Ba24 Sb41 3.679184 1_555
Ba24 Sb56 3.687030 1_555
Ba24 Sb51 3.731669 1_556
Ba25 Sb44 3.489280 1_455
Ba25 Sb36 3.510543 1_455
Ba25 Sb7 3.567749 1_555
Ba25 Sb22 3.584832 1_555
Ba25 Sb19 3.599934 1_555
Ba25 Cd14 3.616032 1_455
Ba25 Sb39 3.755689 1_455
Ba25 Cd13 3.931536 1_455
Ba26 Sb2 3.489280 1_565
Ba26 Sb36 3.510543 1_565
Ba26 Sb25 3.567749 1_555
Ba26 Sb12 3.584832 1_555
Ba26 Sb15 3.599934 1_555
Ba26 Cd14 3.616032 1_565
Ba26 Sb39 3.755689 1_565
Ba26 Cd0 3.931536 1_565
Ba27 Sb67 3.444759 1_555
Ba27 Sb27 3.512665 1_655
Ba27 Sb4 3.591767 1_655
Ba27 Sb15 3.668729 1_555
Ba27 Cd12 3.743670 1_655
Ba27 Sb18 3.767143 1_655
Ba27 Sb23 3.887641 1_555
Ba28 Sb31 3.416263 1_555
Ba28 Sb55 3.514954 1_555
Ba28 Sb63 3.574568 1_555
Ba28 Sb66 3.646600 1_555
Ba28 Sb34 3.695368 1_555
Ba28 Sb48 3.756620 1_555
Ba29 Sb15 3.482275 1_555
Ba29 Sb25 3.623868 1_555
Ba29 Sb11 3.671576 1_655
Ba29 Sb4 3.750063 1_655
Ba29 Sb36 3.970757 1_565
Ba29 Sb27 4.003530 1_655
Ba29 Sb44 4.189078 1_555
Ba30 Sb35 3.635340 1_555
Ba30 Sb21 3.635340 1_555
Ba30 Cd9 3.638463 1_555
Ba30 Cd5 3.638463 1_555
Ba30 Sb66 3.656455 1_555
Ba30 Sb65 3.705942 1_555
Ba30 Sb60 4.043326 1_555
Ba30 Sb37 4.044580 1_555
Ba30 Sb57 4.092022 1_555
Ba31 Sb54 3.489280 1_655
Ba31 Sb40 3.510543 1_655
Ba31 Sb71 3.567749 1_555
Ba31 Sb30 3.584832 1_555
Ba31 Sb53 3.599934 1_555
Ba31 Cd4 3.616032 1_655
Ba31 Sb33 3.755689 1_655
Ba31 Cd8 3.931536 1_655
Ba32 Sb59 3.454258 1_555
Ba32 Sb23 3.569882 1_555
Ba32 Sb46 3.579631 1_555
Ba32 Sb31 3.624226 1_555
Ba32 Sb28 3.700441 1_555
Ba32 Sb64 4.212169 1_655
Ba33 Sb44 3.635340 1_555
Ba33 Sb2 3.635340 1_555
Ba33 Cd13 3.638463 1_555
Ba33 Cd0 3.638463 1_555
Ba33 Sb39 3.656455 1_555
Ba33 Sb45 3.705942 1_555
Ba33 Sb43 4.043326 1_555
Ba33 Sb52 4.044580 1_555
Ba33 Sb36 4.092022 1_555
Ba34 Sb53 3.475218 1_555
Ba34 Sb37 3.516836 1_555
Ba34 Sb57 3.606943 1_555
Ba34 Sb30 3.910352 1_555
Ba34 Sb62 3.959632 1_555
Ba34 Sb54 4.092581 1_655
Ba34 Sb35 4.116410 1_555
Ba35 Sb21 3.489280 1_555
Ba35 Sb57 3.510543 1_555
Ba35 Sb63 3.567749 1_555
Ba35 Sb55 3.584832 1_555
Ba35 Sb47 3.599934 1_555
Ba35 Cd3 3.616032 1_555
Ba35 Sb66 3.755689 1_555
Ba35 Cd9 3.931536 1_555
Ba36 Sb5 3.454258 1_556
Ba36 Sb71 3.569882 1_555
Ba36 Sb13 3.579631 1_565
Ba36 Sb29 3.624226 1_566
Ba36 Sb49 3.700441 1_655
Ba36 Sb1 4.212169 1_555
Ba37 Sb30 3.444759 1_555
Ba37 Sb69 3.512665 1_555
Ba37 Sb62 3.591767 1_555
Ba37 Sb53 3.668729 1_555
Ba37 Cd11 3.743670 1_555
Ba37 Sb0 3.767143 1_555
Ba37 Sb71 3.887641 1_555
Ba38 Sb53 3.482275 1_555
Ba38 Sb68 3.623868 1_555
Ba38 Sb3 3.671576 1_555
Ba38 Sb62 3.750063 1_555
Ba38 Sb57 3.970757 1_555
Ba38 Sb69 4.003530 1_555
Ba38 Sb21 4.189078 1_565
Ba39 Sb48 3.454258 1_555
Ba39 Sb20 3.569882 1_555
Ba39 Sb46 3.579631 1_555
Ba39 Sb31 3.624226 1_555
Ba39 Sb28 3.700441 1_555
Ba39 Sb9 4.212169 1_545
Ba40 Sb69 3.489280 1_545
Ba40 Sb40 3.510543 1_545
Ba40 Sb24 3.567749 1_555
Ba40 Sb41 3.584832 1_555
Ba40 Sb47 3.599934 1_555
Ba40 Cd4 3.616032 1_545
Ba40 Sb33 3.755689 1_545
Ba40 Cd11 3.931536 1_545
Ba41 Sb50 3.444759 1_555
Ba41 Sb61 3.512665 1_545
Ba41 Sb4 3.591767 1_545
Ba41 Sb19 3.668729 1_555
Ba41 Cd1 3.743670 1_545
Ba41 Sb18 3.767143 1_545
Ba41 Sb20 3.887641 1_555
Ba42 Sb47 3.482275 1_555
Ba42 Sb63 3.623868 1_555
Ba42 Sb3 3.671576 1_555
Ba42 Sb62 3.750063 1_555
Ba42 Sb57 3.970757 1_555
Ba42 Sb54 4.003530 1_555
Ba42 Sb35 4.189078 1_455
Ba43 Sb14 3.526649 1_655
Ba43 Sb16 3.569000 1_555
Ba43 Sb64 3.644629 1_655
Ba43 Sb6 3.709758 1_655
Ba43 Sb42 3.714347 1_555
Ba43 Sb59 3.736259 1_555
Ba44 Sb51 3.526649 1_555
Ba44 Sb58 3.569000 1_455
Ba44 Sb26 3.644629 1_554
Ba44 Sb17 3.709758 1_555
Ba44 Sb22 3.714347 1_555
Ba44 Sb10 3.736259 1_555
Ba45 Sb50 3.421763 1_655
Ba45 Sb23 3.458622 1_555
Ba45 Sb27 3.594780 1_655
Ba45 Sb64 3.632644 1_655
Ba45 Cd6 3.660717 1_555
Ba45 Cd12 3.807206 1_655
Ba45 Sb52 3.969397 1_555
Ba45 Sb46 4.090692 1_555
Ba46 Sb28 3.416263 1_555
Ba46 Sb67 3.514954 1_555
Ba46 Sb23 3.574568 1_555
Ba46 Sb38 3.646600 1_555
Ba46 Sb9 3.695368 1_555
Ba46 Sb59 3.756620 1_555
Ba47 Sb64 3.635019 1_555
Ba47 Sb9 3.635019 1_555
Ba47 Sb38 3.640765 1_555
Ba47 Cd12 3.879646 1_555
Ba47 Cd1 3.879646 1_555
Ba47 Sb18 3.895568 1_555
Ba47 Sb6 4.013627 1_555
Ba47 Sb14 4.038332 1_555
Ba47 Sb28 4.097676 1_555
Ba48 Sb30 3.421763 1_555
Ba48 Sb24 3.458622 1_655
Ba48 Sb54 3.594780 1_655
Ba48 Sb26 3.632644 1_655
Ba48 Cd10 3.660717 1_555
Ba48 Cd8 3.807206 1_655
Ba48 Sb37 3.969397 1_555
Ba48 Sb13 4.090692 1_555
Ba49 Sb56 3.526649 1_555
Ba49 Sb26 3.569000 1_655
Ba49 Sb58 3.644629 1_556
Ba49 Sb13 3.709758 1_555
Ba49 Sb30 3.714347 1_555
Ba49 Sb5 3.736259 1_556
Ba50 Sb10 3.454258 1_556
Ba50 Sb24 3.569882 1_555
Ba50 Sb13 3.579631 1_455
Ba50 Sb29 3.624226 1_456
Ba50 Sb49 3.700441 1_545
Ba50 Sb26 4.212169 1_555
Ba51 Sb12 3.375581 1_555
Ba51 Sb22 3.375581 1_555
Ba51 Sb17 3.656171 1_555
Ba51 Sb11 3.896657 1_555
Ba51 Sb51 4.076415 1_555
Ba51 Sb43 4.181199 1_555
Ba52 Sb8 3.635019 1_555
Ba52 Sb58 3.635019 1_555
Ba52 Sb39 3.640765 1_555
Ba52 Cd13 3.879646 1_555
Ba52 Cd0 3.879646 1_555
Ba52 Sb45 3.895568 1_555
Ba52 Sb13 4.013627 1_554
Ba52 Sb56 4.038332 1_554
Ba52 Sb29 4.097676 1_555
Ba53 Sb29 3.416263 1_565
Ba53 Sb12 3.514954 1_555
Ba53 Sb25 3.574568 1_555
Ba53 Sb39 3.646600 1_565
Ba53 Sb8 3.695368 1_565
Ba53 Sb5 3.756620 1_555
Ba54 Sb35 3.489280 1_555
Ba54 Sb57 3.510543 1_555
Ba54 Sb68 3.567749 1_555
Ba54 Sb42 3.584832 1_555
Ba54 Sb53 3.599934 1_555
Ba54 Cd3 3.616032 1_555
Ba54 Sb66 3.755689 1_555
Ba54 Cd5 3.931536 1_555
Ba55 Sb48 3.446835 1_555
Ba55 Sb18 3.596083 1_545
Ba55 Sb9 3.649198 1_545
Ba55 Sb50 3.679184 1_555
Ba55 Sb32 3.687030 1_455
Ba55 Sb14 3.731669 1_545
Ba56 Sb55 3.444759 1_555
Ba56 Sb35 3.512665 1_455
Ba56 Sb60 3.591767 1_455
Ba56 Sb47 3.668729 1_555
Ba56 Cd5 3.743670 1_455
Ba56 Sb65 3.767143 1_455
Ba56 Sb63 3.887641 1_555
Ba57 Sb10 3.446835 1_555
Ba57 Sb45 3.596083 1_555
Ba57 Sb8 3.649198 1_555
Ba57 Sb22 3.679184 1_555
Ba57 Sb51 3.687030 1_555
Ba57 Sb56 3.731669 1_554
Ba58 Sb12 3.444759 1_555
Ba58 Sb44 3.512665 1_555
Ba58 Sb43 3.591767 1_555
Ba58 Sb15 3.668729 1_555
Ba58 Cd13 3.743670 1_555
Ba58 Sb45 3.767143 1_555
Ba58 Sb25 3.887641 1_555
Ba59 Sb49 3.416263 1_545
Ba59 Sb41 3.514954 1_555
Ba59 Sb24 3.574568 1_555
Ba59 Sb33 3.646600 1_545
Ba59 Sb1 3.695368 1_545
Ba59 Sb10 3.756620 1_556
Ba60 Sb61 3.635340 1_555
Ba60 Sb27 3.635340 1_555
Ba60 Cd12 3.638463 1_555
Ba60 Cd1 3.638463 1_555
Ba60 Sb38 3.656455 1_555
Ba60 Sb18 3.705942 1_555
Ba60 Sb4 4.043326 1_555
Ba60 Sb11 4.044580 1_555
Ba60 Sb70 4.092022 1_555
Ba61 Sb47 3.482275 1_555
Ba61 Sb24 3.623868 1_555
Ba61 Sb37 3.671576 1_455
Ba61 Sb60 3.750063 1_455
Ba61 Sb40 3.970757 1_545
Ba61 Sb35 4.003530 1_455
Ba61 Sb54 4.189078 1_555
Ba62 Sb32 3.526649 1_455
Ba62 Sb64 3.569000 1_555
Ba62 Sb16 3.644629 1_455
Ba62 Sb46 3.709758 1_455
Ba62 Sb50 3.714347 1_555
Ba62 Sb48 3.736259 1_555
Ba63 Sb51 3.526649 1_555
Ba63 Sb8 3.569000 1_565
Ba63 Sb1 3.644629 1_554
Ba63 Sb17 3.709758 1_555
Ba63 Sb12 3.714347 1_555
Ba63 Sb5 3.736259 1_555
Ba64 Sb48 3.454258 1_555
Ba64 Sb63 3.569882 1_555
Ba64 Sb6 3.579631 1_555
Ba64 Sb28 3.624226 1_555
Ba64 Sb31 3.700441 1_555
Ba64 Sb16 4.212169 1_455
Ba65 Sb59 3.446835 1_555
Ba65 Sb65 3.596083 1_565
Ba65 Sb34 3.649198 1_565
Ba65 Sb42 3.679184 1_555
Ba65 Sb14 3.687030 1_655
Ba65 Sb32 3.731669 1_565
Ba66 Sb19 3.475218 1_555
Ba66 Sb11 3.516836 1_555
Ba66 Sb70 3.606943 1_555
Ba66 Sb22 3.910352 1_555
Ba66 Sb43 3.959632 1_555
Ba66 Sb44 4.092581 1_455
Ba66 Sb27 4.116410 1_555
Ba67 Sb55 3.421763 1_565
Ba67 Sb68 3.458622 1_555
Ba67 Sb21 3.594780 1_565
Ba67 Sb34 3.632644 1_565
Ba67 Cd15 3.660717 1_555
Ba67 Cd9 3.807206 1_565
Ba67 Sb3 3.969397 1_555
Ba67 Sb6 4.090692 1_555
Ba68 Sb19 3.482275 1_555
Ba68 Sb7 3.623868 1_555
Ba68 Sb11 3.671576 1_545
Ba68 Sb4 3.750063 1_545
Ba68 Sb36 3.970757 1_455
Ba68 Sb61 4.003530 1_545
Ba68 Sb2 4.189078 1_555
Ba69 Sb32 3.526649 1_565
Ba69 Sb9 3.569000 1_555
Ba69 Sb34 3.644629 1_565
Ba69 Sb46 3.709758 1_565
Ba69 Sb67 3.714347 1_555
Ba69 Sb59 3.736259 1_555
Ba70 Sb15 3.475218 1_545
Ba70 Sb52 3.516836 1_555
Ba70 Sb36 3.606943 1_555
Ba70 Sb67 3.910352 1_545
Ba70 Sb4 3.959632 1_645
Ba70 Sb61 4.092581 1_545
Ba70 Sb2 4.116410 1_555
Ba71 Sb47 3.475218 1_555
Ba71 Sb37 3.516836 1_555
Ba71 Sb57 3.606943 1_555
Ba71 Sb41 3.910352 1_555
Ba71 Sb62 3.959632 1_555
Ba71 Sb69 4.092581 1_545
Ba71 Sb21 4.116410 1_555
Ba72 Sb5 3.446835 1_556
Ba72 Sb0 3.596083 1_555
Ba72 Sb1 3.649198 1_555
Ba72 Sb30 3.679184 1_555
Ba72 Sb56 3.687030 1_555
Ba72 Sb51 3.731669 1_556
Ba73 Sb48 3.446835 1_555
Ba73 Sb65 3.596083 1_455
Ba73 Sb16 3.649198 1_455
Ba73 Sb55 3.679184 1_555
Ba73 Sb14 3.687030 1_545
Ba73 Sb32 3.731669 1_455
Ba74 Sb5 3.446835 1_555
Ba74 Sb45 3.596083 1_555
Ba74 Sb58 3.649198 1_555
Ba74 Sb12 3.679184 1_555
Ba74 Sb51 3.687030 1_555
Ba74 Sb56 3.731669 1_554
Ba75 Sb41 3.421763 1_555
Ba75 Sb71 3.458622 1_545
Ba75 Sb69 3.594780 1_545
Ba75 Sb1 3.632644 1_545
Ba75 Cd10 3.660717 1_555
Ba75 Cd11 3.807206 1_545
Ba75 Sb37 3.969397 1_555
Ba75 Sb13 4.090692 1_555
Ba76 Sb10 3.454258 1_555
Ba76 Sb7 3.569882 1_555
Ba76 Sb17 3.579631 1_545
Ba76 Sb49 3.624226 1_544
Ba76 Sb29 3.700441 1_455
Ba76 Sb8 4.212169 1_555
Ba77 Sb59 3.454258 1_555
Ba77 Sb68 3.569882 1_555
Ba77 Sb6 3.579631 1_555
Ba77 Sb28 3.624226 1_555
Ba77 Sb31 3.700441 1_555
Ba77 Sb34 4.212169 1_565
Ba78 Sb53 3.482275 1_555
Ba78 Sb71 3.623868 1_555
Ba78 Sb37 3.671576 1_565
Ba78 Sb60 3.750063 1_565
Ba78 Sb40 3.970757 1_655
Ba78 Sb21 4.003530 1_565
Ba78 Sb69 4.189078 1_555
Ba79 Sb15 3.475218 1_555
Ba79 Sb11 3.516836 1_555
Ba79 Sb70 3.606943 1_555
Ba79 Sb12 3.910352 1_555
Ba79 Sb43 3.959632 1_555
Ba79 Sb2 4.092581 1_565
Ba79 Sb61 4.116410 1_555
Ba80 Sb19 3.475218 1_655
Ba80 Sb52 3.516836 1_555
Ba80 Sb36 3.606943 1_555
Ba80 Sb50 3.910352 1_655
Ba80 Sb4 3.959632 1_645
Ba80 Sb27 4.092581 1_655
Ba80 Sb44 4.116410 1_555
Ba81 Sb22 3.421763 1_555
Ba81 Sb25 3.458622 1_455
Ba81 Sb44 3.594780 1_455
Ba81 Sb58 3.632644 1_455
Ba81 Cd7 3.660717 1_555
Ba81 Cd13 3.807206 1_455
Ba81 Sb11 3.969397 1_555
Ba81 Sb17 4.090692 1_555
Ba82 Sb42 3.421763 1_455
Ba82 Sb63 3.458622 1_555
Ba82 Sb35 3.594780 1_455
Ba82 Sb16 3.632644 1_455
Ba82 Cd15 3.660717 1_555
Ba82 Cd5 3.807206 1_455
Ba82 Sb3 3.969397 1_555
Ba82 Sb6 4.090692 1_555
Ba83 Sb28 3.416263 1_555
Ba83 Sb50 3.514954 1_555
Ba83 Sb20 3.574568 1_555
Ba83 Sb38 3.646600 1_555
Ba83 Sb64 3.695368 1_555
Ba83 Sb48 3.756620 1_555
Cd0 Sb8 2.977822 1_555
Cd0 Sb45 3.031914 1_555
Cd0 Sb39 3.062105 1_555
Cd0 Sb2 3.154742 1_555
Cd1 Sb9 2.977822 1_555
Cd1 Sb18 3.031914 1_555
Cd1 Sb38 3.062105 1_555
Cd1 Sb61 3.154742 1_555
Cd2 Sb20 2.923712 1_555
Cd2 Sb23 2.923712 1_555
Cd2 Sb38 2.997518 1_555
Cd2 Sb70 3.094646 1_555
Cd3 Sb63 2.923712 1_555
Cd3 Sb68 2.923712 1_555
Cd3 Sb66 2.997518 1_555
Cd3 Sb57 3.094646 1_555
Cd4 Sb24 2.923712 1_565
Cd4 Sb71 2.923712 1_455
Cd4 Sb33 2.997518 1_555
Cd4 Sb40 3.094646 1_555
Cd5 Sb16 2.977822 1_555
Cd5 Sb65 3.031914 1_555
Cd5 Sb66 3.062105 1_555
Cd5 Sb35 3.154742 1_555
Cd6 Sb52 2.984629 1_555
Cd6 Sb20 3.033389 1_555
Cd6 Sb23 3.033389 1_555
Cd6 Sb46 3.044484 1_555
Cd7 Sb11 2.984629 1_555
Cd7 Sb7 3.033389 1_565
Cd7 Sb25 3.033389 1_455
Cd7 Sb17 3.044484 1_555
Cd8 Sb26 2.977822 1_555
Cd8 Sb0 3.031914 1_555
Cd8 Sb33 3.062105 1_555
Cd8 Sb54 3.154742 1_555
Cd9 Sb34 2.977822 1_555
Cd9 Sb65 3.031914 1_555
Cd9 Sb66 3.062105 1_555
Cd9 Sb21 3.154742 1_555
Cd10 Sb37 2.984629 1_555
Cd10 Sb24 3.033389 1_655
Cd10 Sb71 3.033389 1_545
Cd10 Sb13 3.044484 1_555
Cd11 Sb1 2.977822 1_555
Cd11 Sb0 3.031914 1_555
Cd11 Sb33 3.062105 1_555
Cd11 Sb69 3.154742 1_555
Cd12 Sb64 2.977822 1_555
Cd12 Sb18 3.031914 1_555
Cd12 Sb38 3.062105 1_555
Cd12 Sb27 3.154742 1_555
Cd13 Sb58 2.977822 1_555
Cd13 Sb45 3.031914 1_555
Cd13 Sb39 3.062105 1_555
Cd13 Sb44 3.154742 1_555
Cd14 Sb7 2.923712 1_655
Cd14 Sb25 2.923712 1_545
Cd14 Sb39 2.997518 1_555
Cd14 Sb36 3.094646 1_555
Cd15 Sb3 2.984629 1_555
Cd15 Sb63 3.033389 1_555
Cd15 Sb68 3.033389 1_555
Cd15 Sb6 3.044484 1_555
Sb14 Sb32 2.948355 1_465
Sb28 Sb31 2.861567 1_555
Sb29 Sb49 2.861567 1_644
Sb36 Sb4 2.947209 1_645
Sb40 Sb60 2.947209 1_465
Sb43 Sb70 2.947209 1_555
Sb51 Sb56 2.948355 1_554
Sb57 Sb62 2.947209 1_555
