# generated using pymatgen
data_LiZr3H18N4F19
_symmetry_space_group_name_H-M   'P 1'
_cell_length_a   13.33996300
_cell_length_b   11.56922300
_cell_length_c   12.82793191
_cell_angle_alpha   69.43225587
_cell_angle_beta   90.00000000
_cell_angle_gamma   90.00000000
_symmetry_Int_Tables_number   1
_chemical_formula_structural   LiZr3H18N4F19
_chemical_formula_sum   'Li4 Zr12 H72 N16 F76'
_cell_volume   1853.57753143
_cell_formula_units_Z   4
loop_
 _symmetry_equiv_pos_site_id
 _symmetry_equiv_pos_as_xyz
  1  'x, y, z'
loop_
 _atom_site_type_symbol
 _atom_site_label
 _atom_site_symmetry_multiplicity
 _atom_site_fract_x
 _atom_site_fract_y
 _atom_site_fract_z
 _atom_site_occupancy
  Li  Li0  1  0.12263800  0.24861100  0.24748700  1
  Li  Li1  1  0.62263800  0.25138900  0.25251300  1
  Li  Li2  1  0.37736200  0.74861100  0.74748700  1
  Li  Li3  1  0.87736200  0.75138900  0.75251300  1
  Zr  Zr0  1  0.12636100  0.58303300  0.76107300  1
  Zr  Zr1  1  0.37422900  0.77169600  0.25094400  1
  Zr  Zr2  1  0.87422900  0.72830400  0.24905600  1
  Zr  Zr3  1  0.12577100  0.27169600  0.75094400  1
  Zr  Zr4  1  0.12658900  0.91262400  0.73500000  1
  Zr  Zr5  1  0.37363900  0.08303300  0.26107300  1
  Zr  Zr6  1  0.62636100  0.91696700  0.73892700  1
  Zr  Zr7  1  0.37341100  0.41262400  0.23500000  1
  Zr  Zr8  1  0.87341100  0.08737600  0.26500000  1
  Zr  Zr9  1  0.62577100  0.22830400  0.74905600  1
  Zr  Zr10  1  0.62658900  0.58737600  0.76500000  1
  Zr  Zr11  1  0.87363900  0.41696700  0.23892700  1
  H  H0  1  0.62013700  0.07965800  0.00962500  1
  H  H1  1  0.13133700  0.05420400  0.99472800  1
  H  H2  1  0.59310100  0.56164800  0.11373900  1
  H  H3  1  0.11746600  0.43076300  0.35716600  1
  H  H4  1  0.56374000  0.54045400  0.39815800  1
  H  H5  1  0.43456300  0.17306100  0.60442400  1
  H  H6  1  0.56290500  0.95779500  0.10440000  1
  H  H7  1  0.87563800  0.86690500  0.52158500  1
  H  H8  1  0.87028400  0.31993400  0.01151100  1
  H  H9  1  0.34859500  0.06470700  0.61156000  1
  H  H10  1  0.12971600  0.68006600  0.98848900  1
  H  H11  1  0.18841400  0.71130000  0.09264700  1
  H  H12  1  0.37986300  0.92034200  0.99037500  1
  H  H13  1  0.81085500  0.03883200  0.89055300  1
  H  H14  1  0.65140500  0.93529300  0.38844000  1
  H  H15  1  0.94523100  0.20800100  0.59493500  1
  H  H16  1  0.62971600  0.81993400  0.51151100  1
  H  H17  1  0.90689900  0.06164800  0.61373900  1
  H  H18  1  0.93709500  0.45779500  0.60440000  1
  H  H19  1  0.88253400  0.56923700  0.64283400  1
  H  H20  1  0.93626000  0.04045400  0.89815800  1
  H  H21  1  0.11854400  0.82230300  0.50716200  1
  H  H22  1  0.87986300  0.57965800  0.50962500  1
  H  H23  1  0.81158600  0.28870000  0.90735300  1
  H  H24  1  0.61746600  0.06923700  0.14283400  1
  H  H25  1  0.44523100  0.29199900  0.90506500  1
  H  H26  1  0.67716600  0.67019700  0.11249800  1
  H  H27  1  0.05476900  0.79199900  0.40506500  1
  H  H28  1  0.68829300  0.96888000  0.10366700  1
  H  H29  1  0.37902200  0.86585300  0.51382800  1
  H  H30  1  0.82283400  0.17019700  0.61249800  1
  H  H31  1  0.86866300  0.94579600  0.00527200  1
  H  H32  1  0.06543700  0.67306100  0.10442400  1
  H  H33  1  0.31158600  0.21130000  0.59264700  1
  H  H34  1  0.37634300  0.58525500  0.61305500  1
  H  H35  1  0.37028400  0.18006600  0.48848900  1
  H  H36  1  0.43626000  0.45954600  0.60184200  1
  H  H37  1  0.12097800  0.36585300  0.01382800  1
  H  H38  1  0.40689900  0.43835200  0.88626100  1
  H  H39  1  0.12436200  0.13309500  0.47841500  1
  H  H40  1  0.63133700  0.44579600  0.50527200  1
  H  H41  1  0.15140500  0.56470700  0.11156000  1
  H  H42  1  0.87902200  0.63414700  0.98617200  1
  H  H43  1  0.62365700  0.41474500  0.38694500  1
  H  H44  1  0.81170700  0.46888000  0.60366700  1
  H  H45  1  0.37563800  0.63309500  0.97841500  1
  H  H46  1  0.32283400  0.32980300  0.88750200  1
  H  H47  1  0.18829300  0.53112000  0.39633300  1
  H  H48  1  0.38145600  0.32230300  0.00716200  1
  H  H49  1  0.17716600  0.82980300  0.38750200  1
  H  H50  1  0.56543700  0.82693900  0.39557600  1
  H  H51  1  0.43709500  0.04220500  0.89560000  1
  H  H52  1  0.31085500  0.46116800  0.60944700  1
  H  H53  1  0.55476900  0.70800100  0.09493500  1
  H  H54  1  0.68914500  0.53883200  0.39055300  1
  H  H55  1  0.31170700  0.03112000  0.89633300  1
  H  H56  1  0.62436200  0.36690500  0.02158500  1
  H  H57  1  0.36866300  0.55420400  0.49472800  1
  H  H58  1  0.12365700  0.08525500  0.11305500  1
  H  H59  1  0.84859500  0.43529300  0.88844000  1
  H  H60  1  0.62097800  0.13414700  0.48617200  1
  H  H61  1  0.18914500  0.96116800  0.10944700  1
  H  H62  1  0.06374000  0.95954600  0.10184200  1
  H  H63  1  0.87634300  0.91474500  0.88694500  1
  H  H64  1  0.61854400  0.67769700  0.99283800  1
  H  H65  1  0.09310100  0.93835200  0.38626100  1
  H  H66  1  0.06290500  0.54220500  0.39560000  1
  H  H67  1  0.68841400  0.78870000  0.40735300  1
  H  H68  1  0.93456300  0.32693900  0.89557600  1
  H  H69  1  0.12013700  0.42034200  0.49037500  1
  H  H70  1  0.38253400  0.93076300  0.85716600  1
  H  H71  1  0.88145600  0.17769700  0.49283800  1
  N  N0  1  0.12667200  0.01596100  0.08009300  1
  N  N1  1  0.11077800  0.84600000  0.42136200  1
  N  N2  1  0.62223100  0.01902000  0.09031100  1
  N  N3  1  0.37332800  0.51596100  0.58009300  1
  N  N4  1  0.13372800  0.65689200  0.07449000  1
  N  N5  1  0.87776900  0.51902000  0.59031100  1
  N  N6  1  0.87332800  0.98403900  0.91990700  1
  N  N7  1  0.86627200  0.34310800  0.92551000  1
  N  N8  1  0.37776900  0.98098000  0.90968900  1
  N  N9  1  0.88922200  0.15400000  0.57863800  1
  N  N10  1  0.12223100  0.48098000  0.40968900  1
  N  N11  1  0.61077800  0.65400000  0.07863800  1
  N  N12  1  0.63372800  0.84310800  0.42551000  1
  N  N13  1  0.38922200  0.34600000  0.92136200  1
  N  N14  1  0.62667200  0.48403900  0.41990700  1
  N  N15  1  0.36627200  0.15689200  0.57449000  1
  F  F0  1  0.62034200  0.48652400  0.93864300  1
  F  F1  1  0.27285900  0.63247100  0.75118700  1
  F  F2  1  0.52149000  0.18339700  0.87827000  1
  F  F3  1  0.72071700  0.08736300  0.27672000  1
  F  F4  1  0.37366800  0.60602400  0.21174600  1
  F  F5  1  0.78248800  0.58891200  0.22442500  1
  F  F6  1  0.77928300  0.58736300  0.77672000  1
  F  F7  1  0.47851000  0.81660300  0.12173000  1
  F  F8  1  0.02149000  0.31660300  0.62173000  1
  F  F9  1  0.63340100  0.58142300  0.60959500  1
  F  F10  1  0.87965800  0.98652400  0.43864300  1
  F  F11  1  0.86659900  0.08142300  0.10959500  1
  F  F12  1  0.02103000  0.37152500  0.23866400  1
  F  F13  1  0.77079400  0.82807900  0.13455000  1
  F  F14  1  0.88908500  0.71984200  0.93204400  1
  F  F15  1  0.61091500  0.21984200  0.43204400  1
  F  F16  1  0.72762300  0.18561900  0.87937600  1
  F  F17  1  0.52628300  0.41028500  0.23413500  1
  F  F18  1  0.77237700  0.68561900  0.37937600  1
  F  F19  1  0.03581600  0.40792900  0.78290800  1
  F  F20  1  0.87629200  0.21958000  0.35199000  1
  F  F21  1  0.12974800  0.21693400  0.41995400  1
  F  F22  1  0.47897000  0.87152500  0.73866400  1
  F  F23  1  0.02628300  0.08971500  0.26586500  1
  F  F24  1  0.21751200  0.41108800  0.77557500  1
  F  F25  1  0.37025200  0.71693400  0.91995400  1
  F  F26  1  0.77285900  0.86752900  0.74881300  1
  F  F27  1  0.11091500  0.28015800  0.06795600  1
  F  F28  1  0.52093100  0.33104800  0.63699000  1
  F  F29  1  0.27928300  0.91263700  0.72328000  1
  F  F30  1  0.87025200  0.78306600  0.58004600  1
  F  F31  1  0.87366800  0.89397600  0.28825400  1
  F  F32  1  0.72714100  0.36752900  0.24881300  1
  F  F33  1  0.47371700  0.58971500  0.76586500  1
  F  F34  1  0.28248800  0.91108800  0.27557500  1
  F  F35  1  0.22762300  0.31438100  0.62062400  1
  F  F36  1  0.37206200  0.22263200  0.34608100  1
  F  F37  1  0.63175300  0.01499300  0.56693100  1
  F  F38  1  0.71751200  0.08891200  0.72442500  1
  F  F39  1  0.97851000  0.68339700  0.37827000  1
  F  F40  1  0.38908500  0.78015800  0.56795600  1
  F  F41  1  0.86824700  0.51499300  0.06693100  1
  F  F42  1  0.22920600  0.17192100  0.86545000  1
  F  F43  1  0.62633200  0.39397600  0.78825400  1
  F  F44  1  0.62793800  0.77736800  0.65391900  1
  F  F45  1  0.37886600  0.07322400  0.10656400  1
  F  F46  1  0.02093100  0.16895200  0.86301000  1
  F  F47  1  0.96418400  0.59207100  0.21709200  1
  F  F48  1  0.62370800  0.71958000  0.85199000  1
  F  F49  1  0.13340100  0.91857700  0.89040500  1
  F  F50  1  0.37965800  0.51347600  0.06135700  1
  F  F51  1  0.52103000  0.12847500  0.26133600  1
  F  F52  1  0.87206200  0.27736800  0.15391900  1
  F  F53  1  0.72920600  0.32807900  0.63455000  1
  F  F54  1  0.36824700  0.98500700  0.43306900  1
  F  F55  1  0.12793800  0.72263200  0.84608100  1
  F  F56  1  0.22714100  0.13247100  0.25118700  1
  F  F57  1  0.27079400  0.67192100  0.36545000  1
  F  F58  1  0.37629200  0.28042000  0.14801000  1
  F  F59  1  0.36659900  0.41857700  0.39040500  1
  F  F60  1  0.62974800  0.28306600  0.08004600  1
  F  F61  1  0.53581600  0.09207100  0.71709200  1
  F  F62  1  0.97906900  0.83104800  0.13699000  1
  F  F63  1  0.12370800  0.78042000  0.64801000  1
  F  F64  1  0.12113400  0.57322400  0.60656400  1
  F  F65  1  0.87886600  0.42677600  0.39343600  1
  F  F66  1  0.12034200  0.01347600  0.56135700  1
  F  F67  1  0.12633200  0.10602400  0.71174600  1
  F  F68  1  0.97897000  0.62847500  0.76133600  1
  F  F69  1  0.13175300  0.48500700  0.93306900  1
  F  F70  1  0.46418400  0.90792900  0.28290800  1
  F  F71  1  0.97371700  0.91028500  0.73413500  1
  F  F72  1  0.27237700  0.81438100  0.12062400  1
  F  F73  1  0.47906900  0.66895200  0.36301000  1
  F  F74  1  0.22071700  0.41263700  0.22328000  1
  F  F75  1  0.62113400  0.92677600  0.89343600  1
loop_
_geom_bond_atom_site_label_1
_geom_bond_atom_site_label_2
_geom_bond_distance
_geom_bond_site_symmetry_2
H0 N2 1.026664 1_555
H1 N0 1.028763 1_556
H2 N11 1.030481 1_555
H3 N10 1.034678 1_555
H4 N14 1.039548 1_555
H5 N15 1.030937 1_555
H6 N2 1.034778 1_565
H8 N7 1.041156 1_554
H9 N15 1.030938 1_555
H10 N4 1.041156 1_556
H11 N4 1.041953 1_555
H12 N8 1.026664 1_555
H13 N6 1.034627 1_545
H14 N12 1.030938 1_555
H15 N9 1.041168 1_555
H16 N12 1.041156 1_555
H17 N9 1.030481 1_555
H18 N5 1.034778 1_555
H19 N5 1.034678 1_555
H20 N6 1.039548 1_545
H21 N1 1.041767 1_555
H22 N5 1.026664 1_555
H23 N7 1.041953 1_555
H24 N2 1.034678 1_555
H25 N13 1.041168 1_555
H26 N11 1.032122 1_555
H27 N1 1.041168 1_555
H28 N2 1.035685 1_565
H30 N9 1.032122 1_555
H31 N6 1.028763 1_554
H32 N4 1.030937 1_555
H33 N15 1.041953 1_555
H34 N3 1.030179 1_555
H35 N15 1.041156 1_555
H36 N3 1.039548 1_555
H38 N13 1.030481 1_555
H40 N14 1.028763 1_555
H41 N4 1.030938 1_555
H43 N14 1.030179 1_555
H44 N5 1.035685 1_555
H46 N13 1.032122 1_555
H47 N10 1.035685 1_555
H48 N13 1.041767 1_554
H49 N1 1.032122 1_555
H50 N12 1.030937 1_555
H51 N8 1.034778 1_545
H52 N3 1.034627 1_555
H53 N11 1.041168 1_555
H54 N14 1.034627 1_555
H55 N8 1.035685 1_545
H57 N3 1.028763 1_555
H58 N0 1.030179 1_555
H59 N7 1.030938 1_555
H61 N0 1.034627 1_565
H62 N0 1.039548 1_565
H63 N6 1.030179 1_555
H64 N11 1.041767 1_556
H65 N1 1.030481 1_555
H66 N10 1.034778 1_555
H67 N12 1.041953 1_555
H68 N7 1.030937 1_555
H69 N10 1.026664 1_555
H70 N8 1.034678 1_555
H71 N9 1.041767 1_555
F0 H56 1.419690 1_556
F0 Zr10 2.122232 1_555
F1 Li2 1.925164 1_555
F1 Zr0 2.027673 1_555
F2 Zr9 2.085062 1_555
F3 Zr8 2.042469 1_555
F3 Li1 2.235019 1_555
F4 Zr1 2.145645 1_555
F4 Zr7 2.150902 1_555
F5 Zr2 2.134539 1_555
F5 Zr11 2.282613 1_555
F6 Zr10 2.042469 1_555
F6 Li3 2.235019 1_555
F7 Zr1 2.085062 1_555
F8 Zr3 2.085062 1_555
F9 Zr10 2.020795 1_555
F10 H7 1.419690 1_555
F10 Zr8 2.122232 1_565
F11 Zr8 2.020795 1_555
F12 Li0 1.938840 1_555
F12 Zr11 2.035572 1_455
F13 Zr2 2.050025 1_555
F14 H42 0.999689 1_555
F14 Li3 2.207020 1_555
F15 H60 0.999689 1_555
F15 Li1 2.207020 1_555
F16 Zr9 2.074749 1_555
F17 Zr7 2.039568 1_555
F17 Li1 2.186918 1_555
F18 Zr2 2.074749 1_555
F19 Zr3 2.132210 1_555
F19 Zr0 2.289682 1_555
F20 H71 1.699671 1_555
F20 Zr8 2.187533 1_555
F20 Zr11 2.234400 1_555
F21 H39 0.998638 1_555
F21 Li0 2.113837 1_555
F22 Li2 1.938840 1_555
F22 Zr6 2.035572 1_555
F23 Zr8 2.039568 1_455
F23 Li0 2.186918 1_555
F24 Zr3 2.134539 1_555
F24 Zr0 2.282613 1_555
F25 H45 0.998638 1_555
F25 Li2 2.113837 1_555
F26 Li3 1.925164 1_555
F26 Zr6 2.027673 1_555
F27 H37 0.999689 1_555
F27 Li0 2.207020 1_555
F28 Zr9 2.057882 1_555
F29 Zr4 2.042469 1_555
F29 Li2 2.235019 1_555
F30 H7 0.998638 1_555
F30 Li3 2.113837 1_555
F31 Zr2 2.145645 1_555
F31 Zr8 2.150902 1_565
F32 Li1 1.925164 1_555
F32 Zr11 2.027673 1_555
F33 Zr10 2.039568 1_555
F33 Li2 2.186918 1_555
F34 Zr1 2.134539 1_555
F34 Zr5 2.282613 1_565
F35 Zr3 2.074749 1_555
F36 Zr7 2.159059 1_555
F36 Zr5 2.243976 1_555
F37 H60 1.410951 1_555
F37 Zr6 2.097904 1_545
F38 Zr9 2.134539 1_555
F38 Zr6 2.282613 1_545
F39 Zr2 2.085062 1_555
F40 H29 0.999689 1_555
F40 Li2 2.207020 1_555
F41 H42 1.410951 1_554
F41 Zr11 2.097904 1_555
F42 Zr3 2.050025 1_555
F43 Zr9 2.145645 1_555
F43 Zr10 2.150902 1_555
F44 Zr10 2.159059 1_555
F44 Zr6 2.243976 1_555
F45 Zr5 2.025889 1_555
F46 Zr3 2.057882 1_555
F47 Zr2 2.132210 1_555
F47 Zr11 2.289682 1_555
F48 H64 1.699671 1_555
F48 Zr10 2.187533 1_555
F48 Zr6 2.234400 1_555
F49 Zr4 2.020795 1_555
F50 H45 1.419690 1_554
F50 Zr7 2.122232 1_555
F51 Li1 1.938840 1_555
F51 Zr5 2.035572 1_555
F52 Zr8 2.159059 1_555
F52 Zr11 2.243976 1_555
F53 Zr9 2.050025 1_555
F54 H29 1.410951 1_555
F54 Zr5 2.097904 1_565
F55 Zr4 2.159059 1_555
F55 Zr0 2.243976 1_555
F56 Li0 1.925164 1_555
F56 Zr5 2.027673 1_555
F57 Zr1 2.050025 1_555
F58 H48 1.699671 1_555
F58 Zr7 2.187533 1_555
F58 Zr5 2.234400 1_555
F59 Zr7 2.020795 1_555
F60 H56 0.998638 1_555
F60 Li1 2.113837 1_555
F61 Zr9 2.132210 1_555
F61 Zr6 2.289682 1_545
F62 Zr2 2.057882 1_555
F63 H21 1.699671 1_555
F63 Zr4 2.187533 1_555
F63 Zr0 2.234400 1_555
F64 Zr0 2.025889 1_555
F65 Zr11 2.025889 1_555
F66 H39 1.419690 1_555
F66 Zr4 2.122232 1_545
F67 Zr3 2.145645 1_555
F67 Zr4 2.150902 1_545
F68 Li3 1.938840 1_555
F68 Zr0 2.035572 1_655
F69 H37 1.410951 1_556
F69 Zr0 2.097904 1_555
F70 Zr1 2.132210 1_555
F70 Zr5 2.289682 1_565
F71 Zr4 2.039568 1_655
F71 Li3 2.186918 1_555
F72 Zr1 2.074749 1_555
F73 Zr1 2.057882 1_555
F74 Zr7 2.042469 1_555
F74 Li0 2.235019 1_555
F75 Zr6 2.025889 1_555
