# generated using pymatgen
data_Na2Co5Mo4(ClO4)4
_symmetry_space_group_name_H-M   'P 1'
_cell_length_a   8.94095647
_cell_length_b   10.86885746
_cell_length_c   11.25590852
_cell_angle_alpha   81.24328696
_cell_angle_beta   113.48185376
_cell_angle_gamma   90.02340090
_symmetry_Int_Tables_number   1
_chemical_formula_structural   Na2Co5Mo4(ClO4)4
_chemical_formula_sum   'Na4 Co10 Mo8 Cl8 O32'
_cell_volume   989.35582510
_cell_formula_units_Z   2
loop_
 _symmetry_equiv_pos_site_id
 _symmetry_equiv_pos_as_xyz
  1  'x, y, z'
loop_
 _atom_site_type_symbol
 _atom_site_label
 _atom_site_symmetry_multiplicity
 _atom_site_fract_x
 _atom_site_fract_y
 _atom_site_fract_z
 _atom_site_occupancy
  Na  Na0  1  0.74332000  0.58420000  0.48852500  1
  Na  Na1  1  0.24573800  0.08359300  0.48921300  1
  Na  Na2  1  0.75445300  0.91583400  0.51136800  1
  Na  Na3  1  0.25619400  0.41648100  0.51063400  1
  Co  Co0  1  0.74766600  0.25015900  0.50010200  1
  Co  Co1  1  0.11137600  0.33113000  0.86378600  1
  Co  Co2  1  0.25234700  0.83088300  0.86419900  1
  Co  Co3  1  0.88843200  0.66915400  0.13548200  1
  Co  Co4  1  0.74771900  0.16901200  0.13613700  1
  Co  Co5  1  0.25059600  0.75015800  0.50011600  1
  Co  Co6  1  0.61137000  0.82968900  0.86588800  1
  Co  Co7  1  0.75411400  0.32925200  0.86562700  1
  Co  Co8  1  0.38887000  0.17076200  0.13454300  1
  Co  Co9  1  0.24593700  0.67062700  0.13471900  1
  Mo  Mo0  1  0.59671900  0.44488500  0.19425200  1
  Mo  Mo1  1  0.09845900  0.94481100  0.19421500  1
  Mo  Mo2  1  0.90184300  0.05509400  0.80585000  1
  Mo  Mo3  1  0.40381700  0.55537600  0.80568000  1
  Mo  Mo4  1  0.57585500  0.87224300  0.15215000  1
  Mo  Mo5  1  0.07654300  0.37194400  0.15227700  1
  Mo  Mo6  1  0.92326200  0.62776700  0.84757500  1
  Mo  Mo7  1  0.42370600  0.12794400  0.84782800  1
  Cl  Cl0  1  0.38346100  0.65028700  0.37502900  1
  Cl  Cl1  1  0.88240600  0.15125900  0.37436200  1
  Cl  Cl2  1  0.11796800  0.84827500  0.62611600  1
  Cl  Cl3  1  0.61664600  0.34807200  0.62562400  1
  Cl  Cl4  1  0.50864800  0.84867500  0.62504400  1
  Cl  Cl5  1  0.00761400  0.34891000  0.62538400  1
  Cl  Cl6  1  0.99210700  0.65179000  0.37375100  1
  Cl  Cl7  1  0.49172700  0.15152100  0.37479600  1
  O  O0  1  0.68673300  0.41375400  0.37078400  1
  O  O1  1  0.18534000  0.91357700  0.37072400  1
  O  O2  1  0.81382100  0.08619000  0.62937600  1
  O  O3  1  0.31306200  0.58635100  0.62920200  1
  O  O4  1  0.56520900  0.29613800  0.13072400  1
  O  O5  1  0.06545500  0.79623900  0.13041200  1
  O  O6  1  0.93431100  0.20383400  0.86928300  1
  O  O7  1  0.43468900  0.70418200  0.86917800  1
  O  O8  1  0.56361000  0.04443400  0.12725500  1
  O  O9  1  0.06415300  0.54413600  0.12724700  1
  O  O10  1  0.93632200  0.45554000  0.87264100  1
  O  O11  1  0.43614200  0.95577200  0.87298500  1
  O  O12  1  0.66092300  0.81914200  0.32150900  1
  O  O13  1  0.16080500  0.31877400  0.32162500  1
  O  O14  1  0.83891700  0.68092300  0.67820500  1
  O  O15  1  0.33848200  0.18099700  0.67845600  1
  O  O16  1  0.37626600  0.81000500  0.08259400  1
  O  O17  1  0.87726700  0.30965700  0.08261600  1
  O  O18  1  0.79345500  0.68957400  0.91721700  1
  O  O19  1  0.29427800  0.19047400  0.91725200  1
  O  O20  1  0.70567300  0.81010000  0.08288900  1
  O  O21  1  0.20651400  0.31014300  0.08278900  1
  O  O22  1  0.12235900  0.69025000  0.91711400  1
  O  O23  1  0.62350100  0.18975300  0.91732100  1
  O  O24  1  0.23656100  0.03390700  0.14442200  1
  O  O25  1  0.73183600  0.53567500  0.14203700  1
  O  O26  1  0.91143900  0.03581300  0.14225100  1
  O  O27  1  0.40904100  0.53427500  0.14434200  1
  O  O28  1  0.26914900  0.46436100  0.85801600  1
  O  O29  1  0.76481400  0.96538300  0.85658600  1
  O  O30  1  0.59172300  0.46623400  0.85530000  1
  O  O31  1  0.08924100  0.96462400  0.85737600  1
loop_
_geom_bond_atom_site_label_1
_geom_bond_atom_site_label_2
_geom_bond_distance
_geom_bond_site_symmetry_2
Na0 O14 2.371168 1_555
Na0 O0 2.378389 1_555
Na0 O12 2.834371 1_555
Na1 O15 2.371500 1_555
Na1 O1 2.379214 1_545
Na1 O13 2.839153 1_555
Na2 O12 2.372684 1_555
Na2 O2 2.379200 1_565
Na2 O14 2.833242 1_555
Na3 O13 2.371175 1_555
Na3 O3 2.378480 1_555
Na3 O15 2.842927 1_555
Co0 O0 2.039105 1_555
Co0 O2 2.041726 1_555
Co1 O28 2.033159 1_555
Co1 O19 2.076345 1_555
Co1 O10 2.110721 1_455
Co1 O6 2.115321 1_455
Co1 O21 2.238333 1_556
Co2 O31 2.030783 1_555
Co2 O22 2.077226 1_555
Co2 O11 2.112416 1_555
Co2 O7 2.112575 1_555
Co2 O16 2.232003 1_556
Co3 O25 2.029425 1_555
Co3 O20 2.079029 1_555
Co3 O5 2.112455 1_655
Co3 O9 2.116479 1_655
Co3 O18 2.231067 1_554
Co4 O26 2.033346 1_555
Co4 O17 2.077389 1_555
Co4 O8 2.112178 1_555
Co4 O4 2.114862 1_555
Co4 O23 2.236464 1_554
Co5 O1 2.037747 1_555
Co5 O3 2.039449 1_555
Co6 O29 2.033254 1_555
Co6 O18 2.070743 1_555
Co6 O7 2.094543 1_555
Co6 O11 2.115114 1_555
Co6 O20 2.218751 1_556
Co7 O30 2.037849 1_555
Co7 O23 2.067033 1_555
Co7 O6 2.094636 1_555
Co7 O10 2.114938 1_555
Co7 O17 2.218507 1_556
Co8 O24 2.036669 1_555
Co8 O21 2.066167 1_555
Co8 O4 2.092605 1_555
Co8 O8 2.114490 1_555
Co8 O19 2.221557 1_554
Co9 O27 2.040023 1_555
Co9 O16 2.066328 1_555
Co9 O5 2.095127 1_555
Co9 O9 2.112653 1_555
Co9 O22 2.224865 1_554
Mo0 O27 1.777414 1_555
Mo0 O25 1.779572 1_555
Mo0 O0 1.797661 1_555
Mo0 O4 1.842693 1_555
Mo1 O24 1.778139 1_565
Mo1 O26 1.778269 1_465
Mo1 O1 1.797462 1_555
Mo1 O5 1.842353 1_555
Mo2 O31 1.778739 1_645
Mo2 O29 1.779036 1_545
Mo2 O2 1.797022 1_555
Mo2 O6 1.842134 1_555
Mo3 O30 1.778212 1_555
Mo3 O28 1.778260 1_555
Mo3 O3 1.797143 1_555
Mo3 O7 1.843159 1_555
Mo4 O12 1.747985 1_555
Mo4 O20 1.814734 1_555
Mo4 O16 1.817120 1_555
Mo4 O8 1.846384 1_565
Mo5 O13 1.748010 1_555
Mo5 O17 1.815201 1_455
Mo5 O21 1.816115 1_555
Mo5 O9 1.846355 1_555
Mo6 O14 1.748198 1_555
Mo6 O22 1.814707 1_655
Mo6 O18 1.816240 1_555
Mo6 O10 1.846728 1_555
Mo7 O15 1.748027 1_555
Mo7 O19 1.815116 1_555
Mo7 O23 1.816511 1_555
Mo7 O11 1.846103 1_545
Cl0 Co9 2.458648 1_555
Cl0 Co5 2.524115 1_555
Cl0 Na0 2.991161 1_555
Cl0 Na3 3.206714 1_555
Cl1 Co4 2.438620 1_555
Cl1 Co0 2.536330 1_555
Cl1 Na1 3.021730 1_655
Cl1 Na2 3.230555 1_545
Cl2 Co2 2.437392 1_555
Cl2 Co5 2.521234 1_555
Cl2 Na2 3.023047 1_455
Cl2 Na1 3.228251 1_565
Cl3 Co7 2.456883 1_555
Cl3 Co0 2.505751 1_555
Cl3 Na3 2.999865 1_555
Cl3 Na0 3.230378 1_555
Cl4 Co6 2.465936 1_555
Cl4 Co5 2.513589 1_555
Cl4 Na2 2.992544 1_555
Cl4 Na1 3.214762 1_565
Cl5 Co1 2.440729 1_555
Cl5 Co0 2.527708 1_455
Cl5 Na3 3.024048 1_555
Cl5 Na0 3.225132 1_455
Cl6 Co3 2.439775 1_555
Cl6 Co5 2.519695 1_655
Cl6 Na0 3.025945 1_555
Cl6 Na3 3.224295 1_655
Cl7 Co8 2.459389 1_555
Cl7 Co0 2.502296 1_555
Cl7 Na1 3.001231 1_555
Cl7 Na2 3.220450 1_545
