# generated using pymatgen
data_BaLa2ZnO5
_symmetry_space_group_name_H-M   'P 1'
_cell_length_a   7.65150535
_cell_length_b   7.65150535
_cell_length_c   7.65150535
_cell_angle_alpha   126.01898824
_cell_angle_beta   126.01898824
_cell_angle_gamma   79.85693421
_symmetry_Int_Tables_number   1
_chemical_formula_structural   BaLa2ZnO5
_chemical_formula_sum   'Ba2 La4 Zn2 O10'
_cell_volume   283.02187610
_cell_formula_units_Z   2
loop_
 _symmetry_equiv_pos_site_id
 _symmetry_equiv_pos_as_xyz
  1  'x, y, z'
loop_
 _atom_site_type_symbol
 _atom_site_label
 _atom_site_symmetry_multiplicity
 _atom_site_fract_x
 _atom_site_fract_y
 _atom_site_fract_z
 _atom_site_occupancy
  Ba  Ba0  1  0.75000000  0.75000000  0.00000000  1
  Ba  Ba1  1  0.25000000  0.25000000  0.00000000  1
  La  La0  1  0.32360900  0.82360900  0.14721900  1
  La  La1  1  0.82360900  0.67639100  0.50000000  1
  La  La2  1  0.17639100  0.32360900  0.50000000  1
  La  La3  1  0.67639100  0.17639100  0.85278100  1
  Zn  Zn0  1  0.25000000  0.75000000  0.50000000  1
  Zn  Zn1  1  0.75000000  0.25000000  0.50000000  1
  O  O0  1  0.27855600  0.77855600  0.79155400  1
  O  O1  1  0.01299700  0.51299700  0.79155400  1
  O  O2  1  0.72144400  0.22144400  0.20844600  1
  O  O3  1  0.22144400  0.01299700  0.50000000  1
  O  O4  1  0.51299700  0.72144400  0.50000000  1
  O  O5  1  0.77855600  0.98700300  0.50000000  1
  O  O6  1  0.48700300  0.27855600  0.50000000  1
  O  O7  1  0.98700300  0.48700300  0.20844600  1
  O  O8  1  0.00000000  0.00000000  0.00000000  1
  O  O9  1  0.50000000  0.50000000  0.00000000  1
loop_
_geom_bond_atom_site_label_1
_geom_bond_atom_site_label_2
_geom_bond_distance
_geom_bond_site_symmetry_2
Ba0 O9 2.933765 1_555
Ba0 O8 2.933765 1_665
Ba0 O1 2.994920 1_654
Ba0 O7 2.994920 1_555
Ba0 O4 2.994924 1_554
Ba0 O5 2.994924 1_555
Ba0 O6 2.994924 1_554
Ba0 O3 2.994924 1_665
Ba0 O0 2.994925 1_554
Ba0 O2 2.994925 1_565
Ba1 O8 2.933765 1_555
Ba1 O9 2.933765 1_555
Ba1 O7 2.994920 1_455
Ba1 O1 2.994920 1_554
Ba1 O4 2.994924 1_555
Ba1 O5 2.994924 1_444
Ba1 O3 2.994924 1_554
Ba1 O6 2.994924 1_555
Ba1 O2 2.994925 1_555
Ba1 O0 2.994925 1_544
La0 O0 2.340669 1_554
La0 O1 2.340669 1_554
La0 O8 2.559711 1_565
La0 O9 2.559711 1_555
La0 O3 2.734870 1_565
La0 O4 2.734870 1_555
La0 O5 2.734877 1_555
La0 O6 2.734877 1_565
La1 O5 2.340669 1_555
La1 O4 2.340669 1_555
La1 O8 2.559710 1_666
La1 O9 2.559710 1_555
La1 O2 2.734876 1_555
La1 O0 2.734876 1_655
La1 O7 2.734882 1_555
La1 O1 2.734882 1_655
La2 O3 2.340669 1_555
La2 O6 2.340669 1_555
La2 O8 2.559710 1_555
La2 O9 2.559710 1_556
La2 O2 2.734876 1_455
La2 O0 2.734876 1_555
La2 O1 2.734882 1_555
La2 O7 2.734882 1_455
La3 O2 2.340669 1_556
La3 O7 2.340669 1_556
La3 O8 2.559711 1_656
La3 O9 2.559711 1_556
La3 O6 2.734870 1_555
La3 O5 2.734870 1_545
La3 O4 2.734877 1_545
La3 O3 2.734877 1_555
O0 Zn0 1.985536 1_555
O1 Zn1 1.985527 1_455
O2 Zn1 1.985536 1_555
O3 Zn0 1.985528 1_545
O4 Zn0 1.985528 1_555
O5 Zn1 1.985528 1_565
O6 Zn1 1.985528 1_555
O7 Zn0 1.985527 1_655
