# generated using pymatgen
data_KH2Au(Cl2O)2
_symmetry_space_group_name_H-M   'P 1'
_cell_length_a   7.39974400
_cell_length_b   9.41401500
_cell_length_c   12.30692200
_cell_angle_alpha   90.00000000
_cell_angle_beta   90.00000000
_cell_angle_gamma   90.00000000
_symmetry_Int_Tables_number   1
_chemical_formula_structural   KH2Au(Cl2O)2
_chemical_formula_sum   'K4 H8 Au4 Cl16 O8'
_cell_volume   857.31619798
_cell_formula_units_Z   4
loop_
 _symmetry_equiv_pos_site_id
 _symmetry_equiv_pos_as_xyz
  1  'x, y, z'
loop_
 _atom_site_type_symbol
 _atom_site_label
 _atom_site_symmetry_multiplicity
 _atom_site_fract_x
 _atom_site_fract_y
 _atom_site_fract_z
 _atom_site_occupancy
  K  K0  1  0.75000000  0.88593800  0.50000000  1
  K  K1  1  0.25000000  0.61406200  0.00000000  1
  K  K2  1  0.25000000  0.11406200  0.50000000  1
  K  K3  1  0.75000000  0.38593800  0.00000000  1
  H  H0  1  0.95953300  0.54018800  0.21856800  1
  H  H1  1  0.45953300  0.95981200  0.28143200  1
  H  H2  1  0.04046700  0.95981200  0.71856800  1
  H  H3  1  0.54046700  0.54018800  0.78143200  1
  H  H4  1  0.04046700  0.45981200  0.78143200  1
  H  H5  1  0.54046700  0.04018800  0.71856800  1
  H  H6  1  0.95953300  0.04018800  0.28143200  1
  H  H7  1  0.45953300  0.45981200  0.21856800  1
  Au  Au0  1  0.75000000  0.91754500  0.00000000  1
  Au  Au1  1  0.25000000  0.58245500  0.50000000  1
  Au  Au2  1  0.25000000  0.08245500  0.00000000  1
  Au  Au3  1  0.75000000  0.41754500  0.50000000  1
  Cl  Cl0  1  0.66645500  0.58971500  0.37580200  1
  Cl  Cl1  1  0.16645500  0.91028500  0.12419800  1
  Cl  Cl2  1  0.33354500  0.91028500  0.87580200  1
  Cl  Cl3  1  0.83354500  0.58971500  0.62419800  1
  Cl  Cl4  1  0.33354500  0.41028500  0.62419800  1
  Cl  Cl5  1  0.83354500  0.08971500  0.87580200  1
  Cl  Cl6  1  0.66645500  0.08971500  0.12419800  1
  Cl  Cl7  1  0.16645500  0.41028500  0.37580200  1
  Cl  Cl8  1  0.67275700  0.74409900  0.12667500  1
  Cl  Cl9  1  0.17275700  0.75590100  0.37332500  1
  Cl  Cl10  1  0.32724300  0.75590100  0.62667500  1
  Cl  Cl11  1  0.82724300  0.74409900  0.87332500  1
  Cl  Cl12  1  0.32724300  0.25590100  0.87332500  1
  Cl  Cl13  1  0.82724300  0.24409900  0.62667500  1
  Cl  Cl14  1  0.67275700  0.24409900  0.37332500  1
  Cl  Cl15  1  0.17275700  0.25590100  0.12667500  1
  O  O0  1  0.95715200  0.53804100  0.13865100  1
  O  O1  1  0.45715200  0.96195900  0.36134900  1
  O  O2  1  0.04284800  0.96195900  0.63865100  1
  O  O3  1  0.54284800  0.53804100  0.86134900  1
  O  O4  1  0.04284800  0.46195900  0.86134900  1
  O  O5  1  0.54284800  0.03804100  0.63865100  1
  O  O6  1  0.95715200  0.03804100  0.36134900  1
  O  O7  1  0.45715200  0.46195900  0.13865100  1
loop_
_geom_bond_atom_site_label_1
_geom_bond_atom_site_label_2
_geom_bond_distance
_geom_bond_site_symmetry_2
K0 O5 2.704020 1_565
K0 O6 2.704020 1_565
K0 O2 2.849518 1_655
K0 O1 2.849518 1_555
K1 O7 2.704020 1_555
K1 O4 2.704020 1_554
K1 O0 2.849518 1_455
K1 O3 2.849518 1_554
K2 O2 2.704020 1_545
K2 O1 2.704020 1_545
K2 O6 2.849518 1_455
K2 O5 2.849518 1_555
K3 O0 2.704020 1_555
K3 O3 2.704020 1_554
K3 O7 2.849518 1_555
K3 O4 2.849518 1_654
H0 O0 0.983898 1_555
H1 O1 0.983898 1_555
H2 O2 0.983898 1_555
H3 O3 0.983898 1_555
H4 O4 0.983898 1_555
H5 O5 0.983898 1_555
H6 O6 0.983898 1_555
H7 O7 0.983898 1_555
Au0 Cl6 2.312036 1_565
Au0 Cl5 2.312036 1_564
Au0 Cl8 2.328783 1_555
Au0 Cl11 2.328783 1_554
Au1 Cl4 2.312036 1_555
Au1 Cl7 2.312036 1_555
Au1 Cl10 2.328783 1_555
Au1 Cl9 2.328783 1_555
Au2 Cl1 2.312036 1_545
Au2 Cl2 2.312036 1_544
Au2 Cl15 2.328783 1_555
Au2 Cl12 2.328783 1_554
Au3 Cl3 2.312036 1_555
Au3 Cl0 2.312036 1_555
Au3 Cl13 2.328783 1_555
Au3 Cl14 2.328783 1_555
Cl0 K0 3.239605 1_555
Cl1 K1 3.239605 1_555
Cl2 K1 3.239605 1_556
Cl3 K0 3.239605 1_555
Cl4 K2 3.239605 1_555
Cl5 K3 3.239605 1_556
Cl6 K3 3.239605 1_555
Cl7 K2 3.239605 1_555
