# generated using pymatgen
data_Y2Ge5Ru3
_symmetry_space_group_name_H-M   'P 1'
_cell_length_a   8.42109372
_cell_length_b   8.42009044
_cell_length_c   8.42011991
_cell_angle_alpha   140.06122726
_cell_angle_beta   108.62874939
_cell_angle_gamma   85.05297736
_symmetry_Int_Tables_number   1
_chemical_formula_structural   Y2Ge5Ru3
_chemical_formula_sum   'Y4 Ge10 Ru6'
_cell_volume   350.62575144
_cell_formula_units_Z   2
loop_
 _symmetry_equiv_pos_site_id
 _symmetry_equiv_pos_as_xyz
  1  'x, y, z'
loop_
 _atom_site_type_symbol
 _atom_site_label
 _atom_site_symmetry_multiplicity
 _atom_site_fract_x
 _atom_site_fract_y
 _atom_site_fract_z
 _atom_site_occupancy
  Y  Y0  1  0.37003756  0.13904371  0.23099091  1
  Y  Y1  1  0.09168795  0.36083355  0.73078236  1
  Y  Y2  1  0.62997731  0.86095671  0.76902352  1
  Y  Y3  1  0.90829852  0.63916690  0.26920341  1
  Ge  Ge0  1  0.29190452  0.04177180  0.74962601  1
  Ge  Ge1  1  0.41475182  0.58883222  0.82596152  1
  Ge  Ge2  1  0.23681267  0.91092069  0.32577418  1
  Ge  Ge3  1  0.99998701  0.75003503  0.75004321  1
  Ge  Ge4  1  0.29185106  0.54227812  0.25011888  1
  Ge  Ge5  1  0.00003054  0.24998207  0.24995689  1
  Ge  Ge6  1  0.58525186  0.41117365  0.17403609  1
  Ge  Ge7  1  0.70814006  0.45771377  0.74988234  1
  Ge  Ge8  1  0.76319637  0.08908594  0.67422872  1
  Ge  Ge9  1  0.70808609  0.95821756  0.25037303  1
  Ru  Ru0  1  0.76040468  0.35303827  0.40730271  1
  Ru  Ru1  1  0.05474885  0.14703100  0.90760597  1
  Ru  Ru2  1  0.94526533  0.85295862  0.09242036  1
  Ru  Ru3  1  0.23955700  0.64694981  0.59267053  1
  Ru  Ru4  1  0.50008281  0.75005727  0.25009418  1
  Ru  Ru5  1  0.49992698  0.24995231  0.74990319  1
loop_
_geom_bond_atom_site_label_1
_geom_bond_atom_site_label_2
_geom_bond_distance
_geom_bond_site_symmetry_2
Ge0 Ru1 2.475373 1_555
Ge0 Ru3 2.477105 1_545
Ge0 Ru5 2.581103 1_555
Ge0 Ge2 2.677067 1_545
Ge0 Ge6 2.681044 1_556
Ge0 Ge4 2.872591 1_545
Ge0 Ge4 2.878645 1_556
Ge0 Y2 3.128322 1_545
Ge0 Y1 3.128399 1_555
Ge0 Y3 3.286736 1_445
Ge0 Y0 3.290949 1_556
Ge1 Ru3 2.402657 1_555
Ge1 Ru5 2.490938 1_555
Ge1 Ru4 2.491481 1_556
Ge1 Ge9 2.680950 1_556
Ge1 Ge7 2.681329 1_555
Ge1 Y1 2.979554 1_555
Ge1 Y0 3.086565 1_566
Ge1 Y0 3.086858 1_555
Ge1 Y2 3.423562 1_555
Ge2 Ru2 2.404342 1_455
Ge2 Ru5 2.492922 1_565
Ge2 Ru4 2.493387 1_555
Ge2 Ge4 2.676527 1_555
Ge2 Y0 2.979864 1_565
Ge2 Y1 3.086606 1_554
Ge2 Y1 3.086712 1_565
Ge2 Y3 3.419716 1_455
Ge3 Ru1 2.494214 1_665
Ge3 Ru3 2.494293 1_655
Ge3 Ru2 2.494586 1_556
Ge3 Ru0 2.494632 1_555
Ge3 Y1 3.192278 1_655
Ge3 Y3 3.192358 1_555
Ge3 Y2 3.192793 1_555
Ge3 Y0 3.193236 1_666
Ge4 Ru1 2.475648 1_554
Ge4 Ru3 2.477172 1_555
Ge4 Ru4 2.581786 1_555
Ge4 Ge6 2.681420 1_555
Ge4 Y1 3.128538 1_554
Ge4 Y2 3.128788 1_555
Ge4 Y3 3.286325 1_455
Ge4 Y0 3.291040 1_555
Ge5 Ru1 2.494233 1_554
Ge5 Ru3 2.494272 1_555
Ge5 Ru2 2.494560 1_445
Ge5 Ru0 2.494652 1_455
Ge5 Y3 3.192266 1_455
Ge5 Y1 3.192370 1_555
Ge5 Y0 3.192778 1_555
Ge5 Y2 3.193249 1_444
Ge6 Ru0 2.402495 1_555
Ge6 Ru4 2.490954 1_555
Ge6 Ru5 2.491505 1_554
Ge6 Y3 2.979454 1_555
Ge6 Y2 3.086628 1_544
Ge6 Y2 3.086922 1_555
Ge6 Y0 3.423656 1_555
Ge7 Ru2 2.475719 1_556
Ge7 Ru0 2.477249 1_555
Ge7 Ru5 2.581536 1_555
Ge7 Ge8 2.676439 1_555
Ge7 Ge9 2.872603 1_545
Ge7 Ge9 2.878632 1_556
Ge7 Y3 3.128383 1_556
Ge7 Y0 3.128640 1_555
Ge7 Y1 3.286301 1_655
Ge7 Y2 3.291009 1_555
Ge8 Ru1 2.404490 1_655
Ge8 Ru4 2.492928 1_545
Ge8 Ru5 2.493382 1_555
Ge8 Ge9 2.676978 1_545
Ge8 Y2 2.979970 1_545
Ge8 Y3 3.086540 1_556
Ge8 Y3 3.086650 1_545
Ge8 Y1 3.419618 1_655
Ge9 Ru2 2.475442 1_555
Ge9 Ru0 2.477184 1_565
Ge9 Ru4 2.580848 1_555
Ge9 Y0 3.128173 1_565
Ge9 Y3 3.128244 1_555
Ge9 Y1 3.286714 1_665
Ge9 Y2 3.290920 1_554
Ru0 Y0 3.171569 1_555
Ru0 Y1 3.179430 1_655
Ru0 Y2 3.181879 1_544
Ru0 Y2 3.182095 1_555
Ru1 Y1 3.171280 1_555
Ru1 Y0 3.177986 1_556
Ru1 Y3 3.182386 1_445
Ru1 Y3 3.183197 1_456
Ru2 Y3 3.170945 1_555
Ru2 Y2 3.178099 1_554
Ru2 Y1 3.182219 1_665
Ru2 Y1 3.183040 1_654
Ru3 Y2 3.171916 1_555
Ru3 Y3 3.179303 1_455
Ru3 Y0 3.182047 1_566
Ru3 Y0 3.182262 1_555
Ru4 Y2 3.467924 1_555
Ru4 Y0 3.468356 1_565
Ru4 Y3 3.469636 1_555
Ru4 Y1 3.471264 1_554
Ru5 Y0 3.467738 1_555
Ru5 Y2 3.468535 1_545
Ru5 Y1 3.469800 1_555
Ru5 Y3 3.471107 1_556
