# generated using pymatgen
data_Cr3GaS6
_symmetry_space_group_name_H-M   'P 1'
_cell_length_a   7.04611383
_cell_length_b   7.04581742
_cell_length_c   63.30641853
_cell_angle_alpha   60.05036744
_cell_angle_beta   60.05112969
_cell_angle_gamma   60.11205478
_symmetry_Int_Tables_number   1
_chemical_formula_structural   Cr3GaS6
_chemical_formula_sum   'Cr36 Ga12 S72'
_cell_volume   2225.94019653
_cell_formula_units_Z   12
loop_
 _symmetry_equiv_pos_site_id
 _symmetry_equiv_pos_as_xyz
  1  'x, y, z'
loop_
 _atom_site_type_symbol
 _atom_site_label
 _atom_site_symmetry_multiplicity
 _atom_site_fract_x
 _atom_site_fract_y
 _atom_site_fract_z
 _atom_site_occupancy
  Cr  Cr0  1  0.11485377  0.63301684  0.06874744  1
  Cr  Cr1  1  0.63299870  0.11490744  0.06874417  1
  Cr  Cr2  1  0.62278707  0.62277872  0.01469044  1
  Cr  Cr3  1  0.10448598  0.63314024  0.18102818  1
  Cr  Cr4  1  0.63350912  0.63351358  0.06870846  1
  Cr  Cr5  1  0.63796303  0.63795255  0.12064925  1
  Cr  Cr6  1  0.63313883  0.10445435  0.18102715  1
  Cr  Cr7  1  0.11991140  0.62984721  0.29115524  1
  Cr  Cr8  1  0.63319265  0.63318396  0.18102857  1
  Cr  Cr9  1  0.62987559  0.11992846  0.29114650  1
  Cr  Cr10  1  0.63408345  0.63408900  0.23307808  1
  Cr  Cr11  1  0.12509378  0.62502354  0.40277503  1
  Cr  Cr12  1  0.62987600  0.62987714  0.29114804  1
  Cr  Cr13  1  0.62503102  0.12508811  0.40277502  1
  Cr  Cr14  1  0.62459987  0.62460320  0.34734590  1
  Cr  Cr15  1  0.12509096  0.62517388  0.51384545  1
  Cr  Cr16  1  0.62488301  0.62488593  0.40278162  1
  Cr  Cr17  1  0.62519397  0.12508424  0.51384591  1
  Cr  Cr18  1  0.62500991  0.62499811  0.45832745  1
  Cr  Cr19  1  0.12481054  0.62457784  0.62512322  1
  Cr  Cr20  1  0.62507522  0.62505748  0.51385773  1
  Cr  Cr21  1  0.62457826  0.12479817  0.62512496  1
  Cr  Cr22  1  0.62504469  0.62504329  0.56942605  1
  Cr  Cr23  1  0.11081401  0.62562922  0.73755383  1
  Cr  Cr24  1  0.62458731  0.62457524  0.62512452  1
  Cr  Cr25  1  0.62561681  0.11083136  0.73755563  1
  Cr  Cr26  1  0.62419987  0.62419583  0.68084253  1
  Cr  Cr27  1  0.09811721  0.63159131  0.84829908  1
  Cr  Cr28  1  0.62549024  0.62546991  0.73757457  1
  Cr  Cr29  1  0.63159728  0.09821585  0.84829466  1
  Cr  Cr30  1  0.63093769  0.63092951  0.78998496  1
  Cr  Cr31  1  0.10079267  0.62921540  0.96008625  1
  Cr  Cr32  1  0.63443964  0.63444416  0.84805153  1
  Cr  Cr33  1  0.63205379  0.63203175  0.89980676  1
  Cr  Cr34  1  0.62920418  0.10078320  0.96008625  1
  Cr  Cr35  1  0.62902623  0.62902794  0.96016038  1
  Ga  Ga0  1  0.24970791  0.24972121  0.13895023  1
  Ga  Ga1  1  0.25184891  0.25187002  0.24935058  1
  Ga  Ga2  1  0.00056717  0.00052519  0.33316995  1
  Ga  Ga3  1  0.25080913  0.25083932  0.36084022  1
  Ga  Ga4  1  0.00020270  0.00017642  0.44441029  1
  Ga  Ga5  1  0.24965955  0.24967987  0.47231408  1
  Ga  Ga6  1  0.00031962  0.00028774  0.55548212  1
  Ga  Ga7  1  0.99912777  0.99909122  0.66699746  1
  Ga  Ga8  1  0.24979977  0.24981803  0.58336733  1
  Ga  Ga9  1  0.24804934  0.24806193  0.69506238  1
  Ga  Ga10  1  0.24830898  0.24831213  0.80621373  1
  Ga  Ga11  1  0.24965097  0.24965177  0.91669714  1
  S  S0  1  0.38501085  0.38501616  0.04318624  1
  S  S1  1  0.38460062  0.38459005  0.09401903  1
  S  S2  1  0.38515742  0.84105041  0.04320968  1
  S  S3  1  0.84105811  0.38516645  0.04320853  1
  S  S4  1  0.38522498  0.38518716  0.15396067  1
  S  S5  1  0.40080533  0.86663331  0.09620278  1
  S  S6  1  0.86680093  0.86680304  0.04440220  1
  S  S7  1  0.86665728  0.40077494  0.09620200  1
  S  S8  1  0.38475355  0.38472694  0.20508563  1
  S  S9  1  0.38516333  0.84408043  0.15395533  1
  S  S10  1  0.84408606  0.38513301  0.15395737  1
  S  S11  1  0.86666260  0.86665471  0.09618700  1
  S  S12  1  0.38465405  0.38471631  0.26508352  1
  S  S13  1  0.40289457  0.86503545  0.20744551  1
  S  S14  1  0.86503333  0.40292347  0.20744432  1
  S  S15  1  0.38481337  0.38485053  0.31616191  1
  S  S16  1  0.38457465  0.84506972  0.26507130  1
  S  S17  1  0.86634216  0.86632543  0.15567072  1
  S  S18  1  0.84507955  0.38463897  0.26506388  1
  S  S19  1  0.86503528  0.86505182  0.20745480  1
  S  S20  1  0.38493206  0.38491893  0.37616259  1
  S  S21  1  0.40487515  0.86392967  0.31859321  1
  S  S22  1  0.86391136  0.40486365  0.31859471  1
  S  S23  1  0.38499139  0.38501257  0.42719307  1
  S  S24  1  0.86501769  0.86493999  0.26722058  1
  S  S25  1  0.38477099  0.84511324  0.37614404  1
  S  S26  1  0.84511550  0.38477463  0.37614367  1
  S  S27  1  0.86374243  0.86376854  0.31859344  1
  S  S28  1  0.38510214  0.38508977  0.48724056  1
  S  S29  1  0.40519848  0.86497373  0.42944160  1
  S  S30  1  0.86499054  0.40520083  0.42943863  1
  S  S31  1  0.38509591  0.38509358  0.53827158  1
  S  S32  1  0.86491882  0.86489458  0.37835671  1
  S  S33  1  0.38510906  0.84487418  0.48722149  1
  S  S34  1  0.84488866  0.38509356  0.48722184  1
  S  S35  1  0.86483465  0.86481221  0.42944106  1
  S  S36  1  0.38510390  0.38508171  0.59837511  1
  S  S37  1  0.40529896  0.86509092  0.54050829  1
  S  S38  1  0.86508542  0.40529238  0.54050720  1
  S  S39  1  0.38518894  0.38518985  0.64940081  1
  S  S40  1  0.86491939  0.86490848  0.48946605  1
  S  S41  1  0.38500485  0.84465294  0.59837142  1
  S  S42  1  0.86498623  0.86501246  0.54049824  1
  S  S43  1  0.84465827  0.38498923  0.59837022  1
  S  S44  1  0.38522518  0.38523360  0.70928623  1
  S  S45  1  0.40504828  0.86518433  0.65162477  1
  S  S46  1  0.86519389  0.40503569  0.65162415  1
  S  S47  1  0.38501833  0.38505609  0.76054342  1
  S  S48  1  0.86477430  0.86477252  0.60064147  1
  S  S49  1  0.38507574  0.84623821  0.70927018  1
  S  S50  1  0.84626623  0.38506847  0.70926628  1
  S  S51  1  0.86512664  0.86513574  0.65161204  1
  S  S52  1  0.38561681  0.38565141  0.82048638  1
  S  S53  1  0.40499504  0.86576492  0.76257676  1
  S  S54  1  0.86579085  0.40497987  0.76257717  1
  S  S55  1  0.38437459  0.84655597  0.82052749  1
  S  S56  1  0.38569802  0.38570772  0.87147200  1
  S  S57  1  0.86539672  0.86537060  0.71153494  1
  S  S58  1  0.84659098  0.38437530  0.82052543  1
  S  S59  1  0.86655429  0.86656825  0.76254838  1
  S  S60  1  0.38539724  0.38539991  0.93162401  1
  S  S61  1  0.39690048  0.86901316  0.87428212  1
  S  S62  1  0.86894345  0.39684042  0.87428868  1
  S  S63  1  0.38971293  0.38967478  0.98123128  1
  S  S64  1  0.38591796  0.84438486  0.93159720  1
  S  S65  1  0.86893670  0.86902951  0.82189656  1
  S  S66  1  0.84439957  0.38592461  0.93159447  1
  S  S67  1  0.86596488  0.86609545  0.87392484  1
  S  S68  1  0.40076305  0.86579773  0.98531018  1
  S  S69  1  0.86579660  0.40075282  0.98530835  1
  S  S70  1  0.86657675  0.86656816  0.93336155  1
  S  S71  1  0.86578007  0.86582116  0.98528084  1
loop_
_geom_bond_atom_site_label_1
_geom_bond_atom_site_label_2
_geom_bond_distance
_geom_bond_site_symmetry_2
Cr0 S6 2.330013 1_455
Cr0 S0 2.393351 1_555
Cr0 S2 2.394032 1_555
Cr0 S7 2.394619 1_455
Cr0 S11 2.395556 1_455
Cr0 S1 2.481992 1_555
Cr1 S6 2.330109 1_545
Cr1 S0 2.393138 1_555
Cr1 S3 2.393895 1_555
Cr1 S5 2.394771 1_545
Cr1 S11 2.395856 1_545
Cr1 S1 2.481767 1_555
Cr2 S3 2.369786 1_555
Cr2 S2 2.369827 1_555
Cr2 S0 2.372693 1_555
Cr2 S71 2.426130 1_554
Cr2 S68 2.427840 1_554
Cr2 S69 2.427919 1_554
Cr3 S17 2.323893 1_455
Cr3 S14 2.340138 1_455
Cr3 S19 2.340753 1_455
Cr3 S9 2.461558 1_555
Cr3 S4 2.462092 1_555
Cr3 S8 2.485844 1_555
Cr4 S6 2.326696 1_555
Cr4 S3 2.391547 1_555
Cr4 S2 2.391563 1_555
Cr4 S5 2.395186 1_555
Cr4 S7 2.395310 1_555
Cr4 S1 2.484586 1_555
Cr5 S5 2.278732 1_555
Cr5 S7 2.278842 1_555
Cr5 S11 2.279504 1_555
Cr5 S4 2.539959 1_555
Cr5 S9 2.541120 1_555
Cr5 S10 2.541206 1_555
Cr6 S17 2.323749 1_545
Cr6 S13 2.340102 1_545
Cr6 S19 2.340738 1_545
Cr6 S10 2.461573 1_555
Cr6 S4 2.461874 1_555
Cr6 S8 2.485877 1_555
Cr7 S24 2.347664 1_455
Cr7 S16 2.397367 1_555
Cr7 S12 2.397554 1_555
Cr7 S27 2.398938 1_455
Cr7 S22 2.399117 1_455
Cr7 S15 2.445509 1_555
Cr8 S17 2.323253 1_555
Cr8 S14 2.339778 1_555
Cr8 S13 2.339861 1_555
Cr8 S10 2.461581 1_555
Cr8 S9 2.461596 1_555
Cr8 S8 2.485657 1_555
Cr9 S24 2.347752 1_545
Cr9 S18 2.397511 1_555
Cr9 S12 2.397659 1_555
Cr9 S27 2.399073 1_545
Cr9 S21 2.399188 1_545
Cr9 S15 2.445957 1_555
Cr10 S14 2.301148 1_555
Cr10 S19 2.301190 1_555
Cr10 S13 2.301233 1_555
Cr10 S18 2.499548 1_555
Cr10 S12 2.499752 1_555
Cr10 S16 2.499824 1_555
Cr11 S20 2.394067 1_555
Cr11 S25 2.394213 1_555
Cr11 S23 2.394334 1_555
Cr11 S35 2.395034 1_455
Cr11 S30 2.395148 1_455
Cr11 S32 2.395781 1_455
Cr12 S24 2.346621 1_555
Cr12 S18 2.397786 1_555
Cr12 S16 2.397814 1_555
Cr12 S21 2.399312 1_555
Cr12 S22 2.399317 1_555
Cr12 S15 2.445583 1_555
Cr13 S20 2.394051 1_555
Cr13 S26 2.394222 1_555
Cr13 S23 2.394444 1_555
Cr13 S35 2.395127 1_545
Cr13 S29 2.395237 1_545
Cr13 S32 2.395847 1_545
Cr14 S27 2.386834 1_555
Cr14 S22 2.387630 1_555
Cr14 S21 2.387645 1_555
Cr14 S20 2.392050 1_555
Cr14 S25 2.393496 1_555
Cr14 S26 2.393521 1_555
Cr15 S28 2.393722 1_555
Cr15 S40 2.394098 1_455
Cr15 S33 2.394124 1_555
Cr15 S42 2.394638 1_455
Cr15 S38 2.394921 1_455
Cr15 S31 2.395237 1_555
Cr16 S23 2.394343 1_555
Cr16 S26 2.394441 1_555
Cr16 S25 2.394459 1_555
Cr16 S30 2.395555 1_555
Cr16 S29 2.395561 1_555
Cr16 S32 2.395741 1_555
Cr17 S28 2.393791 1_555
Cr17 S34 2.394037 1_555
Cr17 S40 2.394109 1_545
Cr17 S42 2.394398 1_545
Cr17 S37 2.394907 1_545
Cr17 S31 2.395210 1_555
Cr18 S35 2.393676 1_555
Cr18 S29 2.394256 1_555
Cr18 S30 2.394311 1_555
Cr18 S28 2.394620 1_555
Cr18 S33 2.394928 1_555
Cr18 S34 2.394972 1_555
Cr19 S39 2.390821 1_555
Cr19 S51 2.390889 1_455
Cr19 S46 2.391302 1_455
Cr19 S41 2.396826 1_555
Cr19 S36 2.397165 1_555
Cr19 S48 2.397779 1_455
Cr20 S34 2.393747 1_555
Cr20 S33 2.393803 1_555
Cr20 S40 2.394056 1_555
Cr20 S38 2.394667 1_555
Cr20 S37 2.394804 1_555
Cr20 S31 2.395258 1_555
Cr21 S51 2.390775 1_545
Cr21 S39 2.390785 1_555
Cr21 S45 2.391215 1_545
Cr21 S43 2.396818 1_555
Cr21 S36 2.397147 1_555
Cr21 S48 2.397768 1_545
Cr22 S42 2.395127 1_555
Cr22 S36 2.395168 1_555
Cr22 S37 2.395427 1_555
Cr22 S38 2.395487 1_555
Cr22 S43 2.396026 1_555
Cr22 S41 2.396048 1_555
Cr23 S54 2.322134 1_455
Cr23 S59 2.323551 1_455
Cr23 S57 2.389866 1_455
Cr23 S47 2.409310 1_555
Cr23 S49 2.473142 1_555
Cr23 S44 2.473388 1_555
Cr24 S39 2.389773 1_555
Cr24 S46 2.390894 1_555
Cr24 S45 2.390906 1_555
Cr24 S41 2.397146 1_555
Cr24 S43 2.397193 1_555
Cr24 S48 2.397284 1_555
Cr25 S53 2.322217 1_545
Cr25 S59 2.323488 1_545
Cr25 S57 2.390141 1_545
Cr25 S47 2.409308 1_555
Cr25 S50 2.473189 1_555
Cr25 S44 2.473451 1_555
Cr26 S50 2.383610 1_555
Cr26 S49 2.383659 1_555
Cr26 S44 2.384006 1_555
Cr26 S51 2.405616 1_555
Cr26 S45 2.406587 1_555
Cr26 S46 2.406641 1_555
Cr27 S62 2.311324 1_455
Cr27 S67 2.317486 1_455
Cr27 S65 2.326103 1_455
Cr27 S56 2.488220 1_555
Cr27 S52 2.488634 1_555
Cr27 S55 2.509673 1_555
Cr28 S53 2.320443 1_555
Cr28 S54 2.320521 1_555
Cr28 S57 2.390649 1_555
Cr28 S47 2.407441 1_555
Cr28 S49 2.474174 1_555
Cr28 S50 2.474258 1_555
Cr29 S61 2.311198 1_545
Cr29 S67 2.317022 1_545
Cr29 S65 2.325904 1_545
Cr29 S56 2.487884 1_555
Cr29 S52 2.488592 1_555
Cr29 S58 2.509260 1_555
Cr30 S59 2.349059 1_555
Cr30 S54 2.355656 1_555
Cr30 S53 2.355660 1_555
Cr30 S55 2.452267 1_555
Cr30 S58 2.452307 1_555
Cr30 S52 2.452690 1_555
Cr31 S71 2.309075 1_455
Cr31 S69 2.309240 1_455
Cr31 S70 2.365330 1_455
Cr31 S63 2.413628 1_555
Cr31 S60 2.503757 1_555
Cr31 S64 2.504983 1_555
Cr32 S65 2.336904 1_555
Cr32 S62 2.344939 1_555
Cr32 S61 2.344944 1_555
Cr32 S56 2.492728 1_555
Cr32 S55 2.493028 1_555
Cr32 S58 2.493082 1_555
Cr33 S62 2.316430 1_555
Cr33 S61 2.316562 1_555
Cr33 S67 2.331392 1_555
Cr33 S60 2.473281 1_555
Cr33 S66 2.496303 1_555
Cr33 S64 2.496455 1_555
Cr34 S71 2.308944 1_545
Cr34 S68 2.309075 1_545
Cr34 S70 2.365305 1_545
Cr34 S63 2.413429 1_555
Cr34 S60 2.503734 1_555
Cr34 S66 2.505163 1_555
Cr35 S69 2.307753 1_555
Cr35 S68 2.307807 1_555
Cr35 S70 2.366966 1_555
Cr35 S63 2.410166 1_555
Cr35 S64 2.503809 1_555
Cr35 S66 2.503871 1_555
Ga0 S1 2.323600 1_555
Ga0 S4 2.333592 1_555
Ga0 S9 2.336172 1_545
Ga0 S10 2.336178 1_455
Ga1 S8 2.289145 1_555
Ga1 S12 2.340534 1_555
Ga1 S18 2.343023 1_455
Ga1 S16 2.343090 1_545
Ga2 S27 2.326225 1_445
Ga2 S21 2.328730 1_545
Ga2 S22 2.328792 1_455
Ga2 S32 2.336816 1_445
Ga3 S15 2.310520 1_555
Ga3 S20 2.333771 1_555
Ga3 S26 2.336625 1_455
Ga3 S25 2.336695 1_545
Ga4 S35 2.330022 1_445
Ga4 S40 2.330042 1_445
Ga4 S29 2.332573 1_545
Ga4 S30 2.332621 1_455
Ga5 S28 2.328508 1_555
Ga5 S34 2.331284 1_455
Ga5 S33 2.331369 1_545
Ga5 S23 2.333414 1_555
Ga6 S42 2.330068 1_445
Ga6 S37 2.332478 1_545
Ga6 S38 2.332508 1_455
Ga6 S48 2.335398 1_445
Ga7 S57 2.303240 1_555
Ga7 S51 2.335634 1_555
Ga7 S45 2.337954 1_655
Ga7 S46 2.337976 1_565
Ga8 S36 2.331067 1_555
Ga8 S31 2.332108 1_555
Ga8 S43 2.333410 1_455
Ga8 S41 2.333431 1_545
Ga9 S44 2.312599 1_555
Ga9 S50 2.314398 1_455
Ga9 S49 2.314515 1_545
Ga9 S39 2.361372 1_555
Ga10 S58 2.313926 1_455
Ga10 S55 2.314030 1_545
Ga10 S52 2.316824 1_555
Ga10 S47 2.361818 1_555
Ga11 S60 2.332222 1_555
Ga11 S64 2.334040 1_545
Ga11 S66 2.334067 1_455
Ga11 S56 2.338811 1_555
