# generated using pymatgen
data_Cs3Bi2Br9
_symmetry_space_group_name_H-M   'P 1'
_cell_length_a   8.18539521
_cell_length_b   8.18539521
_cell_length_c   20.25357060
_cell_angle_alpha   89.28646804
_cell_angle_beta   89.28646804
_cell_angle_gamma   60.16683726
_symmetry_Int_Tables_number   1
_chemical_formula_structural   Cs3Bi2Br9
_chemical_formula_sum   'Cs6 Bi4 Br18'
_cell_volume   1177.04813224
_cell_formula_units_Z   2
loop_
 _symmetry_equiv_pos_site_id
 _symmetry_equiv_pos_as_xyz
  1  'x, y, z'
loop_
 _atom_site_type_symbol
 _atom_site_label
 _atom_site_symmetry_multiplicity
 _atom_site_fract_x
 _atom_site_fract_y
 _atom_site_fract_z
 _atom_site_occupancy
  Cs  Cs0  1  0.67375500  0.65712500  0.16770700  1
  Cs  Cs1  1  0.00000000  0.00000000  0.00000000  1
  Cs  Cs2  1  0.34287500  0.32624500  0.33229300  1
  Cs  Cs3  1  0.00000000  0.00000000  0.50000000  1
  Cs  Cs4  1  0.65712500  0.67375500  0.66770700  1
  Cs  Cs5  1  0.32624500  0.34287500  0.83229300  1
  Bi  Bi0  1  0.67377700  0.66315200  0.40717400  1
  Bi  Bi1  1  0.33684800  0.32622300  0.09282600  1
  Bi  Bi2  1  0.66315200  0.67377700  0.90717400  1
  Bi  Bi3  1  0.32622300  0.33684800  0.59282600  1
  Br  Br0  1  0.16382900  0.66581400  0.66424500  1
  Br  Br1  1  0.82320400  0.34911500  0.83354100  1
  Br  Br2  1  0.00000000  0.50000000  0.50000000  1
  Br  Br3  1  0.66581400  0.16382900  0.16424500  1
  Br  Br4  1  0.14968800  0.18924700  0.66978600  1
  Br  Br5  1  0.81075300  0.85031200  0.83021400  1
  Br  Br6  1  0.00000000  0.50000000  0.00000000  1
  Br  Br7  1  0.85031200  0.81075300  0.33021400  1
  Br  Br8  1  0.33418600  0.83617100  0.83575500  1
  Br  Br9  1  0.83617100  0.33418600  0.33575500  1
  Br  Br10  1  0.50000000  0.50000000  0.00000000  1
  Br  Br11  1  0.34911500  0.82320400  0.33354100  1
  Br  Br12  1  0.65088500  0.17679600  0.66645900  1
  Br  Br13  1  0.17679600  0.65088500  0.16645900  1
  Br  Br14  1  0.50000000  0.00000000  0.00000000  1
  Br  Br15  1  0.18924700  0.14968800  0.16978600  1
  Br  Br16  1  0.50000000  0.00000000  0.50000000  1
  Br  Br17  1  0.50000000  0.50000000  0.50000000  1
loop_
_geom_bond_atom_site_label_1
_geom_bond_atom_site_label_2
_geom_bond_distance
_geom_bond_site_symmetry_2
Bi0 Br11 2.754762 1_555
Bi0 Br9 2.756421 1_555
Bi0 Br7 2.758864 1_555
Bi0 Br2 2.993803 1_655
Bi0 Br17 3.016998 1_555
Bi0 Br16 3.052964 1_565
Bi1 Br13 2.754762 1_555
Bi1 Br3 2.756421 1_555
Bi1 Br15 2.758864 1_555
Bi1 Br14 2.993803 1_555
Bi1 Br10 3.016998 1_555
Bi1 Br6 3.052964 1_555
Bi2 Br1 2.754762 1_555
Bi2 Br8 2.756421 1_555
Bi2 Br5 2.758864 1_555
Bi2 Br14 2.993803 1_566
Bi2 Br10 3.016998 1_556
Bi2 Br6 3.052964 1_656
Bi3 Br12 2.754762 1_555
Bi3 Br0 2.756421 1_555
Bi3 Br4 2.758864 1_555
Bi3 Br2 2.993803 1_555
Bi3 Br17 3.016998 1_555
Bi3 Br16 3.052964 1_555
Br0 Cs4 4.072033 1_555
Br0 Cs3 4.072052 1_565
Br0 Cs5 4.090394 1_555
Br0 Cs4 4.115354 1_455
Br1 Cs4 4.060497 1_555
Br1 Cs5 4.092185 1_655
Br1 Cs5 4.093850 1_555
Br1 Cs1 4.170568 1_656
Br2 Cs3 4.092698 1_555
Br2 Cs3 4.092698 1_565
Br2 Cs2 4.165135 1_555
Br2 Cs4 4.165135 1_455
Br3 Cs0 4.072033 1_555
Br3 Cs1 4.072052 1_655
Br3 Cs2 4.090394 1_555
Br3 Cs0 4.115354 1_545
Br4 Cs4 4.009572 1_455
Br4 Cs5 4.066026 1_555
Br4 Cs4 4.197699 1_545
Br4 Cs3 4.225166 1_555
Br5 Cs5 4.009572 1_565
Br5 Cs4 4.066026 1_555
Br5 Cs5 4.197699 1_655
Br5 Cs1 4.225166 1_666
Br6 Cs1 4.092698 1_555
Br6 Cs1 4.092698 1_565
Br6 Cs0 4.097368 1_455
Br6 Cs5 4.097368 1_554
Br7 Cs2 4.009572 1_655
Br7 Cs0 4.066026 1_555
Br7 Cs2 4.197699 1_565
Br7 Cs3 4.225166 1_665
Br8 Cs5 4.072033 1_555
Br8 Cs1 4.072052 1_566
Br8 Cs4 4.090394 1_555
Br8 Cs5 4.115354 1_565
Br9 Cs2 4.072033 1_555
Br9 Cs3 4.072052 1_655
Br9 Cs0 4.090394 1_555
Br9 Cs2 4.115354 1_655
Br10 Cs1 4.103014 1_655
Br10 Cs1 4.103014 1_565
Br10 Cs0 4.154921 1_555
Br10 Cs5 4.154921 1_554
Br11 Cs0 4.060497 1_555
Br11 Cs2 4.092185 1_565
Br11 Cs2 4.093850 1_555
Br11 Cs3 4.170568 1_565
Br12 Cs5 4.060497 1_555
Br12 Cs4 4.092185 1_545
Br12 Cs4 4.093850 1_555
Br12 Cs3 4.170568 1_655
Br13 Cs2 4.060497 1_555
Br13 Cs0 4.092185 1_455
Br13 Cs0 4.093850 1_555
Br13 Cs1 4.170568 1_565
Br14 Cs1 4.092698 1_555
Br14 Cs1 4.092698 1_655
Br14 Cs0 4.165135 1_545
Br14 Cs5 4.165135 1_554
Br15 Cs0 4.009572 1_545
Br15 Cs2 4.066026 1_555
Br15 Cs0 4.197699 1_455
Br15 Cs1 4.225166 1_555
Br16 Cs3 4.092698 1_555
Br16 Cs3 4.092698 1_655
Br16 Cs2 4.097368 1_555
Br16 Cs4 4.097368 1_545
Br17 Cs3 4.103014 1_565
Br17 Cs3 4.103014 1_655
Br17 Cs2 4.154921 1_555
Br17 Cs4 4.154921 1_555
