# generated using pymatgen
data_K2SiAs2
_symmetry_space_group_name_H-M   'P 1'
_cell_length_a   6.36017247
_cell_length_b   7.00889120
_cell_length_c   8.17015744
_cell_angle_alpha   115.39982971
_cell_angle_beta   112.90671295
_cell_angle_gamma   90.00000476
_symmetry_Int_Tables_number   1
_chemical_formula_structural   K2SiAs2
_chemical_formula_sum   'K4 Si2 As4'
_cell_volume   296.89383948
_cell_formula_units_Z   2
loop_
 _symmetry_equiv_pos_site_id
 _symmetry_equiv_pos_as_xyz
  1  'x, y, z'
loop_
 _atom_site_type_symbol
 _atom_site_label
 _atom_site_symmetry_multiplicity
 _atom_site_fract_x
 _atom_site_fract_y
 _atom_site_fract_z
 _atom_site_occupancy
  K  K0  1  0.85662840  0.02105304  0.71325681  1
  K  K1  1  0.35662840  0.69220376  0.71325681  1
  K  K2  1  0.64337160  0.30779624  0.28674319  1
  K  K3  1  0.14337160  0.97894696  0.28674319  1
  Si  Si0  1  0.25000000  0.50000000  -0.00000000  1
  Si  Si1  1  0.75000000  0.50000000  -0.00000000  1
  As  As0  1  0.60035739  0.76670199  0.20071578  1
  As  As1  1  0.10035739  0.43401379  0.20071578  1
  As  As2  1  0.89964261  0.56598621  0.79928422  1
  As  As3  1  0.39964261  0.23329801  0.79928422  1
loop_
_geom_bond_atom_site_label_1
_geom_bond_atom_site_label_2
_geom_bond_distance
_geom_bond_site_symmetry_2
K0 Si0 3.421598 1_656
K0 Si1 3.421598 1_556
K1 Si0 3.421598 1_556
K1 Si1 3.421598 1_556
K2 Si1 3.421598 1_555
K2 Si0 3.421598 1_555
K3 Si1 3.421598 1_455
K3 Si0 3.421598 1_555
As0 Si0 2.382129 1_555
As0 Si1 2.382133 1_555
As0 K0 3.413619 1_565
As0 K3 3.442106 1_555
As0 K3 3.442112 1_655
As0 K1 3.456432 1_554
As0 K2 3.537698 1_565
As0 K2 3.564252 1_555
As1 Si1 2.382129 1_455
As1 Si0 2.382133 1_555
As1 K1 3.413619 1_555
As1 K2 3.442106 1_455
As1 K2 3.442112 1_555
As1 K0 3.456432 1_454
As1 K3 3.537698 1_545
As1 K3 3.564252 1_555
As2 Si0 2.382129 1_656
As2 Si1 2.382133 1_556
As2 K2 3.413619 1_555
As2 K1 3.442106 1_655
As2 K1 3.442112 1_555
As2 K3 3.456432 1_656
As2 K0 3.537698 1_565
As2 K0 3.564252 1_555
As3 Si1 2.382129 1_556
As3 Si0 2.382133 1_556
As3 K3 3.413619 1_545
As3 K0 3.442106 1_555
As3 K0 3.442112 1_455
As3 K2 3.456432 1_556
As3 K1 3.537698 1_545
As3 K1 3.564252 1_555
