# generated using pymatgen
data_Sr3Nd4O9
_symmetry_space_group_name_H-M   'P 1'
_cell_length_a   7.53263600
_cell_length_b   8.20365279
_cell_length_c   9.61256669
_cell_angle_alpha   96.58848646
_cell_angle_beta   100.34146329
_cell_angle_gamma   106.20998482
_symmetry_Int_Tables_number   1
_chemical_formula_structural   Sr3Nd4O9
_chemical_formula_sum   'Sr6 Nd8 O18'
_cell_volume   552.51881248
_cell_formula_units_Z   2
loop_
 _symmetry_equiv_pos_site_id
 _symmetry_equiv_pos_as_xyz
  1  'x, y, z'
loop_
 _atom_site_type_symbol
 _atom_site_label
 _atom_site_symmetry_multiplicity
 _atom_site_fract_x
 _atom_site_fract_y
 _atom_site_fract_z
 _atom_site_occupancy
  Sr  Sr0  1  0.26574400  0.71705500  0.98887400  1
  Sr  Sr1  1  0.61142700  0.75052700  0.37305700  1
  Sr  Sr2  1  0.63585200  0.56422200  0.05014000  1
  Sr  Sr3  1  0.96684400  0.09016100  0.41494200  1
  Sr  Sr4  1  0.90486900  0.35564900  0.90480000  1
  Sr  Sr5  1  0.58108600  0.07965500  0.63665000  1
  Nd  Nd0  1  0.55808200  0.11292400  0.08663900  1
  Nd  Nd1  1  0.94453700  0.94990700  0.02588900  1
  Nd  Nd2  1  0.10379100  0.62636000  0.64843300  1
  Nd  Nd3  1  0.58152800  0.58848900  0.69949600  1
  Nd  Nd4  1  0.24261900  0.35631100  0.28783500  1
  Nd  Nd5  1  0.17430500  0.79991400  0.35084700  1
  Nd  Nd6  1  0.21487300  0.16488700  0.77666100  1
  Nd  Nd7  1  0.72956000  0.37015900  0.41710700  1
  O  O0  1  0.18508300  0.04878600  0.24474700  1
  O  O1  1  0.17658700  0.96885400  0.57631000  1
  O  O2  1  0.43490300  0.75824800  0.58162200  1
  O  O3  1  0.63313900  0.05364200  0.37084300  1
  O  O4  1  0.30058200  0.62575400  0.21210200  1
  O  O5  1  0.60290000  0.84916000  0.00743800  1
  O  O6  1  0.06466100  0.50103800  0.42024100  1
  O  O7  1  0.28792500  0.49463000  0.81313600  1
  O  O8  1  0.79923800  0.64406500  0.55799000  1
  O  O9  1  0.86947200  0.76842100  0.25411400  1
  O  O10  1  0.88699700  0.65163800  0.90192800  1
  O  O11  1  0.44885200  0.35560700  0.51483400  1
  O  O12  1  0.52152500  0.37463000  0.20787400  1
  O  O13  1  0.25159800  0.99099500  0.94223700  1
  O  O14  1  0.56446400  0.26268100  0.88011200  1
  O  O15  1  0.90226000  0.22041800  0.14634300  1
  O  O16  1  0.89110700  0.32572500  0.63408600  1
  O  O17  1  0.91819300  0.07889000  0.82667300  1
loop_
_geom_bond_atom_site_label_1
_geom_bond_atom_site_label_2
_geom_bond_distance
_geom_bond_site_symmetry_2
Nd0 O5 2.344747 1_545
Nd0 O13 2.344917 1_544
Nd0 O15 2.429330 1_555
Nd0 O12 2.431966 1_555
Nd0 O14 2.452320 1_554
Nd0 O3 2.814865 1_555
Nd1 O17 2.296071 1_564
Nd1 O0 2.405462 1_665
Nd1 O5 2.439687 1_555
Nd1 O10 2.479597 1_554
Nd1 O15 2.510806 1_565
Nd1 O13 2.530760 1_654
Nd1 O9 2.841504 1_555
Nd2 O6 2.244223 1_555
Nd2 O8 2.353447 1_455
Nd2 O7 2.457499 1_555
Nd2 O16 2.510959 1_455
Nd2 O2 2.651745 1_555
Nd2 O1 2.898112 1_555
Nd2 O10 3.185791 1_455
Nd3 O2 2.283580 1_555
Nd3 O8 2.296351 1_555
Nd3 O11 2.306187 1_555
Nd3 O7 2.605183 1_555
Nd3 O10 2.616298 1_555
Nd4 O12 2.336053 1_555
Nd4 O4 2.356075 1_555
Nd4 O0 2.410261 1_555
Nd4 O11 2.442442 1_555
Nd4 O6 2.445582 1_555
Nd4 O15 2.543642 1_455
Nd5 O9 2.247438 1_455
Nd5 O4 2.345593 1_555
Nd5 O0 2.372796 1_565
Nd5 O1 2.429451 1_555
Nd5 O6 2.565401 1_555
Nd5 O2 2.806492 1_555
Nd6 O1 2.282411 1_545
Nd6 O13 2.286498 1_545
Nd6 O17 2.303559 1_455
Nd6 O14 2.502845 1_555
Nd6 O7 2.573964 1_555
Nd7 O12 2.328011 1_555
Nd7 O16 2.339828 1_555
Nd7 O8 2.355132 1_555
Nd7 O11 2.442475 1_555
Nd7 O6 2.444871 1_655
Nd7 O3 2.456361 1_555
O0 Sr3 2.577576 1_455
O1 Sr3 2.498953 1_465
O1 Sr5 2.853896 1_565
O2 Sr5 2.508859 1_565
O2 Sr1 2.601246 1_555
O3 Sr3 2.399139 1_555
O3 Sr1 2.448870 1_545
O3 Sr5 2.647458 1_555
O4 Sr0 2.347485 1_554
O4 Sr1 2.433490 1_555
O5 Sr0 2.431565 1_554
O5 Sr2 2.490322 1_555
O7 Sr0 2.403197 1_555
O7 Sr2 3.017834 1_556
O7 Sr4 3.115856 1_455
O8 Sr1 2.463239 1_555
O9 Sr1 2.405016 1_555
O9 Sr2 2.471644 1_555
O9 Sr3 2.733186 1_565
O10 Sr4 2.472156 1_555
O10 Sr2 2.562724 1_556
O10 Sr0 2.704089 1_655
O11 Sr5 2.989427 1_555
O12 Sr2 2.392033 1_555
O13 Sr0 2.368641 1_555
O14 Sr4 2.420947 1_555
O14 Sr2 2.663419 1_556
O14 Sr5 2.674119 1_555
O15 Sr4 2.686523 1_554
O15 Sr3 2.918438 1_555
O16 Sr4 2.566144 1_555
O16 Sr5 2.632346 1_555
O16 Sr3 2.934333 1_555
O17 Sr4 2.343493 1_555
O17 Sr5 2.851464 1_555
