# generated using pymatgen
data_KCu7TeS5ClO24
_symmetry_space_group_name_H-M   'P 1'
_cell_length_a   9.94712500
_cell_length_b   9.94712500
_cell_length_c   20.79878100
_cell_angle_alpha   90.00000000
_cell_angle_beta   90.00000000
_cell_angle_gamma   90.00000000
_symmetry_Int_Tables_number   1
_chemical_formula_structural   KCu7TeS5ClO24
_chemical_formula_sum   'K4 Cu28 Te4 S20 Cl4 O96'
_cell_volume   2057.94153761
_cell_formula_units_Z   4
loop_
 _symmetry_equiv_pos_site_id
 _symmetry_equiv_pos_as_xyz
  1  'x, y, z'
loop_
 _atom_site_type_symbol
 _atom_site_label
 _atom_site_symmetry_multiplicity
 _atom_site_fract_x
 _atom_site_fract_y
 _atom_site_fract_z
 _atom_site_occupancy
  K  K0  1  0.25000000  0.75000000  0.75000000  1
  K  K1  1  0.25000000  0.75000000  0.25000000  1
  K  K2  1  0.75000000  0.25000000  0.75000000  1
  K  K3  1  0.75000000  0.25000000  0.25000000  1
  Cu  Cu0  1  0.51626500  0.72609700  0.10491400  1
  Cu  Cu1  1  0.75000000  0.75000000  0.80079200  1
  Cu  Cu2  1  0.22609700  0.48373500  0.89508600  1
  Cu  Cu3  1  0.00000000  0.00000000  0.00000000  1
  Cu  Cu4  1  0.27390300  0.01626500  0.89508600  1
  Cu  Cu5  1  0.75000000  0.75000000  0.30079200  1
  Cu  Cu6  1  0.25000000  0.25000000  0.69920800  1
  Cu  Cu7  1  0.98373500  0.77390300  0.10491400  1
  Cu  Cu8  1  0.50000000  0.50000000  0.50000000  1
  Cu  Cu9  1  0.22609700  0.01626500  0.39508600  1
  Cu  Cu10  1  0.00000000  0.50000000  0.50000000  1
  Cu  Cu11  1  0.77390300  0.51626500  0.10491400  1
  Cu  Cu12  1  0.01626500  0.27390300  0.39508600  1
  Cu  Cu13  1  0.98373500  0.72609700  0.60491400  1
  Cu  Cu14  1  0.50000000  0.00000000  0.00000000  1
  Cu  Cu15  1  0.48373500  0.22609700  0.39508600  1
  Cu  Cu16  1  0.00000000  0.00000000  0.50000000  1
  Cu  Cu17  1  0.27390300  0.48373500  0.39508600  1
  Cu  Cu18  1  0.77390300  0.98373500  0.60491400  1
  Cu  Cu19  1  0.50000000  0.50000000  0.00000000  1
  Cu  Cu20  1  0.01626500  0.22609700  0.89508600  1
  Cu  Cu21  1  0.25000000  0.25000000  0.19920800  1
  Cu  Cu22  1  0.50000000  0.00000000  0.50000000  1
  Cu  Cu23  1  0.00000000  0.50000000  0.00000000  1
  Cu  Cu24  1  0.72609700  0.98373500  0.10491400  1
  Cu  Cu25  1  0.72609700  0.51626500  0.60491400  1
  Cu  Cu26  1  0.51626500  0.77390300  0.60491400  1
  Cu  Cu27  1  0.48373500  0.27390300  0.89508600  1
  Te  Te0  1  0.75000000  0.75000000  0.00242300  1
  Te  Te1  1  0.75000000  0.75000000  0.50242300  1
  Te  Te2  1  0.25000000  0.25000000  0.99757700  1
  Te  Te3  1  0.25000000  0.25000000  0.49757700  1
  S  S0  1  0.56725100  0.50660800  0.35273600  1
  S  S1  1  0.43274900  0.49339200  0.64726400  1
  S  S2  1  0.99339200  0.56725100  0.35273600  1
  S  S3  1  0.49339200  0.06725100  0.64726400  1
  S  S4  1  0.50660800  0.56725100  0.85273600  1
  S  S5  1  0.50660800  0.93274900  0.35273600  1
  S  S6  1  0.00660800  0.06725100  0.14726400  1
  S  S7  1  0.25000000  0.75000000  0.00000000  1
  S  S8  1  0.99339200  0.93274900  0.85273600  1
  S  S9  1  0.06725100  0.00660800  0.64726400  1
  S  S10  1  0.25000000  0.75000000  0.50000000  1
  S  S11  1  0.49339200  0.43274900  0.14726400  1
  S  S12  1  0.93274900  0.50660800  0.85273600  1
  S  S13  1  0.00660800  0.43274900  0.64726400  1
  S  S14  1  0.75000000  0.25000000  0.00000000  1
  S  S15  1  0.43274900  0.00660800  0.14726400  1
  S  S16  1  0.75000000  0.25000000  0.50000000  1
  S  S17  1  0.93274900  0.99339200  0.35273600  1
  S  S18  1  0.56725100  0.99339200  0.85273600  1
  S  S19  1  0.06725100  0.49339200  0.14726400  1
  Cl  Cl0  1  0.25000000  0.25000000  0.82256500  1
  Cl  Cl1  1  0.25000000  0.25000000  0.32256500  1
  Cl  Cl2  1  0.75000000  0.75000000  0.17743500  1
  Cl  Cl3  1  0.75000000  0.75000000  0.67743500  1
  O  O0  1  0.60317000  0.54526500  0.42056100  1
  O  O1  1  0.41511000  0.85822300  0.15618600  1
  O  O2  1  0.08489000  0.64177700  0.15618600  1
  O  O3  1  0.34510300  0.67101100  0.04043600  1
  O  O4  1  0.16318800  0.07012200  0.69233500  1
  O  O5  1  0.04526500  0.39683000  0.57943900  1
  O  O6  1  0.92683800  0.45324900  0.16213300  1
  O  O7  1  0.33681200  0.07012200  0.19233500  1
  O  O8  1  0.42683800  0.54675100  0.33786700  1
  O  O9  1  0.10317000  0.45473500  0.07943900  1
  O  O10  1  0.91511000  0.14177700  0.34381400  1
  O  O11  1  0.84510300  0.17101100  0.95956400  1
  O  O12  1  0.58489000  0.14177700  0.84381400  1
  O  O13  1  0.45473500  0.39683000  0.07943900  1
  O  O14  1  0.92683800  0.04675100  0.66213300  1
  O  O15  1  0.92987800  0.83681200  0.80766500  1
  O  O16  1  0.45473500  0.10317000  0.57943900  1
  O  O17  1  0.57316200  0.04675100  0.16213300  1
  O  O18  1  0.60910600  0.86494300  0.04940900  1
  O  O19  1  0.65489700  0.32898900  0.95956400  1
  O  O20  1  0.10910600  0.36494300  0.95059100  1
  O  O21  1  0.04675100  0.92683800  0.16213300  1
  O  O22  1  0.89089400  0.86494300  0.54940900  1
  O  O23  1  0.39683000  0.45473500  0.57943900  1
  O  O24  1  0.36494300  0.39089400  0.95059100  1
  O  O25  1  0.83681200  0.92987800  0.30766500  1
  O  O26  1  0.15489700  0.67101100  0.54043600  1
  O  O27  1  0.64177700  0.41511000  0.15618600  1
  O  O28  1  0.07012200  0.33681200  0.69233500  1
  O  O29  1  0.91511000  0.35822300  0.84381400  1
  O  O30  1  0.14177700  0.91511000  0.84381400  1
  O  O31  1  0.45324900  0.92683800  0.66213300  1
  O  O32  1  0.54526500  0.60317000  0.92056100  1
  O  O33  1  0.82898900  0.15489700  0.54043600  1
  O  O34  1  0.08489000  0.85822300  0.65618600  1
  O  O35  1  0.95473500  0.89683000  0.92056100  1
  O  O36  1  0.57012200  0.66318800  0.80766500  1
  O  O37  1  0.83681200  0.57012200  0.80766500  1
  O  O38  1  0.54675100  0.07316200  0.33786700  1
  O  O39  1  0.85822300  0.08489000  0.15618600  1
  O  O40  1  0.57012200  0.83681200  0.30766500  1
  O  O41  1  0.95473500  0.60317000  0.42056100  1
  O  O42  1  0.63505700  0.60910600  0.04940900  1
  O  O43  1  0.07316200  0.54675100  0.83786700  1
  O  O44  1  0.54675100  0.42683800  0.83786700  1
  O  O45  1  0.86494300  0.89089400  0.04940900  1
  O  O46  1  0.42987800  0.33681200  0.19233500  1
  O  O47  1  0.33681200  0.42987800  0.69233500  1
  O  O48  1  0.04526500  0.10317000  0.07943900  1
  O  O49  1  0.36494300  0.10910600  0.45059100  1
  O  O50  1  0.54526500  0.89683000  0.42056100  1
  O  O51  1  0.15489700  0.82898900  0.04043600  1
  O  O52  1  0.10910600  0.13505700  0.45059100  1
  O  O53  1  0.39683000  0.04526500  0.07943900  1
  O  O54  1  0.85822300  0.41511000  0.65618600  1
  O  O55  1  0.13505700  0.39089400  0.45059100  1
  O  O56  1  0.42987800  0.16318800  0.69233500  1
  O  O57  1  0.89683000  0.95473500  0.42056100  1
  O  O58  1  0.92987800  0.66318800  0.30766500  1
  O  O59  1  0.89683000  0.54526500  0.92056100  1
  O  O60  1  0.35822300  0.58489000  0.84381400  1
  O  O61  1  0.60910600  0.63505700  0.54940900  1
  O  O62  1  0.86494300  0.60910600  0.54940900  1
  O  O63  1  0.13505700  0.10910600  0.95059100  1
  O  O64  1  0.39089400  0.36494300  0.45059100  1
  O  O65  1  0.35822300  0.91511000  0.34381400  1
  O  O66  1  0.89089400  0.63505700  0.04940900  1
  O  O67  1  0.95324900  0.07316200  0.83786700  1
  O  O68  1  0.65489700  0.17101100  0.45956400  1
  O  O69  1  0.95324900  0.42683800  0.33786700  1
  O  O70  1  0.07316200  0.95324900  0.33786700  1
  O  O71  1  0.14177700  0.58489000  0.34381400  1
  O  O72  1  0.32898900  0.84510300  0.95956400  1
  O  O73  1  0.34510300  0.82898900  0.54043600  1
  O  O74  1  0.58489000  0.35822300  0.34381400  1
  O  O75  1  0.17101100  0.65489700  0.95956400  1
  O  O76  1  0.57316200  0.45324900  0.66213300  1
  O  O77  1  0.39089400  0.13505700  0.95059100  1
  O  O78  1  0.66318800  0.92987800  0.80766500  1
  O  O79  1  0.64177700  0.08489000  0.65618600  1
  O  O80  1  0.32898900  0.65489700  0.45956400  1
  O  O81  1  0.10317000  0.04526500  0.57943900  1
  O  O82  1  0.17101100  0.84510300  0.45956400  1
  O  O83  1  0.66318800  0.57012200  0.30766500  1
  O  O84  1  0.42683800  0.95324900  0.83786700  1
  O  O85  1  0.45324900  0.57316200  0.16213300  1
  O  O86  1  0.67101100  0.15489700  0.04043600  1
  O  O87  1  0.67101100  0.34510300  0.54043600  1
  O  O88  1  0.16318800  0.42987800  0.19233500  1
  O  O89  1  0.04675100  0.57316200  0.66213300  1
  O  O90  1  0.60317000  0.95473500  0.92056100  1
  O  O91  1  0.41511000  0.64177700  0.65618600  1
  O  O92  1  0.07012200  0.16318800  0.19233500  1
  O  O93  1  0.63505700  0.89089400  0.54940900  1
  O  O94  1  0.84510300  0.32898900  0.45956400  1
  O  O95  1  0.82898900  0.34510300  0.04043600  1
loop_
_geom_bond_atom_site_label_1
_geom_bond_atom_site_label_2
_geom_bond_distance
_geom_bond_site_symmetry_2
K0 O91 2.768302 1_555
K0 O34 2.768302 1_555
K0 O60 2.768302 1_555
K0 O30 2.768302 1_555
K0 O31 3.243684 1_555
K0 O43 3.243684 1_555
K0 O89 3.243684 1_555
K0 O84 3.243684 1_555
K1 O1 2.768302 1_555
K1 O2 2.768302 1_555
K1 O71 2.768302 1_555
K1 O65 2.768302 1_555
K1 O70 3.243684 1_555
K1 O8 3.243684 1_555
K1 O85 3.243684 1_555
K1 O21 3.243684 1_555
K2 O12 2.768302 1_555
K2 O54 2.768302 1_555
K2 O79 2.768302 1_555
K2 O29 2.768302 1_555
K2 O67 3.243684 1_555
K2 O44 3.243684 1_555
K2 O76 3.243684 1_555
K2 O14 3.243684 1_555
K3 O39 2.768302 1_555
K3 O27 2.768302 1_555
K3 O10 2.768302 1_555
K3 O74 2.768302 1_555
K3 O69 3.243684 1_555
K3 O38 3.243684 1_555
K3 O6 3.243684 1_555
K3 O17 3.243684 1_555
Cu0 O1 1.968999 1_555
Cu0 O42 2.020705 1_555
Cu0 O18 2.023133 1_555
Cu0 O85 2.030630 1_555
Cu0 O3 2.235496 1_555
Cu1 O36 1.991884 1_555
Cu1 O78 1.991884 1_555
Cu1 O37 1.991884 1_555
Cu1 O15 1.991884 1_555
Cu2 O60 1.968999 1_555
Cu2 O20 2.020705 1_555
Cu2 O24 2.023133 1_555
Cu2 O43 2.030630 1_555
Cu2 O75 2.235496 1_555
Cu3 O48 1.996444 1_555
Cu3 O35 1.996444 1_444
Cu3 O63 2.009656 1_554
Cu3 O45 2.009656 1_445
Cu3 O11 2.444371 1_454
Cu3 O51 2.444371 1_545
Cu4 O30 1.968999 1_545
Cu4 O77 2.020705 1_555
Cu4 O63 2.023133 1_555
Cu4 O84 2.030630 1_545
Cu4 O72 2.235496 1_545
Cu5 O58 1.991884 1_555
Cu5 O83 1.991884 1_555
Cu5 O40 1.991884 1_555
Cu5 O25 1.991884 1_555
Cu6 O47 1.991884 1_555
Cu6 O4 1.991884 1_555
Cu6 O56 1.991884 1_555
Cu6 O28 1.991884 1_555
Cu7 O2 1.968999 1_655
Cu7 O45 2.020705 1_555
Cu7 O66 2.023133 1_555
Cu7 O21 2.030630 1_655
Cu7 O51 2.235496 1_655
Cu8 O0 1.996444 1_555
Cu8 O23 1.996444 1_555
Cu8 O64 2.009656 1_555
Cu8 O61 2.009656 1_555
Cu8 O80 2.444371 1_555
Cu8 O87 2.444371 1_555
Cu9 O65 1.968999 1_545
Cu9 O52 2.020705 1_555
Cu9 O49 2.023133 1_555
Cu9 O70 2.030630 1_545
Cu9 O82 2.235496 1_545
Cu10 O41 1.996444 1_455
Cu10 O5 1.996444 1_555
Cu10 O55 2.009656 1_555
Cu10 O62 2.009656 1_455
Cu10 O94 2.444371 1_455
Cu10 O26 2.444371 1_555
Cu11 O27 1.968999 1_555
Cu11 O66 2.020705 1_555
Cu11 O42 2.023133 1_555
Cu11 O6 2.030630 1_555
Cu11 O95 2.235496 1_555
Cu12 O10 1.968999 1_455
Cu12 O55 2.020705 1_555
Cu12 O52 2.023133 1_555
Cu12 O69 2.030630 1_455
Cu12 O94 2.235496 1_455
Cu13 O34 1.968999 1_655
Cu13 O62 2.020705 1_555
Cu13 O22 2.023133 1_555
Cu13 O89 2.030630 1_655
Cu13 O26 2.235496 1_655
Cu14 O53 1.996444 1_555
Cu14 O90 1.996444 1_544
Cu14 O18 2.009656 1_545
Cu14 O77 2.009656 1_554
Cu14 O72 2.444371 1_544
Cu14 O86 2.444371 1_555
Cu15 O74 1.968999 1_555
Cu15 O49 2.020705 1_555
Cu15 O64 2.023133 1_555
Cu15 O38 2.030630 1_555
Cu15 O68 2.235496 1_555
Cu16 O57 1.996444 1_445
Cu16 O81 1.996444 1_555
Cu16 O52 2.009656 1_555
Cu16 O22 2.009656 1_445
Cu16 O82 2.444371 1_545
Cu16 O33 2.444371 1_455
Cu17 O71 1.968999 1_555
Cu17 O64 2.020705 1_555
Cu17 O55 2.023133 1_555
Cu17 O8 2.030630 1_555
Cu17 O80 2.235496 1_555
Cu18 O79 1.968999 1_565
Cu18 O22 2.020705 1_555
Cu18 O93 2.023133 1_555
Cu18 O14 2.030630 1_565
Cu18 O33 2.235496 1_565
Cu19 O13 1.996444 1_555
Cu19 O32 1.996444 1_554
Cu19 O24 2.009656 1_554
Cu19 O42 2.009656 1_555
Cu19 O19 2.444371 1_554
Cu19 O3 2.444371 1_555
Cu20 O29 1.968999 1_455
Cu20 O63 2.020705 1_555
Cu20 O20 2.023133 1_555
Cu20 O67 2.030630 1_455
Cu20 O11 2.235496 1_455
Cu21 O88 1.991884 1_555
Cu21 O92 1.991884 1_555
Cu21 O7 1.991884 1_555
Cu21 O46 1.991884 1_555
Cu22 O50 1.996444 1_545
Cu22 O16 1.996444 1_555
Cu22 O49 2.009656 1_555
Cu22 O93 2.009656 1_545
Cu22 O68 2.444371 1_555
Cu22 O73 2.444371 1_545
Cu23 O9 1.996444 1_555
Cu23 O59 1.996444 1_454
Cu23 O66 2.009656 1_455
Cu23 O20 2.009656 1_554
Cu23 O75 2.444371 1_554
Cu23 O95 2.444371 1_455
Cu24 O39 1.968999 1_565
Cu24 O18 2.020705 1_555
Cu24 O45 2.023133 1_555
Cu24 O17 2.030630 1_565
Cu24 O86 2.235496 1_565
Cu25 O54 1.968999 1_555
Cu25 O61 2.020705 1_555
Cu25 O62 2.023133 1_555
Cu25 O76 2.030630 1_555
Cu25 O87 2.235496 1_555
Cu26 O91 1.968999 1_555
Cu26 O93 2.020705 1_555
Cu26 O61 2.023133 1_555
Cu26 O31 2.030630 1_555
Cu26 O73 2.235496 1_555
Cu27 O12 1.968999 1_555
Cu27 O24 2.020705 1_555
Cu27 O77 2.023133 1_555
Cu27 O44 2.030630 1_555
Cu27 O19 2.235496 1_555
Cl0 Cu6 2.565675 1_555
Cl0 Cu4 2.781588 1_555
Cl0 Cu20 2.781588 1_555
Cl0 Cu27 2.781588 1_555
Cl0 Cu2 2.781588 1_555
Cl1 Cu21 2.565675 1_555
Cl1 Cu9 2.781588 1_555
Cl1 Cu12 2.781588 1_555
Cl1 Cu17 2.781588 1_555
Cl1 Cu15 2.781588 1_555
Cl2 Cu5 2.565675 1_555
Cl2 Cu7 2.781588 1_555
Cl2 Cu0 2.781588 1_555
Cl2 Cu24 2.781588 1_555
Cl2 Cu11 2.781588 1_555
Cl3 Cu1 2.565675 1_555
Cl3 Cu25 2.781588 1_555
Cl3 Cu18 2.781588 1_555
Cl3 Cu13 2.781588 1_555
Cl3 Cu26 2.781588 1_555
O0 S0 1.505167 1_555
O1 S15 1.497935 1_565
O2 S19 1.497935 1_555
O3 S7 1.489825 1_555
O4 S9 1.479389 1_555
O5 S13 1.505167 1_555
O6 S19 1.485218 1_655
O7 S15 1.479389 1_555
O8 S0 1.485218 1_555
O9 S19 1.505167 1_555
O10 S17 1.497935 1_545
O11 S14 1.489825 1_556
O12 S18 1.497935 1_545
O13 S11 1.505167 1_555
O14 S9 1.485218 1_655
O15 S8 1.479389 1_555
O16 S3 1.505167 1_555
O17 S15 1.485218 1_555
O18 Te0 2.055833 1_555
O19 S14 1.489825 1_556
O20 Te2 2.055833 1_555
O21 S6 1.485218 1_565
O22 Te1 2.055833 1_555
O23 S1 1.505167 1_555
O24 Te2 2.055833 1_555
O25 S17 1.479389 1_555
O26 S10 1.489825 1_555
O27 S11 1.497935 1_555
O28 S13 1.479389 1_555
O29 S12 1.497935 1_555
O30 S8 1.497935 1_455
O31 S3 1.485218 1_565
O32 S4 1.505167 1_555
O33 S16 1.489825 1_555
O34 S9 1.497935 1_565
O35 S8 1.505167 1_555
O36 S4 1.479389 1_555
O37 S12 1.479389 1_555
O38 S5 1.485218 1_545
O39 S6 1.497935 1_655
O40 S5 1.479389 1_555
O41 S2 1.505167 1_555
O42 Te0 2.055833 1_555
O43 S12 1.485218 1_455
O44 S4 1.485218 1_555
O45 Te0 2.055833 1_555
O46 S11 1.479389 1_555
O47 S1 1.479389 1_555
O48 S6 1.505167 1_555
O49 Te3 2.055833 1_555
O50 S5 1.505167 1_555
O51 S7 1.489825 1_555
O52 Te3 2.055833 1_555
O53 S15 1.505167 1_555
O54 S13 1.497935 1_655
O55 Te3 2.055833 1_555
O56 S3 1.479389 1_555
O57 S17 1.505167 1_555
O58 S2 1.479389 1_555
O59 S12 1.505167 1_555
O60 S4 1.497935 1_555
O61 Te1 2.055833 1_555
O62 Te1 2.055833 1_555
O63 Te2 2.055833 1_555
O64 Te3 2.055833 1_555
O65 S5 1.497935 1_555
O66 Te0 2.055833 1_555
O67 S8 1.485218 1_545
O68 S16 1.489825 1_555
O69 S2 1.485218 1_555
O70 S17 1.485218 1_455
O71 S2 1.497935 1_455
O72 S7 1.489825 1_556
O73 S10 1.489825 1_555
O74 S0 1.497935 1_555
O75 S7 1.489825 1_556
O76 S1 1.485218 1_555
O77 Te2 2.055833 1_555
O78 S18 1.479389 1_555
O79 S3 1.497935 1_555
O80 S10 1.489825 1_555
O81 S9 1.505167 1_555
O82 S10 1.489825 1_555
O83 S0 1.479389 1_555
O84 S18 1.485218 1_555
O85 S11 1.485218 1_555
O86 S14 1.489825 1_555
O87 S16 1.489825 1_555
O88 S19 1.479389 1_555
O89 S13 1.485218 1_555
O90 S18 1.505167 1_555
O91 S1 1.497935 1_555
O92 S6 1.479389 1_555
O93 Te1 2.055833 1_555
O94 S16 1.489825 1_555
O95 S14 1.489825 1_555
