# generated using pymatgen
data_Sn3(P2O7)2
_symmetry_space_group_name_H-M   'P 1'
_cell_length_a   5.67278300
_cell_length_b   7.05285786
_cell_length_c   8.81792909
_cell_angle_alpha   99.42935355
_cell_angle_beta   87.45515310
_cell_angle_gamma   112.47130357
_symmetry_Int_Tables_number   1
_chemical_formula_structural   Sn3(P2O7)2
_chemical_formula_sum   'Sn3 P4 O14'
_cell_volume   321.54258531
_cell_formula_units_Z   1
loop_
 _symmetry_equiv_pos_site_id
 _symmetry_equiv_pos_as_xyz
  1  'x, y, z'
loop_
 _atom_site_type_symbol
 _atom_site_label
 _atom_site_symmetry_multiplicity
 _atom_site_fract_x
 _atom_site_fract_y
 _atom_site_fract_z
 _atom_site_occupancy
  Sn  Sn0  1  0.23154400  0.48852300  0.31890900  1
  Sn  Sn1  1  0.76845600  0.51147700  0.68109100  1
  Sn  Sn2  1  0.00000000  0.00000000  0.00000000  1
  P  P0  1  0.34658900  0.69270900  0.95216500  1
  P  P1  1  0.16678500  0.27478300  0.70347300  1
  P  P2  1  0.83321500  0.72521700  0.29652700  1
  P  P3  1  0.65341100  0.30729100  0.04783500  1
  O  O0  1  0.05347500  0.08631300  0.78738300  1
  O  O1  1  0.83603700  0.21175700  0.10075100  1
  O  O2  1  0.37118600  0.19091400  0.08801400  1
  O  O3  1  0.27040700  0.47300500  0.84152800  1
  O  O4  1  0.94652500  0.91368700  0.21261700  1
  O  O5  1  0.02798800  0.69352100  0.39334700  1
  O  O6  1  0.62881400  0.80908600  0.91198600  1
  O  O7  1  0.97201200  0.30647900  0.60665300  1
  O  O8  1  0.39481300  0.27040700  0.60653100  1
  O  O9  1  0.30712500  0.65897000  0.11643000  1
  O  O10  1  0.69287500  0.34103000  0.88357000  1
  O  O11  1  0.60518700  0.72959300  0.39346900  1
  O  O12  1  0.72959300  0.52699500  0.15847200  1
  O  O13  1  0.16396300  0.78824300  0.89924900  1
loop_
_geom_bond_atom_site_label_1
_geom_bond_atom_site_label_2
_geom_bond_distance
_geom_bond_site_symmetry_2
O0 P1 1.534415 1_555
O0 Sn2 2.039590 1_556
O1 P3 1.557100 1_555
O1 Sn2 2.106825 1_655
O2 P3 1.550096 1_555
O2 Sn2 2.117662 1_555
O3 P0 1.603064 1_555
O3 P1 1.630850 1_555
O4 P2 1.534415 1_555
O4 Sn2 2.039590 1_665
O5 P2 1.528006 1_455
O5 Sn0 2.180055 1_555
O6 P0 1.550096 1_555
O6 Sn2 2.117662 1_666
O7 P1 1.528006 1_655
O7 Sn1 2.180055 1_555
O8 P1 1.525989 1_555
O8 Sn1 2.195066 1_555
O9 P0 1.499415 1_554
O9 Sn0 2.249016 1_555
O10 P3 1.499415 1_556
O10 Sn1 2.249016 1_555
O11 P2 1.525989 1_555
O11 Sn0 2.195066 1_555
O12 P3 1.603064 1_555
O12 P2 1.630850 1_555
O13 P0 1.557100 1_555
O13 Sn2 2.106825 1_566
