# generated using pymatgen
data_K6BiH3(Cl2F)4
_symmetry_space_group_name_H-M   'P 1'
_cell_length_a   9.22716449
_cell_length_b   9.22716449
_cell_length_c   14.72524300
_cell_angle_alpha   90.00000000
_cell_angle_beta   90.00000000
_cell_angle_gamma   120.00000355
_symmetry_Int_Tables_number   1
_chemical_formula_structural   K6BiH3(Cl2F)4
_chemical_formula_sum   'K12 Bi2 H6 Cl16 F8'
_cell_volume   1085.74943596
_cell_formula_units_Z   2
loop_
 _symmetry_equiv_pos_site_id
 _symmetry_equiv_pos_as_xyz
  1  'x, y, z'
loop_
 _atom_site_type_symbol
 _atom_site_label
 _atom_site_symmetry_multiplicity
 _atom_site_fract_x
 _atom_site_fract_y
 _atom_site_fract_z
 _atom_site_occupancy
  K  K0  1  0.49756300  0.99512600  0.99228600  1
  K  K1  1  0.00487400  0.50243700  0.99228600  1
  K  K2  1  0.49756300  0.50243700  0.99228600  1
  K  K3  1  0.50243700  0.00487400  0.49228600  1
  K  K4  1  0.99512600  0.49756300  0.49228600  1
  K  K5  1  0.50243700  0.49756300  0.49228600  1
  K  K6  1  0.82124700  0.64249500  0.74638600  1
  K  K7  1  0.35750500  0.17875300  0.74638600  1
  K  K8  1  0.82124700  0.17875300  0.74638600  1
  K  K9  1  0.17875300  0.35750500  0.24638600  1
  K  K10  1  0.64249500  0.82124700  0.24638600  1
  K  K11  1  0.17875300  0.82124700  0.24638600  1
  Bi  Bi0  1  0.00000000  0.00000000  0.49851000  1
  Bi  Bi1  1  0.00000000  0.00000000  0.99851000  1
  H  H0  1  0.57970300  0.15940500  0.24498000  1
  H  H1  1  0.84059500  0.42029700  0.24498000  1
  H  H2  1  0.57970300  0.42029700  0.24498000  1
  H  H3  1  0.42029700  0.84059500  0.74498000  1
  H  H4  1  0.15940500  0.57970300  0.74498000  1
  H  H5  1  0.42029700  0.57970300  0.74498000  1
  Cl  Cl0  1  0.85937800  0.71875600  0.39120500  1
  Cl  Cl1  1  0.28124400  0.14062200  0.39120500  1
  Cl  Cl2  1  0.85937800  0.14062200  0.39120500  1
  Cl  Cl3  1  0.14062200  0.28124400  0.89120500  1
  Cl  Cl4  1  0.71875600  0.85937800  0.89120500  1
  Cl  Cl5  1  0.14062200  0.85937800  0.89120500  1
  Cl  Cl6  1  0.86060300  0.72120600  0.10544900  1
  Cl  Cl7  1  0.27879400  0.13939700  0.10544900  1
  Cl  Cl8  1  0.86060300  0.13939700  0.10544900  1
  Cl  Cl9  1  0.13939700  0.27879400  0.60544900  1
  Cl  Cl10  1  0.72120600  0.86060300  0.60544900  1
  Cl  Cl11  1  0.13939700  0.86060300  0.60544900  1
  Cl  Cl12  1  0.66666700  0.33333300  0.60230900  1
  Cl  Cl13  1  0.33333300  0.66666700  0.10230900  1
  Cl  Cl14  1  0.66666700  0.33333300  0.88980600  1
  Cl  Cl15  1  0.33333300  0.66666700  0.38980600  1
  F  F0  1  0.66666700  0.33333300  0.25600200  1
  F  F1  1  0.33333300  0.66666700  0.75600200  1
  F  F2  1  0.51679500  0.03359000  0.23781900  1
  F  F3  1  0.96641000  0.48320500  0.23781900  1
  F  F4  1  0.51679500  0.48320500  0.23781900  1
  F  F5  1  0.48320500  0.96641000  0.73781900  1
  F  F6  1  0.03359000  0.51679500  0.73781900  1
  F  F7  1  0.48320500  0.51679500  0.73781900  1
loop_
_geom_bond_atom_site_label_1
_geom_bond_atom_site_label_2
_geom_bond_distance
_geom_bond_site_symmetry_2
Bi0 Cl10 2.728172 1_445
Bi0 Cl9 2.728172 1_555
Bi0 Cl11 2.728172 1_545
Bi0 Cl1 2.747279 1_555
Bi0 Cl0 2.747279 1_445
Bi0 Cl2 2.747279 1_455
Bi1 Cl6 2.728172 1_446
Bi1 Cl7 2.728172 1_556
Bi1 Cl8 2.728172 1_456
Bi1 Cl3 2.747279 1_555
Bi1 Cl4 2.747279 1_445
Bi1 Cl5 2.747279 1_545
Cl0 K5 3.241370 1_555
Cl0 K4 3.241370 1_555
Cl0 K10 3.367388 1_555
Cl0 K11 3.367394 1_655
Cl1 K5 3.241370 1_555
Cl1 K3 3.241370 1_555
Cl1 K9 3.367388 1_555
Cl1 K11 3.367394 1_545
Cl2 K3 3.241370 1_555
Cl2 K4 3.241370 1_555
Cl2 K9 3.367393 1_655
Cl2 K10 3.367393 1_545
Cl3 K2 3.241370 1_555
Cl3 K1 3.241370 1_555
Cl3 K7 3.367388 1_555
Cl3 K8 3.367394 1_455
Cl4 K2 3.241370 1_555
Cl4 K0 3.241370 1_555
Cl4 K6 3.367388 1_555
Cl4 K8 3.367394 1_565
Cl5 K0 3.241370 1_555
Cl5 K1 3.241370 1_555
Cl5 K7 3.367393 1_565
Cl5 K6 3.367393 1_455
Cl6 K10 3.326722 1_555
Cl6 K11 3.326729 1_655
Cl6 K2 3.363165 1_554
Cl6 K1 3.363166 1_654
Cl7 K9 3.326722 1_555
Cl7 K11 3.326729 1_545
Cl7 K2 3.363165 1_554
Cl7 K0 3.363166 1_544
Cl8 K9 3.326727 1_655
Cl8 K10 3.326727 1_545
Cl8 K0 3.363165 1_544
Cl8 K1 3.363165 1_654
Cl9 K7 3.326722 1_555
Cl9 K8 3.326729 1_455
Cl9 K5 3.363165 1_555
Cl9 K4 3.363166 1_455
Cl10 K6 3.326722 1_555
Cl10 K8 3.326729 1_565
Cl10 K5 3.363165 1_555
Cl10 K3 3.363166 1_565
Cl11 K7 3.326727 1_565
Cl11 K6 3.326727 1_455
Cl11 K4 3.363165 1_455
Cl11 K3 3.363165 1_565
Cl12 K4 3.084451 1_555
Cl12 K3 3.084451 1_555
Cl12 K5 3.084458 1_555
Cl12 K8 3.256432 1_555
Cl12 K6 3.256444 1_555
Cl12 K7 3.256444 1_555
Cl13 K0 3.084451 1_554
Cl13 K1 3.084451 1_554
Cl13 K2 3.084458 1_554
Cl13 K11 3.256432 1_555
Cl13 K10 3.256444 1_555
Cl13 K9 3.256444 1_555
Cl14 K0 3.095359 1_545
Cl14 K1 3.095359 1_655
Cl14 K2 3.095366 1_555
Cl14 K8 3.250137 1_555
Cl14 K6 3.250149 1_555
Cl14 K7 3.250149 1_555
Cl15 K3 3.095359 1_565
Cl15 K4 3.095359 1_455
Cl15 K5 3.095366 1_555
Cl15 K11 3.250137 1_555
Cl15 K10 3.250149 1_555
Cl15 K9 3.250149 1_555
F0 H1 1.399296 1_555
F0 H0 1.399296 1_555
F0 H2 1.399296 1_555
F1 H3 1.399296 1_555
F1 H4 1.399296 1_555
F1 H5 1.399296 1_555
F2 H0 1.010897 1_555
F2 K11 2.733609 1_545
F2 K10 2.733616 1_545
F3 H1 1.010897 1_555
F3 K11 2.733609 1_655
F3 K9 2.733616 1_655
F4 H2 1.010905 1_555
F4 K9 2.733607 1_555
F4 K10 2.733607 1_555
F5 H3 1.010897 1_555
F5 K8 2.733609 1_565
F5 K7 2.733616 1_565
F6 H4 1.010897 1_555
F6 K8 2.733609 1_455
F6 K6 2.733616 1_455
F7 H5 1.010905 1_555
F7 K7 2.733607 1_555
F7 K6 2.733607 1_555
