# generated using pymatgen
data_WO2
_symmetry_space_group_name_H-M   'P 1'
_cell_length_a   4.82451000
_cell_length_b   8.48256300
_cell_length_c   10.78188700
_cell_angle_alpha   90.00000000
_cell_angle_beta   90.00000000
_cell_angle_gamma   90.00000000
_symmetry_Int_Tables_number   1
_chemical_formula_structural   WO2
_chemical_formula_sum   'W12 O24'
_cell_volume   441.24020799
_cell_formula_units_Z   12
loop_
 _symmetry_equiv_pos_site_id
 _symmetry_equiv_pos_as_xyz
  1  'x, y, z'
loop_
 _atom_site_type_symbol
 _atom_site_label
 _atom_site_symmetry_multiplicity
 _atom_site_fract_x
 _atom_site_fract_y
 _atom_site_fract_z
 _atom_site_occupancy
  W  W0  1  0.02008800  0.25000000  0.10290200  1
  W  W1  1  0.50793900  0.90723800  0.13441900  1
  W  W2  1  0.97991200  0.75000000  0.89709800  1
  W  W3  1  0.49206100  0.40723800  0.86558100  1
  W  W4  1  0.50793900  0.59276200  0.13441900  1
  W  W5  1  0.49206100  0.09276200  0.86558100  1
  W  W6  1  0.99206100  0.90723800  0.63441900  1
  W  W7  1  0.00793900  0.09276200  0.36558100  1
  W  W8  1  0.52008800  0.75000000  0.39709800  1
  W  W9  1  0.99206100  0.59276200  0.63441900  1
  W  W10  1  0.00793900  0.40723800  0.36558100  1
  W  W11  1  0.47991200  0.25000000  0.60290200  1
  O  O0  1  0.24136400  0.25000000  0.76623100  1
  O  O1  1  0.78247800  0.58289600  0.46873000  1
  O  O2  1  0.74020100  0.25000000  0.44509300  1
  O  O3  1  0.71752200  0.91710400  0.96873000  1
  O  O4  1  0.71752200  0.58289600  0.96873000  1
  O  O5  1  0.20463300  0.92353900  0.80237200  1
  O  O6  1  0.21752200  0.41710400  0.53127000  1
  O  O7  1  0.28247800  0.41710400  0.03127000  1
  O  O8  1  0.29536700  0.57646100  0.30237200  1
  O  O9  1  0.25979900  0.75000000  0.55490700  1
  O  O10  1  0.75863600  0.75000000  0.23376900  1
  O  O11  1  0.24020100  0.75000000  0.05490700  1
  O  O12  1  0.79536700  0.07646100  0.19762800  1
  O  O13  1  0.20463300  0.57646100  0.80237200  1
  O  O14  1  0.75979900  0.25000000  0.94509300  1
  O  O15  1  0.70463300  0.07646100  0.69762800  1
  O  O16  1  0.70463300  0.42353900  0.69762800  1
  O  O17  1  0.21752200  0.08289600  0.53127000  1
  O  O18  1  0.28247800  0.08289600  0.03127000  1
  O  O19  1  0.74136400  0.75000000  0.73376900  1
  O  O20  1  0.78247800  0.91710400  0.46873000  1
  O  O21  1  0.25863600  0.25000000  0.26623100  1
  O  O22  1  0.29536700  0.92353900  0.30237200  1
  O  O23  1  0.79536700  0.42353900  0.19762800  1
loop_
_geom_bond_atom_site_label_1
_geom_bond_atom_site_label_2
_geom_bond_distance
_geom_bond_site_symmetry_2
O0 W3 2.095058 1_555
O0 W5 2.095058 1_555
O0 W11 2.103716 1_555
O1 W8 2.051395 1_555
O1 W9 2.054450 1_555
O1 W10 2.154118 1_655
O2 W7 2.045096 1_655
O2 W10 2.045096 1_655
O2 W11 2.114706 1_555
O3 W2 2.051395 1_555
O3 W1 2.054450 1_556
O3 W5 2.154118 1_565
O4 W2 2.051395 1_555
O4 W4 2.054450 1_556
O4 W3 2.154118 1_555
O5 W6 2.085680 1_455
O5 W2 2.094152 1_455
O5 W5 2.109003 1_565
O6 W11 2.051395 1_555
O6 W10 2.054450 1_555
O6 W9 2.154118 1_455
O7 W0 2.051395 1_555
O7 W3 2.054450 1_554
O7 W4 2.154118 1_555
O8 W4 2.085680 1_555
O8 W8 2.094152 1_555
O8 W10 2.109003 1_555
O9 W9 2.045096 1_455
O9 W6 2.045096 1_455
O9 W8 2.114706 1_555
O10 W1 2.095058 1_555
O10 W4 2.095058 1_555
O10 W8 2.103716 1_555
O11 W4 2.045096 1_555
O11 W1 2.045096 1_555
O11 W2 2.114706 1_454
O12 W7 2.085680 1_655
O12 W0 2.094152 1_655
O12 W1 2.109003 1_545
O13 W9 2.085680 1_455
O13 W2 2.094152 1_455
O13 W3 2.109003 1_555
O14 W3 2.045096 1_555
O14 W5 2.045096 1_555
O14 W0 2.114706 1_656
O15 W5 2.085680 1_555
O15 W11 2.094152 1_555
O15 W6 2.109003 1_545
O16 W3 2.085680 1_555
O16 W11 2.094152 1_555
O16 W9 2.109003 1_555
O17 W11 2.051395 1_555
O17 W7 2.054450 1_555
O17 W6 2.154118 1_445
O18 W0 2.051395 1_555
O18 W5 2.054450 1_554
O18 W1 2.154118 1_545
O19 W6 2.095058 1_555
O19 W9 2.095058 1_555
O19 W2 2.103716 1_555
O20 W8 2.051395 1_555
O20 W6 2.054450 1_555
O20 W7 2.154118 1_665
O21 W10 2.095058 1_555
O21 W7 2.095058 1_555
O21 W0 2.103716 1_555
O22 W1 2.085680 1_555
O22 W8 2.094152 1_555
O22 W7 2.109003 1_565
O23 W10 2.085680 1_655
O23 W0 2.094152 1_655
O23 W4 2.109003 1_555
