# generated using pymatgen
data_NaLi2Al3(SiO4)3
_symmetry_space_group_name_H-M   'P 1'
_cell_length_a   12.27885000
_cell_length_b   12.27885000
_cell_length_c   11.75078800
_cell_angle_alpha   90.00000000
_cell_angle_beta   90.00000000
_cell_angle_gamma   90.00000000
_symmetry_Int_Tables_number   1
_chemical_formula_structural   NaLi2Al3(SiO4)3
_chemical_formula_sum   'Na4 Li8 Al12 Si12 O48'
_cell_volume   1771.66815542
_cell_formula_units_Z   4
loop_
 _symmetry_equiv_pos_site_id
 _symmetry_equiv_pos_as_xyz
  1  'x, y, z'
loop_
 _atom_site_type_symbol
 _atom_site_label
 _atom_site_symmetry_multiplicity
 _atom_site_fract_x
 _atom_site_fract_y
 _atom_site_fract_z
 _atom_site_occupancy
  Na  Na0  1  0.00000000  0.36719100  0.50079800  1
  Na  Na1  1  0.00000000  0.63280900  0.50079800  1
  Na  Na2  1  0.36719100  0.00000000  0.50079800  1
  Na  Na3  1  0.63280900  0.00000000  0.50079800  1
  Li  Li0  1  0.19262500  0.19262500  0.18245300  1
  Li  Li1  1  0.19262500  0.80737500  0.18245300  1
  Li  Li2  1  0.80737500  0.19262500  0.18245300  1
  Li  Li3  1  0.80737500  0.80737500  0.18245300  1
  Li  Li4  1  0.19154100  0.19154100  0.81727500  1
  Li  Li5  1  0.19154100  0.80845900  0.81727500  1
  Li  Li6  1  0.80845900  0.19154100  0.81727500  1
  Li  Li7  1  0.80845900  0.80845900  0.81727500  1
  Al  Al0  1  0.00000000  0.36594000  0.18409100  1
  Al  Al1  1  0.00000000  0.63406000  0.18409100  1
  Al  Al2  1  0.36594000  0.00000000  0.18409100  1
  Al  Al3  1  0.63406000  0.00000000  0.18409100  1
  Al  Al4  1  0.17930700  0.00000000  0.65157200  1
  Al  Al5  1  0.00000000  0.17930700  0.65157200  1
  Al  Al6  1  0.00000000  0.82069300  0.65157200  1
  Al  Al7  1  0.82069300  0.00000000  0.65157200  1
  Al  Al8  1  0.00000000  0.63474500  0.82236200  1
  Al  Al9  1  0.63474500  0.00000000  0.82236200  1
  Al  Al10  1  0.00000000  0.36525500  0.82236200  1
  Al  Al11  1  0.36525500  0.00000000  0.82236200  1
  Si  Si0  1  0.36633300  0.18778100  0.00162800  1
  Si  Si1  1  0.63366700  0.18778100  0.00162800  1
  Si  Si2  1  0.36633300  0.81221900  0.00162800  1
  Si  Si3  1  0.81221900  0.36633300  0.00162800  1
  Si  Si4  1  0.81221900  0.63366700  0.00162800  1
  Si  Si5  1  0.17216200  0.00000000  0.36415600  1
  Si  Si6  1  0.00000000  0.82783800  0.36415600  1
  Si  Si7  1  0.82783800  0.00000000  0.36415600  1
  Si  Si8  1  0.00000000  0.17216200  0.36415600  1
  Si  Si9  1  0.18778100  0.36633300  0.00162800  1
  Si  Si10  1  0.18778100  0.63366700  0.00162800  1
  Si  Si11  1  0.63366700  0.81221900  0.00162800  1
  O  O0  1  0.31064900  0.31064900  0.00461700  1
  O  O1  1  0.50000000  0.19960000  0.00524100  1
  O  O2  1  0.31064900  0.68935100  0.00461700  1
  O  O3  1  0.68935100  0.31064900  0.00461700  1
  O  O4  1  0.80040000  0.50000000  0.00524100  1
  O  O5  1  0.12350800  0.32167900  0.11690400  1
  O  O6  1  0.32167900  0.12350800  0.11690400  1
  O  O7  1  0.32167900  0.87649200  0.11690400  1
  O  O8  1  0.87649200  0.32167900  0.11690400  1
  O  O9  1  0.12350800  0.67832100  0.11690400  1
  O  O10  1  0.67832100  0.12350800  0.11690400  1
  O  O11  1  0.67832100  0.87649200  0.11690400  1
  O  O12  1  0.87649200  0.67832100  0.11690400  1
  O  O13  1  0.00000000  0.50000000  0.21840500  1
  O  O14  1  0.50000000  0.00000000  0.21840500  1
  O  O15  1  0.00000000  0.29493200  0.31549600  1
  O  O16  1  0.29493200  0.00000000  0.31549600  1
  O  O17  1  0.70506800  0.00000000  0.31549600  1
  O  O18  1  0.00000000  0.70506800  0.31549600  1
  O  O19  1  0.10934600  0.10934600  0.31055500  1
  O  O20  1  0.10934600  0.89065400  0.31055500  1
  O  O21  1  0.89065400  0.10934600  0.31055500  1
  O  O22  1  0.89065400  0.89065400  0.31055500  1
  O  O23  1  0.00000000  0.17727000  0.49919000  1
  O  O24  1  0.17727000  0.00000000  0.49919000  1
  O  O25  1  0.82273000  0.00000000  0.49919000  1
  O  O26  1  0.00000000  0.82273000  0.49919000  1
  O  O27  1  0.11919100  0.11919100  0.70102200  1
  O  O28  1  0.11919100  0.88080900  0.70102200  1
  O  O29  1  0.88080900  0.11919100  0.70102200  1
  O  O30  1  0.88080900  0.88080900  0.70102200  1
  O  O31  1  0.00000000  0.31928800  0.68151600  1
  O  O32  1  0.31928800  0.00000000  0.68151600  1
  O  O33  1  0.68071200  0.00000000  0.68151600  1
  O  O34  1  0.00000000  0.68071200  0.68151600  1
  O  O35  1  0.50000000  0.00000000  0.84350400  1
  O  O36  1  0.00000000  0.50000000  0.84350400  1
  O  O37  1  0.12382100  0.31665700  0.89081800  1
  O  O38  1  0.12382100  0.68334200  0.89081800  1
  O  O39  1  0.31665700  0.12382100  0.89081800  1
  O  O40  1  0.31665700  0.87617900  0.89081800  1
  O  O41  1  0.68334200  0.12382100  0.89081800  1
  O  O42  1  0.68334200  0.87617900  0.89081800  1
  O  O43  1  0.87617900  0.31665700  0.89081800  1
  O  O44  1  0.87617900  0.68334200  0.89081800  1
  O  O45  1  0.19960000  0.50000000  0.00524100  1
  O  O46  1  0.50000000  0.80040000  0.00524100  1
  O  O47  1  0.68935100  0.68935100  0.00461700  1
loop_
_geom_bond_atom_site_label_1
_geom_bond_atom_site_label_2
_geom_bond_distance
_geom_bond_site_symmetry_2
Na0 O31 2.203533 1_555
Na0 O23 2.332088 1_555
Na0 O15 2.351274 1_555
Na1 O34 2.203533 1_555
Na1 O26 2.332088 1_555
Na1 O18 2.351274 1_555
Na2 O32 2.203533 1_555
Na2 O24 2.332088 1_555
Na2 O16 2.351274 1_555
Na3 O33 2.203533 1_555
Na3 O25 2.332088 1_555
Na3 O17 2.351274 1_555
Li0 O6 1.955661 1_555
Li0 O5 1.955661 1_555
Li0 O19 2.087397 1_555
Li1 O9 1.955661 1_555
Li1 O7 1.955661 1_555
Li1 O20 2.087397 1_555
Li2 O10 1.955661 1_555
Li2 O8 1.955661 1_555
Li2 O21 2.087397 1_555
Li3 O11 1.955661 1_555
Li3 O12 1.955661 1_555
Li3 O22 2.087397 1_555
Li4 O27 1.855950 1_555
Li4 O37 1.948951 1_555
Li4 O39 1.948951 1_555
Li5 O28 1.855950 1_555
Li5 O40 1.948951 1_555
Li5 O38 1.948961 1_555
Li6 O29 1.855950 1_555
Li6 O43 1.948951 1_555
Li6 O41 1.948961 1_555
Li7 O30 1.855950 1_555
Li7 O42 1.948961 1_555
Li7 O44 1.948961 1_555
Al0 O13 1.694768 1_555
Al0 O15 1.773270 1_555
Al0 O8 1.794034 1_455
Al0 O5 1.794034 1_555
Al1 O13 1.694768 1_555
Al1 O18 1.773270 1_555
Al1 O12 1.794034 1_455
Al1 O9 1.794034 1_555
Al2 O14 1.694768 1_555
Al2 O16 1.773270 1_555
Al2 O7 1.794034 1_545
Al2 O6 1.794034 1_555
Al3 O14 1.694768 1_555
Al3 O17 1.773270 1_555
Al3 O11 1.794034 1_545
Al3 O10 1.794034 1_555
Al4 O27 1.739091 1_555
Al4 O28 1.739091 1_545
Al4 O32 1.754452 1_555
Al4 O24 1.790783 1_555
Al5 O27 1.739091 1_555
Al5 O29 1.739091 1_455
Al5 O31 1.754452 1_555
Al5 O23 1.790783 1_555
Al6 O28 1.739091 1_555
Al6 O30 1.739091 1_455
Al6 O34 1.754452 1_555
Al6 O26 1.790783 1_555
Al7 O29 1.739091 1_555
Al7 O30 1.739091 1_545
Al7 O33 1.754452 1_555
Al7 O25 1.790783 1_555
Al8 O36 1.673062 1_555
Al8 O34 1.748647 1_555
Al8 O44 1.820632 1_455
Al8 O38 1.820632 1_555
Al9 O35 1.673062 1_555
Al9 O33 1.748647 1_555
Al9 O42 1.820632 1_545
Al9 O41 1.820632 1_555
Al10 O36 1.673062 1_555
Al10 O31 1.748647 1_555
Al10 O43 1.820636 1_455
Al10 O37 1.820636 1_555
Al11 O35 1.673062 1_555
Al11 O32 1.748647 1_555
Al11 O40 1.820636 1_545
Al11 O39 1.820636 1_555
O0 Si9 1.656755 1_555
O0 Si0 1.656755 1_555
O1 Si0 1.648227 1_555
O1 Si1 1.648227 1_555
O2 Si2 1.656755 1_555
O2 Si10 1.656755 1_555
O3 Si3 1.656755 1_555
O3 Si1 1.656755 1_555
O4 Si4 1.648227 1_555
O4 Si3 1.648227 1_555
O5 Si9 1.660832 1_555
O6 Si0 1.660832 1_555
O7 Si2 1.660832 1_555
O8 Si3 1.660832 1_555
O9 Si10 1.660832 1_555
O10 Si1 1.660832 1_555
O11 Si11 1.660832 1_555
O12 Si4 1.660832 1_555
O15 Si8 1.612274 1_555
O16 Si5 1.612274 1_555
O17 Si7 1.612274 1_555
O18 Si6 1.612274 1_555
O19 Si8 1.671623 1_555
O19 Si5 1.671623 1_555
O20 Si6 1.671623 1_555
O20 Si5 1.671623 1_565
O21 Si7 1.671623 1_555
O21 Si8 1.671623 1_655
O22 Si7 1.671623 1_565
O22 Si6 1.671623 1_655
O23 Si8 1.587995 1_555
O24 Si5 1.587995 1_555
O25 Si7 1.587995 1_555
O26 Si6 1.587995 1_555
O37 Si9 1.638388 1_556
O38 Si10 1.638384 1_556
O39 Si0 1.638388 1_556
O40 Si2 1.638388 1_556
O41 Si1 1.638384 1_556
O42 Si11 1.638384 1_556
O43 Si3 1.638388 1_556
O44 Si4 1.638384 1_556
O45 Si10 1.648227 1_555
O45 Si9 1.648227 1_555
O46 Si11 1.648227 1_555
O46 Si2 1.648227 1_555
O47 Si4 1.656755 1_555
O47 Si11 1.656755 1_555
