# generated using pymatgen
data_LaCoTc2
_symmetry_space_group_name_H-M   'P 1'
_cell_length_a   4.56144826
_cell_length_b   4.56144826
_cell_length_c   4.56144826
_cell_angle_alpha   60.00000000
_cell_angle_beta   60.00000000
_cell_angle_gamma   60.00000000
_symmetry_Int_Tables_number   1
_chemical_formula_structural   LaCoTc2
_chemical_formula_sum   'La1 Co1 Tc2'
_cell_volume   67.11093086
_cell_formula_units_Z   1
loop_
 _symmetry_equiv_pos_site_id
 _symmetry_equiv_pos_as_xyz
  1  'x, y, z'
loop_
 _atom_site_type_symbol
 _atom_site_label
 _atom_site_symmetry_multiplicity
 _atom_site_fract_x
 _atom_site_fract_y
 _atom_site_fract_z
 _atom_site_occupancy
  La  La0  1  0.00000000  0.00000000  0.00000000  1
  Co  Co0  1  0.50000000  0.50000000  0.50000000  1
  Tc  Tc0  1  0.75000000  0.75000000  0.75000000  1
  Tc  Tc1  1  0.25000000  0.25000000  0.25000000  1
loop_
_geom_bond_atom_site_label_1
_geom_bond_atom_site_label_2
_geom_bond_distance
_geom_bond_site_symmetry_2
La0 Tc0 2.793305 1_444
La0 Tc0 2.793305 1_445
La0 Tc1 2.793305 1_545
La0 Tc0 2.793305 1_544
La0 Tc0 2.793305 1_454
La0 Tc1 2.793305 1_455
La0 Tc1 2.793305 1_555
La0 Tc1 2.793305 1_554
Co0 Tc0 2.793305 1_545
Co0 Tc1 2.793305 1_565
Co0 Tc1 2.793305 1_655
Co0 Tc0 2.793305 1_455
Co0 Tc0 2.793305 1_554
Co0 Tc0 2.793305 1_555
Co0 Tc1 2.793305 1_556
Co0 Tc1 2.793305 1_555
Co0 La0 3.225431 1_655
Co0 La0 3.225431 1_656
Co0 La0 3.225431 1_665
Co0 La0 3.225431 1_556
Co0 La0 3.225431 1_565
Co0 La0 3.225431 1_566
