# generated using pymatgen
data_Cs3Fe2Cl9
_symmetry_space_group_name_H-M   'P 1'
_cell_length_a   7.36206671
_cell_length_b   7.36206671
_cell_length_c   8.96430300
_cell_angle_alpha   90.00000000
_cell_angle_beta   90.00000000
_cell_angle_gamma   120.00000638
_symmetry_Int_Tables_number   1
_chemical_formula_structural   Cs3Fe2Cl9
_chemical_formula_sum   'Cs3 Fe2 Cl9'
_cell_volume   420.77180225
_cell_formula_units_Z   1
loop_
 _symmetry_equiv_pos_site_id
 _symmetry_equiv_pos_as_xyz
  1  'x, y, z'
loop_
 _atom_site_type_symbol
 _atom_site_label
 _atom_site_symmetry_multiplicity
 _atom_site_fract_x
 _atom_site_fract_y
 _atom_site_fract_z
 _atom_site_occupancy
  Cs  Cs0  1  0.66666700  0.33333300  0.66944500  1
  Cs  Cs1  1  0.00000000  0.00000000  0.00000000  1
  Cs  Cs2  1  0.33333300  0.66666700  0.33055500  1
  Fe  Fe0  1  0.66666700  0.33333300  0.18565100  1
  Fe  Fe1  1  0.33333300  0.66666700  0.81434900  1
  Cl  Cl0  1  0.17875500  0.82124500  0.68466000  1
  Cl  Cl1  1  0.17875500  0.35750900  0.68466000  1
  Cl  Cl2  1  0.50000000  0.50000000  0.00000000  1
  Cl  Cl3  1  0.82124500  0.64249100  0.31534000  1
  Cl  Cl4  1  0.35750900  0.17875500  0.31534000  1
  Cl  Cl5  1  0.64249100  0.82124500  0.68466000  1
  Cl  Cl6  1  0.82124500  0.17875500  0.31534000  1
  Cl  Cl7  1  0.00000000  0.50000000  0.00000000  1
  Cl  Cl8  1  0.50000000  0.00000000  0.00000000  1
loop_
_geom_bond_atom_site_label_1
_geom_bond_atom_site_label_2
_geom_bond_distance
_geom_bond_site_symmetry_2
Cl0 Fe1 2.288405 1_555
Cl0 Cs1 3.631313 1_566
Cl0 Cs0 3.686783 1_455
Cl0 Cs0 3.686783 1_565
Cl0 Cs2 3.736500 1_555
Cl1 Fe1 2.288416 1_555
Cl1 Cs1 3.631309 1_556
Cl1 Cs0 3.686783 1_455
Cl1 Cs0 3.686783 1_555
Cl1 Cs2 3.736507 1_555
Cl2 Fe0 2.699325 1_555
Cl2 Fe1 2.699325 1_554
Cl2 Cs2 3.646534 1_555
Cl2 Cs0 3.646534 1_554
Cl2 Cs1 3.681033 1_555
Cl2 Cs1 3.681033 1_665
Cl3 Fe0 2.288416 1_555
Cl3 Cs1 3.631309 1_665
Cl3 Cs2 3.686783 1_655
Cl3 Cs2 3.686783 1_555
Cl3 Cs0 3.736507 1_555
Cl4 Fe0 2.288416 1_555
Cl4 Cs1 3.631309 1_555
Cl4 Cs2 3.686783 1_545
Cl4 Cs2 3.686783 1_555
Cl4 Cs0 3.736507 1_555
Cl5 Fe1 2.288416 1_555
Cl5 Cs1 3.631309 1_666
Cl5 Cs0 3.686783 1_565
Cl5 Cs0 3.686783 1_555
Cl5 Cs2 3.736507 1_555
Cl6 Fe0 2.288405 1_555
Cl6 Cs1 3.631313 1_655
Cl6 Cs2 3.686783 1_545
Cl6 Cs2 3.686783 1_655
Cl6 Cs0 3.736500 1_555
Cl7 Fe0 2.699320 1_455
Cl7 Fe1 2.699320 1_554
Cl7 Cs2 3.646531 1_555
Cl7 Cs0 3.646531 1_454
Cl7 Cs1 3.681033 1_565
Cl7 Cs1 3.681033 1_555
Cl8 Fe0 2.699320 1_555
Cl8 Fe1 2.699320 1_544
Cl8 Cs2 3.646531 1_545
Cl8 Cs0 3.646531 1_554
Cl8 Cs1 3.681033 1_555
Cl8 Cs1 3.681033 1_655
