# generated using pymatgen
data_GdMn12
_symmetry_space_group_name_H-M   'P 1'
_cell_length_a   4.62510275
_cell_length_b   6.31724304
_cell_length_c   6.32143436
_cell_angle_alpha   82.22256625
_cell_angle_beta   68.52672968
_cell_angle_gamma   68.50599481
_symmetry_Int_Tables_number   1
_chemical_formula_structural   GdMn12
_chemical_formula_sum   'Gd1 Mn12'
_cell_volume   159.92547322
_cell_formula_units_Z   1
loop_
 _symmetry_equiv_pos_site_id
 _symmetry_equiv_pos_as_xyz
  1  'x, y, z'
loop_
 _atom_site_type_symbol
 _atom_site_label
 _atom_site_symmetry_multiplicity
 _atom_site_fract_x
 _atom_site_fract_y
 _atom_site_fract_z
 _atom_site_occupancy
  Gd  Gd0  1  0.00626700  0.99956400  0.99819200  1
  Mn  Mn0  1  0.00619500  0.36104300  0.63704700  1
  Mn  Mn1  1  0.50641100  0.22658500  0.77123400  1
  Mn  Mn2  1  0.27652700  0.22867400  0.22759800  1
  Mn  Mn3  1  0.73497800  0.77107800  0.77006000  1
  Mn  Mn4  1  0.50515800  0.99973500  0.50010500  1
  Mn  Mn5  1  0.50626600  0.77180800  0.22607200  1
  Mn  Mn6  1  0.36699200  0.63789400  0.63681200  1
  Mn  Mn7  1  0.00541400  0.63664800  0.36208300  1
  Mn  Mn8  1  0.50753300  0.49951000  0.99533200  1
  Mn  Mn9  1  0.64246800  0.36330900  0.36261300  1
  Mn  Mn10  1  0.00792100  0.49951000  0.99546500  1
  Mn  Mn11  1  0.00521100  0.99994300  0.50003200  1
loop_
_geom_bond_atom_site_label_1
_geom_bond_atom_site_label_2
_geom_bond_distance
_geom_bond_site_symmetry_2
Gd0 Mn1 2.983584 1_465
Gd0 Mn1 2.985051 1_565
Gd0 Mn5 2.988561 1_456
Gd0 Mn5 2.988789 1_556
Gd0 Mn3 2.992130 1_455
Gd0 Mn3 2.993722 1_555
Gd0 Mn2 2.996869 1_566
Gd0 Mn2 2.999025 1_466
Gd0 Mn0 3.002585 1_565
Gd0 Mn6 3.008515 1_555
Gd0 Mn7 3.019973 1_556
Gd0 Mn9 3.029803 1_466
Gd0 Mn4 3.149577 1_555
Gd0 Mn11 3.150553 1_555
Gd0 Mn8 3.157886 1_555
Gd0 Mn8 3.157901 1_465
Gd0 Mn10 3.158533 1_555
Gd0 Mn10 3.158792 1_565
Gd0 Mn4 3.170752 1_456
Gd0 Mn11 3.170888 1_556
Mn0 Mn7 2.287678 1_555
Mn0 Mn2 2.532221 1_555
Mn0 Mn3 2.535016 1_455
Mn0 Mn8 2.539199 1_455
Mn0 Mn10 2.540363 1_555
Mn0 Mn4 2.548913 1_545
Mn0 Mn11 2.549337 1_545
Mn0 Mn1 2.567598 1_455
Mn0 Mn1 2.568124 1_555
Mn0 Mn9 2.819958 1_455
Mn0 Mn9 2.820716 1_555
Mn0 Mn6 2.824816 1_555
Mn0 Mn6 2.830631 1_455
Mn1 Mn8 2.377491 1_555
Mn1 Mn10 2.377661 1_555
Mn1 Mn11 2.378962 1_645
Mn1 Mn4 2.381044 1_545
Mn1 Mn9 2.533506 1_555
Mn1 Mn6 2.542638 1_555
Mn1 Mn3 2.677450 1_545
Mn1 Mn2 2.684677 1_556
Mn2 Mn4 2.390810 1_545
Mn2 Mn8 2.394948 1_554
Mn2 Mn7 2.526205 1_555
Mn2 Mn9 2.566729 1_455
Mn2 Mn9 2.573984 1_555
Mn2 Mn5 2.685448 1_545
Mn3 Mn8 2.375329 1_555
Mn3 Mn4 2.379967 1_555
Mn3 Mn7 2.527760 1_655
Mn3 Mn6 2.559091 1_655
Mn3 Mn6 2.569989 1_555
Mn3 Mn5 2.682570 1_556
Mn4 Mn5 2.395249 1_555
Mn4 Mn6 2.551804 1_555
Mn4 Mn7 2.559365 1_655
Mn4 Mn9 2.560946 1_565
Mn5 Mn8 2.398332 1_554
Mn5 Mn9 2.530855 1_555
Mn5 Mn6 2.540189 1_555
Mn5 Mn7 2.570600 1_655
Mn5 Mn7 2.574289 1_555
Mn6 Mn9 2.283418 1_555
Mn6 Mn8 2.539500 1_555
Mn6 Mn7 2.820022 1_555
Mn6 Mn7 2.822628 1_655
Mn7 Mn8 2.578011 1_554
Mn7 Mn9 2.813900 1_455
Mn7 Mn9 2.817888 1_555
Mn8 Mn9 2.578171 1_556
Mn10 Mn8 2.310449 1_555
Mn10 Mn8 2.314654 1_455
Mn10 Mn3 2.373890 1_455
Mn10 Mn2 2.391977 1_556
Mn10 Mn5 2.396885 1_456
Mn10 Mn6 2.536399 1_555
Mn10 Mn9 2.576244 1_456
Mn10 Mn7 2.576448 1_556
Mn11 Mn4 2.311994 1_555
Mn11 Mn4 2.313109 1_455
Mn11 Mn3 2.379176 1_455
Mn11 Mn2 2.387775 1_565
Mn11 Mn5 2.395082 1_555
Mn11 Mn6 2.549128 1_555
Mn11 Mn9 2.558071 1_465
Mn11 Mn7 2.562628 1_555
