# generated using pymatgen
data_Ba15Fe7S25
_symmetry_space_group_name_H-M   'P 1'
_cell_length_a   9.61660911
_cell_length_b   12.75711116
_cell_length_c   42.30323892
_cell_angle_alpha   90.00000000
_cell_angle_beta   90.00000000
_cell_angle_gamma   90.00000000
_symmetry_Int_Tables_number   1
_chemical_formula_structural   Ba15Fe7S25
_chemical_formula_sum   'Ba60 Fe28 S100'
_cell_volume   5189.76775535
_cell_formula_units_Z   4
loop_
 _symmetry_equiv_pos_site_id
 _symmetry_equiv_pos_as_xyz
  1  'x, y, z'
loop_
 _atom_site_type_symbol
 _atom_site_label
 _atom_site_symmetry_multiplicity
 _atom_site_fract_x
 _atom_site_fract_y
 _atom_site_fract_z
 _atom_site_occupancy
  Ba  Ba0  1  0.25000000  0.51478449  0.58662130  1
  Ba  Ba1  1  0.75000000  0.08033847  0.31422545  1
  Ba  Ba2  1  0.01538131  0.77803653  0.78482541  1
  Ba  Ba3  1  0.25000000  0.95619902  0.47616138  1
  Ba  Ba4  1  0.97447158  0.15855835  0.01484216  1
  Ba  Ba5  1  0.51538131  0.27803653  0.71517459  1
  Ba  Ba6  1  0.53014339  0.39407942  0.31540336  1
  Ba  Ba7  1  0.53014339  0.10592058  0.81540336  1
  Ba  Ba8  1  0.98712684  0.65651827  0.89128632  1
  Ba  Ba9  1  0.01538131  0.72196347  0.28482541  1
  Ba  Ba10  1  0.49646994  0.29662885  0.90631536  1
  Ba  Ba11  1  0.46985661  0.89407942  0.18459664  1
  Ba  Ba12  1  0.03014339  0.60592058  0.68459664  1
  Ba  Ba13  1  0.48461869  0.72196347  0.28482541  1
  Ba  Ba14  1  0.75000000  0.49883198  0.22531607  1
  Ba  Ba15  1  0.51287316  0.84348173  0.39128632  1
  Ba  Ba16  1  0.98712684  0.84348173  0.39128632  1
  Ba  Ba17  1  0.52552842  0.34144165  0.51484216  1
  Ba  Ba18  1  0.50353006  0.70337115  0.09368464  1
  Ba  Ba19  1  0.75000000  0.04380098  0.52383862  1
  Ba  Ba20  1  0.00353006  0.29662885  0.90631536  1
  Ba  Ba21  1  0.01287316  0.34348173  0.10871368  1
  Ba  Ba22  1  0.25000000  0.91966153  0.68577455  1
  Ba  Ba23  1  0.99646994  0.70337115  0.09368464  1
  Ba  Ba24  1  0.75000000  0.48521551  0.41337870  1
  Ba  Ba25  1  0.75000000  0.00116802  0.72531607  1
  Ba  Ba26  1  0.48712684  0.15651827  0.60871368  1
  Ba  Ba27  1  0.25000000  0.50116802  0.77468393  1
  Ba  Ba28  1  0.52552842  0.15855835  0.01484216  1
  Ba  Ba29  1  0.51538131  0.22196347  0.21517459  1
  Ba  Ba30  1  0.02552842  0.84144165  0.98515784  1
  Ba  Ba31  1  0.02552842  0.65855835  0.48515784  1
  Ba  Ba32  1  0.96985661  0.39407942  0.31540336  1
  Ba  Ba33  1  0.47447158  0.84144165  0.98515784  1
  Ba  Ba34  1  0.51287316  0.65651827  0.89128632  1
  Ba  Ba35  1  0.75000000  0.45619902  0.02383862  1
  Ba  Ba36  1  0.03014339  0.89407942  0.18459664  1
  Ba  Ba37  1  0.25000000  0.99883198  0.27468393  1
  Ba  Ba38  1  0.25000000  0.55810862  0.38778763  1
  Ba  Ba39  1  0.75000000  0.01478449  0.91337870  1
  Ba  Ba40  1  0.48461869  0.77803653  0.78482541  1
  Ba  Ba41  1  0.75000000  0.05810862  0.11221237  1
  Ba  Ba42  1  0.46985661  0.60592058  0.68459664  1
  Ba  Ba43  1  0.48712684  0.34348173  0.10871368  1
  Ba  Ba44  1  0.25000000  0.54380098  0.97616138  1
  Ba  Ba45  1  0.98461869  0.27803653  0.71517459  1
  Ba  Ba46  1  0.97447158  0.34144165  0.51484216  1
  Ba  Ba47  1  0.50353006  0.79662885  0.59368464  1
  Ba  Ba48  1  0.99646994  0.79662885  0.59368464  1
  Ba  Ba49  1  0.98461869  0.22196347  0.21517459  1
  Ba  Ba50  1  0.25000000  0.58033847  0.18577455  1
  Ba  Ba51  1  0.00353006  0.20337115  0.40631536  1
  Ba  Ba52  1  0.25000000  0.98521551  0.08662130  1
  Ba  Ba53  1  0.75000000  0.44189138  0.61221237  1
  Ba  Ba54  1  0.47447158  0.65855835  0.48515784  1
  Ba  Ba55  1  0.25000000  0.94189138  0.88778763  1
  Ba  Ba56  1  0.75000000  0.41966153  0.81422545  1
  Ba  Ba57  1  0.01287316  0.15651827  0.60871368  1
  Ba  Ba58  1  0.96985661  0.10592058  0.81540336  1
  Ba  Ba59  1  0.49646994  0.20337115  0.40631536  1
  Fe  Fe0  1  0.25000000  0.53832607  0.05668902  1
  Fe  Fe1  1  0.75000000  0.84094176  0.46971041  1
  Fe  Fe2  1  0.75000000  0.65430205  0.34122561  1
  Fe  Fe3  1  0.75000000  0.46167393  0.94331098  1
  Fe  Fe4  1  0.75000000  0.03832607  0.44331098  1
  Fe  Fe5  1  0.25000000  0.34094176  0.03028959  1
  Fe  Fe6  1  0.75000000  0.94548129  0.23399435  1
  Fe  Fe7  1  0.25000000  0.48929248  0.85478970  1
  Fe  Fe8  1  0.25000000  0.44548129  0.26600565  1
  Fe  Fe9  1  0.75000000  0.79560270  0.67037042  1
  Fe  Fe10  1  0.25000000  0.34569795  0.65877439  1
  Fe  Fe11  1  0.75000000  0.89852499  0.03634616  1
  Fe  Fe12  1  0.25000000  0.01070752  0.35478970  1
  Fe  Fe13  1  0.75000000  0.98929248  0.64521030  1
  Fe  Fe14  1  0.75000000  0.84569795  0.84122561  1
  Fe  Fe15  1  0.25000000  0.20439730  0.32962958  1
  Fe  Fe16  1  0.25000000  0.29560270  0.82962958  1
  Fe  Fe17  1  0.75000000  0.60147501  0.53634616  1
  Fe  Fe18  1  0.75000000  0.70439730  0.17037042  1
  Fe  Fe19  1  0.25000000  0.05451871  0.76600565  1
  Fe  Fe20  1  0.75000000  0.65905824  0.96971041  1
  Fe  Fe21  1  0.75000000  0.55451871  0.73399435  1
  Fe  Fe22  1  0.25000000  0.39852499  0.46365384  1
  Fe  Fe23  1  0.25000000  0.15430205  0.15877439  1
  Fe  Fe24  1  0.25000000  0.10147501  0.96365384  1
  Fe  Fe25  1  0.25000000  0.15905824  0.53028959  1
  Fe  Fe26  1  0.25000000  0.96167393  0.55668902  1
  Fe  Fe27  1  0.75000000  0.51070752  0.14521030  1
  S  S0  1  0.25000000  0.06896178  0.20571678  1
  S  S1  1  0.75000000  0.15702622  0.66349378  1
  S  S2  1  0.06345045  0.44626008  0.03769730  1
  S  S3  1  0.44872390  0.43555928  0.43914219  1
  S  S4  1  0.25000000  0.02659536  0.40657304  1
  S  S5  1  0.75000000  0.82537310  0.33187366  1
  S  S6  1  0.75000000  0.45105375  0.69214480  1
  S  S7  1  0.44428196  0.02461837  0.74008655  1
  S  S8  1  0.05127610  0.43555928  0.43914219  1
  S  S9  1  0.93654955  0.55373992  0.96230270  1
  S  S10  1  0.25000000  0.84297378  0.33650622  1
  S  S11  1  0.04962900  0.39415910  0.63607149  1
  S  S12  1  0.75000000  0.82446322  0.13370780  1
  S  S13  1  0.25000000  0.17553678  0.86629220  1
  S  S14  1  0.75000000  0.99374189  0.99182016  1
  S  S15  1  0.56345045  0.94626008  0.46230270  1
  S  S16  1  0.75000000  0.67462690  0.83187366  1
  S  S17  1  0.25000000  0.69723085  0.63611091  1
  S  S18  1  0.25000000  0.54894625  0.30785520  1
  S  S19  1  0.25000000  0.79462685  0.53698117  1
  S  S20  1  0.25000000  0.77979878  0.23400329  1
  S  S21  1  0.75000000  0.19723085  0.86388909  1
  S  S22  1  0.75000000  0.52659536  0.09342696  1
  S  S23  1  0.75000000  0.97340464  0.59342696  1
  S  S24  1  0.75000000  0.29462685  0.96301883  1
  S  S25  1  0.75000000  0.77992119  0.93353698  1
  S  S26  1  0.05127610  0.06444072  0.93914219  1
  S  S27  1  0.55127610  0.56444072  0.56085781  1
  S  S28  1  0.25000000  0.52927977  0.10842175  1
  S  S29  1  0.25000000  0.75631639  0.93645767  1
  S  S30  1  0.93775647  0.90007549  0.66424719  1
  S  S31  1  0.06224353  0.09992451  0.33575281  1
  S  S32  1  0.75000000  0.56896178  0.29428322  1
  S  S33  1  0.75000000  0.02927977  0.39157825  1
  S  S34  1  0.25000000  0.70537315  0.03698117  1
  S  S35  1  0.44872390  0.06444072  0.93914219  1
  S  S36  1  0.43654955  0.44626008  0.03769730  1
  S  S37  1  0.44428196  0.47538163  0.24008655  1
  S  S38  1  0.75000000  0.67553678  0.63370780  1
  S  S39  1  0.43775647  0.09992451  0.33575281  1
  S  S40  1  0.45037100  0.10584090  0.13607149  1
  S  S41  1  0.94428196  0.97538163  0.25991345  1
  S  S42  1  0.25000000  0.32446322  0.36629220  1
  S  S43  1  0.75000000  0.04894625  0.19214480  1
  S  S44  1  0.25000000  0.47340464  0.90657304  1
  S  S45  1  0.25000000  0.27972595  0.97778751  1
  S  S46  1  0.25000000  0.65702622  0.83650622  1
  S  S47  1  0.56224353  0.90007549  0.66424719  1
  S  S48  1  0.25000000  0.95105375  0.80785520  1
  S  S49  1  0.94872390  0.56444072  0.56085781  1
  S  S50  1  0.56224353  0.59992451  0.16424719  1
  S  S51  1  0.25000000  0.72020122  0.73400329  1
  S  S52  1  0.75000000  0.22020122  0.76599671  1
  S  S53  1  0.75000000  0.93103822  0.79428322  1
  S  S54  1  0.75000000  0.73547629  0.72205561  1
  S  S55  1  0.75000000  0.30276915  0.36388909  1
  S  S56  1  0.25000000  0.00625811  0.00817984  1
  S  S57  1  0.75000000  0.25631639  0.56354233  1
  S  S58  1  0.06345045  0.05373992  0.53769730  1
  S  S59  1  0.55571804  0.97538163  0.25991345  1
  S  S60  1  0.04962900  0.10584090  0.13607149  1
  S  S61  1  0.45037100  0.39415910  0.63607149  1
  S  S62  1  0.75000000  0.72007881  0.43353698  1
  S  S63  1  0.25000000  0.32537310  0.16812634  1
  S  S64  1  0.25000000  0.43103822  0.70571678  1
  S  S65  1  0.75000000  0.50625811  0.49182016  1
  S  S66  1  0.93654955  0.94626008  0.46230270  1
  S  S67  1  0.05571804  0.47538163  0.24008655  1
  S  S68  1  0.95037100  0.60584090  0.36392851  1
  S  S69  1  0.56345045  0.55373992  0.96230270  1
  S  S70  1  0.06224353  0.40007549  0.83575281  1
  S  S71  1  0.54962900  0.60584090  0.36392851  1
  S  S72  1  0.75000000  0.77972595  0.52221249  1
  S  S73  1  0.25000000  0.22007881  0.06646302  1
  S  S74  1  0.75000000  0.76452371  0.22205561  1
  S  S75  1  0.25000000  0.17462690  0.66812634  1
  S  S76  1  0.25000000  0.49374189  0.50817984  1
  S  S77  1  0.55127610  0.93555928  0.06085781  1
  S  S78  1  0.43654955  0.05373992  0.53769730  1
  S  S79  1  0.93775647  0.59992451  0.16424719  1
  S  S80  1  0.54962900  0.89415910  0.86392851  1
  S  S81  1  0.05571804  0.02461837  0.74008655  1
  S  S82  1  0.43775647  0.40007549  0.83575281  1
  S  S83  1  0.75000000  0.27979878  0.26599671  1
  S  S84  1  0.25000000  0.23547629  0.77794439  1
  S  S85  1  0.25000000  0.97072023  0.60842175  1
  S  S86  1  0.25000000  0.74368361  0.43645767  1
  S  S87  1  0.75000000  0.20537315  0.46301883  1
  S  S88  1  0.94428196  0.52461837  0.75991345  1
  S  S89  1  0.95037100  0.89415910  0.86392851  1
  S  S90  1  0.25000000  0.22027405  0.47778751  1
  S  S91  1  0.25000000  0.80276915  0.13611091  1
  S  S92  1  0.25000000  0.26452371  0.27794439  1
  S  S93  1  0.55571804  0.52461837  0.75991345  1
  S  S94  1  0.75000000  0.72027405  0.02221249  1
  S  S95  1  0.94872390  0.93555928  0.06085781  1
  S  S96  1  0.25000000  0.27992119  0.56646302  1
  S  S97  1  0.75000000  0.34297378  0.16349378  1
  S  S98  1  0.75000000  0.24368361  0.06354233  1
  S  S99  1  0.75000000  0.47072023  0.89157825  1
loop_
_geom_bond_atom_site_label_1
_geom_bond_atom_site_label_2
_geom_bond_distance
_geom_bond_site_symmetry_2
Ba0 S96 3.115169 1_555
Ba0 S17 3.130534 1_555
Ba0 S27 3.159621 1_555
Ba0 S49 3.159621 1_455
Ba0 S61 3.233723 1_555
Ba0 S11 3.233723 1_555
Ba0 S76 3.329168 1_555
Ba1 S31 3.147716 1_655
Ba1 S39 3.147716 1_555
Ba1 S59 3.249968 1_545
Ba1 S41 3.249968 1_545
Ba1 S83 3.261475 1_555
Ba1 S33 3.336473 1_555
Ba1 S5 3.337203 1_545
Ba1 S55 3.530685 1_555
Ba2 S51 3.202688 1_555
Ba2 S53 3.237728 1_455
Ba2 S48 3.303251 1_555
Ba2 S88 3.468378 1_455
Ba2 S16 3.494944 1_455
Ba2 S46 3.500500 1_555
Ba2 S81 3.691565 1_565
Ba2 S89 3.712573 1_455
Ba2 S54 3.722742 1_455
Ba3 S66 3.073430 1_455
Ba3 S15 3.073430 1_555
Ba3 S4 3.077748 1_565
Ba3 S86 3.189202 1_555
Ba3 S19 3.296696 1_555
Ba3 S90 3.369537 1_565
Ba3 S58 3.397530 1_565
Ba3 S78 3.397530 1_565
Ba3 Fe26 3.407296 1_555
Ba3 Fe25 3.455487 1_565
Ba4 S14 3.166881 1_544
Ba4 S98 3.175438 1_555
Ba4 S56 3.297723 1_655
Ba4 S45 3.444871 1_654
Ba4 S95 3.455955 1_545
Ba4 S26 3.498886 1_654
Ba4 S73 3.522111 1_655
Ba4 S24 3.532576 1_554
Ba5 S52 3.202688 1_555
Ba5 S64 3.237728 1_555
Ba5 S6 3.303251 1_555
Ba5 S7 3.468378 1_555
Ba5 S75 3.494944 1_555
Ba5 S1 3.500500 1_555
Ba5 S93 3.691565 1_555
Ba5 S61 3.712573 1_555
Ba5 S84 3.722742 1_555
Ba6 S55 3.167660 1_555
Ba6 S32 3.200898 1_555
Ba6 S83 3.311187 1_555
Ba6 S18 3.356034 1_555
Ba6 S71 3.398072 1_555
Ba6 S37 3.450948 1_555
Ba6 S92 3.535600 1_555
Ba6 S42 3.561026 1_555
Ba7 S21 3.167660 1_555
Ba7 S53 3.200898 1_545
Ba7 S52 3.311187 1_555
Ba7 S48 3.356034 1_545
Ba7 S80 3.398072 1_545
Ba7 S7 3.450948 1_555
Ba7 S84 3.535600 1_555
Ba7 S13 3.561026 1_555
Ba8 S89 3.264200 1_555
Ba8 S99 3.289110 1_555
Ba8 S25 3.297411 1_555
Ba8 S9 3.313767 1_555
Ba8 S16 3.401516 1_555
Ba8 S29 3.415101 1_655
Ba8 S46 3.429402 1_655
Ba8 S44 3.502230 1_655
Ba9 S20 3.202688 1_555
Ba9 S32 3.237728 1_455
Ba9 S18 3.303251 1_555
Ba9 S41 3.468378 1_455
Ba9 S5 3.494944 1_455
Ba9 S10 3.500500 1_555
Ba9 S67 3.691565 1_555
Ba9 S68 3.712573 1_455
Ba9 S74 3.722742 1_455
Ba10 S44 3.271649 1_555
Ba10 S21 3.282290 1_555
Ba10 S13 3.297097 1_555
Ba10 S35 3.303483 1_555
Ba10 S82 3.312209 1_555
Ba10 S99 3.356397 1_555
Ba10 S24 3.420371 1_555
Ba11 S91 3.167660 1_555
Ba11 S0 3.200898 1_565
Ba11 S20 3.311187 1_555
Ba11 S43 3.356034 1_565
Ba11 S40 3.398072 1_565
Ba11 S59 3.450948 1_555
Ba11 S74 3.535600 1_555
Ba11 S12 3.561026 1_555
Ba12 S17 3.167660 1_555
Ba12 S64 3.200898 1_555
Ba12 S51 3.311187 1_555
Ba12 S6 3.356034 1_455
Ba12 S11 3.398072 1_555
Ba12 S88 3.450948 1_455
Ba12 S54 3.535600 1_455
Ba12 S38 3.561026 1_455
Ba13 S20 3.202688 1_555
Ba13 S32 3.237728 1_555
Ba13 S18 3.303251 1_555
Ba13 S59 3.468378 1_555
Ba13 S5 3.494944 1_555
Ba13 S10 3.500500 1_555
Ba13 S37 3.691565 1_555
Ba13 S71 3.712573 1_555
Ba13 S74 3.722742 1_555
Ba14 S37 3.020488 1_555
Ba14 S67 3.020488 1_655
Ba14 S32 3.051624 1_555
Ba14 S83 3.281661 1_555
Ba14 S97 3.285277 1_555
Ba14 S74 3.392264 1_555
Ba14 S50 3.405485 1_555
Ba14 S79 3.405485 1_555
Ba15 S71 3.264200 1_555
Ba15 S33 3.289110 1_565
Ba15 S62 3.297411 1_555
Ba15 S15 3.313767 1_555
Ba15 S5 3.401516 1_555
Ba15 S86 3.415101 1_555
Ba15 S10 3.429402 1_555
Ba15 S4 3.502230 1_565
Ba16 S68 3.264200 1_555
Ba16 S33 3.289110 1_565
Ba16 S62 3.297411 1_555
Ba16 S66 3.313767 1_555
Ba16 S5 3.401516 1_555
Ba16 S86 3.415101 1_655
Ba16 S10 3.429402 1_655
Ba16 S4 3.502230 1_665
Ba17 S65 3.166881 1_555
Ba17 S57 3.175438 1_555
Ba17 S76 3.297723 1_555
Ba17 S90 3.444871 1_555
Ba17 S27 3.455955 1_555
Ba17 S3 3.498886 1_555
Ba17 S96 3.522111 1_555
Ba17 S87 3.532576 1_555
Ba18 S22 3.271649 1_555
Ba18 S91 3.282290 1_555
Ba18 S12 3.297097 1_555
Ba18 S77 3.303483 1_555
Ba18 S50 3.312209 1_555
Ba18 S28 3.356397 1_555
Ba18 S34 3.420371 1_555
Ba19 S58 3.073430 1_655
Ba19 S78 3.073430 1_555
Ba19 S23 3.077748 1_545
Ba19 S57 3.189202 1_555
Ba19 S87 3.296696 1_555
Ba19 S72 3.369537 1_545
Ba19 S15 3.397530 1_545
Ba19 S66 3.397530 1_545
Ba19 Fe4 3.407296 1_555
Ba19 Fe1 3.455487 1_545
Ba20 S44 3.271649 1_555
Ba20 S21 3.282290 1_455
Ba20 S13 3.297097 1_555
Ba20 S26 3.303483 1_555
Ba20 S70 3.312209 1_555
Ba20 S99 3.356397 1_455
Ba20 S24 3.420371 1_455
Ba21 S60 3.264200 1_555
Ba21 S28 3.289110 1_555
Ba21 S73 3.297411 1_555
Ba21 S2 3.313767 1_555
Ba21 S63 3.401516 1_555
Ba21 S98 3.415101 1_455
Ba21 S97 3.429402 1_455
Ba21 S22 3.502230 1_455
Ba22 S30 3.147716 1_455
Ba22 S47 3.147716 1_555
Ba22 S7 3.249968 1_565
Ba22 S81 3.249968 1_565
Ba22 S51 3.261475 1_555
Ba22 S85 3.336473 1_555
Ba22 S75 3.337203 1_565
Ba22 S17 3.530685 1_555
Ba23 S22 3.271649 1_555
Ba23 S91 3.282290 1_655
Ba23 S12 3.297097 1_555
Ba23 S95 3.303483 1_555
Ba23 S79 3.312209 1_555
Ba23 S28 3.356397 1_655
Ba23 S34 3.420371 1_655
Ba24 S62 3.115169 1_555
Ba24 S55 3.130534 1_555
Ba24 S8 3.159621 1_655
Ba24 S3 3.159621 1_555
Ba24 S68 3.233723 1_555
Ba24 S71 3.233723 1_555
Ba24 S65 3.329168 1_555
Ba25 S7 3.020488 1_555
Ba25 S81 3.020488 1_655
Ba25 S53 3.051624 1_545
Ba25 S52 3.281661 1_555
Ba25 S1 3.285277 1_555
Ba25 S54 3.392264 1_545
Ba25 S47 3.405485 1_545
Ba25 S30 3.405485 1_545
Ba26 S61 3.264200 1_555
Ba26 S85 3.289110 1_545
Ba26 S96 3.297411 1_555
Ba26 S78 3.313767 1_555
Ba26 S75 3.401516 1_555
Ba26 S57 3.415101 1_555
Ba26 S1 3.429402 1_555
Ba26 S23 3.502230 1_545
Ba27 S88 3.020488 1_455
Ba27 S93 3.020488 1_555
Ba27 S64 3.051624 1_555
Ba27 S51 3.281661 1_555
Ba27 S46 3.285277 1_555
Ba27 S84 3.392264 1_555
Ba27 S70 3.405485 1_555
Ba27 S82 3.405485 1_555
Ba28 S14 3.166881 1_544
Ba28 S98 3.175438 1_555
Ba28 S56 3.297723 1_555
Ba28 S45 3.444871 1_554
Ba28 S77 3.455955 1_545
Ba28 S35 3.498886 1_554
Ba28 S73 3.522111 1_555
Ba28 S24 3.532576 1_554
Ba29 S83 3.202688 1_555
Ba29 S0 3.237728 1_555
Ba29 S43 3.303251 1_555
Ba29 S37 3.468378 1_555
Ba29 S63 3.494944 1_555
Ba29 S97 3.500500 1_555
Ba29 S59 3.691565 1_545
Ba29 S40 3.712573 1_555
Ba29 S92 3.722742 1_555
Ba30 S56 3.166881 1_566
Ba30 S29 3.175438 1_555
Ba30 S14 3.297723 1_455
Ba30 S94 3.444871 1_456
Ba30 S26 3.455955 1_565
Ba30 S95 3.498886 1_456
Ba30 S25 3.522111 1_455
Ba30 S34 3.532576 1_556
Ba31 S76 3.166881 1_555
Ba31 S86 3.175438 1_555
Ba31 S65 3.297723 1_455
Ba31 S72 3.444871 1_455
Ba31 S8 3.455955 1_555
Ba31 S49 3.498886 1_455
Ba31 S62 3.522111 1_455
Ba31 S19 3.532576 1_555
Ba32 S55 3.167660 1_555
Ba32 S32 3.200898 1_555
Ba32 S83 3.311187 1_555
Ba32 S18 3.356034 1_655
Ba32 S68 3.398072 1_555
Ba32 S67 3.450948 1_655
Ba32 S92 3.535600 1_655
Ba32 S42 3.561026 1_655
Ba33 S56 3.166881 1_566
Ba33 S29 3.175438 1_555
Ba33 S14 3.297723 1_555
Ba33 S94 3.444871 1_556
Ba33 S35 3.455955 1_565
Ba33 S77 3.498886 1_556
Ba33 S25 3.522111 1_555
Ba33 S34 3.532576 1_556
Ba34 S80 3.264200 1_555
Ba34 S99 3.289110 1_555
Ba34 S25 3.297411 1_555
Ba34 S69 3.313767 1_555
Ba34 S16 3.401516 1_555
Ba34 S29 3.415101 1_555
Ba34 S46 3.429402 1_555
Ba34 S44 3.502230 1_555
Ba35 S2 3.073430 1_655
Ba35 S36 3.073430 1_555
Ba35 S22 3.077748 1_555
Ba35 S98 3.189202 1_555
Ba35 S24 3.296696 1_554
Ba35 S94 3.369537 1_555
Ba35 S69 3.397530 1_554
Ba35 S9 3.397530 1_554
Ba35 Fe3 3.407296 1_554
Ba35 Fe20 3.455487 1_554
Ba36 S91 3.167660 1_555
Ba36 S0 3.200898 1_565
Ba36 S20 3.311187 1_555
Ba36 S43 3.356034 1_465
Ba36 S60 3.398072 1_565
Ba36 S41 3.450948 1_455
Ba36 S74 3.535600 1_455
Ba36 S12 3.561026 1_455
Ba37 S41 3.020488 1_455
Ba37 S59 3.020488 1_555
Ba37 S0 3.051624 1_565
Ba37 S20 3.281661 1_555
Ba37 S10 3.285277 1_555
Ba37 S92 3.392264 1_565
Ba37 S39 3.405485 1_565
Ba37 S31 3.405485 1_565
Ba38 S71 3.113208 1_555
Ba38 S68 3.113208 1_455
Ba38 S42 3.116262 1_555
Ba38 S86 3.137460 1_555
Ba38 S3 3.288747 1_555
Ba38 S8 3.288747 1_555
Ba38 S18 3.383420 1_555
Ba39 S25 3.115169 1_545
Ba39 S21 3.130534 1_555
Ba39 S26 3.159621 1_655
Ba39 S35 3.159621 1_555
Ba39 S89 3.233723 1_545
Ba39 S80 3.233723 1_545
Ba39 S14 3.329168 1_545
Ba40 S51 3.202688 1_555
Ba40 S53 3.237728 1_555
Ba40 S48 3.303251 1_555
Ba40 S93 3.468378 1_555
Ba40 S16 3.494944 1_555
Ba40 S46 3.500500 1_555
Ba40 S7 3.691565 1_565
Ba40 S80 3.712573 1_555
Ba40 S54 3.722742 1_555
Ba41 S60 3.113208 1_655
Ba41 S40 3.113208 1_555
Ba41 S12 3.116262 1_545
Ba41 S98 3.137460 1_555
Ba41 S95 3.288747 1_545
Ba41 S77 3.288747 1_545
Ba41 S43 3.383420 1_555
Ba42 S17 3.167660 1_555
Ba42 S64 3.200898 1_555
Ba42 S51 3.311187 1_555
Ba42 S6 3.356034 1_555
Ba42 S61 3.398072 1_555
Ba42 S93 3.450948 1_555
Ba42 S54 3.535600 1_555
Ba42 S38 3.561026 1_555
Ba43 S40 3.264200 1_555
Ba43 S28 3.289110 1_555
Ba43 S73 3.297411 1_555
Ba43 S36 3.313767 1_555
Ba43 S63 3.401516 1_555
Ba43 S98 3.415101 1_555
Ba43 S97 3.429402 1_555
Ba43 S22 3.502230 1_555
Ba44 S9 3.073430 1_455
Ba44 S69 3.073430 1_555
Ba44 S44 3.077748 1_555
Ba44 S29 3.189202 1_555
Ba44 S34 3.296696 1_556
Ba44 S45 3.369537 1_555
Ba44 S2 3.397530 1_556
Ba44 S36 3.397530 1_556
Ba44 Fe0 3.407296 1_556
Ba44 Fe5 3.455487 1_556
Ba45 S52 3.202688 1_555
Ba45 S64 3.237728 1_655
Ba45 S6 3.303251 1_555
Ba45 S81 3.468378 1_655
Ba45 S75 3.494944 1_655
Ba45 S1 3.500500 1_555
Ba45 S88 3.691565 1_555
Ba45 S11 3.712573 1_655
Ba45 S84 3.722742 1_655
Ba46 S65 3.166881 1_555
Ba46 S57 3.175438 1_555
Ba46 S76 3.297723 1_655
Ba46 S90 3.444871 1_655
Ba46 S49 3.455955 1_555
Ba46 S8 3.498886 1_655
Ba46 S96 3.522111 1_655
Ba46 S87 3.532576 1_555
Ba47 S23 3.271649 1_555
Ba47 S17 3.282290 1_555
Ba47 S38 3.297097 1_555
Ba47 S27 3.303483 1_555
Ba47 S47 3.312209 1_555
Ba47 S85 3.356397 1_555
Ba47 S19 3.420371 1_555
Ba48 S23 3.271649 1_555
Ba48 S17 3.282290 1_655
Ba48 S38 3.297097 1_555
Ba48 S49 3.303483 1_555
Ba48 S30 3.312209 1_555
Ba48 S85 3.356397 1_655
Ba48 S19 3.420371 1_655
Ba49 S83 3.202688 1_555
Ba49 S0 3.237728 1_655
Ba49 S43 3.303251 1_555
Ba49 S67 3.468378 1_655
Ba49 S63 3.494944 1_655
Ba49 S97 3.500500 1_555
Ba49 S41 3.691565 1_545
Ba49 S60 3.712573 1_655
Ba49 S92 3.722742 1_655
Ba50 S79 3.147716 1_455
Ba50 S50 3.147716 1_555
Ba50 S67 3.249968 1_555
Ba50 S37 3.249968 1_555
Ba50 S20 3.261475 1_555
Ba50 S28 3.336473 1_555
Ba50 S63 3.337203 1_555
Ba50 S91 3.530685 1_555
Ba51 S4 3.271649 1_555
Ba51 S55 3.282290 1_455
Ba51 S42 3.297097 1_555
Ba51 S8 3.303483 1_555
Ba51 S31 3.312209 1_555
Ba51 S33 3.356397 1_455
Ba51 S87 3.420371 1_455
Ba52 S73 3.115169 1_565
Ba52 S91 3.130534 1_555
Ba52 S77 3.159621 1_555
Ba52 S95 3.159621 1_455
Ba52 S40 3.233723 1_565
Ba52 S60 3.233723 1_565
Ba52 S56 3.329168 1_565
Ba53 S11 3.113208 1_655
Ba53 S61 3.113208 1_555
Ba53 S38 3.116262 1_555
Ba53 S57 3.137460 1_555
Ba53 S49 3.288747 1_555
Ba53 S27 3.288747 1_555
Ba53 S6 3.383420 1_555
Ba54 S76 3.166881 1_555
Ba54 S86 3.175438 1_555
Ba54 S65 3.297723 1_555
Ba54 S72 3.444871 1_555
Ba54 S3 3.455955 1_555
Ba54 S27 3.498886 1_555
Ba54 S62 3.522111 1_555
Ba54 S19 3.532576 1_555
Ba55 S80 3.113208 1_555
Ba55 S89 3.113208 1_455
Ba55 S13 3.116262 1_565
Ba55 S29 3.137460 1_555
Ba55 S35 3.288747 1_565
Ba55 S26 3.288747 1_565
Ba55 S48 3.383420 1_555
Ba56 S70 3.147716 1_655
Ba56 S82 3.147716 1_555
Ba56 S88 3.249968 1_555
Ba56 S93 3.249968 1_555
Ba56 S52 3.261475 1_555
Ba56 S99 3.336473 1_555
Ba56 S16 3.337203 1_555
Ba56 S21 3.530685 1_555
Ba57 S11 3.264200 1_555
Ba57 S85 3.289110 1_545
Ba57 S96 3.297411 1_555
Ba57 S58 3.313767 1_555
Ba57 S75 3.401516 1_555
Ba57 S57 3.415101 1_455
Ba57 S1 3.429402 1_455
Ba57 S23 3.502230 1_445
Ba58 S21 3.167660 1_555
Ba58 S53 3.200898 1_545
Ba58 S52 3.311187 1_555
Ba58 S48 3.356034 1_645
Ba58 S89 3.398072 1_545
Ba58 S81 3.450948 1_655
Ba58 S84 3.535600 1_655
Ba58 S13 3.561026 1_655
Ba59 S4 3.271649 1_555
Ba59 S55 3.282290 1_555
Ba59 S42 3.297097 1_555
Ba59 S3 3.303483 1_555
Ba59 S39 3.312209 1_555
Ba59 S33 3.356397 1_555
Ba59 S87 3.420371 1_555
Fe0 S28 2.191503 1_555
Fe0 S34 2.288316 1_555
Fe0 S36 2.289815 1_555
Fe0 S2 2.289815 1_555
Fe1 S62 2.172329 1_555
Fe1 S15 2.263115 1_555
Fe1 S66 2.263115 1_555
Fe1 S72 2.354302 1_555
Fe2 S5 2.217941 1_555
Fe2 S68 2.239974 1_555
Fe2 S71 2.239974 1_555
Fe2 S32 2.264668 1_555
Fe3 S99 2.191503 1_555
Fe3 S24 2.288316 1_555
Fe3 S69 2.289815 1_555
Fe3 S9 2.289815 1_555
Fe4 S33 2.191503 1_555
Fe4 S87 2.288316 1_555
Fe4 S15 2.289815 1_545
Fe4 S66 2.289815 1_545
Fe5 S73 2.172329 1_555
Fe5 S36 2.263115 1_555
Fe5 S2 2.263115 1_555
Fe5 S45 2.354302 1_554
Fe6 S41 2.199636 1_555
Fe6 S59 2.199636 1_555
Fe6 S43 2.208255 1_565
Fe6 S74 2.363097 1_555
Fe7 S44 2.199960 1_555
Fe7 S46 2.275294 1_555
Fe7 S70 2.281239 1_555
Fe7 S82 2.281239 1_555
Fe8 S67 2.199636 1_555
Fe8 S37 2.199636 1_555
Fe8 S18 2.208255 1_555
Fe8 S92 2.363097 1_555
Fe9 S38 2.179799 1_555
Fe9 S47 2.259092 1_555
Fe9 S30 2.259092 1_555
Fe9 S54 2.317092 1_555
Fe10 S75 2.217941 1_555
Fe10 S61 2.239974 1_555
Fe10 S11 2.239974 1_555
Fe10 S64 2.264668 1_555
Fe11 S95 2.224979 1_555
Fe11 S77 2.224979 1_555
Fe11 S14 2.241295 1_554
Fe11 S94 2.351257 1_555
Fe12 S4 2.199960 1_555
Fe12 S10 2.275294 1_545
Fe12 S39 2.281239 1_555
Fe12 S31 2.281239 1_555
Fe13 S23 2.199960 1_555
Fe13 S1 2.275294 1_565
Fe13 S47 2.281239 1_555
Fe13 S30 2.281239 1_555
Fe14 S16 2.217941 1_555
Fe14 S89 2.239974 1_555
Fe14 S80 2.239974 1_555
Fe14 S53 2.264668 1_555
Fe15 S42 2.179799 1_555
Fe15 S31 2.259092 1_555
Fe15 S39 2.259092 1_555
Fe15 S92 2.317092 1_555
Fe16 S13 2.179799 1_555
Fe16 S82 2.259092 1_555
Fe16 S70 2.259092 1_555
Fe16 S84 2.317092 1_555
Fe17 S49 2.224979 1_555
Fe17 S27 2.224979 1_555
Fe17 S65 2.241295 1_555
Fe17 S72 2.351257 1_555
Fe18 S12 2.179799 1_555
Fe18 S50 2.259092 1_555
Fe18 S79 2.259092 1_555
Fe18 S74 2.317092 1_555
Fe19 S81 2.199636 1_555
Fe19 S7 2.199636 1_555
Fe19 S48 2.208255 1_545
Fe19 S84 2.363097 1_555
Fe20 S25 2.172329 1_555
Fe20 S69 2.263115 1_555
Fe20 S9 2.263115 1_555
Fe20 S94 2.354302 1_556
Fe21 S88 2.199636 1_555
Fe21 S93 2.199636 1_555
Fe21 S6 2.208255 1_555
Fe21 S54 2.363097 1_555
Fe22 S3 2.224979 1_555
Fe22 S8 2.224979 1_555
Fe22 S76 2.241295 1_555
Fe22 S90 2.351257 1_555
Fe23 S63 2.217941 1_555
Fe23 S40 2.239974 1_555
Fe23 S60 2.239974 1_555
Fe23 S0 2.264668 1_555
Fe24 S35 2.224979 1_555
Fe24 S26 2.224979 1_555
Fe24 S56 2.241295 1_556
Fe24 S45 2.351257 1_555
Fe25 S96 2.172329 1_555
Fe25 S78 2.263115 1_555
Fe25 S58 2.263115 1_555
Fe25 S90 2.354302 1_555
Fe26 S85 2.191503 1_555
Fe26 S19 2.288316 1_555
Fe26 S58 2.289815 1_565
Fe26 S78 2.289815 1_565
Fe27 S22 2.199960 1_555
Fe27 S97 2.275294 1_555
Fe27 S50 2.281239 1_555
Fe27 S79 2.281239 1_555
