# generated using pymatgen
data_BaMg2H8Ru
_symmetry_space_group_name_H-M   'P 1'
_cell_length_a   4.96961600
_cell_length_b   4.96961600
_cell_length_c   10.81218200
_cell_angle_alpha   90.00000000
_cell_angle_beta   90.00000000
_cell_angle_gamma   90.00000000
_symmetry_Int_Tables_number   1
_chemical_formula_structural   BaMg2H8Ru
_chemical_formula_sum   'Ba2 Mg4 H16 Ru2'
_cell_volume   267.02935829
_cell_formula_units_Z   2
loop_
 _symmetry_equiv_pos_site_id
 _symmetry_equiv_pos_as_xyz
  1  'x, y, z'
loop_
 _atom_site_type_symbol
 _atom_site_label
 _atom_site_symmetry_multiplicity
 _atom_site_fract_x
 _atom_site_fract_y
 _atom_site_fract_z
 _atom_site_occupancy
  Ba  Ba0  1  0.50000000  0.00000000  0.00000000  1
  Ba  Ba1  1  0.00000000  0.50000000  0.50000000  1
  Mg  Mg0  1  0.50000000  0.00000000  0.64027100  1
  Mg  Mg1  1  0.00000000  0.50000000  0.14027100  1
  Mg  Mg2  1  0.50000000  0.00000000  0.35972900  1
  Mg  Mg3  1  0.00000000  0.50000000  0.85972900  1
  H  H0  1  0.24356200  0.24356200  0.75000000  1
  H  H1  1  0.75643800  0.75643800  0.75000000  1
  H  H2  1  0.75643800  0.24356200  0.25000000  1
  H  H3  1  0.24356200  0.75643800  0.25000000  1
  H  H4  1  0.75643800  0.75643800  0.25000000  1
  H  H5  1  0.24356200  0.24356200  0.25000000  1
  H  H6  1  0.24356200  0.75643800  0.75000000  1
  H  H7  1  0.75643800  0.24356200  0.75000000  1
  H  H8  1  0.50000000  0.25186000  0.50000000  1
  H  H9  1  0.50000000  0.74814000  0.50000000  1
  H  H10  1  0.74814000  0.50000000  0.00000000  1
  H  H11  1  0.25186000  0.50000000  0.00000000  1
  H  H12  1  0.00000000  0.00000000  0.59375000  1
  H  H13  1  0.00000000  0.00000000  0.09375000  1
  H  H14  1  0.00000000  0.00000000  0.40625000  1
  H  H15  1  0.00000000  0.00000000  0.90625000  1
  Ru  Ru0  1  0.00000000  0.00000000  0.75000000  1
  Ru  Ru1  1  0.00000000  0.00000000  0.25000000  1
loop_
_geom_bond_atom_site_label_1
_geom_bond_atom_site_label_2
_geom_bond_distance
_geom_bond_site_symmetry_2
Ba0 H15 2.683606 1_554
Ba0 H15 2.683606 1_654
Ba0 H13 2.683606 1_555
Ba0 H13 2.683606 1_655
Ba0 H10 2.773978 1_555
Ba0 H11 2.773978 1_555
Ba0 H11 2.773978 1_545
Ba0 H10 2.773978 1_545
Ba1 H14 2.683606 1_565
Ba1 H12 2.683606 1_565
Ba1 H12 2.683606 1_555
Ba1 H14 2.683606 1_555
Ba1 H9 2.773978 1_455
Ba1 H8 2.773978 1_555
Ba1 H9 2.773978 1_555
Ba1 H8 2.773978 1_455
H0 Ru0 1.711778 1_555
H0 Mg3 2.120554 1_555
H0 Mg0 2.120554 1_555
H1 Ru0 1.711778 1_665
H1 Mg3 2.120554 1_655
H1 Mg0 2.120554 1_565
H2 Ru1 1.711778 1_655
H2 Mg2 2.120554 1_555
H2 Mg1 2.120554 1_655
H3 Ru1 1.711778 1_565
H3 Mg2 2.120554 1_565
H3 Mg1 2.120554 1_555
H4 Ru1 1.711778 1_665
H4 Mg2 2.120554 1_565
H4 Mg1 2.120554 1_655
H5 Ru1 1.711778 1_555
H5 Mg2 2.120554 1_555
H5 Mg1 2.120554 1_555
H6 Ru0 1.711778 1_565
H6 Mg3 2.120554 1_555
H6 Mg0 2.120554 1_565
H7 Ru0 1.711778 1_655
H7 Mg3 2.120554 1_655
H7 Mg0 2.120554 1_555
H8 Mg0 1.966419 1_555
H8 Mg2 1.966419 1_555
H9 Mg0 1.966419 1_565
H9 Mg2 1.966419 1_565
H10 Mg1 1.966419 1_655
H10 Mg3 1.966419 1_654
H11 Mg1 1.966419 1_555
H11 Mg3 1.966419 1_554
H12 Ru0 1.689403 1_555
H13 Ru1 1.689403 1_555
H14 Ru1 1.689403 1_555
H15 Ru0 1.689403 1_555
