# generated using pymatgen
data_MnGeO3
_symmetry_space_group_name_H-M   'P 1'
_cell_length_a   5.47413077
_cell_length_b   9.21015288
_cell_length_c   19.25117844
_cell_angle_alpha   90.00000000
_cell_angle_beta   90.00000000
_cell_angle_gamma   90.00000000
_symmetry_Int_Tables_number   1
_chemical_formula_structural   MnGeO3
_chemical_formula_sum   'Mn16 Ge16 O48'
_cell_volume   970.59785367
_cell_formula_units_Z   16
loop_
 _symmetry_equiv_pos_site_id
 _symmetry_equiv_pos_as_xyz
  1  'x, y, z'
loop_
 _atom_site_type_symbol
 _atom_site_label
 _atom_site_symmetry_multiplicity
 _atom_site_fract_x
 _atom_site_fract_y
 _atom_site_fract_z
 _atom_site_occupancy
  Mn  Mn0  1  0.85137255  0.01710505  0.37747947  1
  Mn  Mn1  1  0.85960929  0.15372477  0.12353707  1
  Mn  Mn2  1  0.64038971  0.65372477  0.87646293  1
  Mn  Mn3  1  0.35961029  0.34627523  0.12353707  1
  Mn  Mn4  1  0.14038971  0.34627523  0.62353707  1
  Mn  Mn5  1  0.35137255  0.48289495  0.37747947  1
  Mn  Mn6  1  0.85960929  0.65372477  0.37646293  1
  Mn  Mn7  1  0.64862745  0.51710505  0.62252053  1
  Mn  Mn8  1  0.14862745  0.98289495  0.62252053  1
  Mn  Mn9  1  0.64038971  0.15372477  0.62353707  1
  Mn  Mn10  1  0.14862745  0.48289495  0.87747947  1
  Mn  Mn11  1  0.14038971  0.84627523  0.87646293  1
  Mn  Mn12  1  0.85137255  0.51710505  0.12252053  1
  Mn  Mn13  1  0.64862745  0.01710505  0.87747947  1
  Mn  Mn14  1  0.35961029  0.84627523  0.37646293  1
  Mn  Mn15  1  0.35137255  0.98289495  0.12252053  1
  Ge  Ge0  1  0.30105013  0.16256050  0.47268805  1
  Ge  Ge1  1  0.30105013  0.66256050  0.02731195  1
  Ge  Ge2  1  0.80105013  0.33743950  0.47268805  1
  Ge  Ge3  1  0.46324067  0.84330376  0.72933196  1
  Ge  Ge4  1  0.69894987  0.33743950  0.97268805  1
  Ge  Ge5  1  0.53675933  0.15669624  0.27066804  1
  Ge  Ge6  1  0.46324067  0.34330376  0.77066804  1
  Ge  Ge7  1  0.96324067  0.65669624  0.72933196  1
  Ge  Ge8  1  0.69894987  0.83743950  0.52731195  1
  Ge  Ge9  1  0.03675933  0.34330376  0.27066804  1
  Ge  Ge10  1  0.80105013  0.83743950  0.02731195  1
  Ge  Ge11  1  0.96324067  0.15669624  0.77066804  1
  Ge  Ge12  1  0.03675933  0.84330376  0.22933196  1
  Ge  Ge13  1  0.19894987  0.16256050  0.97268805  1
  Ge  Ge14  1  0.53675933  0.65669624  0.22933196  1
  Ge  Ge15  1  0.19894987  0.66256050  0.52731195  1
  O  O0  1  0.69476601  0.33981785  0.06353648  1
  O  O1  1  0.17726039  0.01455028  0.43082851  1
  O  O2  1  0.61459043  0.68518887  0.05495268  1
  O  O3  1  0.69476601  0.83981785  0.43646352  1
  O  O4  1  0.45419543  0.51126611  0.81057554  1
  O  O5  1  0.95419543  0.98873389  0.81057554  1
  O  O6  1  0.88540957  0.18518887  0.94504732  1
  O  O7  1  0.04580457  0.01126611  0.18942446  1
  O  O8  1  0.54580457  0.48873389  0.18942446  1
  O  O9  1  0.19476601  0.66018215  0.43646352  1
  O  O10  1  0.47532614  0.84001502  0.81971484  1
  O  O11  1  0.97532614  0.65998498  0.81971484  1
  O  O12  1  0.82073573  0.72124203  0.19358944  1
  O  O13  1  0.45419543  0.01126611  0.68942446  1
  O  O14  1  0.02467386  0.34001502  0.18028516  1
  O  O15  1  0.04580457  0.51126611  0.31057554  1
  O  O16  1  0.38540957  0.81481113  0.55495268  1
  O  O17  1  0.54580457  0.98873389  0.31057554  1
  O  O18  1  0.67726039  0.48544972  0.43082851  1
  O  O19  1  0.17726039  0.51455028  0.06917149  1
  O  O20  1  0.67926427  0.22124203  0.80641056  1
  O  O21  1  0.30523399  0.16018215  0.56353648  1
  O  O22  1  0.11459043  0.31481113  0.44504732  1
  O  O23  1  0.32273961  0.51455028  0.56917149  1
  O  O24  1  0.67726039  0.98544972  0.06917149  1
  O  O25  1  0.47532614  0.34001502  0.68028516  1
  O  O26  1  0.17926427  0.77875797  0.69358944  1
  O  O27  1  0.02467386  0.84001502  0.31971484  1
  O  O28  1  0.67926427  0.72124203  0.69358944  1
  O  O29  1  0.19476601  0.16018215  0.06353648  1
  O  O30  1  0.82273961  0.98544972  0.56917149  1
  O  O31  1  0.32073573  0.27875797  0.30641056  1
  O  O32  1  0.80523399  0.83981785  0.93646352  1
  O  O33  1  0.38540957  0.31481113  0.94504732  1
  O  O34  1  0.61459043  0.18518887  0.44504732  1
  O  O35  1  0.97532614  0.15998498  0.68028516  1
  O  O36  1  0.82273961  0.48544972  0.93082851  1
  O  O37  1  0.32273961  0.01455028  0.93082851  1
  O  O38  1  0.32073573  0.77875797  0.19358944  1
  O  O39  1  0.80523399  0.33981785  0.56353648  1
  O  O40  1  0.30523399  0.66018215  0.93646352  1
  O  O41  1  0.82073573  0.22124203  0.30641056  1
  O  O42  1  0.11459043  0.81481113  0.05495268  1
  O  O43  1  0.95419543  0.48873389  0.68942446  1
  O  O44  1  0.52467386  0.15998498  0.18028516  1
  O  O45  1  0.88540957  0.68518887  0.55495268  1
  O  O46  1  0.17926427  0.27875797  0.80641056  1
  O  O47  1  0.52467386  0.65998498  0.31971484  1
loop_
_geom_bond_atom_site_label_1
_geom_bond_atom_site_label_2
_geom_bond_distance
_geom_bond_site_symmetry_2
Mn0 O1 2.058600 1_655
Mn0 O17 2.127242 1_545
Mn0 O3 2.165756 1_545
Mn0 O27 2.190173 1_645
Mn0 O41 2.331285 1_555
Mn0 O34 2.401790 1_555
Mn1 O7 2.090279 1_655
Mn1 O24 2.119854 1_545
Mn1 O44 2.135055 1_555
Mn1 O29 2.168835 1_655
Mn1 O14 2.225711 1_655
Mn1 O0 2.255239 1_555
Mn2 O4 2.090276 1_555
Mn2 O36 2.119857 1_555
Mn2 O11 2.135060 1_555
Mn2 O40 2.168830 1_555
Mn2 O10 2.225709 1_555
Mn2 O32 2.255241 1_555
Mn3 O8 2.090276 1_555
Mn3 O19 2.119857 1_555
Mn3 O14 2.135060 1_555
Mn3 O0 2.168830 1_555
Mn3 O44 2.225709 1_555
Mn3 O29 2.255241 1_555
Mn4 O43 2.090276 1_455
Mn4 O23 2.119857 1_555
Mn4 O25 2.135060 1_555
Mn4 O39 2.168830 1_455
Mn4 O35 2.225709 1_455
Mn4 O21 2.255241 1_555
Mn5 O18 2.058600 1_555
Mn5 O15 2.127242 1_555
Mn5 O9 2.165756 1_555
Mn5 O47 2.190173 1_555
Mn5 O31 2.331285 1_555
Mn5 O22 2.401790 1_555
Mn6 O15 2.090279 1_655
Mn6 O18 2.119854 1_555
Mn6 O47 2.135055 1_555
Mn6 O9 2.168835 1_655
Mn6 O27 2.225711 1_655
Mn6 O3 2.255239 1_555
Mn7 O23 2.058600 1_555
Mn7 O43 2.127242 1_555
Mn7 O39 2.165756 1_555
Mn7 O25 2.190173 1_555
Mn7 O28 2.331285 1_555
Mn7 O45 2.401790 1_555
Mn8 O30 2.058600 1_455
Mn8 O13 2.127242 1_565
Mn8 O21 2.165756 1_565
Mn8 O35 2.190173 1_465
Mn8 O26 2.331285 1_555
Mn8 O16 2.401790 1_555
Mn9 O13 2.090276 1_555
Mn9 O30 2.119857 1_545
Mn9 O35 2.135060 1_555
Mn9 O21 2.168830 1_555
Mn9 O25 2.225709 1_555
Mn9 O39 2.255241 1_555
Mn10 O36 2.058600 1_455
Mn10 O4 2.127242 1_555
Mn10 O40 2.165756 1_555
Mn10 O11 2.190173 1_455
Mn10 O46 2.331285 1_555
Mn10 O33 2.401790 1_555
Mn11 O5 2.090276 1_455
Mn11 O37 2.119857 1_565
Mn11 O10 2.135060 1_555
Mn11 O32 2.168830 1_455
Mn11 O11 2.225709 1_455
Mn11 O40 2.255241 1_555
Mn12 O19 2.058600 1_655
Mn12 O8 2.127242 1_555
Mn12 O0 2.165756 1_555
Mn12 O14 2.190173 1_655
Mn12 O12 2.331285 1_555
Mn12 O2 2.401790 1_555
Mn13 O37 2.058600 1_555
Mn13 O5 2.127242 1_545
Mn13 O32 2.165756 1_545
Mn13 O10 2.190173 1_545
Mn13 O20 2.331285 1_555
Mn13 O6 2.401790 1_555
Mn14 O17 2.090276 1_555
Mn14 O1 2.119857 1_565
Mn14 O27 2.135060 1_555
Mn14 O3 2.168830 1_555
Mn14 O47 2.225709 1_555
Mn14 O9 2.255241 1_555
Mn15 O24 2.058600 1_555
Mn15 O7 2.127242 1_565
Mn15 O29 2.165756 1_565
Mn15 O44 2.190173 1_565
Mn15 O38 2.331285 1_555
Mn15 O42 2.401790 1_555
Ge0 O1 1.722466 1_555
Ge0 O21 1.749226 1_555
Ge0 O34 1.808999 1_555
Ge0 O22 1.814193 1_555
Ge1 O19 1.722466 1_555
Ge1 O40 1.749226 1_554
Ge1 O2 1.808999 1_555
Ge1 O42 1.814193 1_555
Ge2 O18 1.722466 1_555
Ge2 O39 1.749226 1_555
Ge2 O22 1.808999 1_655
Ge2 O34 1.814193 1_555
Ge3 O13 1.727937 1_565
Ge3 O10 1.741498 1_555
Ge3 O28 1.770793 1_555
Ge3 O26 1.800947 1_555
Ge4 O36 1.722466 1_555
Ge4 O0 1.749226 1_556
Ge4 O33 1.808999 1_555
Ge4 O6 1.814193 1_555
Ge5 O17 1.727937 1_545
Ge5 O44 1.741498 1_555
Ge5 O31 1.770793 1_555
Ge5 O41 1.800947 1_555
Ge6 O4 1.727937 1_555
Ge6 O25 1.741498 1_555
Ge6 O20 1.770793 1_555
Ge6 O46 1.800947 1_555
Ge7 O43 1.727937 1_555
Ge7 O11 1.741498 1_555
Ge7 O26 1.770793 1_655
Ge7 O28 1.800947 1_555
Ge8 O30 1.722466 1_555
Ge8 O3 1.749226 1_555
Ge8 O16 1.808999 1_555
Ge8 O45 1.814193 1_555
Ge9 O15 1.727937 1_555
Ge9 O14 1.741498 1_555
Ge9 O41 1.770793 1_455
Ge9 O31 1.800947 1_555
Ge10 O24 1.722466 1_555
Ge10 O32 1.749226 1_554
Ge10 O42 1.808999 1_655
Ge10 O2 1.814193 1_555
Ge11 O5 1.727937 1_545
Ge11 O35 1.741498 1_555
Ge11 O46 1.770793 1_655
Ge11 O20 1.800947 1_555
Ge12 O7 1.727937 1_565
Ge12 O27 1.741498 1_555
Ge12 O12 1.770793 1_455
Ge12 O38 1.800947 1_555
Ge13 O37 1.722466 1_555
Ge13 O29 1.749226 1_556
Ge13 O6 1.808999 1_455
Ge13 O33 1.814193 1_555
Ge14 O8 1.727937 1_555
Ge14 O47 1.741498 1_555
Ge14 O38 1.770793 1_555
Ge14 O12 1.800947 1_555
Ge15 O23 1.722466 1_555
Ge15 O9 1.749226 1_555
Ge15 O45 1.808999 1_455
Ge15 O16 1.814193 1_555
