# generated using pymatgen
data_CaLaMnRuO6
_symmetry_space_group_name_H-M   'P 1'
_cell_length_a   5.55904683
_cell_length_b   5.71624800
_cell_length_c   7.92145748
_cell_angle_alpha   90.00000000
_cell_angle_beta   90.17522690
_cell_angle_gamma   90.00000000
_symmetry_Int_Tables_number   1
_chemical_formula_structural   CaLaMnRuO6
_chemical_formula_sum   'Ca2 La2 Mn2 Ru2 O12'
_cell_volume   251.71810834
_cell_formula_units_Z   2
loop_
 _symmetry_equiv_pos_site_id
 _symmetry_equiv_pos_as_xyz
  1  'x, y, z'
loop_
 _atom_site_type_symbol
 _atom_site_label
 _atom_site_symmetry_multiplicity
 _atom_site_fract_x
 _atom_site_fract_y
 _atom_site_fract_z
 _atom_site_occupancy
  Ca  Ca0  1  0.48463600  0.55566500  0.25035800  1
  Ca  Ca1  1  0.98463600  0.94433500  0.75035800  1
  La  La0  1  0.01144100  0.04683200  0.25073500  1
  La  La1  1  0.51144100  0.45316800  0.75073500  1
  Mn  Mn0  1  0.00037000  0.50161000  0.49948700  1
  Mn  Mn1  1  0.50037000  0.99839000  0.99948700  1
  Ru  Ru0  1  0.00016400  0.50075300  0.00080400  1
  Ru  Ru1  1  0.50016400  0.99924700  0.50080400  1
  O  O0  1  0.09383900  0.53343900  0.75961200  1
  O  O1  1  0.19626400  0.78532200  0.05285400  1
  O  O2  1  0.21656400  0.79861200  0.44982200  1
  O  O3  1  0.28887600  0.30593500  0.05088800  1
  O  O4  1  0.30956200  0.28682800  0.44588400  1
  O  O5  1  0.39828400  0.03047700  0.73955500  1
  O  O6  1  0.59383900  0.96656100  0.25961200  1
  O  O7  1  0.69626400  0.71467800  0.55285400  1
  O  O8  1  0.71656400  0.70138800  0.94982200  1
  O  O9  1  0.78887600  0.19406500  0.55088800  1
  O  O10  1  0.80956200  0.21317200  0.94588400  1
  O  O11  1  0.89828400  0.46952300  0.23955500  1
loop_
_geom_bond_atom_site_label_1
_geom_bond_atom_site_label_2
_geom_bond_distance
_geom_bond_site_symmetry_2
Ca0 O11 2.353432 1_555
Ca0 O3 2.389194 1_555
Ca0 O4 2.391010 1_555
Ca0 O6 2.427017 1_555
Ca0 O2 2.580761 1_555
Ca0 O1 2.593378 1_555
Ca0 O7 2.816880 1_555
Ca0 O8 2.835946 1_554
Ca1 O5 2.353432 1_665
Ca1 O9 2.389194 1_565
Ca1 O10 2.391010 1_565
Ca1 O0 2.427017 1_655
Ca1 O8 2.580761 1_555
Ca1 O7 2.593378 1_555
Ca1 O1 2.816880 1_656
Ca1 O2 2.835946 1_655
La0 O6 2.367637 1_445
La0 O1 2.399407 1_545
La0 O2 2.406162 1_545
La0 O11 2.498250 1_455
La0 O4 2.646245 1_555
La0 O3 2.663331 1_555
La0 O9 2.812529 1_455
La0 O10 2.824632 1_454
La1 O0 2.367637 1_555
La1 O7 2.399407 1_555
La1 O8 2.406162 1_555
La1 O5 2.498250 1_555
La1 O10 2.646245 1_555
La1 O9 2.663331 1_555
La1 O3 2.812529 1_556
La1 O4 2.824632 1_555
Mn0 O2 2.117636 1_555
Mn0 O7 2.127066 1_455
Mn0 O0 2.131310 1_555
Mn0 O11 2.142008 1_455
Mn0 O9 2.154431 1_455
Mn0 O4 2.155561 1_555
Mn1 O8 2.117636 1_555
Mn1 O1 2.127066 1_556
Mn1 O6 2.131310 1_556
Mn1 O5 2.142008 1_565
Mn1 O3 2.154431 1_566
Mn1 O10 2.155561 1_565
O0 Ru0 1.990611 1_556
O1 Ru0 2.000420 1_555
O2 Ru1 1.989983 1_555
O3 Ru0 1.992381 1_555
O4 Ru1 2.002868 1_545
O5 Ru1 1.983943 1_545
O6 Ru1 1.990611 1_555
O7 Ru1 2.000420 1_555
O8 Ru0 1.989983 1_656
O9 Ru1 1.992381 1_545
O10 Ru0 2.002868 1_656
O11 Ru0 1.983943 1_655
