# generated using pymatgen
data_Ba2(InP)5
_symmetry_space_group_name_H-M   'P 1'
_cell_length_a   4.23136100
_cell_length_b   17.49426300
_cell_length_c   17.71833300
_cell_angle_alpha   90.00000000
_cell_angle_beta   90.00000000
_cell_angle_gamma   90.00000000
_symmetry_Int_Tables_number   1
_chemical_formula_structural   Ba2(InP)5
_chemical_formula_sum   'Ba8 In20 P20'
_cell_volume   1311.59148855
_cell_formula_units_Z   4
loop_
 _symmetry_equiv_pos_site_id
 _symmetry_equiv_pos_as_xyz
  1  'x, y, z'
loop_
 _atom_site_type_symbol
 _atom_site_label
 _atom_site_symmetry_multiplicity
 _atom_site_fract_x
 _atom_site_fract_y
 _atom_site_fract_z
 _atom_site_occupancy
  Ba  Ba0  1  0.75000000  0.98034300  0.62095300  1
  Ba  Ba1  1  0.75000000  0.95758600  0.12961200  1
  Ba  Ba2  1  0.75000000  0.45758600  0.37038800  1
  Ba  Ba3  1  0.25000000  0.51965700  0.12095300  1
  Ba  Ba4  1  0.25000000  0.04241400  0.87038800  1
  Ba  Ba5  1  0.75000000  0.48034300  0.87904700  1
  Ba  Ba6  1  0.25000000  0.01965700  0.37904700  1
  Ba  Ba7  1  0.25000000  0.54241400  0.62961200  1
  In  In0  1  0.25000000  0.15665000  0.18979900  1
  In  In1  1  0.75000000  0.32862200  0.05899500  1
  In  In2  1  0.25000000  0.67137800  0.94100500  1
  In  In3  1  0.75000000  0.21054600  0.37391000  1
  In  In4  1  0.75000000  0.66931400  0.47255500  1
  In  In5  1  0.25000000  0.17137800  0.55899500  1
  In  In6  1  0.25000000  0.83068600  0.97255500  1
  In  In7  1  0.75000000  0.34335000  0.68979900  1
  In  In8  1  0.25000000  0.28945400  0.87391000  1
  In  In9  1  0.75000000  0.16931400  0.02744500  1
  In  In10  1  0.75000000  0.68616000  0.77645600  1
  In  In11  1  0.75000000  0.82862200  0.44100500  1
  In  In12  1  0.25000000  0.31384000  0.22354400  1
  In  In13  1  0.25000000  0.78945400  0.62609000  1
  In  In14  1  0.75000000  0.71054600  0.12609000  1
  In  In15  1  0.75000000  0.18616000  0.72354400  1
  In  In16  1  0.25000000  0.81384000  0.27645600  1
  In  In17  1  0.25000000  0.65665000  0.31020100  1
  In  In18  1  0.25000000  0.33068600  0.52744500  1
  In  In19  1  0.75000000  0.84335000  0.81020100  1
  P  P0  1  0.25000000  0.30257100  0.37520300  1
  P  P1  1  0.25000000  0.89207800  0.73507700  1
  P  P2  1  0.25000000  0.58308200  0.44127500  1
  P  P3  1  0.75000000  0.60792200  0.23507700  1
  P  P4  1  0.75000000  0.11518400  0.48838600  1
  P  P5  1  0.75000000  0.89623900  0.30859600  1
  P  P6  1  0.75000000  0.39623900  0.19140400  1
  P  P7  1  0.75000000  0.41691800  0.55872500  1
  P  P8  1  0.25000000  0.08308200  0.05872500  1
  P  P9  1  0.25000000  0.39207800  0.76492300  1
  P  P10  1  0.75000000  0.10792200  0.26492300  1
  P  P11  1  0.25000000  0.88481600  0.51161400  1
  P  P12  1  0.75000000  0.91691800  0.94127500  1
  P  P13  1  0.75000000  0.69742900  0.62479700  1
  P  P14  1  0.25000000  0.38481600  0.98838600  1
  P  P15  1  0.25000000  0.60376100  0.80859600  1
  P  P16  1  0.75000000  0.61518400  0.01161400  1
  P  P17  1  0.75000000  0.19742900  0.87520300  1
  P  P18  1  0.25000000  0.80257100  0.12479700  1
  P  P19  1  0.25000000  0.10376100  0.69140400  1
loop_
_geom_bond_atom_site_label_1
_geom_bond_atom_site_label_2
_geom_bond_distance
_geom_bond_site_symmetry_2
Ba0 P19 3.270479 1_565
Ba0 P19 3.270479 1_665
Ba0 P1 3.308970 1_655
Ba0 P1 3.308970 1_555
Ba0 P11 3.319952 1_655
Ba0 P11 3.319952 1_555
Ba0 P4 3.328932 1_565
Ba1 P8 3.297527 1_565
Ba1 P8 3.297527 1_665
Ba1 P5 3.347975 1_555
Ba1 P12 3.412017 1_554
Ba1 P18 3.440587 1_555
Ba1 P18 3.440587 1_655
Ba1 P10 3.558782 1_565
Ba2 P2 3.297527 1_655
Ba2 P2 3.297527 1_555
Ba2 P6 3.347975 1_555
Ba2 P7 3.412017 1_555
Ba2 P0 3.440587 1_655
Ba2 P0 3.440587 1_555
Ba2 P3 3.558782 1_555
Ba3 P6 3.270479 1_555
Ba3 P6 3.270479 1_455
Ba3 P3 3.308970 1_455
Ba3 P3 3.308970 1_555
Ba3 P16 3.319952 1_555
Ba3 P16 3.319952 1_455
Ba3 P14 3.328932 1_554
Ba4 P12 3.297527 1_545
Ba4 P12 3.297527 1_445
Ba4 P19 3.347975 1_555
Ba4 P8 3.412017 1_556
Ba4 P17 3.440587 1_555
Ba4 P17 3.440587 1_455
Ba4 P1 3.558782 1_545
Ba5 P15 3.270479 1_655
Ba5 P15 3.270479 1_555
Ba5 P9 3.308970 1_555
Ba5 P9 3.308970 1_655
Ba5 P14 3.319952 1_655
Ba5 P14 3.319952 1_555
Ba5 P16 3.328932 1_556
Ba6 P5 3.270479 1_545
Ba6 P5 3.270479 1_445
Ba6 P10 3.308970 1_555
Ba6 P10 3.308970 1_455
Ba6 P4 3.319952 1_555
Ba6 P4 3.319952 1_455
Ba6 P11 3.328932 1_545
Ba7 P7 3.297527 1_455
Ba7 P7 3.297527 1_555
Ba7 P15 3.347975 1_555
Ba7 P2 3.412017 1_555
Ba7 P13 3.440587 1_555
Ba7 P13 3.440587 1_455
Ba7 P9 3.558782 1_555
In0 P10 2.640936 1_455
In0 P10 2.640936 1_555
In0 P8 2.655187 1_555
In1 P6 2.627414 1_555
In1 P14 2.647210 1_554
In1 P14 2.647210 1_654
In2 P15 2.627414 1_555
In2 P16 2.647210 1_556
In2 P16 2.647210 1_456
In3 P4 2.626268 1_555
In3 P10 2.636710 1_555
In3 P0 2.658653 1_555
In3 P0 2.658653 1_655
In4 P2 2.656886 1_655
In4 P2 2.656886 1_555
In4 P13 2.741949 1_555
In5 P19 2.627414 1_555
In5 P4 2.647210 1_555
In5 P4 2.647210 1_455
In6 P12 2.656886 1_455
In6 P12 2.656886 1_555
In6 P18 2.741949 1_556
In7 P9 2.640936 1_555
In7 P9 2.640936 1_655
In7 P7 2.655187 1_555
In8 P14 2.626268 1_555
In8 P9 2.636710 1_555
In8 P17 2.658653 1_555
In8 P17 2.658653 1_455
In9 P8 2.656886 1_555
In9 P8 2.656886 1_655
In9 P17 2.741949 1_554
In10 P15 2.622660 1_555
In10 P15 2.622660 1_655
In10 P13 2.694367 1_555
In11 P5 2.627414 1_555
In11 P11 2.647210 1_555
In11 P11 2.647210 1_655
In12 P6 2.622660 1_555
In12 P6 2.622660 1_455
In12 P0 2.694367 1_555
In13 P11 2.626268 1_555
In13 P1 2.636710 1_555
In13 P13 2.658653 1_555
In13 P13 2.658653 1_455
In14 P16 2.626268 1_555
In14 P3 2.636710 1_555
In14 P18 2.658653 1_555
In14 P18 2.658653 1_655
In15 P19 2.622660 1_555
In15 P19 2.622660 1_655
In15 P17 2.694367 1_555
In16 P5 2.622660 1_555
In16 P5 2.622660 1_455
In16 P18 2.694367 1_555
In17 P3 2.640936 1_455
In17 P3 2.640936 1_555
In17 P2 2.655187 1_555
In18 P7 2.656886 1_455
In18 P7 2.656886 1_555
In18 P0 2.741949 1_555
In19 P1 2.640936 1_655
In19 P1 2.640936 1_555
In19 P12 2.655187 1_555
