# generated using pymatgen
data_Rb3Tm2Cu4Br13
_symmetry_space_group_name_H-M   'P 1'
_cell_length_a   11.00082105
_cell_length_b   11.00082105
_cell_length_c   11.00082105
_cell_angle_alpha   90.00000000
_cell_angle_beta   90.00000000
_cell_angle_gamma   90.00000000
_symmetry_Int_Tables_number   1
_chemical_formula_structural   Rb3Tm2Cu4Br13
_chemical_formula_sum   'Rb6 Tm4 Cu8 Br26'
_cell_volume   1331.29806340
_cell_formula_units_Z   2
loop_
 _symmetry_equiv_pos_site_id
 _symmetry_equiv_pos_as_xyz
  1  'x, y, z'
loop_
 _atom_site_type_symbol
 _atom_site_label
 _atom_site_symmetry_multiplicity
 _atom_site_fract_x
 _atom_site_fract_y
 _atom_site_fract_z
 _atom_site_occupancy
  Rb  Rb0  1  0.00000000  0.50000000  -0.00000000  1
  Rb  Rb1  1  0.00000000  0.00000000  0.50000000  1
  Rb  Rb2  1  0.00000000  0.50000000  0.50000000  1
  Rb  Rb3  1  0.50000000  0.00000000  0.50000000  1
  Rb  Rb4  1  0.50000000  0.50000000  -0.00000000  1
  Rb  Rb5  1  0.50000000  0.00000000  -0.00000000  1
  Tm  Tm0  1  0.25000000  0.75000000  0.25000000  1
  Tm  Tm1  1  0.75000000  0.25000000  0.25000000  1
  Tm  Tm2  1  0.25000000  0.25000000  0.75000000  1
  Tm  Tm3  1  0.75000000  0.75000000  0.75000000  1
  Cu  Cu0  1  0.12763887  0.12763887  0.12763887  1
  Cu  Cu1  1  0.37236113  0.62763887  0.62763887  1
  Cu  Cu2  1  0.87236113  0.12763887  0.87236113  1
  Cu  Cu3  1  0.62763887  0.37236113  0.62763887  1
  Cu  Cu4  1  0.12763887  0.87236113  0.87236113  1
  Cu  Cu5  1  0.37236113  0.37236113  0.37236113  1
  Cu  Cu6  1  0.62763887  0.62763887  0.37236113  1
  Cu  Cu7  1  0.87236113  0.87236113  0.12763887  1
  Br  Br0  1  0.22553240  0.73443710  0.49883019  1
  Br  Br1  1  0.99883019  0.27446760  0.23443710  1
  Br  Br2  1  0.50116981  0.22553240  0.26556290  1
  Br  Br3  1  0.23443710  0.99883019  0.27446760  1
  Br  Br4  1  0.23443710  0.00116981  0.72553240  1
  Br  Br5  1  0.76556290  0.99883019  0.72553240  1
  Br  Br6  1  0.00000000  0.00000000  -0.00000000  1
  Br  Br7  1  0.00116981  0.27446760  0.76556290  1
  Br  Br8  1  0.49883019  0.22553240  0.73443710  1
  Br  Br9  1  0.99883019  0.72553240  0.76556290  1
  Br  Br10  1  0.26556290  0.50116981  0.22553240  1
  Br  Br11  1  0.50116981  0.77446760  0.73443710  1
  Br  Br12  1  0.49883019  0.77446760  0.26556290  1
  Br  Br13  1  0.76556290  0.00116981  0.27446760  1
  Br  Br14  1  0.77446760  0.73443710  0.50116981  1
  Br  Br15  1  0.00116981  0.72553240  0.23443710  1
  Br  Br16  1  0.72553240  0.76556290  0.99883019  1
  Br  Br17  1  0.26556290  0.49883019  0.77446760  1
  Br  Br18  1  0.27446760  0.76556290  0.00116981  1
  Br  Br19  1  0.22553240  0.26556290  0.50116981  1
  Br  Br20  1  0.50000000  0.50000000  0.50000000  1
  Br  Br21  1  0.73443710  0.50116981  0.77446760  1
  Br  Br22  1  0.73443710  0.49883019  0.22553240  1
  Br  Br23  1  0.77446760  0.26556290  0.49883019  1
  Br  Br24  1  0.72553240  0.23443710  0.00116981  1
  Br  Br25  1  0.27446760  0.23443710  0.99883019  1
loop_
_geom_bond_atom_site_label_1
_geom_bond_atom_site_label_2
_geom_bond_distance
_geom_bond_site_symmetry_2
Br0 Cu1 2.448918 1_555
Br0 Tm0 2.755861 1_555
Br0 Rb2 3.578684 1_555
Br0 Rb1 3.832802 1_565
Br1 Cu0 2.448918 1_655
Br1 Tm1 2.755861 1_555
Br1 Rb0 3.578684 1_655
Br1 Rb2 3.832802 1_655
Br2 Cu5 2.448918 1_555
Br2 Tm1 2.755861 1_555
Br2 Rb3 3.578684 1_555
Br2 Rb5 3.832802 1_555
Br3 Cu0 2.448918 1_565
Br3 Tm0 2.755861 1_555
Br3 Rb1 3.578684 1_565
Br3 Rb3 3.832802 1_565
Br4 Cu4 2.448918 1_545
Br4 Tm2 2.755861 1_555
Br4 Rb1 3.578684 1_555
Br4 Rb3 3.832802 1_555
Br5 Cu2 2.448918 1_565
Br5 Tm3 2.755861 1_555
Br5 Rb1 3.578684 1_665
Br5 Rb3 3.832802 1_565
Br6 Cu4 2.432029 1_544
Br6 Cu2 2.432029 1_454
Br6 Cu7 2.432029 1_445
Br6 Cu0 2.432029 1_555
Br7 Cu2 2.448918 1_455
Br7 Tm2 2.755861 1_555
Br7 Rb0 3.578684 1_556
Br7 Rb2 3.832802 1_555
Br8 Cu3 2.448918 1_555
Br8 Tm2 2.755861 1_555
Br8 Rb3 3.578684 1_555
Br8 Rb5 3.832802 1_556
Br9 Cu4 2.448918 1_655
Br9 Tm3 2.755861 1_555
Br9 Rb0 3.578684 1_656
Br9 Rb2 3.832802 1_655
Br10 Cu5 2.448918 1_555
Br10 Tm0 2.755861 1_555
Br10 Rb4 3.578684 1_555
Br10 Rb0 3.832802 1_555
Br11 Cu1 2.448918 1_555
Br11 Tm3 2.755861 1_555
Br11 Rb3 3.578684 1_565
Br11 Rb5 3.832802 1_566
Br12 Cu6 2.448918 1_555
Br12 Tm0 2.755861 1_555
Br12 Rb3 3.578684 1_565
Br12 Rb5 3.832802 1_565
Br13 Cu7 2.448918 1_545
Br13 Tm1 2.755861 1_555
Br13 Rb1 3.578684 1_655
Br13 Rb3 3.832802 1_555
Br14 Cu6 2.448918 1_555
Br14 Tm3 2.755861 1_555
Br14 Rb2 3.578684 1_655
Br14 Rb1 3.832802 1_665
Br15 Cu7 2.448918 1_455
Br15 Tm0 2.755861 1_555
Br15 Rb0 3.578684 1_555
Br15 Rb2 3.832802 1_555
Br16 Cu7 2.448918 1_556
Br16 Tm3 2.755861 1_555
Br16 Rb5 3.578684 1_566
Br16 Rb4 3.832802 1_556
Br17 Cu1 2.448918 1_555
Br17 Tm2 2.755861 1_555
Br17 Rb4 3.578684 1_556
Br17 Rb0 3.832802 1_556
Br18 Cu4 2.448918 1_554
Br18 Tm0 2.755861 1_555
Br18 Rb5 3.578684 1_565
Br18 Rb4 3.832802 1_555
Br19 Cu5 2.448918 1_555
Br19 Tm2 2.755861 1_555
Br19 Rb2 3.578684 1_555
Br19 Rb1 3.832802 1_555
Br20 Cu1 2.432029 1_555
Br20 Cu3 2.432029 1_555
Br20 Cu6 2.432029 1_555
Br20 Cu5 2.432029 1_555
Br21 Cu3 2.448918 1_555
Br21 Tm3 2.755861 1_555
Br21 Rb4 3.578684 1_556
Br21 Rb0 3.832802 1_656
Br22 Cu6 2.448918 1_555
Br22 Tm1 2.755861 1_555
Br22 Rb4 3.578684 1_555
Br22 Rb0 3.832802 1_655
Br23 Cu3 2.448918 1_555
Br23 Tm1 2.755861 1_555
Br23 Rb2 3.578684 1_655
Br23 Rb1 3.832802 1_655
Br24 Cu2 2.448918 1_554
Br24 Tm1 2.755861 1_555
Br24 Rb5 3.578684 1_555
Br24 Rb4 3.832802 1_555
Br25 Cu0 2.448918 1_556
Br25 Tm2 2.755861 1_555
Br25 Rb5 3.578684 1_556
Br25 Rb4 3.832802 1_556
