# generated using pymatgen
data_Pr3(Ge3Pt2)2
_symmetry_space_group_name_H-M   'P 1'
_cell_length_a   4.44494535
_cell_length_b   8.86678271
_cell_length_c   26.30328376
_cell_angle_alpha   90.00000000
_cell_angle_beta   90.00000000
_cell_angle_gamma   90.00000000
_symmetry_Int_Tables_number   1
_chemical_formula_structural   Pr3(Ge3Pt2)2
_chemical_formula_sum   'Pr12 Ge24 Pt16'
_cell_volume   1036.67460910
_cell_formula_units_Z   4
loop_
 _symmetry_equiv_pos_site_id
 _symmetry_equiv_pos_as_xyz
  1  'x, y, z'
loop_
 _atom_site_type_symbol
 _atom_site_label
 _atom_site_symmetry_multiplicity
 _atom_site_fract_x
 _atom_site_fract_y
 _atom_site_fract_z
 _atom_site_occupancy
  Pr  Pr0  1  0.25000000  0.87472157  0.72033027  1
  Pr  Pr1  1  0.75000000  0.88451078  0.40787959  1
  Pr  Pr2  1  0.25000000  0.38451078  0.09212041  1
  Pr  Pr3  1  0.75000000  0.61548922  0.90787959  1
  Pr  Pr4  1  0.75000000  0.36672063  0.40745220  1
  Pr  Pr5  1  0.75000000  0.12527843  0.27966973  1
  Pr  Pr6  1  0.25000000  0.11548922  0.59212041  1
  Pr  Pr7  1  0.25000000  0.63327937  0.59254780  1
  Pr  Pr8  1  0.25000000  0.86672063  0.09254780  1
  Pr  Pr9  1  0.75000000  0.37472157  0.77966973  1
  Pr  Pr10  1  0.25000000  0.62527843  0.22033027  1
  Pr  Pr11  1  0.75000000  0.13327937  0.90745220  1
  Ge  Ge0  1  0.75000000  0.87733685  0.99849428  1
  Ge  Ge1  1  0.25000000  0.62610993  0.35937182  1
  Ge  Ge2  1  0.25000000  0.12525013  0.36222118  1
  Ge  Ge3  1  0.25000000  0.27352124  0.21498832  1
  Ge  Ge4  1  0.75000000  0.87474987  0.63777882  1
  Ge  Ge5  1  0.75000000  0.77352124  0.28501168  1
  Ge  Ge6  1  0.75000000  0.47646043  0.28472348  1
  Ge  Ge7  1  0.25000000  0.37733685  0.50150572  1
  Ge  Ge8  1  0.25000000  0.62738627  0.99798496  1
  Ge  Ge9  1  0.25000000  0.97646043  0.21527652  1
  Ge  Ge10  1  0.75000000  0.02353957  0.78472348  1
  Ge  Ge11  1  0.25000000  0.12266315  0.00150572  1
  Ge  Ge12  1  0.75000000  0.62525013  0.13777882  1
  Ge  Ge13  1  0.25000000  0.87389007  0.85937182  1
  Ge  Ge14  1  0.25000000  0.87261373  0.49798496  1
  Ge  Ge15  1  0.75000000  0.12738627  0.50201504  1
  Ge  Ge16  1  0.75000000  0.12610993  0.14062818  1
  Ge  Ge17  1  0.75000000  0.62266315  0.49849428  1
  Ge  Ge18  1  0.75000000  0.72647876  0.78501168  1
  Ge  Ge19  1  0.25000000  0.37474987  0.86222118  1
  Ge  Ge20  1  0.25000000  0.22647876  0.71498832  1
  Ge  Ge21  1  0.75000000  0.37261373  0.00201504  1
  Ge  Ge22  1  0.75000000  0.37389007  0.64062818  1
  Ge  Ge23  1  0.25000000  0.52353957  0.71527652  1
  Pt  Pt0  1  0.75000000  0.87774772  0.18719516  1
  Pt  Pt1  1  0.25000000  0.12822376  0.45705928  1
  Pt  Pt2  1  0.75000000  0.87177624  0.54294072  1
  Pt  Pt3  1  0.25000000  0.12225228  0.81280484  1
  Pt  Pt4  1  0.75000000  0.37803841  0.54746417  1
  Pt  Pt5  1  0.75000000  0.37336168  0.18737357  1
  Pt  Pt6  1  0.25000000  0.37774772  0.31280484  1
  Pt  Pt7  1  0.75000000  0.12663832  0.68737357  1
  Pt  Pt8  1  0.25000000  0.87336168  0.31262643  1
  Pt  Pt9  1  0.75000000  0.62225228  0.68719516  1
  Pt  Pt10  1  0.75000000  0.12196159  0.04746417  1
  Pt  Pt11  1  0.25000000  0.62196159  0.45253583  1
  Pt  Pt12  1  0.25000000  0.62663832  0.81262643  1
  Pt  Pt13  1  0.25000000  0.37177624  0.95705928  1
  Pt  Pt14  1  0.75000000  0.62822376  0.04294072  1
  Pt  Pt15  1  0.25000000  0.87803841  0.95253583  1
loop_
_geom_bond_atom_site_label_1
_geom_bond_atom_site_label_2
_geom_bond_distance
_geom_bond_site_symmetry_2
Pr0 Pt7 3.268061 1_465
Pr0 Pt7 3.268061 1_565
Pr0 Pt9 3.272658 1_555
Pr0 Pt9 3.272658 1_455
Pr0 Pt12 3.276030 1_555
Pr0 Pt3 3.276225 1_565
Pr1 Pt8 3.350603 1_555
Pr1 Pt8 3.350603 1_655
Pr1 Pt1 3.358937 1_665
Pr1 Pt1 3.358937 1_565
Pr1 Pt11 3.426151 1_655
Pr1 Pt11 3.426151 1_555
Pr2 Pt5 3.350603 1_455
Pr2 Pt5 3.350603 1_555
Pr2 Pt14 3.358937 1_555
Pr2 Pt14 3.358937 1_455
Pr2 Pt10 3.426151 1_555
Pr2 Pt10 3.426151 1_455
Pr3 Pt12 3.350603 1_655
Pr3 Pt12 3.350603 1_555
Pr3 Pt13 3.358937 1_655
Pr3 Pt13 3.358937 1_555
Pr3 Pt15 3.426151 1_655
Pr3 Pt15 3.426151 1_555
Pr4 Pt1 3.333755 1_655
Pr4 Pt1 3.333755 1_555
Pr4 Pt6 3.338673 1_555
Pr4 Pt6 3.338673 1_655
Pr4 Pt11 3.386376 1_655
Pr4 Pt11 3.386376 1_555
Pr5 Pt8 3.268061 1_545
Pr5 Pt8 3.268061 1_645
Pr5 Pt6 3.272658 1_555
Pr5 Pt6 3.272658 1_655
Pr5 Pt5 3.276030 1_555
Pr5 Pt0 3.276225 1_545
Pr6 Pt7 3.350603 1_455
Pr6 Pt7 3.350603 1_555
Pr6 Pt2 3.358937 1_545
Pr6 Pt2 3.358937 1_445
Pr6 Pt4 3.426151 1_555
Pr6 Pt4 3.426151 1_455
Pr7 Pt2 3.333755 1_455
Pr7 Pt2 3.333755 1_555
Pr7 Pt9 3.338673 1_455
Pr7 Pt9 3.338673 1_555
Pr7 Pt4 3.386376 1_455
Pr7 Pt4 3.386376 1_555
Pr8 Pt14 3.333755 1_455
Pr8 Pt14 3.333755 1_555
Pr8 Pt0 3.338673 1_455
Pr8 Pt0 3.338673 1_555
Pr8 Pt10 3.386376 1_465
Pr8 Pt10 3.386376 1_565
Pr9 Pt12 3.268061 1_555
Pr9 Pt12 3.268061 1_655
Pr9 Pt3 3.272658 1_555
Pr9 Pt3 3.272658 1_655
Pr9 Pt7 3.276030 1_555
Pr9 Pt9 3.276225 1_555
Pr10 Pt5 3.268061 1_455
Pr10 Pt5 3.268061 1_555
Pr10 Pt0 3.272658 1_455
Pr10 Pt0 3.272658 1_555
Pr10 Pt8 3.276030 1_555
Pr10 Pt6 3.276225 1_555
Pr11 Pt13 3.333755 1_555
Pr11 Pt13 3.333755 1_655
Pr11 Pt3 3.338673 1_655
Pr11 Pt3 3.338673 1_555
Pr11 Pt15 3.386376 1_645
Pr11 Pt15 3.386376 1_545
Ge0 Pt14 2.499140 1_556
Ge0 Pt10 2.522664 1_566
Ge0 Pt15 2.529973 1_655
Ge0 Pt15 2.529973 1_555
Ge0 Pr11 3.299202 1_565
Ge0 Pr8 3.326937 1_556
Ge0 Pr8 3.326937 1_656
Ge0 Pr3 3.327372 1_555
Ge1 Pt11 2.450795 1_555
Ge1 Pt8 2.513585 1_555
Ge1 Pt6 2.519893 1_555
Ge1 Pr1 3.437567 1_555
Ge1 Pr1 3.437567 1_455
Ge1 Pr4 3.439265 1_455
Ge1 Pr4 3.439265 1_555
Ge2 Pt1 2.494693 1_555
Ge2 Pt8 2.586501 1_545
Ge2 Pt6 2.588807 1_555
Ge2 Pr5 3.107129 1_455
Ge2 Pr5 3.107129 1_555
Ge2 Pr1 3.307288 1_445
Ge2 Pr1 3.307288 1_545
Ge2 Pr4 3.307415 1_455
Ge2 Pr4 3.307415 1_555
Ge3 Pt5 2.500135 1_455
Ge3 Pt5 2.500135 1_555
Ge3 Ge9 2.633985 1_545
Ge3 Pt6 2.733835 1_555
Ge3 Pr5 3.092194 1_455
Ge3 Pr5 3.092194 1_555
Ge3 Pr10 3.122118 1_555
Ge3 Pr2 3.378345 1_555
Ge4 Pt2 2.494693 1_555
Ge4 Pt7 2.586501 1_565
Ge4 Pt9 2.588807 1_555
Ge4 Pr0 3.107129 1_555
Ge4 Pr0 3.107129 1_655
Ge4 Pr6 3.307288 1_565
Ge4 Pr6 3.307288 1_665
Ge4 Pr7 3.307415 1_655
Ge4 Pr7 3.307415 1_555
Ge5 Pt8 2.500135 1_655
Ge5 Pt8 2.500135 1_555
Ge5 Ge6 2.633985 1_555
Ge5 Pt0 2.733835 1_555
Ge5 Pr10 3.092194 1_655
Ge5 Pr10 3.092194 1_555
Ge5 Pr5 3.122118 1_565
Ge5 Pr1 3.378345 1_555
Ge6 Pt6 2.500210 1_555
Ge6 Pt6 2.500210 1_655
Ge6 Pt5 2.718909 1_555
Ge6 Pr10 3.090204 1_655
Ge6 Pr10 3.090204 1_555
Ge6 Pr5 3.116691 1_555
Ge6 Pr4 3.371628 1_555
Ge7 Pt1 2.499140 1_555
Ge7 Pt11 2.522664 1_555
Ge7 Pt4 2.529973 1_555
Ge7 Pt4 2.529973 1_455
Ge7 Pr7 3.299202 1_555
Ge7 Pr4 3.326937 1_555
Ge7 Pr4 3.326937 1_455
Ge7 Pr6 3.327372 1_555
Ge8 Pt13 2.509094 1_555
Ge8 Pt14 2.517481 1_456
Ge8 Pt14 2.517481 1_556
Ge8 Pt15 2.523596 1_555
Ge8 Pr3 3.250805 1_455
Ge8 Pr3 3.250805 1_555
Ge8 Pr8 3.269579 1_556
Ge8 Pr2 3.281554 1_556
Ge9 Pt0 2.500210 1_555
Ge9 Pt0 2.500210 1_455
Ge9 Pt8 2.718909 1_555
Ge9 Pr5 3.090204 1_565
Ge9 Pr5 3.090204 1_465
Ge9 Pr10 3.116691 1_555
Ge9 Pr8 3.371628 1_555
Ge10 Pt3 2.500210 1_555
Ge10 Pt3 2.500210 1_655
Ge10 Ge18 2.633985 1_545
Ge10 Pt7 2.718909 1_555
Ge10 Pr0 3.090204 1_645
Ge10 Pr0 3.090204 1_545
Ge10 Pr9 3.116691 1_555
Ge10 Pr11 3.371628 1_555
Ge11 Pt13 2.499140 1_554
Ge11 Pt15 2.522664 1_544
Ge11 Pt10 2.529973 1_555
Ge11 Pt10 2.529973 1_455
Ge11 Pr8 3.299202 1_545
Ge11 Pr11 3.326937 1_554
Ge11 Pr11 3.326937 1_454
Ge11 Pr2 3.327372 1_555
Ge12 Pt14 2.494693 1_555
Ge12 Pt5 2.586501 1_555
Ge12 Pt0 2.588807 1_555
Ge12 Pr10 3.107129 1_655
Ge12 Pr10 3.107129 1_555
Ge12 Pr2 3.307288 1_655
Ge12 Pr2 3.307288 1_555
Ge12 Pr8 3.307415 1_655
Ge12 Pr8 3.307415 1_555
Ge13 Pt15 2.450795 1_555
Ge13 Pt12 2.513585 1_555
Ge13 Pt3 2.519893 1_565
Ge13 Pr3 3.437567 1_455
Ge13 Pr3 3.437567 1_555
Ge13 Pr11 3.439265 1_465
Ge13 Pr11 3.439265 1_565
Ge14 Pt1 2.509094 1_565
Ge14 Pt2 2.517481 1_455
Ge14 Pt2 2.517481 1_555
Ge14 Pt11 2.523596 1_555
Ge14 Pr1 3.250805 1_555
Ge14 Pr1 3.250805 1_455
Ge14 Pr7 3.269579 1_555
Ge14 Pr6 3.281554 1_565
Ge15 Pt2 2.509094 1_545
Ge15 Pt1 2.517481 1_555
Ge15 Pt1 2.517481 1_655
Ge15 Pt4 2.523596 1_555
Ge15 Pr6 3.250805 1_555
Ge15 Pr6 3.250805 1_655
Ge15 Pr4 3.269579 1_555
Ge15 Pr1 3.281554 1_545
Ge16 Pt10 2.450795 1_555
Ge16 Pt5 2.513585 1_555
Ge16 Pt0 2.519893 1_545
Ge16 Pr2 3.437567 1_655
Ge16 Pr2 3.437567 1_555
Ge16 Pr8 3.439265 1_545
Ge16 Pr8 3.439265 1_645
Ge17 Pt2 2.499140 1_555
Ge17 Pt4 2.522664 1_555
Ge17 Pt11 2.529973 1_655
Ge17 Pt11 2.529973 1_555
Ge17 Pr4 3.299202 1_555
Ge17 Pr7 3.326937 1_555
Ge17 Pr7 3.326937 1_655
Ge17 Pr1 3.327372 1_555
Ge18 Pt12 2.500135 1_655
Ge18 Pt12 2.500135 1_555
Ge18 Pt9 2.733835 1_555
Ge18 Pr0 3.092194 1_655
Ge18 Pr0 3.092194 1_555
Ge18 Pr9 3.122118 1_555
Ge18 Pr3 3.378345 1_555
Ge19 Pt13 2.494693 1_555
Ge19 Pt12 2.586501 1_555
Ge19 Pt3 2.588807 1_555
Ge19 Pr9 3.107129 1_555
Ge19 Pr9 3.107129 1_455
Ge19 Pr3 3.307288 1_455
Ge19 Pr3 3.307288 1_555
Ge19 Pr11 3.307415 1_455
Ge19 Pr11 3.307415 1_555
Ge20 Pt7 2.500135 1_455
Ge20 Pt7 2.500135 1_555
Ge20 Ge23 2.633985 1_555
Ge20 Pt3 2.733835 1_555
Ge20 Pr9 3.092194 1_555
Ge20 Pr9 3.092194 1_455
Ge20 Pr0 3.122118 1_545
Ge20 Pr6 3.378345 1_555
Ge21 Pt14 2.509094 1_555
Ge21 Pt13 2.517481 1_554
Ge21 Pt13 2.517481 1_654
Ge21 Pt10 2.523596 1_555
Ge21 Pr2 3.250805 1_555
Ge21 Pr2 3.250805 1_655
Ge21 Pr11 3.269579 1_554
Ge21 Pr3 3.281554 1_554
Ge22 Pt4 2.450795 1_555
Ge22 Pt7 2.513585 1_555
Ge22 Pt9 2.519893 1_555
Ge22 Pr6 3.437567 1_555
Ge22 Pr6 3.437567 1_655
Ge22 Pr7 3.439265 1_555
Ge22 Pr7 3.439265 1_655
Ge23 Pt9 2.500210 1_555
Ge23 Pt9 2.500210 1_455
Ge23 Pt12 2.718909 1_555
Ge23 Pr9 3.090204 1_455
Ge23 Pr9 3.090204 1_555
Ge23 Pr0 3.116691 1_555
Ge23 Pr7 3.371628 1_555
