# generated using pymatgen
data_NaCa3SmP3O12F
_symmetry_space_group_name_H-M   'P 1'
_cell_length_a   9.46802400
_cell_length_b   9.48285363
_cell_length_c   13.94623741
_cell_angle_alpha   90.01605222
_cell_angle_beta   90.01765761
_cell_angle_gamma   119.93025135
_symmetry_Int_Tables_number   1
_chemical_formula_structural   NaCa3SmP3O12F
_chemical_formula_sum   'Na4 Ca12 Sm4 P12 O48 F4'
_cell_volume   1085.15260107
_cell_formula_units_Z   4
loop_
 _symmetry_equiv_pos_site_id
 _symmetry_equiv_pos_as_xyz
  1  'x, y, z'
loop_
 _atom_site_type_symbol
 _atom_site_label
 _atom_site_symmetry_multiplicity
 _atom_site_fract_x
 _atom_site_fract_y
 _atom_site_fract_z
 _atom_site_occupancy
  Na  Na0  1  0.66451200  0.32705100  0.00080400  1
  Na  Na1  1  0.66557600  0.32902400  0.49505500  1
  Na  Na2  1  0.33264700  0.66362800  0.24879100  1
  Na  Na3  1  0.33033700  0.66485300  0.74668500  1
  Ca  Ca0  1  0.66374400  0.32424000  0.25015800  1
  Ca  Ca1  1  0.25898800  0.01262400  0.37693500  1
  Ca  Ca2  1  0.25660700  0.01092900  0.87507500  1
  Ca  Ca3  1  0.01422000  0.75864700  0.62382000  1
  Ca  Ca4  1  0.99395100  0.24881600  0.37537700  1
  Ca  Ca5  1  0.99581400  0.24867700  0.87643000  1
  Ca  Ca6  1  0.74665000  0.99657900  0.12621200  1
  Ca  Ca7  1  0.75007800  0.99367500  0.62345000  1
  Ca  Ca8  1  0.32943600  0.66374900  0.50052000  1
  Ca  Ca9  1  0.33235300  0.66230100  0.00060300  1
  Ca  Ca10  1  0.24653500  0.25613900  0.12639500  1
  Ca  Ca11  1  0.24160800  0.25183100  0.62350700  1
  Sm  Sm0  1  0.75676800  0.74707000  0.37713600  1
  Sm  Sm1  1  0.75823800  0.74917300  0.87446100  1
  Sm  Sm2  1  0.66521800  0.32666800  0.74598000  1
  Sm  Sm3  1  0.01503900  0.75870900  0.12618400  1
  P  P0  1  0.63376200  0.60816500  0.12422800  1
  P  P1  1  0.63133500  0.60550100  0.62491800  1
  P  P2  1  0.97327200  0.36619400  0.12399800  1
  P  P3  1  0.97083800  0.36677400  0.62495200  1
  P  P4  1  0.39049400  0.02681000  0.12397500  1
  P  P5  1  0.39411300  0.02788000  0.62469600  1
  P  P6  1  0.60737500  0.97125400  0.37452700  1
  P  P7  1  0.60595700  0.97016800  0.87388100  1
  P  P8  1  0.02595300  0.63468200  0.37443500  1
  P  P9  1  0.02676100  0.63434400  0.87373300  1
  P  P10  1  0.36585600  0.39174600  0.37420200  1
  P  P11  1  0.36661900  0.39310300  0.87348600  1
  O  O0  1  0.75565400  0.66925900  0.03699200  1
  O  O1  1  0.75080600  0.66745500  0.53828800  1
  O  O2  1  0.75260400  0.66824800  0.21303600  1
  O  O3  1  0.74271200  0.65362000  0.71676300  1
  O  O4  1  0.53563100  0.42118400  0.12735600  1
  O  O5  1  0.53295300  0.41632200  0.62731900  1
  O  O6  1  0.83695800  0.52800500  0.37126600  1
  O  O7  1  0.83697800  0.52318900  0.87027900  1
  O  O8  1  0.47740500  0.31588000  0.37177200  1
  O  O9  1  0.48217200  0.32041900  0.86957800  1
  O  O10  1  0.88782000  0.47185200  0.12668100  1
  O  O11  1  0.88247000  0.46947100  0.62712800  1
  O  O12  1  0.32864000  0.08171600  0.03645200  1
  O  O13  1  0.33369900  0.08191500  0.21409600  1
  O  O14  1  0.35321900  0.09468900  0.71724300  1
  O  O15  1  0.33314600  0.08537400  0.53868800  1
  O  O16  1  0.57868300  0.11107000  0.12639900  1
  O  O17  1  0.58482800  0.11451700  0.62620700  1
  O  O18  1  0.68640300  0.15772600  0.37180300  1
  O  O19  1  0.68183300  0.15756800  0.86951100  1
  O  O20  1  0.91403800  0.25017800  0.03628300  1
  O  O21  1  0.91338600  0.25478100  0.21414600  1
  O  O22  1  0.91447300  0.24877900  0.53854400  1
  O  O23  1  0.90478100  0.25795600  0.71731000  1
  O  O24  1  0.08047000  0.75062000  0.28552200  1
  O  O25  1  0.08181800  0.75020600  0.46256700  1
  O  O26  1  0.08050300  0.75492600  0.78880100  1
  O  O27  1  0.07609700  0.74391600  0.96550400  1
  O  O28  1  0.30973700  0.83760800  0.12148800  1
  O  O29  1  0.31538800  0.84131900  0.62384100  1
  O  O30  1  0.41932400  0.88532600  0.37744200  1
  O  O31  1  0.41841000  0.88433200  0.87790400  1
  O  O32  1  0.66855700  0.91056500  0.28812400  1
  O  O33  1  0.66442900  0.91102200  0.46370200  1
  O  O34  1  0.66694600  0.91462300  0.96283400  1
  O  O35  1  0.66839600  0.91140500  0.78737200  1
  O  O36  1  0.11185300  0.53335400  0.37655900  1
  O  O37  1  0.11333000  0.53397100  0.87740000  1
  O  O38  1  0.52727300  0.68773600  0.12096600  1
  O  O39  1  0.52370200  0.68356200  0.62331300  1
  O  O40  1  0.16024100  0.47744900  0.12149300  1
  O  O41  1  0.15721200  0.47586600  0.62406300  1
  O  O42  1  0.47180900  0.58238500  0.37661000  1
  O  O43  1  0.47225700  0.58332100  0.87701500  1
  O  O44  1  0.24960900  0.33492200  0.28687800  1
  O  O45  1  0.25005200  0.33441000  0.78659500  1
  O  O46  1  0.25522200  0.34142300  0.46466300  1
  O  O47  1  0.25775100  0.33967600  0.96432100  1
  F  F0  1  0.99875900  0.99753600  0.62824300  1
  F  F1  1  0.99701000  0.99315400  0.12602100  1
  F  F2  1  0.99564400  0.99608400  0.37579300  1
  F  F3  1  0.99625300  0.99710700  0.87721500  1
loop_
_geom_bond_atom_site_label_1
_geom_bond_atom_site_label_2
_geom_bond_distance
_geom_bond_site_symmetry_2
Na0 O9 2.494665 1_554
Na0 O19 2.494835 1_554
Na0 O16 2.503040 1_555
Na0 O7 2.532276 1_554
Na0 O4 2.547192 1_555
Na0 O10 2.556717 1_555
Na0 O20 2.841793 1_555
Na0 O12 2.896768 1_555
Na0 O0 2.955418 1_555
Na1 O8 2.433550 1_555
Na1 O18 2.439354 1_555
Na1 O6 2.474279 1_555
Na1 O17 2.553198 1_555
Na1 O11 2.578880 1_555
Na1 O5 2.588900 1_555
Na1 O22 2.879082 1_555
Na1 O15 2.891416 1_555
Na1 O1 2.954417 1_555
Na2 O40 2.460483 1_555
Na2 O38 2.491527 1_555
Na2 O28 2.505900 1_555
Na2 O36 2.549082 1_555
Na2 O42 2.553330 1_555
Na2 O30 2.566659 1_555
Na2 O44 2.858686 1_555
Na2 O32 2.909595 1_555
Na2 O24 2.934217 1_555
Na3 O41 2.426568 1_555
Na3 O29 2.448102 1_555
Na3 O39 2.453898 1_555
Na3 O37 2.558136 1_555
Na3 O31 2.577033 1_555
Na3 O43 2.596730 1_555
Na3 O45 2.886352 1_555
Na3 O35 2.926366 1_555
Na3 O26 2.947302 1_555
Ca0 O18 2.399324 1_555
Ca0 O8 2.420303 1_555
Ca0 O16 2.467084 1_555
Ca0 O6 2.471885 1_555
Ca0 O4 2.522275 1_555
Ca0 O10 2.542826 1_555
Ca0 O21 2.797654 1_555
Ca0 O13 2.851499 1_555
Ca0 O2 2.979950 1_555
Ca1 O15 2.360624 1_555
Ca1 O30 2.364411 1_545
Ca1 O13 2.372242 1_555
Ca1 F2 2.418959 1_445
Ca1 O25 2.503990 1_545
Ca1 O24 2.541932 1_545
Ca1 O8 2.572422 1_555
Ca2 O12 2.349959 1_556
Ca2 O14 2.364303 1_555
Ca2 O31 2.371680 1_545
Ca2 F3 2.402522 1_445
Ca2 O26 2.465587 1_545
Ca2 O27 2.570499 1_545
Ca2 O9 2.631702 1_555
Ca3 F0 2.342623 1_455
Ca3 O25 2.350610 1_555
Ca3 O11 2.380032 1_455
Ca3 O26 2.389627 1_555
Ca3 O1 2.497239 1_455
Ca3 O29 2.552395 1_555
Ca3 O3 2.593881 1_455
Ca4 O36 2.349710 1_655
Ca4 O21 2.383940 1_555
Ca4 O22 2.396925 1_555
Ca4 F2 2.404667 1_545
Ca4 O44 2.465630 1_655
Ca4 O46 2.504141 1_655
Ca4 O18 2.591825 1_555
Ca5 O37 2.356592 1_655
Ca5 O20 2.362565 1_556
Ca5 F3 2.387706 1_545
Ca5 O23 2.397863 1_555
Ca5 O45 2.464645 1_655
Ca5 O47 2.501918 1_655
Ca5 O19 2.651409 1_555
Ca6 O16 2.330413 1_565
Ca6 F1 2.386788 1_555
Ca6 O32 2.389788 1_555
Ca6 O34 2.403702 1_554
Ca6 O20 2.463247 1_565
Ca6 O21 2.476116 1_565
Ca6 O38 2.612739 1_555
Ca7 F0 2.337400 1_555
Ca7 O17 2.356207 1_565
Ca7 O33 2.366230 1_555
Ca7 O35 2.415157 1_555
Ca7 O22 2.433572 1_565
Ca7 O23 2.544314 1_565
Ca7 O39 2.636702 1_555
Ca8 O41 2.430269 1_555
Ca8 O39 2.450320 1_555
Ca8 O29 2.456228 1_555
Ca8 O36 2.493246 1_555
Ca8 O30 2.510780 1_555
Ca8 O42 2.537163 1_555
Ca8 O46 2.818182 1_555
Ca8 O25 2.892462 1_555
Ca8 O33 2.898612 1_555
Ca9 O40 2.392395 1_555
Ca9 O38 2.415674 1_555
Ca9 O28 2.450624 1_555
Ca9 O37 2.492364 1_554
Ca9 O43 2.505386 1_554
Ca9 O31 2.513184 1_554
Ca9 O47 2.820889 1_554
Ca9 O34 2.911380 1_554
Ca9 O27 2.932323 1_554
Ca10 O44 2.354900 1_555
Ca10 O47 2.380141 1_554
Ca10 O4 2.380518 1_555
Ca10 F1 2.433398 1_445
Ca10 O12 2.489191 1_555
Ca10 O13 2.503539 1_555
Ca10 O40 2.605312 1_555
Ca11 O46 2.353256 1_555
Ca11 F0 2.360815 1_445
Ca11 O45 2.393578 1_555
Ca11 O5 2.398170 1_555
Ca11 O15 2.450873 1_555
Ca11 O14 2.572510 1_555
Ca11 O41 2.616494 1_555
O0 P0 1.575355 1_555
O0 Sm1 2.386480 1_554
O0 Sm3 2.493352 1_655
O1 P1 1.556410 1_555
O1 Sm0 2.362789 1_555
O2 P0 1.575969 1_555
O2 Sm0 2.401544 1_555
O2 Sm3 2.500481 1_655
O3 P1 1.574669 1_555
O3 Sm1 2.354849 1_555
O3 Sm2 2.836888 1_555
O4 P0 1.537922 1_555
O5 P1 1.555506 1_555
O5 Sm2 2.468110 1_555
O6 P8 1.555909 1_655
O6 Sm0 2.544094 1_555
O7 P9 1.565890 1_655
O7 Sm2 2.468769 1_555
O7 Sm1 2.597253 1_555
O8 P10 1.546738 1_555
O9 P11 1.558047 1_555
O9 Sm2 2.424405 1_555
O10 P2 1.571236 1_555
O10 Sm3 2.362392 1_655
O11 P3 1.569211 1_555
O11 Sm2 2.456832 1_555
O12 P4 1.551824 1_555
O13 P4 1.556388 1_555
O14 P5 1.569005 1_555
O14 Sm2 2.690765 1_555
O15 P5 1.543766 1_555
O16 P4 1.547121 1_555
O17 P5 1.567018 1_555
O17 Sm2 2.426138 1_555
O18 P6 1.538794 1_545
O19 P7 1.550475 1_545
O19 Sm2 2.411896 1_555
O20 P2 1.550631 1_555
O21 P2 1.556191 1_555
O22 P3 1.546596 1_555
O23 P3 1.572346 1_555
O23 Sm2 2.684088 1_555
O24 P8 1.564491 1_555
O24 Sm3 2.318265 1_555
O25 P8 1.552810 1_555
O26 P9 1.545943 1_555
O27 P9 1.565384 1_555
O27 Sm3 2.336016 1_556
O28 P4 1.560735 1_565
O28 Sm3 2.503253 1_555
O29 P5 1.539366 1_565
O30 P6 1.545322 1_555
O31 P7 1.541614 1_555
O32 P6 1.565724 1_555
O32 Sm0 2.436160 1_555
O33 P6 1.572448 1_555
O33 Sm0 2.448474 1_555
O34 P7 1.566304 1_555
O34 Sm1 2.465865 1_555
O35 P7 1.563451 1_555
O35 Sm1 2.423169 1_555
O36 P8 1.538007 1_555
O37 P9 1.535868 1_555
O38 P0 1.532039 1_555
O39 P1 1.529617 1_555
O40 P2 1.544138 1_455
O41 P3 1.537054 1_455
O42 P10 1.570306 1_555
O42 Sm0 2.348096 1_555
O43 P11 1.567196 1_555
O43 Sm1 2.357306 1_555
O44 P10 1.546565 1_555
O45 P11 1.543415 1_555
O46 P10 1.555282 1_555
O47 P11 1.550483 1_555
F1 Sm3 2.313114 1_655
F2 Sm0 2.315655 1_555
F3 Sm1 2.306599 1_555
