# generated using pymatgen
data_CuW3Br7
_symmetry_space_group_name_H-M   'P 1'
_cell_length_a   10.14067900
_cell_length_b   15.41713000
_cell_length_c   16.29092800
_cell_angle_alpha   90.00000000
_cell_angle_beta   90.00000000
_cell_angle_gamma   90.00000000
_symmetry_Int_Tables_number   1
_chemical_formula_structural   CuW3Br7
_chemical_formula_sum   'Cu8 W24 Br56'
_cell_volume   2546.92639484
_cell_formula_units_Z   8
loop_
 _symmetry_equiv_pos_site_id
 _symmetry_equiv_pos_as_xyz
  1  'x, y, z'
loop_
 _atom_site_type_symbol
 _atom_site_label
 _atom_site_symmetry_multiplicity
 _atom_site_fract_x
 _atom_site_fract_y
 _atom_site_fract_z
 _atom_site_occupancy
  Cu  Cu0  1  0.62860000  0.21722400  0.29104700  1
  Cu  Cu1  1  0.12860000  0.28277600  0.29104700  1
  Cu  Cu2  1  0.37140000  0.78277600  0.70895300  1
  Cu  Cu3  1  0.87140000  0.21722400  0.79104700  1
  Cu  Cu4  1  0.87140000  0.71722400  0.70895300  1
  Cu  Cu5  1  0.37140000  0.28277600  0.79104700  1
  Cu  Cu6  1  0.12860000  0.78277600  0.20895300  1
  Cu  Cu7  1  0.62860000  0.71722400  0.20895300  1
  W  W0  1  0.99838300  0.59597800  0.92904500  1
  W  W1  1  0.49838300  0.90402200  0.92904500  1
  W  W2  1  0.34517200  0.95940500  0.05076500  1
  W  W3  1  0.60199200  0.93713700  0.07523200  1
  W  W4  1  0.00161700  0.90402200  0.42904500  1
  W  W5  1  0.89800800  0.93713700  0.57523200  1
  W  W6  1  0.99838300  0.09597800  0.57095500  1
  W  W7  1  0.49838300  0.40402200  0.57095500  1
  W  W8  1  0.39800800  0.06286300  0.92476800  1
  W  W9  1  0.10199200  0.06286300  0.42476800  1
  W  W10  1  0.15482800  0.45940500  0.94923500  1
  W  W11  1  0.65482800  0.54059500  0.55076500  1
  W  W12  1  0.60199200  0.43713700  0.42476800  1
  W  W13  1  0.00161700  0.40402200  0.07095500  1
  W  W14  1  0.15482800  0.95940500  0.55076500  1
  W  W15  1  0.34517200  0.45940500  0.44923500  1
  W  W16  1  0.10199200  0.56286300  0.07523200  1
  W  W17  1  0.50161700  0.59597800  0.42904500  1
  W  W18  1  0.84517200  0.04059500  0.44923500  1
  W  W19  1  0.65482800  0.04059500  0.94923500  1
  W  W20  1  0.39800800  0.56286300  0.57523200  1
  W  W21  1  0.50161700  0.09597800  0.07095500  1
  W  W22  1  0.84517200  0.54059500  0.05076500  1
  W  W23  1  0.89800800  0.43713700  0.92476800  1
  Br  Br0  1  0.55071100  0.50805400  0.69623200  1
  Br  Br1  1  0.49696900  0.26446100  0.66696100  1
  Br  Br2  1  0.44495800  0.30148000  0.44443600  1
  Br  Br3  1  0.44928900  0.49194600  0.30376800  1
  Br  Br4  1  0.12162700  0.90692200  0.12277500  1
  Br  Br5  1  0.05071100  0.49194600  0.80376800  1
  Br  Br6  1  0.55504200  0.19852000  0.94443600  1
  Br  Br7  1  0.62162700  0.09307800  0.37722500  1
  Br  Br8  1  0.99696900  0.23553900  0.66696100  1
  Br  Br9  1  0.24120700  0.42630300  0.59567200  1
  Br  Br10  1  0.55071100  0.00805400  0.80376800  1
  Br  Br11  1  0.24482300  0.61785400  0.45378200  1
  Br  Br12  1  0.24660900  0.15001200  0.31771700  1
  Br  Br13  1  0.99696900  0.73553900  0.83303900  1
  Br  Br14  1  0.94928900  0.00805400  0.30376800  1
  Br  Br15  1  0.75517700  0.88214600  0.95378200  1
  Br  Br16  1  0.49696900  0.76446100  0.83303900  1
  Br  Br17  1  0.87837300  0.59307800  0.62277500  1
  Br  Br18  1  0.37837300  0.40692200  0.87722500  1
  Br  Br19  1  0.75339100  0.84998800  0.68228300  1
  Br  Br20  1  0.24660900  0.65001200  0.18228300  1
  Br  Br21  1  0.44495800  0.80148000  0.05556400  1
  Br  Br22  1  0.25339100  0.65001200  0.68228300  1
  Br  Br23  1  0.00303100  0.26446100  0.16696100  1
  Br  Br24  1  0.62162700  0.59307800  0.12277500  1
  Br  Br25  1  0.87837300  0.09307800  0.87722500  1
  Br  Br26  1  0.74482300  0.88214600  0.45378200  1
  Br  Br27  1  0.94495800  0.69852000  0.05556400  1
  Br  Br28  1  0.25339100  0.15001200  0.81771700  1
  Br  Br29  1  0.75339100  0.34998800  0.81771700  1
  Br  Br30  1  0.37837300  0.90692200  0.62277500  1
  Br  Br31  1  0.50303100  0.23553900  0.16696100  1
  Br  Br32  1  0.00303100  0.76446100  0.33303900  1
  Br  Br33  1  0.94495800  0.19852000  0.44443600  1
  Br  Br34  1  0.50303100  0.73553900  0.33303900  1
  Br  Br35  1  0.74482300  0.38214600  0.04621800  1
  Br  Br36  1  0.05504200  0.80148000  0.55556400  1
  Br  Br37  1  0.74120700  0.57369700  0.90432800  1
  Br  Br38  1  0.25517700  0.11785400  0.54621800  1
  Br  Br39  1  0.55504200  0.69852000  0.55556400  1
  Br  Br40  1  0.24120700  0.92630300  0.90432800  1
  Br  Br41  1  0.74660900  0.84998800  0.18228300  1
  Br  Br42  1  0.74120700  0.07369700  0.59567200  1
  Br  Br43  1  0.75517700  0.38214600  0.54621800  1
  Br  Br44  1  0.12162700  0.40692200  0.37722500  1
  Br  Br45  1  0.75879300  0.57369700  0.40432800  1
  Br  Br46  1  0.05071100  0.99194600  0.69623200  1
  Br  Br47  1  0.25879300  0.42630300  0.09567200  1
  Br  Br48  1  0.94928900  0.50805400  0.19623200  1
  Br  Br49  1  0.44928900  0.99194600  0.19623200  1
  Br  Br50  1  0.05504200  0.30148000  0.94443600  1
  Br  Br51  1  0.75879300  0.07369700  0.09567200  1
  Br  Br52  1  0.74660900  0.34998800  0.31771700  1
  Br  Br53  1  0.24482300  0.11785400  0.04621800  1
  Br  Br54  1  0.25517700  0.61785400  0.95378200  1
  Br  Br55  1  0.25879300  0.92630300  0.40432800  1
loop_
_geom_bond_atom_site_label_1
_geom_bond_atom_site_label_2
_geom_bond_distance
_geom_bond_site_symmetry_2
Br0 W11 2.642415 1_555
Br0 W20 2.645288 1_555
Br0 W7 2.649374 1_555
Br1 Cu5 2.405728 1_555
Br1 W7 2.660056 1_555
Br2 W15 2.637813 1_555
Br2 W12 2.648137 1_555
Br2 W7 2.653478 1_555
Br3 W15 2.642415 1_555
Br3 W12 2.645288 1_555
Br3 W17 2.649374 1_555
Br4 Cu6 2.374719 1_555
Br4 W2 2.677633 1_555
Br5 W10 2.642415 1_555
Br5 W23 2.645288 1_455
Br5 W0 2.649374 1_455
Br6 W19 2.637813 1_555
Br6 W8 2.648137 1_555
Br6 W21 2.653478 1_556
Br7 Cu0 2.374719 1_555
Br7 W18 2.677633 1_555
Br8 Cu3 2.405728 1_555
Br8 W6 2.660056 1_555
Br9 W15 2.657631 1_555
Br9 W20 2.659277 1_555
Br9 W7 2.661106 1_555
Br10 W19 2.642415 1_555
Br10 W8 2.645288 1_555
Br10 W1 2.649374 1_545
Br11 W15 2.647343 1_555
Br11 W20 2.654509 1_555
Br11 W17 2.656559 1_555
Br12 Cu1 2.410476 1_555
Br12 W9 2.645239 1_555
Br13 Cu4 2.405728 1_555
Br13 W0 2.660056 1_555
Br14 W18 2.642415 1_555
Br14 W9 2.645288 1_655
Br14 W4 2.649374 1_645
Br15 W19 2.647343 1_565
Br15 W3 2.654509 1_556
Br15 W1 2.656559 1_555
Br16 Cu2 2.405728 1_555
Br16 W1 2.660056 1_555
Br17 Cu4 2.374719 1_555
Br17 W11 2.677633 1_555
Br18 Cu5 2.374719 1_555
Br18 W10 2.677633 1_555
Br19 Cu4 2.410476 1_555
Br19 W5 2.645239 1_555
Br20 Cu6 2.410476 1_555
Br20 W16 2.645239 1_555
Br21 W2 2.637813 1_555
Br21 W3 2.648137 1_555
Br21 W1 2.653478 1_554
Br22 Cu2 2.410476 1_555
Br22 W20 2.645239 1_555
Br23 Cu1 2.405728 1_555
Br23 W13 2.660056 1_555
Br24 Cu7 2.374719 1_555
Br24 W22 2.677633 1_555
Br25 Cu3 2.374719 1_555
Br25 W19 2.677633 1_555
Br26 W18 2.647343 1_565
Br26 W5 2.654509 1_555
Br26 W4 2.656559 1_655
Br27 W22 2.637813 1_555
Br27 W16 2.648137 1_655
Br27 W0 2.653478 1_554
Br28 Cu5 2.410476 1_555
Br28 W8 2.645239 1_555
Br29 Cu3 2.410476 1_555
Br29 W23 2.645239 1_555
Br30 Cu2 2.374719 1_555
Br30 W14 2.677633 1_555
Br31 Cu0 2.405728 1_555
Br31 W21 2.660056 1_555
Br32 Cu6 2.405728 1_555
Br32 W4 2.660056 1_555
Br33 W18 2.637813 1_555
Br33 W9 2.648137 1_655
Br33 W6 2.653478 1_555
Br34 Cu7 2.405728 1_555
Br34 W17 2.660056 1_555
Br35 W22 2.647343 1_555
Br35 W23 2.654509 1_554
Br35 W13 2.656559 1_655
Br36 W14 2.637813 1_555
Br36 W5 2.648137 1_455
Br36 W4 2.653478 1_555
Br37 W22 2.657631 1_556
Br37 W23 2.659277 1_555
Br37 W0 2.661106 1_555
Br38 W14 2.647343 1_545
Br38 W9 2.654509 1_555
Br38 W6 2.656559 1_455
Br39 W11 2.637813 1_555
Br39 W20 2.648137 1_555
Br39 W17 2.653478 1_555
Br40 W2 2.657631 1_556
Br40 W8 2.659277 1_565
Br40 W1 2.661106 1_555
Br41 Cu7 2.410476 1_555
Br41 W3 2.645239 1_555
Br42 W18 2.657631 1_555
Br42 W5 2.659277 1_545
Br42 W6 2.661106 1_555
Br43 W11 2.647343 1_555
Br43 W12 2.654509 1_555
Br43 W7 2.656559 1_555
Br44 Cu1 2.374719 1_555
Br44 W15 2.677633 1_555
Br45 W11 2.657631 1_555
Br45 W12 2.659277 1_555
Br45 W17 2.661106 1_555
Br46 W14 2.642415 1_555
Br46 W5 2.645288 1_455
Br46 W6 2.649374 1_465
Br47 W10 2.657631 1_554
Br47 W16 2.659277 1_555
Br47 W13 2.661106 1_555
Br48 W22 2.642415 1_555
Br48 W16 2.645288 1_655
Br48 W13 2.649374 1_655
Br49 W2 2.642415 1_555
Br49 W3 2.645288 1_555
Br49 W21 2.649374 1_565
Br50 W10 2.637813 1_555
Br50 W23 2.648137 1_455
Br50 W13 2.653478 1_556
Br51 W19 2.657631 1_554
Br51 W3 2.659277 1_545
Br51 W21 2.661106 1_555
Br52 Cu0 2.410476 1_555
Br52 W12 2.645239 1_555
Br53 W2 2.647343 1_545
Br53 W8 2.654509 1_554
Br53 W21 2.656559 1_555
Br54 W10 2.647343 1_555
Br54 W16 2.654509 1_556
Br54 W0 2.656559 1_455
Br55 W14 2.657631 1_555
Br55 W9 2.659277 1_565
Br55 W4 2.661106 1_555
