# generated using pymatgen
data_Fe21(MoC3)2
_symmetry_space_group_name_H-M   'P 1'
_cell_length_a   7.42002501
_cell_length_b   7.42002501
_cell_length_c   7.42002501
_cell_angle_alpha   60.00000000
_cell_angle_beta   60.00000000
_cell_angle_gamma   60.00000000
_symmetry_Int_Tables_number   1
_chemical_formula_structural   Fe21(MoC3)2
_chemical_formula_sum   'Fe21 Mo2 C6'
_cell_volume   288.86911390
_cell_formula_units_Z   1
loop_
 _symmetry_equiv_pos_site_id
 _symmetry_equiv_pos_as_xyz
  1  'x, y, z'
loop_
 _atom_site_type_symbol
 _atom_site_label
 _atom_site_symmetry_multiplicity
 _atom_site_fract_x
 _atom_site_fract_y
 _atom_site_fract_z
 _atom_site_occupancy
  Fe  Fe0  1  0.33941600  0.00000000  0.66058400  1
  Fe  Fe1  1  0.00000000  0.33941600  0.66058400  1
  Fe  Fe2  1  0.15063700  0.61645400  0.61645400  1
  Fe  Fe3  1  0.66058400  0.00000000  0.00000000  1
  Fe  Fe4  1  0.61645400  0.15063700  0.61645400  1
  Fe  Fe5  1  0.66058400  0.33941600  0.00000000  1
  Fe  Fe6  1  0.00000000  0.66058400  0.33941600  1
  Fe  Fe7  1  0.00000000  0.33941600  0.00000000  1
  Fe  Fe8  1  0.33941600  0.66058400  0.00000000  1
  Fe  Fe9  1  0.00000000  0.00000000  0.33941600  1
  Fe  Fe10  1  0.66058400  0.00000000  0.33941600  1
  Fe  Fe11  1  0.00000000  0.66058400  0.00000000  1
  Fe  Fe12  1  0.38354600  0.38354600  0.84936300  1
  Fe  Fe13  1  0.00000000  0.00000000  0.00000000  1
  Fe  Fe14  1  0.33941600  0.00000000  0.00000000  1
  Fe  Fe15  1  0.38354600  0.84936300  0.38354600  1
  Fe  Fe16  1  0.61645400  0.61645400  0.15063700  1
  Fe  Fe17  1  0.38354600  0.38354600  0.38354600  1
  Fe  Fe18  1  0.00000000  0.00000000  0.66058400  1
  Fe  Fe19  1  0.61645400  0.61645400  0.61645400  1
  Fe  Fe20  1  0.84936300  0.38354600  0.38354600  1
  Mo  Mo0  1  0.25000000  0.25000000  0.25000000  1
  Mo  Mo1  1  0.75000000  0.75000000  0.75000000  1
  C  C0  1  0.72022000  0.27978000  0.72022000  1
  C  C1  1  0.72022000  0.27978000  0.27978000  1
  C  C2  1  0.72022000  0.72022000  0.27978000  1
  C  C3  1  0.27978000  0.27978000  0.72022000  1
  C  C4  1  0.27978000  0.72022000  0.72022000  1
  C  C5  1  0.27978000  0.72022000  0.27978000  1
loop_
_geom_bond_atom_site_label_1
_geom_bond_atom_site_label_2
_geom_bond_distance
_geom_bond_site_symmetry_2
Fe0 Fe13 2.518475 1_556
Fe1 Fe13 2.518475 1_556
Fe2 Mo1 2.427229 1_455
Fe4 Mo1 2.427229 1_545
Fe10 Fe13 2.518475 1_655
Fe11 Fe13 2.518475 1_565
Fe12 Mo0 2.427229 1_556
Fe13 Fe14 2.518475 1_555
Fe13 Fe9 2.518475 1_555
Fe13 Fe7 2.518475 1_555
Fe13 Fe5 2.518475 1_455
Fe13 Fe18 2.518475 1_554
Fe13 Fe3 2.518475 1_455
Fe13 Fe6 2.518475 1_545
Fe13 Fe8 2.518475 1_545
Fe15 Mo0 2.427229 1_565
Fe16 Mo1 2.427229 1_554
Fe17 Mo0 2.427235 1_555
Fe19 Mo1 2.427235 1_555
Fe20 Mo0 2.427229 1_655
C0 Fe19 2.042609 1_555
C0 Fe20 2.042609 1_555
C0 Fe12 2.042609 1_555
C0 Fe4 2.042615 1_555
C0 Fe1 2.122611 1_655
C0 Fe5 2.122611 1_556
C0 Fe3 2.122611 1_556
C0 Fe18 2.122611 1_655
C1 Fe17 2.042609 1_555
C1 Fe4 2.042609 1_555
C1 Fe16 2.042609 1_555
C1 Fe20 2.042615 1_555
C1 Fe7 2.122611 1_655
C1 Fe9 2.122611 1_655
C1 Fe10 2.122611 1_555
C1 Fe5 2.122611 1_555
C2 Fe19 2.042609 1_555
C2 Fe20 2.042609 1_555
C2 Fe15 2.042609 1_555
C2 Fe16 2.042615 1_555
C2 Fe6 2.122611 1_655
C2 Fe10 2.122611 1_565
C2 Fe11 2.122611 1_655
C2 Fe3 2.122611 1_565
C3 Fe17 2.042609 1_555
C3 Fe4 2.042609 1_555
C3 Fe2 2.042609 1_555
C3 Fe12 2.042615 1_555
C3 Fe14 2.122611 1_556
C3 Fe7 2.122611 1_556
C3 Fe0 2.122611 1_555
C3 Fe1 2.122611 1_555
C4 Fe19 2.042609 1_555
C4 Fe15 2.042609 1_555
C4 Fe12 2.042609 1_555
C4 Fe2 2.042615 1_555
C4 Fe0 2.122611 1_565
C4 Fe8 2.122611 1_556
C4 Fe18 2.122611 1_565
C4 Fe11 2.122611 1_556
C5 Fe17 2.042609 1_555
C5 Fe16 2.042609 1_555
C5 Fe2 2.042609 1_555
C5 Fe15 2.042615 1_555
C5 Fe9 2.122611 1_565
C5 Fe14 2.122611 1_565
C5 Fe8 2.122611 1_555
C5 Fe6 2.122611 1_555
