# generated using pymatgen
data_CeIn7Pt2
_symmetry_space_group_name_H-M   'P 1'
_cell_length_a   12.07835746
_cell_length_b   12.07835746
_cell_length_c   12.07835746
_cell_angle_alpha   158.08069900
_cell_angle_beta   158.08069900
_cell_angle_gamma   31.19371177
_symmetry_Int_Tables_number   1
_chemical_formula_structural   CeIn7Pt2
_chemical_formula_sum   'Ce1 In7 Pt2'
_cell_volume   245.37752100
_cell_formula_units_Z   1
loop_
 _symmetry_equiv_pos_site_id
 _symmetry_equiv_pos_as_xyz
  1  'x, y, z'
loop_
 _atom_site_type_symbol
 _atom_site_label
 _atom_site_symmetry_multiplicity
 _atom_site_fract_x
 _atom_site_fract_y
 _atom_site_fract_z
 _atom_site_occupancy
  Ce  Ce0  1  0.00000000  0.00000000  0.00000000  1
  In  In0  1  0.39362900  0.89362900  0.50000000  1
  In  In1  1  0.10637100  0.60637100  0.50000000  1
  In  In2  1  0.89362900  0.39362900  0.50000000  1
  In  In3  1  0.50000000  0.50000000  0.00000000  1
  In  In4  1  0.75000000  0.25000000  0.50000000  1
  In  In5  1  0.60637100  0.10637100  0.50000000  1
  In  In6  1  0.25000000  0.75000000  0.50000000  1
  Pt  Pt0  1  0.32041500  0.32041500  0.00000000  1
  Pt  Pt1  1  0.67958500  0.67958500  0.00000000  1
loop_
_geom_bond_atom_site_label_1
_geom_bond_atom_site_label_2
_geom_bond_distance
_geom_bond_site_symmetry_2
Ce0 In3 3.247471 1_455
Ce0 In3 3.247471 1_545
Ce0 In3 3.247471 1_444
Ce0 In3 3.247471 1_556
Ce0 In0 3.376157 1_444
Ce0 In1 3.376157 1_555
Ce0 In2 3.376157 1_444
Ce0 In5 3.376157 1_555
Ce0 In5 3.376157 1_454
Ce0 In0 3.376157 1_545
Ce0 In1 3.376157 1_544
Ce0 In2 3.376157 1_455
In0 Pt0 2.859177 1_566
In0 Pt0 2.859177 1_555
In0 In2 3.247471 1_566
In0 In2 3.247471 1_454
In0 In2 3.247471 1_465
In0 In2 3.247471 1_555
In0 In6 3.341845 1_555
In0 In3 3.376157 1_566
In0 In3 3.376157 1_555
In1 Pt1 2.859177 1_455
In1 Pt1 2.859177 1_556
In1 In5 3.247471 1_555
In1 In5 3.247471 1_465
In1 In5 3.247471 1_566
In1 In5 3.247471 1_454
In1 In6 3.341845 1_555
In1 In3 3.376157 1_455
In1 In3 3.376157 1_556
In2 Pt0 2.859177 1_656
In2 Pt0 2.859177 1_555
In2 In4 3.341845 1_555
In2 In3 3.376157 1_656
In2 In3 3.376157 1_555
In3 In5 3.376157 1_565
In3 In5 3.376157 1_554
In4 Pt1 2.820861 1_556
In4 Pt1 2.820861 1_545
In4 Pt0 2.820861 1_555
In4 Pt0 2.820861 1_656
In4 In6 3.247471 1_656
In4 In6 3.247471 1_555
In4 In6 3.247471 1_544
In4 In6 3.247471 1_645
In4 In5 3.341845 1_555
In5 Pt1 2.859177 1_545
In5 Pt1 2.859177 1_556
In6 Pt1 2.820861 1_455
In6 Pt1 2.820861 1_556
In6 Pt0 2.820861 1_555
In6 Pt0 2.820861 1_566
