# generated using pymatgen
data_Cs2PtC2(OF)4
_symmetry_space_group_name_H-M   'P 1'
_cell_length_a   8.11804033
_cell_length_b   8.11804033
_cell_length_c   9.91670305
_cell_angle_alpha   89.69599511
_cell_angle_beta   89.69599511
_cell_angle_gamma   46.25109912
_symmetry_Int_Tables_number   1
_chemical_formula_structural   Cs2PtC2(OF)4
_chemical_formula_sum   'Cs4 Pt2 C4 O8 F8'
_cell_volume   472.09188628
_cell_formula_units_Z   2
loop_
 _symmetry_equiv_pos_site_id
 _symmetry_equiv_pos_as_xyz
  1  'x, y, z'
loop_
 _atom_site_type_symbol
 _atom_site_label
 _atom_site_symmetry_multiplicity
 _atom_site_fract_x
 _atom_site_fract_y
 _atom_site_fract_z
 _atom_site_occupancy
  Cs  Cs0  1  0.27331200  0.27331200  0.33515100  1
  Cs  Cs1  1  0.04436300  0.04436300  0.71094800  1
  Cs  Cs2  1  0.72668800  0.72668800  0.66484900  1
  Cs  Cs3  1  0.95563700  0.95563700  0.28905200  1
  Pt  Pt0  1  0.61630900  0.61630900  0.30877800  1
  Pt  Pt1  1  0.38369100  0.38369100  0.69122200  1
  C  C0  1  0.76018000  0.51447700  0.03868000  1
  C  C1  1  0.51447700  0.76018000  0.03868000  1
  C  C2  1  0.48552300  0.23982000  0.96132000  1
  C  C3  1  0.23982000  0.48552300  0.96132000  1
  O  O0  1  0.41792600  0.83779200  0.15874500  1
  O  O1  1  0.13099900  0.57920900  0.06464100  1
  O  O2  1  0.58207400  0.16220800  0.84125500  1
  O  O3  1  0.16220800  0.58207400  0.84125500  1
  O  O4  1  0.57920900  0.13099900  0.06464100  1
  O  O5  1  0.86900100  0.42079100  0.93535900  1
  O  O6  1  0.83779200  0.41792600  0.15874500  1
  O  O7  1  0.42079100  0.86900100  0.93535900  1
  F  F0  1  0.38546900  0.82945200  0.45120400  1
  F  F1  1  0.25056100  0.25056100  0.66391300  1
  F  F2  1  0.17054800  0.61453100  0.54879600  1
  F  F3  1  0.61453100  0.17054800  0.54879600  1
  F  F4  1  0.48531300  0.48531300  0.28341600  1
  F  F5  1  0.74943900  0.74943900  0.33608700  1
  F  F6  1  0.51468700  0.51468700  0.71658400  1
  F  F7  1  0.82945200  0.38546900  0.45120400  1
loop_
_geom_bond_atom_site_label_1
_geom_bond_atom_site_label_2
_geom_bond_distance
_geom_bond_site_symmetry_2
Cs0 F2 3.115334 1_555
Cs0 F3 3.115334 1_555
Cs0 F4 3.203866 1_555
Cs0 F5 3.208210 1_455
Cs0 F5 3.208210 1_545
Cs0 F0 3.250675 1_545
Cs0 F7 3.250675 1_455
Cs0 O1 3.269869 1_555
Cs0 O4 3.269869 1_555
Cs0 F1 3.275935 1_555
Cs0 O6 3.352939 1_455
Cs0 O0 3.352939 1_545
Cs1 F1 3.111305 1_555
Cs1 O5 3.215502 1_455
Cs1 O7 3.215502 1_545
Cs1 F6 3.219422 1_545
Cs1 F6 3.219422 1_455
Cs1 F0 3.261457 1_545
Cs1 F7 3.261457 1_455
Cs1 F2 3.302957 1_545
Cs1 F3 3.302957 1_455
Cs1 O3 3.415475 1_545
Cs1 O2 3.415475 1_455
Cs2 F7 3.115334 1_555
Cs2 F0 3.115334 1_555
Cs2 F6 3.203866 1_555
Cs2 F1 3.208210 1_655
Cs2 F1 3.208210 1_565
Cs2 F2 3.250675 1_655
Cs2 F3 3.250675 1_565
Cs2 O7 3.269869 1_555
Cs2 O5 3.269869 1_555
Cs2 F5 3.275935 1_555
Cs2 O2 3.352939 1_565
Cs2 O3 3.352939 1_655
Cs3 F5 3.111305 1_555
Cs3 O1 3.215502 1_655
Cs3 O4 3.215502 1_565
Cs3 F4 3.219422 1_655
Cs3 F4 3.219422 1_565
Cs3 F3 3.261457 1_565
Cs3 F2 3.261457 1_655
Cs3 F7 3.302957 1_565
Cs3 F0 3.302957 1_655
Cs3 O0 3.415475 1_655
Cs3 O6 3.415475 1_565
C0 O5 1.215780 1_554
C0 O6 1.320622 1_555
C1 O7 1.215780 1_554
C1 O0 1.320622 1_555
C2 O4 1.215780 1_556
C2 O2 1.320622 1_555
C3 O1 1.215780 1_556
C3 O3 1.320622 1_555
O0 Pt0 2.008103 1_555
O2 Pt1 2.008103 1_555
O3 Pt1 2.008103 1_555
O6 Pt0 2.008103 1_555
F0 Pt0 2.003497 1_555
F1 Pt1 2.007735 1_555
F2 Pt1 2.003497 1_555
F3 Pt1 2.003497 1_555
F4 Pt0 1.973503 1_555
F5 Pt0 2.007735 1_555
F6 Pt1 1.973503 1_555
F7 Pt0 2.003497 1_555
