# generated using pymatgen
data_K2Fe(PS3)2
_symmetry_space_group_name_H-M   'P 1'
_cell_length_a   12.49479300
_cell_length_b   6.05077400
_cell_length_c   8.70589084
_cell_angle_alpha   59.71066656
_cell_angle_beta   90.00000000
_cell_angle_gamma   90.00000000
_symmetry_Int_Tables_number   1
_chemical_formula_structural   K2Fe(PS3)2
_chemical_formula_sum   'K4 Fe2 P4 S12'
_cell_volume   568.34266192
_cell_formula_units_Z   2
loop_
 _symmetry_equiv_pos_site_id
 _symmetry_equiv_pos_as_xyz
  1  'x, y, z'
loop_
 _atom_site_type_symbol
 _atom_site_label
 _atom_site_symmetry_multiplicity
 _atom_site_fract_x
 _atom_site_fract_y
 _atom_site_fract_z
 _atom_site_occupancy
  K  K0  1  0.18965800  0.66106600  0.04242500  1
  K  K1  1  0.68965800  0.33893400  0.45757500  1
  K  K2  1  0.81034200  0.33893400  0.95757500  1
  K  K3  1  0.31034200  0.66106600  0.54242500  1
  Fe  Fe0  1  0.50000000  0.00000000  0.00000000  1
  Fe  Fe1  1  0.00000000  0.00000000  0.50000000  1
  P  P0  1  0.02642000  0.34689900  0.63454800  1
  P  P1  1  0.97358000  0.65310100  0.36545200  1
  P  P2  1  0.47358000  0.34689900  0.13454800  1
  P  P3  1  0.52642000  0.65310100  0.86545200  1
  S  S0  1  0.90625100  0.08463300  0.72631100  1
  S  S1  1  0.40625100  0.91536700  0.77368900  1
  S  S2  1  0.34385600  0.18207400  0.09185800  1
  S  S3  1  0.15614400  0.18207400  0.59185800  1
  S  S4  1  0.84385600  0.81792600  0.40814200  1
  S  S5  1  0.65614400  0.81792600  0.90814200  1
  S  S6  1  0.55025000  0.44323200  0.74421700  1
  S  S7  1  0.05025000  0.55676800  0.75578300  1
  S  S8  1  0.44975000  0.55676800  0.25578300  1
  S  S9  1  0.94975000  0.44323200  0.24421700  1
  S  S10  1  0.59374900  0.08463300  0.22631100  1
  S  S11  1  0.09374900  0.91536700  0.27368900  1
loop_
_geom_bond_atom_site_label_1
_geom_bond_atom_site_label_2
_geom_bond_distance
_geom_bond_site_symmetry_2
K0 S11 3.313969 1_555
K0 S2 3.322509 1_555
K0 S7 3.353862 1_554
K0 S9 3.387242 1_455
K0 S1 3.396158 1_554
K0 S3 3.609203 1_564
K0 S8 3.636919 1_555
K1 S10 3.313969 1_555
K1 S4 3.322509 1_555
K1 S6 3.353862 1_555
K1 S8 3.387242 1_555
K1 S0 3.396158 1_555
K1 S5 3.609203 1_545
K1 S9 3.636919 1_555
K2 S0 3.313969 1_555
K2 S5 3.322509 1_555
K2 S9 3.353862 1_556
K2 S7 3.387242 1_655
K2 S10 3.396158 1_556
K2 S4 3.609203 1_546
K2 S6 3.636919 1_555
K3 S1 3.313969 1_555
K3 S3 3.322509 1_555
K3 S8 3.353862 1_555
K3 S6 3.387242 1_555
K3 S11 3.396158 1_555
K3 S2 3.609203 1_565
K3 S7 3.636919 1_555
Fe0 S8 2.553673 1_545
Fe0 S6 2.553673 1_554
Fe0 S10 2.556162 1_555
Fe0 S1 2.556162 1_544
Fe0 S5 2.558968 1_544
Fe0 S2 2.558968 1_555
Fe1 S7 2.553673 1_545
Fe1 S9 2.553673 1_455
Fe1 S11 2.556162 1_545
Fe1 S0 2.556162 1_455
Fe1 S4 2.558968 1_445
Fe1 S3 2.558968 1_555
P0 S0 2.032766 1_455
P0 S3 2.033200 1_555
P0 S7 2.041377 1_555
P1 S11 2.032766 1_655
P1 S4 2.033200 1_555
P1 S9 2.041377 1_555
P2 S10 2.032766 1_555
P2 S2 2.033200 1_555
P2 S8 2.041377 1_555
P3 S1 2.032766 1_555
P3 S5 2.033200 1_555
P3 S6 2.041377 1_555
