# generated using pymatgen
data_Nb8Zn4C3
_symmetry_space_group_name_H-M   'P 1'
_cell_length_a   8.49346401
_cell_length_b   8.49346401
_cell_length_c   8.49346401
_cell_angle_alpha   60.00000000
_cell_angle_beta   60.00000000
_cell_angle_gamma   60.00000000
_symmetry_Int_Tables_number   1
_chemical_formula_structural   Nb8Zn4C3
_chemical_formula_sum   'Nb16 Zn8 C6'
_cell_volume   433.25098159
_cell_formula_units_Z   2
loop_
 _symmetry_equiv_pos_site_id
 _symmetry_equiv_pos_as_xyz
  1  'x, y, z'
loop_
 _atom_site_type_symbol
 _atom_site_label
 _atom_site_symmetry_multiplicity
 _atom_site_fract_x
 _atom_site_fract_y
 _atom_site_fract_z
 _atom_site_occupancy
  Nb  Nb0  1  0.43945700  0.43945700  0.06054300  1
  Nb  Nb1  1  0.43945700  0.06054300  0.06054300  1
  Nb  Nb2  1  0.06054300  0.06054300  0.43945700  1
  Nb  Nb3  1  0.18945700  0.18945700  0.81054300  1
  Nb  Nb4  1  0.06054300  0.43945700  0.06054300  1
  Nb  Nb5  1  0.81054300  0.18945700  0.18945700  1
  Nb  Nb6  1  0.62500000  0.62500000  0.62500000  1
  Nb  Nb7  1  0.18945700  0.81054300  0.18945700  1
  Nb  Nb8  1  0.12500000  0.62500000  0.62500000  1
  Nb  Nb9  1  0.81054300  0.18945700  0.81054300  1
  Nb  Nb10  1  0.43945700  0.06054300  0.43945700  1
  Nb  Nb11  1  0.06054300  0.43945700  0.43945700  1
  Nb  Nb12  1  0.18945700  0.81054300  0.81054300  1
  Nb  Nb13  1  0.62500000  0.12500000  0.62500000  1
  Nb  Nb14  1  0.62500000  0.62500000  0.12500000  1
  Nb  Nb15  1  0.81054300  0.81054300  0.18945700  1
  Zn  Zn0  1  0.83722200  0.83722200  0.48833300  1
  Zn  Zn1  1  0.76166700  0.41277800  0.41277800  1
  Zn  Zn2  1  0.83722200  0.48833300  0.83722200  1
  Zn  Zn3  1  0.41277800  0.41277800  0.41277800  1
  Zn  Zn4  1  0.83722200  0.83722200  0.83722200  1
  Zn  Zn5  1  0.41277800  0.76166700  0.41277800  1
  Zn  Zn6  1  0.48833300  0.83722200  0.83722200  1
  Zn  Zn7  1  0.41277800  0.41277800  0.76166700  1
  C  C0  1  0.12500000  0.62500000  0.12500000  1
  C  C1  1  0.25000000  0.25000000  0.25000000  1
  C  C2  1  0.00000000  0.00000000  0.00000000  1
  C  C3  1  0.12500000  0.12500000  0.12500000  1
  C  C4  1  0.62500000  0.12500000  0.12500000  1
  C  C5  1  0.12500000  0.12500000  0.62500000  1
loop_
_geom_bond_atom_site_label_1
_geom_bond_atom_site_label_2
_geom_bond_distance
_geom_bond_site_symmetry_2
Nb0 Zn7 2.783597 1_554
Nb0 Zn3 2.783606 1_555
Nb0 Zn6 3.064422 1_554
Nb0 Zn2 3.064422 1_554
Nb1 Zn5 2.783602 1_545
Nb1 Zn7 2.783602 1_554
Nb1 Zn4 3.064425 1_544
Nb1 Zn6 3.064430 1_544
Nb2 Zn5 2.783602 1_545
Nb2 Zn1 2.783602 1_455
Nb2 Zn4 3.064425 1_445
Nb2 Zn0 3.064430 1_445
Nb3 Zn2 2.783602 1_455
Nb3 Zn6 2.783602 1_545
Nb3 Zn3 3.064425 1_555
Nb3 Zn7 3.064430 1_555
Nb4 Zn7 2.783602 1_554
Nb4 Zn1 2.783602 1_455
Nb4 Zn4 3.064425 1_454
Nb4 Zn2 3.064430 1_454
Nb5 Zn0 2.783602 1_545
Nb5 Zn2 2.783602 1_554
Nb5 Zn3 3.064425 1_555
Nb5 Zn1 3.064430 1_555
Nb6 Zn6 2.628654 1_555
Nb6 Zn2 2.628654 1_555
Nb6 Zn0 2.628654 1_555
Nb6 Zn1 2.628654 1_555
Nb6 Zn7 2.628654 1_555
Nb6 Zn5 2.628654 1_555
Nb7 Zn6 2.783602 1_554
Nb7 Zn0 2.783602 1_455
Nb7 Zn3 3.064425 1_555
Nb7 Zn5 3.064430 1_555
Nb8 Zn4 2.628656 1_455
Nb8 Zn3 2.628656 1_555
Nb8 Zn5 2.628661 1_555
Nb8 Zn7 2.628661 1_555
Nb8 Zn2 2.628661 1_455
Nb8 Zn0 2.628661 1_455
Nb9 Zn2 2.783597 1_555
Nb9 Zn4 2.783606 1_545
Nb9 Zn1 3.064422 1_555
Nb9 Zn7 3.064422 1_555
Nb10 Zn5 2.783597 1_545
Nb10 Zn3 2.783606 1_555
Nb10 Zn6 3.064422 1_545
Nb10 Zn0 3.064422 1_545
Nb11 Zn1 2.783597 1_455
Nb11 Zn3 2.783606 1_555
Nb11 Zn0 3.064422 1_455
Nb11 Zn2 3.064422 1_455
Nb12 Zn6 2.783597 1_555
Nb12 Zn4 2.783606 1_455
Nb12 Zn7 3.064422 1_555
Nb12 Zn5 3.064422 1_555
Nb13 Zn4 2.628656 1_545
Nb13 Zn3 2.628656 1_555
Nb13 Zn1 2.628661 1_555
Nb13 Zn7 2.628661 1_555
Nb13 Zn0 2.628661 1_545
Nb13 Zn6 2.628661 1_545
Nb14 Zn4 2.628656 1_554
Nb14 Zn3 2.628656 1_555
Nb14 Zn1 2.628661 1_555
Nb14 Zn5 2.628661 1_555
Nb14 Zn6 2.628661 1_554
Nb14 Zn2 2.628661 1_554
Nb15 Zn0 2.783597 1_555
Nb15 Zn4 2.783606 1_554
Nb15 Zn1 3.064422 1_555
Nb15 Zn5 3.064422 1_555
Zn0 Zn6 2.963276 1_555
Zn0 Zn4 2.963276 1_555
Zn0 Zn2 2.963276 1_555
Zn1 Zn7 2.963276 1_555
Zn1 Zn5 2.963276 1_555
Zn1 Zn3 2.963276 1_555
Zn2 Zn6 2.963276 1_555
Zn2 Zn4 2.963276 1_555
Zn3 Zn7 2.963276 1_555
Zn3 Zn5 2.963276 1_555
Zn4 Zn6 2.963276 1_555
Zn5 Zn7 2.963276 1_555
C0 Nb7 2.260114 1_555
C0 Nb15 2.260114 1_455
C0 Nb11 2.260114 1_555
C0 Nb0 2.260114 1_555
C0 Nb12 2.260114 1_554
C0 Nb4 2.260114 1_555
C1 Nb10 2.275676 1_555
C1 Nb4 2.275676 1_555
C1 Nb1 2.275676 1_555
C1 Nb2 2.275676 1_555
C1 Nb11 2.275676 1_555
C1 Nb0 2.275676 1_555
C2 Nb12 2.275676 1_544
C2 Nb15 2.275676 1_445
C2 Nb5 2.275676 1_455
C2 Nb7 2.275676 1_545
C2 Nb9 2.275676 1_454
C2 Nb3 2.275676 1_554
C3 Nb5 2.260114 1_455
C3 Nb7 2.260114 1_545
C3 Nb3 2.260114 1_554
C3 Nb2 2.260114 1_555
C3 Nb4 2.260114 1_555
C3 Nb1 2.260114 1_555
C4 Nb10 2.260114 1_555
C4 Nb15 2.260114 1_545
C4 Nb5 2.260114 1_555
C4 Nb0 2.260114 1_555
C4 Nb9 2.260114 1_554
C4 Nb1 2.260114 1_555
C5 Nb10 2.260114 1_555
C5 Nb9 2.260114 1_455
C5 Nb2 2.260114 1_555
C5 Nb11 2.260114 1_555
C5 Nb12 2.260114 1_545
C5 Nb3 2.260114 1_555
