# generated using pymatgen
data_Sr14Fe14O39
_symmetry_space_group_name_H-M   'P 1'
_cell_length_a   5.57343671
_cell_length_b   38.90547936
_cell_length_c   14.70648869
_cell_angle_alpha   19.07174509
_cell_angle_beta   55.28207153
_cell_angle_gamma   59.82543588
_symmetry_Int_Tables_number   1
_chemical_formula_structural   Sr14Fe14O39
_chemical_formula_sum   'Sr14 Fe14 O39'
_cell_volume   848.90126873
_cell_formula_units_Z   1
loop_
 _symmetry_equiv_pos_site_id
 _symmetry_equiv_pos_as_xyz
  1  'x, y, z'
loop_
 _atom_site_type_symbol
 _atom_site_label
 _atom_site_symmetry_multiplicity
 _atom_site_fract_x
 _atom_site_fract_y
 _atom_site_fract_z
 _atom_site_occupancy
  Sr  Sr0  1  0.24738200  0.11588700  0.23011100  1
  Sr  Sr1  1  0.25575100  0.25638100  0.22697100  1
  Sr  Sr2  1  0.25428600  0.39365500  0.24085000  1
  Sr  Sr3  1  0.77047500  0.03709600  0.73617000  1
  Sr  Sr4  1  0.73484600  0.18207200  0.74762400  1
  Sr  Sr5  1  0.24085700  0.53723200  0.25524500  1
  Sr  Sr6  1  0.73515900  0.31751300  0.76507000  1
  Sr  Sr7  1  0.25475600  0.66820200  0.27187400  1
  Sr  Sr8  1  0.75286900  0.46603000  0.74355200  1
  Sr  Sr9  1  0.25437900  0.82114600  0.24895600  1
  Sr  Sr10  1  0.24518500  0.95822700  0.27061300  1
  Sr  Sr11  1  0.77094000  0.61157500  0.72979900  1
  Sr  Sr12  1  0.74457900  0.74545200  0.76457400  1
  Sr  Sr13  1  0.74987200  0.89230000  0.75198500  1
  Fe  Fe0  1  0.98183300  0.99231300  0.01354500  1
  Fe  Fe1  1  0.50739700  0.07245600  0.49424300  1
  Fe  Fe2  1  0.00125300  0.13973800  0.00842200  1
  Fe  Fe3  1  0.00233300  0.42994300  0.99696600  1
  Fe  Fe4  1  0.51818800  0.22070700  0.48629200  1
  Fe  Fe5  1  0.99452000  0.28646300  0.99838500  1
  Fe  Fe6  1  0.52297900  0.35114600  0.51241100  1
  Fe  Fe7  1  0.50492000  0.49897300  0.50085300  1
  Fe  Fe8  1  0.97611100  0.58056200  0.97831500  1
  Fe  Fe9  1  0.98414500  0.85452600  0.01729700  1
  Fe  Fe10  1  0.50955400  0.64324900  0.49616100  1
  Fe  Fe11  1  0.99608700  0.71444700  0.00179200  1
  Fe  Fe12  1  0.48055700  0.78565500  0.50409300  1
  Fe  Fe13  1  0.52456200  0.93285500  0.47634900  1
  O  O0  1  0.24535200  0.03191600  0.26967300  1
  O  O1  1  0.24938500  0.18091400  0.24123500  1
  O  O2  1  0.71452900  0.02516000  0.29290400  1
  O  O3  1  0.75352500  0.10978100  0.24360600  1
  O  O4  1  0.26682700  0.03951100  0.74085800  1
  O  O5  1  0.22675100  0.30822800  0.28938300  1
  O  O6  1  0.75760600  0.18042100  0.24213800  1
  O  O7  1  0.71039100  0.23778800  0.28768900  1
  O  O8  1  0.23930600  0.16157800  0.78630900  1
  O  O9  1  0.75724300  0.10855100  0.74302900  1
  O  O10  1  0.25087500  0.26142800  0.71689600  1
  O  O11  1  0.74641400  0.32500900  0.24628500  1
  O  O12  1  0.24206800  0.33462900  0.70944200  1
  O  O13  1  0.72152300  0.40389000  0.23062400  1
  O  O14  1  0.75799300  0.24512900  0.75694100  1
  O  O15  1  0.75786500  0.46421100  0.24655000  1
  O  O16  1  0.26662200  0.60877100  0.23903900  1
  O  O17  1  0.24036000  0.39084200  0.75757000  1
  O  O18  1  0.25373400  0.46322200  0.75202400  1
  O  O19  1  0.78160500  0.52507300  0.26805500  1
  O  O20  1  0.74479000  0.39082000  0.75773500  1
  O  O21  1  0.25852600  0.75412200  0.23215900  1
  O  O22  1  0.75473100  0.60666300  0.24865100  1
  O  O23  1  0.25116200  0.53225900  0.75951500  1
  O  O24  1  0.26489600  0.60490700  0.75740000  1
  O  O25  1  0.75564000  0.67577900  0.25471200  1
  O  O26  1  0.75667200  0.53858500  0.74162000  1
  O  O27  1  0.25467300  0.90199800  0.22770900  1
  O  O28  1  0.78336900  0.75785800  0.21749000  1
  O  O29  1  0.24827700  0.67235600  0.76668000  1
  O  O30  1  0.23254400  0.75533900  0.74162700  1
  O  O31  1  0.73372200  0.81952200  0.25843200  1
  O  O32  1  0.73275200  0.68135400  0.74780600  1
  O  O33  1  0.25057000  0.82735000  0.74141600  1
  O  O34  1  0.73772600  0.89014200  0.25740000  1
  O  O35  1  0.79208300  0.98102000  0.20081000  1
  O  O36  1  0.72053800  0.82239300  0.76002000  1
  O  O37  1  0.25484200  0.96212400  0.74737000  1
  O  O38  1  0.78106100  0.96324000  0.73887000  1
loop_
_geom_bond_atom_site_label_1
_geom_bond_atom_site_label_2
_geom_bond_distance
_geom_bond_site_symmetry_2
Fe0 O34 1.856329 1_555
Fe0 O4 1.932363 1_664
Fe0 O27 1.934966 1_655
Fe0 O35 1.938656 1_555
Fe0 O9 1.954389 1_564
Fe1 O3 1.924161 1_555
Fe1 O6 1.973922 1_555
Fe1 O4 1.999005 1_555
Fe1 O1 2.008773 1_555
Fe1 O38 2.040650 1_545
Fe1 O37 2.040997 1_545
Fe2 O3 1.945734 1_455
Fe2 O14 1.946179 1_454
Fe2 O0 1.990367 1_555
Fe2 O8 2.025497 1_554
Fe2 O10 2.047185 1_554
Fe2 O2 2.054689 1_455
Fe3 O23 1.929042 1_555
Fe3 O11 1.935798 1_456
Fe3 O18 1.968313 1_555
Fe3 O26 1.969367 1_455
Fe3 O5 2.040100 1_556
Fe3 O13 2.042049 1_456
Fe4 O11 1.882602 1_555
Fe4 O7 1.898102 1_555
Fe4 O8 1.942276 1_555
Fe4 O5 1.943717 1_555
Fe4 O9 1.953238 1_555
Fe5 O20 1.927761 1_555
Fe5 O6 1.935000 1_556
Fe5 O17 1.947324 1_655
Fe5 O1 1.956745 1_656
Fe5 O7 2.075155 1_556
Fe5 O12 2.083566 1_655
Fe6 O14 1.886188 1_555
Fe6 O12 1.893309 1_555
Fe6 O13 1.895781 1_555
Fe6 O15 1.949260 1_555
Fe6 O10 1.952529 1_555
Fe7 O20 1.953252 1_555
Fe7 O22 1.964038 1_555
Fe7 O16 1.966921 1_555
Fe7 O18 1.973446 1_555
Fe7 O17 1.999669 1_555
Fe7 O19 2.029652 1_555
Fe8 O32 1.863345 1_555
Fe8 O19 1.922340 1_556
Fe8 O29 1.949317 1_655
Fe8 O24 1.949988 1_655
Fe8 O15 1.961637 1_556
Fe9 O31 1.876879 1_555
Fe9 O28 1.900753 1_555
Fe9 O38 1.915001 1_554
Fe9 O37 1.916853 1_654
Fe9 O21 1.936454 1_655
Fe10 O26 1.936380 1_555
Fe10 O25 1.947931 1_555
Fe10 O23 2.001540 1_555
Fe10 O24 2.022224 1_555
Fe10 O21 2.025430 1_555
Fe10 O28 2.044886 1_555
Fe11 O25 1.914677 1_555
Fe11 O30 1.940413 1_654
Fe11 O22 1.976246 1_555
Fe11 O16 1.999043 1_655
Fe11 O36 2.036893 1_554
Fe11 O33 2.062050 1_654
Fe12 O34 1.949000 1_555
Fe12 O32 1.949732 1_555
Fe12 O31 1.960552 1_555
Fe12 O30 1.963547 1_555
Fe12 O29 1.971036 1_555
Fe12 O27 1.979446 1_555
Fe13 O2 1.884482 1_565
Fe13 O36 1.910142 1_555
Fe13 O33 1.910952 1_555
Fe13 O35 1.930901 1_555
Fe13 O0 1.931248 1_565
O0 Sr13 2.717133 1_445
O0 Sr0 2.729155 1_555
O0 Sr4 2.810572 1_554
O0 Sr10 2.854312 1_545
O1 Sr6 2.670990 1_554
O1 Sr0 2.690746 1_555
O1 Sr3 2.704227 1_455
O1 Sr1 2.756423 1_555
O2 Sr13 2.620209 1_545
O2 Sr0 2.725731 1_555
O2 Sr10 2.898753 1_645
O2 Sr4 2.951718 1_554
O3 Sr6 2.708132 1_554
O3 Sr0 2.760060 1_655
O3 Sr13 2.813282 1_545
O3 Sr0 2.815767 1_555
O4 Sr3 2.723927 1_555
O4 Sr1 2.790363 1_555
O4 Sr9 2.832472 1_546
O4 Sr3 2.856092 1_455
O5 Sr4 2.642272 1_455
O5 Sr2 2.735534 1_555
O5 Sr1 2.817859 1_555
O5 Sr8 2.976266 1_554
O6 Sr0 2.680705 1_655
O6 Sr6 2.698716 1_554
O6 Sr3 2.738266 1_555
O6 Sr1 2.786018 1_555
O7 Sr3 2.668894 1_555
O7 Sr1 2.693522 1_555
O7 Sr1 2.908108 1_655
O7 Sr8 2.929567 1_554
O8 Sr10 2.610530 1_546
O8 Sr4 2.752340 1_455
O8 Sr4 2.855479 1_555
O8 Sr2 2.994624 1_555
O9 Sr1 2.816842 1_655
O9 Sr3 2.838917 1_555
O9 Sr4 2.863335 1_555
O9 Sr10 2.886593 1_546
O10 Sr2 2.710689 1_555
O10 Sr4 2.718734 1_555
O10 Sr6 2.796861 1_455
O10 Sr0 2.861755 1_556
O11 Sr2 2.672924 1_555
O11 Sr4 2.758116 1_555
O11 Sr8 2.826003 1_554
O11 Sr1 2.857229 1_655
O12 Sr5 2.687846 1_555
O12 Sr6 2.706175 1_455
O12 Sr0 2.808433 1_556
O12 Sr6 2.890831 1_555
O13 Sr11 2.654510 1_554
O13 Sr2 2.728686 1_555
O13 Sr2 2.864419 1_655
O13 Sr4 2.874326 1_555
O14 Sr4 2.650963 1_555
O14 Sr0 2.737561 1_556
O14 Sr2 2.810887 1_655
O14 Sr6 2.867030 1_555
O15 Sr2 2.780836 1_655
O15 Sr11 2.839158 1_554
O15 Sr6 2.846118 1_555
O15 Sr5 2.903090 1_555
O16 Sr5 2.633038 1_555
O16 Sr12 2.644392 1_554
O16 Sr7 2.739374 1_555
O16 Sr8 2.826758 1_455
O17 Sr1 2.643993 1_556
O17 Sr5 2.733959 1_555
O17 Sr8 2.736771 1_455
O17 Sr6 2.756620 1_555
O18 Sr7 2.648854 1_555
O18 Sr1 2.701474 1_556
O18 Sr8 2.766114 1_555
O18 Sr8 2.807851 1_455
O19 Sr6 2.660716 1_555
O19 Sr5 2.703770 1_655
O19 Sr12 2.888178 1_554
O19 Sr5 2.896115 1_555
O20 Sr1 2.662352 1_556
O20 Sr8 2.752377 1_555
O20 Sr5 2.773556 1_655
O20 Sr6 2.777488 1_555
O21 Sr13 2.698220 1_554
O21 Sr11 2.734824 1_455
O21 Sr7 2.807450 1_555
O21 Sr9 2.830480 1_555
O22 Sr5 2.663410 1_655
O22 Sr12 2.707636 1_554
O22 Sr7 2.714521 1_555
O22 Sr8 2.758182 1_555
O23 Sr2 2.660899 1_556
O23 Sr11 2.712460 1_455
O23 Sr7 2.766078 1_555
O23 Sr8 2.768746 1_555
O24 Sr11 2.723816 1_555
O24 Sr2 2.767315 1_556
O24 Sr9 2.790683 1_555
O24 Sr11 2.857823 1_455
O25 Sr8 2.717380 1_555
O25 Sr7 2.779158 1_655
O25 Sr7 2.797847 1_555
O25 Sr13 2.810445 1_554
O26 Sr7 2.690522 1_655
O26 Sr11 2.716362 1_555
O26 Sr2 2.782261 1_556
O26 Sr8 2.806642 1_555
O27 Sr10 2.764304 1_555
O27 Sr3 2.800990 1_564
O27 Sr9 2.852903 1_555
O27 Sr12 2.908169 1_455
O28 Sr13 2.655105 1_554
O28 Sr7 2.759848 1_655
O28 Sr11 2.812602 1_555
O28 Sr9 2.875971 1_555
O29 Sr5 2.783105 1_556
O29 Sr12 2.806480 1_455
O29 Sr11 2.841066 1_555
O29 Sr9 2.841450 1_555
O30 Sr10 2.635284 1_555
O30 Sr12 2.723810 1_455
O30 Sr5 2.812593 1_556
O30 Sr12 2.855539 1_555
O31 Sr9 2.720028 1_555
O31 Sr11 2.737144 1_555
O31 Sr3 2.783024 1_564
O31 Sr9 2.855025 1_655
O32 Sr12 2.762278 1_555
O32 Sr5 2.775134 1_556
O32 Sr9 2.834358 1_655
O32 Sr11 2.863453 1_555
O33 Sr10 2.703812 1_555
O33 Sr13 2.712282 1_455
O33 Sr7 2.820571 1_556
O33 Sr12 2.836721 1_555
O34 Sr10 2.765063 1_555
O34 Sr9 2.822259 1_655
O34 Sr12 2.840118 1_555
O34 Sr3 2.845192 1_564
O35 Sr4 2.660336 1_564
O35 Sr10 2.683006 1_655
O35 Sr10 2.926329 1_555
O35 Sr12 3.019005 1_555
O36 Sr13 2.693571 1_555
O36 Sr7 2.725686 1_556
O36 Sr10 2.818868 1_655
O36 Sr12 2.865503 1_555
O37 Sr13 2.706781 1_555
O37 Sr3 2.739596 1_465
O37 Sr0 2.783492 1_565
O37 Sr9 2.830701 1_556
O38 Sr13 2.668830 1_555
O38 Sr0 2.716712 1_665
O38 Sr3 2.806792 1_565
O38 Sr9 2.879920 1_556
