# generated using pymatgen
data_Th10N9F13
_symmetry_space_group_name_H-M   'P 1'
_cell_length_a   4.06280000
_cell_length_b   4.06280000
_cell_length_c   29.44533500
_cell_angle_alpha   90.00000000
_cell_angle_beta   90.00000000
_cell_angle_gamma   90.00000000
_symmetry_Int_Tables_number   1
_chemical_formula_structural   Th10N9F13
_chemical_formula_sum   'Th10 N9 F13'
_cell_volume   486.03482399
_cell_formula_units_Z   1
loop_
 _symmetry_equiv_pos_site_id
 _symmetry_equiv_pos_as_xyz
  1  'x, y, z'
loop_
 _atom_site_type_symbol
 _atom_site_label
 _atom_site_symmetry_multiplicity
 _atom_site_fract_x
 _atom_site_fract_y
 _atom_site_fract_z
 _atom_site_occupancy
  Th  Th0  1  0.00000000  0.50000000  0.74102600  1
  Th  Th1  1  0.00000000  0.50000000  0.94068400  1
  Th  Th2  1  0.00000000  0.50000000  0.54428200  1
  Th  Th3  1  0.00000000  0.50000000  0.33963400  1
  Th  Th4  1  0.00000000  0.50000000  0.13963000  1
  Th  Th5  1  0.50000000  0.00000000  0.66036600  1
  Th  Th6  1  0.50000000  0.00000000  0.86037000  1
  Th  Th7  1  0.50000000  0.00000000  0.05931600  1
  Th  Th8  1  0.50000000  0.00000000  0.25897400  1
  Th  Th9  1  0.50000000  0.00000000  0.45571800  1
  N  N0  1  0.00000000  0.00000000  0.69997800  1
  N  N1  1  0.00000000  0.00000000  0.09951200  1
  N  N2  1  0.00000000  0.00000000  0.90048800  1
  N  N3  1  0.00000000  0.00000000  0.30002200  1
  N  N4  1  0.50000000  0.50000000  0.70146700  1
  N  N5  1  0.50000000  0.50000000  0.90062900  1
  N  N6  1  0.50000000  0.50000000  0.09937100  1
  N  N7  1  0.50000000  0.50000000  0.29853300  1
  N  N8  1  0.50000000  0.50000000  0.50000000  1
  F  F0  1  0.50000000  0.50000000  0.60384300  1
  F  F1  1  0.00000000  0.00000000  0.59931400  1
  F  F2  1  0.00000000  0.00000000  0.50000000  1
  F  F3  1  0.00000000  0.00000000  0.00000000  1
  F  F4  1  0.00000000  0.00000000  0.80051800  1
  F  F5  1  0.00000000  0.00000000  0.40068600  1
  F  F6  1  0.00000000  0.00000000  0.19948200  1
  F  F7  1  0.00000000  0.50000000  0.44868200  1
  F  F8  1  0.50000000  0.50000000  0.80116600  1
  F  F9  1  0.50000000  0.00000000  0.55131800  1
  F  F10  1  0.50000000  0.50000000  0.00000000  1
  F  F11  1  0.50000000  0.50000000  0.19883400  1
  F  F12  1  0.50000000  0.50000000  0.39615700  1
loop_
_geom_bond_atom_site_label_1
_geom_bond_atom_site_label_2
_geom_bond_distance
_geom_bond_site_symmetry_2
N0 Th5 2.342445 1_455
N0 Th5 2.342445 1_555
N0 Th0 2.363784 1_545
N0 Th0 2.363784 1_555
N1 Th4 2.349899 1_555
N1 Th4 2.349899 1_545
N1 Th7 2.351055 1_455
N1 Th7 2.351055 1_555
N2 Th6 2.349899 1_455
N2 Th6 2.349899 1_555
N2 Th1 2.351055 1_555
N2 Th1 2.351055 1_545
N3 Th3 2.342445 1_555
N3 Th3 2.342445 1_545
N3 Th8 2.363784 1_555
N3 Th8 2.363784 1_455
N4 Th0 2.341668 1_655
N4 Th0 2.341668 1_555
N4 Th5 2.364582 1_565
N4 Th5 2.364582 1_555
N5 Th1 2.348967 1_555
N5 Th1 2.348967 1_655
N5 Th6 2.351989 1_565
N5 Th6 2.351989 1_555
N6 Th7 2.348967 1_565
N6 Th7 2.348967 1_555
N6 Th4 2.351989 1_655
N6 Th4 2.351989 1_555
N7 Th8 2.341668 1_555
N7 Th8 2.341668 1_565
N7 Th3 2.364582 1_555
N7 Th3 2.364582 1_655
N8 Th9 2.413863 1_555
N8 Th9 2.413863 1_565
N8 Th2 2.413863 1_555
N8 Th2 2.413863 1_655
F0 Th5 2.626140 1_555
F0 Th5 2.626140 1_565
F0 Th2 2.683725 1_555
F0 Th2 2.683725 1_655
F1 Th2 2.598538 1_555
F1 Th2 2.598538 1_545
F1 Th5 2.712618 1_555
F1 Th5 2.712618 1_455
F2 Th9 2.413863 1_555
F2 Th9 2.413863 1_455
F2 Th2 2.413863 1_555
F2 Th2 2.413863 1_545
F3 Th7 2.679016 1_455
F3 Th7 2.679016 1_555
F3 Th1 2.679016 1_544
F3 Th1 2.679016 1_554
F4 Th0 2.682397 1_555
F4 Th0 2.682397 1_545
F4 Th6 2.689332 1_455
F4 Th6 2.689332 1_555
F5 Th9 2.598538 1_555
F5 Th9 2.598538 1_455
F5 Th3 2.712618 1_545
F5 Th3 2.712618 1_555
F6 Th8 2.682397 1_555
F6 Th8 2.682397 1_455
F6 Th4 2.689332 1_555
F6 Th4 2.689332 1_545
F7 Th2 2.814974 1_555
F7 Th9 2.880294 1_455
F7 Th9 2.880294 1_565
F7 Th9 2.880294 1_555
F7 Th9 2.880294 1_465
F8 Th6 2.676867 1_565
F8 Th6 2.676867 1_555
F8 Th0 2.694897 1_655
F8 Th0 2.694897 1_555
F9 Th9 2.814974 1_555
F9 Th2 2.880294 1_645
F9 Th2 2.880294 1_655
F9 Th2 2.880294 1_555
F9 Th2 2.880294 1_545
F10 Th7 2.679016 1_555
F10 Th7 2.679016 1_565
F10 Th1 2.679016 1_554
F10 Th1 2.679016 1_654
F11 Th4 2.676867 1_555
F11 Th4 2.676867 1_655
F11 Th8 2.694897 1_565
F11 Th8 2.694897 1_555
F12 Th3 2.626140 1_555
F12 Th3 2.626140 1_655
F12 Th9 2.683725 1_555
F12 Th9 2.683725 1_565
