# generated using pymatgen
data_Rb2Pd3S4
_symmetry_space_group_name_H-M   'P 1'
_cell_length_a   8.72030502
_cell_length_b   7.58133283
_cell_length_c   6.23618883
_cell_angle_alpha   77.58873443
_cell_angle_beta   58.11076047
_cell_angle_gamma   44.30050510
_symmetry_Int_Tables_number   1
_chemical_formula_structural   Rb2Pd3S4
_chemical_formula_sum   'Rb2 Pd3 S4'
_cell_volume   235.05278603
_cell_formula_units_Z   1
loop_
 _symmetry_equiv_pos_site_id
 _symmetry_equiv_pos_as_xyz
  1  'x, y, z'
loop_
 _atom_site_type_symbol
 _atom_site_label
 _atom_site_symmetry_multiplicity
 _atom_site_fract_x
 _atom_site_fract_y
 _atom_site_fract_z
 _atom_site_occupancy
  Rb  Rb0  1  0.83853700  0.84094800  0.16552700  1
  Rb  Rb1  1  0.14894100  0.16694300  0.84651200  1
  Pd  Pd0  1  0.99107900  0.00475600  0.50268800  1
  Pd  Pd1  1  0.49893100  0.49683100  0.50806600  1
  Pd  Pd2  1  0.50660700  0.49668000  0.00165400  1
  S  S0  1  0.22696600  0.55709100  0.43687100  1
  S  S1  1  0.45023700  0.77141800  0.21304000  1
  S  S2  1  0.56459500  0.21399300  0.77076200  1
  S  S3  1  0.78454200  0.43955000  0.56147300  1
loop_
_geom_bond_atom_site_label_1
_geom_bond_atom_site_label_2
_geom_bond_distance
_geom_bond_site_symmetry_2
Rb0 S0 3.608956 1_655
Rb0 S3 3.629310 1_555
Rb0 S1 3.641289 1_555
Rb0 S2 3.649113 1_564
Rb0 S2 3.652760 1_565
Rb0 S0 3.708318 1_565
Rb0 S2 3.771669 1_654
Rb0 S0 3.776272 1_654
Rb1 S3 3.537949 1_455
Rb1 S1 3.629155 1_456
Rb1 S1 3.638858 1_546
Rb1 S2 3.668440 1_555
Rb1 S0 3.678849 1_555
Rb1 S3 3.720163 1_456
Rb1 S3 3.787469 1_545
Rb1 S1 3.788056 1_545
Pd0 S2 2.295441 1_555
Pd0 S3 2.359636 1_555
Pd0 S0 2.373232 1_645
Pd0 S1 2.453081 1_645
Pd0 Rb0 3.764939 1_545
Pd0 Rb1 3.802630 1_654
Pd0 Rb1 3.831323 1_655
Pd0 Rb0 3.840145 1_546
Pd1 S2 2.309382 1_555
Pd1 S0 2.346247 1_555
Pd1 S3 2.401828 1_555
Pd1 S1 2.410958 1_555
Pd1 Rb1 3.852387 1_654
Pd1 Rb0 3.855212 1_545
Pd1 Rb0 3.863522 1_456
Pd1 Rb1 3.897272 1_565
Pd2 S1 2.312547 1_555
Pd2 S0 2.337847 1_555
Pd2 S3 2.361399 1_554
Pd2 S2 2.434751 1_554
Pd2 Rb1 3.719063 1_654
Pd2 Rb0 3.805428 1_545
Pd2 Rb1 3.856766 1_564
Pd2 Rb0 3.858481 1_455
