# generated using pymatgen
data_Na3CuSnSe4
_symmetry_space_group_name_H-M   'P 1'
_cell_length_a   10.32011200
_cell_length_b   6.90717700
_cell_length_c   14.80448855
_cell_angle_alpha   62.67032396
_cell_angle_beta   90.00000000
_cell_angle_gamma   90.00000000
_symmetry_Int_Tables_number   1
_chemical_formula_structural   Na3CuSnSe4
_chemical_formula_sum   'Na12 Cu4 Sn4 Se16'
_cell_volume   937.51227130
_cell_formula_units_Z   4
loop_
 _symmetry_equiv_pos_site_id
 _symmetry_equiv_pos_as_xyz
  1  'x, y, z'
loop_
 _atom_site_type_symbol
 _atom_site_label
 _atom_site_symmetry_multiplicity
 _atom_site_fract_x
 _atom_site_fract_y
 _atom_site_fract_z
 _atom_site_occupancy
  Na  Na0  1  0.89674800  0.74227400  0.48321700  1
  Na  Na1  1  0.36051300  0.82669000  0.62378200  1
  Na  Na2  1  0.39674800  0.25772600  0.01678300  1
  Na  Na3  1  0.63948700  0.17331000  0.37621800  1
  Na  Na4  1  0.88284100  0.38769300  0.12466700  1
  Na  Na5  1  0.61715900  0.38769300  0.62466700  1
  Na  Na6  1  0.60325200  0.74227400  0.98321700  1
  Na  Na7  1  0.38284100  0.61230700  0.37533300  1
  Na  Na8  1  0.13948700  0.82669000  0.12378200  1
  Na  Na9  1  0.86051300  0.17331000  0.87621800  1
  Na  Na10  1  0.11715900  0.61230700  0.87533300  1
  Na  Na11  1  0.10325200  0.25772600  0.51678300  1
  Cu  Cu0  1  0.60226900  0.62114400  0.78604300  1
  Cu  Cu1  1  0.10226900  0.37885600  0.71395700  1
  Cu  Cu2  1  0.39773100  0.37885600  0.21395700  1
  Cu  Cu3  1  0.89773100  0.62114400  0.28604300  1
  Sn  Sn0  1  0.86134100  0.88950500  0.69523400  1
  Sn  Sn1  1  0.63865900  0.88950500  0.19523400  1
  Sn  Sn2  1  0.36134100  0.11049500  0.80476600  1
  Sn  Sn3  1  0.13865900  0.11049500  0.30476600  1
  Se  Se0  1  0.15846600  0.14371500  0.89797200  1
  Se  Se1  1  0.92791800  0.23039000  0.35728600  1
  Se  Se2  1  0.89738000  0.28643900  0.65923500  1
  Se  Se3  1  0.68100500  0.62135500  0.38301000  1
  Se  Se4  1  0.57208200  0.23039000  0.85728600  1
  Se  Se5  1  0.65846600  0.85628500  0.60202800  1
  Se  Se6  1  0.10262000  0.71356100  0.34076500  1
  Se  Se7  1  0.07208200  0.76961000  0.64271400  1
  Se  Se8  1  0.31899500  0.37864500  0.61699000  1
  Se  Se9  1  0.42791800  0.76961000  0.14271400  1
  Se  Se10  1  0.60262000  0.28643900  0.15923500  1
  Se  Se11  1  0.39738000  0.71356100  0.84076500  1
  Se  Se12  1  0.34153400  0.14371500  0.39797200  1
  Se  Se13  1  0.18100500  0.37864500  0.11699000  1
  Se  Se14  1  0.84153400  0.85628500  0.10202800  1
  Se  Se15  1  0.81899500  0.62135500  0.88301000  1
loop_
_geom_bond_atom_site_label_1
_geom_bond_atom_site_label_2
_geom_bond_distance
_geom_bond_site_symmetry_2
Na0 Se3 2.998894 1_555
Na0 Se2 3.028225 1_555
Na0 Se1 3.028975 1_565
Na0 Se7 3.048738 1_655
Na0 Se6 3.063492 1_655
Na0 Se5 3.321601 1_555
Na1 Se11 2.961339 1_555
Na1 Se7 2.998820 1_555
Na1 Se12 3.047515 1_565
Na1 Se5 3.088708 1_555
Na1 Se8 3.171240 1_555
Na2 Se13 2.998894 1_555
Na2 Se11 3.028225 1_554
Na2 Se9 3.028975 1_545
Na2 Se4 3.048738 1_554
Na2 Se10 3.063492 1_555
Na2 Se0 3.321601 1_554
Na3 Se10 2.961339 1_555
Na3 Se1 2.998820 1_555
Na3 Se5 3.047515 1_545
Na3 Se12 3.088708 1_555
Na3 Se3 3.171240 1_555
Na4 Se10 2.964041 1_555
Na4 Se13 3.080877 1_655
Na4 Se14 3.126319 1_555
Na4 Se1 3.133843 1_555
Na4 Se15 3.245980 1_554
Na5 Se2 2.964041 1_555
Na5 Se8 3.080877 1_555
Na5 Se5 3.126319 1_555
Na5 Se4 3.133843 1_555
Na5 Se3 3.245980 1_555
Na6 Se15 2.998894 1_555
Na6 Se10 3.028225 1_556
Na6 Se4 3.028975 1_565
Na6 Se9 3.048738 1_556
Na6 Se11 3.063492 1_555
Na6 Se14 3.321601 1_556
Na7 Se6 2.964041 1_555
Na7 Se3 3.080877 1_555
Na7 Se12 3.126319 1_555
Na7 Se9 3.133843 1_555
Na7 Se8 3.245980 1_555
Na8 Se6 2.961339 1_555
Na8 Se9 2.998820 1_555
Na8 Se0 3.047515 1_564
Na8 Se14 3.088708 1_455
Na8 Se13 3.171240 1_555
Na9 Se2 2.961339 1_555
Na9 Se4 2.998820 1_555
Na9 Se14 3.047515 1_546
Na9 Se0 3.088708 1_655
Na9 Se15 3.171240 1_555
Na10 Se11 2.964041 1_555
Na10 Se15 3.080877 1_455
Na10 Se0 3.126319 1_555
Na10 Se7 3.133843 1_555
Na10 Se13 3.245980 1_556
Na11 Se8 2.998894 1_555
Na11 Se6 3.028225 1_555
Na11 Se7 3.028975 1_545
Na11 Se1 3.048738 1_455
Na11 Se2 3.063492 1_455
Na11 Se12 3.321601 1_555
Cu0 Se4 2.424920 1_555
Cu0 Se11 2.451460 1_555
Cu0 Se5 2.516547 1_555
Cu0 Se15 2.658056 1_555
Cu1 Se7 2.424920 1_555
Cu1 Se2 2.451460 1_455
Cu1 Se0 2.516547 1_555
Cu1 Se8 2.658056 1_555
Cu2 Se9 2.424920 1_555
Cu2 Se10 2.451460 1_555
Cu2 Se12 2.516547 1_555
Cu2 Se13 2.658056 1_555
Cu3 Se1 2.424920 1_555
Cu3 Se6 2.451460 1_655
Cu3 Se14 2.516547 1_555
Cu3 Se3 2.658056 1_555
Se0 Sn2 2.575065 1_555
Se1 Sn3 2.571317 1_655
Se2 Sn0 2.568572 1_545
Se3 Sn1 2.573263 1_555
Se4 Sn2 2.571317 1_555
Se5 Sn0 2.575065 1_555
Se6 Sn3 2.568572 1_565
Se7 Sn0 2.571317 1_455
Se8 Sn2 2.573263 1_555
Se9 Sn1 2.571317 1_555
Se10 Sn1 2.568572 1_545
Se11 Sn2 2.568572 1_565
Se12 Sn3 2.575065 1_555
Se13 Sn3 2.573263 1_555
Se14 Sn1 2.575065 1_555
Se15 Sn0 2.573263 1_555
