# generated using pymatgen
data_Na2TeHSO5F3
_symmetry_space_group_name_H-M   'P 1'
_cell_length_a   7.57162000
_cell_length_b   8.37559900
_cell_length_c   10.90943033
_cell_angle_alpha   89.67889411
_cell_angle_beta   90.00000000
_cell_angle_gamma   90.00000000
_symmetry_Int_Tables_number   1
_chemical_formula_structural   Na2TeHSO5F3
_chemical_formula_sum   'Na8 Te4 H4 S4 O20 F12'
_cell_volume   691.83087326
_cell_formula_units_Z   4
loop_
 _symmetry_equiv_pos_site_id
 _symmetry_equiv_pos_as_xyz
  1  'x, y, z'
loop_
 _atom_site_type_symbol
 _atom_site_label
 _atom_site_symmetry_multiplicity
 _atom_site_fract_x
 _atom_site_fract_y
 _atom_site_fract_z
 _atom_site_occupancy
  Na  Na0  1  0.50025500  0.44392400  0.75891500  1
  Na  Na1  1  0.00025500  0.55607600  0.74108500  1
  Na  Na2  1  0.49974500  0.55607600  0.24108500  1
  Na  Na3  1  0.99974500  0.44392400  0.25891500  1
  Na  Na4  1  0.23191100  0.25322200  0.52829600  1
  Na  Na5  1  0.73191100  0.74677800  0.97170400  1
  Na  Na6  1  0.76808900  0.74677800  0.47170400  1
  Na  Na7  1  0.26808900  0.25322200  0.02829600  1
  Te  Te0  1  0.46487300  0.91567100  0.71458800  1
  Te  Te1  1  0.96487300  0.08432900  0.78541200  1
  Te  Te2  1  0.53512700  0.08432900  0.28541200  1
  Te  Te3  1  0.03512700  0.91567100  0.21458800  1
  H  H0  1  0.14692800  0.93026500  0.93433800  1
  H  H1  1  0.64692800  0.06973500  0.56566200  1
  H  H2  1  0.85307200  0.06973500  0.06566200  1
  H  H3  1  0.35307200  0.93026500  0.43433800  1
  S  S0  1  0.23768100  0.64189900  0.51232000  1
  S  S1  1  0.73768100  0.35810100  0.98768000  1
  S  S2  1  0.76231900  0.35810100  0.48768000  1
  S  S3  1  0.26231900  0.64189900  0.01232000  1
  O  O0  1  0.15985300  0.03983100  0.89318100  1
  O  O1  1  0.65985300  0.96016900  0.60681900  1
  O  O2  1  0.84014700  0.96016900  0.10681900  1
  O  O3  1  0.34014700  0.03983100  0.39318100  1
  O  O4  1  0.05630500  0.69319000  0.54221800  1
  O  O5  1  0.55630500  0.30681000  0.95778200  1
  O  O6  1  0.94369500  0.30681000  0.45778200  1
  O  O7  1  0.44369500  0.69319000  0.04221800  1
  O  O8  1  0.36515000  0.78510800  0.52933300  1
  O  O9  1  0.86515000  0.21489200  0.97066700  1
  O  O10  1  0.63485000  0.21489200  0.47066700  1
  O  O11  1  0.13485000  0.78510800  0.02933300  1
  O  O12  1  0.29462400  0.51434400  0.59825800  1
  O  O13  1  0.79462400  0.48565600  0.90174200  1
  O  O14  1  0.70537600  0.48565600  0.40174200  1
  O  O15  1  0.20537600  0.51434400  0.09825800  1
  O  O16  1  0.24654500  0.59283800  0.88285800  1
  O  O17  1  0.74654500  0.40716200  0.61714200  1
  O  O18  1  0.75345500  0.40716200  0.11714200  1
  O  O19  1  0.25345500  0.59283800  0.38285800  1
  F  F0  1  0.10189400  0.02694500  0.63942400  1
  F  F1  1  0.60189400  0.97305500  0.86057600  1
  F  F2  1  0.89810600  0.97305500  0.36057600  1
  F  F3  1  0.39810600  0.02694500  0.13942400  1
  F  F4  1  0.09527500  0.28969200  0.76389400  1
  F  F5  1  0.59527500  0.71030800  0.73610600  1
  F  F6  1  0.90472500  0.71030800  0.23610600  1
  F  F7  1  0.40472500  0.28969200  0.26389400  1
  F  F8  1  0.42783400  0.15719100  0.69473900  1
  F  F9  1  0.92783400  0.84280900  0.80526100  1
  F  F10  1  0.57216600  0.84280900  0.30526100  1
  F  F11  1  0.07216600  0.15719100  0.19473900  1
loop_
_geom_bond_atom_site_label_1
_geom_bond_atom_site_label_2
_geom_bond_distance
_geom_bond_site_symmetry_2
Na0 O12 2.415013 1_555
Na0 O17 2.443326 1_555
Na0 O5 2.485532 1_555
Na0 O16 2.663278 1_555
Na0 O13 2.742976 1_555
Na1 O13 2.415013 1_455
Na1 O16 2.443326 1_555
Na1 O4 2.485532 1_555
Na1 O17 2.663278 1_455
Na1 O12 2.742976 1_555
Na2 O14 2.415013 1_555
Na2 O19 2.443326 1_555
Na2 O7 2.485532 1_555
Na2 O18 2.663278 1_555
Na2 O15 2.742976 1_555
Na3 O15 2.415013 1_655
Na3 O18 2.443326 1_555
Na3 O6 2.485532 1_555
Na3 O19 2.663278 1_655
Na3 O14 2.742976 1_555
Na4 O6 2.356188 1_455
Na4 O12 2.368529 1_555
Na4 O3 2.463385 1_555
Na5 O7 2.356188 1_556
Na5 O13 2.368529 1_555
Na5 O2 2.463385 1_556
Na6 O4 2.356188 1_655
Na6 O14 2.368529 1_555
Na6 O1 2.463385 1_555
Na7 O5 2.356188 1_554
Na7 O15 2.368529 1_555
Na7 O0 2.463385 1_554
H0 O0 1.024059 1_565
H0 O11 1.595731 1_556
H1 O1 1.024059 1_545
H1 O10 1.595731 1_555
H2 O2 1.024059 1_545
H2 O9 1.595731 1_554
H3 O3 1.024059 1_565
H3 O8 1.595731 1_555
O0 Te1 1.922437 1_455
O1 Te0 1.922437 1_555
O2 Te3 1.922437 1_655
O3 Te2 1.922437 1_555
O4 S0 1.475970 1_555
O5 S1 1.475970 1_555
O6 S2 1.475970 1_555
O7 S3 1.475970 1_555
O8 S0 1.551502 1_555
O8 Te0 2.423898 1_555
O9 S1 1.551502 1_555
O9 Te1 2.423898 1_555
O10 S2 1.551502 1_555
O10 Te2 2.423898 1_555
O11 S3 1.551502 1_555
O11 Te3 2.423898 1_555
O12 S0 1.481555 1_555
O13 S1 1.481555 1_555
O14 S2 1.481555 1_555
O15 S3 1.481555 1_555
O16 S3 1.477962 1_556
O17 S2 1.477962 1_555
O18 S1 1.477962 1_554
O19 S0 1.477962 1_555
F0 Te1 1.962765 1_455
F0 Na4 2.450499 1_555
F1 Te0 1.962765 1_555
F1 Na5 2.450499 1_555
F2 Te3 1.962765 1_655
F2 Na6 2.450499 1_555
F3 Te2 1.962765 1_555
F3 Na7 2.450499 1_555
F4 Te1 1.995991 1_455
F4 Na1 2.356105 1_555
F4 Na4 2.789004 1_555
F5 Te0 1.995991 1_555
F5 Na0 2.356105 1_555
F5 Na5 2.789004 1_555
F6 Te3 1.995991 1_655
F6 Na3 2.356105 1_555
F6 Na6 2.789004 1_555
F7 Te2 1.995991 1_555
F7 Na2 2.356105 1_555
F7 Na7 2.789004 1_555
F8 Te0 2.052475 1_545
F8 Na4 2.475544 1_555
F8 Na0 2.564604 1_555
F9 Te1 2.052475 1_565
F9 Na5 2.475544 1_555
F9 Na1 2.564604 1_655
F10 Te2 2.052475 1_565
F10 Na6 2.475544 1_555
F10 Na2 2.564604 1_555
F11 Te3 2.052475 1_545
F11 Na7 2.475544 1_555
F11 Na3 2.564604 1_455
