# generated using pymatgen
data_Ce4Si4N7ClO3
_symmetry_space_group_name_H-M   'P 1'
_cell_length_a   10.58963200
_cell_length_b   10.39311100
_cell_length_c   10.45817700
_cell_angle_alpha   90.00000000
_cell_angle_beta   90.00000000
_cell_angle_gamma   90.00000000
_symmetry_Int_Tables_number   1
_chemical_formula_structural   Ce4Si4N7ClO3
_chemical_formula_sum   'Ce16 Si16 N28 Cl4 O12'
_cell_volume   1151.01881187
_cell_formula_units_Z   4
loop_
 _symmetry_equiv_pos_site_id
 _symmetry_equiv_pos_as_xyz
  1  'x, y, z'
loop_
 _atom_site_type_symbol
 _atom_site_label
 _atom_site_symmetry_multiplicity
 _atom_site_fract_x
 _atom_site_fract_y
 _atom_site_fract_z
 _atom_site_occupancy
  Ce  Ce0  1  0.04163200  0.81360800  0.69023900  1
  Ce  Ce1  1  0.10182100  0.10741800  0.10955600  1
  Ce  Ce2  1  0.18011800  0.19530500  0.44979400  1
  Ce  Ce3  1  0.18830100  0.45553300  0.18793300  1
  Ce  Ce4  1  0.31169900  0.54446700  0.68793300  1
  Ce  Ce5  1  0.31988200  0.80469500  0.94979400  1
  Ce  Ce6  1  0.39817900  0.89258200  0.60955600  1
  Ce  Ce7  1  0.45836800  0.18639200  0.19023900  1
  Ce  Ce8  1  0.54163200  0.68639200  0.30976100  1
  Ce  Ce9  1  0.60182100  0.39258200  0.89044400  1
  Ce  Ce10  1  0.68011800  0.30469500  0.55020600  1
  Ce  Ce11  1  0.68830100  0.04446700  0.81206700  1
  Ce  Ce12  1  0.81169900  0.95553300  0.31206700  1
  Ce  Ce13  1  0.81988200  0.69530500  0.05020600  1
  Ce  Ce14  1  0.89817900  0.60741800  0.39044400  1
  Ce  Ce15  1  0.95836800  0.31360800  0.80976100  1
  Si  Si0  1  0.07115000  0.57196900  0.92877800  1
  Si  Si1  1  0.07696900  0.74809000  0.19686300  1
  Si  Si2  1  0.19474100  0.08069700  0.74360000  1
  Si  Si3  1  0.24567300  0.30431100  0.91944100  1
  Si  Si4  1  0.25432700  0.69568900  0.41944100  1
  Si  Si5  1  0.30525900  0.91930300  0.24360000  1
  Si  Si6  1  0.42303100  0.25191000  0.69686300  1
  Si  Si7  1  0.42885000  0.42803100  0.42877800  1
  Si  Si8  1  0.57115000  0.92803100  0.07122200  1
  Si  Si9  1  0.57696900  0.75191000  0.80313700  1
  Si  Si10  1  0.69474100  0.41930300  0.25640000  1
  Si  Si11  1  0.74567300  0.19568900  0.08055900  1
  Si  Si12  1  0.75432700  0.80431100  0.58055900  1
  Si  Si13  1  0.80525900  0.58069700  0.75640000  1
  Si  Si14  1  0.92303100  0.24809000  0.30313700  1
  Si  Si15  1  0.92885000  0.07196900  0.57122200  1
  N  N0  1  0.05606700  0.63463200  0.07800000  1
  N  N1  1  0.07657800  0.28812500  0.26162300  1
  N  N2  1  0.07605700  0.05459700  0.63589400  1
  N  N3  1  0.12920100  0.65245700  0.32511600  1
  N  N4  1  0.13555700  0.42192900  0.94340000  1
  N  N5  1  0.15332200  0.17438500  0.87235700  1
  N  N6  1  0.17693300  0.87163300  0.15282600  1
  N  N7  1  0.32306700  0.12836700  0.65282600  1
  N  N8  1  0.34667800  0.82561500  0.37235700  1
  N  N9  1  0.36444300  0.57807100  0.44340000  1
  N  N10  1  0.37079900  0.34754300  0.82511600  1
  N  N11  1  0.42394300  0.94540300  0.13589400  1
  N  N12  1  0.42342200  0.71187500  0.76162300  1
  N  N13  1  0.44393300  0.36536800  0.57800000  1
  N  N14  1  0.55606700  0.86536800  0.92200000  1
  N  N15  1  0.57657800  0.21187500  0.73837700  1
  N  N16  1  0.57605700  0.44540300  0.36410600  1
  N  N17  1  0.62920100  0.84754300  0.67488400  1
  N  N18  1  0.63555700  0.07807100  0.05660000  1
  N  N19  1  0.65332200  0.32561500  0.12764300  1
  N  N20  1  0.67693300  0.62836700  0.84717400  1
  N  N21  1  0.82306700  0.37163300  0.34717400  1
  N  N22  1  0.84667800  0.67438500  0.62764300  1
  N  N23  1  0.86444300  0.92192900  0.55660000  1
  N  N24  1  0.87079900  0.15245700  0.17488400  1
  N  N25  1  0.92394300  0.55459700  0.86410600  1
  N  N26  1  0.92342200  0.78812500  0.23837700  1
  N  N27  1  0.94393300  0.13463200  0.42200000  1
  Cl  Cl0  1  0.07140800  0.42882800  0.57520800  1
  Cl  Cl1  1  0.42859200  0.57117200  0.07520800  1
  Cl  Cl2  1  0.57140800  0.07117200  0.42479200  1
  Cl  Cl3  1  0.92859200  0.92882800  0.92479200  1
  O  O0  1  0.16041200  0.66558600  0.83523800  1
  O  O1  1  0.20857500  0.73640400  0.56848600  1
  O  O2  1  0.23324500  0.92962700  0.78858900  1
  O  O3  1  0.26675500  0.07037300  0.28858900  1
  O  O4  1  0.29142500  0.26359600  0.06848600  1
  O  O5  1  0.33958800  0.33441400  0.33523800  1
  O  O6  1  0.66041200  0.83441400  0.16476200  1
  O  O7  1  0.70857500  0.76359600  0.43151400  1
  O  O8  1  0.73324500  0.57037300  0.21141100  1
  O  O9  1  0.76675500  0.42962700  0.71141100  1
  O  O10  1  0.79142500  0.23640400  0.93151400  1
  O  O11  1  0.83958800  0.16558600  0.66476200  1
loop_
_geom_bond_atom_site_label_1
_geom_bond_atom_site_label_2
_geom_bond_distance
_geom_bond_site_symmetry_2
Ce0 O1 2.321746 1_555
Ce0 O0 2.499680 1_555
Ce0 O2 2.574720 1_555
Ce0 N2 2.594044 1_565
Ce0 N23 2.596440 1_455
Ce0 N22 2.604682 1_455
Ce0 Cl3 2.980624 1_455
Ce1 N1 2.475467 1_555
Ce1 N24 2.582818 1_455
Ce1 O3 2.589313 1_555
Ce1 N6 2.615836 1_545
Ce1 O4 2.617363 1_555
Ce1 N5 2.633546 1_554
Ce1 Cl3 3.247157 1_444
Ce2 O3 2.317313 1_555
Ce2 N1 2.450624 1_555
Ce2 O5 2.525349 1_555
Ce2 N27 2.595705 1_455
Ce2 N2 2.672243 1_555
Ce2 N7 2.698908 1_555
Ce2 Cl0 2.989320 1_555
Ce3 N1 2.240731 1_555
Ce3 O5 2.554309 1_555
Ce3 N3 2.576585 1_555
Ce3 O4 2.594682 1_555
Ce3 N0 2.597589 1_555
Ce3 N4 2.640848 1_554
Ce3 Cl1 3.051098 1_555
Ce4 N12 2.240731 1_555
Ce4 O0 2.554309 1_555
Ce4 N10 2.576585 1_555
Ce4 O1 2.594682 1_555
Ce4 N13 2.597589 1_555
Ce4 N9 2.640848 1_555
Ce4 Cl0 3.051098 1_555
Ce5 O2 2.317313 1_555
Ce5 N12 2.450624 1_555
Ce5 O0 2.525349 1_555
Ce5 N14 2.595705 1_555
Ce5 N11 2.672243 1_556
Ce5 N6 2.698908 1_556
Ce5 Cl1 2.989320 1_556
Ce6 N12 2.475467 1_555
Ce6 N17 2.582818 1_555
Ce6 O2 2.589313 1_555
Ce6 N7 2.615836 1_565
Ce6 O1 2.617363 1_555
Ce6 N8 2.633546 1_555
Ce6 Cl2 3.247157 1_565
Ce7 O4 2.321746 1_555
Ce7 O5 2.499680 1_555
Ce7 O3 2.574720 1_555
Ce7 N11 2.594044 1_545
Ce7 N18 2.596440 1_555
Ce7 N19 2.604682 1_555
Ce7 Cl2 2.980624 1_555
Ce8 O7 2.321746 1_555
Ce8 O6 2.499680 1_555
Ce8 O8 2.574720 1_555
Ce8 N16 2.594044 1_555
Ce8 N9 2.596440 1_555
Ce8 N8 2.604682 1_555
Ce8 Cl1 2.980624 1_555
Ce9 N15 2.475467 1_555
Ce9 N10 2.582818 1_555
Ce9 O9 2.589313 1_555
Ce9 N20 2.615836 1_555
Ce9 O10 2.617363 1_555
Ce9 N19 2.633546 1_556
Ce9 Cl1 3.247157 1_556
Ce10 O9 2.317313 1_555
Ce10 N15 2.450624 1_555
Ce10 O11 2.525349 1_555
Ce10 N13 2.595705 1_555
Ce10 N16 2.672243 1_555
Ce10 N21 2.698908 1_555
Ce10 Cl2 2.989320 1_555
Ce11 N15 2.240731 1_555
Ce11 O11 2.554309 1_555
Ce11 N17 2.576585 1_545
Ce11 O10 2.594682 1_555
Ce11 N14 2.597589 1_545
Ce11 N18 2.640848 1_556
Ce11 Cl3 3.051098 1_545
Ce12 N26 2.240731 1_555
Ce12 O6 2.554309 1_555
Ce12 N24 2.576585 1_565
Ce12 O7 2.594682 1_555
Ce12 N27 2.597589 1_565
Ce12 N23 2.640848 1_555
Ce12 Cl2 3.051098 1_565
Ce13 O8 2.317313 1_555
Ce13 N26 2.450624 1_555
Ce13 O6 2.525349 1_555
Ce13 N0 2.595705 1_655
Ce13 N25 2.672243 1_554
Ce13 N20 2.698908 1_554
Ce13 Cl3 2.989320 1_554
Ce14 N26 2.475467 1_555
Ce14 N3 2.582818 1_655
Ce14 O8 2.589313 1_555
Ce14 N21 2.615836 1_555
Ce14 O7 2.617363 1_555
Ce14 N22 2.633546 1_555
Ce14 Cl0 3.247157 1_655
Ce15 O10 2.321746 1_555
Ce15 O11 2.499680 1_555
Ce15 O9 2.574720 1_555
Ce15 N25 2.594044 1_555
Ce15 N4 2.596440 1_655
Ce15 N5 2.604682 1_655
Ce15 Cl0 2.980624 1_655
N0 Si0 1.698557 1_554
N0 Si1 1.727639 1_555
N1 Si14 1.733644 1_455
N2 Si15 1.708835 1_455
N2 Si2 1.709378 1_555
N3 Si4 1.711937 1_555
N3 Si1 1.758662 1_555
N4 Si3 1.707878 1_555
N4 Si0 1.708872 1_555
N5 Si2 1.718640 1_555
N5 Si3 1.738473 1_555
N6 Si1 1.726657 1_555
N6 Si5 1.730135 1_555
N7 Si6 1.726657 1_555
N7 Si2 1.730135 1_555
N8 Si5 1.718640 1_555
N8 Si4 1.738473 1_555
N9 Si4 1.707878 1_555
N9 Si7 1.708872 1_555
N10 Si3 1.711937 1_555
N10 Si6 1.758662 1_555
N11 Si8 1.708835 1_555
N11 Si5 1.709378 1_555
N12 Si9 1.733644 1_555
N13 Si7 1.698557 1_555
N13 Si6 1.727639 1_555
N14 Si8 1.698557 1_556
N14 Si9 1.727639 1_555
N15 Si6 1.733644 1_555
N16 Si7 1.708835 1_555
N16 Si10 1.709378 1_555
N17 Si12 1.711937 1_555
N17 Si9 1.758662 1_555
N18 Si11 1.707878 1_555
N18 Si8 1.708872 1_545
N19 Si10 1.718640 1_555
N19 Si11 1.738473 1_555
N20 Si9 1.726657 1_555
N20 Si13 1.730135 1_555
N21 Si14 1.726657 1_555
N21 Si10 1.730135 1_555
N22 Si13 1.718640 1_555
N22 Si12 1.738473 1_555
N23 Si12 1.707878 1_555
N23 Si15 1.708872 1_565
N24 Si11 1.711937 1_555
N24 Si14 1.758662 1_555
N25 Si0 1.708835 1_655
N25 Si13 1.709378 1_555
N26 Si1 1.733644 1_655
N27 Si15 1.698557 1_555
N27 Si14 1.727639 1_555
O0 Si0 1.672472 1_555
O1 Si4 1.686258 1_555
O2 Si2 1.689024 1_565
O3 Si5 1.689024 1_545
O4 Si3 1.686258 1_554
O5 Si7 1.672472 1_555
O6 Si8 1.672472 1_555
O7 Si12 1.686258 1_555
O8 Si10 1.689024 1_555
O9 Si13 1.689024 1_555
O10 Si11 1.686258 1_556
O11 Si15 1.672472 1_555
