# generated using pymatgen
data_Sm2SiTeO4
_symmetry_space_group_name_H-M   'P 1'
_cell_length_a   6.23394336
_cell_length_b   7.09982811
_cell_length_c   11.12550743
_cell_angle_alpha   90.00000000
_cell_angle_beta   90.00000000
_cell_angle_gamma   90.00000000
_symmetry_Int_Tables_number   1
_chemical_formula_structural   Sm2SiTeO4
_chemical_formula_sum   'Sm8 Si4 Te4 O16'
_cell_volume   492.41413894
_cell_formula_units_Z   4
loop_
 _symmetry_equiv_pos_site_id
 _symmetry_equiv_pos_as_xyz
  1  'x, y, z'
loop_
 _atom_site_type_symbol
 _atom_site_label
 _atom_site_symmetry_multiplicity
 _atom_site_fract_x
 _atom_site_fract_y
 _atom_site_fract_z
 _atom_site_occupancy
  Sm  Sm0  1  0.38777443  0.75000000  0.50000000  1
  Sm  Sm1  1  0.38777443  0.75000000  -0.00000000  1
  Sm  Sm2  1  0.61222557  0.25000000  0.50000000  1
  Sm  Sm3  1  0.61222557  0.25000000  -0.00000000  1
  Sm  Sm4  1  0.88805173  0.96366566  0.75000000  1
  Sm  Sm5  1  0.88805173  0.53633434  0.25000000  1
  Sm  Sm6  1  0.11194827  0.46366566  0.75000000  1
  Sm  Sm7  1  0.11194827  0.03633434  0.25000000  1
  Si  Si0  1  0.11347457  0.25000000  -0.00000000  1
  Si  Si1  1  0.88652543  0.75000000  -0.00000000  1
  Si  Si2  1  0.88652543  0.75000000  0.50000000  1
  Si  Si3  1  0.11347457  0.25000000  0.50000000  1
  Te  Te0  1  0.59600536  0.58347288  0.75000000  1
  Te  Te1  1  0.59600536  0.91652712  0.25000000  1
  Te  Te2  1  0.40399464  0.08347288  0.75000000  1
  Te  Te3  1  0.40399464  0.41652712  0.25000000  1
  O  O0  1  0.27002309  0.07473430  0.46503345  1
  O  O1  1  0.27002309  0.42526570  0.53496655  1
  O  O2  1  0.72997691  0.57473430  0.03496655  1
  O  O3  1  0.72997691  0.92526570  0.96503345  1
  O  O4  1  0.72997691  0.92526570  0.53496655  1
  O  O5  1  0.72997691  0.57473430  0.46503345  1
  O  O6  1  0.27002309  0.42526570  0.96503345  1
  O  O7  1  0.27002309  0.07473430  0.03496655  1
  O  O8  1  0.04986260  0.76738501  0.38408021  1
  O  O9  1  0.04986260  0.76738501  0.11591979  1
  O  O10  1  0.95013740  0.26738501  0.11591979  1
  O  O11  1  0.95013740  0.23261499  0.88408021  1
  O  O12  1  0.95013740  0.23261499  0.61591979  1
  O  O13  1  0.95013740  0.26738501  0.38408021  1
  O  O14  1  0.04986260  0.73261499  0.88408021  1
  O  O15  1  0.04986260  0.73261499  0.61591979  1
loop_
_geom_bond_atom_site_label_1
_geom_bond_atom_site_label_2
_geom_bond_distance
_geom_bond_site_symmetry_2
Sm0 Te0 3.289223 1_555
Sm0 Te1 3.289223 1_555
Sm0 Te2 3.654013 1_565
Sm0 Te3 3.654013 1_555
Sm1 Te1 3.289223 1_555
Sm1 Te0 3.289223 1_554
Sm1 Te2 3.654013 1_564
Sm1 Te3 3.654013 1_555
Sm2 Te2 3.289223 1_555
Sm2 Te3 3.289223 1_555
Sm2 Te1 3.654013 1_545
Sm2 Te0 3.654013 1_555
Sm3 Te3 3.289223 1_555
Sm3 Te2 3.289223 1_554
Sm3 Te1 3.654013 1_545
Sm3 Te0 3.654013 1_554
Sm4 Te2 3.135180 1_565
Sm4 Te0 3.255891 1_555
Sm4 Te2 3.326936 1_665
Sm5 Te3 3.135180 1_555
Sm5 Te1 3.255891 1_555
Sm5 Te3 3.326936 1_655
Sm6 Te0 3.135180 1_555
Sm6 Te2 3.255891 1_555
Sm6 Te0 3.326936 1_455
Sm7 Te1 3.135180 1_545
Sm7 Te3 3.255891 1_555
Sm7 Te1 3.326936 1_445
O0 Si3 1.628548 1_555
O0 Sm0 2.450667 1_545
O0 Sm2 2.500121 1_555
O0 Sm7 2.601686 1_555
O1 Si3 1.628548 1_555
O1 Sm0 2.450667 1_555
O1 Sm2 2.500121 1_555
O1 Sm6 2.601686 1_555
O2 Si1 1.628548 1_555
O2 Sm3 2.450667 1_555
O2 Sm1 2.500121 1_555
O2 Sm5 2.601686 1_555
O3 Si1 1.628548 1_556
O3 Sm3 2.450667 1_566
O3 Sm1 2.500121 1_556
O3 Sm4 2.601686 1_555
O4 Si2 1.628548 1_555
O4 Sm2 2.450667 1_565
O4 Sm0 2.500121 1_555
O4 Sm4 2.601686 1_555
O5 Si2 1.628548 1_555
O5 Sm2 2.450667 1_555
O5 Sm0 2.500121 1_555
O5 Sm5 2.601686 1_555
O6 Si0 1.628548 1_556
O6 Sm1 2.450667 1_556
O6 Sm3 2.500121 1_556
O6 Sm6 2.601686 1_555
O7 Si0 1.628548 1_555
O7 Sm1 2.450667 1_545
O7 Sm3 2.500121 1_555
O7 Sm7 2.601686 1_555
O8 Si2 1.647810 1_455
O8 Sm5 2.435917 1_455
O8 Sm7 2.453806 1_565
O8 Sm0 2.473038 1_555
O9 Si1 1.647810 1_455
O9 Sm5 2.435917 1_455
O9 Sm7 2.453806 1_565
O9 Sm1 2.473038 1_555
O10 Si0 1.647810 1_655
O10 Sm7 2.435917 1_655
O10 Sm5 2.453806 1_555
O10 Sm3 2.473038 1_555
O11 Si0 1.647810 1_656
O11 Sm6 2.435917 1_655
O11 Sm4 2.453806 1_545
O11 Sm3 2.473038 1_556
O12 Si3 1.647810 1_655
O12 Sm6 2.435917 1_655
O12 Sm4 2.453806 1_545
O12 Sm2 2.473038 1_555
O13 Si3 1.647810 1_655
O13 Sm7 2.435917 1_655
O13 Sm5 2.453806 1_555
O13 Sm2 2.473038 1_555
O14 Si1 1.647810 1_456
O14 Sm4 2.435917 1_455
O14 Sm6 2.453806 1_555
O14 Sm1 2.473038 1_556
O15 Si2 1.647810 1_455
O15 Sm4 2.435917 1_455
O15 Sm6 2.453806 1_555
O15 Sm0 2.473038 1_555
