# generated using pymatgen
data_Cs2TeO3
_symmetry_space_group_name_H-M   'P 1'
_cell_length_a   6.78976897
_cell_length_b   6.78976790
_cell_length_c   7.99909324
_cell_angle_alpha   90.00000000
_cell_angle_beta   90.00000000
_cell_angle_gamma   120.00000528
_symmetry_Int_Tables_number   1
_chemical_formula_structural   Cs2TeO3
_chemical_formula_sum   'Cs4 Te2 O6'
_cell_volume   319.36056887
_cell_formula_units_Z   2
loop_
 _symmetry_equiv_pos_site_id
 _symmetry_equiv_pos_as_xyz
  1  'x, y, z'
loop_
 _atom_site_type_symbol
 _atom_site_label
 _atom_site_symmetry_multiplicity
 _atom_site_fract_x
 _atom_site_fract_y
 _atom_site_fract_z
 _atom_site_occupancy
  Cs  Cs0  1  -0.00000000  -0.00000000  0.00000000  1
  Cs  Cs1  1  0.66666700  0.33333300  0.63455577  1
  Cs  Cs2  1  0.33333300  0.66666700  0.36544423  1
  Cs  Cs3  1  -0.00000000  -0.00000000  0.50000000  1
  Te  Te0  1  0.66666700  0.33333300  0.16314609  1
  Te  Te1  1  0.33333300  0.66666700  0.83685391  1
  O  O0  1  0.14642526  0.75562531  0.73115511  1
  O  O1  1  0.39079995  0.24437469  0.26884489  1
  O  O2  1  0.75562531  0.14642526  0.26884489  1
  O  O3  1  0.85357474  0.60920005  0.26884489  1
  O  O4  1  0.24437469  0.39079995  0.73115511  1
  O  O5  1  0.60920005  0.85357474  0.73115511  1
loop_
_geom_bond_atom_site_label_1
_geom_bond_atom_site_label_2
_geom_bond_distance
_geom_bond_site_symmetry_2
Cs0 O4 3.164783 1_554
Cs0 O3 3.164783 1_445
Cs0 O1 3.164783 1_555
Cs0 O0 3.164783 1_544
Cs0 O5 3.164783 1_444
Cs0 O2 3.164783 1_455
Cs1 O5 3.176361 1_545
Cs1 O0 3.176364 1_655
Cs1 O4 3.176368 1_555
Cs1 O2 3.361482 1_555
Cs1 O3 3.361485 1_555
Cs1 O1 3.361485 1_555
Cs2 O3 3.176362 1_455
Cs2 O2 3.176364 1_565
Cs2 O1 3.176368 1_555
Cs2 O0 3.361482 1_555
Cs2 O5 3.361485 1_555
Cs2 O4 3.361485 1_555
Cs3 O4 2.968173 1_555
Cs3 O3 2.968173 1_445
Cs3 O1 2.968173 1_555
Cs3 O0 2.968173 1_545
Cs3 O5 2.968173 1_445
Cs3 O2 2.968173 1_455
O0 Te1 1.859225 1_555
O1 Te0 1.859231 1_555
O2 Te0 1.859225 1_555
O3 Te0 1.859230 1_555
O4 Te1 1.859231 1_555
O5 Te1 1.859230 1_555
