# generated using pymatgen
data_CdI2
_symmetry_space_group_name_H-M   'P 1'
_cell_length_a   4.28435640
_cell_length_b   4.28435602
_cell_length_c   78.96352772
_cell_angle_alpha   90.00000000
_cell_angle_beta   90.00000000
_cell_angle_gamma   119.99999490
_symmetry_Int_Tables_number   1
_chemical_formula_structural   CdI2
_chemical_formula_sum   'Cd11 I22'
_cell_volume   1255.24453763
_cell_formula_units_Z   11
loop_
 _symmetry_equiv_pos_site_id
 _symmetry_equiv_pos_as_xyz
  1  'x, y, z'
loop_
 _atom_site_type_symbol
 _atom_site_label
 _atom_site_symmetry_multiplicity
 _atom_site_fract_x
 _atom_site_fract_y
 _atom_site_fract_z
 _atom_site_occupancy
  Cd  Cd0  1  0.66666700  0.33333300  0.20456926  1
  Cd  Cd1  1  0.66666700  0.33333300  0.93198522  1
  Cd  Cd2  1  0.66666700  0.33333300  0.02278872  1
  Cd  Cd3  1  0.66666700  0.33333300  0.65889135  1
  Cd  Cd4  1  0.66666700  0.33333300  0.38640577  1
  Cd  Cd5  1  0.66666700  0.33333300  0.74979692  1
  Cd  Cd6  1  0.66666700  0.33333300  0.84074415  1
  Cd  Cd7  1  0.00000000  -0.00000000  0.56834233  1
  Cd  Cd8  1  -0.00000000  -0.00000000  0.11355725  1
  Cd  Cd9  1  0.66666700  0.33333300  0.47718196  1
  Cd  Cd10  1  -0.00000000  -0.00000000  0.29561536  1
  I  I0  1  0.33333300  0.66666700  0.59013680  1
  I  I1  1  -0.00000000  -0.00000000  0.45535963  1
  I  I2  1  0.33333300  0.66666700  0.40819574  1
  I  I3  1  -0.00000000  -0.00000000  0.18271848  1
  I  I4  1  0.00000000  -0.00000000  0.63712217  1
  I  I5  1  0.33333300  0.66666700  0.86263265  1
  I  I6  1  0.33333300  0.66666700  0.95381423  1
  I  I7  1  -0.00000000  -0.00000000  0.72805043  1
  I  I8  1  0.66666700  0.33333300  0.27380382  1
  I  I9  1  0.33333300  0.66666700  0.77157126  1
  I  I10  1  0.00000000  -0.00000000  0.81891399  1
  I  I11  1  0.33333300  0.66666700  0.04462660  1
  I  I12  1  0.33333300  0.66666700  0.22649545  1
  I  I13  1  0.66666700  0.33333300  0.09180595  1
  I  I14  1  0.00000000  -0.00000000  0.91025362  1
  I  I15  1  -0.00000000  -0.00000000  0.00102723  1
  I  I16  1  0.33333300  0.66666700  0.31742251  1
  I  I17  1  0.66666700  0.33333300  0.54658822  1
  I  I18  1  -0.00000000  -0.00000000  0.36457614  1
  I  I19  1  0.33333300  0.66666700  0.68063869  1
  I  I20  1  0.33333300  0.66666700  0.13539933  1
  I  I21  1  0.33333300  0.66666700  0.49896777  1
loop_
_geom_bond_atom_site_label_1
_geom_bond_atom_site_label_2
_geom_bond_distance
_geom_bond_site_symmetry_2
Cd0 I3 3.015893 1_655
Cd0 I3 3.015896 1_665
Cd0 I3 3.015897 1_555
Cd0 I12 3.019304 1_545
Cd0 I12 3.019304 1_655
Cd0 I12 3.019310 1_555
Cd1 I14 3.010519 1_655
Cd1 I14 3.010522 1_665
Cd1 I14 3.010522 1_555
Cd1 I6 3.014910 1_545
Cd1 I6 3.014910 1_655
Cd1 I6 3.014916 1_555
Cd2 I15 3.011865 1_655
Cd2 I15 3.011868 1_665
Cd2 I15 3.011868 1_555
Cd2 I11 3.015311 1_545
Cd2 I11 3.015311 1_655
Cd2 I11 3.015317 1_555
Cd3 I19 3.011228 1_545
Cd3 I19 3.011228 1_655
Cd3 I19 3.011234 1_555
Cd3 I4 3.012212 1_655
Cd3 I4 3.012215 1_665
Cd3 I4 3.012215 1_555
Cd4 I2 3.013149 1_545
Cd4 I2 3.013149 1_655
Cd4 I2 3.013155 1_555
Cd4 I18 3.014938 1_655
Cd4 I18 3.014941 1_665
Cd4 I18 3.014941 1_555
Cd5 I7 3.011190 1_655
Cd5 I7 3.011193 1_665
Cd5 I7 3.011193 1_555
Cd5 I9 3.012444 1_545
Cd5 I9 3.012444 1_655
Cd5 I9 3.012450 1_555
Cd6 I10 3.014962 1_655
Cd6 I10 3.014965 1_665
Cd6 I10 3.014965 1_555
Cd6 I5 3.017598 1_545
Cd6 I5 3.017599 1_655
Cd6 I5 3.017604 1_555
Cd7 I17 3.011533 1_455
Cd7 I17 3.011536 1_445
Cd7 I17 3.011536 1_555
Cd7 I0 3.013352 1_545
Cd7 I0 3.013355 1_555
Cd7 I0 3.013355 1_445
Cd8 I13 3.011406 1_455
Cd8 I13 3.011409 1_445
Cd8 I13 3.011409 1_555
Cd8 I20 3.015500 1_545
Cd8 I20 3.015503 1_555
Cd8 I20 3.015504 1_445
Cd9 I21 3.012961 1_545
Cd9 I21 3.012961 1_655
Cd9 I21 3.012967 1_555
Cd9 I1 3.014609 1_655
Cd9 I1 3.014612 1_665
Cd9 I1 3.014612 1_555
Cd10 I16 3.013924 1_545
Cd10 I16 3.013927 1_555
Cd10 I16 3.013927 1_445
Cd10 I8 3.014122 1_455
Cd10 I8 3.014125 1_445
Cd10 I8 3.014125 1_555
