# generated using pymatgen
data_PuPaO4
_symmetry_space_group_name_H-M   'P 1'
_cell_length_a   6.64252777
_cell_length_b   6.64289295
_cell_length_c   6.64275981
_cell_angle_alpha   131.45711959
_cell_angle_beta   131.62514112
_cell_angle_gamma   70.95024502
_symmetry_Int_Tables_number   1
_chemical_formula_structural   PuPaO4
_chemical_formula_sum   'Pu2 Pa2 O8'
_cell_volume   160.81076426
_cell_formula_units_Z   2
loop_
 _symmetry_equiv_pos_site_id
 _symmetry_equiv_pos_as_xyz
  1  'x, y, z'
loop_
 _atom_site_type_symbol
 _atom_site_label
 _atom_site_symmetry_multiplicity
 _atom_site_fract_x
 _atom_site_fract_y
 _atom_site_fract_z
 _atom_site_occupancy
  Pu  Pu0  1  0.00045024  0.00025279  0.00024604  1
  Pu  Pu1  1  0.74999253  0.24977199  0.50022174  1
  Pa  Pa0  1  0.50030515  0.49990845  0.00044058  1
  Pa  Pa1  1  0.25053099  0.75012211  0.50042728  1
  O  O0  1  0.60871301  0.12498202  0.98374167  1
  O  O1  1  0.87662827  0.38842948  0.01653028  1
  O  O2  1  0.37813092  0.38986294  0.51648328  1
  O  O3  1  0.13595383  0.62509355  0.01102042  1
  O  O4  1  0.37807276  0.86147067  0.98804621  1
  O  O5  1  0.87652018  0.86002401  0.48806007  1
  O  O6  1  0.13588036  0.12508478  0.51099834  1
  O  O7  1  0.60882174  0.62499721  0.48378409  1
loop_
_geom_bond_atom_site_label_1
_geom_bond_atom_site_label_2
_geom_bond_distance
_geom_bond_site_symmetry_2
O0 Pa1 2.302762 1_545
O0 Pa0 2.302927 1_556
O0 Pu1 2.408981 1_556
O0 Pu0 2.409039 1_656
O1 Pa1 2.310133 1_655
O1 Pa0 2.313001 1_555
O1 Pu0 2.387853 1_655
O1 Pu1 2.410178 1_554
O2 Pa0 2.310290 1_556
O2 Pa1 2.313176 1_555
O2 Pu1 2.387453 1_555
O2 Pu0 2.410219 1_555
O3 Pa1 2.321286 1_555
O3 Pa0 2.321357 1_555
O3 Pu0 2.390057 1_565
O3 Pu1 2.390854 1_454
O4 Pa0 2.309716 1_556
O4 Pa1 2.312526 1_555
O4 Pu1 2.388559 1_566
O4 Pu0 2.410391 1_566
O5 Pa1 2.310014 1_655
O5 Pa0 2.312611 1_555
O5 Pu0 2.388368 1_666
O5 Pu1 2.410167 1_565
O6 Pa0 2.321564 1_556
O6 Pa1 2.321712 1_545
O6 Pu1 2.389634 1_455
O6 Pu0 2.390570 1_555
O7 Pa0 2.302718 1_555
O7 Pa1 2.303008 1_555
O7 Pu1 2.408898 1_555
O7 Pu0 2.409100 1_666
