# generated using pymatgen
data_In3Ir
_symmetry_space_group_name_H-M   'P 1'
_cell_length_a   7.04713957
_cell_length_b   7.04713652
_cell_length_c   7.26872145
_cell_angle_alpha   90.00009864
_cell_angle_beta   90.00003291
_cell_angle_gamma   90.00005781
_symmetry_Int_Tables_number   1
_chemical_formula_structural   In3Ir
_chemical_formula_sum   'In12 Ir4'
_cell_volume   360.98036858
_cell_formula_units_Z   4
loop_
 _symmetry_equiv_pos_site_id
 _symmetry_equiv_pos_as_xyz
  1  'x, y, z'
loop_
 _atom_site_type_symbol
 _atom_site_label
 _atom_site_symmetry_multiplicity
 _atom_site_fract_x
 _atom_site_fract_y
 _atom_site_fract_z
 _atom_site_occupancy
  In  In0  1  0.85024703  0.85024703  0.25700990  1
  In  In1  1  0.64975397  0.35024603  0.75700890  1
  In  In2  1  0.64975397  0.35024603  0.24299210  1
  In  In3  1  0.50000000  0.99999900  0.00000100  1
  In  In4  1  0.35024603  0.64975497  0.24299110  1
  In  In5  1  0.35024603  0.64975497  0.75700890  1
  In  In6  1  -0.00000000  0.50000000  -0.00000000  1
  In  In7  1  0.14975297  0.14975297  0.25701090  1
  In  In8  1  0.14975197  0.14975297  0.74299010  1
  In  In9  1  0.50000000  0.99999900  0.50000000  1
  In  In10  1  0.85024703  0.85024803  0.74299010  1
  In  In11  1  -0.00000000  0.50000000  0.49999900  1
  Ir  Ir0  1  0.65783823  0.65783823  -0.00000000  1
  Ir  Ir1  1  0.15783823  0.84216177  0.50000000  1
  Ir  Ir2  1  0.84216277  0.15783823  0.50000000  1
  Ir  Ir3  1  0.34216177  0.34216177  0.00000000  1
loop_
_geom_bond_atom_site_label_1
_geom_bond_atom_site_label_2
_geom_bond_distance
_geom_bond_site_symmetry_2
In0 Ir0 2.677127 1_555
In0 Ir2 2.796684 1_565
In0 Ir1 2.796687 1_655
In0 In7 2.984922 1_665
In0 In11 3.213328 1_655
In0 In9 3.213328 1_555
In0 In3 3.270446 1_555
In0 In6 3.270449 1_655
In1 Ir2 2.677120 1_555
In1 Ir0 2.796694 1_556
In1 Ir3 2.796698 1_556
In1 In5 2.984950 1_555
In1 In6 3.213328 1_656
In1 In3 3.213341 1_546
In1 In9 3.270445 1_545
In1 In11 3.270449 1_655
In2 Ir2 2.677118 1_555
In2 Ir3 2.796701 1_555
In2 Ir0 2.796704 1_555
In2 In4 2.984950 1_555
In2 In3 3.213332 1_545
In2 In6 3.213335 1_655
In2 In9 3.270446 1_545
In3 Ir0 2.655443 1_555
In3 Ir3 2.655456 1_565
In3 In4 3.213317 1_555
In3 In5 3.213319 1_554
In3 In7 3.270454 1_565
In3 In8 3.270464 1_564
In4 Ir1 2.677113 1_555
In4 Ir0 2.796698 1_555
In4 Ir3 2.796700 1_555
In4 In6 3.213330 1_555
In4 In9 3.270429 1_555
In5 Ir1 2.677115 1_555
In5 Ir0 2.796696 1_556
In5 Ir3 2.796704 1_556
In5 In6 3.213334 1_556
In5 In9 3.270435 1_555
In6 Ir3 2.655450 1_555
In6 Ir0 2.655450 1_455
In6 In8 3.270447 1_554
In6 In7 3.270457 1_555
In7 Ir3 2.677136 1_555
In7 Ir2 2.796678 1_455
In7 Ir1 2.796684 1_545
In7 In9 3.213329 1_545
In8 Ir3 2.677130 1_556
In8 Ir2 2.796676 1_455
In8 Ir1 2.796685 1_545
In8 In9 3.213338 1_545
In9 Ir1 2.655445 1_555
In9 Ir2 2.655458 1_565
In10 Ir0 2.677134 1_556
In10 Ir2 2.796683 1_565
In10 Ir1 2.796688 1_655
In10 In8 2.984912 1_665
In10 In9 3.213326 1_555
In10 In11 3.213337 1_655
In10 In3 3.270451 1_556
In10 In6 3.270459 1_656
In11 Ir2 2.655445 1_455
In11 Ir1 2.655448 1_555
In11 In7 3.213320 1_555
In11 In8 3.213333 1_555
In11 In2 3.270433 1_455
In11 In4 3.270443 1_555
In11 In5 3.270448 1_555
