# generated using pymatgen
data_CuAsPbS3
_symmetry_space_group_name_H-M   'P 1'
_cell_length_a   7.70415700
_cell_length_b   8.16913400
_cell_length_c   8.90744000
_cell_angle_alpha   90.00000000
_cell_angle_beta   90.00000000
_cell_angle_gamma   90.00000000
_symmetry_Int_Tables_number   1
_chemical_formula_structural   CuAsPbS3
_chemical_formula_sum   'Cu4 As4 Pb4 S12'
_cell_volume   560.60123493
_cell_formula_units_Z   4
loop_
 _symmetry_equiv_pos_site_id
 _symmetry_equiv_pos_as_xyz
  1  'x, y, z'
loop_
 _atom_site_type_symbol
 _atom_site_label
 _atom_site_symmetry_multiplicity
 _atom_site_fract_x
 _atom_site_fract_y
 _atom_site_fract_z
 _atom_site_occupancy
  Cu  Cu0  1  0.73853600  0.77718600  0.43026700  1
  Cu  Cu1  1  0.23853600  0.22281400  0.93026700  1
  Cu  Cu2  1  0.76146400  0.22281400  0.93026700  1
  Cu  Cu3  1  0.26146400  0.77718600  0.43026700  1
  As  As0  1  0.50000000  0.43358000  0.58007600  1
  As  As1  1  0.00000000  0.00246600  0.65855900  1
  As  As2  1  0.50000000  0.99753400  0.15855900  1
  As  As3  1  0.00000000  0.56642000  0.08007600  1
  Pb  Pb0  1  0.50000000  0.57760100  0.00321600  1
  Pb  Pb1  1  0.00000000  0.42239900  0.50321600  1
  Pb  Pb2  1  0.00000000  0.05650900  0.19308000  1
  Pb  Pb3  1  0.50000000  0.94349100  0.69308000  1
  S  S0  1  0.50000000  0.75134900  0.28176600  1
  S  S1  1  0.22457000  0.05404600  0.49499100  1
  S  S2  1  0.72457000  0.94595400  0.99499100  1
  S  S3  1  0.77543000  0.05404600  0.49499100  1
  S  S4  1  0.77293100  0.39335800  0.13899200  1
  S  S5  1  0.22706900  0.39335800  0.13899200  1
  S  S6  1  0.27293100  0.60664200  0.63899200  1
  S  S7  1  0.27543000  0.94595400  0.99499100  1
  S  S8  1  0.00000000  0.24865100  0.78176600  1
  S  S9  1  0.50000000  0.27986300  0.79995900  1
  S  S10  1  0.00000000  0.72013700  0.29995900  1
  S  S11  1  0.72706900  0.60664200  0.63899200  1
loop_
_geom_bond_atom_site_label_1
_geom_bond_atom_site_label_2
_geom_bond_distance
_geom_bond_site_symmetry_2
Cu0 S0 2.274085 1_555
Cu0 S11 2.324962 1_555
Cu0 S3 2.351274 1_565
Cu0 S10 2.371094 1_655
Cu1 S8 2.274085 1_555
Cu1 S5 2.324962 1_556
Cu1 S7 2.351274 1_545
Cu1 S9 2.371094 1_555
Cu2 S8 2.274085 1_655
Cu2 S4 2.324962 1_556
Cu2 S2 2.351274 1_545
Cu2 S9 2.371094 1_555
Cu3 S0 2.274085 1_555
Cu3 S6 2.324962 1_555
Cu3 S1 2.351274 1_565
Cu3 S10 2.371094 1_555
As0 S11 2.309644 1_555
As0 S6 2.309644 1_555
As0 S9 2.326577 1_555
As1 S8 2.291072 1_555
As1 S1 2.300791 1_555
As1 S3 2.300791 1_455
As2 S0 2.291072 1_555
As2 S7 2.300791 1_554
As2 S2 2.300791 1_554
As3 S4 2.309644 1_455
As3 S5 2.309644 1_555
As3 S10 2.326577 1_555
Pb0 S4 2.854714 1_555
Pb0 S5 2.854714 1_555
Pb0 S0 2.858462 1_555
Pb0 S9 3.032129 1_554
Pb1 S6 2.854714 1_555
Pb1 S11 2.854714 1_455
Pb1 S8 2.858462 1_555
Pb1 S10 3.032129 1_555
Pb2 S2 2.903738 1_444
Pb2 S7 2.903738 1_544
Pb2 S10 2.908112 1_545
Pb3 S3 2.903738 1_565
Pb3 S1 2.903738 1_565
Pb3 S9 2.908112 1_565
