# generated using pymatgen
data_Sb2Mo10O31
_symmetry_space_group_name_H-M   'P 1'
_cell_length_a   7.40808000
_cell_length_b   8.19436400
_cell_length_c   20.43066700
_cell_angle_alpha   90.00000000
_cell_angle_beta   90.00000000
_cell_angle_gamma   90.00000000
_symmetry_Int_Tables_number   1
_chemical_formula_structural   Sb2Mo10O31
_chemical_formula_sum   'Sb4 Mo20 O62'
_cell_volume   1240.23350787
_cell_formula_units_Z   2
loop_
 _symmetry_equiv_pos_site_id
 _symmetry_equiv_pos_as_xyz
  1  'x, y, z'
loop_
 _atom_site_type_symbol
 _atom_site_label
 _atom_site_symmetry_multiplicity
 _atom_site_fract_x
 _atom_site_fract_y
 _atom_site_fract_z
 _atom_site_occupancy
  Sb  Sb0  1  0.67928800  0.72837300  0.25000000  1
  Sb  Sb1  1  0.67231800  0.26003100  0.25000000  1
  Sb  Sb2  1  0.67231800  0.73996900  0.75000000  1
  Sb  Sb3  1  0.67928800  0.27162700  0.75000000  1
  Mo  Mo0  1  0.99553200  0.20603900  0.41066100  1
  Mo  Mo1  1  0.00386000  0.70610700  0.41035600  1
  Mo  Mo2  1  0.49808300  0.71077400  0.91140600  1
  Mo  Mo3  1  0.22363700  0.29366100  0.25000000  1
  Mo  Mo4  1  0.00386000  0.70610700  0.08964400  1
  Mo  Mo5  1  0.99553200  0.20603900  0.08933900  1
  Mo  Mo6  1  0.00386000  0.29389300  0.58964400  1
  Mo  Mo7  1  0.00386000  0.29389300  0.91035600  1
  Mo  Mo8  1  0.23192700  0.79368400  0.25000000  1
  Mo  Mo9  1  0.50624100  0.78873500  0.08975100  1
  Mo  Mo10  1  0.50624100  0.21126500  0.58975100  1
  Mo  Mo11  1  0.49808300  0.28922600  0.41140600  1
  Mo  Mo12  1  0.99553200  0.79396100  0.58933900  1
  Mo  Mo13  1  0.49808300  0.71077400  0.58859400  1
  Mo  Mo14  1  0.23192700  0.20631600  0.75000000  1
  Mo  Mo15  1  0.50624100  0.21126500  0.91024900  1
  Mo  Mo16  1  0.99553200  0.79396100  0.91066100  1
  Mo  Mo17  1  0.49808300  0.28922600  0.08859400  1
  Mo  Mo18  1  0.50624100  0.78873500  0.41024900  1
  Mo  Mo19  1  0.22363700  0.70633900  0.75000000  1
  O  O0  1  0.73945900  0.26244300  0.37932300  1
  O  O1  1  0.93229800  0.74199600  0.99984300  1
  O  O2  1  0.45158700  0.74533300  0.18873100  1
  O  O3  1  0.07063900  0.23772500  0.68387200  1
  O  O4  1  0.74248600  0.72781100  0.12050600  1
  O  O5  1  0.73945900  0.73755700  0.87932300  1
  O  O6  1  0.25844300  0.23011800  0.42625700  1
  O  O7  1  0.97375300  0.99420900  0.40804000  1
  O  O8  1  0.22848800  0.50702400  0.25000000  1
  O  O9  1  0.25710100  0.99381100  0.75000000  1
  O  O10  1  0.01949600  0.50540700  0.59330100  1
  O  O11  1  0.97375300  0.00579100  0.59196000  1
  O  O12  1  0.52241000  0.99984500  0.59538900  1
  O  O13  1  0.97375300  0.99420900  0.09196000  1
  O  O14  1  0.97375300  0.00579100  0.90804000  1
  O  O15  1  0.25990600  0.23117900  0.92628900  1
  O  O16  1  0.44651600  0.73460800  0.81144500  1
  O  O17  1  0.74248600  0.72781100  0.37949400  1
  O  O18  1  0.71557600  0.50589300  0.75000000  1
  O  O19  1  0.45158700  0.74533300  0.31126900  1
  O  O20  1  0.01949600  0.50540700  0.90669900  1
  O  O21  1  0.25990600  0.23117900  0.57371100  1
  O  O22  1  0.73945900  0.26244300  0.12067700  1
  O  O23  1  0.07063900  0.76227500  0.18387200  1
  O  O24  1  0.06644500  0.75230100  0.68411100  1
  O  O25  1  0.52241000  0.00015500  0.40461100  1
  O  O26  1  0.25990600  0.76882100  0.07371100  1
  O  O27  1  0.47940100  0.49937000  0.91377200  1
  O  O28  1  0.25844300  0.76988200  0.57374300  1
  O  O29  1  0.22848800  0.49297600  0.75000000  1
  O  O30  1  0.93229800  0.25800400  0.00015700  1
  O  O31  1  0.45158700  0.25466700  0.68873100  1
  O  O32  1  0.44651600  0.26539200  0.31144500  1
  O  O33  1  0.44651600  0.73460800  0.68855500  1
  O  O34  1  0.93229800  0.74199600  0.50015700  1
  O  O35  1  0.01949600  0.49459300  0.40669900  1
  O  O36  1  0.56605500  0.24477500  0.49997100  1
  O  O37  1  0.47940100  0.50063000  0.08622800  1
  O  O38  1  0.06644500  0.24769900  0.31588900  1
  O  O39  1  0.47940100  0.49937000  0.58622800  1
  O  O40  1  0.01949600  0.49459300  0.09330100  1
  O  O41  1  0.06644500  0.75230100  0.81588900  1
  O  O42  1  0.25990600  0.76882100  0.42628900  1
  O  O43  1  0.07063900  0.76227500  0.31612800  1
  O  O44  1  0.74248600  0.27218900  0.62050600  1
  O  O45  1  0.25844300  0.76988200  0.92625700  1
  O  O46  1  0.52241000  0.99984500  0.90461100  1
  O  O47  1  0.25710100  0.00618900  0.25000000  1
  O  O48  1  0.71557600  0.49410700  0.25000000  1
  O  O49  1  0.06644500  0.24769900  0.18411100  1
  O  O50  1  0.47940100  0.50063000  0.41377200  1
  O  O51  1  0.56605500  0.24477500  0.00002900  1
  O  O52  1  0.44651600  0.26539200  0.18855500  1
  O  O53  1  0.56605500  0.75522500  0.99997100  1
  O  O54  1  0.73945900  0.73755700  0.62067700  1
  O  O55  1  0.93229800  0.25800400  0.49984300  1
  O  O56  1  0.25844300  0.23011800  0.07374300  1
  O  O57  1  0.74248600  0.27218900  0.87949400  1
  O  O58  1  0.56605500  0.75522500  0.50002900  1
  O  O59  1  0.45158700  0.25466700  0.81126900  1
  O  O60  1  0.07063900  0.23772500  0.81612800  1
  O  O61  1  0.52241000  0.00015500  0.09538900  1
loop_
_geom_bond_atom_site_label_1
_geom_bond_atom_site_label_2
_geom_bond_distance
_geom_bond_site_symmetry_2
Mo0 O7 1.744116 1_545
Mo0 O55 1.928891 1_555
Mo0 O6 1.983397 1_655
Mo0 O38 2.035090 1_655
Mo0 O0 2.054798 1_555
Mo0 O35 2.372553 1_655
Mo1 O35 1.738695 1_555
Mo1 O34 1.932262 1_455
Mo1 O42 1.991970 1_555
Mo1 O43 2.040279 1_555
Mo1 O17 2.044108 1_455
Mo1 O7 2.371797 1_455
Mo2 O27 1.738513 1_555
Mo2 O45 1.865007 1_555
Mo2 O53 1.913194 1_555
Mo2 O5 1.917090 1_555
Mo2 O16 2.086850 1_555
Mo2 O46 2.379652 1_555
Mo3 O8 1.748743 1_555
Mo3 O38 1.819347 1_555
Mo3 O49 1.819347 1_555
Mo3 O32 2.087042 1_555
Mo3 O52 2.087042 1_555
Mo3 O47 2.368659 1_555
Mo4 O40 1.738695 1_555
Mo4 O1 1.932262 1_454
Mo4 O26 1.991970 1_555
Mo4 O23 2.040279 1_555
Mo4 O4 2.044108 1_455
Mo4 O13 2.371797 1_455
Mo5 O13 1.744116 1_545
Mo5 O30 1.928891 1_555
Mo5 O56 1.983397 1_655
Mo5 O49 2.035090 1_655
Mo5 O22 2.054798 1_555
Mo5 O40 2.372553 1_655
Mo6 O10 1.738695 1_555
Mo6 O55 1.932262 1_455
Mo6 O21 1.991970 1_555
Mo6 O3 2.040279 1_555
Mo6 O44 2.044108 1_455
Mo6 O11 2.371797 1_455
Mo7 O20 1.738695 1_555
Mo7 O30 1.932262 1_456
Mo7 O15 1.991970 1_555
Mo7 O60 2.040279 1_555
Mo7 O57 2.044108 1_455
Mo7 O14 2.371797 1_455
Mo8 O47 1.751301 1_565
Mo8 O23 1.821861 1_555
Mo8 O43 1.821861 1_555
Mo8 O2 2.090902 1_555
Mo8 O19 2.090902 1_555
Mo8 O8 2.349135 1_555
Mo9 O61 1.740404 1_565
Mo9 O26 1.861228 1_555
Mo9 O53 1.906902 1_554
Mo9 O4 1.925351 1_555
Mo9 O2 2.092802 1_555
Mo9 O37 2.370289 1_555
Mo10 O12 1.740404 1_545
Mo10 O21 1.861228 1_555
Mo10 O36 1.906902 1_555
Mo10 O44 1.925351 1_555
Mo10 O31 2.092802 1_555
Mo10 O39 2.370289 1_555
Mo11 O50 1.738513 1_555
Mo11 O6 1.865007 1_555
Mo11 O36 1.913194 1_555
Mo11 O0 1.917090 1_555
Mo11 O32 2.086850 1_555
Mo11 O25 2.379652 1_555
Mo12 O11 1.744116 1_565
Mo12 O34 1.928891 1_555
Mo12 O28 1.983397 1_655
Mo12 O24 2.035090 1_655
Mo12 O54 2.054798 1_555
Mo12 O10 2.372553 1_655
Mo13 O39 1.738513 1_555
Mo13 O28 1.865007 1_555
Mo13 O58 1.913194 1_555
Mo13 O54 1.917090 1_555
Mo13 O33 2.086850 1_555
Mo13 O12 2.379652 1_555
Mo14 O9 1.751301 1_545
Mo14 O60 1.821861 1_555
Mo14 O3 1.821861 1_555
Mo14 O31 2.090902 1_555
Mo14 O59 2.090902 1_555
Mo14 O29 2.349135 1_555
Mo15 O46 1.740404 1_545
Mo15 O15 1.861228 1_555
Mo15 O51 1.906902 1_556
Mo15 O57 1.925351 1_555
Mo15 O59 2.092802 1_555
Mo15 O27 2.370289 1_555
Mo16 O14 1.744116 1_565
Mo16 O1 1.928891 1_555
Mo16 O45 1.983397 1_655
Mo16 O41 2.035090 1_655
Mo16 O5 2.054798 1_555
Mo16 O20 2.372553 1_655
Mo17 O37 1.738513 1_555
Mo17 O56 1.865007 1_555
Mo17 O51 1.913194 1_555
Mo17 O22 1.917090 1_555
Mo17 O52 2.086850 1_555
Mo17 O61 2.379652 1_555
Mo18 O25 1.740404 1_565
Mo18 O42 1.861228 1_555
Mo18 O58 1.906902 1_555
Mo18 O17 1.925351 1_555
Mo18 O19 2.092802 1_555
Mo18 O50 2.370289 1_555
Mo19 O29 1.748743 1_555
Mo19 O41 1.819347 1_555
Mo19 O24 1.819347 1_555
Mo19 O16 2.087042 1_555
Mo19 O33 2.087042 1_555
Mo19 O9 2.368659 1_555
O2 Sb0 2.105141 1_555
O16 Sb2 2.091886 1_555
O18 Sb3 1.938392 1_555
O18 Sb2 1.944689 1_555
O19 Sb0 2.105141 1_555
O31 Sb3 2.105141 1_555
O32 Sb1 2.091886 1_555
O33 Sb2 2.091886 1_555
O48 Sb0 1.938392 1_555
O48 Sb1 1.944689 1_555
O52 Sb1 2.091886 1_555
O59 Sb3 2.105141 1_555
