# generated using pymatgen
data_KNbCl6
_symmetry_space_group_name_H-M   'P 1'
_cell_length_a   7.02413657
_cell_length_b   22.48606517
_cell_length_c   23.82055667
_cell_angle_alpha   90.00000000
_cell_angle_beta   91.10968049
_cell_angle_gamma   90.00000000
_symmetry_Int_Tables_number   1
_chemical_formula_structural   KNbCl6
_chemical_formula_sum   'K16 Nb16 Cl96'
_cell_volume   3761.63680496
_cell_formula_units_Z   16
loop_
 _symmetry_equiv_pos_site_id
 _symmetry_equiv_pos_as_xyz
  1  'x, y, z'
loop_
 _atom_site_type_symbol
 _atom_site_label
 _atom_site_symmetry_multiplicity
 _atom_site_fract_x
 _atom_site_fract_y
 _atom_site_fract_z
 _atom_site_occupancy
  K  K0  1  0.26236814  0.17077099  0.83704484  1
  K  K1  1  0.75100117  0.46532529  0.06610273  1
  K  K2  1  0.74899883  0.96532529  0.43389727  1
  K  K3  1  0.75122820  0.46810624  0.56843623  1
  K  K4  1  0.24877180  0.53189376  0.43156377  1
  K  K5  1  0.24899883  0.53467471  0.93389727  1
  K  K6  1  0.73763186  0.82922901  0.16295516  1
  K  K7  1  0.25122820  0.03189376  0.06843623  1
  K  K8  1  0.25100117  0.03467471  0.56610273  1
  K  K9  1  0.25070727  0.89889282  0.29876130  1
  K  K10  1  0.74929273  0.10110718  0.70123870  1
  K  K11  1  0.24929273  0.39889282  0.20123870  1
  K  K12  1  0.23763186  0.67077099  0.66295516  1
  K  K13  1  0.75070727  0.60110718  0.79876130  1
  K  K14  1  0.76236814  0.32922901  0.33704484  1
  K  K15  1  0.74877180  0.96810624  0.93156377  1
  Nb  Nb0  1  0.24866481  0.49005083  0.75185219  1
  Nb  Nb1  1  0.25371659  0.85974922  0.48206676  1
  Nb  Nb2  1  0.75133519  0.50994917  0.24814781  1
  Nb  Nb3  1  0.74866481  0.00994917  0.25185219  1
  Nb  Nb4  1  0.74628341  0.14025078  0.51793324  1
  Nb  Nb5  1  0.75076419  0.14160314  0.01804796  1
  Nb  Nb6  1  0.74923581  0.64160314  0.48195204  1
  Nb  Nb7  1  0.24427306  0.72604420  0.22459456  1
  Nb  Nb8  1  0.75371659  0.64025078  0.98206676  1
  Nb  Nb9  1  0.24628341  0.35974922  0.01793324  1
  Nb  Nb10  1  0.25076419  0.35839686  0.51804796  1
  Nb  Nb11  1  0.24923581  0.85839686  0.98195204  1
  Nb  Nb12  1  0.75572694  0.27395580  0.77540544  1
  Nb  Nb13  1  0.74427306  0.77395580  0.72459456  1
  Nb  Nb14  1  0.25133519  0.99005083  0.74814781  1
  Nb  Nb15  1  0.25572694  0.22604420  0.27540544  1
  Cl  Cl0  1  0.50352190  0.02486630  0.81022107  1
  Cl  Cl1  1  0.75343375  0.23235462  0.47461810  1
  Cl  Cl2  1  0.00707269  0.60437649  0.04054943  1
  Cl  Cl3  1  0.99078078  0.10460046  0.95443692  1
  Cl  Cl4  1  0.25343375  0.26764538  0.97461810  1
  Cl  Cl5  1  0.97617726  0.66956707  0.91367537  1
  Cl  Cl6  1  0.24944949  0.63601378  0.27283191  1
  Cl  Cl7  1  0.50707269  0.89562351  0.54054943  1
  Cl  Cl8  1  0.53132015  0.59575609  0.04425795  1
  Cl  Cl9  1  0.49262180  0.33588949  0.58439865  1
  Cl  Cl10  1  0.24020486  0.45979232  0.06536843  1
  Cl  Cl11  1  0.00921922  0.89539954  0.04556308  1
  Cl  Cl12  1  0.74020486  0.04020768  0.56536843  1
  Cl  Cl13  1  0.48888472  0.89385645  0.04940144  1
  Cl  Cl14  1  0.48348154  0.80092058  0.66509881  1
  Cl  Cl15  1  0.50472575  0.33669703  0.08024748  1
  Cl  Cl16  1  0.25409494  0.96158881  0.94506402  1
  Cl  Cl17  1  0.00073901  0.96959155  0.68300923  1
  Cl  Cl18  1  0.52382274  0.16956707  0.58632463  1
  Cl  Cl19  1  0.51651846  0.19907942  0.33490119  1
  Cl  Cl20  1  0.01111528  0.39385645  0.45059856  1
  Cl  Cl21  1  0.24894435  0.39637999  0.71326338  1
  Cl  Cl22  1  0.49014661  0.83464236  0.91841717  1
  Cl  Cl23  1  0.52467794  0.73228172  0.78952016  1
  Cl  Cl24  1  0.97609088  0.97194015  0.18657248  1
  Cl  Cl25  1  0.74894435  0.10362001  0.21326338  1
  Cl  Cl26  1  0.00737820  0.83588949  0.91560135  1
  Cl  Cl27  1  0.00985339  0.33464236  0.58158283  1
  Cl  Cl28  1  0.49292731  0.10437649  0.45945057  1
  Cl  Cl29  1  0.74681742  0.90715456  0.29225711  1
  Cl  Cl30  1  0.01972821  0.46633570  0.82031952  1
  Cl  Cl31  1  0.73730620  0.67388843  0.67861828  1
  Cl  Cl32  1  0.46867985  0.40424391  0.95574205  1
  Cl  Cl33  1  0.02390912  0.02805985  0.81342752  1
  Cl  Cl34  1  0.98888472  0.60614355  0.54940144  1
  Cl  Cl35  1  0.47609088  0.52805985  0.68657248  1
  Cl  Cl36  1  0.96137697  0.80467244  0.65597784  1
  Cl  Cl37  1  0.50499943  0.76429607  0.27997083  1
  Cl  Cl38  1  0.53862303  0.30467244  0.84402216  1
  Cl  Cl39  1  0.25344182  0.26570724  0.47617786  1
  Cl  Cl40  1  0.75344182  0.23429276  0.97617786  1
  Cl  Cl41  1  0.99292731  0.39562351  0.95945057  1
  Cl  Cl42  1  0.75105565  0.60362001  0.28673662  1
  Cl  Cl43  1  0.99527425  0.83669703  0.41975252  1
  Cl  Cl44  1  0.49500057  0.23570393  0.72002917  1
  Cl  Cl45  1  0.03862303  0.19532756  0.34402216  1
  Cl  Cl46  1  0.50073901  0.53040845  0.18300923  1
  Cl  Cl47  1  0.98348154  0.69907942  0.16509881  1
  Cl  Cl48  1  -0.00073901  0.03040845  0.31699077  1
  Cl  Cl49  1  0.49926099  0.46959155  0.81699077  1
  Cl  Cl50  1  0.75409494  0.53841119  0.44506402  1
  Cl  Cl51  1  0.24656625  0.76764538  0.52538190  1
  Cl  Cl52  1  0.51972821  0.03366430  0.32031952  1
  Cl  Cl53  1  0.23730620  0.82611157  0.17861828  1
  Cl  Cl54  1  0.99262180  0.16411051  0.08439865  1
  Cl  Cl55  1  0.25105565  0.89637999  0.78673662  1
  Cl  Cl56  1  0.75055051  0.36398622  0.72716809  1
  Cl  Cl57  1  0.47532206  0.26771828  0.21047984  1
  Cl  Cl58  1  0.00499943  0.73570393  0.77997083  1
  Cl  Cl59  1  0.49647810  0.97513370  0.18977893  1
  Cl  Cl60  1  0.76269380  0.17388843  0.82138172  1
  Cl  Cl61  1  0.96867985  0.09575609  0.45574205  1
  Cl  Cl62  1  0.49078078  0.39539954  0.45443692  1
  Cl  Cl63  1  0.24681742  0.59284544  0.79225711  1
  Cl  Cl64  1  0.50921922  0.60460046  0.54556308  1
  Cl  Cl65  1  0.50985339  0.16535764  0.08158283  1
  Cl  Cl66  1  0.02467794  0.76771828  0.28952016  1
  Cl  Cl67  1  0.99014661  0.66535764  0.41841717  1
  Cl  Cl68  1  0.98027179  0.53366430  0.17968048  1
  Cl  Cl69  1  0.03132015  0.90424391  0.54425795  1
  Cl  Cl70  1  0.25318258  0.09284544  0.70774289  1
  Cl  Cl71  1  0.99500057  0.26429607  0.22002917  1
  Cl  Cl72  1  0.00472575  0.16330297  0.58024748  1
  Cl  Cl73  1  0.24655818  0.76570724  0.02382214  1
  Cl  Cl74  1  0.47617726  0.83043293  0.41367537  1
  Cl  Cl75  1  0.25979514  0.95979232  0.43463157  1
  Cl  Cl76  1  0.25055051  0.13601378  0.22716809  1
  Cl  Cl77  1  0.00352190  0.47513370  0.31022107  1
  Cl  Cl78  1  0.52390912  0.47194015  0.31342752  1
  Cl  Cl79  1  0.48027179  0.96633570  0.67968048  1
  Cl  Cl80  1  0.75318258  0.40715456  0.20774289  1
  Cl  Cl81  1  0.99647810  0.52486630  0.68977893  1
  Cl  Cl82  1  0.97532206  0.23228172  0.71047984  1
  Cl  Cl83  1  0.51111528  0.10614355  0.95059856  1
  Cl  Cl84  1  0.49527425  0.66330297  0.91975252  1
  Cl  Cl85  1  0.50737820  0.66411051  0.41560135  1
  Cl  Cl86  1  0.02382274  0.33043293  0.08632463  1
  Cl  Cl87  1  0.46137697  0.69532756  0.15597784  1
  Cl  Cl88  1  0.75979514  0.54020768  0.93463157  1
  Cl  Cl89  1  0.74944949  0.86398622  0.77283191  1
  Cl  Cl90  1  0.74656625  0.73235462  0.02538190  1
  Cl  Cl91  1  0.26269380  0.32611157  0.32138172  1
  Cl  Cl92  1  0.01651846  0.30092058  0.83490119  1
  Cl  Cl93  1  0.24590506  0.46158881  0.55493598  1
  Cl  Cl94  1  0.74655818  0.73429276  0.52382214  1
  Cl  Cl95  1  0.74590506  0.03841119  0.05493598  1
loop_
_geom_bond_atom_site_label_1
_geom_bond_atom_site_label_2
_geom_bond_distance
_geom_bond_site_symmetry_2
Cl0 Nb14 2.415694 1_545
Cl0 K15 3.571890 1_545
Cl0 K10 3.582197 1_555
Cl0 K0 3.752768 1_555
Cl1 Nb4 2.314818 1_555
Cl2 Nb8 2.379579 1_454
Cl2 K5 3.459134 1_554
Cl2 K1 3.663948 1_455
Cl3 Nb5 2.435060 1_556
Cl3 K15 3.545527 1_545
Cl3 K7 3.633359 1_656
Cl3 K0 3.725486 1_655
Cl4 Nb9 2.314818 1_556
Cl5 Nb8 2.372528 1_555
Cl5 K13 3.493269 1_555
Cl5 K5 3.615095 1_655
Cl6 Nb7 2.327727 1_555
Cl7 Nb1 2.379579 1_555
Cl7 K2 3.459134 1_555
Cl7 K8 3.663948 1_565
Cl8 Nb8 2.392818 1_554
Cl8 K1 3.349999 1_555
Cl8 K5 3.539482 1_554
Cl9 Nb10 2.352916 1_555
Cl9 K3 3.508545 1_555
Cl10 Nb9 2.518140 1_555
Cl10 K1 3.438868 1_455
Cl10 K11 3.513726 1_555
Cl10 K5 3.557270 1_554
Cl10 K1 3.589764 1_555
Cl11 Nb11 2.435060 1_554
Cl11 K7 3.545527 1_565
Cl11 K15 3.633359 1_454
Cl11 K6 3.725486 1_455
Cl12 Nb4 2.518140 1_555
Cl12 K8 3.438868 1_555
Cl12 K10 3.513726 1_555
Cl12 K2 3.557270 1_545
Cl12 K8 3.589764 1_655
Cl13 Nb11 2.438447 1_554
Cl13 K6 3.506874 1_555
Cl13 K7 3.557509 1_565
Cl13 K15 3.767942 1_554
Cl14 Nb13 2.373020 1_555
Cl14 K12 3.397944 1_555
Cl15 Nb9 2.379723 1_555
Cl15 K1 3.390311 1_555
Cl15 K11 3.698880 1_555
Cl16 Nb11 2.481652 1_555
Cl16 K7 3.337424 1_566
Cl16 K15 3.498794 1_555
Cl16 K15 3.560806 1_455
Cl17 Nb14 2.368927 1_555
Cl17 K10 3.476082 1_465
Cl17 K8 3.629938 1_565
Cl18 Nb4 2.372528 1_555
Cl18 K10 3.493269 1_555
Cl18 K8 3.615095 1_555
Cl19 Nb15 2.373020 1_555
Cl19 K14 3.397944 1_555
Cl20 Nb10 2.438447 1_555
Cl20 K14 3.506874 1_455
Cl20 K4 3.557509 1_555
Cl20 K3 3.767942 1_455
Cl21 Nb0 2.298144 1_555
Cl22 Nb11 2.353402 1_555
Cl22 K15 3.518892 1_555
Cl23 Nb13 2.396161 1_555
Cl23 K13 3.354955 1_555
Cl24 Nb3 2.407617 1_565
Cl24 K9 3.655248 1_655
Cl24 K6 3.658316 1_555
Cl24 K7 3.698922 1_665
Cl25 Nb3 2.298144 1_555
Cl26 Nb11 2.352916 1_555
Cl26 K15 3.508545 1_455
Cl27 Nb10 2.353402 1_555
Cl27 K3 3.518892 1_455
Cl28 Nb4 2.379579 1_555
Cl28 K8 3.459134 1_555
Cl28 K2 3.663948 1_545
Cl29 Nb3 2.503953 1_565
Cl29 K9 3.496123 1_555
Cl29 K6 3.543089 1_555
Cl29 K9 3.544653 1_655
Cl29 K2 3.618383 1_555
Cl30 Nb0 2.373143 1_555
Cl30 K5 3.479331 1_555
Cl30 K13 3.602870 1_455
Cl31 Nb13 2.502556 1_555
Cl31 K13 3.296527 1_555
Cl31 K12 3.523061 1_555
Cl31 K12 3.541977 1_655
Cl32 Nb9 2.392818 1_556
Cl32 K5 3.349999 1_555
Cl32 K1 3.539482 1_556
Cl33 Nb14 2.407617 1_545
Cl33 K10 3.655248 1_455
Cl33 K0 3.658316 1_555
Cl33 K15 3.698922 1_445
Cl34 Nb6 2.438447 1_555
Cl34 K12 3.506874 1_655
Cl34 K3 3.557509 1_555
Cl34 K4 3.767942 1_655
Cl35 Nb0 2.407617 1_555
Cl35 K13 3.655248 1_555
Cl35 K12 3.658316 1_555
Cl35 K3 3.698922 1_555
Cl36 Nb13 2.360229 1_555
Cl36 K12 3.584146 1_655
Cl37 Nb7 2.395874 1_555
Cl37 K9 3.547080 1_555
Cl37 K6 3.570412 1_555
Cl38 Nb12 2.360229 1_555
Cl38 K0 3.584146 1_555
Cl39 Nb10 2.310805 1_555
Cl40 Nb5 2.310805 1_556
Cl41 Nb9 2.379579 1_656
Cl41 K1 3.459134 1_556
Cl41 K5 3.663948 1_655
Cl42 Nb2 2.298144 1_555
Cl43 Nb1 2.379723 1_655
Cl43 K2 3.390311 1_555
Cl43 K9 3.698880 1_655
Cl44 Nb12 2.395874 1_555
Cl44 K10 3.547080 1_555
Cl44 K0 3.570412 1_555
Cl45 Nb15 2.360229 1_555
Cl45 K14 3.584146 1_455
Cl46 Nb2 2.368927 1_555
Cl46 K11 3.476082 1_555
Cl46 K1 3.629938 1_555
Cl47 Nb7 2.373020 1_655
Cl47 K6 3.397944 1_555
Cl48 Nb3 2.368927 1_455
Cl48 K9 3.476082 1_545
Cl48 K2 3.629938 1_445
Cl49 Nb0 2.368927 1_555
Cl49 K13 3.476082 1_555
Cl49 K5 3.629938 1_555
Cl50 Nb6 2.481652 1_555
Cl50 K3 3.337424 1_555
Cl50 K4 3.498794 1_655
Cl50 K4 3.560806 1_555
Cl51 Nb1 2.314818 1_555
Cl52 Nb3 2.373143 1_555
Cl52 K2 3.479331 1_545
Cl52 K9 3.602870 1_545
Cl53 Nb7 2.502556 1_555
Cl53 K9 3.296527 1_555
Cl53 K6 3.523061 1_455
Cl53 K6 3.541977 1_555
Cl54 Nb5 2.352916 1_555
Cl54 K7 3.508545 1_655
Cl55 Nb14 2.298144 1_555
Cl56 Nb12 2.327727 1_555
Cl57 Nb15 2.396161 1_555
Cl57 K11 3.354955 1_555
Cl58 Nb13 2.395874 1_455
Cl58 K13 3.547080 1_455
Cl58 K12 3.570412 1_555
Cl59 Nb3 2.415694 1_565
Cl59 K7 3.571890 1_565
Cl59 K9 3.582197 1_555
Cl59 K6 3.752768 1_555
Cl60 Nb12 2.502556 1_555
Cl60 K10 3.296527 1_555
Cl60 K0 3.523061 1_655
Cl60 K0 3.541977 1_555
Cl61 Nb4 2.392818 1_555
Cl61 K2 3.349999 1_545
Cl61 K8 3.539482 1_655
Cl62 Nb10 2.435060 1_555
Cl62 K4 3.545527 1_555
Cl62 K3 3.633359 1_555
Cl62 K14 3.725486 1_555
Cl63 Nb0 2.503953 1_555
Cl63 K13 3.496123 1_455
Cl63 K12 3.543089 1_555
Cl63 K13 3.544653 1_555
Cl63 K5 3.618383 1_555
Cl64 Nb6 2.435060 1_555
Cl64 K3 3.545527 1_555
Cl64 K4 3.633359 1_555
Cl64 K12 3.725486 1_555
Cl65 Nb5 2.353402 1_555
Cl65 K7 3.518892 1_555
Cl66 Nb7 2.396161 1_555
Cl66 K9 3.354955 1_555
Cl67 Nb6 2.353402 1_555
Cl67 K4 3.518892 1_655
Cl68 Nb2 2.373143 1_555
Cl68 K1 3.479331 1_555
Cl68 K11 3.602870 1_655
Cl69 Nb1 2.392818 1_555
Cl69 K8 3.349999 1_565
Cl69 K2 3.539482 1_455
Cl70 Nb14 2.503953 1_545
Cl70 K10 3.496123 1_555
Cl70 K0 3.543089 1_555
Cl70 K10 3.544653 1_455
Cl70 K8 3.618383 1_555
Cl71 Nb15 2.395874 1_655
Cl71 K11 3.547080 1_655
Cl71 K14 3.570412 1_555
Cl72 Nb4 2.379723 1_455
Cl72 K8 3.390311 1_555
Cl72 K10 3.698880 1_455
Cl73 Nb11 2.310805 1_554
Cl74 Nb1 2.372528 1_555
Cl74 K9 3.493269 1_555
Cl74 K2 3.615095 1_555
Cl75 Nb1 2.518140 1_555
Cl75 K2 3.438868 1_555
Cl75 K9 3.513726 1_555
Cl75 K8 3.557270 1_565
Cl75 K2 3.589764 1_455
Cl76 Nb15 2.327727 1_555
Cl77 Nb2 2.415694 1_455
Cl77 K4 3.571890 1_555
Cl77 K11 3.582197 1_555
Cl77 K14 3.752768 1_455
Cl78 Nb2 2.407617 1_555
Cl78 K11 3.655248 1_555
Cl78 K14 3.658316 1_555
Cl78 K4 3.698922 1_555
Cl79 Nb14 2.373143 1_555
Cl79 K8 3.479331 1_565
Cl79 K10 3.602870 1_565
Cl80 Nb2 2.503953 1_555
Cl80 K11 3.496123 1_655
Cl80 K14 3.543089 1_555
Cl80 K11 3.544653 1_555
Cl80 K1 3.618383 1_555
Cl81 Nb0 2.415694 1_655
Cl81 K3 3.571890 1_555
Cl81 K13 3.582197 1_555
Cl81 K12 3.752768 1_655
Cl82 Nb12 2.396161 1_555
Cl82 K10 3.354955 1_555
Cl83 Nb5 2.438447 1_556
Cl83 K0 3.506874 1_555
Cl83 K15 3.557509 1_545
Cl83 K7 3.767942 1_556
Cl84 Nb8 2.379723 1_555
Cl84 K5 3.390311 1_555
Cl84 K13 3.698880 1_555
Cl85 Nb6 2.352916 1_555
Cl85 K4 3.508545 1_555
Cl86 Nb9 2.372528 1_555
Cl86 K11 3.493269 1_555
Cl86 K1 3.615095 1_455
Cl87 Nb7 2.360229 1_555
Cl87 K6 3.584146 1_555
Cl88 Nb8 2.518140 1_555
Cl88 K5 3.438868 1_655
Cl88 K13 3.513726 1_555
Cl88 K1 3.557270 1_556
Cl88 K5 3.589764 1_555
Cl89 Nb13 2.327727 1_555
Cl90 Nb8 2.314818 1_554
Cl91 Nb15 2.502556 1_555
Cl91 K11 3.296527 1_555
Cl91 K14 3.523061 1_555
Cl91 K14 3.541977 1_455
Cl92 Nb12 2.373020 1_455
Cl92 K0 3.397944 1_555
Cl93 Nb10 2.481652 1_555
Cl93 K4 3.337424 1_555
Cl93 K3 3.498794 1_455
Cl93 K3 3.560806 1_555
Cl94 Nb6 2.310805 1_555
Cl95 Nb5 2.481652 1_555
Cl95 K15 3.337424 1_544
Cl95 K7 3.498794 1_555
Cl95 K7 3.560806 1_655
