# generated using pymatgen
data_La3Co29(Si2B5)2
_symmetry_space_group_name_H-M   'P 1'
_cell_length_a   11.20584200
_cell_length_b   11.20584200
_cell_length_c   7.86521800
_cell_angle_alpha   90.00000000
_cell_angle_beta   90.00000000
_cell_angle_gamma   90.00000000
_symmetry_Int_Tables_number   1
_chemical_formula_structural   La3Co29(Si2B5)2
_chemical_formula_sum   'La6 Co58 Si8 B20'
_cell_volume   987.64246307
_cell_formula_units_Z   2
loop_
 _symmetry_equiv_pos_site_id
 _symmetry_equiv_pos_as_xyz
  1  'x, y, z'
loop_
 _atom_site_type_symbol
 _atom_site_label
 _atom_site_symmetry_multiplicity
 _atom_site_fract_x
 _atom_site_fract_y
 _atom_site_fract_z
 _atom_site_occupancy
  La  La0  1  0.25000000  0.75000000  0.00000000  1
  La  La1  1  0.25000000  0.25000000  0.00000000  1
  La  La2  1  0.75000000  0.75000000  0.00000000  1
  La  La3  1  0.75000000  0.25000000  0.00000000  1
  La  La4  1  0.00000000  0.00000000  0.50000000  1
  La  La5  1  0.50000000  0.50000000  0.50000000  1
  Co  Co0  1  0.82510100  0.83825500  0.33727700  1
  Co  Co1  1  0.17489900  0.16174500  0.33727700  1
  Co  Co2  1  0.66174500  0.32510100  0.33727700  1
  Co  Co3  1  0.33825500  0.67489900  0.33727700  1
  Co  Co4  1  0.83825500  0.82510100  0.66272300  1
  Co  Co5  1  0.32510100  0.66174500  0.66272300  1
  Co  Co6  1  0.67489900  0.33825500  0.66272300  1
  Co  Co7  1  0.16174500  0.17489900  0.66272300  1
  Co  Co8  1  0.67489900  0.66174500  0.66272300  1
  Co  Co9  1  0.32510100  0.33825500  0.66272300  1
  Co  Co10  1  0.83825500  0.17489900  0.66272300  1
  Co  Co11  1  0.16174500  0.82510100  0.66272300  1
  Co  Co12  1  0.66174500  0.67489900  0.33727700  1
  Co  Co13  1  0.17489900  0.83825500  0.33727700  1
  Co  Co14  1  0.82510100  0.16174500  0.33727700  1
  Co  Co15  1  0.33825500  0.32510100  0.33727700  1
  Co  Co16  1  0.60903200  0.10903200  0.30266000  1
  Co  Co17  1  0.39096800  0.89096800  0.30266000  1
  Co  Co18  1  0.39096800  0.10903200  0.30266000  1
  Co  Co19  1  0.60903200  0.89096800  0.30266000  1
  Co  Co20  1  0.10903200  0.60903200  0.69734000  1
  Co  Co21  1  0.10903200  0.39096800  0.69734000  1
  Co  Co22  1  0.89096800  0.60903200  0.69734000  1
  Co  Co23  1  0.89096800  0.39096800  0.69734000  1
  Co  Co24  1  0.61360700  0.11360700  0.74671100  1
  Co  Co25  1  0.38639300  0.88639300  0.74671100  1
  Co  Co26  1  0.38639300  0.11360700  0.74671100  1
  Co  Co27  1  0.61360700  0.88639300  0.74671100  1
  Co  Co28  1  0.11360700  0.61360700  0.25328900  1
  Co  Co29  1  0.11360700  0.38639300  0.25328900  1
  Co  Co30  1  0.88639300  0.61360700  0.25328900  1
  Co  Co31  1  0.88639300  0.38639300  0.25328900  1
  Co  Co32  1  0.50000000  0.16387400  0.02814900  1
  Co  Co33  1  0.50000000  0.83612600  0.02814900  1
  Co  Co34  1  0.33612600  0.00000000  0.02814900  1
  Co  Co35  1  0.66387400  0.00000000  0.02814900  1
  Co  Co36  1  0.16387400  0.50000000  0.97185100  1
  Co  Co37  1  0.00000000  0.33612600  0.97185100  1
  Co  Co38  1  0.00000000  0.66387400  0.97185100  1
  Co  Co39  1  0.83612600  0.50000000  0.97185100  1
  Co  Co40  1  0.50000000  0.22478400  0.52511100  1
  Co  Co41  1  0.50000000  0.77521600  0.52511100  1
  Co  Co42  1  0.27521600  0.00000000  0.52511100  1
  Co  Co43  1  0.72478400  0.00000000  0.52511100  1
  Co  Co44  1  0.22478400  0.50000000  0.47488900  1
  Co  Co45  1  0.00000000  0.27521600  0.47488900  1
  Co  Co46  1  0.00000000  0.72478400  0.47488900  1
  Co  Co47  1  0.77521600  0.50000000  0.47488900  1
  Co  Co48  1  0.50000000  0.61009200  0.11094300  1
  Co  Co49  1  0.50000000  0.38990800  0.11094300  1
  Co  Co50  1  0.88990800  0.00000000  0.11094300  1
  Co  Co51  1  0.11009200  0.00000000  0.11094300  1
  Co  Co52  1  0.61009200  0.50000000  0.88905700  1
  Co  Co53  1  0.00000000  0.88990800  0.88905700  1
  Co  Co54  1  0.00000000  0.11009200  0.88905700  1
  Co  Co55  1  0.38990800  0.50000000  0.88905700  1
  Co  Co56  1  0.50000000  0.00000000  0.53164200  1
  Co  Co57  1  0.00000000  0.50000000  0.46835800  1
  Si  Si0  1  0.50000000  0.68067300  0.82444400  1
  Si  Si1  1  0.50000000  0.31932700  0.82444400  1
  Si  Si2  1  0.81932700  0.00000000  0.82444400  1
  Si  Si3  1  0.18067300  0.00000000  0.82444400  1
  Si  Si4  1  0.68067300  0.50000000  0.17555600  1
  Si  Si5  1  0.00000000  0.81932700  0.17555600  1
  Si  Si6  1  0.00000000  0.18067300  0.17555600  1
  Si  Si7  1  0.31932700  0.50000000  0.17555600  1
  B  B0  1  0.68632300  0.18632300  0.51731200  1
  B  B1  1  0.31367700  0.81367700  0.51731200  1
  B  B2  1  0.31367700  0.18632300  0.51731200  1
  B  B3  1  0.68632300  0.81367700  0.51731200  1
  B  B4  1  0.18632300  0.68632300  0.48268800  1
  B  B5  1  0.18632300  0.31367700  0.48268800  1
  B  B6  1  0.81367700  0.68632300  0.48268800  1
  B  B7  1  0.81367700  0.31367700  0.48268800  1
  B  B8  1  0.50000000  0.25586200  0.26097700  1
  B  B9  1  0.50000000  0.74413800  0.26097700  1
  B  B10  1  0.24413800  0.00000000  0.26097700  1
  B  B11  1  0.75586200  0.00000000  0.26097700  1
  B  B12  1  0.25586200  0.50000000  0.73902300  1
  B  B13  1  0.00000000  0.24413800  0.73902300  1
  B  B14  1  0.00000000  0.75586200  0.73902300  1
  B  B15  1  0.74413800  0.50000000  0.73902300  1
  B  B16  1  0.50000000  0.00000000  0.89327700  1
  B  B17  1  0.00000000  0.50000000  0.10672300  1
  B  B18  1  0.50000000  0.00000000  0.14742900  1
  B  B19  1  0.00000000  0.50000000  0.85257100  1
loop_
_geom_bond_atom_site_label_1
_geom_bond_atom_site_label_2
_geom_bond_distance
_geom_bond_site_symmetry_2
La0 Si7 3.218427 1_555
La0 Si5 3.218427 1_555
La0 Si3 3.218427 1_564
La0 Si0 3.218427 1_554
La1 Si7 3.218427 1_555
La1 Si1 3.218427 1_554
La1 Si6 3.218427 1_555
La1 Si3 3.218427 1_554
La2 Si2 3.218427 1_564
La2 Si5 3.218427 1_655
La2 Si4 3.218427 1_555
La2 Si0 3.218427 1_554
La3 Si2 3.218427 1_554
La3 Si1 3.218427 1_554
La3 Si6 3.218427 1_655
La3 Si4 3.218427 1_555
La4 Si3 3.257419 1_555
La4 Si6 3.257419 1_555
La4 Si2 3.257419 1_455
La4 Si5 3.257419 1_545
La5 Si0 3.257419 1_555
La5 Si4 3.257419 1_555
La5 Si1 3.257419 1_555
La5 Si7 3.257419 1_555
Co0 Si5 2.346075 1_655
Co0 La2 2.953545 1_555
Co0 La4 2.960457 1_665
Co1 Si6 2.346075 1_555
Co1 La1 2.953545 1_555
Co1 La4 2.960457 1_555
Co2 Si4 2.346075 1_555
Co2 La3 2.953545 1_555
Co2 La5 2.960457 1_555
Co3 Si7 2.346075 1_555
Co3 La0 2.953545 1_555
Co3 La5 2.960457 1_555
Co4 Si2 2.346075 1_565
Co4 La2 2.953545 1_556
Co4 La4 2.960457 1_665
Co5 Si0 2.346075 1_555
Co5 La0 2.953545 1_556
Co5 La5 2.960457 1_555
Co6 Si1 2.346075 1_555
Co6 La3 2.953545 1_556
Co6 La5 2.960457 1_555
Co7 Si3 2.346075 1_555
Co7 La1 2.953545 1_556
Co7 La4 2.960457 1_555
Co8 Si0 2.346075 1_555
Co8 La2 2.953545 1_556
Co8 La5 2.960457 1_555
Co9 Si1 2.346075 1_555
Co9 La1 2.953545 1_556
Co9 La5 2.960457 1_555
Co10 Si2 2.346075 1_555
Co10 La3 2.953545 1_556
Co10 La4 2.960457 1_655
Co11 Si3 2.346075 1_565
Co11 La0 2.953545 1_556
Co11 La4 2.960457 1_565
Co12 Si4 2.346075 1_555
Co12 La2 2.953545 1_555
Co12 La5 2.960457 1_555
Co13 Si5 2.346075 1_555
Co13 La0 2.953545 1_555
Co13 La4 2.960457 1_565
Co14 Si6 2.346075 1_655
Co14 La3 2.953545 1_555
Co14 La4 2.960457 1_655
Co15 Si7 2.346075 1_555
Co15 La1 2.953545 1_555
Co15 La5 2.960457 1_555
Co16 Co56 2.495825 1_555
Co17 Co56 2.495825 1_565
Co18 Co56 2.495825 1_555
Co19 Co56 2.495825 1_565
Co20 Co57 2.495825 1_555
Co21 Co57 2.495825 1_555
Co22 Co57 2.495825 1_655
Co23 Co57 2.495825 1_655
Co24 Co56 2.470377 1_555
Co24 Si1 2.703467 1_555
Co24 Si2 2.703467 1_555
Co24 La3 2.939517 1_556
Co25 Co56 2.470377 1_565
Co25 Si3 2.703467 1_565
Co25 Si0 2.703467 1_555
Co25 La0 2.939517 1_556
Co26 Co56 2.470377 1_555
Co26 Si1 2.703467 1_555
Co26 Si3 2.703467 1_555
Co26 La1 2.939517 1_556
Co27 Co56 2.470377 1_565
Co27 Si2 2.703467 1_565
Co27 Si0 2.703467 1_555
Co27 La2 2.939517 1_556
Co28 Co57 2.470377 1_555
Co28 Si7 2.703467 1_555
Co28 Si5 2.703467 1_555
Co28 La0 2.939517 1_555
Co29 Co57 2.470377 1_555
Co29 Si7 2.703467 1_555
Co29 Si6 2.703467 1_555
Co29 La1 2.939517 1_555
Co30 Co57 2.470377 1_655
Co30 Si5 2.703467 1_655
Co30 Si4 2.703467 1_555
Co30 La2 2.939517 1_555
Co31 Co57 2.470377 1_655
Co31 Si4 2.703467 1_555
Co31 Si6 2.703467 1_655
Co31 La3 2.939517 1_555
Co32 Si1 2.366748 1_554
Co32 La3 2.971303 1_555
Co32 La1 2.971303 1_555
Co33 Si0 2.366748 1_554
Co33 La2 2.971303 1_555
Co33 La0 2.971303 1_555
Co34 Si3 2.366748 1_554
Co34 La0 2.971303 1_545
Co34 La1 2.971303 1_555
Co35 Si2 2.366748 1_554
Co35 La3 2.971303 1_555
Co35 La2 2.971303 1_545
Co36 Si7 2.366748 1_556
Co36 La0 2.971303 1_556
Co36 La1 2.971303 1_556
Co37 Si6 2.366748 1_556
Co37 La3 2.971303 1_456
Co37 La1 2.971303 1_556
Co38 Si5 2.366748 1_556
Co38 La2 2.971303 1_456
Co38 La0 2.971303 1_556
Co39 Si4 2.366748 1_556
Co39 La2 2.971303 1_556
Co39 La3 2.971303 1_556
Co40 Co56 2.519418 1_555
Co40 Si1 2.581709 1_555
Co40 La5 3.090345 1_555
Co41 Co56 2.519418 1_565
Co41 Si0 2.581709 1_555
Co41 La5 3.090345 1_555
Co42 Co56 2.519418 1_555
Co42 Si3 2.581709 1_555
Co42 La4 3.090345 1_555
Co43 Co56 2.519418 1_555
Co43 Si2 2.581709 1_555
Co43 La4 3.090345 1_655
Co44 Co57 2.519418 1_555
Co44 Si7 2.581709 1_555
Co44 La5 3.090345 1_555
Co45 Co57 2.519418 1_555
Co45 Si6 2.581709 1_555
Co45 La4 3.090345 1_555
Co46 Co57 2.519418 1_555
Co46 Si5 2.581709 1_555
Co46 La4 3.090345 1_565
Co47 Co57 2.519418 1_655
Co47 Si4 2.581709 1_555
Co47 La5 3.090345 1_555
Co48 Si0 2.388150 1_554
Co48 Si4 2.424704 1_555
Co48 Si7 2.424704 1_555
Co48 La5 3.299343 1_555
Co49 Si1 2.388150 1_554
Co49 Si4 2.424704 1_555
Co49 Si7 2.424704 1_555
Co49 La5 3.299343 1_555
Co50 Si2 2.388150 1_554
Co50 Si6 2.424704 1_655
Co50 Si5 2.424704 1_645
Co50 La4 3.299343 1_655
Co51 Si3 2.388150 1_554
Co51 Si6 2.424704 1_555
Co51 Si5 2.424704 1_545
Co51 La4 3.299343 1_555
Co52 Si4 2.388150 1_556
Co52 Si0 2.424704 1_555
Co52 Si1 2.424704 1_555
Co52 La5 3.299343 1_555
Co53 Si5 2.388150 1_556
Co53 Si3 2.424704 1_565
Co53 Si2 2.424704 1_465
Co53 La4 3.299343 1_565
Co54 Si6 2.388150 1_556
Co54 Si3 2.424704 1_555
Co54 Si2 2.424704 1_455
Co54 La4 3.299343 1_555
Co55 Si7 2.388150 1_556
Co55 Si0 2.424704 1_555
Co55 Si1 2.424704 1_555
Co55 La5 3.299343 1_555
B0 B7 2.036526 1_555
B0 Co10 2.054996 1_555
B0 Co6 2.054996 1_555
B0 Co16 2.085809 1_555
B0 Co14 2.121170 1_555
B0 Co2 2.121170 1_555
B0 Co40 2.132807 1_555
B0 Co43 2.132807 1_555
B0 Co24 2.140874 1_555
B1 B4 2.036526 1_555
B1 Co11 2.054996 1_555
B1 Co5 2.054996 1_555
B1 Co17 2.085809 1_555
B1 Co13 2.121170 1_555
B1 Co3 2.121170 1_555
B1 Co41 2.132807 1_555
B1 Co42 2.132807 1_565
B1 Co25 2.140874 1_555
B2 B5 2.036526 1_555
B2 Co7 2.054996 1_555
B2 Co9 2.054996 1_555
B2 Co18 2.085809 1_555
B2 Co15 2.121170 1_555
B2 Co1 2.121170 1_555
B2 Co40 2.132807 1_555
B2 Co42 2.132807 1_555
B2 Co26 2.140874 1_555
B3 B6 2.036526 1_555
B3 Co4 2.054996 1_555
B3 Co8 2.054996 1_555
B3 Co19 2.085809 1_555
B3 Co0 2.121170 1_555
B3 Co12 2.121170 1_555
B3 Co41 2.132807 1_555
B3 Co43 2.132807 1_565
B3 Co27 2.140874 1_555
B4 Co13 2.054996 1_555
B4 Co3 2.054996 1_555
B4 Co20 2.085809 1_555
B4 Co11 2.121170 1_555
B4 Co5 2.121170 1_555
B4 Co44 2.132807 1_555
B4 Co46 2.132807 1_555
B4 Co28 2.140874 1_555
B5 Co15 2.054996 1_555
B5 Co1 2.054996 1_555
B5 Co21 2.085809 1_555
B5 Co7 2.121170 1_555
B5 Co9 2.121170 1_555
B5 Co44 2.132807 1_555
B5 Co45 2.132807 1_555
B5 Co29 2.140874 1_555
B6 Co0 2.054996 1_555
B6 Co12 2.054996 1_555
B6 Co22 2.085809 1_555
B6 Co4 2.121170 1_555
B6 Co8 2.121170 1_555
B6 Co47 2.132807 1_555
B6 Co46 2.132807 1_655
B6 Co30 2.140874 1_555
B7 Co14 2.054996 1_555
B7 Co2 2.054996 1_555
B7 Co23 2.085809 1_555
B7 Co10 2.121170 1_555
B7 Co6 2.121170 1_555
B7 Co47 2.132807 1_555
B7 Co45 2.132807 1_655
B7 Co31 2.140874 1_555
B8 Co49 1.910188 1_555
B8 Co2 2.060885 1_555
B8 Co15 2.060885 1_555
B8 Co18 2.075441 1_555
B8 Co16 2.075441 1_555
B8 Co32 2.101429 1_555
B8 Co40 2.106459 1_555
B9 Co48 1.910188 1_555
B9 Co12 2.060885 1_555
B9 Co3 2.060885 1_555
B9 Co19 2.075441 1_555
B9 Co17 2.075441 1_555
B9 Co33 2.101429 1_555
B9 Co41 2.106459 1_555
B10 Co51 1.910188 1_555
B10 Co1 2.060885 1_555
B10 Co13 2.060885 1_545
B10 Co18 2.075441 1_555
B10 Co17 2.075441 1_545
B10 Co34 2.101429 1_555
B10 Co42 2.106459 1_555
B11 Co50 1.910188 1_555
B11 Co14 2.060885 1_555
B11 Co0 2.060885 1_545
B11 Co16 2.075441 1_555
B11 Co19 2.075441 1_545
B11 Co35 2.101429 1_555
B11 Co43 2.106459 1_555
B12 Co55 1.910188 1_555
B12 Co5 2.060885 1_555
B12 Co9 2.060885 1_555
B12 Co20 2.075441 1_555
B12 Co21 2.075441 1_555
B12 Co36 2.101429 1_555
B12 Co44 2.106459 1_555
B13 Co54 1.910188 1_555
B13 Co7 2.060885 1_555
B13 Co10 2.060885 1_455
B13 Co21 2.075441 1_555
B13 Co23 2.075441 1_455
B13 Co37 2.101429 1_555
B13 Co45 2.106459 1_555
B14 Co53 1.910188 1_555
B14 Co11 2.060885 1_555
B14 Co4 2.060885 1_455
B14 Co20 2.075441 1_555
B14 Co22 2.075441 1_455
B14 Co38 2.101429 1_555
B14 Co46 2.106459 1_555
B15 Co52 1.910188 1_555
B15 Co8 2.060885 1_555
B15 Co6 2.060885 1_555
B15 Co23 2.075441 1_555
B15 Co22 2.075441 1_555
B15 Co39 2.101429 1_555
B15 Co47 2.106459 1_555
B16 B18 1.998961 1_556
B16 Co32 2.120721 1_556
B16 Co35 2.120721 1_556
B16 Co34 2.120721 1_556
B16 Co33 2.120721 1_546
B16 Co24 2.137817 1_555
B16 Co25 2.137817 1_545
B16 Co26 2.137817 1_555
B16 Co27 2.137817 1_545
B17 B19 1.998961 1_554
B17 Co36 2.120721 1_554
B17 Co38 2.120721 1_554
B17 Co37 2.120721 1_554
B17 Co39 2.120721 1_454
B17 Co29 2.137817 1_555
B17 Co28 2.137817 1_555
B17 Co30 2.137817 1_455
B17 Co31 2.137817 1_455
B18 Co35 2.062115 1_555
B18 Co32 2.062115 1_555
B18 Co34 2.062115 1_555
B18 Co33 2.062115 1_545
B18 Co18 2.115710 1_555
B18 Co16 2.115710 1_555
B18 Co17 2.115710 1_545
B18 Co19 2.115710 1_545
B19 Co38 2.062115 1_555
B19 Co37 2.062115 1_555
B19 Co36 2.062115 1_555
B19 Co39 2.062115 1_455
B19 Co20 2.115710 1_555
B19 Co21 2.115710 1_555
B19 Co23 2.115710 1_455
B19 Co22 2.115710 1_455
