# generated using pymatgen
data_RbH5C7SO5
_symmetry_space_group_name_H-M   'P 1'
_cell_length_a   7.23597900
_cell_length_b   10.53901500
_cell_length_c   25.93309700
_cell_angle_alpha   90.00000000
_cell_angle_beta   90.00000000
_cell_angle_gamma   90.00000000
_symmetry_Int_Tables_number   1
_chemical_formula_structural   RbH5C7SO5
_chemical_formula_sum   'Rb8 H40 C56 S8 O40'
_cell_volume   1977.66034285
_cell_formula_units_Z   8
loop_
 _symmetry_equiv_pos_site_id
 _symmetry_equiv_pos_as_xyz
  1  'x, y, z'
loop_
 _atom_site_type_symbol
 _atom_site_label
 _atom_site_symmetry_multiplicity
 _atom_site_fract_x
 _atom_site_fract_y
 _atom_site_fract_z
 _atom_site_occupancy
  Rb  Rb0  1  0.18736300  0.87733800  0.47273100  1
  Rb  Rb1  1  0.31263700  0.37733800  0.52726900  1
  Rb  Rb2  1  0.81263700  0.62266200  0.97273100  1
  Rb  Rb3  1  0.31263700  0.87733800  0.97273100  1
  Rb  Rb4  1  0.81263700  0.12266200  0.52726900  1
  Rb  Rb5  1  0.18736300  0.37733800  0.02726900  1
  Rb  Rb6  1  0.68736300  0.62266200  0.47273100  1
  Rb  Rb7  1  0.68736300  0.12266200  0.02726900  1
  H  H0  1  0.86949100  0.75754100  0.25246000  1
  H  H1  1  0.98791200  0.67111000  0.61097300  1
  H  H2  1  0.41177400  0.43463500  0.76819500  1
  H  H3  1  0.68888300  0.76392000  0.33394000  1
  H  H4  1  0.37856200  0.11456100  0.79229500  1
  H  H5  1  0.58822600  0.56536500  0.23180500  1
  H  H6  1  0.41177400  0.93463500  0.73180500  1
  H  H7  1  0.08822600  0.43463500  0.26819500  1
  H  H8  1  0.48791200  0.32889000  0.88902700  1
  H  H9  1  0.13050900  0.74245900  0.75246000  1
  H  H10  1  0.36949100  0.74245900  0.25246000  1
  H  H11  1  0.98791200  0.17111000  0.88902700  1
  H  H12  1  0.36949100  0.24245900  0.24754000  1
  H  H13  1  0.08822600  0.93463500  0.23180500  1
  H  H14  1  0.62143800  0.38543900  0.29229500  1
  H  H15  1  0.31111700  0.73608000  0.83394000  1
  H  H16  1  0.48791200  0.82889000  0.61097300  1
  H  H17  1  0.31111700  0.23608000  0.66606000  1
  H  H18  1  0.91177400  0.06536500  0.76819500  1
  H  H19  1  0.87856200  0.88543900  0.70770500  1
  H  H20  1  0.91177400  0.56536500  0.73180500  1
  H  H21  1  0.51208800  0.17111000  0.38902700  1
  H  H22  1  0.87856200  0.38543900  0.79229500  1
  H  H23  1  0.12143800  0.11456100  0.29229500  1
  H  H24  1  0.13050900  0.24245900  0.74754000  1
  H  H25  1  0.63050900  0.25754100  0.74754000  1
  H  H26  1  0.18888300  0.73608000  0.33394000  1
  H  H27  1  0.81111700  0.26392000  0.66606000  1
  H  H28  1  0.58822600  0.06536500  0.26819500  1
  H  H29  1  0.86949100  0.25754100  0.24754000  1
  H  H30  1  0.63050900  0.75754100  0.75246000  1
  H  H31  1  0.01208800  0.32889000  0.38902700  1
  H  H32  1  0.81111700  0.76392000  0.83394000  1
  H  H33  1  0.68888300  0.26392000  0.16606000  1
  H  H34  1  0.18888300  0.23608000  0.16606000  1
  H  H35  1  0.62143800  0.88543900  0.20770500  1
  H  H36  1  0.01208800  0.82889000  0.11097300  1
  H  H37  1  0.37856200  0.61456100  0.70770500  1
  H  H38  1  0.51208800  0.67111000  0.11097300  1
  H  H39  1  0.12143800  0.61456100  0.20770500  1
  C  C0  1  0.11348800  0.16296000  0.72093000  1
  C  C1  1  0.42795800  0.45821800  0.34818300  1
  C  C2  1  0.02563400  0.35321400  0.88552900  1
  C  C3  1  0.50806300  0.06420600  0.23255200  1
  C  C4  1  0.97436600  0.64678600  0.11447100  1
  C  C5  1  0.78534600  0.34018700  0.17511000  1
  C  C6  1  0.28534600  0.15981300  0.17511000  1
  C  C7  1  0.38651200  0.16296000  0.22093000  1
  C  C8  1  0.21465400  0.15981300  0.67511000  1
  C  C9  1  0.47343900  0.53756900  0.69844300  1
  C  C10  1  0.19432300  0.55888900  0.85951200  1
  C  C11  1  0.11348800  0.66296000  0.77907000  1
  C  C12  1  0.57204200  0.04178200  0.84818300  1
  C  C13  1  0.42795800  0.95821800  0.15181700  1
  C  C14  1  0.47436600  0.85321400  0.11447100  1
  C  C15  1  0.97436600  0.14678600  0.38552900  1
  C  C16  1  0.97343900  0.46243100  0.80155700  1
  C  C17  1  0.49193700  0.43579400  0.73255200  1
  C  C18  1  0.47436600  0.35321400  0.38552900  1
  C  C19  1  0.61348800  0.83704000  0.77907000  1
  C  C20  1  0.52656100  0.96243100  0.19844300  1
  C  C21  1  0.50806300  0.56420600  0.26744800  1
  C  C22  1  0.00806300  0.93579400  0.26744800  1
  C  C23  1  0.07204200  0.95821800  0.65181700  1
  C  C24  1  0.71465400  0.84018700  0.82489000  1
  C  C25  1  0.99193700  0.56420600  0.76744800  1
  C  C26  1  0.88651200  0.83704000  0.27907000  1
  C  C27  1  0.00806300  0.43579400  0.23255200  1
  C  C28  1  0.02563400  0.85321400  0.61447100  1
  C  C29  1  0.52656100  0.46243100  0.30155700  1
  C  C30  1  0.02656100  0.53756900  0.19844300  1
  C  C31  1  0.69432300  0.94111100  0.85951200  1
  C  C32  1  0.69432300  0.44111100  0.64048800  1
  C  C33  1  0.52563400  0.64678600  0.61447100  1
  C  C34  1  0.80567700  0.94111100  0.35951200  1
  C  C35  1  0.30567700  0.05888900  0.14048800  1
  C  C36  1  0.07204200  0.45821800  0.84818300  1
  C  C37  1  0.02656100  0.03756900  0.30155700  1
  C  C38  1  0.61348800  0.33704000  0.72093000  1
  C  C39  1  0.21465400  0.65981300  0.82489000  1
  C  C40  1  0.78534600  0.84018700  0.32489000  1
  C  C41  1  0.71465400  0.34018700  0.67511000  1
  C  C42  1  0.92795800  0.54178200  0.15181700  1
  C  C43  1  0.47343900  0.03756900  0.80155700  1
  C  C44  1  0.57204200  0.54178200  0.65181700  1
  C  C45  1  0.19432300  0.05888900  0.64048800  1
  C  C46  1  0.97343900  0.96243100  0.69844300  1
  C  C47  1  0.49193700  0.93579400  0.76744800  1
  C  C48  1  0.38651200  0.66296000  0.27907000  1
  C  C49  1  0.99193700  0.06420600  0.73255200  1
  C  C50  1  0.30567700  0.55888900  0.35951200  1
  C  C51  1  0.80567700  0.44111100  0.14048800  1
  C  C52  1  0.52563400  0.14678600  0.88552900  1
  C  C53  1  0.88651200  0.33704000  0.22093000  1
  C  C54  1  0.28534600  0.65981300  0.32489000  1
  C  C55  1  0.92795800  0.04178200  0.34818300  1
  S  S0  1  0.16592000  0.56369800  0.41718600  1
  S  S1  1  0.33408000  0.56369800  0.91718600  1
  S  S2  1  0.66592000  0.43630200  0.08281400  1
  S  S3  1  0.33408000  0.06369800  0.58281400  1
  S  S4  1  0.83408000  0.93630200  0.91718600  1
  S  S5  1  0.16592000  0.06369800  0.08281400  1
  S  S6  1  0.66592000  0.93630200  0.41718600  1
  S  S7  1  0.83408000  0.43630200  0.58281400  1
  O  O0  1  0.98520900  0.34745500  0.59319200  1
  O  O1  1  0.53788500  0.26171400  0.86422200  1
  O  O2  1  0.47252100  0.12648600  0.92977700  1
  O  O3  1  0.97252100  0.87351400  0.57022300  1
  O  O4  1  0.52747900  0.37351400  0.42977700  1
  O  O5  1  0.40033400  0.93226200  0.57390700  1
  O  O6  1  0.28616600  0.10549200  0.04049800  1
  O  O7  1  0.48520900  0.65254500  0.90680800  1
  O  O8  1  0.28616600  0.60549200  0.45950200  1
  O  O9  1  0.59966600  0.06773800  0.42609300  1
  O  O10  1  0.51479100  0.34745500  0.09319200  1
  O  O11  1  0.71383400  0.89450800  0.95950200  1
  O  O12  1  0.02747900  0.62648600  0.07022300  1
  O  O13  1  0.51479100  0.84745500  0.40680800  1
  O  O14  1  0.96211500  0.26171400  0.36422200  1
  O  O15  1  0.02747900  0.12648600  0.42977700  1
  O  O16  1  0.46211500  0.23828600  0.36422200  1
  O  O17  1  0.71383400  0.39450800  0.54049800  1
  O  O18  1  0.78616600  0.89450800  0.45950200  1
  O  O19  1  0.01479100  0.15254500  0.09319200  1
  O  O20  1  0.98520900  0.84745500  0.90680800  1
  O  O21  1  0.09966600  0.93226200  0.07390700  1
  O  O22  1  0.21383400  0.10549200  0.54049800  1
  O  O23  1  0.52747900  0.87351400  0.07022300  1
  O  O24  1  0.53788500  0.76171400  0.63577800  1
  O  O25  1  0.03788500  0.23828600  0.86422200  1
  O  O26  1  0.90033400  0.06773800  0.92609300  1
  O  O27  1  0.78616600  0.39450800  0.04049800  1
  O  O28  1  0.03788500  0.73828600  0.63577800  1
  O  O29  1  0.48520900  0.15254500  0.59319200  1
  O  O30  1  0.46211500  0.73828600  0.13577800  1
  O  O31  1  0.01479100  0.65254500  0.40680800  1
  O  O32  1  0.96211500  0.76171400  0.13577800  1
  O  O33  1  0.47252100  0.62648600  0.57022300  1
  O  O34  1  0.90033400  0.56773800  0.57390700  1
  O  O35  1  0.40033400  0.43226200  0.92609300  1
  O  O36  1  0.59966600  0.56773800  0.07390700  1
  O  O37  1  0.21383400  0.60549200  0.95950200  1
  O  O38  1  0.09966600  0.43226200  0.42609300  1
  O  O39  1  0.97252100  0.37351400  0.92977700  1
loop_
_geom_bond_atom_site_label_1
_geom_bond_atom_site_label_2
_geom_bond_distance
_geom_bond_site_symmetry_2
H1 O28 1.022631 1_655
H1 O34 1.585069 1_555
H8 O1 1.022631 1_555
H8 O35 1.585069 1_555
H11 O25 1.022631 1_655
H11 O26 1.585069 1_555
H16 O24 1.022631 1_555
H16 O5 1.585069 1_555
H21 O16 1.022631 1_555
H21 O9 1.585069 1_555
H31 O14 1.022631 1_455
H31 O38 1.585069 1_555
H36 O32 1.022631 1_455
H36 O21 1.585069 1_555
H38 O30 1.022631 1_555
H38 O36 1.585069 1_555
C0 H24 1.092409 1_555
C0 C49 1.395576 1_455
C0 C8 1.396039 1_555
C1 C29 1.404670 1_555
C1 C50 1.412406 1_555
C1 C18 1.508444 1_555
C2 O39 1.228904 1_455
C2 O25 1.334260 1_555
C2 C36 1.508444 1_555
C3 H28 1.091333 1_555
C3 C7 1.395576 1_555
C4 O12 1.228904 1_655
C4 O32 1.334260 1_555
C4 C42 1.508444 1_555
C5 H33 1.090116 1_555
C5 C53 1.396039 1_555
C5 C51 1.399684 1_555
C6 H34 1.090116 1_555
C6 C7 1.396039 1_555
C7 H12 1.092409 1_555
C8 H17 1.090116 1_555
C9 H37 1.089686 1_555
C10 C39 1.399684 1_555
C10 C36 1.412406 1_555
C10 S1 1.806175 1_555
C11 H9 1.092409 1_555
C11 C25 1.395576 1_455
C11 C39 1.396039 1_555
C12 C43 1.404670 1_555
C12 C31 1.412406 1_545
C12 C52 1.508444 1_555
C13 C20 1.404670 1_555
C13 C35 1.412406 1_565
C13 C14 1.508444 1_555
C14 O23 1.228904 1_555
C14 O30 1.334260 1_555
C15 O15 1.228904 1_655
C15 O14 1.334260 1_555
C15 C55 1.508444 1_555
C16 H22 1.089686 1_555
C16 C25 1.396724 1_555
C16 C36 1.404670 1_655
C17 H2 1.091333 1_555
C17 C38 1.395576 1_555
C17 C9 1.396724 1_555
C18 O4 1.228904 1_555
C18 O16 1.334260 1_555
C19 H30 1.092409 1_555
C19 C47 1.395576 1_555
C19 C24 1.396039 1_555
C20 H35 1.089686 1_555
C20 C3 1.396724 1_565
C21 H5 1.091333 1_555
C21 C48 1.395576 1_555
C21 C29 1.396724 1_555
C22 H13 1.091333 1_555
C22 C26 1.395576 1_455
C22 C37 1.396724 1_565
C23 C46 1.404670 1_455
C23 C45 1.412406 1_565
C23 C28 1.508444 1_555
C24 H32 1.090116 1_555
C24 C31 1.399684 1_555
C25 H20 1.091333 1_555
C26 H0 1.092409 1_555
C26 C40 1.396039 1_555
C27 H7 1.091333 1_555
C27 C53 1.395576 1_455
C27 C30 1.396724 1_555
C28 O3 1.228904 1_455
C28 O28 1.334260 1_555
C29 H14 1.089686 1_555
C30 H39 1.089686 1_555
C30 C42 1.404670 1_455
C31 S4 1.806175 1_555
C32 C41 1.399684 1_555
C32 C44 1.412406 1_555
C32 S7 1.806175 1_555
C33 O33 1.228904 1_555
C33 O24 1.334260 1_555
C33 C44 1.508444 1_555
C34 C40 1.399684 1_555
C34 C55 1.412406 1_565
C34 S6 1.806175 1_555
C35 C6 1.399684 1_555
C35 S5 1.806175 1_555
C37 H23 1.089686 1_555
C37 C55 1.404670 1_455
C38 H25 1.092409 1_555
C38 C41 1.396039 1_555
C39 H15 1.090116 1_555
C40 H3 1.090116 1_555
C41 H27 1.090116 1_555
C42 C51 1.412406 1_555
C43 H4 1.089686 1_555
C43 C47 1.396724 1_545
C44 C9 1.404670 1_555
C45 C8 1.399684 1_555
C45 S3 1.806175 1_555
C46 H19 1.089686 1_555
C46 C49 1.396724 1_565
C47 H6 1.091333 1_555
C48 H10 1.092409 1_555
C48 C54 1.396039 1_555
C49 H18 1.091333 1_555
C50 C54 1.399684 1_555
C50 S0 1.806175 1_555
C51 S2 1.806175 1_555
C52 O2 1.228904 1_555
C52 O1 1.334260 1_555
C53 H29 1.092409 1_555
C54 H26 1.090116 1_555
O0 S7 1.464613 1_555
O0 Rb1 2.938584 1_655
O0 Rb4 3.177205 1_555
O2 Rb7 2.968253 1_556
O2 Rb3 3.077985 1_545
O3 Rb0 2.968253 1_655
O3 Rb4 3.077985 1_565
O4 Rb1 2.968253 1_555
O4 Rb6 3.077985 1_555
O5 S3 1.483909 1_565
O5 Rb0 3.097462 1_555
O6 S5 1.468106 1_555
O6 Rb7 2.928849 1_555
O6 Rb5 2.972708 1_555
O6 Rb3 2.984440 1_544
O7 S1 1.464613 1_555
O7 Rb2 2.938584 1_555
O7 Rb3 3.177205 1_555
O8 S0 1.468106 1_555
O8 Rb6 2.928849 1_555
O8 Rb0 2.972708 1_555
O8 Rb1 2.984440 1_555
O9 S6 1.483909 1_545
O9 Rb4 3.097462 1_555
O10 S2 1.464613 1_555
O10 Rb5 2.938584 1_555
O10 Rb7 3.177205 1_555
O11 S4 1.468106 1_555
O11 Rb3 2.928849 1_555
O11 Rb2 2.972708 1_555
O11 Rb7 2.984440 1_566
O12 Rb2 2.968253 1_454
O12 Rb5 3.077985 1_555
O13 S6 1.464613 1_555
O13 Rb0 2.938584 1_555
O13 Rb6 3.177205 1_555
O15 Rb4 2.968253 1_455
O15 Rb0 3.077985 1_545
O17 S7 1.468106 1_555
O17 Rb1 2.928849 1_555
O17 Rb4 2.972708 1_555
O17 Rb6 2.984440 1_555
O18 S6 1.468106 1_555
O18 Rb0 2.928849 1_655
O18 Rb6 2.972708 1_555
O18 Rb4 2.984440 1_565
O19 S5 1.464613 1_555
O19 Rb7 2.938584 1_455
O19 Rb5 3.177205 1_555
O20 S4 1.464613 1_555
O20 Rb3 2.938584 1_655
O20 Rb2 3.177205 1_555
O21 S5 1.483909 1_565
O21 Rb3 3.097462 1_554
O22 S3 1.468106 1_555
O22 Rb4 2.928849 1_455
O22 Rb1 2.972708 1_555
O22 Rb0 2.984440 1_545
O23 Rb3 2.968253 1_554
O23 Rb7 3.077985 1_565
O26 S4 1.483909 1_545
O26 Rb7 3.097462 1_556
O27 S2 1.468106 1_555
O27 Rb5 2.928849 1_655
O27 Rb7 2.972708 1_555
O27 Rb2 2.984440 1_554
O29 S3 1.464613 1_555
O29 Rb4 2.938584 1_555
O29 Rb1 3.177205 1_555
O31 S0 1.464613 1_555
O31 Rb6 2.938584 1_455
O31 Rb0 3.177205 1_555
O33 Rb6 2.968253 1_555
O33 Rb1 3.077985 1_555
O34 S7 1.483909 1_555
O34 Rb6 3.097462 1_555
O35 S1 1.483909 1_555
O35 Rb5 3.097462 1_556
O36 S2 1.483909 1_555
O36 Rb2 3.097462 1_554
O37 S1 1.468106 1_555
O37 Rb2 2.928849 1_455
O37 Rb3 2.972708 1_555
O37 Rb5 2.984440 1_556
O38 S0 1.483909 1_555
O38 Rb1 3.097462 1_555
O39 Rb5 2.968253 1_656
O39 Rb2 3.077985 1_555
