# generated using pymatgen
data_KNiH9(CO5)2
_symmetry_space_group_name_H-M   'P 1'
_cell_length_a   7.08509715
_cell_length_b   7.20863746
_cell_length_c   9.73219995
_cell_angle_alpha   77.02677274
_cell_angle_beta   106.17192775
_cell_angle_gamma   113.60463590
_symmetry_Int_Tables_number   1
_chemical_formula_structural   KNiH9(CO5)2
_chemical_formula_sum   'K2 Ni2 H18 C4 O20'
_cell_volume   433.83051545
_cell_formula_units_Z   2
loop_
 _symmetry_equiv_pos_site_id
 _symmetry_equiv_pos_as_xyz
  1  'x, y, z'
loop_
 _atom_site_type_symbol
 _atom_site_label
 _atom_site_symmetry_multiplicity
 _atom_site_fract_x
 _atom_site_fract_y
 _atom_site_fract_z
 _atom_site_occupancy
  K  K0  1  0.99986500  0.99984400  0.00012100  1
  K  K1  1  0.00007000  0.50039300  0.50003300  1
  Ni  Ni0  1  0.50031400  0.00054100  0.50011300  1
  Ni  Ni1  1  0.49958900  0.49933700  0.00016500  1
  H  H0  1  0.00025800  0.25056100  0.24999600  1
  H  H1  1  0.00015000  0.75019100  0.75008200  1
  H  H2  1  0.86727300  0.55144000  0.18695700  1
  H  H3  1  0.86772300  0.05174000  0.68674400  1
  H  H4  1  0.13218200  0.44815100  0.81326200  1
  H  H5  1  0.13255500  0.94834400  0.31306600  1
  H  H6  1  0.75247700  0.66825500  0.24219900  1
  H  H7  1  0.75282200  0.16840300  0.74170900  1
  H  H8  1  0.24711100  0.33150500  0.75816600  1
  H  H9  1  0.24741500  0.83161800  0.25780100  1
  H  H10  1  0.57771600  0.17334100  0.16481900  1
  H  H11  1  0.57784400  0.67366900  0.66485400  1
  H  H12  1  0.42217400  0.82636100  0.83522800  1
  H  H13  1  0.42227300  0.32667600  0.33516400  1
  H  H14  1  0.59974100  0.20595900  0.00001900  1
  H  H15  1  0.59986100  0.70626200  0.50000200  1
  H  H16  1  0.40020500  0.79374600  0.00005600  1
  H  H17  1  0.40052000  0.29412300  0.49997100  1
  C  C0  1  0.79491400  0.46926000  0.83657000  1
  C  C1  1  0.79509100  0.96937400  0.33654600  1
  C  C2  1  0.20487900  0.53049800  0.16331400  1
  C  C3  1  0.20497100  0.03074700  0.66333700  1
  O  O0  1  0.76630200  0.62487700  0.15597100  1
  O  O1  1  0.76726800  0.12580800  0.65538700  1
  O  O2  1  0.23288100  0.37433200  0.84452400  1
  O  O3  1  0.23371200  0.87506700  0.34396500  1
  O  O4  1  0.51005200  0.20672900  0.06389400  1
  O  O5  1  0.51010600  0.70701700  0.56392900  1
  O  O6  1  0.48983600  0.79295600  0.93611100  1
  O  O7  1  0.49012300  0.29336600  0.43603600  1
  O  O8  1  0.69549100  0.57479400  0.85426200  1
  O  O9  1  0.69576700  0.07507300  0.35421500  1
  O  O10  1  0.30417900  0.42472500  0.14584700  1
  O  O11  1  0.30432500  0.92517700  0.64564400  1
  O  O12  1  0.75203800  0.27841400  0.88092600  1
  O  O13  1  0.75203700  0.77842900  0.38094500  1
  O  O14  1  0.24784800  0.72138100  0.11900700  1
  O  O15  1  0.24799400  0.22160200  0.61906600  1
  O  O16  1  0.95175700  0.56546500  0.76643300  1
  O  O17  1  0.95187400  0.06536100  0.26632300  1
  O  O18  1  0.04814500  0.43450000  0.23363600  1
  O  O19  1  0.04827500  0.93458900  0.73358600  1
loop_
_geom_bond_atom_site_label_1
_geom_bond_atom_site_label_2
_geom_bond_distance
_geom_bond_site_symmetry_2
K0 O17 2.866921 1_565
K0 O19 2.870589 1_654
K0 O2 2.879972 1_664
K0 O0 2.884513 1_555
K0 O14 3.017347 1_655
K0 O12 3.017372 1_564
K0 O6 3.243091 1_554
K0 O4 3.244107 1_665
K0 O10 3.316530 1_665
K0 O8 3.318111 1_554
K1 O16 2.868463 1_455
K1 O18 2.870155 1_555
K1 O1 2.878740 1_455
K1 O3 2.884472 1_555
K1 O13 3.015253 1_455
K1 O15 3.019061 1_555
K1 O7 3.242641 1_455
K1 O5 3.243044 1_555
K1 O11 3.315424 1_555
K1 O9 3.319327 1_455
Ni0 O1 2.080660 1_555
Ni0 O3 2.084552 1_545
Ni0 O7 2.087059 1_555
Ni0 O5 2.090726 1_545
Ni0 O11 2.091719 1_545
Ni0 O9 2.092706 1_555
Ni1 O2 2.081333 1_554
Ni1 O0 2.083172 1_555
Ni1 O4 2.086040 1_555
Ni1 O10 2.090694 1_555
Ni1 O6 2.091426 1_554
Ni1 O8 2.094063 1_554
H0 O18 1.213931 1_555
H0 O17 1.222161 1_455
H1 O19 1.216826 1_555
H1 O16 1.218896 1_455
H2 O0 0.997199 1_555
H2 K1 2.912271 1_655
H3 O1 0.997477 1_555
H3 K0 2.914741 1_546
H4 O2 0.997598 1_555
H4 K1 2.913443 1_555
H5 O3 0.997464 1_555
H5 K0 2.911095 1_455
H6 O0 0.999874 1_555
H6 K1 2.953423 1_655
H7 O1 0.999708 1_555
H7 K0 2.957026 1_546
H8 O2 1.000232 1_555
H8 K1 2.956493 1_555
H9 O3 0.999173 1_555
H9 K0 2.953577 1_455
H10 O4 0.988170 1_555
H11 O5 0.988268 1_555
H12 O6 0.987863 1_555
H13 O7 0.988038 1_555
H14 O4 1.007321 1_555
H15 O5 1.008057 1_555
H16 O6 1.007589 1_554
H17 O7 1.007258 1_555
C0 O12 1.281795 1_555
C0 O8 1.288468 1_555
C0 O16 1.332125 1_555
C1 O13 1.282383 1_555
C1 O9 1.288798 1_565
C1 O17 1.332212 1_565
C2 O14 1.281894 1_555
C2 O10 1.288286 1_555
C2 O18 1.332557 1_555
C3 O15 1.281618 1_555
C3 O11 1.288289 1_545
C3 O19 1.331985 1_545
