# generated using pymatgen
data_SrUO4
_symmetry_space_group_name_H-M   'P 1'
_cell_length_a   4.45346457
_cell_length_b   4.45346457
_cell_length_c   6.36721901
_cell_angle_alpha   59.31004518
_cell_angle_beta   59.31004518
_cell_angle_gamma   47.48231521
_symmetry_Int_Tables_number   1
_chemical_formula_structural   SrUO4
_chemical_formula_sum   'Sr1 U1 O4'
_cell_volume   77.26753860
_cell_formula_units_Z   1
loop_
 _symmetry_equiv_pos_site_id
 _symmetry_equiv_pos_as_xyz
  1  'x, y, z'
loop_
 _atom_site_type_symbol
 _atom_site_label
 _atom_site_symmetry_multiplicity
 _atom_site_fract_x
 _atom_site_fract_y
 _atom_site_fract_z
 _atom_site_occupancy
  Sr  Sr0  1  0.00000000  0.00000000  0.50000000  1
  U  U0  1  0.00000000  0.00000000  0.00000000  1
  O  O0  1  0.22945900  0.22945900  0.66177600  1
  O  O1  1  0.77054100  0.77054100  0.33822400  1
  O  O2  1  0.41372200  0.41372200  0.88370900  1
  O  O3  1  0.58627800  0.58627800  0.11629100  1
loop_
_geom_bond_atom_site_label_1
_geom_bond_atom_site_label_2
_geom_bond_distance
_geom_bond_site_symmetry_2
O0 U0 1.909156 1_556
O0 Sr0 2.570510 1_565
O0 Sr0 2.570510 1_655
O0 Sr0 2.590360 1_555
O1 U0 1.909156 1_665
O1 Sr0 2.570510 1_655
O1 Sr0 2.570510 1_565
O1 Sr0 2.590360 1_665
O2 U0 2.199715 1_656
O2 U0 2.199715 1_566
O2 Sr0 2.786062 1_565
O2 Sr0 2.786062 1_655
O3 U0 2.199715 1_565
O3 U0 2.199715 1_655
O3 Sr0 2.786062 1_655
O3 Sr0 2.786062 1_565
