# generated using pymatgen
data_Al2O3
_symmetry_space_group_name_H-M   'P 1'
_cell_length_a   5.22317900
_cell_length_b   5.34549356
_cell_length_c   20.00771102
_cell_angle_alpha   91.31914652
_cell_angle_beta   96.44407612
_cell_angle_gamma   115.74174953
_symmetry_Int_Tables_number   1
_chemical_formula_structural   Al2O3
_chemical_formula_sum   'Al12 O18'
_cell_volume   498.39821678
_cell_formula_units_Z   6
loop_
 _symmetry_equiv_pos_site_id
 _symmetry_equiv_pos_as_xyz
  1  'x, y, z'
loop_
 _atom_site_type_symbol
 _atom_site_label
 _atom_site_symmetry_multiplicity
 _atom_site_fract_x
 _atom_site_fract_y
 _atom_site_fract_z
 _atom_site_occupancy
  Al  Al0  1  0.74978600  0.92245900  0.97634100  1
  Al  Al1  1  0.96308500  0.02469400  0.14141600  1
  Al  Al2  1  0.51211000  0.25875300  0.52399900  1
  Al  Al3  1  0.55037300  0.16014000  0.22326300  1
  Al  Al4  1  0.40351100  0.30299200  0.36797800  1
  Al  Al5  1  0.93796600  0.25625300  0.45713000  1
  Al  Al6  1  0.15288000  0.86861700  0.78781800  1
  Al  Al7  1  0.50791400  0.76167600  0.55941300  1
  Al  Al8  1  0.02583200  0.85908600  0.62216600  1
  Al  Al9  1  0.58609700  0.90192400  0.72176400  1
  Al  Al10  1  0.18421800  0.37806500  0.82088400  1
  Al  Al11  1  0.71418300  0.40301900  0.89112100  1
  O  O0  1  0.24607000  0.96337100  0.17032300  1
  O  O1  1  0.80368000  0.91679700  0.06126600  1
  O  O2  1  0.85969400  0.19005400  0.19857600  1
  O  O3  1  0.53661000  0.32646700  0.29488000  1
  O  O4  1  0.65282200  0.36911400  0.43914300  1
  O  O5  1  0.05990800  0.19239900  0.38439700  1
  O  O6  1  0.26281100  0.43583800  0.51412800  1
  O  O7  1  0.70662900  0.02403300  0.50855800  1
  O  O8  1  0.74821200  0.55151800  0.57818700  1
  O  O9  1  0.27739000  0.95360700  0.56349900  1
  O  O10  1  0.25737500  0.94984800  0.70004900  1
  O  O11  1  0.72053400  0.91821300  0.64404900  1
  O  O12  1  0.91319400  0.05322700  0.77765000  1
  O  O13  1  0.37601600  0.64965700  0.77204200  1
  O  O14  1  0.38878200  0.17924700  0.83957100  1
  O  O15  1  0.86630500  0.22812000  0.94002400  1
  O  O16  1  0.98116900  0.57305600  0.83738000  1
  O  O17  1  0.58684500  0.62175500  0.92498400  1
loop_
_geom_bond_atom_site_label_1
_geom_bond_atom_site_label_2
_geom_bond_distance
_geom_bond_site_symmetry_2
Al0 O15 1.690619 1_565
Al0 O1 1.694015 1_556
Al0 O17 1.703899 1_555
Al1 O1 1.684653 1_545
Al1 O0 1.692451 1_645
Al1 O2 1.699296 1_555
Al2 O8 1.758050 1_555
Al2 O9 1.824299 1_545
Al2 O6 1.911069 1_555
Al2 O4 1.928786 1_555
Al2 O7 1.965170 1_555
Al3 O2 1.684690 1_555
Al3 O3 1.693762 1_555
Al3 O0 1.695043 1_545
Al4 O3 1.672998 1_555
Al4 O5 1.702361 1_555
Al4 O4 1.734596 1_555
Al5 O5 1.736050 1_655
Al5 O7 1.759174 1_555
Al5 O6 1.789234 1_655
Al5 O4 1.838978 1_555
Al6 O14 1.790200 1_565
Al6 O16 1.823395 1_455
Al6 O12 1.899407 1_465
Al6 O10 1.901200 1_555
Al6 O13 2.019509 1_555
Al7 O7 1.765714 1_565
Al7 O6 1.795464 1_555
Al7 O11 1.872552 1_555
Al7 O9 1.897459 1_555
Al7 O8 2.028994 1_555
Al8 O8 1.776551 1_455
Al8 O9 1.776606 1_555
Al8 O10 1.777269 1_555
Al8 O11 1.850016 1_455
Al9 O13 1.749095 1_555
Al9 O11 1.765380 1_555
Al9 O12 1.775556 1_565
Al9 O10 1.849901 1_555
Al10 O13 1.757265 1_555
Al10 O12 1.813326 1_455
Al10 O14 1.823713 1_555
Al10 O16 1.828419 1_455
Al11 O15 1.724998 1_555
Al11 O17 1.734574 1_555
Al11 O14 1.779630 1_555
Al11 O16 1.790956 1_555
