# generated using pymatgen
data_Lu3NbO7
_symmetry_space_group_name_H-M   'P 1'
_cell_length_a   5.25385600
_cell_length_b   7.39402200
_cell_length_c   8.02509173
_cell_angle_alpha   62.68585639
_cell_angle_beta   90.00000000
_cell_angle_gamma   90.00000000
_symmetry_Int_Tables_number   1
_chemical_formula_structural   Lu3NbO7
_chemical_formula_sum   'Lu6 Nb2 O14'
_cell_volume   276.99267860
_cell_formula_units_Z   2
loop_
 _symmetry_equiv_pos_site_id
 _symmetry_equiv_pos_as_xyz
  1  'x, y, z'
loop_
 _atom_site_type_symbol
 _atom_site_label
 _atom_site_symmetry_multiplicity
 _atom_site_fract_x
 _atom_site_fract_y
 _atom_site_fract_z
 _atom_site_occupancy
  Lu  Lu0  1  0.49998200  0.99967800  0.99882500  1
  Lu  Lu1  1  0.50001800  0.49967800  0.99882500  1
  Lu  Lu2  1  0.97321800  0.62167200  0.25529800  1
  Lu  Lu3  1  0.02678200  0.12167200  0.25529800  1
  Lu  Lu4  1  0.97018200  0.87970500  0.74370600  1
  Lu  Lu5  1  0.02981800  0.37970500  0.74370600  1
  Nb  Nb0  1  0.49434100  0.77090100  0.49780600  1
  Nb  Nb1  1  0.50565900  0.27090100  0.49780600  1
  O  O0  1  0.73925200  0.74921800  0.99992900  1
  O  O1  1  0.26097600  0.83812600  0.25266700  1
  O  O2  1  0.26074800  0.24921800  0.99992900  1
  O  O3  1  0.71664800  0.98967700  0.52550700  1
  O  O4  1  0.73902400  0.33812600  0.25266700  1
  O  O5  1  0.25865700  0.40899300  0.25176900  1
  O  O6  1  0.26225600  0.09515500  0.74199800  1
  O  O7  1  0.72191200  0.50398400  0.47389800  1
  O  O8  1  0.28335200  0.48967700  0.52550700  1
  O  O9  1  0.74134300  0.90899300  0.25176900  1
  O  O10  1  0.25172800  0.65889100  0.75562200  1
  O  O11  1  0.73774400  0.59515500  0.74199800  1
  O  O12  1  0.27808800  0.00398400  0.47389800  1
  O  O13  1  0.74827200  0.15889100  0.75562200  1
loop_
_geom_bond_atom_site_label_1
_geom_bond_atom_site_label_2
_geom_bond_distance
_geom_bond_site_symmetry_2
Lu0 O13 2.188184 1_565
Lu0 O1 2.218170 1_556
Lu0 O9 2.220130 1_556
Lu0 O6 2.229566 1_565
Lu0 O0 2.234917 1_555
Lu0 O2 2.235909 1_565
Lu1 O10 2.188184 1_555
Lu1 O4 2.218170 1_556
Lu1 O5 2.220130 1_556
Lu1 O11 2.229566 1_555
Lu1 O2 2.234917 1_555
Lu1 O0 2.235909 1_555
Lu2 O7 2.043777 1_555
Lu2 O5 2.182559 1_655
Lu2 O1 2.194671 1_655
Lu2 O0 2.196940 1_554
Lu2 O9 2.437829 1_555
Lu2 O4 2.439367 1_555
Lu2 O8 2.523370 1_655
Lu3 O12 2.043777 1_555
Lu3 O9 2.182559 1_445
Lu3 O4 2.194671 1_455
Lu3 O2 2.196940 1_554
Lu3 O5 2.437829 1_555
Lu3 O1 2.439367 1_545
Lu3 O3 2.523370 1_445
Lu4 O3 2.048172 1_555
Lu4 O10 2.172468 1_655
Lu4 O0 2.193227 1_555
Lu4 O6 2.207412 1_665
Lu4 O13 2.410593 1_565
Lu4 O11 2.438167 1_555
Lu4 O12 2.514674 1_665
Lu5 O8 2.048172 1_555
Lu5 O13 2.172468 1_455
Lu5 O2 2.193227 1_555
Lu5 O11 2.207412 1_455
Lu5 O10 2.410593 1_555
Lu5 O6 2.438167 1_555
Lu5 O7 2.514674 1_455
Nb0 O12 1.998598 1_565
Nb0 O3 2.088142 1_555
Nb0 O1 2.173251 1_555
Nb0 O9 2.185165 1_555
Nb0 O11 2.197089 1_555
Nb0 O10 2.240273 1_555
Nb0 O8 2.275475 1_555
Nb0 O7 2.389331 1_555
Nb1 O7 1.998598 1_555
Nb1 O8 2.088142 1_555
Nb1 O4 2.173251 1_555
Nb1 O5 2.185165 1_555
Nb1 O6 2.197089 1_555
Nb1 O13 2.240273 1_555
Nb1 O3 2.275475 1_545
Nb1 O12 2.389331 1_555
