# generated using pymatgen
data_K3(VS2)5
_symmetry_space_group_name_H-M   'P 1'
_cell_length_a   5.84831200
_cell_length_b   8.67301037
_cell_length_c   8.99382554
_cell_angle_alpha   107.39403895
_cell_angle_beta   108.92468219
_cell_angle_gamma   103.03289984
_symmetry_Int_Tables_number   1
_chemical_formula_structural   K3(VS2)5
_chemical_formula_sum   'K3 V5 S10'
_cell_volume   384.62552168
_cell_formula_units_Z   1
loop_
 _symmetry_equiv_pos_site_id
 _symmetry_equiv_pos_as_xyz
  1  'x, y, z'
loop_
 _atom_site_type_symbol
 _atom_site_label
 _atom_site_symmetry_multiplicity
 _atom_site_fract_x
 _atom_site_fract_y
 _atom_site_fract_z
 _atom_site_occupancy
  K  K0  1  0.26518600  0.50227200  0.19591500  1
  K  K1  1  0.05160200  0.50745200  0.80353700  1
  K  K2  1  0.85985200  0.49812400  0.40103800  1
  V  V0  1  0.98677800  0.00195500  0.00165800  1
  V  V1  1  0.81088700  0.00224000  0.60712200  1
  V  V2  1  0.60309100  0.00107900  0.17828100  1
  V  V3  1  0.39398000  0.00366000  0.78469900  1
  V  V4  1  0.21088500  0.99910700  0.42628000  1
  S  S0  1  0.17935500  0.83108100  0.13816700  1
  S  S1  1  0.97208100  0.82140100  0.73040700  1
  S  S2  1  0.62891800  0.17221600  0.46749200  1
  S  S3  1  0.77439500  0.82270000  0.32774900  1
  S  S4  1  0.42676300  0.18098800  0.06588700  1
  S  S5  1  0.56534000  0.81476800  0.91902200  1
  S  S6  1  0.24125800  0.19289200  0.67954000  1
  S  S7  1  0.37509200  0.81152900  0.52998800  1
  S  S8  1  0.04028000  0.18102700  0.28101300  1
  S  S9  1  0.83025500  0.18550900  0.87420500  1
loop_
_geom_bond_atom_site_label_1
_geom_bond_atom_site_label_2
_geom_bond_distance
_geom_bond_site_symmetry_2
K0 S9 3.116271 1_454
K0 S7 3.128311 1_555
K0 S4 3.159306 1_555
K0 S3 3.162988 1_555
K0 S0 3.164861 1_555
K0 S8 3.217701 1_555
K1 S1 3.083251 1_455
K1 S9 3.136982 1_455
K1 S5 3.149408 1_555
K1 S0 3.168483 1_556
K1 S6 3.203905 1_555
K1 S2 3.218249 1_455
K2 S7 3.157153 1_655
K2 S2 3.159560 1_555
K2 S1 3.163890 1_555
K2 S4 3.164691 1_555
K2 S8 3.180407 1_655
K2 S3 3.184183 1_555
S0 V2 2.428847 1_565
S0 V0 2.432244 1_465
S0 V4 2.486636 1_555
S1 V1 2.367845 1_565
S1 V3 2.413110 1_665
S1 V0 2.435233 1_566
S2 V4 2.406762 1_545
S2 V1 2.414633 1_555
S2 V2 2.515438 1_555
S3 V4 2.367082 1_655
S3 V1 2.438571 1_565
S3 V2 2.504629 1_565
S4 V2 2.347879 1_555
S4 V3 2.454544 1_554
S4 V0 2.462404 1_455
S5 V2 2.312843 1_566
S5 V0 2.355522 1_566
S5 V3 2.507223 1_565
S6 V4 2.314870 1_545
S6 V3 2.329608 1_555
S6 V1 2.430853 1_455
S7 V4 2.338759 1_555
S7 V3 2.346774 1_565
S7 V1 2.445111 1_565
S8 V2 2.373289 1_455
S8 V0 2.400084 1_455
S8 V4 2.507755 1_545
S9 V3 2.395660 1_555
S9 V0 2.398742 1_556
S9 V1 2.401857 1_555
