# generated using pymatgen
data_Ba3Bi2F12
_symmetry_space_group_name_H-M   'P 1'
_cell_length_a   4.40426800
_cell_length_b   4.45307845
_cell_length_c   17.84169911
_cell_angle_alpha   91.40573061
_cell_angle_beta   95.01309269
_cell_angle_gamma   119.10638210
_symmetry_Int_Tables_number   1
_chemical_formula_structural   Ba3Bi2F12
_chemical_formula_sum   'Ba3 Bi2 F12'
_cell_volume   303.65825129
_cell_formula_units_Z   1
loop_
 _symmetry_equiv_pos_site_id
 _symmetry_equiv_pos_as_xyz
  1  'x, y, z'
loop_
 _atom_site_type_symbol
 _atom_site_label
 _atom_site_symmetry_multiplicity
 _atom_site_fract_x
 _atom_site_fract_y
 _atom_site_fract_z
 _atom_site_occupancy
  Ba  Ba0  1  0.08813100  0.98538900  0.00578200  1
  Ba  Ba1  1  0.89732900  0.40409600  0.21171400  1
  Ba  Ba2  1  0.66332500  0.81601800  0.41668000  1
  Bi  Bi0  1  0.44558600  0.31024900  0.62080600  1
  Bi  Bi1  1  0.38333600  0.72405500  0.82121400  1
  F  F0  1  0.78909900  0.33956400  0.06266300  1
  F  F1  1  0.19672700  0.04733600  0.16153900  1
  F  F2  1  0.59491900  0.76213800  0.26468900  1
  F  F3  1  0.01810900  0.47346600  0.62636400  1
  F  F4  1  0.97111400  0.46234000  0.36792000  1
  F  F5  1  0.35056800  0.16740100  0.47804500  1
  F  F6  1  0.66440100  0.79234600  0.56286300  1
  F  F7  1  0.94022600  0.85168200  0.85244500  1
  F  F8  1  0.65611200  0.74320000  0.70654100  1
  F  F9  1  0.39825600  0.13362900  0.74718600  1
  F  F10  1  0.63727500  0.19654000  0.89166000  1
  F  F11  1  0.37548700  0.61055100  0.95189000  1
loop_
_geom_bond_atom_site_label_1
_geom_bond_atom_site_label_2
_geom_bond_distance
_geom_bond_site_symmetry_2
Ba0 F11 2.681914 1_564
Ba0 F0 2.725395 1_465
Ba0 F7 2.737645 1_454
Ba0 F11 2.738894 1_554
Ba0 F1 2.762112 1_565
Ba0 F0 2.772259 1_565
Ba0 F0 2.779795 1_455
Ba0 F11 2.803380 1_454
Ba1 F0 2.643766 1_555
Ba1 F1 2.690473 1_655
Ba1 F1 2.720750 1_665
Ba1 F2 2.724217 1_555
Ba1 F2 2.736384 1_545
Ba1 F1 2.743147 1_555
Ba1 F2 2.743685 1_655
Ba1 F4 2.768463 1_555
Ba2 F6 2.612549 1_555
Ba2 F2 2.693890 1_555
Ba2 F4 2.700160 1_555
Ba2 F4 2.707357 1_455
Ba2 F4 2.722373 1_565
Ba2 F5 2.745504 1_665
Ba2 F5 2.796591 1_565
Ba2 F5 2.826081 1_555
Bi0 F8 2.187448 1_555
Bi0 F6 2.208289 1_555
Bi0 F3 2.250794 1_655
Bi0 F3 2.333046 1_555
Bi0 F9 2.399161 1_555
Bi0 F5 2.557874 1_555
Bi1 F10 2.143066 1_565
Bi1 F7 2.244701 1_555
Bi1 F9 2.256555 1_565
Bi1 F7 2.386566 1_455
Bi1 F11 2.397370 1_555
Bi1 F8 2.444386 1_555
