# generated using pymatgen
data_Pr9Be4O20
_symmetry_space_group_name_H-M   'P 1'
_cell_length_a   6.53723300
_cell_length_b   7.32608572
_cell_length_c   9.53058925
_cell_angle_alpha   89.99267615
_cell_angle_beta   89.45368349
_cell_angle_gamma   89.46137424
_symmetry_Int_Tables_number   1
_chemical_formula_structural   Pr9Be4O20
_chemical_formula_sum   'Pr9 Be4 O20'
_cell_volume   456.40120168
_cell_formula_units_Z   1
loop_
 _symmetry_equiv_pos_site_id
 _symmetry_equiv_pos_as_xyz
  1  'x, y, z'
loop_
 _atom_site_type_symbol
 _atom_site_label
 _atom_site_symmetry_multiplicity
 _atom_site_fract_x
 _atom_site_fract_y
 _atom_site_fract_z
 _atom_site_occupancy
  Pr  Pr0  1  0.93021200  0.80741400  0.82162300  1
  Pr  Pr1  1  0.89713000  0.50896600  0.53085100  1
  Pr  Pr2  1  0.60251600  0.50094800  0.03283500  1
  Pr  Pr3  1  0.57427000  0.81445200  0.34238400  1
  Pr  Pr4  1  0.42273400  0.31586900  0.66687300  1
  Pr  Pr5  1  0.41156600  0.00562800  0.95703900  1
  Pr  Pr6  1  0.09877800  0.01022200  0.47997500  1
  Pr  Pr7  1  0.08528200  0.73699200  0.17287500  1
  Pr  Pr8  1  0.07867800  0.27427300  0.16693500  1
  Be  Be0  1  0.80731800  0.00426800  0.10535700  1
  Be  Be1  1  0.67230700  0.00425800  0.61097000  1
  Be  Be2  1  0.31430800  0.50157700  0.38643500  1
  Be  Be3  1  0.17990400  0.50418900  0.89644800  1
  O  O0  1  0.97740700  0.51236500  0.99866000  1
  O  O1  1  0.87615300  0.99216900  0.27305200  1
  O  O2  1  0.82783500  0.54329000  0.27480900  1
  O  O3  1  0.78212400  0.20100800  0.57707100  1
  O  O4  1  0.81831100  0.83277300  0.56881300  1
  O  O5  1  0.69363100  0.82179400  0.05812900  1
  O  O6  1  0.70833000  0.19622500  0.07522500  1
  O  O7  1  0.69068200  0.53656100  0.77163200  1
  O  O8  1  0.65160400  0.03822800  0.77500400  1
  O  O9  1  0.52596400  0.52536400  0.47506700  1
  O  O10  1  0.45818400  0.01787600  0.53011800  1
  O  O11  1  0.34671000  0.50920100  0.21686800  1
  O  O12  1  0.32089800  0.99409300  0.21676300  1
  O  O13  1  0.28605000  0.70281300  0.94449000  1
  O  O14  1  0.32789200  0.32834500  0.92752700  1
  O  O15  1  0.17639500  0.32680200  0.43573500  1
  O  O16  1  0.19263900  0.70166100  0.41789600  1
  O  O17  1  0.19892500  0.03179100  0.72567500  1
  O  O18  1  0.12204300  0.52837400  0.73030700  1
  O  O19  1  0.02842300  0.01101200  0.01356100  1
loop_
_geom_bond_atom_site_label_1
_geom_bond_atom_site_label_2
_geom_bond_distance
_geom_bond_site_symmetry_2
Be0 O6 1.570099 1_555
Be0 O5 1.602262 1_545
Be0 O1 1.666620 1_545
Be0 O19 1.683532 1_655
Be1 O8 1.587362 1_555
Be1 O10 1.606553 1_555
Be1 O4 1.618957 1_545
Be1 O3 1.646914 1_555
Be2 O11 1.628911 1_555
Be2 O9 1.638671 1_555
Be2 O15 1.639065 1_555
Be2 O16 1.686666 1_555
Be3 O14 1.632537 1_555
Be3 O0 1.636716 1_455
Be3 O18 1.640665 1_555
Be3 O13 1.683383 1_555
O0 Pr7 2.450941 1_656
O0 Pr8 2.459812 1_656
O0 Pr2 2.471413 1_556
O0 Pr0 2.758773 1_555
O1 Pr3 2.459592 1_555
O1 Pr6 2.466400 1_665
O1 Pr7 2.490567 1_655
O1 Pr8 2.659398 1_665
O2 Pr7 2.409026 1_655
O2 Pr1 2.498389 1_555
O2 Pr3 2.650834 1_555
O2 Pr8 2.745510 1_655
O2 Pr2 2.767263 1_555
O3 Pr1 2.423780 1_555
O3 Pr4 2.623933 1_555
O3 Pr6 2.646585 1_655
O4 Pr6 2.404881 1_665
O4 Pr1 2.448997 1_555
O4 Pr0 2.530993 1_555
O4 Pr3 2.699980 1_555
O5 Pr2 2.442779 1_555
O5 Pr5 2.475676 1_564
O5 Pr0 2.722911 1_554
O5 Pr3 2.812740 1_555
O6 Pr2 2.366750 1_555
O6 Pr8 2.649321 1_655
O6 Pr5 2.659913 1_554
O7 Pr2 2.563741 1_556
O7 Pr0 2.586354 1_555
O7 Pr4 2.601182 1_555
O7 Pr1 2.657866 1_555
O8 Pr5 2.341855 1_555
O8 Pr0 2.516213 1_545
O8 Pr4 2.722035 1_555
O9 Pr4 2.479487 1_555
O9 Pr3 2.487671 1_555
O9 Pr1 2.490703 1_555
O10 Pr6 2.403262 1_555
O10 Pr3 2.439614 1_545
O10 Pr4 2.550278 1_555
O11 Pr2 2.412184 1_555
O11 Pr7 2.416887 1_555
O11 Pr8 2.516275 1_555
O11 Pr3 2.956716 1_555
O12 Pr3 2.430092 1_555
O12 Pr7 2.482374 1_555
O12 Pr5 2.541375 1_564
O12 Pr8 2.626608 1_565
O12 Pr6 2.888373 1_565
O13 Pr5 2.375973 1_565
O13 Pr7 2.542151 1_556
O13 Pr2 2.674206 1_556
O13 Pr0 2.718061 1_455
O14 Pr2 2.430366 1_556
O14 Pr5 2.438535 1_555
O14 Pr4 2.556083 1_555
O14 Pr8 2.821043 1_556
O15 Pr6 2.414983 1_555
O15 Pr1 2.420458 1_455
O15 Pr8 2.674916 1_555
O15 Pr4 2.741822 1_555
O16 Pr6 2.409138 1_565
O16 Pr7 2.457715 1_555
O16 Pr1 2.625820 1_455
O16 Pr3 2.725652 1_555
O17 Pr6 2.443001 1_555
O17 Pr0 2.578246 1_445
O17 Pr4 2.612916 1_555
O17 Pr5 2.623850 1_555
O18 Pr1 2.419271 1_455
O18 Pr0 2.537819 1_455
O18 Pr4 2.563822 1_555
O19 Pr8 2.446671 1_555
O19 Pr0 2.454460 1_444
O19 Pr7 2.543532 1_545
O19 Pr5 2.556884 1_554
