# generated using pymatgen
data_BaH2(CO2)2
_symmetry_space_group_name_H-M   'P 1'
_cell_length_a   6.90181100
_cell_length_b   7.70586600
_cell_length_c   9.08559200
_cell_angle_alpha   90.00000000
_cell_angle_beta   90.00000000
_cell_angle_gamma   90.00000000
_symmetry_Int_Tables_number   1
_chemical_formula_structural   BaH2(CO2)2
_chemical_formula_sum   'Ba4 H8 C8 O16'
_cell_volume   483.21203830
_cell_formula_units_Z   4
loop_
 _symmetry_equiv_pos_site_id
 _symmetry_equiv_pos_as_xyz
  1  'x, y, z'
loop_
 _atom_site_type_symbol
 _atom_site_label
 _atom_site_symmetry_multiplicity
 _atom_site_fract_x
 _atom_site_fract_y
 _atom_site_fract_z
 _atom_site_occupancy
  Ba  Ba0  1  0.42195700  0.21166700  0.83600100  1
  Ba  Ba1  1  0.92195700  0.28833300  0.16399900  1
  Ba  Ba2  1  0.07804300  0.78833300  0.33600100  1
  Ba  Ba3  1  0.57804300  0.71166700  0.66399900  1
  H  H0  1  0.49640300  0.06223300  0.30099000  1
  H  H1  1  0.99640300  0.43776700  0.69901000  1
  H  H2  1  0.00359700  0.93776700  0.80099000  1
  H  H3  1  0.50359700  0.56223300  0.19901000  1
  H  H4  1  0.76880600  0.70740900  0.00931600  1
  H  H5  1  0.26880600  0.79259100  0.99068400  1
  H  H6  1  0.73119400  0.29259100  0.50931600  1
  H  H7  1  0.23119400  0.20740900  0.49068400  1
  C  C0  1  0.42625900  0.12593600  0.20509000  1
  C  C1  1  0.92625900  0.37406400  0.79491000  1
  C  C2  1  0.07374100  0.87406400  0.70509000  1
  C  C3  1  0.57374100  0.62593600  0.29491000  1
  C  C4  1  0.75175300  0.85115900  0.01185600  1
  C  C5  1  0.25175300  0.64884100  0.98814400  1
  C  C6  1  0.74824700  0.14884100  0.51185600  1
  C  C7  1  0.24824700  0.35115900  0.48814400  1
  O  O0  1  0.25550400  0.07577500  0.17224100  1
  O  O1  1  0.75550400  0.42422500  0.82775900  1
  O  O2  1  0.24449600  0.92422500  0.67224100  1
  O  O3  1  0.74449600  0.57577500  0.32775900  1
  O  O4  1  0.52166000  0.23995600  0.13548100  1
  O  O5  1  0.02166000  0.26004400  0.86451900  1
  O  O6  1  0.97834000  0.76004400  0.63548100  1
  O  O7  1  0.47834000  0.73995600  0.36451900  1
  O  O8  1  0.63510600  0.91590800  0.91816100  1
  O  O9  1  0.13510600  0.58409200  0.08183900  1
  O  O10  1  0.86489400  0.08409200  0.41816100  1
  O  O11  1  0.36489400  0.41590800  0.58183900  1
  O  O12  1  0.85114600  0.93270400  0.10603900  1
  O  O13  1  0.35114600  0.56729600  0.89396100  1
  O  O14  1  0.64885400  0.06729600  0.60603900  1
  O  O15  1  0.14885400  0.43270400  0.39396100  1
loop_
_geom_bond_atom_site_label_1
_geom_bond_atom_site_label_2
_geom_bond_distance
_geom_bond_site_symmetry_2
Ba0 O5 2.799826 1_555
Ba0 O8 2.813468 1_545
Ba0 O4 2.815072 1_556
Ba0 O11 2.822160 1_555
Ba0 O1 2.826311 1_555
Ba0 O13 2.833040 1_555
Ba0 O14 2.838198 1_555
Ba0 O2 2.935990 1_545
Ba1 O4 2.799826 1_555
Ba1 O9 2.813468 1_655
Ba1 O5 2.815072 1_654
Ba1 O10 2.822160 1_555
Ba1 O0 2.826311 1_655
Ba1 O12 2.833040 1_545
Ba1 O15 2.838198 1_655
Ba1 O3 2.935990 1_555
Ba2 O7 2.799826 1_555
Ba2 O10 2.813468 1_465
Ba2 O6 2.815072 1_455
Ba2 O9 2.822160 1_555
Ba2 O3 2.826311 1_455
Ba2 O15 2.833040 1_555
Ba2 O12 2.838198 1_455
Ba2 O0 2.935990 1_565
Ba3 O6 2.799826 1_555
Ba3 O11 2.813468 1_555
Ba3 O7 2.815072 1_555
Ba3 O8 2.822160 1_555
Ba3 O2 2.826311 1_555
Ba3 O14 2.833040 1_565
Ba3 O13 2.838198 1_555
Ba3 O1 2.935990 1_555
C0 H0 1.111090 1_555
C0 O4 1.267083 1_555
C0 O0 1.275692 1_555
C1 H1 1.111090 1_555
C1 O5 1.267083 1_655
C1 O1 1.275692 1_555
C2 H2 1.111090 1_555
C2 O6 1.267083 1_455
C2 O2 1.275692 1_555
C3 H3 1.111090 1_555
C3 O7 1.267083 1_555
C3 O3 1.275692 1_555
C4 H4 1.114192 1_555
C4 O12 1.263992 1_555
C4 O8 1.273485 1_554
C5 H5 1.114192 1_555
C5 O13 1.263992 1_555
C5 O9 1.273485 1_556
C6 H6 1.114192 1_555
C6 O14 1.263992 1_555
C6 O10 1.273485 1_555
C7 H7 1.114192 1_555
C7 O15 1.263992 1_555
C7 O11 1.273485 1_555
