# generated using pymatgen
data_TiNiO3
_symmetry_space_group_name_H-M   'P 1'
_cell_length_a   5.50334700
_cell_length_b   9.02318311
_cell_length_c   9.02573046
_cell_angle_alpha   68.39944746
_cell_angle_beta   84.67834924
_cell_angle_gamma   84.88082678
_symmetry_Int_Tables_number   1
_chemical_formula_structural   TiNiO3
_chemical_formula_sum   'Ti8 Ni8 O24'
_cell_volume   414.19017707
_cell_formula_units_Z   8
loop_
 _symmetry_equiv_pos_site_id
 _symmetry_equiv_pos_as_xyz
  1  'x, y, z'
loop_
 _atom_site_type_symbol
 _atom_site_label
 _atom_site_symmetry_multiplicity
 _atom_site_fract_x
 _atom_site_fract_y
 _atom_site_fract_z
 _atom_site_occupancy
  Ti  Ti0  1  0.29557100  0.82818000  0.82073000  1
  Ti  Ti1  1  0.20862600  0.42287300  0.93344300  1
  Ti  Ti2  1  0.20913600  0.93706700  0.41483600  1
  Ti  Ti3  1  0.71960900  0.42738000  0.42981400  1
  Ti  Ti4  1  0.28939400  0.56781000  0.57543100  1
  Ti  Ti5  1  0.78811400  0.07179900  0.57327300  1
  Ti  Ti6  1  0.77943200  0.58681400  0.07346000  1
  Ti  Ti7  1  0.31617200  0.07126900  0.06260200  1
  Ni  Ni0  1  0.71345100  0.92581200  0.92935000  1
  Ni  Ni1  1  0.80451000  0.82367200  0.32437700  1
  Ni  Ni2  1  0.79661400  0.32643700  0.82899900  1
  Ni  Ni3  1  0.70249900  0.67364700  0.67430100  1
  Ni  Ni4  1  0.30286700  0.32477600  0.32610000  1
  Ni  Ni5  1  0.20190800  0.17786800  0.67443800  1
  Ni  Ni6  1  0.19937800  0.67431400  0.18028700  1
  Ni  Ni7  1  0.71369900  0.17869200  0.17408700  1
  O  O0  1  0.33900200  0.78681700  0.62641300  1
  O  O1  1  0.16252600  0.62987700  0.96095600  1
  O  O2  1  0.01972800  0.96483400  0.77855200  1
  O  O3  1  0.01403300  0.52646800  0.71803600  1
  O  O4  1  0.84878600  0.88565400  0.52799400  1
  O  O5  1  0.84425800  0.27815500  0.61910000  1
  O  O6  1  0.85102800  0.76729100  0.12824400  1
  O  O7  1  0.64815900  0.71692300  0.88129200  1
  O  O8  1  0.64565300  0.12618000  0.97868900  1
  O  O9  1  0.65140900  0.61460300  0.47594300  1
  O  O10  1  0.48117300  0.47462800  0.78077600  1
  O  O11  1  0.49304700  0.97289100  0.28249800  1
  O  O12  1  0.51262400  0.02357600  0.71811700  1
  O  O13  1  0.51464000  0.52590200  0.22086000  1
  O  O14  1  0.34861700  0.38441500  0.52703000  1
  O  O15  1  0.34172600  0.88116900  0.02326800  1
  O  O16  1  0.34671300  0.28659800  0.11575400  1
  O  O17  1  0.15977400  0.22032900  0.88609500  1
  O  O18  1  0.16253600  0.71967100  0.38972500  1
  O  O19  1  0.15291400  0.11652100  0.47311200  1
  O  O20  1  0.98930000  0.47048200  0.28478500  1
  O  O21  1  0.02938600  0.02830100  0.22113500  1
  O  O22  1  0.86041600  0.39276000  0.02789800  1
  O  O23  1  0.66057200  0.21729700  0.38795400  1
loop_
_geom_bond_atom_site_label_1
_geom_bond_atom_site_label_2
_geom_bond_distance
_geom_bond_site_symmetry_2
Ni0 O6 2.002529 1_556
Ni0 O8 2.011918 1_565
Ni0 O2 2.035942 1_655
Ni0 O12 2.147824 1_565
Ni0 O7 2.149795 1_555
Ni0 O15 2.154025 1_556
Ni1 O6 2.003467 1_555
Ni1 O11 2.056080 1_555
Ni1 O9 2.076022 1_555
Ni1 O18 2.142158 1_655
Ni1 O4 2.147972 1_555
Ni1 O21 2.176280 1_665
Ni2 O8 2.010697 1_555
Ni2 O10 2.070861 1_555
Ni2 O5 2.083938 1_555
Ni2 O3 2.127122 1_655
Ni2 O22 2.156297 1_556
Ni2 O17 2.159381 1_655
Ni3 O7 2.035903 1_555
Ni3 O3 2.047475 1_655
Ni3 O4 2.066188 1_555
Ni3 O9 2.095360 1_555
Ni3 O10 2.129455 1_555
Ni3 O0 2.168468 1_555
Ni4 O16 2.040348 1_555
Ni4 O20 2.049153 1_455
Ni4 O19 2.051971 1_555
Ni4 O13 2.111147 1_555
Ni4 O14 2.114078 1_555
Ni4 O23 2.142899 1_555
Ni5 O14 2.034467 1_555
Ni5 O17 2.071448 1_555
Ni5 O12 2.076966 1_555
Ni5 O2 2.102972 1_545
Ni5 O5 2.115220 1_455
Ni5 O19 2.130519 1_555
Ni6 O6 2.046849 1_455
Ni6 O15 2.052654 1_555
Ni6 O18 2.065349 1_555
Ni6 O13 2.068768 1_555
Ni6 O20 2.123421 1_455
Ni6 O1 2.189568 1_554
Ni7 O8 2.060217 1_554
Ni7 O23 2.074876 1_555
Ni7 O22 2.080417 1_555
Ni7 O21 2.081340 1_655
Ni7 O11 2.173611 1_545
Ni7 O16 2.184740 1_555
O0 Ti0 1.913295 1_555
O0 Ti2 2.041961 1_555
O0 Ti4 2.231700 1_555
O1 Ti0 1.932397 1_555
O1 Ti1 1.964711 1_555
O1 Ti6 2.255125 1_456
O2 Ti0 1.843203 1_555
O2 Ti5 2.211566 1_465
O3 Ti4 1.864897 1_555
O3 Ti1 2.161034 1_555
O4 Ti5 1.865375 1_565
O4 Ti2 2.151922 1_655
O5 Ti3 1.887124 1_555
O5 Ti5 2.104036 1_555
O6 Ti6 1.948125 1_555
O7 Ti6 1.868257 1_556
O7 Ti0 2.125299 1_555
O8 Ti7 1.932945 1_556
O9 Ti3 1.882507 1_555
O9 Ti4 2.119658 1_555
O10 Ti1 1.906407 1_555
O10 Ti4 2.076790 1_555
O11 Ti2 1.852606 1_555
O11 Ti7 2.140473 1_565
O12 Ti5 1.878372 1_555
O12 Ti0 2.088423 1_545
O13 Ti6 1.854866 1_555
O13 Ti3 2.144951 1_555
O14 Ti4 1.856084 1_555
O14 Ti3 2.155742 1_555
O15 Ti7 1.866587 1_565
O15 Ti0 2.094336 1_554
O16 Ti1 1.836469 1_554
O16 Ti7 2.189286 1_555
O17 Ti7 1.886258 1_556
O17 Ti1 2.068583 1_555
O18 Ti4 1.878771 1_555
O18 Ti2 2.095929 1_555
O19 Ti2 1.871318 1_545
O19 Ti5 2.133065 1_455
O20 Ti3 1.853478 1_555
O20 Ti6 2.189069 1_555
O21 Ti2 1.956683 1_545
O21 Ti7 1.992622 1_555
O22 Ti6 1.946943 1_555
O22 Ti1 2.022928 1_654
O23 Ti5 1.857558 1_555
O23 Ti3 2.121712 1_555
