# generated using pymatgen
data_Nb17Ir3S40
_symmetry_space_group_name_H-M   'P 1'
_cell_length_a   19.11783876
_cell_length_b   19.11783876
_cell_length_c   24.72613671
_cell_angle_alpha   50.30096941
_cell_angle_beta   50.30096941
_cell_angle_gamma   10.31575831
_symmetry_Int_Tables_number   1
_chemical_formula_structural   Nb17Ir3S40
_chemical_formula_sum   'Nb17 Ir3 S40'
_cell_volume   1241.64852276
_cell_formula_units_Z   1
loop_
 _symmetry_equiv_pos_site_id
 _symmetry_equiv_pos_as_xyz
  1  'x, y, z'
loop_
 _atom_site_type_symbol
 _atom_site_label
 _atom_site_symmetry_multiplicity
 _atom_site_fract_x
 _atom_site_fract_y
 _atom_site_fract_z
 _atom_site_occupancy
  Nb  Nb0  1  0.59122200  0.59122200  0.40606000  1
  Nb  Nb1  1  0.00000000  0.00000000  0.50000000  1
  Nb  Nb2  1  0.40877800  0.40877800  0.59394000  1
  Nb  Nb3  1  0.79989200  0.79989200  0.95092100  1
  Nb  Nb4  1  0.20010800  0.20010800  0.04907900  1
  Nb  Nb5  1  0.20964300  0.20964300  0.79068100  1
  Nb  Nb6  1  0.00013800  0.00013800  0.24997000  1
  Nb  Nb7  1  0.59070300  0.59070300  0.91003800  1
  Nb  Nb8  1  0.60019700  0.60019700  0.14936000  1
  Nb  Nb9  1  0.79964900  0.79964900  0.45009200  1
  Nb  Nb10  1  0.79035700  0.79035700  0.20931900  1
  Nb  Nb11  1  0.39957500  0.39957500  0.34980300  1
  Nb  Nb12  1  0.40929700  0.40929700  0.08996200  1
  Nb  Nb13  1  0.20035100  0.20035100  0.54990800  1
  Nb  Nb14  1  0.60042500  0.60042500  0.65019700  1
  Nb  Nb15  1  0.99986200  0.99986200  0.75003000  1
  Nb  Nb16  1  0.39980300  0.39980300  0.85064000  1
  Ir  Ir0  1  0.79202100  0.79202100  0.70619300  1
  Ir  Ir1  1  0.00000000  0.00000000  0.00000000  1
  Ir  Ir2  1  0.20797900  0.20797900  0.29380700  1
  S  S0  1  0.33358800  0.33358800  0.97924400  1
  S  S1  1  0.67066000  0.67066000  0.27890000  1
  S  S2  1  0.73291800  0.73291800  0.07875600  1
  S  S3  1  0.06669000  0.06669000  0.36643300  1
  S  S4  1  0.13367600  0.13367600  0.17788000  1
  S  S5  1  0.46745100  0.46745100  0.46801400  1
  S  S6  1  0.53367400  0.53367400  0.27822700  1
  S  S7  1  0.53254900  0.53254900  0.53198600  1
  S  S8  1  0.86349600  0.86349600  0.58491000  1
  S  S9  1  0.86632400  0.86632400  0.82212000  1
  S  S10  1  0.93331000  0.93331000  0.63356700  1
  S  S11  1  0.93324800  0.93324800  0.37838100  1
  S  S12  1  0.26832100  0.26832100  0.66710000  1
  S  S13  1  0.26708200  0.26708200  0.92124400  1
  S  S14  1  0.32934000  0.32934000  0.72110000  1
  S  S15  1  0.33359100  0.33359100  0.47794800  1
  S  S16  1  0.66605400  0.66605400  0.77909100  1
  S  S17  1  0.66641200  0.66641200  0.02075600  1
  S  S18  1  0.73367300  0.73367300  0.57866200  1
  S  S19  1  0.73377600  0.73377600  0.83188500  1
  S  S20  1  0.06641200  0.06641200  0.12109100  1
  S  S21  1  0.06360100  0.06360100  0.87228900  1
  S  S22  1  0.13381200  0.13381200  0.67889300  1
  S  S23  1  0.13171600  0.13171600  0.92434800  1
  S  S24  1  0.46648700  0.46648700  0.22166700  1
  S  S25  1  0.47251400  0.47251400  0.96577200  1
  S  S26  1  0.52748600  0.52748600  0.03422800  1
  S  S27  1  0.53351300  0.53351300  0.77833300  1
  S  S28  1  0.86618800  0.86618800  0.32110700  1
  S  S29  1  0.86828400  0.86828400  0.07565200  1
  S  S30  1  0.93358800  0.93358800  0.87890900  1
  S  S31  1  0.93639900  0.93639900  0.12771100  1
  S  S32  1  0.26622400  0.26622400  0.16811500  1
  S  S33  1  0.26632700  0.26632700  0.42133800  1
  S  S34  1  0.33394600  0.33394600  0.22090900  1
  S  S35  1  0.66640900  0.66640900  0.52205200  1
  S  S36  1  0.73167900  0.73167900  0.33290000  1
  S  S37  1  0.06675200  0.06675200  0.62161900  1
  S  S38  1  0.13650400  0.13650400  0.41509000  1
  S  S39  1  0.46632600  0.46632600  0.72177300  1
loop_
_geom_bond_atom_site_label_1
_geom_bond_atom_site_label_2
_geom_bond_distance
_geom_bond_site_symmetry_2
Nb0 S7 2.400712 1_555
Nb0 S3 2.441483 1_565
Nb0 S3 2.441483 1_655
Nb0 S38 2.543840 1_565
Nb0 S38 2.543840 1_655
Nb0 S1 2.614696 1_555
Nb1 S7 2.524525 1_545
Nb1 S7 2.524525 1_455
Nb1 S5 2.524525 1_545
Nb1 S5 2.524525 1_455
Nb1 S10 2.568722 1_445
Nb1 S3 2.568722 1_555
Nb2 S5 2.400712 1_555
Nb2 S10 2.441483 1_455
Nb2 S10 2.441483 1_545
Nb2 S8 2.543840 1_455
Nb2 S8 2.543840 1_545
Nb2 S14 2.614696 1_555
Nb3 S2 2.480960 1_556
Nb3 S9 2.491596 1_555
Nb3 S13 2.495897 1_565
Nb3 S13 2.495897 1_655
Nb3 S0 2.498717 1_565
Nb3 S0 2.498717 1_655
Nb4 S13 2.480960 1_554
Nb4 S4 2.491596 1_555
Nb4 S2 2.495897 1_545
Nb4 S2 2.495897 1_455
Nb4 S17 2.498717 1_545
Nb4 S17 2.498717 1_455
Nb5 S12 2.360505 1_555
Nb5 S19 2.457129 1_545
Nb5 S19 2.457129 1_455
Nb5 S16 2.530122 1_455
Nb5 S16 2.530122 1_545
Nb5 S23 2.673778 1_555
Nb6 S11 2.489082 1_445
Nb6 S20 2.491640 1_555
Nb6 S6 2.493503 1_545
Nb6 S6 2.493503 1_455
Nb6 S24 2.497228 1_545
Nb6 S24 2.497228 1_455
Nb7 S26 2.396371 1_556
Nb7 S21 2.475068 1_565
Nb7 S21 2.475068 1_655
Nb7 S23 2.495441 1_565
Nb7 S23 2.495441 1_655
Nb7 S16 2.607657 1_555
Nb8 S17 2.486930 1_555
Nb8 S6 2.493298 1_555
Nb8 S4 2.495964 1_655
Nb8 S4 2.495964 1_565
Nb8 S20 2.500254 1_655
Nb8 S20 2.500254 1_565
Nb9 S18 2.484651 1_555
Nb9 S28 2.495245 1_555
Nb9 S33 2.495362 1_565
Nb9 S33 2.495362 1_655
Nb9 S15 2.498189 1_655
Nb9 S15 2.498189 1_565
Nb10 S36 2.360505 1_555
Nb10 S32 2.457129 1_655
Nb10 S32 2.457129 1_565
Nb10 S34 2.530122 1_565
Nb10 S34 2.530122 1_655
Nb10 S29 2.673778 1_555
Nb11 S15 2.478093 1_555
Nb11 S24 2.485051 1_555
Nb11 S28 2.496198 1_455
Nb11 S28 2.496198 1_545
Nb11 S11 2.501959 1_455
Nb11 S11 2.501959 1_545
Nb12 S25 2.396371 1_554
Nb12 S31 2.475068 1_455
Nb12 S31 2.475068 1_545
Nb12 S29 2.495441 1_545
Nb12 S29 2.495441 1_455
Nb12 S34 2.607657 1_555
Nb13 S33 2.484651 1_555
Nb13 S22 2.495245 1_555
Nb13 S18 2.495362 1_545
Nb13 S18 2.495362 1_455
Nb13 S35 2.498189 1_455
Nb13 S35 2.498189 1_545
Nb14 S35 2.478093 1_555
Nb14 S27 2.485051 1_555
Nb14 S22 2.496198 1_565
Nb14 S22 2.496198 1_655
Nb14 S37 2.501959 1_565
Nb14 S37 2.501959 1_655
Nb15 S37 2.489082 1_665
Nb15 S30 2.491640 1_555
Nb15 S39 2.493503 1_655
Nb15 S39 2.493503 1_565
Nb15 S27 2.497228 1_565
Nb15 S27 2.497228 1_655
Nb16 S0 2.486930 1_555
Nb16 S39 2.493298 1_555
Nb16 S9 2.495964 1_455
Nb16 S9 2.495964 1_545
Nb16 S30 2.500254 1_545
Nb16 S30 2.500254 1_455
Ir0 S19 2.395080 1_555
Ir0 S14 2.404442 1_565
Ir0 S14 2.404442 1_655
Ir0 S12 2.412849 1_655
Ir0 S12 2.412849 1_565
Ir0 S8 2.435487 1_555
Ir1 S26 2.429411 1_455
Ir1 S26 2.429411 1_545
Ir1 S25 2.429411 1_544
Ir1 S25 2.429411 1_454
Ir1 S21 2.455077 1_554
Ir1 S31 2.455077 1_445
Ir2 S32 2.395080 1_555
Ir2 S1 2.404442 1_545
Ir2 S1 2.404442 1_455
Ir2 S36 2.412849 1_455
Ir2 S36 2.412849 1_545
Ir2 S38 2.435487 1_555
