# generated using pymatgen
data_RbV2SeO7
_symmetry_space_group_name_H-M   'P 1'
_cell_length_a   5.53949000
_cell_length_b   7.20656000
_cell_length_c   18.86288700
_cell_angle_alpha   90.00000000
_cell_angle_beta   90.00000000
_cell_angle_gamma   90.00000000
_symmetry_Int_Tables_number   1
_chemical_formula_structural   RbV2SeO7
_chemical_formula_sum   'Rb4 V8 Se4 O28'
_cell_volume   753.01903161
_cell_formula_units_Z   4
loop_
 _symmetry_equiv_pos_site_id
 _symmetry_equiv_pos_as_xyz
  1  'x, y, z'
loop_
 _atom_site_type_symbol
 _atom_site_label
 _atom_site_symmetry_multiplicity
 _atom_site_fract_x
 _atom_site_fract_y
 _atom_site_fract_z
 _atom_site_occupancy
  Rb  Rb0  1  0.25000000  0.24710700  0.53347300  1
  Rb  Rb1  1  0.75000000  0.74710700  0.96652700  1
  Rb  Rb2  1  0.25000000  0.25289300  0.03347300  1
  Rb  Rb3  1  0.75000000  0.75289300  0.46652700  1
  V  V0  1  0.25000000  0.73026300  0.62251500  1
  V  V1  1  0.25000000  0.55836300  0.31249000  1
  V  V2  1  0.75000000  0.26973700  0.37748500  1
  V  V3  1  0.75000000  0.05836300  0.18751000  1
  V  V4  1  0.25000000  0.94163700  0.81249000  1
  V  V5  1  0.25000000  0.76973700  0.12251500  1
  V  V6  1  0.75000000  0.44163700  0.68751000  1
  V  V7  1  0.75000000  0.23026300  0.87748500  1
  Se  Se0  1  0.75000000  0.51654100  0.15285600  1
  Se  Se1  1  0.25000000  0.01654100  0.34714400  1
  Se  Se2  1  0.75000000  0.98345900  0.65285600  1
  Se  Se3  1  0.25000000  0.48345900  0.84714400  1
  O  O0  1  0.25000000  0.64488200  0.54072900  1
  O  O1  1  0.98848700  0.92730300  0.59893600  1
  O  O2  1  0.50381000  0.43222900  0.33319600  1
  O  O3  1  0.49619000  0.56777100  0.66680400  1
  O  O4  1  0.01151300  0.07269700  0.40106400  1
  O  O5  1  0.75000000  0.38012700  0.77382300  1
  O  O6  1  0.48848700  0.42730300  0.90106400  1
  O  O7  1  0.25000000  0.72603600  0.86767200  1
  O  O8  1  0.00381000  0.93222900  0.16680400  1
  O  O9  1  0.75000000  0.27396400  0.13232800  1
  O  O10  1  0.00381000  0.56777100  0.66680400  1
  O  O11  1  0.99619000  0.06777100  0.83319600  1
  O  O12  1  0.48848700  0.07269700  0.40106400  1
  O  O13  1  0.49619000  0.93222900  0.16680400  1
  O  O14  1  0.50381000  0.06777100  0.83319600  1
  O  O15  1  0.75000000  0.35511800  0.45927100  1
  O  O16  1  0.25000000  0.77396400  0.36767200  1
  O  O17  1  0.75000000  0.11987300  0.27382300  1
  O  O18  1  0.75000000  0.22603600  0.63232800  1
  O  O19  1  0.25000000  0.61987300  0.22617700  1
  O  O20  1  0.25000000  0.85511800  0.04072900  1
  O  O21  1  0.51151300  0.92730300  0.59893600  1
  O  O22  1  0.75000000  0.14488200  0.95927100  1
  O  O23  1  0.98848700  0.57269700  0.09893600  1
  O  O24  1  0.01151300  0.42730300  0.90106400  1
  O  O25  1  0.51151300  0.57269700  0.09893600  1
  O  O26  1  0.99619000  0.43222900  0.33319600  1
  O  O27  1  0.25000000  0.88012700  0.72617700  1
loop_
_geom_bond_atom_site_label_1
_geom_bond_atom_site_label_2
_geom_bond_distance
_geom_bond_site_symmetry_2
O0 V0 1.660898 1_555
O0 Rb0 2.869855 1_555
O0 Rb3 3.199443 1_555
O0 Rb3 3.199443 1_455
O1 Se2 1.715674 1_555
O1 V0 2.076715 1_655
O1 Rb0 2.989138 1_665
O1 Rb3 3.092437 1_555
O2 V1 1.719183 1_555
O2 V2 1.982182 1_555
O3 V6 1.719183 1_555
O3 V0 1.982182 1_555
O4 Se1 1.715674 1_555
O4 V2 2.076715 1_455
O4 Rb3 2.989138 1_445
O4 Rb0 3.092437 1_555
O5 V6 1.687378 1_555
O5 V7 2.233799 1_555
O6 Se3 1.715674 1_555
O6 V7 2.076715 1_555
O6 Rb1 2.989138 1_555
O6 Rb2 3.092437 1_556
O7 Se3 1.790517 1_555
O7 V4 1.870179 1_555
O7 Rb1 3.342397 1_455
O7 Rb1 3.342397 1_555
O8 V3 1.719183 1_465
O8 V5 1.982182 1_555
O9 Se0 1.790517 1_555
O9 V3 1.870179 1_555
O9 Rb2 3.342397 1_655
O9 Rb2 3.342397 1_555
O10 V6 1.719183 1_455
O10 V0 1.982182 1_555
O11 V4 1.719183 1_645
O11 V7 1.982182 1_555
O12 Se1 1.715674 1_555
O12 V2 2.076715 1_555
O12 Rb3 2.989138 1_545
O12 Rb0 3.092437 1_555
O13 V3 1.719183 1_565
O13 V5 1.982182 1_555
O14 V4 1.719183 1_545
O14 V7 1.982182 1_555
O15 V2 1.660898 1_555
O15 Rb3 2.869855 1_555
O15 Rb0 3.199443 1_655
O15 Rb0 3.199443 1_555
O16 Se1 1.790517 1_565
O16 V1 1.870179 1_555
O16 Rb3 3.342397 1_555
O16 Rb3 3.342397 1_455
O17 V3 1.687378 1_555
O17 V2 2.233799 1_555
O18 Se2 1.790517 1_545
O18 V6 1.870179 1_555
O18 Rb0 3.342397 1_555
O18 Rb0 3.342397 1_655
O19 V1 1.687378 1_555
O19 V5 2.233799 1_555
O20 V5 1.660898 1_555
O20 Rb2 2.869855 1_565
O20 Rb1 3.199443 1_454
O20 Rb1 3.199443 1_554
O21 Se2 1.715674 1_555
O21 V0 2.076715 1_555
O21 Rb0 2.989138 1_565
O21 Rb3 3.092437 1_555
O22 V7 1.660898 1_555
O22 Rb1 2.869855 1_545
O22 Rb2 3.199443 1_556
O22 Rb2 3.199443 1_656
O23 Se0 1.715674 1_555
O23 V5 2.076715 1_655
O23 Rb2 2.989138 1_655
O23 Rb1 3.092437 1_554
O24 Se3 1.715674 1_555
O24 V7 2.076715 1_455
O24 Rb1 2.989138 1_455
O24 Rb2 3.092437 1_556
O25 Se0 1.715674 1_555
O25 V5 2.076715 1_555
O25 Rb2 2.989138 1_555
O25 Rb1 3.092437 1_554
O26 V1 1.719183 1_655
O26 V2 1.982182 1_555
O27 V4 1.687378 1_555
O27 V0 2.233799 1_555
