# generated using pymatgen
data_Li7MnAs4
_symmetry_space_group_name_H-M   'P 1'
_cell_length_a   6.03409466
_cell_length_b   11.95927301
_cell_length_c   8.47037820
_cell_angle_alpha   44.93875025
_cell_angle_beta   89.70363011
_cell_angle_gamma   89.87350125
_symmetry_Int_Tables_number   1
_chemical_formula_structural   Li7MnAs4
_chemical_formula_sum   'Li14 Mn2 As8'
_cell_volume   431.75086086
_cell_formula_units_Z   2
loop_
 _symmetry_equiv_pos_site_id
 _symmetry_equiv_pos_as_xyz
  1  'x, y, z'
loop_
 _atom_site_type_symbol
 _atom_site_label
 _atom_site_symmetry_multiplicity
 _atom_site_fract_x
 _atom_site_fract_y
 _atom_site_fract_z
 _atom_site_occupancy
  Li  Li0  1  0.18796200  0.99540300  0.00331000  1
  Li  Li1  1  0.82213400  0.51571900  0.98687300  1
  Li  Li2  1  0.24977900  0.23918800  0.49954200  1
  Li  Li3  1  0.24980000  0.76280200  0.49948200  1
  Li  Li4  1  0.24995100  0.99895100  0.50082700  1
  Li  Li5  1  0.24948000  0.23593300  0.02364200  1
  Li  Li6  1  0.25028800  0.75938300  0.97675500  1
  Li  Li7  1  0.68622600  0.00296700  0.00557200  1
  Li  Li8  1  0.31947300  0.49832100  0.99384600  1
  Li  Li9  1  0.75139900  0.26565500  0.97720800  1
  Li  Li10  1  0.75100000  0.50087100  0.50074400  1
  Li  Li11  1  0.75010500  0.74235400  0.02354800  1
  Li  Li12  1  0.75044100  0.26277300  0.49836600  1
  Li  Li13  1  0.75069100  0.73930000  0.49861300  1
  Mn  Mn0  1  0.25029200  0.50110000  0.50097300  1
  Mn  Mn1  1  0.75226500  0.99994200  0.49804900  1
  As  As0  1  0.03740800  0.49997300  0.26610200  1
  As  As1  1  0.96334200  0.00124900  0.73228600  1
  As  As2  1  0.53736400  0.23266500  0.26888700  1
  As  As3  1  0.46448300  0.26607000  0.73377800  1
  As  As4  1  0.46402200  0.73611900  0.26424000  1
  As  As5  1  0.53770800  0.76778300  0.73344000  1
  As  As6  1  0.03811600  0.50027600  0.73367600  1
  As  As7  1  0.96182400  0.00117400  0.26755000  1
loop_
_geom_bond_atom_site_label_1
_geom_bond_atom_site_label_2
_geom_bond_distance
_geom_bond_site_symmetry_2
As0 Mn0 2.381733 1_555
As0 Li6 2.549906 1_554
As0 Li2 2.560633 1_555
As0 Li1 2.591723 1_454
As0 Li10 2.632797 1_455
As0 Li12 2.646022 1_455
As0 Li11 2.685578 1_455
As0 Li8 2.870386 1_554
As1 Mn1 2.372582 1_545
As1 Li11 2.549343 1_546
As1 Li12 2.567807 1_555
As1 Li4 2.622289 1_645
As1 Li0 2.629945 1_646
As1 Li2 2.648703 1_655
As1 Li6 2.681030 1_645
As1 Li7 2.860435 1_556
As2 Mn1 2.357388 1_545
As2 Li9 2.552827 1_554
As2 Li12 2.565104 1_555
As2 Li8 2.604697 1_554
As2 Li4 2.625236 1_545
As2 Li2 2.648506 1_555
As2 Li5 2.693780 1_555
As2 Li1 2.941632 1_554
As3 Mn0 2.371261 1_555
As3 Li5 2.560785 1_556
As3 Li2 2.578716 1_555
As3 Li7 2.597863 1_556
As3 Li10 2.628585 1_555
As3 Li12 2.651502 1_555
As3 Li9 2.696547 1_555
As3 Li0 2.827791 1_546
As4 Mn0 2.365204 1_555
As4 Li3 2.571940 1_555
As4 Li6 2.596577 1_554
As4 Li7 2.621489 1_565
As4 Li11 2.625063 1_555
As4 Li10 2.638611 1_555
As4 Li13 2.660353 1_555
As4 Li0 2.754570 1_555
As5 Mn1 2.347812 1_555
As5 Li13 2.579715 1_555
As5 Li11 2.597378 1_556
As5 Li4 2.615843 1_555
As5 Li8 2.628659 1_555
As5 Li6 2.633673 1_555
As5 Li3 2.674326 1_555
As5 Li1 2.737674 1_555
As6 Mn0 2.338986 1_555
As6 Li3 2.568676 1_555
As6 Li5 2.583655 1_556
As6 Li1 2.619732 1_455
As6 Li10 2.628650 1_455
As6 Li9 2.629005 1_455
As6 Li13 2.664541 1_455
As6 Li8 2.775770 1_555
As7 Mn1 2.311906 1_545
As7 Li13 2.564373 1_545
As7 Li9 2.582036 1_554
As7 Li4 2.624635 1_645
As7 Li5 2.633656 1_655
As7 Li0 2.657632 1_645
As7 Li3 2.662803 1_645
As7 Li7 2.767820 1_555
