# generated using pymatgen
data_Ba2P2O7
_symmetry_space_group_name_H-M   'P 1'
_cell_length_a   9.48680983
_cell_length_b   9.48680983
_cell_length_c   7.27467400
_cell_angle_alpha   90.00000000
_cell_angle_beta   90.00000000
_cell_angle_gamma   120.08805887
_symmetry_Int_Tables_number   1
_chemical_formula_structural   Ba2P2O7
_chemical_formula_sum   'Ba6 P6 O21'
_cell_volume   566.49816421
_cell_formula_units_Z   3
loop_
 _symmetry_equiv_pos_site_id
 _symmetry_equiv_pos_as_xyz
  1  'x, y, z'
loop_
 _atom_site_type_symbol
 _atom_site_label
 _atom_site_symmetry_multiplicity
 _atom_site_fract_x
 _atom_site_fract_y
 _atom_site_fract_z
 _atom_site_occupancy
  Ba  Ba0  1  0.00417800  0.61693500  0.50000000  1
  Ba  Ba1  1  0.38584400  0.38584400  0.50000000  1
  Ba  Ba2  1  0.61693500  0.00417800  0.50000000  1
  Ba  Ba3  1  0.28720400  0.99483300  0.00000000  1
  Ba  Ba4  1  0.99483300  0.28720400  0.00000000  1
  Ba  Ba5  1  0.71386400  0.71386400  0.00000000  1
  P  P0  1  0.33763600  0.67536400  0.22155100  1
  P  P1  1  0.33763600  0.67536400  0.77844900  1
  P  P2  1  0.67536400  0.33763600  0.22155100  1
  P  P3  1  0.67536400  0.33763600  0.77844900  1
  P  P4  1  0.00833400  0.00833400  0.28332800  1
  P  P5  1  0.00833400  0.00833400  0.71667200  1
  O  O0  1  0.32329900  0.81810900  0.29667000  1
  O  O1  1  0.18539200  0.51043700  0.25767900  1
  O  O2  1  0.49519000  0.67924000  0.27838900  1
  O  O3  1  0.32329900  0.81810900  0.70333000  1
  O  O4  1  0.18539200  0.51043700  0.74232100  1
  O  O5  1  0.49519000  0.67924000  0.72161100  1
  O  O6  1  0.51043700  0.18539200  0.25767900  1
  O  O7  1  0.67924000  0.49519000  0.27838900  1
  O  O8  1  0.81810900  0.32329900  0.29667000  1
  O  O9  1  0.51043700  0.18539200  0.74232100  1
  O  O10  1  0.67924000  0.49519000  0.72161100  1
  O  O11  1  0.81810900  0.32329900  0.70333000  1
  O  O12  1  0.84743800  0.00241400  0.23682500  1
  O  O13  1  0.00241400  0.84743800  0.23682500  1
  O  O14  1  0.15768100  0.15768100  0.20115500  1
  O  O15  1  0.84743800  0.00241400  0.76317500  1
  O  O16  1  0.00241400  0.84743800  0.76317500  1
  O  O17  1  0.15768100  0.15768100  0.79884500  1
  O  O18  1  0.71142900  0.35490600  0.00000000  1
  O  O19  1  0.35490600  0.71142900  0.00000000  1
  O  O20  1  0.04393000  0.04393000  0.50000000  1
loop_
_geom_bond_atom_site_label_1
_geom_bond_atom_site_label_2
_geom_bond_distance
_geom_bond_site_symmetry_2
Ba0 O8 2.851920 1_455
Ba0 O11 2.851920 1_455
Ba0 O16 2.912757 1_555
Ba0 O13 2.912757 1_555
Ba0 O4 2.970726 1_555
Ba0 O1 2.970726 1_555
Ba0 O3 3.033552 1_555
Ba0 O0 3.033552 1_555
Ba0 O10 3.140977 1_455
Ba0 O7 3.140977 1_455
Ba1 O10 2.920164 1_555
Ba1 O7 2.920164 1_555
Ba1 O5 2.920164 1_555
Ba1 O2 2.920164 1_555
Ba1 O17 3.065785 1_555
Ba1 O14 3.065785 1_555
Ba1 O9 3.220958 1_555
Ba1 O6 3.220958 1_555
Ba1 O1 3.220958 1_555
Ba1 O4 3.220958 1_555
Ba1 O20 3.239355 1_555
Ba2 O0 2.851920 1_545
Ba2 O3 2.851920 1_545
Ba2 O15 2.912757 1_555
Ba2 O12 2.912757 1_555
Ba2 O6 2.970726 1_555
Ba2 O9 2.970726 1_555
Ba2 O8 3.033552 1_555
Ba2 O11 3.033552 1_555
Ba2 O2 3.140977 1_545
Ba2 O5 3.140977 1_545
Ba3 O6 2.725483 1_565
Ba3 O9 2.725483 1_564
Ba3 O14 2.818035 1_565
Ba3 O17 2.818035 1_564
Ba3 O0 2.856819 1_555
Ba3 O3 2.856819 1_554
Ba3 O13 2.904291 1_555
Ba3 O16 2.904291 1_554
Ba3 O19 3.061455 1_555
Ba4 O4 2.725483 1_654
Ba4 O1 2.725483 1_655
Ba4 O14 2.818035 1_655
Ba4 O17 2.818035 1_654
Ba4 O11 2.856819 1_554
Ba4 O8 2.856819 1_555
Ba4 O12 2.904291 1_555
Ba4 O15 2.904291 1_554
Ba4 O18 3.061455 1_555
Ba5 O10 2.798156 1_554
Ba5 O7 2.798156 1_555
Ba5 O2 2.798156 1_555
Ba5 O5 2.798156 1_554
Ba5 O12 2.930750 1_565
Ba5 O13 2.930750 1_655
Ba5 O16 2.930750 1_654
Ba5 O15 2.930750 1_564
O0 P0 1.528282 1_555
O1 P0 1.528840 1_555
O2 P0 1.533392 1_555
O3 P1 1.528282 1_555
O4 P1 1.528840 1_555
O5 P1 1.533392 1_555
O6 P2 1.528840 1_555
O7 P2 1.533392 1_555
O8 P2 1.528282 1_555
O9 P3 1.528840 1_555
O10 P3 1.533392 1_555
O11 P3 1.528282 1_555
O12 P4 1.536720 1_655
O13 P4 1.536720 1_565
O14 P4 1.536034 1_555
O15 P5 1.536720 1_655
O16 P5 1.536720 1_565
O17 P5 1.536034 1_555
O18 P2 1.638692 1_555
O18 P3 1.638692 1_554
O19 P0 1.638692 1_555
O19 P1 1.638692 1_554
O20 P5 1.611892 1_555
O20 P4 1.611892 1_555
