# generated using pymatgen
data_K3Ta4F15
_symmetry_space_group_name_H-M   'P 1'
_cell_length_a   4.13527500
_cell_length_b   18.59592300
_cell_length_c   19.97589000
_cell_angle_alpha   90.00000000
_cell_angle_beta   90.00000000
_cell_angle_gamma   90.00000000
_symmetry_Int_Tables_number   1
_chemical_formula_structural   K3Ta4F15
_chemical_formula_sum   'K12 Ta16 F60'
_cell_volume   1536.13106863
_cell_formula_units_Z   4
loop_
 _symmetry_equiv_pos_site_id
 _symmetry_equiv_pos_as_xyz
  1  'x, y, z'
loop_
 _atom_site_type_symbol
 _atom_site_label
 _atom_site_symmetry_multiplicity
 _atom_site_fract_x
 _atom_site_fract_y
 _atom_site_fract_z
 _atom_site_occupancy
  K  K0  1  0.00000000  0.86038300  0.51749400  1
  K  K1  1  0.50000000  0.45221200  0.86287500  1
  K  K2  1  0.50000000  0.65959500  0.85358700  1
  K  K3  1  0.50000000  0.64260900  0.53693100  1
  K  K4  1  0.50000000  0.13961700  0.01749400  1
  K  K5  1  0.00000000  0.35739100  0.03693100  1
  K  K6  1  0.50000000  0.17905800  0.67365300  1
  K  K7  1  0.00000000  0.34040500  0.35358700  1
  K  K8  1  0.00000000  0.54778800  0.36287500  1
  K  K9  1  0.00000000  0.82094200  0.17365300  1
  K  K10  1  0.00000000  0.03629600  0.17825000  1
  K  K11  1  0.50000000  0.96370400  0.67825000  1
  Ta  Ta0  1  0.50000000  0.24377300  0.18345700  1
  Ta  Ta1  1  0.00000000  0.01662700  0.84019700  1
  Ta  Ta2  1  0.00000000  0.46437300  0.54971400  1
  Ta  Ta3  1  0.00000000  0.49514200  0.70458600  1
  Ta  Ta4  1  0.00000000  0.96488000  0.98983800  1
  Ta  Ta5  1  0.50000000  0.63060200  0.16012600  1
  Ta  Ta6  1  0.00000000  0.24222200  0.86909000  1
  Ta  Ta7  1  0.00000000  0.75622700  0.68345700  1
  Ta  Ta8  1  0.50000000  0.75777800  0.36909000  1
  Ta  Ta9  1  0.00000000  0.85425000  0.87433000  1
  Ta  Ta10  1  0.50000000  0.03512000  0.48983800  1
  Ta  Ta11  1  0.50000000  0.14575000  0.37433000  1
  Ta  Ta12  1  0.50000000  0.98337300  0.34019700  1
  Ta  Ta13  1  0.00000000  0.36939800  0.66012600  1
  Ta  Ta14  1  0.50000000  0.53562700  0.04971400  1
  Ta  Ta15  1  0.50000000  0.50485800  0.20458600  1
  F  F0  1  0.50000000  0.86548200  0.33802300  1
  F  F1  1  0.00000000  0.05578000  0.05181900  1
  F  F2  1  0.00000000  0.24397600  0.18027600  1
  F  F3  1  0.50000000  0.34848900  0.67103500  1
  F  F4  1  0.00000000  0.35282800  0.55784000  1
  F  F5  1  0.00000000  0.97086200  0.32840200  1
  F  F6  1  0.50000000  0.50695000  0.71988300  1
  F  F7  1  0.50000000  0.24192800  0.87031000  1
  F  F8  1  0.00000000  0.25110000  0.65046400  1
  F  F9  1  0.50000000  0.44311600  0.12112600  1
  F  F10  1  0.50000000  0.14504300  0.47721400  1
  F  F11  1  0.00000000  0.56196000  0.49844900  1
  F  F12  1  0.50000000  0.57277900  0.95412800  1
  F  F13  1  0.00000000  0.52898600  0.04140900  1
  F  F14  1  0.50000000  0.43804000  0.99844900  1
  F  F15  1  0.50000000  0.75602400  0.68027600  1
  F  F16  1  0.00000000  0.02736400  0.50009100  1
  F  F17  1  0.50000000  0.97263600  0.00009100  1
  F  F18  1  0.50000000  0.64717200  0.05784000  1
  F  F19  1  0.00000000  0.16145300  0.36662500  1
  F  F20  1  0.50000000  0.47101400  0.54140900  1
  F  F21  1  0.00000000  0.05881600  0.93432700  1
  F  F22  1  0.00000000  0.85495700  0.97721400  1
  F  F23  1  0.50000000  0.96039900  0.23944000  1
  F  F24  1  0.50000000  0.65669100  0.40196800  1
  F  F25  1  0.00000000  0.72528200  0.58664600  1
  F  F26  1  0.50000000  0.47062100  0.30730400  1
  F  F27  1  0.50000000  0.83854700  0.86662500  1
  F  F28  1  0.00000000  0.66084000  0.72518100  1
  F  F29  1  0.00000000  0.74922200  0.90011000  1
  F  F30  1  0.00000000  0.34330900  0.90196800  1
  F  F31  1  0.50000000  0.27471800  0.08664600  1
  F  F32  1  0.00000000  0.86065600  0.65352600  1
  F  F33  1  0.50000000  0.02913800  0.82840200  1
  F  F34  1  0.50000000  0.94118400  0.43432700  1
  F  F35  1  0.50000000  0.78868100  0.46617900  1
  F  F36  1  0.00000000  0.39949200  0.76717100  1
  F  F37  1  0.00000000  0.79153800  0.78120900  1
  F  F38  1  0.00000000  0.42722100  0.45412800  1
  F  F39  1  0.00000000  0.92466000  0.08372300  1
  F  F40  1  0.00000000  0.49305000  0.21988300  1
  F  F41  1  0.00000000  0.13451800  0.83802300  1
  F  F42  1  0.50000000  0.33916000  0.22518100  1
  F  F43  1  0.50000000  0.94422000  0.55181900  1
  F  F44  1  0.50000000  0.08072300  0.29013900  1
  F  F45  1  0.50000000  0.07534000  0.58372300  1
  F  F46  1  0.00000000  0.52937900  0.80730400  1
  F  F47  1  0.00000000  0.75807200  0.37031000  1
  F  F48  1  0.50000000  0.20846200  0.28120900  1
  F  F49  1  0.00000000  0.03960100  0.73944000  1
  F  F50  1  0.50000000  0.60050800  0.26717100  1
  F  F51  1  0.00000000  0.91927700  0.79013900  1
  F  F52  1  0.50000000  0.74890000  0.15046400  1
  F  F53  1  0.00000000  0.65151100  0.17103500  1
  F  F54  1  0.00000000  0.26049700  0.77455600  1
  F  F55  1  0.50000000  0.13934400  0.15352600  1
  F  F56  1  0.00000000  0.55688400  0.62112600  1
  F  F57  1  0.50000000  0.73950300  0.27455600  1
  F  F58  1  0.00000000  0.21131900  0.96617900  1
  F  F59  1  0.50000000  0.25077800  0.40011000  1
loop_
_geom_bond_atom_site_label_1
_geom_bond_atom_site_label_2
_geom_bond_distance
_geom_bond_site_symmetry_2
F0 Ta8 2.096798 1_555
F0 Ta12 2.192722 1_555
F1 Ta4 2.095305 1_544
F1 K10 2.551429 1_555
F1 K4 2.678775 1_555
F1 K4 2.678775 1_455
F2 Ta0 2.068617 1_555
F2 Ta0 2.068617 1_455
F3 Ta13 2.115135 1_555
F3 Ta13 2.115135 1_655
F4 Ta13 2.066357 1_555
F4 Ta2 2.080624 1_555
F5 Ta12 2.093984 1_555
F5 Ta12 2.093984 1_455
F6 Ta3 2.101598 1_555
F6 Ta3 2.101598 1_655
F6 K1 3.032343 1_555
F7 Ta6 2.067788 1_655
F7 Ta6 2.067788 1_555
F8 Ta13 2.208311 1_555
F8 K6 2.506883 1_555
F8 K6 2.506883 1_455
F9 Ta15 2.024293 1_555
F9 Ta14 2.234834 1_555
F9 K5 3.105653 1_655
F9 K5 3.105653 1_555
F10 Ta11 2.055242 1_555
F10 Ta10 2.059616 1_555
F11 Ta2 2.083727 1_555
F11 K3 2.667447 1_455
F11 K3 2.667447 1_555
F11 K8 2.721004 1_555
F12 Ta14 2.030561 1_556
F12 K2 2.576823 1_555
F12 K1 2.889572 1_555
F13 Ta14 2.077955 1_555
F13 Ta14 2.077955 1_455
F13 K5 3.192221 1_555
F14 Ta14 2.083727 1_556
F14 K5 2.667447 1_656
F14 K5 2.667447 1_556
F14 K1 2.721004 1_555
F15 Ta7 2.068617 1_555
F15 Ta7 2.068617 1_655
F16 Ta10 2.082757 1_455
F16 Ta10 2.082757 1_555
F16 K0 3.124565 1_545
F17 Ta4 2.082757 1_654
F17 Ta4 2.082757 1_554
F17 K4 3.124565 1_565
F18 Ta5 2.066357 1_555
F18 Ta14 2.080624 1_555
F19 Ta11 2.093821 1_455
F19 Ta11 2.093821 1_555
F20 Ta2 2.077955 1_555
F20 Ta2 2.077955 1_655
F20 K3 3.192221 1_555
F21 Ta1 2.037437 1_555
F21 Ta4 2.069063 1_545
F21 K4 3.048421 1_456
F21 K4 3.048421 1_556
F22 Ta9 2.055242 1_555
F22 Ta4 2.059616 1_555
F23 Ta12 2.057553 1_555
F23 K10 2.785890 1_565
F23 K10 2.785890 1_665
F24 Ta8 1.991234 1_555
F24 K3 2.708694 1_555
F24 K8 2.997699 1_555
F24 K8 2.997699 1_655
F25 Ta7 2.017686 1_555
F25 K3 2.761325 1_455
F25 K3 2.761325 1_555
F25 K0 2.867051 1_555
F26 Ta15 2.148388 1_555
F26 K8 2.750746 1_555
F26 K8 2.750746 1_655
F27 Ta9 2.093821 1_555
F27 Ta9 2.093821 1_655
F28 Ta7 1.959867 1_555
F29 Ta9 2.019845 1_555
F29 K2 2.813658 1_555
F29 K2 2.813658 1_455
F30 Ta6 1.991234 1_555
F30 K5 2.708694 1_556
F30 K1 2.997699 1_555
F30 K1 2.997699 1_455
F31 Ta0 2.017686 1_555
F31 K5 2.761325 1_555
F31 K5 2.761325 1_655
F31 K4 2.867051 1_555
F32 Ta7 2.031912 1_555
F32 K0 2.717365 1_555
F32 K11 2.862018 1_555
F32 K11 2.862018 1_455
F33 Ta1 2.093984 1_555
F33 Ta1 2.093984 1_655
F34 Ta12 2.037437 1_555
F34 Ta10 2.069063 1_565
F34 K0 3.048421 1_655
F34 K0 3.048421 1_555
F35 Ta8 2.022788 1_555
F35 K0 2.665284 1_555
F35 K0 2.665284 1_655
F35 K3 3.062031 1_555
F36 Ta3 2.174109 1_555
F36 Ta13 2.210337 1_555
F36 K1 2.981801 1_555
F36 K1 2.981801 1_455
F37 Ta7 2.060133 1_555
F37 Ta9 2.195505 1_555
F38 Ta2 2.030561 1_555
F38 K7 2.576823 1_555
F38 K8 2.889572 1_555
F39 Ta4 2.019074 1_554
F39 K9 2.635749 1_555
F39 K10 2.806279 1_565
F40 Ta15 2.101598 1_555
F40 Ta15 2.101598 1_455
F40 K8 3.032343 1_555
F41 Ta6 2.096798 1_555
F41 Ta1 2.192722 1_555
F42 Ta0 1.959867 1_555
F43 Ta10 2.095305 1_565
F43 K11 2.551429 1_555
F43 K0 2.678775 1_555
F43 K0 2.678775 1_655
F44 Ta12 2.068125 1_545
F44 Ta11 2.071394 1_555
F45 Ta10 2.019074 1_555
F45 K6 2.635749 1_555
F45 K11 2.806279 1_545
F46 Ta3 2.148388 1_555
F46 K1 2.750746 1_555
F46 K1 2.750746 1_455
F47 Ta8 2.067788 1_555
F47 Ta8 2.067788 1_455
F48 Ta0 2.060133 1_555
F48 Ta11 2.195505 1_555
F49 Ta1 2.057553 1_555
F49 K11 2.785890 1_445
F49 K11 2.785890 1_545
F50 Ta15 2.174109 1_555
F50 Ta5 2.210337 1_555
F50 K8 2.981801 1_655
F50 K8 2.981801 1_555
F51 Ta1 2.068125 1_565
F51 Ta9 2.071394 1_555
F52 Ta5 2.208311 1_555
F52 K9 2.506883 1_555
F52 K9 2.506883 1_655
F53 Ta5 2.115135 1_555
F53 Ta5 2.115135 1_455
F54 Ta6 1.918736 1_555
F55 Ta0 2.031912 1_555
F55 K4 2.717365 1_555
F55 K10 2.862018 1_555
F55 K10 2.862018 1_655
F56 Ta3 2.024293 1_555
F56 Ta2 2.234834 1_555
F56 K3 3.105653 1_555
F56 K3 3.105653 1_455
F57 Ta8 1.918736 1_555
F58 Ta6 2.022788 1_555
F58 K4 2.665284 1_456
F58 K4 2.665284 1_556
F58 K5 3.062031 1_556
F59 Ta11 2.019845 1_555
F59 K7 2.813658 1_655
F59 K7 2.813658 1_555
