# generated using pymatgen
data_Li10Ge(PSe6)2
_symmetry_space_group_name_H-M   'P 1'
_cell_length_a   9.28743500
_cell_length_b   9.28743500
_cell_length_c   13.36895600
_cell_angle_alpha   90.00000000
_cell_angle_beta   90.00000000
_cell_angle_gamma   90.00000000
_symmetry_Int_Tables_number   1
_chemical_formula_structural   Li10Ge(PSe6)2
_chemical_formula_sum   'Li20 Ge2 P4 Se24'
_cell_volume   1153.15866978
_cell_formula_units_Z   2
loop_
 _symmetry_equiv_pos_site_id
 _symmetry_equiv_pos_as_xyz
  1  'x, y, z'
loop_
 _atom_site_type_symbol
 _atom_site_label
 _atom_site_symmetry_multiplicity
 _atom_site_fract_x
 _atom_site_fract_y
 _atom_site_fract_z
 _atom_site_occupancy
  Li  Li0  1  0.23028100  0.27359100  0.29489000  1
  Li  Li1  1  0.76971900  0.72640900  0.29489000  1
  Li  Li2  1  0.27359100  0.76971900  0.79489000  1
  Li  Li3  1  0.72640900  0.23028100  0.79489000  1
  Li  Li4  1  0.23028100  0.72640900  0.29489000  1
  Li  Li5  1  0.76971900  0.27359100  0.29489000  1
  Li  Li6  1  0.27359100  0.23028100  0.79489000  1
  Li  Li7  1  0.72640900  0.76971900  0.79489000  1
  Li  Li8  1  0.00000000  0.00000000  0.94111700  1
  Li  Li9  1  0.00000000  0.00000000  0.44111700  1
  Li  Li10  1  0.50000000  0.50000000  0.54686800  1
  Li  Li11  1  0.50000000  0.50000000  0.04686800  1
  Li  Li12  1  0.25894000  0.72618100  0.03571800  1
  Li  Li13  1  0.74106000  0.27381900  0.03571800  1
  Li  Li14  1  0.27381900  0.25894000  0.53571800  1
  Li  Li15  1  0.72618100  0.74106000  0.53571800  1
  Li  Li16  1  0.27381900  0.74106000  0.53571800  1
  Li  Li17  1  0.72618100  0.25894000  0.53571800  1
  Li  Li18  1  0.25894000  0.27381900  0.03571800  1
  Li  Li19  1  0.74106000  0.72618100  0.03571800  1
  Ge  Ge0  1  0.50000000  0.50000000  0.80122000  1
  Ge  Ge1  1  0.50000000  0.50000000  0.30122000  1
  P  P0  1  0.00000000  0.00000000  0.68537400  1
  P  P1  1  0.00000000  0.00000000  0.18537400  1
  P  P2  1  0.00000000  0.50000000  0.50382400  1
  P  P3  1  0.50000000  0.00000000  0.00382400  1
  Se  Se0  1  0.00000000  0.69948500  0.40944800  1
  Se  Se1  1  0.00000000  0.30051500  0.40944800  1
  Se  Se2  1  0.30051500  0.00000000  0.90944800  1
  Se  Se3  1  0.69948500  0.00000000  0.90944800  1
  Se  Se4  1  0.50000000  0.19394800  0.10129200  1
  Se  Se5  1  0.50000000  0.80605200  0.10129200  1
  Se  Se6  1  0.19394800  0.50000000  0.60129200  1
  Se  Se7  1  0.80605200  0.50000000  0.60129200  1
  Se  Se8  1  0.00000000  0.79828900  0.09283400  1
  Se  Se9  1  0.00000000  0.20171100  0.09283400  1
  Se  Se10  1  0.20171100  0.00000000  0.59283400  1
  Se  Se11  1  0.79828900  0.00000000  0.59283400  1
  Se  Se12  1  0.50000000  0.28549800  0.40297600  1
  Se  Se13  1  0.50000000  0.71450200  0.40297600  1
  Se  Se14  1  0.28549800  0.50000000  0.90297600  1
  Se  Se15  1  0.71450200  0.50000000  0.90297600  1
  Se  Se16  1  0.00000000  0.19732000  0.77919900  1
  Se  Se17  1  0.00000000  0.80268000  0.77919900  1
  Se  Se18  1  0.80268000  0.00000000  0.27919900  1
  Se  Se19  1  0.19732000  0.00000000  0.27919900  1
  Se  Se20  1  0.50000000  0.70975600  0.69743500  1
  Se  Se21  1  0.50000000  0.29024400  0.69743500  1
  Se  Se22  1  0.70975600  0.50000000  0.19743500  1
  Se  Se23  1  0.29024400  0.50000000  0.19743500  1
loop_
_geom_bond_atom_site_label_1
_geom_bond_atom_site_label_2
_geom_bond_distance
_geom_bond_site_symmetry_2
Li0 Se23 2.535589 1_555
Li0 Se19 2.567915 1_555
Li0 Se1 2.642386 1_555
Li0 Se12 2.894004 1_555
Li1 Se22 2.535589 1_555
Li1 Se18 2.567915 1_565
Li1 Se0 2.642386 1_655
Li1 Se13 2.894004 1_555
Li2 Se20 2.535589 1_555
Li2 Se17 2.567915 1_555
Li2 Se2 2.642386 1_565
Li2 Se14 2.894004 1_555
Li3 Se21 2.535589 1_555
Li3 Se16 2.567915 1_655
Li3 Se3 2.642386 1_555
Li3 Se15 2.894004 1_555
Li4 Se23 2.535589 1_555
Li4 Se19 2.567915 1_565
Li4 Se0 2.642386 1_555
Li4 Se13 2.894004 1_555
Li5 Se22 2.535589 1_555
Li5 Se18 2.567915 1_555
Li5 Se1 2.642386 1_655
Li5 Se12 2.894004 1_555
Li6 Se21 2.535589 1_555
Li6 Se16 2.567915 1_555
Li6 Se2 2.642386 1_555
Li6 Se14 2.894004 1_555
Li7 Se20 2.535589 1_555
Li7 Se17 2.567915 1_655
Li7 Se3 2.642386 1_565
Li7 Se15 2.894004 1_555
Li8 Se9 2.761075 1_556
Li8 Se8 2.761075 1_546
Li8 Se2 2.822943 1_555
Li8 Se3 2.822943 1_455
Li8 Se17 2.836235 1_545
Li8 Se16 2.836235 1_555
Li9 Se10 2.761075 1_555
Li9 Se11 2.761075 1_455
Li9 Se0 2.822943 1_545
Li9 Se1 2.822943 1_555
Li9 Se18 2.836235 1_455
Li9 Se19 2.836235 1_555
Li10 Se13 2.769354 1_555
Li10 Se12 2.769354 1_555
Li10 Se20 2.801238 1_555
Li10 Se21 2.801238 1_555
Li10 Se7 2.934083 1_555
Li10 Se6 2.934083 1_555
Li11 Se15 2.769354 1_554
Li11 Se14 2.769354 1_554
Li11 Se22 2.801238 1_555
Li11 Se23 2.801238 1_555
Li11 Se5 2.934083 1_555
Li11 Se4 2.934083 1_555
Li12 Se5 2.516176 1_555
Li12 Se8 2.610563 1_555
Li12 Se14 2.760945 1_554
Li12 Se23 3.028434 1_555
Li12 Se2 3.076687 1_564
Li13 Se4 2.516176 1_555
Li13 Se9 2.610563 1_655
Li13 Se15 2.760945 1_554
Li13 Se22 3.028434 1_555
Li13 Se3 3.076687 1_554
Li14 Se6 2.516176 1_555
Li14 Se10 2.610563 1_555
Li14 Se12 2.760945 1_555
Li14 Se21 3.028434 1_555
Li14 Se1 3.076687 1_555
Li15 Se7 2.516176 1_555
Li15 Se11 2.610563 1_565
Li15 Se13 2.760945 1_555
Li15 Se20 3.028434 1_555
Li15 Se0 3.076687 1_655
Li16 Se6 2.516176 1_555
Li16 Se10 2.610563 1_565
Li16 Se13 2.760945 1_555
Li16 Se20 3.028434 1_555
Li16 Se0 3.076687 1_555
Li17 Se7 2.516176 1_555
Li17 Se11 2.610563 1_555
Li17 Se12 2.760945 1_555
Li17 Se21 3.028434 1_555
Li17 Se1 3.076687 1_655
Li18 Se4 2.516176 1_555
Li18 Se9 2.610563 1_555
Li18 Se14 2.760945 1_554
Li18 Se23 3.028434 1_555
Li18 Se2 3.076687 1_554
Li19 Se5 2.516176 1_555
Li19 Se8 2.610563 1_655
Li19 Se15 2.760945 1_554
Li19 Se22 3.028434 1_555
Li19 Se3 3.076687 1_564
Ge0 Se20 2.391699 1_555
Ge0 Se21 2.391699 1_555
Ge0 Se15 2.412336 1_555
Ge0 Se14 2.412336 1_555
Ge1 Se22 2.391699 1_555
Ge1 Se23 2.391699 1_555
Ge1 Se13 2.412336 1_555
Ge1 Se12 2.412336 1_555
P0 Se17 2.220762 1_545
P0 Se16 2.220762 1_555
P0 Se10 2.245021 1_555
P0 Se11 2.245021 1_455
P1 Se18 2.220762 1_455
P1 Se19 2.220762 1_555
P1 Se9 2.245021 1_555
P1 Se8 2.245021 1_545
P2 Se6 2.223181 1_555
P2 Se7 2.223181 1_455
P2 Se1 2.241522 1_555
P2 Se0 2.241522 1_555
P3 Se4 2.223181 1_555
P3 Se5 2.223181 1_545
P3 Se2 2.241522 1_554
P3 Se3 2.241522 1_554
