# generated using pymatgen
data_Mg(GaS2)2
_symmetry_space_group_name_H-M   'P 1'
_cell_length_a   13.00259802
_cell_length_b   13.00259802
_cell_length_c   6.41419210
_cell_angle_alpha   80.94457248
_cell_angle_beta   80.94457248
_cell_angle_gamma   120.89628730
_symmetry_Int_Tables_number   1
_chemical_formula_structural   Mg(GaS2)2
_chemical_formula_sum   'Mg6 Ga12 S24'
_cell_volume   881.89686526
_cell_formula_units_Z   6
loop_
 _symmetry_equiv_pos_site_id
 _symmetry_equiv_pos_as_xyz
  1  'x, y, z'
loop_
 _atom_site_type_symbol
 _atom_site_label
 _atom_site_symmetry_multiplicity
 _atom_site_fract_x
 _atom_site_fract_y
 _atom_site_fract_z
 _atom_site_occupancy
  Mg  Mg0  1  0.87064027  0.12935973  0.75000000  1
  Mg  Mg1  1  0.12935973  0.87064027  0.25000000  1
  Mg  Mg2  1  0.04441517  0.95558483  0.75000000  1
  Mg  Mg3  1  0.95558483  0.04441517  0.25000000  1
  Mg  Mg4  1  0.21856836  0.78143164  0.75000000  1
  Mg  Mg5  1  0.78143164  0.21856836  0.25000000  1
  Ga  Ga0  1  0.58467161  0.83454877  0.61628001  1
  Ga  Ga1  1  0.16545123  0.41532839  0.88371999  1
  Ga  Ga2  1  0.41532839  0.16545123  0.38371999  1
  Ga  Ga3  1  0.83454877  0.58467161  0.11628001  1
  Ga  Ga4  1  0.75405440  0.67337512  0.61561362  1
  Ga  Ga5  1  0.32662488  0.24594560  0.88438638  1
  Ga  Ga6  1  0.24594560  0.32662488  0.38438638  1
  Ga  Ga7  1  0.67337512  0.75405440  0.11561362  1
  Ga  Ga8  1  0.88628495  0.48521379  0.64504219  1
  Ga  Ga9  1  0.51478621  0.11371505  0.85495781  1
  Ga  Ga10  1  0.11371505  0.51478621  0.35495781  1
  Ga  Ga11  1  0.48521379  0.88628495  0.14504219  1
  S  S0  1  0.75946906  0.02396497  0.48095930  1
  S  S1  1  0.97603503  0.24053094  0.01904070  1
  S  S2  1  0.24053094  0.97603503  0.51904070  1
  S  S3  1  0.02396497  0.75946906  0.98095930  1
  S  S4  1  0.93696051  0.84957654  0.48129562  1
  S  S5  1  0.15042346  0.06303949  0.01870438  1
  S  S6  1  0.06303949  0.15042346  0.51870438  1
  S  S7  1  0.84957654  0.93696051  0.98129562  1
  S  S8  1  0.08897197  0.65553499  0.49529960  1
  S  S9  1  0.34446501  0.91102803  0.00470040  1
  S  S10  1  0.91102803  0.34446501  0.50470040  1
  S  S11  1  0.65553499  0.08897197  0.99529960  1
  S  S12  1  0.74686449  0.51065105  0.49762957  1
  S  S13  1  0.48934895  0.25313551  0.00237043  1
  S  S14  1  0.25313551  0.48934895  0.50237043  1
  S  S15  1  0.51065105  0.74686449  -0.00237043  1
  S  S16  1  0.59585726  0.67702478  0.49855321  1
  S  S17  1  0.32297522  0.40414274  0.00144679  1
  S  S18  1  0.40414274  0.32297522  0.50144679  1
  S  S19  1  0.67702478  0.59585726  -0.00144679  1
  S  S20  1  0.41904447  0.81453551  0.51043547  1
  S  S21  1  0.18546449  0.58095553  0.98956453  1
  S  S22  1  0.58095553  0.18546449  0.48956453  1
  S  S23  1  0.81453551  0.41904447  0.01043547  1
loop_
_geom_bond_atom_site_label_1
_geom_bond_atom_site_label_2
_geom_bond_distance
_geom_bond_site_symmetry_2
Mg0 S1 2.537864 1_556
Mg0 S0 2.537864 1_555
Mg0 S7 2.556289 1_545
Mg0 S6 2.556289 1_655
Mg0 S11 2.724044 1_555
Mg0 S10 2.724044 1_555
Mg1 S3 2.537864 1_554
Mg1 S2 2.537864 1_555
Mg1 S5 2.556289 1_565
Mg1 S4 2.556289 1_455
Mg1 S8 2.724044 1_555
Mg1 S9 2.724044 1_555
Mg2 S5 2.520046 1_566
Mg2 S4 2.520046 1_455
Mg2 S7 2.598376 1_455
Mg2 S6 2.598376 1_565
Mg2 S2 2.599693 1_555
Mg2 S3 2.599693 1_555
Mg3 S6 2.520046 1_655
Mg3 S7 2.520046 1_544
Mg3 S4 2.598376 1_545
Mg3 S5 2.598376 1_655
Mg3 S0 2.599693 1_555
Mg3 S1 2.599693 1_555
Mg4 S3 2.573638 1_555
Mg4 S2 2.573638 1_555
Mg4 S20 2.592307 1_555
Mg4 S21 2.592307 1_555
Mg4 S8 2.657769 1_555
Mg4 S9 2.657769 1_556
Mg5 S0 2.573638 1_555
Mg5 S1 2.573638 1_555
Mg5 S22 2.592307 1_555
Mg5 S23 2.592307 1_555
Mg5 S11 2.657769 1_554
Mg5 S10 2.657769 1_555
Ga0 S0 2.223144 1_565
Ga0 S20 2.259838 1_555
Ga0 S15 2.337419 1_556
Ga0 S16 2.354738 1_555
Ga1 S1 2.223144 1_456
Ga1 S21 2.259838 1_555
Ga1 S14 2.337419 1_555
Ga1 S17 2.354738 1_556
Ga2 S2 2.223144 1_545
Ga2 S22 2.259838 1_555
Ga2 S13 2.337419 1_555
Ga2 S18 2.354738 1_555
Ga3 S3 2.223144 1_654
Ga3 S23 2.259838 1_555
Ga3 S12 2.337419 1_555
Ga3 S19 2.354738 1_555
Ga4 S4 2.187545 1_555
Ga4 S16 2.317836 1_555
Ga4 S12 2.319777 1_555
Ga4 S19 2.337046 1_556
Ga5 S5 2.187545 1_556
Ga5 S17 2.317836 1_556
Ga5 S13 2.319777 1_556
Ga5 S18 2.337046 1_555
Ga6 S6 2.187545 1_555
Ga6 S18 2.317836 1_555
Ga6 S14 2.319777 1_555
Ga6 S17 2.337046 1_555
Ga7 S7 2.187545 1_554
Ga7 S19 2.317836 1_555
Ga7 S15 2.319777 1_555
Ga7 S16 2.337046 1_555
Ga8 S23 2.226256 1_556
Ga8 S10 2.301124 1_555
Ga8 S8 2.304858 1_655
Ga8 S12 2.312284 1_555
Ga9 S22 2.226256 1_555
Ga9 S11 2.301124 1_555
Ga9 S9 2.304858 1_546
Ga9 S13 2.312284 1_556
Ga10 S21 2.226256 1_554
Ga10 S8 2.301124 1_555
Ga10 S10 2.304858 1_455
Ga10 S14 2.312284 1_555
Ga11 S20 2.226256 1_555
Ga11 S9 2.301124 1_555
Ga11 S11 2.304858 1_564
Ga11 S15 2.312284 1_555
