# generated using pymatgen
data_SbH2(NF2)3
_symmetry_space_group_name_H-M   'P 1'
_cell_length_a   5.29493900
_cell_length_b   6.62752500
_cell_length_c   10.32176500
_cell_angle_alpha   90.00000000
_cell_angle_beta   90.00000000
_cell_angle_gamma   90.00000000
_symmetry_Int_Tables_number   1
_chemical_formula_structural   SbH2(NF2)3
_chemical_formula_sum   'Sb2 H4 N6 F12'
_cell_volume   362.21489293
_cell_formula_units_Z   2
loop_
 _symmetry_equiv_pos_site_id
 _symmetry_equiv_pos_as_xyz
  1  'x, y, z'
loop_
 _atom_site_type_symbol
 _atom_site_label
 _atom_site_symmetry_multiplicity
 _atom_site_fract_x
 _atom_site_fract_y
 _atom_site_fract_z
 _atom_site_occupancy
  Sb  Sb0  1  0.83451600  0.00000000  0.69042100  1
  Sb  Sb1  1  0.16548400  0.00000000  0.19042100  1
  H  H0  1  0.28906000  0.15518300  0.55935800  1
  H  H1  1  0.28906000  0.84481700  0.55935800  1
  H  H2  1  0.71094000  0.84481700  0.05935800  1
  H  H3  1  0.71094000  0.15518300  0.05935800  1
  N  N0  1  0.78147900  0.50000000  0.37511900  1
  N  N1  1  0.21852100  0.50000000  0.87511900  1
  N  N2  1  0.52564100  0.50000000  0.39758300  1
  N  N3  1  0.47435900  0.50000000  0.89758300  1
  N  N4  1  0.71784800  0.50000000  0.49423400  1
  N  N5  1  0.28215200  0.50000000  0.99423400  1
  F  F0  1  0.13870900  0.75350600  0.57371500  1
  F  F1  1  0.13870900  0.24649400  0.57371500  1
  F  F2  1  0.86129100  0.24649400  0.07371500  1
  F  F3  1  0.86129100  0.75350600  0.07371500  1
  F  F4  1  0.65781200  0.22040200  0.77699700  1
  F  F5  1  0.65781200  0.77959800  0.77699700  1
  F  F6  1  0.34218800  0.77959800  0.27699700  1
  F  F7  1  0.34218800  0.22040200  0.27699700  1
  F  F8  1  0.46837100  0.00000000  0.55134500  1
  F  F9  1  0.53162900  0.00000000  0.05134500  1
  F  F10  1  0.09842800  0.00000000  0.82245800  1
  F  F11  1  0.90157200  0.00000000  0.32245800  1
loop_
_geom_bond_atom_site_label_1
_geom_bond_atom_site_label_2
_geom_bond_distance
_geom_bond_site_symmetry_2
N0 N4 1.274806 1_555
N0 N2 1.374347 1_555
N1 N5 1.274806 1_555
N1 N3 1.374347 1_555
N2 N4 1.425127 1_555
N3 N5 1.425127 1_555
F0 H1 1.010920 1_555
F0 Sb0 2.591175 1_465
F1 H0 1.010920 1_555
F1 Sb0 2.591175 1_455
F2 H3 1.010920 1_555
F2 Sb1 2.591175 1_655
F3 H2 1.010920 1_555
F3 Sb1 2.591175 1_665
F4 Sb0 1.951325 1_555
F5 Sb0 1.951325 1_565
F6 Sb1 1.951325 1_565
F7 Sb1 1.951325 1_555
F8 H0 1.402158 1_555
F8 H1 1.402158 1_545
F8 Sb0 2.412324 1_555
F9 H3 1.402158 1_555
F9 H2 1.402158 1_545
F9 Sb1 2.412324 1_555
F10 Sb0 1.951946 1_455
F11 Sb1 1.951946 1_655
