# generated using pymatgen
data_Tb4InIr
_symmetry_space_group_name_H-M   'P 1'
_cell_length_a   9.66832831
_cell_length_b   9.66831883
_cell_length_c   9.66821688
_cell_angle_alpha   60.00029777
_cell_angle_beta   60.00033321
_cell_angle_gamma   60.00067990
_symmetry_Int_Tables_number   1
_chemical_formula_structural   Tb4InIr
_chemical_formula_sum   'Tb16 In4 Ir4'
_cell_volume   639.05471204
_cell_formula_units_Z   4
loop_
 _symmetry_equiv_pos_site_id
 _symmetry_equiv_pos_as_xyz
  1  'x, y, z'
loop_
 _atom_site_type_symbol
 _atom_site_label
 _atom_site_symmetry_multiplicity
 _atom_site_fract_x
 _atom_site_fract_y
 _atom_site_fract_z
 _atom_site_occupancy
  Tb  Tb0  1  0.09862739  0.70410538  0.09864648  1
  Tb  Tb1  1  0.94108188  0.94108383  0.55890059  1
  Tb  Tb2  1  0.94108018  0.55891011  0.94108399  1
  Tb  Tb3  1  0.30967341  0.69032272  0.30967731  1
  Tb  Tb4  1  0.94108301  0.55892745  0.55890973  1
  Tb  Tb5  1  0.30967890  0.30968127  0.69031467  1
  Tb  Tb6  1  0.09862177  0.09862991  0.09864094  1
  Tb  Tb7  1  0.55892456  0.55891379  0.94108451  1
  Tb  Tb8  1  0.09863300  0.09864130  0.70409920  1
  Tb  Tb9  1  0.69032500  0.30968315  0.69031520  1
  Tb  Tb10  1  0.69032631  0.69032311  0.30967956  1
  Tb  Tb11  1  0.69032670  0.30967227  0.30967381  1
  Tb  Tb12  1  0.30968435  0.69032112  0.69031436  1
  Tb  Tb13  1  0.55893253  0.94108415  0.55890441  1
  Tb  Tb14  1  0.70410800  0.09863218  0.09864286  1
  Tb  Tb15  1  0.55891516  0.94108130  0.94108314  1
  In  In0  1  0.33275701  0.33275481  0.33274878  1
  In  In1  1  0.00170827  0.33276531  0.33275963  1
  In  In2  1  0.33276536  0.00171224  0.33275754  1
  In  In3  1  0.33275149  0.33274918  0.00174876  1
  Ir  Ir0  1  0.89098415  0.89098759  0.89099135  1
  Ir  Ir1  1  0.89098758  0.89099075  0.32703778  1
  Ir  Ir2  1  0.32703833  0.89098820  0.89099221  1
  Ir  Ir3  1  0.89098566  0.32703885  0.89099321  1
loop_
_geom_bond_atom_site_label_1
_geom_bond_atom_site_label_2
_geom_bond_distance
_geom_bond_site_symmetry_2
Tb0 Tb3 3.458809 1_555
Tb0 Tb10 3.458901 1_455
Tb0 Tb12 3.459128 1_554
Tb1 Tb11 3.605364 1_565
Tb1 Tb3 3.605388 1_655
Tb1 Tb9 3.605556 1_565
Tb1 Tb12 3.605579 1_655
Tb2 Tb5 3.605478 1_655
Tb3 Tb6 3.458956 1_565
Tb3 Tb4 3.605379 1_455
Tb3 Tb7 3.605443 1_554
Tb3 Tb5 3.680140 1_555
Tb4 Tb9 3.605473 1_555
Tb4 Tb5 3.605483 1_655
Tb5 Tb8 3.458887 1_555
Tb5 Tb6 3.459085 1_556
Tb5 Tb9 3.680223 1_555
Tb7 Tb9 3.605456 1_555
Tb8 Tb9 3.458976 1_455
Tb10 Tb14 3.458961 1_565
Tb10 Tb13 3.605364 1_555
Tb10 Tb4 3.605367 1_555
Tb10 Tb15 3.605482 1_554
Tb10 Tb2 3.605486 1_554
Tb10 Tb9 3.680125 1_555
Tb10 Tb12 3.680134 1_555
Tb10 Tb11 3.680280 1_555
Tb10 Tb3 3.680290 1_555
Tb11 Tb14 3.458766 1_555
Tb11 Tb6 3.458856 1_655
Tb11 Tb13 3.605352 1_545
Tb11 Tb7 3.605381 1_554
Tb11 Tb2 3.605394 1_554
Tb11 Tb9 3.680168 1_555
Tb11 Tb5 3.680192 1_555
Tb11 Tb3 3.680303 1_555
Tb12 Tb8 3.459078 1_565
Tb12 Tb7 3.605519 1_555
Tb12 Tb13 3.605530 1_555
Tb12 Tb2 3.605567 1_455
Tb12 Tb3 3.680127 1_555
Tb12 Tb5 3.680172 1_555
Tb12 Tb9 3.680182 1_555
Tb13 Tb5 3.605517 1_565
Tb14 Tb9 3.459086 1_554
Tb15 Tb3 3.605452 1_556
Tb15 Tb5 3.605512 1_565
Tb15 Tb9 3.605540 1_565
In0 In3 3.200234 1_555
In0 In2 3.200542 1_555
In0 In1 3.200585 1_555
In0 Tb5 3.249277 1_555
In0 Tb3 3.249321 1_555
In0 Tb11 3.249332 1_555
In0 Tb14 3.465177 1_555
In0 Tb0 3.465188 1_555
In0 Tb8 3.465189 1_555
In0 Tb7 3.481797 1_554
In0 Tb13 3.481872 1_545
In0 Tb4 3.481899 1_455
In1 In3 3.200476 1_555
In1 In2 3.200781 1_555
In1 Tb9 3.249122 1_455
In1 Tb11 3.249145 1_455
In1 Tb10 3.249168 1_455
In1 Tb6 3.465215 1_555
In1 Tb8 3.465255 1_555
In1 Tb0 3.465258 1_555
In1 Tb2 3.481746 1_454
In1 Tb1 3.481817 1_445
In1 Tb4 3.481831 1_455
In2 In3 3.200432 1_555
In2 Tb12 3.249159 1_545
In2 Tb3 3.249182 1_545
In2 Tb10 3.249216 1_545
In2 Tb6 3.465250 1_555
In2 Tb14 3.465286 1_555
In2 Tb8 3.465293 1_555
In2 Tb15 3.481748 1_544
In2 Tb13 3.481835 1_545
In2 Tb1 3.481845 1_445
In3 Tb5 3.249408 1_554
In3 Tb12 3.249431 1_554
In3 Tb9 3.249439 1_554
In3 Tb6 3.465266 1_555
In3 Tb14 3.465296 1_555
In3 Tb0 3.465308 1_555
In3 Tb15 3.481870 1_544
In3 Tb7 3.481884 1_554
In3 Tb2 3.481898 1_454
Ir0 Tb15 2.810970 1_555
Ir0 Tb2 2.811037 1_555
Ir0 Tb1 2.811107 1_555
Ir0 Tb14 2.846277 1_566
Ir0 Tb0 2.846289 1_656
Ir0 Tb8 2.846316 1_665
Ir0 Tb10 3.459914 1_556
Ir0 Tb9 3.460028 1_565
Ir0 Tb12 3.460079 1_655
Ir1 Tb1 2.810748 1_555
Ir1 Tb13 2.810829 1_555
Ir1 Tb4 2.810894 1_555
Ir1 Tb6 2.846117 1_665
Ir1 Tb14 2.846120 1_565
Ir1 Tb0 2.846132 1_655
Ir1 Tb11 3.459902 1_565
Ir1 Tb10 3.459928 1_555
Ir1 Tb3 3.459950 1_655
Ir2 Tb15 2.810878 1_555
Ir2 Tb7 2.811028 1_555
Ir2 Tb13 2.811099 1_555
Ir2 Tb6 2.846244 1_566
Ir2 Tb0 2.846259 1_556
Ir2 Tb8 2.846288 1_565
Ir2 Tb3 3.459879 1_556
Ir2 Tb5 3.459997 1_565
Ir2 Tb12 3.460024 1_555
Ir3 Tb2 2.810832 1_555
Ir3 Tb7 2.810911 1_555
Ir3 Tb4 2.811053 1_555
Ir3 Tb14 2.846195 1_556
Ir3 Tb6 2.846196 1_656
Ir3 Tb8 2.846238 1_655
Ir3 Tb11 3.459838 1_556
Ir3 Tb9 3.459983 1_555
Ir3 Tb5 3.460008 1_655
