# generated using pymatgen
data_RbAs2H5O8
_symmetry_space_group_name_H-M   'P 1'
_cell_length_a   8.09416000
_cell_length_b   9.89663200
_cell_length_c   20.84199600
_cell_angle_alpha   90.00000000
_cell_angle_beta   90.00000000
_cell_angle_gamma   90.00000000
_symmetry_Int_Tables_number   1
_chemical_formula_structural   RbAs2H5O8
_chemical_formula_sum   'Rb8 As16 H40 O64'
_cell_volume   1669.54648202
_cell_formula_units_Z   8
loop_
 _symmetry_equiv_pos_site_id
 _symmetry_equiv_pos_as_xyz
  1  'x, y, z'
loop_
 _atom_site_type_symbol
 _atom_site_label
 _atom_site_symmetry_multiplicity
 _atom_site_fract_x
 _atom_site_fract_y
 _atom_site_fract_z
 _atom_site_occupancy
  Rb  Rb0  1  0.79722000  0.93143600  0.11773800  1
  Rb  Rb1  1  0.29722000  0.56856400  0.88226200  1
  Rb  Rb2  1  0.20278000  0.43143600  0.38226200  1
  Rb  Rb3  1  0.70278000  0.06856400  0.61773800  1
  Rb  Rb4  1  0.20278000  0.06856400  0.88226200  1
  Rb  Rb5  1  0.70278000  0.43143600  0.11773800  1
  Rb  Rb6  1  0.79722000  0.56856400  0.61773800  1
  Rb  Rb7  1  0.29722000  0.93143600  0.38226200  1
  As  As0  1  0.80979300  0.70310200  0.96056600  1
  As  As1  1  0.30979300  0.79689800  0.03943400  1
  As  As2  1  0.19020700  0.20310200  0.53943400  1
  As  As3  1  0.69020700  0.29689800  0.46056600  1
  As  As4  1  0.19020700  0.29689800  0.03943400  1
  As  As5  1  0.69020700  0.20310200  0.96056600  1
  As  As6  1  0.80979300  0.79689800  0.46056600  1
  As  As7  1  0.30979300  0.70310200  0.53943400  1
  As  As8  1  0.70186000  0.13098600  0.27766000  1
  As  As9  1  0.20186000  0.36901400  0.72234000  1
  As  As10  1  0.29814000  0.63098600  0.22234000  1
  As  As11  1  0.79814000  0.86901400  0.77766000  1
  As  As12  1  0.29814000  0.86901400  0.72234000  1
  As  As13  1  0.79814000  0.63098600  0.27766000  1
  As  As14  1  0.70186000  0.36901400  0.77766000  1
  As  As15  1  0.20186000  0.13098600  0.22234000  1
  H  H0  1  0.01383700  0.65195500  0.03539900  1
  H  H1  1  0.51383700  0.84804500  0.96460100  1
  H  H2  1  0.98616300  0.15195500  0.46460100  1
  H  H3  1  0.48616300  0.34804500  0.53539900  1
  H  H4  1  0.98616300  0.34804500  0.96460100  1
  H  H5  1  0.48616300  0.15195500  0.03539900  1
  H  H6  1  0.01383700  0.84804500  0.53539900  1
  H  H7  1  0.51383700  0.65195500  0.46460100  1
  H  H8  1  0.96207900  0.78575100  0.86668100  1
  H  H9  1  0.46207900  0.71424900  0.13331900  1
  H  H10  1  0.03792100  0.28575100  0.63331900  1
  H  H11  1  0.53792100  0.21424900  0.36668100  1
  H  H12  1  0.03792100  0.21424900  0.13331900  1
  H  H13  1  0.53792100  0.28575100  0.86668100  1
  H  H14  1  0.96207900  0.71424900  0.36668100  1
  H  H15  1  0.46207900  0.78575100  0.63331900  1
  H  H16  1  0.70241600  0.48866100  0.95034100  1
  H  H17  1  0.20241600  0.01133900  0.04965900  1
  H  H18  1  0.29758400  0.98866100  0.54965900  1
  H  H19  1  0.79758400  0.51133900  0.45034100  1
  H  H20  1  0.29758400  0.51133900  0.04965900  1
  H  H21  1  0.79758400  0.98866100  0.95034100  1
  H  H22  1  0.70241600  0.01133900  0.45034100  1
  H  H23  1  0.20241600  0.48866100  0.54965900  1
  H  H24  1  0.72972200  0.89467300  0.28706100  1
  H  H25  1  0.22972200  0.60532700  0.71293900  1
  H  H26  1  0.27027800  0.39467300  0.21293900  1
  H  H27  1  0.77027800  0.10532700  0.78706100  1
  H  H28  1  0.27027800  0.10532700  0.71293900  1
  H  H29  1  0.77027800  0.39467300  0.28706100  1
  H  H30  1  0.72972200  0.60532700  0.78706100  1
  H  H31  1  0.22972200  0.89467300  0.21293900  1
  H  H32  1  0.51847000  0.19499800  0.19812100  1
  H  H33  1  0.01847000  0.30500200  0.80187900  1
  H  H34  1  0.48153000  0.69499800  0.30187900  1
  H  H35  1  0.98153000  0.80500200  0.69812100  1
  H  H36  1  0.48153000  0.80500200  0.80187900  1
  H  H37  1  0.98153000  0.69499800  0.19812100  1
  H  H38  1  0.51847000  0.30500200  0.69812100  1
  H  H39  1  0.01847000  0.19499800  0.30187900  1
  O  O0  1  0.88692700  0.65434400  0.03617900  1
  O  O1  1  0.38692700  0.84565600  0.96382100  1
  O  O2  1  0.11307300  0.15434400  0.46382100  1
  O  O3  1  0.61307300  0.34565600  0.53617900  1
  O  O4  1  0.11307300  0.34565600  0.96382100  1
  O  O5  1  0.61307300  0.15434400  0.03617900  1
  O  O6  1  0.88692700  0.84565600  0.53617900  1
  O  O7  1  0.38692700  0.65434400  0.46382100  1
  O  O8  1  0.97243400  0.70111800  0.90834200  1
  O  O9  1  0.47243400  0.79888200  0.09165800  1
  O  O10  1  0.02756600  0.20111800  0.59165800  1
  O  O11  1  0.52756600  0.29888200  0.40834200  1
  O  O12  1  0.02756600  0.29888200  0.09165800  1
  O  O13  1  0.52756600  0.20111800  0.90834200  1
  O  O14  1  0.97243400  0.79888200  0.40834200  1
  O  O15  1  0.47243400  0.70111800  0.59165800  1
  O  O16  1  0.65497200  0.58435100  0.94412700  1
  O  O17  1  0.15497200  0.91564900  0.05587300  1
  O  O18  1  0.34502800  0.08435100  0.55587300  1
  O  O19  1  0.84502800  0.41564900  0.44412700  1
  O  O20  1  0.34502800  0.41564900  0.05587300  1
  O  O21  1  0.84502800  0.08435100  0.94412700  1
  O  O22  1  0.65497200  0.91564900  0.44412700  1
  O  O23  1  0.15497200  0.58435100  0.55587300  1
  O  O24  1  0.71086000  0.85380500  0.96603200  1
  O  O25  1  0.21086000  0.64619500  0.03396800  1
  O  O26  1  0.28914000  0.35380500  0.53396800  1
  O  O27  1  0.78914000  0.14619500  0.46603200  1
  O  O28  1  0.28914000  0.14619500  0.03396800  1
  O  O29  1  0.78914000  0.35380500  0.96603200  1
  O  O30  1  0.71086000  0.64619500  0.46603200  1
  O  O31  1  0.21086000  0.85380500  0.53396800  1
  O  O32  1  0.79871400  0.97407900  0.27067600  1
  O  O33  1  0.29871400  0.52592100  0.72932400  1
  O  O34  1  0.20128600  0.47407900  0.22932400  1
  O  O35  1  0.70128600  0.02592100  0.77067600  1
  O  O36  1  0.20128600  0.02592100  0.72932400  1
  O  O37  1  0.70128600  0.47407900  0.27067600  1
  O  O38  1  0.79871400  0.52592100  0.77067600  1
  O  O39  1  0.29871400  0.97407900  0.22932400  1
  O  O40  1  0.53178900  0.12437600  0.32637500  1
  O  O41  1  0.03178900  0.37562400  0.67362500  1
  O  O42  1  0.46821100  0.62437600  0.17362500  1
  O  O43  1  0.96821100  0.87562400  0.82637500  1
  O  O44  1  0.46821100  0.87562400  0.67362500  1
  O  O45  1  0.96821100  0.62437600  0.32637500  1
  O  O46  1  0.53178900  0.37562400  0.82637500  1
  O  O47  1  0.03178900  0.12437600  0.17362500  1
  O  O48  1  0.84096600  0.24693100  0.30410200  1
  O  O49  1  0.34096600  0.25306900  0.69589800  1
  O  O50  1  0.15903400  0.74693100  0.19589800  1
  O  O51  1  0.65903400  0.75306900  0.80410200  1
  O  O52  1  0.15903400  0.75306900  0.69589800  1
  O  O53  1  0.65903400  0.74693100  0.30410200  1
  O  O54  1  0.84096600  0.25306900  0.80410200  1
  O  O55  1  0.34096600  0.24693100  0.19589800  1
  O  O56  1  0.64201900  0.16737100  0.19835500  1
  O  O57  1  0.14201900  0.33262900  0.80164500  1
  O  O58  1  0.35798100  0.66737100  0.30164500  1
  O  O59  1  0.85798100  0.83262900  0.69835500  1
  O  O60  1  0.35798100  0.83262900  0.80164500  1
  O  O61  1  0.85798100  0.66737100  0.19835500  1
  O  O62  1  0.64201900  0.33262900  0.69835500  1
  O  O63  1  0.14201900  0.16737100  0.30164500  1
loop_
_geom_bond_atom_site_label_1
_geom_bond_atom_site_label_2
_geom_bond_distance
_geom_bond_site_symmetry_2
As0 O24 1.696660 1_555
As0 O8 1.708255 1_555
As0 O16 1.751839 1_555
As0 O0 1.762436 1_556
As1 O25 1.696660 1_555
As1 O9 1.708255 1_555
As1 O17 1.751839 1_555
As1 O1 1.762436 1_554
As2 O26 1.696660 1_555
As2 O10 1.708255 1_555
As2 O18 1.751839 1_555
As2 O2 1.762436 1_555
As3 O27 1.696660 1_555
As3 O11 1.708255 1_555
As3 O19 1.751839 1_555
As3 O3 1.762436 1_555
As4 O28 1.696660 1_555
As4 O12 1.708255 1_555
As4 O20 1.751839 1_555
As4 O4 1.762436 1_554
As5 O29 1.696660 1_555
As5 O13 1.708255 1_555
As5 O21 1.751839 1_555
As5 O5 1.762436 1_556
As6 O30 1.696660 1_555
As6 O14 1.708255 1_555
As6 O22 1.751839 1_555
As6 O6 1.762436 1_555
As7 O31 1.696660 1_555
As7 O15 1.708255 1_555
As7 O23 1.751839 1_555
As7 O7 1.762436 1_555
As8 O48 1.699455 1_555
As8 O40 1.711761 1_555
As8 O32 1.745598 1_545
As8 O56 1.759621 1_555
As9 O49 1.699455 1_555
As9 O41 1.711761 1_555
As9 O33 1.745598 1_555
As9 O57 1.759621 1_555
As10 O50 1.699455 1_555
As10 O42 1.711761 1_555
As10 O34 1.745598 1_555
As10 O58 1.759621 1_555
As11 O51 1.699455 1_555
As11 O43 1.711761 1_555
As11 O35 1.745598 1_565
As11 O59 1.759621 1_555
As12 O52 1.699455 1_555
As12 O44 1.711761 1_555
As12 O36 1.745598 1_565
As12 O60 1.759621 1_555
As13 O53 1.699455 1_555
As13 O45 1.711761 1_555
As13 O37 1.745598 1_555
As13 O61 1.759621 1_555
As14 O54 1.699455 1_555
As14 O46 1.711761 1_555
As14 O38 1.745598 1_555
As14 O62 1.759621 1_555
As15 O55 1.699455 1_555
As15 O47 1.711761 1_555
As15 O39 1.745598 1_545
As15 O63 1.759621 1_555
H0 O0 1.027630 1_455
H0 O25 1.596033 1_555
H1 O1 1.027630 1_555
H1 O24 1.596033 1_555
H2 O2 1.027630 1_655
H2 O27 1.596033 1_555
H3 O3 1.027630 1_555
H3 O26 1.596033 1_555
H4 O4 1.027630 1_655
H4 O29 1.596033 1_555
H5 O5 1.027630 1_555
H5 O28 1.596033 1_555
H6 O6 1.027630 1_455
H6 O31 1.596033 1_555
H7 O7 1.027630 1_555
H7 O30 1.596033 1_555
H8 O8 1.209343 1_555
H8 O43 1.224444 1_555
H9 O9 1.209343 1_555
H9 O42 1.224444 1_555
H10 O10 1.209343 1_555
H10 O41 1.224444 1_555
H11 O11 1.209343 1_555
H11 O40 1.224444 1_555
H12 O12 1.209343 1_555
H12 O47 1.224444 1_555
H13 O13 1.209343 1_555
H13 O46 1.224444 1_555
H14 O14 1.209343 1_555
H14 O45 1.224444 1_555
H15 O15 1.209343 1_555
H15 O44 1.224444 1_555
H16 O16 1.030082 1_555
H16 O29 1.543018 1_555
H17 O17 1.030082 1_545
H17 O28 1.543018 1_555
H18 O18 1.030082 1_565
H18 O31 1.543018 1_555
H19 O19 1.030082 1_555
H19 O30 1.543018 1_555
H20 O20 1.030082 1_555
H20 O25 1.543018 1_555
H21 O21 1.030082 1_565
H21 O24 1.543018 1_555
H22 O22 1.030082 1_545
H22 O27 1.543018 1_555
H23 O23 1.030082 1_555
H23 O26 1.543018 1_555
H24 O32 1.022756 1_555
H24 O53 1.609779 1_555
H25 O33 1.022756 1_555
H25 O52 1.609779 1_555
H26 O34 1.022756 1_555
H26 O55 1.609779 1_555
H27 O35 1.022756 1_555
H27 O54 1.609779 1_555
H28 O36 1.022756 1_555
H28 O49 1.609779 1_555
H29 O37 1.022756 1_555
H29 O48 1.609779 1_555
H30 O38 1.022756 1_555
H30 O51 1.609779 1_555
H31 O39 1.022756 1_555
H31 O50 1.609779 1_555
H32 O56 1.036740 1_555
H32 O55 1.526611 1_555
H33 O57 1.036740 1_555
H33 O54 1.526611 1_455
H34 O58 1.036740 1_555
H34 O53 1.526611 1_555
H35 O59 1.036740 1_555
H35 O52 1.526611 1_655
H36 O60 1.036740 1_555
H36 O51 1.526611 1_555
H37 O61 1.036740 1_555
H37 O50 1.526611 1_655
H38 O62 1.036740 1_555
H38 O49 1.526611 1_555
H39 O63 1.036740 1_555
H39 O48 1.526611 1_455
O0 Rb5 3.158756 1_555
O0 Rb0 3.307085 1_555
O1 Rb4 3.158756 1_565
O1 Rb1 3.307085 1_555
O2 Rb7 3.158756 1_545
O2 Rb2 3.307085 1_555
O3 Rb6 3.158756 1_555
O3 Rb3 3.307085 1_555
O4 Rb1 3.158756 1_555
O4 Rb4 3.307085 1_555
O5 Rb0 3.158756 1_545
O5 Rb5 3.307085 1_555
O6 Rb3 3.158756 1_565
O6 Rb6 3.307085 1_555
O7 Rb2 3.158756 1_555
O7 Rb7 3.307085 1_555
O8 Rb1 2.987864 1_655
O9 Rb0 2.987864 1_555
O10 Rb3 2.987864 1_455
O11 Rb2 2.987864 1_555
O12 Rb5 2.987864 1_455
O13 Rb4 2.987864 1_555
O14 Rb7 2.987864 1_655
O15 Rb6 2.987864 1_555
O16 Rb1 3.173646 1_555
O17 Rb0 3.173646 1_455
O18 Rb3 3.173646 1_555
O19 Rb2 3.173646 1_655
O20 Rb5 3.173646 1_555
O21 Rb4 3.173646 1_655
O22 Rb7 3.173646 1_555
O23 Rb6 3.173646 1_455
O24 Rb0 3.328094 1_556
O25 Rb1 3.328094 1_554
O26 Rb2 3.328094 1_555
O27 Rb3 3.328094 1_555
O28 Rb4 3.328094 1_554
O29 Rb5 3.328094 1_556
O30 Rb6 3.328094 1_555
O31 Rb7 3.328094 1_555
O32 Rb0 3.215372 1_555
O33 Rb1 3.215372 1_555
O34 Rb2 3.215372 1_555
O35 Rb3 3.215372 1_555
O36 Rb4 3.215372 1_555
O37 Rb5 3.215372 1_555
O38 Rb6 3.215372 1_555
O39 Rb7 3.215372 1_555
O40 Rb7 2.933872 1_545
O41 Rb6 2.933872 1_455
O42 Rb5 2.933872 1_555
O43 Rb4 2.933872 1_665
O44 Rb3 2.933872 1_565
O45 Rb2 2.933872 1_655
O46 Rb1 2.933872 1_555
O47 Rb0 2.933872 1_445
O56 Rb0 3.138993 1_545
O56 Rb5 3.145574 1_555
O57 Rb1 3.138993 1_555
O57 Rb4 3.145574 1_555
O58 Rb2 3.138993 1_555
O58 Rb7 3.145574 1_555
O59 Rb3 3.138993 1_565
O59 Rb6 3.145574 1_555
O60 Rb4 3.138993 1_565
O60 Rb1 3.145574 1_555
O61 Rb5 3.138993 1_555
O61 Rb0 3.145574 1_555
O62 Rb6 3.138993 1_555
O62 Rb3 3.145574 1_555
O63 Rb7 3.138993 1_545
O63 Rb2 3.145574 1_555
