# generated using pymatgen
data_SnSe
_symmetry_space_group_name_H-M   'P 1'
_cell_length_a   4.70090745
_cell_length_b   4.12625095
_cell_length_c   11.66445850
_cell_angle_alpha   90.00000000
_cell_angle_beta   90.00000000
_cell_angle_gamma   90.00000000
_symmetry_Int_Tables_number   1
_chemical_formula_structural   SnSe
_chemical_formula_sum   'Sn4 Se4'
_cell_volume   226.25694595
_cell_formula_units_Z   4
loop_
 _symmetry_equiv_pos_site_id
 _symmetry_equiv_pos_as_xyz
  1  'x, y, z'
loop_
 _atom_site_type_symbol
 _atom_site_label
 _atom_site_symmetry_multiplicity
 _atom_site_fract_x
 _atom_site_fract_y
 _atom_site_fract_z
 _atom_site_occupancy
  Sn  Sn0  1  0.62344570  0.25000000  0.38121315  1
  Sn  Sn1  1  0.12344570  0.75000000  0.11878685  1
  Sn  Sn2  1  0.37655430  0.75000000  0.61878685  1
  Sn  Sn3  1  0.87655430  0.25000000  0.88121315  1
  Se  Se0  1  0.49081820  0.75000000  0.85144697  1
  Se  Se1  1  0.00918180  0.75000000  0.35144697  1
  Se  Se2  1  -0.00918180  0.25000000  0.64855303  1
  Se  Se3  1  0.50918180  0.25000000  0.14855303  1
loop_
_geom_bond_atom_site_label_1
_geom_bond_atom_site_label_2
_geom_bond_distance
_geom_bond_site_symmetry_2
Se0 Sn2 2.766501 1_555
Se0 Sn3 2.768597 1_565
Se0 Sn3 2.768597 1_555
Se1 Sn1 2.766501 1_555
Se1 Sn0 2.768597 1_455
Se1 Sn0 2.768597 1_465
Se2 Sn3 2.766501 1_455
Se2 Sn2 2.768597 1_555
Se2 Sn2 2.768597 1_545
Se3 Sn0 2.766501 1_555
Se3 Sn1 2.768597 1_545
Se3 Sn1 2.768597 1_555
