# generated using pymatgen
data_RbC2N3
_symmetry_space_group_name_H-M   'P 1'
_cell_length_a   6.67474500
_cell_length_b   7.70894500
_cell_length_c   8.71726300
_cell_angle_alpha   90.00000000
_cell_angle_beta   90.00000000
_cell_angle_gamma   90.00000000
_symmetry_Int_Tables_number   1
_chemical_formula_structural   RbC2N3
_chemical_formula_sum   'Rb4 C8 N12'
_cell_volume   448.54887806
_cell_formula_units_Z   4
loop_
 _symmetry_equiv_pos_site_id
 _symmetry_equiv_pos_as_xyz
  1  'x, y, z'
loop_
 _atom_site_type_symbol
 _atom_site_label
 _atom_site_symmetry_multiplicity
 _atom_site_fract_x
 _atom_site_fract_y
 _atom_site_fract_z
 _atom_site_occupancy
  Rb  Rb0  1  0.75000000  0.00000000  0.18650300  1
  Rb  Rb1  1  0.25000000  0.00000000  0.81349700  1
  Rb  Rb2  1  0.25000000  0.50000000  0.81349700  1
  Rb  Rb3  1  0.75000000  0.50000000  0.18650300  1
  C  C0  1  0.85322000  0.25000000  0.57217900  1
  C  C1  1  0.26594500  0.75000000  0.17947600  1
  C  C2  1  0.73405500  0.25000000  0.82052400  1
  C  C3  1  0.23405500  0.25000000  0.17947600  1
  C  C4  1  0.35322000  0.25000000  0.42782100  1
  C  C5  1  0.76594500  0.75000000  0.82052400  1
  C  C6  1  0.14678000  0.75000000  0.42782100  1
  C  C7  1  0.64678000  0.75000000  0.57217900  1
  N  N0  1  0.85103600  0.25000000  0.43699600  1
  N  N1  1  0.87855500  0.25000000  0.72102900  1
  N  N2  1  0.12144500  0.75000000  0.27897100  1
  N  N3  1  0.14896400  0.75000000  0.56300400  1
  N  N4  1  0.37855500  0.25000000  0.27897100  1
  N  N5  1  0.61369300  0.25000000  0.92094500  1
  N  N6  1  0.64896400  0.75000000  0.43699600  1
  N  N7  1  0.88630700  0.75000000  0.92094500  1
  N  N8  1  0.62144500  0.75000000  0.72102900  1
  N  N9  1  0.35103600  0.25000000  0.56300400  1
  N  N10  1  0.38630700  0.75000000  0.07905500  1
  N  N11  1  0.11369300  0.25000000  0.07905500  1
loop_
_geom_bond_atom_site_label_1
_geom_bond_atom_site_label_2
_geom_bond_distance
_geom_bond_site_symmetry_2
C0 N0 1.178516 1_555
C0 N1 1.308537 1_555
C1 N10 1.188170 1_555
C1 N2 1.297117 1_555
C2 N5 1.188170 1_555
C2 N1 1.297117 1_555
C3 N11 1.188170 1_555
C3 N4 1.297117 1_555
C4 N9 1.178516 1_555
C4 N4 1.308537 1_555
C5 N7 1.188170 1_555
C5 N8 1.297117 1_555
C6 N3 1.178516 1_555
C6 N2 1.308537 1_555
C7 N6 1.178516 1_555
C7 N8 1.308537 1_555
N0 Rb3 2.989516 1_555
N0 Rb0 2.989516 1_555
N1 Rb1 3.242054 1_655
N1 Rb2 3.242054 1_655
N2 Rb0 3.242054 1_465
N2 Rb3 3.242054 1_455
N3 Rb1 2.989516 1_565
N3 Rb2 2.989516 1_555
N4 Rb3 3.242054 1_555
N4 Rb0 3.242054 1_555
N5 Rb3 3.146577 1_556
N5 Rb0 3.146577 1_556
N5 Rb1 3.237992 1_555
N5 Rb2 3.237992 1_555
N6 Rb0 2.989516 1_565
N6 Rb3 2.989516 1_555
N7 Rb3 3.146577 1_556
N7 Rb0 3.146577 1_566
N7 Rb2 3.237992 1_655
N7 Rb1 3.237992 1_665
N8 Rb1 3.242054 1_565
N8 Rb2 3.242054 1_555
N9 Rb2 2.989516 1_555
N9 Rb1 2.989516 1_555
N10 Rb1 3.146577 1_564
N10 Rb2 3.146577 1_554
N10 Rb3 3.237992 1_555
N10 Rb0 3.237992 1_565
N11 Rb1 3.146577 1_554
N11 Rb2 3.146577 1_554
N11 Rb3 3.237992 1_455
N11 Rb0 3.237992 1_455
