# generated using pymatgen
data_Nb15IrS32
_symmetry_space_group_name_H-M   'P 1'
_cell_length_a   8.99552700
_cell_length_b   9.01565785
_cell_length_c   13.64205957
_cell_angle_alpha   106.25482035
_cell_angle_beta   106.36171772
_cell_angle_gamma   98.51252986
_symmetry_Int_Tables_number   1
_chemical_formula_structural   Nb15IrS32
_chemical_formula_sum   'Nb15 Ir1 S32'
_cell_volume   987.74311451
_cell_formula_units_Z   1
loop_
 _symmetry_equiv_pos_site_id
 _symmetry_equiv_pos_as_xyz
  1  'x, y, z'
loop_
 _atom_site_type_symbol
 _atom_site_label
 _atom_site_symmetry_multiplicity
 _atom_site_fract_x
 _atom_site_fract_y
 _atom_site_fract_z
 _atom_site_occupancy
  Nb  Nb0  1  0.01353100  0.02256600  0.00194200  1
  Nb  Nb1  1  0.73210300  0.25192400  0.99862600  1
  Nb  Nb2  1  0.00191500  0.47388200  0.50261300  1
  Nb  Nb3  1  0.37419100  0.13376200  0.99882700  1
  Nb  Nb4  1  0.72464000  0.75467600  0.49974700  1
  Nb  Nb5  1  0.49931500  0.49052700  0.00002600  1
  Nb  Nb6  1  0.14052400  0.37065600  0.00028000  1
  Nb  Nb7  1  0.24477800  0.72231100  0.99847900  1
  Nb  Nb8  1  0.49984100  0.03003200  0.49864200  1
  Nb  Nb9  1  0.86114300  0.60127800  0.99744200  1
  Nb  Nb10  1  0.11283900  0.86696900  0.50277400  1
  Nb  Nb11  1  0.25145600  0.25075000  0.49858600  1
  Nb  Nb12  1  0.88438500  0.11310500  0.49993200  1
  Nb  Nb13  1  0.62731600  0.89919700  0.00071800  1
  Nb  Nb14  1  0.61199000  0.39538800  0.49924200  1
  Ir  Ir0  1  0.39797700  0.61223400  0.50032800  1
  S  S0  1  0.64398700  0.15239200  0.13135400  1
  S  S1  1  0.73430300  0.48561200  0.38003700  1
  S  S2  1  0.39973400  0.39787700  0.13208600  1
  S  S3  1  0.65123000  0.65302300  0.63577200  1
  S  S4  1  0.73105400  0.98390300  0.87409600  1
  S  S5  1  0.01764000  0.27446200  0.12426600  1
  S  S6  1  0.46753700  0.73225200  0.37616600  1
  S  S7  1  0.12739000  0.60548000  0.38876400  1
  S  S8  1  0.14231500  0.63920300  0.12584900  1
  S  S9  1  0.39452800  0.87597500  0.60805500  1
  S  S10  1  0.22496400  0.98070200  0.37491500  1
  S  S11  1  0.47344100  0.22557900  0.86646400  1
  S  S12  1  0.76816900  0.52162700  0.13163200  1
  S  S13  1  0.01272000  0.76435800  0.62086900  1
  S  S14  1  0.89155000  0.89152500  0.11542400  1
  S  S15  1  0.10491500  0.10148600  0.86698100  1
  S  S16  1  0.15423900  0.14156800  0.62597000  1
  S  S17  1  0.84892600  0.84469400  0.37273400  1
  S  S18  1  0.51925600  0.76905900  0.12100500  1
  S  S19  1  0.97434500  0.22173200  0.36964400  1
  S  S20  1  0.22862300  0.47035600  0.86709200  1
  S  S21  1  0.76659300  0.02619200  0.62610700  1
  S  S22  1  0.89552200  0.39126900  0.62502200  1
  S  S23  1  0.60774500  0.11238500  0.37647600  1
  S  S24  1  0.85486400  0.34845600  0.87472000  1
  S  S25  1  0.98198400  0.73183000  0.88380300  1
  S  S26  1  0.26870300  0.01456300  0.12051300  1
  S  S27  1  0.52456000  0.28121900  0.63088500  1
  S  S28  1  0.35163700  0.35325500  0.36794100  1
  S  S29  1  0.60542100  0.60916200  0.87940300  1
  S  S30  1  0.27895900  0.52556300  0.62303300  1
  S  S31  1  0.35348000  0.85423000  0.87899700  1
loop_
_geom_bond_atom_site_label_1
_geom_bond_atom_site_label_2
_geom_bond_distance
_geom_bond_site_symmetry_2
Nb0 S5 2.400499 1_555
Nb0 S26 2.431680 1_555
Nb0 S15 2.446375 1_554
Nb0 S4 2.553574 1_444
Nb0 S14 2.567815 1_445
Nb0 S25 2.589541 1_444
Nb1 S11 2.440123 1_555
Nb1 S0 2.493940 1_556
Nb1 S12 2.504973 1_556
Nb1 S4 2.532036 1_545
Nb1 S24 2.534721 1_555
Nb1 S5 2.597437 1_656
Nb2 S22 2.375919 1_455
Nb2 S19 2.406446 1_455
Nb2 S30 2.459225 1_555
Nb2 S1 2.551266 1_455
Nb2 S7 2.591652 1_555
Nb2 S13 2.634667 1_555
Nb3 S2 2.491379 1_556
Nb3 S15 2.496184 1_555
Nb3 S11 2.503833 1_555
Nb3 S26 2.528913 1_556
Nb3 S0 2.534604 1_556
Nb3 S31 2.537981 1_545
Nb4 S6 2.388739 1_555
Nb4 S21 2.470597 1_565
Nb4 S3 2.486515 1_555
Nb4 S1 2.546302 1_555
Nb4 S17 2.553618 1_555
Nb4 S13 2.625497 1_655
Nb5 S12 2.494424 1_555
Nb5 S11 2.497966 1_554
Nb5 S2 2.505187 1_555
Nb5 S29 2.516109 1_554
Nb5 S18 2.538032 1_555
Nb5 S20 2.539193 1_554
Nb6 S2 2.439623 1_555
Nb6 S20 2.500401 1_554
Nb6 S15 2.503949 1_554
Nb6 S5 2.534905 1_555
Nb6 S8 2.539221 1_555
Nb6 S24 2.598693 1_454
Nb7 S8 2.420099 1_556
Nb7 S20 2.422787 1_555
Nb7 S18 2.457689 1_556
Nb7 S25 2.468756 1_455
Nb7 S31 2.581947 1_555
Nb7 S26 2.633417 1_566
Nb8 S23 2.379439 1_555
Nb8 S27 2.402154 1_555
Nb8 S10 2.462443 1_545
Nb8 S21 2.547614 1_555
Nb8 S9 2.573362 1_545
Nb8 S6 2.658564 1_545
Nb9 S24 2.402883 1_555
Nb9 S29 2.432126 1_555
Nb9 S12 2.446850 1_556
Nb9 S8 2.548574 1_656
Nb9 S25 2.561733 1_555
Nb9 S14 2.587487 1_556
Nb10 S13 2.380676 1_555
Nb10 S17 2.471864 1_455
Nb10 S16 2.477388 1_565
Nb10 S7 2.479384 1_555
Nb10 S9 2.512696 1_555
Nb10 S10 2.607187 1_555
Nb11 S10 2.476483 1_545
Nb11 S30 2.511805 1_555
Nb11 S16 2.512485 1_555
Nb11 S27 2.528415 1_555
Nb11 S28 2.534377 1_555
Nb11 S19 2.540743 1_455
Nb12 S17 2.465285 1_545
Nb12 S16 2.476273 1_655
Nb12 S21 2.497280 1_555
Nb12 S19 2.514621 1_555
Nb12 S22 2.577762 1_555
Nb12 S23 2.580134 1_555
Nb13 S4 2.423547 1_554
Nb13 S0 2.424870 1_565
Nb13 S31 2.452042 1_554
Nb13 S14 2.473246 1_555
Nb13 S18 2.579361 1_555
Nb13 S29 2.618488 1_554
Nb14 S28 2.414538 1_555
Nb14 S3 2.440042 1_555
Nb14 S1 2.449577 1_555
Nb14 S27 2.548362 1_555
Nb14 S23 2.619013 1_555
Nb14 S22 2.654970 1_555
Ir0 S3 2.395685 1_555
Ir0 S28 2.411253 1_555
Ir0 S6 2.419528 1_555
Ir0 S9 2.430212 1_555
Ir0 S30 2.460331 1_555
Ir0 S7 2.462087 1_555
