# generated using pymatgen
data_In2Bi4Pb4S13
_symmetry_space_group_name_H-M   'P 1'
_cell_length_a   4.04223500
_cell_length_b   21.79531900
_cell_length_c   27.05732200
_cell_angle_alpha   90.00000000
_cell_angle_beta   90.00000000
_cell_angle_gamma   90.00000000
_symmetry_Int_Tables_number   1
_chemical_formula_structural   In2Bi4Pb4S13
_chemical_formula_sum   'In8 Bi16 Pb16 S52'
_cell_volume   2383.79880650
_cell_formula_units_Z   4
loop_
 _symmetry_equiv_pos_site_id
 _symmetry_equiv_pos_as_xyz
  1  'x, y, z'
loop_
 _atom_site_type_symbol
 _atom_site_label
 _atom_site_symmetry_multiplicity
 _atom_site_fract_x
 _atom_site_fract_y
 _atom_site_fract_z
 _atom_site_occupancy
  In  In0  1  0.00000000  0.22525400  0.16259800  1
  In  In1  1  0.00000000  0.72525400  0.33740200  1
  In  In2  1  0.00000000  0.77474600  0.83740200  1
  In  In3  1  0.00000000  0.00000000  0.00000000  1
  In  In4  1  0.00000000  0.50000000  0.50000000  1
  In  In5  1  0.00000000  0.50000000  0.00000000  1
  In  In6  1  0.00000000  0.00000000  0.50000000  1
  In  In7  1  0.00000000  0.27474600  0.66259800  1
  Bi  Bi0  1  0.50000000  0.88321700  0.41518500  1
  Bi  Bi1  1  0.50000000  0.84576800  0.97539500  1
  Bi  Bi2  1  0.00000000  0.35894400  0.39085000  1
  Bi  Bi3  1  0.50000000  0.11678300  0.58481500  1
  Bi  Bi4  1  0.50000000  0.34576800  0.52460500  1
  Bi  Bi5  1  0.50000000  0.61678300  0.91518500  1
  Bi  Bi6  1  0.50000000  0.38321700  0.08481500  1
  Bi  Bi7  1  0.00000000  0.47692400  0.84438500  1
  Bi  Bi8  1  0.50000000  0.65423200  0.47539500  1
  Bi  Bi9  1  0.00000000  0.52307600  0.15561500  1
  Bi  Bi10  1  0.50000000  0.15423200  0.02460500  1
  Bi  Bi11  1  0.00000000  0.14105600  0.89085000  1
  Bi  Bi12  1  0.00000000  0.02307600  0.34438500  1
  Bi  Bi13  1  0.00000000  0.97692400  0.65561500  1
  Bi  Bi14  1  0.00000000  0.85894400  0.10915000  1
  Bi  Bi15  1  0.00000000  0.64105600  0.60915000  1
  Pb  Pb0  1  0.50000000  0.53624200  0.34011600  1
  Pb  Pb1  1  0.50000000  0.03624200  0.15988400  1
  Pb  Pb2  1  0.50000000  0.46375800  0.65988400  1
  Pb  Pb3  1  0.50000000  0.96375800  0.84011600  1
  Pb  Pb4  1  0.50000000  0.82722900  0.72148500  1
  Pb  Pb5  1  0.50000000  0.31604300  0.93102200  1
  Pb  Pb6  1  0.50000000  0.87478900  0.24958300  1
  Pb  Pb7  1  0.50000000  0.18395700  0.43102200  1
  Pb  Pb8  1  0.50000000  0.62521100  0.74958300  1
  Pb  Pb9  1  0.50000000  0.32722900  0.77851500  1
  Pb  Pb10  1  0.50000000  0.68395700  0.06897800  1
  Pb  Pb11  1  0.50000000  0.37478900  0.25041700  1
  Pb  Pb12  1  0.50000000  0.81604300  0.56897800  1
  Pb  Pb13  1  0.50000000  0.67277100  0.22148500  1
  Pb  Pb14  1  0.50000000  0.17277100  0.27851500  1
  Pb  Pb15  1  0.50000000  0.12521100  0.75041700  1
  S  S0  1  0.50000000  0.06357700  0.95299000  1
  S  S1  1  0.50000000  0.56357700  0.54701000  1
  S  S2  1  0.00000000  0.08042300  0.06972400  1
  S  S3  1  0.00000000  0.58042300  0.43027600  1
  S  S4  1  0.00000000  0.06050100  0.81326100  1
  S  S5  1  0.50000000  0.47380300  0.77878600  1
  S  S6  1  0.00000000  0.43949900  0.31326100  1
  S  S7  1  0.00000000  0.87935400  0.79905700  1
  S  S8  1  0.50000000  0.97380300  0.72121400  1
  S  S9  1  0.00000000  0.89293300  0.34370400  1
  S  S10  1  0.00000000  0.77749400  0.02371000  1
  S  S11  1  0.50000000  0.20749300  0.85273300  1
  S  S12  1  0.50000000  0.75498600  0.89190900  1
  S  S13  1  0.50000000  0.52619700  0.22121400  1
  S  S14  1  0.00000000  0.12064600  0.20094300  1
  S  S15  1  0.00000000  0.61665800  0.99136600  1
  S  S16  1  0.00000000  0.88334200  0.49136600  1
  S  S17  1  0.00000000  0.11665800  0.50863400  1
  S  S18  1  0.00000000  0.85032500  0.64095100  1
  S  S19  1  0.00000000  0.27749400  0.47629000  1
  S  S20  1  0.00000000  0.72686000  0.75440400  1
  S  S21  1  0.50000000  0.93642300  0.04701000  1
  S  S22  1  0.00000000  0.22250600  0.97629000  1
  S  S23  1  0.50000000  0.49294000  0.93030300  1
  S  S24  1  0.00000000  0.60706700  0.84370400  1
  S  S25  1  0.00000000  0.56050100  0.68673900  1
  S  S26  1  0.50000000  0.00706000  0.43030300  1
  S  S27  1  0.00000000  0.62064600  0.29905700  1
  S  S28  1  0.00000000  0.39293300  0.15629600  1
  S  S29  1  0.00000000  0.93949900  0.18673900  1
  S  S30  1  0.00000000  0.27314000  0.24559600  1
  S  S31  1  0.00000000  0.72250600  0.52371000  1
  S  S32  1  0.00000000  0.22686000  0.74559600  1
  S  S33  1  0.50000000  0.25498600  0.60809100  1
  S  S34  1  0.00000000  0.10706700  0.65629600  1
  S  S35  1  0.50000000  0.50706000  0.06969700  1
  S  S36  1  0.00000000  0.91957700  0.93027600  1
  S  S37  1  0.50000000  0.74501400  0.39190900  1
  S  S38  1  0.50000000  0.79250700  0.14726700  1
  S  S39  1  0.50000000  0.24501400  0.10809100  1
  S  S40  1  0.50000000  0.70749300  0.64726700  1
  S  S41  1  0.50000000  0.99294000  0.56969700  1
  S  S42  1  0.50000000  0.43642300  0.45299000  1
  S  S43  1  0.00000000  0.64967500  0.14095100  1
  S  S44  1  0.00000000  0.37935400  0.70094300  1
  S  S45  1  0.00000000  0.38334200  0.00863400  1
  S  S46  1  0.00000000  0.14967500  0.35904900  1
  S  S47  1  0.00000000  0.41957700  0.56972400  1
  S  S48  1  0.50000000  0.02619700  0.27878600  1
  S  S49  1  0.00000000  0.77314000  0.25440400  1
  S  S50  1  0.00000000  0.35032500  0.85904900  1
  S  S51  1  0.50000000  0.29250700  0.35273300  1
loop_
_geom_bond_atom_site_label_1
_geom_bond_atom_site_label_2
_geom_bond_distance
_geom_bond_site_symmetry_2
In0 S30 2.476383 1_555
In0 S14 2.504930 1_555
In0 S39 2.538793 1_555
In0 S39 2.538793 1_455
In1 S49 2.476383 1_555
In1 S27 2.504930 1_555
In1 S37 2.538793 1_455
In1 S37 2.538793 1_555
In2 S20 2.476383 1_555
In2 S7 2.504930 1_555
In2 S12 2.538793 1_555
In2 S12 2.538793 1_455
In3 S2 2.575173 1_555
In3 S36 2.575173 1_544
In3 S21 2.760964 1_445
In3 S0 2.760964 1_554
In3 S21 2.760964 1_545
In3 S0 2.760964 1_454
In4 S47 2.575173 1_555
In4 S3 2.575173 1_555
In4 S1 2.760964 1_555
In4 S42 2.760964 1_555
In4 S42 2.760964 1_455
In4 S1 2.760964 1_455
In5 S45 2.553308 1_555
In5 S15 2.553308 1_554
In5 S35 2.768554 1_455
In5 S35 2.768554 1_555
In5 S23 2.768554 1_554
In5 S23 2.768554 1_454
In6 S17 2.553308 1_555
In6 S16 2.553308 1_545
In6 S41 2.768554 1_445
In6 S41 2.768554 1_545
In6 S26 2.768554 1_455
In6 S26 2.768554 1_555
In7 S32 2.476383 1_555
In7 S44 2.504930 1_555
In7 S33 2.538793 1_455
In7 S33 2.538793 1_555
Bi0 S26 2.730017 1_565
Bi0 S9 2.805431 1_555
Bi0 S9 2.805431 1_655
Bi0 S16 2.886813 1_655
Bi0 S16 2.886813 1_555
Bi0 S37 3.077312 1_555
Bi1 S21 2.767440 1_556
Bi1 S10 2.829874 1_556
Bi1 S10 2.829874 1_656
Bi1 S36 2.857123 1_655
Bi1 S36 2.857123 1_555
Bi1 S12 3.002934 1_555
Bi2 S51 2.691716 1_455
Bi2 S51 2.691716 1_555
Bi2 S6 2.736756 1_555
Bi2 S19 2.914747 1_555
Bi2 S42 3.124654 1_555
Bi2 S42 3.124654 1_455
Bi3 S41 2.730017 1_545
Bi3 S34 2.805431 1_555
Bi3 S34 2.805431 1_655
Bi3 S17 2.886813 1_655
Bi3 S17 2.886813 1_555
Bi3 S33 3.077312 1_555
Bi4 S42 2.767440 1_555
Bi4 S19 2.829874 1_655
Bi4 S19 2.829874 1_555
Bi4 S47 2.857123 1_555
Bi4 S47 2.857123 1_655
Bi4 S33 3.002934 1_555
Bi5 S23 2.730017 1_555
Bi5 S24 2.805431 1_655
Bi5 S24 2.805431 1_555
Bi5 S15 2.886813 1_655
Bi5 S15 2.886813 1_555
Bi5 S12 3.077312 1_555
Bi6 S35 2.730017 1_555
Bi6 S28 2.805431 1_655
Bi6 S28 2.805431 1_555
Bi6 S45 2.886813 1_555
Bi6 S45 2.886813 1_655
Bi6 S39 3.077312 1_555
Bi7 S5 2.690712 1_455
Bi7 S5 2.690712 1_555
Bi7 S50 2.787646 1_555
Bi7 S24 2.836568 1_555
Bi7 S23 3.100169 1_555
Bi7 S23 3.100169 1_455
Bi8 S1 2.767440 1_555
Bi8 S31 2.829874 1_655
Bi8 S31 2.829874 1_555
Bi8 S3 2.857123 1_555
Bi8 S3 2.857123 1_655
Bi8 S37 3.002934 1_555
Bi9 S13 2.690712 1_455
Bi9 S13 2.690712 1_555
Bi9 S43 2.787646 1_555
Bi9 S28 2.836568 1_555
Bi9 S35 3.100169 1_455
Bi9 S35 3.100169 1_555
Bi10 S0 2.767440 1_554
Bi10 S22 2.829874 1_654
Bi10 S22 2.829874 1_554
Bi10 S2 2.857123 1_555
Bi10 S2 2.857123 1_655
Bi10 S39 3.002934 1_555
Bi11 S11 2.691716 1_455
Bi11 S11 2.691716 1_555
Bi11 S4 2.736756 1_555
Bi11 S22 2.914747 1_555
Bi11 S0 3.124654 1_455
Bi11 S0 3.124654 1_555
Bi12 S48 2.690712 1_455
Bi12 S48 2.690712 1_555
Bi12 S46 2.787646 1_555
Bi12 S9 2.836568 1_545
Bi12 S26 3.100169 1_455
Bi12 S26 3.100169 1_555
Bi13 S8 2.690712 1_455
Bi13 S8 2.690712 1_555
Bi13 S18 2.787646 1_555
Bi13 S34 2.836568 1_565
Bi13 S41 3.100169 1_455
Bi13 S41 3.100169 1_555
Bi14 S38 2.691716 1_455
Bi14 S38 2.691716 1_555
Bi14 S29 2.736756 1_555
Bi14 S10 2.914747 1_555
Bi14 S21 3.124654 1_455
Bi14 S21 3.124654 1_555
Bi15 S40 2.691716 1_455
Bi15 S40 2.691716 1_555
Bi15 S25 2.736756 1_555
Bi15 S31 2.914747 1_555
Bi15 S1 3.124654 1_455
Bi15 S1 3.124654 1_555
Pb0 S27 2.950134 1_655
Pb0 S27 2.950134 1_555
Pb0 S6 3.009794 1_655
Pb0 S6 3.009794 1_555
Pb1 S14 2.950134 1_655
Pb1 S14 2.950134 1_555
Pb1 S29 3.009794 1_645
Pb1 S29 3.009794 1_545
Pb2 S44 2.950134 1_655
Pb2 S44 2.950134 1_555
Pb2 S25 3.009794 1_655
Pb2 S25 3.009794 1_555
Pb3 S7 2.950134 1_655
Pb3 S7 2.950134 1_555
Pb3 S4 3.009794 1_565
Pb3 S4 3.009794 1_665
Pb4 S18 3.014383 1_555
Pb4 S18 3.014383 1_655
Pb4 S20 3.108656 1_555
Pb4 S20 3.108656 1_655
Pb4 S7 3.127449 1_555
Pb4 S7 3.127449 1_655
Pb4 S8 3.194636 1_555
Pb5 S50 2.904403 1_555
Pb5 S50 2.904403 1_655
Pb5 S22 3.121105 1_555
Pb5 S22 3.121105 1_655
Pb5 S11 3.175618 1_555
Pb5 S45 3.262869 1_656
Pb5 S45 3.262869 1_556
Pb6 S29 2.994228 1_555
Pb6 S29 2.994228 1_655
Pb6 S49 3.001708 1_655
Pb6 S49 3.001708 1_555
Pb7 S46 2.904403 1_555
Pb7 S46 2.904403 1_655
Pb7 S19 3.121105 1_555
Pb7 S19 3.121105 1_655
Pb7 S51 3.175618 1_555
Pb7 S17 3.262869 1_655
Pb7 S17 3.262869 1_555
Pb8 S25 2.994228 1_655
Pb8 S25 2.994228 1_555
Pb8 S20 3.001708 1_555
Pb8 S20 3.001708 1_655
Pb9 S50 3.014383 1_555
Pb9 S50 3.014383 1_655
Pb9 S32 3.108656 1_555
Pb9 S32 3.108656 1_655
Pb9 S44 3.127449 1_555
Pb9 S44 3.127449 1_655
Pb9 S5 3.194636 1_555
Pb10 S43 2.904403 1_555
Pb10 S43 2.904403 1_655
Pb10 S10 3.121105 1_555
Pb10 S10 3.121105 1_655
Pb10 S38 3.175618 1_555
Pb10 S15 3.262869 1_654
Pb10 S15 3.262869 1_554
Pb11 S6 2.994228 1_555
Pb11 S6 2.994228 1_655
Pb11 S30 3.001708 1_555
Pb11 S30 3.001708 1_655
Pb12 S18 2.904403 1_655
Pb12 S18 2.904403 1_555
Pb12 S31 3.121105 1_655
Pb12 S31 3.121105 1_555
Pb12 S40 3.175618 1_555
Pb12 S16 3.262869 1_555
Pb12 S16 3.262869 1_655
Pb13 S43 3.014383 1_555
Pb13 S43 3.014383 1_655
Pb13 S49 3.108656 1_555
Pb13 S49 3.108656 1_655
Pb13 S27 3.127449 1_555
Pb13 S27 3.127449 1_655
Pb13 S13 3.194636 1_555
Pb14 S46 3.014383 1_555
Pb14 S46 3.014383 1_655
Pb14 S30 3.108656 1_655
Pb14 S30 3.108656 1_555
Pb14 S14 3.127449 1_555
Pb14 S14 3.127449 1_655
Pb14 S48 3.194636 1_555
Pb15 S4 2.994228 1_555
Pb15 S4 2.994228 1_655
Pb15 S32 3.001708 1_555
Pb15 S32 3.001708 1_655
