# generated using pymatgen
data_Sr7PrFe4(MoO6)4
_symmetry_space_group_name_H-M   'P 1'
_cell_length_a   5.61864755
_cell_length_b   22.57447224
_cell_length_c   5.68447600
_cell_angle_alpha   119.64611967
_cell_angle_beta   119.64831259
_cell_angle_gamma   90.01908803
_symmetry_Int_Tables_number   1
_chemical_formula_structural   Sr7PrFe4(MoO6)4
_chemical_formula_sum   'Sr7 Pr1 Fe4 Mo4 O24'
_cell_volume   515.13624321
_cell_formula_units_Z   1
loop_
 _symmetry_equiv_pos_site_id
 _symmetry_equiv_pos_as_xyz
  1  'x, y, z'
loop_
 _atom_site_type_symbol
 _atom_site_label
 _atom_site_symmetry_multiplicity
 _atom_site_fract_x
 _atom_site_fract_y
 _atom_site_fract_z
 _atom_site_occupancy
  Sr  Sr0  1  0.25612400  0.19163300  0.51128100  1
  Sr  Sr1  1  0.24570400  0.43679600  0.49630800  1
  Sr  Sr2  1  0.25847000  0.69103500  0.51543800  1
  Sr  Sr3  1  0.23746300  0.92993300  0.47671900  1
  Sr  Sr4  1  0.75350400  0.31185900  0.49771200  1
  Sr  Sr5  1  0.75447800  0.06650100  0.51459700  1
  Sr  Sr6  1  0.74670700  0.56135500  0.49563900  1
  Pr  Pr0  1  0.74394100  0.80969300  0.49348400  1
  Fe  Fe0  1  0.99794600  0.25054300  0.00327800  1
  Fe  Fe1  1  0.00465100  0.50045500  0.00132500  1
  Fe  Fe2  1  0.00234800  0.75215300  0.00430000  1
  Fe  Fe3  1  0.49428900  0.87072900  0.99067300  1
  Mo  Mo0  1  0.99368000  0.99633000  0.99239500  1
  Mo  Mo1  1  0.50132400  0.12555000  0.00333700  1
  Mo  Mo2  1  0.50216600  0.37623100  0.00238700  1
  Mo  Mo3  1  0.49927900  0.62512000  0.99985200  1
  O  O0  1  0.25124700  0.05879200  0.49669100  1
  O  O1  1  0.26016600  0.31390100  0.50170200  1
  O  O2  1  0.24368500  0.56398200  0.50086800  1
  O  O3  1  0.24126700  0.81231900  0.49891700  1
  O  O4  1  0.20942000  0.17721400  0.99403800  1
  O  O5  1  0.20803700  0.42849700  0.00245600  1
  O  O6  1  0.22141000  0.67654200  0.00722800  1
  O  O7  1  0.18210800  0.91934700  0.97353100  1
  O  O8  1  0.27813400  0.04693500  0.99687800  1
  O  O9  1  0.29602200  0.30673000  0.00057000  1
  O  O10  1  0.28850700  0.55246100  0.99858400  1
  O  O11  1  0.32398400  0.80161400  0.03194900  1
  O  O12  1  0.75453400  0.18726400  0.49856200  1
  O  O13  1  0.74450800  0.43958600  0.50480700  1
  O  O14  1  0.75892400  0.69074800  0.50305300  1
  O  O15  1  0.74861900  0.93422000  0.49586900  1
  O  O16  1  0.71019700  0.20019600  0.99875300  1
  O  O17  1  0.70482000  0.44767600  0.00619400  1
  O  O18  1  0.70953500  0.70233600  0.01579700  1
  O  O19  1  0.71190400  0.94963100  0.00134100  1
  O  O20  1  0.79609000  0.07232500  0.00228800  1
  O  O21  1  0.79327300  0.32397000  0.99990300  1
  O  O22  1  0.78014600  0.57533900  0.00327600  1
  O  O23  1  0.79139100  0.82245800  0.96801900  1
loop_
_geom_bond_atom_site_label_1
_geom_bond_atom_site_label_2
_geom_bond_distance
_geom_bond_site_symmetry_2
Fe0 O16 1.958328 1_554
Fe0 O21 2.020221 1_554
Fe0 O1 2.025739 1_655
Fe0 O4 2.032693 1_654
Fe0 O12 2.050520 1_554
Fe0 O9 2.111247 1_655
Fe1 O5 1.987196 1_555
Fe1 O10 1.990888 1_554
Fe1 O13 2.017717 1_454
Fe1 O2 2.029988 1_555
Fe1 O17 2.082254 1_455
Fe1 O22 2.108479 1_455
Fe2 O3 2.009689 1_555
Fe2 O23 2.012350 1_454
Fe2 O11 2.020214 1_555
Fe2 O14 2.036326 1_454
Fe2 O18 2.038028 1_455
Fe2 O6 2.106631 1_555
Fe3 O11 1.997073 1_556
Fe3 O3 1.998617 1_555
Fe3 O23 2.016353 1_555
Fe3 O15 2.051841 1_556
Fe3 O7 2.056376 1_555
Fe3 O19 2.118864 1_556
Mo0 O19 1.937017 1_556
Mo0 O8 1.946732 1_665
Mo0 O15 2.016681 1_555
Mo0 O7 2.020317 1_655
Mo0 O20 2.036266 1_566
Mo0 O0 2.048351 1_666
Mo1 O4 2.007351 1_554
Mo1 O12 2.011512 1_555
Mo1 O20 2.047111 1_555
Mo1 O0 2.059408 1_554
Mo1 O16 2.071206 1_554
Mo1 O8 2.147549 1_554
Mo2 O9 1.942723 1_555
Mo2 O17 1.959100 1_555
Mo2 O21 2.018657 1_554
Mo2 O5 2.030937 1_555
Mo2 O1 2.034051 1_554
Mo2 O13 2.041239 1_555
Mo3 O22 1.935476 1_556
Mo3 O6 1.950535 1_556
Mo3 O10 2.017785 1_555
Mo3 O2 2.026955 1_555
Mo3 O18 2.044172 1_556
Mo3 O14 2.045217 1_556
O0 Sr5 2.780772 1_555
O0 Sr5 2.845198 1_455
O0 Sr3 2.853973 1_545
O0 Sr0 2.958407 1_555
O1 Sr4 2.783393 1_555
O1 Sr0 2.787776 1_555
O1 Sr1 2.790352 1_555
O1 Sr4 2.835781 1_455
O2 Sr6 2.778060 1_455
O2 Sr2 2.828092 1_555
O2 Sr6 2.841456 1_555
O2 Sr1 2.858501 1_555
O3 Sr3 2.719302 1_555
O3 Pr0 2.779438 1_455
O3 Sr2 2.785668 1_555
O3 Pr0 2.840072 1_555
O4 Sr5 2.563787 1_455
O4 Sr0 2.666404 1_556
O4 Sr0 3.049857 1_555
O4 Sr4 3.083298 1_556
O5 Sr1 2.617755 1_555
O5 Sr4 2.638122 1_454
O5 Sr6 3.048969 1_555
O5 Sr1 3.081193 1_554
O6 Sr2 2.639310 1_555
O6 Sr6 2.678268 1_454
O6 Pr0 3.006796 1_555
O6 Sr2 3.073483 1_554
O7 Pr0 2.510351 1_455
O7 Sr3 2.603665 1_556
O7 Sr3 3.109032 1_555
O8 Sr5 2.634361 1_556
O8 Sr3 2.715947 1_545
O8 Sr5 3.096171 1_455
O8 Sr0 3.185037 1_556
O9 Sr0 2.602044 1_554
O9 Sr4 2.663869 1_555
O9 Sr4 3.030370 1_454
O9 Sr1 3.040641 1_555
O10 Sr6 2.625525 1_556
O10 Sr1 2.640575 1_555
O10 Sr6 3.072268 1_455
O10 Sr2 3.137668 1_556
O11 Pr0 2.426072 1_555
O11 Sr2 2.582030 1_554
O11 Sr3 2.998543 1_555
O11 Pr0 3.272163 1_454
O12 Sr5 2.772385 1_555
O12 Sr0 2.783648 1_655
O12 Sr4 2.815062 1_555
O12 Sr0 2.837355 1_555
O13 Sr6 2.775157 1_555
O13 Sr1 2.779173 1_555
O13 Sr1 2.840442 1_655
O13 Sr4 2.864450 1_555
O14 Pr0 2.712937 1_555
O14 Sr2 2.772546 1_655
O14 Sr2 2.847289 1_555
O14 Sr6 2.900659 1_555
O15 Sr3 2.801932 1_655
O15 Pr0 2.804502 1_555
O15 Sr3 2.819524 1_555
O15 Sr5 2.934556 1_565
O16 Sr0 2.588504 1_555
O16 Sr4 2.588787 1_556
O16 Sr5 3.034122 1_555
O16 Sr0 3.106513 1_656
O17 Sr6 2.582680 1_555
O17 Sr1 2.648350 1_554
O17 Sr1 3.059221 1_655
O17 Sr4 3.137758 1_554
O18 Pr0 2.500857 1_555
O18 Sr2 2.593857 1_554
O18 Sr2 3.113716 1_655
O18 Sr6 3.196429 1_554
O19 Sr3 2.649450 1_554
O19 Sr5 2.687796 1_565
O19 Sr3 3.084607 1_655
O19 Pr0 3.136636 1_554
O20 Sr5 2.599146 1_554
O20 Sr0 2.682095 1_655
O20 Sr5 3.099241 1_555
O20 Sr3 3.213298 1_544
O21 Sr1 2.588548 1_656
O21 Sr4 2.621205 1_555
O21 Sr0 3.039712 1_555
O21 Sr4 3.085977 1_556
O22 Sr6 2.650344 1_554
O22 Sr2 2.692988 1_655
O22 Sr6 3.059846 1_555
O22 Sr1 3.101494 1_554
O23 Pr0 2.439260 1_555
O23 Sr3 2.532775 1_656
O23 Sr2 3.034523 1_555
O23 Pr0 3.273465 1_556
