# generated using pymatgen
data_Ca5MnSi9(Pb3O11)3
_symmetry_space_group_name_H-M   'P 1'
_cell_length_a   9.98896350
_cell_length_b   9.98896350
_cell_length_c   10.29275800
_cell_angle_alpha   90.00000000
_cell_angle_beta   90.00000000
_cell_angle_gamma   119.99999666
_symmetry_Int_Tables_number   1
_chemical_formula_structural   Ca5MnSi9(Pb3O11)3
_chemical_formula_sum   'Ca5 Mn1 Si9 Pb9 O33'
_cell_volume   889.41256445
_cell_formula_units_Z   1
loop_
 _symmetry_equiv_pos_site_id
 _symmetry_equiv_pos_as_xyz
  1  'x, y, z'
loop_
 _atom_site_type_symbol
 _atom_site_label
 _atom_site_symmetry_multiplicity
 _atom_site_fract_x
 _atom_site_fract_y
 _atom_site_fract_z
 _atom_site_occupancy
  Ca  Ca0  1  0.00000000  0.00000000  0.16056300  1
  Ca  Ca1  1  0.33333300  0.66666700  0.17918800  1
  Ca  Ca2  1  0.00000000  0.00000000  0.83943700  1
  Ca  Ca3  1  0.33333300  0.66666700  0.82081200  1
  Ca  Ca4  1  0.00000000  0.00000000  0.50000000  1
  Mn  Mn0  1  0.33333300  0.66666700  0.50000000  1
  Si  Si0  1  0.26278300  0.94994300  0.35160100  1
  Si  Si1  1  0.05005700  0.31284000  0.35160100  1
  Si  Si2  1  0.64298900  0.92434300  0.00000000  1
  Si  Si3  1  0.68716000  0.73721700  0.64839900  1
  Si  Si4  1  0.28135500  0.35701100  0.00000000  1
  Si  Si5  1  0.26278300  0.94994300  0.64839900  1
  Si  Si6  1  0.07565700  0.71864500  0.00000000  1
  Si  Si7  1  0.05005700  0.31284000  0.64839900  1
  Si  Si8  1  0.68716000  0.73721700  0.35160100  1
  Pb  Pb0  1  0.93690300  0.60569900  0.67701900  1
  Pb  Pb1  1  0.39430100  0.33120400  0.32298100  1
  Pb  Pb2  1  0.65139500  0.58560800  0.00000000  1
  Pb  Pb3  1  0.93421300  0.34860500  0.00000000  1
  Pb  Pb4  1  0.66879600  0.06309700  0.67701900  1
  Pb  Pb5  1  0.41439200  0.06578700  0.00000000  1
  Pb  Pb6  1  0.93690300  0.60569900  0.32298100  1
  Pb  Pb7  1  0.39430100  0.33120400  0.67701900  1
  Pb  Pb8  1  0.66879600  0.06309700  0.32298100  1
  O  O0  1  0.16301700  0.17327500  0.00000000  1
  O  O1  1  0.29350000  0.03392300  0.50000000  1
  O  O2  1  0.96607700  0.25957600  0.50000000  1
  O  O3  1  0.40403800  0.42037700  0.12445300  1
  O  O4  1  0.12543200  0.19817600  0.32990100  1
  O  O5  1  0.35715000  0.09267900  0.75166400  1
  O  O6  1  0.18244200  0.49220800  0.65155100  1
  O  O7  1  0.01633900  0.59596200  0.12445300  1
  O  O8  1  0.30976600  0.81755800  0.34844900  1
  O  O9  1  0.18244200  0.49220800  0.34844900  1
  O  O10  1  0.80182400  0.92725500  0.32990100  1
  O  O11  1  0.30976600  0.81755800  0.65155100  1
  O  O12  1  0.90732100  0.26447100  0.75166400  1
  O  O13  1  0.35715000  0.09267900  0.24833600  1
  O  O14  1  0.01025800  0.83698300  0.00000000  1
  O  O15  1  0.73552900  0.64285000  0.75166400  1
  O  O16  1  0.73552900  0.64285000  0.24833600  1
  O  O17  1  0.74042400  0.70650000  0.50000000  1
  O  O18  1  0.53773800  0.73288000  0.00000000  1
  O  O19  1  0.12543200  0.19817600  0.67009900  1
  O  O20  1  0.57962300  0.98366100  0.87554700  1
  O  O21  1  0.07274500  0.87456800  0.32990100  1
  O  O22  1  0.90732100  0.26447100  0.24833600  1
  O  O23  1  0.50779200  0.69023400  0.65155100  1
  O  O24  1  0.07274500  0.87456800  0.67009900  1
  O  O25  1  0.57962300  0.98366100  0.12445300  1
  O  O26  1  0.26712000  0.80485700  0.00000000  1
  O  O27  1  0.19514300  0.46226200  0.00000000  1
  O  O28  1  0.50779200  0.69023400  0.34844900  1
  O  O29  1  0.80182400  0.92725500  0.67009900  1
  O  O30  1  0.82672500  0.98974200  0.00000000  1
  O  O31  1  0.01633900  0.59596200  0.87554700  1
  O  O32  1  0.40403800  0.42037700  0.87554700  1
loop_
_geom_bond_atom_site_label_1
_geom_bond_atom_site_label_2
_geom_bond_distance
_geom_bond_site_symmetry_2
Ca0 O14 2.357997 1_545
Ca0 O30 2.357997 1_445
Ca0 O0 2.357997 1_555
Ca0 O10 2.458895 1_445
Ca0 O4 2.458896 1_555
Ca0 O21 2.458902 1_545
Ca1 O8 2.391057 1_555
Ca1 O9 2.391061 1_555
Ca1 O28 2.391064 1_555
Ca1 O26 2.580203 1_555
Ca1 O27 2.580214 1_555
Ca1 O18 2.580216 1_555
Ca1 O7 2.933632 1_555
Ca1 O25 2.933635 1_555
Ca1 O3 2.933642 1_555
Ca2 O14 2.357997 1_546
Ca2 O30 2.357997 1_446
Ca2 O0 2.357997 1_556
Ca2 O29 2.458895 1_445
Ca2 O19 2.458896 1_555
Ca2 O24 2.458902 1_545
Ca3 O11 2.391057 1_555
Ca3 O6 2.391061 1_555
Ca3 O23 2.391064 1_555
Ca3 O26 2.580203 1_556
Ca3 O27 2.580214 1_556
Ca3 O18 2.580216 1_556
Ca3 O31 2.933632 1_555
Ca3 O20 2.933635 1_555
Ca3 O32 2.933642 1_555
Ca4 O29 2.464454 1_445
Ca4 O10 2.464454 1_445
Ca4 O19 2.464455 1_555
Ca4 O4 2.464455 1_555
Ca4 O24 2.464460 1_545
Ca4 O21 2.464460 1_545
Ca4 O2 2.777867 1_455
Ca4 O17 2.777873 1_445
Ca4 O1 2.777877 1_555
Mn0 O11 2.261690 1_555
Mn0 O8 2.261690 1_555
Mn0 O6 2.261695 1_555
Mn0 O9 2.261695 1_555
Mn0 O23 2.261698 1_555
Mn0 O28 2.261698 1_555
O0 Si4 1.611287 1_555
O1 Si5 1.695146 1_545
O1 Si0 1.695146 1_545
O2 Si7 1.695146 1_655
O2 Si1 1.695146 1_655
O3 Si4 1.663617 1_555
O3 Pb1 2.211727 1_555
O3 Pb2 2.528228 1_555
O4 Si1 1.670637 1_555
O4 Pb1 2.327037 1_555
O5 Si5 1.645340 1_545
O5 Pb7 2.349613 1_555
O5 Pb5 2.661982 1_556
O6 Si7 1.609544 1_555
O7 Si6 1.663617 1_555
O7 Pb6 2.211727 1_455
O7 Pb3 2.528228 1_455
O8 Si0 1.609544 1_555
O9 Si1 1.609544 1_555
O10 Si8 1.670629 1_555
O10 Pb8 2.327045 1_565
O11 Si5 1.609544 1_555
O12 Si7 1.645340 1_655
O12 Pb4 2.349613 1_555
O12 Pb3 2.661982 1_556
O13 Si0 1.645340 1_545
O13 Pb1 2.349613 1_555
O13 Pb5 2.661982 1_555
O14 Si6 1.611294 1_555
O15 Si3 1.645340 1_555
O15 Pb0 2.349613 1_555
O15 Pb2 2.661982 1_556
O16 Si8 1.645340 1_555
O16 Pb6 2.349613 1_555
O16 Pb2 2.661982 1_555
O17 Si3 1.695150 1_555
O17 Si8 1.695150 1_555
O18 Si2 1.659016 1_555
O18 Pb2 2.263453 1_555
O19 Si7 1.670637 1_555
O19 Pb7 2.327037 1_555
O20 Si2 1.663623 1_556
O20 Pb4 2.211727 1_565
O20 Pb5 2.528228 1_566
O21 Si0 1.670628 1_555
O21 Pb6 2.327037 1_455
O22 Si1 1.645340 1_655
O22 Pb8 2.349613 1_555
O22 Pb3 2.661982 1_555
O23 Si3 1.609544 1_555
O24 Si5 1.670628 1_555
O24 Pb0 2.327037 1_455
O25 Si2 1.663623 1_555
O25 Pb8 2.211727 1_565
O25 Pb5 2.528228 1_565
O26 Si6 1.659016 1_555
O26 Pb5 2.263461 1_565
O27 Si4 1.659016 1_555
O27 Pb3 2.263462 1_455
O28 Si8 1.609544 1_555
O29 Si3 1.670629 1_555
O29 Pb4 2.327045 1_565
O30 Si2 1.611285 1_555
O31 Si6 1.663617 1_556
O31 Pb0 2.211727 1_455
O31 Pb3 2.528228 1_456
O32 Si4 1.663617 1_556
O32 Pb7 2.211727 1_555
O32 Pb2 2.528228 1_556
