# generated using pymatgen
data_Re3Pb3O10
_symmetry_space_group_name_H-M   'P 1'
_cell_length_a   16.71465253
_cell_length_b   16.71465253
_cell_length_c   16.71465253
_cell_angle_alpha   154.22445489
_cell_angle_beta   154.22445489
_cell_angle_gamma   36.77344574
_symmetry_Int_Tables_number   1
_chemical_formula_structural   Re3Pb3O10
_chemical_formula_sum   'Re12 Pb12 O40'
_cell_volume   881.79701884
_cell_formula_units_Z   4
loop_
 _symmetry_equiv_pos_site_id
 _symmetry_equiv_pos_as_xyz
  1  'x, y, z'
loop_
 _atom_site_type_symbol
 _atom_site_label
 _atom_site_symmetry_multiplicity
 _atom_site_fract_x
 _atom_site_fract_y
 _atom_site_fract_z
 _atom_site_occupancy
  Re  Re0  1  0.04288700  0.79201200  0.25087400  1
  Re  Re1  1  0.54201200  0.29288700  0.75087400  1
  Re  Re2  1  0.20886200  0.45798800  0.75087400  1
  Re  Re3  1  0.70711300  0.45798800  0.24912600  1
  Re  Re4  1  0.54201200  0.79113800  0.24912600  1
  Re  Re5  1  0.87500000  0.12500000  0.75000000  1
  Re  Re6  1  0.37500000  0.12500000  0.25000000  1
  Re  Re7  1  0.20798800  0.45886200  0.25087400  1
  Re  Re8  1  0.54113800  0.79201200  0.74912600  1
  Re  Re9  1  0.20798800  0.95711300  0.74912600  1
  Re  Re10  1  0.87500000  0.12500000  0.25000000  1
  Re  Re11  1  0.87500000  0.62500000  0.75000000  1
  Pb  Pb0  1  0.71078000  0.96290100  0.25212100  1
  Pb  Pb1  1  0.71078000  0.45865900  0.74787900  1
  Pb  Pb2  1  0.37500000  0.62500000  0.25000000  1
  Pb  Pb3  1  0.37500000  0.12500000  0.75000000  1
  Pb  Pb4  1  0.03922000  0.28709900  0.24787900  1
  Pb  Pb5  1  0.03709900  0.28922000  0.74787900  1
  Pb  Pb6  1  0.37500000  0.62500000  0.75000000  1
  Pb  Pb7  1  0.87500000  0.62500000  0.25000000  1
  Pb  Pb8  1  0.03922000  0.79134100  0.75212100  1
  Pb  Pb9  1  0.71290100  0.96078000  0.75212100  1
  Pb  Pb10  1  0.54134100  0.28922000  0.25212100  1
  Pb  Pb11  1  0.20865900  0.96078000  0.24787900  1
  O  O0  1  0.02276600  0.64172700  0.99845600  1
  O  O1  1  0.42439700  0.92439700  0.50000000  1
  O  O2  1  0.02276600  0.02431000  0.38103900  1
  O  O3  1  0.30879500  0.30879500  0.61758900  1
  O  O4  1  0.69120500  0.30879500  0.00000000  1
  O  O5  1  0.43640900  0.43640900  0.00000000  1
  O  O6  1  0.07560300  0.57560300  0.50000000  1
  O  O7  1  0.56359100  0.56359100  0.00000000  1
  O  O8  1  0.30879500  0.69120500  0.00000000  1
  O  O9  1  0.69120500  0.69120500  0.38241100  1
  O  O10  1  0.97569000  0.97723400  0.61896100  1
  O  O11  1  0.77431000  0.89327100  0.50154400  1
  O  O12  1  0.35827300  0.97723400  0.00154400  1
  O  O13  1  0.10425900  0.10425900  0.00000000  1
  O  O14  1  0.51853300  0.01853300  0.50000000  1
  O  O15  1  0.64574100  0.14574100  0.50000000  1
  O  O16  1  0.23146700  0.23146700  0.00000000  1
  O  O17  1  0.97569000  0.35672900  0.99845600  1
  O  O18  1  0.77431000  0.27276600  0.88103900  1
  O  O19  1  0.35827300  0.35672900  0.38103900  1
  O  O20  1  0.64327100  0.64172700  0.61896100  1
  O  O21  1  0.05879500  0.55879500  0.11758900  1
  O  O22  1  0.44120500  0.55879500  0.50000000  1
  O  O23  1  0.76853300  0.76853300  0.00000000  1
  O  O24  1  0.67439700  0.67439700  0.00000000  1
  O  O25  1  0.18640900  0.68640900  0.50000000  1
  O  O26  1  0.31359100  0.81359100  0.50000000  1
  O  O27  1  0.89574100  0.89574100  0.00000000  1
  O  O28  1  0.64327100  0.02431000  0.00154400  1
  O  O29  1  0.05879500  0.94120500  0.50000000  1
  O  O30  1  0.44120500  0.94120500  0.88241100  1
  O  O31  1  0.72723400  0.22569000  0.11896100  1
  O  O32  1  0.10672900  0.22569000  0.49845600  1
  O  O33  1  0.85425900  0.35425900  0.50000000  1
  O  O34  1  0.32560300  0.32560300  0.00000000  1
  O  O35  1  0.98146700  0.48146700  0.50000000  1
  O  O36  1  0.72723400  0.60827300  0.50154400  1
  O  O37  1  0.10672900  0.60827300  0.88103900  1
  O  O38  1  0.39172700  0.89327100  0.11896100  1
  O  O39  1  0.39172700  0.27276600  0.49845600  1
loop_
_geom_bond_atom_site_label_1
_geom_bond_atom_site_label_2
_geom_bond_distance
_geom_bond_site_symmetry_2
O0 Re0 1.983476 1_556
O0 Re11 1.991691 1_455
O0 Pb2 2.704906 1_556
O0 Pb5 2.723322 1_555
O1 Pb11 2.205887 1_555
O1 Pb9 2.205887 1_555
O1 Pb3 2.435188 1_565
O1 Pb2 2.435188 1_555
O2 Re0 1.983481 1_545
O2 Re10 1.991691 1_455
O2 Pb3 2.704906 1_555
O2 Pb5 2.723322 1_555
O3 Re1 1.998791 1_555
O3 Re2 1.998805 1_555
O3 Pb4 2.656185 1_555
O3 Pb11 2.656199 1_545
O4 Re3 1.998805 1_555
O4 Re1 1.998805 1_554
O4 Pb9 2.656196 1_544
O4 Pb4 2.656196 1_655
O5 Re3 1.979632 1_555
O5 Re2 1.979641 1_554
O5 Pb2 2.696213 1_555
O5 Pb3 2.696213 1_554
O6 Pb8 2.205887 1_555
O6 Pb4 2.205887 1_555
O6 Pb7 2.435188 1_455
O6 Pb6 2.435188 1_555
O7 Re1 1.979632 1_554
O7 Re4 1.979641 1_555
O7 Pb6 2.696213 1_554
O7 Pb7 2.696213 1_555
O8 Re4 1.998793 1_555
O8 Re2 1.998793 1_554
O8 Pb8 2.656196 1_554
O8 Pb11 2.656196 1_555
O9 Re3 1.998791 1_555
O9 Re4 1.998805 1_555
O9 Pb9 2.656185 1_555
O9 Pb8 2.656199 1_655
O10 Re9 1.983481 1_655
O10 Re5 1.991691 1_565
O10 Pb7 2.704906 1_555
O10 Pb0 2.723322 1_555
O11 Re4 1.983488 1_555
O11 Re5 1.991691 1_565
O11 Pb7 2.704906 1_555
O11 Pb8 2.723322 1_655
O12 Re9 1.983476 1_554
O12 Re6 1.991691 1_565
O12 Pb6 2.704906 1_554
O12 Pb0 2.723322 1_555
O13 Re5 1.976750 1_454
O13 Re6 1.976750 1_555
O13 Pb8 2.769977 1_544
O13 Pb4 2.769977 1_555
O14 Re4 2.013385 1_545
O14 Re1 2.013394 1_555
O14 Pb9 2.624949 1_545
O14 Pb11 2.624949 1_545
O15 Re5 1.976750 1_555
O15 Re6 1.976750 1_555
O15 Pb0 2.769977 1_545
O15 Pb1 2.769977 1_555
O16 Re7 2.013385 1_555
O16 Re9 2.013394 1_544
O16 Pb10 2.624949 1_555
O16 Pb5 2.624949 1_554
O17 Re7 1.983488 1_656
O17 Re5 1.991691 1_555
O17 Pb7 2.704906 1_556
O17 Pb1 2.723322 1_555
O18 Re1 1.983481 1_555
O18 Re5 1.991691 1_555
O18 Pb7 2.704906 1_556
O18 Pb4 2.723322 1_656
O19 Re7 1.983488 1_555
O19 Re6 1.991691 1_555
O19 Pb6 2.704906 1_555
O19 Pb1 2.723322 1_555
O20 Re8 1.983488 1_555
O20 Re11 1.991691 1_555
O20 Pb2 2.704906 1_555
O20 Pb10 2.723322 1_555
O21 Re0 1.998791 1_555
O21 Re7 1.998805 1_555
O21 Pb5 2.656185 1_554
O21 Pb1 2.656199 1_454
O22 Re7 1.998793 1_555
O22 Re8 1.998793 1_555
O22 Pb1 2.656196 1_555
O22 Pb10 2.656196 1_555
O23 Re8 2.013385 1_554
O23 Re0 2.013394 1_655
O23 Pb0 2.624949 1_555
O23 Pb1 2.624949 1_554
O24 Pb0 2.205887 1_555
O24 Pb1 2.205887 1_554
O24 Pb6 2.435188 1_554
O24 Pb7 2.435188 1_555
O25 Re9 1.979632 1_555
O25 Re7 1.979641 1_555
O25 Pb6 2.696213 1_555
O25 Pb7 2.696213 1_455
O26 Re0 1.979632 1_555
O26 Re8 1.979641 1_555
O26 Pb2 2.696213 1_555
O26 Pb3 2.696213 1_565
O27 Re11 1.976750 1_554
O27 Re10 1.976750 1_565
O27 Pb11 2.769977 1_655
O27 Pb9 2.769977 1_554
O28 Re8 1.983488 1_544
O28 Re10 1.991691 1_555
O28 Pb3 2.704906 1_554
O28 Pb10 2.723322 1_555
O29 Re0 1.998805 1_555
O29 Re9 1.998805 1_555
O29 Pb0 2.656196 1_455
O29 Pb5 2.656196 1_565
O30 Re9 1.998791 1_555
O30 Re8 1.998805 1_555
O30 Pb0 2.656185 1_556
O30 Pb10 2.656199 1_566
O31 Re3 1.983481 1_555
O31 Re10 1.991691 1_555
O31 Pb3 2.704906 1_554
O31 Pb9 2.723322 1_544
O32 Re2 1.983488 1_555
O32 Re10 1.991691 1_455
O32 Pb3 2.704906 1_555
O32 Pb11 2.723322 1_545
O33 Re11 1.976750 1_555
O33 Re10 1.976750 1_555
O33 Pb5 2.769977 1_655
O33 Pb10 2.769977 1_555
O34 Pb5 2.205887 1_554
O34 Pb10 2.205887 1_555
O34 Pb2 2.435188 1_555
O34 Pb3 2.435188 1_554
O35 Re2 2.013385 1_655
O35 Re3 2.013394 1_555
O35 Pb4 2.624949 1_655
O35 Pb8 2.624949 1_655
O36 Re3 1.983476 1_555
O36 Re11 1.991691 1_555
O36 Pb2 2.704906 1_555
O36 Pb9 2.723322 1_555
O37 Re2 1.983488 1_555
O37 Re11 1.991691 1_455
O37 Pb2 2.704906 1_556
O37 Pb11 2.723322 1_556
O38 Re4 1.983488 1_555
O38 Re6 1.991691 1_565
O38 Pb6 2.704906 1_554
O38 Pb8 2.723322 1_554
O39 Re1 1.983476 1_555
O39 Re6 1.991691 1_555
O39 Pb6 2.704906 1_555
O39 Pb4 2.723322 1_555
