# generated using pymatgen
data_BaH8C6(N3O4)2
_symmetry_space_group_name_H-M   'P 1'
_cell_length_a   7.44361400
_cell_length_b   9.08730459
_cell_length_c   9.52092688
_cell_angle_alpha   84.90616190
_cell_angle_beta   82.32361384
_cell_angle_gamma   76.60049770
_symmetry_Int_Tables_number   1
_chemical_formula_structural   BaH8C6(N3O4)2
_chemical_formula_sum   'Ba2 H16 C12 N12 O16'
_cell_volume   619.75420385
_cell_formula_units_Z   2
loop_
 _symmetry_equiv_pos_site_id
 _symmetry_equiv_pos_as_xyz
  1  'x, y, z'
loop_
 _atom_site_type_symbol
 _atom_site_label
 _atom_site_symmetry_multiplicity
 _atom_site_fract_x
 _atom_site_fract_y
 _atom_site_fract_z
 _atom_site_occupancy
  Ba  Ba0  1  0.87738700  0.26834100  0.00079700  1
  Ba  Ba1  1  0.12261300  0.73165900  0.99920300  1
  H  H0  1  0.43207800  0.84202300  0.36364100  1
  H  H1  1  0.56792200  0.15797700  0.63635900  1
  H  H2  1  0.04999500  0.20109600  0.53758400  1
  H  H3  1  0.95000500  0.79890400  0.46241600  1
  H  H4  1  0.55594200  0.22781500  0.37408700  1
  H  H5  1  0.44405800  0.77218500  0.62591300  1
  H  H6  1  0.15960000  0.57645300  0.55080100  1
  H  H7  1  0.84040000  0.42354700  0.44919900  1
  H  H8  1  0.22210500  0.03749000  0.77920000  1
  H  H9  1  0.77789500  0.96251000  0.22080000  1
  H  H10  1  0.28495300  0.02129500  0.93475600  1
  H  H11  1  0.71504700  0.97870500  0.06524400  1
  H  H12  1  0.74676000  0.59899500  0.18821500  1
  H  H13  1  0.25324000  0.40100500  0.81178500  1
  H  H14  1  0.68850100  0.64419900  0.03722000  1
  H  H15  1  0.31149900  0.35580100  0.96278000  1
  C  C0  1  0.06135000  0.19235500  0.31435700  1
  C  C1  1  0.93865000  0.80764500  0.68564300  1
  C  C2  1  0.27707500  0.98657900  0.21578600  1
  C  C3  1  0.72292500  0.01342100  0.78421400  1
  C  C4  1  0.24996900  0.01391200  0.47031600  1
  C  C5  1  0.75003100  0.98608800  0.52968400  1
  C  C6  1  0.18897300  0.57970600  0.32647700  1
  C  C7  1  0.81102700  0.42029400  0.67352300  1
  C  C8  1  0.41949700  0.38494500  0.22548000  1
  C  C9  1  0.58050300  0.61505500  0.77452000  1
  C  C10  1  0.36167400  0.39120000  0.48367000  1
  C  C11  1  0.63832600  0.60880000  0.51633000  1
  N  N0  1  0.14442500  0.11514400  0.20040100  1
  N  N1  1  0.85557500  0.88485600  0.79959900  1
  N  N2  1  0.33035500  0.94044000  0.35115000  1
  N  N3  1  0.66964500  0.05956000  0.64885000  1
  N  N4  1  0.11472800  0.14158700  0.44851700  1
  N  N5  1  0.88527200  0.85841300  0.55148300  1
  N  N6  1  0.28484400  0.51151600  0.21101500  1
  N  N7  1  0.71515600  0.48848400  0.78898500  1
  N  N8  1  0.45672100  0.32766900  0.36261200  1
  N  N9  1  0.54327900  0.67233100  0.63738800  1
  N  N10  1  0.22621600  0.51861600  0.46153900  1
  N  N11  1  0.77378400  0.48138400  0.53846100  1
  O  O0  1  0.93411200  0.31051900  0.30266500  1
  O  O1  1  0.06588800  0.68948100  0.69733500  1
  O  O2  1  0.35409900  0.90613800  0.11476000  1
  O  O3  1  0.64590100  0.09386200  0.88524000  1
  O  O4  1  0.29499300  0.96781800  0.59115700  1
  O  O5  1  0.70500700  0.03218200  0.40884300  1
  O  O6  1  0.06404500  0.69923200  0.31413600  1
  O  O7  1  0.93595500  0.30076800  0.68586400  1
  O  O8  1  0.51200900  0.31535400  0.12197800  1
  O  O9  1  0.48799100  0.68464600  0.87802200  1
  O  O10  1  0.39468600  0.33837800  0.60544600  1
  O  O11  1  0.60531400  0.66162200  0.39455400  1
  O  O12  1  0.17667300  0.04091800  0.88100900  1
  O  O13  1  0.82332700  0.95908200  0.11899100  1
  O  O14  1  0.79417800  0.59021000  0.08723400  1
  O  O15  1  0.20582200  0.40979000  0.91276600  1
loop_
_geom_bond_atom_site_label_1
_geom_bond_atom_site_label_2
_geom_bond_distance
_geom_bond_site_symmetry_2
Ba0 O8 2.760671 1_555
Ba0 O12 2.853185 1_654
Ba0 N7 2.888199 1_554
Ba0 N0 2.959316 1_655
Ba0 O3 2.962420 1_554
Ba0 O7 2.970023 1_554
Ba0 O15 3.008191 1_654
Ba0 O14 3.011257 1_555
Ba0 O13 3.027839 1_545
Ba0 O0 3.029894 1_555
Ba1 O9 2.760671 1_555
Ba1 O13 2.853185 1_456
Ba1 N6 2.888199 1_556
Ba1 N1 2.959316 1_455
Ba1 O2 2.962420 1_556
Ba1 O6 2.970023 1_556
Ba1 O14 3.008191 1_456
Ba1 O15 3.011257 1_555
Ba1 O12 3.027839 1_565
Ba1 O1 3.029894 1_555
H0 N2 1.038575 1_555
H1 N3 1.038575 1_555
H2 N4 1.046528 1_555
H3 N5 1.046528 1_555
H4 N8 1.036404 1_555
H5 N9 1.036404 1_555
H6 N10 1.044183 1_555
H7 N11 1.044183 1_555
H8 O12 0.983775 1_555
H9 O13 0.983775 1_555
H10 O12 0.985217 1_555
H11 O13 0.985217 1_555
H12 O14 0.982455 1_555
H13 O15 0.982455 1_555
H14 O14 0.982819 1_555
H15 O15 0.982819 1_555
C0 O0 1.264129 1_455
C0 N0 1.344131 1_555
C0 N4 1.395800 1_555
C1 O1 1.264129 1_655
C1 N1 1.344131 1_555
C1 N5 1.395800 1_555
C2 O2 1.253603 1_555
C2 N0 1.354600 1_565
C2 N2 1.399140 1_555
C3 O3 1.253603 1_555
C3 N1 1.354600 1_545
C3 N3 1.399140 1_555
C4 O4 1.250534 1_545
C4 N2 1.363469 1_545
C4 N4 1.369060 1_555
C5 O5 1.250534 1_565
C5 N3 1.363469 1_565
C5 N5 1.369060 1_555
C6 O6 1.263608 1_555
C6 N6 1.344673 1_555
C6 N10 1.391315 1_555
C7 O7 1.263608 1_555
C7 N7 1.344673 1_555
C7 N11 1.391315 1_555
C8 O8 1.254090 1_555
C8 N6 1.349425 1_555
C8 N8 1.400523 1_555
C9 O9 1.254090 1_555
C9 N7 1.349425 1_555
C9 N9 1.400523 1_555
C10 O10 1.248065 1_555
C10 N8 1.368686 1_555
C10 N10 1.368961 1_555
C11 O11 1.248065 1_555
C11 N9 1.368686 1_555
C11 N11 1.368961 1_555
