# generated using pymatgen
data_ZnAg2C4(SN)4
_symmetry_space_group_name_H-M   'P 1'
_cell_length_a   10.70457443
_cell_length_b   10.70457443
_cell_length_c   7.93791597
_cell_angle_alpha   83.96850791
_cell_angle_beta   83.96850791
_cell_angle_gamma   42.74705032
_symmetry_Int_Tables_number   1
_chemical_formula_structural   ZnAg2C4(SN)4
_chemical_formula_sum   'Zn2 Ag4 C8 S8 N8'
_cell_volume   613.45258315
_cell_formula_units_Z   2
loop_
 _symmetry_equiv_pos_site_id
 _symmetry_equiv_pos_as_xyz
  1  'x, y, z'
loop_
 _atom_site_type_symbol
 _atom_site_label
 _atom_site_symmetry_multiplicity
 _atom_site_fract_x
 _atom_site_fract_y
 _atom_site_fract_z
 _atom_site_occupancy
  Zn  Zn0  1  0.86941000  0.54073700  0.48703000  1
  Zn  Zn1  1  0.54073700  0.86941000  0.98703000  1
  Ag  Ag0  1  0.31124000  0.50829700  0.97283900  1
  Ag  Ag1  1  0.09181800  0.90819000  0.50044100  1
  Ag  Ag2  1  0.50829700  0.31124000  0.47283900  1
  Ag  Ag3  1  0.90819000  0.09181800  0.00044100  1
  C  C0  1  0.61162400  0.54160900  0.90406000  1
  C  C1  1  0.86606600  0.79555300  0.08519900  1
  C  C2  1  0.79555300  0.86606600  0.58519900  1
  C  C3  1  0.18480300  0.06053600  0.20259300  1
  C  C4  1  0.06053600  0.18480300  0.70259300  1
  C  C5  1  0.34055200  0.23132000  0.77686300  1
  C  C6  1  0.54160900  0.61162400  0.40406000  1
  C  C7  1  0.23132000  0.34055200  0.27686300  1
  S  S0  1  0.01476100  0.79293100  0.12774100  1
  S  S1  1  0.16822900  0.97619500  0.76649300  1
  S  S2  1  0.23650500  0.43859900  0.71266600  1
  S  S3  1  0.43859900  0.23650500  0.21266600  1
  S  S4  1  0.39618600  0.61177900  0.35457200  1
  S  S5  1  0.61177900  0.39618600  0.85457200  1
  S  S6  1  0.79293100  0.01476100  0.62774100  1
  S  S7  1  0.97619500  0.16822900  0.26649300  1
  N  N0  1  0.33498700  0.98323500  0.15750600  1
  N  N1  1  0.41789600  0.08038100  0.81940000  1
  N  N2  1  0.64653800  0.61305300  0.43089400  1
  N  N3  1  0.98323500  0.33498700  0.65750600  1
  N  N4  1  0.79966500  0.75670500  0.56020300  1
  N  N5  1  0.08038100  0.41789600  0.31940000  1
  N  N6  1  0.61305300  0.64653800  0.93089400  1
  N  N7  1  0.75670500  0.79966500  0.06020300  1
loop_
_geom_bond_atom_site_label_1
_geom_bond_atom_site_label_2
_geom_bond_distance
_geom_bond_site_symmetry_2
Ag0 S5 2.569647 1_555
Ag0 S0 2.575397 1_556
Ag0 S2 2.647545 1_555
Ag0 S3 2.739228 1_556
Ag1 S6 2.600226 1_465
Ag1 S4 2.611440 1_555
Ag1 S7 2.658123 1_465
Ag1 S1 2.686952 1_555
Ag2 S4 2.569647 1_555
Ag2 S6 2.575397 1_555
Ag2 S3 2.647545 1_555
Ag2 S2 2.739228 1_555
Ag3 S0 2.600226 1_645
Ag3 S5 2.611440 1_554
Ag3 S1 2.658123 1_644
Ag3 S7 2.686952 1_555
C0 N6 1.176192 1_555
C0 S5 1.643833 1_555
C1 N7 1.176033 1_555
C1 S0 1.641261 1_655
C2 N4 1.176033 1_555
C2 S6 1.641261 1_565
C3 N0 1.176801 1_545
C3 S7 1.636081 1_455
C4 N3 1.176801 1_455
C4 S1 1.636081 1_545
C5 N1 1.178752 1_555
C5 S2 1.635679 1_555
C6 N2 1.176192 1_555
C6 S4 1.643833 1_555
C7 N5 1.178752 1_555
C7 S3 1.635679 1_555
N0 Zn1 1.986309 1_554
N1 Zn1 1.993615 1_545
N2 Zn0 1.981932 1_555
N3 Zn0 1.986309 1_555
N4 Zn0 1.973692 1_555
N5 Zn0 1.993615 1_455
N6 Zn1 1.981932 1_555
N7 Zn1 1.973692 1_554
