# generated using pymatgen
data_Mg3(PO4)2
_symmetry_space_group_name_H-M   'P 1'
_cell_length_a   8.61163000
_cell_length_b   9.09287203
_cell_length_c   9.41919618
_cell_angle_alpha   115.93422239
_cell_angle_beta   91.39466690
_cell_angle_gamma   114.41326672
_symmetry_Int_Tables_number   1
_chemical_formula_structural   Mg3(PO4)2
_chemical_formula_sum   'Mg12 P8 O32'
_cell_volume   584.73304610
_cell_formula_units_Z   4
loop_
 _symmetry_equiv_pos_site_id
 _symmetry_equiv_pos_as_xyz
  1  'x, y, z'
loop_
 _atom_site_type_symbol
 _atom_site_label
 _atom_site_symmetry_multiplicity
 _atom_site_fract_x
 _atom_site_fract_y
 _atom_site_fract_z
 _atom_site_occupancy
  Mg  Mg0  1  0.07788800  0.42778200  0.87406600  1
  Mg  Mg1  1  0.59351000  0.25992900  0.26262200  1
  Mg  Mg2  1  0.51573100  0.06929800  0.82218100  1
  Mg  Mg3  1  0.48426900  0.93070200  0.17781900  1
  Mg  Mg4  1  0.98281100  0.26301200  0.44387400  1
  Mg  Mg5  1  0.59863000  0.51846900  0.67431600  1
  Mg  Mg6  1  0.90315100  0.97954200  0.83911400  1
  Mg  Mg7  1  0.40137000  0.48153100  0.32568400  1
  Mg  Mg8  1  0.40649000  0.74007100  0.73737800  1
  Mg  Mg9  1  0.09684900  0.02045800  0.16088600  1
  Mg  Mg10  1  0.01718900  0.73698800  0.55612600  1
  Mg  Mg11  1  0.92211200  0.57221800  0.12593400  1
  P  P0  1  0.32870700  0.27203500  0.90696400  1
  P  P1  1  0.17828000  0.74214300  0.94742200  1
  P  P2  1  0.67129300  0.72796500  0.09303600  1
  P  P3  1  0.76413900  0.32942600  0.59893900  1
  P  P4  1  0.72971100  0.88403000  0.54945700  1
  P  P5  1  0.27028900  0.11597000  0.45054300  1
  P  P6  1  0.23586100  0.67057400  0.40106100  1
  P  P7  1  0.82172000  0.25785700  0.05257800  1
  O  O0  1  0.13195700  0.15576000  0.90425700  1
  O  O1  1  0.15714500  0.70168700  0.80064500  1
  O  O2  1  0.24635400  0.84839200  0.24733900  1
  O  O3  1  0.84285500  0.29831300  0.19935500  1
  O  O4  1  0.00269100  0.76878500  0.93038300  1
  O  O5  1  0.60029300  0.39115900  0.55282800  1
  O  O6  1  0.40949000  0.28978200  0.78316300  1
  O  O7  1  0.43370000  0.18406200  0.08369300  1
  O  O8  1  0.21176900  0.25130900  0.45703100  1
  O  O9  1  0.93383400  0.46617800  0.64457700  1
  O  O10  1  0.10659300  0.98326700  0.38958000  1
  O  O11  1  0.56630000  0.81593800  0.91630700  1
  O  O12  1  0.32440000  0.45766800  0.87305200  1
  O  O13  1  0.67146100  0.09251400  0.04724300  1
  O  O14  1  0.67560000  0.54233200  0.12694800  1
  O  O15  1  0.62049500  0.76501600  0.68045500  1
  O  O16  1  0.20473000  0.57378200  0.10516000  1
  O  O17  1  0.37728900  0.01033100  0.61868200  1
  O  O18  1  0.59051000  0.71021800  0.21683700  1
  O  O19  1  0.77182400  0.30655100  0.45714200  1
  O  O20  1  0.99730900  0.23121500  0.06961700  1
  O  O21  1  0.39970700  0.60884100  0.44717200  1
  O  O22  1  0.78823100  0.74869100  0.54296900  1
  O  O23  1  0.37950500  0.23498400  0.31954500  1
  O  O24  1  0.22817600  0.69344900  0.54285800  1
  O  O25  1  0.62271100  0.98966900  0.38131800  1
  O  O26  1  0.32853900  0.90748600  0.95275700  1
  O  O27  1  0.75364600  0.15160800  0.75266100  1
  O  O28  1  0.79527000  0.42621800  0.89484000  1
  O  O29  1  0.86804300  0.84424000  0.09574300  1
  O  O30  1  0.89340700  0.01673300  0.61042000  1
  O  O31  1  0.06616600  0.53382200  0.35542300  1
loop_
_geom_bond_atom_site_label_1
_geom_bond_atom_site_label_2
_geom_bond_distance
_geom_bond_site_symmetry_2
Mg0 O16 1.962562 1_556
Mg0 O12 2.026549 1_555
Mg0 O28 2.441083 1_455
Mg1 O7 1.815408 1_555
Mg1 O23 1.882618 1_555
Mg1 O19 2.130794 1_555
Mg1 O3 2.170806 1_555
Mg1 O13 2.256850 1_555
Mg1 O5 2.445596 1_555
Mg2 O17 1.960705 1_555
Mg2 O27 2.100734 1_555
Mg3 O25 1.960705 1_555
Mg3 O2 2.100734 1_555
Mg4 O19 2.008984 1_555
Mg4 O8 2.021725 1_655
Mg4 O9 2.189219 1_555
Mg5 O5 1.227019 1_555
Mg5 O15 2.145158 1_555
Mg6 O0 1.815965 1_665
Mg6 O20 2.154729 1_566
Mg6 O15 2.304679 1_555
Mg7 O21 1.227019 1_555
Mg7 O23 2.145158 1_555
Mg8 O11 1.815408 1_555
Mg8 O15 1.882618 1_555
Mg8 O24 2.130794 1_555
Mg8 O1 2.170806 1_555
Mg8 O26 2.256850 1_555
Mg8 O21 2.445596 1_555
Mg9 O29 1.815965 1_445
Mg9 O4 2.154729 1_544
Mg9 O23 2.304679 1_555
Mg10 O24 2.008984 1_555
Mg10 O22 2.021725 1_455
Mg10 O31 2.189219 1_555
Mg11 O28 1.962562 1_554
Mg11 O14 2.026549 1_555
Mg11 O16 2.441083 1_655
O0 P0 1.575680 1_555
O1 P1 1.251950 1_555
O3 P7 1.251950 1_555
O4 P1 1.641923 1_555
O5 P3 1.825577 1_555
O6 P0 1.407512 1_555
O8 P5 1.490135 1_555
O9 P3 1.366133 1_555
O10 P5 1.312023 1_565
O12 P0 1.864219 1_555
O13 P7 1.503279 1_555
O14 P2 1.864219 1_555
O15 P4 1.990299 1_555
O18 P2 1.407512 1_555
O19 P3 1.266569 1_555
O20 P7 1.641923 1_555
O21 P6 1.825577 1_555
O22 P4 1.490135 1_555
O23 P5 1.990299 1_555
O24 P6 1.266569 1_555
O26 P1 1.503279 1_555
O29 P2 1.575680 1_555
O30 P4 1.312023 1_545
O31 P6 1.366133 1_555
