# generated using pymatgen
data_Pr(FeSb3)5
_symmetry_space_group_name_H-M   'P 1'
_cell_length_a   15.17706975
_cell_length_b   15.17706975
_cell_length_c   15.17706968
_cell_angle_alpha   50.44522233
_cell_angle_beta   50.44522233
_cell_angle_gamma   50.44522286
_symmetry_Int_Tables_number   1
_chemical_formula_structural   Pr(FeSb3)5
_chemical_formula_sum   'Pr4 Fe20 Sb60'
_cell_volume   1914.48048971
_cell_formula_units_Z   4
loop_
 _symmetry_equiv_pos_site_id
 _symmetry_equiv_pos_as_xyz
  1  'x, y, z'
loop_
 _atom_site_type_symbol
 _atom_site_label
 _atom_site_symmetry_multiplicity
 _atom_site_fract_x
 _atom_site_fract_y
 _atom_site_fract_z
 _atom_site_occupancy
  Pr  Pr0  1  0.20025700  0.20025700  0.20025700  1
  Pr  Pr1  1  0.39995600  0.39995600  0.39995600  1
  Pr  Pr2  1  0.60004400  0.60004400  0.60004400  1
  Pr  Pr3  1  0.79974300  0.79974300  0.79974300  1
  Fe  Fe0  1  0.10094400  0.10094400  0.10094400  1
  Fe  Fe1  1  0.50000000  0.00000000  0.00000000  1
  Fe  Fe2  1  0.00000000  0.50000000  0.00000000  1
  Fe  Fe3  1  0.30009700  0.30009700  0.30009700  1
  Fe  Fe4  1  0.69710200  0.20185800  0.20199500  1
  Fe  Fe5  1  0.20199500  0.69710200  0.20185800  1
  Fe  Fe6  1  0.60017400  0.59983700  0.10037000  1
  Fe  Fe7  1  0.50000000  0.50000000  0.50000000  1
  Fe  Fe8  1  0.89963000  0.39982600  0.40016300  1
  Fe  Fe9  1  0.40016300  0.89963000  0.39982600  1
  Fe  Fe10  1  0.79814200  0.79800500  0.30289800  1
  Fe  Fe11  1  0.69990300  0.69990300  0.69990300  1
  Fe  Fe12  1  0.10037000  0.60017400  0.59983700  1
  Fe  Fe13  1  0.59983700  0.10037000  0.60017400  1
  Fe  Fe14  1  0.00000000  0.00000000  0.50000000  1
  Fe  Fe15  1  0.89905600  0.89905600  0.89905600  1
  Fe  Fe16  1  0.30289800  0.79814200  0.79800500  1
  Fe  Fe17  1  0.79800500  0.30289800  0.79814200  1
  Fe  Fe18  1  0.20185800  0.20199500  0.69710200  1
  Fe  Fe19  1  0.39982600  0.40016300  0.89963000  1
  Sb  Sb0  1  0.50223500  0.16507400  0.00209100  1
  Sb  Sb1  1  0.26313000  0.43703200  0.09986800  1
  Sb  Sb2  1  0.19393800  0.70418200  0.03407100  1
  Sb  Sb3  1  0.49947500  0.33619400  0.16510500  1
  Sb  Sb4  1  0.43461500  0.59751300  0.09969500  1
  Sb  Sb5  1  0.23178600  0.90206600  0.06212800  1
  Sb  Sb6  1  0.70029700  0.36572100  0.20246600  1
  Sb  Sb7  1  0.46364800  0.63513500  0.30032800  1
  Sb  Sb8  1  0.96510100  0.29976400  0.13605000  1
  Sb  Sb9  1  0.76572700  0.60248200  0.10034500  1
  Sb  Sb10  1  0.39751800  0.89965500  0.23427300  1
  Sb  Sb11  1  0.70023600  0.86395000  0.03489900  1
  Sb  Sb12  1  0.69967200  0.53635200  0.36486500  1
  Sb  Sb13  1  0.00209100  0.50223500  0.16507400  1
  Sb  Sb14  1  0.63427900  0.79753400  0.29970300  1
  Sb  Sb15  1  0.43703200  0.09986800  0.26313000  1
  Sb  Sb16  1  0.93787200  0.76821400  0.09793400  1
  Sb  Sb17  1  0.90030500  0.56538500  0.40248700  1
  Sb  Sb18  1  0.70418200  0.03407100  0.19393800  1
  Sb  Sb19  1  0.66380600  0.83489500  0.50052500  1
  Sb  Sb20  1  0.16510500  0.49947500  0.33619400  1
  Sb  Sb21  1  0.96592900  0.80606200  0.29581800  1
  Sb  Sb22  1  0.59751300  0.09969500  0.43461500  1
  Sb  Sb23  1  0.90206600  0.06212800  0.23178600  1
  Sb  Sb24  1  0.90013200  0.73687000  0.56296800  1
  Sb  Sb25  1  0.20246600  0.70029700  0.36572100  1
  Sb  Sb26  1  0.83492600  0.99790900  0.49776500  1
  Sb  Sb27  1  0.63513500  0.30032800  0.46364800  1
  Sb  Sb28  1  0.13605000  0.96510100  0.29976400  1
  Sb  Sb29  1  0.10034500  0.76572700  0.60248200  1
  Sb  Sb30  1  0.89965500  0.23427300  0.39751800  1
  Sb  Sb31  1  0.86395000  0.03489900  0.70023600  1
  Sb  Sb32  1  0.36486500  0.69967200  0.53635200  1
  Sb  Sb33  1  0.16507400  0.00209100  0.50223500  1
  Sb  Sb34  1  0.79753400  0.29970300  0.63427900  1
  Sb  Sb35  1  0.09986800  0.26313000  0.43703200  1
  Sb  Sb36  1  0.09793400  0.93787200  0.76821400  1
  Sb  Sb37  1  0.40248700  0.90030500  0.56538500  1
  Sb  Sb38  1  0.03407100  0.19393800  0.70418200  1
  Sb  Sb39  1  0.83489500  0.50052500  0.66380600  1
  Sb  Sb40  1  0.33619400  0.16510500  0.49947500  1
  Sb  Sb41  1  0.29581800  0.96592900  0.80606200  1
  Sb  Sb42  1  0.09969500  0.43461500  0.59751300  1
  Sb  Sb43  1  0.06212800  0.23178600  0.90206600  1
  Sb  Sb44  1  0.56296800  0.90013200  0.73687000  1
  Sb  Sb45  1  0.36572100  0.20246600  0.70029700  1
  Sb  Sb46  1  0.99790900  0.49776500  0.83492600  1
  Sb  Sb47  1  0.30032800  0.46364800  0.63513500  1
  Sb  Sb48  1  0.29976400  0.13605000  0.96510100  1
  Sb  Sb49  1  0.60248200  0.10034500  0.76572700  1
  Sb  Sb50  1  0.23427300  0.39751800  0.89965500  1
  Sb  Sb51  1  0.03489900  0.70023600  0.86395000  1
  Sb  Sb52  1  0.53635200  0.36486500  0.69967200  1
  Sb  Sb53  1  0.29970300  0.63427900  0.79753400  1
  Sb  Sb54  1  0.76821400  0.09793400  0.93787200  1
  Sb  Sb55  1  0.56538500  0.40248700  0.90030500  1
  Sb  Sb56  1  0.50052500  0.66380600  0.83489500  1
  Sb  Sb57  1  0.80606200  0.29581800  0.96592900  1
  Sb  Sb58  1  0.73687000  0.56296800  0.90013200  1
  Sb  Sb59  1  0.49776500  0.83492600  0.99790900  1
loop_
_geom_bond_atom_site_label_1
_geom_bond_atom_site_label_2
_geom_bond_distance
_geom_bond_site_symmetry_2
Pr0 Sb50 3.408286 1_554
Pr0 Sb30 3.408286 1_455
Pr0 Sb10 3.408286 1_545
Pr0 Sb48 3.414430 1_554
Pr0 Sb28 3.414430 1_545
Pr0 Sb8 3.414430 1_455
Pr0 Sb35 3.418752 1_555
Pr0 Sb1 3.418752 1_555
Pr0 Sb15 3.418752 1_555
Pr0 Sb33 3.421752 1_555
Pr0 Sb0 3.421752 1_555
Pr0 Sb13 3.421752 1_555
Pr1 Sb4 3.403961 1_555
Pr1 Sb42 3.403961 1_555
Pr1 Sb22 3.403961 1_555
Pr1 Sb3 3.405463 1_555
Pr1 Sb40 3.405463 1_555
Pr1 Sb20 3.405463 1_555
Pr1 Sb45 3.405548 1_555
Pr1 Sb6 3.405548 1_555
Pr1 Sb25 3.405548 1_555
Pr1 Sb47 3.408791 1_555
Pr1 Sb7 3.408791 1_555
Pr1 Sb27 3.408791 1_555
Pr2 Sb55 3.403961 1_555
Pr2 Sb17 3.403961 1_555
Pr2 Sb37 3.403961 1_555
Pr2 Sb56 3.405463 1_555
Pr2 Sb19 3.405463 1_555
Pr2 Sb39 3.405463 1_555
Pr2 Sb14 3.405548 1_555
Pr2 Sb53 3.405548 1_555
Pr2 Sb34 3.405548 1_555
Pr2 Sb12 3.408791 1_555
Pr2 Sb52 3.408791 1_555
Pr2 Sb32 3.408791 1_555
Pr3 Sb9 3.408286 1_556
Pr3 Sb29 3.408286 1_655
Pr3 Sb49 3.408286 1_565
Pr3 Sb11 3.414430 1_556
Pr3 Sb31 3.414430 1_565
Pr3 Sb51 3.414430 1_655
Pr3 Sb24 3.418752 1_555
Pr3 Sb58 3.418752 1_555
Pr3 Sb44 3.418752 1_555
Pr3 Sb26 3.421752 1_555
Pr3 Sb59 3.421752 1_555
Pr3 Sb46 3.421752 1_555
Fe0 Sb28 2.522882 1_545
Fe0 Sb48 2.522882 1_554
Fe0 Sb8 2.522882 1_455
Fe0 Sb43 2.557702 1_554
Fe0 Sb23 2.557702 1_455
Fe0 Sb5 2.557702 1_545
Fe1 Sb11 2.538637 1_545
Fe1 Sb48 2.538637 1_554
Fe1 Sb49 2.541150 1_554
Fe1 Sb10 2.541150 1_545
Fe1 Sb0 2.547500 1_555
Fe1 Sb59 2.547500 1_544
Fe2 Sb51 2.538637 1_554
Fe2 Sb8 2.538637 1_455
Fe2 Sb9 2.541150 1_455
Fe2 Sb50 2.541150 1_554
Fe2 Sb13 2.547500 1_555
Fe2 Sb46 2.547500 1_454
Fe3 Sb40 2.537725 1_555
Fe3 Sb3 2.537725 1_555
Fe3 Sb20 2.537725 1_555
Fe3 Sb1 2.551760 1_555
Fe3 Sb35 2.551760 1_555
Fe3 Sb15 2.551760 1_555
Fe4 Sb3 2.522511 1_555
Fe4 Sb6 2.522707 1_555
Fe4 Sb22 2.523785 1_555
Fe4 Sb18 2.557850 1_555
Fe4 Sb23 2.558633 1_555
Fe4 Sb57 2.560254 1_554
Fe5 Sb20 2.522511 1_555
Fe5 Sb25 2.522707 1_555
Fe5 Sb4 2.523785 1_555
Fe5 Sb2 2.557850 1_555
Fe5 Sb5 2.558633 1_555
Fe5 Sb21 2.560254 1_455
Fe6 Sb7 2.537374 1_555
Fe6 Sb9 2.538119 1_555
Fe6 Sb6 2.538731 1_555
Fe6 Sb4 2.541876 1_555
Fe6 Sb58 2.551493 1_554
Fe6 Sb59 2.552065 1_554
Fe7 Sb52 2.542957 1_555
Fe7 Sb7 2.542957 1_555
Fe7 Sb12 2.542957 1_555
Fe7 Sb47 2.542957 1_555
Fe7 Sb32 2.542957 1_555
Fe7 Sb27 2.542957 1_555
Fe8 Sb12 2.537374 1_555
Fe8 Sb30 2.538119 1_555
Fe8 Sb34 2.538731 1_555
Fe8 Sb17 2.541876 1_555
Fe8 Sb35 2.551493 1_655
Fe8 Sb13 2.552065 1_655
Fe9 Sb32 2.537374 1_555
Fe9 Sb10 2.538119 1_555
Fe9 Sb14 2.538731 1_555
Fe9 Sb37 2.541876 1_555
Fe9 Sb15 2.551493 1_565
Fe9 Sb33 2.552065 1_565
Fe10 Sb19 2.522511 1_555
Fe10 Sb14 2.522707 1_555
Fe10 Sb17 2.523785 1_555
Fe10 Sb21 2.557850 1_555
Fe10 Sb16 2.558633 1_555
Fe10 Sb18 2.560254 1_565
Fe11 Sb19 2.537725 1_555
Fe11 Sb56 2.537725 1_555
Fe11 Sb39 2.537725 1_555
Fe11 Sb58 2.551760 1_555
Fe11 Sb24 2.551760 1_555
Fe11 Sb44 2.551760 1_555
Fe12 Sb47 2.537374 1_555
Fe12 Sb29 2.538119 1_555
Fe12 Sb25 2.538731 1_555
Fe12 Sb42 2.541876 1_555
Fe12 Sb24 2.551493 1_455
Fe12 Sb46 2.552065 1_455
Fe13 Sb27 2.537374 1_555
Fe13 Sb49 2.538119 1_555
Fe13 Sb45 2.538731 1_555
Fe13 Sb22 2.541876 1_555
Fe13 Sb44 2.551493 1_545
Fe13 Sb26 2.552065 1_545
Fe14 Sb31 2.538637 1_455
Fe14 Sb28 2.538637 1_545
Fe14 Sb29 2.541150 1_545
Fe14 Sb30 2.541150 1_455
Fe14 Sb33 2.547500 1_555
Fe14 Sb26 2.547500 1_445
Fe15 Sb31 2.522882 1_565
Fe15 Sb11 2.522882 1_556
Fe15 Sb51 2.522882 1_655
Fe15 Sb16 2.557702 1_556
Fe15 Sb36 2.557702 1_655
Fe15 Sb54 2.557702 1_565
Fe16 Sb56 2.522511 1_555
Fe16 Sb53 2.522707 1_555
Fe16 Sb37 2.523785 1_555
Fe16 Sb41 2.557850 1_555
Fe16 Sb36 2.558633 1_555
Fe16 Sb2 2.560254 1_556
Fe17 Sb39 2.522511 1_555
Fe17 Sb34 2.522707 1_555
Fe17 Sb55 2.523785 1_555
Fe17 Sb57 2.557850 1_555
Fe17 Sb54 2.558633 1_555
Fe17 Sb38 2.560254 1_655
Fe18 Sb40 2.522511 1_555
Fe18 Sb45 2.522707 1_555
Fe18 Sb42 2.523785 1_555
Fe18 Sb38 2.557850 1_555
Fe18 Sb43 2.558633 1_555
Fe18 Sb41 2.560254 1_545
Fe19 Sb52 2.537374 1_555
Fe19 Sb50 2.538119 1_555
Fe19 Sb53 2.538731 1_555
Fe19 Sb55 2.541876 1_555
Fe19 Sb1 2.551493 1_556
Fe19 Sb0 2.552065 1_556
Sb10 Sb28 2.989262 1_555
Sb10 Sb7 3.025438 1_555
Sb11 Sb9 2.989262 1_555
Sb12 Sb9 3.025438 1_555
Sb27 Sb30 3.025438 1_555
Sb29 Sb51 2.989262 1_555
Sb29 Sb32 3.025438 1_555
Sb30 Sb8 2.989262 1_555
Sb31 Sb49 2.989262 1_555
Sb47 Sb50 3.025438 1_555
Sb48 Sb50 2.989262 1_555
Sb49 Sb52 3.025438 1_555
