# generated using pymatgen
data_Ba3MgRu2O9
_symmetry_space_group_name_H-M   'P 1'
_cell_length_a   5.85598185
_cell_length_b   5.85598185
_cell_length_c   14.12379700
_cell_angle_alpha   90.00000000
_cell_angle_beta   90.00000000
_cell_angle_gamma   119.99999828
_symmetry_Int_Tables_number   1
_chemical_formula_structural   Ba3MgRu2O9
_chemical_formula_sum   'Ba6 Mg2 Ru4 O18'
_cell_volume   419.45130482
_cell_formula_units_Z   2
loop_
 _symmetry_equiv_pos_site_id
 _symmetry_equiv_pos_as_xyz
  1  'x, y, z'
loop_
 _atom_site_type_symbol
 _atom_site_label
 _atom_site_symmetry_multiplicity
 _atom_site_fract_x
 _atom_site_fract_y
 _atom_site_fract_z
 _atom_site_occupancy
  Ba  Ba0  1  0.33333300  0.66666700  0.41136900  1
  Ba  Ba1  1  0.66666700  0.33333300  0.91136900  1
  Ba  Ba2  1  0.66666700  0.33333300  0.58863100  1
  Ba  Ba3  1  0.33333300  0.66666700  0.08863100  1
  Ba  Ba4  1  0.00000000  0.00000000  0.75000000  1
  Ba  Ba5  1  0.00000000  0.00000000  0.25000000  1
  Mg  Mg0  1  0.00000000  0.00000000  0.00000000  1
  Mg  Mg1  1  0.00000000  0.00000000  0.50000000  1
  Ru  Ru0  1  0.66666700  0.33333300  0.33919900  1
  Ru  Ru1  1  0.33333300  0.66666700  0.83919900  1
  Ru  Ru2  1  0.66666700  0.33333300  0.16080100  1
  Ru  Ru3  1  0.33333300  0.66666700  0.66080100  1
  O  O0  1  0.82707800  0.65415500  0.41475400  1
  O  O1  1  0.34584500  0.17292200  0.41475400  1
  O  O2  1  0.82707800  0.17292200  0.41475400  1
  O  O3  1  0.17292200  0.82707800  0.91475400  1
  O  O4  1  0.17292200  0.82707800  0.58524600  1
  O  O5  1  0.17292200  0.34584500  0.91475400  1
  O  O6  1  0.65415500  0.82707800  0.91475400  1
  O  O7  1  0.34584500  0.17292200  0.08524600  1
  O  O8  1  0.82707800  0.65415500  0.08524600  1
  O  O9  1  0.17292200  0.34584500  0.58524600  1
  O  O10  1  0.65415500  0.82707800  0.58524600  1
  O  O11  1  0.82707800  0.17292200  0.08524600  1
  O  O12  1  0.50771400  0.49228600  0.25000000  1
  O  O13  1  0.01542900  0.50771400  0.75000000  1
  O  O14  1  0.49228600  0.98457100  0.75000000  1
  O  O15  1  0.50771400  0.01542900  0.25000000  1
  O  O16  1  0.98457100  0.49228600  0.25000000  1
  O  O17  1  0.49228600  0.50771400  0.75000000  1
loop_
_geom_bond_atom_site_label_1
_geom_bond_atom_site_label_2
_geom_bond_distance
_geom_bond_site_symmetry_2
Ba0 O12 2.884938 1_555
Ba0 O15 2.884938 1_565
Ba0 O16 2.884938 1_455
Ba0 O1 2.929063 1_565
Ba0 O0 2.929063 1_455
Ba0 O2 2.929068 1_455
Ba0 O2 2.929068 1_565
Ba0 O0 2.929074 1_555
Ba0 O1 2.929074 1_555
Ba0 O4 2.945876 1_555
Ba0 O10 2.945876 1_555
Ba0 O9 2.945876 1_555
Ba1 O17 2.884938 1_555
Ba1 O13 2.884938 1_655
Ba1 O14 2.884938 1_545
Ba1 O5 2.929063 1_655
Ba1 O6 2.929063 1_545
Ba1 O3 2.929068 1_545
Ba1 O3 2.929068 1_655
Ba1 O6 2.929074 1_555
Ba1 O5 2.929074 1_555
Ba1 O11 2.945876 1_556
Ba1 O7 2.945876 1_556
Ba1 O8 2.945876 1_556
Ba2 O17 2.884938 1_555
Ba2 O13 2.884938 1_655
Ba2 O14 2.884938 1_545
Ba2 O9 2.929063 1_655
Ba2 O10 2.929063 1_545
Ba2 O4 2.929068 1_655
Ba2 O4 2.929068 1_545
Ba2 O10 2.929074 1_555
Ba2 O9 2.929074 1_555
Ba2 O2 2.945876 1_555
Ba2 O0 2.945876 1_555
Ba2 O1 2.945876 1_555
Ba3 O12 2.884938 1_555
Ba3 O15 2.884938 1_565
Ba3 O16 2.884938 1_455
Ba3 O7 2.929063 1_565
Ba3 O8 2.929063 1_455
Ba3 O11 2.929068 1_455
Ba3 O11 2.929068 1_565
Ba3 O8 2.929074 1_555
Ba3 O7 2.929074 1_555
Ba3 O3 2.945876 1_554
Ba3 O6 2.945876 1_554
Ba3 O5 2.945876 1_554
Ba4 O4 2.913924 1_545
Ba4 O3 2.913924 1_545
Ba4 O9 2.913927 1_555
Ba4 O5 2.913927 1_555
Ba4 O10 2.913927 1_445
Ba4 O6 2.913927 1_445
Ba4 O14 2.929033 1_445
Ba4 O13 2.929033 1_555
Ba4 O17 2.929036 1_445
Ba4 O17 2.929036 1_555
Ba4 O13 2.929039 1_545
Ba4 O14 2.929039 1_545
Ba5 O2 2.913924 1_455
Ba5 O11 2.913924 1_455
Ba5 O7 2.913927 1_555
Ba5 O8 2.913927 1_445
Ba5 O0 2.913927 1_445
Ba5 O1 2.913927 1_555
Ba5 O15 2.929033 1_555
Ba5 O16 2.929033 1_445
Ba5 O12 2.929036 1_555
Ba5 O12 2.929036 1_445
Ba5 O15 2.929039 1_455
Ba5 O16 2.929039 1_455
Mg0 O11 2.127406 1_455
Mg0 O3 2.127406 1_544
Mg0 O5 2.127410 1_554
Mg0 O7 2.127410 1_555
Mg0 O8 2.127410 1_445
Mg0 O6 2.127410 1_444
Mg1 O2 2.127406 1_455
Mg1 O4 2.127406 1_545
Mg1 O0 2.127410 1_445
Mg1 O1 2.127410 1_555
Mg1 O10 2.127410 1_445
Mg1 O9 2.127410 1_555
O0 Ru0 1.945756 1_555
O1 Ru0 1.945756 1_555
O2 Ru0 1.945756 1_555
O3 Ru1 1.945756 1_555
O4 Ru3 1.945756 1_555
O5 Ru1 1.945756 1_555
O6 Ru1 1.945756 1_555
O7 Ru2 1.945756 1_555
O8 Ru2 1.945756 1_555
O9 Ru3 1.945756 1_555
O10 Ru3 1.945756 1_555
O11 Ru2 1.945756 1_555
O12 Ru0 2.046089 1_555
O12 Ru2 2.046089 1_555
O13 Ru3 2.046081 1_555
O13 Ru1 2.046081 1_555
O14 Ru3 2.046081 1_555
O14 Ru1 2.046081 1_555
O15 Ru2 2.046081 1_555
O15 Ru0 2.046081 1_555
O16 Ru2 2.046081 1_555
O16 Ru0 2.046081 1_555
O17 Ru1 2.046089 1_555
O17 Ru3 2.046089 1_555
