# generated using pymatgen
data_Pr(In2Au)2
_symmetry_space_group_name_H-M   'P 1'
_cell_length_a   4.73648000
_cell_length_b   7.50788600
_cell_length_c   18.96184000
_cell_angle_alpha   90.00000000
_cell_angle_beta   90.00000000
_cell_angle_gamma   90.00000000
_symmetry_Int_Tables_number   1
_chemical_formula_structural   Pr(In2Au)2
_chemical_formula_sum   'Pr4 In16 Au8'
_cell_volume   674.30107982
_cell_formula_units_Z   4
loop_
 _symmetry_equiv_pos_site_id
 _symmetry_equiv_pos_as_xyz
  1  'x, y, z'
loop_
 _atom_site_type_symbol
 _atom_site_label
 _atom_site_symmetry_multiplicity
 _atom_site_fract_x
 _atom_site_fract_y
 _atom_site_fract_z
 _atom_site_occupancy
  Pr  Pr0  1  0.75000000  0.02620200  0.14165600  1
  Pr  Pr1  1  0.75000000  0.47379800  0.64165600  1
  Pr  Pr2  1  0.25000000  0.52620200  0.35834400  1
  Pr  Pr3  1  0.25000000  0.97379800  0.85834400  1
  In  In0  1  0.25000000  0.73443500  0.18830100  1
  In  In1  1  0.25000000  0.76556500  0.68830100  1
  In  In2  1  0.75000000  0.23443500  0.31169900  1
  In  In3  1  0.25000000  0.50850700  0.93128400  1
  In  In4  1  0.25000000  0.17439800  0.68490200  1
  In  In5  1  0.75000000  0.67439800  0.81509800  1
  In  In6  1  0.75000000  0.35070900  0.46480500  1
  In  In7  1  0.75000000  0.26556500  0.81169900  1
  In  In8  1  0.75000000  0.00850700  0.56871600  1
  In  In9  1  0.25000000  0.85070900  0.03519500  1
  In  In10  1  0.75000000  0.82560200  0.31509800  1
  In  In11  1  0.75000000  0.49149300  0.06871600  1
  In  In12  1  0.25000000  0.32560200  0.18490200  1
  In  In13  1  0.25000000  0.64929100  0.53519500  1
  In  In14  1  0.75000000  0.14929100  0.96480500  1
  In  In15  1  0.25000000  0.99149300  0.43128400  1
  Au  Au0  1  0.25000000  0.25736500  0.53955100  1
  Au  Au1  1  0.25000000  0.46732300  0.78099500  1
  Au  Au2  1  0.75000000  0.75736500  0.96044900  1
  Au  Au3  1  0.75000000  0.96732300  0.71900500  1
  Au  Au4  1  0.25000000  0.24263500  0.03955100  1
  Au  Au5  1  0.75000000  0.74263500  0.46044900  1
  Au  Au6  1  0.25000000  0.03267700  0.28099500  1
  Au  Au7  1  0.75000000  0.53267700  0.21900500  1
loop_
_geom_bond_atom_site_label_1
_geom_bond_atom_site_label_2
_geom_bond_distance
_geom_bond_site_symmetry_2
In0 In9 3.031581 1_555
In0 In12 3.070148 1_555
In0 Pr0 3.345053 1_565
In0 Pr0 3.345053 1_465
In0 In10 3.443507 1_455
In0 In10 3.443507 1_555
In0 Pr2 3.583361 1_555
In1 In13 3.031581 1_555
In1 In4 3.070148 1_565
In1 Pr1 3.345053 1_555
In1 Pr1 3.345053 1_455
In1 In5 3.443507 1_455
In1 In5 3.443507 1_555
In1 Pr3 3.583361 1_555
In2 In6 3.031581 1_555
In2 Pr2 3.345053 1_555
In2 Pr2 3.345053 1_655
In2 Pr0 3.583361 1_555
In3 In9 3.237764 1_556
In3 In5 3.466044 1_555
In3 In5 3.466044 1_455
In3 Pr3 3.757181 1_555
In4 Pr1 3.366583 1_555
In4 Pr1 3.366583 1_455
In4 In7 3.443507 1_455
In4 In7 3.443507 1_555
In4 In8 3.466044 1_455
In4 In8 3.466044 1_555
In4 Pr3 3.617230 1_545
In5 In7 3.070148 1_555
In5 Pr3 3.366583 1_555
In5 Pr3 3.366583 1_655
In5 Pr1 3.617230 1_555
In6 In8 3.237764 1_555
In6 Pr2 3.379307 1_555
In6 Pr2 3.379307 1_655
In6 Pr1 3.478428 1_555
In7 Pr3 3.345053 1_645
In7 Pr3 3.345053 1_545
In7 Pr1 3.583361 1_555
In8 Pr1 3.757181 1_555
In9 Pr0 3.379307 1_465
In9 Pr0 3.379307 1_565
In9 Pr3 3.478428 1_554
In10 In2 3.070148 1_565
In10 Pr2 3.366583 1_655
In10 Pr2 3.366583 1_555
In10 In15 3.466044 1_655
In10 In15 3.466044 1_555
In10 Pr0 3.617230 1_565
In11 In14 3.237764 1_554
In11 In12 3.466044 1_555
In11 In12 3.466044 1_655
In11 Pr0 3.757181 1_555
In12 Pr0 3.366583 1_455
In12 Pr0 3.366583 1_555
In12 In2 3.443507 1_455
In12 In2 3.443507 1_555
In12 Pr2 3.617230 1_555
In13 In15 3.237764 1_555
In13 Pr1 3.379307 1_455
In13 Pr1 3.379307 1_555
In13 Pr2 3.478428 1_555
In14 In7 3.031581 1_555
In14 Pr3 3.379307 1_645
In14 Pr3 3.379307 1_545
In14 Pr0 3.478428 1_556
In15 Pr2 3.757181 1_555
Au0 In4 2.825637 1_555
Au0 In6 2.847544 1_555
Au0 In6 2.847544 1_455
Au0 In15 2.863412 1_545
Au0 In13 2.943695 1_555
Au0 In8 3.066807 1_455
Au0 In8 3.066807 1_555
Au0 Pr1 3.463743 1_555
Au0 Pr1 3.463743 1_455
Au1 In1 2.846612 1_555
Au1 In4 2.856000 1_555
Au1 In3 2.866482 1_555
Au1 In7 2.870900 1_455
Au1 In7 2.870900 1_555
Au1 In5 2.905822 1_555
Au1 In5 2.905822 1_455
Au1 Pr1 3.548485 1_555
Au1 Pr1 3.548485 1_455
Au2 In5 2.825637 1_555
Au2 In9 2.847544 1_656
Au2 In9 2.847544 1_556
Au2 In11 2.863412 1_556
Au2 In14 2.943695 1_565
Au2 In3 3.066807 1_555
Au2 In3 3.066807 1_655
Au2 Pr3 3.463743 1_555
Au2 Pr3 3.463743 1_655
Au3 In7 2.846612 1_565
Au3 In5 2.856000 1_555
Au3 In8 2.866482 1_565
Au3 In1 2.870900 1_555
Au3 In1 2.870900 1_655
Au3 In4 2.905822 1_565
Au3 In4 2.905822 1_665
Au3 Pr3 3.548485 1_555
Au3 Pr3 3.548485 1_655
Au4 In12 2.825637 1_555
Au4 In14 2.847544 1_554
Au4 In14 2.847544 1_454
Au4 In3 2.863412 1_554
Au4 In9 2.943695 1_545
Au4 In11 3.066807 1_555
Au4 In11 3.066807 1_455
Au4 Pr0 3.463743 1_455
Au4 Pr0 3.463743 1_555
Au5 In10 2.825637 1_555
Au5 In13 2.847544 1_555
Au5 In13 2.847544 1_655
Au5 In8 2.863412 1_565
Au5 In6 2.943695 1_555
Au5 In15 3.066807 1_555
Au5 In15 3.066807 1_655
Au5 Pr2 3.463743 1_655
Au5 Pr2 3.463743 1_555
Au6 In0 2.846612 1_545
Au6 In12 2.856000 1_555
Au6 In15 2.866482 1_545
Au6 In2 2.870900 1_455
Au6 In2 2.870900 1_555
Au6 In10 2.905822 1_445
Au6 In10 2.905822 1_545
Au6 Pr0 3.548485 1_455
Au6 Pr0 3.548485 1_555
Au7 In2 2.846612 1_555
Au7 In10 2.856000 1_555
Au7 In11 2.866482 1_555
Au7 In0 2.870900 1_555
Au7 In0 2.870900 1_655
Au7 In12 2.905822 1_555
Au7 In12 2.905822 1_655
Au7 Pr2 3.548485 1_555
Au7 Pr2 3.548485 1_655
