# generated using pymatgen
data_Na(CoO2)3
_symmetry_space_group_name_H-M   'P 1'
_cell_length_a   6.89936744
_cell_length_b   3.98335204
_cell_length_c   8.02422197
_cell_angle_alpha   75.62850121
_cell_angle_beta   73.34512556
_cell_angle_gamma   29.99999966
_symmetry_Int_Tables_number   1
_chemical_formula_structural   Na(CoO2)3
_chemical_formula_sum   'Na2 Co6 O12'
_cell_volume   105.63757002
_cell_formula_units_Z   2
loop_
 _symmetry_equiv_pos_site_id
 _symmetry_equiv_pos_as_xyz
  1  'x, y, z'
loop_
 _atom_site_type_symbol
 _atom_site_label
 _atom_site_symmetry_multiplicity
 _atom_site_fract_x
 _atom_site_fract_y
 _atom_site_fract_z
 _atom_site_occupancy
  Na  Na0  1  0.08502100  0.33333300  0.74493600  1
  Na  Na1  1  0.74831200  0.33333300  0.75506400  1
  Co  Co0  1  0.99038100  0.93955600  0.07026400  1
  Co  Co1  1  0.23673000  0.93955600  0.42973600  1
  Co  Co2  1  0.34275100  0.98096300  0.07026400  1
  Co  Co3  1  0.59660400  0.07948100  0.07026400  1
  Co  Co4  1  0.49058200  0.07948100  0.42973600  1
  Co  Co5  1  0.84295200  0.98096300  0.42973600  1
  O  O0  1  0.94568800  0.33333300  0.16293700  1
  O  O1  1  0.58676900  0.33333300  0.23969300  1
  O  O2  1  0.75242800  0.55785500  0.92631300  1
  O  O3  1  0.85638400  0.55785500  0.57368700  1
  O  O4  1  0.44309700  0.33333300  0.67071000  1
  O  O5  1  0.39023600  0.33333300  0.82929000  1
  O  O6  1  0.97695000  0.70069200  0.92631300  1
  O  O7  1  0.08090500  0.74145400  0.57368700  1
  O  O8  1  0.24656400  0.33333300  0.26030700  1
  O  O9  1  0.88764600  0.33333300  0.33706300  1
  O  O10  1  0.34430900  0.74145400  0.92631300  1
  O  O11  1  0.48902400  0.70069200  0.57368700  1
loop_
_geom_bond_atom_site_label_1
_geom_bond_atom_site_label_2
_geom_bond_distance
_geom_bond_site_symmetry_2
Na0 O2 1.833260 1_455
Na0 O10 1.833260 1_545
Na0 O6 1.833263 1_455
Na0 O3 1.834488 1_455
Na0 O11 1.834493 1_545
Na0 O7 1.834498 1_555
Na1 O7 1.833259 1_645
Na1 O11 1.833263 1_555
Na1 O3 1.833265 1_555
Na1 O10 1.834490 1_555
Na1 O2 1.834493 1_555
Na1 O6 1.834493 1_545
Co0 O0 1.648719 1_565
Co0 O2 1.663360 1_564
Co0 O6 1.734300 1_554
Co0 O1 1.840152 1_565
Co0 O10 1.848752 1_654
Co0 O8 1.898708 1_655
Co1 O9 1.648719 1_465
Co1 O3 1.663360 1_465
Co1 O11 1.734295 1_555
Co1 O8 1.840148 1_565
Co1 O7 1.848747 1_555
Co1 O1 1.898708 1_555
Co2 O0 1.648715 1_465
Co2 O10 1.663354 1_554
Co2 O2 1.734300 1_554
Co2 O1 1.840152 1_555
Co2 O6 1.848748 1_464
Co2 O8 1.898707 1_565
Co3 O0 1.648720 1_545
Co3 O6 1.663359 1_544
Co3 O10 1.734302 1_554
Co3 O1 1.840150 1_555
Co3 O2 1.848751 1_544
Co3 O8 1.898710 1_555
Co4 O9 1.648719 1_545
Co4 O11 1.663363 1_545
Co4 O7 1.734301 1_555
Co4 O8 1.840154 1_555
Co4 O3 1.848751 1_545
Co4 O1 1.898706 1_555
Co5 O9 1.648721 1_565
Co5 O7 1.663364 1_655
Co5 O3 1.734296 1_555
Co5 O8 1.840152 1_655
Co5 O11 1.848748 1_565
Co5 O1 1.898707 1_565
O0 O9 1.338610 1_555
O4 O5 1.219099 1_555
