# generated using pymatgen
data_Fe5Te6(ClO9)2
_symmetry_space_group_name_H-M   'P 1'
_cell_length_a   4.97610300
_cell_length_b   9.36193732
_cell_length_c   10.63963932
_cell_angle_alpha   106.04243072
_cell_angle_beta   90.79964152
_cell_angle_gamma   104.02069801
_symmetry_Int_Tables_number   1
_chemical_formula_structural   Fe5Te6(ClO9)2
_chemical_formula_sum   'Fe5 Te6 Cl2 O18'
_cell_volume   460.42098869
_cell_formula_units_Z   1
loop_
 _symmetry_equiv_pos_site_id
 _symmetry_equiv_pos_as_xyz
  1  'x, y, z'
loop_
 _atom_site_type_symbol
 _atom_site_label
 _atom_site_symmetry_multiplicity
 _atom_site_fract_x
 _atom_site_fract_y
 _atom_site_fract_z
 _atom_site_occupancy
  Fe  Fe0  1  0.29307200  0.58610300  0.04579100  1
  Fe  Fe1  1  0.50814700  0.08415000  0.80167400  1
  Fe  Fe2  1  0.49185300  0.91585000  0.19832600  1
  Fe  Fe3  1  0.00000000  0.00000000  0.50000000  1
  Fe  Fe4  1  0.70692800  0.41389700  0.95420900  1
  Te  Te0  1  0.18040700  0.35051800  0.70279100  1
  Te  Te1  1  0.91164000  0.80122700  0.93072000  1
  Te  Te2  1  0.81959300  0.64948200  0.29720900  1
  Te  Te3  1  0.08836000  0.19877300  0.06928000  1
  Te  Te4  1  0.40953900  0.76601300  0.60722800  1
  Te  Te5  1  0.59046100  0.23398700  0.39277200  1
  Cl  Cl0  1  0.76084700  0.55323100  0.63214600  1
  Cl  Cl1  1  0.23915300  0.44676900  0.36785400  1
  O  O0  1  0.45718200  0.29044100  0.79034600  1
  O  O1  1  0.90461900  0.15815000  0.66595600  1
  O  O2  1  0.63053800  0.61644900  0.94405100  1
  O  O3  1  0.21197500  0.05774600  0.93065400  1
  O  O4  1  0.72861800  0.05218900  0.37600100  1
  O  O5  1  0.27138200  0.94781100  0.62399900  1
  O  O6  1  0.78802500  0.94225400  0.06934600  1
  O  O7  1  0.58585200  0.87609700  0.77914000  1
  O  O8  1  0.41414800  0.12390300  0.22086000  1
  O  O9  1  0.54281800  0.70955900  0.20965400  1
  O  O10  1  0.36946200  0.38355100  0.05594900  1
  O  O11  1  0.06176600  0.46685700  0.86906400  1
  O  O12  1  0.70106700  0.81864800  0.50025900  1
  O  O13  1  0.09538100  0.84185000  0.33404400  1
  O  O14  1  0.79621100  0.21802200  0.95466800  1
  O  O15  1  0.20378900  0.78197800  0.04533200  1
  O  O16  1  0.93823400  0.53314300  0.13093600  1
  O  O17  1  0.29893300  0.18135200  0.49974100  1
loop_
_geom_bond_atom_site_label_1
_geom_bond_atom_site_label_2
_geom_bond_distance
_geom_bond_site_symmetry_2
Fe0 O15 1.989918 1_555
Fe0 O9 2.012392 1_555
Fe0 O16 2.013190 1_455
Fe0 O2 2.015427 1_554
Fe0 O10 2.052668 1_555
Fe0 O11 2.064815 1_554
Fe1 O7 2.027376 1_545
Fe1 O0 2.042993 1_555
Fe1 O3 2.045425 1_555
Fe1 O14 2.052325 1_555
Fe1 O5 2.113395 1_545
Fe1 O1 2.535249 1_555
Fe2 O8 2.027376 1_565
Fe2 O9 2.042993 1_555
Fe2 O6 2.045425 1_555
Fe2 O15 2.052325 1_555
Fe2 O4 2.113395 1_565
Fe2 O13 2.535249 1_555
Fe3 O12 1.968310 1_445
Fe3 O17 1.968310 1_555
Fe3 O4 2.104561 1_455
Fe3 O5 2.104561 1_545
Fe3 O13 2.110482 1_545
Fe3 O1 2.110482 1_455
Fe4 O14 1.989918 1_555
Fe4 O0 2.012392 1_555
Fe4 O11 2.013190 1_655
Fe4 O10 2.015427 1_556
Fe4 O2 2.052668 1_555
Fe4 O16 2.064815 1_556
Cl0 Te4 3.010134 1_555
Cl1 Te5 3.010134 1_555
O0 Te0 1.926158 1_555
O1 Te0 1.917718 1_655
O2 Te1 1.984414 1_555
O3 Te3 1.907748 1_556
O3 Te1 2.502539 1_445
O4 Te5 1.950319 1_555
O5 Te4 1.950319 1_555
O6 Te1 1.907748 1_554
O6 Te3 2.502539 1_665
O7 Te4 1.911188 1_555
O7 Te1 2.612055 1_555
O8 Te5 1.911188 1_555
O8 Te3 2.612055 1_555
O9 Te2 1.926158 1_555
O10 Te3 1.984414 1_555
O11 Te0 1.985002 1_555
O12 Te4 1.911085 1_555
O12 Te2 2.473947 1_555
O13 Te2 1.917718 1_455
O14 Te3 1.957506 1_656
O15 Te1 1.957506 1_454
O16 Te2 1.985002 1_555
O17 Te5 1.911085 1_555
O17 Te0 2.473947 1_555
