# generated using pymatgen
data_SiO2
_symmetry_space_group_name_H-M   'P 1'
_cell_length_a   8.17881564
_cell_length_b   8.17881564
_cell_length_c   8.17881564
_cell_angle_alpha   60.00000000
_cell_angle_beta   60.00000000
_cell_angle_gamma   60.00000000
_symmetry_Int_Tables_number   1
_chemical_formula_structural   SiO2
_chemical_formula_sum   'Si12 O24'
_cell_volume   386.86216534
_cell_formula_units_Z   12
loop_
 _symmetry_equiv_pos_site_id
 _symmetry_equiv_pos_as_xyz
  1  'x, y, z'
loop_
 _atom_site_type_symbol
 _atom_site_label
 _atom_site_symmetry_multiplicity
 _atom_site_fract_x
 _atom_site_fract_y
 _atom_site_fract_z
 _atom_site_occupancy
  Si  Si0  1  0.36661400  0.12500000  0.62500000  1
  Si  Si1  1  0.88338600  0.12500000  0.36661400  1
  Si  Si2  1  0.12500000  0.62500000  0.36661400  1
  Si  Si3  1  0.36661400  0.88338600  0.12500000  1
  Si  Si4  1  0.12500000  0.88338600  0.62500000  1
  Si  Si5  1  0.12500000  0.36661400  0.88338600  1
  Si  Si6  1  0.62500000  0.88338600  0.36661400  1
  Si  Si7  1  0.62500000  0.12500000  0.88338600  1
  Si  Si8  1  0.88338600  0.62500000  0.12500000  1
  Si  Si9  1  0.62500000  0.36661400  0.12500000  1
  Si  Si10  1  0.88338600  0.36661400  0.62500000  1
  Si  Si11  1  0.36661400  0.62500000  0.88338600  1
  O  O0  1  0.28797300  0.96202700  0.62500000  1
  O  O1  1  0.28797300  0.62500000  0.12500000  1
  O  O2  1  0.96202700  0.28797300  0.12500000  1
  O  O3  1  0.65814300  0.34185700  0.34185700  1
  O  O4  1  0.90814300  0.59185700  0.90814300  1
  O  O5  1  0.59185700  0.90814300  0.59185700  1
  O  O6  1  0.96202700  0.12500000  0.62500000  1
  O  O7  1  0.34185700  0.65814300  0.65814300  1
  O  O8  1  0.28797300  0.12500000  0.96202700  1
  O  O9  1  0.12500000  0.28797300  0.62500000  1
  O  O10  1  0.65814300  0.65814300  0.34185700  1
  O  O11  1  0.59185700  0.90814300  0.90814300  1
  O  O12  1  0.12500000  0.62500000  0.96202700  1
  O  O13  1  0.34185700  0.34185700  0.65814300  1
  O  O14  1  0.90814300  0.90814300  0.59185700  1
  O  O15  1  0.34185700  0.65814300  0.34185700  1
  O  O16  1  0.65814300  0.34185700  0.65814300  1
  O  O17  1  0.62500000  0.12500000  0.28797300  1
  O  O18  1  0.12500000  0.96202700  0.28797300  1
  O  O19  1  0.59185700  0.59185700  0.90814300  1
  O  O20  1  0.62500000  0.96202700  0.12500000  1
  O  O21  1  0.96202700  0.62500000  0.28797300  1
  O  O22  1  0.90814300  0.59185700  0.59185700  1
  O  O23  1  0.62500000  0.28797300  0.96202700  1
loop_
_geom_bond_atom_site_label_1
_geom_bond_atom_site_label_2
_geom_bond_distance
_geom_bond_site_symmetry_2
O0 Si4 1.745769 1_555
O0 Si0 1.745769 1_565
O1 Si2 1.745769 1_555
O1 Si11 1.745769 1_554
O2 Si1 1.745769 1_555
O2 Si5 1.745769 1_654
O3 Si9 1.824011 1_555
O3 Si1 1.824011 1_555
O4 Si5 1.824011 1_655
O4 Si8 1.824011 1_556
O5 Si6 1.824011 1_555
O5 Si0 1.824011 1_565
O6 Si4 1.745769 1_645
O6 Si10 1.745769 1_555
O7 Si4 1.824011 1_555
O7 Si11 1.824011 1_555
O8 Si5 1.745769 1_555
O8 Si3 1.745769 1_546
O9 Si0 1.745769 1_555
O9 Si10 1.745769 1_455
O10 Si8 1.824011 1_555
O10 Si6 1.824011 1_555
O11 Si3 1.824011 1_556
O11 Si7 1.824011 1_565
O12 Si11 1.745769 1_555
O12 Si8 1.745769 1_456
O13 Si0 1.824011 1_555
O13 Si5 1.824011 1_555
O14 Si1 1.824011 1_565
O14 Si4 1.824011 1_655
O15 Si2 1.824011 1_555
O15 Si3 1.824011 1_555
O16 Si7 1.824011 1_555
O16 Si10 1.824011 1_555
O17 Si9 1.745769 1_555
O17 Si6 1.745769 1_545
O18 Si3 1.745769 1_555
O18 Si1 1.745769 1_465
O19 Si11 1.824011 1_555
O19 Si9 1.824011 1_556
O20 Si6 1.745769 1_555
O20 Si7 1.745769 1_564
O21 Si8 1.745769 1_555
O21 Si2 1.745769 1_655
O22 Si10 1.824011 1_555
O22 Si2 1.824011 1_655
O23 Si7 1.745769 1_555
O23 Si9 1.745769 1_556
