# generated using pymatgen
data_Ba14Ir8(PdO11)3
_symmetry_space_group_name_H-M   'P 1'
_cell_length_a   10.20827300
_cell_length_b   10.20827260
_cell_length_c   30.78915000
_cell_angle_alpha   90.00000000
_cell_angle_beta   90.00000000
_cell_angle_gamma   120.00000453
_symmetry_Int_Tables_number   1
_chemical_formula_structural   Ba14Ir8(PdO11)3
_chemical_formula_sum   'Ba42 Ir24 Pd9 O99'
_cell_volume   2778.64360138
_cell_formula_units_Z   3
loop_
 _symmetry_equiv_pos_site_id
 _symmetry_equiv_pos_as_xyz
  1  'x, y, z'
loop_
 _atom_site_type_symbol
 _atom_site_label
 _atom_site_symmetry_multiplicity
 _atom_site_fract_x
 _atom_site_fract_y
 _atom_site_fract_z
 _atom_site_occupancy
  Ba  Ba0  1  0.00000000  0.65024400  0.00000000  1
  Ba  Ba1  1  0.99970000  0.35003900  0.64047900  1
  Ba  Ba2  1  0.01537500  0.68225000  0.42936800  1
  Ba  Ba3  1  0.67050700  0.67050700  0.50000000  1
  Ba  Ba4  1  0.00030000  0.35033900  0.35952100  1
  Ba  Ba5  1  0.68153300  0.01395400  0.28932300  1
  Ba  Ba6  1  0.99841700  0.33056400  0.21562700  1
  Ba  Ba7  1  0.66757900  0.98604600  0.71067700  1
  Ba  Ba8  1  0.31846700  0.33242100  0.71067700  1
  Ba  Ba9  1  0.33111900  0.01570400  0.92969600  1
  Ba  Ba10  1  0.01395400  0.68153300  0.71067700  1
  Ba  Ba11  1  0.33056400  0.99841700  0.78437300  1
  Ba  Ba12  1  0.66888100  0.68458500  0.07030400  1
  Ba  Ba13  1  0.64966100  0.64996100  0.35952100  1
  Ba  Ba14  1  0.99765100  0.66809000  0.85629100  1
  Ba  Ba15  1  0.66785300  0.66943600  0.78437300  1
  Ba  Ba16  1  0.35003900  0.99970000  0.35952100  1
  Ba  Ba17  1  0.66687600  0.98462500  0.42936800  1
  Ba  Ba18  1  0.35033900  0.00030000  0.64047900  1
  Ba  Ba19  1  0.66943600  0.66785300  0.21562700  1
  Ba  Ba20  1  0.33242100  0.31846700  0.28932300  1
  Ba  Ba21  1  0.00158300  0.33214700  0.78437300  1
  Ba  Ba22  1  0.33191000  0.32956100  0.85629100  1
  Ba  Ba23  1  0.65024400  0.00000000  0.00000000  1
  Ba  Ba24  1  0.31775000  0.33312400  0.42936800  1
  Ba  Ba25  1  0.00234900  0.67043900  0.14370900  1
  Ba  Ba26  1  0.66809000  0.99765100  0.14370900  1
  Ba  Ba27  1  0.64996100  0.64966100  0.64047900  1
  Ba  Ba28  1  0.32949300  0.00000000  0.50000000  1
  Ba  Ba29  1  0.34975600  0.34975600  0.00000000  1
  Ba  Ba30  1  0.98604600  0.66757900  0.28932300  1
  Ba  Ba31  1  0.01570400  0.33111900  0.07030400  1
  Ba  Ba32  1  0.33214700  0.00158300  0.21562700  1
  Ba  Ba33  1  0.32956100  0.33191000  0.14370900  1
  Ba  Ba34  1  0.98429600  0.31541500  0.92969600  1
  Ba  Ba35  1  0.68458500  0.66888100  0.92969600  1
  Ba  Ba36  1  0.68225000  0.01537500  0.57063200  1
  Ba  Ba37  1  0.31541500  0.98429600  0.07030400  1
  Ba  Ba38  1  0.33312400  0.31775000  0.57063200  1
  Ba  Ba39  1  0.67043900  0.00234900  0.85629100  1
  Ba  Ba40  1  0.98462500  0.66687600  0.57063200  1
  Ba  Ba41  1  0.00000000  0.32949300  0.50000000  1
  Ir  Ir0  1  0.00000000  0.00000000  0.09712400  1
  Ir  Ir1  1  0.66666700  0.33333300  0.24711800  1
  Ir  Ir2  1  0.66666700  0.33333300  0.97174100  1
  Ir  Ir3  1  0.00000000  0.00000000  0.81940000  1
  Ir  Ir4  1  0.00000000  0.00000000  0.18060000  1
  Ir  Ir5  1  0.00000000  0.00000000  0.90287600  1
  Ir  Ir6  1  0.66666700  0.33333300  0.33006500  1
  Ir  Ir7  1  0.33333300  0.66666700  0.02825900  1
  Ir  Ir8  1  0.33333300  0.66666700  0.83695900  1
  Ir  Ir9  1  0.33333300  0.66666700  0.38975400  1
  Ir  Ir10  1  0.66666700  0.33333300  0.61024600  1
  Ir  Ir11  1  0.33333300  0.66666700  0.11140100  1
  Ir  Ir12  1  0.00000000  0.00000000  0.73641900  1
  Ir  Ir13  1  0.33333300  0.66666700  0.66993500  1
  Ir  Ir14  1  0.66666700  0.33333300  0.88859900  1
  Ir  Ir15  1  0.66666700  0.33333300  0.80469100  1
  Ir  Ir16  1  0.00000000  0.00000000  0.26358100  1
  Ir  Ir17  1  0.33333300  0.66666700  0.75288200  1
  Ir  Ir18  1  0.66666700  0.33333300  0.52304700  1
  Ir  Ir19  1  0.66666700  0.33333300  0.16304100  1
  Ir  Ir20  1  0.33333300  0.66666700  0.19530900  1
  Ir  Ir21  1  0.00000000  0.00000000  0.54292400  1
  Ir  Ir22  1  0.33333300  0.66666700  0.47695300  1
  Ir  Ir23  1  0.00000000  0.00000000  0.45707600  1
  Pd  Pd0  1  0.00000000  0.00000000  0.63970700  1
  Pd  Pd1  1  0.00000000  0.00000000  0.36029300  1
  Pd  Pd2  1  0.66666700  0.33333300  0.70763500  1
  Pd  Pd3  1  0.33333300  0.66666700  0.57402500  1
  Pd  Pd4  1  0.66666700  0.33333300  0.06708800  1
  Pd  Pd5  1  0.00000000  0.00000000  0.00000000  1
  Pd  Pd6  1  0.33333300  0.66666700  0.29236500  1
  Pd  Pd7  1  0.33333300  0.66666700  0.93291200  1
  Pd  Pd8  1  0.66666700  0.33333300  0.42597500  1
  O  O0  1  0.15237200  0.99206100  0.58179500  1
  O  O1  1  0.00000000  0.84166800  0.50000000  1
  O  O2  1  0.83361900  0.49083100  0.92927400  1
  O  O3  1  0.18470500  0.51441000  0.87654700  1
  O  O4  1  0.67680100  0.49339800  0.01084900  1
  O  O5  1  0.84762800  0.83968900  0.41820500  1
  O  O6  1  0.34278800  0.50916900  0.07072600  1
  O  O7  1  0.34030500  0.83224100  0.71238300  1
  O  O8  1  0.82125200  0.48219500  0.48370900  1
  O  O9  1  0.67607900  0.18137100  0.36877800  1
  O  O10  1  0.51780500  0.33905600  0.48370900  1
  O  O11  1  0.49193600  0.65969500  0.71238300  1
  O  O12  1  0.83879100  0.84096800  0.14026400  1
  O  O13  1  0.50916900  0.34278800  0.92927400  1
  O  O14  1  0.33275600  0.50778800  0.79354200  1
  O  O15  1  0.83224100  0.34030500  0.28761700  1
  O  O16  1  0.18137100  0.67607900  0.63122200  1
  O  O17  1  0.66094400  0.17874800  0.48370900  1
  O  O18  1  0.65969500  0.49193600  0.28761700  1
  O  O19  1  0.17909600  0.65872400  0.23469700  1
  O  O20  1  0.48559000  0.67029600  0.87654700  1
  O  O21  1  0.49470800  0.81862900  0.63122200  1
  O  O22  1  0.50529200  0.32392100  0.36877800  1
  O  O23  1  0.17503200  0.66724400  0.79354200  1
  O  O24  1  0.00079000  0.84014500  0.77948400  1
  O  O25  1  0.16120900  0.00217700  0.85973600  1
  O  O26  1  0.47962800  0.82090400  0.23469700  1
  O  O27  1  0.32774800  0.82253900  0.15160300  1
  O  O28  1  0.18340300  0.50660200  0.98915100  1
  O  O29  1  0.65872400  0.17909600  0.76530300  1
  O  O30  1  0.50660200  0.18340300  0.01084900  1
  O  O31  1  0.65721200  0.16638100  0.92927400  1
  O  O32  1  0.16064400  0.15985500  0.22051600  1
  O  O33  1  0.49339800  0.67680100  0.98915100  1
  O  O34  1  0.49083100  0.83361900  0.07072600  1
  O  O35  1  0.00731300  0.84956300  0.94227400  1
  O  O36  1  0.82090400  0.47962800  0.76530300  1
  O  O37  1  0.18268300  0.67381600  0.35008100  1
  O  O38  1  0.49113300  0.81731700  0.35008100  1
  O  O39  1  0.00793900  0.16031100  0.58179500  1
  O  O40  1  0.84166800  0.00000000  0.50000000  1
  O  O41  1  0.17746100  0.50520900  0.15160300  1
  O  O42  1  0.32392100  0.50529200  0.63122200  1
  O  O43  1  0.15903200  0.99782300  0.14026400  1
  O  O44  1  0.51441000  0.18470500  0.12345300  1
  O  O45  1  0.32618400  0.50886700  0.35008100  1
  O  O46  1  0.49221200  0.82496800  0.79354200  1
  O  O47  1  0.50520900  0.17746100  0.84839700  1
  O  O48  1  0.00686700  0.15845300  0.30251900  1
  O  O49  1  0.81862900  0.49470800  0.36877800  1
  O  O50  1  0.32970400  0.81529500  0.87654700  1
  O  O51  1  0.84014500  0.00079000  0.22051600  1
  O  O52  1  0.82716100  0.33678100  0.56681000  1
  O  O53  1  0.15845300  0.00686700  0.69748100  1
  O  O54  1  0.50961900  0.17283900  0.56681000  1
  O  O55  1  0.66724400  0.17503200  0.20645800  1
  O  O56  1  0.17874800  0.66094400  0.51629100  1
  O  O57  1  0.33905600  0.51780500  0.51629100  1
  O  O58  1  0.84096800  0.83879100  0.85973600  1
  O  O59  1  0.66321900  0.49038100  0.56681000  1
  O  O60  1  0.50778800  0.33275600  0.20645800  1
  O  O61  1  0.33678100  0.82716100  0.43319000  1
  O  O62  1  0.81731700  0.49113300  0.64991900  1
  O  O63  1  0.15833200  0.15833200  0.50000000  1
  O  O64  1  0.16638100  0.65721200  0.07072600  1
  O  O65  1  0.67381600  0.18268300  0.64991900  1
  O  O66  1  0.81529500  0.32970400  0.12345300  1
  O  O67  1  0.84956300  0.00731300  0.05772600  1
  O  O68  1  0.34127600  0.52037200  0.23469700  1
  O  O69  1  0.50806400  0.16775900  0.28761700  1
  O  O70  1  0.84841400  0.84154700  0.69748100  1
  O  O71  1  0.15985500  0.16064400  0.77948400  1
  O  O72  1  0.15775000  0.15043700  0.05772600  1
  O  O73  1  0.84154700  0.84841400  0.30251900  1
  O  O74  1  0.99206100  0.15237200  0.41820500  1
  O  O75  1  0.82496800  0.49221200  0.20645800  1
  O  O76  1  0.67225200  0.49479100  0.84839700  1
  O  O77  1  0.32319900  0.81659700  0.98915100  1
  O  O78  1  0.50886700  0.32618400  0.64991900  1
  O  O79  1  0.67029600  0.48559000  0.12345300  1
  O  O80  1  0.16775900  0.50806400  0.71238300  1
  O  O81  1  0.49479100  0.67225200  0.15160300  1
  O  O82  1  0.52037200  0.34127600  0.76530300  1
  O  O83  1  0.83935600  0.99921000  0.77948400  1
  O  O84  1  0.99782300  0.15903200  0.85973600  1
  O  O85  1  0.15043700  0.15775000  0.94227400  1
  O  O86  1  0.99921000  0.83935600  0.22051600  1
  O  O87  1  0.49038100  0.66321900  0.43319000  1
  O  O88  1  0.00217700  0.16120900  0.14026400  1
  O  O89  1  0.99313300  0.15158600  0.69748100  1
  O  O90  1  0.16031100  0.00793900  0.41820500  1
  O  O91  1  0.82253900  0.32774800  0.84839700  1
  O  O92  1  0.15158600  0.99313300  0.30251900  1
  O  O93  1  0.84225000  0.99268700  0.94227400  1
  O  O94  1  0.17283900  0.50961900  0.43319000  1
  O  O95  1  0.48219500  0.82125200  0.51629100  1
  O  O96  1  0.99268700  0.84225000  0.05772600  1
  O  O97  1  0.81659700  0.32319900  0.01084900  1
  O  O98  1  0.83968900  0.84762800  0.58179500  1
loop_
_geom_bond_atom_site_label_1
_geom_bond_atom_site_label_2
_geom_bond_distance
_geom_bond_site_symmetry_2
Ba0 O35 2.674436 1_554
Ba0 O96 2.674436 1_455
Ba0 O2 2.740608 1_454
Ba0 O64 2.740608 1_555
Ba0 O77 2.877149 1_554
Ba0 O4 2.877149 1_455
Ba0 O97 2.917580 1_455
Ba0 O28 2.917580 1_554
Ba1 O89 2.655745 1_555
Ba1 O39 2.680631 1_655
Ba1 O80 2.771139 1_655
Ba1 O52 2.833189 1_555
Ba1 O42 2.881302 1_655
Ba1 O62 2.882186 1_555
Ba1 O65 2.895992 1_555
Ba1 O16 2.902705 1_655
Ba2 O8 2.617242 1_455
Ba2 O49 2.708151 1_455
Ba2 O1 2.767263 1_555
Ba2 O61 2.848431 1_555
Ba2 O5 2.895797 1_455
Ba2 O90 2.905492 1_565
Ba2 O94 2.921643 1_555
Ba2 O37 3.005133 1_555
Ba2 O56 3.217756 1_555
Ba3 O59 2.735173 1_555
Ba3 O87 2.735173 1_555
Ba3 O40 2.913659 1_565
Ba3 O1 2.913659 1_655
Ba3 O10 2.975824 1_555
Ba3 O57 2.975825 1_555
Ba3 O8 3.045195 1_555
Ba3 O95 3.045195 1_555
Ba3 O98 3.077594 1_555
Ba3 O5 3.077594 1_555
Ba4 O48 2.655745 1_555
Ba4 O74 2.680631 1_455
Ba4 O15 2.771139 1_455
Ba4 O94 2.833187 1_555
Ba4 O9 2.881302 1_455
Ba4 O37 2.882185 1_555
Ba4 O45 2.895992 1_555
Ba4 O49 2.902705 1_455
Ba5 O26 2.626546 1_545
Ba5 O51 2.710237 1_555
Ba5 O38 2.721226 1_545
Ba5 O15 2.888430 1_555
Ba5 O69 2.895523 1_555
Ba5 O73 2.906773 1_545
Ba5 O48 2.910626 1_655
Ba5 O9 3.000617 1_555
Ba5 O55 3.078034 1_555
Ba6 O41 2.673264 1_655
Ba6 O15 2.822971 1_555
Ba6 O88 2.905295 1_655
Ba6 O51 2.920072 1_555
Ba6 O55 2.943145 1_555
Ba6 O32 2.947526 1_655
Ba6 O19 2.964804 1_655
Ba6 O75 2.976497 1_555
Ba6 O68 3.093127 1_655
Ba6 O48 3.225412 1_655
Ba6 O66 3.395907 1_555
Ba7 O29 2.626546 1_565
Ba7 O83 2.710243 1_555
Ba7 O65 2.721226 1_565
Ba7 O11 2.888430 1_555
Ba7 O7 2.895523 1_555
Ba7 O89 2.906773 1_565
Ba7 O70 2.910626 1_555
Ba7 O21 3.000617 1_555
Ba7 O46 3.078034 1_555
Ba8 O82 2.626546 1_555
Ba8 O71 2.710241 1_555
Ba8 O78 2.721226 1_555
Ba8 O80 2.888430 1_555
Ba8 O11 2.895523 1_555
Ba8 O53 2.906773 1_555
Ba8 O89 2.910626 1_455
Ba8 O42 3.000617 1_555
Ba8 O14 3.078034 1_555
Ba9 O50 2.614177 1_545
Ba9 O77 2.706363 1_545
Ba9 O25 2.725392 1_555
Ba9 O31 2.885659 1_555
Ba9 O85 2.886025 1_555
Ba9 O35 2.889047 1_545
Ba9 O13 2.895446 1_555
Ba9 O47 3.035794 1_555
Ba9 O30 3.052240 1_556
Ba10 O36 2.626546 1_455
Ba10 O24 2.710237 1_555
Ba10 O62 2.721226 1_455
Ba10 O7 2.888430 1_555
Ba10 O80 2.895523 1_555
Ba10 O70 2.906773 1_455
Ba10 O53 2.910625 1_565
Ba10 O16 3.000617 1_555
Ba10 O23 3.078034 1_555
Ba11 O47 2.673264 1_565
Ba11 O7 2.822971 1_555
Ba11 O25 2.905295 1_565
Ba11 O24 2.920072 1_555
Ba11 O23 2.943145 1_555
Ba11 O71 2.947526 1_565
Ba11 O29 2.964804 1_565
Ba11 O46 2.976497 1_555
Ba11 O82 3.093127 1_565
Ba11 O53 3.225412 1_565
Ba11 O50 3.395907 1_555
Ba12 O79 2.614185 1_555
Ba12 O4 2.706363 1_555
Ba12 O12 2.725392 1_555
Ba12 O6 2.885659 1_555
Ba12 O67 2.886025 1_565
Ba12 O96 2.889047 1_555
Ba12 O34 2.895446 1_555
Ba12 O81 3.035794 1_555
Ba12 O33 3.052240 1_554
Ba13 O73 2.655745 1_555
Ba13 O5 2.680631 1_555
Ba13 O18 2.771139 1_555
Ba13 O87 2.833183 1_555
Ba13 O49 2.881302 1_555
Ba13 O45 2.882186 1_555
Ba13 O38 2.895992 1_555
Ba13 O22 2.902705 1_555
Ba14 O23 2.650872 1_655
Ba14 O2 2.845630 1_555
Ba14 O76 2.889006 1_555
Ba14 O58 2.897105 1_555
Ba14 O24 2.936327 1_655
Ba14 O25 2.955655 1_665
Ba14 O50 3.007218 1_655
Ba14 O91 3.019057 1_555
Ba14 O3 3.080898 1_655
Ba14 O35 3.204261 1_655
Ba14 O36 3.366540 1_555
Ba15 O76 2.673264 1_555
Ba15 O11 2.822971 1_555
Ba15 O58 2.905295 1_555
Ba15 O83 2.920072 1_555
Ba15 O46 2.943145 1_555
Ba15 O24 2.947535 1_655
Ba15 O82 2.964804 1_555
Ba15 O14 2.976497 1_555
Ba15 O36 3.093127 1_555
Ba15 O70 3.225412 1_555
Ba15 O20 3.395912 1_555
Ba16 O92 2.655745 1_555
Ba16 O90 2.680631 1_565
Ba16 O69 2.771139 1_565
Ba16 O61 2.833189 1_555
Ba16 O22 2.881302 1_565
Ba16 O38 2.882186 1_555
Ba16 O37 2.895992 1_555
Ba16 O9 2.902705 1_565
Ba17 O17 2.617242 1_565
Ba17 O9 2.708155 1_565
Ba17 O40 2.767257 1_565
Ba17 O87 2.848430 1_555
Ba17 O74 2.895789 1_565
Ba17 O5 2.905483 1_555
Ba17 O61 2.921643 1_555
Ba17 O38 3.005136 1_555
Ba17 O95 3.217762 1_555
Ba18 O53 2.655745 1_555
Ba18 O0 2.680631 1_545
Ba18 O7 2.771139 1_545
Ba18 O54 2.833187 1_555
Ba18 O16 2.881302 1_545
Ba18 O65 2.882186 1_555
Ba18 O78 2.895992 1_555
Ba18 O21 2.902705 1_545
Ba19 O81 2.673264 1_555
Ba19 O18 2.822971 1_555
Ba19 O12 2.905295 1_555
Ba19 O86 2.920072 1_555
Ba19 O75 2.943145 1_555
Ba19 O51 2.947535 1_565
Ba19 O68 2.964804 1_555
Ba19 O60 2.976496 1_555
Ba19 O26 3.093127 1_555
Ba19 O73 3.225412 1_555
Ba19 O79 3.395912 1_555
Ba20 O68 2.626546 1_555
Ba20 O32 2.710241 1_555
Ba20 O45 2.721226 1_555
Ba20 O69 2.888430 1_555
Ba20 O18 2.895523 1_555
Ba20 O48 2.906773 1_555
Ba20 O92 2.910625 1_545
Ba20 O22 3.000617 1_555
Ba20 O60 3.078034 1_555
Ba21 O91 2.673264 1_455
Ba21 O80 2.822971 1_555
Ba21 O84 2.905295 1_455
Ba21 O71 2.920081 1_555
Ba21 O14 2.943145 1_555
Ba21 O83 2.947535 1_445
Ba21 O36 2.964804 1_455
Ba21 O23 2.976496 1_555
Ba21 O29 3.093127 1_455
Ba21 O89 3.225412 1_455
Ba21 O3 3.395909 1_555
Ba22 O14 2.650872 1_555
Ba22 O13 2.845630 1_555
Ba22 O47 2.889006 1_555
Ba22 O25 2.897105 1_555
Ba22 O71 2.936330 1_555
Ba22 O84 2.955655 1_455
Ba22 O3 3.007227 1_555
Ba22 O76 3.019057 1_555
Ba22 O20 3.080907 1_555
Ba22 O85 3.204261 1_555
Ba22 O82 3.366540 1_555
Ba23 O67 2.674436 1_555
Ba23 O93 2.674436 1_544
Ba23 O34 2.740608 1_545
Ba23 O31 2.740608 1_554
Ba23 O97 2.877149 1_555
Ba23 O33 2.877149 1_544
Ba23 O77 2.917580 1_544
Ba23 O30 2.917580 1_555
Ba24 O10 2.617242 1_555
Ba24 O22 2.708148 1_555
Ba24 O63 2.767260 1_555
Ba24 O94 2.848431 1_555
Ba24 O90 2.895788 1_555
Ba24 O74 2.905491 1_455
Ba24 O87 2.921643 1_555
Ba24 O45 3.005139 1_555
Ba24 O57 3.217767 1_555
Ba25 O75 2.650872 1_455
Ba25 O64 2.845630 1_555
Ba25 O27 2.889006 1_555
Ba25 O43 2.897105 1_555
Ba25 O86 2.936333 1_455
Ba25 O12 2.955656 1_455
Ba25 O79 3.007219 1_455
Ba25 O41 3.019058 1_555
Ba25 O66 3.080906 1_455
Ba25 O96 3.204261 1_455
Ba25 O19 3.366540 1_555
Ba26 O55 2.650872 1_565
Ba26 O34 2.845630 1_555
Ba26 O81 2.889006 1_555
Ba26 O12 2.897105 1_555
Ba26 O51 2.936327 1_565
Ba26 O88 2.955655 1_665
Ba26 O66 3.007218 1_565
Ba26 O27 3.019057 1_555
Ba26 O44 3.080898 1_565
Ba26 O67 3.204261 1_565
Ba26 O26 3.366540 1_555
Ba27 O70 2.655745 1_555
Ba27 O98 2.680631 1_555
Ba27 O11 2.771139 1_555
Ba27 O59 2.833183 1_555
Ba27 O21 2.881302 1_555
Ba27 O78 2.882185 1_555
Ba27 O62 2.895992 1_555
Ba27 O42 2.902705 1_555
Ba28 O54 2.735176 1_555
Ba28 O61 2.735180 1_545
Ba28 O1 2.913659 1_545
Ba28 O63 2.913660 1_555
Ba28 O95 2.975816 1_545
Ba28 O17 2.975824 1_555
Ba28 O56 3.045186 1_545
Ba28 O10 3.045187 1_555
Ba28 O0 3.077595 1_545
Ba28 O90 3.077595 1_555
Ba29 O72 2.674436 1_555
Ba29 O85 2.674436 1_554
Ba29 O6 2.740608 1_555
Ba29 O13 2.740608 1_554
Ba29 O30 2.877149 1_555
Ba29 O28 2.877149 1_554
Ba29 O33 2.917580 1_554
Ba29 O4 2.917580 1_555
Ba30 O19 2.626546 1_655
Ba30 O86 2.710243 1_555
Ba30 O37 2.721226 1_655
Ba30 O18 2.888430 1_555
Ba30 O15 2.895523 1_555
Ba30 O92 2.906773 1_655
Ba30 O73 2.910626 1_555
Ba30 O49 3.000617 1_555
Ba30 O75 3.078034 1_555
Ba31 O66 2.614177 1_455
Ba31 O97 2.706363 1_455
Ba31 O88 2.725392 1_555
Ba31 O64 2.885659 1_555
Ba31 O72 2.886025 1_555
Ba31 O67 2.889047 1_455
Ba31 O6 2.895446 1_555
Ba31 O41 3.035794 1_555
Ba31 O28 3.052240 1_554
Ba32 O27 2.673264 1_545
Ba32 O69 2.822971 1_555
Ba32 O43 2.905295 1_545
Ba32 O32 2.920081 1_555
Ba32 O60 2.943145 1_555
Ba32 O86 2.947535 1_445
Ba32 O26 2.964804 1_545
Ba32 O55 2.976497 1_555
Ba32 O19 3.093127 1_545
Ba32 O92 3.225412 1_545
Ba32 O44 3.395909 1_555
Ba33 O60 2.650872 1_555
Ba33 O6 2.845630 1_555
Ba33 O41 2.889006 1_555
Ba33 O88 2.897105 1_555
Ba33 O32 2.936330 1_555
Ba33 O43 2.955655 1_545
Ba33 O44 3.007227 1_555
Ba33 O81 3.019057 1_555
Ba33 O79 3.080907 1_555
Ba33 O72 3.204261 1_555
Ba33 O68 3.366540 1_555
Ba34 O3 2.614181 1_655
Ba34 O28 2.706363 1_655
Ba34 O84 2.725392 1_555
Ba34 O2 2.885659 1_555
Ba34 O93 2.886025 1_545
Ba34 O85 2.889047 1_655
Ba34 O31 2.895446 1_555
Ba34 O91 3.035794 1_555
Ba34 O97 3.052240 1_556
Ba35 O20 2.614185 1_555
Ba35 O33 2.706363 1_555
Ba35 O58 2.725391 1_555
Ba35 O13 2.885659 1_555
Ba35 O35 2.886025 1_655
Ba35 O93 2.889047 1_555
Ba35 O2 2.895446 1_555
Ba35 O76 3.035794 1_555
Ba35 O4 3.052240 1_556
Ba36 O95 2.617242 1_545
Ba36 O21 2.708151 1_545
Ba36 O40 2.767263 1_555
Ba36 O52 2.848431 1_555
Ba36 O98 2.895797 1_545
Ba36 O39 2.905492 1_655
Ba36 O54 2.921643 1_555
Ba36 O65 3.005133 1_555
Ba36 O17 3.217756 1_555
Ba37 O44 2.614181 1_565
Ba37 O30 2.706363 1_565
Ba37 O43 2.725392 1_555
Ba37 O34 2.885659 1_555
Ba37 O96 2.886025 1_455
Ba37 O72 2.889047 1_565
Ba37 O64 2.895446 1_555
Ba37 O27 3.035794 1_555
Ba37 O77 3.052240 1_554
Ba38 O57 2.617242 1_555
Ba38 O42 2.708148 1_555
Ba38 O63 2.767260 1_555
Ba38 O54 2.848431 1_555
Ba38 O39 2.895788 1_555
Ba38 O0 2.905491 1_545
Ba38 O59 2.921643 1_555
Ba38 O78 3.005139 1_555
Ba38 O10 3.217767 1_555
Ba39 O46 2.650872 1_545
Ba39 O31 2.845630 1_555
Ba39 O91 2.889006 1_555
Ba39 O84 2.897105 1_555
Ba39 O83 2.936333 1_545
Ba39 O58 2.955656 1_545
Ba39 O20 3.007219 1_545
Ba39 O47 3.019058 1_555
Ba39 O50 3.080906 1_545
Ba39 O93 3.204261 1_545
Ba39 O29 3.366540 1_555
Ba40 O56 2.617242 1_655
Ba40 O16 2.708155 1_655
Ba40 O1 2.767257 1_655
Ba40 O59 2.848431 1_555
Ba40 O0 2.895789 1_655
Ba40 O98 2.905483 1_555
Ba40 O52 2.921643 1_555
Ba40 O62 3.005136 1_555
Ba40 O8 3.217762 1_555
Ba41 O94 2.735176 1_555
Ba41 O52 2.735180 1_455
Ba41 O40 2.913659 1_455
Ba41 O63 2.913660 1_555
Ba41 O8 2.975816 1_455
Ba41 O56 2.975824 1_555
Ba41 O17 3.045186 1_455
Ba41 O57 3.045187 1_555
Ba41 O74 3.077595 1_455
Ba41 O39 3.077595 1_555
Ir0 O72 1.987471 1_555
Ir0 O96 1.987471 1_445
Ir0 O67 1.987471 1_455
Ir0 O12 2.106269 1_445
Ir0 O88 2.106269 1_555
Ir0 O43 2.106269 1_545
Ir1 O55 2.046501 1_555
Ir1 O75 2.046505 1_555
Ir1 O60 2.046509 1_555
Ir1 O15 2.072791 1_555
Ir1 O69 2.072795 1_555
Ir1 O18 2.072799 1_555
Ir2 O97 1.990329 1_556
Ir2 O30 1.990333 1_556
Ir2 O4 1.990337 1_556
Ir2 O31 2.111645 1_555
Ir2 O2 2.111649 1_555
Ir2 O13 2.111653 1_555
Ir3 O83 2.046093 1_445
Ir3 O71 2.046097 1_555
Ir3 O24 2.046101 1_545
Ir3 O58 2.052920 1_445
Ir3 O84 2.052920 1_455
Ir3 O25 2.052920 1_555
Ir4 O86 2.046093 1_445
Ir4 O32 2.046097 1_555
Ir4 O51 2.046101 1_455
Ir4 O12 2.052920 1_445
Ir4 O88 2.052920 1_555
Ir4 O43 2.052920 1_545
Ir5 O85 1.987471 1_555
Ir5 O35 1.987471 1_545
Ir5 O93 1.987471 1_445
Ir5 O58 2.106269 1_445
Ir5 O84 2.106269 1_455
Ir5 O25 2.106269 1_555
Ir6 O9 1.996356 1_555
Ir6 O49 1.996360 1_555
Ir6 O22 1.996364 1_555
Ir6 O15 2.109435 1_555
Ir6 O69 2.109438 1_555
Ir6 O18 2.109443 1_555
Ir7 O77 1.990329 1_554
Ir7 O28 1.990333 1_554
Ir7 O33 1.990337 1_554
Ir7 O64 2.111645 1_555
Ir7 O34 2.111649 1_555
Ir7 O6 2.111653 1_555
Ir8 O3 1.960932 1_555
Ir8 O50 1.960932 1_555
Ir8 O20 1.960932 1_555
Ir8 O23 2.099501 1_555
Ir8 O46 2.099505 1_555
Ir8 O14 2.099509 1_555
Ir9 O37 1.993660 1_555
Ir9 O38 1.993664 1_555
Ir9 O45 1.993668 1_555
Ir9 O61 2.101509 1_555
Ir9 O94 2.101517 1_555
Ir9 O87 2.101525 1_555
Ir10 O65 1.993660 1_555
Ir10 O62 1.993664 1_555
Ir10 O78 1.993668 1_555
Ir10 O52 2.101509 1_555
Ir10 O54 2.101517 1_555
Ir10 O59 2.101525 1_555
Ir11 O27 2.039105 1_555
Ir11 O41 2.039109 1_555
Ir11 O81 2.039113 1_555
Ir11 O64 2.077933 1_555
Ir11 O34 2.077937 1_555
Ir11 O6 2.077941 1_555
Ir12 O70 1.986257 1_445
Ir12 O89 1.986257 1_455
Ir12 O53 1.986257 1_555
Ir12 O83 2.105756 1_445
Ir12 O71 2.105760 1_555
Ir12 O24 2.105764 1_545
Ir13 O16 1.996356 1_555
Ir13 O21 1.996360 1_555
Ir13 O42 1.996364 1_555
Ir13 O7 2.109435 1_555
Ir13 O80 2.109438 1_555
Ir13 O11 2.109443 1_555
Ir14 O91 2.039105 1_555
Ir14 O47 2.039109 1_555
Ir14 O76 2.039113 1_555
Ir14 O31 2.077933 1_555
Ir14 O2 2.077937 1_555
Ir14 O13 2.077941 1_555
Ir15 O29 1.956690 1_555
Ir15 O36 1.956693 1_555
Ir15 O82 1.956698 1_555
Ir15 O91 2.106339 1_555
Ir15 O47 2.106343 1_555
Ir15 O76 2.106347 1_555
Ir16 O73 1.986257 1_445
Ir16 O48 1.986257 1_555
Ir16 O92 1.986257 1_545
Ir16 O86 2.105756 1_445
Ir16 O32 2.105760 1_555
Ir16 O51 2.105764 1_455
Ir17 O23 2.046501 1_555
Ir17 O46 2.046505 1_555
Ir17 O14 2.046509 1_555
Ir17 O7 2.072791 1_555
Ir17 O80 2.072795 1_555
Ir17 O11 2.072799 1_555
Ir18 O8 1.966829 1_555
Ir18 O17 1.966829 1_555
Ir18 O10 1.966829 1_555
Ir18 O52 2.107931 1_555
Ir18 O54 2.107938 1_555
Ir18 O59 2.107946 1_555
Ir19 O44 1.960932 1_555
Ir19 O79 1.960932 1_555
Ir19 O66 1.960932 1_555
Ir19 O55 2.099501 1_555
Ir19 O75 2.099505 1_555
Ir19 O60 2.099509 1_555
Ir20 O19 1.956690 1_555
Ir20 O26 1.956693 1_555
Ir20 O68 1.956698 1_555
Ir20 O27 2.106339 1_555
Ir20 O41 2.106343 1_555
Ir20 O81 2.106347 1_555
Ir21 O98 1.996099 1_445
Ir21 O39 1.996099 1_555
Ir21 O0 1.996099 1_545
Ir21 O63 2.087827 1_555
Ir21 O1 2.087827 1_545
Ir21 O40 2.087827 1_455
Ir22 O95 1.966829 1_555
Ir22 O57 1.966829 1_555
Ir22 O56 1.966829 1_555
Ir22 O61 2.107931 1_555
Ir22 O94 2.107938 1_555
Ir22 O87 2.107946 1_555
Ir23 O5 1.996099 1_445
Ir23 O74 1.996099 1_455
Ir23 O90 1.996099 1_555
Ir23 O63 2.087827 1_555
Ir23 O1 2.087827 1_545
Ir23 O40 2.087827 1_455
O0 Pd0 2.394029 1_565
O3 Pd7 2.317607 1_555
O4 Pd4 2.347307 1_555
O5 Pd1 2.394029 1_665
O8 Pd8 2.358229 1_555
O9 Pd8 2.380336 1_555
O10 Pd8 2.358229 1_555
O16 Pd3 2.380336 1_555
O17 Pd8 2.358229 1_555
O19 Pd6 2.347448 1_555
O20 Pd7 2.317607 1_555
O21 Pd3 2.380340 1_555
O22 Pd8 2.380343 1_555
O26 Pd6 2.347451 1_555
O28 Pd7 2.347303 1_555
O29 Pd2 2.347448 1_555
O30 Pd4 2.347303 1_555
O33 Pd7 2.347307 1_555
O35 Pd5 2.374345 1_566
O36 Pd2 2.347451 1_555
O37 Pd6 2.374962 1_555
O38 Pd6 2.374966 1_555
O39 Pd0 2.394029 1_555
O42 Pd3 2.380343 1_555
O44 Pd4 2.317607 1_555
O45 Pd6 2.374969 1_555
O48 Pd1 2.381618 1_555
O49 Pd8 2.380340 1_555
O50 Pd7 2.317607 1_555
O53 Pd0 2.381618 1_555
O56 Pd3 2.358229 1_555
O57 Pd3 2.358229 1_555
O62 Pd2 2.374966 1_555
O65 Pd2 2.374962 1_555
O66 Pd4 2.317607 1_555
O67 Pd5 2.374345 1_655
O68 Pd6 2.347454 1_555
O70 Pd0 2.381618 1_665
O72 Pd5 2.374345 1_555
O73 Pd1 2.381618 1_665
O74 Pd1 2.394029 1_655
O77 Pd7 2.347300 1_555
O78 Pd2 2.374969 1_555
O79 Pd4 2.317607 1_555
O82 Pd2 2.347454 1_555
O85 Pd5 2.374345 1_556
O89 Pd0 2.381618 1_655
O90 Pd1 2.394029 1_555
O92 Pd1 2.381618 1_565
O93 Pd5 2.374345 1_666
O95 Pd3 2.358229 1_555
O96 Pd5 2.374345 1_665
O97 Pd4 2.347300 1_555
O98 Pd0 2.394029 1_665
