# generated using pymatgen
data_CdI2
_symmetry_space_group_name_H-M   'P 1'
_cell_length_a   4.28790825
_cell_length_b   4.28790825
_cell_length_c   109.15645071
_cell_angle_alpha   90.00000000
_cell_angle_beta   90.00000000
_cell_angle_gamma   119.99999457
_symmetry_Int_Tables_number   1
_chemical_formula_structural   CdI2
_chemical_formula_sum   'Cd15 I30'
_cell_volume   1738.08506963
_cell_formula_units_Z   15
loop_
 _symmetry_equiv_pos_site_id
 _symmetry_equiv_pos_as_xyz
  1  'x, y, z'
loop_
 _atom_site_type_symbol
 _atom_site_label
 _atom_site_symmetry_multiplicity
 _atom_site_fract_x
 _atom_site_fract_y
 _atom_site_fract_z
 _atom_site_occupancy
  Cd  Cd0  1  0.00000000  0.00000000  0.01665334  1
  Cd  Cd1  1  0.00000000  0.00000000  0.81666180  1
  Cd  Cd2  1  0.33333300  0.66666700  0.61665892  1
  Cd  Cd3  1  0.00000000  0.00000000  0.68333103  1
  Cd  Cd4  1  0.33333300  0.66666700  0.48332275  1
  Cd  Cd5  1  0.33333300  0.66666700  0.95000183  1
  Cd  Cd6  1  0.00000000  0.00000000  0.55005039  1
  Cd  Cd7  1  0.00000000  0.00000000  0.28333207  1
  Cd  Cd8  1  0.33333300  0.66666700  0.21665034  1
  Cd  Cd9  1  0.33333300  0.66666700  0.08333511  1
  Cd  Cd10  1  0.00000000  0.00000000  0.14999683  1
  Cd  Cd11  1  0.33333300  0.66666700  0.88332860  1
  Cd  Cd12  1  0.00000000  0.00000000  0.41665130  1
  Cd  Cd13  1  0.33333300  0.66666700  0.74998234  1
  Cd  Cd14  1  0.33333300  0.66666700  0.34998369  1
  I  I0  1  0.66666700  0.33333300  0.56579081  1
  I  I1  1  0.33333300  0.66666700  0.40089071  1
  I  I2  1  0.66666700  0.33333300  0.43244226  1
  I  I3  1  0.00000000  0.00000000  0.33422353  1
  I  I4  1  0.66666700  0.33333300  0.36577484  1
  I  I5  1  0.66666700  0.33333300  0.89910944  1
  I  I6  1  0.66666700  0.33333300  0.96577603  1
  I  I7  1  0.66666700  0.33333300  0.23244140  1
  I  I8  1  0.33333300  0.66666700  0.53427583  1
  I  I9  1  0.66666700  0.33333300  0.69910758  1
  I  I10  1  0.00000000  0.00000000  0.86755695  1
  I  I11  1  0.66666700  0.33333300  0.76577493  1
  I  I12  1  0.33333300  0.66666700  0.66755702  1
  I  I13  1  0.33333300  0.66666700  0.80088986  1
  I  I14  1  0.00000000  -0.00000000  0.46755599  1
  I  I15  1  -0.00000000  0.00000000  0.73422248  1
  I  I16  1  0.66666700  0.33333300  0.63244239  1
  I  I17  1  0.00000000  0.00000000  0.20089085  1
  I  I18  1  0.66666700  0.33333300  0.09911098  1
  I  I19  1  0.00000000  0.00000000  0.60089016  1
  I  I20  1  0.33333300  0.66666700  0.00089095  1
  I  I21  1  0.33333300  0.66666700  0.13422227  1
  I  I22  1  -0.00000000  0.00000000  0.06755751  1
  I  I23  1  0.66666700  0.33333300  0.03244285  1
  I  I24  1  0.33333300  0.66666700  0.26755651  1
  I  I25  1  0.66666700  0.33333300  0.29910745  1
  I  I26  1  0.00000000  0.00000000  0.93422459  1
  I  I27  1  0.66666700  0.33333300  0.83244348  1
  I  I28  1  0.66666700  0.33333300  0.16577562  1
  I  I29  1  0.66666700  0.33333300  0.49911038  1
loop_
_geom_bond_atom_site_label_1
_geom_bond_atom_site_label_2
_geom_bond_distance
_geom_bond_site_symmetry_2
Cd0 I20 3.014806 1_545
Cd0 I20 3.014809 1_445
Cd0 I20 3.014809 1_555
Cd0 I23 3.016497 1_455
Cd0 I23 3.016500 1_555
Cd0 I23 3.016500 1_445
Cd1 I13 3.015401 1_545
Cd1 I13 3.015404 1_445
Cd1 I13 3.015404 1_555
Cd1 I27 3.016008 1_455
Cd1 I27 3.016011 1_555
Cd1 I27 3.016011 1_445
Cd2 I19 3.015203 1_565
Cd2 I19 3.015206 1_665
Cd2 I19 3.015206 1_555
Cd2 I16 3.016120 1_455
Cd2 I16 3.016120 1_565
Cd2 I16 3.016126 1_555
Cd3 I12 3.015530 1_545
Cd3 I12 3.015533 1_445
Cd3 I12 3.015533 1_555
Cd3 I9 3.015688 1_455
Cd3 I9 3.015692 1_555
Cd3 I9 3.015692 1_445
Cd4 I14 3.015078 1_565
Cd4 I14 3.015082 1_555
Cd4 I14 3.015082 1_665
Cd4 I29 3.016379 1_455
Cd4 I29 3.016379 1_565
Cd4 I29 3.016385 1_555
Cd5 I6 3.015542 1_455
Cd5 I6 3.015542 1_565
Cd5 I6 3.015548 1_555
Cd5 I26 3.015731 1_565
Cd5 I26 3.015735 1_665
Cd5 I26 3.015735 1_555
Cd6 I0 3.013438 1_455
Cd6 I0 3.013441 1_445
Cd6 I0 3.013441 1_555
Cd6 I8 3.015564 1_545
Cd6 I8 3.015568 1_445
Cd6 I8 3.015568 1_555
Cd7 I25 3.015616 1_455
Cd7 I25 3.015619 1_445
Cd7 I25 3.015619 1_555
Cd7 I24 3.015627 1_545
Cd7 I24 3.015630 1_555
Cd7 I24 3.015630 1_445
Cd8 I17 3.014625 1_565
Cd8 I17 3.014629 1_665
Cd8 I17 3.014629 1_555
Cd8 I7 3.016593 1_455
Cd8 I7 3.016593 1_565
Cd8 I7 3.016599 1_555
Cd9 I18 3.015646 1_455
Cd9 I18 3.015646 1_565
Cd9 I18 3.015652 1_555
Cd9 I22 3.015754 1_565
Cd9 I22 3.015757 1_665
Cd9 I22 3.015757 1_555
Cd10 I21 3.015564 1_545
Cd10 I21 3.015568 1_445
Cd10 I21 3.015568 1_555
Cd10 I28 3.015828 1_455
Cd10 I28 3.015831 1_555
Cd10 I28 3.015831 1_445
Cd11 I10 3.015383 1_565
Cd11 I10 3.015386 1_555
Cd11 I10 3.015386 1_665
Cd11 I5 3.015956 1_455
Cd11 I5 3.015956 1_565
Cd11 I5 3.015962 1_555
Cd12 I1 3.014694 1_545
Cd12 I1 3.014697 1_555
Cd12 I1 3.014697 1_445
Cd12 I2 3.016587 1_455
Cd12 I2 3.016590 1_445
Cd12 I2 3.016590 1_555
Cd13 I15 3.014648 1_565
Cd13 I15 3.014652 1_665
Cd13 I15 3.014652 1_555
Cd13 I11 3.016689 1_455
Cd13 I11 3.016689 1_565
Cd13 I11 3.016695 1_555
Cd14 I3 3.014667 1_565
Cd14 I3 3.014670 1_555
Cd14 I3 3.014670 1_665
Cd14 I4 3.016599 1_455
Cd14 I4 3.016599 1_565
Cd14 I4 3.016605 1_555
