# generated using pymatgen
data_H8PtO6
_symmetry_space_group_name_H-M   'P 1'
_cell_length_a   5.56104100
_cell_length_b   5.67878217
_cell_length_c   7.34468574
_cell_angle_alpha   89.22017337
_cell_angle_beta   85.14284578
_cell_angle_gamma   81.37950579
_symmetry_Int_Tables_number   1
_chemical_formula_structural   H8PtO6
_chemical_formula_sum   'H16 Pt2 O12'
_cell_volume   228.50079120
_cell_formula_units_Z   2
loop_
 _symmetry_equiv_pos_site_id
 _symmetry_equiv_pos_as_xyz
  1  'x, y, z'
loop_
 _atom_site_type_symbol
 _atom_site_label
 _atom_site_symmetry_multiplicity
 _atom_site_fract_x
 _atom_site_fract_y
 _atom_site_fract_z
 _atom_site_occupancy
  H  H0  1  0.61106300  0.88680000  0.84502800  1
  H  H1  1  0.47429200  0.16651500  0.84102900  1
  H  H2  1  0.13574500  0.38065100  0.64321400  1
  H  H3  1  0.89198500  0.25882500  0.74364400  1
  H  H4  1  0.24654300  0.91086900  0.25077000  1
  H  H5  1  0.53010400  0.82897900  0.15066900  1
  H  H6  1  0.15004000  0.47753100  0.33384900  1
  H  H7  1  0.86782300  0.62210100  0.35066100  1
  H  H8  1  0.53786800  0.56035700  0.00150700  1
  H  H9  1  0.43665800  0.45518900  0.51263400  1
  H  H10  1  0.37820900  0.23075600  0.08561700  1
  H  H11  1  0.75410300  0.60575000  0.59227300  1
  H  H12  1  0.02893400  0.94554500  0.98352300  1
  H  H13  1  0.16426600  0.84804200  0.71296000  1
  H  H14  1  0.85367900  0.17548300  0.21186300  1
  H  H15  1  0.94671600  0.02695600  0.48487200  1
  Pt  Pt0  1  0.49853000  0.99770300  0.50534500  1
  Pt  Pt1  1  0.99997500  0.50067400  0.00492900  1
  O  O0  1  0.59392300  0.03520200  0.76428600  1
  O  O1  1  0.96160900  0.40986500  0.74142600  1
  O  O2  1  0.40892900  0.96458800  0.24214100  1
  O  O3  1  0.03765200  0.59590200  0.26518900  1
  O  O4  1  0.64905900  0.68261600  0.01642100  1
  O  O5  1  0.31489200  0.34054300  0.51241300  1
  O  O6  1  0.35337000  0.34143600  0.98135400  1
  O  O7  1  0.66471000  0.65518600  0.48390400  1
  O  O8  1  0.13416900  0.80189800  0.92390800  1
  O  O9  1  0.18059700  0.87597600  0.57544000  1
  O  O10  1  0.87726500  0.19123800  0.07402000  1
  O  O11  1  0.81010100  0.12959100  0.42610800  1
loop_
_geom_bond_atom_site_label_1
_geom_bond_atom_site_label_2
_geom_bond_distance
_geom_bond_site_symmetry_2
H0 O0 1.021208 1_565
H1 O0 1.056211 1_555
H1 O6 1.487077 1_555
H2 O1 1.149961 1_455
H2 O5 1.320290 1_555
H3 O1 0.991953 1_555
H4 O2 0.992428 1_555
H5 O2 1.131522 1_555
H5 O4 1.359292 1_555
H6 O3 1.007463 1_555
H7 O3 1.080826 1_655
H7 O7 1.422331 1_555
H8 O4 1.009259 1_555
H9 O5 1.007357 1_555
H10 O6 0.989611 1_554
H11 O7 0.989212 1_555
H12 O8 1.011358 1_555
H12 O10 1.636274 1_466
H13 O9 1.018832 1_555
H13 O8 1.566952 1_555
H14 O10 1.014275 1_555
H14 O11 1.595599 1_555
H15 O11 1.009506 1_555
H15 O9 1.632758 1_645
O0 Pt0 2.039484 1_545
O1 Pt1 2.046238 1_556
O2 Pt0 2.054706 1_555
O3 Pt1 2.029830 1_455
O4 Pt1 2.062252 1_555
O5 Pt0 2.057621 1_545
O6 Pt1 2.030709 1_456
O7 Pt0 2.026572 1_555
O8 Pt1 2.029011 1_456
O9 Pt0 2.017771 1_555
O10 Pt1 2.021768 1_555
O11 Pt0 2.026855 1_545
