# generated using pymatgen
data_Li5SiN3
_symmetry_space_group_name_H-M   'P 1'
_cell_length_a   8.17076100
_cell_length_b   8.19531751
_cell_length_c   20.64413058
_cell_angle_alpha   97.61860635
_cell_angle_beta   97.28310445
_cell_angle_gamma   109.31994694
_symmetry_Int_Tables_number   1
_chemical_formula_structural   Li5SiN3
_chemical_formula_sum   'Li80 Si16 N48'
_cell_volume   1271.31148331
_cell_formula_units_Z   16
loop_
 _symmetry_equiv_pos_site_id
 _symmetry_equiv_pos_as_xyz
  1  'x, y, z'
loop_
 _atom_site_type_symbol
 _atom_site_label
 _atom_site_symmetry_multiplicity
 _atom_site_fract_x
 _atom_site_fract_y
 _atom_site_fract_z
 _atom_site_occupancy
  Li  Li0  1  0.05808800  0.59347500  0.92040500  1
  Li  Li1  1  0.12050500  0.09153300  0.92232400  1
  Li  Li2  1  0.33483700  0.79447600  0.92201400  1
  Li  Li3  1  0.44261500  0.71277800  0.82900200  1
  Li  Li4  1  0.40710800  0.94538600  0.58674200  1
  Li  Li5  1  0.29694800  0.57641900  0.64401000  1
  Li  Li6  1  0.37642500  0.35212500  0.90633500  1
  Li  Li7  1  0.50136500  0.96691300  0.76045700  1
  Li  Li8  1  0.60023900  0.63244500  0.92503500  1
  Li  Li9  1  0.42206600  0.15918200  0.82391400  1
  Li  Li10  1  0.73106400  0.92584500  0.84602900  1
  Li  Li11  1  0.69807300  0.11980700  0.58740900  1
  Li  Li12  1  0.76682800  0.74716700  0.75330700  1
  Li  Li13  1  0.58665600  0.28180100  0.66446300  1
  Li  Li14  1  0.64771100  0.43883400  0.83912000  1
  Li  Li15  1  0.85091600  0.10717700  0.68776600  1
  Li  Li16  1  0.77201600  0.01820200  0.48090700  1
  Li  Li17  1  0.65007900  0.90318900  0.31809800  1
  Li  Li18  1  0.74435900  0.28953800  0.25330200  1
  Li  Li19  1  0.70367800  0.68411700  0.57922900  1
  Li  Li20  1  0.82694200  0.32414400  0.42262400  1
  Li  Li21  1  0.86745800  0.84316100  0.92811800  1
  Li  Li22  1  0.08099300  0.59265200  0.43187400  1
  Li  Li23  1  0.73082100  0.24097500  0.76544300  1
  Li  Li24  1  0.81674300  0.82227800  0.40132600  1
  Li  Li25  1  0.80028700  0.34866800  0.91449400  1
  Li  Li26  1  0.80062700  0.56840600  0.66362000  1
  Li  Li27  1  0.99444900  0.00039700  0.75678000  1
  Li  Li28  1  0.90877600  0.94514500  0.58492000  1
  Li  Li29  1  0.89351300  0.65589200  0.84031300  1
  Li  Li30  1  0.75015400  0.50492100  0.49546400  1
  Li  Li31  1  0.03225300  0.25165800  0.48718200  1
  Li  Li32  1  0.02788500  0.47555300  0.25976300  1
  Li  Li33  1  0.04959600  0.83283400  0.66880500  1
  Li  Li34  1  0.94954300  0.49831100  0.74628500  1
  Li  Li35  1  0.93471400  0.18037400  0.84364000  1
  Li  Li36  1  0.96331800  0.77400200  0.49337000  1
  Li  Li37  1  0.91326200  0.62932500  0.34105800  1
  Li  Li38  1  0.06623500  0.04730100  0.40481000  1
  Li  Li39  1  0.18754500  0.44576600  0.35708800  1
  Li  Li40  1  0.10612700  0.38407400  0.15844900  1
  Li  Li41  1  0.97003900  0.23665100  0.98088900  1
  Li  Li42  1  0.03380600  0.01572200  0.24384600  1
  Li  Li43  1  0.14962500  0.64131600  0.08628300  1
  Li  Li44  1  0.13789100  0.71134200  0.57905200  1
  Li  Li45  1  0.32935300  0.33488100  0.42925200  1
  Li  Li46  1  0.22493000  0.71459900  0.73412600  1
  Li  Li47  1  0.14116900  0.88782200  0.33043200  1
  Li  Li48  1  0.09080200  0.35606600  0.68007800  1
  Li  Li49  1  0.33374000  0.04572900  0.68091600  1
  Li  Li50  1  0.08611400  0.83086100  0.15776500  1
  Li  Li51  1  0.22608500  0.97559800  0.49539200  1
  Li  Li52  1  0.23791200  0.28398400  0.25285200  1
  Li  Li53  1  0.37307500  0.59727300  0.15422600  1
  Li  Li54  1  0.37530500  0.16346900  0.33468000  1
  Li  Li55  1  0.30598900  0.83057100  0.41101800  1
  Li  Li56  1  0.22865800  0.22163200  0.74798100  1
  Li  Li57  1  0.31420500  0.09790400  0.17211000  1
  Li  Li58  1  0.23545300  0.94921800  0.00129400  1
  Li  Li59  1  0.43985500  0.41008200  0.08172200  1
  Li  Li60  1  0.51876100  0.78109200  0.01102300  1
  Li  Li61  1  0.26056800  0.52036900  0.51415200  1
  Li  Li62  1  0.40277900  0.90751900  0.09482600  1
  Li  Li63  1  0.49703200  0.04254500  0.25061700  1
  Li  Li64  1  0.66268900  0.67543300  0.08932300  1
  Li  Li65  1  0.56874700  0.06043900  0.39822200  1
  Li  Li66  1  0.47366100  0.44573900  0.59160600  1
  Li  Li67  1  0.65542500  0.39263700  0.34380100  1
  Li  Li68  1  0.42945800  0.68072400  0.34348900  1
  Li  Li69  1  0.56344600  0.30240700  0.16269900  1
  Li  Li70  1  0.45465200  0.23063400  0.99349200  1
  Li  Li71  1  0.70864000  0.48568200  0.99647200  1
  Li  Li72  1  0.61616000  0.14994700  0.07072800  1
  Li  Li73  1  0.57853800  0.57411800  0.41707400  1
  Li  Li74  1  0.60278700  0.85705000  0.18023100  1
  Li  Li75  1  0.88188800  0.38085400  0.06483900  1
  Li  Li76  1  0.97519400  0.71212700  0.00727400  1
  Li  Li77  1  0.80379600  0.76544200  0.26003300  1
  Li  Li78  1  0.76162200  0.00867600  0.00644600  1
  Li  Li79  1  0.90448100  0.90193500  0.08183400  1
  Si  Si0  1  0.57971100  0.06717900  0.91413600  1
  Si  Si1  1  0.51846700  0.22516900  0.50359400  1
  Si  Si2  1  0.48194700  0.49215900  0.73705900  1
  Si  Si3  1  0.59103800  0.83157600  0.66292500  1
  Si  Si4  1  0.93305900  0.41396400  0.57982100  1
  Si  Si5  1  0.84802600  0.56335600  0.16748500  1
  Si  Si6  1  0.92520800  0.18084000  0.33010900  1
  Si  Si7  1  0.26985700  0.75022200  0.24447300  1
  Si  Si8  1  0.17344100  0.89855900  0.83191300  1
  Si  Si9  1  0.19758400  0.18399700  0.59100900  1
  Si  Si10  1  0.17230900  0.44544900  0.82870000  1
  Si  Si11  1  0.15809600  0.16745200  0.07354700  1
  Si  Si12  1  0.26331600  0.50381400  0.99464100  1
  Si  Si13  1  0.52272900  0.50900600  0.25305800  1
  Si  Si14  1  0.51185200  0.77111500  0.50071400  1
  Si  Si15  1  0.84169300  0.11413000  0.16340500  1
  N  N0  1  0.34061000  0.04268900  0.90333500  1
  N  N1  1  0.13986900  0.37887200  0.91028600  1
  N  N2  1  0.38844300  0.44468200  0.81225500  1
  N  N3  1  0.58455100  0.04304800  0.67361700  1
  N  N4  1  0.68952800  0.36508100  0.57453000  1
  N  N5  1  0.48952400  0.70968100  0.72618900  1
  N  N6  1  0.59180500  0.86152300  0.91905000  1
  N  N7  1  0.45710500  0.70888400  0.58203000  1
  N  N8  1  0.69131000  0.48135000  0.74602800  1
  N  N9  1  0.72363200  0.77222000  0.49802100  1
  N  N10  1  0.69972200  0.22055400  0.98671400  1
  N  N11  1  0.81711800  0.58593700  0.92079700  1
  N  N12  1  0.80639900  0.83696000  0.66781600  1
  N  N13  1  0.65892200  0.14084700  0.84375300  1
  N  N14  1  0.02271600  0.70751000  0.23669900  1
  N  N15  1  0.92034200  0.39281900  0.33737200  1
  N  N16  1  0.83119200  0.08092100  0.39368800  1
  N  N17  1  0.97980700  0.21028300  0.58287500  1
  N  N18  1  0.96785600  0.91352900  0.83985400  1
  N  N19  1  0.79918700  0.05438500  0.24443500  1
  N  N20  1  0.23530400  0.96707100  0.75896000  1
  N  N21  1  0.01530400  0.28671400  0.76594300  1
  N  N22  1  0.06610600  0.82141000  0.41492200  1
  N  N23  1  0.06436400  0.12270900  0.15329800  1
  N  N24  1  0.04267800  0.56438800  0.65309100  1
  N  N25  1  0.16489200  0.96527400  0.59115700  1
  N  N26  1  0.16515100  0.66479600  0.82981400  1
  N  N27  1  0.14044600  0.18006500  0.33222800  1
  N  N28  1  0.99571800  0.49064700  0.50983300  1
  N  N29  1  0.01573300  0.01720700  0.00767300  1
  N  N30  1  0.30655300  0.24930700  0.52175300  1
  N  N31  1  0.16978200  0.39145200  0.06327400  1
  N  N32  1  0.30161100  0.53896500  0.24281000  1
  N  N33  1  0.24523600  0.71022000  0.00544500  1
  N  N34  1  0.56125400  0.30311000  0.43106900  1
  N  N35  1  0.35710100  0.61657200  0.43642300  1
  N  N36  1  0.36953800  0.15603500  0.08325100  1
  N  N37  1  0.48778000  0.28649000  0.25147900  1
  N  N38  1  0.38582000  0.89544900  0.31775500  1
  N  N39  1  0.50888200  0.99932400  0.50065800  1
  N  N40  1  0.33531700  0.33378200  0.66575400  1
  N  N41  1  0.33194400  0.82934900  0.17467100  1
  N  N42  1  0.47603800  0.50683000  0.00023400  1
  N  N43  1  0.62980700  0.57420000  0.18042800  1
  N  N44  1  0.89446000  0.63590500  0.09481500  1
  N  N45  1  0.68699600  0.95429900  0.10068300  1
  N  N46  1  0.65363200  0.64548200  0.32437200  1
  N  N47  1  0.83743400  0.33685400  0.16488200  1
loop_
_geom_bond_atom_site_label_1
_geom_bond_atom_site_label_2
_geom_bond_distance
_geom_bond_site_symmetry_2
Li0 N11 1.950429 1_455
Li0 N33 2.059523 1_556
Li0 N1 2.073381 1_555
Li0 N26 2.229518 1_555
Li1 N0 2.040031 1_555
Li1 N18 2.044857 1_445
Li1 N29 2.128462 1_556
Li1 N1 2.355981 1_555
Li2 N6 1.998048 1_555
Li2 N33 2.068783 1_556
Li2 N0 2.106642 1_565
Li2 N26 2.119950 1_555
Li3 N2 2.063765 1_555
Li3 N6 2.066160 1_555
Li3 N26 2.171662 1_555
Li3 N5 2.202477 1_555
Li4 N3 2.037503 1_565
Li4 N25 2.051073 1_555
Li4 N39 2.094005 1_555
Li4 N7 2.101665 1_555
Li5 N5 2.059513 1_555
Li5 N24 2.080700 1_555
Li5 N7 2.093080 1_555
Li5 N40 2.206209 1_555
Li6 N1 2.026365 1_555
Li6 N42 2.071966 1_556
Li6 N2 2.178729 1_555
Li6 N0 2.446041 1_555
Li7 N13 2.054428 1_565
Li7 N3 2.095263 1_565
Li7 N5 2.099083 1_555
Li7 N20 2.170651 1_555
Li8 N6 1.920800 1_555
Li8 N11 1.941785 1_555
Li8 N42 2.152106 1_556
Li9 N20 1.984226 1_545
Li9 N13 1.985813 1_555
Li9 N0 2.076996 1_555
Li10 N18 1.989501 1_555
Li10 N6 2.023294 1_555
Li10 N13 2.038754 1_565
Li11 N4 2.084688 1_555
Li11 N39 2.095497 1_545
Li11 N3 2.180067 1_555
Li11 N17 2.191185 1_555
Li12 N12 2.022995 1_555
Li12 N8 2.036969 1_555
Li12 N5 2.171123 1_555
Li12 N18 2.208453 1_555
Li13 N3 1.985224 1_555
Li13 N8 2.054363 1_555
Li13 N4 2.229643 1_555
Li13 N40 2.233680 1_555
Li14 N11 1.994371 1_555
Li14 N8 2.051985 1_555
Li14 N2 2.138671 1_555
Li15 N21 2.021567 1_655
Li15 N3 2.034583 1_555
Li15 N12 2.095994 1_545
Li16 N16 2.010395 1_555
Li16 N9 2.010447 1_545
Li16 N39 2.198092 1_545
Li17 N16 2.032778 1_565
Li17 N38 2.138126 1_555
Li17 N46 2.142492 1_555
Li17 N19 2.302764 1_565
Li18 N15 1.992131 1_555
Li18 N37 2.083799 1_555
Li18 N47 2.098845 1_555
Li18 N19 2.108704 1_555
Li19 N9 1.915941 1_555
Li19 N12 1.981346 1_555
Li19 N7 2.097742 1_555
Li20 N16 2.016577 1_555
Li20 N15 2.077395 1_555
Li20 N28 2.116357 1_555
Li20 N34 2.151537 1_555
Li21 N29 1.982552 1_666
Li21 N11 1.990441 1_555
Li21 N18 2.161079 1_555
Li21 N6 2.292456 1_555
Li22 N22 1.991481 1_555
Li22 N28 2.007514 1_455
Li22 N35 2.187604 1_555
Li22 N15 2.300486 1_455
Li23 N13 1.976254 1_555
Li23 N8 2.177827 1_555
Li23 N21 2.227108 1_655
Li23 N3 2.231710 1_555
Li24 N46 1.993599 1_555
Li24 N22 2.023685 1_655
Li24 N16 2.111759 1_565
Li24 N9 2.264403 1_555
Li25 N11 1.889004 1_555
Li25 N13 1.994677 1_555
Li25 N10 2.038433 1_555
Li26 N24 2.027308 1_655
Li26 N8 2.118134 1_555
Li26 N12 2.175628 1_555
Li26 N4 2.178633 1_555
Li27 N18 1.952200 1_545
Li27 N20 2.070258 1_645
Li27 N12 2.190530 1_545
Li27 N21 2.276017 1_655
Li28 N25 2.029940 1_655
Li28 N17 2.063046 1_565
Li28 N12 2.165395 1_555
Li28 N9 2.175860 1_555
Li29 N11 1.938481 1_555
Li29 N18 1.996314 1_555
Li29 N26 2.235494 1_655
Li29 N8 2.333875 1_555
Li30 N34 2.023013 1_555
Li30 N28 2.034969 1_555
Li30 N4 2.132693 1_555
Li30 N9 2.266016 1_555
Li31 N28 2.079247 1_455
Li31 N17 2.120687 1_455
Li31 N30 2.271462 1_555
Li31 N16 2.311054 1_455
Li32 N15 2.012355 1_455
Li32 N14 2.032281 1_555
Li32 N32 2.207334 1_555
Li32 N47 2.239788 1_455
Li33 N12 1.996122 1_455
Li33 N20 2.147826 1_555
Li33 N24 2.161541 1_555
Li33 N25 2.191507 1_555
Li34 N21 2.051431 1_655
Li34 N8 2.067410 1_555
Li34 N24 2.224534 1_655
Li34 N26 2.225777 1_655
Li35 N21 2.006140 1_655
Li35 N1 2.089647 1_655
Li35 N13 2.168274 1_555
Li35 N18 2.283369 1_545
Li36 N22 1.942896 1_655
Li36 N9 1.968236 1_555
Li36 N25 2.419649 1_655
Li37 N15 1.949902 1_555
Li37 N22 1.985640 1_655
Li37 N46 2.156178 1_555
Li37 N14 2.515390 1_655
Li38 N22 1.889957 1_545
Li38 N27 2.005691 1_555
Li38 N16 2.017914 1_455
Li39 N35 2.023561 1_555
Li39 N15 2.054642 1_455
Li39 N27 2.062071 1_555
Li40 N23 2.040233 1_555
Li40 N31 2.098671 1_555
Li40 N47 2.124306 1_455
Li40 N32 2.136006 1_555
Li41 N29 2.082075 1_656
Li41 N31 2.125970 1_656
Li41 N10 2.188367 1_555
Li41 N1 2.302506 1_655
Li42 N27 2.017686 1_555
Li42 N19 2.045068 1_455
Li42 N23 2.175637 1_555
Li42 N14 2.481224 1_545
Li43 N33 2.000673 1_555
Li43 N44 2.100897 1_455
Li43 N31 2.104987 1_555
Li43 N41 2.229259 1_555
Li44 N25 1.996557 1_555
Li44 N28 2.041140 1_455
Li44 N24 2.135768 1_555
Li45 N34 1.992615 1_555
Li45 N30 2.128842 1_555
Li45 N35 2.226489 1_555
Li45 N27 2.291417 1_555
Li46 N24 2.034915 1_555
Li46 N20 2.035390 1_555
Li46 N26 2.152640 1_555
Li46 N5 2.201852 1_555
Li47 N22 2.004190 1_555
Li47 N38 2.030428 1_555
Li47 N14 2.164567 1_555
Li47 N27 2.392367 1_565
Li48 N24 2.005147 1_555
Li48 N21 2.039143 1_555
Li48 N17 2.112475 1_455
Li48 N40 2.118770 1_555
Li49 N20 1.979677 1_545
Li49 N25 2.048817 1_545
Li49 N3 2.080888 1_555
Li49 N40 2.418222 1_555
Li50 N44 1.992922 1_455
Li50 N41 1.999095 1_555
Li50 N14 2.061532 1_555
Li50 N23 2.469071 1_565
Li51 N22 1.965951 1_555
Li51 N30 2.090409 1_565
Li51 N25 2.105376 1_555
Li51 N39 2.241032 1_555
Li52 N32 2.025605 1_555
Li52 N37 2.038746 1_555
Li52 N27 2.072876 1_555
Li52 N23 2.298312 1_555
Li53 N41 2.038259 1_555
Li53 N32 2.057040 1_555
Li53 N43 2.174986 1_555
Li53 N31 2.375985 1_555
Li54 N27 1.963015 1_555
Li54 N38 2.209773 1_545
Li54 N34 2.248729 1_555
Li54 N37 2.248896 1_555
Li55 N22 1.948877 1_555
Li55 N35 2.048962 1_555
Li55 N38 2.185280 1_555
Li55 N39 2.260959 1_555
Li56 N2 2.035947 1_555
Li56 N21 2.046373 1_555
Li56 N20 2.145647 1_545
Li56 N40 2.178196 1_555
Li57 N36 2.023842 1_555
Li57 N37 2.091345 1_555
Li57 N23 2.110436 1_555
Li57 N41 2.260027 1_545
Li58 N33 1.999116 1_555
Li58 N29 2.062332 1_565
Li58 N36 2.115806 1_565
Li58 N0 2.414633 1_564
Li59 N42 1.967407 1_555
Li59 N36 1.973910 1_555
Li59 N31 2.141601 1_555
Li59 N43 2.336719 1_555
Li60 N33 2.098456 1_555
Li60 N42 2.133503 1_555
Li60 N45 2.167403 1_555
Li60 N6 2.180510 1_554
Li61 N35 2.015812 1_555
Li61 N7 2.035441 1_555
Li61 N28 2.084904 1_455
Li61 N30 2.393816 1_555
Li62 N41 1.933629 1_555
Li62 N36 2.181168 1_565
Li62 N45 2.209512 1_555
Li62 N33 2.214869 1_555
Li63 N37 2.023306 1_555
Li63 N38 2.058514 1_545
Li63 N41 2.123288 1_545
Li63 N19 2.458763 1_555
Li64 N44 2.016257 1_555
Li64 N43 2.166148 1_555
Li64 N42 2.199611 1_555
Li64 N45 2.205270 1_555
Li65 N34 2.037710 1_555
Li65 N38 2.063835 1_545
Li65 N16 2.110016 1_555
Li65 N39 2.311511 1_545
Li66 N30 1.991526 1_555
Li66 N4 2.130614 1_555
Li66 N40 2.141857 1_555
Li66 N7 2.237725 1_555
Li67 N37 2.091779 1_555
Li67 N46 2.166530 1_555
Li67 N34 2.168971 1_555
Li67 N15 2.184892 1_555
Li68 N46 2.024178 1_555
Li68 N38 2.030044 1_555
Li68 N35 2.157803 1_555
Li68 N32 2.183350 1_555
Li69 N37 2.013871 1_555
Li69 N36 2.049666 1_555
Li69 N43 2.079366 1_555
Li69 N47 2.155534 1_555
Li70 N10 2.052674 1_555
Li70 N0 2.134308 1_555
Li70 N36 2.153321 1_556
Li70 N42 2.195902 1_556
Li71 N42 1.974819 1_556
Li71 N11 2.027522 1_555
Li71 N10 2.131301 1_555
Li71 N44 2.293797 1_556
Li72 N45 2.018541 1_545
Li72 N10 2.028316 1_554
Li72 N36 2.079688 1_555
Li72 N47 2.424916 1_555
Li73 N35 2.029071 1_555
Li73 N9 2.082916 1_555
Li73 N46 2.176700 1_555
Li73 N34 2.238122 1_555
Li74 N45 2.018935 1_555
Li74 N19 2.030394 1_565
Li74 N41 2.135021 1_555
Li74 N43 2.400623 1_555
Li75 N10 2.019447 1_554
Li75 N44 2.064308 1_555
Li75 N47 2.197369 1_555
Li75 N31 2.329547 1_655
Li76 N11 1.991688 1_554
Li76 N44 2.102449 1_555
Li76 N33 2.216725 1_655
Li76 N29 2.409727 1_665
Li77 N46 2.048752 1_555
Li77 N14 2.092083 1_655
Li77 N43 2.104400 1_555
Li77 N19 2.443471 1_565
Li78 N10 2.037958 1_554
Li78 N29 2.051003 1_655
Li78 N6 2.077480 1_544
Li78 N45 2.169326 1_545
Li79 N45 2.031995 1_555
Li79 N29 2.056894 1_665
Li79 N23 2.096744 1_665
Li79 N44 2.207749 1_555
N0 Si8 1.842526 1_545
N0 Si0 1.877481 1_555
N1 Si10 1.861692 1_555
N1 Si12 1.869996 1_555
N2 Si10 1.841946 1_555
N2 Si2 1.846363 1_555
N3 Si3 1.737070 1_545
N4 Si1 1.840701 1_555
N4 Si4 1.880874 1_555
N5 Si2 1.807938 1_555
N5 Si3 1.861175 1_555
N6 Si0 1.735996 1_565
N7 Si3 1.833254 1_555
N7 Si14 1.882732 1_555
N8 Si2 1.729966 1_555
N9 Si14 1.735404 1_555
N10 Si0 1.760389 1_555
N12 Si3 1.735210 1_555
N13 Si0 1.762685 1_555
N14 Si5 1.842332 1_455
N14 Si7 1.913428 1_555
N15 Si6 1.737871 1_555
N16 Si6 1.762893 1_555
N17 Si4 1.838447 1_555
N17 Si9 1.851582 1_655
N18 Si8 1.750559 1_655
N19 Si15 1.846769 1_555
N19 Si6 1.899626 1_555
N20 Si8 1.751681 1_555
N21 Si10 1.744694 1_555
N23 Si15 1.836889 1_455
N23 Si11 1.930169 1_555
N24 Si4 1.743950 1_455
N25 Si9 1.723157 1_565
N26 Si10 1.815028 1_555
N26 Si8 1.888912 1_555
N27 Si6 1.755788 1_455
N28 Si4 1.720477 1_555
N29 Si11 1.710484 1_555
N30 Si9 1.825837 1_555
N30 Si1 1.883960 1_555
N31 Si11 1.848366 1_555
N31 Si12 1.895884 1_554
N32 Si7 1.830214 1_555
N32 Si13 1.891981 1_555
N33 Si12 1.733960 1_554
N34 Si1 1.735054 1_555
N35 Si14 1.741712 1_555
N36 Si11 1.748660 1_555
N37 Si13 1.745106 1_555
N38 Si7 1.736646 1_555
N39 Si1 1.818975 1_565
N39 Si14 1.878564 1_555
N40 Si9 1.815959 1_555
N40 Si2 1.817751 1_555
N41 Si7 1.723310 1_555
N42 Si12 1.718974 1_554
N43 Si5 1.864881 1_555
N43 Si13 1.880104 1_555
N44 Si5 1.726163 1_555
N45 Si15 1.740638 1_565
N46 Si13 1.713172 1_555
N47 Si5 1.822673 1_555
N47 Si15 1.833407 1_555
