# generated using pymatgen
data_ZnFeC5N6O
_symmetry_space_group_name_H-M   'P 1'
_cell_length_a   12.59847580
_cell_length_b   12.59847580
_cell_length_c   12.59847632
_cell_angle_alpha   99.95492107
_cell_angle_beta   99.95492107
_cell_angle_gamma   99.95492225
_symmetry_Int_Tables_number   1
_chemical_formula_structural   ZnFeC5N6O
_chemical_formula_sum   'Zn6 Fe6 C30 N36 O6'
_cell_volume   1897.04715986
_cell_formula_units_Z   6
loop_
 _symmetry_equiv_pos_site_id
 _symmetry_equiv_pos_as_xyz
  1  'x, y, z'
loop_
 _atom_site_type_symbol
 _atom_site_label
 _atom_site_symmetry_multiplicity
 _atom_site_fract_x
 _atom_site_fract_y
 _atom_site_fract_z
 _atom_site_occupancy
  Zn  Zn0  1  0.37015000  0.91479200  0.21887000  1
  Zn  Zn1  1  0.91479200  0.21887000  0.37015000  1
  Zn  Zn2  1  0.08520800  0.78113000  0.62985000  1
  Zn  Zn3  1  0.62985000  0.08520800  0.78113000  1
  Zn  Zn4  1  0.21887000  0.37015000  0.91479200  1
  Zn  Zn5  1  0.78113000  0.62985000  0.08520800  1
  Fe  Fe0  1  0.44420500  0.71005800  0.83907200  1
  Fe  Fe1  1  0.83907200  0.44420500  0.71005800  1
  Fe  Fe2  1  0.71005800  0.83907200  0.44420500  1
  Fe  Fe3  1  0.16092800  0.55579500  0.28994200  1
  Fe  Fe4  1  0.28994200  0.16092800  0.55579500  1
  Fe  Fe5  1  0.55579500  0.28994200  0.16092800  1
  C  C0  1  0.14500100  0.16061000  0.47974900  1
  C  C1  1  0.52025100  0.85499900  0.83939000  1
  C  C2  1  0.06530000  0.42550800  0.30640200  1
  C  C3  1  0.74778100  0.78036100  0.30806000  1
  C  C4  1  0.58558200  0.87611600  0.36246700  1
  C  C5  1  0.30806000  0.74778100  0.78036100  1
  C  C6  1  0.21963900  0.69194000  0.25221900  1
  C  C7  1  0.25221900  0.21963900  0.69194000  1
  C  C8  1  0.78036100  0.30806000  0.74778100  1
  C  C9  1  0.21264300  0.01109200  0.59070800  1
  C  C10  1  0.12388400  0.63753300  0.41441800  1
  C  C11  1  0.47974900  0.14500100  0.16061000  1
  C  C12  1  0.85499900  0.83939000  0.52025100  1
  C  C13  1  0.78735700  0.98890800  0.40929200  1
  C  C14  1  0.01109200  0.59070800  0.21264300  1
  C  C15  1  0.30640200  0.06530000  0.42550800  1
  C  C16  1  0.36246700  0.58558200  0.87611600  1
  C  C17  1  0.69359800  0.93470000  0.57449200  1
  C  C18  1  0.93470000  0.57449200  0.69359800  1
  C  C19  1  0.69194000  0.25221900  0.21963900  1
  C  C20  1  0.16061000  0.47974900  0.14500100  1
  C  C21  1  0.98890800  0.40929200  0.78735700  1
  C  C22  1  0.83939000  0.52025100  0.85499900  1
  C  C23  1  0.87611600  0.36246700  0.58558200  1
  C  C24  1  0.57449200  0.69359800  0.93470000  1
  C  C25  1  0.59070800  0.21264300  0.01109200  1
  C  C26  1  0.42550800  0.30640200  0.06530000  1
  C  C27  1  0.63753300  0.41441800  0.12388400  1
  C  C28  1  0.40929200  0.78735700  0.98890800  1
  C  C29  1  0.41441800  0.12388400  0.63753300  1
  N  N0  1  0.38583100  0.83058800  0.06851400  1
  N  N1  1  0.68852100  0.49333100  0.10684200  1
  N  N2  1  0.76573200  0.73784400  0.22512000  1
  N  N3  1  0.01239800  0.34466200  0.31813200  1
  N  N4  1  0.93824300  0.82824000  0.56882600  1
  N  N5  1  0.17176000  0.43117400  0.06175700  1
  N  N6  1  0.34769900  0.27153000  0.53895100  1
  N  N7  1  0.93148600  0.61416900  0.16941200  1
  N  N8  1  0.27153000  0.53895100  0.34769900  1
  N  N9  1  0.65533700  0.68186800  0.98760200  1
  N  N10  1  0.61416900  0.16941200  0.93148600  1
  N  N11  1  0.43117400  0.06175700  0.17176000  1
  N  N12  1  0.73784400  0.22512000  0.76573200  1
  N  N13  1  0.53895100  0.34769900  0.27153000  1
  N  N14  1  0.89315800  0.31147900  0.50666900  1
  N  N15  1  0.22512000  0.76573200  0.73784400  1
  N  N16  1  0.46104900  0.65230100  0.72847000  1
  N  N17  1  0.82824000  0.56882600  0.93824300  1
  N  N18  1  0.31813200  0.01239800  0.34466200  1
  N  N19  1  0.56882600  0.93824300  0.82824000  1
  N  N20  1  0.34466200  0.31813200  0.01239800  1
  N  N21  1  0.16941200  0.93148600  0.61416900  1
  N  N22  1  0.23426800  0.26215600  0.77488000  1
  N  N23  1  0.10684200  0.68852100  0.49333100  1
  N  N24  1  0.68186800  0.98760200  0.65533800  1
  N  N25  1  0.50666900  0.89315800  0.31147900  1
  N  N26  1  0.65230100  0.72847000  0.46104900  1
  N  N27  1  0.72847000  0.46104900  0.65230100  1
  N  N28  1  0.83058800  0.06851400  0.38583100  1
  N  N29  1  0.77488000  0.23426800  0.26215600  1
  N  N30  1  0.06175700  0.17176000  0.43117400  1
  N  N31  1  0.49333100  0.10684200  0.68852100  1
  N  N32  1  0.26215600  0.77488000  0.23426800  1
  N  N33  1  0.98760200  0.65533700  0.68186800  1
  N  N34  1  0.06851400  0.38583100  0.83058800  1
  N  N35  1  0.31147900  0.50666900  0.89315800  1
  O  O0  1  0.11370200  0.93480500  0.05095700  1
  O  O1  1  0.93480500  0.05095700  0.11370200  1
  O  O2  1  0.05095700  0.11370200  0.93480500  1
  O  O3  1  0.94904300  0.88629800  0.06519500  1
  O  O4  1  0.06519500  0.94904300  0.88629800  1
  O  O5  1  0.88629800  0.06519500  0.94904300  1
loop_
_geom_bond_atom_site_label_1
_geom_bond_atom_site_label_2
_geom_bond_distance
_geom_bond_site_symmetry_2
Fe0 N16 1.523542 1_555
Fe1 N27 1.523542 1_555
Fe2 N26 1.523542 1_555
Fe3 N8 1.523542 1_555
Fe4 N6 1.523542 1_555
Fe5 N13 1.523542 1_555
C0 N30 1.163129 1_555
C0 Fe4 1.908817 1_555
C1 N19 1.163129 1_555
C1 Fe0 1.908817 1_555
C2 N3 1.163979 1_555
C2 Fe3 1.925892 1_555
C3 N2 1.166186 1_555
C3 Fe2 1.918251 1_555
C4 N25 1.160956 1_555
C4 Fe2 1.896940 1_555
C5 N15 1.166186 1_555
C5 Fe0 1.918251 1_555
C6 N32 1.166186 1_555
C6 Fe3 1.918251 1_555
C7 N22 1.166186 1_555
C7 Fe4 1.918251 1_555
C8 N12 1.166186 1_555
C8 Fe1 1.918251 1_555
C9 N21 1.165818 1_545
C9 Fe4 2.122465 1_555
C10 N23 1.160956 1_555
C10 Fe3 1.896940 1_555
C11 N11 1.163129 1_555
C11 Fe5 1.908817 1_555
C12 N4 1.163129 1_555
C12 Fe2 1.908817 1_555
C13 N28 1.165818 1_565
C13 Fe2 2.122465 1_555
C14 N7 1.165818 1_455
C14 Fe3 2.122465 1_555
C15 N18 1.163979 1_555
C15 Fe4 1.925892 1_555
C16 N35 1.160956 1_555
C16 Fe0 1.896940 1_555
C17 N24 1.163979 1_555
C17 Fe2 1.925892 1_555
C18 N33 1.163968 1_555
C18 Fe1 1.925892 1_555
C19 N29 1.166186 1_555
C19 Fe5 1.918251 1_555
C20 N5 1.163129 1_555
C20 Fe3 1.908817 1_555
C21 N34 1.165818 1_655
C21 Fe1 2.122465 1_555
C22 N17 1.163129 1_555
C22 Fe1 1.908817 1_555
C23 N14 1.160956 1_555
C23 Fe1 1.896940 1_555
C24 N9 1.163969 1_555
C24 Fe0 1.925892 1_555
C25 N10 1.165818 1_554
C25 Fe5 2.122465 1_555
C26 N20 1.163979 1_555
C26 Fe5 1.925892 1_555
C27 N1 1.160956 1_555
C27 Fe5 1.896940 1_555
C28 N0 1.165818 1_556
C28 Fe0 2.122465 1_555
C29 N31 1.160956 1_555
C29 Fe4 1.896940 1_555
N0 Zn0 2.063901 1_555
N1 Zn5 1.992970 1_555
N2 Zn5 2.091911 1_555
N3 Zn1 2.101687 1_455
N4 Zn2 2.101679 1_655
N5 Zn4 2.101679 1_554
N7 Zn5 2.063901 1_555
N9 Zn5 2.101696 1_556
N10 Zn3 2.063901 1_555
N11 Zn0 2.101679 1_545
N12 Zn3 2.091911 1_555
N14 Zn1 1.992970 1_555
N15 Zn2 2.091911 1_555
N17 Zn5 2.101679 1_556
N18 Zn0 2.101687 1_545
N19 Zn3 2.101679 1_565
N20 Zn4 2.101687 1_554
N21 Zn2 2.063901 1_555
N22 Zn4 2.091911 1_555
N23 Zn2 1.992970 1_555
N24 Zn3 2.101687 1_565
N25 Zn0 1.992970 1_555
N28 Zn1 2.063901 1_555
N29 Zn1 2.091911 1_555
N30 Zn1 2.101679 1_455
N31 Zn3 1.992970 1_555
N32 Zn0 2.091911 1_555
N33 Zn2 2.101696 1_655
N34 Zn4 2.063901 1_555
N35 Zn4 1.992970 1_555
