# generated using pymatgen
data_LiSiNO
_symmetry_space_group_name_H-M   'P 1'
_cell_length_a   4.74235976
_cell_length_b   5.18100862
_cell_length_c   6.34067667
_cell_angle_alpha   90.00000000
_cell_angle_beta   90.00000000
_cell_angle_gamma   90.00000000
_symmetry_Int_Tables_number   1
_chemical_formula_structural   LiSiNO
_chemical_formula_sum   'Li4 Si4 N4 O4'
_cell_volume   155.79173701
_cell_formula_units_Z   4
loop_
 _symmetry_equiv_pos_site_id
 _symmetry_equiv_pos_as_xyz
  1  'x, y, z'
loop_
 _atom_site_type_symbol
 _atom_site_label
 _atom_site_symmetry_multiplicity
 _atom_site_fract_x
 _atom_site_fract_y
 _atom_site_fract_z
 _atom_site_occupancy
  Li  Li0  1  0.99943541  0.59686949  0.38691454  1
  Li  Li1  1  0.49943541  0.40313051  0.61308546  1
  Li  Li2  1  0.49943541  0.90313051  0.38691454  1
  Li  Li3  1  0.99943541  0.09686949  0.61308546  1
  Si  Si0  1  0.51092412  0.41913733  0.12081202  1
  Si  Si1  1  0.51092412  0.91913733  0.87918798  1
  Si  Si2  1  0.01092412  0.08086267  0.12081202  1
  Si  Si3  1  0.01092412  0.58086267  0.87918798  1
  N  N0  1  0.14690105  0.39129479  0.08564792  1
  N  N1  1  0.64690105  0.60870521  0.91435208  1
  N  N2  1  0.64690105  0.10870521  0.08564792  1
  N  N3  1  0.14690105  0.89129479  0.91435208  1
  O  O0  1  0.59273841  0.04044291  0.65517733  1
  O  O1  1  0.09273841  0.45955709  0.65517733  1
  O  O2  1  0.09273841  0.95955709  0.34482267  1
  O  O3  1  0.59273841  0.54044291  0.34482267  1
loop_
_geom_bond_atom_site_label_1
_geom_bond_atom_site_label_2
_geom_bond_distance
_geom_bond_site_symmetry_2
Li0 O1 1.896099 1_655
Li0 O2 1.948842 1_655
Li0 O3 1.968907 1_555
Li0 N0 2.296186 1_655
Li1 O3 1.896099 1_555
Li1 O0 1.948842 1_555
Li1 O1 1.968907 1_555
Li1 N1 2.296186 1_555
Li2 O0 1.896099 1_565
Li2 O3 1.948842 1_555
Li2 O2 1.968907 1_555
Li2 N2 2.296186 1_565
Li3 O2 1.896099 1_645
Li3 O1 1.948842 1_655
Li3 O0 1.968907 1_555
Li3 N3 2.296186 1_645
N0 Si0 1.746634 1_555
N0 Si2 1.747095 1_555
N0 Si3 1.759031 1_554
N1 Si3 1.746634 1_655
N1 Si1 1.747095 1_555
N1 Si0 1.759031 1_556
N2 Si2 1.746634 1_655
N2 Si0 1.747095 1_555
N2 Si1 1.759031 1_544
N3 Si1 1.746634 1_555
N3 Si3 1.747095 1_555
N3 Si2 1.759031 1_566
O0 Si1 1.600940 1_545
O1 Si3 1.600940 1_555
O2 Si2 1.600940 1_565
O3 Si0 1.600940 1_555
