# generated using pymatgen
data_Sr2AlH7
_symmetry_space_group_name_H-M   'P 1'
_cell_length_a   8.34941206
_cell_length_b   8.34941206
_cell_length_c   7.98838195
_cell_angle_alpha   69.81662232
_cell_angle_beta   69.81662232
_cell_angle_gamma   71.46763781
_symmetry_Int_Tables_number   1
_chemical_formula_structural   Sr2AlH7
_chemical_formula_sum   'Sr8 Al4 H28'
_cell_volume   477.94306729
_cell_formula_units_Z   4
loop_
 _symmetry_equiv_pos_site_id
 _symmetry_equiv_pos_as_xyz
  1  'x, y, z'
loop_
 _atom_site_type_symbol
 _atom_site_label
 _atom_site_symmetry_multiplicity
 _atom_site_fract_x
 _atom_site_fract_y
 _atom_site_fract_z
 _atom_site_occupancy
  Sr  Sr0  1  0.26402746  0.92411299  0.47793336  1
  Sr  Sr1  1  0.07588701  0.73597254  0.02206664  1
  Sr  Sr2  1  0.73597254  0.07588701  0.52206664  1
  Sr  Sr3  1  0.92411299  0.26402746  0.97793336  1
  Sr  Sr4  1  0.29031601  0.43203762  0.47680266  1
  Sr  Sr5  1  0.56796238  0.70968399  0.02319734  1
  Sr  Sr6  1  0.70968399  0.56796238  0.52319734  1
  Sr  Sr7  1  0.43203762  0.29031601  0.97680266  1
  Al  Al0  1  0.32069421  0.02373566  0.80772966  1
  Al  Al1  1  0.97626434  0.67930579  0.69227034  1
  Al  Al2  1  0.67930579  0.97626434  0.19227034  1
  Al  Al3  1  0.02373566  0.32069421  0.30772966  1
  H  H0  1  0.39425045  0.10840456  0.57424274  1
  H  H1  1  0.89159544  0.60574955  0.92575726  1
  H  H2  1  0.60574955  0.89159544  0.42575726  1
  H  H3  1  0.10840456  0.39425045  0.07424274  1
  H  H4  1  0.38653289  0.80811542  0.77365550  1
  H  H5  1  0.19188458  0.61346711  0.72634450  1
  H  H6  1  0.61346711  0.19188458  0.22634450  1
  H  H7  1  0.80811542  0.38653289  0.27365550  1
  H  H8  1  0.52360859  0.00826924  0.83156923  1
  H  H9  1  0.99173076  0.47639141  0.66843077  1
  H  H10  1  0.47639141  0.99173076  0.16843077  1
  H  H11  1  0.00826924  0.52360859  0.33156923  1
  H  H12  1  0.26001255  0.91839041  0.04087589  1
  H  H13  1  0.08160959  0.73998745  0.45912411  1
  H  H14  1  0.73998745  0.08160959  0.95912411  1
  H  H15  1  0.91839041  0.26001255  0.54087589  1
  H  H16  1  0.24370203  0.23338523  0.83327716  1
  H  H17  1  0.76661477  0.75629797  0.66672284  1
  H  H18  1  0.75629797  0.76661477  0.16672284  1
  H  H19  1  0.23338523  0.24370203  0.33327716  1
  H  H20  1  0.11702117  0.03192650  0.79333841  1
  H  H21  1  0.96807350  0.88297883  0.70666159  1
  H  H22  1  0.88297883  0.96807350  0.20666159  1
  H  H23  1  0.03192650  0.11702117  0.29333841  1
  H  H24  1  0.34067513  0.54241147  0.12724332  1
  H  H25  1  0.45758853  0.65932487  0.37275668  1
  H  H26  1  0.65932487  0.45758853  0.87275668  1
  H  H27  1  0.54241147  0.34067513  0.62724332  1
loop_
_geom_bond_atom_site_label_1
_geom_bond_atom_site_label_2
_geom_bond_distance
_geom_bond_site_symmetry_2
Al0 H0 1.712163 1_555
Al0 H16 1.720363 1_555
Al0 H20 1.722009 1_555
Al0 H8 1.729135 1_555
Al0 H12 1.732287 1_546
Al0 H4 1.795316 1_545
Al1 H1 1.712163 1_555
Al1 H17 1.720363 1_555
Al1 H21 1.722009 1_555
Al1 H9 1.729135 1_555
Al1 H13 1.732287 1_655
Al1 H5 1.795316 1_655
Al2 H2 1.712163 1_555
Al2 H18 1.720363 1_555
Al2 H22 1.722009 1_555
Al2 H10 1.729135 1_555
Al2 H14 1.732287 1_564
Al2 H6 1.795316 1_565
Al3 H3 1.712163 1_555
Al3 H19 1.720363 1_555
Al3 H23 1.722009 1_555
Al3 H11 1.729135 1_555
Al3 H15 1.732287 1_455
Al3 H7 1.795316 1_455
H0 Sr4 2.486896 1_555
H0 Sr0 2.568936 1_545
H0 Sr2 2.674530 1_555
H1 Sr5 2.486896 1_556
H1 Sr1 2.568936 1_656
H1 Sr3 2.674530 1_555
H2 Sr6 2.486896 1_555
H2 Sr2 2.568936 1_565
H2 Sr0 2.674530 1_555
H3 Sr7 2.486896 1_554
H3 Sr3 2.568936 1_454
H3 Sr1 2.674530 1_555
H4 Sr0 2.650233 1_555
H4 Sr5 2.665667 1_556
H4 Sr1 2.764897 1_556
H5 Sr1 2.650233 1_556
H5 Sr4 2.665667 1_555
H5 Sr0 2.764897 1_555
H6 Sr2 2.650233 1_555
H6 Sr7 2.665667 1_554
H6 Sr3 2.764897 1_554
H7 Sr3 2.650233 1_554
H7 Sr6 2.665667 1_555
H7 Sr2 2.764897 1_555
H8 Sr5 2.422077 1_546
H8 Sr2 2.494710 1_555
H8 Sr7 2.757703 1_555
H9 Sr4 2.422077 1_655
H9 Sr3 2.494710 1_555
H9 Sr6 2.757703 1_555
H10 Sr7 2.422077 1_564
H10 Sr0 2.494710 1_555
H10 Sr5 2.757703 1_555
H11 Sr6 2.422077 1_455
H11 Sr1 2.494710 1_555
H11 Sr4 2.757703 1_555
H12 Sr1 2.551770 1_555
H12 Sr5 2.595893 1_555
H13 Sr0 2.551770 1_555
H13 Sr4 2.595893 1_555
H14 Sr3 2.551770 1_555
H14 Sr7 2.595893 1_555
H15 Sr2 2.551770 1_555
H15 Sr6 2.595893 1_555
H16 Sr7 2.471549 1_555
H16 Sr3 2.482603 1_455
H16 Sr4 2.719922 1_555
H17 Sr6 2.471549 1_555
H17 Sr2 2.482603 1_565
H17 Sr5 2.719922 1_556
H18 Sr5 2.471549 1_555
H18 Sr1 2.482603 1_655
H18 Sr6 2.719922 1_555
H19 Sr4 2.471549 1_555
H19 Sr0 2.482603 1_545
H19 Sr7 2.719922 1_554
H20 Sr1 2.559962 1_546
H20 Sr3 2.621649 1_455
H20 Sr0 2.719160 1_545
H21 Sr0 2.559962 1_655
H21 Sr2 2.621649 1_565
H21 Sr1 2.719160 1_656
H22 Sr3 2.559962 1_564
H22 Sr1 2.621649 1_655
H22 Sr2 2.719160 1_565
H23 Sr2 2.559962 1_455
H23 Sr0 2.621649 1_545
H23 Sr3 2.719160 1_454
H24 Sr5 2.457250 1_555
H24 Sr1 2.505803 1_555
H24 Sr4 2.546368 1_555
H24 Sr7 2.559066 1_554
H25 Sr4 2.457250 1_555
H25 Sr0 2.505803 1_555
H25 Sr5 2.546368 1_555
H25 Sr6 2.559066 1_555
H26 Sr7 2.457250 1_555
H26 Sr3 2.505803 1_555
H26 Sr6 2.546368 1_555
H26 Sr5 2.559066 1_556
H27 Sr6 2.457250 1_555
H27 Sr2 2.505803 1_555
H27 Sr7 2.546368 1_555
H27 Sr4 2.559066 1_555
