# generated using pymatgen
data_KFePO4F
_symmetry_space_group_name_H-M   'P 1'
_cell_length_a   6.44680100
_cell_length_b   10.80440100
_cell_length_c   13.05242200
_cell_angle_alpha   90.00000000
_cell_angle_beta   90.00000000
_cell_angle_gamma   90.00000000
_symmetry_Int_Tables_number   1
_chemical_formula_structural   KFePO4F
_chemical_formula_sum   'K8 Fe8 P8 O32 F8'
_cell_volume   909.15109394
_cell_formula_units_Z   8
loop_
 _symmetry_equiv_pos_site_id
 _symmetry_equiv_pos_as_xyz
  1  'x, y, z'
loop_
 _atom_site_type_symbol
 _atom_site_label
 _atom_site_symmetry_multiplicity
 _atom_site_fract_x
 _atom_site_fract_y
 _atom_site_fract_z
 _atom_site_occupancy
  K  K0  1  0.77270400  0.20309100  0.37531900  1
  K  K1  1  0.30263100  0.94282800  0.89493400  1
  K  K2  1  0.80263100  0.44282800  0.60506600  1
  K  K3  1  0.19736900  0.94282800  0.39493400  1
  K  K4  1  0.69736900  0.44282800  0.10506600  1
  K  K5  1  0.27270400  0.70309100  0.12468100  1
  K  K6  1  0.72729600  0.20309100  0.87531900  1
  K  K7  1  0.22729600  0.70309100  0.62468100  1
  Fe  Fe0  1  0.75093900  0.74870400  0.25312700  1
  Fe  Fe1  1  0.24906100  0.24870400  0.74687300  1
  Fe  Fe2  1  0.74906100  0.74870400  0.75312700  1
  Fe  Fe3  1  0.25093900  0.24870400  0.24687300  1
  Fe  Fe4  1  0.49326500  0.49906200  0.38851700  1
  Fe  Fe5  1  0.50673500  0.99906200  0.61148300  1
  Fe  Fe6  1  0.00673500  0.49906200  0.88851700  1
  Fe  Fe7  1  0.99326500  0.99906200  0.11148300  1
  P  P0  1  0.99808600  0.49614500  0.31731800  1
  P  P1  1  0.49808600  0.99614500  0.18268200  1
  P  P2  1  0.50191400  0.49614500  0.81731800  1
  P  P3  1  0.00191400  0.99614500  0.68268200  1
  P  P4  1  0.16990600  0.24783000  0.99998100  1
  P  P5  1  0.83009400  0.74783000  0.00001900  1
  P  P6  1  0.33009400  0.24783000  0.49998100  1
  P  P7  1  0.66990600  0.74783000  0.50001900  1
  O  O0  1  0.30798200  0.96919600  0.11303900  1
  O  O1  1  0.81041400  0.02331000  0.61520800  1
  O  O2  1  0.31041400  0.52331000  0.88479200  1
  O  O3  1  0.68958600  0.02331000  0.11520800  1
  O  O4  1  0.03593800  0.38129000  0.24696100  1
  O  O5  1  0.96406200  0.88129000  0.75303900  1
  O  O6  1  0.46406200  0.38129000  0.74696100  1
  O  O7  1  0.53593800  0.88129000  0.25303900  1
  O  O8  1  0.51891500  0.85911300  0.51404200  1
  O  O9  1  0.48108500  0.35911300  0.48595800  1
  O  O10  1  0.98108500  0.85911300  0.01404200  1
  O  O11  1  0.01891500  0.35911300  0.98595800  1
  O  O12  1  0.80798200  0.46919600  0.38696100  1
  O  O13  1  0.19201800  0.96919600  0.61303900  1
  O  O14  1  0.69201800  0.46919600  0.88696100  1
  O  O15  1  0.18958600  0.52331000  0.38479200  1
  O  O16  1  0.52915000  0.63114800  0.48865900  1
  O  O17  1  0.47085000  0.13114800  0.51134100  1
  O  O18  1  0.97085000  0.63114800  0.98865900  1
  O  O19  1  0.45202200  0.10721300  0.25539400  1
  O  O20  1  0.80725500  0.76727900  0.40434700  1
  O  O21  1  0.19274500  0.26727900  0.59565300  1
  O  O22  1  0.69274500  0.76727900  0.90434700  1
  O  O23  1  0.30725500  0.26727900  0.09565300  1
  O  O24  1  0.69403000  0.72967800  0.09680000  1
  O  O25  1  0.30597000  0.22967800  0.90320000  1
  O  O26  1  0.80597000  0.72967800  0.59680000  1
  O  O27  1  0.19403000  0.22967800  0.40320000  1
  O  O28  1  0.95202200  0.60721300  0.24460600  1
  O  O29  1  0.04797800  0.10721300  0.75539400  1
  O  O30  1  0.54797800  0.60721300  0.74460600  1
  O  O31  1  0.02915000  0.13114800  0.01134100  1
  F  F0  1  0.98102300  0.86860800  0.22755500  1
  F  F1  1  0.01897700  0.36860800  0.77244500  1
  F  F2  1  0.51897700  0.86860800  0.72755500  1
  F  F3  1  0.48102300  0.36860800  0.27244500  1
  F  F4  1  0.02608500  0.11980600  0.23036800  1
  F  F5  1  0.97391500  0.61980600  0.76963200  1
  F  F6  1  0.47391500  0.11980600  0.73036800  1
  F  F7  1  0.52608500  0.61980600  0.26963200  1
loop_
_geom_bond_atom_site_label_1
_geom_bond_atom_site_label_2
_geom_bond_distance
_geom_bond_site_symmetry_2
K0 O17 2.746487 1_555
K0 O27 2.755489 1_655
K0 O19 2.792370 1_555
K0 O12 2.888087 1_555
K0 O9 2.908874 1_555
K0 O4 3.064912 1_655
K1 O10 2.744472 1_456
K1 O0 2.861226 1_556
K1 O5 2.938769 1_455
K1 O29 3.027688 1_565
K1 O31 3.091430 1_566
K1 O25 3.101195 1_565
K1 O22 3.152417 1_555
K2 O9 2.744472 1_555
K2 O12 2.861226 1_555
K2 O6 2.938769 1_555
K2 O30 3.027688 1_555
K2 O16 3.091430 1_555
K2 O26 3.101195 1_555
K2 O21 3.152417 1_655
K3 O8 2.744472 1_555
K3 O13 2.861226 1_555
K3 O7 2.938769 1_555
K3 O19 3.027688 1_565
K3 O17 3.091430 1_565
K3 O27 3.101195 1_565
K3 O20 3.152417 1_455
K4 O11 2.744472 1_654
K4 O14 2.861226 1_554
K4 O4 2.938769 1_655
K4 O28 3.027688 1_555
K4 O18 3.091430 1_554
K4 O24 3.101195 1_555
K4 O23 3.152417 1_555
K5 O18 2.746487 1_454
K5 O24 2.755489 1_555
K5 O28 2.792370 1_455
K5 O0 2.888087 1_555
K5 O10 2.908874 1_455
K5 O7 3.064912 1_555
K6 O31 2.746487 1_656
K6 O25 2.755489 1_555
K6 O29 2.792370 1_655
K6 O14 2.888087 1_555
K6 O11 2.908874 1_655
K6 O6 3.064912 1_555
K7 O16 2.746487 1_555
K7 O26 2.755489 1_455
K7 O30 2.792370 1_555
K7 O13 2.888087 1_555
K7 O8 2.908874 1_555
K7 O5 3.064912 1_455
Fe0 O7 1.993309 1_555
Fe0 O28 2.007455 1_555
Fe0 O20 2.016910 1_555
Fe0 O24 2.083333 1_555
Fe1 O6 1.993309 1_555
Fe1 O29 2.007455 1_555
Fe1 O21 2.016910 1_555
Fe1 O25 2.083333 1_555
Fe2 O5 1.993309 1_555
Fe2 O30 2.007455 1_555
Fe2 O22 2.016910 1_555
Fe2 O26 2.083333 1_555
Fe3 O4 1.993309 1_555
Fe3 O19 2.007455 1_555
Fe3 O23 2.016910 1_555
Fe3 O27 2.083333 1_555
Fe4 O16 1.949016 1_555
Fe4 O15 1.975808 1_555
Fe4 O9 1.977394 1_555
Fe4 O12 2.054518 1_555
Fe5 O17 1.949016 1_565
Fe5 O1 1.975808 1_565
Fe5 O8 1.977394 1_555
Fe5 O13 2.054518 1_555
Fe6 O18 1.949016 1_455
Fe6 O2 1.975808 1_555
Fe6 O11 1.977394 1_555
Fe6 O14 2.054518 1_455
Fe7 O31 1.949016 1_665
Fe7 O3 1.975808 1_565
Fe7 O10 1.977394 1_555
Fe7 O0 2.054518 1_655
O0 P1 1.553410 1_555
O1 P3 1.544642 1_645
O2 P2 1.544642 1_555
O3 P1 1.544642 1_545
O4 P0 1.562948 1_455
O5 P3 1.562948 1_655
O6 P2 1.562948 1_555
O7 P1 1.562948 1_555
O8 P7 1.557775 1_555
O9 P6 1.557775 1_555
O10 P5 1.557775 1_555
O11 P4 1.557775 1_555
O12 P0 1.553410 1_555
O13 P3 1.553410 1_555
O14 P2 1.553410 1_555
O15 P0 1.544642 1_455
O16 P7 1.560359 1_555
O17 P6 1.560359 1_555
O18 P5 1.560359 1_556
O19 P1 1.558517 1_545
O20 P7 1.545179 1_555
O21 P6 1.545179 1_555
O22 P5 1.545179 1_556
O23 P4 1.545179 1_554
O24 P5 1.550369 1_555
O25 P4 1.550369 1_555
O26 P7 1.550369 1_555
O27 P6 1.550369 1_555
O28 P0 1.558517 1_555
O29 P3 1.558517 1_545
O30 P2 1.558517 1_555
O31 P4 1.560359 1_554
F0 Fe0 1.997473 1_555
F0 Fe7 2.070783 1_555
F0 K3 2.713165 1_655
F0 K5 2.921813 1_655
F1 Fe1 1.997473 1_555
F1 Fe6 2.070783 1_555
F1 K2 2.713165 1_455
F1 K6 2.921813 1_455
F2 Fe2 1.997473 1_555
F2 Fe5 2.070783 1_555
F2 K1 2.713165 1_555
F2 K7 2.921813 1_555
F3 Fe3 1.997473 1_555
F3 Fe4 2.070783 1_555
F3 K4 2.713165 1_555
F3 K0 2.921813 1_555
F4 Fe3 2.021691 1_555
F4 Fe7 2.038271 1_445
F4 K0 2.656605 1_455
F4 K3 3.080496 1_545
F5 Fe2 2.021691 1_555
F5 Fe6 2.038271 1_655
F5 K7 2.656605 1_655
F5 K2 3.080496 1_555
F6 Fe1 2.021691 1_555
F6 Fe5 2.038271 1_545
F6 K6 2.656605 1_555
F6 K1 3.080496 1_545
F7 Fe0 2.021691 1_555
F7 Fe4 2.038271 1_555
F7 K5 2.656605 1_555
F7 K4 3.080496 1_555
