# generated using pymatgen
data_GdTi2CdO6F
_symmetry_space_group_name_H-M   'P 1'
_cell_length_a   7.24135117
_cell_length_b   7.24135117
_cell_length_c   7.24135117
_cell_angle_alpha   120.96721418
_cell_angle_beta   118.53085446
_cell_angle_gamma   90.44808928
_symmetry_Int_Tables_number   1
_chemical_formula_structural   GdTi2CdO6F
_chemical_formula_sum   'Gd2 Ti4 Cd2 O12 F2'
_cell_volume   269.35845544
_cell_formula_units_Z   2
loop_
 _symmetry_equiv_pos_site_id
 _symmetry_equiv_pos_as_xyz
  1  'x, y, z'
loop_
 _atom_site_type_symbol
 _atom_site_label
 _atom_site_symmetry_multiplicity
 _atom_site_fract_x
 _atom_site_fract_y
 _atom_site_fract_z
 _atom_site_occupancy
  Gd  Gd0  1  0.00000000  0.00000000  0.00000000  1
  Gd  Gd1  1  0.50000000  0.00000000  0.50000000  1
  Ti  Ti0  1  0.50000000  0.50000000  0.00000000  1
  Ti  Ti1  1  0.00000000  0.50000000  0.50000000  1
  Ti  Ti2  1  0.00000000  0.00000000  0.50000000  1
  Ti  Ti3  1  0.00000000  0.50000000  0.00000000  1
  Cd  Cd0  1  0.50000000  0.50000000  0.50000000  1
  Cd  Cd1  1  0.50000000  0.00000000  0.00000000  1
  O  O0  1  0.92790900  0.58489800  0.75874400  1
  O  O1  1  0.91611800  0.16611800  0.75000000  1
  O  O2  1  0.32615400  0.58489800  0.15698900  1
  O  O3  1  0.92790900  0.16916500  0.34301100  1
  O  O4  1  0.32646800  0.57646800  0.75000000  1
  O  O5  1  0.32615400  0.16916500  0.74125600  1
  O  O6  1  0.67353200  0.42353200  0.25000000  1
  O  O7  1  0.67384600  0.83083500  0.25874400  1
  O  O8  1  0.07209100  0.83083500  0.65698900  1
  O  O9  1  0.67384600  0.41510200  0.84301100  1
  O  O10  1  0.07209100  0.41510200  0.24125600  1
  O  O11  1  0.08388200  0.83388200  0.25000000  1
  F  F0  1  0.37265100  0.12265100  0.25000000  1
  F  F1  1  0.62734900  0.87734900  0.75000000  1
loop_
_geom_bond_atom_site_label_1
_geom_bond_atom_site_label_2
_geom_bond_distance
_geom_bond_site_symmetry_2
Gd0 O8 2.461732 1_544
Gd0 O0 2.461732 1_444
Gd0 O10 2.461732 1_555
Gd0 O3 2.461732 1_455
Gd0 O1 2.509050 1_454
Gd0 O11 2.509050 1_545
Gd1 O7 2.461732 1_545
Gd1 O2 2.461732 1_545
Gd1 O9 2.461732 1_555
Gd1 O5 2.461732 1_555
Gd1 O1 2.509050 1_555
Gd1 O11 2.509050 1_545
Cd0 F0 2.206693 1_555
Cd0 F1 2.206693 1_555
Cd0 O6 2.513044 1_555
Cd0 O4 2.513044 1_555
Cd0 O9 2.594004 1_555
Cd0 O10 2.594004 1_555
Cd0 O0 2.594004 1_555
Cd0 O2 2.594004 1_555
Cd1 F0 2.206693 1_555
Cd1 F1 2.206693 1_544
Cd1 O6 2.513044 1_555
Cd1 O4 2.513044 1_544
Cd1 O7 2.594004 1_545
Cd1 O3 2.594004 1_555
Cd1 O5 2.594004 1_554
Cd1 O8 2.594004 1_544
O0 Ti1 1.978647 1_655
O0 Ti3 1.985355 1_656
O1 Ti2 1.978412 1_655
O1 Ti3 1.978412 1_656
O2 Ti0 1.978647 1_555
O2 Ti3 1.985355 1_555
O3 Ti1 1.978647 1_655
O3 Ti2 1.985355 1_655
O4 Ti0 2.008078 1_556
O4 Ti1 2.008078 1_555
O5 Ti0 1.978647 1_556
O5 Ti2 1.985355 1_555
O6 Ti1 2.008078 1_655
O6 Ti0 2.008078 1_555
O7 Ti0 1.978647 1_555
O7 Ti2 1.985355 1_665
O8 Ti1 1.978647 1_555
O8 Ti2 1.985355 1_565
O9 Ti0 1.978647 1_556
O9 Ti3 1.985355 1_656
O10 Ti1 1.978647 1_555
O10 Ti3 1.985355 1_555
O11 Ti3 1.978412 1_555
O11 Ti2 1.978412 1_565
F0 Gd1 2.233663 1_555
F0 Gd0 2.233663 1_555
F1 Gd1 2.233663 1_565
F1 Gd0 2.233663 1_666
