# generated using pymatgen
data_K5InO4
_symmetry_space_group_name_H-M   'P 1'
_cell_length_a   13.45967600
_cell_length_b   16.91453655
_cell_length_c   17.09771726
_cell_angle_alpha   114.14836031
_cell_angle_beta   112.97889649
_cell_angle_gamma   90.25729865
_symmetry_Int_Tables_number   1
_chemical_formula_structural   K5InO4
_chemical_formula_sum   'K80 In16 O64'
_cell_volume   3206.97873755
_cell_formula_units_Z   16
loop_
 _symmetry_equiv_pos_site_id
 _symmetry_equiv_pos_as_xyz
  1  'x, y, z'
loop_
 _atom_site_type_symbol
 _atom_site_label
 _atom_site_symmetry_multiplicity
 _atom_site_fract_x
 _atom_site_fract_y
 _atom_site_fract_z
 _atom_site_occupancy
  K  K0  1  0.51626000  0.87541300  0.97075600  1
  K  K1  1  0.88986000  0.89192100  0.72009300  1
  K  K2  1  0.47204200  0.05038600  0.61090700  1
  K  K3  1  0.22033400  0.30857200  0.44591800  1
  K  K4  1  0.26834600  0.86533300  0.54601800  1
  K  K5  1  0.41640100  0.74736900  0.25583100  1
  K  K6  1  0.21107600  0.48715700  0.78635100  1
  K  K7  1  0.48652600  0.88621100  0.16121200  1
  K  K8  1  0.31600900  0.94453700  0.85803400  1
  K  K9  1  0.58596700  0.54510600  0.35178800  1
  K  K10  1  0.89659900  0.99052700  0.23095300  1
  K  K11  1  0.82290400  0.48845100  0.40129900  1
  K  K12  1  0.27165300  0.18926700  0.54741300  1
  K  K13  1  0.72834700  0.81073300  0.45258700  1
  K  K14  1  0.71211100  0.01658800  0.60702500  1
  K  K15  1  0.10517500  0.21329200  0.88516200  1
  K  K16  1  0.41403300  0.45489400  0.64821200  1
  K  K17  1  0.17709600  0.51154900  0.59870100  1
  K  K18  1  0.58261900  0.35077500  0.33386600  1
  K  K19  1  0.25783400  0.67097900  0.02191300  1
  K  K20  1  0.83070300  0.73286800  0.89964400  1
  K  K21  1  0.96769700  0.56450700  0.62833100  1
  K  K22  1  0.11014000  0.10807900  0.27990700  1
  K  K23  1  0.45495200  0.87417100  0.74615500  1
  K  K24  1  0.78892400  0.51284300  0.21364900  1
  K  K25  1  0.96636000  0.38071300  0.75650300  1
  K  K26  1  0.59659300  0.66635500  0.87600000  1
  K  K27  1  0.72371100  0.28729700  0.64536300  1
  K  K28  1  0.68080100  0.76402100  0.71757100  1
  K  K29  1  0.13315600  0.75606700  0.70090100  1
  K  K30  1  0.07392800  0.86343700  0.34454600  1
  K  K31  1  0.65226000  0.76415000  0.10893900  1
  K  K32  1  0.27628900  0.71270300  0.35463700  1
  K  K33  1  0.73165400  0.13466700  0.45398200  1
  K  K34  1  0.00492900  0.60616900  0.84234900  1
  K  K35  1  0.25292500  0.84638300  0.99559800  1
  K  K36  1  0.58602700  0.63430500  0.22394900  1
  K  K37  1  0.00047800  0.91668500  0.52311500  1
  K  K38  1  0.52795800  0.94961400  0.38909300  1
  K  K39  1  0.70282100  0.97809400  0.78042000  1
  K  K40  1  0.31103400  0.52101200  0.21306400  1
  K  K41  1  0.10340100  0.00947300  0.76904700  1
  K  K42  1  0.89482500  0.78670800  0.11483800  1
  K  K43  1  0.29717900  0.02190600  0.21958000  1
  K  K44  1  0.00745700  0.60596700  0.03293500  1
  K  K45  1  0.99952200  0.08331500  0.47688500  1
  K  K46  1  0.17098200  0.27352500  0.71780100  1
  K  K47  1  0.16929700  0.26713200  0.10035600  1
  K  K48  1  0.40340700  0.33364500  0.12400000  1
  K  K49  1  0.92607200  0.13656300  0.65545400  1
  K  K50  1  0.77966600  0.69142800  0.55408200  1
  K  K51  1  0.34774000  0.23585000  0.89106100  1
  K  K52  1  0.99099700  0.19837400  0.14585200  1
  K  K53  1  0.31919900  0.23597900  0.28242900  1
  K  K54  1  0.86684400  0.24393300  0.29909900  1
  K  K55  1  0.54504800  0.12582900  0.25384500  1
  K  K56  1  0.28788900  0.98341200  0.39297500  1
  K  K57  1  0.58359900  0.25263100  0.74416900  1
  K  K58  1  0.82901800  0.72647500  0.28219900  1
  K  K59  1  0.74216600  0.32902100  0.97808700  1
  K  K60  1  0.79129600  0.36076300  0.52000600  1
  K  K61  1  0.46550800  0.57370300  0.97033300  1
  K  K62  1  0.51347400  0.11378900  0.83878800  1
  K  K63  1  0.03230300  0.43549300  0.37166900  1
  K  K64  1  0.00900300  0.80162600  0.85414800  1
  K  K65  1  0.02144700  0.94697900  0.05930100  1
  K  K66  1  0.99507100  0.39383100  0.15765100  1
  K  K67  1  0.51791700  0.40873700  0.50673100  1
  K  K68  1  0.48208300  0.59126300  0.49326900  1
  K  K69  1  0.97855300  0.05302100  0.94069900  1
  K  K70  1  0.20870400  0.63923700  0.47999400  1
  K  K71  1  0.68896600  0.47898800  0.78693600  1
  K  K72  1  0.41397300  0.36569500  0.77605100  1
  K  K73  1  0.48374000  0.12458700  0.02924400  1
  K  K74  1  0.74707500  0.15361700  0.00440200  1
  K  K75  1  0.99254300  0.39403300  0.96706500  1
  K  K76  1  0.53449200  0.42629700  0.02966700  1
  K  K77  1  0.68399100  0.05546300  0.14196600  1
  K  K78  1  0.03364000  0.61928700  0.24349700  1
  K  K79  1  0.41738100  0.64922500  0.66613400  1
  In  In0  1  0.25259200  0.07320600  0.66642700  1
  In  In1  1  0.96930100  0.70128900  0.47679100  1
  In  In2  1  0.32825200  0.68808900  0.84165800  1
  In  In3  1  0.51412000  0.79821800  0.51581700  1
  In  In4  1  0.26032900  0.43974200  0.34620900  1
  In  In5  1  0.03069900  0.29871100  0.52320900  1
  In  In6  1  0.73967100  0.56025800  0.65379100  1
  In  In7  1  0.74740800  0.92679400  0.33357300  1
  In  In8  1  0.75523100  0.94314000  0.97576200  1
  In  In9  1  0.15583200  0.82133600  0.16116200  1
  In  In10  1  0.84416800  0.17866400  0.83883800  1
  In  In11  1  0.74668400  0.53989300  0.01288400  1
  In  In12  1  0.25331600  0.46010700  0.98711600  1
  In  In13  1  0.48588000  0.20178200  0.48418300  1
  In  In14  1  0.67174800  0.31191100  0.15834200  1
  In  In15  1  0.24476900  0.05686000  0.02423800  1
  O  O0  1  0.11292800  0.50584400  0.92037200  1
  O  O1  1  0.88707200  0.49415600  0.07962800  1
  O  O2  1  0.31928600  0.14997300  0.38969500  1
  O  O3  1  0.35846000  0.77929300  0.79422600  1
  O  O4  1  0.49887200  0.68560500  0.39159600  1
  O  O5  1  0.60549100  0.58904400  0.68944500  1
  O  O6  1  0.30760800  0.48831800  0.49520900  1
  O  O7  1  0.32155900  0.86179700  0.19557700  1
  O  O8  1  0.67844100  0.13820300  0.80442300  1
  O  O9  1  0.09661800  0.93513100  0.22376300  1
  O  O10  1  0.81989400  0.46794700  0.69555200  1
  O  O11  1  0.90338200  0.06486900  0.77623700  1
  O  O12  1  0.80682400  0.99061100  0.48308300  1
  O  O13  1  0.50112800  0.31439500  0.60840400  1
  O  O14  1  0.42591900  0.88504600  0.46851800  1
  O  O15  1  0.38311000  0.57286700  0.78286200  1
  O  O16  1  0.27611500  0.15639300  0.98842800  1
  O  O17  1  0.57498800  0.25587100  0.00946800  1
  O  O18  1  0.64154000  0.22070700  0.20577400  1
  O  O19  1  0.05700600  0.74539400  0.41752900  1
  O  O20  1  0.72388500  0.84360700  0.01157200  1
  O  O21  1  0.14773700  0.32202900  0.28067700  1
  O  O22  1  0.87071700  0.87927200  0.29115600  1
  O  O23  1  0.42501200  0.74412900  0.99053200  1
  O  O24  1  0.19317600  0.00938900  0.51691700  1
  O  O25  1  0.03497300  0.18922500  0.40552100  1
  O  O26  1  0.85226300  0.67797100  0.71932300  1
  O  O27  1  0.15771500  0.65505400  0.79990700  1
  O  O28  1  0.06168400  0.76741100  0.01056300  1
  O  O29  1  0.32145100  0.98708600  0.72518300  1
  O  O30  1  0.83177200  0.89895600  0.88246300  1
  O  O31  1  0.37675500  0.57087900  0.10028800  1
  O  O32  1  0.16822800  0.10104400  0.11753700  1
  O  O33  1  0.12928300  0.12072800  0.70884400  1
  O  O34  1  0.86333200  0.05574900  0.10219000  1
  O  O35  1  0.62324500  0.42912100  0.89971200  1
  O  O36  1  0.18010600  0.53205300  0.30444800  1
  O  O37  1  0.84228500  0.34494600  0.20009300  1
  O  O38  1  0.87245800  0.26802600  0.78990200  1
  O  O39  1  0.13666800  0.94425100  0.89781000  1
  O  O40  1  0.93831600  0.23258900  0.98943700  1
  O  O41  1  0.21125700  0.37493800  0.03553400  1
  O  O42  1  0.67854900  0.01291400  0.27481700  1
  O  O43  1  0.78874300  0.62506200  0.96446600  1
  O  O44  1  0.94299400  0.25460600  0.58247100  1
  O  O45  1  0.96502700  0.81077500  0.59447900  1
  O  O46  1  0.60865000  0.99210400  0.92559800  1
  O  O47  1  0.68071400  0.85002700  0.61030500  1
  O  O48  1  0.39135000  0.00789600  0.07440200  1
  O  O49  1  0.04167300  0.60706500  0.52025600  1
  O  O50  1  0.43095000  0.75109500  0.57694400  1
  O  O51  1  0.80069800  0.64509700  0.38173900  1
  O  O52  1  0.69239200  0.51168200  0.50479100  1
  O  O53  1  0.39450900  0.41095600  0.31055500  1
  O  O54  1  0.12754200  0.73197400  0.21009800  1
  O  O55  1  0.56905000  0.24890500  0.42305600  1
  O  O56  1  0.32075300  0.39661900  0.89002700  1
  O  O57  1  0.67924700  0.60338100  0.10997300  1
  O  O58  1  0.57408100  0.11495400  0.53148200  1
  O  O59  1  0.37664800  0.18334900  0.71965900  1
  O  O60  1  0.95832700  0.39293500  0.47974400  1
  O  O61  1  0.62335200  0.81665100  0.28034100  1
  O  O62  1  0.61689000  0.42713300  0.21713800  1
  O  O63  1  0.19930200  0.35490300  0.61826100  1
loop_
_geom_bond_atom_site_label_1
_geom_bond_atom_site_label_2
_geom_bond_distance
_geom_bond_site_symmetry_2
K0 O3 2.685695 1_555
K0 O20 2.717355 1_556
K0 O23 2.732748 1_555
K0 O46 2.830693 1_555
K0 O48 3.177965 1_566
K1 O47 2.591932 1_555
K1 O45 2.610986 1_555
K1 O11 2.659582 1_565
K1 O30 3.123739 1_555
K2 O14 2.714256 1_545
K2 O58 2.753068 1_555
K2 O59 2.938104 1_555
K2 O8 3.104251 1_555
K3 O21 2.713173 1_555
K3 O63 2.853250 1_555
K3 O25 2.871447 1_555
K3 O6 2.903822 1_555
K3 O2 2.969208 1_555
K4 O29 2.692843 1_555
K4 O24 2.798125 1_565
K4 O19 2.907893 1_555
K4 O50 2.962036 1_555
K4 O14 2.985724 1_555
K5 O7 2.657795 1_555
K5 O4 2.773924 1_555
K5 O61 2.822292 1_555
K5 O31 2.941246 1_555
K6 O15 2.759605 1_555
K6 O63 2.769457 1_555
K6 O56 2.804440 1_555
K6 O27 2.871294 1_555
K6 O0 2.978332 1_555
K7 O7 2.579703 1_555
K7 O23 2.708247 1_554
K7 O42 2.769545 1_565
K7 O61 2.824200 1_555
K7 O48 3.019788 1_565
K8 O29 2.673911 1_555
K8 O3 2.708315 1_555
K8 O39 2.752026 1_555
K8 O48 3.111227 1_566
K9 O62 2.540094 1_555
K9 O4 2.609533 1_555
K9 O52 2.739805 1_555
K9 O53 3.083284 1_555
K9 O51 3.093201 1_555
K10 O22 2.565370 1_555
K10 O34 2.736119 1_565
K10 O9 2.885790 1_655
K10 O25 3.326965 1_665
K11 O60 2.760818 1_555
K11 O51 2.806352 1_555
K11 O52 2.869760 1_555
K11 O49 2.960495 1_655
K11 O62 3.027235 1_555
K12 O59 2.770053 1_555
K12 O2 2.830510 1_555
K12 O63 2.904085 1_555
K12 O24 2.981244 1_555
K12 O25 3.161996 1_555
K12 O13 3.275271 1_555
K13 O61 2.770053 1_555
K13 O47 2.830510 1_555
K13 O51 2.904085 1_555
K13 O12 2.981244 1_555
K13 O45 3.161996 1_555
K13 O4 3.275271 1_555
K14 O12 2.767913 1_545
K14 O58 2.792958 1_555
K14 O11 2.810240 1_555
K14 O47 2.873326 1_545
K15 O41 2.733418 1_556
K15 O16 2.752407 1_555
K15 O33 2.924231 1_555
K15 O11 3.051540 1_455
K16 O15 2.540094 1_555
K16 O13 2.609533 1_555
K16 O6 2.739805 1_555
K16 O5 3.083284 1_555
K16 O63 3.093201 1_555
K17 O49 2.760818 1_555
K17 O63 2.806352 1_555
K17 O6 2.869760 1_555
K17 O60 2.960495 1_455
K17 O15 3.027235 1_555
K18 O53 2.678199 1_555
K18 O55 2.773513 1_555
K18 O18 2.773994 1_555
K18 O52 2.866311 1_555
K18 O62 2.947296 1_555
K19 O31 2.725894 1_555
K19 O0 2.821266 1_554
K19 O23 2.888396 1_554
K19 O28 3.092895 1_555
K19 O7 3.180395 1_555
K20 O43 2.646784 1_555
K20 O28 2.842003 1_656
K20 O20 2.911602 1_556
K20 O30 2.942249 1_555
K20 O26 2.968233 1_555
K21 O49 2.728101 1_655
K21 O27 2.814833 1_655
K21 O26 2.826441 1_555
K21 O60 2.933633 1_555
K22 O2 2.591932 1_555
K22 O25 2.610986 1_555
K22 O9 2.659582 1_545
K22 O32 3.123739 1_555
K23 O3 2.613745 1_555
K23 O29 2.663303 1_555
K23 O50 2.672942 1_555
K23 O46 2.769770 1_555
K24 O62 2.759605 1_555
K24 O51 2.769457 1_555
K24 O57 2.804440 1_555
K24 O37 2.871294 1_555
K24 O1 2.978332 1_555
K25 O10 2.613377 1_555
K25 O38 2.643669 1_555
K25 O0 2.648850 1_655
K25 O44 2.751887 1_555
K26 O43 2.700144 1_555
K26 O15 2.760267 1_555
K26 O20 2.909317 1_556
K26 O5 2.963990 1_555
K27 O38 2.650228 1_555
K27 O13 2.890668 1_555
K27 O58 2.930272 1_555
K27 O10 2.949711 1_555
K27 O55 3.315531 1_555
K28 O26 2.730802 1_555
K28 O30 2.739921 1_555
K28 O47 2.767885 1_555
K28 O5 2.906240 1_555
K28 O50 3.223065 1_555
K29 O45 2.733061 1_455
K29 O3 2.755887 1_555
K29 O27 2.797975 1_555
K29 O49 2.835716 1_555
K30 O22 2.577457 1_455
K30 O24 2.770288 1_565
K30 O19 2.802132 1_555
K30 O54 2.806576 1_555
K30 O9 2.892518 1_555
K31 O57 2.751403 1_555
K31 O23 2.857221 1_554
K31 O61 2.879651 1_555
K31 O20 2.929020 1_555
K31 O22 3.158499 1_555
K32 O54 2.650228 1_555
K32 O4 2.890668 1_555
K32 O14 2.930272 1_555
K32 O36 2.949711 1_555
K32 O50 3.315531 1_555
K33 O42 2.692843 1_555
K33 O12 2.798125 1_545
K33 O44 2.907893 1_555
K33 O55 2.962036 1_555
K33 O58 2.985724 1_555
K34 O27 2.660846 1_555
K34 O0 2.670689 1_555
K34 O28 2.853347 1_556
K34 O10 2.869517 1_455
K34 O26 2.976539 1_455
K35 O48 2.780763 1_566
K35 O39 2.868693 1_555
K35 O23 2.904125 1_555
K35 O28 3.039482 1_556
K35 O7 3.068296 1_556
K36 O57 2.593535 1_555
K36 O31 2.649959 1_555
K36 O61 2.805286 1_555
K36 O51 3.027595 1_555
K36 O4 3.308273 1_555
K37 O45 2.676005 1_455
K37 O12 2.857021 1_455
K37 O19 3.007490 1_555
K37 O24 3.084001 1_565
K38 O58 2.714256 1_565
K38 O14 2.753068 1_555
K38 O61 2.938104 1_555
K38 O7 3.104251 1_555
K39 O8 2.610373 1_565
K39 O47 2.721052 1_555
K39 O30 2.723160 1_555
K39 O11 3.106075 1_565
K39 O46 3.130825 1_555
K40 O36 2.737832 1_555
K40 O41 2.787983 1_555
K40 O31 2.804946 1_555
K40 O53 2.932840 1_555
K40 O4 3.227746 1_555
K41 O33 2.565370 1_555
K41 O39 2.736119 1_545
K41 O11 2.885790 1_455
K41 O45 3.326965 1_445
K42 O43 2.733418 1_554
K42 O20 2.752407 1_555
K42 O22 2.924231 1_555
K42 O9 3.051540 1_655
K43 O7 2.610373 1_545
K43 O2 2.721052 1_555
K43 O32 2.723160 1_555
K43 O9 3.106075 1_545
K43 O48 3.130825 1_555
K44 O54 2.682257 1_555
K44 O43 2.787112 1_454
K44 O0 2.841711 1_554
K44 O1 3.009564 1_455
K44 O28 3.031627 1_555
K45 O25 2.676005 1_655
K45 O24 2.857021 1_655
K45 O44 3.007490 1_555
K45 O12 3.084001 1_545
K46 O33 2.571783 1_555
K46 O63 2.712011 1_555
K46 O56 2.716792 1_555
K46 O44 2.952005 1_455
K46 O59 3.162172 1_555
K47 O41 2.646784 1_555
K47 O40 2.842003 1_454
K47 O16 2.911602 1_554
K47 O32 2.942249 1_555
K47 O21 2.968233 1_555
K48 O41 2.700144 1_555
K48 O62 2.760267 1_555
K48 O16 2.909317 1_554
K48 O53 2.963990 1_555
K49 O33 2.577457 1_655
K49 O12 2.770288 1_545
K49 O44 2.802132 1_555
K49 O38 2.806576 1_555
K49 O11 2.892518 1_555
K50 O26 2.713173 1_555
K50 O51 2.853250 1_555
K50 O45 2.871447 1_555
K50 O52 2.903822 1_555
K50 O47 2.969208 1_555
K51 O56 2.751403 1_555
K51 O17 2.857221 1_556
K51 O59 2.879651 1_555
K51 O16 2.929020 1_555
K51 O33 3.158499 1_555
K52 O21 2.521431 1_655
K52 O34 2.611029 1_555
K52 O40 2.789129 1_554
K52 O32 2.986634 1_655
K52 O37 3.259704 1_555
K53 O21 2.730802 1_555
K53 O32 2.739921 1_555
K53 O2 2.767885 1_555
K53 O53 2.906240 1_555
K53 O55 3.223065 1_555
K54 O25 2.733061 1_655
K54 O18 2.755887 1_555
K54 O37 2.797975 1_555
K54 O60 2.835716 1_555
K55 O18 2.613745 1_555
K55 O42 2.663303 1_555
K55 O55 2.672942 1_555
K55 O48 2.769770 1_555
K56 O24 2.767913 1_565
K56 O14 2.792958 1_555
K56 O9 2.810240 1_555
K56 O2 2.873326 1_565
K57 O8 2.657795 1_555
K57 O13 2.773924 1_555
K57 O59 2.822292 1_555
K57 O35 2.941246 1_555
K58 O22 2.571783 1_555
K58 O51 2.712011 1_555
K58 O57 2.716792 1_555
K58 O19 2.952005 1_655
K58 O61 3.162172 1_555
K59 O35 2.725894 1_555
K59 O1 2.821266 1_556
K59 O17 2.888396 1_556
K59 O40 3.092895 1_555
K59 O8 3.180395 1_555
K60 O10 2.661403 1_555
K60 O60 2.707066 1_555
K60 O44 2.903989 1_555
K60 O52 2.942735 1_555
K60 O55 2.964325 1_555
K61 O57 2.805729 1_556
K61 O23 2.841253 1_555
K61 O31 2.919771 1_556
K61 O15 2.948135 1_555
K61 O56 3.024396 1_555
K62 O8 2.579703 1_555
K62 O17 2.708247 1_556
K62 O29 2.769545 1_545
K62 O59 2.824200 1_555
K62 O46 3.019788 1_545
K63 O60 2.728101 1_455
K63 O37 2.814833 1_455
K63 O21 2.826441 1_555
K63 O49 2.933633 1_555
K64 O26 2.521431 1_455
K64 O39 2.611029 1_555
K64 O28 2.789129 1_556
K64 O30 2.986634 1_455
K64 O27 3.259704 1_555
K65 O9 2.685574 1_555
K65 O32 2.824936 1_565
K65 O30 2.874753 1_454
K65 O28 2.917057 1_555
K65 O34 2.932833 1_465
K66 O37 2.660846 1_555
K66 O1 2.670689 1_555
K66 O40 2.853347 1_554
K66 O36 2.869517 1_655
K66 O21 2.976539 1_655
K67 O55 2.729496 1_555
K67 O13 2.862275 1_555
K67 O52 2.935870 1_555
K67 O6 3.111162 1_555
K67 O5 3.122048 1_555
K67 O53 3.124798 1_555
K68 O50 2.729496 1_555
K68 O4 2.862275 1_555
K68 O6 2.935870 1_555
K68 O52 3.111162 1_555
K68 O53 3.122048 1_555
K68 O5 3.124798 1_555
K69 O11 2.685574 1_555
K69 O30 2.824936 1_545
K69 O32 2.874753 1_656
K69 O40 2.917057 1_555
K69 O39 2.932833 1_645
K70 O36 2.661403 1_555
K70 O49 2.707066 1_555
K70 O19 2.903989 1_555
K70 O6 2.942735 1_555
K70 O50 2.964325 1_555
K71 O10 2.737832 1_555
K71 O43 2.787983 1_555
K71 O35 2.804946 1_555
K71 O5 2.932840 1_555
K71 O13 3.227746 1_555
K72 O56 2.593535 1_555
K72 O35 2.649959 1_555
K72 O59 2.805286 1_555
K72 O63 3.027595 1_555
K72 O13 3.308273 1_555
K73 O18 2.685695 1_555
K73 O16 2.717355 1_554
K73 O17 2.732748 1_555
K73 O48 2.830693 1_555
K73 O46 3.177965 1_544
K74 O46 2.780763 1_544
K74 O34 2.868693 1_555
K74 O17 2.904125 1_555
K74 O40 3.039482 1_554
K74 O8 3.068296 1_554
K75 O38 2.682257 1_555
K75 O41 2.787112 1_656
K75 O1 2.841711 1_556
K75 O0 3.009564 1_655
K75 O40 3.031627 1_555
K76 O56 2.805729 1_554
K76 O17 2.841253 1_555
K76 O35 2.919771 1_554
K76 O62 2.948135 1_555
K76 O57 3.024396 1_555
K77 O42 2.673911 1_555
K77 O18 2.708315 1_555
K77 O34 2.752026 1_555
K77 O46 3.111227 1_544
K78 O36 2.613377 1_555
K78 O54 2.643669 1_555
K78 O1 2.648850 1_455
K78 O19 2.751887 1_555
K79 O5 2.678199 1_555
K79 O50 2.773513 1_555
K79 O3 2.773994 1_555
K79 O6 2.866311 1_555
K79 O15 2.947296 1_555
In0 O33 2.097974 1_555
In0 O29 2.114854 1_545
In0 O24 2.116055 1_555
In0 O59 2.117878 1_555
In1 O49 2.111639 1_655
In1 O19 2.126315 1_655
In1 O45 2.127014 1_555
In1 O51 2.128772 1_555
In2 O15 2.084115 1_555
In2 O27 2.115020 1_555
In2 O3 2.116198 1_555
In2 O23 2.121364 1_555
In3 O47 2.097952 1_555
In3 O14 2.111431 1_555
In3 O4 2.127756 1_555
In3 O50 2.137248 1_555
In4 O21 2.082823 1_555
In4 O36 2.106907 1_555
In4 O53 2.120152 1_555
In4 O6 2.141726 1_555
In5 O60 2.111639 1_455
In5 O44 2.126315 1_455
In5 O25 2.127014 1_555
In5 O63 2.128772 1_555
In6 O26 2.082823 1_555
In6 O10 2.106907 1_555
In6 O5 2.120152 1_555
In6 O52 2.141726 1_555
In7 O22 2.097974 1_555
In7 O42 2.114854 1_565
In7 O12 2.116055 1_555
In7 O61 2.117878 1_555
In8 O20 2.103792 1_556
In8 O30 2.116403 1_555
In8 O34 2.137353 1_566
In8 O46 2.142120 1_555
In9 O54 2.099541 1_555
In9 O7 2.102930 1_555
In9 O9 2.116563 1_555
In9 O28 2.142011 1_555
In10 O38 2.099541 1_555
In10 O8 2.102930 1_555
In10 O11 2.116563 1_555
In10 O40 2.142011 1_555
In11 O43 2.101296 1_554
In11 O57 2.111714 1_555
In11 O35 2.123840 1_554
In11 O1 2.126757 1_555
In12 O41 2.101296 1_556
In12 O56 2.111714 1_555
In12 O31 2.123840 1_556
In12 O0 2.126757 1_555
In13 O2 2.097952 1_555
In13 O58 2.111431 1_555
In13 O13 2.127756 1_555
In13 O55 2.137248 1_555
In14 O62 2.084115 1_555
In14 O37 2.115020 1_555
In14 O18 2.116198 1_555
In14 O17 2.121364 1_555
In15 O16 2.103792 1_554
In15 O32 2.116403 1_555
In15 O39 2.137353 1_544
In15 O48 2.142120 1_555
