# generated using pymatgen
data_Nb3IrSe8
_symmetry_space_group_name_H-M   'P 1'
_cell_length_a   7.00106905
_cell_length_b   7.00106905
_cell_length_c   14.37862563
_cell_angle_alpha   69.50343529
_cell_angle_beta   69.50343529
_cell_angle_gamma   59.78584784
_symmetry_Int_Tables_number   1
_chemical_formula_structural   Nb3IrSe8
_chemical_formula_sum   'Nb6 Ir2 Se16'
_cell_volume   557.14257573
_cell_formula_units_Z   2
loop_
 _symmetry_equiv_pos_site_id
 _symmetry_equiv_pos_as_xyz
  1  'x, y, z'
loop_
 _atom_site_type_symbol
 _atom_site_label
 _atom_site_symmetry_multiplicity
 _atom_site_fract_x
 _atom_site_fract_y
 _atom_site_fract_z
 _atom_site_occupancy
  Nb  Nb0  1  0.01789061  0.75435690  0.00020772  1
  Nb  Nb1  1  0.75435690  0.01789061  0.50020772  1
  Nb  Nb2  1  0.03232998  0.21994275  0.99808699  1
  Nb  Nb3  1  0.49837495  0.28533620  0.00130314  1
  Nb  Nb4  1  0.28533620  0.49837495  0.50130314  1
  Nb  Nb5  1  0.21994275  0.03232998  0.49808699  1
  Ir  Ir0  1  0.75326681  0.45273243  0.49957290  1
  Ir  Ir1  1  0.45273243  0.75326681  0.99957290  1
  Se  Se0  1  0.22011020  0.98352741  0.86259378  1
  Se  Se1  1  0.54497439  0.75418476  0.60457501  1
  Se  Se2  1  0.23967813  0.47660665  0.87482192  1
  Se  Se3  1  0.72728615  0.49192633  0.87767238  1
  Se  Se4  1  0.95966466  0.69738443  0.39536876  1
  Se  Se5  1  0.52219030  0.25689739  0.63615819  1
  Se  Se6  1  0.69738443  0.95966466  0.89536876  1
  Se  Se7  1  0.98352741  0.22011020  0.36259378  1
  Se  Se8  1  0.25689739  0.52219030  0.13615819  1
  Se  Se9  1  0.01414642  0.29087631  0.62186117  1
  Se  Se10  1  0.02871827  0.78407258  0.62599103  1
  Se  Se11  1  0.29087631  0.01414642  0.12186117  1
  Se  Se12  1  0.47660665  0.23967813  0.37482192  1
  Se  Se13  1  0.49192633  0.72728615  0.37767238  1
  Se  Se14  1  0.78407258  0.02871827  0.12599103  1
  Se  Se15  1  0.75418476  0.54497439  0.10457501  1
loop_
_geom_bond_atom_site_label_1
_geom_bond_atom_site_label_2
_geom_bond_distance
_geom_bond_site_symmetry_2
Nb0 Se8 2.567341 1_555
Nb0 Se0 2.568067 1_554
Nb0 Se14 2.614400 1_465
Nb0 Se2 2.626482 1_554
Nb0 Se6 2.641721 1_454
Nb0 Se15 2.655655 1_455
Nb1 Se5 2.567341 1_555
Nb1 Se7 2.568067 1_555
Nb1 Se10 2.614400 1_645
Nb1 Se12 2.626482 1_555
Nb1 Se4 2.641721 1_545
Nb1 Se1 2.655655 1_545
Nb2 Se11 2.520937 1_556
Nb2 Se0 2.556932 1_545
Nb2 Se14 2.564107 1_456
Nb2 Se2 2.659101 1_555
Nb2 Se15 2.684538 1_456
Nb2 Se3 2.715193 1_455
Nb3 Se3 2.521440 1_554
Nb3 Se8 2.549943 1_555
Nb3 Se2 2.557552 1_554
Nb3 Se14 2.661135 1_555
Nb3 Se6 2.684881 1_544
Nb3 Se11 2.725372 1_555
Nb4 Se13 2.521440 1_555
Nb4 Se5 2.549943 1_555
Nb4 Se12 2.557552 1_555
Nb4 Se10 2.661135 1_555
Nb4 Se4 2.684881 1_455
Nb4 Se9 2.725372 1_555
Nb5 Se9 2.520937 1_555
Nb5 Se7 2.556932 1_455
Nb5 Se10 2.564107 1_545
Nb5 Se12 2.659101 1_555
Nb5 Se1 2.684538 1_545
Nb5 Se13 2.715193 1_545
Ir0 Se4 2.538578 1_555
Ir0 Se1 2.540118 1_555
Ir0 Se13 2.541921 1_555
Ir0 Se5 2.544744 1_555
Ir0 Se9 2.546039 1_655
Ir0 Se7 2.551615 1_555
Ir1 Se6 2.538578 1_555
Ir1 Se15 2.540118 1_556
Ir1 Se3 2.541921 1_555
Ir1 Se8 2.544744 1_556
Ir1 Se11 2.546039 1_566
Ir1 Se0 2.551615 1_555
