# generated using pymatgen
data_KNO3
_symmetry_space_group_name_H-M   'P 1'
_cell_length_a   4.56602534
_cell_length_b   4.56602534
_cell_length_c   4.56602571
_cell_angle_alpha   74.35728749
_cell_angle_beta   74.35728749
_cell_angle_gamma   74.35729053
_symmetry_Int_Tables_number   1
_chemical_formula_structural   KNO3
_chemical_formula_sum   'K1 N1 O3'
_cell_volume   86.26040384
_cell_formula_units_Z   1
loop_
 _symmetry_equiv_pos_site_id
 _symmetry_equiv_pos_as_xyz
  1  'x, y, z'
loop_
 _atom_site_type_symbol
 _atom_site_label
 _atom_site_symmetry_multiplicity
 _atom_site_fract_x
 _atom_site_fract_y
 _atom_site_fract_z
 _atom_site_occupancy
  K  K0  1  0.50000000  0.50000000  0.50000000  1
  N  N0  1  -0.00000000  0.00000000  0.00000000  1
  O  O0  1  0.77169011  0.00000000  0.22830989  1
  O  O1  1  -0.00000000  0.22830989  0.77169011  1
  O  O2  1  0.22830989  0.77169011  0.00000000  1
loop_
_geom_bond_atom_site_label_1
_geom_bond_atom_site_label_2
_geom_bond_distance
_geom_bond_site_symmetry_2
K0 O1 2.731323 1_555
K0 O0 2.731323 1_565
K0 O0 2.731324 1_555
K0 O1 2.731324 1_655
K0 O2 2.731324 1_555
K0 O2 2.731324 1_556
N0 O2 1.259932 1_545
N0 O0 1.259932 1_455
N0 O1 1.259932 1_554
