# generated using pymatgen
data_Hg2H12C4I5N
_symmetry_space_group_name_H-M   'P 1'
_cell_length_a   14.26063300
_cell_length_b   14.78457100
_cell_length_c   18.57608100
_cell_angle_alpha   90.00000000
_cell_angle_beta   90.00000000
_cell_angle_gamma   90.00000000
_symmetry_Int_Tables_number   1
_chemical_formula_structural   Hg2H12C4I5N
_chemical_formula_sum   'Hg16 H96 C32 I40 N8'
_cell_volume   3916.53152598
_cell_formula_units_Z   8
loop_
 _symmetry_equiv_pos_site_id
 _symmetry_equiv_pos_as_xyz
  1  'x, y, z'
loop_
 _atom_site_type_symbol
 _atom_site_label
 _atom_site_symmetry_multiplicity
 _atom_site_fract_x
 _atom_site_fract_y
 _atom_site_fract_z
 _atom_site_occupancy
  Hg  Hg0  1  0.21920800  0.71152400  0.88508100  1
  Hg  Hg1  1  0.21920800  0.21152400  0.61491900  1
  Hg  Hg2  1  0.71920800  0.78847600  0.88508100  1
  Hg  Hg3  1  0.92411500  0.09993600  0.54627200  1
  Hg  Hg4  1  0.71920800  0.28847600  0.61491900  1
  Hg  Hg5  1  0.28079200  0.71152400  0.38508100  1
  Hg  Hg6  1  0.92411500  0.59993600  0.95372800  1
  Hg  Hg7  1  0.57588500  0.09993600  0.04627200  1
  Hg  Hg8  1  0.28079200  0.21152400  0.11491900  1
  Hg  Hg9  1  0.42411500  0.40006400  0.54627200  1
  Hg  Hg10  1  0.78079200  0.28847600  0.11491900  1
  Hg  Hg11  1  0.57588500  0.59993600  0.45372800  1
  Hg  Hg12  1  0.42411500  0.90006400  0.95372800  1
  Hg  Hg13  1  0.07588500  0.90006400  0.45372800  1
  Hg  Hg14  1  0.78079200  0.78847600  0.38508100  1
  Hg  Hg15  1  0.07588500  0.40006400  0.04627200  1
  H  H0  1  0.45563300  0.04218700  0.29926500  1
  H  H1  1  0.20427400  0.35377700  0.39013000  1
  H  H2  1  0.55928800  0.05894600  0.24592900  1
  H  H3  1  0.45563300  0.54218700  0.20073500  1
  H  H4  1  0.00984000  0.07650900  0.95250500  1
  H  H5  1  0.19889900  0.88023200  0.20425900  1
  H  H6  1  0.04345300  0.78430800  0.19833900  1
  H  H7  1  0.70427400  0.64622300  0.10987000  1
  H  H8  1  0.94700800  0.46489000  0.69343900  1
  H  H9  1  0.80110100  0.61976800  0.70425900  1
  H  H10  1  0.95563300  0.95781300  0.20073500  1
  H  H11  1  0.05071400  0.52375900  0.42234000  1
  H  H12  1  0.99016000  0.42349100  0.45250500  1
  H  H13  1  0.56787400  0.72787400  0.10397500  1
  H  H14  1  0.29572600  0.85377700  0.60987000  1
  H  H15  1  0.06787400  0.27212600  0.39602500  1
  H  H16  1  0.30110100  0.88023200  0.70425900  1
  H  H17  1  0.56787400  0.22787400  0.39602500  1
  H  H18  1  0.94928600  0.47624100  0.57766000  1
  H  H19  1  0.20803800  0.46951000  0.36110000  1
  H  H20  1  0.05928800  0.44105400  0.24592900  1
  H  H21  1  0.70427400  0.14622300  0.39013000  1
  H  H22  1  0.94071200  0.05894600  0.74592900  1
  H  H23  1  0.95748300  0.31816000  0.36697400  1
  H  H24  1  0.54436700  0.95781300  0.70073500  1
  H  H25  1  0.54251700  0.31816000  0.86697400  1
  H  H26  1  0.54436700  0.45781300  0.79926500  1
  H  H27  1  0.44071200  0.94105400  0.75407100  1
  H  H28  1  0.44700800  0.03511000  0.69343900  1
  H  H29  1  0.20427400  0.85377700  0.10987000  1
  H  H30  1  0.69889900  0.11976800  0.29574100  1
  H  H31  1  0.50984000  0.92349100  0.54749500  1
  H  H32  1  0.79572600  0.14622300  0.89013000  1
  H  H33  1  0.80110100  0.11976800  0.79574100  1
  H  H34  1  0.45654700  0.28430800  0.80166100  1
  H  H35  1  0.43212600  0.27212600  0.89602500  1
  H  H36  1  0.45748300  0.18184000  0.36697400  1
  H  H37  1  0.45748300  0.68184000  0.13302600  1
  H  H38  1  0.45654700  0.78430800  0.69833900  1
  H  H39  1  0.69889900  0.61976800  0.20425900  1
  H  H40  1  0.94700800  0.96489000  0.80656100  1
  H  H41  1  0.49016000  0.07650900  0.45250500  1
  H  H42  1  0.30110100  0.38023200  0.79574100  1
  H  H43  1  0.29572600  0.35377700  0.89013000  1
  H  H44  1  0.04345300  0.28430800  0.30166100  1
  H  H45  1  0.44928600  0.02375900  0.57766000  1
  H  H46  1  0.61423700  0.06514200  0.46550400  1
  H  H47  1  0.19889900  0.38023200  0.29574100  1
  H  H48  1  0.55071400  0.47624100  0.07766000  1
  H  H49  1  0.95563300  0.45781300  0.29926500  1
  H  H50  1  0.43212600  0.77212600  0.60397500  1
  H  H51  1  0.11423700  0.93485800  0.03449600  1
  H  H52  1  0.94071200  0.55894600  0.75407100  1
  H  H53  1  0.05071400  0.02375900  0.07766000  1
  H  H54  1  0.49016000  0.57650900  0.04749500  1
  H  H55  1  0.79196200  0.03049000  0.86110000  1
  H  H56  1  0.95654700  0.71569200  0.69833900  1
  H  H57  1  0.44071200  0.44105400  0.74592900  1
  H  H58  1  0.04436700  0.54218700  0.70073500  1
  H  H59  1  0.04436700  0.04218700  0.79926500  1
  H  H60  1  0.38576300  0.43485800  0.96550400  1
  H  H61  1  0.61423700  0.56514200  0.03449600  1
  H  H62  1  0.54251700  0.81816000  0.63302600  1
  H  H63  1  0.29196200  0.46951000  0.86110000  1
  H  H64  1  0.05928800  0.94105400  0.25407100  1
  H  H65  1  0.55928800  0.55894600  0.25407100  1
  H  H66  1  0.55299200  0.46489000  0.19343900  1
  H  H67  1  0.93212600  0.72787400  0.60397500  1
  H  H68  1  0.11423700  0.43485800  0.46550400  1
  H  H69  1  0.54345300  0.21569200  0.30166100  1
  H  H70  1  0.79196200  0.53049000  0.63890000  1
  H  H71  1  0.50984000  0.42349100  0.95250500  1
  H  H72  1  0.99016000  0.92349100  0.04749500  1
  H  H73  1  0.04251700  0.18184000  0.86697400  1
  H  H74  1  0.70803800  0.53049000  0.13890000  1
  H  H75  1  0.94928600  0.97624100  0.92234000  1
  H  H76  1  0.05299200  0.03511000  0.19343900  1
  H  H77  1  0.79572600  0.64622300  0.60987000  1
  H  H78  1  0.29196200  0.96951000  0.63890000  1
  H  H79  1  0.20803800  0.96951000  0.13890000  1
  H  H80  1  0.06787400  0.77212600  0.10397500  1
  H  H81  1  0.38576300  0.93485800  0.53449600  1
  H  H82  1  0.55071400  0.97624100  0.42234000  1
  H  H83  1  0.95654700  0.21569200  0.80166100  1
  H  H84  1  0.44700800  0.53511000  0.80656100  1
  H  H85  1  0.00984000  0.57650900  0.54749500  1
  H  H86  1  0.54345300  0.71569200  0.19833900  1
  H  H87  1  0.05299200  0.53511000  0.30656100  1
  H  H88  1  0.70803800  0.03049000  0.36110000  1
  H  H89  1  0.88576300  0.56514200  0.53449600  1
  H  H90  1  0.95748300  0.81816000  0.13302600  1
  H  H91  1  0.04251700  0.68184000  0.63302600  1
  H  H92  1  0.44928600  0.52375900  0.92234000  1
  H  H93  1  0.55299200  0.96489000  0.30656100  1
  H  H94  1  0.93212600  0.22787400  0.89602500  1
  H  H95  1  0.88576300  0.06514200  0.96550400  1
  C  C0  1  0.05528500  0.95055700  0.07022500  1
  C  C1  1  0.17930000  0.40239600  0.35005000  1
  C  C2  1  0.67930000  0.59760400  0.14995000  1
  C  C3  1  0.05528500  0.45055700  0.42977500  1
  C  C4  1  0.53216300  0.53553500  0.20179100  1
  C  C5  1  0.96742700  0.18642200  0.85522800  1
  C  C6  1  0.46742700  0.81357800  0.64477200  1
  C  C7  1  0.32070000  0.90239600  0.64995000  1
  C  C8  1  0.53257300  0.18642200  0.35522800  1
  C  C9  1  0.53216300  0.03553500  0.29820900  1
  C  C10  1  0.82070000  0.09760400  0.85005000  1
  C  C11  1  0.55528500  0.04944300  0.42977500  1
  C  C12  1  0.53257300  0.68642200  0.14477200  1
  C  C13  1  0.44471500  0.95055700  0.57022500  1
  C  C14  1  0.03216300  0.96446500  0.20179100  1
  C  C15  1  0.55528500  0.54944300  0.07022500  1
  C  C16  1  0.46783700  0.46446500  0.79820900  1
  C  C17  1  0.03257300  0.31357800  0.35522800  1
  C  C18  1  0.17930000  0.90239600  0.14995000  1
  C  C19  1  0.94471500  0.04944300  0.92977500  1
  C  C20  1  0.67930000  0.09760400  0.35005000  1
  C  C21  1  0.96783700  0.53553500  0.70179100  1
  C  C22  1  0.46742700  0.31357800  0.85522800  1
  C  C23  1  0.94471500  0.54944300  0.57022500  1
  C  C24  1  0.82070000  0.59760400  0.64995000  1
  C  C25  1  0.03216300  0.46446500  0.29820900  1
  C  C26  1  0.96742700  0.68642200  0.64477200  1
  C  C27  1  0.96783700  0.03553500  0.79820900  1
  C  C28  1  0.44471500  0.45055700  0.92977500  1
  C  C29  1  0.46783700  0.96446500  0.70179100  1
  C  C30  1  0.32070000  0.40239600  0.85005000  1
  C  C31  1  0.03257300  0.81357800  0.14477200  1
  I  I0  1  0.74850900  0.08273100  0.61592400  1
  I  I1  1  0.25631900  0.17014600  0.47482000  1
  I  I2  1  0.25445500  0.14906800  0.25098700  1
  I  I3  1  0.50460500  0.74454000  0.88999000  1
  I  I4  1  0.24554500  0.64906800  0.74901300  1
  I  I5  1  0.25631900  0.67014600  0.02518000  1
  I  I6  1  0.25149100  0.91726900  0.38407600  1
  I  I7  1  0.74368100  0.32985400  0.97482000  1
  I  I8  1  0.75149100  0.08273100  0.11592400  1
  I  I9  1  0.55083300  0.55483500  0.59956200  1
  I  I10  1  0.24554500  0.14906800  0.75098700  1
  I  I11  1  0.25445500  0.64906800  0.24901300  1
  I  I12  1  0.00460500  0.75546000  0.88999000  1
  I  I13  1  0.50460500  0.24454000  0.61001000  1
  I  I14  1  0.05083300  0.94516500  0.59956200  1
  I  I15  1  0.94916700  0.55483500  0.09956200  1
  I  I16  1  0.44916700  0.94516500  0.09956200  1
  I  I17  1  0.94916700  0.05483500  0.40043800  1
  I  I18  1  0.25149100  0.41726900  0.11592400  1
  I  I19  1  0.55083300  0.05483500  0.90043800  1
  I  I20  1  0.44916700  0.44516500  0.40043800  1
  I  I21  1  0.99539500  0.24454000  0.11001000  1
  I  I22  1  0.75631900  0.82985400  0.02518000  1
  I  I23  1  0.99539500  0.74454000  0.38999000  1
  I  I24  1  0.24368100  0.17014600  0.97482000  1
  I  I25  1  0.74554500  0.35093200  0.75098700  1
  I  I26  1  0.05083300  0.44516500  0.90043800  1
  I  I27  1  0.24368100  0.67014600  0.52518000  1
  I  I28  1  0.75445500  0.85093200  0.24901300  1
  I  I29  1  0.24850900  0.91726900  0.88407600  1
  I  I30  1  0.49539500  0.75546000  0.38999000  1
  I  I31  1  0.24850900  0.41726900  0.61592400  1
  I  I32  1  0.75445500  0.35093200  0.25098700  1
  I  I33  1  0.74368100  0.82985400  0.52518000  1
  I  I34  1  0.49539500  0.25546000  0.11001000  1
  I  I35  1  0.00460500  0.25546000  0.61001000  1
  I  I36  1  0.74850900  0.58273100  0.88407600  1
  I  I37  1  0.75631900  0.32985400  0.47482000  1
  I  I38  1  0.75149100  0.58273100  0.38407600  1
  I  I39  1  0.74554500  0.85093200  0.74901300  1
  N  N0  1  0.57416500  0.59271300  0.14265100  1
  N  N1  1  0.07416500  0.40728700  0.35734900  1
  N  N2  1  0.42583500  0.40728700  0.85734900  1
  N  N3  1  0.92583500  0.09271300  0.85734900  1
  N  N4  1  0.92583500  0.59271300  0.64265100  1
  N  N5  1  0.57416500  0.09271300  0.35734900  1
  N  N6  1  0.42583500  0.90728700  0.64265100  1
  N  N7  1  0.07416500  0.90728700  0.14265100  1
loop_
_geom_bond_atom_site_label_1
_geom_bond_atom_site_label_2
_geom_bond_distance
_geom_bond_site_symmetry_2
Hg0 I4 2.717078 1_555
Hg0 I5 2.725304 1_556
Hg0 I29 3.070474 1_555
Hg0 I12 3.129881 1_555
Hg1 I10 2.717078 1_555
Hg1 I1 2.725304 1_555
Hg1 I31 3.070474 1_555
Hg1 I35 3.129881 1_555
Hg2 I39 2.717078 1_555
Hg2 I22 2.725304 1_556
Hg2 I36 3.070474 1_555
Hg2 I3 3.129881 1_555
Hg3 I17 2.812662 1_555
Hg3 I35 2.829564 1_655
Hg3 I0 2.830205 1_555
Hg3 I14 3.079194 1_645
Hg4 I25 2.717078 1_555
Hg4 I37 2.725304 1_555
Hg4 I0 3.070474 1_555
Hg4 I13 3.129881 1_555
Hg5 I11 2.717078 1_555
Hg5 I27 2.725304 1_555
Hg5 I6 3.070474 1_555
Hg5 I30 3.129881 1_555
Hg6 I15 2.812662 1_556
Hg6 I12 2.829564 1_655
Hg6 I36 2.830205 1_555
Hg6 I26 3.079194 1_655
Hg7 I19 2.812662 1_554
Hg7 I34 2.829564 1_555
Hg7 I8 2.830205 1_555
Hg7 I16 3.079194 1_545
Hg8 I2 2.717078 1_555
Hg8 I24 2.725304 1_554
Hg8 I18 3.070474 1_555
Hg8 I34 3.129881 1_555
Hg9 I20 2.812662 1_555
Hg9 I13 2.829564 1_555
Hg9 I31 2.830205 1_555
Hg9 I9 3.079194 1_555
Hg10 I32 2.717078 1_555
Hg10 I7 2.725304 1_554
Hg10 I8 3.070474 1_555
Hg10 I21 3.129881 1_555
Hg11 I9 2.812662 1_555
Hg11 I30 2.829564 1_555
Hg11 I38 2.830205 1_555
Hg11 I20 3.079194 1_555
Hg12 I16 2.812662 1_556
Hg12 I3 2.829564 1_555
Hg12 I29 2.830205 1_555
Hg12 I19 3.079194 1_565
Hg13 I14 2.812662 1_555
Hg13 I23 2.829564 1_455
Hg13 I6 2.830205 1_555
Hg13 I17 3.079194 1_465
Hg14 I28 2.717078 1_555
Hg14 I33 2.725304 1_555
Hg14 I38 3.070474 1_555
Hg14 I23 3.129881 1_555
Hg15 I26 2.812662 1_554
Hg15 I21 2.829564 1_455
Hg15 I18 2.830205 1_555
Hg15 I15 3.079194 1_455
C0 H53 1.092983 1_565
C0 H72 1.095873 1_455
C0 H51 1.095965 1_555
C0 N7 1.513876 1_555
C1 H19 1.093001 1_555
C1 H1 1.094465 1_555
C1 H47 1.096936 1_555
C1 N1 1.507146 1_555
C2 H74 1.093001 1_555
C2 H7 1.094465 1_555
C2 H39 1.096936 1_555
C2 N0 1.507146 1_555
C3 H11 1.092983 1_555
C3 H12 1.095873 1_455
C3 H68 1.095965 1_555
C3 N1 1.513876 1_555
C4 H3 1.095964 1_555
C4 H66 1.096900 1_555
C4 H65 1.101171 1_555
C4 N0 1.510063 1_555
C5 H73 1.094932 1_655
C5 H83 1.096127 1_555
C5 H94 1.096971 1_555
C5 N3 1.507587 1_555
C6 H62 1.094932 1_555
C6 H38 1.096127 1_555
C6 H50 1.096971 1_555
C6 N6 1.507587 1_555
C7 H78 1.093001 1_555
C7 H14 1.094465 1_555
C7 H16 1.096936 1_555
C7 N6 1.507146 1_555
C8 H36 1.094932 1_555
C8 H69 1.096127 1_555
C8 H17 1.096971 1_555
C8 N5 1.507587 1_555
C9 H0 1.095964 1_555
C9 H93 1.096900 1_545
C9 H2 1.101171 1_555
C9 N5 1.510063 1_555
C10 H55 1.093001 1_555
C10 H32 1.094465 1_555
C10 H33 1.096936 1_555
C10 N3 1.507146 1_555
C11 H82 1.092983 1_545
C11 H41 1.095873 1_555
C11 H46 1.095965 1_555
C11 N5 1.513876 1_555
C12 H37 1.094932 1_555
C12 H86 1.096127 1_555
C12 H13 1.096971 1_555
C12 N0 1.507587 1_555
C13 H45 1.092983 1_565
C13 H31 1.095873 1_555
C13 H81 1.095965 1_555
C13 N6 1.513876 1_555
C14 H10 1.095964 1_455
C14 H76 1.096900 1_565
C14 H64 1.101171 1_555
C14 N7 1.510063 1_555
C15 H48 1.092983 1_555
C15 H54 1.095873 1_555
C15 H61 1.095965 1_555
C15 N0 1.513876 1_555
C16 H26 1.095964 1_555
C16 H84 1.096900 1_555
C16 H57 1.101171 1_555
C16 N2 1.510063 1_555
C17 H23 1.094932 1_455
C17 H44 1.096127 1_555
C17 H15 1.096971 1_555
C17 N1 1.507587 1_555
C18 H79 1.093001 1_555
C18 H29 1.094465 1_555
C18 H5 1.096936 1_555
C18 N7 1.507146 1_555
C19 H75 1.092983 1_545
C19 H4 1.095873 1_655
C19 H95 1.095965 1_555
C19 N3 1.513876 1_555
C20 H88 1.093001 1_555
C20 H21 1.094465 1_555
C20 H30 1.096936 1_555
C20 N5 1.507146 1_555
C21 H58 1.095964 1_655
C21 H8 1.096900 1_555
C21 H52 1.101171 1_555
C21 N4 1.510063 1_555
C22 H25 1.094932 1_555
C22 H34 1.096127 1_555
C22 H35 1.096971 1_555
C22 N2 1.507587 1_555
C23 H18 1.092983 1_555
C23 H85 1.095873 1_655
C23 H89 1.095965 1_555
C23 N4 1.513876 1_555
C24 H70 1.093001 1_555
C24 H77 1.094465 1_555
C24 H9 1.096936 1_555
C24 N4 1.507146 1_555
C25 H49 1.095964 1_455
C25 H87 1.096900 1_555
C25 H20 1.101171 1_555
C25 N1 1.510063 1_555
C26 H91 1.094932 1_655
C26 H56 1.096127 1_555
C26 H67 1.096971 1_555
C26 N4 1.507587 1_555
C27 H59 1.095964 1_655
C27 H40 1.096900 1_545
C27 H22 1.101171 1_555
C27 N3 1.510063 1_555
C28 H92 1.092983 1_555
C28 H71 1.095873 1_555
C28 H60 1.095965 1_555
C28 N2 1.513876 1_555
C29 H24 1.095964 1_555
C29 H28 1.096900 1_565
C29 H27 1.101171 1_555
C29 N6 1.510063 1_555
C30 H63 1.093001 1_555
C30 H43 1.094465 1_555
C30 H42 1.096936 1_555
C30 N2 1.507146 1_555
C31 H90 1.094932 1_455
C31 H6 1.096127 1_555
C31 H80 1.096971 1_555
C31 N7 1.507587 1_555
