# generated using pymatgen
data_C10F3
_symmetry_space_group_name_H-M   'P 1'
_cell_length_a   11.42793209
_cell_length_b   11.42793209
_cell_length_c   19.47539479
_cell_angle_alpha   63.94052606
_cell_angle_beta   63.94052606
_cell_angle_gamma   58.55292647
_symmetry_Int_Tables_number   1
_chemical_formula_structural   C10F3
_chemical_formula_sum   'C120 F36'
_cell_volume   1874.58607592
_cell_formula_units_Z   12
loop_
 _symmetry_equiv_pos_site_id
 _symmetry_equiv_pos_as_xyz
  1  'x, y, z'
loop_
 _atom_site_type_symbol
 _atom_site_label
 _atom_site_symmetry_multiplicity
 _atom_site_fract_x
 _atom_site_fract_y
 _atom_site_fract_z
 _atom_site_occupancy
  C  C0  1  0.12885000  0.35304200  0.35526900  1
  C  C1  1  0.11536100  0.65227200  0.42246400  1
  C  C2  1  0.55156000  0.46016000  0.19963000  1
  C  C3  1  0.84809400  0.95293800  0.32244800  1
  C  C4  1  0.54906800  0.94207500  0.70863800  1
  C  C5  1  0.46710700  0.37704200  0.84233900  1
  C  C6  1  0.44718900  0.19306900  0.63923100  1
  C  C7  1  0.44308900  0.38398300  0.12916300  1
  C  C8  1  0.68183900  0.01084100  0.57281800  1
  C  C9  1  0.47631200  0.37979000  0.28240100  1
  C  C10  1  0.75125500  0.97152300  0.92015200  1
  C  C11  1  0.79728000  0.65510400  0.34514100  1
  C  C12  1  0.37704200  0.46710700  0.34233900  1
  C  C13  1  0.83286100  0.21833200  0.55697600  1
  C  C14  1  0.06915800  0.14090100  0.67112700  1
  C  C15  1  0.25994600  0.42537100  0.38965000  1
  C  C16  1  0.11876200  0.05938600  0.09687500  1
  C  C17  1  0.84864700  0.31654100  0.63715900  1
  C  C18  1  0.36094200  0.11007400  0.78490000  1
  C  C19  1  0.37979000  0.47631200  0.78240100  1
  C  C20  1  0.44761300  0.67805100  0.26797100  1
  C  C21  1  0.91324000  0.87869800  0.61741300  1
  C  C22  1  0.79849600  0.73712300  0.38391500  1
  C  C23  1  0.29844700  0.94283600  0.17773900  1
  C  C24  1  0.67805100  0.44761300  0.76797100  1
  C  C25  1  0.83872200  0.20022000  0.82360300  1
  C  C26  1  0.51339600  0.13176600  0.93125300  1
  C  C27  1  0.88127200  0.04618300  0.17970900  1
  C  C28  1  0.96600100  0.45838300  0.28215900  1
  C  C29  1  0.74798000  0.77135300  0.76858800  1
  C  C30  1  0.97152300  0.75125500  0.42015200  1
  C  C31  1  0.59975300  0.36062400  0.83465600  1
  C  C32  1  0.61920800  0.29254900  0.52567200  1
  C  C33  1  0.36062400  0.59975300  0.33465600  1
  C  C34  1  0.89458400  0.78068400  0.12487800  1
  C  C35  1  0.21833200  0.83286100  0.05697600  1
  C  C36  1  0.06313800  0.93347600  0.32039700  1
  C  C37  1  0.42537100  0.25994600  0.88965000  1
  C  C38  1  0.94207500  0.54906800  0.20863800  1
  C  C39  1  0.51086900  0.47775200  0.12386400  1
  C  C40  1  0.89976000  0.03955300  0.24661600  1
  C  C41  1  0.13488000  0.73015100  0.01206500  1
  C  C42  1  0.69198700  0.31307000  0.56373700  1
  C  C43  1  0.89386500  0.51192400  0.35166300  1
  C  C44  1  0.70783300  0.41113400  0.64389600  1
  C  C45  1  0.29254900  0.61920800  0.02567200  1
  C  C46  1  0.62337700  0.51345000  0.69270300  1
  C  C47  1  0.34067500  0.35665800  0.71275600  1
  C  C48  1  0.67339000  0.89660400  0.92802900  1
  C  C49  1  0.88744600  0.94878000  0.86773000  1
  C  C50  1  0.65227200  0.11536100  0.92246400  1
  C  C51  1  0.35665800  0.34067500  0.21275600  1
  C  C52  1  0.73015100  0.13488000  0.51206500  1
  C  C53  1  0.96411500  0.81370400  0.68641200  1
  C  C54  1  0.01768300  0.06049000  0.25053700  1
  C  C55  1  0.20022000  0.83872200  0.32360300  1
  C  C56  1  0.52587400  0.99636000  0.93465600  1
  C  C57  1  0.31654100  0.84864700  0.13715900  1
  C  C58  1  0.78068400  0.89458400  0.62487800  1
  C  C59  1  0.88030400  0.77311800  0.83100200  1
  C  C60  1  0.33427700  0.37491300  0.77969700  1
  C  C61  1  0.47775200  0.51086900  0.62386400  1
  C  C62  1  0.65510400  0.79728000  0.84514100  1
  C  C63  1  0.37491300  0.33427700  0.27969700  1
  C  C64  1  0.94283600  0.29844700  0.67773900  1
  C  C65  1  0.46016000  0.55156000  0.69963000  1
  C  C66  1  0.69529600  0.22696000  0.87272800  1
  C  C67  1  0.34366800  0.25850400  0.85101600  1
  C  C68  1  0.97006900  0.08600100  0.09624000  1
  C  C69  1  0.44646800  0.99507000  0.89701800  1
  C  C70  1  0.95293800  0.84809400  0.82244800  1
  C  C71  1  0.11007400  0.36094200  0.28490000  1
  C  C72  1  0.93347600  0.06313800  0.82039700  1
  C  C73  1  0.46036600  0.32536400  0.57639200  1
  C  C74  1  0.25850400  0.34366800  0.35101600  1
  C  C75  1  0.38398300  0.44308900  0.62916300  1
  C  C76  1  0.84309900  0.69652100  0.20174200  1
  C  C77  1  0.81370400  0.96411500  0.18641200  1
  C  C78  1  0.69652100  0.84309900  0.70174100  1
  C  C79  1  0.06049000  0.01768300  0.75053700  1
  C  C80  1  0.21989700  0.91137800  0.09371200  1
  C  C81  1  0.05938600  0.11876200  0.59687500  1
  C  C82  1  0.99004000  0.96816600  0.55167300  1
  C  C83  1  0.75602000  0.88607000  0.26054500  1
  C  C84  1  0.77135300  0.74798000  0.26858800  1
  C  C85  1  0.91137800  0.21989700  0.59371200  1
  C  C86  1  0.99636000  0.52587400  0.43465600  1
  C  C87  1  0.77311800  0.88030400  0.33100200  1
  C  C88  1  0.31307000  0.69198700  0.06373700  1
  C  C89  1  0.32536400  0.46036600  0.07639200  1
  C  C90  1  0.14090100  0.06915800  0.17112700  1
  C  C91  1  0.99507000  0.44646800  0.39701800  1
  C  C92  1  0.22696000  0.69529600  0.37272800  1
  C  C93  1  0.88607000  0.75602000  0.76054500  1
  C  C94  1  0.51192400  0.89386500  0.85166300  1
  C  C95  1  0.62926700  0.40939200  0.60730000  1
  C  C96  1  0.03955300  0.89976000  0.74661600  1
  C  C97  1  0.05577200  0.54144800  0.13610500  1
  C  C98  1  0.51345000  0.62337700  0.19270300  1
  C  C99  1  0.19306900  0.44718900  0.13923100  1
  C  C100  1  0.13176600  0.51339600  0.43125300  1
  C  C101  1  0.33242400  0.85011100  0.25989900  1
  C  C102  1  0.35304200  0.12885000  0.85526900  1
  C  C103  1  0.22117000  0.35964600  0.21460100  1
  C  C104  1  0.01084100  0.68183900  0.07281800  1
  C  C105  1  0.08600100  0.97006900  0.59624000  1
  C  C106  1  0.35964600  0.22117000  0.71460100  1
  C  C107  1  0.89660400  0.67339000  0.42802900  1
  C  C108  1  0.87869800  0.91324000  0.11741300  1
  C  C109  1  0.85011100  0.33242400  0.75989900  1
  C  C110  1  0.41113400  0.70783300  0.14389600  1
  C  C111  1  0.45838300  0.96600100  0.78215900  1
  C  C112  1  0.73712300  0.79849600  0.88391500  1
  C  C113  1  0.94878000  0.88744600  0.36773000  1
  C  C114  1  0.54144800  0.05577200  0.63610500  1
  C  C115  1  0.88158000  0.11517500  0.51339000  1
  C  C116  1  0.40939200  0.62926700  0.10730000  1
  C  C117  1  0.04618300  0.88127200  0.67970900  1
  C  C118  1  0.11517500  0.88158000  0.01339000  1
  C  C119  1  0.96816600  0.99004000  0.05167300  1
  F  F0  1  0.22869100  0.90407400  0.55816600  1
  F  F1  1  0.61927700  0.39018300  0.45025000  1
  F  F2  1  0.16285100  0.95376100  0.93445500  1
  F  F3  1  0.39018300  0.61927700  0.95025000  1
  F  F4  1  0.38499000  0.69633100  0.68747200  1
  F  F5  1  0.25707400  0.58488600  0.81499200  1
  F  F6  1  0.39712200  0.00496800  0.13171400  1
  F  F7  1  0.63423800  0.46200200  0.06010800  1
  F  F8  1  0.14112700  0.74418000  0.93700100  1
  F  F9  1  0.63844600  0.64646200  0.14833300  1
  F  F10  1  0.19758800  0.14831700  0.64911600  1
  F  F11  1  0.58488600  0.25707400  0.31499200  1
  F  F12  1  0.37799700  0.37735800  0.52544100  1
  F  F13  1  0.15434600  0.16732100  0.52866600  1
  F  F14  1  0.90407400  0.22869100  0.05816600  1
  F  F15  1  0.18854800  0.95827000  0.77080100  1
  F  F16  1  0.89963500  0.08709400  0.99223800  1
  F  F17  1  0.91392600  0.38782200  0.77768600  1
  F  F18  1  0.74418000  0.14112700  0.43700100  1
  F  F19  1  0.55306900  0.26419900  0.10409300  1
  F  F20  1  0.26419800  0.55306900  0.60409300  1
  F  F21  1  0.14831700  0.19758800  0.14911600  1
  F  F22  1  0.64646200  0.63844600  0.64833300  1
  F  F23  1  0.16732100  0.15434600  0.02866600  1
  F  F24  1  0.08709400  0.89963500  0.49223800  1
  F  F25  1  0.00496800  0.39712200  0.63171400  1
  F  F26  1  0.69633100  0.38499000  0.18747200  1
  F  F27  1  0.94881600  0.67026300  0.02824600  1
  F  F28  1  0.38782200  0.91392600  0.27768600  1
  F  F29  1  0.37735800  0.37799700  0.02544100  1
  F  F30  1  0.65654100  0.55887300  0.79064000  1
  F  F31  1  0.67026300  0.94881600  0.52824600  1
  F  F32  1  0.95827000  0.18854800  0.27080100  1
  F  F33  1  0.95376100  0.16285100  0.43445500  1
  F  F34  1  0.55887300  0.65654100  0.29064000  1
  F  F35  1  0.46200200  0.63423800  0.56010800  1
loop_
_geom_bond_atom_site_label_1
_geom_bond_atom_site_label_2
_geom_bond_distance
_geom_bond_site_symmetry_2
C0 C74 1.395727 1_555
C0 C71 1.435900 1_555
C0 C91 1.451112 1_455
C1 C92 1.398915 1_555
C1 C100 1.436065 1_555
C1 C30 1.436563 1_455
C2 F26 1.372135 1_555
C3 C87 1.395017 1_555
C3 C40 1.438324 1_565
C4 C78 1.443188 1_555
C6 C73 1.502037 1_555
C7 F19 1.394550 1_555
C8 F31 1.418726 1_545
C9 F11 1.415401 1_555
C10 C49 1.395410 1_555
C10 C50 1.436563 1_565
C10 C48 1.451883 1_555
C11 C43 1.402807 1_555
C11 C22 1.446949 1_555
C11 C84 1.451470 1_555
C12 C33 1.372614 1_555
C12 C15 1.436552 1_555
C12 C9 1.524484 1_555
C13 C42 1.378990 1_555
C13 C85 1.381785 1_555
C14 F10 1.374823 1_555
C15 C74 1.443044 1_555
C16 F23 1.401548 1_555
C16 C80 1.479771 1_545
C17 C44 1.378172 1_555
C17 C85 1.382630 1_555
C17 C64 1.482414 1_555
C19 F5 1.415401 1_555
C19 C60 1.524016 1_555
C19 C5 1.524484 1_555
C20 F34 1.394168 1_555
C20 C33 1.499447 1_555
C21 C58 1.375346 1_555
C21 C53 1.433306 1_555
C21 C82 1.501259 1_555
C22 C87 1.452360 1_555
C23 F6 1.402636 1_565
C23 C57 1.482414 1_555
C24 F30 1.394168 1_555
C24 C31 1.499447 1_555
C25 C72 1.373719 1_555
C25 C66 1.432379 1_555
C26 C37 1.396403 1_555
C26 C50 1.436065 1_555
C26 C56 1.451608 1_545
C27 C40 1.373584 1_555
C27 C77 1.432609 1_545
C27 C68 1.503964 1_555
C28 C38 1.394102 1_555
C28 C71 1.437232 1_655
C28 C43 1.451622 1_555
C29 C78 1.394511 1_555
C29 C93 1.436660 1_555
C29 C62 1.451470 1_555
C31 C5 1.372614 1_555
C31 C66 1.432185 1_555
C32 F1 1.400873 1_555
C32 C42 1.481319 1_555
C33 C92 1.432185 1_555
C34 C76 1.436576 1_555
C35 C88 1.378990 1_555
C35 C80 1.381785 1_555
C36 C55 1.373719 1_555
C36 C54 1.525421 1_565
C37 C5 1.436552 1_555
C37 C67 1.443044 1_555
C38 C97 1.438290 1_655
C38 C76 1.443189 1_555
C39 F7 1.398336 1_555
C40 C54 1.523830 1_655
C41 F8 1.371961 1_554
C42 C95 1.381381 1_555
C43 C91 1.446294 1_555
C44 C95 1.381249 1_555
C44 C46 1.481604 1_555
C45 F3 1.400873 1_554
C45 C88 1.481319 1_555
C46 F22 1.401843 1_555
C47 C60 1.373972 1_555
C47 C75 1.503423 1_555
C48 C56 1.446042 1_555
C49 C72 1.437771 1_565
C49 C70 1.440451 1_555
C50 C66 1.398915 1_555
C51 C63 1.373972 1_555
C51 C7 1.503423 1_555
C52 F18 1.371961 1_555
C53 C93 1.400139 1_555
C54 F32 1.411961 1_455
C55 C92 1.432379 1_555
C56 C69 1.403162 1_555
C57 C80 1.382630 1_555
C58 C78 1.436565 1_555
C58 C8 1.525089 1_565
C59 C70 1.395017 1_555
C59 C93 1.438084 1_555
C60 C67 1.438410 1_555
C61 F35 1.398336 1_555
C61 C95 1.479786 1_555
C62 C94 1.402807 1_555
C63 C74 1.438410 1_555
C63 C9 1.524016 1_555
C64 F25 1.402636 1_655
C65 F4 1.372135 1_555
C68 F14 1.386877 1_555
C69 C94 1.446294 1_555
C70 C96 1.438324 1_655
C72 C79 1.525421 1_655
C73 F12 1.393841 1_555
C75 F20 1.394557 1_555
C76 C84 1.394494 1_555
C77 C83 1.400139 1_555
C79 F15 1.411961 1_545
C79 C96 1.523830 1_545
C81 F13 1.401548 1_555
C81 C85 1.479771 1_455
C82 F24 1.394817 1_655
C83 C84 1.436660 1_555
C83 C87 1.438084 1_555
C86 C91 1.403162 1_555
C89 F29 1.393841 1_555
C89 C99 1.502037 1_555
C90 F21 1.374823 1_555
C97 C99 1.374284 1_555
C98 F9 1.401843 1_555
C100 C15 1.396403 1_555
C100 C86 1.451608 1_455
C101 F28 1.396072 1_555
C101 C55 1.501725 1_555
C102 C67 1.395727 1_555
C102 C18 1.435900 1_555
C102 C69 1.451112 1_545
C103 C71 1.399117 1_555
C103 C99 1.430844 1_555
C103 C51 1.432962 1_555
C104 F27 1.418726 1_455
C104 C97 1.521808 1_555
C104 C34 1.525089 1_455
C105 F0 1.386877 1_555
C105 C117 1.503964 1_555
C106 C18 1.399117 1_555
C106 C6 1.430844 1_555
C106 C47 1.432962 1_555
C107 C22 1.403602 1_555
C107 C86 1.446042 1_555
C107 C30 1.451883 1_555
C108 C34 1.375346 1_555
C108 C77 1.433306 1_555
C108 C119 1.501259 1_555
C109 F17 1.396072 1_555
C109 C25 1.501725 1_555
C110 C57 1.378172 1_555
C110 C116 1.381249 1_555
C110 C98 1.481604 1_555
C111 C4 1.394102 1_555
C111 C18 1.437232 1_565
C111 C94 1.451622 1_555
C112 C48 1.403602 1_555
C112 C62 1.446949 1_555
C112 C59 1.452360 1_555
C113 C30 1.395410 1_555
C113 C36 1.437771 1_655
C113 C3 1.440451 1_555
C114 C6 1.374284 1_555
C114 C4 1.438290 1_545
C114 C8 1.521808 1_555
C115 F33 1.399798 1_555
C115 C13 1.483039 1_555
C116 C88 1.381381 1_555
C116 C39 1.479786 1_555
C117 C96 1.373584 1_555
C117 C53 1.432609 1_455
C118 F2 1.399798 1_554
C118 C35 1.483039 1_555
C119 F16 1.394817 1_564
