# generated using pymatgen
data_Ca2Ga2Bi(B2O7)2
_symmetry_space_group_name_H-M   'P 1'
_cell_length_a   9.16263753
_cell_length_b   9.16263753
_cell_length_c   6.84099951
_cell_angle_alpha   85.82334770
_cell_angle_beta   85.82334770
_cell_angle_gamma   88.42285257
_symmetry_Int_Tables_number   1
_chemical_formula_structural   Ca2Ga2Bi(B2O7)2
_chemical_formula_sum   'Ca4 Ga4 Bi2 B8 O28'
_cell_volume   571.13972514
_cell_formula_units_Z   2
loop_
 _symmetry_equiv_pos_site_id
 _symmetry_equiv_pos_as_xyz
  1  'x, y, z'
loop_
 _atom_site_type_symbol
 _atom_site_label
 _atom_site_symmetry_multiplicity
 _atom_site_fract_x
 _atom_site_fract_y
 _atom_site_fract_z
 _atom_site_occupancy
  Ca  Ca0  1  0.80843600  0.83145400  0.41650300  1
  Ca  Ca1  1  0.16854600  0.19156400  0.58349700  1
  Ca  Ca2  1  0.91973300  0.80005300  0.90237000  1
  Ca  Ca3  1  0.19994700  0.08026700  0.09763000  1
  Ga  Ga0  1  0.05678900  0.57848200  0.23851300  1
  Ga  Ga1  1  0.42151800  0.94321100  0.76148700  1
  Ga  Ga2  1  0.75197800  0.24802200  0.50000000  1
  Ga  Ga3  1  0.24373800  0.75626200  0.50000000  1
  Bi  Bi0  1  0.49487200  0.32987000  0.79839700  1
  Bi  Bi1  1  0.67013000  0.50512800  0.20160300  1
  B  B0  1  0.82845000  0.16667800  0.81679400  1
  B  B1  1  0.83332200  0.17155000  0.18320600  1
  B  B2  1  0.45781400  0.25006100  0.29193600  1
  B  B3  1  0.74993900  0.54218600  0.70806400  1
  B  B4  1  0.21925900  0.58273400  0.97088700  1
  B  B5  1  0.41726600  0.78074100  0.02911300  1
  B  B6  1  0.11097500  0.50718200  0.68625300  1
  B  B7  1  0.49281800  0.88902500  0.31374700  1
  O  O0  1  0.24370500  0.41912900  0.95333500  1
  O  O1  1  0.14044600  0.63016900  0.79095400  1
  O  O2  1  0.71153800  0.46739300  0.88803700  1
  O  O3  1  0.53260700  0.28846200  0.11196300  1
  O  O4  1  0.35001400  0.13637800  0.79932900  1
  O  O5  1  0.54274500  0.26918000  0.45015300  1
  O  O6  1  0.73082000  0.45725500  0.54984700  1
  O  O7  1  0.50903800  0.94659100  0.48399900  1
  O  O8  1  0.87581300  0.12418700  0.00000000  1
  O  O9  1  0.62247500  0.85867200  0.19079500  1
  O  O10  1  0.80103600  0.07667600  0.34134300  1
  O  O11  1  0.14132800  0.37752500  0.80920500  1
  O  O12  1  0.92332400  0.19896400  0.65865700  1
  O  O13  1  0.68265900  0.15842700  0.77104000  1
  O  O14  1  0.84157300  0.31734100  0.22896000  1
  O  O15  1  0.12332700  0.92511800  0.89460200  1
  O  O16  1  0.07488200  0.87667300  0.10539800  1
  O  O17  1  0.79276600  0.68342300  0.68977200  1
  O  O18  1  0.04616800  0.83543700  0.51880700  1
  O  O19  1  0.16456300  0.95383200  0.48119300  1
  O  O20  1  0.31657700  0.20723400  0.31022800  1
  O  O21  1  0.05340900  0.49096200  0.51600100  1
  O  O22  1  0.35056100  0.64943900  0.00000000  1
  O  O23  1  0.32365800  0.56708600  0.46072100  1
  O  O24  1  0.43291400  0.67634200  0.53927900  1
  O  O25  1  0.58087100  0.75629500  0.04666500  1
  O  O26  1  0.36983100  0.85955400  0.20904600  1
  O  O27  1  0.86362200  0.64998600  0.20067100  1
loop_
_geom_bond_atom_site_label_1
_geom_bond_atom_site_label_2
_geom_bond_distance
_geom_bond_site_symmetry_2
Ca0 O17 2.226515 1_555
Ca0 O10 2.268446 1_565
Ca0 O27 2.324432 1_555
Ca0 O18 2.337964 1_655
Ca0 O9 2.377676 1_555
Ca1 O20 2.226515 1_555
Ca1 O12 2.268446 1_455
Ca1 O4 2.324432 1_555
Ca1 O19 2.337964 1_545
Ca1 O11 2.377676 1_555
Ca2 O15 2.211394 1_655
Ca2 O16 2.219773 1_656
Ca2 O17 2.269777 1_555
Ca2 O27 2.407634 1_556
Ca2 O1 2.620814 1_655
Ca2 O18 2.790392 1_655
Ca3 O16 2.211394 1_545
Ca3 O15 2.219773 1_544
Ca3 O20 2.269777 1_555
Ca3 O4 2.407634 1_554
Ca3 O26 2.620814 1_545
Ca3 O19 2.790392 1_545
Ga0 O27 1.899231 1_455
Ga0 O21 2.004648 1_555
Ga1 O4 1.899231 1_565
Ga1 O7 2.004648 1_555
Ga2 O5 1.973418 1_555
Ga2 O6 1.973418 1_555
Ga2 O10 1.995802 1_555
Ga2 O12 1.995802 1_555
Ga2 O13 2.037343 1_555
Ga2 O14 2.037343 1_555
Ga3 O23 1.892684 1_555
Ga3 O24 1.892684 1_555
Ga3 O18 1.930612 1_555
Ga3 O19 1.930612 1_555
Ga3 O26 2.375526 1_555
Ga3 O1 2.375526 1_555
Bi0 O3 2.201643 1_556
Bi0 O4 2.243108 1_555
Bi0 O13 2.304418 1_555
Bi0 O5 2.490881 1_555
Bi0 O2 2.516459 1_555
Bi0 O0 2.599212 1_555
Bi1 O2 2.201643 1_554
Bi1 O27 2.243108 1_555
Bi1 O14 2.304418 1_555
Bi1 O6 2.490881 1_555
Bi1 O3 2.516459 1_555
Bi1 O25 2.599212 1_555
B0 O12 1.357964 1_555
B0 O8 1.381864 1_556
B0 O13 1.399300 1_555
B1 O10 1.357964 1_555
B1 O8 1.381864 1_555
B1 O14 1.399300 1_555
B2 O20 1.357040 1_555
B2 O3 1.391600 1_555
B2 O5 1.401996 1_555
B3 O17 1.357040 1_555
B3 O2 1.391600 1_555
B3 O6 1.401996 1_555
B4 O22 1.397754 1_556
B4 O1 1.503271 1_555
B4 O0 1.521699 1_555
B4 Ga0 2.272739 1_556
B5 O22 1.397754 1_555
B5 O26 1.503271 1_555
B5 O25 1.521699 1_555
B5 Ga1 2.272739 1_554
B6 O21 1.332600 1_555
B6 O1 1.420672 1_555
B6 O11 1.437532 1_555
B7 O7 1.332600 1_555
B7 O26 1.420672 1_555
B7 O9 1.437532 1_555
O15 O16 1.515901 1_556
O18 O19 1.550257 1_555
O23 O24 1.582721 1_555
