# generated using pymatgen
data_CeSiNO2
_symmetry_space_group_name_H-M   'P 1'
_cell_length_a   7.07727394
_cell_length_b   7.07727394
_cell_length_c   9.73173900
_cell_angle_alpha   90.00000000
_cell_angle_beta   90.00000000
_cell_angle_gamma   119.99999940
_symmetry_Int_Tables_number   1
_chemical_formula_structural   CeSiNO2
_chemical_formula_sum   'Ce6 Si6 N6 O12'
_cell_volume   422.13668860
_cell_formula_units_Z   6
loop_
 _symmetry_equiv_pos_site_id
 _symmetry_equiv_pos_as_xyz
  1  'x, y, z'
loop_
 _atom_site_type_symbol
 _atom_site_label
 _atom_site_symmetry_multiplicity
 _atom_site_fract_x
 _atom_site_fract_y
 _atom_site_fract_z
 _atom_site_occupancy
  Ce  Ce0  1  0.00000000  0.00000000  0.00000000  1
  Ce  Ce1  1  0.33333300  0.66666700  0.50000000  1
  Ce  Ce2  1  0.66666700  0.33333300  0.00000000  1
  Ce  Ce3  1  0.66666700  0.33333300  0.50000000  1
  Ce  Ce4  1  0.33333300  0.66666700  0.00000000  1
  Ce  Ce5  1  0.00000000  0.00000000  0.50000000  1
  Si  Si0  1  0.75068300  0.00000000  0.25000000  1
  Si  Si1  1  0.24931700  0.24931700  0.25000000  1
  Si  Si2  1  0.75068300  0.75068300  0.75000000  1
  Si  Si3  1  0.00000000  0.75068300  0.25000000  1
  Si  Si4  1  0.24931700  0.00000000  0.75000000  1
  Si  Si5  1  0.00000000  0.24931700  0.75000000  1
  N  N0  1  0.00000000  0.22881400  0.25000000  1
  N  N1  1  0.22881400  0.00000000  0.25000000  1
  N  N2  1  0.77118600  0.77118600  0.25000000  1
  N  N3  1  0.00000000  0.77118600  0.75000000  1
  N  N4  1  0.77118600  0.00000000  0.75000000  1
  N  N5  1  0.22881400  0.22881400  0.75000000  1
  O  O0  1  0.36890400  0.00000000  0.60228100  1
  O  O1  1  0.00000000  0.63109600  0.10228100  1
  O  O2  1  0.63109600  0.63109600  0.60228100  1
  O  O3  1  0.00000000  0.36890400  0.60228100  1
  O  O4  1  0.00000000  0.63109600  0.39771900  1
  O  O5  1  0.36890400  0.36890400  0.39771900  1
  O  O6  1  0.00000000  0.36890400  0.89771900  1
  O  O7  1  0.36890400  0.36890400  0.10228100  1
  O  O8  1  0.63109600  0.63109600  0.89771900  1
  O  O9  1  0.63109600  0.00000000  0.10228100  1
  O  O10  1  0.36890400  0.00000000  0.89771900  1
  O  O11  1  0.63109600  0.00000000  0.39771900  1
loop_
_geom_bond_atom_site_label_1
_geom_bond_atom_site_label_2
_geom_bond_distance
_geom_bond_site_symmetry_2
Ce0 O9 2.794141 1_455
Ce0 O6 2.794141 1_554
Ce0 O1 2.794141 1_545
Ce0 O10 2.794141 1_554
Ce0 O7 2.794141 1_555
Ce0 O8 2.794141 1_444
Ce0 N0 2.922595 1_555
Ce0 N1 2.922595 1_555
Ce0 N4 2.922595 1_454
Ce0 N3 2.922595 1_544
Ce0 N2 2.922595 1_445
Ce0 N5 2.922595 1_554
Ce1 O4 2.454700 1_555
Ce1 O0 2.454700 1_565
Ce1 O11 2.454703 1_565
Ce1 O3 2.454703 1_555
Ce1 O5 2.454706 1_555
Ce1 O2 2.454706 1_555
Ce2 O6 2.454700 1_654
Ce2 O9 2.454700 1_555
Ce2 O1 2.454703 1_655
Ce2 O10 2.454703 1_554
Ce2 O7 2.454706 1_555
Ce2 O8 2.454706 1_554
Ce3 O3 2.454700 1_655
Ce3 O11 2.454700 1_555
Ce3 O0 2.454703 1_555
Ce3 O4 2.454703 1_655
Ce3 O5 2.454706 1_555
Ce3 O2 2.454706 1_555
Ce4 O1 2.454700 1_555
Ce4 O10 2.454700 1_564
Ce4 O6 2.454703 1_554
Ce4 O9 2.454703 1_565
Ce4 O7 2.454706 1_555
Ce4 O8 2.454706 1_554
Ce5 O11 2.794141 1_455
Ce5 O0 2.794141 1_555
Ce5 O4 2.794141 1_545
Ce5 O3 2.794141 1_555
Ce5 O5 2.794141 1_555
Ce5 O2 2.794141 1_445
Ce5 N3 2.922595 1_545
Ce5 N0 2.922595 1_555
Ce5 N1 2.922595 1_555
Ce5 N4 2.922595 1_455
Ce5 N2 2.922595 1_445
Ce5 N5 2.922595 1_555
N0 Si1 1.696592 1_555
N0 Si0 1.696592 1_455
N1 Si1 1.696592 1_555
N1 Si3 1.696592 1_545
N2 Si0 1.696592 1_565
N2 Si3 1.696592 1_655
N3 Si2 1.696592 1_455
N3 Si4 1.696592 1_565
N4 Si2 1.696592 1_545
N4 Si5 1.696592 1_655
N5 Si4 1.696592 1_555
N5 Si5 1.696592 1_555
O0 Si4 1.668201 1_555
O1 Si3 1.668201 1_555
O2 Si2 1.668201 1_555
O3 Si5 1.668201 1_555
O4 Si3 1.668201 1_555
O5 Si1 1.668201 1_555
O6 Si5 1.668201 1_555
O7 Si1 1.668201 1_555
O8 Si2 1.668201 1_555
O9 Si0 1.668201 1_555
O10 Si4 1.668201 1_555
O11 Si0 1.668201 1_555
