# generated using pymatgen
data_Re6Te7Se8
_symmetry_space_group_name_H-M   'P 1'
_cell_length_a   12.85930000
_cell_length_b   12.90630100
_cell_length_c   14.38382300
_cell_angle_alpha   90.00000000
_cell_angle_beta   90.00000000
_cell_angle_gamma   90.00000000
_symmetry_Int_Tables_number   1
_chemical_formula_structural   Re6Te7Se8
_chemical_formula_sum   'Re24 Te28 Se32'
_cell_volume   2387.22551695
_cell_formula_units_Z   4
loop_
 _symmetry_equiv_pos_site_id
 _symmetry_equiv_pos_as_xyz
  1  'x, y, z'
loop_
 _atom_site_type_symbol
 _atom_site_label
 _atom_site_symmetry_multiplicity
 _atom_site_fract_x
 _atom_site_fract_y
 _atom_site_fract_z
 _atom_site_occupancy
  Re  Re0  1  0.50791300  0.36568000  0.44955900  1
  Re  Re1  1  0.99208700  0.36568000  0.94955900  1
  Re  Re2  1  0.44008200  0.54782900  0.38906500  1
  Re  Re3  1  0.13270700  0.97025100  0.45220000  1
  Re  Re4  1  0.99208700  0.86568000  0.55044100  1
  Re  Re5  1  0.49208700  0.63432000  0.55044100  1
  Re  Re6  1  0.50791300  0.86568000  0.05044100  1
  Re  Re7  1  0.86729300  0.02974900  0.54780000  1
  Re  Re8  1  0.49208700  0.13432000  0.94955900  1
  Re  Re9  1  0.36729300  0.47025100  0.54780000  1
  Re  Re10  1  0.00791300  0.13432000  0.44955900  1
  Re  Re11  1  0.05991800  0.04782900  0.61093500  1
  Re  Re12  1  0.13270700  0.47025100  0.04780000  1
  Re  Re13  1  0.94008200  0.45217100  0.11093500  1
  Re  Re14  1  0.55991800  0.95217100  0.88906500  1
  Re  Re15  1  0.94008200  0.95217100  0.38906500  1
  Re  Re16  1  0.05991800  0.54782900  0.88906500  1
  Re  Re17  1  0.00791300  0.63432000  0.05044100  1
  Re  Re18  1  0.36729300  0.97025100  0.95220000  1
  Re  Re19  1  0.63270700  0.52974900  0.45220000  1
  Re  Re20  1  0.55991800  0.45217100  0.61093500  1
  Re  Re21  1  0.63270700  0.02974900  0.04780000  1
  Re  Re22  1  0.44008200  0.04782900  0.11093500  1
  Re  Re23  1  0.86729300  0.52974900  0.95220000  1
  Te  Te0  1  0.67554800  0.07718500  0.62496400  1
  Te  Te1  1  0.17554800  0.92281500  0.87503600  1
  Te  Te2  1  0.54440400  0.17574200  0.36722700  1
  Te  Te3  1  0.95559600  0.17574200  0.86722700  1
  Te  Te4  1  0.00000000  0.50000000  0.50000000  1
  Te  Te5  1  0.50000000  0.00000000  0.50000000  1
  Te  Te6  1  0.64411800  0.38527300  0.77727400  1
  Te  Te7  1  0.67554800  0.57718500  0.87503600  1
  Te  Te8  1  0.35588200  0.11472700  0.27727400  1
  Te  Te9  1  0.64411800  0.88527300  0.72272600  1
  Te  Te10  1  0.45559600  0.32425800  0.86722700  1
  Te  Te11  1  0.82445200  0.57718500  0.37503600  1
  Te  Te12  1  0.82445200  0.07718500  0.12496400  1
  Te  Te13  1  0.45559600  0.82425800  0.63277300  1
  Te  Te14  1  0.85588200  0.88527300  0.22272600  1
  Te  Te15  1  0.04440400  0.32425800  0.36722700  1
  Te  Te16  1  0.00000000  0.00000000  0.00000000  1
  Te  Te17  1  0.14411800  0.61472700  0.72272600  1
  Te  Te18  1  0.32445200  0.92281500  0.37503600  1
  Te  Te19  1  0.32445200  0.42281500  0.12496400  1
  Te  Te20  1  0.04440400  0.82425800  0.13277300  1
  Te  Te21  1  0.95559600  0.67574200  0.63277300  1
  Te  Te22  1  0.14411800  0.11472700  0.77727400  1
  Te  Te23  1  0.85588200  0.38527300  0.27727400  1
  Te  Te24  1  0.17554800  0.42281500  0.62496400  1
  Te  Te25  1  0.50000000  0.50000000  0.00000000  1
  Te  Te26  1  0.35588200  0.61472700  0.22272600  1
  Te  Te27  1  0.54440400  0.67574200  0.13277300  1
  Se  Se0  1  0.32240000  0.88879600  0.10796000  1
  Se  Se1  1  0.42327700  0.55344100  0.70010300  1
  Se  Se2  1  0.17760000  0.38879600  0.89204000  1
  Se  Se3  1  0.57672300  0.44655900  0.29989700  1
  Se  Se4  1  0.82240000  0.61120400  0.10796000  1
  Se  Se5  1  0.43919500  0.29576700  0.60198900  1
  Se  Se6  1  0.32240000  0.38879600  0.39204000  1
  Se  Se7  1  0.69336800  0.35417200  0.51317300  1
  Se  Se8  1  0.30663200  0.64582800  0.48682700  1
  Se  Se9  1  0.19336800  0.64582800  0.98682700  1
  Se  Se10  1  0.06080500  0.79576700  0.39801100  1
  Se  Se11  1  0.07672300  0.55344100  0.20010300  1
  Se  Se12  1  0.67760000  0.11120400  0.89204000  1
  Se  Se13  1  0.93919500  0.20423300  0.60198900  1
  Se  Se14  1  0.06080500  0.29576700  0.10198900  1
  Se  Se15  1  0.92327700  0.44655900  0.79989700  1
  Se  Se16  1  0.56080500  0.70423300  0.39801100  1
  Se  Se17  1  0.67760000  0.61120400  0.60796000  1
  Se  Se18  1  0.93919500  0.70423300  0.89801100  1
  Se  Se19  1  0.69336800  0.85417200  0.98682700  1
  Se  Se20  1  0.80663200  0.35417200  0.01317300  1
  Se  Se21  1  0.80663200  0.85417200  0.48682700  1
  Se  Se22  1  0.92327700  0.94655900  0.70010300  1
  Se  Se23  1  0.30663200  0.14582800  0.01317300  1
  Se  Se24  1  0.82240000  0.11120400  0.39204000  1
  Se  Se25  1  0.07672300  0.05344100  0.29989700  1
  Se  Se26  1  0.43919500  0.79576700  0.89801100  1
  Se  Se27  1  0.19336800  0.14582800  0.51317300  1
  Se  Se28  1  0.56080500  0.20423300  0.10198900  1
  Se  Se29  1  0.42327700  0.05344100  0.79989700  1
  Se  Se30  1  0.17760000  0.88879600  0.60796000  1
  Se  Se31  1  0.57672300  0.94655900  0.20010300  1
loop_
_geom_bond_atom_site_label_1
_geom_bond_atom_site_label_2
_geom_bond_distance
_geom_bond_site_symmetry_2
Re0 Se5 2.530260 1_555
Re0 Se6 2.542526 1_555
Re0 Se3 2.550832 1_555
Re0 Se7 2.558648 1_555
Re0 Te2 2.762605 1_555
Re1 Se14 2.530260 1_656
Re1 Se2 2.542526 1_655
Re1 Se15 2.550832 1_555
Re1 Se20 2.558648 1_556
Re1 Te3 2.762605 1_555
Re2 Se3 2.537860 1_555
Re2 Se16 2.549761 1_555
Re2 Se6 2.550452 1_555
Re2 Se8 2.553823 1_555
Re2 Te26 2.764474 1_555
Re3 Se30 2.541252 1_555
Re3 Se25 2.543663 1_565
Re3 Se27 2.551988 1_565
Re3 Se10 2.556107 1_555
Re3 Te18 2.772442 1_555
Re4 Se10 2.530260 1_655
Re4 Se30 2.542526 1_655
Re4 Se22 2.550832 1_555
Re4 Se21 2.558648 1_555
Re4 Te21 2.762605 1_555
Re5 Se16 2.530260 1_555
Re5 Se17 2.542526 1_555
Re5 Se1 2.550832 1_555
Re5 Se8 2.558648 1_555
Re5 Te13 2.762605 1_555
Re6 Se26 2.530260 1_554
Re6 Se0 2.542526 1_555
Re6 Se31 2.550832 1_555
Re6 Se19 2.558648 1_554
Re6 Te27 2.762605 1_555
Re7 Se24 2.541252 1_555
Re7 Se22 2.543663 1_545
Re7 Se21 2.551988 1_545
Re7 Se13 2.556107 1_555
Re7 Te0 2.772442 1_555
Re8 Se28 2.530260 1_556
Re8 Se12 2.542526 1_555
Re8 Se29 2.550832 1_555
Re8 Se23 2.558648 1_556
Re8 Te10 2.762605 1_555
Re9 Se6 2.541252 1_555
Re9 Se1 2.543663 1_555
Re9 Se8 2.551988 1_555
Re9 Se5 2.556107 1_555
Re9 Te24 2.772442 1_555
Re10 Se13 2.530260 1_455
Re10 Se24 2.542526 1_455
Re10 Se25 2.550832 1_555
Re10 Se27 2.558648 1_555
Re10 Te15 2.762605 1_555
Re11 Se22 2.537860 1_445
Re11 Se13 2.549761 1_455
Re11 Se30 2.550452 1_545
Re11 Se27 2.553823 1_555
Re11 Te22 2.764474 1_555
Re12 Se2 2.541252 1_554
Re12 Se11 2.543663 1_555
Re12 Se9 2.551988 1_554
Re12 Se14 2.556107 1_555
Re12 Te19 2.772442 1_555
Re13 Se11 2.537860 1_655
Re13 Se14 2.549761 1_655
Re13 Se4 2.550452 1_555
Re13 Se20 2.553823 1_555
Re13 Te23 2.764474 1_555
Re14 Se29 2.537860 1_565
Re14 Se26 2.549761 1_555
Re14 Se12 2.550452 1_565
Re14 Se19 2.553823 1_555
Re14 Te9 2.764474 1_555
Re15 Se25 2.537860 1_665
Re15 Se10 2.549761 1_655
Re15 Se24 2.550452 1_565
Re15 Se21 2.553823 1_555
Re15 Te14 2.764474 1_555
Re16 Se15 2.537860 1_455
Re16 Se18 2.549761 1_455
Re16 Se2 2.550452 1_555
Re16 Se9 2.553823 1_555
Re16 Te17 2.764474 1_555
Re17 Se18 2.530260 1_454
Re17 Se4 2.542526 1_455
Re17 Se11 2.550832 1_555
Re17 Se9 2.558648 1_554
Re17 Te20 2.762605 1_555
Re18 Se0 2.541252 1_556
Re18 Se29 2.543663 1_565
Re18 Se23 2.551988 1_566
Re18 Se26 2.556107 1_555
Re18 Te1 2.772442 1_555
Re19 Se17 2.541252 1_555
Re19 Se3 2.543663 1_555
Re19 Se7 2.551988 1_555
Re19 Se16 2.556107 1_555
Re19 Te11 2.772442 1_555
Re20 Se1 2.537860 1_555
Re20 Se5 2.549761 1_555
Re20 Se17 2.550452 1_555
Re20 Se7 2.553823 1_555
Re20 Te6 2.764474 1_555
Re21 Se12 2.541252 1_554
Re21 Se31 2.543663 1_545
Re21 Se19 2.551988 1_544
Re21 Se28 2.556107 1_555
Re21 Te12 2.772442 1_555
Re22 Se31 2.537860 1_545
Re22 Se28 2.549761 1_555
Re22 Se0 2.550452 1_545
Re22 Se23 2.553823 1_555
Re22 Te8 2.764474 1_555
Re23 Se4 2.541252 1_556
Re23 Se15 2.543663 1_555
Re23 Se20 2.551988 1_556
Re23 Se18 2.556107 1_555
Re23 Te7 2.772442 1_555
Te0 Te9 2.876740 1_545
Te0 Te5 3.052734 1_555
Te1 Te22 2.876740 1_565
Te1 Te16 3.052734 1_566
Te2 Te8 2.858541 1_555
Te2 Te5 3.019595 1_555
Te6 Te7 2.876740 1_555
Te10 Te6 2.858541 1_555
Te10 Te25 3.019595 1_556
Te11 Te23 2.876740 1_555
Te11 Te4 3.052734 1_655
Te12 Te14 2.876740 1_545
Te12 Te16 3.052734 1_655
Te13 Te9 2.858541 1_555
Te13 Te5 3.019595 1_565
Te14 Te20 2.858541 1_655
Te15 Te23 2.858541 1_455
Te15 Te4 3.019595 1_555
Te16 Te3 3.019595 1_454
Te16 Te20 3.019595 1_545
Te17 Te21 2.858541 1_455
Te17 Te24 2.876740 1_555
Te18 Te8 2.876740 1_565
Te18 Te5 3.052734 1_565
Te19 Te26 2.876740 1_555
Te19 Te25 3.052734 1_555
Te21 Te4 3.019595 1_655
Te22 Te3 2.858541 1_455
Te24 Te4 3.052734 1_555
Te25 Te27 3.019595 1_555
Te25 Te7 3.052734 1_554
Te26 Te27 2.858541 1_555
