# generated using pymatgen
data_Ba2CaTlCu2O7
_symmetry_space_group_name_H-M   'P 1'
_cell_length_a   3.84050200
_cell_length_b   3.84050200
_cell_length_c   13.04874800
_cell_angle_alpha   90.00000000
_cell_angle_beta   90.00000000
_cell_angle_gamma   90.00000000
_symmetry_Int_Tables_number   1
_chemical_formula_structural   Ba2CaTlCu2O7
_chemical_formula_sum   'Ba2 Ca1 Tl1 Cu2 O7'
_cell_volume   192.46192942
_cell_formula_units_Z   1
loop_
 _symmetry_equiv_pos_site_id
 _symmetry_equiv_pos_as_xyz
  1  'x, y, z'
loop_
 _atom_site_type_symbol
 _atom_site_label
 _atom_site_symmetry_multiplicity
 _atom_site_fract_x
 _atom_site_fract_y
 _atom_site_fract_z
 _atom_site_occupancy
  Ba  Ba0  1  0.00000000  0.00000000  0.70809700  1
  Ba  Ba1  1  0.00000000  0.00000000  0.29190300  1
  Ca  Ca0  1  0.00000000  0.00000000  0.00000000  1
  Tl  Tl0  1  0.50000000  0.50000000  0.50000000  1
  Cu  Cu0  1  0.50000000  0.50000000  0.86837900  1
  Cu  Cu1  1  0.50000000  0.50000000  0.13162100  1
  O  O0  1  0.50000000  0.00000000  0.87997300  1
  O  O1  1  0.00000000  0.50000000  0.87997300  1
  O  O2  1  0.50000000  0.00000000  0.12002700  1
  O  O3  1  0.00000000  0.50000000  0.12002700  1
  O  O4  1  0.50000000  0.50000000  0.66006000  1
  O  O5  1  0.50000000  0.50000000  0.33994000  1
  O  O6  1  0.00000000  0.00000000  0.50000000  1
loop_
_geom_bond_atom_site_label_1
_geom_bond_atom_site_label_2
_geom_bond_distance
_geom_bond_site_symmetry_2
Ba0 O6 2.715405 1_555
Ba0 O4 2.787048 1_545
Ba0 O4 2.787048 1_445
Ba0 O4 2.787048 1_455
Ba0 O4 2.787048 1_555
Ba0 O1 2.952519 1_545
Ba0 O0 2.952519 1_455
Ba0 O1 2.952519 1_555
Ba0 O0 2.952519 1_555
Ba1 O6 2.715405 1_555
Ba1 O5 2.787048 1_555
Ba1 O5 2.787048 1_445
Ba1 O5 2.787048 1_545
Ba1 O5 2.787048 1_455
Ba1 O3 2.952519 1_555
Ba1 O2 2.952519 1_455
Ba1 O3 2.952519 1_545
Ba1 O2 2.952519 1_555
Ca0 O1 2.477974 1_554
Ca0 O3 2.477974 1_545
Ca0 O2 2.477974 1_455
Ca0 O2 2.477974 1_555
Ca0 O1 2.477974 1_544
Ca0 O0 2.477974 1_454
Ca0 O0 2.477974 1_554
Ca0 O3 2.477974 1_555
Cu0 O0 1.926201 1_555
Cu0 O0 1.926201 1_565
Cu0 O1 1.926201 1_555
Cu0 O1 1.926201 1_655
Cu1 O3 1.926201 1_655
Cu1 O2 1.926201 1_555
Cu1 O2 1.926201 1_565
Cu1 O3 1.926201 1_555
O4 Tl0 2.088583 1_555
O5 Tl0 2.088583 1_555
O6 Tl0 2.715645 1_555
O6 Tl0 2.715645 1_455
O6 Tl0 2.715645 1_545
O6 Tl0 2.715645 1_445
