# generated using pymatgen
data_Sc14Cu14O37
_symmetry_space_group_name_H-M   'P 1'
_cell_length_a   5.98592278
_cell_length_b   5.98592278
_cell_length_c   40.21693625
_cell_angle_alpha   79.73246639
_cell_angle_beta   79.73246639
_cell_angle_gamma   33.31265142
_symmetry_Int_Tables_number   1
_chemical_formula_structural   Sc14Cu14O37
_chemical_formula_sum   'Sc14 Cu14 O37'
_cell_volume   777.60280148
_cell_formula_units_Z   1
loop_
 _symmetry_equiv_pos_site_id
 _symmetry_equiv_pos_as_xyz
  1  'x, y, z'
loop_
 _atom_site_type_symbol
 _atom_site_label
 _atom_site_symmetry_multiplicity
 _atom_site_fract_x
 _atom_site_fract_y
 _atom_site_fract_z
 _atom_site_occupancy
  Sc  Sc0  1  0.25726600  0.25726600  0.03631900  1
  Sc  Sc1  1  0.75325700  0.75325700  0.10690500  1
  Sc  Sc2  1  0.23043700  0.23043700  0.17900800  1
  Sc  Sc3  1  0.75234700  0.75234700  0.24971000  1
  Sc  Sc4  1  0.27239500  0.27239500  0.31986400  1
  Sc  Sc5  1  0.72738900  0.72738900  0.39447800  1
  Sc  Sc6  1  0.25535200  0.25535200  0.46382200  1
  Sc  Sc7  1  0.75438000  0.75438000  0.53421400  1
  Sc  Sc8  1  0.23250600  0.23250600  0.60640700  1
  Sc  Sc9  1  0.74429000  0.74429000  0.67783300  1
  Sc  Sc10  1  0.24209500  0.24209500  0.75003500  1
  Sc  Sc11  1  0.74216200  0.74216200  0.82208400  1
  Sc  Sc12  1  0.24205500  0.24205500  0.89398700  1
  Sc  Sc13  1  0.73744900  0.73744900  0.96590100  1
  Cu  Cu0  1  0.00619000  0.00619000  0.99628500  1
  Cu  Cu1  1  0.50513800  0.50513800  0.07313600  1
  Cu  Cu2  1  0.99543100  0.99543100  0.14314200  1
  Cu  Cu3  1  0.50220800  0.50220800  0.20933000  1
  Cu  Cu4  1  0.00317900  0.00317900  0.29117100  1
  Cu  Cu5  1  0.50031100  0.50031100  0.35718300  1
  Cu  Cu6  1  0.99982200  0.99982200  0.42435100  1
  Cu  Cu7  1  0.50495900  0.50495900  0.50127300  1
  Cu  Cu8  1  0.99817000  0.99817000  0.57190300  1
  Cu  Cu9  1  0.50347300  0.50347300  0.64121000  1
  Cu  Cu10  1  0.00477600  0.00477600  0.71218900  1
  Cu  Cu11  1  0.50473000  0.50473000  0.78370400  1
  Cu  Cu12  1  0.00447900  0.00447900  0.85518600  1
  Cu  Cu13  1  0.50280600  0.50280600  0.92624100  1
  O  O0  1  0.83968600  0.83968600  0.00766000  1
  O  O1  1  0.34414100  0.34414100  0.07836400  1
  O  O2  1  0.82929600  0.82929600  0.15019600  1
  O  O3  1  0.66621800  0.66621800  0.06366800  1
  O  O4  1  0.33481600  0.33481600  0.22067400  1
  O  O5  1  0.16234700  0.16234700  0.13178900  1
  O  O6  1  0.02069100  0.02069100  0.19258400  1
  O  O7  1  0.83873100  0.83873100  0.29007400  1
  O  O8  1  0.66551300  0.66551300  0.20839300  1
  O  O9  1  0.47711600  0.47711600  0.31150900  1
  O  O10  1  0.32921300  0.32921300  0.36819700  1
  O  O11  1  0.17036000  0.17036000  0.27757300  1
  O  O12  1  0.83294100  0.83294100  0.43634200  1
  O  O13  1  0.67063000  0.67063000  0.34617100  1
  O  O14  1  0.52395800  0.52395800  0.40281400  1
  O  O15  1  0.34466100  0.34466100  0.50630900  1
  O  O16  1  0.16408100  0.16408100  0.42466800  1
  O  O17  1  0.83341400  0.83341400  0.57730600  1
  O  O18  1  0.66504600  0.66504600  0.49244300  1
  O  O19  1  0.33403300  0.33403300  0.64877900  1
  O  O20  1  0.16418100  0.16418100  0.55920800  1
  O  O21  1  0.02453700  0.02453700  0.61868600  1
  O  O22  1  0.83607800  0.83607800  0.72104900  1
  O  O23  1  0.67185700  0.67185700  0.63390300  1
  O  O24  1  0.51964400  0.51964400  0.69218600  1
  O  O25  1  0.33616300  0.33616300  0.79272600  1
  O  O26  1  0.17240100  0.17240100  0.70537000  1
  O  O27  1  0.02108500  0.02108500  0.76444900  1
  O  O28  1  0.83536300  0.83536300  0.86449400  1
  O  O29  1  0.67234300  0.67234300  0.77724900  1
  O  O30  1  0.52048600  0.52048600  0.83679800  1
  O  O31  1  0.33207900  0.33207900  0.93686400  1
  O  O32  1  0.17226100  0.17226100  0.84910900  1
  O  O33  1  0.01823300  0.01823300  0.90917300  1
  O  O34  1  0.67055200  0.67055200  0.92085300  1
  O  O35  1  0.52264300  0.52264300  0.98210500  1
  O  O36  1  0.17000100  0.17000100  0.99502200  1
loop_
_geom_bond_atom_site_label_1
_geom_bond_atom_site_label_2
_geom_bond_distance
_geom_bond_site_symmetry_2
Cu0 O35 1.806812 1_545
Cu0 O35 1.806812 1_455
Cu0 O36 1.870050 1_555
Cu0 O0 1.879157 1_446
Cu1 O3 1.815631 1_555
Cu1 O1 1.819208 1_555
Cu2 O2 1.873559 1_555
Cu2 O5 1.883698 1_665
Cu2 O6 2.062051 1_665
Cu3 O6 1.840969 1_655
Cu3 O6 1.840969 1_565
Cu3 O8 1.866387 1_555
Cu3 O4 1.888982 1_555
Cu4 O11 1.893575 1_555
Cu4 O7 1.894844 1_445
Cu4 O9 1.900310 1_455
Cu4 O9 1.900310 1_545
Cu5 O14 1.904337 1_555
Cu5 O9 1.904389 1_555
Cu5 O13 1.921012 1_555
Cu5 O10 1.929719 1_555
Cu6 O12 1.884851 1_555
Cu6 O16 1.886386 1_665
Cu6 O14 1.918703 1_565
Cu6 O14 1.918703 1_655
Cu7 O18 1.804113 1_555
Cu7 O15 1.811821 1_555
Cu8 O17 1.861529 1_555
Cu8 O20 1.877340 1_665
Cu8 O21 1.960383 1_665
Cu9 O23 1.898692 1_555
Cu9 O19 1.910320 1_555
Cu9 O21 1.934239 1_565
Cu9 O21 1.934239 1_655
Cu9 O24 2.092556 1_555
Cu10 O24 1.889173 1_545
Cu10 O24 1.889173 1_455
Cu10 O26 1.890853 1_555
Cu10 O22 1.901106 1_445
Cu10 O27 2.144430 1_555
Cu11 O27 1.877387 1_565
Cu11 O27 1.877387 1_655
Cu11 O29 1.891420 1_555
Cu11 O25 1.899629 1_555
Cu11 O30 2.176156 1_555
Cu12 O30 1.863826 1_545
Cu12 O30 1.863826 1_455
Cu12 O32 1.894191 1_555
Cu12 O28 1.905861 1_445
Cu12 O33 2.205994 1_555
Cu13 O33 1.844201 1_565
Cu13 O33 1.844201 1_655
Cu13 O34 1.895645 1_555
Cu13 O31 1.924996 1_555
Cu13 O35 2.299900 1_555
O0 Sc0 2.181839 1_565
O0 Sc0 2.181839 1_655
O0 Sc13 2.219965 1_554
O1 Sc0 2.116364 1_555
O1 Sc1 2.214199 1_545
O1 Sc1 2.214199 1_455
O2 Sc1 2.087296 1_555
O2 Sc2 2.254598 1_565
O2 Sc2 2.254598 1_655
O3 Sc1 2.160129 1_555
O3 Sc0 2.194692 1_655
O3 Sc0 2.194692 1_565
O4 Sc3 2.188856 1_545
O4 Sc3 2.188856 1_455
O4 Sc2 2.233294 1_555
O5 Sc1 2.155048 1_455
O5 Sc1 2.155048 1_545
O5 Sc2 2.183565 1_555
O6 Sc2 2.365731 1_555
O7 Sc3 2.053115 1_555
O7 Sc4 2.149148 1_655
O7 Sc4 2.149148 1_565
O8 Sc3 2.090157 1_555
O8 Sc2 2.137154 1_655
O8 Sc2 2.137154 1_565
O9 Sc4 2.309258 1_555
O10 Sc4 2.162039 1_555
O10 Sc5 2.228346 1_455
O10 Sc5 2.228346 1_545
O11 Sc3 2.166015 1_455
O11 Sc3 2.166015 1_545
O11 Sc4 2.236740 1_555
O12 Sc6 2.142696 1_565
O12 Sc6 2.142696 1_655
O12 Sc5 2.249160 1_555
O13 Sc5 2.160723 1_555
O13 Sc4 2.228446 1_565
O13 Sc4 2.228446 1_655
O14 Sc5 2.294648 1_555
O15 Sc6 2.149461 1_555
O15 Sc7 2.200693 1_545
O15 Sc7 2.200693 1_455
O16 Sc6 2.046649 1_555
O16 Sc5 2.148752 1_455
O16 Sc5 2.148752 1_545
O17 Sc7 2.099918 1_555
O17 Sc8 2.269138 1_655
O17 Sc8 2.269138 1_565
O18 Sc7 2.124240 1_555
O18 Sc6 2.213117 1_565
O18 Sc6 2.213117 1_655
O19 Sc9 2.218342 1_455
O19 Sc9 2.218342 1_545
O19 Sc8 2.235670 1_555
O20 Sc7 2.153486 1_455
O20 Sc7 2.153486 1_545
O20 Sc8 2.184214 1_555
O21 Sc8 2.344192 1_555
O22 Sc9 2.193138 1_555
O22 Sc10 2.235416 1_565
O22 Sc10 2.235416 1_655
O23 Sc9 2.087503 1_555
O23 Sc8 2.089078 1_565
O23 Sc8 2.089078 1_655
O24 Sc9 2.533486 1_555
O25 Sc10 2.191138 1_555
O25 Sc11 2.241996 1_455
O25 Sc11 2.241996 1_545
O26 Sc10 2.097599 1_555
O26 Sc9 2.123751 1_545
O26 Sc9 2.123751 1_455
O27 Sc10 2.492964 1_555
O28 Sc11 2.174903 1_555
O28 Sc12 2.241350 1_565
O28 Sc12 2.241350 1_655
O29 Sc11 2.104713 1_555
O29 Sc10 2.110892 1_655
O29 Sc10 2.110892 1_565
O30 Sc11 2.500945 1_555
O31 Sc12 2.168441 1_555
O31 Sc13 2.239169 1_545
O31 Sc13 2.239169 1_455
O32 Sc12 2.106163 1_555
O32 Sc11 2.107983 1_545
O32 Sc11 2.107983 1_455
O33 Sc12 2.525820 1_555
O34 Sc13 2.094801 1_555
O34 Sc12 2.110463 1_655
O34 Sc12 2.110463 1_565
O35 Sc13 2.428411 1_555
O36 Sc0 2.092537 1_556
O36 Sc13 2.139328 1_455
O36 Sc13 2.139328 1_545
