# generated using pymatgen
data_K34(Zn4In17)5
_symmetry_space_group_name_H-M   'P 1'
_cell_length_a   17.48843511
_cell_length_b   17.48843529
_cell_length_c   17.48843523
_cell_angle_alpha   65.44359580
_cell_angle_beta   65.44359554
_cell_angle_gamma   65.44359445
_symmetry_Int_Tables_number   1
_chemical_formula_structural   K34(Zn4In17)5
_chemical_formula_sum   'K34 Zn20 In85'
_cell_volume   4229.96325917
_cell_formula_units_Z   1
loop_
 _symmetry_equiv_pos_site_id
 _symmetry_equiv_pos_as_xyz
  1  'x, y, z'
loop_
 _atom_site_type_symbol
 _atom_site_label
 _atom_site_symmetry_multiplicity
 _atom_site_fract_x
 _atom_site_fract_y
 _atom_site_fract_z
 _atom_site_occupancy
  K  K0  1  0.49951788  0.10789274  0.10789274  1
  K  K1  1  0.36187500  0.36187500  0.36187500  1
  K  K2  1  0.11259833  0.74238357  0.11259833  1
  K  K3  1  0.49977454  0.15383876  0.71315550  1
  K  K4  1  0.88740167  0.25761643  0.88740167  1
  K  K5  1  0.89210726  0.50048212  0.89210726  1
  K  K6  1  0.25761643  0.88740167  0.88740167  1
  K  K7  1  0.50022546  0.84616124  0.28684450  1
  K  K8  1  0.74292837  0.74292837  0.74292837  1
  K  K9  1  0.50048212  0.89210726  0.89210726  1
  K  K10  1  0.37016294  0.71797200  0.71797200  1
  K  K11  1  0.74238357  0.11259833  0.11259833  1
  K  K12  1  0.84616124  0.50022546  0.28684450  1
  K  K13  1  0.10789274  0.49951788  0.10789274  1
  K  K14  1  0.71797200  0.71797200  0.37016294  1
  K  K15  1  0.71315550  0.49977454  0.15383876  1
  K  K16  1  0.62983706  0.28202800  0.28202800  1
  K  K17  1  0.25707163  0.25707163  0.25707163  1
  K  K18  1  0.50022546  0.28684450  0.84616124  1
  K  K19  1  0.88740167  0.88740167  0.25761643  1
  K  K20  1  0.28684450  0.50022546  0.84616124  1
  K  K21  1  0.11259833  0.11259833  0.74238357  1
  K  K22  1  0.28202800  0.28202800  0.62983706  1
  K  K23  1  0.15383876  0.49977454  0.71315550  1
  K  K24  1  0.84616124  0.28684450  0.50022546  1
  K  K25  1  0.28684450  0.84616124  0.50022546  1
  K  K26  1  0.63812500  0.63812500  0.63812500  1
  K  K27  1  0.49977454  0.71315550  0.15383876  1
  K  K28  1  0.71797200  0.37016294  0.71797200  1
  K  K29  1  0.15383876  0.71315550  0.49977454  1
  K  K30  1  0.10789274  0.10789274  0.49951788  1
  K  K31  1  0.89210726  0.89210726  0.50048212  1
  K  K32  1  0.28202800  0.62983706  0.28202800  1
  K  K33  1  0.71315550  0.15383876  0.49977454  1
  Zn  Zn0  1  0.88191720  0.88191720  0.73901521  1
  Zn  Zn1  1  0.88191720  0.73901521  0.88191720  1
  Zn  Zn2  1  0.10859359  0.96054555  0.10859359  1
  Zn  Zn3  1  0.11368816  0.11368816  0.11368816  1
  Zn  Zn4  1  0.10859359  0.10859359  0.96054555  1
  Zn  Zn5  1  0.03945445  0.89140641  0.89140641  1
  Zn  Zn6  1  0.25454118  0.02192947  0.02192947  1
  Zn  Zn7  1  0.74545882  0.97807053  0.97807053  1
  Zn  Zn8  1  0.73901521  0.88191720  0.88191720  1
  Zn  Zn9  1  0.11808280  0.26098479  0.11808280  1
  Zn  Zn10  1  0.88631184  0.88631184  0.88631184  1
  Zn  Zn11  1  0.11808280  0.11808280  0.26098479  1
  Zn  Zn12  1  0.89140641  0.89140641  0.03945445  1
  Zn  Zn13  1  0.97807053  0.74545882  0.97807053  1
  Zn  Zn14  1  0.02192947  0.25454118  0.02192947  1
  Zn  Zn15  1  0.89140641  0.03945445  0.89140641  1
  Zn  Zn16  1  0.96054555  0.10859359  0.10859359  1
  Zn  Zn17  1  0.97807053  0.97807053  0.74545882  1
  Zn  Zn18  1  0.26098479  0.11808280  0.11808280  1
  Zn  Zn19  1  0.02192947  0.02192947  0.25454118  1
  In  In0  1  0.60879451  0.60879451  0.98264293  1
  In  In1  1  0.60250351  0.33640485  0.60250351  1
  In  In2  1  0.05216976  0.88471309  0.60681769  1
  In  In3  1  0.84099446  0.28413477  0.10962826  1
  In  In4  1  0.04653716  0.67370244  0.39151354  1
  In  In5  1  0.83075832  0.29102426  0.29102426  1
  In  In6  1  0.28710929  0.01472892  0.28710929  1
  In  In7  1  0.84099446  0.10962826  0.28413477  1
  In  In8  1  0.32629756  0.95346284  0.60848646  1
  In  In9  1  0.31982030  0.14847396  0.49772562  1
  In  In10  1  0.39318231  0.94783024  0.11528691  1
  In  In11  1  0.14847396  0.49772562  0.31982030  1
  In  In12  1  0.15614490  0.49693633  0.49693633  1
  In  In13  1  0.28710929  0.28710929  0.01472892  1
  In  In14  1  0.15900554  0.71586523  0.89037174  1
  In  In15  1  0.49715524  0.49715524  0.33183515  1
  In  In16  1  0.39151354  0.67370244  0.04653716  1
  In  In17  1  0.71586523  0.15900554  0.89037174  1
  In  In18  1  0.29102426  0.83075832  0.29102426  1
  In  In19  1  0.50284476  0.50284476  0.66816485  1
  In  In20  1  0.49693633  0.15614490  0.49693633  1
  In  In21  1  0.71289071  0.71289071  0.98527108  1
  In  In22  1  0.70897574  0.16924168  0.70897574  1
  In  In23  1  0.11528691  0.39318231  0.94783024  1
  In  In24  1  0.95346284  0.60848646  0.32629756  1
  In  In25  1  0.60848646  0.95346284  0.32629756  1
  In  In26  1  0.68017970  0.50227438  0.85152604  1
  In  In27  1  0.60848646  0.32629756  0.95346284  1
  In  In28  1  0.16924168  0.70897574  0.70897574  1
  In  In29  1  0.84385510  0.50306367  0.50306367  1
  In  In30  1  0.15900554  0.89037174  0.71586523  1
  In  In31  1  0.39151354  0.04653716  0.67370244  1
  In  In32  1  0.89037174  0.15900554  0.71586523  1
  In  In33  1  0.39120549  0.39120549  0.01735707  1
  In  In34  1  0.14847396  0.31982030  0.49772562  1
  In  In35  1  0.98264293  0.60879451  0.60879451  1
  In  In36  1  0.88471309  0.05216976  0.60681769  1
  In  In37  1  0.50284476  0.66816485  0.50284476  1
  In  In38  1  0.95346284  0.32629756  0.60848646  1
  In  In39  1  0.60681769  0.05216976  0.88471309  1
  In  In40  1  0.85152604  0.50227438  0.68017970  1
  In  In41  1  0.33640485  0.60250351  0.60250351  1
  In  In42  1  0.66359515  0.39749649  0.39749649  1
  In  In43  1  0.50306367  0.50306367  0.84385510  1
  In  In44  1  0.60681769  0.88471309  0.05216976  1
  In  In45  1  0.67370244  0.39151354  0.04653716  1
  In  In46  1  0.49715524  0.33183515  0.49715524  1
  In  In47  1  0.60250351  0.60250351  0.33640485  1
  In  In48  1  0.85152604  0.68017970  0.50227438  1
  In  In49  1  0.32629756  0.60848646  0.95346284  1
  In  In50  1  0.98527108  0.71289071  0.71289071  1
  In  In51  1  0.28413477  0.10962826  0.84099446  1
  In  In52  1  0.49772562  0.31982030  0.14847396  1
  In  In53  1  0.50306367  0.84385510  0.50306367  1
  In  In54  1  0.60879451  0.98264293  0.60879451  1
  In  In55  1  0.05216976  0.60681769  0.88471309  1
  In  In56  1  0.39749649  0.66359515  0.39749649  1
  In  In57  1  0.49772562  0.14847396  0.31982030  1
  In  In58  1  0.94783024  0.39318231  0.11528691  1
  In  In59  1  0.88471309  0.60681769  0.05216976  1
  In  In60  1  0.50227438  0.85152604  0.68017970  1
  In  In61  1  0.39749649  0.39749649  0.66359515  1
  In  In62  1  0.94783024  0.11528691  0.39318231  1
  In  In63  1  0.39318231  0.11528691  0.94783024  1
  In  In64  1  0.67370244  0.04653716  0.39151354  1
  In  In65  1  0.89037174  0.71586523  0.15900554  1
  In  In66  1  0.71586523  0.89037174  0.15900554  1
  In  In67  1  0.04653716  0.39151354  0.67370244  1
  In  In68  1  0.01472892  0.28710929  0.28710929  1
  In  In69  1  0.29102426  0.29102426  0.83075832  1
  In  In70  1  0.49693633  0.49693633  0.15614490  1
  In  In71  1  0.71289071  0.98527108  0.71289071  1
  In  In72  1  0.11528691  0.94783024  0.39318231  1
  In  In73  1  0.01735707  0.39120549  0.39120549  1
  In  In74  1  0.68017970  0.85152604  0.50227438  1
  In  In75  1  0.31982030  0.49772562  0.14847396  1
  In  In76  1  0.50227438  0.68017970  0.85152604  1
  In  In77  1  0.00000000  0.00000000  0.00000000  1
  In  In78  1  0.10962826  0.28413477  0.84099446  1
  In  In79  1  0.39120549  0.01735707  0.39120549  1
  In  In80  1  0.28413477  0.84099446  0.10962826  1
  In  In81  1  0.66816485  0.50284476  0.50284476  1
  In  In82  1  0.33183515  0.49715524  0.49715524  1
  In  In83  1  0.70897574  0.70897574  0.16924168  1
  In  In84  1  0.10962826  0.84099446  0.28413477  1
loop_
_geom_bond_atom_site_label_1
_geom_bond_atom_site_label_2
_geom_bond_distance
_geom_bond_site_symmetry_2
K0 Zn18 4.031886 1_555
K0 K11 4.317420 1_555
K0 K18 4.338711 1_554
K0 K7 4.338711 1_545
K0 K17 4.342711 1_555
K1 K16 4.074703 1_555
K1 K32 4.074703 1_555
K1 K22 4.074703 1_555
K1 K17 4.295879 1_555
K2 Zn2 3.758496 1_555
K2 Zn13 3.932356 1_454
K2 K6 4.137240 1_554
K2 K32 4.363029 1_555
K3 K33 4.034418 1_555
K3 K9 4.338711 1_545
K4 Zn15 3.758496 1_555
K4 Zn14 3.932356 1_656
K4 K5 4.317420 1_555
K5 Zn1 4.031886 1_555
K5 K8 4.342711 1_555
K6 Zn5 3.758496 1_555
K6 Zn6 3.932356 1_566
K6 K9 4.317420 1_555
K8 K9 4.342711 1_555
K9 Zn8 4.031886 1_555
K10 K25 4.056020 1_555
K10 K20 4.056020 1_555
K10 K26 4.074703 1_555
K10 K6 4.363029 1_555
K11 Zn16 3.758496 1_555
K11 Zn7 3.932356 1_544
K11 K19 4.137240 1_545
K11 K4 4.137240 1_554
K11 K16 4.363029 1_555
K12 K15 3.917758 1_555
K12 K24 4.034418 1_555
K12 K14 4.056020 1_555
K12 K13 4.338711 1_655
K13 Zn9 4.031886 1_555
K13 K2 4.317420 1_555
K13 K20 4.338711 1_554
K13 K17 4.342711 1_555
K14 K7 4.056020 1_555
K14 K26 4.074703 1_555
K14 K19 4.363029 1_555
K15 K27 4.034418 1_555
K15 K16 4.056020 1_555
K15 K5 4.338711 1_554
K16 K33 4.056020 1_555
K17 K30 4.342711 1_555
K18 K3 3.917758 1_555
K18 K20 4.034418 1_555
K18 K28 4.056020 1_555
K19 Zn12 3.758496 1_555
K19 Zn19 3.932356 1_665
K19 K2 4.137240 1_655
K19 K31 4.317420 1_555
K20 K23 3.917758 1_555
K21 Zn4 3.758496 1_555
K21 Zn17 3.932356 1_445
K21 K4 4.137240 1_455
K21 K6 4.137240 1_545
K21 K30 4.317420 1_555
K21 K22 4.363029 1_555
K22 K3 4.056020 1_555
K22 K23 4.056020 1_555
K23 K29 4.034418 1_555
K23 K5 4.338711 1_455
K24 K33 3.917758 1_555
K24 K28 4.056020 1_555
K24 K30 4.338711 1_655
K25 K29 3.917758 1_555
K25 K7 4.034418 1_555
K25 K30 4.338711 1_565
K26 K28 4.074703 1_555
K26 K8 4.295879 1_555
K27 K7 3.917758 1_555
K27 K32 4.056020 1_555
K27 K9 4.338711 1_554
K28 K4 4.363029 1_555
K29 K32 4.056020 1_555
K29 K31 4.338711 1_455
K30 Zn11 4.031886 1_555
K31 Zn0 4.031886 1_555
K31 K33 4.338711 1_565
K31 K8 4.342711 1_555
Zn0 Zn10 2.642261 1_555
Zn0 Zn8 2.701864 1_555
Zn0 Zn1 2.701864 1_555
Zn0 Zn17 2.886759 1_555
Zn1 Zn10 2.642261 1_555
Zn1 Zn8 2.701864 1_555
Zn1 Zn13 2.886759 1_555
Zn2 Zn3 2.755364 1_565
Zn2 Zn6 2.770191 1_565
Zn2 Zn4 2.799161 1_564
Zn3 Zn6 2.605250 1_555
Zn3 Zn9 2.642261 1_555
Zn3 Zn4 2.755364 1_554
Zn4 Zn6 2.770191 1_556
Zn7 Zn8 2.886759 1_555
Zn10 Zn7 2.605250 1_555
Zn10 Zn13 2.605250 1_555
Zn10 Zn17 2.605250 1_555
Zn10 Zn8 2.642261 1_555
Zn10 Zn5 2.755364 1_655
Zn10 Zn12 2.755364 1_556
Zn10 Zn15 2.755364 1_565
Zn11 Zn3 2.642261 1_555
Zn11 Zn18 2.701864 1_555
Zn11 Zn9 2.701864 1_555
Zn11 Zn19 2.886759 1_555
Zn12 Zn7 2.770191 1_554
Zn12 Zn13 2.770191 1_554
Zn12 Zn5 2.799161 1_654
Zn12 Zn15 2.799161 1_564
Zn13 Zn5 2.770191 1_655
Zn14 Zn3 2.605250 1_555
Zn14 Zn4 2.770191 1_554
Zn14 Zn16 2.770191 1_455
Zn14 Zn9 2.886759 1_555
Zn15 Zn17 2.770191 1_545
Zn15 Zn7 2.770191 1_545
Zn15 Zn5 2.799161 1_645
Zn16 Zn3 2.755364 1_655
Zn16 Zn19 2.770191 1_655
Zn16 Zn2 2.799161 1_645
Zn16 Zn4 2.799161 1_654
Zn17 Zn5 2.770191 1_655
Zn18 Zn3 2.642261 1_555
Zn18 Zn9 2.701864 1_555
Zn18 Zn6 2.886759 1_555
Zn19 Zn3 2.605250 1_555
Zn19 Zn2 2.770191 1_545
In0 In21 3.086121 1_555
In0 In76 3.086242 1_555
In0 In26 3.086242 1_555
In0 In70 3.189662 1_556
In0 In16 3.303976 1_556
In0 In45 3.303976 1_556
In0 K27 3.582568 1_556
In0 K15 3.582568 1_556
In0 K8 4.099545 1_555
In1 In22 3.051805 1_555
In1 In61 3.117392 1_555
In1 In42 3.117392 1_555
In1 In19 3.118796 1_555
In1 In81 3.118796 1_555
In1 In46 3.140248 1_555
In1 K28 3.724974 1_555
In1 K33 3.729471 1_555
In1 K3 3.729471 1_555
In1 K24 3.740586 1_555
In1 K18 3.740586 1_555
In2 Zn0 2.918583 1_455
In2 Zn17 3.023884 1_455
In2 In36 3.166122 1_465
In2 In28 3.174224 1_555
In2 In50 3.213164 1_455
In2 In30 3.226415 1_555
In2 In72 3.248500 1_555
In2 K29 3.624263 1_555
In2 K25 3.627520 1_555
In2 K31 3.890601 1_455
In2 K30 3.906236 1_565
In3 Zn14 2.810257 1_655
In3 Zn16 2.911348 1_555
In3 In45 3.114130 1_555
In3 In5 3.152460 1_555
In3 In58 3.226415 1_555
In3 In7 3.299414 1_555
In3 K16 3.673557 1_555
In3 K15 3.714433 1_555
In3 K4 3.813319 1_554
In3 K11 4.009029 1_555
In3 K5 4.196092 1_554
In4 In84 3.114130 1_555
In4 In48 3.125129 1_455
In4 K29 3.563305 1_555
In4 K32 3.640911 1_555
In4 K19 4.085764 1_455
In5 In7 3.152460 1_555
In5 In68 3.162037 1_655
In5 In62 3.174224 1_555
In5 In58 3.174224 1_555
In5 K16 3.651829 1_555
In5 K15 3.727488 1_555
In5 K33 3.727488 1_555
In5 K24 3.747502 1_555
In5 K12 3.747502 1_555
In6 Zn11 2.865126 1_555
In6 Zn18 2.865126 1_555
In6 In79 3.086121 1_555
In6 In72 3.213164 1_545
In6 K7 3.666912 1_545
In6 K25 3.666912 1_545
In6 K17 3.878472 1_555
In6 K30 4.169632 1_555
In6 K0 4.169632 1_555
In7 Zn19 2.810257 1_655
In7 Zn16 2.911348 1_555
In7 K16 3.673557 1_555
In7 K33 3.714433 1_555
In7 K19 3.813319 1_545
In7 K11 4.009029 1_555
In7 K31 4.196092 1_545
In8 In9 3.125129 1_565
In8 K25 3.563305 1_555
In8 K10 3.640911 1_555
In8 K21 4.085764 1_565
In9 K22 3.628105 1_555
In9 K1 3.684144 1_555
In9 K30 4.038865 1_555
In10 Zn18 2.918583 1_565
In10 Zn6 3.023884 1_565
In10 In63 3.166122 1_564
In10 In18 3.174224 1_555
In10 In6 3.213164 1_565
In10 In80 3.226415 1_555
In10 In44 3.248500 1_555
In10 K7 3.624263 1_555
In10 K27 3.627520 1_555
In10 K0 3.890601 1_565
In10 K9 3.906236 1_554
In11 In73 3.086242 1_555
In11 In24 3.125129 1_455
In11 In12 3.149745 1_555
In11 In75 3.239664 1_555
In11 In4 3.318235 1_555
In11 In34 3.363676 1_555
In11 K32 3.628105 1_555
In11 K1 3.684144 1_555
In11 K13 4.038865 1_555
In12 In82 3.075735 1_555
In12 In4 3.147205 1_555
In12 In67 3.147205 1_555
In12 In34 3.149745 1_555
In12 In35 3.189662 1_455
In12 K23 3.785521 1_555
In12 K29 3.785521 1_555
In12 K22 3.806479 1_555
In12 K32 3.806479 1_555
In12 K1 3.822712 1_555
In13 Zn9 2.865126 1_555
In13 Zn18 2.865126 1_555
In13 In33 3.086121 1_555
In13 In69 3.162037 1_554
In13 In23 3.213164 1_554
In13 In63 3.213164 1_554
In13 K18 3.666912 1_554
In13 K20 3.666912 1_554
In13 K17 3.878472 1_555
In13 K0 4.169632 1_555
In13 K13 4.169632 1_555
In14 Zn13 2.810257 1_455
In14 Zn5 2.911348 1_555
In14 In49 3.114130 1_555
In14 In28 3.152460 1_555
In14 In55 3.226415 1_555
In14 In30 3.299414 1_555
In14 K10 3.673557 1_555
In14 K20 3.714433 1_555
In14 K2 3.813319 1_556
In14 K6 4.009029 1_555
In14 K13 4.196092 1_556
In15 In70 3.075735 1_555
In15 In42 3.118796 1_555
In15 In56 3.118796 1_555
In15 In82 3.125725 1_555
In15 In46 3.125725 1_555
In15 In47 3.140248 1_555
In15 K1 3.749203 1_555
In15 K32 3.753027 1_555
In15 K16 3.753027 1_555
In15 K15 3.770042 1_555
In15 K27 3.770042 1_555
In16 In49 3.068937 1_554
In16 In80 3.114130 1_555
In16 In76 3.125129 1_554
In16 In70 3.147205 1_555
In16 In75 3.318235 1_555
In16 K27 3.563305 1_555
In16 K32 3.640911 1_555
In16 K6 4.085764 1_554
In17 Zn7 2.810257 1_545
In17 Zn15 2.911348 1_555
In17 In27 3.114130 1_555
In17 In22 3.152460 1_555
In17 In39 3.226415 1_555
In17 In32 3.299414 1_555
In17 K28 3.673557 1_555
In17 K18 3.714433 1_555
In17 K11 3.813319 1_556
In17 K4 4.009029 1_555
In17 K0 4.196092 1_556
In18 In56 3.051805 1_555
In18 In84 3.152460 1_555
In18 In80 3.152460 1_555
In18 In6 3.162037 1_565
In18 In72 3.174224 1_555
In18 K32 3.651829 1_555
In18 K27 3.727488 1_555
In18 K29 3.727488 1_555
In18 K7 3.747502 1_555
In18 K25 3.747502 1_555
In19 In43 3.075735 1_555
In19 In41 3.118796 1_555
In19 In81 3.125725 1_555
In19 In37 3.125725 1_555
In19 In61 3.140248 1_555
In19 K26 3.749203 1_555
In19 K28 3.753027 1_555
In19 K10 3.753027 1_555
In19 K20 3.770042 1_555
In19 K18 3.770042 1_555
In20 In46 3.075735 1_555
In20 In64 3.147205 1_555
In20 In31 3.147205 1_555
In20 In9 3.149745 1_555
In20 In57 3.149745 1_555
In20 In54 3.189662 1_545
In20 K33 3.785521 1_555
In20 K3 3.785521 1_555
In20 K22 3.806479 1_555
In20 K16 3.806479 1_555
In20 K1 3.822712 1_555
In21 Zn1 2.865126 1_555
In21 Zn8 2.865126 1_555
In21 In83 3.162037 1_556
In21 In59 3.213164 1_556
In21 In44 3.213164 1_556
In21 K27 3.666912 1_556
In21 K15 3.666912 1_556
In21 K8 3.878472 1_555
In21 K9 4.169632 1_555
In21 K5 4.169632 1_555
In22 In32 3.152460 1_555
In22 In71 3.162037 1_545
In22 In36 3.174224 1_555
In22 In39 3.174224 1_555
In22 K28 3.651829 1_555
In22 K18 3.727488 1_555
In22 K24 3.727488 1_555
In22 K3 3.747502 1_555
In22 K33 3.747502 1_555
In23 Zn9 2.918583 1_556
In23 Zn14 3.023884 1_556
In23 In58 3.166122 1_456
In23 In69 3.174224 1_555
In23 In78 3.226415 1_555
In23 In55 3.248500 1_555
In23 K20 3.624263 1_555
In23 K23 3.627520 1_555
In23 K13 3.890601 1_556
In23 K5 3.906236 1_455
In24 In4 3.068937 1_655
In24 In65 3.114130 1_555
In24 In29 3.147205 1_555
In24 In73 3.303976 1_655
In24 In48 3.318235 1_555
In24 K12 3.563305 1_555
In24 K14 3.640911 1_555
In24 K2 4.085764 1_655
In25 In64 3.068937 1_565
In25 In66 3.114130 1_555
In25 In57 3.125129 1_565
In25 In53 3.147205 1_555
In25 In79 3.303976 1_565
In25 In74 3.318235 1_555
In25 K7 3.563305 1_555
In25 K14 3.640911 1_555
In25 K11 4.085764 1_565
In26 In45 3.125129 1_556
In26 In43 3.149745 1_555
In26 In40 3.239664 1_555
In26 In27 3.318235 1_555
In26 In76 3.363676 1_555
In26 K28 3.628105 1_555
In26 K26 3.684144 1_555
In26 K5 4.038865 1_555
In27 In45 3.068937 1_556
In27 In52 3.125129 1_556
In27 In43 3.147205 1_555
In27 In33 3.303976 1_556
In27 K18 3.563305 1_555
In27 K28 3.640911 1_555
In27 K11 4.085764 1_556
In28 In41 3.051805 1_555
In28 In30 3.152460 1_555
In28 In50 3.162037 1_455
In28 In55 3.174224 1_555
In28 K10 3.651829 1_555
In28 K20 3.727488 1_555
In28 K25 3.727488 1_555
In28 K29 3.747502 1_555
In28 K23 3.747502 1_555
In29 In81 3.075735 1_555
In29 In38 3.147205 1_555
In29 In40 3.149745 1_555
In29 In48 3.149745 1_555
In29 In73 3.189662 1_655
In29 K12 3.785521 1_555
In29 K24 3.785521 1_555
In29 K14 3.806479 1_555
In29 K28 3.806479 1_555
In29 K26 3.822712 1_555
In30 Zn17 2.810257 1_455
In30 Zn5 2.911348 1_555
In30 In8 3.114130 1_555
In30 K10 3.673557 1_555
In30 K25 3.714433 1_555
In30 K21 3.813319 1_565
In30 K6 4.009029 1_555
In30 K30 4.196092 1_565
In31 In8 3.068937 1_545
In31 In51 3.114130 1_555
In31 In60 3.125129 1_545
In31 In54 3.303976 1_545
In31 In9 3.318235 1_555
In31 K3 3.563305 1_555
In31 K22 3.640911 1_555
In31 K6 4.085764 1_545
In32 Zn17 2.810257 1_545
In32 Zn15 2.911348 1_555
In32 In38 3.114130 1_555
In32 In36 3.226415 1_555
In32 K28 3.673557 1_555
In32 K24 3.714433 1_555
In32 K21 3.813319 1_655
In32 K4 4.009029 1_555
In32 K30 4.196092 1_655
In33 In52 3.086242 1_555
In33 In75 3.086242 1_555
In33 In43 3.189662 1_554
In33 In49 3.303976 1_554
In33 K18 3.582568 1_554
In33 K20 3.582568 1_554
In33 K17 4.099545 1_555
In34 In73 3.086242 1_555
In34 In38 3.125129 1_455
In34 In9 3.239664 1_555
In34 In67 3.318235 1_555
In34 K22 3.628105 1_555
In34 K1 3.684144 1_555
In34 K30 4.038865 1_555
In35 In50 3.086121 1_555
In35 In48 3.086242 1_555
In35 In40 3.086242 1_555
In35 In67 3.303976 1_655
In35 In4 3.303976 1_655
In35 K23 3.582568 1_655
In35 K29 3.582568 1_655
In35 K8 4.099545 1_555
In36 Zn0 2.918583 1_545
In36 Zn17 3.023884 1_545
In36 In71 3.213164 1_545
In36 In62 3.248500 1_555
In36 K33 3.624263 1_555
In36 K24 3.627520 1_555
In36 K31 3.890601 1_545
In36 K30 3.906236 1_655
In37 In53 3.075735 1_555
In37 In47 3.118796 1_555
In37 In41 3.118796 1_555
In37 In81 3.125725 1_555
In37 In56 3.140248 1_555
In37 K26 3.749203 1_555
In37 K10 3.753027 1_555
In37 K14 3.753027 1_555
In37 K25 3.770042 1_555
In37 K7 3.770042 1_555
In38 In67 3.068937 1_655
In38 In73 3.303976 1_655
In38 In40 3.318235 1_555
In38 K24 3.563305 1_555
In38 K28 3.640911 1_555
In38 K21 4.085764 1_655
In39 Zn8 2.918583 1_545
In39 Zn7 3.023884 1_545
In39 In44 3.166122 1_546
In39 In71 3.213164 1_545
In39 In63 3.248500 1_555
In39 K3 3.624263 1_555
In39 K18 3.627520 1_555
In39 K9 3.890601 1_545
In39 K0 3.906236 1_556
In40 In67 3.125129 1_655
In40 In48 3.363676 1_555
In40 K28 3.628105 1_555
In40 K26 3.684144 1_555
In40 K5 4.038865 1_555
In41 In61 3.117392 1_555
In41 In56 3.117392 1_555
In41 In82 3.140248 1_555
In41 K10 3.724974 1_555
In41 K29 3.729471 1_555
In41 K23 3.729471 1_555
In41 K25 3.740586 1_555
In41 K20 3.740586 1_555
In42 In5 3.051805 1_555
In42 In47 3.117392 1_555
In42 In46 3.118796 1_555
In42 In81 3.140248 1_555
In42 K16 3.724974 1_555
In42 K24 3.729471 1_555
In42 K12 3.729471 1_555
In42 K33 3.740586 1_555
In42 K15 3.740586 1_555
In43 In49 3.147205 1_555
In43 In76 3.149745 1_555
In43 K20 3.785521 1_555
In43 K18 3.785521 1_555
In43 K28 3.806479 1_555
In43 K10 3.806479 1_555
In43 K26 3.822712 1_555
In44 Zn8 2.918583 1_554
In44 Zn7 3.023884 1_554
In44 In83 3.174224 1_555
In44 In66 3.226415 1_555
In44 K27 3.624263 1_555
In44 K7 3.627520 1_555
In44 K9 3.890601 1_554
In44 K0 3.906236 1_565
In45 In70 3.147205 1_555
In45 In52 3.318235 1_555
In45 K15 3.563305 1_555
In45 K16 3.640911 1_555
In45 K4 4.085764 1_554
In46 In61 3.118796 1_555
In46 In82 3.125725 1_555
In46 K1 3.749203 1_555
In46 K16 3.753027 1_555
In46 K22 3.753027 1_555
In46 K33 3.770042 1_555
In46 K3 3.770042 1_555
In47 In83 3.051805 1_555
In47 In56 3.117392 1_555
In47 In81 3.118796 1_555
In47 K14 3.724974 1_555
In47 K15 3.729471 1_555
In47 K27 3.729471 1_555
In47 K12 3.740586 1_555
In47 K7 3.740586 1_555
In48 In74 3.239664 1_555
In48 K14 3.628105 1_555
In48 K26 3.684144 1_555
In48 K31 4.038865 1_555
In49 In75 3.125129 1_556
In49 In76 3.318235 1_555
In49 K20 3.563305 1_555
In49 K10 3.640911 1_555
In49 K2 4.085764 1_556
In50 Zn0 2.865126 1_555
In50 Zn1 2.865126 1_555
In50 In55 3.213164 1_655
In50 K23 3.666912 1_655
In50 K29 3.666912 1_655
In50 K8 3.878472 1_555
In50 K31 4.169632 1_555
In50 K5 4.169632 1_555
In51 Zn6 2.810257 1_556
In51 Zn4 2.911348 1_555
In51 In69 3.152460 1_555
In51 In63 3.226415 1_555
In51 In78 3.299414 1_555
In51 K22 3.673557 1_555
In51 K3 3.714433 1_555
In51 K6 3.813319 1_545
In51 K21 4.009029 1_555
In51 K9 4.196092 1_545
In52 In70 3.149745 1_555
In52 In57 3.239664 1_555
In52 In75 3.363676 1_555
In52 K16 3.628105 1_555
In52 K1 3.684144 1_555
In52 K0 4.038865 1_555
In53 In8 3.147205 1_555
In53 In74 3.149745 1_555
In53 In60 3.149745 1_555
In53 In79 3.189662 1_565
In53 K25 3.785521 1_555
In53 K7 3.785521 1_555
In53 K14 3.806479 1_555
In53 K10 3.806479 1_555
In53 K26 3.822712 1_555
In54 In71 3.086121 1_555
In54 In74 3.086242 1_555
In54 In60 3.086242 1_555
In54 In64 3.303976 1_565
In54 K3 3.582568 1_565
In54 K33 3.582568 1_565
In54 K8 4.099545 1_555
In55 Zn1 2.918583 1_455
In55 Zn13 3.023884 1_455
In55 In59 3.166122 1_456
In55 K23 3.624263 1_555
In55 K20 3.627520 1_555
In55 K5 3.890601 1_455
In55 K13 3.906236 1_556
In56 In82 3.118796 1_555
In56 K32 3.724974 1_555
In56 K25 3.729471 1_555
In56 K7 3.729471 1_555
In56 K29 3.740586 1_555
In56 K27 3.740586 1_555
In57 In79 3.086242 1_555
In57 In64 3.318235 1_555
In57 In9 3.363676 1_555
In57 K16 3.628105 1_555
In57 K1 3.684144 1_555
In57 K0 4.038865 1_555
In58 Zn9 2.918583 1_655
In58 Zn14 3.023884 1_655
In58 In68 3.213164 1_655
In58 In59 3.248500 1_555
In58 K12 3.624263 1_555
In58 K15 3.627520 1_555
In58 K13 3.890601 1_655
In58 K5 3.906236 1_554
In59 Zn1 2.918583 1_554
In59 Zn13 3.023884 1_554
In59 In83 3.174224 1_555
In59 In65 3.226415 1_555
In59 K15 3.624263 1_555
In59 K12 3.627520 1_555
In59 K5 3.890601 1_554
In59 K13 3.906236 1_655
In60 In76 3.239664 1_555
In60 In8 3.318235 1_555
In60 In74 3.363676 1_555
In60 K10 3.628105 1_555
In60 K26 3.684144 1_555
In60 K9 4.038865 1_555
In61 In69 3.051805 1_555
In61 In82 3.118796 1_555
In61 K22 3.724974 1_555
In61 K20 3.729471 1_555
In61 K18 3.729471 1_555
In61 K23 3.740586 1_555
In61 K3 3.740586 1_555
In62 Zn11 2.918583 1_655
In62 Zn19 3.023884 1_655
In62 In72 3.166122 1_645
In62 In68 3.213164 1_655
In62 In7 3.226415 1_555
In62 K24 3.624263 1_555
In62 K33 3.627520 1_555
In62 K30 3.890601 1_655
In62 K31 3.906236 1_545
In63 Zn18 2.918583 1_556
In63 Zn6 3.023884 1_556
In63 In69 3.174224 1_555
In63 K18 3.624263 1_555
In63 K3 3.627520 1_555
In63 K0 3.890601 1_556
In63 K9 3.906236 1_545
In64 In7 3.114130 1_555
In64 In74 3.125129 1_545
In64 K33 3.563305 1_555
In64 K16 3.640911 1_555
In64 K19 4.085764 1_545
In65 Zn13 2.810257 1_554
In65 Zn12 2.911348 1_555
In65 In83 3.152460 1_555
In65 In66 3.299414 1_555
In65 K14 3.673557 1_555
In65 K12 3.714433 1_555
In65 K2 3.813319 1_655
In65 K19 4.009029 1_555
In65 K13 4.196092 1_655
In66 Zn7 2.810257 1_554
In66 Zn12 2.911348 1_555
In66 In83 3.152460 1_555
In66 K14 3.673557 1_555
In66 K7 3.714433 1_555
In66 K11 3.813319 1_565
In66 K19 4.009029 1_555
In66 K0 4.196092 1_565
In67 In78 3.114130 1_555
In67 K23 3.563305 1_555
In67 K22 3.640911 1_555
In67 K4 4.085764 1_455
In68 Zn11 2.865126 1_555
In68 Zn9 2.865126 1_555
In68 In73 3.086121 1_555
In68 K12 3.666912 1_455
In68 K24 3.666912 1_455
In68 K17 3.878472 1_555
In68 K30 4.169632 1_555
In68 K13 4.169632 1_555
In69 In78 3.152460 1_555
In69 K22 3.651829 1_555
In69 K3 3.727488 1_555
In69 K23 3.727488 1_555
In69 K18 3.747502 1_555
In69 K20 3.747502 1_555
In70 In75 3.149745 1_555
In70 K15 3.785521 1_555
In70 K27 3.785521 1_555
In70 K32 3.806479 1_555
In70 K16 3.806479 1_555
In70 K1 3.822712 1_555
In71 Zn0 2.865126 1_555
In71 Zn8 2.865126 1_555
In71 K3 3.666912 1_565
In71 K33 3.666912 1_565
In71 K8 3.878472 1_555
In71 K31 4.169632 1_555
In71 K9 4.169632 1_555
In72 Zn11 2.918583 1_565
In72 Zn19 3.023884 1_565
In72 In84 3.226415 1_555
In72 K25 3.624263 1_555
In72 K29 3.627520 1_555
In72 K30 3.890601 1_565
In72 K31 3.906236 1_455
In73 K12 3.582568 1_455
In73 K24 3.582568 1_455
In73 K17 4.099545 1_555
In74 K14 3.628105 1_555
In74 K26 3.684144 1_555
In74 K31 4.038865 1_555
In75 K32 3.628105 1_555
In75 K1 3.684144 1_555
In75 K13 4.038865 1_555
In76 K10 3.628105 1_555
In76 K26 3.684144 1_555
In76 K9 4.038865 1_555
In77 Zn2 2.917014 1_545
In77 Zn15 2.917014 1_454
In77 Zn16 2.917014 1_455
In77 Zn5 2.917014 1_544
In77 Zn12 2.917014 1_445
In77 Zn4 2.917014 1_554
In77 K11 4.065478 1_455
In77 K6 4.065478 1_544
In77 K4 4.065478 1_454
In77 K2 4.065478 1_545
In77 K19 4.065478 1_445
In77 K21 4.065478 1_554
In78 Zn14 2.810257 1_556
In78 Zn4 2.911348 1_555
In78 K22 3.673557 1_555
In78 K23 3.714433 1_555
In78 K4 3.813319 1_455
In78 K21 4.009029 1_555
In78 K5 4.196092 1_455
In79 In9 3.086242 1_555
In79 In8 3.303976 1_545
In79 K7 3.582568 1_545
In79 K25 3.582568 1_545
In79 K17 4.099545 1_555
In80 Zn6 2.810257 1_565
In80 Zn2 2.911348 1_555
In80 In84 3.299414 1_555
In80 K32 3.673557 1_555
In80 K27 3.714433 1_555
In80 K6 3.813319 1_554
In80 K2 4.009029 1_555
In80 K9 4.196092 1_554
In81 K26 3.749203 1_555
In81 K28 3.753027 1_555
In81 K14 3.753027 1_555
In81 K24 3.770042 1_555
In81 K12 3.770042 1_555
In82 K1 3.749203 1_555
In82 K32 3.753027 1_555
In82 K22 3.753027 1_555
In82 K29 3.770042 1_555
In82 K23 3.770042 1_555
In83 K14 3.651829 1_555
In83 K7 3.727488 1_555
In83 K12 3.727488 1_555
In83 K27 3.747502 1_555
In83 K15 3.747502 1_555
In84 Zn19 2.810257 1_565
In84 Zn2 2.911348 1_555
In84 K32 3.673557 1_555
In84 K29 3.714433 1_555
In84 K19 3.813319 1_455
In84 K2 4.009029 1_555
In84 K31 4.196092 1_455
