# generated using pymatgen
data_ZrP2(H3O5)2
_symmetry_space_group_name_H-M   'P 1'
_cell_length_a   6.69722300
_cell_length_b   5.46575800
_cell_length_c   12.54046274
_cell_angle_alpha   80.58751974
_cell_angle_beta   90.00000000
_cell_angle_gamma   90.00000000
_symmetry_Int_Tables_number   1
_chemical_formula_structural   ZrP2(H3O5)2
_chemical_formula_sum   'Zr2 P4 H12 O20'
_cell_volume   452.86828413
_cell_formula_units_Z   2
loop_
 _symmetry_equiv_pos_site_id
 _symmetry_equiv_pos_as_xyz
  1  'x, y, z'
loop_
 _atom_site_type_symbol
 _atom_site_label
 _atom_site_symmetry_multiplicity
 _atom_site_fract_x
 _atom_site_fract_y
 _atom_site_fract_z
 _atom_site_occupancy
  Zr  Zr0  1  0.24720700  0.80239100  0.87325600  1
  Zr  Zr1  1  0.74720700  0.19760900  0.12674400  1
  P  P0  1  0.24695000  0.24140200  0.05856300  1
  P  P1  1  0.74695000  0.75859800  0.94143700  1
  P  P2  1  0.32494900  0.35417100  0.69515000  1
  P  P3  1  0.82494900  0.64582900  0.30485000  1
  H  H0  1  0.64023400  0.49797000  0.67547000  1
  H  H1  1  0.14023400  0.50203000  0.32453000  1
  H  H2  1  0.28086000  0.60235800  0.54727100  1
  H  H3  1  0.78086000  0.39764200  0.45272900  1
  H  H4  1  0.30814600  0.15438800  0.29731900  1
  H  H5  1  0.80814600  0.84561200  0.70268100  1
  H  H6  1  0.34556000  0.95208800  0.60060600  1
  H  H7  1  0.84556000  0.04791200  0.39939400  1
  H  H8  1  0.16037200  0.14429900  0.39855400  1
  H  H9  1  0.66037200  0.85570100  0.60144600  1
  H  H10  1  0.90570900  0.99888700  0.52312900  1
  H  H11  1  0.40570900  0.00111300  0.47687100  1
  O  O0  1  0.24918400  0.06717400  0.97308900  1
  O  O1  1  0.74918400  0.93282600  0.02691100  1
  O  O2  1  0.43168000  0.19265500  0.13348500  1
  O  O3  1  0.93168000  0.80734500  0.86651500  1
  O  O4  1  0.05985400  0.19486800  0.12986800  1
  O  O5  1  0.55985400  0.80513200  0.87013200  1
  O  O6  1  0.24897600  0.51256600  0.99975100  1
  O  O7  1  0.74897600  0.48743400  0.00024900  1
  O  O8  1  0.25584800  0.08592900  0.72924400  1
  O  O9  1  0.75584800  0.91407100  0.27075600  1
  O  O10  1  0.25712500  0.54000400  0.76588300  1
  O  O11  1  0.75712500  0.45999600  0.23411700  1
  O  O12  1  0.56056800  0.34126000  0.69106900  1
  O  O13  1  0.06056800  0.65874000  0.30893100  1
  O  O14  1  0.23493000  0.43135300  0.57820000  1
  O  O15  1  0.73493000  0.56864700  0.42180000  1
  O  O16  1  0.28643300  0.21702300  0.36529400  1
  O  O17  1  0.78643300  0.78297700  0.63470600  1
  O  O18  1  0.91641700  0.12114600  0.45570400  1
  O  O19  1  0.41641700  0.87885400  0.54429600  1
loop_
_geom_bond_atom_site_label_1
_geom_bond_atom_site_label_2
_geom_bond_distance
_geom_bond_site_symmetry_2
H0 O12 1.000893 1_555
H1 O13 1.000893 1_555
H2 O14 1.000047 1_555
H3 O15 1.000047 1_555
H4 O16 0.980026 1_555
H5 O17 0.980026 1_555
H6 O19 0.988191 1_555
H7 O18 0.988191 1_555
H8 O16 0.995246 1_555
H9 O17 0.995246 1_555
H10 O18 0.990866 1_565
H11 O19 0.990866 1_545
O0 P0 1.545923 1_556
O0 Zr0 2.062691 1_545
O1 P1 1.545923 1_554
O1 Zr1 2.062691 1_565
O2 P0 1.549995 1_555
O2 Zr1 2.114841 1_555
O3 P1 1.549995 1_555
O3 Zr0 2.114841 1_655
O4 P0 1.536216 1_555
O4 Zr1 2.094241 1_455
O5 P1 1.536216 1_555
O5 Zr0 2.094241 1_555
O6 P0 1.543784 1_556
O6 Zr0 2.050366 1_555
O7 P1 1.543784 1_554
O7 Zr1 2.050366 1_555
O8 P2 1.530204 1_555
O8 Zr0 2.179722 1_545
O9 P3 1.530204 1_555
O9 Zr1 2.179722 1_565
O10 P2 1.522995 1_555
O10 Zr0 2.122707 1_555
O11 P3 1.522995 1_555
O11 Zr1 2.122707 1_555
O12 P2 1.580773 1_555
O13 P3 1.580773 1_455
O14 P2 1.577972 1_555
O15 P3 1.577972 1_555
