# generated using pymatgen
data_Nb5Ni
_symmetry_space_group_name_H-M   'P 1'
_cell_length_a   8.43582774
_cell_length_b   8.43582774
_cell_length_c   8.43582774
_cell_angle_alpha   60.00000000
_cell_angle_beta   60.00000000
_cell_angle_gamma   60.00000000
_symmetry_Int_Tables_number   1
_chemical_formula_structural   Nb5Ni
_chemical_formula_sum   'Nb20 Ni4'
_cell_volume   424.49063239
_cell_formula_units_Z   4
loop_
 _symmetry_equiv_pos_site_id
 _symmetry_equiv_pos_as_xyz
  1  'x, y, z'
loop_
 _atom_site_type_symbol
 _atom_site_label
 _atom_site_symmetry_multiplicity
 _atom_site_fract_x
 _atom_site_fract_y
 _atom_site_fract_z
 _atom_site_occupancy
  Nb  Nb0  1  0.33944800  0.98165500  0.33944800  1
  Nb  Nb1  1  0.31555100  0.31555100  0.68444900  1
  Nb  Nb2  1  0.33944800  0.33944800  0.98165500  1
  Nb  Nb3  1  0.93444900  0.93444900  0.56555100  1
  Nb  Nb4  1  0.91055200  0.26834500  0.91055200  1
  Nb  Nb5  1  0.56555100  0.93444900  0.56555100  1
  Nb  Nb6  1  0.93444900  0.56555100  0.93444900  1
  Nb  Nb7  1  0.91055200  0.91055200  0.26834500  1
  Nb  Nb8  1  0.98165500  0.33944800  0.33944800  1
  Nb  Nb9  1  0.91055200  0.91055200  0.91055200  1
  Nb  Nb10  1  0.93444900  0.56555100  0.56555100  1
  Nb  Nb11  1  0.56555100  0.93444900  0.93444900  1
  Nb  Nb12  1  0.68444900  0.31555100  0.31555100  1
  Nb  Nb13  1  0.31555100  0.68444900  0.31555100  1
  Nb  Nb14  1  0.56555100  0.56555100  0.93444900  1
  Nb  Nb15  1  0.26834500  0.91055200  0.91055200  1
  Nb  Nb16  1  0.33944800  0.33944800  0.33944800  1
  Nb  Nb17  1  0.68444900  0.31555100  0.68444900  1
  Nb  Nb18  1  0.68444900  0.68444900  0.31555100  1
  Nb  Nb19  1  0.31555100  0.68444900  0.68444900  1
  Ni  Ni0  1  0.12500000  0.12500000  0.62500000  1
  Ni  Ni1  1  0.12500000  0.62500000  0.12500000  1
  Ni  Ni2  1  0.12500000  0.12500000  0.12500000  1
  Ni  Ni3  1  0.62500000  0.12500000  0.12500000  1
loop_
_geom_bond_atom_site_label_1
_geom_bond_atom_site_label_2
_geom_bond_distance
_geom_bond_site_symmetry_2
Nb0 Ni2 2.627751 1_565
Nb0 Ni3 2.627757 1_565
Nb0 Ni0 2.627757 1_565
Nb0 Nb13 2.723731 1_555
Nb0 Nb18 2.723736 1_555
Nb0 Nb19 2.723736 1_555
Nb0 Nb3 3.090884 1_455
Nb0 Nb11 3.090884 1_554
Nb0 Nb5 3.090891 1_555
Nb1 Nb2 2.723731 1_555
Nb1 Nb16 2.723739 1_555
Nb1 Nb4 3.090884 1_455
Nb1 Nb15 3.090884 1_545
Nb1 Ni0 3.100891 1_555
Nb1 Ni2 3.100891 1_556
Nb1 Nb17 3.111960 1_555
Nb1 Nb12 3.111960 1_555
Nb1 Nb19 3.111960 1_555
Nb1 Nb13 3.111960 1_555
Nb1 Nb5 3.180964 1_545
Nb1 Nb6 3.180964 1_455
Nb1 Nb10 3.180964 1_455
Nb1 Nb11 3.180964 1_545
Nb2 Ni2 2.627751 1_556
Nb2 Ni1 2.627757 1_556
Nb2 Ni3 2.627757 1_556
Nb2 Nb6 3.090884 1_455
Nb3 Nb7 2.723731 1_555
Nb3 Nb9 2.723739 1_555
Nb3 Nb8 3.090884 1_565
Nb3 Ni2 3.100891 1_665
Nb3 Ni0 3.100891 1_665
Nb3 Nb5 3.111960 1_555
Nb3 Nb6 3.111960 1_555
Nb4 Ni2 2.627751 1_656
Nb4 Ni3 2.627757 1_556
Nb4 Ni0 2.627757 1_655
Nb4 Nb6 2.723731 1_555
Nb5 Nb7 2.723736 1_555
Nb5 Ni3 3.100891 1_565
Nb5 Ni0 3.100891 1_565
Nb6 Nb9 2.723739 1_555
Nb6 Nb8 3.090884 1_556
Nb6 Ni1 3.100891 1_656
Nb6 Ni2 3.100891 1_656
Nb7 Ni2 2.627751 1_665
Nb7 Ni1 2.627757 1_655
Nb7 Ni3 2.627757 1_565
Nb8 Ni2 2.627751 1_655
Nb8 Ni1 2.627757 1_655
Nb8 Ni0 2.627757 1_655
Nb9 Ni0 2.627752 1_665
Nb9 Ni1 2.627752 1_656
Nb9 Ni3 2.627752 1_566
Nb10 Nb7 2.723736 1_555
Nb10 Nb4 2.723736 1_555
Nb10 Nb16 3.090887 1_655
Nb10 Nb8 3.090891 1_555
Nb10 Ni1 3.100891 1_655
Nb10 Ni0 3.100891 1_655
Nb10 Nb5 3.111960 1_555
Nb10 Nb6 3.111960 1_555
Nb10 Nb3 3.111960 1_555
Nb10 Nb14 3.111960 1_555
Nb10 Nb17 3.180964 1_555
Nb10 Nb18 3.180964 1_555
Nb10 Nb13 3.180964 1_655
Nb11 Nb15 2.723731 1_555
Nb11 Nb9 2.723739 1_555
Nb11 Nb2 3.090884 1_565
Nb11 Ni2 3.100891 1_566
Nb11 Ni3 3.100891 1_566
Nb11 Nb5 3.111960 1_555
Nb11 Nb6 3.111960 1_555
Nb11 Nb3 3.111960 1_555
Nb11 Nb14 3.111960 1_555
Nb11 Nb13 3.180964 1_556
Nb11 Nb18 3.180964 1_556
Nb11 Nb17 3.180964 1_565
Nb12 Nb8 2.723731 1_555
Nb12 Nb16 2.723739 1_555
Nb12 Nb7 3.090884 1_545
Nb12 Nb4 3.090884 1_554
Nb12 Ni2 3.100891 1_655
Nb12 Ni3 3.100891 1_555
Nb12 Nb17 3.111960 1_555
Nb12 Nb13 3.111960 1_555
Nb12 Nb18 3.111960 1_555
Nb12 Nb5 3.180964 1_545
Nb12 Nb14 3.180964 1_554
Nb12 Nb3 3.180964 1_545
Nb12 Nb6 3.180964 1_554
Nb13 Nb16 2.723739 1_555
Nb13 Nb7 3.090884 1_455
Nb13 Nb15 3.090884 1_554
Nb13 Ni2 3.100891 1_565
Nb13 Ni1 3.100891 1_555
Nb13 Nb19 3.111960 1_555
Nb13 Nb18 3.111960 1_555
Nb13 Nb3 3.180964 1_455
Nb13 Nb14 3.180964 1_554
Nb14 Nb15 2.723736 1_555
Nb14 Nb4 2.723736 1_555
Nb14 Nb16 3.090887 1_556
Nb14 Nb2 3.090891 1_555
Nb14 Ni3 3.100891 1_556
Nb14 Ni1 3.100891 1_556
Nb14 Nb5 3.111960 1_555
Nb14 Nb6 3.111960 1_555
Nb14 Nb17 3.180964 1_555
Nb14 Nb19 3.180964 1_555
Nb15 Ni2 2.627751 1_566
Nb15 Ni0 2.627757 1_565
Nb15 Ni1 2.627757 1_556
Nb15 Nb5 2.723736 1_555
Nb15 Nb19 3.090891 1_555
Nb16 Ni1 2.627752 1_555
Nb16 Ni0 2.627752 1_555
Nb16 Ni3 2.627752 1_555
Nb16 Nb5 3.090887 1_545
Nb17 Nb2 2.723736 1_555
Nb17 Nb8 2.723736 1_555
Nb17 Nb9 3.090887 1_545
Nb17 Nb4 3.090891 1_555
Nb17 Ni3 3.100891 1_556
Nb17 Ni0 3.100891 1_655
Nb17 Nb19 3.111960 1_555
Nb17 Nb18 3.111960 1_555
Nb17 Nb3 3.180964 1_545
Nb18 Nb8 2.723736 1_555
Nb18 Nb9 3.090887 1_554
Nb18 Nb7 3.090891 1_555
Nb18 Ni1 3.100891 1_655
Nb18 Ni3 3.100891 1_565
Nb18 Nb19 3.111960 1_555
Nb18 Nb5 3.180964 1_555
Nb18 Nb6 3.180964 1_554
Nb19 Nb2 2.723736 1_555
Nb19 Nb9 3.090887 1_455
Nb19 Ni0 3.100891 1_565
Nb19 Ni1 3.100891 1_556
Nb19 Nb5 3.180964 1_555
Nb19 Nb3 3.180964 1_455
Nb19 Nb6 3.180964 1_455
