# generated using pymatgen
data_Ba2Zn(HO)6
_symmetry_space_group_name_H-M   'P 1'
_cell_length_a   5.91695500
_cell_length_b   9.45233200
_cell_length_c   12.95657949
_cell_angle_alpha   48.74529717
_cell_angle_beta   90.00000000
_cell_angle_gamma   90.00000000
_symmetry_Int_Tables_number   1
_chemical_formula_structural   Ba2Zn(HO)6
_chemical_formula_sum   'Ba4 Zn2 H12 O12'
_cell_volume   544.78062036
_cell_formula_units_Z   2
loop_
 _symmetry_equiv_pos_site_id
 _symmetry_equiv_pos_as_xyz
  1  'x, y, z'
loop_
 _atom_site_type_symbol
 _atom_site_label
 _atom_site_symmetry_multiplicity
 _atom_site_fract_x
 _atom_site_fract_y
 _atom_site_fract_z
 _atom_site_occupancy
  Ba  Ba0  1  0.51307800  0.71871100  0.99103200  1
  Ba  Ba1  1  0.98692200  0.71871100  0.49103200  1
  Ba  Ba2  1  0.48692200  0.28128900  0.00896800  1
  Ba  Ba3  1  0.01307800  0.28128900  0.50896800  1
  Zn  Zn0  1  0.50000000  0.50000000  0.50000000  1
  Zn  Zn1  1  0.00000000  0.50000000  0.00000000  1
  H  H0  1  0.64176900  0.09929900  0.48079800  1
  H  H1  1  0.85823100  0.09929900  0.98079800  1
  H  H2  1  0.35823100  0.90070100  0.51920200  1
  H  H3  1  0.14176900  0.90070100  0.01920200  1
  H  H4  1  0.30343800  0.91895600  0.56274000  1
  H  H5  1  0.19656200  0.91895600  0.06274000  1
  H  H6  1  0.69656200  0.08104400  0.43726000  1
  H  H7  1  0.80343800  0.08104400  0.93726000  1
  H  H8  1  0.28865900  0.95749700  0.73389500  1
  H  H9  1  0.21134100  0.95749700  0.23389500  1
  H  H10  1  0.71134100  0.04250300  0.26610500  1
  H  H11  1  0.78865900  0.04250300  0.76610500  1
  O  O0  1  0.65416700  0.92655100  0.28883000  1
  O  O1  1  0.84583300  0.92655100  0.78883000  1
  O  O2  1  0.34583300  0.07344900  0.71117000  1
  O  O3  1  0.15416700  0.07344900  0.21117000  1
  O  O4  1  0.05448300  0.17590800  0.07124600  1
  O  O5  1  0.44551700  0.17590800  0.57124600  1
  O  O6  1  0.94551700  0.82409200  0.92875400  1
  O  O7  1  0.55448300  0.82409200  0.42875400  1
  O  O8  1  0.22171000  0.57206200  0.42119200  1
  O  O9  1  0.27829000  0.57206200  0.92119200  1
  O  O10  1  0.77829000  0.42793800  0.57880800  1
  O  O11  1  0.72171000  0.42793800  0.07880800  1
loop_
_geom_bond_atom_site_label_1
_geom_bond_atom_site_label_2
_geom_bond_distance
_geom_bond_site_symmetry_2
Ba0 O11 2.499826 1_556
Ba0 O9 2.514855 1_555
Ba0 O6 2.670273 1_555
Ba0 O1 2.794980 1_555
Ba0 H8 2.835526 1_555
Ba0 H3 2.957589 1_556
Ba1 O10 2.499826 1_555
Ba1 O8 2.514855 1_655
Ba1 O7 2.670273 1_555
Ba1 O0 2.794980 1_555
Ba1 H9 2.835526 1_655
Ba1 H2 2.957589 1_655
Ba2 O9 2.499826 1_554
Ba2 O11 2.514855 1_555
Ba2 O4 2.670273 1_555
Ba2 O3 2.794980 1_555
Ba2 H10 2.835526 1_555
Ba2 H1 2.957589 1_554
Ba3 O8 2.499826 1_555
Ba3 O10 2.514855 1_455
Ba3 O5 2.670273 1_555
Ba3 O2 2.794980 1_555
Ba3 H11 2.835526 1_455
Ba3 H0 2.957589 1_455
H0 H6 0.762540 1_555
H1 H7 0.762540 1_555
H2 H4 0.762540 1_555
H3 H5 0.762540 1_555
H8 O2 0.988330 1_565
H9 O3 0.988330 1_565
H10 O0 0.988330 1_545
H11 O1 0.988330 1_545
O0 O7 1.502339 1_555
O1 O6 1.502339 1_555
O2 O5 1.502339 1_555
O3 O4 1.502339 1_555
O4 Zn1 2.571224 1_555
O5 Zn0 2.571224 1_555
O6 Zn1 2.571224 1_656
O7 Zn0 2.571224 1_555
O8 Zn0 1.816787 1_555
O9 Zn1 1.816787 1_556
O10 Zn0 1.816787 1_555
O11 Zn1 1.816787 1_655
