# generated using pymatgen
data_MgZr4O9
_symmetry_space_group_name_H-M   'P 1'
_cell_length_a   16.35326162
_cell_length_b   16.35326162
_cell_length_c   6.07601460
_cell_angle_alpha   88.40946078
_cell_angle_beta   88.40946078
_cell_angle_gamma   12.16371366
_symmetry_Int_Tables_number   1
_chemical_formula_structural   MgZr4O9
_chemical_formula_sum   'Mg2 Zr8 O18'
_cell_volume   342.24308723
_cell_formula_units_Z   2
loop_
 _symmetry_equiv_pos_site_id
 _symmetry_equiv_pos_as_xyz
  1  'x, y, z'
loop_
 _atom_site_type_symbol
 _atom_site_label
 _atom_site_symmetry_multiplicity
 _atom_site_fract_x
 _atom_site_fract_y
 _atom_site_fract_z
 _atom_site_occupancy
  Mg  Mg0  1  0.00000000  0.00000000  0.50000000  1
  Mg  Mg1  1  0.50000000  0.50000000  0.00000000  1
  Zr  Zr0  1  0.42011700  0.42011700  0.68800100  1
  Zr  Zr1  1  0.89994900  0.89994900  0.18778400  1
  Zr  Zr2  1  0.57988300  0.57988300  0.31199900  1
  Zr  Zr3  1  0.20603000  0.20603000  0.11117600  1
  Zr  Zr4  1  0.10005100  0.10005100  0.81221600  1
  Zr  Zr5  1  0.79397000  0.79397000  0.88882400  1
  Zr  Zr6  1  0.68825500  0.68825500  0.59628900  1
  Zr  Zr7  1  0.31174500  0.31174500  0.40371100  1
  O  O0  1  0.93861400  0.93861400  0.45995700  1
  O  O1  1  0.51691900  0.51691900  0.29660700  1
  O  O2  1  0.43467600  0.43467600  0.06687000  1
  O  O3  1  0.10571900  0.10571900  0.16675700  1
  O  O4  1  0.56532400  0.56532400  0.93313000  1
  O  O5  1  0.72900300  0.72900300  0.87911700  1
  O  O6  1  0.48308100  0.48308100  0.70339300  1
  O  O7  1  0.62317800  0.62317800  0.59568000  1
  O  O8  1  0.32122600  0.32122600  0.76393600  1
  O  O9  1  0.06138600  0.06138600  0.54004300  1
  O  O10  1  0.16558700  0.16558700  0.82825500  1
  O  O11  1  0.21512100  0.21512100  0.47036900  1
  O  O12  1  0.83441300  0.83441300  0.17174500  1
  O  O13  1  0.78487900  0.78487900  0.52963100  1
  O  O14  1  0.67877400  0.67877400  0.23606400  1
  O  O15  1  0.37682200  0.37682200  0.40432000  1
  O  O16  1  0.27099700  0.27099700  0.12088300  1
  O  O17  1  0.89428100  0.89428100  0.83324300  1
loop_
_geom_bond_atom_site_label_1
_geom_bond_atom_site_label_2
_geom_bond_distance
_geom_bond_site_symmetry_2
Mg0 O9 2.017923 1_555
Mg0 O0 2.017923 1_445
Mg0 O6 2.189523 1_545
Mg0 O6 2.189523 1_455
Mg0 O1 2.189523 1_545
Mg0 O1 2.189523 1_455
Mg1 O6 1.898951 1_554
Mg1 O1 1.898951 1_555
Mg1 O2 2.151830 1_555
Mg1 O4 2.151830 1_554
O0 Zr1 2.105271 1_555
O0 Zr0 2.288490 1_565
O0 Zr0 2.288490 1_655
O1 Zr2 2.052483 1_555
O2 Zr1 2.184248 1_545
O2 Zr1 2.184248 1_455
O2 Zr0 2.363115 1_554
O3 Zr2 2.108405 1_545
O3 Zr2 2.108405 1_455
O3 Zr4 2.167190 1_554
O4 Zr4 2.184248 1_565
O4 Zr4 2.184248 1_655
O4 Zr2 2.363115 1_556
O5 Zr5 2.115353 1_555
O5 Zr6 2.199201 1_555
O5 Zr3 2.342956 1_566
O5 Zr3 2.342956 1_656
O6 Zr0 2.052483 1_555
O7 Zr6 2.116569 1_555
O7 Zr2 2.255902 1_555
O7 Zr4 2.289855 1_565
O7 Zr4 2.289855 1_655
O8 Zr5 2.079897 1_545
O8 Zr5 2.079897 1_455
O8 Zr7 2.218852 1_555
O9 Zr4 2.105271 1_555
O9 Zr2 2.288490 1_545
O9 Zr2 2.288490 1_455
O10 Zr4 2.136333 1_555
O10 Zr3 2.193474 1_556
O10 Zr6 2.339643 1_545
O10 Zr6 2.339643 1_455
O11 Zr6 2.076881 1_545
O11 Zr6 2.076881 1_455
O11 Zr3 2.210561 1_555
O12 Zr1 2.136333 1_555
O12 Zr5 2.193474 1_554
O12 Zr7 2.339643 1_565
O12 Zr7 2.339643 1_655
O13 Zr7 2.076881 1_565
O13 Zr7 2.076881 1_655
O13 Zr5 2.210561 1_555
O14 Zr3 2.079897 1_565
O14 Zr3 2.079897 1_655
O14 Zr6 2.218852 1_555
O15 Zr7 2.116569 1_555
O15 Zr0 2.255902 1_555
O15 Zr1 2.289855 1_455
O15 Zr1 2.289855 1_545
O16 Zr3 2.115353 1_555
O16 Zr7 2.199201 1_555
O16 Zr5 2.342956 1_544
O16 Zr5 2.342956 1_454
O17 Zr0 2.108405 1_565
O17 Zr0 2.108405 1_655
O17 Zr1 2.167190 1_556
