# generated using pymatgen
data_MgSiO3
_symmetry_space_group_name_H-M   'P 1'
_cell_length_a   6.65957922
_cell_length_b   6.65957922
_cell_length_c   5.30712991
_cell_angle_alpha   73.13843529
_cell_angle_beta   73.13843529
_cell_angle_gamma   81.75693793
_symmetry_Int_Tables_number   1
_chemical_formula_structural   MgSiO3
_chemical_formula_sum   'Mg4 Si4 O12'
_cell_volume   215.11685794
_cell_formula_units_Z   4
loop_
 _symmetry_equiv_pos_site_id
 _symmetry_equiv_pos_as_xyz
  1  'x, y, z'
loop_
 _atom_site_type_symbol
 _atom_site_label
 _atom_site_symmetry_multiplicity
 _atom_site_fract_x
 _atom_site_fract_y
 _atom_site_fract_z
 _atom_site_occupancy
  Mg  Mg0  1  0.26166282  0.73833718  0.25000000  1
  Mg  Mg1  1  0.90169822  0.09830178  0.25000000  1
  Mg  Mg2  1  0.73833718  0.26166282  0.75000000  1
  Mg  Mg3  1  0.09830178  0.90169822  0.75000000  1
  Si  Si0  1  0.61806000  0.79806019  0.79725210  1
  Si  Si1  1  0.20193981  0.38194000  0.70274790  1
  Si  Si2  1  0.79806019  0.61806000  0.29725210  1
  Si  Si3  1  0.38194000  0.20193981  0.20274790  1
  O  O0  1  0.68178302  0.62113230  0.61963112  1
  O  O1  1  0.62113230  0.68178302  0.11963112  1
  O  O2  1  0.86943357  0.37451478  0.34153377  1
  O  O3  1  0.62548522  0.13056643  0.15846623  1
  O  O4  1  0.31821698  0.37886770  0.38036888  1
  O  O5  1  0.78894003  0.97438554  0.66501400  1
  O  O6  1  0.37886770  0.31821698  0.88036888  1
  O  O7  1  0.21105997  0.02561446  0.33498600  1
  O  O8  1  0.37451478  0.86943357  0.84153377  1
  O  O9  1  0.13056643  0.62548522  0.65846623  1
  O  O10  1  0.97438554  0.78894003  0.16501400  1
  O  O11  1  0.02561446  0.21105997  0.83498600  1
loop_
_geom_bond_atom_site_label_1
_geom_bond_atom_site_label_2
_geom_bond_distance
_geom_bond_site_symmetry_2
Mg0 O8 2.042404 1_554
Mg0 O9 2.042404 1_555
Mg0 O7 2.050526 1_565
Mg0 O10 2.050526 1_455
Mg0 O1 2.298512 1_555
Mg0 O4 2.298512 1_555
Mg1 O2 2.002566 1_555
Mg1 O3 2.002566 1_555
Mg1 O11 2.063935 1_654
Mg1 O5 2.063935 1_545
Mg1 O7 2.192873 1_655
Mg1 O10 2.192873 1_545
Mg2 O3 2.042404 1_556
Mg2 O2 2.042404 1_555
Mg2 O11 2.050526 1_655
Mg2 O5 2.050526 1_545
Mg2 O0 2.298512 1_555
Mg2 O6 2.298512 1_555
Mg3 O8 2.002566 1_555
Mg3 O9 2.002566 1_555
Mg3 O7 2.063935 1_565
Mg3 O10 2.063935 1_456
Mg3 O5 2.192873 1_455
Mg3 O11 2.192873 1_565
O0 Si0 1.651029 1_555
O0 Si2 1.665665 1_555
O1 Si2 1.651029 1_555
O1 Si0 1.665665 1_554
O2 Si2 1.591969 1_555
O3 Si3 1.591969 1_555
O4 Si3 1.651029 1_555
O4 Si1 1.665665 1_555
O5 Si0 1.614994 1_555
O6 Si1 1.651029 1_555
O6 Si3 1.665665 1_556
O7 Si3 1.614994 1_555
O8 Si0 1.591969 1_555
O9 Si1 1.591969 1_555
O10 Si2 1.614994 1_555
O11 Si1 1.614994 1_555
