# generated using pymatgen
data_La2NiO4
_symmetry_space_group_name_H-M   'P 1'
_cell_length_a   7.07748515
_cell_length_b   7.07748515
_cell_length_c   7.34320200
_cell_angle_alpha   90.00000000
_cell_angle_beta   90.00000000
_cell_angle_gamma   147.46324480
_symmetry_Int_Tables_number   1
_chemical_formula_structural   La2NiO4
_chemical_formula_sum   'La4 Ni2 O8'
_cell_volume   197.83218033
_cell_formula_units_Z   2
loop_
 _symmetry_equiv_pos_site_id
 _symmetry_equiv_pos_as_xyz
  1  'x, y, z'
loop_
 _atom_site_type_symbol
 _atom_site_label
 _atom_site_symmetry_multiplicity
 _atom_site_fract_x
 _atom_site_fract_y
 _atom_site_fract_z
 _atom_site_occupancy
  La  La0  1  0.28362300  0.71637700  0.14443200  1
  La  La1  1  0.71637700  0.28362300  0.64443200  1
  La  La2  1  0.05306300  0.94693700  0.34774900  1
  La  La3  1  0.94693700  0.05306300  0.84774900  1
  Ni  Ni0  1  0.60954000  0.39046000  0.03720800  1
  Ni  Ni1  1  0.39046000  0.60954000  0.53720800  1
  O  O0  1  0.54320100  0.45679900  0.63569000  1
  O  O1  1  0.76619500  0.23380500  0.98330800  1
  O  O2  1  0.35348600  0.64651400  0.79253100  1
  O  O3  1  0.23380500  0.76619500  0.48330800  1
  O  O4  1  0.64651400  0.35348600  0.29253100  1
  O  O5  1  0.89759400  0.10240600  0.49638200  1
  O  O6  1  0.45679900  0.54320100  0.13569000  1
  O  O7  1  0.10240600  0.89759400  0.99638200  1
loop_
_geom_bond_atom_site_label_1
_geom_bond_atom_site_label_2
_geom_bond_distance
_geom_bond_site_symmetry_2
La0 O1 2.320975 1_564
La0 O1 2.320975 1_454
La0 O6 2.354027 1_555
La0 O3 2.578866 1_555
La0 O7 2.691728 1_554
La0 O2 2.752938 1_554
La0 O4 2.929962 1_565
La0 O4 2.929962 1_455
La1 O3 2.320975 1_655
La1 O3 2.320975 1_545
La1 O0 2.354027 1_555
La1 O1 2.578866 1_555
La1 O5 2.691728 1_555
La1 O4 2.752938 1_555
La1 O2 2.929962 1_655
La1 O2 2.929962 1_545
La2 O5 2.377833 1_465
La2 O4 2.389109 1_565
La2 O4 2.389109 1_455
La2 O3 2.650025 1_555
La2 O7 2.665852 1_554
La2 O6 2.840214 1_565
La2 O6 2.840214 1_455
La2 O0 2.901662 1_565
La2 O0 2.901662 1_455
La3 O7 2.377833 1_645
La3 O2 2.389109 1_655
La3 O2 2.389109 1_545
La3 O1 2.650025 1_555
La3 O5 2.665852 1_555
La3 O0 2.840214 1_655
La3 O0 2.840214 1_545
La3 O6 2.901662 1_656
La3 O6 2.901662 1_546
Ni0 O4 1.941036 1_555
Ni0 O7 2.007544 1_654
Ni0 O7 2.007544 1_544
Ni0 O1 2.165145 1_554
Ni0 O6 2.197858 1_555
Ni1 O2 1.941036 1_555
Ni1 O5 2.007544 1_565
Ni1 O5 2.007544 1_455
Ni1 O3 2.165145 1_555
Ni1 O0 2.197858 1_555
