# generated using pymatgen
data_Mo(HO2)2
_symmetry_space_group_name_H-M   'P 1'
_cell_length_a   3.77266400
_cell_length_b   6.74895176
_cell_length_c   7.64462769
_cell_angle_alpha   64.43915926
_cell_angle_beta   77.90872186
_cell_angle_gamma   75.72137961
_symmetry_Int_Tables_number   1
_chemical_formula_structural   Mo(HO2)2
_chemical_formula_sum   'Mo2 H4 O8'
_cell_volume   168.98282487
_cell_formula_units_Z   2
loop_
 _symmetry_equiv_pos_site_id
 _symmetry_equiv_pos_as_xyz
  1  'x, y, z'
loop_
 _atom_site_type_symbol
 _atom_site_label
 _atom_site_symmetry_multiplicity
 _atom_site_fract_x
 _atom_site_fract_y
 _atom_site_fract_z
 _atom_site_occupancy
  Mo  Mo0  1  0.26961000  0.15571400  0.79475200  1
  Mo  Mo1  1  0.74036200  0.83281300  0.20175400  1
  H  H0  1  0.50441700  0.21459500  0.32365000  1
  H  H1  1  0.50781800  0.77517200  0.67180900  1
  H  H2  1  0.27452200  0.68377800  0.87800900  1
  H  H3  1  0.76226800  0.29729500  0.12442400  1
  O  O0  1  0.34485700  0.25370100  0.54202800  1
  O  O1  1  0.66254800  0.73622500  0.45430300  1
  O  O2  1  0.23488000  0.92190800  0.12547000  1
  O  O3  1  0.77475900  0.06633300  0.87158000  1
  O  O4  1  0.13296100  0.39644200  0.83747800  1
  O  O5  1  0.87914900  0.59062700  0.16156700  1
  O  O6  1  0.42097700  0.79951500  0.79373000  1
  O  O7  1  0.59640500  0.19034000  0.20199800  1
loop_
_geom_bond_atom_site_label_1
_geom_bond_atom_site_label_2
_geom_bond_distance
_geom_bond_site_symmetry_2
Mo0 O4 1.728066 1_555
Mo0 O0 1.735161 1_555
Mo0 O3 1.984151 1_555
Mo0 O3 1.996145 1_455
Mo0 O2 2.327996 1_546
Mo0 O6 2.332897 1_545
Mo1 O5 1.727398 1_555
Mo1 O1 1.734768 1_555
Mo1 O2 1.983940 1_555
Mo1 O2 1.994307 1_655
Mo1 O3 2.324320 1_564
Mo1 O7 2.339710 1_565
H0 O7 0.990071 1_555
H1 O6 0.990297 1_555
H2 O6 0.979788 1_555
H3 O7 0.980933 1_555
