# generated using pymatgen
data_YbMgNiH4
_symmetry_space_group_name_H-M   'P 1'
_cell_length_a   6.62761300
_cell_length_b   6.62761300
_cell_length_c   6.62761300
_cell_angle_alpha   90.00000000
_cell_angle_beta   90.00000000
_cell_angle_gamma   90.00000000
_symmetry_Int_Tables_number   1
_chemical_formula_structural   YbMgNiH4
_chemical_formula_sum   'Yb4 Mg4 Ni4 H16'
_cell_volume   291.11958495
_cell_formula_units_Z   4
loop_
 _symmetry_equiv_pos_site_id
 _symmetry_equiv_pos_as_xyz
  1  'x, y, z'
loop_
 _atom_site_type_symbol
 _atom_site_label
 _atom_site_symmetry_multiplicity
 _atom_site_fract_x
 _atom_site_fract_y
 _atom_site_fract_z
 _atom_site_occupancy
  Yb  Yb0  1  0.16583400  0.66583400  0.83416600  1
  Yb  Yb1  1  0.66583400  0.83416600  0.16583400  1
  Yb  Yb2  1  0.83416600  0.16583400  0.66583400  1
  Yb  Yb3  1  0.33416600  0.33416600  0.33416600  1
  Mg  Mg0  1  0.84139200  0.34139200  0.15860800  1
  Mg  Mg1  1  0.34139200  0.15860800  0.84139200  1
  Mg  Mg2  1  0.15860800  0.84139200  0.34139200  1
  Mg  Mg3  1  0.65860800  0.65860800  0.65860800  1
  Ni  Ni0  1  0.45396300  0.95396300  0.54603700  1
  Ni  Ni1  1  0.95396300  0.54603700  0.45396300  1
  Ni  Ni2  1  0.54603700  0.45396300  0.95396300  1
  Ni  Ni3  1  0.04603700  0.04603700  0.04603700  1
  H  H0  1  0.59128100  0.09128100  0.40871900  1
  H  H1  1  0.09128100  0.40871900  0.59128100  1
  H  H2  1  0.40871900  0.59128100  0.09128100  1
  H  H3  1  0.90871900  0.90871900  0.90871900  1
  H  H4  1  0.26455900  0.94723300  0.06341900  1
  H  H5  1  0.93658100  0.76455900  0.55276700  1
  H  H6  1  0.44723300  0.43658100  0.73544100  1
  H  H7  1  0.76455900  0.55276700  0.93658100  1
  H  H8  1  0.43658100  0.73544100  0.44723300  1
  H  H9  1  0.94723300  0.06341900  0.26455900  1
  H  H10  1  0.73544100  0.44723300  0.43658100  1
  H  H11  1  0.06341900  0.26455900  0.94723300  1
  H  H12  1  0.55276700  0.93658100  0.76455900  1
  H  H13  1  0.23544100  0.05276700  0.56341900  1
  H  H14  1  0.56341900  0.23544100  0.05276700  1
  H  H15  1  0.05276700  0.56341900  0.23544100  1
loop_
_geom_bond_atom_site_label_1
_geom_bond_atom_site_label_2
_geom_bond_distance
_geom_bond_site_symmetry_2
H0 Ni0 1.576323 1_545
H0 Yb3 2.395673 1_555
H0 Yb1 2.395673 1_545
H0 Yb2 2.395673 1_555
H1 Ni1 1.576323 1_455
H1 Yb3 2.395673 1_555
H1 Yb0 2.395673 1_555
H1 Yb2 2.395673 1_455
H2 Ni2 1.576323 1_554
H2 Yb3 2.395673 1_555
H2 Yb0 2.395673 1_554
H2 Yb1 2.395673 1_555
H3 Ni3 1.576323 1_666
H3 Yb1 2.395673 1_556
H3 Yb2 2.395673 1_565
H3 Yb0 2.395673 1_655
H4 Ni3 1.593610 1_565
H4 Mg2 2.092657 1_555
H4 Mg1 2.094564 1_564
H4 Yb0 2.492978 1_554
H5 Ni1 1.593610 1_555
H5 Mg3 2.092657 1_555
H5 Mg2 2.094564 1_655
H5 Yb0 2.492978 1_655
H6 Ni2 1.593610 1_555
H6 Mg1 2.092657 1_555
H6 Mg3 2.094564 1_555
H6 Yb0 2.492978 1_555
H7 Ni2 1.593610 1_555
H7 Mg3 2.092657 1_555
H7 Mg0 2.094564 1_556
H7 Yb1 2.492978 1_556
H8 Ni0 1.593610 1_555
H8 Mg2 2.092657 1_555
H8 Mg3 2.094564 1_555
H8 Yb1 2.492978 1_555
H9 Ni3 1.593610 1_655
H9 Mg0 2.092657 1_555
H9 Mg2 2.094564 1_645
H9 Yb1 2.492978 1_545
H10 Ni1 1.593610 1_555
H10 Mg0 2.092657 1_555
H10 Mg3 2.094564 1_555
H10 Yb2 2.492978 1_555
H11 Ni3 1.593610 1_556
H11 Mg1 2.092657 1_555
H11 Mg0 2.094564 1_456
H11 Yb2 2.492978 1_455
H12 Ni0 1.593610 1_555
H12 Mg3 2.092657 1_555
H12 Mg1 2.094564 1_565
H12 Yb2 2.492978 1_565
H13 Ni0 1.593610 1_545
H13 Mg1 2.092657 1_555
H13 Mg2 2.094564 1_545
H13 Yb3 2.492978 1_555
H14 Ni2 1.593610 1_554
H14 Mg0 2.092657 1_555
H14 Mg1 2.094564 1_554
H14 Yb3 2.492978 1_555
H15 Ni1 1.593610 1_455
H15 Mg2 2.092657 1_555
H15 Mg0 2.094564 1_455
H15 Yb3 2.492978 1_555
