# generated using pymatgen
data_SrNd5Fe6(AsO)6
_symmetry_space_group_name_H-M   'P 1'
_cell_length_a   9.17875100
_cell_length_b   10.19410720
_cell_length_c   11.60651037
_cell_angle_alpha   73.43616721
_cell_angle_beta   71.52431736
_cell_angle_gamma   68.78643916
_symmetry_Int_Tables_number   1
_chemical_formula_structural   SrNd5Fe6(AsO)6
_chemical_formula_sum   'Sr2 Nd10 Fe12 As12 O12'
_cell_volume   942.23585047
_cell_formula_units_Z   2
loop_
 _symmetry_equiv_pos_site_id
 _symmetry_equiv_pos_as_xyz
  1  'x, y, z'
loop_
 _atom_site_type_symbol
 _atom_site_label
 _atom_site_symmetry_multiplicity
 _atom_site_fract_x
 _atom_site_fract_y
 _atom_site_fract_z
 _atom_site_occupancy
  Sr  Sr0  1  0.71024100  0.86688900  0.23024600  1
  Sr  Sr1  1  0.28975900  0.13311100  0.76975400  1
  Nd  Nd0  1  0.37521000  0.87885300  0.06056900  1
  Nd  Nd1  1  0.95834300  0.11909700  0.10521500  1
  Nd  Nd2  1  0.29427600  0.12257000  0.26993800  1
  Nd  Nd3  1  0.04087000  0.87821300  0.39505400  1
  Nd  Nd4  1  0.37377200  0.88074400  0.56232900  1
  Nd  Nd5  1  0.62622800  0.11925600  0.43767100  1
  Nd  Nd6  1  0.95913000  0.12178700  0.60494600  1
  Nd  Nd7  1  0.70572400  0.87743000  0.73006200  1
  Nd  Nd8  1  0.04165700  0.88090300  0.89478500  1
  Nd  Nd9  1  0.62479000  0.12114700  0.93943100  1
  Fe  Fe0  1  0.33469800  0.49947700  0.03947700  1
  Fe  Fe1  1  0.66378200  0.49821600  0.21037500  1
  Fe  Fe2  1  0.99937600  0.50020200  0.12441000  1
  Fe  Fe3  1  0.33261300  0.49874300  0.29052400  1
  Fe  Fe4  1  0.99978700  0.49912700  0.37525800  1
  Fe  Fe5  1  0.33207600  0.50151100  0.54041200  1
  Fe  Fe6  1  0.66792400  0.49848900  0.45958800  1
  Fe  Fe7  1  0.00021300  0.50087300  0.62474200  1
  Fe  Fe8  1  0.66738700  0.50125700  0.70947600  1
  Fe  Fe9  1  0.00062400  0.49979800  0.87559000  1
  Fe  Fe10  1  0.33621800  0.50178400  0.78962500  1
  Fe  Fe11  1  0.66530200  0.50052300  0.96052300  1
  As  As0  1  0.77387200  0.67285200  0.01270300  1
  As  As1  1  0.55841100  0.32429500  0.15389800  1
  As  As2  1  0.11242700  0.67147300  0.17843200  1
  As  As3  1  0.44182400  0.67269700  0.34650800  1
  As  As4  1  0.89219300  0.32541100  0.31879900  1
  As  As5  1  0.22503100  0.32585100  0.48697000  1
  As  As6  1  0.77496900  0.67414900  0.51303000  1
  As  As7  1  0.10780700  0.67458900  0.68120100  1
  As  As8  1  0.55817600  0.32730300  0.65349200  1
  As  As9  1  0.88757300  0.32852700  0.82156800  1
  As  As10  1  0.44158900  0.67570500  0.84610200  1
  As  As11  1  0.22612800  0.32714800  0.98729700  1
  O  O0  1  0.83535700  0.00600200  0.03499300  1
  O  O1  1  0.49114900  0.00692700  0.12196300  1
  O  O2  1  0.16722800  0.99859100  0.20986000  1
  O  O3  1  0.49094500  0.00704200  0.37881400  1
  O  O4  1  0.83783600  0.00372600  0.29444600  1
  O  O5  1  0.16462500  0.00115700  0.45716700  1
  O  O6  1  0.83537500  0.99884300  0.54283300  1
  O  O7  1  0.16216400  0.99627400  0.70555400  1
  O  O8  1  0.50905500  0.99295800  0.62118600  1
  O  O9  1  0.83277200  0.00140900  0.79014000  1
  O  O10  1  0.50885100  0.99307300  0.87803700  1
  O  O11  1  0.16464300  0.99399800  0.96500700  1
loop_
_geom_bond_atom_site_label_1
_geom_bond_atom_site_label_2
_geom_bond_distance
_geom_bond_site_symmetry_2
Nd0 O11 2.306092 1_554
Nd0 O10 2.308419 1_554
Nd0 O1 2.315461 1_565
Nd0 O2 2.357909 1_555
Nd1 O0 2.308361 1_555
Nd1 O11 2.311442 1_644
Nd1 O4 2.315036 1_555
Nd1 O2 2.362417 1_645
Nd2 O1 2.291415 1_555
Nd2 O3 2.302441 1_555
Nd2 O2 2.351147 1_545
Nd2 O5 2.358748 1_555
Nd3 O4 2.296825 1_465
Nd3 O2 2.327494 1_555
Nd3 O5 2.333508 1_565
Nd3 O6 2.342083 1_455
Nd4 O8 2.308299 1_555
Nd4 O7 2.310273 1_555
Nd4 O3 2.310351 1_565
Nd4 O5 2.367977 1_565
Nd5 O3 2.308299 1_555
Nd5 O4 2.310273 1_555
Nd5 O8 2.310351 1_545
Nd5 O6 2.367977 1_545
Nd6 O7 2.296825 1_645
Nd6 O9 2.327494 1_555
Nd6 O6 2.333508 1_545
Nd6 O5 2.342083 1_655
Nd7 O10 2.291415 1_555
Nd7 O8 2.302441 1_555
Nd7 O9 2.351147 1_565
Nd7 O6 2.358748 1_555
Nd8 O11 2.308361 1_555
Nd8 O0 2.311442 1_466
Nd8 O7 2.315036 1_555
Nd8 O9 2.362417 1_465
Nd9 O0 2.306092 1_556
Nd9 O1 2.308419 1_556
Nd9 O10 2.315461 1_545
Nd9 O9 2.357909 1_555
As0 Fe11 2.588837 1_554
As0 Fe9 2.611666 1_654
As0 Fe2 2.612726 1_555
As0 Fe1 2.637770 1_555
As0 Sr0 3.421379 1_555
As0 Nd0 3.453137 1_555
As0 Nd7 3.458008 1_554
As0 Nd8 3.521112 1_654
As1 Fe11 2.609272 1_554
As1 Fe1 2.610354 1_555
As1 Fe3 2.613445 1_555
As1 Fe0 2.625198 1_555
As1 Nd2 3.446730 1_555
As1 Nd9 3.452665 1_554
As1 Nd1 3.460130 1_555
As1 Nd5 3.469425 1_555
As2 Fe3 2.581207 1_555
As2 Fe0 2.603020 1_555
As2 Fe2 2.620290 1_455
As2 Fe4 2.627472 1_455
As2 Sr0 3.451342 1_455
As2 Nd0 3.479716 1_555
As2 Nd8 3.487484 1_554
As2 Nd3 3.488153 1_555
As3 Fe5 2.592504 1_555
As3 Fe1 2.598172 1_555
As3 Fe6 2.629355 1_555
As3 Fe3 2.632093 1_555
As3 Sr0 3.421862 1_555
As3 Nd3 3.468414 1_555
As3 Nd0 3.490573 1_555
As3 Nd4 3.498787 1_555
As4 Fe2 2.608219 1_555
As4 Fe1 2.611079 1_555
As4 Fe4 2.622632 1_555
As4 Fe6 2.627571 1_555
As4 Nd1 3.468701 1_555
As4 Nd2 3.469483 1_655
As4 Nd6 3.486555 1_555
As4 Nd5 3.493507 1_555
As5 Fe3 2.611768 1_555
As5 Fe4 2.612652 1_455
As5 Fe5 2.617168 1_555
As5 Fe7 2.620954 1_555
As5 Sr1 3.420544 1_555
As5 Nd2 3.471587 1_555
As5 Nd5 3.473124 1_555
As5 Nd6 3.477234 1_455
As6 Fe8 2.611768 1_555
As6 Fe7 2.612652 1_655
As6 Fe6 2.617168 1_555
As6 Fe4 2.620954 1_555
As6 Sr0 3.420544 1_555
As6 Nd7 3.471587 1_555
As6 Nd4 3.473124 1_555
As6 Nd3 3.477234 1_655
As7 Fe9 2.608219 1_555
As7 Fe10 2.611079 1_555
As7 Fe7 2.622632 1_555
As7 Fe5 2.627571 1_555
As7 Nd8 3.468701 1_555
As7 Nd7 3.469483 1_455
As7 Nd3 3.486555 1_555
As7 Nd4 3.493507 1_555
As8 Fe6 2.592504 1_555
As8 Fe10 2.598172 1_555
As8 Fe5 2.629355 1_555
As8 Fe8 2.632093 1_555
As8 Sr1 3.421862 1_555
As8 Nd6 3.468414 1_555
As8 Nd9 3.490573 1_555
As8 Nd5 3.498787 1_555
As9 Fe8 2.581207 1_555
As9 Fe11 2.603020 1_555
As9 Fe9 2.620290 1_655
As9 Fe7 2.627472 1_655
As9 Sr1 3.451342 1_655
As9 Nd9 3.479716 1_555
As9 Nd1 3.487484 1_556
As9 Nd6 3.488153 1_555
As10 Fe0 2.609272 1_556
As10 Fe10 2.610354 1_555
As10 Fe8 2.613445 1_555
As10 Fe11 2.625198 1_555
As10 Nd7 3.446730 1_555
As10 Nd0 3.452665 1_556
As10 Nd8 3.460130 1_555
As10 Nd4 3.469425 1_555
As11 Fe0 2.588837 1_556
As11 Fe2 2.611666 1_456
As11 Fe9 2.612726 1_555
As11 Fe10 2.637770 1_555
As11 Sr1 3.421379 1_555
As11 Nd9 3.453137 1_555
As11 Nd2 3.458008 1_556
As11 Nd1 3.521112 1_456
O0 Sr0 2.482407 1_545
O1 Sr0 2.482511 1_545
O3 Sr0 2.487952 1_545
O4 Sr0 2.490124 1_545
O7 Sr1 2.490124 1_565
O8 Sr1 2.487952 1_565
O10 Sr1 2.482511 1_565
O11 Sr1 2.482407 1_565
