# generated using pymatgen
data_Rb16Er7Ti9(PO4)24
_symmetry_space_group_name_H-M   'P 1'
_cell_length_a   10.33276084
_cell_length_b   10.32404790
_cell_length_c   20.63945056
_cell_angle_alpha   89.94470155
_cell_angle_beta   90.04218992
_cell_angle_gamma   90.07870054
_symmetry_Int_Tables_number   1
_chemical_formula_structural   Rb16Er7Ti9(PO4)24
_chemical_formula_sum   'Rb16 Er7 Ti9 P24 O96'
_cell_volume   2201.72863443
_cell_formula_units_Z   1
loop_
 _symmetry_equiv_pos_site_id
 _symmetry_equiv_pos_as_xyz
  1  'x, y, z'
loop_
 _atom_site_type_symbol
 _atom_site_label
 _atom_site_symmetry_multiplicity
 _atom_site_fract_x
 _atom_site_fract_y
 _atom_site_fract_z
 _atom_site_occupancy
  Rb  Rb0  1  0.04367914  0.45808364  0.26986682  1
  Rb  Rb1  1  0.04173283  0.45650886  0.77181287  1
  Rb  Rb2  1  0.17932984  0.17981507  0.09035627  1
  Rb  Rb3  1  0.18210172  0.18161039  0.58835175  1
  Rb  Rb4  1  0.32040185  0.82066693  0.34204724  1
  Rb  Rb5  1  0.32147906  0.81900481  0.83974740  1
  Rb  Rb6  1  0.45836394  0.54186337  0.02130489  1
  Rb  Rb7  1  0.46072637  0.54590520  0.52174110  1
  Rb  Rb8  1  0.54236494  0.04326045  0.22815111  1
  Rb  Rb9  1  0.54359703  0.04207886  0.72964489  1
  Rb  Rb10  1  0.67923803  0.32072151  0.91048157  1
  Rb  Rb11  1  0.68093728  0.31916851  0.41035823  1
  Rb  Rb12  1  0.82135940  0.68083898  0.16058507  1
  Rb  Rb13  1  0.81998859  0.67901037  0.65772234  1
  Rb  Rb14  1  0.95778205  0.95425661  0.47806960  1
  Rb  Rb15  1  0.95805868  0.95786103  0.97902236  1
  Er  Er0  1  0.10551353  0.59996972  0.44794893  1
  Er  Er1  1  0.16780535  0.83501883  0.16880751  1
  Er  Er2  1  0.33319949  0.16411926  0.91585283  1
  Er  Er3  1  0.60389429  0.90342128  0.55262307  1
  Er  Er4  1  0.66721577  0.66638765  0.83218852  1
  Er  Er5  1  0.83685363  0.33159969  0.58129636  1
  Er  Er6  1  0.83345533  0.33622691  0.08414987  1
  Ti  Ti0  1  0.10707310  0.60574889  0.94650278  1
  Ti  Ti1  1  0.16808701  0.83603067  0.66674165  1
  Ti  Ti2  1  0.33455065  0.16531958  0.41848219  1
  Ti  Ti3  1  0.39615677  0.39364363  0.19606146  1
  Ti  Ti4  1  0.39172908  0.39381742  0.69847856  1
  Ti  Ti5  1  0.60701310  0.89421302  0.05318796  1
  Ti  Ti6  1  0.66744516  0.66376934  0.33294040  1
  Ti  Ti7  1  0.88924566  0.10505722  0.30132263  1
  Ti  Ti8  1  0.89549081  0.10608696  0.80442014  1
  P  P0  1  0.02048482  0.27948682  0.43123231  1
  P  P1  1  0.01365804  0.29582978  0.93467660  1
  P  P2  1  0.13320066  0.51420510  0.10237922  1
  P  P3  1  0.13462442  0.52195893  0.60971854  1
  P  P4  1  0.20889111  0.13472006  0.26236950  1
  P  P5  1  0.20469384  0.12286244  0.75465894  1
  P  P6  1  0.29517440  0.86760046  0.00758392  1
  P  P7  1  0.28788578  0.87944707  0.50928405  1
  P  P8  1  0.38265109  0.47690078  0.35122109  1
  P  P9  1  0.36891923  0.48564903  0.85370652  1
  P  P10  1  0.49056604  0.70300462  0.18838428  1
  P  P11  1  0.47239349  0.70559558  0.68685278  1
  P  P12  1  0.51358247  0.20413467  0.06563740  1
  P  P13  1  0.50520596  0.21549224  0.56374674  1
  P  P14  1  0.62736030  0.98322772  0.39151004  1
  P  P15  1  0.63293603  0.98653929  0.89798084  1
  P  P16  1  0.70535634  0.37745650  0.24518243  1
  P  P17  1  0.70516852  0.36627113  0.74196952  1
  P  P18  1  0.78566241  0.62790127  0.48801312  1
  P  P19  1  0.79554456  0.63265984  0.99283780  1
  P  P20  1  0.86926135  0.01461028  0.14606682  1
  P  P21  1  0.88497054  0.01369883  0.65117354  1
  P  P22  1  0.97098670  0.79405976  0.31291754  1
  P  P23  1  0.99106228  0.79686199  0.81171613  1
  O  O0  1  0.01758476  0.42510337  0.11625734  1
  O  O1  1  0.00705189  0.44671836  0.61985431  1
  O  O2  1  0.01044950  0.42079464  0.40877774  1
  O  O3  1  0.01534143  0.44397560  0.91747024  1
  O  O4  1  0.03695832  0.72278683  0.36846228  1
  O  O5  1  0.05140182  0.71727780  0.86886835  1
  O  O6  1  0.06142775  0.16682078  0.26106405  1
  O  O7  1  0.05927236  0.16358830  0.75707706  1
  O  O8  1  0.04651518  0.76749778  0.25047139  1
  O  O9  1  0.08110201  0.78008833  0.75151527  1
  O  O10  1  0.10528705  0.65062826  0.12700991  1
  O  O11  1  0.11492019  0.66637247  0.63031139  1
  O  O12  1  0.16554163  0.24063563  0.44089770  1
  O  O13  1  0.14959174  0.24576175  0.94938648  1
  O  O14  1  0.16561004  0.51513078  0.02814921  1
  O  O15  1  0.18171433  0.51203129  0.53914250  1
  O  O16  1  0.19766480  0.78219051  0.47612193  1
  O  O17  1  0.21873557  0.74964910  0.97777607  1
  O  O18  1  0.23650457  0.01096947  0.22368251  1
  O  O19  1  0.22340469  0.00184968  0.71026474  1
  O  O20  1  0.25172386  0.45482055  0.14054904  1
  O  O21  1  0.23760309  0.45716800  0.65487800  1
  O  O22  1  0.24615307  0.89860803  0.07577003  1
  O  O23  1  0.24248111  0.89881108  0.58131104  1
  O  O24  1  0.25951868  0.11500357  0.33301875  1
  O  O25  1  0.25610724  0.09185557  0.82211382  1
  O  O26  1  0.27447965  0.54553032  0.38809529  1
  O  O27  1  0.25062612  0.54430460  0.89180980  1
  O  O28  1  0.27500517  0.01122811  0.47050719  1
  O  O29  1  0.26929842  0.98283086  0.96246966  1
  O  O30  1  0.28427343  0.24737439  0.22907667  1
  O  O31  1  0.28587424  0.23492942  0.72371862  1
  O  O32  1  0.34457529  0.47732118  0.27759748  1
  O  O33  1  0.33261059  0.48151185  0.78000951  1
  O  O34  1  0.35567184  0.75429216  0.20408186  1
  O  O35  1  0.33026967  0.75644321  0.69548670  1
  O  O36  1  0.40232634  0.33691130  0.37768744  1
  O  O37  1  0.39882653  0.34914379  0.87770374  1
  O  O38  1  0.42362758  0.23100738  0.00802495  1
  O  O39  1  0.42243705  0.22992674  0.50000420  1
  O  O40  1  0.44351311  0.83323028  0.00964789  1
  O  O41  1  0.42736282  0.83179250  0.50453722  1
  O  O42  1  0.45580146  0.27990537  0.12545819  1
  O  O43  1  0.44477044  0.30804510  0.61603618  1
  O  O44  1  0.48645678  0.55663144  0.16822805  1
  O  O45  1  0.47389044  0.55634329  0.67176434  1
  O  O46  1  0.48483858  0.57471318  0.86697409  1
  O  O47  1  0.50846871  0.55935595  0.36057649  1
  O  O48  1  0.49893962  0.06189996  0.38485709  1
  O  O49  1  0.51775179  0.07601113  0.88398904  1
  O  O50  1  0.51511230  0.05606874  0.08278831  1
  O  O51  1  0.49698988  0.07611616  0.58966251  1
  O  O52  1  0.55165374  0.78203079  0.13149799  1
  O  O53  1  0.53758041  0.77540924  0.63070868  1
  O  O54  1  0.55999850  0.33610195  0.24348189  1
  O  O55  1  0.55679692  0.33191789  0.74061115  1
  O  O56  1  0.57896672  0.71889997  0.24923348  1
  O  O57  1  0.54775494  0.73337985  0.74937765  1
  O  O58  1  0.60377403  0.85033348  0.87362532  1
  O  O59  1  0.60611070  0.84049170  0.36862552  1
  O  O60  1  0.64922474  0.25440861  0.05107648  1
  O  O61  1  0.64534534  0.25556655  0.54899720  1
  O  O62  1  0.67860435  0.99223846  0.46086397  1
  O  O63  1  0.66546333  0.98551630  0.97227200  1
  O  O64  1  0.71890339  0.75058937  0.02260409  1
  O  O65  1  0.69950292  0.72996829  0.51955298  1
  O  O66  1  0.72497993  0.49888342  0.28937077  1
  O  O67  1  0.73095203  0.48359856  0.78605968  1
  O  O68  1  0.72930192  0.04895292  0.34549964  1
  O  O69  1  0.75216898  0.04484701  0.86019623  1
  O  O70  1  0.74579758  0.60183677  0.92485943  1
  O  O71  1  0.74319776  0.61266069  0.41450042  1
  O  O72  1  0.75599027  0.40837502  0.17766924  1
  O  O73  1  0.75346363  0.39538755  0.67343421  1
  O  O74  1  0.75116926  0.95547858  0.10824242  1
  O  O75  1  0.77336860  0.95025403  0.61343443  1
  O  O76  1  0.76934994  0.51757275  0.03800849  1
  O  O77  1  0.76402881  0.49676005  0.52237487  1
  O  O78  1  0.78714790  0.26574220  0.27576327  1
  O  O79  1  0.78123130  0.24910226  0.77217152  1
  O  O80  1  0.83301141  0.01824365  0.21983265  1
  O  O81  1  0.84519148  0.01621218  0.72455322  1
  O  O82  1  0.82817580  0.74431259  0.30368429  1
  O  O83  1  0.85623492  0.74506954  0.79575413  1
  O  O84  1  0.91430666  0.14938829  0.62509536  1
  O  O85  1  0.89932060  0.15109012  0.12244204  1
  O  O86  1  0.94730302  0.25604986  0.49527165  1
  O  O87  1  0.92374469  0.26908847  0.99228643  1
  O  O88  1  0.92770714  0.67004478  0.49359989  1
  O  O89  1  0.94373227  0.66706840  0.99064631  1
  O  O90  1  0.95411153  0.19069291  0.37917617  1
  O  O91  1  0.95606182  0.21993404  0.87484273  1
  O  O92  1  0.97018589  0.94277579  0.32893476  1
  O  O93  1  0.98704810  0.94283740  0.83244435  1
  O  O94  1  0.98596146  0.92651116  0.13324200  1
  O  O95  1  0.00650084  0.92411173  0.64199933  1
loop_
_geom_bond_atom_site_label_1
_geom_bond_atom_site_label_2
_geom_bond_distance
_geom_bond_site_symmetry_2
Er0 O16 2.186379 1_555
Er0 O88 2.189540 1_455
Er0 O4 2.190367 1_555
Er0 O26 2.212983 1_555
Er0 O15 2.232329 1_555
Er0 O2 2.244330 1_555
Er1 O22 2.184510 1_555
Er1 O10 2.187326 1_555
Er1 O8 2.212679 1_555
Er1 O94 2.227780 1_455
Er1 O34 2.234729 1_555
Er1 O18 2.255139 1_565
Er2 O37 2.173244 1_555
Er2 O13 2.190023 1_555
Er2 O29 2.204257 1_545
Er2 O49 2.214521 1_555
Er2 O25 2.221072 1_555
Er2 O38 2.228704 1_556
Er3 O65 2.157956 1_555
Er3 O53 2.192844 1_555
Er3 O41 2.203197 1_555
Er3 O75 2.207074 1_555
Er3 O51 2.234425 1_565
Er3 O62 2.240598 1_555
Er4 O70 2.181395 1_555
Er4 O58 2.185171 1_555
Er4 O67 2.215672 1_555
Er4 O57 2.218157 1_555
Er4 O46 2.226702 1_555
Er4 O83 2.244220 1_555
Er5 O73 2.190635 1_555
Er5 O77 2.225032 1_555
Er5 O61 2.229589 1_555
Er5 O84 2.235224 1_555
Er5 O86 2.251961 1_555
Er5 O1 2.265522 1_655
Er6 O85 2.177375 1_555
Er6 O60 2.190432 1_555
Er6 O76 2.202260 1_555
Er6 O0 2.212543 1_655
Er6 O72 2.219869 1_555
Er6 O87 2.225442 1_554
O0 P2 1.533742 1_555
O0 Rb2 3.083404 1_555
O0 Rb0 3.200115 1_555
O1 P3 1.543383 1_555
O1 Rb1 3.158184 1_555
O1 Rb13 3.180691 1_455
O1 Rb3 3.347266 1_555
O2 P0 1.533909 1_555
O2 Rb0 2.912902 1_555
O3 P1 1.569895 1_555
O3 Ti0 2.010877 1_555
O3 Rb1 3.021462 1_555
O4 P22 1.522817 1_455
O4 Rb4 3.144701 1_555
O4 Rb14 3.393557 1_455
O5 P23 1.566424 1_455
O5 Ti0 2.054521 1_555
O5 Rb5 3.040581 1_555
O5 Rb1 3.358563 1_555
O6 P4 1.559981 1_555
O6 Ti7 2.064052 1_455
O6 Rb0 3.018506 1_555
O7 P5 1.561724 1_555
O7 Ti8 2.041984 1_455
O7 Rb1 3.045332 1_555
O8 P22 1.532367 1_455
O8 Rb12 3.105778 1_455
O8 Rb0 3.219104 1_555
O8 Rb4 3.445648 1_555
O9 P23 1.562675 1_455
O9 Ti1 2.049810 1_555
O9 Rb5 3.104635 1_555
O9 Rb1 3.390390 1_555
O10 P2 1.525791 1_555
O10 Rb12 3.031558 1_455
O11 P3 1.564341 1_555
O11 Ti1 1.983533 1_555
O11 Rb13 3.102880 1_455
O12 P0 1.564688 1_555
O12 Ti2 1.968230 1_555
O12 Rb3 3.107840 1_555
O13 P1 1.527497 1_555
O13 Rb2 3.003133 1_556
O14 P2 1.568497 1_555
O14 Ti0 2.019353 1_554
O14 Rb6 3.040517 1_555
O15 P3 1.539660 1_555
O15 Rb7 2.925969 1_555
O15 Rb3 3.558335 1_555
O16 P7 1.530856 1_555
O16 Rb14 3.051782 1_455
O16 Rb4 3.070077 1_555
O17 P6 1.575844 1_556
O17 Ti0 1.987708 1_555
O17 Rb5 3.123146 1_555
O18 P4 1.534458 1_555
O18 Rb8 3.178741 1_555
O18 Rb4 3.251458 1_545
O18 Rb2 3.309248 1_555
O19 P5 1.562345 1_555
O19 Ti1 2.015898 1_545
O19 Rb3 3.154247 1_555
O20 P2 1.579887 1_555
O20 Ti3 1.984326 1_555
O20 Rb2 3.113251 1_555
O21 P3 1.564507 1_555
O21 Ti4 1.942521 1_555
O21 Rb1 3.150890 1_555
O21 Rb3 3.210821 1_555
O22 P6 1.530351 1_555
O22 Rb2 3.000570 1_565
O23 P7 1.572229 1_555
O23 Ti1 2.029391 1_555
O23 Rb3 2.990078 1_565
O24 P4 1.562025 1_555
O24 Ti2 1.995237 1_555
O24 Rb4 3.109412 1_545
O25 P5 1.523653 1_555
O25 Rb5 2.920046 1_545
O26 P8 1.528065 1_555
O26 Rb4 3.031295 1_555
O26 Rb7 3.362189 1_555
O27 P9 1.575929 1_555
O27 Ti0 1.970603 1_555
O27 Rb5 3.118202 1_555
O27 Rb1 3.406676 1_555
O28 P7 1.583503 1_545
O28 Ti2 2.014278 1_555
O28 Rb3 3.154024 1_555
O28 Rb14 3.333092 1_445
O28 Rb4 3.336855 1_545
O29 P6 1.533662 1_556
O29 Rb5 3.095130 1_555
O29 Rb15 3.244192 1_455
O29 Rb2 3.462111 1_566
O30 P4 1.558302 1_555
O30 Ti3 2.018802 1_555
O30 Rb2 3.139576 1_555
O30 Rb8 3.401236 1_555
O31 P5 1.564201 1_555
O31 Ti4 2.037838 1_555
O31 Rb3 3.042294 1_555
O32 P8 1.569379 1_555
O32 Ti3 1.966667 1_555
O32 Rb0 3.119129 1_555
O33 P9 1.566990 1_555
O33 Ti4 2.007601 1_555
O33 Rb1 3.020912 1_555
O34 P10 1.526800 1_555
O34 Rb4 2.952422 1_555
O35 P11 1.570541 1_555
O35 Ti1 1.958770 1_555
O35 Rb5 3.048766 1_555
O36 P8 1.558079 1_555
O36 Ti2 2.081402 1_555
O36 Rb11 2.962128 1_555
O37 P9 1.525294 1_555
O37 Rb10 2.989635 1_555
O38 P12 1.534042 1_555
O38 Rb2 3.088642 1_555
O38 Rb6 3.240663 1_555
O38 Rb10 3.447355 1_554
O39 P13 1.575682 1_555
O39 Ti2 2.024563 1_555
O39 Rb3 3.121249 1_555
O39 Rb7 3.316416 1_555
O39 Rb11 3.376958 1_555
O40 P6 1.574297 1_555
O40 Ti5 2.013447 1_555
O40 Rb6 3.021561 1_555
O41 P7 1.526731 1_555
O41 Rb7 2.992817 1_555
O41 Rb4 3.532270 1_555
O42 P12 1.580197 1_555
O42 Ti3 1.971989 1_555
O42 Rb2 3.121502 1_555
O42 Rb8 3.354777 1_555
O43 P13 1.572363 1_555
O43 Ti4 1.996360 1_555
O43 Rb3 3.063669 1_555
O43 Rb7 3.136139 1_555
O44 P10 1.568278 1_555
O44 Ti3 2.006654 1_555
O44 Rb6 3.050002 1_555
O45 P11 1.572436 1_555
O45 Ti4 1.958354 1_555
O45 Rb7 3.101254 1_555
O46 P9 1.533654 1_555
O46 Rb5 3.087623 1_555
O46 Rb6 3.214802 1_556
O46 Rb10 3.424102 1_555
O47 P8 1.564917 1_555
O47 Ti6 2.044760 1_555
O47 Rb11 3.222570 1_555
O47 Rb4 3.348410 1_555
O47 Rb7 3.365795 1_555
O48 P14 1.562625 1_545
O48 Ti2 2.124855 1_555
O48 Rb4 3.221143 1_545
O48 Rb8 3.271514 1_555
O48 Rb11 3.294781 1_555
O49 P15 1.534648 1_545
O49 Rb10 3.075004 1_555
O49 Rb9 3.216460 1_555
O50 P12 1.568856 1_555
O50 Ti5 2.018516 1_545
O50 Rb8 3.015978 1_555
O51 P13 1.536901 1_555
O51 Rb9 2.949424 1_555
O51 Rb3 3.432610 1_555
O52 P10 1.562180 1_555
O52 Ti5 2.068054 1_555
O52 Rb12 3.036845 1_555
O52 Rb8 3.357620 1_565
O53 P11 1.521237 1_555
O53 Rb13 3.133831 1_555
O53 Rb7 3.362343 1_555
O54 P16 1.561266 1_555
O54 Ti3 2.043542 1_555
O54 Rb8 3.045319 1_555
O55 P17 1.573339 1_555
O55 Ti4 2.018270 1_555
O55 Rb9 3.003981 1_555
O56 P10 1.561038 1_555
O56 Ti6 2.035141 1_555
O56 Rb12 3.128231 1_555
O56 Rb8 3.398040 1_565
O56 Rb4 3.454060 1_555
O57 P11 1.533818 1_555
O57 Rb5 3.121239 1_555
O57 Rb9 3.212893 1_565
O58 P15 1.523434 1_555
O58 Rb5 3.016056 1_555
O59 P14 1.563054 1_555
O59 Ti6 2.068654 1_555
O59 Rb4 3.009026 1_555
O60 P12 1.523942 1_555
O60 Rb10 2.997038 1_554
O61 P13 1.536029 1_555
O61 Rb11 2.958288 1_555
O62 P14 1.528727 1_555
O62 Rb14 2.933012 1_555
O63 P15 1.569519 1_555
O63 Ti5 2.009795 1_556
O63 Rb15 3.040239 1_555
O64 P19 1.578514 1_554
O64 Ti5 1.985277 1_555
O64 Rb12 3.121419 1_555
O65 P18 1.526912 1_555
O65 Rb7 3.112457 1_555
O65 Rb13 3.154801 1_555
O66 P16 1.563871 1_555
O66 Ti6 2.016530 1_555
O66 Rb11 3.142538 1_555
O67 P17 1.538567 1_555
O67 Rb10 3.114318 1_555
O67 Rb1 3.237384 1_655
O68 P14 1.571628 1_545
O68 Ti7 1.974010 1_555
O68 Rb8 3.097360 1_555
O68 Rb11 3.136282 1_555
O69 P15 1.576975 1_545
O69 Ti8 1.979039 1_555
O69 Rb10 3.125652 1_555
O70 P19 1.527529 1_555
O70 Rb10 2.996660 1_555
O71 P18 1.587028 1_555
O71 Ti6 1.929312 1_555
O71 Rb11 3.097951 1_555
O72 P16 1.522181 1_555
O72 Rb12 2.913135 1_555
O73 P17 1.529735 1_555
O73 Rb13 3.024005 1_555
O74 P20 1.571158 1_565
O74 Ti5 1.976421 1_555
O74 Rb12 3.119476 1_555
O74 Rb8 3.408618 1_565
O75 P21 1.537237 1_565
O75 Rb13 2.984554 1_555
O75 Rb14 3.383145 1_555
O76 P19 1.533468 1_554
O76 Rb12 3.087741 1_555
O76 Rb6 3.241564 1_555
O76 Rb10 3.453491 1_554
O77 P18 1.543878 1_555
O77 Rb11 3.073243 1_555
O77 Rb7 3.175461 1_555
O78 P16 1.563111 1_555
O78 Ti7 2.036056 1_555
O78 Rb11 3.038887 1_555
O79 P17 1.571615 1_555
O79 Ti8 2.004656 1_555
O79 Rb10 3.133208 1_555
O79 Rb1 3.437227 1_655
O80 P20 1.568648 1_555
O80 Ti7 1.992430 1_555
O80 Rb8 3.019644 1_555
O81 P21 1.569840 1_555
O81 Ti8 1.961807 1_555
O81 Rb9 3.129941 1_555
O82 P22 1.573300 1_555
O82 Ti6 1.952178 1_555
O82 Rb12 3.026679 1_555
O83 P23 1.527384 1_555
O83 Rb13 2.953490 1_555
O84 P21 1.530237 1_555
O84 Rb3 2.888338 1_655
O85 P20 1.522258 1_555
O85 Rb2 2.982882 1_655
O86 P0 1.541973 1_655
O86 Rb14 3.138257 1_545
O86 Rb3 3.187913 1_655
O86 Rb11 3.326689 1_555
O87 P1 1.534097 1_655
O87 Rb10 3.084380 1_555
O87 Rb15 3.244967 1_545
O87 Rb2 3.451962 1_656
O88 P18 1.534561 1_555
O88 Rb14 2.967283 1_555
O89 P19 1.572053 1_555
O89 Ti0 2.021318 1_655
O89 Rb15 3.014939 1_555
O90 P0 1.569763 1_655
O90 Ti7 1.952532 1_555
O90 Rb14 3.180638 1_545
O90 Rb11 3.186759 1_555
O91 P1 1.578831 1_655
O91 Ti8 1.971227 1_555
O91 Rb10 3.133392 1_555
O91 Rb1 3.355250 1_655
O92 P22 1.570885 1_555
O92 Ti7 1.957681 1_565
O92 Rb14 3.083223 1_555
O93 P23 1.567614 1_555
O93 Ti8 2.017869 1_565
O93 Rb15 3.044426 1_555
O94 P20 1.534702 1_565
O94 Rb12 3.103379 1_555
O94 Rb15 3.211906 1_554
O94 Rb2 3.405618 1_665
O95 P21 1.572281 1_465
O95 Ti1 1.969109 1_555
O95 Rb13 3.195061 1_455
O95 Rb3 3.401394 1_565
O95 Rb14 3.434193 1_455
