# generated using pymatgen
data_Te2Pd3Pb2
_symmetry_space_group_name_H-M   'P 1'
_cell_length_a   5.97156416
_cell_length_b   6.60002227
_cell_length_c   8.71355898
_cell_angle_alpha   90.00000000
_cell_angle_beta   90.00000000
_cell_angle_gamma   90.00000000
_symmetry_Int_Tables_number   1
_chemical_formula_structural   Te2Pd3Pb2
_chemical_formula_sum   'Te4 Pd6 Pb4'
_cell_volume   343.42276376
_cell_formula_units_Z   2
loop_
 _symmetry_equiv_pos_site_id
 _symmetry_equiv_pos_as_xyz
  1  'x, y, z'
loop_
 _atom_site_type_symbol
 _atom_site_label
 _atom_site_symmetry_multiplicity
 _atom_site_fract_x
 _atom_site_fract_y
 _atom_site_fract_z
 _atom_site_occupancy
  Te  Te0  1  0.25000000  0.67807971  0.53758459  1
  Te  Te1  1  0.75000000  0.32192029  0.03758459  1
  Te  Te2  1  0.25000000  0.67807971  0.96241541  1
  Te  Te3  1  0.75000000  0.32192029  0.46241541  1
  Pd  Pd0  1  -0.00000000  -0.00000000  0.50000000  1
  Pd  Pd1  1  0.75000000  0.19690570  0.75000000  1
  Pd  Pd2  1  0.00000000  -0.00000000  -0.00000000  1
  Pd  Pd3  1  0.50000000  -0.00000000  0.50000000  1
  Pd  Pd4  1  0.50000000  -0.00000000  -0.00000000  1
  Pd  Pd5  1  0.25000000  0.80309430  0.25000000  1
  Pb  Pb0  1  0.25000000  0.24680688  0.25000000  1
  Pb  Pb1  1  0.75000000  0.75319312  0.75000000  1
  Pb  Pb2  1  0.25000000  0.19475564  0.75000000  1
  Pb  Pb3  1  0.75000000  0.80524436  0.25000000  1
loop_
_geom_bond_atom_site_label_1
_geom_bond_atom_site_label_2
_geom_bond_distance
_geom_bond_site_symmetry_2
Pd0 Te0 2.617298 1_545
Pd0 Te3 2.617298 1_455
Pd0 Pd1 2.943301 1_455
Pd0 Pd5 2.943301 1_545
Pd0 Pd3 2.985782 1_455
Pd0 Pd3 2.985782 1_555
Pd1 Te3 2.638228 1_555
Pd1 Te1 2.638228 1_556
Pd1 Pd2 2.943301 1_656
Pd1 Pd3 2.943301 1_555
Pd1 Pd4 2.943301 1_556
Pd2 Te2 2.617298 1_544
Pd2 Te1 2.617298 1_455
Pd2 Pd5 2.943301 1_545
Pd2 Pd4 2.985782 1_555
Pd2 Pd4 2.985782 1_455
Pd3 Te3 2.617298 1_555
Pd3 Te0 2.617298 1_545
Pd3 Pd5 2.943301 1_545
Pd4 Te2 2.617298 1_544
Pd4 Te1 2.617298 1_555
Pd4 Pd5 2.943301 1_545
Pd5 Te0 2.638228 1_555
Pd5 Te2 2.638228 1_554
Pb0 Pd5 2.928513 1_545
Pb0 Pd3 3.102825 1_555
Pb0 Pd0 3.102825 1_555
Pb0 Pd2 3.102825 1_555
Pb0 Pd4 3.102825 1_555
Pb1 Pd1 2.928513 1_565
Pb1 Pd4 3.102825 1_566
Pb1 Pd0 3.102825 1_665
Pb1 Pd2 3.102825 1_666
Pb1 Pd3 3.102825 1_565
Pb2 Pd3 2.937063 1_555
Pb2 Pd0 2.937063 1_555
Pb2 Pd2 2.937063 1_556
Pb2 Pd4 2.937063 1_556
Pb2 Pd1 2.985816 1_555
Pb2 Pd1 2.985816 1_455
Pb3 Pd2 2.937063 1_665
Pb3 Pd3 2.937063 1_565
Pb3 Pd0 2.937063 1_665
Pb3 Pd4 2.937063 1_565
Pb3 Pd5 2.985816 1_655
Pb3 Pd5 2.985816 1_555
