# generated using pymatgen
data_MnAsH3O5
_symmetry_space_group_name_H-M   'P 1'
_cell_length_a   16.20190300
_cell_length_b   6.92993700
_cell_length_c   8.08617337
_cell_angle_alpha   84.12110100
_cell_angle_beta   90.00000000
_cell_angle_gamma   90.00000000
_symmetry_Int_Tables_number   1
_chemical_formula_structural   MnAsH3O5
_chemical_formula_sum   'Mn8 As8 H24 O40'
_cell_volume   903.12571716
_cell_formula_units_Z   8
loop_
 _symmetry_equiv_pos_site_id
 _symmetry_equiv_pos_as_xyz
  1  'x, y, z'
loop_
 _atom_site_type_symbol
 _atom_site_label
 _atom_site_symmetry_multiplicity
 _atom_site_fract_x
 _atom_site_fract_y
 _atom_site_fract_z
 _atom_site_occupancy
  Mn  Mn0  1  0.55123500  0.65432900  0.59528100  1
  Mn  Mn1  1  0.05123500  0.34567100  0.40471900  1
  Mn  Mn2  1  0.45916200  0.90387700  0.89394200  1
  Mn  Mn3  1  0.95916200  0.09612300  0.10605800  1
  Mn  Mn4  1  0.57164100  0.16368100  0.14477900  1
  Mn  Mn5  1  0.07164100  0.83631900  0.85522100  1
  Mn  Mn6  1  0.43806700  0.39785300  0.34464100  1
  Mn  Mn7  1  0.93806700  0.60214700  0.65535900  1
  As  As0  1  0.59215700  0.15030100  0.59298300  1
  As  As1  1  0.09215700  0.84969900  0.40701700  1
  As  As2  1  0.41758400  0.40675800  0.89652600  1
  As  As3  1  0.91758400  0.59324200  0.10347400  1
  As  As4  1  0.60697600  0.67114600  0.18617000  1
  As  As5  1  0.10697600  0.32885400  0.81383000  1
  As  As6  1  0.40258500  0.88980800  0.30237400  1
  As  As7  1  0.90258500  0.11019200  0.69762600  1
  H  H0  1  0.63981000  0.94307500  0.39769500  1
  H  H1  1  0.13981000  0.05692500  0.60230500  1
  H  H2  1  0.37017700  0.61541000  0.09085800  1
  H  H3  1  0.87017700  0.38459000  0.90914200  1
  H  H4  1  0.74934900  0.64187200  0.12344200  1
  H  H5  1  0.24934900  0.35812800  0.87655800  1
  H  H6  1  0.26167300  0.86906200  0.37227100  1
  H  H7  1  0.76167300  0.13093800  0.62772900  1
  H  H8  1  0.67518500  0.43963700  0.73266300  1
  H  H9  1  0.17518500  0.56036300  0.26733700  1
  H  H10  1  0.33200800  0.10684600  0.76286500  1
  H  H11  1  0.83200800  0.89315400  0.23713500  1
  H  H12  1  0.67867000  0.61442200  0.84863000  1
  H  H13  1  0.17867000  0.38557800  0.15137000  1
  H  H14  1  0.32935900  0.93602500  0.64407000  1
  H  H15  1  0.82935900  0.06397500  0.35593000  1
  H  H16  1  0.74614000  0.13597700  0.09864300  1
  H  H17  1  0.24614000  0.86402300  0.90135700  1
  H  H18  1  0.26366700  0.37529000  0.39923900  1
  H  H19  1  0.76366700  0.62471000  0.60076100  1
  H  H20  1  0.69799900  0.16514100  0.92217400  1
  H  H21  1  0.19799900  0.83485900  0.07782600  1
  H  H22  1  0.31321900  0.38988400  0.57316900  1
  H  H23  1  0.81321900  0.61011600  0.42683100  1
  O  O0  1  0.67680300  0.20649300  0.70564600  1
  O  O1  1  0.17680300  0.79350700  0.29435400  1
  O  O2  1  0.33342800  0.34307600  0.78522800  1
  O  O3  1  0.83342800  0.65692400  0.21477200  1
  O  O4  1  0.54149300  0.94534100  0.67473300  1
  O  O5  1  0.04149300  0.05465900  0.32526700  1
  O  O6  1  0.46652500  0.61258100  0.81212900  1
  O  O7  1  0.96652500  0.38741900  0.18787100  1
  O  O8  1  0.52883600  0.34769800  0.55275700  1
  O  O9  1  0.02883600  0.65230200  0.44724300  1
  O  O10  1  0.48195600  0.21124000  0.93617700  1
  O  O11  1  0.98195600  0.78876000  0.06382300  1
  O  O12  1  0.63361400  0.09250600  0.39800100  1
  O  O13  1  0.13361400  0.90749400  0.60199900  1
  O  O14  1  0.37559400  0.46561800  0.09053800  1
  O  O15  1  0.87559400  0.53438200  0.90946200  1
  O  O16  1  0.63841600  0.72207700  0.38016700  1
  O  O17  1  0.13841600  0.27792300  0.61983300  1
  O  O18  1  0.37260200  0.83542800  0.10827700  1
  O  O19  1  0.87260200  0.16457200  0.89172300  1
  O  O20  1  0.55529400  0.86479800  0.08499400  1
  O  O21  1  0.05529400  0.13520200  0.91500600  1
  O  O22  1  0.45442800  0.69713100  0.40496900  1
  O  O23  1  0.95442800  0.30286900  0.59503100  1
  O  O24  1  0.55171100  0.46025700  0.18835700  1
  O  O25  1  0.05171100  0.53974300  0.81164300  1
  O  O26  1  0.45706700  0.10120700  0.30060800  1
  O  O27  1  0.95706700  0.89879300  0.69939200  1
  O  O28  1  0.69420900  0.64430200  0.05999800  1
  O  O29  1  0.19420900  0.35569800  0.94000200  1
  O  O30  1  0.31312400  0.92760300  0.42068600  1
  O  O31  1  0.81312400  0.07239700  0.57931400  1
  O  O32  1  0.66941200  0.58481900  0.73236700  1
  O  O33  1  0.16941200  0.41518100  0.26763300  1
  O  O34  1  0.33759400  0.96214600  0.76142700  1
  O  O35  1  0.83759400  0.03785400  0.23857300  1
  O  O36  1  0.69419100  0.17922500  0.04284300  1
  O  O37  1  0.19419100  0.82077500  0.95715700  1
  O  O38  1  0.31764000  0.39937100  0.45014800  1
  O  O39  1  0.81764000  0.60062900  0.54985200  1
loop_
_geom_bond_atom_site_label_1
_geom_bond_atom_site_label_2
_geom_bond_distance
_geom_bond_site_symmetry_2
Mn0 O4 2.184067 1_555
Mn0 O22 2.196072 1_555
Mn0 O8 2.216971 1_555
Mn0 O6 2.222182 1_555
Mn0 O32 2.239971 1_555
Mn0 O16 2.252545 1_555
Mn1 O5 2.184067 1_555
Mn1 O23 2.196072 1_455
Mn1 O9 2.216971 1_555
Mn1 O7 2.222182 1_455
Mn1 O33 2.239971 1_555
Mn1 O17 2.252545 1_555
Mn2 O20 2.190927 1_556
Mn2 O6 2.190994 1_555
Mn2 O4 2.213491 1_555
Mn2 O10 2.222379 1_565
Mn2 O18 2.242149 1_556
Mn2 O34 2.258776 1_555
Mn3 O21 2.190927 1_654
Mn3 O7 2.190994 1_555
Mn3 O5 2.213491 1_655
Mn3 O11 2.222379 1_545
Mn3 O19 2.242149 1_554
Mn3 O35 2.258776 1_555
Mn4 O24 2.144962 1_555
Mn4 O36 2.148307 1_555
Mn4 O20 2.190664 1_545
Mn4 O10 2.225177 1_554
Mn4 O26 2.260387 1_555
Mn4 O12 2.288498 1_555
Mn5 O25 2.144962 1_555
Mn5 O37 2.148307 1_555
Mn5 O21 2.190664 1_565
Mn5 O11 2.225177 1_456
Mn5 O27 2.260387 1_455
Mn5 O13 2.288498 1_555
Mn6 O38 2.129973 1_555
Mn6 O26 2.144188 1_555
Mn6 O22 2.194739 1_555
Mn6 O8 2.235120 1_555
Mn6 O24 2.249955 1_555
Mn6 O14 2.295486 1_555
Mn7 O39 2.129973 1_555
Mn7 O27 2.144188 1_555
Mn7 O23 2.194739 1_555
Mn7 O9 2.235120 1_655
Mn7 O25 2.249955 1_655
Mn7 O15 2.295486 1_555
As0 O0 1.713203 1_555
As0 O4 1.713436 1_545
As0 O8 1.714191 1_555
As0 O12 1.796324 1_555
As1 O1 1.713203 1_555
As1 O5 1.713436 1_565
As1 O9 1.714191 1_555
As1 O13 1.796324 1_555
As2 O6 1.711587 1_555
As2 O10 1.713878 1_555
As2 O2 1.716150 1_555
As2 O14 1.794848 1_556
As3 O7 1.711587 1_555
As3 O11 1.713878 1_555
As3 O3 1.716150 1_555
As3 O15 1.794848 1_554
As4 O24 1.712479 1_555
As4 O20 1.716544 1_555
As4 O16 1.719962 1_555
As4 O28 1.764065 1_555
As5 O25 1.712479 1_555
As5 O21 1.716544 1_555
As5 O17 1.719962 1_555
As5 O29 1.764065 1_555
As6 O26 1.709172 1_565
As6 O22 1.717472 1_555
As6 O18 1.721191 1_555
As6 O30 1.770893 1_555
As7 O27 1.709172 1_545
As7 O23 1.717472 1_555
As7 O19 1.721191 1_555
As7 O31 1.770893 1_555
H0 O12 1.040657 1_565
H0 O16 1.552599 1_555
H1 O13 1.040657 1_545
H1 O17 1.552599 1_555
H2 O14 1.042020 1_555
H2 O18 1.546002 1_555
H3 O15 1.042020 1_555
H3 O19 1.546002 1_555
H4 O28 1.029474 1_555
H4 O3 1.558126 1_555
H5 O29 1.029474 1_555
H5 O2 1.558126 1_555
H6 O30 1.022388 1_555
H6 O1 1.621563 1_555
H7 O31 1.022388 1_555
H7 O0 1.621563 1_555
H8 O32 1.010199 1_555
H8 O0 1.652610 1_555
H9 O33 1.010199 1_555
H9 O1 1.652610 1_555
H10 O34 1.008090 1_545
H10 O2 1.665483 1_555
H11 O35 1.008090 1_565
H11 O3 1.665483 1_555
H12 O32 0.993944 1_555
H13 O33 0.993944 1_555
H14 O34 0.993127 1_555
H15 O35 0.993127 1_555
H16 O36 0.986977 1_555
H17 O37 0.986977 1_555
H18 O38 0.987965 1_555
H19 O39 0.987965 1_555
H20 O36 0.992437 1_556
H21 O37 0.992437 1_554
H22 O38 0.992785 1_555
H22 O2 1.743226 1_555
H23 O39 0.992785 1_555
H23 O3 1.743226 1_555
