# generated using pymatgen
data_Ho14(PbS8)3
_symmetry_space_group_name_H-M   'P 1'
_cell_length_a   7.27092200
_cell_length_b   7.27187817
_cell_length_c   18.36124068
_cell_angle_alpha   97.47692658
_cell_angle_beta   97.49958822
_cell_angle_gamma   109.90716777
_symmetry_Int_Tables_number   1
_chemical_formula_structural   Ho14(PbS8)3
_chemical_formula_sum   'Ho14 Pb3 S24'
_cell_volume   888.98970210
_cell_formula_units_Z   1
loop_
 _symmetry_equiv_pos_site_id
 _symmetry_equiv_pos_as_xyz
  1  'x, y, z'
loop_
 _atom_site_type_symbol
 _atom_site_label
 _atom_site_symmetry_multiplicity
 _atom_site_fract_x
 _atom_site_fract_y
 _atom_site_fract_z
 _atom_site_occupancy
  Ho  Ho0  1  0.15660600  0.78899100  0.94731400  1
  Ho  Ho1  1  0.46258900  0.81847700  0.78869000  1
  Ho  Ho2  1  0.51103900  0.12974300  0.62815000  1
  Ho  Ho3  1  0.50400100  0.38133800  0.87151000  1
  Ho  Ho4  1  0.79516400  0.16232900  0.46217700  1
  Ho  Ho5  1  0.82681000  0.45720900  0.28723300  1
  Ho  Ho6  1  0.03238500  0.17200800  0.71256600  1
  Ho  Ho7  1  0.84565500  0.70731100  0.55471300  1
  Ho  Ho8  1  0.95638300  0.20239600  0.91328300  1
  Ho  Ho9  1  0.12725400  0.49597500  0.12181800  1
  Ho  Ho10  1  0.37686800  0.50690200  0.37995700  1
  Ho  Ho11  1  0.17024200  0.03924900  0.21134500  1
  Ho  Ho12  1  0.29284700  0.54375700  0.58821700  1
  Ho  Ho13  1  0.70071700  0.83145400  0.03866000  1
  Pb  Pb0  1  0.20705700  0.96114200  0.41887600  1
  Pb  Pb1  1  0.53751000  0.28661900  0.07964400  1
  Pb  Pb2  1  0.62752900  0.87616900  0.25061900  1
  S  S0  1  0.17404300  0.03966000  0.83507900  1
  S  S1  1  0.54385800  0.03683900  0.94691600  1
  S  S2  1  0.41425100  0.41476600  0.71295500  1
  S  S3  1  0.68488500  0.83942000  0.66788800  1
  S  S4  1  0.76152000  0.76539600  0.88530400  1
  S  S5  1  0.70727700  0.20015900  0.78787000  1
  S  S6  1  0.76029800  0.74631500  0.38549500  1
  S  S7  1  0.02838000  0.18744100  0.33262500  1
  S  S8  1  0.88194100  0.37590600  0.61676200  1
  S  S9  1  0.08970300  0.09574900  0.55354900  1
  S  S10  1  0.20541700  0.83942400  0.66591700  1
  S  S11  1  0.04805100  0.53636700  0.45962200  1
  S  S12  1  0.36342100  0.87189400  0.11513700  1
  S  S13  1  0.17449700  0.51876800  0.83286000  1
  S  S14  1  0.07925100  0.08568100  0.04179400  1
  S  S15  1  0.35447400  0.50592900  0.99567900  1
  S  S16  1  0.20256400  0.70031300  0.28367900  1
  S  S17  1  0.41844800  0.41949800  0.21683500  1
  S  S18  1  0.50769900  0.37565300  0.50623200  1
  S  S19  1  0.53236100  0.18618900  0.33873200  1
  S  S20  1  0.51128100  0.85710400  0.50394700  1
  S  S21  1  0.84861400  0.69231600  0.16179200  1
  S  S22  1  0.87212900  0.49929800  0.99527700  1
  S  S23  1  0.85191100  0.19192100  0.16647900  1
loop_
_geom_bond_atom_site_label_1
_geom_bond_atom_site_label_2
_geom_bond_distance
_geom_bond_site_symmetry_2
Ho0 S13 2.732278 1_555
Ho0 S22 2.735452 1_455
Ho0 S1 2.780176 1_565
Ho0 S14 2.843860 1_566
Ho0 S4 2.887487 1_455
Ho0 S0 2.911020 1_565
Ho0 S15 3.042089 1_555
Ho0 S12 3.132019 1_556
Ho1 S5 2.743032 1_565
Ho1 S13 2.755001 1_555
Ho1 S4 2.786231 1_555
Ho1 S10 2.790046 1_555
Ho1 S3 2.900274 1_555
Ho1 S2 2.963634 1_555
Ho1 S1 3.003869 1_565
Ho1 S0 3.181508 1_565
Ho2 S10 2.732094 1_545
Ho2 S8 2.734581 1_555
Ho2 S2 2.766801 1_555
Ho2 S20 2.821027 1_545
Ho2 S3 2.926551 1_545
Ho2 S5 2.986281 1_555
Ho2 S18 3.044129 1_555
Ho2 S9 3.102125 1_555
Ho3 S0 2.732356 1_555
Ho3 S4 2.738776 1_555
Ho3 S5 2.769626 1_555
Ho3 S15 2.825071 1_555
Ho3 S13 2.934873 1_555
Ho3 S2 2.959170 1_555
Ho3 S22 3.066886 1_555
Ho3 S1 3.093396 1_555
Ho4 S11 2.726019 1_655
Ho4 S20 2.740712 1_545
Ho4 S9 2.759535 1_655
Ho4 S19 2.831322 1_555
Ho4 S8 2.929933 1_555
Ho4 S6 3.078076 1_545
Ho4 S7 3.085809 1_655
Ho4 S18 3.122854 1_555
Ho5 S16 2.716833 1_655
Ho5 S19 2.738958 1_555
Ho5 S6 2.800334 1_555
Ho5 S23 2.811238 1_555
Ho5 S7 2.958978 1_655
Ho5 S17 2.985528 1_555
Ho5 S21 3.031277 1_555
Ho5 S11 3.241001 1_655
Ho6 S2 2.734798 1_555
Ho6 S0 2.771463 1_555
Ho6 S3 2.772618 1_445
Ho6 S8 2.787541 1_455
Ho6 S13 2.912916 1_555
Ho6 S5 2.941167 1_455
Ho6 S9 3.009946 1_555
Ho6 S10 3.159101 1_545
Ho7 S18 2.735256 1_555
Ho7 S3 2.736211 1_555
Ho7 S9 2.782125 1_665
Ho7 S11 2.847977 1_655
Ho7 S8 2.871322 1_555
Ho7 S10 2.884165 1_655
Ho7 S20 3.072830 1_555
Ho7 S6 3.156780 1_555
Ho8 S0 2.719051 1_655
Ho8 S5 2.732192 1_555
Ho8 S14 2.752010 1_656
Ho8 S22 2.756591 1_555
Ho8 S4 2.947679 1_545
Ho8 S13 2.999877 1_655
Ho8 S1 3.007538 1_555
Ho8 S15 3.029178 1_655
Ho9 S12 2.716994 1_555
Ho9 S23 2.730413 1_455
Ho9 S22 2.785691 1_454
Ho9 S17 2.815296 1_555
Ho9 S21 2.960925 1_455
Ho9 S15 3.009961 1_554
Ho9 S14 3.032941 1_555
Ho9 S16 3.035159 1_555
Ho10 S6 2.718142 1_555
Ho10 S7 2.731940 1_555
Ho10 S18 2.794645 1_555
Ho10 S16 2.825858 1_555
Ho10 S20 2.973019 1_555
Ho10 S19 2.974862 1_555
Ho10 S11 3.013578 1_555
Ho10 S17 3.055801 1_555
Ho11 S17 2.719311 1_555
Ho11 S21 2.736939 1_445
Ho11 S12 2.797624 1_545
Ho11 S7 2.813554 1_555
Ho11 S23 2.959496 1_455
Ho11 S16 3.009793 1_545
Ho11 S19 3.061217 1_555
Ho11 S14 3.183011 1_555
Ho12 S10 2.726066 1_555
Ho12 S2 2.738605 1_555
Ho12 S11 2.747871 1_555
Ho12 S18 2.763366 1_555
Ho12 S8 2.963537 1_455
Ho12 S3 2.967695 1_555
Ho12 S9 3.022981 1_555
Ho12 S20 3.033690 1_555
Ho13 S14 2.731682 1_665
Ho13 S15 2.738806 1_554
Ho13 S1 2.771700 1_564
Ho13 S21 2.827227 1_555
Ho13 S4 2.910758 1_554
Ho13 S23 3.057888 1_565
Ho13 S12 3.058666 1_555
Ho13 S22 3.135354 1_554
Pb0 S9 2.879304 1_565
Pb0 S20 2.906957 1_555
Pb0 S16 2.910687 1_555
Pb0 S7 2.915640 1_565
Pb0 S6 3.023780 1_455
Pb0 S19 3.055716 1_565
Pb0 S18 3.126705 1_565
Pb0 S11 3.135762 1_555
Pb1 S1 2.859189 1_554
Pb1 S15 2.870715 1_554
Pb1 S17 2.921281 1_555
Pb1 S23 2.940815 1_555
Pb1 S12 3.041276 1_545
Pb1 S21 3.082549 1_555
Pb1 S14 3.088009 1_555
Pb1 S22 3.123440 1_554
Pb2 S6 2.926072 1_555
Pb2 S12 2.927292 1_555
Pb2 S19 2.929857 1_565
Pb2 S21 2.934622 1_555
Pb2 S23 3.057887 1_565
Pb2 S7 3.059445 1_665
Pb2 S17 3.082808 1_555
Pb2 S16 3.090631 1_555
