# generated using pymatgen
data_LiFe2P3O13
_symmetry_space_group_name_H-M   'P 1'
_cell_length_a   6.38190900
_cell_length_b   7.79741790
_cell_length_c   10.92681344
_cell_angle_alpha   74.76004621
_cell_angle_beta   85.20152170
_cell_angle_gamma   79.97385725
_symmetry_Int_Tables_number   1
_chemical_formula_structural   LiFe2P3O13
_chemical_formula_sum   'Li2 Fe4 P6 O26'
_cell_volume   516.20020316
_cell_formula_units_Z   2
loop_
 _symmetry_equiv_pos_site_id
 _symmetry_equiv_pos_as_xyz
  1  'x, y, z'
loop_
 _atom_site_type_symbol
 _atom_site_label
 _atom_site_symmetry_multiplicity
 _atom_site_fract_x
 _atom_site_fract_y
 _atom_site_fract_z
 _atom_site_occupancy
  Li  Li0  1  0.80570200  0.42054500  0.17509000  1
  Li  Li1  1  0.19429800  0.57945500  0.82491000  1
  Fe  Fe0  1  0.78442900  0.81907900  0.89856600  1
  Fe  Fe1  1  0.21557100  0.18092100  0.10143400  1
  Fe  Fe2  1  0.24353100  0.26526000  0.59944700  1
  Fe  Fe3  1  0.75646900  0.73474000  0.40055300  1
  P  P0  1  0.87385100  0.52321800  0.69778400  1
  P  P1  1  0.72985700  0.07322300  0.11406300  1
  P  P2  1  0.76342900  0.20053000  0.66206200  1
  P  P3  1  0.23657100  0.79947000  0.33793800  1
  P  P4  1  0.12614900  0.47678200  0.30221600  1
  P  P5  1  0.27014300  0.92677700  0.88593700  1
  O  O0  1  0.41443100  0.99172200  0.53018200  1
  O  O1  1  0.48558800  0.79896100  0.87435700  1
  O  O2  1  0.88596300  0.52572500  0.34031900  1
  O  O3  1  0.10559000  0.79897800  0.88939200  1
  O  O4  1  0.11403700  0.47427500  0.65968100  1
  O  O5  1  0.78243000  0.33425400  0.75198600  1
  O  O6  1  0.75804400  0.65123400  0.05448600  1
  O  O7  1  0.13012100  0.39471900  0.19017000  1
  O  O8  1  0.26290700  0.36445000  0.41183000  1
  O  O9  1  0.58556900  0.00827800  0.46981800  1
  O  O10  1  0.86987900  0.60528100  0.80983000  1
  O  O11  1  0.55128000  0.27262500  0.59804400  1
  O  O12  1  0.21757000  0.66574600  0.24801400  1
  O  O13  1  0.95902500  0.21003000  0.56991400  1
  O  O14  1  0.51441200  0.20103900  0.12564300  1
  O  O15  1  0.89441000  0.20102200  0.11060800  1
  O  O16  1  0.76881100  0.00844200  0.74143400  1
  O  O17  1  0.75431300  0.91294500  0.23193200  1
  O  O18  1  0.23118900  0.99155800  0.25856600  1
  O  O19  1  0.73709300  0.63555000  0.58817000  1
  O  O20  1  0.04097500  0.78997000  0.43008600  1
  O  O21  1  0.24195600  0.34876600  0.94551400  1
  O  O22  1  0.25583800  0.98687300  0.00863900  1
  O  O23  1  0.74416200  0.01312700  0.99136100  1
  O  O24  1  0.44872000  0.72737500  0.40195600  1
  O  O25  1  0.24568700  0.08705500  0.76806800  1
loop_
_geom_bond_atom_site_label_1
_geom_bond_atom_site_label_2
_geom_bond_distance
_geom_bond_site_symmetry_2
Li0 O6 1.922266 1_555
Li0 O15 1.994189 1_555
Li0 O7 2.061254 1_655
Li0 O2 2.296513 1_555
Li1 O21 1.922266 1_555
Li1 O3 1.994189 1_555
Li1 O10 2.061254 1_455
Li1 O4 2.296513 1_555
Fe0 O6 1.870918 1_556
Fe0 O16 1.944899 1_565
Fe0 O1 1.985521 1_555
Fe0 O23 2.002775 1_565
Fe0 O3 2.024250 1_655
Fe0 O10 2.112206 1_555
Fe1 O21 1.870918 1_554
Fe1 O18 1.944899 1_545
Fe1 O14 1.985521 1_555
Fe1 O22 2.002775 1_545
Fe1 O15 2.024250 1_455
Fe1 O7 2.112206 1_555
Fe2 O4 1.943264 1_555
Fe2 O11 1.973501 1_555
Fe2 O8 1.993371 1_555
Fe2 O25 1.994341 1_555
Fe2 O13 2.007407 1_455
Fe2 O0 2.492419 1_545
Fe3 O2 1.943264 1_555
Fe3 O24 1.973501 1_555
Fe3 O19 1.993371 1_555
Fe3 O17 1.994341 1_555
Fe3 O20 2.007407 1_655
Fe3 O9 2.492419 1_565
O0 O9 1.236284 1_565
O1 P5 1.568385 1_555
O2 P4 1.562585 1_655
O3 P5 1.560530 1_555
O4 P0 1.562585 1_455
O5 P0 1.626320 1_555
O5 P2 1.634009 1_555
O7 P4 1.519878 1_555
O8 P4 1.523376 1_555
O10 P0 1.519878 1_555
O11 P2 1.524836 1_555
O12 P4 1.626320 1_555
O12 P3 1.634009 1_555
O13 P2 1.536295 1_555
O14 P1 1.568385 1_555
O15 P1 1.560530 1_555
O16 P2 1.516867 1_555
O17 P1 1.537701 1_565
O18 P3 1.516867 1_555
O19 P0 1.523376 1_555
O20 P3 1.536295 1_555
O22 P5 1.523293 1_554
O23 P1 1.523293 1_556
O24 P3 1.524836 1_555
O25 P5 1.537701 1_545
