# generated using pymatgen
data_Cs2Tb6Te7N2
_symmetry_space_group_name_H-M   'P 1'
_cell_length_a   12.32612614
_cell_length_b   12.32612614
_cell_length_c   11.53593221
_cell_angle_alpha   76.49964391
_cell_angle_beta   76.49964391
_cell_angle_gamma   19.72816088
_symmetry_Int_Tables_number   1
_chemical_formula_structural   Cs2Tb6Te7N2
_chemical_formula_sum   'Cs2 Tb6 Te7 N2'
_cell_volume   574.78622575
_cell_formula_units_Z   1
loop_
 _symmetry_equiv_pos_site_id
 _symmetry_equiv_pos_as_xyz
  1  'x, y, z'
loop_
 _atom_site_type_symbol
 _atom_site_label
 _atom_site_symmetry_multiplicity
 _atom_site_fract_x
 _atom_site_fract_y
 _atom_site_fract_z
 _atom_site_occupancy
  Cs  Cs0  1  0.06797800  0.06797800  0.30049900  1
  Cs  Cs1  1  0.93599700  0.93599700  0.69600200  1
  Tb  Tb0  1  0.16530600  0.16530600  0.61110300  1
  Tb  Tb1  1  0.83568500  0.83568500  0.38895300  1
  Tb  Tb2  1  0.59192600  0.59192600  0.86405500  1
  Tb  Tb3  1  0.40946200  0.40946200  0.13802200  1
  Tb  Tb4  1  0.78567000  0.78567000  0.12998800  1
  Tb  Tb5  1  0.21622400  0.21622400  0.86843900  1
  Te  Te0  1  0.66490400  0.66490400  0.05676500  1
  Te  Te1  1  0.33643900  0.33643900  0.94247500  1
  Te  Te2  1  0.00120600  0.00120600  0.00307100  1
  Te  Te3  1  0.76062900  0.76062900  0.66105600  1
  Te  Te4  1  0.57615900  0.57615900  0.59686500  1
  Te  Te5  1  0.42485600  0.42485600  0.40421500  1
  Te  Te6  1  0.24183100  0.24183100  0.33875800  1
  N  N0  1  0.13827100  0.13827100  0.80517800  1
  N  N1  1  0.86318200  0.86318200  0.19458200  1
loop_
_geom_bond_atom_site_label_1
_geom_bond_atom_site_label_2
_geom_bond_distance
_geom_bond_site_symmetry_2
Cs0 Te0 3.843121 1_455
Cs0 Te0 3.843121 1_545
Cs0 Te5 4.000352 1_455
Cs0 Te5 4.000352 1_545
Cs0 Te4 4.063114 1_455
Cs0 Te4 4.063114 1_545
Cs0 Te2 4.127903 1_555
Cs0 Te6 4.348283 1_555
Cs1 Te1 3.889979 1_565
Cs1 Te1 3.889979 1_655
Cs1 Te4 3.938343 1_565
Cs1 Te4 3.938343 1_655
Cs1 Te5 4.036575 1_565
Cs1 Te5 4.036575 1_655
Cs1 Te2 4.208945 1_666
Cs1 Te3 4.372407 1_555
Tb0 Te4 3.056538 1_545
Tb0 Te4 3.056538 1_455
Tb0 Te6 3.249275 1_555
Tb0 Te3 3.283794 1_545
Tb0 Te3 3.283794 1_455
Tb1 Te5 3.059598 1_655
Tb1 Te5 3.059598 1_565
Tb1 Te3 3.234878 1_555
Tb1 Te6 3.258200 1_655
Tb1 Te6 3.258200 1_565
Tb2 Te0 3.154548 1_556
Tb2 Te4 3.194763 1_555
Tb2 Te2 3.195470 1_656
Tb2 Te2 3.195470 1_566
Tb3 Te5 3.180191 1_555
Tb3 Te1 3.182812 1_554
Tb3 Te2 3.194317 1_655
Tb3 Te2 3.194317 1_565
Tb4 Te1 3.065037 1_564
Tb4 Te1 3.065037 1_654
Tb4 Te6 3.190222 1_655
Tb4 Te6 3.190222 1_565
Tb4 Te0 3.238981 1_555
Tb5 Te0 3.073928 1_456
Tb5 Te0 3.073928 1_546
Tb5 Te3 3.181612 1_455
Tb5 Te3 3.181612 1_545
Tb5 Te1 3.230514 1_555
N0 Tb0 2.178729 1_555
N0 Tb5 2.184486 1_555
N0 Tb2 2.413484 1_545
N0 Tb2 2.413484 1_455
N1 Tb1 2.182668 1_555
N1 Tb4 2.182712 1_555
N1 Tb3 2.408423 1_655
N1 Tb3 2.408423 1_565
