# generated using pymatgen
data_Er2Fe3Si5
_symmetry_space_group_name_H-M   'P 1'
_cell_length_a   10.27052965
_cell_length_b   10.27052719
_cell_length_c   5.42953395
_cell_angle_alpha   90.00000000
_cell_angle_beta   90.00000000
_cell_angle_gamma   90.00012820
_symmetry_Int_Tables_number   1
_chemical_formula_structural   Er2Fe3Si5
_chemical_formula_sum   'Er8 Fe12 Si20'
_cell_volume   572.72762366
_cell_formula_units_Z   4
loop_
 _symmetry_equiv_pos_site_id
 _symmetry_equiv_pos_as_xyz
  1  'x, y, z'
loop_
 _atom_site_type_symbol
 _atom_site_label
 _atom_site_symmetry_multiplicity
 _atom_site_fract_x
 _atom_site_fract_y
 _atom_site_fract_z
 _atom_site_occupancy
  Er  Er0  1  0.06934899  0.76289124  0.00000000  1
  Er  Er1  1  0.76289163  0.93065120  0.00000000  1
  Er  Er2  1  0.73710898  0.43065101  0.50000000  1
  Er  Er3  1  0.23710714  0.06934781  0.00000000  1
  Er  Er4  1  0.26289039  0.56934994  0.50000000  1
  Er  Er5  1  0.43065015  0.26288993  0.50000000  1
  Er  Er6  1  0.56934916  0.73710925  0.50000000  1
  Er  Er7  1  0.93065088  0.23710738  0.00000000  1
  Fe  Fe0  1  0.62345410  0.35450156  0.00000000  1
  Fe  Fe1  1  0.64549843  0.62345897  0.00000000  1
  Fe  Fe2  1  0.85450284  0.12345180  0.50000000  1
  Fe  Fe3  1  0.37654441  0.64550078  0.00000000  1
  Fe  Fe4  1  0.14549755  0.87654344  0.50000000  1
  Fe  Fe5  1  0.35450206  0.37654544  0.00000000  1
  Fe  Fe6  1  0.87654446  0.85450458  0.50000000  1
  Fe  Fe7  1  0.00000041  0.50000127  0.74999879  1
  Fe  Fe8  1  0.12345566  0.14549370  0.50000000  1
  Fe  Fe9  1  0.49999922  -0.00000184  0.25000091  1
  Fe  Fe10  1  0.49999922  -0.00000184  0.74999909  1
  Fe  Fe11  1  0.00000041  0.50000127  0.25000121  1
  Si  Si0  1  0.00000038  -0.00000135  0.73189707  1
  Si  Si1  1  0.32285323  0.82285255  0.75000055  1
  Si  Si2  1  0.47841733  0.17914905  0.00000000  1
  Si  Si3  1  0.17714794  0.32285221  0.75000094  1
  Si  Si4  1  0.50000033  0.50000141  0.23189500  1
  Si  Si5  1  0.67914887  0.97841695  0.50000000  1
  Si  Si6  1  0.00000038  -0.00000135  0.26810293  1
  Si  Si7  1  0.17914975  0.52158164  0.00000000  1
  Si  Si8  1  0.17714794  0.32285221  0.24999906  1
  Si  Si9  1  0.50000033  0.50000141  0.76810500  1
  Si  Si10  1  0.32085009  0.02158281  0.50000000  1
  Si  Si11  1  0.32285323  0.82285255  0.24999945  1
  Si  Si12  1  0.82285218  0.67714861  0.25000141  1
  Si  Si13  1  0.82285218  0.67714861  0.74999859  1
  Si  Si14  1  0.97841739  0.32085084  0.50000000  1
  Si  Si15  1  0.82085074  0.47841872  0.00000000  1
  Si  Si16  1  0.02158323  0.67914969  0.50000000  1
  Si  Si17  1  0.67714668  0.17714724  0.25000119  1
  Si  Si18  1  0.67714668  0.17714724  0.74999881  1
  Si  Si19  1  0.52158301  0.82085005  0.00000000  1
loop_
_geom_bond_atom_site_label_1
_geom_bond_atom_site_label_2
_geom_bond_distance
_geom_bond_site_symmetry_2
Er0 Si7 2.722884 1_555
Er0 Si16 2.889697 1_555
Er0 Si16 2.889697 1_554
Er0 Si6 2.925163 1_565
Er0 Si0 2.925163 1_564
Er0 Si11 3.000096 1_555
Er0 Si1 3.000096 1_554
Er0 Si12 3.004540 1_455
Er0 Si13 3.004540 1_454
Er0 Fe4 3.056817 1_555
Er0 Fe4 3.056817 1_554
Er0 Fe7 3.104818 1_554
Er0 Fe11 3.104818 1_555
Er1 Si19 2.722873 1_555
Er1 Si5 2.889701 1_555
Er1 Si5 2.889701 1_554
Er1 Si6 2.925169 1_665
Er1 Si0 2.925169 1_664
Er1 Si13 3.000087 1_554
Er1 Si12 3.000087 1_555
Er1 Si18 3.004543 1_564
Er1 Si17 3.004543 1_565
Er1 Fe6 3.056816 1_555
Er1 Fe6 3.056816 1_554
Er1 Fe10 3.104839 1_564
Er1 Fe9 3.104839 1_565
Er2 Si14 2.722871 1_555
Er2 Si15 2.889701 1_556
Er2 Si15 2.889701 1_555
Er2 Si9 2.925184 1_555
Er2 Si4 2.925184 1_555
Er2 Si17 3.000092 1_555
Er2 Si18 3.000092 1_555
Er2 Si12 3.004541 1_555
Er2 Si13 3.004541 1_555
Er2 Fe0 3.056830 1_556
Er2 Fe0 3.056830 1_555
Er2 Fe11 3.104830 1_655
Er2 Fe7 3.104830 1_655
Er3 Si2 2.722888 1_555
Er3 Si10 2.889700 1_554
Er3 Si10 2.889700 1_555
Er3 Si0 2.925156 1_554
Er3 Si6 2.925156 1_555
Er3 Si8 3.000094 1_555
Er3 Si3 3.000094 1_554
Er3 Si11 3.004535 1_545
Er3 Si1 3.004535 1_544
Er3 Fe8 3.056808 1_555
Er3 Fe8 3.056808 1_554
Er3 Fe10 3.104842 1_554
Er3 Fe9 3.104842 1_555
Er4 Si16 2.722858 1_555
Er4 Si7 2.889698 1_555
Er4 Si7 2.889698 1_556
Er4 Si4 2.925190 1_555
Er4 Si9 2.925190 1_555
Er4 Si1 3.000087 1_555
Er4 Si11 3.000087 1_555
Er4 Si3 3.004546 1_555
Er4 Si8 3.004546 1_555
Er4 Fe3 3.056830 1_555
Er4 Fe3 3.056830 1_556
Er4 Fe7 3.104813 1_555
Er4 Fe11 3.104813 1_555
Er5 Si10 2.722853 1_555
Er5 Si2 2.889698 1_556
Er5 Si2 2.889698 1_555
Er5 Si4 2.925204 1_555
Er5 Si9 2.925204 1_555
Er5 Si3 3.000086 1_555
Er5 Si8 3.000086 1_555
Er5 Si18 3.004535 1_555
Er5 Si17 3.004535 1_555
Er5 Fe5 3.056830 1_555
Er5 Fe5 3.056830 1_556
Er5 Fe9 3.104833 1_555
Er5 Fe10 3.104833 1_555
Er6 Si5 2.722857 1_555
Er6 Si19 2.889696 1_556
Er6 Si19 2.889696 1_555
Er6 Si4 2.925170 1_555
Er6 Si9 2.925170 1_555
Er6 Si12 3.000084 1_555
Er6 Si13 3.000084 1_555
Er6 Si1 3.004536 1_555
Er6 Si11 3.004536 1_555
Er6 Fe1 3.056812 1_556
Er6 Fe1 3.056812 1_555
Er6 Fe9 3.104809 1_565
Er6 Fe10 3.104809 1_565
Er7 Si15 2.722898 1_555
Er7 Si14 2.889704 1_555
Er7 Si14 2.889704 1_554
Er7 Si6 2.925176 1_655
Er7 Si0 2.925176 1_654
Er7 Si17 3.000098 1_555
Er7 Si18 3.000098 1_554
Er7 Si8 3.004543 1_655
Er7 Si3 3.004543 1_654
Er7 Fe2 3.056829 1_555
Er7 Fe2 3.056829 1_554
Er7 Fe11 3.104855 1_655
Er7 Fe7 3.104855 1_654
Fe0 Si9 2.329392 1_554
Fe0 Si4 2.329392 1_555
Fe0 Si2 2.337173 1_555
Fe0 Si18 2.337639 1_554
Fe0 Si17 2.337639 1_555
Fe0 Si15 2.393734 1_555
Fe1 Si9 2.329398 1_554
Fe1 Si4 2.329398 1_555
Fe1 Si15 2.337199 1_555
Fe1 Si13 2.337626 1_554
Fe1 Si12 2.337626 1_555
Fe1 Si19 2.393680 1_555
Fe2 Si6 2.329380 1_655
Fe2 Si0 2.329380 1_655
Fe2 Si5 2.337172 1_545
Fe2 Si18 2.337653 1_555
Fe2 Si17 2.337653 1_555
Fe2 Si14 2.393740 1_555
Fe3 Si4 2.329401 1_555
Fe3 Si9 2.329401 1_554
Fe3 Si19 2.337159 1_555
Fe3 Si11 2.337609 1_555
Fe3 Si1 2.337609 1_554
Fe3 Si7 2.393727 1_555
Fe4 Si0 2.329389 1_565
Fe4 Si6 2.329389 1_565
Fe4 Si10 2.337190 1_565
Fe4 Si11 2.337644 1_555
Fe4 Si1 2.337644 1_555
Fe4 Si16 2.393693 1_555
Fe5 Si9 2.329391 1_554
Fe5 Si4 2.329391 1_555
Fe5 Si7 2.337173 1_555
Fe5 Si8 2.337630 1_555
Fe5 Si3 2.337630 1_554
Fe5 Si2 2.393726 1_555
Fe6 Si0 2.329369 1_665
Fe6 Si6 2.329369 1_665
Fe6 Si16 2.337210 1_655
Fe6 Si13 2.337641 1_555
Fe6 Si12 2.337641 1_555
Fe6 Si5 2.393703 1_555
Fe7 Si16 2.297176 1_555
Fe7 Si7 2.297189 1_556
Fe7 Si14 2.297193 1_455
Fe7 Si15 2.297194 1_456
Fe7 Si13 2.573025 1_455
Fe7 Si3 2.573032 1_555
Fe8 Si6 2.329372 1_555
Fe8 Si0 2.329372 1_555
Fe8 Si14 2.337224 1_455
Fe8 Si3 2.337669 1_555
Fe8 Si8 2.337669 1_555
Fe8 Si10 2.393685 1_555
Fe9 Si19 2.297182 1_545
Fe9 Si10 2.297186 1_555
Fe9 Si5 2.297187 1_545
Fe9 Si2 2.297203 1_555
Fe9 Si11 2.572990 1_545
Fe9 Si17 2.573026 1_555
Fe10 Si19 2.297182 1_546
Fe10 Si10 2.297186 1_555
Fe10 Si5 2.297187 1_545
Fe10 Si2 2.297203 1_556
Fe10 Si1 2.572990 1_545
Fe10 Si18 2.573026 1_555
Fe10 Fe9 2.714757 1_555
Fe10 Fe9 2.714777 1_556
Fe11 Si16 2.297176 1_555
Fe11 Si7 2.297189 1_555
Fe11 Si14 2.297193 1_455
Fe11 Si15 2.297194 1_455
Fe11 Si12 2.573025 1_455
Fe11 Si8 2.573032 1_555
Fe11 Fe7 2.714754 1_555
Fe11 Fe7 2.714780 1_554
Si1 Si19 2.451292 1_556
Si1 Si10 2.451299 1_565
Si1 Si11 2.714761 1_556
Si1 Si11 2.714773 1_555
Si3 Si7 2.451287 1_556
Si3 Si8 2.714757 1_556
Si3 Si8 2.714777 1_555
Si7 Si8 2.451287 1_555
Si10 Si11 2.451299 1_545
Si11 Si19 2.451292 1_555
Si12 Si15 2.451298 1_555
Si12 Si16 2.451300 1_655
Si12 Si13 2.714752 1_555
Si12 Si13 2.714782 1_554
Si13 Si15 2.451298 1_556
Si13 Si16 2.451300 1_655
Si14 Si8 2.451303 1_655
Si14 Si3 2.451303 1_655
Si17 Si2 2.451293 1_555
Si17 Si5 2.451294 1_545
Si17 Si18 2.714754 1_555
Si17 Si18 2.714780 1_554
Si18 Si2 2.451293 1_556
Si18 Si5 2.451294 1_545
