# generated using pymatgen
data_HoNi2
_symmetry_space_group_name_H-M   'P 1'
_cell_length_a   4.99621901
_cell_length_b   4.99622441
_cell_length_c   4.99622390
_cell_angle_alpha   59.99996820
_cell_angle_beta   59.99993566
_cell_angle_gamma   59.99993640
_symmetry_Int_Tables_number   1
_chemical_formula_structural   HoNi2
_chemical_formula_sum   'Ho2 Ni4'
_cell_volume   88.18805716
_cell_formula_units_Z   2
loop_
 _symmetry_equiv_pos_site_id
 _symmetry_equiv_pos_as_xyz
  1  'x, y, z'
loop_
 _atom_site_type_symbol
 _atom_site_label
 _atom_site_symmetry_multiplicity
 _atom_site_fract_x
 _atom_site_fract_y
 _atom_site_fract_z
 _atom_site_occupancy
  Ho  Ho0  1  0.12499900  0.12500000  0.12500000  1
  Ho  Ho1  1  0.87500100  0.87500000  0.87500000  1
  Ni  Ni0  1  0.50000000  0.00000000  0.50000000  1
  Ni  Ni1  1  -0.00000000  0.50000000  0.50000000  1
  Ni  Ni2  1  0.50000000  0.50000000  0.50000000  1
  Ni  Ni3  1  0.50000000  0.50000000  -0.00000000  1
loop_
_geom_bond_atom_site_label_1
_geom_bond_atom_site_label_2
_geom_bond_distance
_geom_bond_site_symmetry_2
Ho0 Ni0 2.929288 1_455
Ho0 Ni3 2.929288 1_455
Ho0 Ni2 2.929289 1_455
Ho0 Ni1 2.929293 1_554
Ho0 Ni1 2.929293 1_545
Ho0 Ni0 2.929294 1_554
Ho0 Ni3 2.929294 1_545
Ho0 Ni2 2.929296 1_554
Ho0 Ni2 2.929296 1_545
Ho0 Ni1 2.929298 1_555
Ho0 Ni0 2.929299 1_555
Ho0 Ni3 2.929299 1_555
Ho1 Ni0 2.929288 1_665
Ho1 Ni3 2.929288 1_656
Ho1 Ni2 2.929289 1_655
Ho1 Ni1 2.929293 1_656
Ho1 Ni1 2.929293 1_665
Ho1 Ni0 2.929294 1_566
Ho1 Ni3 2.929294 1_566
Ho1 Ni2 2.929296 1_556
Ho1 Ni2 2.929296 1_565
Ho1 Ni1 2.929298 1_655
Ho1 Ni0 2.929299 1_565
Ho1 Ni3 2.929299 1_556
Ni0 Ni1 2.498108 1_555
Ni0 Ni1 2.498108 1_645
Ni0 Ni3 2.498111 1_546
Ni0 Ni3 2.498111 1_555
Ni0 Ni2 2.498112 1_555
Ni0 Ni2 2.498112 1_545
Ni1 Ni3 2.498108 1_456
Ni1 Ni3 2.498108 1_555
Ni1 Ni2 2.498110 1_455
Ni1 Ni2 2.498110 1_555
Ni2 Ni3 2.498112 1_556
Ni2 Ni3 2.498112 1_555
