# generated using pymatgen
data_NaYb3Ti2(SbO7)2
_symmetry_space_group_name_H-M   'P 1'
_cell_length_a   7.27301500
_cell_length_b   7.34188800
_cell_length_c   12.64255393
_cell_angle_alpha   54.88513067
_cell_angle_beta   90.00000000
_cell_angle_gamma   90.00000000
_symmetry_Int_Tables_number   1
_chemical_formula_structural   NaYb3Ti2(SbO7)2
_chemical_formula_sum   'Na2 Yb6 Ti4 Sb4 O28'
_cell_volume   552.21805767
_cell_formula_units_Z   2
loop_
 _symmetry_equiv_pos_site_id
 _symmetry_equiv_pos_as_xyz
  1  'x, y, z'
loop_
 _atom_site_type_symbol
 _atom_site_label
 _atom_site_symmetry_multiplicity
 _atom_site_fract_x
 _atom_site_fract_y
 _atom_site_fract_z
 _atom_site_occupancy
  Na  Na0  1  0.00000000  0.50000000  0.00000000  1
  Na  Na1  1  0.00000000  0.50000000  0.50000000  1
  Yb  Yb0  1  0.24832300  0.00000000  0.75000000  1
  Yb  Yb1  1  0.24999200  0.50000000  0.75000000  1
  Yb  Yb2  1  0.75167700  0.00000000  0.25000000  1
  Yb  Yb3  1  0.75000800  0.50000000  0.25000000  1
  Yb  Yb4  1  0.50000000  0.50000000  0.00000000  1
  Yb  Yb5  1  0.50000000  0.50000000  0.50000000  1
  Ti  Ti0  1  0.25973100  0.00000000  0.25000000  1
  Ti  Ti1  1  0.74026900  0.00000000  0.75000000  1
  Ti  Ti2  1  0.50000000  0.00000000  0.50000000  1
  Ti  Ti3  1  0.50000000  0.00000000  0.00000000  1
  Sb  Sb0  1  0.00000000  0.00000000  0.00000000  1
  Sb  Sb1  1  0.25328900  0.50000000  0.25000000  1
  Sb  Sb2  1  0.00000000  0.00000000  0.50000000  1
  Sb  Sb3  1  0.74671100  0.50000000  0.75000000  1
  O  O0  1  0.26345000  0.62937000  0.86981100  1
  O  O1  1  0.04918100  0.06055600  0.13059500  1
  O  O2  1  0.25122600  0.07279200  0.92357600  1
  O  O3  1  0.73655000  0.62937000  0.36981100  1
  O  O4  1  0.04368800  0.66772100  0.12883800  1
  O  O5  1  0.55427100  0.06849000  0.62328000  1
  O  O6  1  0.04368800  0.33227900  0.37116200  1
  O  O7  1  0.95081900  0.06055600  0.63059500  1
  O  O8  1  0.26075100  0.31928800  0.17621600  1
  O  O9  1  0.74877400  0.07279200  0.42357600  1
  O  O10  1  0.73924900  0.68071200  0.82378400  1
  O  O11  1  0.54586400  0.67285400  0.62364200  1
  O  O12  1  0.04918100  0.93944400  0.36940500  1
  O  O13  1  0.95631200  0.66772100  0.62883800  1
  O  O14  1  0.54586400  0.32714600  0.87635800  1
  O  O15  1  0.95631200  0.33227900  0.87116200  1
  O  O16  1  0.44572900  0.06849000  0.12328000  1
  O  O17  1  0.26345000  0.37063000  0.63018900  1
  O  O18  1  0.73924900  0.31928800  0.67621600  1
  O  O19  1  0.74877400  0.92720800  0.07642400  1
  O  O20  1  0.26075100  0.68071200  0.32378400  1
  O  O21  1  0.95081900  0.93944400  0.86940500  1
  O  O22  1  0.55427100  0.93151000  0.87672000  1
  O  O23  1  0.45413600  0.67285400  0.12364200  1
  O  O24  1  0.45413600  0.32714600  0.37635800  1
  O  O25  1  0.73655000  0.37063000  0.13018900  1
  O  O26  1  0.25122600  0.92720800  0.57642400  1
  O  O27  1  0.44572900  0.93151000  0.37672000  1
loop_
_geom_bond_atom_site_label_1
_geom_bond_atom_site_label_2
_geom_bond_distance
_geom_bond_site_symmetry_2
Na0 O25 2.341806 1_455
Na0 O0 2.341806 1_554
Na0 O15 2.564737 1_454
Na0 O4 2.564737 1_555
Na0 O10 2.630503 1_454
Na0 O8 2.630503 1_555
Na0 O21 2.671147 1_454
Na0 O1 2.671147 1_555
Na1 O3 2.341806 1_455
Na1 O17 2.341806 1_555
Na1 O6 2.564737 1_555
Na1 O13 2.564737 1_455
Na1 O20 2.630503 1_555
Na1 O18 2.630503 1_455
Na1 O12 2.671147 1_555
Na1 O7 2.671147 1_455
O0 Yb4 2.184626 1_556
O0 Yb1 2.204824 1_555
O0 Yb0 2.229171 1_565
O1 Sb0 1.973846 1_555
O1 Ti0 2.012305 1_555
O1 Yb2 2.527095 1_455
O2 Ti3 1.974539 1_556
O2 Sb0 1.990893 1_556
O2 Yb0 2.539853 1_555
O2 Yb1 2.595197 1_555
O3 Yb5 2.184626 1_555
O3 Yb3 2.204824 1_555
O3 Yb2 2.229171 1_565
O4 Sb1 2.004150 1_555
O4 Sb0 2.033246 1_565
O4 Yb3 2.500992 1_455
O5 Ti1 1.929420 1_555
O5 Ti2 1.933760 1_555
O5 Yb0 2.616112 1_555
O5 Yb5 2.634630 1_555
O6 Sb1 2.004150 1_555
O6 Sb2 2.033246 1_555
O6 Yb3 2.500992 1_455
O7 Sb2 1.973846 1_655
O7 Ti1 2.012305 1_555
O7 Yb0 2.527095 1_655
O8 Ti0 1.962071 1_555
O8 Sb1 2.014255 1_555
O8 Yb4 2.520090 1_555
O9 Ti2 1.974539 1_555
O9 Sb2 1.990893 1_655
O9 Yb2 2.539853 1_555
O9 Yb3 2.595197 1_555
O10 Ti1 1.962071 1_565
O10 Sb3 2.014255 1_555
O10 Yb4 2.520090 1_556
O11 Sb3 1.990988 1_555
O11 Ti2 2.001098 1_565
O11 Yb5 2.539181 1_555
O11 Yb1 2.541810 1_555
O12 Sb2 1.973846 1_565
O12 Ti0 2.012305 1_565
O12 Yb2 2.527095 1_465
O13 Sb3 2.004150 1_555
O13 Sb2 2.033246 1_665
O13 Yb1 2.500992 1_655
O14 Sb3 1.990988 1_555
O14 Ti3 2.001098 1_556
O14 Yb4 2.539181 1_556
O14 Yb1 2.541810 1_555
O15 Sb3 2.004150 1_555
O15 Sb0 2.033246 1_656
O15 Yb1 2.500992 1_655
O16 Ti0 1.929420 1_555
O16 Ti3 1.933760 1_555
O16 Yb2 2.616112 1_555
O16 Yb4 2.634630 1_555
O17 Yb5 2.184626 1_555
O17 Yb1 2.204824 1_555
O17 Yb0 2.229171 1_555
O18 Ti1 1.962071 1_555
O18 Sb3 2.014255 1_555
O18 Yb5 2.520090 1_555
O19 Ti3 1.974539 1_565
O19 Sb0 1.990893 1_665
O19 Yb2 2.539853 1_565
O19 Yb3 2.595197 1_555
O20 Ti0 1.962071 1_565
O20 Sb1 2.014255 1_555
O20 Yb5 2.520090 1_555
O21 Sb0 1.973846 1_666
O21 Ti1 2.012305 1_565
O21 Yb0 2.527095 1_665
O22 Ti1 1.929420 1_565
O22 Ti3 1.933760 1_566
O22 Yb0 2.616112 1_565
O22 Yb4 2.634630 1_556
O23 Sb1 1.990988 1_555
O23 Ti3 2.001098 1_565
O23 Yb4 2.539181 1_555
O23 Yb3 2.541810 1_555
O24 Sb1 1.990988 1_555
O24 Ti2 2.001098 1_555
O24 Yb5 2.539181 1_555
O24 Yb3 2.541810 1_555
O25 Yb4 2.184626 1_555
O25 Yb3 2.204824 1_555
O25 Yb2 2.229171 1_555
O26 Ti2 1.974539 1_565
O26 Sb2 1.990893 1_565
O26 Yb0 2.539853 1_565
O26 Yb1 2.595197 1_555
O27 Ti0 1.929420 1_565
O27 Ti2 1.933760 1_565
O27 Yb2 2.616112 1_565
O27 Yb5 2.634630 1_555
