# generated using pymatgen
data_Ca3Ni2H8C10(S4O13)2
_symmetry_space_group_name_H-M   'P 1'
_cell_length_a   16.09412825
_cell_length_b   16.09412825
_cell_length_c   7.27274000
_cell_angle_alpha   90.00000000
_cell_angle_beta   90.00000000
_cell_angle_gamma   90.42757455
_symmetry_Int_Tables_number   1
_chemical_formula_structural   Ca3Ni2H8C10(S4O13)2
_chemical_formula_sum   'Ca6 Ni4 H16 C20 S16 O52'
_cell_volume   1883.73967194
_cell_formula_units_Z   2
loop_
 _symmetry_equiv_pos_site_id
 _symmetry_equiv_pos_as_xyz
  1  'x, y, z'
loop_
 _atom_site_type_symbol
 _atom_site_label
 _atom_site_symmetry_multiplicity
 _atom_site_fract_x
 _atom_site_fract_y
 _atom_site_fract_z
 _atom_site_occupancy
  Ca  Ca0  1  0.63627400  0.36372600  0.50000000  1
  Ca  Ca1  1  0.13627400  0.86372600  0.00000000  1
  Ca  Ca2  1  0.86372600  0.13627400  0.00000000  1
  Ca  Ca3  1  0.36372600  0.63627400  0.50000000  1
  Ca  Ca4  1  0.50000000  0.50000000  0.00000000  1
  Ca  Ca5  1  0.00000000  0.00000000  0.50000000  1
  Ni  Ni0  1  0.00000000  0.50000000  0.53780100  1
  Ni  Ni1  1  0.00000000  0.50000000  0.03780100  1
  Ni  Ni2  1  0.50000000  0.00000000  0.96219900  1
  Ni  Ni3  1  0.50000000  0.00000000  0.46219900  1
  H  H0  1  0.73899400  0.33949500  0.14143700  1
  H  H1  1  0.16050500  0.76100600  0.64143700  1
  H  H2  1  0.83949500  0.23899400  0.64143700  1
  H  H3  1  0.26100600  0.66050500  0.14143700  1
  H  H4  1  0.76100600  0.16050500  0.35856300  1
  H  H5  1  0.33949500  0.73899400  0.85856300  1
  H  H6  1  0.66050500  0.26100600  0.85856300  1
  H  H7  1  0.23899400  0.83949500  0.35856300  1
  H  H8  1  0.68790100  0.42332900  0.13079500  1
  H  H9  1  0.07667100  0.81209900  0.63079500  1
  H  H10  1  0.92332900  0.18790100  0.63079500  1
  H  H11  1  0.31209900  0.57667100  0.13079500  1
  H  H12  1  0.81209900  0.07667100  0.36920500  1
  H  H13  1  0.42332900  0.68790100  0.86920500  1
  H  H14  1  0.57667100  0.31209900  0.86920500  1
  H  H15  1  0.18790100  0.92332900  0.36920500  1
  C  C0  1  0.84041700  0.38995100  0.55179400  1
  C  C1  1  0.11004900  0.65958300  0.05179400  1
  C  C2  1  0.88995100  0.34041700  0.05179400  1
  C  C3  1  0.15958300  0.61004900  0.55179400  1
  C  C4  1  0.65958300  0.11004900  0.94820600  1
  C  C5  1  0.38995100  0.84041700  0.44820600  1
  C  C6  1  0.61004900  0.15958300  0.44820600  1
  C  C7  1  0.34041700  0.88995100  0.94820600  1
  C  C8  1  0.80652100  0.47908900  0.54953600  1
  C  C9  1  0.02091100  0.69347900  0.04953600  1
  C  C10  1  0.97908900  0.30652100  0.04953600  1
  C  C11  1  0.19347900  0.52091100  0.54953600  1
  C  C12  1  0.69347900  0.02091100  0.95046400  1
  C  C13  1  0.47908900  0.80652100  0.45046400  1
  C  C14  1  0.52091100  0.19347900  0.45046400  1
  C  C15  1  0.30652100  0.97908900  0.95046400  1
  C  C16  1  0.50000000  0.50000000  0.60658300  1
  C  C17  1  0.00000000  0.00000000  0.10658300  1
  C  C18  1  0.00000000  0.00000000  0.89341700  1
  C  C19  1  0.50000000  0.50000000  0.39341700  1
  S  S0  1  0.94483300  0.37274600  0.53601700  1
  S  S1  1  0.12725400  0.55516700  0.03601700  1
  S  S2  1  0.87274600  0.44483300  0.03601700  1
  S  S3  1  0.05516700  0.62725400  0.53601700  1
  S  S4  1  0.55516700  0.12725400  0.96398300  1
  S  S5  1  0.37274600  0.94483300  0.46398300  1
  S  S6  1  0.62725400  0.05516700  0.46398300  1
  S  S7  1  0.44483300  0.87274600  0.96398300  1
  S  S8  1  0.87544500  0.56176500  0.54659800  1
  S  S9  1  0.93823500  0.62455500  0.04659800  1
  S  S10  1  0.06176500  0.37544500  0.04659800  1
  S  S11  1  0.12455500  0.43823500  0.54659800  1
  S  S12  1  0.62455500  0.93823500  0.95340200  1
  S  S13  1  0.56176500  0.87544500  0.45340200  1
  S  S14  1  0.43823500  0.12455500  0.45340200  1
  S  S15  1  0.37544500  0.06176500  0.95340200  1
  O  O0  1  0.78831700  0.33229300  0.56460300  1
  O  O1  1  0.16770700  0.71168300  0.06460300  1
  O  O2  1  0.83229300  0.28831700  0.06460300  1
  O  O3  1  0.21168300  0.66770700  0.56460300  1
  O  O4  1  0.71168300  0.16770700  0.93539700  1
  O  O5  1  0.33229300  0.78831700  0.43539700  1
  O  O6  1  0.66770700  0.21168300  0.43539700  1
  O  O7  1  0.28831700  0.83229300  0.93539700  1
  O  O8  1  0.73010300  0.48719200  0.55097300  1
  O  O9  1  0.01280800  0.76989700  0.05097300  1
  O  O10  1  0.98719200  0.23010300  0.05097300  1
  O  O11  1  0.26989700  0.51280800  0.55097300  1
  O  O12  1  0.76989700  0.01280800  0.94902700  1
  O  O13  1  0.48719200  0.73010300  0.44902700  1
  O  O14  1  0.51280800  0.26989700  0.44902700  1
  O  O15  1  0.23010300  0.98719200  0.94902700  1
  O  O16  1  0.54786300  0.45013700  0.69001000  1
  O  O17  1  0.04986300  0.95213700  0.19001000  1
  O  O18  1  0.95013700  0.04786300  0.19001000  1
  O  O19  1  0.45213700  0.54986300  0.69001000  1
  O  O20  1  0.95213700  0.04986300  0.80999000  1
  O  O21  1  0.45013700  0.54786300  0.30999000  1
  O  O22  1  0.54986300  0.45213700  0.30999000  1
  O  O23  1  0.04786300  0.95013700  0.80999000  1
  O  O24  1  0.69399300  0.37158600  0.19973800  1
  O  O25  1  0.12841400  0.80600700  0.69973800  1
  O  O26  1  0.87158600  0.19399300  0.69973800  1
  O  O27  1  0.30600700  0.62841400  0.19973800  1
  O  O28  1  0.80600700  0.12841400  0.30026200  1
  O  O29  1  0.37158600  0.69399300  0.80026200  1
  O  O30  1  0.62841400  0.30600700  0.80026200  1
  O  O31  1  0.19399300  0.87158600  0.30026200  1
  O  O32  1  0.64880800  0.54784000  0.04830400  1
  O  O33  1  0.95216000  0.85119200  0.54830400  1
  O  O34  1  0.04784000  0.14880800  0.54830400  1
  O  O35  1  0.35119200  0.45216000  0.04830400  1
  O  O36  1  0.85119200  0.95216000  0.45169600  1
  O  O37  1  0.54784000  0.64880800  0.95169600  1
  O  O38  1  0.45216000  0.35119200  0.95169600  1
  O  O39  1  0.14880800  0.04784000  0.45169600  1
  O  O40  1  0.65440400  0.65440400  0.50000000  1
  O  O41  1  0.84559600  0.84559600  0.00000000  1
  O  O42  1  0.15440400  0.15440400  0.00000000  1
  O  O43  1  0.34559600  0.34559600  0.50000000  1
  O  O44  1  0.69164600  0.61433600  0.04065500  1
  O  O45  1  0.88566400  0.80835400  0.54065500  1
  O  O46  1  0.11433600  0.19164600  0.54065500  1
  O  O47  1  0.30835400  0.38566400  0.04065500  1
  O  O48  1  0.80835400  0.88566400  0.45934500  1
  O  O49  1  0.61433600  0.69164600  0.95934500  1
  O  O50  1  0.38566400  0.30835400  0.95934500  1
  O  O51  1  0.19164600  0.11433600  0.45934500  1
loop_
_geom_bond_atom_site_label_1
_geom_bond_atom_site_label_2
_geom_bond_distance
_geom_bond_site_symmetry_2
Ca0 O24 2.376097 1_555
Ca0 O30 2.376097 1_555
Ca0 O22 2.428554 1_555
Ca0 O16 2.428554 1_555
Ca0 O14 2.514261 1_555
Ca0 O8 2.514261 1_555
Ca0 O6 2.546165 1_555
Ca0 O0 2.546165 1_555
Ca1 O31 2.376097 1_555
Ca1 O25 2.376097 1_554
Ca1 O23 2.428554 1_554
Ca1 O17 2.428554 1_555
Ca1 O15 2.514261 1_554
Ca1 O9 2.514261 1_555
Ca1 O7 2.546165 1_554
Ca1 O1 2.546165 1_555
Ca2 O28 2.376097 1_555
Ca2 O26 2.376097 1_554
Ca2 O18 2.428554 1_555
Ca2 O20 2.428554 1_554
Ca2 O10 2.514261 1_555
Ca2 O12 2.514261 1_554
Ca2 O2 2.546165 1_555
Ca2 O4 2.546165 1_554
Ca3 O29 2.376097 1_555
Ca3 O27 2.376097 1_555
Ca3 O19 2.428554 1_555
Ca3 O21 2.428554 1_555
Ca3 O13 2.514261 1_555
Ca3 O11 2.514261 1_555
Ca3 O3 2.546165 1_555
Ca3 O5 2.546165 1_555
Ca4 O22 2.515807 1_555
Ca4 O19 2.515807 1_554
Ca4 O21 2.515807 1_555
Ca4 O16 2.515807 1_554
Ca4 O35 2.534644 1_555
Ca4 O38 2.534644 1_554
Ca4 O37 2.534644 1_554
Ca4 O32 2.534644 1_555
Ca5 O18 2.515807 1_455
Ca5 O17 2.515807 1_545
Ca5 O20 2.515807 1_455
Ca5 O23 2.515807 1_545
Ca5 O39 2.534644 1_555
Ca5 O34 2.534644 1_555
Ca5 O36 2.534644 1_445
Ca5 O33 2.534644 1_445
Ni0 S0 2.226165 1_455
Ni0 S3 2.226165 1_555
Ni0 S8 2.245087 1_455
Ni0 S11 2.245087 1_555
Ni1 S2 2.226165 1_455
Ni1 S1 2.226165 1_555
Ni1 S9 2.245087 1_455
Ni1 S10 2.245087 1_555
Ni2 S7 2.226165 1_545
Ni2 S4 2.226165 1_555
Ni2 S12 2.245087 1_545
Ni2 S15 2.245087 1_555
Ni3 S5 2.226165 1_545
Ni3 S6 2.226165 1_555
Ni3 S13 2.245087 1_545
Ni3 S14 2.245087 1_555
H0 O24 0.988258 1_555
H1 O25 0.988258 1_555
H2 O26 0.988258 1_555
H3 O27 0.988258 1_555
H4 O28 0.988258 1_555
H5 O29 0.988258 1_555
H6 O30 0.988258 1_555
H7 O31 0.988258 1_555
H8 O24 0.977612 1_555
H9 O25 0.977612 1_555
H10 O26 0.977612 1_555
H11 O27 0.977612 1_555
H12 O28 0.977612 1_555
H13 O29 0.977612 1_555
H14 O30 0.977612 1_555
H15 O31 0.977612 1_555
C0 O0 1.249502 1_555
C0 S0 1.709038 1_555
C1 O1 1.249502 1_555
C1 S1 1.709038 1_555
C2 O2 1.249502 1_555
C2 S2 1.709038 1_555
C3 O3 1.249502 1_555
C3 S3 1.709038 1_555
C4 O4 1.249502 1_555
C4 S4 1.709038 1_555
C5 O5 1.249502 1_555
C5 S5 1.709038 1_555
C6 O6 1.249502 1_555
C6 S6 1.709038 1_555
C7 O7 1.249502 1_555
C7 S7 1.709038 1_555
C8 O8 1.237787 1_555
C8 S8 1.726095 1_555
C9 O9 1.237787 1_555
C9 S9 1.726095 1_455
C10 O10 1.237787 1_555
C10 S10 1.726095 1_655
C11 O11 1.237787 1_555
C11 S11 1.726095 1_555
C12 O12 1.237787 1_555
C12 S12 1.726095 1_545
C13 O13 1.237787 1_555
C13 S13 1.726095 1_555
C14 O14 1.237787 1_555
C14 S14 1.726095 1_555
C15 O15 1.237787 1_555
C15 S15 1.726095 1_565
C16 O19 1.270730 1_555
C16 O16 1.270730 1_555
C17 O18 1.270730 1_455
C17 O17 1.270730 1_545
C18 O20 1.270730 1_455
C18 O23 1.270730 1_545
C19 O22 1.270730 1_555
C19 O21 1.270730 1_555
O32 O44 1.269932 1_555
O33 O45 1.269932 1_555
O34 O46 1.269932 1_555
O35 O47 1.269932 1_555
O36 O48 1.269932 1_555
O37 O49 1.269932 1_555
O38 O50 1.269932 1_555
O39 O51 1.269932 1_555
O44 O49 1.862538 1_554
O45 O48 1.862538 1_555
O46 O51 1.862538 1_555
O47 O50 1.862538 1_554
