# generated using pymatgen
data_Mo6H20Cl14O9
_symmetry_space_group_name_H-M   'P 1'
_cell_length_a   9.98185998
_cell_length_b   9.98185998
_cell_length_c   19.86338353
_cell_angle_alpha   83.55104064
_cell_angle_beta   83.55104064
_cell_angle_gamma   58.36219630
_symmetry_Int_Tables_number   1
_chemical_formula_structural   Mo6H20Cl14O9
_chemical_formula_sum   'Mo12 H40 Cl28 O18'
_cell_volume   1670.99967587
_cell_formula_units_Z   2
loop_
 _symmetry_equiv_pos_site_id
 _symmetry_equiv_pos_as_xyz
  1  'x, y, z'
loop_
 _atom_site_type_symbol
 _atom_site_label
 _atom_site_symmetry_multiplicity
 _atom_site_fract_x
 _atom_site_fract_y
 _atom_site_fract_z
 _atom_site_occupancy
  Mo  Mo0  1  0.12784000  0.39756600  0.39460800  1
  Mo  Mo1  1  0.60243400  0.87216000  0.10539200  1
  Mo  Mo2  1  0.87216000  0.60243400  0.60539200  1
  Mo  Mo3  1  0.39756600  0.12784000  0.89460800  1
  Mo  Mo4  1  0.77545100  0.73263100  0.44585900  1
  Mo  Mo5  1  0.26736900  0.22454900  0.05414100  1
  Mo  Mo6  1  0.22454900  0.26736900  0.55414100  1
  Mo  Mo7  1  0.73263100  0.77545100  0.94585900  1
  Mo  Mo8  1  0.11870600  0.60047000  0.49308700  1
  Mo  Mo9  1  0.39953000  0.88129400  0.00691300  1
  Mo  Mo10  1  0.88129400  0.39953000  0.50691300  1
  Mo  Mo11  1  0.60047000  0.11870600  0.99308700  1
  H  H0  1  0.55202200  0.32360700  0.28323100  1
  H  H1  1  0.67639300  0.44797800  0.21676900  1
  H  H2  1  0.44797800  0.67639300  0.71676900  1
  H  H3  1  0.32360700  0.55202200  0.78323100  1
  H  H4  1  0.55542300  0.16471200  0.30757000  1
  H  H5  1  0.83528800  0.44457700  0.19243000  1
  H  H6  1  0.44457700  0.83528800  0.69243000  1
  H  H7  1  0.16471200  0.55542300  0.80757000  1
  H  H8  1  0.84818700  0.17714900  0.09201900  1
  H  H9  1  0.82285100  0.15181300  0.40798100  1
  H  H10  1  0.15181300  0.82285100  0.90798100  1
  H  H11  1  0.17714900  0.84818700  0.59201900  1
  H  H12  1  0.84806600  0.24923300  0.16697100  1
  H  H13  1  0.75076700  0.15193400  0.33302900  1
  H  H14  1  0.15193400  0.75076700  0.83302900  1
  H  H15  1  0.24923300  0.84806600  0.66697100  1
  H  H16  1  0.90840300  0.04428900  0.16331300  1
  H  H17  1  0.95571100  0.09159700  0.33668700  1
  H  H18  1  0.09159700  0.95571100  0.83668700  1
  H  H19  1  0.04428900  0.90840300  0.66331300  1
  H  H20  1  0.22869400  0.63643400  0.12045400  1
  H  H21  1  0.36356600  0.77130600  0.37954600  1
  H  H22  1  0.77130600  0.36356600  0.87954600  1
  H  H23  1  0.63643400  0.22869400  0.62045400  1
  H  H24  1  0.17913000  0.53757900  0.17033500  1
  H  H25  1  0.46242100  0.82087000  0.32966500  1
  H  H26  1  0.82087000  0.46242100  0.82966500  1
  H  H27  1  0.53757900  0.17913000  0.67033500  1
  H  H28  1  0.43918800  0.61676100  0.27827300  1
  H  H29  1  0.38323900  0.56081200  0.22172700  1
  H  H30  1  0.56081200  0.38323900  0.72172700  1
  H  H31  1  0.61676100  0.43918800  0.77827300  1
  H  H32  1  0.02982700  0.80459600  0.19036600  1
  H  H33  1  0.19540400  0.97017300  0.30963400  1
  H  H34  1  0.97017300  0.19540400  0.80963400  1
  H  H35  1  0.80459600  0.02982700  0.69036600  1
  H  H36  1  0.11440000  0.15193900  0.29055100  1
  H  H37  1  0.84806100  0.88560000  0.20944900  1
  H  H38  1  0.88560000  0.84806100  0.70944900  1
  H  H39  1  0.15193900  0.11440000  0.79055100  1
  Cl  Cl0  1  0.36691500  0.36028900  0.44257900  1
  Cl  Cl1  1  0.63971100  0.63308500  0.05742100  1
  Cl  Cl2  1  0.63308500  0.63971100  0.55742100  1
  Cl  Cl3  1  0.36028900  0.36691500  0.94257900  1
  Cl  Cl4  1  0.05675900  0.67774300  0.36699000  1
  Cl  Cl5  1  0.32225700  0.94324100  0.13301000  1
  Cl  Cl6  1  0.94324100  0.32225700  0.63301000  1
  Cl  Cl7  1  0.67774300  0.05675900  0.86699000  1
  Cl  Cl8  1  0.14445100  0.15460900  0.45868300  1
  Cl  Cl9  1  0.84539100  0.85554900  0.04131700  1
  Cl  Cl10  1  0.85554900  0.84539100  0.54131700  1
  Cl  Cl11  1  0.15460900  0.14445100  0.95868300  1
  Cl  Cl12  1  0.84341100  0.47520900  0.37988700  1
  Cl  Cl13  1  0.52479100  0.15658900  0.12011300  1
  Cl  Cl14  1  0.15658900  0.52479100  0.62011300  1
  Cl  Cl15  1  0.47520900  0.84341100  0.87988700  1
  Cl  Cl16  1  0.25597400  0.74866400  0.49197100  1
  Cl  Cl17  1  0.25133600  0.74402600  0.00802900  1
  Cl  Cl18  1  0.74402600  0.25133600  0.50802900  1
  Cl  Cl19  1  0.74866400  0.25597400  0.99197100  1
  Cl  Cl20  1  0.23501700  0.29155900  0.28352700  1
  Cl  Cl21  1  0.70844100  0.76498300  0.21647300  1
  Cl  Cl22  1  0.76498300  0.70844100  0.71647300  1
  Cl  Cl23  1  0.29155900  0.23501700  0.78352700  1
  Cl  Cl24  1  0.55779000  0.94734400  0.38496300  1
  Cl  Cl25  1  0.05265600  0.44221000  0.11503700  1
  Cl  Cl26  1  0.44221000  0.05265600  0.61503700  1
  Cl  Cl27  1  0.94734400  0.55779000  0.88496300  1
  O  O0  1  0.62185000  0.20783100  0.29192000  1
  O  O1  1  0.79216900  0.37815000  0.20808000  1
  O  O2  1  0.37815000  0.79216900  0.70808000  1
  O  O3  1  0.20783100  0.62185000  0.79192000  1
  O  O4  1  0.85075300  0.10096700  0.36393700  1
  O  O5  1  0.89903300  0.14924700  0.13606300  1
  O  O6  1  0.14924700  0.89903300  0.63606300  1
  O  O7  1  0.10096700  0.85075300  0.86393700  1
  O  O8  1  0.38339900  0.78980600  0.33086400  1
  O  O9  1  0.21019400  0.61660100  0.16913600  1
  O  O10  1  0.61660100  0.21019400  0.66913600  1
  O  O11  1  0.78980600  0.38339900  0.83086400  1
  O  O12  1  0.47191000  0.52809000  0.25000000  1
  O  O13  1  0.52809000  0.47191000  0.75000000  1
  O  O14  1  0.09338500  0.06552800  0.29813700  1
  O  O15  1  0.93447200  0.90661500  0.20186300  1
  O  O16  1  0.90661500  0.93447200  0.70186300  1
  O  O17  1  0.06552800  0.09338500  0.79813700  1
loop_
_geom_bond_atom_site_label_1
_geom_bond_atom_site_label_2
_geom_bond_distance
_geom_bond_site_symmetry_2
H0 O0 0.994146 1_555
H1 O1 0.994146 1_555
H2 O2 0.994146 1_555
H3 O3 0.994146 1_555
H4 O0 0.971896 1_555
H5 O1 0.971896 1_555
H6 O2 0.971896 1_555
H7 O3 0.971896 1_555
H8 O5 0.998630 1_555
H9 O4 0.998630 1_555
H10 O7 0.998630 1_555
H11 O6 0.998630 1_555
H12 O5 1.080110 1_555
H12 O1 1.419323 1_555
H13 O4 1.080110 1_555
H13 O0 1.419323 1_555
H14 O7 1.080110 1_555
H14 O3 1.419323 1_555
H15 O6 1.080110 1_555
H15 O2 1.419323 1_555
H16 O5 1.086526 1_555
H16 O15 1.405639 1_545
H17 O4 1.086526 1_555
H17 O14 1.405639 1_655
H18 O7 1.086526 1_555
H18 O17 1.405639 1_565
H19 O6 1.086526 1_555
H19 O16 1.405639 1_455
H20 O9 0.981630 1_555
H21 O8 0.981630 1_555
H22 O11 0.981630 1_555
H23 O10 0.981630 1_555
H24 O9 0.984689 1_555
H25 O8 0.984689 1_555
H26 O11 0.984689 1_555
H27 O10 0.984689 1_555
H28 O12 0.986228 1_555
H29 O12 0.986228 1_555
H30 O13 0.986228 1_555
H31 O13 0.986228 1_555
H32 O15 0.990797 1_455
H33 O14 0.990797 1_565
H34 O17 0.990797 1_655
H35 O16 0.990797 1_545
H36 O14 0.981941 1_555
H37 O15 0.981941 1_555
H38 O16 0.981941 1_555
H39 O17 0.981941 1_555
Cl0 Mo0 2.498194 1_555
Cl0 Mo8 2.577435 1_555
Cl0 Mo6 2.829145 1_555
Cl1 Mo1 2.498194 1_555
Cl1 Mo9 2.577435 1_555
Cl1 Mo7 2.829145 1_554
Cl2 Mo2 2.498194 1_555
Cl2 Mo10 2.577435 1_555
Cl2 Mo4 2.829145 1_555
Cl3 Mo3 2.498194 1_555
Cl3 Mo11 2.577435 1_555
Cl3 Mo5 2.829145 1_556
Cl4 Mo0 2.507368 1_555
Cl4 Mo8 2.581559 1_555
Cl4 Mo4 2.868767 1_455
Cl5 Mo1 2.507368 1_555
Cl5 Mo9 2.581559 1_555
Cl5 Mo5 2.868767 1_565
Cl6 Mo2 2.507368 1_555
Cl6 Mo10 2.581559 1_555
Cl6 Mo6 2.868767 1_655
Cl7 Mo3 2.507368 1_555
Cl7 Mo11 2.581559 1_555
Cl7 Mo7 2.868767 1_545
Cl8 Mo0 2.541845 1_555
Cl8 Mo10 2.649220 1_455
Cl8 Mo6 2.695448 1_555
Cl9 Mo1 2.541845 1_555
Cl9 Mo11 2.649220 1_564
Cl9 Mo7 2.695448 1_554
Cl10 Mo2 2.541845 1_555
Cl10 Mo8 2.649220 1_655
Cl10 Mo4 2.695448 1_555
Cl11 Mo3 2.541845 1_555
Cl11 Mo9 2.649220 1_546
Cl11 Mo5 2.695448 1_556
Cl12 Mo10 2.562518 1_555
Cl12 Mo0 2.563979 1_655
Cl12 Mo4 2.740077 1_555
Cl13 Mo11 2.562518 1_554
Cl13 Mo1 2.563979 1_545
Cl13 Mo5 2.740077 1_555
Cl14 Mo8 2.562518 1_555
Cl14 Mo2 2.563979 1_455
Cl14 Mo6 2.740077 1_555
Cl15 Mo9 2.562518 1_556
Cl15 Mo3 2.563979 1_565
Cl15 Mo7 2.740077 1_555
Cl16 Mo8 2.485613 1_555
Cl17 Mo9 2.485613 1_555
Cl18 Mo10 2.485613 1_555
Cl19 Mo11 2.485613 1_555
Cl20 Mo0 2.437047 1_555
Cl21 Mo1 2.437047 1_555
Cl22 Mo2 2.437047 1_555
Cl23 Mo3 2.437047 1_555
Cl24 Mo4 2.428972 1_555
Cl25 Mo5 2.428972 1_555
Cl26 Mo6 2.428972 1_555
Cl27 Mo7 2.428972 1_555
