# generated using pymatgen
data_TaP2NCl12
_symmetry_space_group_name_H-M   'P 1'
_cell_length_a   8.07832988
_cell_length_b   8.07832988
_cell_length_c   15.39205684
_cell_angle_alpha   78.31437745
_cell_angle_beta   78.31437745
_cell_angle_gamma   65.51184337
_symmetry_Int_Tables_number   1
_chemical_formula_structural   TaP2NCl12
_chemical_formula_sum   'Ta2 P4 N2 Cl24'
_cell_volume   887.21380437
_cell_formula_units_Z   2
loop_
 _symmetry_equiv_pos_site_id
 _symmetry_equiv_pos_as_xyz
  1  'x, y, z'
loop_
 _atom_site_type_symbol
 _atom_site_label
 _atom_site_symmetry_multiplicity
 _atom_site_fract_x
 _atom_site_fract_y
 _atom_site_fract_z
 _atom_site_occupancy
  Ta  Ta0  1  -0.00000000  -0.00000000  0.50000000  1
  Ta  Ta1  1  -0.00000000  -0.00000000  -0.00000000  1
  P  P0  1  0.45884893  0.31751689  0.27126237  1
  P  P1  1  0.68248311  0.54115107  0.22873763  1
  P  P2  1  0.31751689  0.45884893  0.77126237  1
  P  P3  1  0.54115107  0.68248311  0.72873763  1
  N  N0  1  0.37639218  0.62360782  0.75000000  1
  N  N1  1  0.62360782  0.37639218  0.25000000  1
  Cl  Cl0  1  0.76675063  0.49850448  0.67394017  1
  Cl  Cl1  1  0.27017632  0.39773108  0.66394817  1
  Cl  Cl2  1  0.39773108  0.27017632  0.16394817  1
  Cl  Cl3  1  0.49850448  0.76675063  0.17394017  1
  Cl  Cl4  1  0.10334634  0.21635680  0.52864140  1
  Cl  Cl5  1  0.04664634  0.09470926  0.34500619  1
  Cl  Cl6  1  0.50149552  0.23324937  0.82605983  1
  Cl  Cl7  1  0.09470926  0.04664634  0.84500619  1
  Cl  Cl8  1  0.08922603  0.51549500  0.85371140  1
  Cl  Cl9  1  0.91077397  0.48450500  0.14628860  1
  Cl  Cl10  1  0.90529074  0.95335366  0.15499381  1
  Cl  Cl11  1  0.69668898  0.22330925  0.50902456  1
  Cl  Cl12  1  0.21635680  0.10334634  0.02864140  1
  Cl  Cl13  1  0.95335366  0.90529074  0.65499381  1
  Cl  Cl14  1  0.30331102  0.77669075  0.49097544  1
  Cl  Cl15  1  0.22330925  0.69668898  0.00902456  1
  Cl  Cl16  1  0.51549500  0.08922603  0.35371140  1
  Cl  Cl17  1  0.78364320  0.89665366  0.97135860  1
  Cl  Cl18  1  0.23324937  0.50149552  0.32605983  1
  Cl  Cl19  1  0.48450500  0.91077397  0.64628860  1
  Cl  Cl20  1  0.89665366  0.78364320  0.47135860  1
  Cl  Cl21  1  0.72982368  0.60226992  0.33605183  1
  Cl  Cl22  1  0.60226892  0.72982368  0.83605183  1
  Cl  Cl23  1  0.77669075  0.30331102  0.99097544  1
loop_
_geom_bond_atom_site_label_1
_geom_bond_atom_site_label_2
_geom_bond_distance
_geom_bond_site_symmetry_2
N0 P3 1.545995 1_555
N0 P2 1.545995 1_555
N1 P1 1.545995 1_555
N1 P0 1.545995 1_555
Cl0 P3 1.970113 1_555
Cl1 P2 1.964995 1_555
Cl2 P0 1.964995 1_555
Cl3 P1 1.970113 1_555
Cl4 Ta0 2.370032 1_555
Cl5 Ta0 2.356749 1_555
Cl6 P2 1.970113 1_555
Cl7 Ta1 2.356749 1_556
Cl8 P2 1.951560 1_555
Cl9 P1 1.951560 1_555
Cl10 Ta1 2.356749 1_665
Cl11 Ta0 2.361476 1_655
Cl12 Ta1 2.370032 1_555
Cl13 Ta0 2.356749 1_665
Cl14 Ta0 2.361476 1_565
Cl15 Ta1 2.361476 1_565
Cl16 P0 1.951560 1_555
Cl17 Ta1 2.370032 1_666
Cl18 P0 1.970113 1_555
Cl19 P3 1.951560 1_555
Cl20 Ta0 2.370032 1_665
Cl21 P1 1.964999 1_555
Cl22 P3 1.964995 1_555
Cl23 Ta1 2.361476 1_656
