# generated using pymatgen
data_Ag2H2IOF
_symmetry_space_group_name_H-M   'P 1'
_cell_length_a   7.90706600
_cell_length_b   4.86077500
_cell_length_c   6.50505793
_cell_angle_alpha   88.80959964
_cell_angle_beta   90.00000000
_cell_angle_gamma   90.00000000
_symmetry_Int_Tables_number   1
_chemical_formula_structural   Ag2H2IOF
_chemical_formula_sum   'Ag4 H4 I2 O2 F2'
_cell_volume   249.96448633
_cell_formula_units_Z   2
loop_
 _symmetry_equiv_pos_site_id
 _symmetry_equiv_pos_as_xyz
  1  'x, y, z'
loop_
 _atom_site_type_symbol
 _atom_site_label
 _atom_site_symmetry_multiplicity
 _atom_site_fract_x
 _atom_site_fract_y
 _atom_site_fract_z
 _atom_site_occupancy
  Ag  Ag0  1  0.49564600  0.02247500  0.70585900  1
  Ag  Ag1  1  0.99564600  0.97752500  0.29414100  1
  Ag  Ag2  1  0.95748700  0.00172900  0.72206100  1
  Ag  Ag3  1  0.45748700  0.99827100  0.27793900  1
  H  H0  1  0.26219800  0.70776800  0.98842000  1
  H  H1  1  0.76219800  0.29223200  0.01158000  1
  H  H2  1  0.44983800  0.55704100  0.99109500  1
  H  H3  1  0.94983800  0.44295900  0.00890500  1
  I  I0  1  0.22125800  0.31726900  0.50454500  1
  I  I1  1  0.72125800  0.68273100  0.49545500  1
  O  O0  1  0.38794400  0.73952100  0.98934200  1
  O  O1  1  0.88794400  0.26047900  0.01065800  1
  F  F0  1  0.06292800  0.70941500  0.00251700  1
  F  F1  1  0.56292800  0.29058500  0.99748300  1
loop_
_geom_bond_atom_site_label_1
_geom_bond_atom_site_label_2
_geom_bond_distance
_geom_bond_site_symmetry_2
Ag0 F1 2.383876 1_555
Ag0 O0 2.431484 1_545
Ag0 I1 2.806566 1_545
Ag0 I0 2.897834 1_555
Ag1 F0 2.383876 1_655
Ag1 O1 2.431484 1_565
Ag1 I0 2.806566 1_665
Ag1 I1 2.897834 1_555
Ag2 O1 2.346648 1_556
Ag2 F0 2.436113 1_646
Ag2 I1 2.856774 1_545
Ag2 I0 2.935017 1_655
Ag3 O0 2.346648 1_554
Ag3 F1 2.436113 1_564
Ag3 I0 2.856774 1_565
Ag3 I1 2.935017 1_555
H0 O0 1.006227 1_555
H1 O1 1.006227 1_555
H2 O0 1.012907 1_555
H3 O1 1.012907 1_555
F0 H3 1.573722 1_455
F0 H0 1.578337 1_554
F1 H2 1.573722 1_555
F1 H1 1.578337 1_556
