# generated using pymatgen
data_Cr3GaS6
_symmetry_space_group_name_H-M   'P 1'
_cell_length_a   7.04611372
_cell_length_b   7.04581773
_cell_length_c   63.30641810
_cell_angle_alpha   60.05036893
_cell_angle_beta   60.05112749
_cell_angle_gamma   60.11205106
_symmetry_Int_Tables_number   1
_chemical_formula_structural   Cr3GaS6
_chemical_formula_sum   'Cr36 Ga12 S72'
_cell_volume   2225.94016905
_cell_formula_units_Z   12
loop_
 _symmetry_equiv_pos_site_id
 _symmetry_equiv_pos_as_xyz
  1  'x, y, z'
loop_
 _atom_site_type_symbol
 _atom_site_label
 _atom_site_symmetry_multiplicity
 _atom_site_fract_x
 _atom_site_fract_y
 _atom_site_fract_z
 _atom_site_occupancy
  Cr  Cr0  1  0.11485400  0.63301700  0.06874700  1
  Cr  Cr1  1  0.63299900  0.11490700  0.06874400  1
  Cr  Cr2  1  0.62278700  0.62277900  0.01469000  1
  Cr  Cr3  1  0.10448600  0.63314000  0.18102800  1
  Cr  Cr4  1  0.63350900  0.63351400  0.06870800  1
  Cr  Cr5  1  0.63796300  0.63795300  0.12064900  1
  Cr  Cr6  1  0.63313900  0.10445400  0.18102700  1
  Cr  Cr7  1  0.11991100  0.62984700  0.29115500  1
  Cr  Cr8  1  0.63319300  0.63318400  0.18102900  1
  Cr  Cr9  1  0.62987600  0.11992800  0.29114600  1
  Cr  Cr10  1  0.63408300  0.63408900  0.23307800  1
  Cr  Cr11  1  0.12509400  0.62502400  0.40277500  1
  Cr  Cr12  1  0.62987600  0.62987700  0.29114800  1
  Cr  Cr13  1  0.62503100  0.12508800  0.40277500  1
  Cr  Cr14  1  0.62460000  0.62460300  0.34734600  1
  Cr  Cr15  1  0.12509100  0.62517400  0.51384500  1
  Cr  Cr16  1  0.62488300  0.62488600  0.40278200  1
  Cr  Cr17  1  0.62519400  0.12508400  0.51384600  1
  Cr  Cr18  1  0.62501000  0.62499800  0.45832700  1
  Cr  Cr19  1  0.12481100  0.62457800  0.62512300  1
  Cr  Cr20  1  0.62507500  0.62505700  0.51385800  1
  Cr  Cr21  1  0.62457800  0.12479800  0.62512500  1
  Cr  Cr22  1  0.62504500  0.62504300  0.56942600  1
  Cr  Cr23  1  0.11081400  0.62562900  0.73755400  1
  Cr  Cr24  1  0.62458700  0.62457500  0.62512500  1
  Cr  Cr25  1  0.62561700  0.11083100  0.73755600  1
  Cr  Cr26  1  0.62420000  0.62419600  0.68084300  1
  Cr  Cr27  1  0.09811700  0.63159100  0.84829900  1
  Cr  Cr28  1  0.62549000  0.62547000  0.73757500  1
  Cr  Cr29  1  0.63159700  0.09821600  0.84829500  1
  Cr  Cr30  1  0.63093800  0.63093000  0.78998500  1
  Cr  Cr31  1  0.10079300  0.62921500  0.96008600  1
  Cr  Cr32  1  0.63444000  0.63444400  0.84805200  1
  Cr  Cr33  1  0.63205400  0.63203200  0.89980700  1
  Cr  Cr34  1  0.62920400  0.10078300  0.96008600  1
  Cr  Cr35  1  0.62902600  0.62902800  0.96016000  1
  Ga  Ga0  1  0.24970800  0.24972100  0.13895000  1
  Ga  Ga1  1  0.25184900  0.25187000  0.24935100  1
  Ga  Ga2  1  0.00056700  0.00052500  0.33317000  1
  Ga  Ga3  1  0.25080900  0.25083900  0.36084000  1
  Ga  Ga4  1  0.00020300  0.00017600  0.44441000  1
  Ga  Ga5  1  0.24966000  0.24968000  0.47231400  1
  Ga  Ga6  1  0.00032000  0.00028800  0.55548200  1
  Ga  Ga7  1  0.99912800  0.99909100  0.66699700  1
  Ga  Ga8  1  0.24980000  0.24981800  0.58336700  1
  Ga  Ga9  1  0.24804900  0.24806200  0.69506200  1
  Ga  Ga10  1  0.24830900  0.24831200  0.80621400  1
  Ga  Ga11  1  0.24965100  0.24965200  0.91669700  1
  S  S0  1  0.38501100  0.38501600  0.04318600  1
  S  S1  1  0.38460100  0.38459000  0.09401900  1
  S  S2  1  0.38515700  0.84105000  0.04321000  1
  S  S3  1  0.84105800  0.38516600  0.04320900  1
  S  S4  1  0.38522500  0.38518700  0.15396100  1
  S  S5  1  0.40080500  0.86663300  0.09620300  1
  S  S6  1  0.86680100  0.86680300  0.04440200  1
  S  S7  1  0.86665700  0.40077500  0.09620200  1
  S  S8  1  0.38475400  0.38472700  0.20508600  1
  S  S9  1  0.38516300  0.84408000  0.15395500  1
  S  S10  1  0.84408600  0.38513300  0.15395700  1
  S  S11  1  0.86666300  0.86665500  0.09618700  1
  S  S12  1  0.38465400  0.38471600  0.26508400  1
  S  S13  1  0.40289500  0.86503500  0.20744600  1
  S  S14  1  0.86503300  0.40292300  0.20744400  1
  S  S15  1  0.38481300  0.38485100  0.31616200  1
  S  S16  1  0.38457500  0.84507000  0.26507100  1
  S  S17  1  0.86634200  0.86632500  0.15567100  1
  S  S18  1  0.84508000  0.38463900  0.26506400  1
  S  S19  1  0.86503500  0.86505200  0.20745500  1
  S  S20  1  0.38493200  0.38491900  0.37616300  1
  S  S21  1  0.40487500  0.86393000  0.31859300  1
  S  S22  1  0.86391100  0.40486400  0.31859500  1
  S  S23  1  0.38499100  0.38501300  0.42719300  1
  S  S24  1  0.86501800  0.86494000  0.26722100  1
  S  S25  1  0.38477100  0.84511300  0.37614400  1
  S  S26  1  0.84511600  0.38477500  0.37614400  1
  S  S27  1  0.86374200  0.86376900  0.31859300  1
  S  S28  1  0.38510200  0.38509000  0.48724100  1
  S  S29  1  0.40519800  0.86497400  0.42944200  1
  S  S30  1  0.86499100  0.40520100  0.42943900  1
  S  S31  1  0.38509600  0.38509400  0.53827200  1
  S  S32  1  0.86491900  0.86489500  0.37835700  1
  S  S33  1  0.38510900  0.84487400  0.48722100  1
  S  S34  1  0.84488900  0.38509400  0.48722200  1
  S  S35  1  0.86483500  0.86481200  0.42944100  1
  S  S36  1  0.38510400  0.38508200  0.59837500  1
  S  S37  1  0.40529900  0.86509100  0.54050800  1
  S  S38  1  0.86508500  0.40529200  0.54050700  1
  S  S39  1  0.38518900  0.38519000  0.64940100  1
  S  S40  1  0.86491900  0.86490800  0.48946600  1
  S  S41  1  0.38500500  0.84465300  0.59837100  1
  S  S42  1  0.86498600  0.86501200  0.54049800  1
  S  S43  1  0.84465800  0.38498900  0.59837000  1
  S  S44  1  0.38522500  0.38523400  0.70928600  1
  S  S45  1  0.40504800  0.86518400  0.65162500  1
  S  S46  1  0.86519400  0.40503600  0.65162400  1
  S  S47  1  0.38501800  0.38505600  0.76054300  1
  S  S48  1  0.86477400  0.86477300  0.60064100  1
  S  S49  1  0.38507600  0.84623800  0.70927000  1
  S  S50  1  0.84626600  0.38506800  0.70926600  1
  S  S51  1  0.86512700  0.86513600  0.65161200  1
  S  S52  1  0.38561700  0.38565100  0.82048600  1
  S  S53  1  0.40499500  0.86576500  0.76257700  1
  S  S54  1  0.86579100  0.40498000  0.76257700  1
  S  S55  1  0.38437500  0.84655600  0.82052700  1
  S  S56  1  0.38569800  0.38570800  0.87147200  1
  S  S57  1  0.86539700  0.86537100  0.71153500  1
  S  S58  1  0.84659100  0.38437500  0.82052500  1
  S  S59  1  0.86655400  0.86656800  0.76254800  1
  S  S60  1  0.38539700  0.38540000  0.93162400  1
  S  S61  1  0.39690000  0.86901300  0.87428200  1
  S  S62  1  0.86894300  0.39684000  0.87428900  1
  S  S63  1  0.38971300  0.38967500  0.98123100  1
  S  S64  1  0.38591800  0.84438500  0.93159700  1
  S  S65  1  0.86893700  0.86903000  0.82189700  1
  S  S66  1  0.84440000  0.38592500  0.93159400  1
  S  S67  1  0.86596500  0.86609500  0.87392500  1
  S  S68  1  0.40076300  0.86579800  0.98531000  1
  S  S69  1  0.86579700  0.40075300  0.98530800  1
  S  S70  1  0.86657700  0.86656800  0.93336200  1
  S  S71  1  0.86578000  0.86582100  0.98528100  1
loop_
_geom_bond_atom_site_label_1
_geom_bond_atom_site_label_2
_geom_bond_distance
_geom_bond_site_symmetry_2
Cr0 S6 2.330003 1_455
Cr0 S0 2.393344 1_555
Cr0 S2 2.394027 1_555
Cr0 S7 2.394622 1_455
Cr0 S11 2.395576 1_455
Cr0 S1 2.482010 1_555
Cr1 S6 2.330108 1_545
Cr1 S0 2.393142 1_555
Cr1 S3 2.393894 1_555
Cr1 S5 2.394774 1_545
Cr1 S11 2.395864 1_545
Cr1 S1 2.481775 1_555
Cr2 S3 2.369828 1_555
Cr2 S2 2.369859 1_555
Cr2 S0 2.372695 1_555
Cr2 S71 2.426126 1_554
Cr2 S68 2.427828 1_554
Cr2 S69 2.427915 1_554
Cr3 S17 2.323873 1_455
Cr3 S14 2.340141 1_455
Cr3 S19 2.340772 1_455
Cr3 S9 2.461556 1_555
Cr3 S4 2.462071 1_555
Cr3 S8 2.485869 1_555
Cr4 S6 2.326695 1_555
Cr4 S3 2.391509 1_555
Cr4 S2 2.391529 1_555
Cr4 S5 2.395214 1_555
Cr4 S7 2.395330 1_555
Cr4 S1 2.484584 1_555
Cr5 S5 2.278713 1_555
Cr5 S7 2.278833 1_555
Cr5 S11 2.279506 1_555
Cr5 S4 2.539966 1_555
Cr5 S9 2.541112 1_555
Cr5 S10 2.541200 1_555
Cr6 S17 2.323730 1_545
Cr6 S13 2.340101 1_545
Cr6 S19 2.340752 1_545
Cr6 S10 2.461574 1_555
Cr6 S4 2.461855 1_555
Cr6 S8 2.485901 1_555
Cr7 S24 2.347632 1_455
Cr7 S16 2.397373 1_555
Cr7 S12 2.397524 1_555
Cr7 S27 2.398932 1_455
Cr7 S22 2.399115 1_455
Cr7 S15 2.445523 1_555
Cr8 S17 2.323248 1_555
Cr8 S14 2.339741 1_555
Cr8 S13 2.339861 1_555
Cr8 S10 2.461619 1_555
Cr8 S9 2.461636 1_555
Cr8 S8 2.485656 1_555
Cr9 S24 2.347711 1_545
Cr9 S18 2.397514 1_555
Cr9 S12 2.397621 1_555
Cr9 S27 2.399072 1_545
Cr9 S21 2.399188 1_545
Cr9 S15 2.445987 1_555
Cr10 S14 2.301161 1_555
Cr10 S19 2.301192 1_555
Cr10 S13 2.301203 1_555
Cr10 S18 2.499562 1_555
Cr10 S12 2.499756 1_555
Cr10 S16 2.499814 1_555
Cr11 S20 2.394050 1_555
Cr11 S25 2.394209 1_555
Cr11 S23 2.394329 1_555
Cr11 S35 2.395029 1_455
Cr11 S30 2.395148 1_455
Cr11 S32 2.395767 1_455
Cr12 S24 2.346625 1_555
Cr12 S18 2.397778 1_555
Cr12 S16 2.397824 1_555
Cr12 S21 2.399306 1_555
Cr12 S22 2.399331 1_555
Cr12 S15 2.445581 1_555
Cr13 S20 2.394033 1_555
Cr13 S26 2.394227 1_555
Cr13 S23 2.394444 1_555
Cr13 S35 2.395128 1_545
Cr13 S29 2.395237 1_545
Cr13 S32 2.395830 1_545
Cr14 S27 2.386837 1_555
Cr14 S22 2.387619 1_555
Cr14 S21 2.387660 1_555
Cr14 S20 2.392051 1_555
Cr14 S25 2.393489 1_555
Cr14 S26 2.393533 1_555
Cr15 S28 2.393683 1_555
Cr15 S40 2.394084 1_455
Cr15 S33 2.394122 1_555
Cr15 S42 2.394645 1_455
Cr15 S38 2.394926 1_455
Cr15 S31 2.395274 1_555
Cr16 S23 2.394345 1_555
Cr16 S26 2.394441 1_555
Cr16 S25 2.394478 1_555
Cr16 S30 2.395556 1_555
Cr16 S29 2.395562 1_555
Cr16 S32 2.395743 1_555
Cr17 S28 2.393777 1_555
Cr17 S34 2.394042 1_555
Cr17 S40 2.394116 1_545
Cr17 S42 2.394383 1_545
Cr17 S37 2.394906 1_545
Cr17 S31 2.395228 1_555
Cr18 S35 2.393675 1_555
Cr18 S29 2.394219 1_555
Cr18 S30 2.394272 1_555
Cr18 S28 2.394623 1_555
Cr18 S33 2.394926 1_555
Cr18 S34 2.395002 1_555
Cr19 S39 2.390836 1_555
Cr19 S51 2.390897 1_455
Cr19 S46 2.391303 1_455
Cr19 S41 2.396824 1_555
Cr19 S36 2.397160 1_555
Cr19 S48 2.397793 1_455
Cr20 S34 2.393747 1_555
Cr20 S33 2.393838 1_555
Cr20 S40 2.394054 1_555
Cr20 S38 2.394644 1_555
Cr20 S37 2.394781 1_555
Cr20 S31 2.395251 1_555
Cr21 S51 2.390774 1_545
Cr21 S39 2.390793 1_555
Cr21 S45 2.391216 1_545
Cr21 S43 2.396817 1_555
Cr21 S36 2.397151 1_555
Cr21 S48 2.397786 1_545
Cr22 S42 2.395124 1_555
Cr22 S36 2.395166 1_555
Cr22 S37 2.395440 1_555
Cr22 S38 2.395495 1_555
Cr22 S43 2.396016 1_555
Cr22 S41 2.396032 1_555
Cr23 S54 2.322132 1_455
Cr23 S59 2.323527 1_455
Cr23 S57 2.389870 1_455
Cr23 S47 2.409284 1_555
Cr23 S49 2.473144 1_555
Cr23 S44 2.473402 1_555
Cr24 S39 2.389770 1_555
Cr24 S46 2.390867 1_555
Cr24 S45 2.390894 1_555
Cr24 S41 2.397185 1_555
Cr24 S43 2.397226 1_555
Cr24 S48 2.397285 1_555
Cr25 S53 2.322216 1_545
Cr25 S59 2.323453 1_545
Cr25 S57 2.390150 1_545
Cr25 S47 2.409277 1_555
Cr25 S50 2.473187 1_555
Cr25 S44 2.473479 1_555
Cr26 S50 2.383574 1_555
Cr26 S49 2.383627 1_555
Cr26 S44 2.384004 1_555
Cr26 S51 2.405620 1_555
Cr26 S45 2.406600 1_555
Cr26 S46 2.406669 1_555
Cr27 S62 2.311326 1_455
Cr27 S67 2.317496 1_455
Cr27 S65 2.326077 1_455
Cr27 S56 2.488224 1_555
Cr27 S52 2.488647 1_555
Cr27 S55 2.509678 1_555
Cr28 S53 2.320435 1_555
Cr28 S54 2.320496 1_555
Cr28 S57 2.390653 1_555
Cr28 S47 2.407448 1_555
Cr28 S49 2.474201 1_555
Cr28 S50 2.474295 1_555
Cr29 S61 2.311200 1_545
Cr29 S67 2.317016 1_545
Cr29 S65 2.325898 1_545
Cr29 S56 2.487870 1_555
Cr29 S52 2.488619 1_555
Cr29 S58 2.509259 1_555
Cr30 S59 2.349054 1_555
Cr30 S53 2.355653 1_555
Cr30 S54 2.355668 1_555
Cr30 S55 2.452240 1_555
Cr30 S58 2.452283 1_555
Cr30 S52 2.452693 1_555
Cr31 S71 2.309094 1_455
Cr31 S69 2.309237 1_455
Cr31 S70 2.365299 1_455
Cr31 S63 2.413626 1_555
Cr31 S60 2.503744 1_555
Cr31 S64 2.504984 1_555
Cr32 S65 2.336907 1_555
Cr32 S61 2.344918 1_555
Cr32 S62 2.344928 1_555
Cr32 S56 2.492731 1_555
Cr32 S55 2.493074 1_555
Cr32 S58 2.493126 1_555
Cr33 S62 2.316430 1_555
Cr33 S61 2.316581 1_555
Cr33 S67 2.331388 1_555
Cr33 S60 2.473282 1_555
Cr33 S66 2.496270 1_555
Cr33 S64 2.496433 1_555
Cr34 S71 2.308962 1_545
Cr34 S68 2.309072 1_545
Cr34 S70 2.365273 1_545
Cr34 S63 2.413430 1_555
Cr34 S60 2.503725 1_555
Cr34 S66 2.505169 1_555
Cr35 S69 2.307757 1_555
Cr35 S68 2.307817 1_555
Cr35 S70 2.366967 1_555
Cr35 S63 2.410163 1_555
Cr35 S64 2.503799 1_555
Cr35 S66 2.503873 1_555
Ga0 S1 2.323590 1_555
Ga0 S4 2.333621 1_555
Ga0 S9 2.336173 1_545
Ga0 S10 2.336179 1_455
Ga1 S8 2.289148 1_555
Ga1 S12 2.340535 1_555
Ga1 S18 2.343021 1_455
Ga1 S16 2.343087 1_545
Ga2 S27 2.326248 1_445
Ga2 S21 2.328730 1_545
Ga2 S22 2.328795 1_455
Ga2 S32 2.336828 1_445
Ga3 S15 2.310504 1_555
Ga3 S20 2.333806 1_555
Ga3 S26 2.336621 1_455
Ga3 S25 2.336695 1_545
Ga4 S35 2.330009 1_445
Ga4 S40 2.330055 1_445
Ga4 S29 2.332568 1_545
Ga4 S30 2.332625 1_455
Ga5 S28 2.328532 1_555
Ga5 S34 2.331285 1_455
Ga5 S33 2.331371 1_545
Ga5 S23 2.333413 1_555
Ga6 S42 2.330082 1_445
Ga6 S37 2.332476 1_545
Ga6 S38 2.332504 1_455
Ga6 S48 2.335380 1_445
Ga7 S57 2.303267 1_555
Ga7 S51 2.335609 1_555
Ga7 S45 2.337951 1_655
Ga7 S46 2.337979 1_565
Ga8 S36 2.331080 1_555
Ga8 S31 2.332069 1_555
Ga8 S43 2.333413 1_455
Ga8 S41 2.333430 1_545
Ga9 S44 2.312610 1_555
Ga9 S50 2.314397 1_455
Ga9 S49 2.314516 1_545
Ga9 S39 2.361343 1_555
Ga10 S58 2.313926 1_455
Ga10 S55 2.314030 1_545
Ga10 S52 2.316790 1_555
Ga10 S47 2.361854 1_555
Ga11 S60 2.332226 1_555
Ga11 S64 2.334041 1_545
Ga11 S66 2.334065 1_455
Ga11 S56 2.338803 1_555
