# generated using pymatgen
data_Ti2NiH
_symmetry_space_group_name_H-M   'P 1'
_cell_length_a   8.08614222
_cell_length_b   8.08614222
_cell_length_c   8.08614222
_cell_angle_alpha   60.00000000
_cell_angle_beta   60.00000000
_cell_angle_gamma   60.00000000
_symmetry_Int_Tables_number   1
_chemical_formula_structural   Ti2NiH
_chemical_formula_sum   'Ti16 Ni8 H8'
_cell_volume   373.86010983
_cell_formula_units_Z   8
loop_
 _symmetry_equiv_pos_site_id
 _symmetry_equiv_pos_as_xyz
  1  'x, y, z'
loop_
 _atom_site_type_symbol
 _atom_site_label
 _atom_site_symmetry_multiplicity
 _atom_site_fract_x
 _atom_site_fract_y
 _atom_site_fract_z
 _atom_site_occupancy
  Ti  Ti0  1  0.80988500  0.80988500  0.19011500  1
  Ti  Ti1  1  0.19011500  0.19011500  0.80988500  1
  Ti  Ti2  1  0.80988500  0.19011500  0.80988500  1
  Ti  Ti3  1  0.19011500  0.80988500  0.19011500  1
  Ti  Ti4  1  0.19011500  0.80988500  0.80988500  1
  Ti  Ti5  1  0.80988500  0.19011500  0.19011500  1
  Ti  Ti6  1  0.44011500  0.44011500  0.05988500  1
  Ti  Ti7  1  0.05988500  0.05988500  0.44011500  1
  Ti  Ti8  1  0.44011500  0.05988500  0.44011500  1
  Ti  Ti9  1  0.05988500  0.44011500  0.05988500  1
  Ti  Ti10  1  0.05988500  0.44011500  0.44011500  1
  Ti  Ti11  1  0.44011500  0.05988500  0.05988500  1
  Ti  Ti12  1  0.12500000  0.62500000  0.62500000  1
  Ti  Ti13  1  0.62500000  0.12500000  0.62500000  1
  Ti  Ti14  1  0.62500000  0.62500000  0.12500000  1
  Ti  Ti15  1  0.62500000  0.62500000  0.62500000  1
  Ni  Ni0  1  0.77050300  0.40983200  0.40983200  1
  Ni  Ni1  1  0.40983200  0.77050300  0.40983200  1
  Ni  Ni2  1  0.40983200  0.40983200  0.77050300  1
  Ni  Ni3  1  0.40983200  0.40983200  0.40983200  1
  Ni  Ni4  1  0.47949700  0.84016800  0.84016800  1
  Ni  Ni5  1  0.84016800  0.47949700  0.84016800  1
  Ni  Ni6  1  0.84016800  0.84016800  0.47949700  1
  Ni  Ni7  1  0.84016800  0.84016800  0.84016800  1
  H  H0  1  0.62500000  0.12500000  0.12500000  1
  H  H1  1  0.12500000  0.62500000  0.12500000  1
  H  H2  1  0.12500000  0.12500000  0.62500000  1
  H  H3  1  0.12500000  0.12500000  0.12500000  1
  H  H4  1  0.25000000  0.25000000  0.25000000  1
  H  H5  1  0.00000000  0.00000000  0.00000000  1
  H  H6  1  0.50000000  0.50000000  0.50000000  1
  H  H7  1  0.75000000  0.75000000  0.75000000  1
loop_
_geom_bond_atom_site_label_1
_geom_bond_atom_site_label_2
_geom_bond_distance
_geom_bond_site_symmetry_2
Ni0 Ti13 2.524214 1_555
Ni0 Ti14 2.524214 1_555
Ni0 Ti15 2.524220 1_555
Ni1 Ti12 2.524214 1_555
Ni1 Ti14 2.524214 1_555
Ni1 Ti15 2.524220 1_555
Ni2 Ti13 2.524214 1_555
Ni2 Ti12 2.524214 1_555
Ni2 Ti15 2.524220 1_555
Ni3 Ti13 2.524219 1_555
Ni3 Ti12 2.524219 1_555
Ni3 Ti14 2.524219 1_555
Ni4 Ti14 2.524214 1_556
Ni4 Ti13 2.524214 1_565
Ni4 Ti15 2.524220 1_555
Ni5 Ti14 2.524214 1_556
Ni5 Ti12 2.524214 1_655
Ni5 Ti15 2.524220 1_555
Ni6 Ti13 2.524214 1_565
Ni6 Ti12 2.524214 1_655
Ni6 Ti15 2.524220 1_555
Ni7 Ti13 2.524219 1_565
Ni7 Ti12 2.524219 1_655
Ni7 Ti14 2.524219 1_556
H0 Ti8 2.154315 1_555
H0 Ti5 2.154315 1_555
H0 Ti6 2.154315 1_555
H0 Ti0 2.154315 1_545
H0 Ti2 2.154315 1_554
H0 Ti11 2.154315 1_555
H1 Ti3 2.154315 1_555
H1 Ti6 2.154315 1_555
H1 Ti10 2.154315 1_555
H1 Ti0 2.154315 1_455
H1 Ti9 2.154315 1_555
H1 Ti4 2.154315 1_554
H2 Ti1 2.154315 1_555
H2 Ti8 2.154315 1_555
H2 Ti10 2.154315 1_555
H2 Ti7 2.154315 1_555
H2 Ti2 2.154315 1_455
H2 Ti4 2.154315 1_545
H3 Ti9 2.154315 1_555
H3 Ti7 2.154315 1_555
H3 Ti11 2.154315 1_555
H3 Ti5 2.154315 1_455
H3 Ti1 2.154315 1_554
H3 Ti3 2.154315 1_545
H4 Ti10 2.174066 1_555
H4 Ti8 2.174066 1_555
H4 Ti6 2.174066 1_555
H4 Ti7 2.174066 1_555
H4 Ti11 2.174066 1_555
H4 Ti9 2.174066 1_555
H5 Ti3 2.174066 1_545
H5 Ti5 2.174066 1_455
H5 Ti0 2.174066 1_445
H5 Ti4 2.174066 1_544
H5 Ti2 2.174066 1_454
H5 Ti1 2.174066 1_554
H6 Ni0 1.785944 1_555
H6 Ni1 1.785944 1_555
H6 Ni2 1.785944 1_555
H6 Ni3 1.785951 1_555
H6 Ti13 2.475865 1_555
H6 Ti12 2.475865 1_555
H6 Ti14 2.475865 1_555
H6 Ti15 2.475865 1_555
H7 Ni4 1.785944 1_555
H7 Ni5 1.785944 1_555
H7 Ni6 1.785944 1_555
H7 Ni7 1.785951 1_555
H7 Ti13 2.475865 1_565
H7 Ti12 2.475865 1_655
H7 Ti14 2.475865 1_556
H7 Ti15 2.475865 1_555
