# generated using pymatgen
data_BaNaBO3
_symmetry_space_group_name_H-M   'P 1'
_cell_length_a   5.60521737
_cell_length_b   5.60521737
_cell_length_c   6.26954803
_cell_angle_alpha   82.22100618
_cell_angle_beta   82.22100618
_cell_angle_gamma   60.34316375
_symmetry_Int_Tables_number   1
_chemical_formula_structural   BaNaBO3
_chemical_formula_sum   'Ba2 Na2 B2 O6'
_cell_volume   169.06518119
_cell_formula_units_Z   2
loop_
 _symmetry_equiv_pos_site_id
 _symmetry_equiv_pos_as_xyz
  1  'x, y, z'
loop_
 _atom_site_type_symbol
 _atom_site_label
 _atom_site_symmetry_multiplicity
 _atom_site_fract_x
 _atom_site_fract_y
 _atom_site_fract_z
 _atom_site_occupancy
  Ba  Ba0  1  0.83262800  0.83262800  0.24227500  1
  Ba  Ba1  1  0.16737200  0.16737200  0.75772500  1
  Na  Na0  1  0.50000000  0.50000000  0.50000000  1
  Na  Na1  1  0.50000000  0.50000000  0.00000000  1
  B  B0  1  0.83307500  0.83307500  0.75125000  1
  B  B1  1  0.16692500  0.16692500  0.24875000  1
  O  O0  1  0.31554500  0.88879200  0.20931000  1
  O  O1  1  0.11120800  0.68445500  0.79069000  1
  O  O2  1  0.68445500  0.11120800  0.79069000  1
  O  O3  1  0.88879200  0.31554500  0.20931000  1
  O  O4  1  0.70414900  0.70414900  0.67741500  1
  O  O5  1  0.29585100  0.29585100  0.32258500  1
loop_
_geom_bond_atom_site_label_1
_geom_bond_atom_site_label_2
_geom_bond_distance
_geom_bond_site_symmetry_2
Ba0 O3 2.789967 1_555
Ba0 O0 2.789967 1_555
Ba0 O4 2.815933 1_555
Ba0 O0 2.853615 1_655
Ba0 O3 2.853615 1_565
Ba0 O5 2.874127 1_565
Ba0 O5 2.874127 1_655
Ba0 O1 3.049644 1_654
Ba0 O2 3.049644 1_564
Ba1 O2 2.789967 1_555
Ba1 O1 2.789967 1_555
Ba1 O5 2.815933 1_555
Ba1 O1 2.853615 1_545
Ba1 O2 2.853615 1_455
Ba1 O4 2.874127 1_545
Ba1 O4 2.874127 1_455
Ba1 O0 3.049644 1_546
Ba1 O3 3.049644 1_456
Na0 O4 2.416818 1_555
Na0 O5 2.416818 1_555
Na0 O3 2.518895 1_555
Na0 O0 2.518895 1_555
Na0 O1 2.518895 1_555
Na0 O2 2.518895 1_555
Na1 O0 2.391101 1_555
Na1 O3 2.391101 1_555
Na1 O1 2.391101 1_554
Na1 O2 2.391101 1_554
Na1 O4 2.598466 1_554
Na1 O5 2.598466 1_555
B0 O2 1.396048 1_565
B0 O1 1.396048 1_655
B0 O4 1.398814 1_555
B1 O0 1.396048 1_545
B1 O3 1.396048 1_455
B1 O5 1.398814 1_555
