# generated using pymatgen
data_Na2Mo(H2O3)2
_symmetry_space_group_name_H-M   'P 1'
_cell_length_a   8.27600800
_cell_length_b   11.39756900
_cell_length_c   14.41427800
_cell_angle_alpha   90.00000000
_cell_angle_beta   90.00000000
_cell_angle_gamma   90.00000000
_symmetry_Int_Tables_number   1
_chemical_formula_structural   Na2Mo(H2O3)2
_chemical_formula_sum   'Na16 Mo8 H32 O48'
_cell_volume   1359.64655198
_cell_formula_units_Z   8
loop_
 _symmetry_equiv_pos_site_id
 _symmetry_equiv_pos_as_xyz
  1  'x, y, z'
loop_
 _atom_site_type_symbol
 _atom_site_label
 _atom_site_symmetry_multiplicity
 _atom_site_fract_x
 _atom_site_fract_y
 _atom_site_fract_z
 _atom_site_occupancy
  Na  Na0  1  0.82291100  0.98347500  0.16206000  1
  Na  Na1  1  0.67708900  0.48347500  0.16206000  1
  Na  Na2  1  0.18398600  0.52151400  0.56944200  1
  Na  Na3  1  0.31601400  0.47848600  0.06944200  1
  Na  Na4  1  0.82291100  0.51652500  0.66206000  1
  Na  Na5  1  0.17708900  0.48347500  0.33794000  1
  Na  Na6  1  0.68398600  0.52151400  0.93055800  1
  Na  Na7  1  0.81601400  0.02151400  0.93055800  1
  Na  Na8  1  0.81601400  0.47848600  0.43055800  1
  Na  Na9  1  0.68398600  0.97848600  0.43055800  1
  Na  Na10  1  0.32291100  0.98347500  0.33794000  1
  Na  Na11  1  0.32291100  0.51652500  0.83794000  1
  Na  Na12  1  0.31601400  0.02151400  0.56944200  1
  Na  Na13  1  0.17708900  0.01652500  0.83794000  1
  Na  Na14  1  0.18398600  0.97848600  0.06944200  1
  Na  Na15  1  0.67708900  0.01652500  0.66206000  1
  Mo  Mo0  1  0.97087600  0.72780800  0.04571500  1
  Mo  Mo1  1  0.02912400  0.27219200  0.95428500  1
  Mo  Mo2  1  0.47087600  0.72780800  0.45428500  1
  Mo  Mo3  1  0.02912400  0.22780800  0.45428500  1
  Mo  Mo4  1  0.52912400  0.22780800  0.04571500  1
  Mo  Mo5  1  0.97087600  0.77219200  0.54571500  1
  Mo  Mo6  1  0.52912400  0.27219200  0.54571500  1
  Mo  Mo7  1  0.47087600  0.77219200  0.95428500  1
  H  H0  1  0.01945300  0.95094700  0.66332300  1
  H  H1  1  0.51366800  0.91617600  0.18044100  1
  H  H2  1  0.12274100  0.74201400  0.90187800  1
  H  H3  1  0.51945300  0.54905300  0.33667700  1
  H  H4  1  0.98054700  0.04905300  0.33667700  1
  H  H5  1  0.48054700  0.45094700  0.66332300  1
  H  H6  1  0.12039400  0.75083900  0.19452600  1
  H  H7  1  0.37960600  0.25083900  0.19452600  1
  H  H8  1  0.62039400  0.75083900  0.30547400  1
  H  H9  1  0.98633200  0.41617600  0.18044100  1
  H  H10  1  0.37725900  0.25798600  0.40187800  1
  H  H11  1  0.98633200  0.08382400  0.68044100  1
  H  H12  1  0.48633200  0.08382400  0.81955900  1
  H  H13  1  0.62039400  0.74916100  0.80547400  1
  H  H14  1  0.37960600  0.24916100  0.69452600  1
  H  H15  1  0.51366800  0.58382400  0.68044100  1
  H  H16  1  0.98054700  0.45094700  0.83667700  1
  H  H17  1  0.48054700  0.04905300  0.16332300  1
  H  H18  1  0.01366800  0.91617600  0.31955900  1
  H  H19  1  0.12274100  0.75798600  0.40187800  1
  H  H20  1  0.87725900  0.25798600  0.09812200  1
  H  H21  1  0.87725900  0.24201400  0.59812200  1
  H  H22  1  0.48633200  0.41617600  0.31955900  1
  H  H23  1  0.87960600  0.25083900  0.30547400  1
  H  H24  1  0.01945300  0.54905300  0.16332300  1
  H  H25  1  0.62274100  0.74201400  0.59812200  1
  H  H26  1  0.87960600  0.24916100  0.80547400  1
  H  H27  1  0.01366800  0.58382400  0.81955900  1
  H  H28  1  0.37725900  0.24201400  0.90187800  1
  H  H29  1  0.12039400  0.74916100  0.69452600  1
  H  H30  1  0.51945300  0.95094700  0.83667700  1
  H  H31  1  0.62274100  0.75798600  0.09812200  1
  O  O0  1  0.06688400  0.11559500  0.97408300  1
  O  O1  1  0.45217600  0.30793400  0.16537600  1
  O  O2  1  0.04782400  0.69206600  0.66537600  1
  O  O3  1  0.93311600  0.61559500  0.52591700  1
  O  O4  1  0.02120900  0.69746900  0.91279400  1
  O  O5  1  0.37958600  0.12064300  0.08572200  1
  O  O6  1  0.12041400  0.62064300  0.08572200  1
  O  O7  1  0.47571900  0.49333700  0.28822000  1
  O  O8  1  0.47879100  0.30253100  0.41279400  1
  O  O9  1  0.97879100  0.19746900  0.58720600  1
  O  O10  1  0.52120900  0.69746900  0.58720600  1
  O  O11  1  0.97879100  0.30253100  0.08720600  1
  O  O12  1  0.93311600  0.88440500  0.02591700  1
  O  O13  1  0.62041400  0.87935700  0.91427800  1
  O  O14  1  0.95217600  0.30793400  0.33462400  1
  O  O15  1  0.97571900  0.49333700  0.21178000  1
  O  O16  1  0.28081200  0.65749800  0.43297200  1
  O  O17  1  0.97571900  0.00666300  0.71178000  1
  O  O18  1  0.62041400  0.62064300  0.41427800  1
  O  O19  1  0.52428100  0.50666300  0.71178000  1
  O  O20  1  0.02428100  0.50666300  0.78822000  1
  O  O21  1  0.28081200  0.84250200  0.93297200  1
  O  O22  1  0.43311600  0.88440500  0.47408300  1
  O  O23  1  0.21918800  0.15749800  0.43297200  1
  O  O24  1  0.56688400  0.38440500  0.02591700  1
  O  O25  1  0.87958600  0.37935700  0.91427800  1
  O  O26  1  0.87958600  0.12064300  0.41427800  1
  O  O27  1  0.52120900  0.80253100  0.08720600  1
  O  O28  1  0.56688400  0.11559500  0.52591700  1
  O  O29  1  0.12041400  0.87935700  0.58572200  1
  O  O30  1  0.43311600  0.61559500  0.97408300  1
  O  O31  1  0.37958600  0.37935700  0.58572200  1
  O  O32  1  0.47571900  0.00666300  0.78822000  1
  O  O33  1  0.21918800  0.34250200  0.93297200  1
  O  O34  1  0.78081200  0.84250200  0.56702800  1
  O  O35  1  0.47879100  0.19746900  0.91279400  1
  O  O36  1  0.54782400  0.80793400  0.33462400  1
  O  O37  1  0.54782400  0.69206600  0.83462400  1
  O  O38  1  0.45217600  0.19206600  0.66537600  1
  O  O39  1  0.06688400  0.38440500  0.47408300  1
  O  O40  1  0.71918800  0.15749800  0.06702800  1
  O  O41  1  0.95217600  0.19206600  0.83462400  1
  O  O42  1  0.04782400  0.80793400  0.16537600  1
  O  O43  1  0.78081200  0.65749800  0.06702800  1
  O  O44  1  0.52428100  0.99333700  0.21178000  1
  O  O45  1  0.02120900  0.80253100  0.41279400  1
  O  O46  1  0.02428100  0.99333700  0.28822000  1
  O  O47  1  0.71918800  0.34250200  0.56702800  1
loop_
_geom_bond_atom_site_label_1
_geom_bond_atom_site_label_2
_geom_bond_distance
_geom_bond_site_symmetry_2
Na0 O12 2.440875 1_555
Na0 O46 2.469200 1_655
Na0 O40 2.558770 1_565
Na0 O44 2.575732 1_555
Na0 O42 2.733128 1_655
Na1 O24 2.440875 1_555
Na1 O7 2.469200 1_555
Na1 O43 2.558770 1_555
Na1 O15 2.575732 1_555
Na1 O1 2.733128 1_555
Na2 O39 2.295784 1_555
Na2 O31 2.302332 1_555
Na2 O3 2.419512 1_455
Na2 O16 2.629417 1_555
Na2 O2 2.638315 1_555
Na3 O30 2.295784 1_554
Na3 O6 2.302332 1_555
Na3 O24 2.419512 1_555
Na3 O33 2.629417 1_554
Na3 O1 2.638315 1_555
Na4 O3 2.440875 1_555
Na4 O20 2.469200 1_655
Na4 O47 2.558770 1_555
Na4 O19 2.575732 1_555
Na4 O2 2.733128 1_655
Na5 O39 2.440875 1_555
Na5 O15 2.469200 1_455
Na5 O16 2.558770 1_555
Na5 O7 2.575732 1_555
Na5 O14 2.733128 1_455
Na6 O24 2.295784 1_556
Na6 O25 2.302332 1_555
Na6 O30 2.419512 1_555
Na6 O43 2.629417 1_556
Na6 O37 2.638315 1_555
Na7 O12 2.295784 1_546
Na7 O13 2.302332 1_545
Na7 O0 2.419512 1_655
Na7 O40 2.629417 1_556
Na7 O41 2.638315 1_555
Na8 O3 2.295784 1_555
Na8 O18 2.302332 1_555
Na8 O39 2.419512 1_655
Na8 O47 2.629417 1_555
Na8 O14 2.638315 1_555
Na9 O28 2.295784 1_565
Na9 O26 2.302332 1_565
Na9 O22 2.419512 1_555
Na9 O34 2.629417 1_555
Na9 O36 2.638315 1_555
Na10 O22 2.440875 1_555
Na10 O44 2.469200 1_555
Na10 O23 2.558770 1_565
Na10 O46 2.575732 1_555
Na10 O36 2.733128 1_555
Na11 O30 2.440875 1_555
Na11 O19 2.469200 1_555
Na11 O33 2.558770 1_555
Na11 O20 2.575732 1_555
Na11 O37 2.733128 1_555
Na12 O22 2.295784 1_545
Na12 O29 2.302332 1_545
Na12 O28 2.419512 1_555
Na12 O23 2.629417 1_555
Na12 O38 2.638315 1_555
Na13 O0 2.440875 1_555
Na13 O17 2.469200 1_455
Na13 O21 2.558770 1_545
Na13 O32 2.575732 1_555
Na13 O41 2.733128 1_455
Na14 O0 2.295784 1_564
Na14 O5 2.302332 1_565
Na14 O12 2.419512 1_455
Na14 O21 2.629417 1_554
Na14 O42 2.638315 1_555
Na15 O28 2.440875 1_555
Na15 O32 2.469200 1_555
Na15 O34 2.558770 1_545
Na15 O17 2.575732 1_555
Na15 O38 2.733128 1_555
Mo0 O43 1.791871 1_555
Mo0 O6 1.831944 1_655
Mo0 O12 1.834311 1_555
Mo0 O4 1.990978 1_654
Mo0 O42 2.052944 1_655
Mo1 O33 1.791871 1_555
Mo1 O25 1.831944 1_455
Mo1 O0 1.834311 1_555
Mo1 O11 1.990978 1_456
Mo1 O41 2.052944 1_455
Mo2 O16 1.791871 1_555
Mo2 O18 1.831944 1_555
Mo2 O22 1.834311 1_555
Mo2 O10 1.990978 1_555
Mo2 O36 2.052944 1_555
Mo3 O23 1.791871 1_555
Mo3 O26 1.831944 1_455
Mo3 O39 1.834311 1_555
Mo3 O9 1.990978 1_455
Mo3 O14 2.052944 1_455
Mo4 O40 1.791871 1_555
Mo4 O5 1.831944 1_555
Mo4 O24 1.834311 1_555
Mo4 O35 1.990978 1_554
Mo4 O1 2.052944 1_555
Mo5 O34 1.791871 1_555
Mo5 O29 1.831944 1_655
Mo5 O3 1.834311 1_555
Mo5 O45 1.990978 1_655
Mo5 O2 2.052944 1_655
Mo6 O47 1.791871 1_555
Mo6 O31 1.831944 1_555
Mo6 O28 1.834311 1_555
Mo6 O8 1.990978 1_555
Mo6 O38 2.052944 1_555
Mo7 O21 1.791871 1_555
Mo7 O13 1.831944 1_555
Mo7 O30 1.834311 1_555
Mo7 O27 1.990978 1_556
Mo7 O37 2.052944 1_555
H0 O17 1.011002 1_465
H0 O29 1.617130 1_555
H1 O44 0.992574 1_555
H2 O4 0.994280 1_555
H3 O7 1.011002 1_555
H3 O18 1.617130 1_555
H4 O46 1.011002 1_645
H4 O26 1.617130 1_555
H5 O19 1.011002 1_555
H5 O31 1.617130 1_555
H6 O42 0.980165 1_555
H7 O1 0.980165 1_555
H8 O36 0.980165 1_555
H9 O15 0.992574 1_555
H10 O8 0.994280 1_555
H11 O17 0.992574 1_555
H12 O32 0.992574 1_555
H13 O37 0.980165 1_555
H14 O38 0.980165 1_555
H15 O19 0.992574 1_555
H16 O20 1.011002 1_655
H16 O25 1.617130 1_555
H17 O44 1.011002 1_545
H17 O5 1.617130 1_555
H18 O46 0.992574 1_555
H19 O45 0.994280 1_555
H20 O11 0.994280 1_555
H21 O9 0.994280 1_555
H22 O7 0.992574 1_555
H23 O14 0.980165 1_555
H24 O15 1.011002 1_455
H24 O6 1.617130 1_555
H25 O10 0.994280 1_555
H26 O41 0.980165 1_555
H27 O20 0.992574 1_555
H28 O35 0.994280 1_555
H29 O2 0.980165 1_555
H30 O32 1.011002 1_565
H30 O13 1.617130 1_555
H31 O27 0.994280 1_555
