# generated using pymatgen
data_Fe2CoO4
_symmetry_space_group_name_H-M   'P 1'
_cell_length_a   6.02870076
_cell_length_b   6.02870076
_cell_length_c   36.02235431
_cell_angle_alpha   60.29609853
_cell_angle_beta   60.29609854
_cell_angle_gamma   60.29211291
_symmetry_Int_Tables_number   1
_chemical_formula_structural   Fe2CoO4
_chemical_formula_sum   'Fe24 Co12 O48'
_cell_volume   931.94858321
_cell_formula_units_Z   12
loop_
 _symmetry_equiv_pos_site_id
 _symmetry_equiv_pos_as_xyz
  1  'x, y, z'
loop_
 _atom_site_type_symbol
 _atom_site_label
 _atom_site_symmetry_multiplicity
 _atom_site_fract_x
 _atom_site_fract_y
 _atom_site_fract_z
 _atom_site_occupancy
  Fe  Fe0  1  0.12371954  0.12371954  0.01986730  1
  Fe  Fe1  1  0.00099757  0.50287023  0.08218263  1
  Fe  Fe2  1  0.50297826  0.50297826  -0.00097357  1
  Fe  Fe3  1  0.12286690  0.12286690  0.18804053  1
  Fe  Fe4  1  0.50287023  0.00099757  0.08218263  1
  Fe  Fe5  1  0.99403449  0.50114294  0.25053603  1
  Fe  Fe6  1  0.11924126  0.11924126  0.35544199  1
  Fe  Fe7  1  0.50265219  0.50265219  0.16501146  1
  Fe  Fe8  1  0.99859668  0.49873236  0.41739257  1
  Fe  Fe9  1  0.49873236  0.99859668  0.41739257  1
  Fe  Fe10  1  0.11846870  0.11846870  0.52216358  1
  Fe  Fe11  1  0.50114294  0.99403449  0.25053603  1
  Fe  Fe12  1  -0.00052171  0.49890581  0.58366235  1
  Fe  Fe13  1  0.87897048  0.87897048  0.31274195  1
  Fe  Fe14  1  0.11923542  0.11923542  0.68890040  1
  Fe  Fe15  1  -0.00012194  0.49973658  0.75020119  1
  Fe  Fe16  1  0.87981875  0.87981875  0.47842902  1
  Fe  Fe17  1  0.11941732  0.11941732  0.85495825  1
  Fe  Fe18  1  0.49890581  -0.00052171  0.58366235  1
  Fe  Fe19  1  0.00281789  0.49843692  0.91625480  1
  Fe  Fe20  1  0.49973658  -0.00012194  0.75020119  1
  Fe  Fe21  1  0.88076625  0.88076625  0.64495100  1
  Fe  Fe22  1  0.88071821  0.88071821  0.81150793  1
  Fe  Fe23  1  0.49843692  0.00281789  0.91625480  1
  Co  Co0  1  0.49767937  0.49767937  0.08439057  1
  Co  Co1  1  0.49979862  0.49979862  0.25000624  1
  Co  Co2  1  0.49896276  0.49896276  0.33369040  1
  Co  Co3  1  0.87874890  0.87874890  0.14472020  1
  Co  Co4  1  0.49961156  0.49961156  0.41653784  1
  Co  Co5  1  0.49940881  0.49940881  0.50037491  1
  Co  Co6  1  0.49985446  0.49985446  0.58332648  1
  Co  Co7  1  0.50056091  0.50056091  0.66673158  1
  Co  Co8  1  0.50036744  0.50036744  0.74991381  1
  Co  Co9  1  0.50003604  0.50003604  0.83340980  1
  Co  Co10  1  0.50241315  0.50241315  0.91624190  1
  Co  Co11  1  0.87767716  0.87767716  0.97805633  1
  O  O0  1  0.26050430  0.26050430  0.04471275  1
  O  O1  1  0.26563670  0.70700289  0.04688955  1
  O  O2  1  0.26209986  0.26209986  0.12254180  1
  O  O3  1  0.70700289  0.26563670  0.04688955  1
  O  O4  1  0.28545747  0.73353283  0.12214789  1
  O  O5  1  0.25725054  0.25725054  0.20984207  1
  O  O6  1  0.24998161  0.73071750  0.20820311  1
  O  O7  1  0.25338924  0.25338924  0.28842680  1
  O  O8  1  0.73353283  0.28545747  0.12214789  1
  O  O9  1  0.72973957  0.72973957  0.04798955  1
  O  O10  1  0.73071750  0.24998161  0.20820311  1
  O  O11  1  0.73833523  0.73833523  0.12348721  1
  O  O12  1  0.26638945  0.75546270  0.28955736  1
  O  O13  1  0.25322160  0.25322160  0.37708634  1
  O  O14  1  0.24615640  0.73133708  0.37710887  1
  O  O15  1  0.75546270  0.26638945  0.28955736  1
  O  O16  1  0.24986195  0.24986195  0.45552513  1
  O  O17  1  0.74354886  0.74354886  0.21315233  1
  O  O18  1  0.73133708  0.24615640  0.37710887  1
  O  O19  1  0.74838258  0.74838258  0.28969565  1
  O  O20  1  0.26884802  0.75332149  0.45605587  1
  O  O21  1  0.25078772  0.25078772  0.54405745  1
  O  O22  1  0.74820127  0.74820127  0.37845957  1
  O  O23  1  0.25331112  0.25331112  0.62180920  1
  O  O24  1  0.75332149  0.26884802  0.45605587  1
  O  O25  1  0.24578964  0.73069825  0.54316667  1
  O  O26  1  0.73069825  0.24578964  0.54316667  1
  O  O27  1  0.74924832  0.74924832  0.45573871  1
  O  O28  1  0.26965465  0.75449069  0.62302242  1
  O  O29  1  0.25173836  0.25173836  0.71069312  1
  O  O30  1  0.25412832  0.25412832  0.78815569  1
  O  O31  1  0.24694051  0.73167965  0.70972286  1
  O  O32  1  0.74713470  0.74713470  0.54462160  1
  O  O33  1  0.75449069  0.26965465  0.62302242  1
  O  O34  1  0.73167965  0.24694051  0.70972286  1
  O  O35  1  0.75089072  0.75089072  0.62197255  1
  O  O36  1  0.26989844  0.75503323  0.78957953  1
  O  O37  1  0.24957041  0.24957041  0.87725813  1
  O  O38  1  0.75503323  0.26989844  0.78957953  1
  O  O39  1  0.74782009  0.74782009  0.71114198  1
  O  O40  1  0.24648589  0.73327928  0.87630301  1
  O  O41  1  0.26070161  0.26070161  0.95212733  1
  O  O42  1  0.75083074  0.75083074  0.78856269  1
  O  O43  1  0.73327928  0.24648589  0.87630301  1
  O  O44  1  0.27757596  0.74641233  0.95838715  1
  O  O45  1  0.74641233  0.27757596  0.95838715  1
  O  O46  1  0.74843970  0.74843970  0.87732571  1
  O  O47  1  0.73948024  0.73948024  0.95642898  1
loop_
_geom_bond_atom_site_label_1
_geom_bond_atom_site_label_2
_geom_bond_distance
_geom_bond_site_symmetry_2
Fe0 O41 2.000032 1_554
Fe0 O1 2.064555 1_545
Fe0 O3 2.064555 1_455
Fe0 O0 2.073140 1_555
Fe1 O0 2.000114 1_555
Fe1 O1 2.015333 1_555
Fe1 O9 2.042514 1_455
Fe1 O11 2.065593 1_455
Fe1 O8 2.077203 1_455
Fe1 O2 2.147169 1_555
Fe2 O44 2.002272 1_554
Fe2 O45 2.002272 1_554
Fe2 O47 2.024565 1_554
Fe2 O0 2.081297 1_555
Fe2 O3 2.108397 1_555
Fe2 O1 2.108397 1_555
Fe3 O2 1.936212 1_555
Fe3 O6 1.938606 1_545
Fe3 O10 1.938606 1_455
Fe3 O5 1.959880 1_555
Fe4 O0 2.000114 1_555
Fe4 O3 2.015333 1_555
Fe4 O9 2.042514 1_545
Fe4 O11 2.065593 1_545
Fe4 O4 2.077203 1_545
Fe4 O2 2.147169 1_555
Fe5 O15 2.022343 1_555
Fe5 O17 2.026626 1_555
Fe5 O19 2.056762 1_555
Fe5 O6 2.077275 1_655
Fe5 O7 2.078111 1_655
Fe5 O5 2.084955 1_655
Fe6 O14 1.916489 1_545
Fe6 O18 1.916489 1_455
Fe6 O13 1.951320 1_555
Fe6 O7 1.978470 1_555
Fe7 O11 2.015829 1_555
Fe7 O4 2.025666 1_555
Fe7 O8 2.025666 1_555
Fe7 O10 2.080126 1_555
Fe7 O6 2.080126 1_555
Fe7 O5 2.102234 1_555
Fe8 O24 2.030840 1_555
Fe8 O16 2.049284 1_655
Fe8 O27 2.051374 1_555
Fe8 O14 2.052080 1_655
Fe8 O22 2.065211 1_555
Fe8 O13 2.079469 1_655
Fe9 O20 2.030840 1_555
Fe9 O16 2.049284 1_565
Fe9 O27 2.051374 1_555
Fe9 O18 2.052080 1_565
Fe9 O22 2.065211 1_555
Fe9 O13 2.079469 1_565
Fe10 O25 1.915939 1_545
Fe10 O26 1.915939 1_455
Fe10 O21 1.942263 1_555
Fe10 O16 1.967296 1_555
Fe11 O12 2.022343 1_555
Fe11 O17 2.026626 1_555
Fe11 O19 2.056762 1_555
Fe11 O10 2.077275 1_565
Fe11 O7 2.078111 1_565
Fe11 O5 2.084955 1_565
Fe12 O33 2.026756 1_455
Fe12 O25 2.043409 1_555
Fe12 O35 2.056625 1_455
Fe12 O23 2.060136 1_555
Fe12 O21 2.072404 1_555
Fe12 O32 2.075992 1_455
Fe13 O15 1.914815 1_565
Fe13 O12 1.914815 1_655
Fe13 O22 1.940116 1_555
Fe13 O19 1.959228 1_555
Fe14 O31 1.914931 1_545
Fe14 O34 1.914931 1_455
Fe14 O29 1.941110 1_555
Fe14 O23 1.980697 1_555
Fe15 O38 2.028602 1_455
Fe15 O31 2.047254 1_555
Fe15 O42 2.054153 1_455
Fe15 O30 2.057245 1_555
Fe15 O29 2.069628 1_555
Fe15 O39 2.075202 1_455
Fe16 O24 1.922192 1_565
Fe16 O20 1.922192 1_655
Fe16 O27 1.948530 1_555
Fe16 O32 1.954200 1_555
Fe17 O40 1.907756 1_545
Fe17 O43 1.907756 1_455
Fe17 O37 1.932925 1_555
Fe17 O30 1.972300 1_555
Fe18 O28 2.026756 1_545
Fe18 O26 2.043409 1_555
Fe18 O35 2.056625 1_545
Fe18 O23 2.060136 1_555
Fe18 O21 2.072404 1_555
Fe18 O32 2.075992 1_545
Fe19 O41 2.021902 1_555
Fe19 O45 2.044039 1_455
Fe19 O40 2.044643 1_555
Fe19 O37 2.059824 1_555
Fe19 O47 2.060835 1_455
Fe19 O46 2.082228 1_455
Fe20 O36 2.028602 1_545
Fe20 O34 2.047254 1_555
Fe20 O42 2.054153 1_545
Fe20 O30 2.057245 1_555
Fe20 O29 2.069628 1_555
Fe20 O39 2.075202 1_545
Fe21 O33 1.921388 1_565
Fe21 O28 1.921388 1_655
Fe21 O35 1.950254 1_555
Fe21 O39 1.954179 1_555
Fe22 O38 1.922853 1_565
Fe22 O36 1.922853 1_655
Fe22 O46 1.943170 1_555
Fe22 O42 1.949387 1_555
Fe23 O41 2.021902 1_555
Fe23 O44 2.044039 1_545
Fe23 O43 2.044643 1_555
Fe23 O37 2.059824 1_555
Fe23 O47 2.060835 1_545
Fe23 O46 2.082228 1_545
Co0 O3 1.951400 1_555
Co0 O1 1.951400 1_555
Co0 O4 1.974211 1_555
Co0 O8 1.974211 1_555
Co0 O9 1.984391 1_555
Co0 O2 2.013311 1_555
Co1 O17 2.086832 1_555
Co1 O12 2.103649 1_555
Co1 O15 2.103649 1_555
Co1 O7 2.107426 1_555
Co1 O10 2.136770 1_555
Co1 O6 2.136770 1_555
Co2 O13 2.102017 1_555
Co2 O18 2.103440 1_555
Co2 O14 2.103440 1_555
Co2 O12 2.123271 1_555
Co2 O15 2.123271 1_555
Co2 O19 2.133401 1_555
Co3 O11 2.002935 1_555
Co3 O8 2.010369 1_565
Co3 O4 2.010369 1_655
Co3 O17 2.020243 1_555
Co4 O18 2.091025 1_555
Co4 O14 2.091025 1_555
Co4 O20 2.094628 1_555
Co4 O24 2.094628 1_555
Co4 O22 2.127243 1_555
Co4 O16 2.135924 1_555
Co5 O26 2.083127 1_555
Co5 O25 2.083127 1_555
Co5 O20 2.119520 1_555
Co5 O24 2.119520 1_555
Co5 O21 2.126305 1_555
Co5 O27 2.137995 1_555
Co6 O28 2.103450 1_555
Co6 O33 2.103450 1_555
Co6 O23 2.108510 1_555
Co6 O26 2.112717 1_555
Co6 O25 2.112717 1_555
Co6 O32 2.114656 1_555
Co7 O34 2.087529 1_555
Co7 O31 2.087529 1_555
Co7 O28 2.105152 1_555
Co7 O33 2.105152 1_555
Co7 O29 2.128409 1_555
Co7 O35 2.142259 1_555
Co8 O36 2.102742 1_555
Co8 O38 2.102742 1_555
Co8 O30 2.106206 1_555
Co8 O34 2.110578 1_555
Co8 O31 2.110578 1_555
Co8 O39 2.116075 1_555
Co9 O43 2.093640 1_555
Co9 O40 2.093640 1_555
Co9 O36 2.105361 1_555
Co9 O38 2.105361 1_555
Co9 O37 2.141851 1_555
Co9 O42 2.146247 1_555
Co10 O41 2.070982 1_555
Co10 O46 2.103409 1_555
Co10 O43 2.115308 1_555
Co10 O40 2.115308 1_555
Co10 O44 2.122153 1_555
Co10 O45 2.122153 1_555
Co11 O45 1.977974 1_565
Co11 O44 1.977974 1_655
Co11 O47 1.992419 1_555
Co11 O9 2.066926 1_556
