# generated using pymatgen
data_Na2H4RuC5(N2O)3
_symmetry_space_group_name_H-M   'P 1'
_cell_length_a   6.32965400
_cell_length_b   12.13351100
_cell_length_c   15.88744700
_cell_angle_alpha   90.00000000
_cell_angle_beta   90.00000000
_cell_angle_gamma   90.00000000
_symmetry_Int_Tables_number   1
_chemical_formula_structural   Na2H4RuC5(N2O)3
_chemical_formula_sum   'Na8 H16 Ru4 C20 N24 O12'
_cell_volume   1220.17064829
_cell_formula_units_Z   4
loop_
 _symmetry_equiv_pos_site_id
 _symmetry_equiv_pos_as_xyz
  1  'x, y, z'
loop_
 _atom_site_type_symbol
 _atom_site_label
 _atom_site_symmetry_multiplicity
 _atom_site_fract_x
 _atom_site_fract_y
 _atom_site_fract_z
 _atom_site_occupancy
  Na  Na0  1  0.00000000  0.50000000  0.74645100  1
  Na  Na1  1  0.50000000  0.00000000  0.75354900  1
  Na  Na2  1  0.00000000  0.50000000  0.25354900  1
  Na  Na3  1  0.50000000  0.00000000  0.24645100  1
  Na  Na4  1  0.50000000  0.50000000  0.87718900  1
  Na  Na5  1  0.00000000  0.00000000  0.62281100  1
  Na  Na6  1  0.50000000  0.50000000  0.12281100  1
  Na  Na7  1  0.00000000  0.00000000  0.37718900  1
  H  H0  1  0.67894400  0.30032100  0.78703300  1
  H  H1  1  0.32105600  0.69967900  0.78703300  1
  H  H2  1  0.17894400  0.19967900  0.71296700  1
  H  H3  1  0.82105600  0.80032100  0.71296700  1
  H  H4  1  0.32105600  0.69967900  0.21296700  1
  H  H5  1  0.67894400  0.30032100  0.21296700  1
  H  H6  1  0.82105600  0.80032100  0.28703300  1
  H  H7  1  0.17894400  0.19967900  0.28703300  1
  H  H8  1  0.56095100  0.38209100  0.72812000  1
  H  H9  1  0.43904900  0.61790900  0.72812000  1
  H  H10  1  0.06095100  0.11790900  0.77188000  1
  H  H11  1  0.93904900  0.88209100  0.77188000  1
  H  H12  1  0.43904900  0.61790900  0.27188000  1
  H  H13  1  0.56095100  0.38209100  0.27188000  1
  H  H14  1  0.93904900  0.88209100  0.22812000  1
  H  H15  1  0.06095100  0.11790900  0.22812000  1
  Ru  Ru0  1  0.99823000  0.21914900  0.00000000  1
  Ru  Ru1  1  0.00177000  0.78085100  0.00000000  1
  Ru  Ru2  1  0.49823000  0.28085100  0.50000000  1
  Ru  Ru3  1  0.50177000  0.71914900  0.50000000  1
  C  C0  1  0.74155700  0.32070000  0.00000000  1
  C  C1  1  0.25844300  0.67930000  0.00000000  1
  C  C2  1  0.24155700  0.17930000  0.50000000  1
  C  C3  1  0.75844300  0.82070000  0.50000000  1
  C  C4  1  0.11118500  0.32337000  0.09120200  1
  C  C5  1  0.88881500  0.67663000  0.09120200  1
  C  C6  1  0.61118500  0.17663000  0.40879800  1
  C  C7  1  0.38881500  0.82337000  0.40879800  1
  C  C8  1  0.88881500  0.67663000  0.90879800  1
  C  C9  1  0.11118500  0.32337000  0.90879800  1
  C  C10  1  0.38881500  0.82337000  0.59120200  1
  C  C11  1  0.61118500  0.17663000  0.59120200  1
  C  C12  1  0.83946100  0.13373500  0.90779000  1
  C  C13  1  0.16053900  0.86626500  0.90779000  1
  C  C14  1  0.33946100  0.36626500  0.59221000  1
  C  C15  1  0.66053900  0.63373500  0.59221000  1
  C  C16  1  0.16053900  0.86626500  0.09221000  1
  C  C17  1  0.83946100  0.13373500  0.09221000  1
  C  C18  1  0.66053900  0.63373500  0.40779000  1
  C  C19  1  0.33946100  0.36626500  0.40779000  1
  N  N0  1  0.23335000  0.13780200  0.00000000  1
  N  N1  1  0.76665000  0.86219800  0.00000000  1
  N  N2  1  0.73335000  0.36219800  0.50000000  1
  N  N3  1  0.26665000  0.63780200  0.50000000  1
  N  N4  1  0.59406700  0.37903000  0.00000000  1
  N  N5  1  0.40593300  0.62097000  0.00000000  1
  N  N6  1  0.09406700  0.12097000  0.50000000  1
  N  N7  1  0.90593300  0.87903000  0.50000000  1
  N  N8  1  0.17016500  0.38351800  0.14408800  1
  N  N9  1  0.82983500  0.61648200  0.14408800  1
  N  N10  1  0.67016500  0.11648200  0.35591200  1
  N  N11  1  0.32983500  0.88351800  0.35591200  1
  N  N12  1  0.82983500  0.61648200  0.85591200  1
  N  N13  1  0.17016500  0.38351800  0.85591200  1
  N  N14  1  0.32983500  0.88351800  0.64408800  1
  N  N15  1  0.67016500  0.11648200  0.64408800  1
  N  N16  1  0.74433200  0.09004200  0.85367500  1
  N  N17  1  0.25566800  0.90995800  0.85367500  1
  N  N18  1  0.24433100  0.40995800  0.64632500  1
  N  N19  1  0.75566800  0.59004200  0.64632500  1
  N  N20  1  0.25566800  0.90995800  0.14632500  1
  N  N21  1  0.74433200  0.09004200  0.14632500  1
  N  N22  1  0.75566800  0.59004200  0.35367500  1
  N  N23  1  0.24433100  0.40995800  0.35367500  1
  O  O0  1  0.39353800  0.09261700  0.00000000  1
  O  O1  1  0.60646200  0.90738300  0.00000000  1
  O  O2  1  0.89353800  0.40738300  0.50000000  1
  O  O3  1  0.10646200  0.59261700  0.50000000  1
  O  O4  1  0.67373000  0.37780700  0.77026500  1
  O  O5  1  0.32627000  0.62219300  0.77026500  1
  O  O6  1  0.17373000  0.12219300  0.72973500  1
  O  O7  1  0.82627000  0.87780700  0.72973500  1
  O  O8  1  0.32627000  0.62219300  0.22973500  1
  O  O9  1  0.67373000  0.37780700  0.22973500  1
  O  O10  1  0.82627000  0.87780700  0.27026500  1
  O  O11  1  0.17373000  0.12219300  0.27026500  1
loop_
_geom_bond_atom_site_label_1
_geom_bond_atom_site_label_2
_geom_bond_distance
_geom_bond_site_symmetry_2
Na0 O5 2.570270 1_555
Na0 O4 2.570270 1_455
Na1 O6 2.570270 1_555
Na1 O7 2.570270 1_545
Na2 O9 2.570270 1_455
Na2 O8 2.570270 1_555
Na3 O11 2.570270 1_555
Na3 O10 2.570270 1_545
Na4 O5 2.508620 1_555
Na4 O4 2.508620 1_555
Na5 O7 2.508620 1_445
Na5 O6 2.508620 1_555
Na6 O8 2.508620 1_555
Na6 O9 2.508620 1_555
Na7 O10 2.508620 1_445
Na7 O11 2.508620 1_555
H0 O4 0.977748 1_555
H1 O5 0.977748 1_555
H2 O6 0.977748 1_555
H3 O7 0.977748 1_555
H4 O8 0.977748 1_555
H5 O9 0.977748 1_555
H6 O10 0.977748 1_555
H7 O11 0.977748 1_555
H8 O4 0.980112 1_555
H9 O5 0.980112 1_555
H10 O6 0.980112 1_555
H11 O7 0.980112 1_555
H12 O8 0.980112 1_555
H13 O9 0.980112 1_555
H14 O10 0.980112 1_555
H15 O11 0.980112 1_555
C0 N4 1.171513 1_555
C0 Ru0 2.039053 1_555
C1 N5 1.171513 1_555
C1 Ru1 2.039053 1_555
C2 N6 1.171513 1_555
C2 Ru2 2.039053 1_555
C3 N7 1.171513 1_555
C3 Ru3 2.039053 1_555
C4 N8 1.173867 1_555
C4 Ru0 2.051782 1_455
C5 N9 1.173867 1_555
C5 Ru1 2.051782 1_655
C6 N10 1.173867 1_555
C6 Ru2 2.051782 1_555
C7 N11 1.173867 1_555
C7 Ru3 2.051782 1_555
C8 N12 1.173867 1_555
C8 Ru1 2.051782 1_656
C9 N13 1.173867 1_555
C9 Ru0 2.051782 1_456
C10 N14 1.173867 1_555
C10 Ru3 2.051782 1_555
C11 N15 1.173867 1_555
C11 Ru2 2.051782 1_555
C12 N16 1.175922 1_555
C12 Ru0 2.056737 1_556
C13 N17 1.175922 1_555
C13 Ru1 2.056737 1_556
C14 N18 1.175925 1_555
C14 Ru2 2.056737 1_555
C15 N19 1.175922 1_555
C15 Ru3 2.056737 1_555
C16 N20 1.175922 1_555
C16 Ru1 2.056737 1_555
C17 N21 1.175922 1_555
C17 Ru0 2.056737 1_555
C18 N22 1.175922 1_555
C18 Ru3 2.056737 1_555
C19 N23 1.175925 1_555
C19 Ru2 2.056737 1_555
N0 O0 1.152668 1_555
N0 Ru0 1.785789 1_455
N1 O1 1.152668 1_555
N1 Ru1 1.785789 1_655
N2 O2 1.152668 1_555
N2 Ru2 1.785789 1_555
N3 O3 1.152668 1_555
N3 Ru3 1.785789 1_555
N4 Na6 2.513150 1_555
N4 Na4 2.513150 1_554
N5 Na6 2.513150 1_555
N5 Na4 2.513150 1_554
N6 Na5 2.513150 1_555
N6 Na7 2.513150 1_555
N7 Na5 2.513150 1_665
N7 Na7 2.513150 1_665
N8 Na2 2.486352 1_555
N8 Na6 2.543708 1_555
N9 Na2 2.486352 1_655
N9 Na6 2.543708 1_555
N10 Na3 2.486352 1_555
N10 Na7 2.543708 1_655
N11 Na3 2.486352 1_565
N11 Na7 2.543708 1_565
N12 Na0 2.486352 1_655
N12 Na4 2.543708 1_555
N13 Na0 2.486352 1_555
N13 Na4 2.543708 1_555
N14 Na1 2.486352 1_565
N14 Na5 2.543708 1_565
N15 Na1 2.486352 1_555
N15 Na5 2.543708 1_655
N16 Na1 2.473027 1_555
N17 Na1 2.473027 1_565
N18 Na0 2.473023 1_555
N19 Na0 2.473027 1_655
N20 Na3 2.473027 1_565
N21 Na3 2.473027 1_555
N22 Na2 2.473027 1_655
N23 Na2 2.473023 1_555
