# generated using pymatgen
data_Sr2(PPd)3
_symmetry_space_group_name_H-M   'P 1'
_cell_length_a   4.22286300
_cell_length_b   4.28372900
_cell_length_c   34.48579900
_cell_angle_alpha   90.00000000
_cell_angle_beta   90.00000000
_cell_angle_gamma   90.00000000
_symmetry_Int_Tables_number   1
_chemical_formula_structural   Sr2(PPd)3
_chemical_formula_sum   'Sr8 P12 Pd12'
_cell_volume   623.83433360
_cell_formula_units_Z   4
loop_
 _symmetry_equiv_pos_site_id
 _symmetry_equiv_pos_as_xyz
  1  'x, y, z'
loop_
 _atom_site_type_symbol
 _atom_site_label
 _atom_site_symmetry_multiplicity
 _atom_site_fract_x
 _atom_site_fract_y
 _atom_site_fract_z
 _atom_site_occupancy
  Sr  Sr0  1  0.00000000  0.00000000  0.42666500  1
  Sr  Sr1  1  0.50000000  0.00000000  0.67858500  1
  Sr  Sr2  1  0.50000000  0.00000000  0.32141500  1
  Sr  Sr3  1  0.00000000  0.50000000  0.17663700  1
  Sr  Sr4  1  0.50000000  0.50000000  0.92786200  1
  Sr  Sr5  1  0.50000000  0.50000000  0.07213800  1
  Sr  Sr6  1  0.00000000  0.50000000  0.82336300  1
  Sr  Sr7  1  0.00000000  0.00000000  0.57333500  1
  P  P0  1  0.00000000  0.00000000  0.96014800  1
  P  P1  1  0.50000000  0.50000000  0.54032800  1
  P  P2  1  0.50000000  0.50000000  0.45967200  1
  P  P3  1  0.50000000  0.00000000  0.21034700  1
  P  P4  1  0.00000000  0.50000000  0.28708000  1
  P  P5  1  0.00000000  0.50000000  0.71292000  1
  P  P6  1  0.50000000  0.00000000  0.85557000  1
  P  P7  1  0.50000000  0.00000000  0.78965300  1
  P  P8  1  0.00000000  0.50000000  0.64683600  1
  P  P9  1  0.00000000  0.50000000  0.35316400  1
  P  P10  1  0.50000000  0.00000000  0.14443000  1
  P  P11  1  0.00000000  0.00000000  0.03985200  1
  Pd  Pd0  1  0.00000000  0.00000000  0.89055300  1
  Pd  Pd1  1  0.00000000  0.00000000  0.10944700  1
  Pd  Pd2  1  0.00000000  0.00000000  0.75220500  1
  Pd  Pd3  1  0.50000000  0.50000000  0.38897300  1
  Pd  Pd4  1  0.50000000  0.50000000  0.61102700  1
  Pd  Pd5  1  0.00000000  0.00000000  0.24779500  1
  Pd  Pd6  1  0.00000000  0.50000000  0.50000000  1
  Pd  Pd7  1  0.50000000  0.50000000  0.24950400  1
  Pd  Pd8  1  0.50000000  0.00000000  0.00000000  1
  Pd  Pd9  1  0.50000000  0.50000000  0.75049600  1
  Pd  Pd10  1  0.50000000  0.00000000  0.50000000  1
  Pd  Pd11  1  0.00000000  0.50000000  0.00000000  1
loop_
_geom_bond_atom_site_label_1
_geom_bond_atom_site_label_2
_geom_bond_distance
_geom_bond_site_symmetry_2
P0 Pd0 2.400039 1_555
P0 Pd8 2.519310 1_456
P0 Pd8 2.519310 1_556
P0 Pd11 2.544870 1_556
P0 Pd11 2.544870 1_546
P0 Sr4 3.207087 1_545
P0 Sr4 3.207087 1_455
P0 Sr4 3.207087 1_555
P0 Sr4 3.207087 1_445
P1 Pd4 2.438112 1_555
P1 Pd6 2.528302 1_655
P1 Pd6 2.528302 1_555
P1 Pd10 2.553772 1_565
P1 Pd10 2.553772 1_555
P1 Sr7 3.215803 1_655
P1 Sr7 3.215803 1_565
P1 Sr7 3.215803 1_555
P1 Sr7 3.215803 1_665
P2 Pd3 2.438112 1_555
P2 Pd6 2.528302 1_655
P2 Pd6 2.528302 1_555
P2 Pd10 2.553772 1_565
P2 Pd10 2.553772 1_555
P2 Sr0 3.215803 1_555
P2 Sr0 3.215803 1_565
P2 Sr0 3.215803 1_665
P2 Sr0 3.215803 1_655
P3 Pd5 2.475059 1_555
P3 Pd5 2.475059 1_655
P3 Pd7 2.532006 1_545
P3 Pd7 2.532006 1_555
P3 Sr3 3.224464 1_555
P3 Sr3 3.224464 1_655
P3 Sr3 3.224464 1_545
P3 Sr3 3.224464 1_645
P4 P9 2.278960 1_555
P4 Pd7 2.477366 1_555
P4 Pd7 2.477366 1_455
P4 Pd5 2.534363 1_555
P4 Pd5 2.534363 1_565
P4 Sr2 3.232298 1_465
P4 Sr2 3.232298 1_455
P4 Sr2 3.232298 1_555
P4 Sr2 3.232298 1_565
P5 P8 2.278960 1_555
P5 Pd9 2.477366 1_455
P5 Pd9 2.477366 1_555
P5 Pd2 2.534363 1_555
P5 Pd2 2.534363 1_565
P5 Sr1 3.232298 1_455
P5 Sr1 3.232298 1_555
P5 Sr1 3.232298 1_565
P5 Sr1 3.232298 1_465
P6 P7 2.273200 1_555
P6 Pd0 2.431786 1_555
P6 Pd0 2.431786 1_655
P6 Sr6 3.206142 1_545
P6 Sr6 3.206142 1_645
P6 Sr6 3.206142 1_555
P6 Sr6 3.206142 1_655
P6 Sr4 3.286772 1_545
P6 Sr4 3.286772 1_555
P7 Pd2 2.475059 1_655
P7 Pd2 2.475059 1_555
P7 Pd9 2.532006 1_555
P7 Pd9 2.532006 1_545
P7 Sr6 3.224464 1_545
P7 Sr6 3.224464 1_645
P7 Sr6 3.224464 1_655
P7 Sr6 3.224464 1_555
P8 Pd4 2.446043 1_455
P8 Pd4 2.446043 1_555
P8 Sr1 3.200705 1_455
P8 Sr1 3.200705 1_565
P8 Sr1 3.200705 1_555
P8 Sr1 3.200705 1_465
P8 Sr7 3.318508 1_565
P8 Sr7 3.318508 1_555
P9 Pd3 2.446043 1_455
P9 Pd3 2.446043 1_555
P9 Sr2 3.200705 1_455
P9 Sr2 3.200705 1_555
P9 Sr2 3.200705 1_565
P9 Sr2 3.200705 1_465
P9 Sr0 3.318508 1_565
P9 Sr0 3.318508 1_555
P10 P3 2.273200 1_555
P10 Pd1 2.431786 1_555
P10 Pd1 2.431786 1_655
P10 Sr3 3.206142 1_555
P10 Sr3 3.206142 1_655
P10 Sr3 3.206142 1_545
P10 Sr3 3.206142 1_645
P10 Sr5 3.286772 1_555
P10 Sr5 3.286772 1_545
P11 Pd1 2.400039 1_555
P11 Pd8 2.519310 1_555
P11 Pd8 2.519310 1_455
P11 Pd11 2.544870 1_545
P11 Pd11 2.544870 1_555
P11 Sr5 3.207087 1_445
P11 Sr5 3.207087 1_545
P11 Sr5 3.207087 1_455
P11 Sr5 3.207087 1_555
Pd0 Sr6 3.155399 1_555
Pd0 Sr6 3.155399 1_545
Pd0 Sr4 3.271260 1_455
Pd0 Sr4 3.271260 1_555
Pd0 Sr4 3.271260 1_445
Pd0 Sr4 3.271260 1_545
Pd1 Sr3 3.155399 1_545
Pd1 Sr3 3.155399 1_555
Pd1 Sr5 3.271260 1_545
Pd1 Sr5 3.271260 1_455
Pd1 Sr5 3.271260 1_555
Pd1 Sr5 3.271260 1_445
Pd2 Sr6 3.257209 1_555
Pd2 Sr6 3.257209 1_545
Pd2 Sr1 3.302102 1_455
Pd2 Sr1 3.302102 1_555
Pd3 Sr2 3.164729 1_555
Pd3 Sr2 3.164729 1_565
Pd3 Sr0 3.276478 1_565
Pd3 Sr0 3.276478 1_665
Pd3 Sr0 3.276478 1_655
Pd3 Sr0 3.276478 1_555
Pd4 Sr1 3.164729 1_565
Pd4 Sr1 3.164729 1_555
Pd4 Sr7 3.276478 1_555
Pd4 Sr7 3.276478 1_565
Pd4 Sr7 3.276478 1_655
Pd4 Sr7 3.276478 1_665
Pd5 Sr3 3.257209 1_545
Pd5 Sr3 3.257209 1_555
Pd5 Sr2 3.302102 1_455
Pd5 Sr2 3.302102 1_555
Pd6 Sr0 3.314137 1_565
Pd6 Sr0 3.314137 1_555
Pd6 Sr7 3.314137 1_555
Pd6 Sr7 3.314137 1_565
Pd7 Sr2 3.276817 1_565
Pd7 Sr2 3.276817 1_555
Pd7 Sr3 3.282178 1_555
Pd7 Sr3 3.282178 1_655
Pd8 Sr5 3.282745 1_555
Pd8 Sr5 3.282745 1_545
Pd8 Sr4 3.282745 1_554
Pd8 Sr4 3.282745 1_544
Pd9 Sr1 3.276817 1_555
Pd9 Sr1 3.276817 1_565
Pd9 Sr6 3.282178 1_555
Pd9 Sr6 3.282178 1_655
Pd10 Pd6 3.007611 1_545
Pd10 Pd6 3.007611 1_555
Pd10 Pd6 3.007611 1_655
Pd10 Pd6 3.007611 1_645
Pd10 Sr0 3.294551 1_655
Pd10 Sr0 3.294551 1_555
Pd10 Sr7 3.294551 1_555
Pd10 Sr7 3.294551 1_655
Pd11 Sr5 3.262970 1_455
Pd11 Sr5 3.262970 1_555
Pd11 Sr4 3.262970 1_454
Pd11 Sr4 3.262970 1_554
