# generated using pymatgen
data_Ca11AlSi3ClO18
_symmetry_space_group_name_H-M   'P 1'
_cell_length_a   10.59294899
_cell_length_b   8.71641380
_cell_length_c   8.68372008
_cell_angle_alpha   75.00321149
_cell_angle_beta   52.63868458
_cell_angle_gamma   52.35810392
_symmetry_Int_Tables_number   1
_chemical_formula_structural   Ca11AlSi3ClO18
_chemical_formula_sum   'Ca11 Al1 Si3 Cl1 O18'
_cell_volume   496.59540244
_cell_formula_units_Z   1
loop_
 _symmetry_equiv_pos_site_id
 _symmetry_equiv_pos_as_xyz
  1  'x, y, z'
loop_
 _atom_site_type_symbol
 _atom_site_label
 _atom_site_symmetry_multiplicity
 _atom_site_fract_x
 _atom_site_fract_y
 _atom_site_fract_z
 _atom_site_occupancy
  Ca  Ca0  1  0.29321900  0.45300200  0.96480600  1
  Ca  Ca1  1  0.71102700  0.03519400  0.54699800  1
  Ca  Ca2  1  0.54699800  0.70678100  0.71102700  1
  Ca  Ca3  1  0.00410500  0.99589500  0.00410500  1
  Ca  Ca4  1  0.03747000  0.70576500  0.70318000  1
  Ca  Ca5  1  0.96480600  0.28897300  0.29321900  1
  Ca  Ca6  1  0.44641500  0.29682000  0.29423500  1
  Ca  Ca7  1  0.29423500  0.96253000  0.44641500  1
  Ca  Ca8  1  0.00007400  0.50017600  0.49982400  1
  Ca  Ca9  1  0.70318000  0.55358500  0.03747000  1
  Ca  Ca10  1  0.49982400  0.99992600  0.00007400  1
  Al  Al0  1  0.21152900  0.78847100  0.21152900  1
  Si  Si0  1  0.78920300  0.21079700  0.78920300  1
  Si  Si1  1  0.21220700  0.21121100  0.78878900  1
  Si  Si2  1  0.78878900  0.78779300  0.21220700  1
  Cl  Cl0  1  0.49900600  0.50099400  0.49900600  1
  O  O0  1  0.63587800  0.18203900  0.81796100  1
  O  O1  1  0.75160400  0.74839600  0.75160400  1
  O  O2  1  0.00429600  0.70133700  0.99547200  1
  O  O3  1  0.36584100  0.18247200  0.81752800  1
  O  O4  1  0.29735400  0.70264600  0.97861100  1
  O  O5  1  0.81796100  0.36412200  0.63587800  1
  O  O6  1  0.29866300  0.99570400  0.70110500  1
  O  O7  1  0.81752800  0.63415900  0.36584100  1
  O  O8  1  0.18310200  0.36388100  0.63611900  1
  O  O9  1  0.70110500  0.00452800  0.29866300  1
  O  O10  1  0.97861100  0.02138900  0.29735400  1
  O  O11  1  0.00550000  0.99450000  0.70571300  1
  O  O12  1  0.17932200  0.62506500  0.37493500  1
  O  O13  1  0.63611900  0.81689800  0.18310200  1
  O  O14  1  0.99547200  0.29889500  0.00429600  1
  O  O15  1  0.25160400  0.24839600  0.25160400  1
  O  O16  1  0.37493500  0.82067800  0.17932200  1
  O  O17  1  0.70571300  0.29428700  0.00550000  1
loop_
_geom_bond_atom_site_label_1
_geom_bond_atom_site_label_2
_geom_bond_distance
_geom_bond_site_symmetry_2
Ca0 O4 2.238093 1_555
Ca0 O2 2.310969 1_555
Ca0 O0 2.418519 1_555
Ca0 O3 2.436964 1_555
Ca0 O15 2.628038 1_556
Ca0 Cl0 3.290077 1_555
Ca1 O10 2.238093 1_555
Ca1 O9 2.310969 1_555
Ca1 O0 2.418519 1_555
Ca1 O3 2.436964 1_555
Ca1 O1 2.628038 1_545
Ca1 Cl0 3.290077 1_555
Ca2 O4 2.238093 1_555
Ca2 O6 2.310969 1_555
Ca2 O5 2.418519 1_555
Ca2 O7 2.436964 1_555
Ca2 O1 2.628038 1_555
Ca2 Cl0 3.290077 1_555
Ca3 O4 2.447825 1_554
Ca3 O10 2.447825 1_465
Ca3 O17 2.585353 1_465
Ca3 O11 2.585353 1_554
Ca3 O14 2.586640 1_465
Ca3 O6 2.586640 1_554
Ca3 O9 2.586640 1_465
Ca3 O2 2.586640 1_554
Ca4 O12 2.329320 1_555
Ca4 O11 2.329738 1_555
Ca4 O2 2.334669 1_555
Ca4 O8 2.406648 1_555
Ca4 O1 2.577925 1_455
Ca4 Cl0 3.269632 1_555
Ca5 O10 2.238093 1_555
Ca5 O14 2.310969 1_555
Ca5 O5 2.418519 1_555
Ca5 O7 2.436964 1_555
Ca5 O15 2.628038 1_655
Ca5 Cl0 3.290077 1_555
Ca6 O12 2.329320 1_555
Ca6 O17 2.329738 1_555
Ca6 O9 2.334669 1_555
Ca6 O8 2.406648 1_555
Ca6 O15 2.577925 1_555
Ca6 Cl0 3.269632 1_555
Ca7 O16 2.329320 1_555
Ca7 O11 2.329738 1_555
Ca7 O6 2.334669 1_555
Ca7 O13 2.406648 1_555
Ca7 O15 2.577925 1_565
Ca7 Cl0 3.269632 1_555
Ca8 O1 2.212951 1_455
Ca8 O15 2.212951 1_555
Ca8 O12 2.319689 1_555
Ca8 O7 2.392846 1_455
Ca8 O8 2.411441 1_555
Ca8 O5 2.413869 1_455
Ca9 O16 2.329320 1_555
Ca9 O17 2.329738 1_555
Ca9 O14 2.334669 1_555
Ca9 O13 2.406648 1_555
Ca9 O1 2.577925 1_554
Ca9 Cl0 3.269632 1_555
Ca10 O15 2.212951 1_565
Ca10 O1 2.212951 1_554
Ca10 O16 2.319689 1_555
Ca10 O3 2.392846 1_564
Ca10 O13 2.411441 1_555
Ca10 O0 2.413869 1_564
Al0 O16 1.765949 1_555
Al0 O12 1.765949 1_555
Al0 O4 1.788199 1_554
Al0 O10 1.788199 1_465
O0 Si0 1.654003 1_555
O2 Si2 1.655192 1_456
O3 Si1 1.654148 1_555
O5 Si0 1.654003 1_555
O6 Si1 1.655192 1_565
O7 Si2 1.654148 1_555
O8 Si1 1.644815 1_555
O9 Si2 1.655192 1_545
O11 Si0 1.656745 1_465
O13 Si2 1.644815 1_555
O14 Si1 1.655192 1_654
O17 Si0 1.656745 1_554
