# generated using pymatgen
data_Ce2SbS5Br
_symmetry_space_group_name_H-M   'P 1'
_cell_length_a   5.48691100
_cell_length_b   8.85921500
_cell_length_c   17.73000800
_cell_angle_alpha   90.00000000
_cell_angle_beta   90.00000000
_cell_angle_gamma   90.00000000
_symmetry_Int_Tables_number   1
_chemical_formula_structural   Ce2SbS5Br
_chemical_formula_sum   'Ce8 Sb4 S20 Br4'
_cell_volume   861.85079956
_cell_formula_units_Z   4
loop_
 _symmetry_equiv_pos_site_id
 _symmetry_equiv_pos_as_xyz
  1  'x, y, z'
loop_
 _atom_site_type_symbol
 _atom_site_label
 _atom_site_symmetry_multiplicity
 _atom_site_fract_x
 _atom_site_fract_y
 _atom_site_fract_z
 _atom_site_occupancy
  Ce  Ce0  1  0.25000000  0.77687900  0.02970600  1
  Ce  Ce1  1  0.75000000  0.72312100  0.52970600  1
  Ce  Ce2  1  0.75000000  0.22312100  0.97029400  1
  Ce  Ce3  1  0.25000000  0.84495200  0.29970700  1
  Ce  Ce4  1  0.75000000  0.65504800  0.79970700  1
  Ce  Ce5  1  0.25000000  0.34495200  0.20029300  1
  Ce  Ce6  1  0.25000000  0.27687900  0.47029400  1
  Ce  Ce7  1  0.75000000  0.15504800  0.70029300  1
  Sb  Sb0  1  0.75000000  0.51350600  0.32880200  1
  Sb  Sb1  1  0.75000000  0.01350600  0.17119800  1
  Sb  Sb2  1  0.25000000  0.98649400  0.82880200  1
  Sb  Sb3  1  0.25000000  0.48649400  0.67119800  1
  S  S0  1  0.44073500  0.65537300  0.17325800  1
  S  S1  1  0.94073500  0.34462700  0.82674200  1
  S  S2  1  0.94073500  0.84462700  0.67325800  1
  S  S3  1  0.75000000  0.97975700  0.84482900  1
  S  S4  1  0.75000000  0.47975700  0.65517100  1
  S  S5  1  0.25000000  0.02024300  0.15517100  1
  S  S6  1  0.75000000  0.92523900  0.04109400  1
  S  S7  1  0.44073500  0.15537300  0.32674200  1
  S  S8  1  0.25000000  0.07476100  0.95890600  1
  S  S9  1  0.25000000  0.52024300  0.34482900  1
  S  S10  1  0.75000000  0.78717000  0.35758200  1
  S  S11  1  0.75000000  0.42523900  0.45890600  1
  S  S12  1  0.05926500  0.15537300  0.32674200  1
  S  S13  1  0.25000000  0.71283000  0.85758200  1
  S  S14  1  0.75000000  0.28717000  0.14241800  1
  S  S15  1  0.25000000  0.21283000  0.64241800  1
  S  S16  1  0.05926500  0.65537300  0.17325800  1
  S  S17  1  0.55926500  0.84462700  0.67325800  1
  S  S18  1  0.25000000  0.57476100  0.54109400  1
  S  S19  1  0.55926500  0.34462700  0.82674200  1
  Br  Br0  1  0.25000000  0.40365900  0.02794300  1
  Br  Br1  1  0.25000000  0.90365900  0.47205700  1
  Br  Br2  1  0.75000000  0.59634100  0.97205700  1
  Br  Br3  1  0.75000000  0.09634100  0.52794300  1
loop_
_geom_bond_atom_site_label_1
_geom_bond_atom_site_label_2
_geom_bond_distance
_geom_bond_site_symmetry_2
Ce0 S8 2.922339 1_564
Ce0 S16 2.954984 1_555
Ce0 S0 2.954984 1_555
Ce0 S6 3.048744 1_555
Ce0 S6 3.048744 1_455
Ce0 S5 3.097866 1_565
Ce0 S13 3.104063 1_554
Ce1 S11 2.922339 1_555
Ce1 S17 2.954984 1_555
Ce1 S2 2.954984 1_555
Ce1 S18 3.048744 1_655
Ce1 S18 3.048744 1_555
Ce1 S4 3.097866 1_555
Ce1 S10 3.104063 1_555
Ce2 S6 2.922339 1_546
Ce2 S19 2.954984 1_555
Ce2 S1 2.954984 1_555
Ce2 S8 3.048744 1_555
Ce2 S8 3.048744 1_655
Ce2 S3 3.097866 1_545
Ce2 S14 3.104063 1_556
Ce3 S10 2.973470 1_555
Ce3 S10 2.973470 1_455
Ce3 S7 2.981273 1_565
Ce3 S12 2.981273 1_565
Ce3 S9 2.985839 1_555
Ce3 S0 2.990377 1_555
Ce3 S16 2.990377 1_555
Ce3 S5 2.996443 1_565
Ce4 S13 2.973470 1_555
Ce4 S13 2.973470 1_655
Ce4 S19 2.981273 1_555
Ce4 S1 2.981273 1_555
Ce4 S3 2.985839 1_555
Ce4 S17 2.990377 1_555
Ce4 S2 2.990377 1_555
Ce4 S4 2.996443 1_555
Ce5 S14 2.973470 1_455
Ce5 S14 2.973470 1_555
Ce5 S0 2.981273 1_555
Ce5 S16 2.981273 1_555
Ce5 S5 2.985839 1_555
Ce5 S7 2.990377 1_555
Ce5 S12 2.990377 1_555
Ce5 S9 2.996443 1_555
Ce6 S18 2.922339 1_555
Ce6 S12 2.954984 1_555
Ce6 S7 2.954984 1_555
Ce6 S11 3.048744 1_455
Ce6 S11 3.048744 1_555
Ce6 S9 3.097866 1_555
Ce6 S15 3.104063 1_555
Ce7 S15 2.973470 1_555
Ce7 S15 2.973470 1_655
Ce7 S2 2.981273 1_545
Ce7 S17 2.981273 1_545
Ce7 S4 2.985839 1_555
Ce7 S19 2.990377 1_555
Ce7 S1 2.990377 1_555
Ce7 S3 2.996443 1_545
S0 S16 2.093092 1_555
S1 S19 2.093092 1_555
S3 Sb2 2.758778 1_555
S3 Sb2 2.758778 1_655
S4 Sb3 2.758778 1_655
S4 Sb3 2.758778 1_555
S5 Sb1 2.758778 1_455
S5 Sb1 2.758778 1_555
S6 Sb1 2.435685 1_565
S8 Sb2 2.435685 1_545
S9 Sb0 2.758778 1_455
S9 Sb0 2.758778 1_555
S10 Sb0 2.477564 1_555
S11 Sb0 2.435685 1_555
S12 S7 2.093092 1_555
S13 Sb2 2.477564 1_555
S14 Sb1 2.477564 1_555
S15 Sb3 2.477564 1_555
S17 S2 2.093092 1_555
S18 Sb3 2.435685 1_555
Br0 Ce5 3.099712 1_555
Br0 Ce0 3.306584 1_555
Br0 Ce2 3.336080 1_454
Br0 Ce2 3.336080 1_554
Br1 Ce3 3.099712 1_555
Br1 Ce6 3.306584 1_565
Br1 Ce1 3.336080 1_555
Br1 Ce1 3.336080 1_455
Br2 Ce4 3.099712 1_555
Br2 Ce2 3.306584 1_555
Br2 Ce0 3.336080 1_656
Br2 Ce0 3.336080 1_556
Br3 Ce7 3.099712 1_555
Br3 Ce1 3.306584 1_545
Br3 Ce6 3.336080 1_555
Br3 Ce6 3.336080 1_655
