# generated using pymatgen
data_Ce3In3Ru2
_symmetry_space_group_name_H-M   'P 1'
_cell_length_a   8.60785174
_cell_length_b   8.60785174
_cell_length_c   4.91853851
_cell_angle_alpha   83.82628018
_cell_angle_beta   83.82628018
_cell_angle_gamma   32.92390916
_symmetry_Int_Tables_number   1
_chemical_formula_structural   Ce3In3Ru2
_chemical_formula_sum   'Ce3 In3 Ru2'
_cell_volume   196.83255963
_cell_formula_units_Z   1
loop_
 _symmetry_equiv_pos_site_id
 _symmetry_equiv_pos_as_xyz
  1  'x, y, z'
loop_
 _atom_site_type_symbol
 _atom_site_label
 _atom_site_symmetry_multiplicity
 _atom_site_fract_x
 _atom_site_fract_y
 _atom_site_fract_z
 _atom_site_occupancy
  Ce  Ce0  1  0.82656202  0.82656202  0.56826925  1
  Ce  Ce1  1  0.17343798  0.17343798  0.43173075  1
  Ce  Ce2  1  -0.00000000  -0.00000000  -0.00000000  1
  In  In0  1  0.36685235  0.36685235  0.03515666  1
  In  In1  1  0.50000000  0.50000000  0.50000000  1
  In  In2  1  0.63314765  0.63314765  0.96484334  1
  Ru  Ru0  1  0.79028524  0.79028524  0.13390641  1
  Ru  Ru1  1  0.20971476  0.20971476  0.86609359  1
loop_
_geom_bond_atom_site_label_1
_geom_bond_atom_site_label_2
_geom_bond_distance
_geom_bond_site_symmetry_2
Ce0 Ru0 2.282550 1_555
Ce0 Ru0 2.779411 1_556
Ce0 In0 3.465349 1_566
Ce0 In0 3.465349 1_656
Ce0 In2 3.550312 1_555
Ce0 In0 3.588449 1_565
Ce0 In0 3.588449 1_655
Ce0 In1 3.747880 1_655
Ce0 In1 3.747880 1_565
Ce0 Ce2 3.751311 1_666
Ce0 Ce2 3.770504 1_665
Ce1 Ru1 2.282550 1_555
Ce1 Ru1 2.779411 1_554
Ce1 In2 3.465349 1_454
Ce1 In2 3.465349 1_544
Ce1 In0 3.550312 1_555
Ce1 In2 3.588449 1_455
Ce1 In2 3.588449 1_545
Ce1 In1 3.747880 1_455
Ce1 In1 3.747880 1_545
Ce1 Ce2 3.751311 1_555
Ce1 Ce2 3.770504 1_556
Ce2 In0 3.275228 1_455
Ce2 In0 3.275228 1_545
Ce2 In2 3.275228 1_454
Ce2 In2 3.275228 1_544
Ce2 Ru0 3.451157 1_445
Ce2 Ru1 3.451157 1_554
Ce2 In1 3.463827 1_454
Ce2 In1 3.463827 1_455
Ce2 In1 3.463827 1_544
Ce2 In1 3.463827 1_545
In0 Ru0 2.765195 1_545
In0 Ru0 2.765195 1_455
In0 Ru1 2.811746 1_554
In0 In1 3.234664 1_554
In0 In1 3.344699 1_555
In1 In2 3.234664 1_554
In1 In2 3.344699 1_555
In2 Ru1 2.765195 1_655
In2 Ru1 2.765195 1_565
In2 Ru0 2.811746 1_556
