# generated using pymatgen
data_Na3PH24SO15
_symmetry_space_group_name_H-M   'P 1'
_cell_length_a   13.75801386
_cell_length_b   13.75801386
_cell_length_c   13.75801316
_cell_angle_alpha   39.39458356
_cell_angle_beta   39.39458356
_cell_angle_gamma   39.39458366
_symmetry_Int_Tables_number   1
_chemical_formula_structural   Na3PH24SO15
_chemical_formula_sum   'Na6 P2 H48 S2 O30'
_cell_volume   944.02131687
_cell_formula_units_Z   2
loop_
 _symmetry_equiv_pos_site_id
 _symmetry_equiv_pos_as_xyz
  1  'x, y, z'
loop_
 _atom_site_type_symbol
 _atom_site_label
 _atom_site_symmetry_multiplicity
 _atom_site_fract_x
 _atom_site_fract_y
 _atom_site_fract_z
 _atom_site_occupancy
  Na  Na0  1  0.76558100  0.76558100  0.76558100  1
  Na  Na1  1  0.62371500  0.62371500  0.62371500  1
  Na  Na2  1  0.37628500  0.37628500  0.37628500  1
  Na  Na3  1  0.23441900  0.23441900  0.23441900  1
  Na  Na4  1  0.15187100  0.15187100  0.15187100  1
  Na  Na5  1  0.84812900  0.84812900  0.84812900  1
  P  P0  1  0.47259000  0.47259000  0.47259000  1
  P  P1  1  0.52741000  0.52741000  0.52741000  1
  H  H0  1  0.12369300  0.55061900  0.73810900  1
  H  H1  1  0.73810900  0.12369300  0.55061900  1
  H  H2  1  0.15725600  0.44212000  0.63959300  1
  H  H3  1  0.55061900  0.73810900  0.12369300  1
  H  H4  1  0.17165400  0.19444900  0.76216100  1
  H  H5  1  0.63959300  0.15725600  0.44212000  1
  H  H6  1  0.59034300  0.02283600  0.53306400  1
  H  H7  1  0.44212000  0.63959300  0.15725600  1
  H  H8  1  0.02283600  0.53306400  0.59034300  1
  H  H9  1  0.76216100  0.17165400  0.19444900  1
  H  H10  1  0.19444900  0.76216100  0.17165400  1
  H  H11  1  0.82834600  0.23783900  0.80555100  1
  H  H12  1  0.53306400  0.59034300  0.02283600  1
  H  H13  1  0.21306200  0.99333300  0.67580700  1
  H  H14  1  0.46693600  0.97716400  0.40965700  1
  H  H15  1  0.97716400  0.40965700  0.46693600  1
  H  H16  1  0.84274400  0.36040700  0.55788000  1
  H  H17  1  0.99333300  0.67580700  0.21306200  1
  H  H18  1  0.80555100  0.82834600  0.23783900  1
  H  H19  1  0.11833200  0.89682100  0.71387100  1
  H  H20  1  0.67580700  0.21306200  0.99333300  1
  H  H21  1  0.55788000  0.84274400  0.36040700  1
  H  H22  1  0.40965700  0.46693600  0.97716400  1
  H  H23  1  0.20824900  0.80269700  0.61943000  1
  H  H24  1  0.23783900  0.80555100  0.82834600  1
  H  H25  1  0.02093600  0.08185700  0.51140500  1
  H  H26  1  0.89682100  0.71387100  0.11833200  1
  H  H27  1  0.87630700  0.26189100  0.44938100  1
  H  H28  1  0.36040700  0.55788000  0.84274400  1
  H  H29  1  0.80269700  0.61943000  0.20824900  1
  H  H30  1  0.44938100  0.87630700  0.26189100  1
  H  H31  1  0.71387100  0.11833200  0.89682100  1
  H  H32  1  0.51140500  0.02093600  0.08185700  1
  H  H33  1  0.08185700  0.51140500  0.02093600  1
  H  H34  1  0.26189100  0.44938100  0.87630700  1
  H  H35  1  0.91814300  0.97906400  0.48859500  1
  H  H36  1  0.61943000  0.20824900  0.80269700  1
  H  H37  1  0.19730300  0.79175100  0.38057000  1
  H  H38  1  0.79175100  0.38057000  0.19730300  1
  H  H39  1  0.48859500  0.91814300  0.97906400  1
  H  H40  1  0.10317900  0.88166800  0.28612900  1
  H  H41  1  0.97906400  0.48859500  0.91814300  1
  H  H42  1  0.88166800  0.28612900  0.10317900  1
  H  H43  1  0.38057000  0.19730300  0.79175100  1
  H  H44  1  0.00666700  0.78693800  0.32419300  1
  H  H45  1  0.28612900  0.10317900  0.88166800  1
  H  H46  1  0.78693800  0.32419300  0.00666700  1
  H  H47  1  0.32419300  0.00666700  0.78693800  1
  S  S0  1  0.69360200  0.69360200  0.69360200  1
  S  S1  1  0.30639800  0.30639800  0.30639800  1
  O  O0  1  0.13356000  0.42828000  0.60059200  1
  O  O1  1  0.56233900  0.86419900  0.70468300  1
  O  O2  1  0.86419900  0.70468300  0.56233900  1
  O  O3  1  0.60059200  0.13356000  0.42828000  1
  O  O4  1  0.42828000  0.60059200  0.13356000  1
  O  O5  1  0.70468300  0.56233900  0.86419900  1
  O  O6  1  0.86644000  0.39940800  0.57172000  1
  O  O7  1  0.29531700  0.13580100  0.43766100  1
  O  O8  1  0.13580100  0.43766100  0.29531700  1
  O  O9  1  0.57172000  0.86644000  0.39940800  1
  O  O10  1  0.43766100  0.29531700  0.13580100  1
  O  O11  1  0.09715000  0.88412200  0.66739900  1
  O  O12  1  0.39940800  0.57172000  0.86644000  1
  O  O13  1  0.99882700  0.18880500  0.40965400  1
  O  O14  1  0.88412200  0.66739900  0.09715000  1
  O  O15  1  0.40965400  0.99882700  0.18880500  1
  O  O16  1  0.18880500  0.40965400  0.99882700  1
  O  O17  1  0.66739900  0.09715000  0.88412200  1
  O  O18  1  0.81119500  0.00117300  0.59034600  1
  O  O19  1  0.11587800  0.90285000  0.33260100  1
  O  O20  1  0.90285000  0.33260100  0.11587800  1
  O  O21  1  0.59034600  0.81119500  0.00117300  1
  O  O22  1  0.00117300  0.59034600  0.81119500  1
  O  O23  1  0.33260100  0.11587800  0.90285000  1
  O  O24  1  0.08438400  0.84089000  0.22329100  1
  O  O25  1  0.84089000  0.22329100  0.08438400  1
  O  O26  1  0.22329100  0.08438400  0.84089000  1
  O  O27  1  0.91561600  0.77670900  0.15911000  1
  O  O28  1  0.77670900  0.15911000  0.91561600  1
  O  O29  1  0.15911000  0.91561600  0.77670900  1
loop_
_geom_bond_atom_site_label_1
_geom_bond_atom_site_label_2
_geom_bond_distance
_geom_bond_site_symmetry_2
Na0 O21 2.332329 1_556
Na0 O22 2.332329 1_655
Na0 O18 2.332329 1_565
Na0 O2 2.522269 1_555
Na0 O1 2.522270 1_555
Na0 O5 2.522270 1_555
Na1 O9 2.231304 1_555
Na1 O12 2.231304 1_555
Na1 O6 2.231304 1_555
Na1 S0 2.657093 1_555
Na2 O0 2.231304 1_555
Na2 O4 2.231304 1_555
Na2 O3 2.231304 1_555
Na2 S1 2.657093 1_555
Na3 O16 2.332329 1_554
Na3 O15 2.332329 1_545
Na3 O13 2.332329 1_455
Na3 O7 2.522269 1_555
Na3 O8 2.522270 1_555
Na3 O10 2.522270 1_555
Na4 O23 2.391256 1_554
Na4 O20 2.391257 1_455
Na4 O19 2.391257 1_545
Na4 O13 2.619120 1_455
Na4 O15 2.619120 1_545
Na4 O16 2.619120 1_554
Na5 O14 2.391256 1_556
Na5 O17 2.391257 1_565
Na5 O11 2.391257 1_655
Na5 O18 2.619120 1_565
Na5 O22 2.619120 1_655
Na5 O21 2.619120 1_556
P0 P1 2.084248 1_555
H0 O22 0.978239 1_555
H1 O18 0.978239 1_555
H2 O0 0.977076 1_555
H3 O21 0.978239 1_555
H4 O26 0.981077 1_555
H5 O3 0.977076 1_555
H6 O3 1.020930 1_555
H6 O1 1.554248 1_545
H7 O4 0.977076 1_555
H8 O0 1.020930 1_555
H8 O2 1.554248 1_455
H9 O25 0.981077 1_555
H10 O24 0.981077 1_555
H11 O28 0.981077 1_555
H12 O4 1.020930 1_555
H12 O5 1.554248 1_554
H13 O29 0.980440 1_555
H14 O9 1.020930 1_555
H14 O7 1.554248 1_565
H15 O6 1.020930 1_555
H15 O8 1.554248 1_655
H16 O6 0.977076 1_555
H17 O27 0.980440 1_555
H18 O27 0.981077 1_555
H19 O11 1.031291 1_555
H19 O29 1.564735 1_555
H20 O28 0.980440 1_555
H21 O9 0.977076 1_555
H22 O12 1.020930 1_555
H22 O10 1.554248 1_556
H23 O11 0.981773 1_555
H24 O29 0.981077 1_555
H25 O13 1.000008 1_455
H26 O14 1.031291 1_555
H26 O27 1.564735 1_555
H27 O13 0.978239 1_555
H28 O12 0.977076 1_555
H29 O14 0.981773 1_555
H30 O15 0.978239 1_555
H31 O17 1.031291 1_555
H31 O28 1.564735 1_555
H32 O15 1.000008 1_545
H33 O16 1.000008 1_554
H34 O16 0.978239 1_555
H35 O18 1.000008 1_565
H36 O17 0.981773 1_555
H37 O19 0.981773 1_555
H38 O20 0.981773 1_555
H39 O21 1.000008 1_556
H40 O19 1.031291 1_555
H40 O24 1.564735 1_555
H41 O22 1.000008 1_655
H42 O20 1.031291 1_555
H42 O25 1.564735 1_555
H43 O23 0.981773 1_555
H44 O24 0.980440 1_555
H45 O23 1.031291 1_555
H45 O26 1.564735 1_555
H46 O25 0.980440 1_555
H47 O26 0.980440 1_555
O1 S0 1.539381 1_555
O2 S0 1.539381 1_555
O5 S0 1.539380 1_555
O7 S1 1.539381 1_555
O8 S1 1.539381 1_555
O10 S1 1.539380 1_555
