# generated using pymatgen
data_MnGaNi2
_symmetry_space_group_name_H-M   'P 1'
_cell_length_a   10.87743780
_cell_length_b   10.87743780
_cell_length_c   4.15039812
_cell_angle_alpha   79.06403771
_cell_angle_beta   79.06403771
_cell_angle_gamma   29.42783621
_symmetry_Int_Tables_number   1
_chemical_formula_structural   MnGaNi2
_chemical_formula_sum   'Mn5 Ga5 Ni10'
_cell_volume   236.58893321
_cell_formula_units_Z   5
loop_
 _symmetry_equiv_pos_site_id
 _symmetry_equiv_pos_as_xyz
  1  'x, y, z'
loop_
 _atom_site_type_symbol
 _atom_site_label
 _atom_site_symmetry_multiplicity
 _atom_site_fract_x
 _atom_site_fract_y
 _atom_site_fract_z
 _atom_site_occupancy
  Mn  Mn0  1  0.80002300  0.80002300  0.24110200  1
  Mn  Mn1  1  0.39998500  0.39998500  0.65025200  1
  Mn  Mn2  1  0.19997700  0.19997700  0.75889800  1
  Mn  Mn3  1  0.60001500  0.60001500  0.34974800  1
  Mn  Mn4  1  0.00000000  0.00000000  0.00000000  1
  Ga  Ga0  1  0.30019000  0.30019000  0.24161300  1
  Ga  Ga1  1  0.89991200  0.89991200  0.65112100  1
  Ga  Ga2  1  0.10008800  0.10008800  0.34887900  1
  Ga  Ga3  1  0.69981000  0.69981000  0.75838700  1
  Ga  Ga4  1  0.50000000  0.50000000  0.00000000  1
  Ni  Ni0  1  0.55025100  0.04985400  0.74517200  1
  Ni  Ni1  1  0.35014000  0.84985600  0.84558700  1
  Ni  Ni2  1  0.24985500  0.75014500  0.50000000  1
  Ni  Ni3  1  0.04985400  0.55025100  0.74517200  1
  Ni  Ni4  1  0.84985600  0.35014000  0.84558700  1
  Ni  Ni5  1  0.44974900  0.95014600  0.25482800  1
  Ni  Ni6  1  0.64986000  0.15014400  0.15441300  1
  Ni  Ni7  1  0.95014600  0.44974900  0.25482800  1
  Ni  Ni8  1  0.15014400  0.64986000  0.15441300  1
  Ni  Ni9  1  0.75014500  0.24985500  0.50000000  1
loop_
_geom_bond_atom_site_label_1
_geom_bond_atom_site_label_2
_geom_bond_distance
_geom_bond_site_symmetry_2
Mn0 Ni0 2.478175 1_564
Mn0 Ni3 2.478175 1_654
Mn0 Ni8 2.483650 1_655
Mn0 Ni6 2.483650 1_565
Mn0 Ni0 2.506508 1_565
Mn0 Ni3 2.506508 1_655
Mn0 Ni7 2.510296 1_555
Mn0 Ni5 2.510296 1_555
Mn1 Ni8 2.478078 1_555
Mn1 Ni6 2.478078 1_555
Mn1 Ni3 2.482534 1_555
Mn1 Ni0 2.482534 1_555
Mn1 Ni2 2.492646 1_555
Mn1 Ni9 2.492646 1_555
Mn1 Ni6 2.506952 1_556
Mn1 Ni8 2.506952 1_556
Mn2 Ni7 2.478175 1_456
Mn2 Ni5 2.478175 1_546
Mn2 Ni1 2.483650 1_545
Mn2 Ni4 2.483650 1_455
Mn2 Ni5 2.506508 1_545
Mn2 Ni7 2.506508 1_455
Mn2 Ni0 2.510296 1_555
Mn2 Ni3 2.510296 1_555
Mn3 Ni1 2.478078 1_555
Mn3 Ni4 2.478078 1_555
Mn3 Ni5 2.482534 1_555
Mn3 Ni7 2.482534 1_555
Mn3 Ni2 2.492646 1_555
Mn3 Ni9 2.492646 1_555
Mn3 Ni4 2.506952 1_554
Mn3 Ni1 2.506952 1_554
Mn4 Ni2 2.492487 1_545
Mn4 Ni9 2.492487 1_455
Mn4 Ni2 2.492487 1_544
Mn4 Ni9 2.492487 1_454
Mn4 Ni1 2.493873 1_544
Mn4 Ni4 2.493873 1_454
Mn4 Ni8 2.493873 1_545
Mn4 Ni6 2.493873 1_455
Ga0 Ni6 2.479857 1_555
Ga0 Ni8 2.479857 1_555
Ga0 Ni3 2.481732 1_554
Ga0 Ni0 2.481732 1_554
Ga0 Ni0 2.505374 1_555
Ga0 Ni3 2.505374 1_555
Ga0 Ni5 2.512325 1_545
Ga0 Ni7 2.512325 1_455
Ga0 Mn2 2.698097 1_555
Ga0 Mn0 2.762796 1_545
Ga0 Mn0 2.762796 1_455
Ga0 Mn1 2.900262 1_554
Ga0 Mn1 2.946664 1_555
Ga1 Ni0 2.480088 1_565
Ga1 Ni3 2.480088 1_655
Ga1 Ni6 2.481698 1_565
Ga1 Ni8 2.481698 1_655
Ga1 Ni2 2.493287 1_655
Ga1 Ni9 2.493287 1_565
Ga1 Ni8 2.505060 1_656
Ga1 Ni6 2.505060 1_566
Ga2 Ni5 2.480088 1_545
Ga2 Ni7 2.480088 1_455
Ga2 Ni1 2.481698 1_545
Ga2 Ni4 2.481698 1_455
Ga2 Ni9 2.493287 1_455
Ga2 Ni2 2.493287 1_545
Ga2 Ni1 2.505060 1_544
Ga2 Ni4 2.505060 1_454
Ga3 Ni1 2.479857 1_555
Ga3 Ni4 2.479857 1_555
Ga3 Ni5 2.481732 1_556
Ga3 Ni7 2.481732 1_556
Ga3 Ni7 2.505374 1_555
Ga3 Ni5 2.505374 1_555
Ga3 Ni0 2.512325 1_565
Ga3 Ni3 2.512325 1_655
Ga3 Mn0 2.698097 1_555
Ga3 Mn2 2.762796 1_655
Ga3 Mn2 2.762796 1_565
Ga3 Mn3 2.900262 1_556
Ga3 Mn3 2.946664 1_555
Ga4 Ni4 2.493004 1_554
Ga4 Ni1 2.493004 1_554
Ga4 Ni6 2.493004 1_555
Ga4 Ni8 2.493004 1_555
Ga4 Ni2 2.493375 1_554
Ga4 Ni9 2.493375 1_554
Ga4 Ni2 2.493375 1_555
Ga4 Ni9 2.493375 1_555
Ga4 Mn4 2.762792 1_655
Ga4 Mn4 2.762792 1_565
Ga4 Mn1 2.781051 1_554
Ga4 Mn3 2.781051 1_555
