# generated using pymatgen
data_YbHO2
_symmetry_space_group_name_H-M   'P 1'
_cell_length_a   3.66874800
_cell_length_b   4.38520300
_cell_length_c   5.89654686
_cell_angle_alpha   109.09663057
_cell_angle_beta   90.00000000
_cell_angle_gamma   90.00000000
_symmetry_Int_Tables_number   1
_chemical_formula_structural   YbHO2
_chemical_formula_sum   'Yb2 H2 O4'
_cell_volume   89.64426511
_cell_formula_units_Z   2
loop_
 _symmetry_equiv_pos_site_id
 _symmetry_equiv_pos_as_xyz
  1  'x, y, z'
loop_
 _atom_site_type_symbol
 _atom_site_label
 _atom_site_symmetry_multiplicity
 _atom_site_fract_x
 _atom_site_fract_y
 _atom_site_fract_z
 _atom_site_occupancy
  Yb  Yb0  1  0.25000000  0.33517200  0.20761200  1
  Yb  Yb1  1  0.75000000  0.66482800  0.79238800  1
  H  H0  1  0.25000000  0.98842600  0.58417600  1
  H  H1  1  0.75000000  0.01157400  0.41582400  1
  O  O0  1  0.25000000  0.76665600  0.05753200  1
  O  O1  1  0.75000000  0.23334400  0.94246800  1
  O  O2  1  0.25000000  0.76206800  0.57162300  1
  O  O3  1  0.75000000  0.23793200  0.42837700  1
loop_
_geom_bond_atom_site_label_1
_geom_bond_atom_site_label_2
_geom_bond_distance
_geom_bond_site_symmetry_2
H0 O2 0.970932 1_555
H1 O3 0.970932 1_555
O0 Yb0 2.336450 1_555
O0 Yb1 2.356235 1_554
O0 Yb1 2.356235 1_454
O0 Yb0 2.356880 1_565
O1 Yb1 2.336450 1_555
O1 Yb0 2.356235 1_556
O1 Yb0 2.356235 1_656
O1 Yb1 2.356880 1_545
O2 Yb0 2.341449 1_555
O2 Yb1 2.367388 1_455
O2 Yb1 2.367388 1_555
O3 Yb1 2.341449 1_555
O3 Yb0 2.367388 1_555
O3 Yb0 2.367388 1_655
