# generated using pymatgen
data_Ni(XeF8)2
_symmetry_space_group_name_H-M   'P 1'
_cell_length_a   11.23662400
_cell_length_b   11.44905400
_cell_length_c   19.05261300
_cell_angle_alpha   90.00000000
_cell_angle_beta   90.00000000
_cell_angle_gamma   90.00000000
_symmetry_Int_Tables_number   1
_chemical_formula_structural   Ni(XeF8)2
_chemical_formula_sum   'Ni8 Xe16 F128'
_cell_volume   2451.09417896
_cell_formula_units_Z   8
loop_
 _symmetry_equiv_pos_site_id
 _symmetry_equiv_pos_as_xyz
  1  'x, y, z'
loop_
 _atom_site_type_symbol
 _atom_site_label
 _atom_site_symmetry_multiplicity
 _atom_site_fract_x
 _atom_site_fract_y
 _atom_site_fract_z
 _atom_site_occupancy
  Ni  Ni0  1  0.47567100  0.03779900  0.87724900  1
  Ni  Ni1  1  0.97567100  0.46220100  0.87724900  1
  Ni  Ni2  1  0.52432900  0.46220100  0.37724900  1
  Ni  Ni3  1  0.02432900  0.53779900  0.12275100  1
  Ni  Ni4  1  0.47567100  0.53779900  0.62275100  1
  Ni  Ni5  1  0.97567100  0.96220100  0.62275100  1
  Ni  Ni6  1  0.52432900  0.96220100  0.12275100  1
  Ni  Ni7  1  0.02432900  0.03779900  0.37724900  1
  Xe  Xe0  1  0.80808200  0.30940300  0.00771400  1
  Xe  Xe1  1  0.19191800  0.19059700  0.50771400  1
  Xe  Xe2  1  0.48175100  0.50301600  0.21145300  1
  Xe  Xe3  1  0.80808200  0.80940300  0.49228600  1
  Xe  Xe4  1  0.30808200  0.69059700  0.49228600  1
  Xe  Xe5  1  0.51824900  0.99698400  0.71145300  1
  Xe  Xe6  1  0.48175100  0.00301600  0.28854700  1
  Xe  Xe7  1  0.30808200  0.19059700  0.00771400  1
  Xe  Xe8  1  0.69191800  0.80940300  0.99228600  1
  Xe  Xe9  1  0.01824900  0.00301600  0.78854700  1
  Xe  Xe10  1  0.69191800  0.30940300  0.50771400  1
  Xe  Xe11  1  0.98175100  0.99698400  0.21145300  1
  Xe  Xe12  1  0.19191800  0.69059700  0.99228600  1
  Xe  Xe13  1  0.01824900  0.50301600  0.71145300  1
  Xe  Xe14  1  0.98175100  0.49698400  0.28854700  1
  Xe  Xe15  1  0.51824900  0.49698400  0.78854700  1
  F  F0  1  0.17131700  0.08057900  0.01552000  1
  F  F1  1  0.68913200  0.80452400  0.88766100  1
  F  F2  1  0.32868300  0.58057900  0.98448000  1
  F  F3  1  0.56316000  0.86486300  0.33130300  1
  F  F4  1  0.43684000  0.13513700  0.66869700  1
  F  F5  1  0.05457500  0.54053900  0.94580100  1
  F  F6  1  0.38976500  0.44200700  0.32671500  1
  F  F7  1  0.93684000  0.36486300  0.66869700  1
  F  F8  1  0.54163800  0.46034100  0.88896300  1
  F  F9  1  0.05457500  0.04053900  0.55419900  1
  F  F10  1  0.45836200  0.53965900  0.11103700  1
  F  F11  1  0.11343900  0.14904300  0.77910200  1
  F  F12  1  0.90724900  0.66531600  0.48766400  1
  F  F13  1  0.67107700  0.08122600  0.69465200  1
  F  F14  1  0.95544800  0.59303900  0.82551000  1
  F  F15  1  0.88976500  0.05799300  0.32671500  1
  F  F16  1  0.59728200  0.38845600  0.30563100  1
  F  F17  1  0.59275100  0.16531600  0.51233600  1
  F  F18  1  0.67107700  0.58122600  0.80534800  1
  F  F19  1  0.67131700  0.91942100  0.48448000  1
  F  F20  1  0.04163800  0.53965900  0.61103700  1
  F  F21  1  0.06316000  0.13513700  0.16869700  1
  F  F22  1  0.11023500  0.94200700  0.67328500  1
  F  F23  1  0.90724900  0.16531600  0.01233600  1
  F  F24  1  0.49152600  0.67151900  0.57367700  1
  F  F25  1  0.55457500  0.45946100  0.55419900  1
  F  F26  1  0.49152600  0.17151900  0.92632300  1
  F  F27  1  0.62813900  0.09656700  0.30699200  1
  F  F28  1  0.94542500  0.45946100  0.05419900  1
  F  F29  1  0.09275100  0.83468400  0.98766400  1
  F  F30  1  0.06316000  0.63513700  0.33130300  1
  F  F31  1  0.74449700  0.26154900  0.41252900  1
  F  F32  1  0.54455200  0.09303900  0.17449000  1
  F  F33  1  0.68913200  0.30452400  0.61233900  1
  F  F34  1  0.38656100  0.14904300  0.27910200  1
  F  F35  1  0.33782900  0.01937700  0.92413100  1
  F  F36  1  0.66217100  0.98062300  0.07586900  1
  F  F37  1  0.12813900  0.40343300  0.30699200  1
  F  F38  1  0.54455200  0.59303900  0.32551000  1
  F  F39  1  0.83782900  0.98062300  0.57586900  1
  F  F40  1  0.04163800  0.03965900  0.88896300  1
  F  F41  1  0.82868300  0.41942100  0.51552000  1
  F  F42  1  0.18913200  0.19547600  0.61233900  1
  F  F43  1  0.12813900  0.90343300  0.19300800  1
  F  F44  1  0.68101300  0.19582100  0.02883100  1
  F  F45  1  0.88656100  0.85095700  0.22089800  1
  F  F46  1  0.61343900  0.35095700  0.77910200  1
  F  F47  1  0.93684000  0.86486300  0.83130300  1
  F  F48  1  0.59728200  0.88845600  0.19436900  1
  F  F49  1  0.32892300  0.91877400  0.30534800  1
  F  F50  1  0.95836200  0.46034100  0.38896300  1
  F  F51  1  0.31898700  0.30417900  0.52883100  1
  F  F52  1  0.00847400  0.67151900  0.07367700  1
  F  F53  1  0.82868300  0.91942100  0.98448000  1
  F  F54  1  0.11343900  0.64904300  0.72089800  1
  F  F55  1  0.82892300  0.08122600  0.19465200  1
  F  F56  1  0.99152600  0.32848100  0.92632300  1
  F  F57  1  0.68101300  0.69582100  0.47116900  1
  F  F58  1  0.90271800  0.88845600  0.69436900  1
  F  F59  1  0.40271800  0.61154400  0.69436900  1
  F  F60  1  0.09728200  0.11154400  0.30563100  1
  F  F61  1  0.33782900  0.51937700  0.57586900  1
  F  F62  1  0.61343900  0.85095700  0.72089800  1
  F  F63  1  0.81086800  0.80452400  0.38766100  1
  F  F64  1  0.25550300  0.23845100  0.91252900  1
  F  F65  1  0.45836200  0.03965900  0.38896300  1
  F  F66  1  0.40724900  0.33468400  0.01233600  1
  F  F67  1  0.40271800  0.11154400  0.80563100  1
  F  F68  1  0.31086800  0.19547600  0.11233900  1
  F  F69  1  0.81898700  0.19582100  0.52883100  1
  F  F70  1  0.95544800  0.09303900  0.67449000  1
  F  F71  1  0.82892300  0.58122600  0.30534800  1
  F  F72  1  0.31898700  0.80417900  0.97116900  1
  F  F73  1  0.16217100  0.01937700  0.42413100  1
  F  F74  1  0.17107700  0.41877400  0.69465200  1
  F  F75  1  0.81086800  0.30452400  0.11233900  1
  F  F76  1  0.40724900  0.83468400  0.48766400  1
  F  F77  1  0.24449700  0.73845100  0.08747100  1
  F  F78  1  0.75550300  0.26154900  0.91252900  1
  F  F79  1  0.56316000  0.36486300  0.16869700  1
  F  F80  1  0.90271800  0.38845600  0.80563100  1
  F  F81  1  0.38656100  0.64904300  0.22089800  1
  F  F82  1  0.32868300  0.08057900  0.51552000  1
  F  F83  1  0.18101300  0.30417900  0.02883100  1
  F  F84  1  0.83782900  0.48062300  0.92413100  1
  F  F85  1  0.95836200  0.96034100  0.11103700  1
  F  F86  1  0.44542500  0.54053900  0.44580100  1
  F  F87  1  0.44542500  0.04053900  0.05419900  1
  F  F88  1  0.18913200  0.69547600  0.88766100  1
  F  F89  1  0.87186100  0.59656700  0.69300800  1
  F  F90  1  0.66217100  0.48062300  0.42413100  1
  F  F91  1  0.88976500  0.55799300  0.17328500  1
  F  F92  1  0.09728200  0.61154400  0.19436900  1
  F  F93  1  0.99152600  0.82848100  0.57367700  1
  F  F94  1  0.11023500  0.44200700  0.82671500  1
  F  F95  1  0.17131700  0.58057900  0.48448000  1
  F  F96  1  0.54163800  0.96034100  0.61103700  1
  F  F97  1  0.31086800  0.69547600  0.38766100  1
  F  F98  1  0.88656100  0.35095700  0.27910200  1
  F  F99  1  0.25550300  0.73845100  0.58747100  1
  F  F100  1  0.87186100  0.09656700  0.80699200  1
  F  F101  1  0.32892300  0.41877400  0.19465200  1
  F  F102  1  0.67131700  0.41942100  0.01552000  1
  F  F103  1  0.74449700  0.76154900  0.08747100  1
  F  F104  1  0.61023500  0.55799300  0.67328500  1
  F  F105  1  0.45544800  0.40696100  0.67449000  1
  F  F106  1  0.50847400  0.32848100  0.42632300  1
  F  F107  1  0.45544800  0.90696100  0.82551000  1
  F  F108  1  0.24449700  0.23845100  0.41252900  1
  F  F109  1  0.37186100  0.40343300  0.80699200  1
  F  F110  1  0.81898700  0.69582100  0.97116900  1
  F  F111  1  0.37186100  0.90343300  0.69300800  1
  F  F112  1  0.62813900  0.59656700  0.19300800  1
  F  F113  1  0.17107700  0.91877400  0.80534800  1
  F  F114  1  0.18101300  0.80417900  0.47116900  1
  F  F115  1  0.50847400  0.82848100  0.07367700  1
  F  F116  1  0.09275100  0.33468400  0.51233600  1
  F  F117  1  0.59275100  0.66531600  0.98766400  1
  F  F118  1  0.38976500  0.94200700  0.17328500  1
  F  F119  1  0.04455200  0.40696100  0.17449000  1
  F  F120  1  0.55457500  0.95946100  0.94580100  1
  F  F121  1  0.75550300  0.76154900  0.58747100  1
  F  F122  1  0.04455200  0.90696100  0.32551000  1
  F  F123  1  0.16217100  0.51937700  0.07586900  1
  F  F124  1  0.43684000  0.63513700  0.83130300  1
  F  F125  1  0.94542500  0.95946100  0.44580100  1
  F  F126  1  0.00847400  0.17151900  0.42632300  1
  F  F127  1  0.61023500  0.05799300  0.82671500  1
loop_
_geom_bond_atom_site_label_1
_geom_bond_atom_site_label_2
_geom_bond_distance
_geom_bond_site_symmetry_2
F0 Xe7 1.992586 1_555
F1 Xe8 1.994408 1_555
F2 Xe12 1.992586 1_555
F3 Xe6 2.000557 1_565
F4 Xe5 2.000557 1_545
F5 Ni1 1.815597 1_455
F5 Xe12 2.473395 1_555
F6 Ni2 1.807409 1_555
F7 Xe13 2.000557 1_655
F8 Xe15 1.976198 1_555
F9 Ni5 1.815597 1_445
F9 Xe1 2.473395 1_555
F10 Xe2 1.976198 1_555
F11 Xe9 1.992890 1_555
F12 Xe3 1.992687 1_555
F13 Xe5 1.995427 1_545
F14 Ni1 1.807563 1_555
F15 Ni7 1.807409 1_655
F16 Ni2 1.801869 1_555
F17 Xe10 1.992687 1_555
F18 Xe15 1.995427 1_555
F19 Xe3 1.992586 1_555
F20 Xe13 1.976198 1_555
F21 Xe11 2.000557 1_445
F22 Ni5 1.807409 1_455
F23 Xe0 1.992687 1_555
F24 Ni4 1.802721 1_555
F24 Xe4 2.588694 1_555
F25 Ni4 1.815597 1_555
F25 Xe10 2.473395 1_555
F26 Ni0 1.802721 1_555
F26 Xe7 2.588694 1_556
F27 Xe6 1.994094 1_555
F28 Ni3 1.815597 1_655
F28 Xe0 2.473395 1_555
F29 Xe12 1.992687 1_555
F30 Xe14 2.000557 1_455
F31 Xe10 1.984464 1_555
F32 Ni6 1.807563 1_545
F33 Xe10 1.994408 1_555
F34 Xe6 1.992890 1_555
F35 Ni0 1.800378 1_555
F35 Xe7 2.547647 1_556
F36 Ni6 1.800378 1_555
F36 Xe8 2.547647 1_554
F37 Xe14 1.994094 1_455
F38 Ni2 1.807563 1_555
F39 Ni5 1.800378 1_555
F39 Xe3 2.547647 1_555
F40 Xe9 1.976198 1_555
F41 Xe10 1.992586 1_555
F42 Xe1 1.994408 1_555
F43 Xe11 1.994094 1_455
F44 Xe0 1.972719 1_555
F45 Xe11 1.992890 1_555
F46 Xe15 1.992890 1_555
F47 Xe9 2.000557 1_665
F48 Ni6 1.801869 1_555
F49 Xe6 1.995427 1_565
F50 Xe14 1.976198 1_555
F51 Xe1 1.972719 1_555
F52 Ni3 1.802721 1_555
F52 Xe12 2.588694 1_554
F53 Xe8 1.992586 1_555
F54 Xe13 1.992890 1_555
F55 Xe11 1.995427 1_545
F56 Ni1 1.802721 1_555
F56 Xe0 2.588694 1_556
F57 Xe3 1.972719 1_555
F58 Ni5 1.801869 1_555
F59 Ni4 1.801869 1_555
F60 Ni7 1.801869 1_555
F61 Ni4 1.800378 1_555
F61 Xe4 2.547647 1_555
F62 Xe5 1.992890 1_555
F63 Xe3 1.994408 1_555
F64 Xe7 1.984464 1_556
F65 Xe6 1.976198 1_555
F66 Xe7 1.992687 1_555
F67 Ni0 1.801869 1_555
F68 Xe7 1.994408 1_555
F69 Xe10 1.972719 1_555
F70 Ni5 1.807563 1_545
F71 Xe14 1.995427 1_555
F72 Xe12 1.972719 1_555
F73 Ni7 1.800378 1_555
F73 Xe1 2.547647 1_555
F74 Xe13 1.995427 1_555
F75 Xe0 1.994408 1_555
F76 Xe4 1.992687 1_555
F77 Xe12 1.984464 1_554
F78 Xe0 1.984464 1_556
F79 Xe2 2.000557 1_555
F80 Ni1 1.801869 1_555
F81 Xe2 1.992890 1_555
F82 Xe1 1.992586 1_555
F83 Xe7 1.972719 1_555
F84 Ni1 1.800378 1_555
F84 Xe0 2.547647 1_556
F85 Xe11 1.976198 1_555
F86 Ni2 1.815597 1_555
F86 Xe4 2.473395 1_555
F87 Ni6 1.815597 1_545
F87 Xe7 2.473395 1_555
F88 Xe12 1.994408 1_555
F89 Xe13 1.994094 1_655
F90 Ni2 1.800378 1_555
F90 Xe10 2.547647 1_555
F91 Ni3 1.807409 1_655
F92 Ni3 1.801869 1_555
F93 Ni5 1.802721 1_555
F93 Xe3 2.588694 1_555
F94 Ni1 1.807409 1_455
F95 Xe4 1.992586 1_555
F96 Xe5 1.976198 1_555
F97 Xe4 1.994408 1_555
F98 Xe14 1.992890 1_555
F99 Xe4 1.984464 1_555
F100 Xe9 1.994094 1_655
F101 Xe2 1.995427 1_555
F102 Xe0 1.992586 1_555
F103 Xe8 1.984464 1_554
F104 Ni4 1.807409 1_555
F105 Ni4 1.807563 1_555
F106 Ni2 1.802721 1_555
F106 Xe10 2.588694 1_555
F107 Ni0 1.807563 1_565
F108 Xe1 1.984464 1_555
F109 Xe15 1.994094 1_555
F110 Xe8 1.972719 1_555
F111 Xe5 1.994094 1_555
F112 Xe2 1.994094 1_555
F113 Xe9 1.995427 1_565
F114 Xe4 1.972719 1_555
F115 Ni6 1.802721 1_555
F115 Xe8 2.588694 1_554
F116 Xe1 1.992687 1_555
F117 Xe8 1.992687 1_555
F118 Ni6 1.807409 1_555
F119 Ni3 1.807563 1_555
F120 Ni0 1.815597 1_565
F120 Xe8 2.473395 1_555
F121 Xe3 1.984464 1_555
F122 Ni7 1.807563 1_565
F123 Ni3 1.800378 1_555
F123 Xe12 2.547647 1_554
F124 Xe15 2.000557 1_555
F125 Ni7 1.815597 1_665
F125 Xe3 2.473395 1_555
F126 Ni7 1.802721 1_555
F126 Xe1 2.588694 1_555
F127 Ni0 1.807409 1_555
