# generated using pymatgen
data_K5As4
_symmetry_space_group_name_H-M   'P 1'
_cell_length_a   6.24221035
_cell_length_b   6.49018135
_cell_length_c   8.01604032
_cell_angle_alpha   71.87515099
_cell_angle_beta   87.99624508
_cell_angle_gamma   89.85397847
_symmetry_Int_Tables_number   1
_chemical_formula_structural   K5As4
_chemical_formula_sum   'K5 As4'
_cell_volume   308.43985596
_cell_formula_units_Z   1
loop_
 _symmetry_equiv_pos_site_id
 _symmetry_equiv_pos_as_xyz
  1  'x, y, z'
loop_
 _atom_site_type_symbol
 _atom_site_label
 _atom_site_symmetry_multiplicity
 _atom_site_fract_x
 _atom_site_fract_y
 _atom_site_fract_z
 _atom_site_occupancy
  K  K0  1  0.73736897  0.19794291  0.97361939  1
  K  K1  1  0.82658088  0.49380163  0.28990934  1
  K  K2  1  0.50000000  0.00000000  0.50000000  1
  K  K3  1  0.17341912  0.50619837  0.71009066  1
  K  K4  1  0.26263103  0.80205709  0.02638061  1
  As  As0  1  0.98700790  0.03090093  0.64512113  1
  As  As1  1  0.24052426  0.25158665  0.15881609  1
  As  As2  1  0.75947574  0.74841335  0.84118391  1
  As  As3  1  0.01299210  0.96909907  0.35487887  1
loop_
_geom_bond_atom_site_label_1
_geom_bond_atom_site_label_2
_geom_bond_distance
_geom_bond_site_symmetry_2
As0 As2 2.431682 1_545
As0 As3 2.480752 1_645
As0 K2 3.321247 1_555
As0 K2 3.395435 1_655
As0 K0 3.466742 1_555
As0 K4 3.469418 1_646
As0 K3 3.484367 1_645
As0 K3 3.493029 1_655
As0 K1 3.605280 1_555
As1 As3 2.431682 1_545
As1 K2 3.207389 1_555
As1 K1 3.327071 1_455
As1 K4 3.397411 1_555
As1 K4 3.401879 1_545
As1 K0 3.455130 1_554
As1 K3 3.499743 1_554
As1 K0 3.583703 1_454
As2 K2 3.207389 1_565
As2 K3 3.327071 1_655
As2 K0 3.397411 1_555
As2 K0 3.401879 1_565
As2 K4 3.455130 1_556
As2 K1 3.499743 1_556
As2 K4 3.583703 1_656
As3 K2 3.321247 1_565
As3 K2 3.395435 1_465
As3 K4 3.466742 1_555
As3 K0 3.469418 1_464
As3 K1 3.484367 1_465
As3 K1 3.493029 1_455
As3 K3 3.605280 1_555
