# generated using pymatgen
data_CrHO2
_symmetry_space_group_name_H-M   'P 1'
_cell_length_a   4.43926247
_cell_length_b   9.80012880
_cell_length_c   2.98646789
_cell_angle_alpha   89.99999877
_cell_angle_beta   89.99998799
_cell_angle_gamma   89.99844207
_symmetry_Int_Tables_number   1
_chemical_formula_structural   CrHO2
_chemical_formula_sum   'Cr4 H4 O8'
_cell_volume   129.92731282
_cell_formula_units_Z   4
loop_
 _symmetry_equiv_pos_site_id
 _symmetry_equiv_pos_as_xyz
  1  'x, y, z'
loop_
 _atom_site_type_symbol
 _atom_site_label
 _atom_site_symmetry_multiplicity
 _atom_site_fract_x
 _atom_site_fract_y
 _atom_site_fract_z
 _atom_site_occupancy
  Cr  Cr0  1  0.54638291  0.63928880  0.25000111  1
  Cr  Cr1  1  0.95363229  0.13925296  0.24999981  1
  Cr  Cr2  1  0.45361808  0.36070806  0.75000053  1
  Cr  Cr3  1  0.04636958  0.86074911  0.74999940  1
  H  H0  1  0.91746412  0.40458478  0.25000035  1
  H  H1  1  0.58253829  0.90457705  0.24999980  1
  H  H2  1  0.08253867  0.59542121  0.75000035  1
  H  H3  1  0.41746250  0.09541625  0.75000015  1
  O  O0  1  0.19354764  0.30636545  0.25000015  1
  O  O1  1  0.30648032  0.80633797  0.24999999  1
  O  O2  1  0.80645790  0.69363206  0.74999892  1
  O  O3  1  0.69352167  0.19366437  0.75000053  1
  O  O4  1  0.70483625  0.44305952  0.24999989  1
  O  O5  1  0.79519283  0.94305718  0.25000019  1
  O  O6  1  0.29515312  0.55694409  0.74999954  1
  O  O7  1  0.20480182  0.05693914  0.75000031  1
loop_
_geom_bond_atom_site_label_1
_geom_bond_atom_site_label_2
_geom_bond_distance
_geom_bond_site_symmetry_2
Cr0 O1 1.953002 1_555
Cr0 O2 1.961214 1_555
Cr0 O2 1.961223 1_554
Cr0 O6 2.030973 1_555
Cr0 O6 2.030980 1_554
Cr0 O4 2.047664 1_555
Cr1 O0 1.953602 1_655
Cr1 O3 1.961475 1_554
Cr1 O3 1.961478 1_555
Cr1 O7 2.030684 1_654
Cr1 O7 2.030687 1_655
Cr1 O5 2.047370 1_545
Cr2 O3 1.952960 1_555
Cr2 O0 1.961204 1_556
Cr2 O0 1.961206 1_555
Cr2 O4 2.030973 1_556
Cr2 O4 2.030976 1_555
Cr2 O6 2.047744 1_555
Cr3 O2 1.953630 1_455
Cr3 O1 1.961474 1_555
Cr3 O1 1.961477 1_556
Cr3 O5 2.030679 1_455
Cr3 O5 2.030682 1_456
Cr3 O7 2.047306 1_565
H0 O4 1.016425 1_555
H0 O0 1.558388 1_655
H1 O5 1.016574 1_555
H1 O1 1.558460 1_555
H2 O6 1.016379 1_555
H2 O2 1.558328 1_455
H3 O7 1.016588 1_555
H3 O3 1.558519 1_555
