# generated using pymatgen
data_Ba9La3Mg5Nb7O36
_symmetry_space_group_name_H-M   'P 1'
_cell_length_a   5.81651700
_cell_length_b   8.23106500
_cell_length_c   17.44612300
_cell_angle_alpha   90.00000000
_cell_angle_beta   90.00000000
_cell_angle_gamma   90.00000000
_symmetry_Int_Tables_number   1
_chemical_formula_structural   Ba9La3Mg5Nb7O36
_chemical_formula_sum   'Ba9 La3 Mg5 Nb7 O36'
_cell_volume   835.25284403
_cell_formula_units_Z   1
loop_
 _symmetry_equiv_pos_site_id
 _symmetry_equiv_pos_as_xyz
  1  'x, y, z'
loop_
 _atom_site_type_symbol
 _atom_site_label
 _atom_site_symmetry_multiplicity
 _atom_site_fract_x
 _atom_site_fract_y
 _atom_site_fract_z
 _atom_site_occupancy
  Ba  Ba0  1  0.00000000  0.74195800  0.00000000  1
  Ba  Ba1  1  0.50000000  0.25721400  0.16998400  1
  Ba  Ba2  1  0.50000000  0.74344300  0.17043100  1
  Ba  Ba3  1  0.00000000  0.25140700  0.33692600  1
  Ba  Ba4  1  0.50000000  0.75232600  0.50000000  1
  Ba  Ba5  1  0.50000000  0.25721400  0.83001600  1
  Ba  Ba6  1  0.00000000  0.25140700  0.66307400  1
  Ba  Ba7  1  0.50000000  0.74344300  0.82956900  1
  Ba  Ba8  1  0.00000000  0.25714800  0.00000000  1
  La  La0  1  0.00000000  0.73147400  0.33460100  1
  La  La1  1  0.50000000  0.24656400  0.50000000  1
  La  La2  1  0.00000000  0.73147400  0.66539900  1
  Mg  Mg0  1  0.00000000  0.50043400  0.16676800  1
  Mg  Mg1  1  0.50000000  0.99910100  0.33631800  1
  Mg  Mg2  1  0.50000000  0.99910100  0.66368200  1
  Mg  Mg3  1  0.00000000  0.50078400  0.50000000  1
  Mg  Mg4  1  0.00000000  0.50043400  0.83323200  1
  Nb  Nb0  1  0.50000000  0.99938900  0.00000000  1
  Nb  Nb1  1  0.50000000  0.50109300  0.00000000  1
  Nb  Nb2  1  0.00000000  0.99796800  0.17480100  1
  Nb  Nb3  1  0.50000000  0.50168700  0.33632500  1
  Nb  Nb4  1  0.00000000  0.99801600  0.50000000  1
  Nb  Nb5  1  0.50000000  0.50168700  0.66367500  1
  Nb  Nb6  1  0.00000000  0.99796800  0.82519900  1
  O  O0  1  0.74103400  0.49890900  0.08125500  1
  O  O1  1  0.50000000  0.24629200  0.00000000  1
  O  O2  1  0.25896600  0.49890900  0.08125500  1
  O  O3  1  0.24259500  0.99306400  0.25045000  1
  O  O4  1  0.25498700  0.99847100  0.08176200  1
  O  O5  1  0.00000000  0.23896500  0.16550600  1
  O  O6  1  0.00000000  0.75719000  0.16831900  1
  O  O7  1  0.75740500  0.99306400  0.25045000  1
  O  O8  1  0.74501300  0.99847100  0.08176200  1
  O  O9  1  0.74752700  0.50447600  0.41615800  1
  O  O10  1  0.75423600  0.51176600  0.25645500  1
  O  O11  1  0.50000000  0.25751000  0.34071300  1
  O  O12  1  0.50000000  0.74669900  0.33547100  1
  O  O13  1  0.25247300  0.50447600  0.41615800  1
  O  O14  1  0.24576400  0.51176600  0.25645500  1
  O  O15  1  0.24598800  0.00240200  0.58102500  1
  O  O16  1  0.24598800  0.00240200  0.41897500  1
  O  O17  1  0.00000000  0.24694500  0.50000000  1
  O  O18  1  0.00000000  0.75519600  0.50000000  1
  O  O19  1  0.75401200  0.00240200  0.58102500  1
  O  O20  1  0.75401200  0.00240200  0.41897500  1
  O  O21  1  0.75423600  0.51176600  0.74354500  1
  O  O22  1  0.74752700  0.50447600  0.58384200  1
  O  O23  1  0.50000000  0.74669900  0.66452900  1
  O  O24  1  0.50000000  0.25751000  0.65928700  1
  O  O25  1  0.24576400  0.51176600  0.74354500  1
  O  O26  1  0.25247300  0.50447600  0.58384200  1
  O  O27  1  0.24259500  0.99306400  0.74955000  1
  O  O28  1  0.25498700  0.99847100  0.91823800  1
  O  O29  1  0.00000000  0.23896500  0.83449400  1
  O  O30  1  0.00000000  0.75719000  0.83168100  1
  O  O31  1  0.75740500  0.99306400  0.74955000  1
  O  O32  1  0.74501300  0.99847100  0.91823800  1
  O  O33  1  0.74103400  0.49890900  0.91874500  1
  O  O34  1  0.50000000  0.75174500  0.00000000  1
  O  O35  1  0.25896600  0.49890900  0.91874500  1
loop_
_geom_bond_atom_site_label_1
_geom_bond_atom_site_label_2
_geom_bond_distance
_geom_bond_site_symmetry_2
Ba0 O2 2.877609 1_555
Ba0 O0 2.877609 1_455
Ba0 O33 2.877609 1_454
Ba0 O35 2.877609 1_554
Ba0 O34 2.909374 1_455
Ba0 O34 2.909374 1_555
Ba0 O6 2.939189 1_555
Ba0 O30 2.939189 1_554
Ba0 O28 2.948271 1_554
Ba0 O4 2.948271 1_555
Ba0 O8 2.948271 1_455
Ba0 O32 2.948271 1_454
Ba1 O2 2.884357 1_555
Ba1 O0 2.884357 1_555
Ba1 O5 2.913183 1_655
Ba1 O5 2.913183 1_555
Ba1 O1 2.966924 1_555
Ba1 O10 2.975329 1_555
Ba1 O14 2.975329 1_555
Ba1 O11 2.978560 1_555
Ba1 O8 2.989256 1_545
Ba1 O4 2.989256 1_545
Ba1 O7 2.989920 1_545
Ba1 O3 2.989920 1_545
Ba2 O10 2.841754 1_555
Ba2 O14 2.841754 1_555
Ba2 O12 2.879433 1_555
Ba2 O7 2.900355 1_555
Ba2 O3 2.900355 1_555
Ba2 O0 2.904694 1_555
Ba2 O2 2.904694 1_555
Ba2 O6 2.910692 1_655
Ba2 O6 2.910692 1_555
Ba2 O8 2.971600 1_555
Ba2 O4 2.971600 1_555
Ba2 O34 2.974145 1_555
Ba3 O17 2.845246 1_555
Ba3 O16 2.880442 1_555
Ba3 O20 2.880442 1_455
Ba3 O13 2.899356 1_555
Ba3 O9 2.899356 1_455
Ba3 O11 2.909443 1_455
Ba3 O11 2.909443 1_555
Ba3 O14 2.933766 1_555
Ba3 O10 2.933766 1_455
Ba3 O3 2.964610 1_545
Ba3 O7 2.964610 1_445
Ba3 O5 2.992367 1_555
Ba4 O23 2.870767 1_555
Ba4 O12 2.870767 1_555
Ba4 O22 2.893837 1_555
Ba4 O9 2.893837 1_555
Ba4 O13 2.893837 1_555
Ba4 O26 2.893837 1_555
Ba4 O19 2.901390 1_565
Ba4 O20 2.901390 1_565
Ba4 O16 2.901390 1_565
Ba4 O15 2.901390 1_565
Ba4 O18 2.908354 1_655
Ba4 O18 2.908354 1_555
Ba5 O35 2.884357 1_555
Ba5 O33 2.884357 1_555
Ba5 O29 2.913183 1_655
Ba5 O29 2.913183 1_555
Ba5 O1 2.966924 1_556
Ba5 O21 2.975329 1_555
Ba5 O25 2.975329 1_555
Ba5 O24 2.978560 1_555
Ba5 O32 2.989256 1_545
Ba5 O28 2.989256 1_545
Ba5 O31 2.989920 1_545
Ba5 O27 2.989920 1_545
Ba6 O17 2.845246 1_555
Ba6 O15 2.880442 1_555
Ba6 O19 2.880442 1_455
Ba6 O26 2.899356 1_555
Ba6 O22 2.899356 1_455
Ba6 O24 2.909443 1_555
Ba6 O24 2.909443 1_455
Ba6 O25 2.933766 1_555
Ba6 O21 2.933766 1_455
Ba6 O27 2.964610 1_545
Ba6 O31 2.964610 1_445
Ba6 O29 2.992367 1_555
Ba7 O21 2.841754 1_555
Ba7 O25 2.841754 1_555
Ba7 O23 2.879433 1_555
Ba7 O31 2.900355 1_555
Ba7 O27 2.900355 1_555
Ba7 O33 2.904694 1_555
Ba7 O35 2.904694 1_555
Ba7 O30 2.910692 1_555
Ba7 O30 2.910692 1_655
Ba7 O32 2.971600 1_555
Ba7 O28 2.971600 1_555
Ba7 O34 2.974145 1_556
Ba8 O2 2.870249 1_555
Ba8 O0 2.870249 1_455
Ba8 O35 2.870249 1_554
Ba8 O33 2.870249 1_454
Ba8 O5 2.891314 1_555
Ba8 O29 2.891314 1_554
Ba8 O1 2.909631 1_555
Ba8 O1 2.909631 1_455
Ba8 O28 2.961053 1_544
Ba8 O4 2.961053 1_545
Ba8 O8 2.961053 1_445
Ba8 O32 2.961053 1_444
La0 O14 2.678166 1_555
La0 O10 2.678166 1_455
La0 O13 2.769855 1_555
La0 O9 2.769855 1_455
La0 O18 2.892170 1_555
La0 O6 2.908688 1_555
La0 O12 2.910997 1_455
La0 O12 2.910997 1_555
La0 O3 2.963536 1_555
La0 O7 2.963536 1_455
La0 O16 3.031001 1_565
La0 O20 3.031001 1_465
La1 O24 2.780401 1_555
La1 O11 2.780401 1_555
La1 O20 2.867061 1_555
La1 O19 2.867061 1_555
La1 O16 2.867061 1_555
La1 O15 2.867061 1_555
La1 O17 2.908260 1_555
La1 O17 2.908260 1_655
La1 O22 2.952808 1_555
La1 O9 2.952808 1_555
La1 O26 2.952808 1_555
La1 O13 2.952808 1_555
La2 O25 2.678166 1_555
La2 O21 2.678166 1_455
La2 O26 2.769855 1_555
La2 O22 2.769855 1_455
La2 O18 2.892170 1_555
La2 O30 2.908688 1_555
La2 O23 2.910997 1_455
La2 O23 2.910997 1_555
La2 O27 2.963536 1_555
La2 O31 2.963536 1_455
La2 O15 3.031001 1_565
La2 O19 3.031001 1_465
Mg0 O6 2.113549 1_555
Mg0 O2 2.120074 1_555
Mg0 O0 2.120074 1_455
Mg0 O14 2.121414 1_555
Mg0 O10 2.121414 1_455
Mg0 O5 2.152281 1_555
Mg1 O20 2.064736 1_565
Mg1 O16 2.064736 1_565
Mg1 O12 2.077590 1_555
Mg1 O7 2.118555 1_555
Mg1 O3 2.118555 1_555
Mg1 O11 2.128363 1_565
Mg2 O19 2.064736 1_565
Mg2 O15 2.064736 1_565
Mg2 O23 2.077590 1_555
Mg2 O31 2.118555 1_555
Mg2 O27 2.118555 1_555
Mg2 O24 2.128363 1_565
Mg3 O26 2.072920 1_555
Mg3 O13 2.072920 1_555
Mg3 O22 2.072920 1_455
Mg3 O9 2.072920 1_455
Mg3 O17 2.089365 1_555
Mg3 O18 2.094082 1_555
Mg4 O30 2.113549 1_555
Mg4 O35 2.120074 1_555
Mg4 O33 2.120074 1_455
Mg4 O25 2.121414 1_555
Mg4 O21 2.121414 1_455
Mg4 O29 2.152281 1_555
Nb0 O32 2.016366 1_554
Nb0 O8 2.016366 1_555
Nb0 O4 2.016366 1_555
Nb0 O28 2.016366 1_554
Nb0 O1 2.032275 1_565
Nb0 O34 2.038374 1_555
Nb1 O2 1.993844 1_555
Nb1 O0 1.993844 1_555
Nb1 O33 1.993844 1_554
Nb1 O35 1.993844 1_554
Nb1 O34 2.063133 1_555
Nb1 O1 2.097284 1_555
Nb2 O3 1.932495 1_555
Nb2 O7 1.932495 1_455
Nb2 O6 1.985083 1_555
Nb2 O5 1.990279 1_565
Nb2 O4 2.198725 1_555
Nb2 O8 2.198725 1_455
Nb3 O9 2.003302 1_555
Nb3 O13 2.003302 1_555
Nb3 O11 2.011294 1_555
Nb3 O12 2.016765 1_555
Nb3 O10 2.033534 1_555
Nb3 O14 2.033534 1_555
Nb4 O18 1.998667 1_555
Nb4 O15 2.011631 1_565
Nb4 O16 2.011631 1_565
Nb4 O20 2.011631 1_465
Nb4 O19 2.011631 1_465
Nb4 O17 2.048951 1_565
Nb5 O22 2.003302 1_555
Nb5 O26 2.003302 1_555
Nb5 O24 2.011294 1_555
Nb5 O23 2.016765 1_555
Nb5 O21 2.033534 1_555
Nb5 O25 2.033534 1_555
Nb6 O27 1.932495 1_555
Nb6 O31 1.932495 1_455
Nb6 O30 1.985083 1_555
Nb6 O29 1.990279 1_565
Nb6 O28 2.198725 1_555
Nb6 O32 2.198725 1_455
