# generated using pymatgen
data_Cr2Bi28O47
_symmetry_space_group_name_H-M   'P 1'
_cell_length_a   8.86324900
_cell_length_b   8.87671661
_cell_length_c   17.12937181
_cell_angle_alpha   90.10120184
_cell_angle_beta   90.43196589
_cell_angle_gamma   90.31671016
_symmetry_Int_Tables_number   1
_chemical_formula_structural   Cr2Bi28O47
_chemical_formula_sum   'Cr2 Bi28 O47'
_cell_volume   1347.61877969
_cell_formula_units_Z   1
loop_
 _symmetry_equiv_pos_site_id
 _symmetry_equiv_pos_as_xyz
  1  'x, y, z'
loop_
 _atom_site_type_symbol
 _atom_site_label
 _atom_site_symmetry_multiplicity
 _atom_site_fract_x
 _atom_site_fract_y
 _atom_site_fract_z
 _atom_site_occupancy
  Cr  Cr0  1  0.00197100  0.95274800  0.97851900  1
  Cr  Cr1  1  0.53847800  0.45091600  0.47856600  1
  Bi  Bi0  1  0.70376900  0.10705700  0.83333200  1
  Bi  Bi1  1  0.61134200  0.79639500  0.66725800  1
  Bi  Bi2  1  0.49807200  0.49061900  0.83999700  1
  Bi  Bi3  1  0.39317300  0.19780800  0.66614600  1
  Bi  Bi4  1  0.28335000  0.94760300  0.49954700  1
  Bi  Bi5  1  0.30174300  0.88702500  0.82889700  1
  Bi  Bi6  1  0.20645900  0.61058900  0.33052900  1
  Bi  Bi7  1  0.10993900  0.29551300  0.16712300  1
  Bi  Bi8  1  0.20278100  0.60878800  0.66769200  1
  Bi  Bi9  1  0.05664400  0.28468900  0.49821200  1
  Bi  Bi10  1  0.11126500  0.29247200  0.82861600  1
  Bi  Bi11  1  0.99956300  0.99456400  0.33926800  1
  Bi  Bi12  1  0.00261500  0.00035200  0.66015800  1
  Bi  Bi13  1  0.89238400  0.70014600  0.16622800  1
  Bi  Bi14  1  0.93960700  0.70952200  0.50055500  1
  Bi  Bi15  1  0.78458700  0.44587100  0.00041800  1
  Bi  Bi16  1  0.80282000  0.39115600  0.33023300  1
  Bi  Bi17  1  0.89134800  0.69245400  0.82977000  1
  Bi  Bi18  1  0.79907600  0.38770300  0.66426300  1
  Bi  Bi19  1  0.70154200  0.10806400  0.16711700  1
  Bi  Bi20  1  0.71416100  0.05479000  0.49842000  1
  Bi  Bi21  1  0.55641300  0.78446700  0.99886700  1
  Bi  Bi22  1  0.60846600  0.79482500  0.32902900  1
  Bi  Bi23  1  0.49781800  0.49713300  0.15994300  1
  Bi  Bi24  1  0.44267100  0.21066500  0.00121200  1
  Bi  Bi25  1  0.39152600  0.19955500  0.33024500  1
  Bi  Bi26  1  0.29586400  0.88964200  0.16493000  1
  Bi  Bi27  1  0.21220400  0.55366600  0.99813000  1
  O  O0  1  0.83571400  0.01204300  0.01078700  1
  O  O1  1  0.74639200  0.57805600  0.74633500  1
  O  O2  1  0.68210200  0.62067600  0.91981900  1
  O  O3  1  0.62255500  0.31672300  0.92057900  1
  O  O4  1  0.57899800  0.24784100  0.75413500  1
  O  O5  1  0.49993400  0.99674000  0.61621100  1
  O  O6  1  0.50549000  0.99483000  0.88440000  1
  O  O7  1  0.41877600  0.74582500  0.74760400  1
  O  O8  1  0.37613800  0.67943200  0.91936200  1
  O  O9  1  0.24652800  0.07922500  0.24839300  1
  O  O10  1  0.32150500  0.37266300  0.91884700  1
  O  O11  1  0.24900200  0.07716400  0.74554000  1
  O  O12  1  0.25290400  0.41993300  0.75138000  1
  O  O13  1  0.17924800  0.12084200  0.41986400  1
  O  O14  1  0.17943300  0.11841000  0.58028200  1
  O  O15  1  0.12292300  0.81867600  0.41979600  1
  O  O16  1  0.07916600  0.75396400  0.25072200  1
  O  O17  1  0.12484800  0.81596400  0.58093500  1
  O  O18  1  0.99844200  0.49648400  0.11669600  1
  O  O19  1  0.08496400  0.74485600  0.74800500  1
  O  O20  1  0.00678800  0.49575100  0.38541200  1
  O  O21  1  0.99984700  0.50045400  0.61647500  1
  O  O22  1  0.92113400  0.24703600  0.25060700  1
  O  O23  1  0.00702000  0.98288900  0.88168400  1
  O  O24  1  0.99916600  0.48983200  0.88055800  1
  O  O25  1  0.87769800  0.18238500  0.41978700  1
  O  O26  1  0.92359300  0.24632000  0.74375400  1
  O  O27  1  0.88160000  0.17912800  0.57813700  1
  O  O28  1  0.81837700  0.87798700  0.42028400  1
  O  O29  1  0.81624400  0.87655800  0.57937400  1
  O  O30  1  0.75413100  0.58150800  0.24725300  1
  O  O31  1  0.75233100  0.91871100  0.24955800  1
  O  O32  1  0.68006200  0.61957300  0.07918900  1
  O  O33  1  0.74664500  0.91708700  0.74871200  1
  O  O34  1  0.62236700  0.31842900  0.07986100  1
  O  O35  1  0.70974500  0.51683600  0.51213700  1
  O  O36  1  0.58115000  0.24772400  0.24748900  1
  O  O37  1  0.49766000  0.99964800  0.11492400  1
  O  O38  1  0.48522200  0.51648600  0.38492400  1
  O  O39  1  0.50052900  0.99704700  0.38276500  1
  O  O40  1  0.44399800  0.29773300  0.51102800  1
  O  O41  1  0.41798200  0.75014900  0.24519100  1
  O  O42  1  0.37734700  0.67895200  0.07845800  1
  O  O43  1  0.31984100  0.37239100  0.08140600  1
  O  O44  1  0.24919800  0.41856000  0.24695400  1
  O  O45  1  0.14683700  0.04218400  0.02192900  1
  O  O46  1  0.01477100  0.76649600  0.99304000  1
loop_
_geom_bond_atom_site_label_1
_geom_bond_atom_site_label_2
_geom_bond_distance
_geom_bond_site_symmetry_2
Cr0 O0 1.665475 1_466
Cr0 O45 1.674532 1_566
Cr0 O46 1.676682 1_555
Cr0 O23 1.681518 1_555
Cr1 O40 1.690116 1_555
Cr1 O35 1.718484 1_555
Cr1 O38 1.769014 1_555
Bi0 O4 2.150281 1_555
Bi0 O6 2.202949 1_545
Bi0 O33 2.257394 1_545
Bi0 O3 2.497338 1_555
Bi0 O26 2.775582 1_555
Bi1 O33 2.118479 1_555
Bi1 O5 2.216806 1_555
Bi1 O7 2.244506 1_555
Bi1 O29 2.470122 1_555
Bi1 O1 2.652240 1_555
Bi2 O10 2.321301 1_555
Bi2 O3 2.347078 1_555
Bi2 O2 2.408902 1_555
Bi2 O8 2.420616 1_555
Bi2 O4 2.709935 1_555
Bi2 O12 2.711379 1_555
Bi2 O1 2.838879 1_555
Bi2 O7 2.853801 1_555
Bi3 O11 2.155329 1_555
Bi3 O5 2.199568 1_545
Bi3 O4 2.265759 1_555
Bi3 O14 2.487651 1_555
Bi3 O12 2.758499 1_555
Bi3 O40 2.841075 1_555
Bi4 O13 2.254610 1_565
Bi4 O14 2.255428 1_565
Bi4 O15 2.268250 1_555
Bi4 O17 2.302119 1_555
Bi4 O5 2.792599 1_555
Bi4 O39 2.819814 1_555
Bi5 O7 2.148489 1_555
Bi5 O6 2.243341 1_555
Bi5 O11 2.261228 1_565
Bi5 O8 2.497977 1_555
Bi5 O19 2.670415 1_555
Bi6 O16 2.181797 1_555
Bi6 O20 2.250209 1_555
Bi6 O44 2.259480 1_555
Bi6 O15 2.514041 1_555
Bi6 O41 2.684842 1_555
Bi6 O38 2.767918 1_555
Bi7 O44 2.130912 1_555
Bi7 O18 2.217498 1_455
Bi7 O22 2.249623 1_455
Bi7 O43 2.472524 1_555
Bi7 O9 2.664471 1_555
Bi8 O19 2.114622 1_555
Bi8 O21 2.209913 1_455
Bi8 O12 2.251628 1_555
Bi8 O17 2.464932 1_555
Bi8 O7 2.635774 1_555
Bi9 O25 2.256658 1_455
Bi9 O13 2.264921 1_555
Bi9 O27 2.275936 1_455
Bi9 O14 2.311134 1_555
Bi9 O20 2.729074 1_555
Bi9 O21 2.835103 1_455
Bi10 O12 2.149674 1_555
Bi10 O24 2.207949 1_455
Bi10 O26 2.236433 1_455
Bi10 O10 2.511156 1_555
Bi10 O11 2.685249 1_555
Bi11 O15 2.353637 1_655
Bi11 O28 2.365570 1_555
Bi11 O13 2.374960 1_665
Bi11 O25 2.425464 1_565
Bi11 O16 2.716801 1_655
Bi11 O31 2.746944 1_555
Bi11 O9 2.795806 1_665
Bi11 O22 2.797435 1_565
Bi12 O14 2.333576 1_555
Bi12 O27 2.376287 1_455
Bi12 O17 2.393362 1_545
Bi12 O29 2.406471 1_445
Bi12 O11 2.702725 1_555
Bi12 O26 2.707247 1_455
Bi12 O19 2.820373 1_545
Bi12 O33 2.834014 1_445
Bi13 O30 2.133873 1_555
Bi13 O18 2.212967 1_555
Bi13 O16 2.239718 1_655
Bi13 O32 2.492961 1_555
Bi13 O31 2.717725 1_555
Bi14 O29 2.291275 1_555
Bi14 O28 2.298729 1_555
Bi14 O17 2.329869 1_655
Bi14 O15 2.348106 1_655
Bi14 O35 2.661645 1_555
Bi14 O21 2.771271 1_555
Bi14 O20 2.804003 1_655
Bi15 O32 2.254692 1_555
Bi15 O2 2.267858 1_554
Bi15 O3 2.278964 1_554
Bi15 O34 2.283808 1_555
Bi15 O18 2.773486 1_555
Bi15 O24 2.835174 1_554
Bi16 O22 2.151017 1_555
Bi16 O20 2.230739 1_655
Bi16 O30 2.251439 1_555
Bi16 O25 2.497250 1_555
Bi16 O36 2.722872 1_555
Bi17 O1 2.162684 1_555
Bi17 O24 2.217446 1_555
Bi17 O19 2.269936 1_655
Bi17 O2 2.501659 1_555
Bi17 O33 2.749548 1_555
Bi18 O26 2.155408 1_555
Bi18 O21 2.200799 1_555
Bi18 O1 2.249396 1_555
Bi18 O27 2.482127 1_555
Bi18 O4 2.782336 1_555
Bi19 O36 2.145145 1_555
Bi19 O37 2.223577 1_545
Bi19 O31 2.242589 1_545
Bi19 O34 2.494380 1_555
Bi19 O22 2.698224 1_555
Bi20 O28 2.266040 1_545
Bi20 O25 2.283574 1_555
Bi20 O27 2.287183 1_555
Bi20 O29 2.291134 1_545
Bi20 O39 2.775219 1_545
Bi20 O5 2.827092 1_545
Bi21 O2 2.285181 1_555
Bi21 O8 2.285447 1_555
Bi21 O32 2.288810 1_556
Bi21 O42 2.296864 1_556
Bi21 O6 2.746649 1_555
Bi21 O37 2.808011 1_556
Bi22 O31 2.168944 1_555
Bi22 O39 2.238564 1_555
Bi22 O41 2.241438 1_555
Bi22 O28 2.527188 1_555
Bi22 O30 2.694343 1_555
Bi22 O38 2.865090 1_555
Bi23 O43 2.338313 1_555
Bi23 O34 2.377224 1_555
Bi23 O42 2.386992 1_555
Bi23 O32 2.392363 1_555
Bi23 O44 2.756784 1_555
Bi23 O41 2.774686 1_555
Bi23 O36 2.776499 1_555
Bi23 O30 2.807953 1_555
Bi24 O43 2.272880 1_555
Bi24 O34 2.283188 1_555
Bi24 O10 2.283223 1_554
Bi24 O3 2.314561 1_554
Bi24 O37 2.747515 1_545
Bi24 O6 2.828324 1_544
Bi25 O9 2.170416 1_555
Bi25 O39 2.232919 1_545
Bi25 O36 2.246580 1_555
Bi25 O13 2.533285 1_555
Bi25 O44 2.723229 1_555
Bi26 O41 2.143192 1_555
Bi26 O37 2.212007 1_555
Bi26 O9 2.253063 1_565
Bi26 O42 2.496922 1_555
Bi26 O16 2.705968 1_555
Bi27 O8 2.279235 1_555
Bi27 O42 2.284464 1_556
Bi27 O10 2.322436 1_555
Bi27 O43 2.353464 1_556
Bi27 O46 2.583364 1_555
Bi27 O24 2.805199 1_455
Bi27 O18 2.832505 1_456
