# generated using pymatgen
data_UTl2Cr2O10
_symmetry_space_group_name_H-M   'P 1'
_cell_length_a   10.83731100
_cell_length_b   13.63247300
_cell_length_c   14.07159000
_cell_angle_alpha   90.00000000
_cell_angle_beta   90.00000000
_cell_angle_gamma   90.00000000
_symmetry_Int_Tables_number   1
_chemical_formula_structural   UTl2Cr2O10
_chemical_formula_sum   'U8 Tl16 Cr16 O80'
_cell_volume   2078.92755444
_cell_formula_units_Z   8
loop_
 _symmetry_equiv_pos_site_id
 _symmetry_equiv_pos_as_xyz
  1  'x, y, z'
loop_
 _atom_site_type_symbol
 _atom_site_label
 _atom_site_symmetry_multiplicity
 _atom_site_fract_x
 _atom_site_fract_y
 _atom_site_fract_z
 _atom_site_occupancy
  U  U0  1  0.65573000  0.75996300  0.51759900  1
  U  U1  1  0.34427000  0.24003700  0.01759900  1
  U  U2  1  0.84427000  0.75996300  0.01759900  1
  U  U3  1  0.15573000  0.24003700  0.51759900  1
  U  U4  1  0.83881700  0.26753400  0.86736100  1
  U  U5  1  0.33881700  0.73246600  0.86736100  1
  U  U6  1  0.66118300  0.26753400  0.36736100  1
  U  U7  1  0.16118300  0.73246600  0.36736100  1
  Tl  Tl0  1  0.97386300  0.05430100  0.04704700  1
  Tl  Tl1  1  0.75602800  0.91587600  0.76302200  1
  Tl  Tl2  1  0.28176100  0.55709100  0.58876300  1
  Tl  Tl3  1  0.74397200  0.91587600  0.26302200  1
  Tl  Tl4  1  0.52613700  0.05430100  0.54704700  1
  Tl  Tl5  1  0.02613700  0.94569900  0.54704700  1
  Tl  Tl6  1  0.49405600  0.57224400  0.31664900  1
  Tl  Tl7  1  0.50594400  0.42775600  0.81664900  1
  Tl  Tl8  1  0.00594400  0.57224400  0.81664900  1
  Tl  Tl9  1  0.78176100  0.44290900  0.58876300  1
  Tl  Tl10  1  0.24397200  0.08412400  0.26302200  1
  Tl  Tl11  1  0.21823900  0.55709100  0.08876300  1
  Tl  Tl12  1  0.99405600  0.42775600  0.31664900  1
  Tl  Tl13  1  0.25602800  0.08412400  0.76302200  1
  Tl  Tl14  1  0.47386300  0.94569900  0.04704700  1
  Tl  Tl15  1  0.71823900  0.44290900  0.08876300  1
  Cr  Cr0  1  0.04689100  0.33764100  0.08751300  1
  Cr  Cr1  1  0.15527300  0.81675200  0.11082000  1
  Cr  Cr2  1  0.93821100  0.10941600  0.34262100  1
  Cr  Cr3  1  0.65527300  0.18324800  0.11082000  1
  Cr  Cr4  1  0.56178900  0.10941600  0.84262100  1
  Cr  Cr5  1  0.06178900  0.89058400  0.84262100  1
  Cr  Cr6  1  0.16504500  0.33627800  0.78370700  1
  Cr  Cr7  1  0.45310900  0.33764100  0.58751300  1
  Cr  Cr8  1  0.66504500  0.66372200  0.78370700  1
  Cr  Cr9  1  0.43821100  0.89058400  0.34262100  1
  Cr  Cr10  1  0.34472700  0.81675200  0.61082000  1
  Cr  Cr11  1  0.84472700  0.18324800  0.61082000  1
  Cr  Cr12  1  0.33495500  0.33627800  0.28370700  1
  Cr  Cr13  1  0.54689100  0.66235900  0.08751300  1
  Cr  Cr14  1  0.83495500  0.66372200  0.28370700  1
  Cr  Cr15  1  0.95310900  0.66235900  0.58751300  1
  O  O0  1  0.23287900  0.14223300  0.04112000  1
  O  O1  1  0.23188900  0.44072800  0.75823400  1
  O  O2  1  0.97643000  0.05501600  0.24256600  1
  O  O3  1  0.45509400  0.33890700  0.99750800  1
  O  O4  1  0.48777000  0.55481800  0.11902700  1
  O  O5  1  0.98777000  0.44518200  0.11902700  1
  O  O6  1  0.55694200  0.73023000  0.18236500  1
  O  O7  1  0.15689900  0.26711400  0.68511000  1
  O  O8  1  0.59480700  0.14496700  0.35709400  1
  O  O9  1  0.76712100  0.85776700  0.54112000  1
  O  O10  1  0.40519300  0.85503300  0.85709400  1
  O  O11  1  0.54215400  0.28189000  0.50493300  1
  O  O12  1  0.95509400  0.66109300  0.99750800  1
  O  O13  1  0.07152400  0.13634800  0.40201800  1
  O  O14  1  0.02154800  0.35917400  0.82424300  1
  O  O15  1  0.95784600  0.28189000  0.00493300  1
  O  O16  1  0.84310100  0.73288600  0.18511000  1
  O  O17  1  0.54490600  0.66109300  0.49750800  1
  O  O18  1  0.14675100  0.78771600  0.82281600  1
  O  O19  1  0.94305800  0.73023000  0.68236500  1
  O  O20  1  0.26712100  0.14223300  0.54112000  1
  O  O21  1  0.05694200  0.26977000  0.18236500  1
  O  O22  1  0.73287900  0.85776700  0.04112000  1
  O  O23  1  0.76811100  0.55927200  0.25823400  1
  O  O24  1  0.00758900  0.85120300  0.08803200  1
  O  O25  1  0.71736800  0.23113300  0.01304200  1
  O  O26  1  0.26779200  0.91421200  0.64228100  1
  O  O27  1  0.02357000  0.94498400  0.74256600  1
  O  O28  1  0.57152400  0.86365200  0.40201800  1
  O  O29  1  0.26811100  0.44072800  0.25823400  1
  O  O30  1  0.77176900  0.38997600  0.87996300  1
  O  O31  1  0.34310100  0.26711400  0.18511000  1
  O  O32  1  0.27176900  0.61002400  0.87996300  1
  O  O33  1  0.49241100  0.85120300  0.58803200  1
  O  O34  1  0.52154800  0.64082600  0.82424300  1
  O  O35  1  0.45784600  0.71811000  0.00493300  1
  O  O36  1  0.23220800  0.91421200  0.14228100  1
  O  O37  1  0.04215500  0.71811000  0.50493300  1
  O  O38  1  0.80825400  0.64084200  0.54401600  1
  O  O39  1  0.28263200  0.76886700  0.51304200  1
  O  O40  1  0.35324900  0.78771600  0.32281600  1
  O  O41  1  0.97845200  0.64082600  0.32424300  1
  O  O42  1  0.35680600  0.96758800  0.40615900  1
  O  O43  1  0.64319400  0.03241200  0.90615900  1
  O  O44  1  0.90519300  0.14496700  0.85709400  1
  O  O45  1  0.25341000  0.27524300  0.36631400  1
  O  O46  1  0.65689900  0.73288600  0.68511000  1
  O  O47  1  0.04490600  0.33890700  0.49750800  1
  O  O48  1  0.85680600  0.03241200  0.40615900  1
  O  O49  1  0.14319400  0.96758800  0.90615900  1
  O  O50  1  0.44305800  0.26977000  0.68236500  1
  O  O51  1  0.64675100  0.21228400  0.82281600  1
  O  O52  1  0.69174600  0.64084200  0.04401600  1
  O  O53  1  0.99241100  0.14879700  0.58803200  1
  O  O54  1  0.75341000  0.72475700  0.36631400  1
  O  O55  1  0.72823100  0.38997600  0.37996300  1
  O  O56  1  0.15956800  0.72940200  0.19735500  1
  O  O57  1  0.24659000  0.27524300  0.86631400  1
  O  O58  1  0.01223000  0.55481800  0.61902700  1
  O  O59  1  0.19174600  0.35915800  0.04401600  1
  O  O60  1  0.73220800  0.08578800  0.14228100  1
  O  O61  1  0.74659000  0.72475700  0.86631400  1
  O  O62  1  0.30825400  0.35915800  0.54401600  1
  O  O63  1  0.51223000  0.44518200  0.61902700  1
  O  O64  1  0.47845200  0.35917400  0.32424300  1
  O  O65  1  0.09480700  0.85503300  0.35709400  1
  O  O66  1  0.84043200  0.27059800  0.69735500  1
  O  O67  1  0.73188900  0.55927200  0.75823400  1
  O  O68  1  0.52357000  0.05501600  0.74256600  1
  O  O69  1  0.85324900  0.21228400  0.32281600  1
  O  O70  1  0.47643000  0.94498400  0.24256600  1
  O  O71  1  0.92847600  0.86365200  0.90201800  1
  O  O72  1  0.65956800  0.27059800  0.19735500  1
  O  O73  1  0.78263200  0.23113300  0.51304200  1
  O  O74  1  0.22823100  0.61002400  0.37996300  1
  O  O75  1  0.76779200  0.08578800  0.64228100  1
  O  O76  1  0.21736800  0.76886700  0.01304200  1
  O  O77  1  0.34043200  0.72940200  0.69735500  1
  O  O78  1  0.50758900  0.14879700  0.08803200  1
  O  O79  1  0.42847600  0.13634800  0.90201800  1
loop_
_geom_bond_atom_site_label_1
_geom_bond_atom_site_label_2
_geom_bond_distance
_geom_bond_site_symmetry_2
Cr0 O21 1.627705 1_555
Cr0 O5 1.660260 1_455
Cr0 O15 1.690916 1_455
Cr0 O59 1.710283 1_555
Cr1 O36 1.629844 1_555
Cr1 O76 1.664952 1_555
Cr1 O24 1.698526 1_555
Cr1 O56 1.703796 1_555
Cr2 O48 1.636967 1_555
Cr2 O2 1.644327 1_555
Cr2 O69 1.700599 1_555
Cr2 O13 1.709004 1_655
Cr3 O60 1.629844 1_555
Cr3 O25 1.664952 1_555
Cr3 O78 1.698526 1_555
Cr3 O72 1.703796 1_555
Cr4 O43 1.636967 1_555
Cr4 O68 1.644327 1_555
Cr4 O51 1.700599 1_555
Cr4 O79 1.709004 1_555
Cr5 O49 1.636967 1_555
Cr5 O27 1.644327 1_555
Cr5 O18 1.700599 1_555
Cr5 O71 1.709004 1_455
Cr6 O1 1.637308 1_555
Cr6 O7 1.679802 1_555
Cr6 O57 1.680624 1_555
Cr6 O14 1.685583 1_555
Cr7 O50 1.627705 1_555
Cr7 O63 1.660260 1_555
Cr7 O11 1.690916 1_555
Cr7 O62 1.710283 1_555
Cr8 O67 1.637308 1_555
Cr8 O46 1.679802 1_555
Cr8 O61 1.680624 1_555
Cr8 O34 1.685583 1_555
Cr9 O42 1.636967 1_555
Cr9 O70 1.644327 1_555
Cr9 O40 1.700599 1_555
Cr9 O28 1.709004 1_555
Cr10 O26 1.629844 1_555
Cr10 O39 1.664952 1_555
Cr10 O33 1.698526 1_555
Cr10 O77 1.703796 1_555
Cr11 O75 1.629844 1_555
Cr11 O73 1.664952 1_555
Cr11 O53 1.698526 1_555
Cr11 O66 1.703796 1_555
Cr12 O29 1.637308 1_555
Cr12 O31 1.679802 1_555
Cr12 O45 1.680624 1_555
Cr12 O64 1.685583 1_555
Cr13 O6 1.627705 1_555
Cr13 O4 1.660260 1_555
Cr13 O35 1.690916 1_555
Cr13 O52 1.710283 1_555
Cr14 O23 1.637308 1_555
Cr14 O16 1.679802 1_555
Cr14 O54 1.680624 1_555
Cr14 O41 1.685583 1_555
Cr15 O19 1.627705 1_555
Cr15 O58 1.660260 1_655
Cr15 O37 1.690922 1_655
Cr15 O38 1.710283 1_555
O0 U1 1.828809 1_555
O2 Tl0 2.751421 1_555
O3 U1 1.827317 1_556
O4 Tl6 2.791816 1_555
O5 Tl12 2.791816 1_555
O7 U3 2.385907 1_555
O8 U6 1.824883 1_555
O9 U0 1.828809 1_555
O10 U5 1.824883 1_555
O11 U6 2.334486 1_555
O12 U2 1.827317 1_556
O13 U3 2.340101 1_555
O13 Tl10 2.797333 1_555
O14 U4 2.418775 1_455
O15 U4 2.334486 1_554
O16 U2 2.385907 1_555
O17 U0 1.827317 1_555
O18 U5 2.300600 1_555
O20 U3 1.828809 1_555
O22 U2 1.828809 1_555
O24 U2 2.379512 1_455
O25 U4 2.486148 1_554
O26 Tl13 2.875458 1_565
O27 Tl5 2.751421 1_555
O28 U0 2.340101 1_555
O28 Tl3 2.797333 1_555
O30 U4 1.829101 1_555
O31 U1 2.385907 1_555
O32 U5 1.829101 1_555
O33 U0 2.379512 1_555
O34 U5 2.418775 1_555
O35 U5 2.334486 1_554
O36 Tl10 2.875458 1_565
O37 U7 2.334480 1_555
O38 U0 2.346811 1_555
O38 Tl9 2.785645 1_555
O39 U7 2.486148 1_555
O40 U7 2.300600 1_555
O41 U7 2.418775 1_655
O42 Tl10 2.841835 1_565
O43 Tl1 2.841835 1_545
O44 U4 1.824883 1_555
O45 U3 2.425455 1_555
O46 U0 2.385907 1_555
O47 U3 1.827317 1_555
O48 Tl3 2.841835 1_545
O49 Tl13 2.841835 1_565
O51 U4 2.300600 1_555
O52 U2 2.346811 1_555
O52 Tl15 2.785645 1_555
O53 U3 2.379512 1_655
O54 U0 2.425455 1_555
O55 U6 1.829101 1_555
O56 U7 2.392683 1_555
O57 U1 2.425455 1_556
O58 Tl8 2.791816 1_555
O59 U1 2.346811 1_555
O59 Tl11 2.785645 1_555
O60 Tl3 2.875458 1_545
O61 U2 2.425455 1_556
O62 U3 2.346811 1_555
O62 Tl2 2.785645 1_555
O63 Tl7 2.791816 1_555
O64 U6 2.418775 1_555
O65 U7 1.824883 1_555
O66 U4 2.392683 1_555
O68 Tl4 2.751421 1_555
O69 U6 2.300600 1_555
O70 Tl14 2.751421 1_555
O71 U2 2.340101 1_556
O71 Tl1 2.797333 1_555
O72 U6 2.392683 1_555
O73 U6 2.486148 1_555
O74 U7 1.829101 1_555
O75 Tl1 2.875458 1_545
O76 U5 2.486148 1_554
O77 U5 2.392683 1_555
O78 U1 2.379512 1_555
O79 U1 2.340101 1_556
O79 Tl13 2.797333 1_555
