# generated using pymatgen
data_CdI2
_symmetry_space_group_name_H-M   'P 1'
_cell_length_a   4.28794022
_cell_length_b   4.28794022
_cell_length_c   109.15581984
_cell_angle_alpha   90.00000000
_cell_angle_beta   90.00000000
_cell_angle_gamma   120.00000036
_symmetry_Int_Tables_number   1
_chemical_formula_structural   CdI2
_chemical_formula_sum   'Cd15 I30'
_cell_volume   1738.10084511
_cell_formula_units_Z   15
loop_
 _symmetry_equiv_pos_site_id
 _symmetry_equiv_pos_as_xyz
  1  'x, y, z'
loop_
 _atom_site_type_symbol
 _atom_site_label
 _atom_site_symmetry_multiplicity
 _atom_site_fract_x
 _atom_site_fract_y
 _atom_site_fract_z
 _atom_site_occupancy
  Cd  Cd0  1  0.00000000  -0.00000000  0.01667918  1
  Cd  Cd1  1  0.00000000  -0.00000000  0.81667539  1
  Cd  Cd2  1  0.33333300  0.66666700  0.41665896  1
  Cd  Cd3  1  0.00000000  -0.00000000  0.61667454  1
  Cd  Cd4  1  0.00000000  -0.00000000  0.35000493  1
  Cd  Cd5  1  0.33333300  0.66666700  0.54999815  1
  Cd  Cd6  1  0.33333300  0.66666700  0.94999826  1
  Cd  Cd7  1  0.00000000  -0.00000000  0.28334000  1
  Cd  Cd8  1  0.33333300  0.66666700  0.21665377  1
  Cd  Cd9  1  0.33333300  0.66666700  0.68332865  1
  Cd  Cd10  1  0.00000000  -0.00000000  0.15000665  1
  Cd  Cd11  1  0.00000000  -0.00000000  0.48333716  1
  Cd  Cd12  1  0.33333300  0.66666700  0.08333148  1
  Cd  Cd13  1  0.33333300  0.66666700  0.88333135  1
  Cd  Cd14  1  0.33333300  0.66666700  0.74997801  1
  I  I0  1  0.66666700  0.33333300  0.56577711  1
  I  I1  1  0.33333300  0.66666700  0.80089081  1
  I  I2  1  0.66666700  0.33333300  0.16577694  1
  I  I3  1  0.66666700  0.33333300  0.36577758  1
  I  I4  1  0.66666700  0.33333300  0.89911007  1
  I  I5  1  0.33333300  0.66666700  0.46755728  1
  I  I6  1  0.66666700  0.33333300  0.96577685  1
  I  I7  1  0.66666700  0.33333300  0.23244298  1
  I  I8  1  0.00000000  -0.00000000  0.40088991  1
  I  I9  1  0.66666700  0.33333300  0.69911007  1
  I  I10  1  0.33333300  0.66666700  0.60089189  1
  I  I11  1  0.00000000  -0.00000000  0.86755762  1
  I  I12  1  0.66666700  0.33333300  0.76577570  1
  I  I13  1  0.00000000  -0.00000000  0.73422243  1
  I  I14  1  0.66666700  0.33333300  0.63244366  1
  I  I15  1  0.00000000  -0.00000000  0.20089255  1
  I  I16  1  0.00000000  -0.00000000  0.53422323  1
  I  I17  1  0.66666700  0.33333300  0.09910994  1
  I  I18  1  0.33333300  0.66666700  0.00088970  1
  I  I19  1  0.33333300  0.66666700  0.13422337  1
  I  I20  1  0.00000000  -0.00000000  0.06755664  1
  I  I21  1  0.66666700  0.33333300  0.03244345  1
  I  I22  1  0.33333300  0.66666700  0.26755641  1
  I  I23  1  0.66666700  0.33333300  0.29911047  1
  I  I24  1  0.33333300  0.66666700  0.33422298  1
  I  I25  1  0.00000000  -0.00000000  0.93422311  1
  I  I26  1  0.66666700  0.33333300  0.83244359  1
  I  I27  1  0.00000000  -0.00000000  0.66755638  1
  I  I28  1  0.66666700  0.33333300  0.43244057  1
  I  I29  1  0.66666700  0.33333300  0.49910924  1
loop_
_geom_bond_atom_site_label_1
_geom_bond_atom_site_label_2
_geom_bond_distance
_geom_bond_site_symmetry_2
Cd0 I21 3.014933 1_455
Cd0 I21 3.014936 1_555
Cd0 I21 3.014936 1_445
Cd0 I18 3.016504 1_545
Cd0 I18 3.016507 1_555
Cd0 I18 3.016507 1_445
Cd1 I26 3.015178 1_455
Cd1 I26 3.015181 1_445
Cd1 I26 3.015181 1_555
Cd1 I1 3.016199 1_545
Cd1 I1 3.016202 1_555
Cd1 I1 3.016202 1_445
Cd2 I8 3.015231 1_565
Cd2 I8 3.015234 1_555
Cd2 I8 3.015234 1_665
Cd2 I28 3.016013 1_455
Cd2 I28 3.016013 1_565
Cd2 I28 3.016020 1_555
Cd3 I14 3.015235 1_455
Cd3 I14 3.015238 1_555
Cd3 I14 3.015238 1_445
Cd3 I10 3.016078 1_545
Cd3 I10 3.016081 1_555
Cd3 I10 3.016081 1_445
Cd4 I3 3.015455 1_455
Cd4 I3 3.015458 1_445
Cd4 I3 3.015458 1_555
Cd4 I24 3.016035 1_545
Cd4 I24 3.016038 1_555
Cd4 I24 3.016038 1_445
Cd5 I16 3.015596 1_565
Cd5 I16 3.015599 1_665
Cd5 I16 3.015599 1_555
Cd5 I0 3.015848 1_455
Cd5 I0 3.015848 1_565
Cd5 I0 3.015854 1_555
Cd6 I25 3.015611 1_565
Cd6 I25 3.015614 1_665
Cd6 I25 3.015614 1_555
Cd6 I6 3.015825 1_455
Cd6 I6 3.015825 1_565
Cd6 I6 3.015831 1_555
Cd7 I23 3.015319 1_455
Cd7 I23 3.015322 1_445
Cd7 I23 3.015322 1_555
Cd7 I22 3.016137 1_545
Cd7 I22 3.016140 1_445
Cd7 I22 3.016140 1_555
Cd8 I15 3.014743 1_565
Cd8 I15 3.014746 1_665
Cd8 I15 3.014746 1_555
Cd8 I7 3.016487 1_455
Cd8 I7 3.016487 1_565
Cd8 I7 3.016493 1_555
Cd9 I27 3.015431 1_565
Cd9 I27 3.015434 1_555
Cd9 I27 3.015434 1_665
Cd9 I9 3.016002 1_455
Cd9 I9 3.016002 1_565
Cd9 I9 3.016008 1_555
Cd10 I2 3.015308 1_455
Cd10 I2 3.015311 1_445
Cd10 I2 3.015311 1_555
Cd10 I19 3.016118 1_545
Cd10 I19 3.016121 1_555
Cd10 I19 3.016121 1_445
Cd11 I29 3.015419 1_455
Cd11 I29 3.015422 1_555
Cd11 I29 3.015422 1_445
Cd11 I5 3.015906 1_545
Cd11 I5 3.015909 1_445
Cd11 I5 3.015909 1_555
Cd12 I20 3.015591 1_565
Cd12 I20 3.015594 1_555
Cd12 I20 3.015594 1_665
Cd12 I17 3.015817 1_455
Cd12 I17 3.015817 1_565
Cd12 I17 3.015823 1_555
Cd13 I11 3.015522 1_565
Cd13 I11 3.015525 1_555
Cd13 I11 3.015525 1_665
Cd13 I4 3.015833 1_455
Cd13 I4 3.015833 1_565
Cd13 I4 3.015839 1_555
Cd14 I13 3.014391 1_565
Cd14 I13 3.014394 1_555
Cd14 I13 3.014394 1_665
Cd14 I12 3.017016 1_455
Cd14 I12 3.017016 1_565
Cd14 I12 3.017022 1_555
