# generated using pymatgen
data_Pr3Sn13Rh4
_symmetry_space_group_name_H-M   'P 1'
_cell_length_a   9.78005355
_cell_length_b   9.78004230
_cell_length_c   9.78003790
_cell_angle_alpha   90.00007962
_cell_angle_beta   90.00007112
_cell_angle_gamma   89.99988049
_symmetry_Int_Tables_number   1
_chemical_formula_structural   Pr3Sn13Rh4
_chemical_formula_sum   'Pr6 Sn26 Rh8'
_cell_volume   935.45414503
_cell_formula_units_Z   2
loop_
 _symmetry_equiv_pos_site_id
 _symmetry_equiv_pos_as_xyz
  1  'x, y, z'
loop_
 _atom_site_type_symbol
 _atom_site_label
 _atom_site_symmetry_multiplicity
 _atom_site_fract_x
 _atom_site_fract_y
 _atom_site_fract_z
 _atom_site_occupancy
  Pr  Pr0  1  -0.00001439  0.50001299  0.74999978  1
  Pr  Pr1  1  0.25000165  -0.00001348  0.49999481  1
  Pr  Pr2  1  0.99998796  0.50001191  0.25000051  1
  Pr  Pr3  1  0.74999835  -0.00001153  0.49999681  1
  Pr  Pr4  1  0.50001419  0.24999710  0.00000528  1
  Pr  Pr5  1  0.50001216  0.75000279  0.00000357  1
  Sn  Sn0  1  0.34625218  0.50003081  0.80617833  1
  Sn  Sn1  1  -0.00001949  0.84622203  0.69381952  1
  Sn  Sn2  1  0.30618596  -0.00002859  0.15376740  1
  Sn  Sn3  1  0.15374558  0.30618297  0.00001210  1
  Sn  Sn4  1  0.69383145  -0.00002609  0.84624520  1
  Sn  Sn5  1  0.99997579  -0.00002596  0.00000912  1
  Sn  Sn6  1  0.65377623  0.50002674  0.80618059  1
  Sn  Sn7  1  0.19381409  0.65377807  0.49999088  1
  Sn  Sn8  1  0.80617016  0.65377459  0.49999441  1
  Sn  Sn9  1  0.99998462  0.84622339  0.30617467  1
  Sn  Sn10  1  0.50001580  0.80616990  0.34623379  1
  Sn  Sn11  1  0.34625096  0.50002779  0.19382788  1
  Sn  Sn12  1  0.84622614  0.69383065  0.00000599  1
  Sn  Sn13  1  0.30618495  -0.00003167  0.84624534  1
  Sn  Sn14  1  0.50002375  0.19381389  0.65375413  1
  Sn  Sn15  1  0.50001987  0.19381331  0.34623464  1
  Sn  Sn16  1  0.84622563  0.30618556  0.00000761  1
  Sn  Sn17  1  0.65377474  0.50002476  0.19382490  1
  Sn  Sn18  1  0.80616770  0.34625552  0.49999253  1
  Sn  Sn19  1  0.50002425  0.50002585  0.49999092  1
  Sn  Sn20  1  0.19381595  0.34625505  0.49998739  1
  Sn  Sn21  1  0.99998151  0.15374616  0.30617257  1
  Sn  Sn22  1  -0.00002425  0.15374515  0.69382155  1
  Sn  Sn23  1  0.50001845  0.80616912  0.65375642  1
  Sn  Sn24  1  0.69383023  -0.00002426  0.15376409  1
  Sn  Sn25  1  0.15374845  0.69383399  0.00000935  1
  Rh  Rh0  1  0.75000190  0.74999362  0.24999886  1
  Rh  Rh1  1  0.24999758  0.75000423  0.25000943  1
  Rh  Rh2  1  0.74999465  0.25000620  0.24999195  1
  Rh  Rh3  1  0.25000181  0.24999986  0.74999827  1
  Rh  Rh4  1  0.74999833  0.25000867  0.75000773  1
  Rh  Rh5  1  0.75000574  0.74998999  0.75000070  1
  Rh  Rh6  1  0.25000364  0.24999677  0.25000299  1
  Rh  Rh7  1  0.24999572  0.75000116  0.74999100  1
loop_
_geom_bond_atom_site_label_1
_geom_bond_atom_site_label_2
_geom_bond_distance
_geom_bond_site_symmetry_2
Pr0 Sn1 3.430230 1_555
Pr0 Sn6 3.430238 1_455
Pr0 Sn0 3.430785 1_555
Pr0 Sn22 3.430793 1_555
Pr0 Sn8 3.439874 1_455
Pr0 Sn12 3.439882 1_456
Pr0 Sn18 3.439883 1_455
Pr0 Sn25 3.439938 1_556
Pr0 Sn16 3.439955 1_456
Pr0 Sn20 3.439987 1_555
Pr0 Sn7 3.439990 1_555
Pr0 Sn3 3.439994 1_556
Pr0 Rh5 3.457467 1_455
Pr0 Rh4 3.457715 1_455
Pr0 Rh7 3.457761 1_555
Pr0 Rh3 3.457968 1_555
Pr1 Sn7 3.430236 1_545
Pr1 Sn2 3.430412 1_555
Pr1 Sn13 3.430633 1_555
Pr1 Sn20 3.430811 1_555
Pr1 Sn10 3.439939 1_545
Pr1 Sn23 3.439964 1_545
Pr1 Sn9 3.439989 1_445
Pr1 Sn21 3.440005 1_455
Pr1 Sn15 3.440027 1_555
Pr1 Sn14 3.440048 1_555
Pr1 Sn1 3.440054 1_545
Pr1 Sn22 3.440066 1_555
Pr1 Rh1 3.457540 1_545
Pr1 Rh7 3.457641 1_545
Pr1 Rh6 3.457783 1_555
Pr1 Rh3 3.457880 1_555
Pr2 Sn9 3.430243 1_555
Pr2 Sn17 3.430266 1_555
Pr2 Sn11 3.430743 1_655
Pr2 Sn21 3.430765 1_555
Pr2 Sn18 3.439791 1_555
Pr2 Sn20 3.439792 1_655
Pr2 Sn3 3.439811 1_655
Pr2 Sn8 3.439812 1_555
Pr2 Sn25 3.439812 1_655
Pr2 Sn12 3.439817 1_555
Pr2 Sn7 3.439847 1_655
Pr2 Sn16 3.439849 1_555
Pr2 Rh0 3.457543 1_555
Pr2 Rh2 3.457766 1_555
Pr2 Rh1 3.457786 1_655
Pr2 Rh6 3.457979 1_655
Pr3 Sn8 3.430262 1_545
Pr3 Sn24 3.430437 1_555
Pr3 Sn4 3.430588 1_555
Pr3 Sn18 3.430774 1_555
Pr3 Sn14 3.439696 1_555
Pr3 Sn22 3.439711 1_655
Pr3 Sn23 3.439718 1_545
Pr3 Sn15 3.439740 1_555
Pr3 Sn10 3.439741 1_545
Pr3 Sn21 3.439758 1_555
Pr3 Sn1 3.439772 1_645
Pr3 Sn9 3.439793 1_545
Pr3 Rh0 3.457714 1_545
Pr3 Rh5 3.457785 1_545
Pr3 Rh2 3.457925 1_555
Pr3 Rh4 3.457979 1_555
Pr4 Sn16 3.430270 1_555
Pr4 Sn15 3.430430 1_555
Pr4 Sn14 3.430638 1_554
Pr4 Sn3 3.430816 1_555
Pr4 Sn24 3.439976 1_555
Pr4 Sn4 3.440000 1_554
Pr4 Sn17 3.440048 1_555
Pr4 Sn2 3.440094 1_555
Pr4 Sn11 3.440094 1_555
Pr4 Sn6 3.440101 1_554
Pr4 Sn13 3.440106 1_554
Pr4 Sn0 3.440135 1_554
Pr4 Rh2 3.457539 1_555
Pr4 Rh4 3.457644 1_554
Pr4 Rh6 3.457828 1_555
Pr4 Rh3 3.457900 1_554
Pr5 Sn12 3.430267 1_555
Pr5 Sn10 3.430411 1_555
Pr5 Sn23 3.430575 1_554
Pr5 Sn25 3.430744 1_555
Pr5 Sn13 3.439646 1_564
Pr5 Sn4 3.439650 1_564
Pr5 Sn24 3.439661 1_565
Pr5 Sn2 3.439685 1_565
Pr5 Sn0 3.439689 1_554
Pr5 Sn11 3.439716 1_555
Pr5 Sn6 3.439720 1_554
Pr5 Sn17 3.439720 1_555
Pr5 Rh0 3.457663 1_555
Pr5 Rh5 3.457746 1_554
Pr5 Rh1 3.457912 1_555
Pr5 Rh7 3.457967 1_554
Sn0 Sn6 3.007602 1_555
Sn0 Sn25 3.275770 1_556
Sn0 Sn3 3.276062 1_556
Sn0 Sn19 3.350955 1_555
Sn1 Sn22 3.007589 1_565
Sn1 Sn8 3.275462 1_455
Sn1 Sn7 3.275592 1_555
Sn1 Sn5 3.350882 1_466
Sn2 Sn5 3.351093 1_455
Sn3 Sn5 3.351136 1_455
Sn4 Sn5 3.350543 1_556
Sn5 Sn9 3.350670 1_545
Sn7 Sn9 3.275507 1_455
Sn8 Sn9 3.275469 1_555
Sn10 Sn23 3.007583 1_555
Sn10 Sn24 3.275507 1_565
Sn10 Sn2 3.275544 1_565
Sn10 Sn19 3.350511 1_555
Sn11 Sn17 3.007599 1_555
Sn11 Sn25 3.275710 1_555
Sn11 Sn3 3.275930 1_555
Sn11 Sn19 3.350744 1_555
Sn12 Sn25 3.007585 1_655
Sn12 Sn17 3.275430 1_555
Sn12 Sn6 3.275441 1_554
Sn12 Sn5 3.350474 1_565
Sn13 Sn2 3.007577 1_556
Sn13 Sn23 3.275678 1_545
Sn13 Sn14 3.275991 1_555
Sn13 Sn5 3.351112 1_456
Sn14 Sn15 3.007552 1_555
Sn14 Sn4 3.275775 1_555
Sn14 Sn19 3.351131 1_555
Sn15 Sn24 3.275661 1_555
Sn15 Sn2 3.275802 1_555
Sn15 Sn19 3.351102 1_555
Sn16 Sn3 3.007562 1_655
Sn16 Sn17 3.275599 1_555
Sn16 Sn6 3.275657 1_554
Sn16 Sn5 3.351066 1_555
Sn17 Sn19 3.350673 1_555
Sn18 Sn8 3.007550 1_555
Sn18 Sn21 3.275799 1_555
Sn18 Sn22 3.275824 1_655
Sn18 Sn19 3.350562 1_555
Sn19 Sn8 3.350495 1_555
Sn19 Sn23 3.350537 1_555
Sn19 Sn6 3.350883 1_555
Sn19 Sn7 3.351066 1_555
Sn19 Sn20 3.351137 1_555
Sn20 Sn7 3.007588 1_555
Sn20 Sn21 3.275886 1_455
Sn20 Sn22 3.276039 1_555
Sn21 Sn9 3.007586 1_545
Sn21 Sn5 3.350742 1_555
Sn22 Sn5 3.350952 1_456
Sn23 Sn4 3.275595 1_565
Sn24 Sn4 3.007546 1_554
Sn24 Sn5 3.350518 1_555
Sn25 Sn5 3.350541 1_465
Rh0 Sn17 2.676583 1_555
Rh0 Sn24 2.676722 1_565
Rh0 Sn9 2.676722 1_555
Rh0 Sn12 2.676763 1_555
Rh0 Sn10 2.676769 1_555
Rh0 Sn8 2.676780 1_555
Rh1 Sn2 2.676649 1_565
Rh1 Sn7 2.676711 1_555
Rh1 Sn11 2.676753 1_555
Rh1 Sn25 2.676927 1_555
Rh1 Sn9 2.676932 1_455
Rh1 Sn10 2.676999 1_555
Rh2 Sn15 2.676731 1_555
Rh2 Sn16 2.676746 1_555
Rh2 Sn21 2.676869 1_555
Rh2 Sn18 2.676937 1_555
Rh2 Sn17 2.676986 1_555
Rh2 Sn24 2.677115 1_555
Rh3 Sn20 2.677077 1_555
Rh3 Sn3 2.677101 1_556
Rh3 Sn14 2.677141 1_555
Rh3 Sn22 2.677196 1_555
Rh3 Sn13 2.677228 1_555
Rh3 Sn0 2.677230 1_555
Rh4 Sn14 2.676768 1_555
Rh4 Sn22 2.676809 1_655
Rh4 Sn16 2.676863 1_556
Rh4 Sn6 2.677000 1_555
Rh4 Sn18 2.677056 1_555
Rh4 Sn4 2.677194 1_555
Rh5 Sn6 2.676555 1_555
Rh5 Sn1 2.676671 1_655
Rh5 Sn4 2.676775 1_565
Rh5 Sn23 2.676816 1_555
Rh5 Sn12 2.676853 1_556
Rh5 Sn8 2.676855 1_555
Rh6 Sn20 2.676853 1_555
Rh6 Sn3 2.676908 1_555
Rh6 Sn15 2.677040 1_555
Rh6 Sn2 2.677130 1_555
Rh6 Sn21 2.677135 1_455
Rh6 Sn11 2.677212 1_555
Rh7 Sn13 2.676690 1_565
Rh7 Sn0 2.676722 1_555
Rh7 Sn7 2.676860 1_555
Rh7 Sn1 2.676970 1_555
Rh7 Sn25 2.677081 1_556
Rh7 Sn23 2.677081 1_555
