# generated using pymatgen
data_Ca2La2MgTi3O12
_symmetry_space_group_name_H-M   'P 1'
_cell_length_a   5.51821600
_cell_length_b   5.58068000
_cell_length_c   15.59867500
_cell_angle_alpha   89.99985308
_cell_angle_beta   90.00000000
_cell_angle_gamma   90.00000000
_symmetry_Int_Tables_number   1
_chemical_formula_structural   Ca2La2MgTi3O12
_chemical_formula_sum   'Ca4 La4 Mg2 Ti6 O24'
_cell_volume   480.36739970
_cell_formula_units_Z   2
loop_
 _symmetry_equiv_pos_site_id
 _symmetry_equiv_pos_as_xyz
  1  'x, y, z'
loop_
 _atom_site_type_symbol
 _atom_site_label
 _atom_site_symmetry_multiplicity
 _atom_site_fract_x
 _atom_site_fract_y
 _atom_site_fract_z
 _atom_site_occupancy
  Ca  Ca0  1  0.99039800  0.03782400  0.87916900  1
  Ca  Ca1  1  0.50960200  0.53782400  0.87916900  1
  Ca  Ca2  1  0.49039800  0.46217600  0.12083100  1
  Ca  Ca3  1  0.00960200  0.96217600  0.12083100  1
  La  La0  1  0.98465800  0.03139000  0.38089500  1
  La  La1  1  0.51534200  0.53139000  0.38089500  1
  La  La2  1  0.48465800  0.46861000  0.61910500  1
  La  La3  1  0.01534200  0.96861000  0.61910500  1
  Mg  Mg0  1  0.50000000  0.00000000  0.50000000  1
  Mg  Mg1  1  0.00000000  0.50000000  0.50000000  1
  Ti  Ti0  1  0.00000000  0.50000000  0.00000000  1
  Ti  Ti1  1  0.49408400  0.00912000  0.24516500  1
  Ti  Ti2  1  0.50000000  0.00000000  0.00000000  1
  Ti  Ti3  1  0.50591600  0.99088000  0.75483500  1
  Ti  Ti4  1  0.00591600  0.50912000  0.24516500  1
  Ti  Ti5  1  0.99408400  0.49088000  0.75483500  1
  O  O0  1  0.91628200  0.51897600  0.12164200  1
  O  O1  1  0.92009100  0.51638700  0.63588800  1
  O  O2  1  0.77833700  0.77292300  0.26866600  1
  O  O3  1  0.78296600  0.78295000  0.47775700  1
  O  O4  1  0.77841800  0.78337500  0.77775400  1
  O  O5  1  0.78132600  0.78133500  0.97817300  1
  O  O6  1  0.72166300  0.27292300  0.26866600  1
  O  O7  1  0.71703400  0.28295000  0.47775700  1
  O  O8  1  0.72158200  0.28337500  0.77775400  1
  O  O9  1  0.71867400  0.28133500  0.97817300  1
  O  O10  1  0.58371800  0.01897600  0.12164200  1
  O  O11  1  0.57990900  0.01638700  0.63588800  1
  O  O12  1  0.41628200  0.98102400  0.87835800  1
  O  O13  1  0.42009100  0.98361300  0.36411200  1
  O  O14  1  0.28132600  0.71866500  0.02182700  1
  O  O15  1  0.27841800  0.71662500  0.22224600  1
  O  O16  1  0.28296600  0.71705000  0.52224300  1
  O  O17  1  0.27833700  0.72707700  0.73133400  1
  O  O18  1  0.21867400  0.21866500  0.02182700  1
  O  O19  1  0.22158200  0.21662500  0.22224600  1
  O  O20  1  0.21703400  0.21705000  0.52224300  1
  O  O21  1  0.22166300  0.22707700  0.73133400  1
  O  O22  1  0.07990900  0.48361300  0.36411200  1
  O  O23  1  0.08371800  0.48102400  0.87835800  1
loop_
_geom_bond_atom_site_label_1
_geom_bond_atom_site_label_2
_geom_bond_distance
_geom_bond_site_symmetry_2
Ca0 O12 2.371435 1_645
Ca0 O5 2.401008 1_545
Ca0 O4 2.426367 1_545
Ca0 O23 2.526428 1_655
Ca0 O9 2.545590 1_555
Ca0 O8 2.565305 1_555
Ca0 O18 2.749030 1_656
Ca0 O21 2.839339 1_655
Ca1 O23 2.371435 1_555
Ca1 O9 2.401008 1_555
Ca1 O8 2.426367 1_555
Ca1 O12 2.526428 1_555
Ca1 O5 2.545590 1_555
Ca1 O4 2.565305 1_555
Ca1 O14 2.749030 1_556
Ca1 O17 2.839339 1_555
Ca2 O0 2.371435 1_555
Ca2 O14 2.401008 1_555
Ca2 O15 2.426367 1_555
Ca2 O10 2.526428 1_555
Ca2 O18 2.545590 1_555
Ca2 O19 2.565305 1_555
Ca2 O9 2.749030 1_554
Ca2 O6 2.839339 1_555
Ca3 O10 2.371435 1_465
Ca3 O18 2.401008 1_565
Ca3 O19 2.426367 1_565
Ca3 O0 2.526428 1_455
Ca3 O14 2.545590 1_555
Ca3 O15 2.565305 1_555
Ca3 O5 2.749030 1_454
Ca3 O2 2.839339 1_455
La0 O3 2.333211 1_545
La0 O13 2.431695 1_645
La0 O7 2.536674 1_555
La0 O2 2.538014 1_545
La0 O22 2.591124 1_655
La0 O6 2.643430 1_555
La0 O20 2.753027 1_655
La1 O7 2.333211 1_555
La1 O22 2.431695 1_555
La1 O3 2.536674 1_555
La1 O6 2.538014 1_555
La1 O13 2.591124 1_555
La1 O2 2.643430 1_555
La1 O16 2.753027 1_555
La2 O16 2.333211 1_555
La2 O1 2.431695 1_555
La2 O20 2.536674 1_555
La2 O17 2.538014 1_555
La2 O11 2.591124 1_555
La2 O21 2.643430 1_555
La2 O7 2.753027 1_555
La3 O20 2.333211 1_565
La3 O11 2.431695 1_465
La3 O16 2.536674 1_555
La3 O21 2.538014 1_565
La3 O1 2.591124 1_455
La3 O17 2.643430 1_555
La3 O3 2.753027 1_455
Mg0 O20 2.006435 1_555
Mg0 O3 2.006435 1_545
Mg0 O7 2.011997 1_555
Mg0 O16 2.011997 1_545
Mg0 O13 2.166984 1_545
Mg0 O11 2.166984 1_555
Mg1 O16 2.006435 1_555
Mg1 O7 2.006435 1_455
Mg1 O3 2.011997 1_455
Mg1 O20 2.011997 1_555
Mg1 O1 2.166984 1_455
Mg1 O22 2.166984 1_555
O0 Ti0 1.955752 1_655
O0 Ti4 1.990028 1_655
O1 Ti5 1.905136 1_555
O2 Ti4 1.969485 1_655
O2 Ti1 2.081414 1_565
O4 Ti3 1.931322 1_555
O4 Ti5 2.051488 1_555
O5 Ti2 2.003760 1_566
O5 Ti0 2.009241 1_656
O6 Ti1 1.969485 1_555
O6 Ti4 2.081414 1_655
O8 Ti5 1.931322 1_555
O8 Ti3 2.051488 1_545
O9 Ti0 2.003760 1_656
O9 Ti2 2.009241 1_556
O10 Ti2 1.955752 1_555
O10 Ti1 1.990028 1_555
O11 Ti3 1.905136 1_545
O12 Ti2 1.955752 1_566
O12 Ti3 1.990028 1_555
O13 Ti1 1.905136 1_565
O14 Ti0 2.003760 1_555
O14 Ti2 2.009241 1_565
O15 Ti4 1.931322 1_555
O15 Ti1 2.051488 1_565
O17 Ti3 1.969485 1_555
O17 Ti5 2.081414 1_455
O18 Ti2 2.003760 1_555
O18 Ti0 2.009241 1_555
O19 Ti1 1.931322 1_555
O19 Ti4 2.051488 1_555
O21 Ti5 1.969485 1_455
O21 Ti3 2.081414 1_545
O22 Ti4 1.905136 1_555
O23 Ti0 1.955752 1_556
O23 Ti5 1.990028 1_455
