# generated using pymatgen
data_LaAlO3
_symmetry_space_group_name_H-M   'P 1'
_cell_length_a   3.79585000
_cell_length_b   5.85690421
_cell_length_c   6.19603272
_cell_angle_alpha   107.34941884
_cell_angle_beta   94.25969343
_cell_angle_gamma   107.05926869
_symmetry_Int_Tables_number   1
_chemical_formula_structural   LaAlO3
_chemical_formula_sum   'La2 Al2 O6'
_cell_volume   123.70700827
_cell_formula_units_Z   2
loop_
 _symmetry_equiv_pos_site_id
 _symmetry_equiv_pos_as_xyz
  1  'x, y, z'
loop_
 _atom_site_type_symbol
 _atom_site_label
 _atom_site_symmetry_multiplicity
 _atom_site_fract_x
 _atom_site_fract_y
 _atom_site_fract_z
 _atom_site_occupancy
  La  La0  1  0.06273500  0.78854200  0.39881800  1
  La  La1  1  0.80808300  0.38921700  0.70544100  1
  Al  Al0  1  0.62487400  0.96343600  0.09163100  1
  Al  Al1  1  0.30732600  0.31700100  0.08412300  1
  O  O0  1  0.22244900  0.14552500  0.74187400  1
  O  O1  1  0.44726300  0.61848100  0.99416200  1
  O  O2  1  0.12888300  0.97631000  0.08082300  1
  O  O3  1  0.79291000  0.28824100  0.07316700  1
  O  O4  1  0.43274900  0.50367000  0.41301200  1
  O  O5  1  0.66899800  0.02894400  0.39454200  1
loop_
_geom_bond_atom_site_label_1
_geom_bond_atom_site_label_2
_geom_bond_distance
_geom_bond_site_symmetry_2
La0 O5 2.325789 1_565
La0 O5 2.338369 1_465
La0 O0 2.381495 1_565
La0 O4 2.491640 1_555
La0 O4 2.507550 1_455
La0 O2 2.521577 1_555
La1 O5 2.283217 1_555
La1 O0 2.331280 1_555
La1 O0 2.453278 1_655
La1 O3 2.519429 1_556
La1 O4 2.581352 1_555
La1 O1 2.624796 1_555
La1 O1 2.626981 1_655
Al0 O5 1.784361 1_565
Al0 O1 1.820381 1_554
Al0 O3 1.862144 1_565
Al0 O2 1.899392 1_655
Al0 O2 1.903242 1_555
Al1 O2 1.903005 1_545
Al1 O3 1.903763 1_555
Al1 O3 1.904289 1_455
Al1 O1 1.947140 1_554
Al1 O4 1.948429 1_555
Al1 O0 2.011922 1_554
