# generated using pymatgen
data_NaHoF4
_symmetry_space_group_name_H-M   'P 1'
_cell_length_a   6.52030132
_cell_length_b   6.52030132
_cell_length_c   6.52030132
_cell_angle_alpha   131.41098478
_cell_angle_beta   131.41098478
_cell_angle_gamma   71.16091854
_symmetry_Int_Tables_number   1
_chemical_formula_structural   NaHoF4
_chemical_formula_sum   'Na2 Ho2 F8'
_cell_volume   152.65074013
_cell_formula_units_Z   2
loop_
 _symmetry_equiv_pos_site_id
 _symmetry_equiv_pos_as_xyz
  1  'x, y, z'
loop_
 _atom_site_type_symbol
 _atom_site_label
 _atom_site_symmetry_multiplicity
 _atom_site_fract_x
 _atom_site_fract_y
 _atom_site_fract_z
 _atom_site_occupancy
  Na  Na0  1  0.00000000  -0.00000000  -0.00000000  1
  Na  Na1  1  0.75000000  0.25000000  0.50000000  1
  Ho  Ho0  1  0.50000000  0.50000000  -0.00000000  1
  Ho  Ho1  1  0.25000000  0.75000000  0.50000000  1
  F  F0  1  0.60797256  0.12500000  0.98297256  1
  F  F1  1  0.87500000  0.39202744  0.01702744  1
  F  F2  1  0.37500000  0.39202744  0.51702744  1
  F  F3  1  0.14202744  0.62500000  0.01702744  1
  F  F4  1  0.37500000  0.85797256  0.98297256  1
  F  F5  1  0.87500000  0.85797256  0.48297256  1
  F  F6  1  0.14202744  0.12500000  0.51702744  1
  F  F7  1  0.60797256  0.62500000  0.48297256  1
loop_
_geom_bond_atom_site_label_1
_geom_bond_atom_site_label_2
_geom_bond_distance
_geom_bond_site_symmetry_2
F0 Ho1 2.262543 1_545
F0 Ho0 2.262543 1_556
F0 Na1 2.368386 1_556
F0 Na0 2.368386 1_656
F1 Ho1 2.262543 1_655
F1 Ho0 2.262543 1_555
F1 Na0 2.368386 1_655
F1 Na1 2.368386 1_554
F2 Ho1 2.262543 1_555
F2 Ho0 2.262543 1_556
F2 Na1 2.368386 1_555
F2 Na0 2.368386 1_555
F3 Ho0 2.262543 1_555
F3 Ho1 2.262543 1_555
F3 Na0 2.368386 1_565
F3 Na1 2.368386 1_454
F4 Ho0 2.262543 1_556
F4 Ho1 2.262543 1_555
F4 Na0 2.368386 1_566
F4 Na1 2.368386 1_566
F5 Ho0 2.262543 1_555
F5 Ho1 2.262543 1_655
F5 Na0 2.368386 1_666
F5 Na1 2.368386 1_565
F6 Ho0 2.262543 1_556
F6 Ho1 2.262543 1_545
F6 Na1 2.368386 1_455
F6 Na0 2.368386 1_555
F7 Ho1 2.262543 1_555
F7 Ho0 2.262543 1_555
F7 Na1 2.368386 1_555
F7 Na0 2.368386 1_666
