# generated using pymatgen
data_CdGeO3
_symmetry_space_group_name_H-M   'P 1'
_cell_length_a   6.07045139
_cell_length_b   6.07045139
_cell_length_c   5.22793700
_cell_angle_alpha   90.00000000
_cell_angle_beta   90.00000000
_cell_angle_gamma   126.46686609
_symmetry_Int_Tables_number   1
_chemical_formula_structural   CdGeO3
_chemical_formula_sum   'Cd2 Ge2 O6'
_cell_volume   154.93044510
_cell_formula_units_Z   2
loop_
 _symmetry_equiv_pos_site_id
 _symmetry_equiv_pos_as_xyz
  1  'x, y, z'
loop_
 _atom_site_type_symbol
 _atom_site_label
 _atom_site_symmetry_multiplicity
 _atom_site_fract_x
 _atom_site_fract_y
 _atom_site_fract_z
 _atom_site_occupancy
  Cd  Cd0  1  0.11579400  0.88420600  0.24295200  1
  Cd  Cd1  1  0.88420600  0.11579400  0.74295200  1
  Ge  Ge0  1  0.44132700  0.55867300  0.31390600  1
  Ge  Ge1  1  0.55867300  0.44132700  0.81390600  1
  O  O0  1  0.26090100  0.28993100  0.05027700  1
  O  O1  1  0.71006900  0.73909900  0.05027700  1
  O  O2  1  0.28988500  0.71011500  0.41195500  1
  O  O3  1  0.28993100  0.26090100  0.55027700  1
  O  O4  1  0.73909900  0.71006900  0.55027700  1
  O  O5  1  0.71011500  0.28988500  0.91195500  1
loop_
_geom_bond_atom_site_label_1
_geom_bond_atom_site_label_2
_geom_bond_distance
_geom_bond_site_symmetry_2
Cd0 O2 2.083735 1_555
Cd0 O1 2.297318 1_455
Cd0 O0 2.297318 1_565
Cd0 O4 2.460580 1_455
Cd0 O3 2.460580 1_565
Cd1 O5 2.083735 1_555
Cd1 O4 2.297318 1_545
Cd1 O3 2.297318 1_655
Cd1 O1 2.460580 1_546
Cd1 O0 2.460580 1_656
Ge0 O2 1.719797 1_555
Ge0 O0 1.906977 1_555
Ge0 O1 1.906977 1_555
Ge0 O3 1.914250 1_555
Ge0 O4 1.914250 1_555
Ge1 O5 1.719797 1_555
Ge1 O3 1.906977 1_555
Ge1 O4 1.906977 1_555
Ge1 O0 1.914250 1_556
Ge1 O1 1.914250 1_556
