# generated using pymatgen
data_ZrGeRu
_symmetry_space_group_name_H-M   'P 1'
_cell_length_a   6.78207120
_cell_length_b   7.50567487
_cell_length_c   7.72312760
_cell_angle_alpha   119.07289594
_cell_angle_beta   116.04490461
_cell_angle_gamma   90.00000883
_symmetry_Int_Tables_number   1
_chemical_formula_structural   ZrGeRu
_chemical_formula_sum   'Zr6 Ge6 Ru6'
_cell_volume   297.09718862
_cell_formula_units_Z   6
loop_
 _symmetry_equiv_pos_site_id
 _symmetry_equiv_pos_as_xyz
  1  'x, y, z'
loop_
 _atom_site_type_symbol
 _atom_site_label
 _atom_site_symmetry_multiplicity
 _atom_site_fract_x
 _atom_site_fract_y
 _atom_site_fract_z
 _atom_site_occupancy
  Zr  Zr0  1  0.04618813  0.02784056  0.55568113  1
  Zr  Zr1  1  0.10183222  0.55401688  0.60803176  1
  Zr  Zr2  1  0.91687761  0.75178540  0.00356980  1
  Zr  Zr3  1  0.91330781  0.24821460  0.99643020  1
  Zr  Zr4  1  0.49379946  0.44598312  0.39196824  1
  Zr  Zr5  1  0.49050600  0.97215944  0.44431887  1
  Ge  Ge0  1  0.82774710  0.33846243  0.66507924  1
  Ge  Ge1  1  0.47689413  0.22204806  0.94409613  1
  Ge  Ge2  1  0.82774710  0.82661681  0.66507924  1
  Ge  Ge3  1  0.53279801  0.77795194  0.05590387  1
  Ge  Ge4  1  0.16266886  0.17338319  0.33492076  1
  Ge  Ge5  1  0.16266886  0.66153757  0.33492076  1
  Ru  Ru0  1  0.74342991  0.59254534  0.24617344  1
  Ru  Ru1  1  0.25279847  0.00000000  0.00000000  1
  Ru  Ru2  1  0.49725547  0.84637091  0.75382656  1
  Ru  Ru3  1  0.74342991  0.15362909  0.24617344  1
  Ru  Ru4  1  0.25279847  0.50000000  0.00000000  1
  Ru  Ru5  1  0.49725547  0.40745466  0.75382656  1
loop_
_geom_bond_atom_site_label_1
_geom_bond_atom_site_label_2
_geom_bond_distance
_geom_bond_site_symmetry_2
Ge0 Ru3 2.594607 1_555
Ge0 Ru5 2.601162 1_555
Ge0 Ru4 2.622019 1_656
Ge0 Zr0 2.743906 1_655
Ge0 Zr2 2.748493 1_556
Ge0 Zr1 2.771096 1_655
Ge0 Zr4 2.772916 1_555
Ge0 Zr5 2.777968 1_545
Ge0 Zr3 2.779384 1_555
Ge1 Ru5 2.506099 1_555
Ge1 Ru2 2.506105 1_545
Ge1 Ru3 2.536752 1_556
Ge1 Ru0 2.536757 1_556
Ge1 Ru1 2.559193 1_556
Ge1 Ru4 2.559193 1_556
Ge1 Zr0 2.777000 1_555
Ge1 Zr3 2.799038 1_555
Ge1 Zr4 2.967208 1_556
Ge2 Ru0 2.594607 1_555
Ge2 Ru2 2.601162 1_555
Ge2 Ru1 2.622019 1_666
Ge2 Zr0 2.743906 1_665
Ge2 Zr2 2.748489 1_556
Ge2 Zr1 2.771086 1_655
Ge2 Zr4 2.772925 1_555
Ge2 Zr5 2.777968 1_555
Ge2 Zr3 2.779378 1_565
Ge3 Ru0 2.506101 1_555
Ge3 Ru3 2.506107 1_565
Ge3 Ru2 2.536750 1_554
Ge3 Ru5 2.536755 1_554
Ge3 Ru4 2.559193 1_555
Ge3 Ru1 2.559193 1_565
Ge3 Zr5 2.777004 1_555
Ge3 Zr2 2.799038 1_555
Ge3 Zr1 2.967205 1_554
Ge4 Ru5 2.594602 1_555
Ge4 Ru3 2.601162 1_455
Ge4 Ru1 2.622015 1_555
Ge4 Zr5 2.743897 1_545
Ge4 Zr3 2.748490 1_454
Ge4 Zr4 2.771076 1_555
Ge4 Zr1 2.772926 1_555
Ge4 Zr0 2.777968 1_555
Ge4 Zr2 2.779379 1_445
Ge5 Ru2 2.594603 1_555
Ge5 Ru0 2.601162 1_455
Ge5 Ru4 2.622015 1_555
Ge5 Zr5 2.743896 1_555
Ge5 Zr3 2.748495 1_454
Ge5 Zr4 2.771086 1_555
Ge5 Zr1 2.772916 1_555
Ge5 Zr0 2.777968 1_565
Ge5 Zr2 2.779385 1_455
Ru0 Zr4 2.867413 1_555
Ru0 Ru4 2.886258 1_555
Ru0 Zr1 2.936374 1_655
Ru0 Zr0 2.950335 1_665
Ru0 Zr3 2.972187 1_554
Ru1 Ru2 2.886253 1_544
Ru1 Ru3 2.886258 1_555
Ru1 Zr2 2.960919 1_445
Ru1 Zr3 2.960920 1_454
Ru1 Zr4 2.974502 1_555
Ru1 Zr1 2.974502 1_544
Ru1 Zr5 3.202642 1_545
Ru1 Zr0 3.202642 1_554
Ru2 Zr1 2.867389 1_555
Ru2 Zr4 2.936379 1_555
Ru2 Zr5 2.950341 1_555
Ru2 Zr2 2.972184 1_556
Ru3 Zr4 2.867400 1_555
Ru3 Zr1 2.936378 1_655
Ru3 Zr0 2.950341 1_655
Ru3 Zr3 2.972179 1_554
Ru4 Ru5 2.886252 1_554
Ru4 Zr3 2.960924 1_454
Ru4 Zr2 2.960925 1_455
Ru4 Zr4 2.974511 1_555
Ru4 Zr1 2.974512 1_554
Ru4 Zr5 3.202642 1_555
Ru4 Zr0 3.202642 1_554
Ru5 Zr1 2.867403 1_555
Ru5 Zr4 2.936374 1_555
Ru5 Zr5 2.950335 1_545
Ru5 Zr2 2.972191 1_556
