# generated using pymatgen
data_Cr5AgS8
_symmetry_space_group_name_H-M   'P 1'
_cell_length_a   6.94569400
_cell_length_b   6.05817300
_cell_length_c   12.62066077
_cell_angle_alpha   81.20887232
_cell_angle_beta   90.00000000
_cell_angle_gamma   90.00000000
_symmetry_Int_Tables_number   1
_chemical_formula_structural   Cr5AgS8
_chemical_formula_sum   'Cr10 Ag2 S16'
_cell_volume   524.81608699
_cell_formula_units_Z   2
loop_
 _symmetry_equiv_pos_site_id
 _symmetry_equiv_pos_as_xyz
  1  'x, y, z'
loop_
 _atom_site_type_symbol
 _atom_site_label
 _atom_site_symmetry_multiplicity
 _atom_site_fract_x
 _atom_site_fract_y
 _atom_site_fract_z
 _atom_site_occupancy
  Cr  Cr0  1  0.25000000  0.06212600  0.78008100  1
  Cr  Cr1  1  0.50000000  0.50000000  0.00000000  1
  Cr  Cr2  1  0.49786000  0.58907900  0.76187400  1
  Cr  Cr3  1  0.75000000  0.06463700  0.77717400  1
  Cr  Cr4  1  0.00000000  0.50000000  0.00000000  1
  Cr  Cr5  1  0.00214000  0.58907900  0.76187400  1
  Cr  Cr6  1  0.50214000  0.41092100  0.23812600  1
  Cr  Cr7  1  0.75000000  0.93787400  0.21991900  1
  Cr  Cr8  1  0.99786000  0.41092100  0.23812600  1
  Cr  Cr9  1  0.25000000  0.93536300  0.22282600  1
  Ag  Ag0  1  0.25000000  0.16150500  0.53016500  1
  Ag  Ag1  1  0.75000000  0.83849500  0.46983500  1
  S  S0  1  0.25000000  0.21802400  0.33435800  1
  S  S1  1  0.25000000  0.37693800  0.88661600  1
  S  S2  1  0.50068800  0.73120400  0.32452800  1
  S  S3  1  0.50140400  0.85821300  0.88308900  1
  S  S4  1  0.75000000  0.21875300  0.33574500  1
  S  S5  1  0.49859600  0.14178700  0.11691100  1
  S  S6  1  0.75000000  0.37589100  0.88556000  1
  S  S7  1  0.49931200  0.26879600  0.67547200  1
  S  S8  1  0.99931200  0.73120400  0.32452800  1
  S  S9  1  0.75000000  0.62306200  0.11338400  1
  S  S10  1  0.99859600  0.85821300  0.88308900  1
  S  S11  1  0.75000000  0.78197600  0.66564200  1
  S  S12  1  0.00140400  0.14178700  0.11691100  1
  S  S13  1  0.00068800  0.26879600  0.67547200  1
  S  S14  1  0.25000000  0.62410900  0.11444000  1
  S  S15  1  0.25000000  0.78124700  0.66425500  1
loop_
_geom_bond_atom_site_label_1
_geom_bond_atom_site_label_2
_geom_bond_distance
_geom_bond_site_symmetry_2
Cr0 S3 2.402993 1_545
Cr0 S10 2.402993 1_445
Cr0 S15 2.406796 1_545
Cr0 S7 2.409141 1_555
Cr0 S13 2.409141 1_555
Cr0 S1 2.495790 1_555
Cr1 S3 2.430606 1_554
Cr1 S5 2.430606 1_555
Cr1 S9 2.438193 1_555
Cr1 S1 2.438193 1_554
Cr1 S14 2.449172 1_555
Cr1 S6 2.449172 1_554
Cr2 S15 2.323478 1_555
Cr2 S11 2.339627 1_555
Cr2 S7 2.366601 1_555
Cr2 S3 2.400366 1_555
Cr2 S1 2.544705 1_555
Cr2 S6 2.560377 1_555
Cr3 S11 2.377074 1_545
Cr3 S13 2.392441 1_655
Cr3 S7 2.392441 1_555
Cr3 S10 2.412701 1_545
Cr3 S3 2.412701 1_545
Cr3 S6 2.493027 1_555
Cr4 S10 2.430606 1_454
Cr4 S12 2.430606 1_555
Cr4 S1 2.438193 1_554
Cr4 S9 2.438193 1_455
Cr4 S14 2.449172 1_555
Cr4 S6 2.449172 1_454
Cr5 S15 2.323478 1_555
Cr5 S11 2.339627 1_455
Cr5 S13 2.366601 1_555
Cr5 S10 2.400366 1_455
Cr5 S1 2.544705 1_555
Cr5 S6 2.560377 1_455
Cr6 S4 2.323478 1_555
Cr6 S0 2.339627 1_555
Cr6 S2 2.366601 1_555
Cr6 S5 2.400366 1_555
Cr6 S9 2.544705 1_555
Cr6 S14 2.560377 1_555
Cr7 S12 2.402993 1_665
Cr7 S5 2.402993 1_565
Cr7 S4 2.406796 1_565
Cr7 S2 2.409141 1_555
Cr7 S8 2.409141 1_555
Cr7 S9 2.495790 1_555
Cr8 S4 2.323478 1_555
Cr8 S0 2.339627 1_655
Cr8 S8 2.366601 1_555
Cr8 S12 2.400366 1_655
Cr8 S9 2.544705 1_555
Cr8 S14 2.560377 1_655
Cr9 S0 2.377074 1_565
Cr9 S8 2.392441 1_455
Cr9 S2 2.392441 1_555
Cr9 S5 2.412701 1_565
Cr9 S12 2.412701 1_565
Cr9 S14 2.493027 1_555
Ag0 S0 2.442437 1_555
Ag0 S15 2.641807 1_545
Ag0 S13 2.673670 1_555
Ag0 S7 2.673670 1_555
Ag1 S11 2.442437 1_555
Ag1 S4 2.641807 1_565
Ag1 S2 2.673670 1_555
Ag1 S8 2.673670 1_555
