# generated using pymatgen
data_Na2FeSn(PO4)3
_symmetry_space_group_name_H-M   'P 1'
_cell_length_a   8.98070478
_cell_length_b   8.98644679
_cell_length_c   17.97638901
_cell_angle_alpha   58.92042550
_cell_angle_beta   58.97427786
_cell_angle_gamma   58.98582463
_symmetry_Int_Tables_number   1
_chemical_formula_structural   Na2FeSn(PO4)3
_chemical_formula_sum   'Na8 Fe4 Sn4 P12 O48'
_cell_volume   1001.51624617
_cell_formula_units_Z   4
loop_
 _symmetry_equiv_pos_site_id
 _symmetry_equiv_pos_as_xyz
  1  'x, y, z'
loop_
 _atom_site_type_symbol
 _atom_site_label
 _atom_site_symmetry_multiplicity
 _atom_site_fract_x
 _atom_site_fract_y
 _atom_site_fract_z
 _atom_site_occupancy
  Na  Na0  1  0.49240300  0.51070000  0.25030700  1
  Na  Na1  1  0.62282800  0.25033100  0.43826200  1
  Na  Na2  1  0.88335400  0.62990700  0.12449000  1
  Na  Na3  1  0.00962300  0.99837300  0.49372300  1
  Na  Na4  1  0.49937600  0.49899700  0.75085400  1
  Na  Na5  1  0.24570000  0.88243400  0.81660100  1
  Na  Na6  1  0.62924600  0.24511100  0.94343100  1
  Na  Na7  1  0.87900600  0.62081600  0.62457700  1
  Fe  Fe0  1  0.64380400  0.65708800  0.32376600  1
  Fe  Fe1  1  0.86012500  0.84993700  0.41989600  1
  Fe  Fe2  1  0.65082600  0.65139300  0.82749200  1
  Fe  Fe3  1  0.84783700  0.85099600  0.92789600  1
  Sn  Sn0  1  0.14082700  0.13769400  0.07186700  1
  Sn  Sn1  1  0.35591200  0.35294800  0.17888300  1
  Sn  Sn2  1  0.14306100  0.14509400  0.57076500  1
  Sn  Sn3  1  0.35609600  0.35748900  0.67792400  1
  P  P0  1  0.03924200  0.74713800  0.22968400  1
  P  P1  1  0.46290200  0.04051300  0.37536100  1
  P  P2  1  0.74997600  0.45976100  0.02114300  1
  P  P3  1  0.25034200  0.54519000  0.47730900  1
  P  P4  1  0.53819900  0.95555400  0.12627100  1
  P  P5  1  0.03971900  0.75105000  0.73043700  1
  P  P6  1  0.95855800  0.24758200  0.27116000  1
  P  P7  1  0.46038200  0.04109900  0.87523100  1
  P  P8  1  0.74978200  0.46216500  0.51898400  1
  P  P9  1  0.24975600  0.53898400  0.97886500  1
  P  P10  1  0.54275800  0.95688200  0.62512100  1
  P  P11  1  0.95635400  0.24982100  0.77090900  1
  O  O0  1  0.12342900  0.28300000  0.25758300  1
  O  O1  1  0.27852400  0.51249800  0.06324900  1
  O  O2  1  0.05932200  0.91502500  0.14086400  1
  O  O3  1  0.51412000  0.12690700  0.13803100  1
  O  O4  1  0.00658800  0.78365900  0.31268200  1
  O  O5  1  0.22341700  0.57962300  0.22030100  1
  O  O6  1  0.27716800  0.06002900  0.45883900  1
  O  O7  1  0.44077200  0.22328200  0.29162000  1
  O  O8  1  0.58049900  0.44039800  0.11195700  1
  O  O9  1  0.22291200  0.37298300  0.49248400  1
  O  O10  1  0.07712000  0.71947800  0.47048800  1
  O  O11  1  0.37075300  0.98615400  0.11018700  1
  O  O12  1  0.62061200  0.01496000  0.39725000  1
  O  O13  1  0.12731800  0.27799700  0.75606700  1
  O  O14  1  0.91698700  0.28141800  0.03040800  1
  O  O15  1  0.78714900  0.62436900  0.00589300  1
  O  O16  1  0.42288800  0.55996600  0.39023800  1
  O  O17  1  0.27728400  0.51484700  0.56369900  1
  O  O18  1  0.56856300  0.77540600  0.20907100  1
  O  O19  1  0.06016200  0.91775400  0.63799500  1
  O  O20  1  0.51241600  0.12747300  0.63971100  1
  O  O21  1  0.71521500  0.93348400  0.04026600  1
  O  O22  1  0.01127700  0.79184700  0.81056000  1
  O  O23  1  0.77829300  0.41787700  0.28171600  1
  O  O24  1  0.22369400  0.58319900  0.71982100  1
  O  O25  1  0.98793600  0.22152400  0.18552800  1
  O  O26  1  0.28126600  0.06062000  0.95795900  1
  O  O27  1  0.49491800  0.87723300  0.35584300  1
  O  O28  1  0.93074500  0.08196100  0.36204200  1
  O  O29  1  0.44079200  0.22435800  0.79020500  1
  O  O30  1  0.70727200  0.48892300  0.43953200  1
  O  O31  1  0.58271900  0.44022100  0.61183900  1
  O  O32  1  0.22599800  0.36652600  0.99347200  1
  O  O33  1  0.08052200  0.71517500  0.96652100  1
  O  O34  1  0.87902800  0.70448600  0.24398000  1
  O  O35  1  0.37150900  0.98666100  0.61121100  1
  O  O36  1  0.62498600  0.01273200  0.89293400  1
  O  O37  1  0.91655500  0.27669000  0.52975000  1
  O  O38  1  0.79124200  0.62147200  0.50625500  1
  O  O39  1  0.42083800  0.56269700  0.88904700  1
  O  O40  1  0.56270300  0.77792800  0.71037800  1
  O  O41  1  0.72155600  0.93575500  0.54126900  1
  O  O42  1  0.77798600  0.42060200  0.78168800  1
  O  O43  1  0.98526900  0.22715800  0.68394100  1
  O  O44  1  0.49006800  0.88063800  0.85294800  1
  O  O45  1  0.93376900  0.08019500  0.85808800  1
  O  O46  1  0.70776800  0.48914700  0.94003700  1
  O  O47  1  0.88007900  0.70821600  0.74354600  1
loop_
_geom_bond_atom_site_label_1
_geom_bond_atom_site_label_2
_geom_bond_distance
_geom_bond_site_symmetry_2
Na0 O5 2.442650 1_555
Na0 O18 2.451380 1_555
Na0 O16 2.481818 1_555
Na0 O8 2.507828 1_555
Na0 O7 2.517236 1_555
Na0 O23 2.531352 1_555
Na1 O16 2.383494 1_555
Na1 O28 2.395110 1_555
Na1 O23 2.424266 1_555
Na1 O41 2.431341 1_545
Na1 O12 2.585786 1_555
Na1 O30 2.629975 1_555
Na1 O9 2.912930 1_555
Na1 O20 2.935100 1_555
Na2 O33 2.398905 1_654
Na2 O18 2.413709 1_555
Na2 O21 2.421167 1_555
Na2 O23 2.460197 1_555
Na2 O34 2.537328 1_555
Na2 O15 2.710497 1_555
Na2 O1 2.869329 1_655
Na2 O25 2.984495 1_555
Na3 O6 2.435848 1_565
Na3 O28 2.452315 1_465
Na3 O10 2.465269 1_555
Na3 O37 2.516661 1_465
Na3 O19 2.528187 1_555
Na3 O41 2.542480 1_455
Na4 O29 2.453629 1_555
Na4 O24 2.463911 1_555
Na4 O31 2.472122 1_555
Na4 O39 2.498477 1_555
Na4 O42 2.504821 1_555
Na4 O40 2.509051 1_555
Na5 O45 2.376248 1_465
Na5 O33 2.391050 1_555
Na5 O39 2.452914 1_555
Na5 O40 2.474979 1_555
Na5 O44 2.583447 1_555
Na5 O22 2.683232 1_555
Na5 O13 2.873114 1_565
Na5 O35 3.000962 1_555
Na6 O21 2.364945 1_546
Na6 O45 2.423836 1_555
Na6 O39 2.470822 1_555
Na6 O42 2.481588 1_555
Na6 O46 2.592581 1_555
Na6 O36 2.694735 1_555
Na6 O3 2.828709 1_556
Na6 O32 2.949222 1_555
Na7 O10 2.373603 1_655
Na7 O42 2.414785 1_555
Na7 O41 2.436198 1_555
Na7 O40 2.457728 1_555
Na7 O38 2.618368 1_555
Na7 O47 2.637043 1_555
Na7 O43 2.870062 1_555
Na7 O17 2.903266 1_655
Fe0 O27 1.921246 1_555
Fe0 O34 1.968320 1_555
Fe0 O30 2.006880 1_555
Fe0 O18 2.066532 1_555
Fe0 O16 2.095132 1_555
Fe0 O23 2.170757 1_555
Fe1 O4 1.887859 1_655
Fe1 O12 1.995976 1_565
Fe1 O38 2.008981 1_555
Fe1 O28 2.067676 1_565
Fe1 O10 2.090713 1_655
Fe1 O41 2.202992 1_555
Fe2 O46 1.932126 1_555
Fe2 O44 1.940385 1_555
Fe2 O47 1.965176 1_555
Fe2 O39 2.134417 1_555
Fe2 O42 2.153291 1_555
Fe2 O40 2.161044 1_555
Fe3 O15 1.954094 1_556
Fe3 O36 1.966942 1_565
Fe3 O22 2.011987 1_655
Fe3 O21 2.050496 1_556
Fe3 O33 2.081096 1_655
Fe3 O45 2.093739 1_565
O0 P6 1.544711 1_455
O0 Sn1 2.035966 1_555
O1 P9 1.546707 1_554
O1 Sn1 2.060325 1_555
O2 P0 1.534446 1_555
O2 Sn0 2.022183 1_565
O3 P4 1.551912 1_545
O3 Sn1 2.043194 1_555
O4 P0 1.541146 1_555
O5 P0 1.561753 1_555
O5 Sn1 2.067472 1_555
O6 P1 1.566818 1_555
O6 Sn2 2.055328 1_555
O7 P1 1.556452 1_555
O7 Sn1 2.069925 1_555
O8 P2 1.558906 1_555
O8 Sn1 2.070970 1_555
O9 P3 1.554884 1_555
O9 Sn2 2.046019 1_555
O10 P3 1.541331 1_555
O11 P4 1.536412 1_555
O11 Sn0 2.047642 1_565
O12 P1 1.536117 1_555
O13 P11 1.549602 1_455
O13 Sn3 2.050890 1_555
O14 P2 1.533205 1_555
O14 Sn0 2.034625 1_655
O15 P2 1.539683 1_555
O16 P3 1.538168 1_555
O17 P3 1.557818 1_555
O17 Sn3 2.045916 1_555
O18 P4 1.544760 1_555
O19 P5 1.561439 1_555
O19 Sn2 2.068648 1_565
O20 P10 1.550524 1_545
O20 Sn3 2.048625 1_555
O21 P4 1.554001 1_555
O22 P5 1.530889 1_555
O23 P6 1.558499 1_555
O24 P5 1.563795 1_555
O24 Sn3 2.064928 1_555
O25 P6 1.543986 1_555
O25 Sn0 2.063685 1_655
O26 P7 1.530523 1_555
O26 Sn0 2.040874 1_556
O27 P1 1.533476 1_565
O28 P6 1.548741 1_555
O29 P7 1.568133 1_555
O29 Sn3 2.058046 1_555
O30 P8 1.535056 1_555
O31 P8 1.568299 1_555
O31 Sn3 2.064271 1_555
O32 P9 1.542450 1_555
O32 Sn0 2.077853 1_556
O33 P9 1.539869 1_555
O34 P0 1.539039 1_655
O35 P10 1.550036 1_555
O35 Sn2 2.055163 1_565
O36 P7 1.537651 1_555
O37 P8 1.565892 1_555
O37 Sn2 2.060803 1_655
O38 P8 1.537448 1_555
O39 P9 1.561377 1_555
O40 P10 1.551978 1_555
O41 P10 1.540385 1_555
O42 P11 1.553239 1_555
O43 P11 1.552023 1_555
O43 Sn2 2.047270 1_655
O44 P7 1.549494 1_565
O45 P11 1.531424 1_555
O46 P2 1.551839 1_556
O47 P5 1.544637 1_655
