# generated using pymatgen
data_Na2CrFeF7
_symmetry_space_group_name_H-M   'P 1'
_cell_length_a   7.44705685
_cell_length_b   7.44705685
_cell_length_c   25.02473296
_cell_angle_alpha   81.78888697
_cell_angle_beta   81.78888697
_cell_angle_gamma   60.23824395
_symmetry_Int_Tables_number   1
_chemical_formula_structural   Na2CrFeF7
_chemical_formula_sum   'Na16 Cr8 Fe8 F56'
_cell_volume   1188.24184054
_cell_formula_units_Z   8
loop_
 _symmetry_equiv_pos_site_id
 _symmetry_equiv_pos_as_xyz
  1  'x, y, z'
loop_
 _atom_site_type_symbol
 _atom_site_label
 _atom_site_symmetry_multiplicity
 _atom_site_fract_x
 _atom_site_fract_y
 _atom_site_fract_z
 _atom_site_occupancy
  Na  Na0  1  0.11575600  0.13525100  0.12161200  1
  Na  Na1  1  0.21172200  0.78827800  0.25000000  1
  Na  Na2  1  0.20731200  0.29699200  0.24753200  1
  Na  Na3  1  0.00000000  0.00000000  0.50000000  1
  Na  Na4  1  0.88424400  0.86474900  0.87838800  1
  Na  Na5  1  0.00000000  0.00000000  0.00000000  1
  Na  Na6  1  0.86474900  0.88424400  0.37838800  1
  Na  Na7  1  0.70300800  0.79268800  0.25246800  1
  Na  Na8  1  0.13525100  0.11575600  0.62161200  1
  Na  Na9  1  0.50000000  0.50000000  0.00000000  1
  Na  Na10  1  0.50000000  0.50000000  0.50000000  1
  Na  Na11  1  0.79268800  0.70300800  0.75246800  1
  Na  Na12  1  0.00000000  0.50000000  0.00000000  1
  Na  Na13  1  0.29699200  0.20731200  0.74753200  1
  Na  Na14  1  0.50000000  0.00000000  0.50000000  1
  Na  Na15  1  0.78827800  0.21172200  0.75000000  1
  Cr  Cr0  1  0.63685200  0.11036000  0.62594700  1
  Cr  Cr1  1  0.11036000  0.63685200  0.12594700  1
  Cr  Cr2  1  0.36314800  0.88964000  0.37405300  1
  Cr  Cr3  1  0.88964000  0.36314800  0.87405300  1
  Cr  Cr4  1  0.24882000  0.75118000  0.75000000  1
  Cr  Cr5  1  0.00000000  0.50000000  0.50000000  1
  Cr  Cr6  1  0.50000000  0.00000000  0.00000000  1
  Cr  Cr7  1  0.75118000  0.24882000  0.25000000  1
  Fe  Fe0  1  0.38687500  0.36824500  0.87217900  1
  Fe  Fe1  1  0.61312500  0.63175500  0.12782100  1
  Fe  Fe2  1  0.13485100  0.61174100  0.62615500  1
  Fe  Fe3  1  0.86514900  0.38825900  0.37384500  1
  Fe  Fe4  1  0.63175500  0.61312500  0.62782100  1
  Fe  Fe5  1  0.36824500  0.38687500  0.37217900  1
  Fe  Fe6  1  0.38825900  0.86514900  0.87384500  1
  Fe  Fe7  1  0.61174100  0.13485100  0.12615500  1
  F  F0  1  0.34136100  0.29885900  0.64275400  1
  F  F1  1  0.58370400  0.74519700  0.04611100  1
  F  F2  1  0.46942100  0.09427000  0.84442400  1
  F  F3  1  0.97783200  0.86070300  0.79077000  1
  F  F4  1  0.36370600  0.86212800  0.79285900  1
  F  F5  1  0.63655000  0.52262600  0.21010500  1
  F  F6  1  0.13929700  0.02216800  0.70923000  1
  F  F7  1  0.29484900  0.73119700  0.14205200  1
  F  F8  1  0.97365600  0.35813500  0.79576600  1
  F  F9  1  0.64186500  0.02634400  0.70423400  1
  F  F10  1  0.86212800  0.36370600  0.29285900  1
  F  F11  1  0.52262600  0.63655000  0.71010500  1
  F  F12  1  0.81065600  0.36539500  0.95289500  1
  F  F13  1  0.36107000  0.69735700  0.59770800  1
  F  F14  1  0.86070300  0.97783200  0.29077000  1
  F  F15  1  0.73119700  0.29484900  0.64205200  1
  F  F16  1  0.92919000  0.53782400  0.11019200  1
  F  F17  1  0.06739900  0.07549900  0.39152900  1
  F  F18  1  0.12921700  0.20889600  0.53179400  1
  F  F19  1  0.53782400  0.92919000  0.61019200  1
  F  F20  1  0.53057900  0.90573000  0.15557600  1
  F  F21  1  0.63460500  0.18934400  0.54710500  1
  F  F22  1  0.13787200  0.63629400  0.70714100  1
  F  F23  1  0.09427000  0.46942100  0.34442400  1
  F  F24  1  0.07081000  0.46217600  0.88980800  1
  F  F25  1  0.36539500  0.81065600  0.45289500  1
  F  F26  1  0.74519700  0.58370400  0.54611100  1
  F  F27  1  0.25480300  0.41629600  0.45388900  1
  F  F28  1  0.29885900  0.34136100  0.14275400  1
  F  F29  1  0.02216800  0.13929700  0.20923000  1
  F  F30  1  0.79110400  0.87078300  0.96820600  1
  F  F31  1  0.41629600  0.25480300  0.95388900  1
  F  F32  1  0.46217600  0.07081000  0.38980800  1
  F  F33  1  0.02634400  0.64186500  0.20423400  1
  F  F34  1  0.70114100  0.65863900  0.85724600  1
  F  F35  1  0.63629400  0.13787200  0.20714100  1
  F  F36  1  0.92450100  0.93260100  0.10847100  1
  F  F37  1  0.35813500  0.97365600  0.29576600  1
  F  F38  1  0.18934400  0.63460500  0.04710500  1
  F  F39  1  0.30264300  0.63893000  0.90229200  1
  F  F40  1  0.41933100  0.86395400  0.95496700  1
  F  F41  1  0.13604600  0.58066900  0.54503300  1
  F  F42  1  0.26880300  0.70515100  0.35794800  1
  F  F43  1  0.63893000  0.30264300  0.40229200  1
  F  F44  1  0.90573000  0.53057900  0.65557600  1
  F  F45  1  0.86395400  0.41933100  0.45496700  1
  F  F46  1  0.47737400  0.36345000  0.28989500  1
  F  F47  1  0.69735700  0.36107000  0.09770800  1
  F  F48  1  0.70515100  0.26880300  0.85794800  1
  F  F49  1  0.93260100  0.92450100  0.60847100  1
  F  F50  1  0.20889600  0.12921700  0.03179400  1
  F  F51  1  0.65863900  0.70114100  0.35724600  1
  F  F52  1  0.87078300  0.79110400  0.46820600  1
  F  F53  1  0.58066900  0.13604600  0.04503300  1
  F  F54  1  0.36345000  0.47737400  0.78989500  1
  F  F55  1  0.07549900  0.06739900  0.89152900  1
loop_
_geom_bond_atom_site_label_1
_geom_bond_atom_site_label_2
_geom_bond_distance
_geom_bond_site_symmetry_2
Cr0 F15 1.934178 1_555
Cr0 F19 1.934528 1_545
Cr0 F0 1.956357 1_555
Cr0 F49 1.956821 1_545
Cr0 F9 1.969403 1_555
Cr0 F21 1.976652 1_555
Cr1 F7 1.934178 1_555
Cr1 F16 1.934528 1_455
Cr1 F28 1.956357 1_555
Cr1 F36 1.956821 1_455
Cr1 F33 1.969403 1_555
Cr1 F38 1.976652 1_555
Cr2 F42 1.934178 1_555
Cr2 F32 1.934528 1_565
Cr2 F51 1.956357 1_555
Cr2 F17 1.956821 1_565
Cr2 F37 1.969403 1_555
Cr2 F25 1.976652 1_555
Cr3 F48 1.934178 1_555
Cr3 F24 1.934528 1_655
Cr3 F34 1.956357 1_555
Cr3 F55 1.956821 1_655
Cr3 F8 1.969403 1_555
Cr3 F12 1.976652 1_555
Cr4 F22 1.944742 1_555
Cr4 F4 1.944742 1_555
Cr4 F6 1.947874 1_565
Cr4 F3 1.947874 1_455
Cr4 F54 1.953724 1_555
Cr4 F11 1.953724 1_555
Cr5 F26 1.930399 1_455
Cr5 F27 1.930399 1_555
Cr5 F41 1.944508 1_555
Cr5 F45 1.944508 1_455
Cr5 F52 1.978289 1_455
Cr5 F18 1.978289 1_555
Cr6 F1 1.930399 1_545
Cr6 F31 1.930399 1_554
Cr6 F53 1.944508 1_555
Cr6 F40 1.944508 1_544
Cr6 F30 1.978289 1_544
Cr6 F50 1.978289 1_555
Cr7 F10 1.944742 1_555
Cr7 F35 1.944742 1_555
Cr7 F14 1.947874 1_545
Cr7 F29 1.947874 1_655
Cr7 F46 1.953724 1_555
Cr7 F5 1.953724 1_555
F0 Fe2 2.077323 1_555
F0 Na13 2.629568 1_555
F0 Na8 2.647856 1_555
F1 Fe1 2.096085 1_555
F1 Na9 2.644180 1_555
F1 Na12 2.869986 1_655
F2 Fe0 2.015143 1_555
F2 Fe6 2.087268 1_545
F2 Na13 2.733099 1_555
F2 Na4 2.877503 1_545
F3 Na4 2.203575 1_555
F3 Na15 2.419303 1_565
F3 Na11 2.550569 1_555
F4 Fe6 2.064999 1_555
F4 Na13 2.490308 1_565
F4 Na11 2.879778 1_555
F5 Fe1 2.101139 1_555
F5 Na7 2.675941 1_555
F5 Na1 2.892721 1_555
F6 Na8 2.203575 1_555
F6 Na15 2.419303 1_455
F6 Na13 2.550569 1_555
F7 Fe1 2.093990 1_555
F7 Na0 2.620227 1_565
F7 Na1 2.729542 1_555
F8 Na13 2.321319 1_655
F8 Na11 2.402564 1_555
F8 Na15 2.590188 1_555
F9 Na11 2.321319 1_545
F9 Na13 2.402564 1_555
F9 Na15 2.590188 1_555
F10 Fe3 2.064999 1_555
F10 Na2 2.490308 1_655
F10 Na7 2.879778 1_555
F11 Fe4 2.101139 1_555
F11 Na11 2.675941 1_555
F11 Na15 2.892721 1_555
F12 Na9 2.236683 1_556
F12 Na5 2.555694 1_656
F12 Na12 2.568696 1_656
F13 Fe4 2.017015 1_555
F13 Fe2 2.084599 1_555
F13 Na8 2.817328 1_565
F13 Na10 2.829025 1_555
F14 Na6 2.203575 1_555
F14 Na1 2.419303 1_655
F14 Na7 2.550569 1_555
F15 Fe4 2.093990 1_555
F15 Na8 2.620227 1_655
F15 Na15 2.729542 1_555
F16 Fe1 2.093092 1_555
F16 Na0 2.594868 1_655
F16 Na12 2.760509 1_655
F17 Fe3 2.074239 1_455
F17 Na6 2.612233 1_445
F17 Na3 2.718709 1_555
F18 Na8 2.255601 1_555
F18 Na3 2.457143 1_555
F18 Na14 2.477701 1_555
F19 Fe4 2.093092 1_555
F19 Na8 2.594868 1_565
F19 Na14 2.760509 1_565
F20 Fe1 2.015143 1_555
F20 Fe7 2.087268 1_565
F20 Na7 2.733099 1_555
F20 Na0 2.877503 1_565
F21 Na10 2.236683 1_555
F21 Na3 2.555694 1_655
F21 Na14 2.568696 1_555
F22 Fe2 2.064999 1_555
F22 Na11 2.490308 1_455
F22 Na13 2.879778 1_555
F23 Fe5 2.015143 1_555
F23 Fe3 2.087268 1_455
F23 Na2 2.733099 1_555
F23 Na6 2.877503 1_455
F24 Fe0 2.093092 1_555
F24 Na4 2.594868 1_455
F24 Na12 2.760509 1_556
F25 Na10 2.236683 1_555
F25 Na3 2.555694 1_565
F25 Na14 2.568696 1_565
F26 Fe4 2.096085 1_555
F26 Na10 2.644180 1_555
F26 Na14 2.869986 1_565
F27 Fe5 2.096085 1_555
F27 Na10 2.644180 1_555
F27 Na14 2.869986 1_555
F28 Fe7 2.077323 1_555
F28 Na2 2.629568 1_555
F28 Na0 2.647856 1_555
F29 Na0 2.203575 1_555
F29 Na1 2.419303 1_545
F29 Na2 2.550569 1_555
F30 Na4 2.255601 1_555
F30 Na5 2.457143 1_666
F30 Na12 2.477701 1_656
F31 Fe0 2.096085 1_555
F31 Na9 2.644180 1_556
F31 Na12 2.869986 1_556
F32 Fe5 2.093092 1_555
F32 Na6 2.594868 1_545
F32 Na14 2.760509 1_555
F33 Na7 2.321319 1_455
F33 Na2 2.402564 1_555
F33 Na1 2.590188 1_555
F34 Fe6 2.077323 1_555
F34 Na11 2.629568 1_555
F34 Na4 2.647856 1_555
F35 Fe7 2.064999 1_555
F35 Na7 2.490308 1_545
F35 Na2 2.879778 1_555
F36 Fe7 2.074239 1_565
F36 Na0 2.612233 1_665
F36 Na5 2.718709 1_665
F37 Na2 2.321319 1_565
F37 Na7 2.402564 1_555
F37 Na1 2.590188 1_555
F38 Na9 2.236683 1_555
F38 Na5 2.555694 1_565
F38 Na12 2.568696 1_555
F39 Fe0 2.017015 1_555
F39 Fe6 2.084599 1_555
F39 Na4 2.817328 1_455
F39 Na9 2.829025 1_556
F40 Fe6 2.074060 1_555
F40 Na9 2.584854 1_556
F40 Na5 2.868468 1_566
F41 Fe2 2.074060 1_555
F41 Na10 2.584854 1_555
F41 Na3 2.868468 1_565
F42 Fe5 2.093990 1_555
F42 Na6 2.620227 1_455
F42 Na1 2.729542 1_555
F43 Fe5 2.017015 1_555
F43 Fe3 2.084599 1_555
F43 Na6 2.817328 1_545
F43 Na10 2.829025 1_555
F44 Fe4 2.015143 1_555
F44 Fe2 2.087268 1_655
F44 Na11 2.733099 1_555
F44 Na8 2.877503 1_655
F45 Fe3 2.074060 1_555
F45 Na10 2.584854 1_555
F45 Na3 2.868468 1_655
F46 Fe5 2.101139 1_555
F46 Na2 2.675941 1_555
F46 Na1 2.892721 1_555
F47 Fe1 2.017015 1_555
F47 Fe7 2.084599 1_555
F47 Na0 2.817328 1_655
F47 Na9 2.829025 1_555
F48 Fe0 2.093990 1_555
F48 Na4 2.620227 1_545
F48 Na15 2.729542 1_555
F49 Fe2 2.074239 1_655
F49 Na8 2.612233 1_665
F49 Na3 2.718709 1_665
F50 Na0 2.255601 1_555
F50 Na5 2.457143 1_555
F50 Na12 2.477701 1_555
F51 Fe3 2.077323 1_555
F51 Na7 2.629568 1_555
F51 Na6 2.647856 1_555
F52 Na6 2.255601 1_555
F52 Na3 2.457143 1_665
F52 Na14 2.477701 1_565
F53 Fe7 2.074060 1_555
F53 Na9 2.584854 1_555
F53 Na5 2.868468 1_655
F54 Fe0 2.101139 1_555
F54 Na13 2.675941 1_555
F54 Na15 2.892721 1_555
F55 Fe6 2.074239 1_545
F55 Na4 2.612233 1_445
F55 Na5 2.718709 1_556
