# generated using pymatgen
data_LiBi(PO3)4
_symmetry_space_group_name_H-M   'P 1'
_cell_length_a   8.29249100
_cell_length_b   9.99245400
_cell_length_c   13.57018200
_cell_angle_alpha   90.00000000
_cell_angle_beta   90.00000000
_cell_angle_gamma   90.00000000
_symmetry_Int_Tables_number   1
_chemical_formula_structural   LiBi(PO3)4
_chemical_formula_sum   'Li4 Bi4 P16 O48'
_cell_volume   1124.45696503
_cell_formula_units_Z   4
loop_
 _symmetry_equiv_pos_site_id
 _symmetry_equiv_pos_as_xyz
  1  'x, y, z'
loop_
 _atom_site_type_symbol
 _atom_site_label
 _atom_site_symmetry_multiplicity
 _atom_site_fract_x
 _atom_site_fract_y
 _atom_site_fract_z
 _atom_site_occupancy
  Li  Li0  1  0.02679100  0.25000000  0.00000000  1
  Li  Li1  1  0.97320900  0.75000000  0.00000000  1
  Li  Li2  1  0.47320900  0.75000000  0.50000000  1
  Li  Li3  1  0.52679100  0.25000000  0.50000000  1
  Bi  Bi0  1  0.87734300  0.75000000  0.50000000  1
  Bi  Bi1  1  0.62265700  0.25000000  0.00000000  1
  Bi  Bi2  1  0.37734300  0.75000000  0.00000000  1
  Bi  Bi3  1  0.12265700  0.25000000  0.50000000  1
  P  P0  1  0.33224600  0.00249400  0.36435000  1
  P  P1  1  0.33224600  0.49750600  0.63565000  1
  P  P2  1  0.83224600  0.00249400  0.13565000  1
  P  P3  1  0.53666000  0.99298000  0.83891100  1
  P  P4  1  0.66775400  0.50249400  0.36435000  1
  P  P5  1  0.03666000  0.99298000  0.66108900  1
  P  P6  1  0.66775400  0.99750600  0.63565000  1
  P  P7  1  0.16775400  0.50249400  0.13565000  1
  P  P8  1  0.03666000  0.50702000  0.33891100  1
  P  P9  1  0.96334000  0.49298000  0.66108900  1
  P  P10  1  0.46334000  0.00702000  0.16108900  1
  P  P11  1  0.53666000  0.50702000  0.16108900  1
  P  P12  1  0.46334000  0.49298000  0.83891100  1
  P  P13  1  0.16775400  0.99750600  0.86435000  1
  P  P14  1  0.96334000  0.00702000  0.33891100  1
  P  P15  1  0.83224600  0.49750600  0.86435000  1
  O  O0  1  0.12415800  0.12330800  0.64499100  1
  O  O1  1  0.83392100  0.37916700  0.93526300  1
  O  O2  1  0.08534700  0.93411900  0.76644500  1
  O  O3  1  0.08534700  0.56588100  0.23355500  1
  O  O4  1  0.83392100  0.12083300  0.06473700  1
  O  O5  1  0.34861000  0.02363900  0.82469900  1
  O  O6  1  0.41465300  0.06588100  0.26644500  1
  O  O7  1  0.33392100  0.12083300  0.43526300  1
  O  O8  1  0.66607900  0.62083300  0.43526300  1
  O  O9  1  0.56252900  0.88548600  0.91560200  1
  O  O10  1  0.84861000  0.47636100  0.32469900  1
  O  O11  1  0.59570800  0.12642500  0.60388200  1
  O  O12  1  0.59570800  0.37357500  0.39611800  1
  O  O13  1  0.56252900  0.61451400  0.08439800  1
  O  O14  1  0.58534700  0.56588100  0.26644500  1
  O  O15  1  0.62415800  0.37669200  0.14499100  1
  O  O16  1  0.87584200  0.87669200  0.35500900  1
  O  O17  1  0.16607900  0.62083300  0.06473700  1
  O  O18  1  0.15139000  0.97636100  0.32469900  1
  O  O19  1  0.58534700  0.93411900  0.73355500  1
  O  O20  1  0.43747100  0.38548600  0.91560200  1
  O  O21  1  0.37584200  0.62330800  0.85500900  1
  O  O22  1  0.34861000  0.47636100  0.17530100  1
  O  O23  1  0.16607900  0.87916700  0.93526300  1
  O  O24  1  0.62415800  0.12330800  0.85500900  1
  O  O25  1  0.06252900  0.61451400  0.41560200  1
  O  O26  1  0.37584200  0.87669200  0.14499100  1
  O  O27  1  0.12415800  0.37669200  0.35500900  1
  O  O28  1  0.65139000  0.97636100  0.17530100  1
  O  O29  1  0.09570800  0.12642500  0.89611800  1
  O  O30  1  0.06252900  0.88548600  0.58439800  1
  O  O31  1  0.40429200  0.62642500  0.60388200  1
  O  O32  1  0.93747100  0.38548600  0.58439800  1
  O  O33  1  0.87584200  0.62330800  0.64499100  1
  O  O34  1  0.09570800  0.37357500  0.10388300  1
  O  O35  1  0.91465300  0.06588100  0.23355500  1
  O  O36  1  0.15139000  0.52363900  0.67530100  1
  O  O37  1  0.91465300  0.43411900  0.76644500  1
  O  O38  1  0.90429200  0.62642500  0.89611800  1
  O  O39  1  0.33392100  0.37916700  0.56473700  1
  O  O40  1  0.90429200  0.87357500  0.10388300  1
  O  O41  1  0.84861000  0.02363900  0.67530100  1
  O  O42  1  0.40429200  0.87357500  0.39611800  1
  O  O43  1  0.41465300  0.43411900  0.73355500  1
  O  O44  1  0.93747100  0.11451400  0.41560200  1
  O  O45  1  0.66607900  0.87916700  0.56473700  1
  O  O46  1  0.65139000  0.52363900  0.82469900  1
  O  O47  1  0.43747100  0.11451400  0.08439800  1
loop_
_geom_bond_atom_site_label_1
_geom_bond_atom_site_label_2
_geom_bond_distance
_geom_bond_site_symmetry_2
Li0 O29 1.959241 1_554
Li0 O34 1.959251 1_555
Li0 O1 2.235092 1_454
Li0 O4 2.235092 1_455
Li1 O38 1.959241 1_554
Li1 O40 1.959251 1_555
Li1 O17 2.235092 1_655
Li1 O23 2.235092 1_654
Li2 O42 1.959241 1_555
Li2 O31 1.959241 1_555
Li2 O45 2.235092 1_555
Li2 O8 2.235092 1_555
Li3 O12 1.959241 1_555
Li3 O11 1.959241 1_555
Li3 O39 2.235092 1_555
Li3 O7 2.235092 1_555
Bi0 O33 2.339677 1_555
Bi0 O16 2.339677 1_555
Bi0 O25 2.345807 1_655
Bi0 O30 2.345807 1_655
Bi0 O45 2.346660 1_555
Bi0 O8 2.346660 1_555
Bi1 O24 2.339677 1_554
Bi1 O15 2.339677 1_555
Bi1 O20 2.345807 1_554
Bi1 O47 2.345807 1_555
Bi1 O1 2.346660 1_554
Bi1 O4 2.346660 1_555
Bi2 O21 2.339677 1_554
Bi2 O26 2.339677 1_555
Bi2 O9 2.345807 1_554
Bi2 O13 2.345807 1_555
Bi2 O17 2.346660 1_555
Bi2 O23 2.346660 1_554
Bi3 O27 2.339677 1_555
Bi3 O0 2.339677 1_555
Bi3 O44 2.345807 1_455
Bi3 O32 2.345807 1_455
Bi3 O39 2.346660 1_555
Bi3 O7 2.346660 1_555
O0 P5 1.506705 1_545
O1 P15 1.524637 1_555
O2 P5 1.597806 1_555
O2 P13 1.622749 1_555
O3 P8 1.597806 1_555
O3 P7 1.622749 1_555
O4 P2 1.524637 1_555
O5 P3 1.600871 1_545
O5 P13 1.614606 1_545
O6 P10 1.597806 1_555
O6 P0 1.622749 1_555
O7 P0 1.524637 1_555
O8 P4 1.524637 1_555
O9 P3 1.510910 1_555
O10 P8 1.600871 1_655
O10 P4 1.614606 1_555
O11 P6 1.484009 1_545
O12 P4 1.484009 1_555
O13 P11 1.510910 1_555
O14 P11 1.597806 1_555
O14 P4 1.622749 1_555
O15 P11 1.506705 1_555
O16 P14 1.506705 1_565
O17 P7 1.524637 1_555
O18 P14 1.600871 1_465
O18 P0 1.614606 1_565
O19 P3 1.597806 1_555
O19 P6 1.622749 1_555
O20 P12 1.510910 1_555
O21 P12 1.506705 1_555
O22 P11 1.600871 1_555
O22 P7 1.614606 1_555
O23 P13 1.524637 1_555
O24 P3 1.506705 1_545
O25 P8 1.510910 1_555
O26 P10 1.506705 1_565
O27 P8 1.506705 1_555
O28 P10 1.600871 1_565
O28 P2 1.614606 1_565
O29 P13 1.484009 1_545
O30 P5 1.510910 1_555
O31 P1 1.484009 1_555
O32 P9 1.510910 1_555
O33 P9 1.506705 1_555
O34 P7 1.484006 1_555
O35 P14 1.597806 1_555
O35 P2 1.622749 1_555
O36 P9 1.600871 1_455
O36 P1 1.614606 1_555
O37 P9 1.597806 1_555
O37 P15 1.622749 1_555
O38 P15 1.484009 1_555
O39 P1 1.524637 1_555
O40 P2 1.484006 1_565
O41 P5 1.600871 1_645
O41 P6 1.614606 1_545
O42 P0 1.484009 1_565
O43 P12 1.597806 1_555
O43 P1 1.622749 1_555
O44 P14 1.510910 1_555
O45 P6 1.524637 1_555
O46 P12 1.600871 1_555
O46 P15 1.614606 1_555
O47 P10 1.510910 1_555
