# generated using pymatgen
data_CeNiSnH
_symmetry_space_group_name_H-M   'P 1'
_cell_length_a   4.37311900
_cell_length_b   7.22718200
_cell_length_c   8.30374800
_cell_angle_alpha   90.00000000
_cell_angle_beta   90.00000000
_cell_angle_gamma   90.00000000
_symmetry_Int_Tables_number   1
_chemical_formula_structural   CeNiSnH
_chemical_formula_sum   'Ce4 Ni4 Sn4 H4'
_cell_volume   262.44267021
_cell_formula_units_Z   4
loop_
 _symmetry_equiv_pos_site_id
 _symmetry_equiv_pos_as_xyz
  1  'x, y, z'
loop_
 _atom_site_type_symbol
 _atom_site_label
 _atom_site_symmetry_multiplicity
 _atom_site_fract_x
 _atom_site_fract_y
 _atom_site_fract_z
 _atom_site_occupancy
  Ce  Ce0  1  0.75000000  0.51046300  0.80810900  1
  Ce  Ce1  1  0.25000000  0.48953700  0.19189100  1
  Ce  Ce2  1  0.25000000  0.98953700  0.30810900  1
  Ce  Ce3  1  0.75000000  0.01046300  0.69189100  1
  Ni  Ni0  1  0.75000000  0.28374000  0.39747900  1
  Ni  Ni1  1  0.25000000  0.71626000  0.60252100  1
  Ni  Ni2  1  0.25000000  0.21626000  0.89747900  1
  Ni  Ni3  1  0.75000000  0.78374000  0.10252100  1
  Sn  Sn0  1  0.75000000  0.16867000  0.07266200  1
  Sn  Sn1  1  0.25000000  0.83133000  0.92733800  1
  Sn  Sn2  1  0.25000000  0.33133000  0.57266200  1
  Sn  Sn3  1  0.75000000  0.66867000  0.42733800  1
  H  H0  1  0.25000000  0.94179900  0.58074300  1
  H  H1  1  0.75000000  0.05820100  0.41925700  1
  H  H2  1  0.75000000  0.55820100  0.08074300  1
  H  H3  1  0.25000000  0.44179900  0.91925700  1
loop_
_geom_bond_atom_site_label_1
_geom_bond_atom_site_label_2
_geom_bond_distance
_geom_bond_site_symmetry_2
Ce0 H2 2.290023 1_556
Ce0 H3 2.424692 1_655
Ce0 H3 2.424692 1_555
Ce0 Sn2 3.206164 1_655
Ce0 Sn2 3.206164 1_555
Ce0 Sn0 3.305713 1_556
Ce0 Sn1 3.337489 1_555
Ce0 Sn1 3.337489 1_655
Ce0 Sn3 3.362215 1_555
Ce1 H3 2.290023 1_554
Ce1 H2 2.424692 1_455
Ce1 H2 2.424692 1_555
Ce1 Sn3 3.206164 1_455
Ce1 Sn3 3.206164 1_555
Ce1 Sn1 3.305713 1_554
Ce1 Sn0 3.337489 1_455
Ce1 Sn0 3.337489 1_555
Ce1 Sn2 3.362215 1_555
Ce2 H0 2.290023 1_555
Ce2 H1 2.424692 1_565
Ce2 H1 2.424692 1_465
Ce2 Sn0 3.206164 1_465
Ce2 Sn0 3.206164 1_565
Ce2 Sn2 3.305713 1_565
Ce2 Sn3 3.337489 1_455
Ce2 Sn3 3.337489 1_555
Ce2 Sn1 3.362215 1_554
Ce3 H1 2.290023 1_555
Ce3 H0 2.424692 1_545
Ce3 H0 2.424692 1_645
Ce3 Sn1 3.206164 1_645
Ce3 Sn1 3.206164 1_545
Ce3 Sn3 3.305713 1_545
Ce3 Sn2 3.337489 1_555
Ce3 Sn2 3.337489 1_655
Ce3 Sn0 3.362215 1_556
Ni0 Sn2 2.648664 1_555
Ni0 Sn2 2.648664 1_655
Ni0 Sn3 2.792986 1_555
Ni0 Sn0 2.822497 1_555
Ni1 Sn3 2.648664 1_455
Ni1 Sn3 2.648664 1_555
Ni1 Sn2 2.792986 1_555
Ni1 Sn1 2.822497 1_555
Ni2 Sn0 2.648664 1_556
Ni2 Sn0 2.648664 1_456
Ni2 Sn1 2.792986 1_545
Ni2 Sn2 2.822497 1_555
Ni3 Sn1 2.648664 1_654
Ni3 Sn1 2.648664 1_554
Ni3 Sn0 2.792986 1_565
Ni3 Sn3 2.822497 1_555
H0 Ni1 1.640012 1_555
H1 Ni0 1.640012 1_555
H2 Ni3 1.640012 1_555
H3 Ni2 1.640012 1_555
