# generated using pymatgen
data_Re(SeCl6)2
_symmetry_space_group_name_H-M   'P 1'
_cell_length_a   12.72439110
_cell_length_b   12.50261267
_cell_length_c   8.86251990
_cell_angle_alpha   70.78095970
_cell_angle_beta   68.09581812
_cell_angle_gamma   41.12322218
_symmetry_Int_Tables_number   1
_chemical_formula_structural   Re(SeCl6)2
_chemical_formula_sum   'Re2 Se4 Cl24'
_cell_volume   857.65345586
_cell_formula_units_Z   2
loop_
 _symmetry_equiv_pos_site_id
 _symmetry_equiv_pos_as_xyz
  1  'x, y, z'
loop_
 _atom_site_type_symbol
 _atom_site_label
 _atom_site_symmetry_multiplicity
 _atom_site_fract_x
 _atom_site_fract_y
 _atom_site_fract_z
 _atom_site_occupancy
  Re  Re0  1  0.91724800  0.92324500  0.57519600  1
  Re  Re1  1  0.67390600  0.66526300  0.32670000  1
  Se  Se0  1  0.72870000  0.27396800  0.21668600  1
  Se  Se1  1  0.26763800  0.73548200  0.77922700  1
  Se  Se2  1  0.03525200  0.47266200  0.51257500  1
  Se  Se3  1  0.47360800  0.03307900  0.97811300  1
  Cl  Cl0  1  0.12354300  0.23047700  0.53609500  1
  Cl  Cl1  1  0.92902400  0.56435000  0.21855100  1
  Cl  Cl2  1  0.40660300  0.78366300  0.44212100  1
  Cl  Cl3  1  0.62615700  0.71761100  0.06731000  1
  Cl  Cl4  1  0.30132800  0.85643900  0.87550300  1
  Cl  Cl5  1  0.03633300  0.96304100  0.31425200  1
  Cl  Cl6  1  0.78601900  0.40112900  0.36733200  1
  Cl  Cl7  1  0.66151400  0.18034100  0.54393800  1
  Cl  Cl8  1  0.51345800  0.48168400  0.79021900  1
  Cl  Cl9  1  0.56257800  0.93313200  0.29165300  1
  Cl  Cl10  1  0.27753800  0.37912400  0.39679500  1
  Cl  Cl11  1  0.85237000  0.29703300  0.97517400  1
  Cl  Cl12  1  0.70480300  0.14719800  0.13486600  1
  Cl  Cl13  1  0.96703000  0.02699700  0.69312300  1
  Cl  Cl14  1  0.46937300  0.02935200  0.73521200  1
  Cl  Cl15  1  0.23100600  0.12462200  0.10825700  1
  Cl  Cl16  1  0.80031100  0.89145000  0.84276200  1
  Cl  Cl17  1  0.15046100  0.70596800  0.01692300  1
  Cl  Cl18  1  0.37824000  0.27421300  0.94814600  1
  Cl  Cl19  1  0.88364500  0.80995400  0.46011800  1
  Cl  Cl20  1  0.70974000  0.63361300  0.59494400  1
  Cl  Cl21  1  0.02978300  0.46077500  0.77173600  1
  Cl  Cl22  1  0.47447000  0.51910000  0.22176800  1
  Cl  Cl23  1  0.18370400  0.65910400  0.61315200  1
loop_
_geom_bond_atom_site_label_1
_geom_bond_atom_site_label_2
_geom_bond_distance
_geom_bond_site_symmetry_2
Cl0 Se2 2.260130 1_555
Cl1 Re1 2.313570 1_555
Cl2 Re1 2.371021 1_555
Cl3 Re1 2.352589 1_555
Cl3 Se3 2.739877 1_564
Cl4 Se1 2.301722 1_555
Cl5 Re0 2.378153 1_455
Cl6 Re1 2.360745 1_555
Cl7 Re0 2.307719 1_545
Cl7 Se0 2.816973 1_555
Cl8 Se1 2.220940 1_555
Cl9 Re1 2.411477 1_555
Cl9 Se3 2.914508 1_564
Cl10 Se2 2.218776 1_555
Cl11 Se0 2.214736 1_556
Cl12 Se0 2.185778 1_555
Cl13 Re0 2.408454 1_545
Cl13 Se1 2.800044 1_645
Cl14 Se3 2.189893 1_555
Cl15 Se3 2.249271 1_554
Cl16 Re0 2.373414 1_555
Cl16 Se3 2.905769 1_565
Cl17 Se1 2.184174 1_554
Cl18 Se3 2.198560 1_555
Cl19 Re0 2.327689 1_555
Cl20 Re1 2.435924 1_555
Cl20 Se2 2.809250 1_655
Cl21 Se2 2.230225 1_555
Cl22 Se0 2.214712 1_555
Cl23 Re0 2.401066 1_455
Cl23 Se1 2.802417 1_555
