# generated using pymatgen
data_Cr3Pb5F19
_symmetry_space_group_name_H-M   'P 1'
_cell_length_a   11.27567505
_cell_length_b   11.27567505
_cell_length_c   11.27066833
_cell_angle_alpha   83.28007731
_cell_angle_beta   83.28007731
_cell_angle_gamma   139.91342526
_symmetry_Int_Tables_number   1
_chemical_formula_structural   Cr3Pb5F19
_chemical_formula_sum   'Cr6 Pb10 F38'
_cell_volume   867.29970906
_cell_formula_units_Z   2
loop_
 _symmetry_equiv_pos_site_id
 _symmetry_equiv_pos_as_xyz
  1  'x, y, z'
loop_
 _atom_site_type_symbol
 _atom_site_label
 _atom_site_symmetry_multiplicity
 _atom_site_fract_x
 _atom_site_fract_y
 _atom_site_fract_z
 _atom_site_occupancy
  Cr  Cr0  1  0.17625800  0.85269900  0.49994300  1
  Cr  Cr1  1  0.35366700  0.35366700  0.82496100  1
  Cr  Cr2  1  0.67556000  0.67556000  0.17597100  1
  Cr  Cr3  1  0.85269900  0.17625800  0.49994300  1
  Cr  Cr4  1  0.31136600  0.81199600  0.00020100  1
  Cr  Cr5  1  0.81199600  0.31136600  0.00020100  1
  Pb  Pb0  1  0.33969200  0.33969200  0.50157500  1
  Pb  Pb1  1  0.05695800  0.24863100  0.16237400  1
  Pb  Pb2  1  0.74814600  0.41121700  0.30894400  1
  Pb  Pb3  1  0.84048100  0.84048100  0.49994600  1
  Pb  Pb4  1  0.24863100  0.05695800  0.16237400  1
  Pb  Pb5  1  0.91287700  0.72340100  0.83897000  1
  Pb  Pb6  1  0.72340100  0.91287700  0.83897000  1
  Pb  Pb7  1  0.41121700  0.74814600  0.30894400  1
  Pb  Pb8  1  0.22027500  0.55943600  0.69062600  1
  Pb  Pb9  1  0.55943600  0.22027500  0.69062600  1
  F  F0  1  0.57857600  0.36296800  0.50121700  1
  F  F1  1  0.91934900  0.64129500  0.63258100  1
  F  F2  1  0.14100300  0.27431100  0.77951700  1
  F  F3  1  0.94114700  0.28623500  0.63363400  1
  F  F4  1  0.50545100  0.50545100  0.64599100  1
  F  F5  1  0.05085400  0.77271700  0.36748700  1
  F  F6  1  0.41829800  0.73752700  0.98216000  1
  F  F7  1  0.23214200  0.71470300  0.18146200  1
  F  F8  1  0.41893600  0.55174200  0.22088600  1
  F  F9  1  0.27431100  0.14100300  0.77951700  1
  F  F10  1  0.44123200  0.57764400  0.84593800  1
  F  F11  1  0.71470300  0.23214200  0.18146200  1
  F  F12  1  0.73752700  0.41829800  0.98216000  1
  F  F13  1  0.28623500  0.94114700  0.63363400  1
  F  F14  1  0.71912600  0.71912600  0.99342800  1
  F  F15  1  0.21651500  0.71091000  0.49993300  1
  F  F16  1  0.42035000  0.07496700  0.36471400  1
  F  F17  1  0.77271700  0.05085400  0.36748700  1
  F  F18  1  0.15126900  0.00631900  0.49943200  1
  F  F19  1  0.91167600  0.38782000  0.81977500  1
  F  F20  1  0.06513600  0.55787200  0.00026000  1
  F  F21  1  0.86707500  0.86707500  0.71517400  1
  F  F22  1  0.38782000  0.91167600  0.81977500  1
  F  F23  1  0.64792900  0.64792900  0.35521600  1
  F  F24  1  0.21238800  0.21238800  0.00683800  1
  F  F25  1  0.07496700  0.42035000  0.36471400  1
  F  F26  1  0.36296800  0.57857600  0.50121700  1
  F  F27  1  0.57764400  0.44123200  0.84593800  1
  F  F28  1  0.55787200  0.06513600  0.00026000  1
  F  F29  1  0.92063400  0.78576700  0.15407300  1
  F  F30  1  0.71091000  0.21651500  0.49993300  1
  F  F31  1  0.55174200  0.41893600  0.22088600  1
  F  F32  1  0.64129500  0.91934900  0.63258100  1
  F  F33  1  0.78576700  0.92063400  0.15407300  1
  F  F34  1  0.88442500  0.20352400  0.02351900  1
  F  F35  1  0.00631900  0.15126900  0.49943200  1
  F  F36  1  0.08044000  0.08044000  0.28343600  1
  F  F37  1  0.20352400  0.88442500  0.02351900  1
loop_
_geom_bond_atom_site_label_1
_geom_bond_atom_site_label_2
_geom_bond_distance
_geom_bond_site_symmetry_2
Cr0 F13 1.923383 1_555
Cr0 F16 1.936189 1_565
Cr0 F18 1.955684 1_565
Cr0 F15 1.967890 1_555
Cr0 F1 1.973591 1_455
Cr0 F5 1.974653 1_555
Cr1 F10 1.946213 1_555
Cr1 F27 1.946213 1_555
Cr1 F4 1.956819 1_555
Cr1 F24 1.966185 1_556
Cr1 F2 1.981058 1_555
Cr1 F9 1.981058 1_555
Cr2 F33 1.937925 1_555
Cr2 F29 1.937925 1_555
Cr2 F23 1.957615 1_555
Cr2 F14 1.968031 1_554
Cr2 F8 1.971962 1_555
Cr2 F31 1.971962 1_555
Cr3 F3 1.923383 1_555
Cr3 F25 1.936189 1_655
Cr3 F35 1.955684 1_655
Cr3 F30 1.967890 1_555
Cr3 F32 1.973591 1_545
Cr3 F17 1.974653 1_555
Cr4 F37 1.926053 1_555
Cr4 F22 1.927144 1_554
Cr4 F7 1.929749 1_555
Cr4 F6 1.931829 1_554
Cr4 F28 1.932393 1_565
Cr4 F20 1.935205 1_555
Cr5 F34 1.926053 1_555
Cr5 F19 1.927144 1_554
Cr5 F11 1.929749 1_555
Cr5 F12 1.931829 1_554
Cr5 F20 1.932393 1_655
Cr5 F28 1.935205 1_555
F0 Pb9 2.397824 1_555
F0 Pb2 2.410515 1_555
F0 Pb0 2.497950 1_555
F1 Pb5 2.615534 1_555
F2 Pb8 2.603500 1_555
F3 Pb8 2.430798 1_655
F4 Pb0 2.390520 1_555
F4 Pb3 2.550328 1_555
F5 Pb4 2.590843 1_565
F6 Pb6 2.427934 1_555
F7 Pb7 2.434016 1_555
F8 Pb7 2.585745 1_555
F9 Pb9 2.603500 1_555
F10 Pb6 2.426306 1_555
F11 Pb2 2.434016 1_555
F12 Pb5 2.427934 1_555
F13 Pb9 2.430798 1_565
F14 Pb6 2.595153 1_555
F14 Pb5 2.595153 1_555
F15 Pb8 2.609831 1_555
F15 Pb7 2.627109 1_555
F16 Pb2 2.426337 1_555
F17 Pb1 2.590843 1_655
F18 Pb3 2.396446 1_445
F18 Pb0 2.541176 1_555
F19 Pb8 2.413224 1_655
F21 Pb5 2.399541 1_555
F21 Pb6 2.399541 1_555
F21 Pb3 2.503407 1_555
F22 Pb9 2.413224 1_565
F23 Pb0 2.390241 1_555
F23 Pb3 2.556047 1_555
F24 Pb4 2.618414 1_555
F24 Pb1 2.618414 1_555
F25 Pb7 2.426337 1_555
F26 Pb8 2.397824 1_555
F26 Pb7 2.410515 1_555
F26 Pb0 2.497950 1_555
F27 Pb5 2.426306 1_555
F29 Pb4 2.425000 1_665
F30 Pb9 2.609831 1_555
F30 Pb2 2.627109 1_555
F31 Pb2 2.585745 1_555
F32 Pb6 2.615534 1_555
F33 Pb1 2.425000 1_665
F34 Pb1 2.424323 1_655
F35 Pb3 2.396446 1_445
F35 Pb0 2.541176 1_555
F36 Pb1 2.403273 1_555
F36 Pb4 2.403273 1_555
F36 Pb3 2.510771 1_445
F37 Pb4 2.424323 1_565
