# generated using pymatgen
data_MoSe2Cl4O
_symmetry_space_group_name_H-M   'P 1'
_cell_length_a   7.93481800
_cell_length_b   14.51094500
_cell_length_c   16.22736434
_cell_angle_alpha   69.02919535
_cell_angle_beta   90.00000000
_cell_angle_gamma   90.00000000
_symmetry_Int_Tables_number   1
_chemical_formula_structural   MoSe2Cl4O
_chemical_formula_sum   'Mo8 Se16 Cl32 O8'
_cell_volume   1744.68599071
_cell_formula_units_Z   8
loop_
 _symmetry_equiv_pos_site_id
 _symmetry_equiv_pos_as_xyz
  1  'x, y, z'
loop_
 _atom_site_type_symbol
 _atom_site_label
 _atom_site_symmetry_multiplicity
 _atom_site_fract_x
 _atom_site_fract_y
 _atom_site_fract_z
 _atom_site_occupancy
  Mo  Mo0  1  0.28511200  0.45777200  0.09055800  1
  Mo  Mo1  1  0.89468100  0.88338800  0.96356800  1
  Mo  Mo2  1  0.71488800  0.54222800  0.90944200  1
  Mo  Mo3  1  0.39468100  0.11661200  0.53643200  1
  Mo  Mo4  1  0.21488800  0.45777200  0.59055800  1
  Mo  Mo5  1  0.10531900  0.11661200  0.03643200  1
  Mo  Mo6  1  0.60531900  0.88338800  0.46356800  1
  Mo  Mo7  1  0.78511200  0.54222800  0.40944200  1
  Se  Se0  1  0.22619200  0.68309000  0.23583500  1
  Se  Se1  1  0.96230000  0.84163600  0.71443800  1
  Se  Se2  1  0.72619200  0.31691000  0.26416500  1
  Se  Se3  1  0.22005200  0.80815100  0.78971900  1
  Se  Se4  1  0.98208800  0.28221700  0.34217300  1
  Se  Se5  1  0.77994800  0.19184900  0.21028100  1
  Se  Se6  1  0.72005200  0.19184900  0.71028100  1
  Se  Se7  1  0.01791200  0.71778300  0.65782700  1
  Se  Se8  1  0.27994800  0.80815100  0.28971900  1
  Se  Se9  1  0.46230000  0.15836400  0.78556200  1
  Se  Se10  1  0.27380800  0.68309000  0.73583500  1
  Se  Se11  1  0.77380800  0.31691000  0.76416500  1
  Se  Se12  1  0.53770000  0.84163600  0.21443800  1
  Se  Se13  1  0.51791200  0.28221700  0.84217300  1
  Se  Se14  1  0.03770000  0.15836400  0.28556200  1
  Se  Se15  1  0.48208800  0.71778300  0.15782700  1
  Cl  Cl0  1  0.65616200  0.52806700  0.05929900  1
  Cl  Cl1  1  0.83352300  0.07311000  0.99369100  1
  Cl  Cl2  1  0.34383800  0.47193300  0.94070100  1
  Cl  Cl3  1  0.46633300  0.01039800  0.68661300  1
  Cl  Cl4  1  0.83905800  0.81031600  0.12091900  1
  Cl  Cl5  1  0.15616200  0.47193300  0.44070100  1
  Cl  Cl6  1  0.53366700  0.98960200  0.31338700  1
  Cl  Cl7  1  0.25235000  0.63227400  0.53955000  1
  Cl  Cl8  1  0.96633300  0.98960200  0.81338700  1
  Cl  Cl9  1  0.89448700  0.90924500  0.43599900  1
  Cl  Cl10  1  0.39448700  0.09075500  0.06400100  1
  Cl  Cl11  1  0.84383800  0.52806700  0.55929900  1
  Cl  Cl12  1  0.33352300  0.92689000  0.50630900  1
  Cl  Cl13  1  0.16094200  0.18968400  0.87908100  1
  Cl  Cl14  1  0.57290100  0.70045100  0.86002400  1
  Cl  Cl15  1  0.66094200  0.81031600  0.62091900  1
  Cl  Cl16  1  0.10551300  0.09075500  0.56400100  1
  Cl  Cl17  1  0.16647700  0.92689000  0.00630900  1
  Cl  Cl18  1  0.74765000  0.36772600  0.46045000  1
  Cl  Cl19  1  0.35247200  0.46630600  0.23105000  1
  Cl  Cl20  1  0.03366700  0.01039800  0.18661300  1
  Cl  Cl21  1  0.60551300  0.90924500  0.93599900  1
  Cl  Cl22  1  0.42709900  0.29954900  0.13997600  1
  Cl  Cl23  1  0.92709900  0.70045100  0.36002400  1
  Cl  Cl24  1  0.33905800  0.18968400  0.37908100  1
  Cl  Cl25  1  0.07290100  0.29954900  0.63997600  1
  Cl  Cl26  1  0.66647700  0.07311000  0.49369100  1
  Cl  Cl27  1  0.24765000  0.63227400  0.03955000  1
  Cl  Cl28  1  0.64752800  0.53369400  0.76895000  1
  Cl  Cl29  1  0.75235000  0.36772600  0.96045000  1
  Cl  Cl30  1  0.14752800  0.46630600  0.73105000  1
  Cl  Cl31  1  0.85247200  0.53369400  0.26895000  1
  O  O0  1  0.91713400  0.58178700  0.89495200  1
  O  O1  1  0.08286600  0.41821300  0.10504800  1
  O  O2  1  0.06950000  0.22396500  0.05291600  1
  O  O3  1  0.56950000  0.77603500  0.44708400  1
  O  O4  1  0.41713400  0.41821300  0.60504800  1
  O  O5  1  0.93050000  0.77603500  0.94708400  1
  O  O6  1  0.58286600  0.58178700  0.39495200  1
  O  O7  1  0.43050000  0.22396500  0.55291600  1
loop_
_geom_bond_atom_site_label_1
_geom_bond_atom_site_label_2
_geom_bond_distance
_geom_bond_site_symmetry_2
Mo0 O1 1.692197 1_555
Mo1 O5 1.696266 1_555
Mo2 O0 1.692197 1_555
Mo3 O7 1.696266 1_555
Mo4 O4 1.692197 1_555
Mo5 O2 1.696266 1_555
Mo6 O3 1.696266 1_555
Mo7 O6 1.692197 1_555
Se0 Se8 2.318545 1_555
Se0 Se15 2.350018 1_555
Se1 Se7 2.334613 1_655
Se1 Se3 2.342320 1_655
Se2 Se5 2.318545 1_555
Se2 Se4 2.350018 1_555
Se6 Se9 2.342320 1_555
Se10 Se3 2.318545 1_555
Se10 Se7 2.350018 1_555
Se11 Se6 2.318545 1_555
Se11 Se13 2.350018 1_555
Se12 Se15 2.334613 1_555
Se12 Se8 2.342320 1_555
Se13 Se9 2.334613 1_555
Se14 Se4 2.334613 1_455
Se14 Se5 2.342320 1_455
Cl0 Mo2 2.411484 1_554
Cl0 Mo0 3.097715 1_555
Cl1 Mo5 2.417449 1_656
Cl1 Mo1 3.002824 1_545
Cl2 Mo0 2.411484 1_556
Cl2 Mo2 3.097715 1_555
Cl3 Mo3 2.439127 1_555
Cl4 Mo1 2.429191 1_554
Cl4 Se12 2.953165 1_555
Cl5 Mo4 2.411484 1_555
Cl5 Mo7 3.097715 1_455
Cl6 Mo6 2.439127 1_555
Cl7 Mo4 2.384369 1_555
Cl8 Mo1 2.439127 1_555
Cl9 Mo6 2.342111 1_555
Cl10 Mo5 2.342111 1_555
Cl11 Mo7 2.411484 1_555
Cl11 Mo4 3.097715 1_655
Cl12 Mo6 2.417449 1_555
Cl12 Mo3 3.002824 1_565
Cl13 Mo5 2.429191 1_556
Cl13 Se9 2.953165 1_555
Cl14 Mo2 2.421975 1_555
Cl15 Mo6 2.429191 1_555
Cl15 Se1 2.953165 1_555
Cl16 Mo3 2.342111 1_555
Cl17 Mo1 2.417449 1_454
Cl17 Mo5 3.002824 1_565
Cl18 Mo7 2.384369 1_555
Cl19 Mo0 2.387604 1_555
Cl20 Mo5 2.439127 1_555
Cl21 Mo1 2.342111 1_555
Cl22 Mo0 2.421975 1_555
Cl23 Mo7 2.421975 1_555
Cl24 Mo3 2.429191 1_555
Cl24 Se14 2.953165 1_555
Cl25 Mo4 2.421975 1_555
Cl26 Mo3 2.417449 1_555
Cl26 Mo6 3.002824 1_545
Cl27 Mo0 2.384369 1_555
Cl28 Mo2 2.387604 1_555
Cl29 Mo2 2.384369 1_555
Cl30 Mo4 2.387604 1_555
Cl31 Mo7 2.387604 1_555
