# generated using pymatgen
data_Ca3Al2(SiO4)3
_symmetry_space_group_name_H-M   'P 1'
_cell_length_a   10.36544940
_cell_length_b   10.36544940
_cell_length_c   10.36544940
_cell_angle_alpha   109.47122063
_cell_angle_beta   109.47122063
_cell_angle_gamma   109.47122063
_symmetry_Int_Tables_number   1
_chemical_formula_structural   Ca3Al2(SiO4)3
_chemical_formula_sum   'Ca12 Al8 Si12 O48'
_cell_volume   857.31913425
_cell_formula_units_Z   4
loop_
 _symmetry_equiv_pos_site_id
 _symmetry_equiv_pos_as_xyz
  1  'x, y, z'
loop_
 _atom_site_type_symbol
 _atom_site_label
 _atom_site_symmetry_multiplicity
 _atom_site_fract_x
 _atom_site_fract_y
 _atom_site_fract_z
 _atom_site_occupancy
  Ca  Ca0  1  0.87500000  0.75000000  0.62500000  1
  Ca  Ca1  1  0.87500000  0.62500000  0.25000000  1
  Ca  Ca2  1  0.62500000  0.87500000  0.75000000  1
  Ca  Ca3  1  0.25000000  0.87500000  0.62500000  1
  Ca  Ca4  1  0.75000000  0.62500000  0.87500000  1
  Ca  Ca5  1  0.62500000  0.25000000  0.87500000  1
  Ca  Ca6  1  0.12500000  0.25000000  0.37500000  1
  Ca  Ca7  1  0.12500000  0.37500000  0.75000000  1
  Ca  Ca8  1  0.37500000  0.12500000  0.25000000  1
  Ca  Ca9  1  0.75000000  0.12500000  0.37500000  1
  Ca  Ca10  1  0.25000000  0.37500000  0.12500000  1
  Ca  Ca11  1  0.37500000  0.75000000  0.12500000  1
  Al  Al0  1  0.00000000  0.00000000  0.00000000  1
  Al  Al1  1  0.50000000  0.00000000  0.00000000  1
  Al  Al2  1  0.50000000  0.50000000  0.00000000  1
  Al  Al3  1  0.00000000  0.50000000  0.50000000  1
  Al  Al4  1  0.00000000  0.00000000  0.50000000  1
  Al  Al5  1  0.50000000  0.50000000  0.50000000  1
  Al  Al6  1  0.00000000  0.50000000  0.00000000  1
  Al  Al7  1  0.50000000  0.00000000  0.50000000  1
  Si  Si0  1  0.12500000  0.75000000  0.87500000  1
  Si  Si1  1  0.75000000  0.87500000  0.12500000  1
  Si  Si2  1  0.25000000  0.62500000  0.37500000  1
  Si  Si3  1  0.62500000  0.75000000  0.37500000  1
  Si  Si4  1  0.87500000  0.12500000  0.75000000  1
  Si  Si5  1  0.37500000  0.25000000  0.62500000  1
  Si  Si6  1  0.37500000  0.62500000  0.75000000  1
  Si  Si7  1  0.25000000  0.12500000  0.87500000  1
  Si  Si8  1  0.62500000  0.37500000  0.25000000  1
  Si  Si9  1  0.12500000  0.87500000  0.25000000  1
  Si  Si10  1  0.75000000  0.37500000  0.62500000  1
  Si  Si11  1  0.87500000  0.25000000  0.12500000  1
  O  O0  1  0.80402400  0.41730300  0.81077200  1
  O  O1  1  0.81077200  0.80402400  0.41730300  1
  O  O2  1  0.50674800  0.61327900  0.69597600  1
  O  O3  1  0.39346900  0.08269700  0.88672100  1
  O  O4  1  0.61327900  0.41730300  0.10653100  1
  O  O5  1  0.68922800  0.10653100  0.99325200  1
  O  O6  1  0.81077200  0.50674800  0.39346900  1
  O  O7  1  0.41730300  0.81077200  0.80402400  1
  O  O8  1  0.88672100  0.99325200  0.80402400  1
  O  O9  1  0.39346900  0.81077200  0.50674800  1
  O  O10  1  0.41730300  0.10653100  0.61327900  1
  O  O11  1  0.08269700  0.69597600  0.68922800  1
  O  O12  1  0.69597600  0.68922800  0.08269700  1
  O  O13  1  0.50674800  0.39346900  0.81077200  1
  O  O14  1  0.80402400  0.88672100  0.99325200  1
  O  O15  1  0.99325200  0.80402400  0.88672100  1
  O  O16  1  0.10653100  0.61327900  0.41730300  1
  O  O17  1  0.69597600  0.50674800  0.61327900  1
  O  O18  1  0.10653100  0.99325200  0.68922800  1
  O  O19  1  0.11327900  0.00674800  0.19597600  1
  O  O20  1  0.88672100  0.39346900  0.08269700  1
  O  O21  1  0.08269700  0.88672100  0.39346900  1
  O  O22  1  0.99325200  0.68922800  0.10653100  1
  O  O23  1  0.68922800  0.08269700  0.69597600  1
  O  O24  1  0.19597600  0.58269700  0.18922800  1
  O  O25  1  0.18922800  0.19597600  0.58269700  1
  O  O26  1  0.49325200  0.38672100  0.30402400  1
  O  O27  1  0.60653100  0.91730300  0.11327900  1
  O  O28  1  0.38672100  0.58269700  0.89346900  1
  O  O29  1  0.31077200  0.89346900  0.00674800  1
  O  O30  1  0.18922800  0.49325200  0.60653100  1
  O  O31  1  0.58269700  0.18922800  0.19597600  1
  O  O32  1  0.31077200  0.91730300  0.30402400  1
  O  O33  1  0.00674800  0.31077200  0.89346900  1
  O  O34  1  0.91730300  0.11327900  0.60653100  1
  O  O35  1  0.38672100  0.30402400  0.49325200  1
  O  O36  1  0.11327900  0.60653100  0.91730300  1
  O  O37  1  0.89346900  0.00674800  0.31077200  1
  O  O38  1  0.30402400  0.49325200  0.38672100  1
  O  O39  1  0.89346900  0.38672100  0.58269700  1
  O  O40  1  0.00674800  0.19597600  0.11327900  1
  O  O41  1  0.19597600  0.11327900  0.00674800  1
  O  O42  1  0.49325200  0.60653100  0.18922800  1
  O  O43  1  0.30402400  0.31077200  0.91730300  1
  O  O44  1  0.91730300  0.30402400  0.31077200  1
  O  O45  1  0.58269700  0.89346900  0.38672100  1
  O  O46  1  0.60653100  0.18922800  0.49325200  1
  O  O47  1  0.61327900  0.69597600  0.50674800  1
loop_
_geom_bond_atom_site_label_1
_geom_bond_atom_site_label_2
_geom_bond_distance
_geom_bond_site_symmetry_2
Ca0 O1 2.342734 1_555
Ca0 O47 2.342734 1_555
Ca0 O11 2.342734 1_655
Ca0 O15 2.342734 1_555
Ca0 O8 2.518332 1_555
Ca0 O17 2.518332 1_555
Ca0 O6 2.518332 1_555
Ca0 O18 2.518332 1_655
Ca1 O22 2.342734 1_555
Ca1 O4 2.342734 1_555
Ca1 O6 2.342734 1_555
Ca1 O21 2.342734 1_655
Ca1 O1 2.518332 1_555
Ca1 O12 2.518332 1_555
Ca1 O16 2.518332 1_655
Ca1 O20 2.518332 1_555
Ca2 O7 2.342734 1_555
Ca2 O8 2.342734 1_555
Ca2 O23 2.342734 1_565
Ca2 O2 2.342734 1_555
Ca2 O47 2.518332 1_555
Ca2 O5 2.518332 1_565
Ca2 O14 2.518332 1_555
Ca2 O9 2.518332 1_555
Ca3 O3 2.342734 1_565
Ca3 O16 2.342734 1_555
Ca3 O9 2.342734 1_555
Ca3 O18 2.342734 1_555
Ca3 O11 2.518332 1_555
Ca3 O7 2.518332 1_555
Ca3 O21 2.518332 1_555
Ca3 O10 2.518332 1_565
Ca4 O17 2.342734 1_555
Ca4 O12 2.342734 1_556
Ca4 O14 2.342734 1_555
Ca4 O0 2.342734 1_555
Ca4 O2 2.518332 1_555
Ca4 O22 2.518332 1_556
Ca4 O15 2.518332 1_555
Ca4 O13 2.518332 1_555
Ca5 O20 2.342734 1_556
Ca5 O10 2.342734 1_555
Ca5 O13 2.342734 1_555
Ca5 O5 2.342734 1_555
Ca5 O23 2.518332 1_555
Ca5 O4 2.518332 1_556
Ca5 O0 2.518332 1_555
Ca5 O3 2.518332 1_555
Ca6 O35 2.342734 1_555
Ca6 O40 2.342734 1_555
Ca6 O25 2.342734 1_555
Ca6 O44 2.342734 1_455
Ca6 O19 2.518332 1_555
Ca6 O30 2.518332 1_555
Ca6 O37 2.518332 1_455
Ca6 O38 2.518332 1_555
Ca7 O33 2.342734 1_555
Ca7 O30 2.342734 1_555
Ca7 O34 2.342734 1_455
Ca7 O28 2.342734 1_555
Ca7 O43 2.518332 1_555
Ca7 O25 2.518332 1_555
Ca7 O39 2.518332 1_455
Ca7 O36 2.518332 1_555
Ca8 O26 2.342734 1_555
Ca8 O19 2.342734 1_555
Ca8 O31 2.342734 1_555
Ca8 O32 2.342734 1_545
Ca8 O41 2.518332 1_555
Ca8 O29 2.518332 1_545
Ca8 O46 2.518332 1_555
Ca8 O35 2.518332 1_555
Ca9 O37 2.342734 1_555
Ca9 O39 2.342734 1_555
Ca9 O46 2.342734 1_555
Ca9 O27 2.342734 1_545
Ca9 O31 2.518332 1_555
Ca9 O44 2.518332 1_555
Ca9 O45 2.518332 1_545
Ca9 O34 2.518332 1_555
Ca10 O38 2.342734 1_555
Ca10 O41 2.342734 1_555
Ca10 O24 2.342734 1_555
Ca10 O43 2.342734 1_554
Ca10 O33 2.518332 1_554
Ca10 O40 2.518332 1_555
Ca10 O26 2.518332 1_555
Ca10 O42 2.518332 1_555
Ca11 O42 2.342734 1_555
Ca11 O29 2.342734 1_555
Ca11 O45 2.342734 1_555
Ca11 O36 2.342734 1_554
Ca11 O24 2.518332 1_555
Ca11 O27 2.518332 1_555
Ca11 O28 2.518332 1_554
Ca11 O32 2.518332 1_555
Al0 O41 1.941774 1_555
Al0 O40 1.941774 1_555
Al0 O19 1.941774 1_555
Al0 O8 1.941774 1_444
Al0 O15 1.941774 1_444
Al0 O14 1.941774 1_444
Al1 O5 1.941774 1_554
Al1 O7 1.941774 1_544
Al1 O3 1.941774 1_554
Al1 O31 1.941774 1_555
Al1 O29 1.941774 1_545
Al1 O27 1.941774 1_545
Al2 O43 1.941774 1_554
Al2 O13 1.941774 1_554
Al2 O42 1.941774 1_555
Al2 O12 1.941774 1_555
Al2 O4 1.941774 1_555
Al2 O28 1.941774 1_554
Al3 O6 1.941774 1_455
Al3 O44 1.941774 1_455
Al3 O11 1.941774 1_555
Al3 O30 1.941774 1_555
Al3 O16 1.941774 1_555
Al3 O39 1.941774 1_455
Al4 O18 1.941774 1_545
Al4 O1 1.941774 1_445
Al4 O25 1.941774 1_555
Al4 O37 1.941774 1_455
Al4 O34 1.941774 1_455
Al4 O21 1.941774 1_545
Al5 O38 1.941774 1_555
Al5 O26 1.941774 1_555
Al5 O35 1.941774 1_555
Al5 O47 1.941774 1_555
Al5 O2 1.941774 1_555
Al5 O17 1.941774 1_555
Al6 O22 1.941774 1_455
Al6 O0 1.941774 1_454
Al6 O20 1.941774 1_455
Al6 O24 1.941774 1_555
Al6 O33 1.941774 1_554
Al6 O36 1.941774 1_554
Al7 O9 1.941774 1_545
Al7 O32 1.941774 1_545
Al7 O23 1.941774 1_555
Al7 O46 1.941774 1_555
Al7 O10 1.941774 1_555
Al7 O45 1.941774 1_545
O0 Si10 1.663836 1_555
O1 Si3 1.663836 1_555
O2 Si6 1.663836 1_555
O3 Si7 1.663836 1_555
O4 Si8 1.663836 1_555
O5 Si11 1.663836 1_556
O6 Si8 1.663836 1_555
O7 Si6 1.663836 1_555
O8 Si4 1.663836 1_565
O9 Si2 1.663836 1_555
O10 Si5 1.663836 1_555
O11 Si0 1.663836 1_555
O12 Si1 1.663836 1_555
O13 Si5 1.663836 1_555
O14 Si1 1.663836 1_556
O15 Si0 1.663836 1_655
O16 Si2 1.663836 1_555
O17 Si10 1.663836 1_555
O18 Si7 1.663836 1_565
O19 Si9 1.663836 1_545
O20 Si11 1.663836 1_555
O21 Si9 1.663836 1_555
O22 Si9 1.663836 1_655
O23 Si4 1.663836 1_555
O24 Si2 1.663836 1_555
O25 Si5 1.663836 1_555
O26 Si8 1.663836 1_555
O27 Si1 1.663836 1_555
O28 Si6 1.663836 1_555
O29 Si0 1.663836 1_554
O30 Si6 1.663836 1_555
O31 Si8 1.663836 1_555
O32 Si9 1.663836 1_555
O33 Si4 1.663836 1_455
O34 Si4 1.663836 1_555
O35 Si5 1.663836 1_555
O36 Si0 1.663836 1_555
O37 Si1 1.663836 1_545
O38 Si2 1.663836 1_555
O39 Si10 1.663836 1_555
O40 Si11 1.663836 1_455
O41 Si7 1.663836 1_554
O42 Si3 1.663836 1_555
O43 Si7 1.663836 1_555
O44 Si11 1.663836 1_555
O45 Si3 1.663836 1_555
O46 Si10 1.663836 1_555
O47 Si3 1.663836 1_555
