# generated using pymatgen
data_Sc2(Ni7B2)3
_symmetry_space_group_name_H-M   'P 1'
_cell_length_a   7.40091747
_cell_length_b   7.40091815
_cell_length_c   7.40086592
_cell_angle_alpha   60.00459286
_cell_angle_beta   60.00435797
_cell_angle_gamma   60.00395994
_symmetry_Int_Tables_number   1
_chemical_formula_structural   Sc2(Ni7B2)3
_chemical_formula_sum   'Sc2 Ni21 B6'
_cell_volume   286.66922536
_cell_formula_units_Z   1
loop_
 _symmetry_equiv_pos_site_id
 _symmetry_equiv_pos_as_xyz
  1  'x, y, z'
loop_
 _atom_site_type_symbol
 _atom_site_label
 _atom_site_symmetry_multiplicity
 _atom_site_fract_x
 _atom_site_fract_y
 _atom_site_fract_z
 _atom_site_occupancy
  Sc  Sc0  1  0.74999998  0.75001152  0.74999695  1
  Sc  Sc1  1  0.25000059  0.24998765  0.25000395  1
  Ni  Ni0  1  0.99999895  0.00000174  0.99999832  1
  Ni  Ni1  1  0.61457086  0.61457466  0.15629894  1
  Ni  Ni2  1  0.61455152  0.15630840  0.61457029  1
  Ni  Ni3  1  0.15630795  0.61455622  0.61457165  1
  Ni  Ni4  1  0.61456469  0.61457385  0.61455604  1
  Ni  Ni5  1  0.38543106  0.38542510  0.84369802  1
  Ni  Ni6  1  0.38544960  0.84368982  0.38543102  1
  Ni  Ni7  1  0.84368970  0.38544376  0.38543066  1
  Ni  Ni8  1  0.38543668  0.38542516  0.38544612  1
  Ni  Ni9  1  0.99999693  -0.00000116  0.33811264  1
  Ni  Ni10  1  0.66188623  0.00000211  0.33810887  1
  Ni  Ni11  1  0.99999628  0.66190019  0.33810459  1
  Ni  Ni12  1  0.66189580  0.33809738  0.00000356  1
  Ni  Ni13  1  -0.00000019  0.33809837  -0.00000157  1
  Ni  Ni14  1  0.00000315  0.33809659  0.66189862  1
  Ni  Ni15  1  0.33810717  0.66190149  0.99999455  1
  Ni  Ni16  1  0.33811023  1.00000070  0.66189039  1
  Ni  Ni17  1  0.33810981  -0.00000190  0.99999459  1
  Ni  Ni18  1  0.00000319  0.00000335  0.66188836  1
  Ni  Ni19  1  0.99999888  0.66190145  0.99999918  1
  Ni  Ni20  1  0.66189081  0.00000344  0.00000435  1
  B  B0  1  0.72935540  0.72935788  0.27064489  1
  B  B1  1  0.27063906  0.72936056  0.27064048  1
  B  B2  1  0.72935973  0.27063728  0.27064124  1
  B  B3  1  0.27064528  0.27064214  0.72935477  1
  B  B4  1  0.72936047  0.27063970  0.72935932  1
  B  B5  1  0.27064020  0.72936256  0.72935921  1
loop_
_geom_bond_atom_site_label_1
_geom_bond_atom_site_label_2
_geom_bond_distance
_geom_bond_site_symmetry_2
Ni0 Ni13 2.502229 1_656
Ni0 Ni19 2.502250 1_545
Ni0 Ni20 2.502282 1_556
Ni0 Ni18 2.502285 1_655
Ni0 Ni17 2.502303 1_655
Ni0 Ni9 2.502321 1_556
Ni0 Ni14 2.502395 1_655
Ni0 Ni12 2.502396 1_556
Ni0 Ni15 2.502431 1_645
Ni0 Ni11 2.502444 1_546
Ni0 Ni16 2.502477 1_645
Ni0 Ni10 2.502492 1_556
Ni1 Sc0 2.455336 1_554
Ni2 Sc0 2.455312 1_545
Ni3 Sc0 2.455373 1_455
Ni4 Sc0 2.455198 1_555
Ni5 Sc1 2.455360 1_556
Ni6 Sc1 2.455318 1_565
Ni7 Sc1 2.455391 1_655
Ni8 Sc1 2.455209 1_555
B0 Ni11 2.064285 1_555
B0 Ni10 2.064295 1_565
B0 Ni19 2.064414 1_554
B0 Ni20 2.064420 1_565
B0 Ni1 2.078138 1_555
B0 Ni6 2.078270 1_555
B0 Ni4 2.078301 1_555
B0 Ni7 2.078325 1_555
B1 Ni15 2.064279 1_554
B1 Ni11 2.064294 1_455
B1 Ni9 2.064404 1_465
B1 Ni17 2.064427 1_564
B1 Ni6 2.078239 1_555
B1 Ni3 2.078422 1_555
B1 Ni1 2.078427 1_555
B1 Ni8 2.078454 1_555
B2 Ni12 2.064267 1_555
B2 Ni10 2.064290 1_555
B2 Ni9 2.064391 1_555
B2 Ni13 2.064408 1_655
B2 Ni7 2.078212 1_555
B2 Ni8 2.078374 1_555
B2 Ni2 2.078409 1_555
B2 Ni1 2.078466 1_555
B3 Ni14 2.064287 1_555
B3 Ni16 2.064289 1_545
B3 Ni13 2.064410 1_556
B3 Ni17 2.064412 1_555
B3 Ni5 2.078128 1_555
B3 Ni2 2.078272 1_555
B3 Ni8 2.078286 1_555
B3 Ni3 2.078325 1_555
B4 Ni12 2.064270 1_556
B4 Ni14 2.064286 1_655
B4 Ni18 2.064395 1_655
B4 Ni20 2.064417 1_556
B4 Ni2 2.078233 1_555
B4 Ni7 2.078407 1_555
B4 Ni5 2.078412 1_555
B4 Ni4 2.078446 1_555
B5 Ni15 2.064261 1_555
B5 Ni16 2.064292 1_555
B5 Ni18 2.064396 1_565
B5 Ni19 2.064406 1_455
B5 Ni3 2.078214 1_555
B5 Ni4 2.078383 1_555
B5 Ni6 2.078404 1_555
B5 Ni5 2.078466 1_555
