# generated using pymatgen
data_CeSiHRu
_symmetry_space_group_name_H-M   'P 1'
_cell_length_a   4.17474600
_cell_length_b   4.17474600
_cell_length_c   7.23040900
_cell_angle_alpha   90.00000000
_cell_angle_beta   90.00000000
_cell_angle_gamma   90.00000000
_symmetry_Int_Tables_number   1
_chemical_formula_structural   CeSiHRu
_chemical_formula_sum   'Ce2 Si2 H2 Ru2'
_cell_volume   126.01521337
_cell_formula_units_Z   2
loop_
 _symmetry_equiv_pos_site_id
 _symmetry_equiv_pos_as_xyz
  1  'x, y, z'
loop_
 _atom_site_type_symbol
 _atom_site_label
 _atom_site_symmetry_multiplicity
 _atom_site_fract_x
 _atom_site_fract_y
 _atom_site_fract_z
 _atom_site_occupancy
  Ce  Ce0  1  0.50000000  0.00000000  0.66962100  1
  Ce  Ce1  1  0.00000000  0.50000000  0.33037900  1
  Si  Si0  1  0.50000000  0.00000000  0.16298200  1
  Si  Si1  1  0.00000000  0.50000000  0.83701800  1
  H  H0  1  0.00000000  0.00000000  0.50000000  1
  H  H1  1  0.50000000  0.50000000  0.50000000  1
  Ru  Ru0  1  0.00000000  0.00000000  0.00000000  1
  Ru  Ru1  1  0.50000000  0.50000000  0.00000000  1
loop_
_geom_bond_atom_site_label_1
_geom_bond_atom_site_label_2
_geom_bond_distance
_geom_bond_site_symmetry_2
Ce0 H0 2.421003 1_555
Ce0 H0 2.421003 1_655
Ce0 H1 2.421003 1_555
Ce0 H1 2.421003 1_545
Ce1 H0 2.421003 1_555
Ce1 H1 2.421003 1_555
Ce1 H1 2.421003 1_455
Ce1 H0 2.421003 1_565
Ru0 Si0 2.397043 1_455
Ru0 Si0 2.397043 1_555
Ru0 Si1 2.397043 1_554
Ru0 Si1 2.397043 1_544
Ru1 Si0 2.397043 1_555
Ru1 Si0 2.397043 1_565
Ru1 Si1 2.397043 1_654
Ru1 Si1 2.397043 1_554
