# generated using pymatgen
data_Ba2CeC3O9F
_symmetry_space_group_name_H-M   'P 1'
_cell_length_a   5.16264200
_cell_length_b   6.69905000
_cell_length_c   13.29881696
_cell_angle_alpha   77.30254131
_cell_angle_beta   90.00000000
_cell_angle_gamma   90.00000000
_symmetry_Int_Tables_number   1
_chemical_formula_structural   Ba2CeC3O9F
_chemical_formula_sum   'Ba4 Ce2 C6 O18 F2'
_cell_volume   448.68880216
_cell_formula_units_Z   2
loop_
 _symmetry_equiv_pos_site_id
 _symmetry_equiv_pos_as_xyz
  1  'x, y, z'
loop_
 _atom_site_type_symbol
 _atom_site_label
 _atom_site_symmetry_multiplicity
 _atom_site_fract_x
 _atom_site_fract_y
 _atom_site_fract_z
 _atom_site_occupancy
  Ba  Ba0  1  0.25000000  0.27339800  0.41652500  1
  Ba  Ba1  1  0.25000000  0.21459000  0.07500600  1
  Ba  Ba2  1  0.75000000  0.72660200  0.58347500  1
  Ba  Ba3  1  0.75000000  0.78541000  0.92499400  1
  Ce  Ce0  1  0.75000000  0.77175800  0.23920600  1
  Ce  Ce1  1  0.25000000  0.22824200  0.76079400  1
  C  C0  1  0.25000000  0.66813800  0.12882200  1
  C  C1  1  0.25000000  0.78543100  0.72704000  1
  C  C2  1  0.75000000  0.21456900  0.27296000  1
  C  C3  1  0.25000000  0.74648500  0.42611800  1
  C  C4  1  0.75000000  0.25351500  0.57388200  1
  C  C5  1  0.75000000  0.33186200  0.87117800  1
  O  O0  1  0.03161000  0.67992500  0.39641400  1
  O  O1  1  0.03405100  0.87901100  0.73718000  1
  O  O2  1  0.25000000  0.86436100  0.49062500  1
  O  O3  1  0.53161000  0.32007500  0.60358600  1
  O  O4  1  0.96944800  0.40122300  0.89555100  1
  O  O5  1  0.46594900  0.87901100  0.73718000  1
  O  O6  1  0.03055200  0.59877700  0.10444900  1
  O  O7  1  0.25000000  0.80757700  0.18404000  1
  O  O8  1  0.96839000  0.32007500  0.60358600  1
  O  O9  1  0.96594900  0.12098900  0.26282000  1
  O  O10  1  0.25000000  0.60890100  0.70258300  1
  O  O11  1  0.46944800  0.59877700  0.10444900  1
  O  O12  1  0.75000000  0.13563900  0.50937500  1
  O  O13  1  0.75000000  0.19242300  0.81596000  1
  O  O14  1  0.53405100  0.12098900  0.26282000  1
  O  O15  1  0.53055200  0.40122300  0.89555100  1
  O  O16  1  0.46839000  0.67992500  0.39641400  1
  O  O17  1  0.75000000  0.39109900  0.29741700  1
  F  F0  1  0.75000000  0.01423500  0.07435200  1
  F  F1  1  0.25000000  0.98576500  0.92564800  1
loop_
_geom_bond_atom_site_label_1
_geom_bond_atom_site_label_2
_geom_bond_distance
_geom_bond_site_symmetry_2
Ba0 O2 2.700466 1_545
Ba0 O14 2.879011 1_555
Ba0 O9 2.879011 1_455
Ba0 O0 2.905018 1_555
Ba0 O16 2.905018 1_555
Ba0 O12 2.922097 1_555
Ba0 O12 2.922097 1_455
Ba0 O8 2.956691 1_455
Ba0 O3 2.956691 1_555
Ba0 O17 3.040546 1_455
Ba0 O17 3.040546 1_555
Ba1 F1 2.762906 1_544
Ba1 O7 2.792647 1_545
Ba1 O4 2.836347 1_454
Ba1 O15 2.836347 1_554
Ba1 O14 2.844942 1_555
Ba1 O9 2.844942 1_455
Ba1 F0 2.910308 1_555
Ba1 F0 2.910308 1_455
Ba1 O11 2.916116 1_555
Ba1 O6 2.916116 1_555
Ba2 O12 2.700466 1_565
Ba2 O1 2.879011 1_655
Ba2 O5 2.879011 1_555
Ba2 O8 2.905018 1_555
Ba2 O3 2.905018 1_555
Ba2 O2 2.922097 1_655
Ba2 O2 2.922097 1_555
Ba2 O0 2.956691 1_655
Ba2 O16 2.956691 1_555
Ba2 O10 3.040546 1_555
Ba2 O10 3.040546 1_655
Ba3 F0 2.762906 1_566
Ba3 O13 2.792647 1_565
Ba3 O6 2.836347 1_656
Ba3 O11 2.836347 1_556
Ba3 O1 2.844942 1_655
Ba3 O5 2.844942 1_555
Ba3 F1 2.910308 1_655
Ba3 F1 2.910308 1_555
Ba3 O4 2.916116 1_555
Ba3 O15 2.916116 1_555
Ce0 F0 2.424767 1_565
Ce0 O17 2.496846 1_555
Ce0 O0 2.509518 1_655
Ce0 O16 2.509518 1_555
Ce0 O9 2.671678 1_565
Ce0 O14 2.671678 1_565
Ce0 O7 2.679858 1_655
Ce0 O7 2.679858 1_555
Ce0 O6 2.750501 1_655
Ce0 O11 2.750501 1_555
Ce1 F1 2.424767 1_545
Ce1 O10 2.496846 1_555
Ce1 O8 2.509518 1_455
Ce1 O3 2.509518 1_555
Ce1 O1 2.671678 1_545
Ce1 O5 2.671678 1_545
Ce1 O13 2.679858 1_455
Ce1 O13 2.679858 1_555
Ce1 O15 2.750501 1_555
Ce1 O4 2.750501 1_455
C0 O11 1.292558 1_555
C0 O6 1.292558 1_555
C0 O7 1.308951 1_555
C1 O10 1.293591 1_555
C1 O5 1.300491 1_555
C1 O1 1.300491 1_555
C2 O17 1.293591 1_555
C2 O9 1.300491 1_555
C2 O14 1.300491 1_555
C3 O2 1.287359 1_555
C3 O16 1.305175 1_555
C3 O0 1.305175 1_555
C4 O12 1.287359 1_555
C4 O3 1.305175 1_555
C4 O8 1.305175 1_555
C5 O15 1.292558 1_555
C5 O4 1.292558 1_555
C5 O13 1.308951 1_555
