# generated using pymatgen
data_Ba2LaCu3O7
_symmetry_space_group_name_H-M   'P 1'
_cell_length_a   3.91203300
_cell_length_b   3.97857500
_cell_length_c   11.90092500
_cell_angle_alpha   90.00000000
_cell_angle_beta   90.00000000
_cell_angle_gamma   90.00000000
_symmetry_Int_Tables_number   1
_chemical_formula_structural   Ba2LaCu3O7
_chemical_formula_sum   'Ba2 La1 Cu3 O7'
_cell_volume   185.22976564
_cell_formula_units_Z   1
loop_
 _symmetry_equiv_pos_site_id
 _symmetry_equiv_pos_as_xyz
  1  'x, y, z'
loop_
 _atom_site_type_symbol
 _atom_site_label
 _atom_site_symmetry_multiplicity
 _atom_site_fract_x
 _atom_site_fract_y
 _atom_site_fract_z
 _atom_site_occupancy
  Ba  Ba0  1  0.00000000  0.00000000  0.17901600  1
  Ba  Ba1  1  0.00000000  0.00000000  0.82098400  1
  La  La0  1  0.00000000  0.00000000  0.50000000  1
  Cu  Cu0  1  0.50000000  0.50000000  0.34430700  1
  Cu  Cu1  1  0.50000000  0.50000000  0.65569300  1
  Cu  Cu2  1  0.50000000  0.50000000  0.00000000  1
  O  O0  1  0.50000000  0.50000000  0.84239600  1
  O  O1  1  0.50000000  0.00000000  0.00000000  1
  O  O2  1  0.50000000  0.00000000  0.36631700  1
  O  O3  1  0.00000000  0.50000000  0.63093900  1
  O  O4  1  0.50000000  0.50000000  0.15760400  1
  O  O5  1  0.50000000  0.00000000  0.63368300  1
  O  O6  1  0.00000000  0.50000000  0.36906100  1
loop_
_geom_bond_atom_site_label_1
_geom_bond_atom_site_label_2
_geom_bond_distance
_geom_bond_site_symmetry_2
Ba0 O4 2.801464 1_455
Ba0 O4 2.801464 1_555
Ba0 O4 2.801464 1_545
Ba0 O4 2.801464 1_445
Ba0 O1 2.892204 1_555
Ba0 O1 2.892204 1_455
Ba0 O2 2.965584 1_455
Ba0 O2 2.965584 1_555
Ba0 O6 3.012076 1_555
Ba0 O6 3.012076 1_545
Ba1 O0 2.801464 1_445
Ba1 O0 2.801464 1_555
Ba1 O0 2.801464 1_545
Ba1 O0 2.801464 1_455
Ba1 O1 2.892204 1_456
Ba1 O1 2.892204 1_556
Ba1 O5 2.965584 1_455
Ba1 O5 2.965584 1_555
Ba1 O3 3.012076 1_555
Ba1 O3 3.012076 1_545
La0 O2 2.521334 1_455
La0 O5 2.521334 1_555
La0 O5 2.521334 1_455
La0 O2 2.521334 1_555
La0 O6 2.526964 1_545
La0 O3 2.526964 1_545
La0 O3 2.526964 1_555
La0 O6 2.526964 1_555
Cu0 O6 1.978077 1_555
Cu0 O6 1.978077 1_655
Cu0 O2 2.006459 1_555
Cu0 O2 2.006459 1_565
Cu0 O4 2.221938 1_555
Cu1 O3 1.978077 1_555
Cu1 O3 1.978077 1_655
Cu1 O5 2.006459 1_555
Cu1 O5 2.006459 1_565
Cu1 O0 2.221938 1_555
Cu2 O0 1.875633 1_554
Cu2 O4 1.875633 1_555
Cu2 O1 1.989288 1_565
Cu2 O1 1.989288 1_555
