# generated using pymatgen
data_KMnF3
_symmetry_space_group_name_H-M   'P 1'
_cell_length_a   8.54043400
_cell_length_b   6.01211000
_cell_length_c   6.04495373
_cell_angle_alpha   89.97188741
_cell_angle_beta   90.00000000
_cell_angle_gamma   90.00000000
_symmetry_Int_Tables_number   1
_chemical_formula_structural   KMnF3
_chemical_formula_sum   'K4 Mn4 F12'
_cell_volume   310.38432996
_cell_formula_units_Z   4
loop_
 _symmetry_equiv_pos_site_id
 _symmetry_equiv_pos_as_xyz
  1  'x, y, z'
loop_
 _atom_site_type_symbol
 _atom_site_label
 _atom_site_symmetry_multiplicity
 _atom_site_fract_x
 _atom_site_fract_y
 _atom_site_fract_z
 _atom_site_occupancy
  K  K0  1  0.25000000  0.99567700  0.50413200  1
  K  K1  1  0.75000000  0.00432300  0.49586800  1
  K  K2  1  0.25000000  0.49698200  0.00784000  1
  K  K3  1  0.75000000  0.50301800  0.99216000  1
  Mn  Mn0  1  0.00000000  0.00000000  0.00000000  1
  Mn  Mn1  1  0.50000000  0.00000000  0.00000000  1
  Mn  Mn2  1  0.00000000  0.50000000  0.50000000  1
  Mn  Mn3  1  0.50000000  0.50000000  0.50000000  1
  F  F0  1  0.25000000  0.00313900  0.98890100  1
  F  F1  1  0.75000000  0.99686100  0.01109900  1
  F  F2  1  0.25000000  0.49878700  0.50269300  1
  F  F3  1  0.75000000  0.50121300  0.49730700  1
  F  F4  1  0.00650700  0.73565400  0.23617900  1
  F  F5  1  0.99349300  0.26434600  0.76382100  1
  F  F6  1  0.50650700  0.26434600  0.76382100  1
  F  F7  1  0.49349300  0.73565400  0.23617900  1
  F  F8  1  0.00270600  0.23518000  0.26421800  1
  F  F9  1  0.99729400  0.76482000  0.73578200  1
  F  F10  1  0.50270600  0.76482000  0.73578200  1
  F  F11  1  0.49729400  0.23518000  0.26421800  1
loop_
_geom_bond_atom_site_label_1
_geom_bond_atom_site_label_2
_geom_bond_distance
_geom_bond_site_symmetry_2
F0 Mn0 2.136245 1_556
F0 Mn1 2.136245 1_556
F0 K0 2.930772 1_545
F0 K2 2.971301 1_556
F0 K2 3.045168 1_546
F0 K0 3.114849 1_546
F1 Mn0 2.136245 1_665
F1 Mn1 2.136245 1_565
F1 K1 2.930772 1_565
F1 K3 2.971301 1_554
F1 K3 3.045168 1_564
F1 K1 3.114849 1_564
F2 Mn2 2.135183 1_555
F2 Mn3 2.135183 1_555
F2 K0 2.987374 1_555
F2 K2 2.991388 1_555
F2 K0 3.024761 1_545
F2 K2 3.053604 1_556
F3 Mn2 2.135183 1_655
F3 Mn3 2.135183 1_555
F3 K1 2.987374 1_555
F3 K3 2.991388 1_555
F3 K1 3.024761 1_565
F3 K3 3.053604 1_554
F4 Mn2 2.133418 1_555
F4 Mn0 2.136578 1_565
F4 K2 2.879347 1_555
F4 K3 2.988838 1_454
F4 K0 3.065037 1_555
F4 K1 3.142445 1_465
F5 Mn2 2.133418 1_655
F5 Mn0 2.136578 1_656
F5 K3 2.879347 1_555
F5 K2 2.988838 1_656
F5 K1 3.065037 1_555
F5 K0 3.142445 1_645
F6 Mn3 2.133418 1_555
F6 Mn1 2.136578 1_556
F6 K3 2.879347 1_555
F6 K2 2.988838 1_556
F6 K1 3.065037 1_555
F6 K0 3.142445 1_545
F7 Mn3 2.133418 1_555
F7 Mn1 2.136578 1_565
F7 K2 2.879347 1_555
F7 K3 2.988838 1_554
F7 K0 3.065037 1_555
F7 K1 3.142445 1_565
F8 Mn0 2.133763 1_555
F8 Mn2 2.137542 1_555
F8 K1 2.922884 1_455
F8 K0 2.938559 1_545
F8 K2 3.055719 1_555
F8 K3 3.154825 1_454
F9 Mn0 2.133763 1_666
F9 Mn2 2.137542 1_655
F9 K0 2.922884 1_655
F9 K1 2.938559 1_565
F9 K3 3.055719 1_555
F9 K2 3.154825 1_656
F10 Mn1 2.133763 1_566
F10 Mn3 2.137542 1_555
F10 K0 2.922884 1_555
F10 K1 2.938559 1_565
F10 K3 3.055719 1_555
F10 K2 3.154825 1_556
F11 Mn1 2.133763 1_555
F11 Mn3 2.137542 1_555
F11 K1 2.922884 1_555
F11 K0 2.938559 1_545
F11 K2 3.055719 1_555
F11 K3 3.154825 1_554
