# generated using pymatgen
data_KCa2P4H11O18
_symmetry_space_group_name_H-M   'P 1'
_cell_length_a   5.70083200
_cell_length_b   6.35358871
_cell_length_c   12.28593753
_cell_angle_alpha   103.51624856
_cell_angle_beta   84.38692346
_cell_angle_gamma   115.00170531
_symmetry_Int_Tables_number   1
_chemical_formula_structural   KCa2P4H11O18
_chemical_formula_sum   'K1 Ca2 P4 H11 O18'
_cell_volume   392.13625076
_cell_formula_units_Z   1
loop_
 _symmetry_equiv_pos_site_id
 _symmetry_equiv_pos_as_xyz
  1  'x, y, z'
loop_
 _atom_site_type_symbol
 _atom_site_label
 _atom_site_symmetry_multiplicity
 _atom_site_fract_x
 _atom_site_fract_y
 _atom_site_fract_z
 _atom_site_occupancy
  K  K0  1  0.51088400  0.01442400  0.46568400  1
  Ca  Ca0  1  0.99664000  0.29383500  0.09460800  1
  Ca  Ca1  1  0.00322600  0.69904800  0.89451400  1
  P  P0  1  0.85827200  0.62718200  0.36182400  1
  P  P1  1  0.49938700  0.20862800  0.90019200  1
  P  P2  1  0.50461200  0.78804400  0.08984800  1
  P  P3  1  0.16570200  0.38328600  0.63350200  1
  H  H0  1  0.01063800  0.50104500  0.49836100  1
  H  H1  1  0.96867800  0.93626300  0.69985300  1
  H  H2  1  0.73449700  0.68823300  0.69249400  1
  H  H3  1  0.52323000  0.50189300  0.48791100  1
  H  H4  1  0.63399000  0.59203400  0.18751800  1
  H  H5  1  0.37629200  0.07043500  0.19207700  1
  H  H6  1  0.62362800  0.93318300  0.79169200  1
  H  H7  1  0.36798000  0.41001000  0.80737900  1
  H  H8  1  0.26219900  0.31108100  0.30134500  1
  H  H9  1  0.02351000  0.01943500  0.51589000  1
  H  H10  1  0.04331600  0.05705500  0.29744000  1
  O  O0  1  0.94933000  0.40807900  0.57696800  1
  O  O1  1  0.75219500  0.31730800  0.96382000  1
  O  O2  1  0.85883500  0.55752200  0.23409400  1
  O  O3  1  0.85030100  0.82752000  0.74706300  1
  O  O4  1  0.90304500  0.89267700  0.40164000  1
  O  O5  1  0.53446100  0.03525000  0.17093600  1
  O  O6  1  0.53360400  0.40195200  0.83084700  1
  O  O7  1  0.58078100  0.46050300  0.40178100  1
  O  O8  1  0.24554200  0.13808900  0.96373600  1
  O  O9  1  0.76155100  0.85593500  0.02924500  1
  O  O10  1  0.43870600  0.53672500  0.59625400  1
  O  O11  1  0.47025300  0.60501400  0.16609500  1
  O  O12  1  0.11675900  0.10565400  0.59311300  1
  O  O13  1  0.46491100  0.96653100  0.81337400  1
  O  O14  1  0.15266500  0.16727100  0.24794300  1
  O  O15  1  0.14101100  0.42761800  0.76076900  1
  O  O16  1  0.25477300  0.67255500  0.02367300  1
  O  O17  1  0.06889500  0.58888500  0.41604800  1
loop_
_geom_bond_atom_site_label_1
_geom_bond_atom_site_label_2
_geom_bond_distance
_geom_bond_site_symmetry_2
K0 O4 2.654947 1_545
K0 O17 2.793225 1_545
K0 O12 2.797121 1_555
K0 O0 2.856240 1_555
K0 O7 2.971899 1_555
Ca0 O1 2.296063 1_554
Ca0 O8 2.361091 1_654
Ca0 O2 2.422382 1_555
Ca0 O9 2.489202 1_545
Ca0 O16 2.539927 1_655
Ca0 O14 2.574344 1_655
Ca0 O5 2.664315 1_555
Ca0 O11 2.666488 1_655
Ca1 O16 2.318808 1_556
Ca1 O9 2.361199 1_456
Ca1 O15 2.420552 1_555
Ca1 O8 2.505280 1_565
Ca1 O3 2.511930 1_455
Ca1 O1 2.539430 1_455
Ca1 O6 2.605815 1_455
Ca1 O13 2.703153 1_555
H0 O0 1.195765 1_455
H0 O17 1.218989 1_555
H1 O3 0.992887 1_555
H2 O3 0.991908 1_555
H3 O7 1.082357 1_555
H3 O10 1.371112 1_555
H4 O11 1.034726 1_555
H4 O2 1.567887 1_555
H5 O5 1.013866 1_555
H6 O13 1.011469 1_555
H7 O6 1.038399 1_555
H7 O15 1.520494 1_555
H8 O14 0.986348 1_555
H9 O12 1.045171 1_555
H9 O4 1.511010 1_445
H9 K0 2.798489 1_555
H10 O14 1.002341 1_555
O0 P3 1.552983 1_655
O1 P1 1.513892 1_555
O2 P0 1.527776 1_555
O4 P0 1.557130 1_555
O5 P2 1.601311 1_545
O6 P1 1.589575 1_555
O7 P0 1.593736 1_555
O8 P1 1.516195 1_555
O9 P2 1.512840 1_555
O10 P3 1.539071 1_555
O11 P2 1.596560 1_555
O12 P3 1.624049 1_555
O13 P1 1.600281 1_565
O15 P3 1.525965 1_555
O16 P2 1.514025 1_555
O17 P0 1.556913 1_455
