# generated using pymatgen
data_MnGa
_symmetry_space_group_name_H-M   'P 1'
_cell_length_a   7.76412757
_cell_length_b   7.76413757
_cell_length_c   7.76434989
_cell_angle_alpha   109.27496330
_cell_angle_beta   109.27566597
_cell_angle_gamma   109.27491924
_symmetry_Int_Tables_number   1
_chemical_formula_structural   MnGa
_chemical_formula_sum   'Mn13 Ga13'
_cell_volume   362.89557243
_cell_formula_units_Z   13
loop_
 _symmetry_equiv_pos_site_id
 _symmetry_equiv_pos_as_xyz
  1  'x, y, z'
loop_
 _atom_site_type_symbol
 _atom_site_label
 _atom_site_symmetry_multiplicity
 _atom_site_fract_x
 _atom_site_fract_y
 _atom_site_fract_z
 _atom_site_occupancy
  Mn  Mn0  1  0.18785092  0.18784887  0.83097734  1
  Mn  Mn1  1  0.81995568  0.59906422  0.81996683  1
  Mn  Mn2  1  0.81996351  0.81995301  0.59906977  1
  Mn  Mn3  1  0.81215446  0.16902825  0.81214615  1
  Mn  Mn4  1  0.18005095  0.40094855  0.18003000  1
  Mn  Mn5  1  0.18003170  0.18003976  0.40091111  1
  Mn  Mn6  1  0.83096724  0.18783933  0.18784599  1
  Mn  Mn7  1  0.16903351  0.81214869  0.81214514  1
  Mn  Mn8  1  0.18783604  0.83096924  0.18784496  1
  Mn  Mn9  1  0.81215737  0.81215442  0.16901805  1
  Mn  Mn10  1  0.59904625  0.81993895  0.81995414  1
  Mn  Mn11  1  0.40096754  0.18006342  0.18005475  1
  Mn  Mn12  1  0.50000185  0.49999804  0.49999887  1
  Ga  Ga0  1  0.53829118  0.18720613  0.53835731  1
  Ga  Ga1  1  0.11738955  0.88263546  0.50000384  1
  Ga  Ga2  1  0.11738352  0.49999624  0.88259879  1
  Ga  Ga3  1  0.88262012  0.11737130  0.49999339  1
  Ga  Ga4  1  0.53834597  0.53836181  0.18721669  1
  Ga  Ga5  1  0.46168607  0.81281081  0.46169513  1
  Ga  Ga6  1  0.49999996  0.88260422  0.11738952  1
  Ga  Ga7  1  0.18719984  0.53833996  0.53828106  1
  Ga  Ga8  1  0.49999976  0.11737154  0.88261866  1
  Ga  Ga9  1  0.46164821  0.46165249  0.81278554  1
  Ga  Ga10  1  0.81281839  0.46165970  0.46172627  1
  Ga  Ga11  1  0.00000796  0.00000342  0.99998868  1
  Ga  Ga12  1  0.88258843  0.49999016  0.11738202  1
loop_
_geom_bond_atom_site_label_1
_geom_bond_atom_site_label_2
_geom_bond_distance
_geom_bond_site_symmetry_2
Mn0 Mn4 2.701902 1_556
Mn0 Mn11 2.702012 1_556
Mn0 Mn2 2.717001 1_445
Mn0 Mn3 2.823874 1_455
Mn0 Mn7 2.823913 1_545
Mn1 Mn12 2.517342 1_555
Mn1 Mn9 2.701864 1_556
Mn1 Mn7 2.702059 1_655
Mn1 Mn8 2.716934 1_656
Mn1 Mn10 2.797245 1_555
Mn1 Mn2 2.797296 1_555
Mn2 Mn7 2.701905 1_655
Mn2 Mn3 2.701983 1_565
Mn3 Mn4 2.717013 1_656
Mn3 Mn6 2.824051 1_556
Mn4 Mn6 2.702127 1_455
Mn4 Mn5 2.797322 1_555
Mn5 Mn6 2.701827 1_455
Mn5 Mn8 2.701911 1_545
Mn5 Mn9 2.716916 1_445
Mn6 Mn9 2.823823 1_545
Mn7 Mn8 2.824053 1_556
Mn8 Mn9 2.823760 1_455
Mn10 Mn12 2.517311 1_555
Mn10 Mn9 2.701911 1_556
Mn10 Mn3 2.702127 1_565
Mn10 Mn6 2.717072 1_566
Mn10 Mn2 2.797406 1_555
Mn11 Mn12 2.517262 1_555
Mn11 Mn8 2.702133 1_545
Mn11 Mn7 2.717190 1_544
Mn11 Mn5 2.797347 1_555
Mn11 Mn4 2.797356 1_555
Mn12 Mn2 2.517282 1_555
Mn12 Mn5 2.517288 1_555
Mn12 Mn4 2.517378 1_555
Ga0 Mn3 2.544016 1_555
Ga0 Ga5 2.576893 1_545
Ga0 Mn5 2.603438 1_555
Ga0 Mn11 2.603858 1_555
Ga0 Mn12 2.640207 1_555
Ga0 Mn1 2.720087 1_555
Ga0 Mn8 2.762805 1_545
Ga0 Ga9 2.848059 1_555
Ga0 Ga10 2.848442 1_555
Ga0 Ga8 2.983654 1_555
Ga0 Ga3 2.984289 1_555
Ga1 Mn8 2.590879 1_555
Ga1 Mn7 2.590932 1_555
Ga1 Mn0 2.591174 1_565
Ga1 Mn9 2.591222 1_455
Ga1 Mn5 2.615134 1_565
Ga1 Mn2 2.615155 1_455
Ga1 Ga8 2.827761 1_565
Ga1 Ga12 2.827913 1_455
Ga1 Ga3 2.972766 1_465
Ga1 Ga7 2.983721 1_555
Ga1 Ga5 2.983861 1_555
Ga2 Mn7 2.590815 1_555
Ga2 Mn0 2.590846 1_555
Ga2 Mn3 2.591189 1_455
Ga2 Mn8 2.591322 1_556
Ga2 Mn4 2.615135 1_556
Ga2 Mn1 2.615154 1_455
Ga2 Ga6 2.827711 1_556
Ga2 Ga3 2.827787 1_455
Ga2 Ga9 2.983675 1_555
Ga2 Ga7 2.984162 1_555
Ga3 Mn6 2.590888 1_555
Ga3 Mn3 2.590925 1_555
Ga3 Mn9 2.591192 1_545
Ga3 Mn0 2.591219 1_655
Ga3 Mn5 2.615135 1_655
Ga3 Mn2 2.615151 1_545
Ga3 Ga6 2.827746 1_545
Ga4 Mn9 2.543890 1_555
Ga4 Ga9 2.577003 1_554
Ga4 Mn4 2.603618 1_555
Ga4 Mn11 2.603722 1_555
Ga4 Mn12 2.640375 1_555
Ga4 Mn2 2.720023 1_555
Ga4 Mn0 2.762916 1_554
Ga4 Ga5 2.848385 1_555
Ga4 Ga6 2.983555 1_555
Ga5 Mn8 2.544141 1_555
Ga5 Mn10 2.603612 1_555
Ga5 Mn2 2.603627 1_555
Ga5 Mn12 2.640285 1_555
Ga5 Mn4 2.720138 1_555
Ga5 Mn3 2.762629 1_565
Ga5 Ga7 2.848091 1_555
Ga5 Ga6 2.983910 1_555
Ga6 Mn9 2.590830 1_555
Ga6 Mn8 2.590920 1_555
Ga6 Mn6 2.591196 1_565
Ga6 Mn7 2.591250 1_554
Ga6 Mn10 2.615170 1_554
Ga6 Mn11 2.615206 1_565
Ga6 Ga8 2.973018 1_564
Ga7 Mn7 2.544078 1_555
Ga7 Mn4 2.603504 1_555
Ga7 Mn5 2.603711 1_555
Ga7 Mn12 2.640216 1_555
Ga7 Mn10 2.720014 1_555
Ga7 Mn6 2.762711 1_455
Ga7 Ga9 2.848623 1_555
Ga8 Mn0 2.590880 1_555
Ga8 Mn3 2.590913 1_555
Ga8 Mn7 2.591087 1_545
Ga8 Mn6 2.591147 1_556
Ga8 Mn10 2.615087 1_545
Ga8 Mn11 2.615103 1_556
Ga8 Ga9 2.983886 1_555
Ga9 Mn0 2.543844 1_555
Ga9 Mn10 2.603620 1_555
Ga9 Mn1 2.603727 1_555
Ga9 Mn12 2.640384 1_555
Ga9 Mn5 2.720154 1_555
Ga9 Mn9 2.762906 1_556
Ga10 Mn6 2.544121 1_555
Ga10 Ga7 2.576832 1_655
Ga10 Mn1 2.603476 1_555
Ga10 Mn2 2.603735 1_555
Ga10 Mn12 2.640289 1_555
Ga10 Mn11 2.720032 1_555
Ga10 Mn7 2.762592 1_655
Ga10 Ga4 2.848832 1_555
Ga10 Ga3 2.983611 1_555
Ga10 Ga12 2.984172 1_555
Ga11 Mn2 2.561694 1_445
Ga11 Mn5 2.561727 1_556
Ga11 Mn1 2.561772 1_445
Ga11 Mn4 2.561808 1_556
Ga11 Mn11 2.561879 1_556
Ga11 Mn10 2.561900 1_445
Ga11 Mn0 2.664396 1_555
Ga11 Mn3 2.664488 1_455
Ga11 Mn8 2.664502 1_546
Ga11 Mn7 2.664519 1_545
Ga11 Mn9 2.664561 1_446
Ga11 Mn6 2.664599 1_456
Ga12 Mn9 2.590801 1_555
Ga12 Mn6 2.590868 1_555
Ga12 Mn8 2.591283 1_655
Ga12 Mn3 2.591288 1_554
Ga12 Mn1 2.615156 1_554
Ga12 Mn4 2.615268 1_655
Ga12 Ga8 2.827656 1_554
Ga12 Ga2 2.973283 1_654
Ga12 Ga4 2.983651 1_555
