# generated using pymatgen
data_TlSnPS4
_symmetry_space_group_name_H-M   'P 1'
_cell_length_a   6.79843900
_cell_length_b   8.95834400
_cell_length_c   12.22810700
_cell_angle_alpha   90.00000000
_cell_angle_beta   90.00000000
_cell_angle_gamma   90.00000000
_symmetry_Int_Tables_number   1
_chemical_formula_structural   TlSnPS4
_chemical_formula_sum   'Tl4 Sn4 P4 S16'
_cell_volume   744.72540749
_cell_formula_units_Z   4
loop_
 _symmetry_equiv_pos_site_id
 _symmetry_equiv_pos_as_xyz
  1  'x, y, z'
loop_
 _atom_site_type_symbol
 _atom_site_label
 _atom_site_symmetry_multiplicity
 _atom_site_fract_x
 _atom_site_fract_y
 _atom_site_fract_z
 _atom_site_occupancy
  Tl  Tl0  1  0.99762000  0.63212400  0.10985500  1
  Tl  Tl1  1  0.49762000  0.36787600  0.89014500  1
  Tl  Tl2  1  0.99762000  0.86787600  0.60985500  1
  Tl  Tl3  1  0.49762000  0.13212400  0.39014500  1
  Sn  Sn0  1  0.04714800  0.11458600  0.12936100  1
  Sn  Sn1  1  0.54714800  0.88541400  0.87063900  1
  Sn  Sn2  1  0.04714800  0.38541400  0.62936100  1
  Sn  Sn3  1  0.54714800  0.61458600  0.37063900  1
  P  P0  1  0.97650000  0.13124400  0.84514900  1
  P  P1  1  0.47650000  0.86875600  0.15485100  1
  P  P2  1  0.97650000  0.36875600  0.34514900  1
  P  P3  1  0.47650000  0.63124400  0.65485100  1
  S  S0  1  0.99330900  0.19668800  0.45732900  1
  S  S1  1  0.49330900  0.80331200  0.54267100  1
  S  S2  1  0.99330900  0.30331200  0.95732900  1
  S  S3  1  0.49330900  0.69668800  0.04267100  1
  S  S4  1  0.72417700  0.86658500  0.25142200  1
  S  S5  1  0.22417700  0.13341500  0.74857800  1
  S  S6  1  0.72417700  0.63341500  0.75142200  1
  S  S7  1  0.22417700  0.36658500  0.24857800  1
  S  S8  1  0.95131600  0.93142700  0.92967100  1
  S  S9  1  0.45131600  0.06857300  0.07032900  1
  S  S10  1  0.95131600  0.56857300  0.42967100  1
  S  S11  1  0.45131600  0.43142700  0.57032900  1
  S  S12  1  0.24133100  0.84384300  0.25629000  1
  S  S13  1  0.74133100  0.15615700  0.74371000  1
  S  S14  1  0.24133100  0.65615700  0.75629000  1
  S  S15  1  0.74133100  0.34384300  0.24371000  1
loop_
_geom_bond_atom_site_label_1
_geom_bond_atom_site_label_2
_geom_bond_distance
_geom_bond_site_symmetry_2
P0 S13 2.035810 1_555
P0 S5 2.056720 1_655
P0 S2 2.066593 1_555
P0 S8 2.074062 1_545
P1 S12 2.035810 1_555
P1 S4 2.056720 1_555
P1 S3 2.066593 1_555
P1 S9 2.074062 1_565
P2 S15 2.035810 1_555
P2 S7 2.056720 1_655
P2 S0 2.066593 1_555
P2 S10 2.074062 1_555
P3 S14 2.035810 1_555
P3 S6 2.056720 1_555
P3 S1 2.066593 1_555
P3 S11 2.074062 1_555
S0 Sn2 2.723525 1_655
S1 Sn3 2.723525 1_555
S2 Sn0 2.723525 1_656
S3 Sn1 2.723525 1_554
S4 Sn3 2.944472 1_555
S5 Sn2 2.944472 1_555
S6 Sn1 2.944472 1_555
S7 Sn0 2.944472 1_555
S8 Sn1 2.870696 1_555
S8 Sn0 3.013176 1_666
S9 Sn0 2.870696 1_555
S9 Sn1 3.013176 1_544
S10 Sn3 2.870696 1_555
S10 Sn2 3.013176 1_655
S11 Sn2 2.870696 1_555
S11 Sn3 3.013176 1_555
S12 Tl0 3.090111 1_455
S13 Tl1 3.090111 1_555
S14 Tl2 3.090111 1_455
S15 Tl3 3.090111 1_555
