# generated using pymatgen
data_BaMgH4
_symmetry_space_group_name_H-M   'P 1'
_cell_length_a   7.18482003
_cell_length_b   7.18482003
_cell_length_c   5.68794733
_cell_angle_alpha   90.00000000
_cell_angle_beta   90.00000000
_cell_angle_gamma   33.91581044
_symmetry_Int_Tables_number   1
_chemical_formula_structural   BaMgH4
_chemical_formula_sum   'Ba2 Mg2 H8'
_cell_volume   163.83301121
_cell_formula_units_Z   2
loop_
 _symmetry_equiv_pos_site_id
 _symmetry_equiv_pos_as_xyz
  1  'x, y, z'
loop_
 _atom_site_type_symbol
 _atom_site_label
 _atom_site_symmetry_multiplicity
 _atom_site_fract_x
 _atom_site_fract_y
 _atom_site_fract_z
 _atom_site_occupancy
  Ba  Ba0  1  0.36278888  0.36278888  0.25000000  1
  Ba  Ba1  1  0.63721112  0.63721112  0.75000000  1
  Mg  Mg0  1  0.09594935  0.09594935  0.25000000  1
  Mg  Mg1  1  0.90405065  0.90405065  0.75000000  1
  H  H0  1  0.18872313  0.18872313  0.49084947  1
  H  H1  1  0.81127687  0.81127687  0.50915053  1
  H  H2  1  0.18872313  0.18872313  0.00915053  1
  H  H3  1  0.81127687  0.81127687  0.99084947  1
  H  H4  1  0.58397609  0.58397609  0.25000000  1
  H  H5  1  0.41602391  0.41602391  0.75000000  1
  H  H6  1  -0.00000000  -0.00000000  0.50000000  1
  H  H7  1  -0.00000000  -0.00000000  0.00000000  1
loop_
_geom_bond_atom_site_label_1
_geom_bond_atom_site_label_2
_geom_bond_distance
_geom_bond_site_symmetry_2
Ba0 H3 2.658114 1_544
Ba0 H1 2.658114 1_545
Ba0 H3 2.658114 1_454
Ba0 H1 2.658114 1_455
Ba0 H2 2.756958 1_555
Ba0 H0 2.756958 1_555
Ba0 H5 2.936593 1_554
Ba0 H5 2.936593 1_555
Ba0 H4 3.040182 1_555
Ba1 H0 2.658114 1_565
Ba1 H0 2.658114 1_655
Ba1 H2 2.658114 1_656
Ba1 H2 2.658114 1_566
Ba1 H1 2.756958 1_555
Ba1 H3 2.756958 1_555
Ba1 H4 2.936593 1_555
Ba1 H4 2.936593 1_556
Ba1 H5 3.040182 1_555
H0 Mg0 1.871568 1_555
H1 Mg1 1.871568 1_555
H2 Mg0 1.871568 1_555
H3 Mg1 1.871568 1_555
H4 Mg0 2.102042 1_655
H4 Mg0 2.102042 1_565
H5 Mg1 2.102042 1_545
H5 Mg1 2.102042 1_455
H6 Mg0 1.939408 1_555
H6 Mg1 1.939408 1_445
H7 Mg0 1.939408 1_555
H7 Mg1 1.939408 1_444
