# generated using pymatgen
data_Ce3NbS3O4
_symmetry_space_group_name_H-M   'P 1'
_cell_length_a   7.03134500
_cell_length_b   7.56072500
_cell_length_c   14.57434000
_cell_angle_alpha   90.00000000
_cell_angle_beta   90.00000000
_cell_angle_gamma   90.00000000
_symmetry_Int_Tables_number   1
_chemical_formula_structural   Ce3NbS3O4
_chemical_formula_sum   'Ce12 Nb4 S12 O16'
_cell_volume   774.80202390
_cell_formula_units_Z   4
loop_
 _symmetry_equiv_pos_site_id
 _symmetry_equiv_pos_as_xyz
  1  'x, y, z'
loop_
 _atom_site_type_symbol
 _atom_site_label
 _atom_site_symmetry_multiplicity
 _atom_site_fract_x
 _atom_site_fract_y
 _atom_site_fract_z
 _atom_site_occupancy
  Ce  Ce0  1  0.71306100  0.24679600  0.15715300  1
  Ce  Ce1  1  0.78693900  0.24679600  0.65715300  1
  Ce  Ce2  1  0.71688600  0.50000000  0.91969800  1
  Ce  Ce3  1  0.21306100  0.24679600  0.34284700  1
  Ce  Ce4  1  0.28693900  0.75320400  0.84284700  1
  Ce  Ce5  1  0.21306100  0.75320400  0.34284700  1
  Ce  Ce6  1  0.28693900  0.24679600  0.84284700  1
  Ce  Ce7  1  0.21688600  0.50000000  0.58030200  1
  Ce  Ce8  1  0.28311400  0.50000000  0.08030200  1
  Ce  Ce9  1  0.78693900  0.75320400  0.65715300  1
  Ce  Ce10  1  0.71306100  0.75320400  0.15715300  1
  Ce  Ce11  1  0.78311400  0.50000000  0.41969800  1
  Nb  Nb0  1  0.74931600  0.00000000  0.43036800  1
  Nb  Nb1  1  0.75068400  0.00000000  0.93036800  1
  Nb  Nb2  1  0.25068400  0.00000000  0.56963200  1
  Nb  Nb3  1  0.24931600  0.00000000  0.06963200  1
  S  S0  1  0.50000000  0.75350400  0.50000000  1
  S  S1  1  0.97144500  0.00000000  0.79198000  1
  S  S2  1  0.02855500  0.00000000  0.20802000  1
  S  S3  1  0.52855500  0.00000000  0.29198000  1
  S  S4  1  0.00000000  0.75350400  0.00000000  1
  S  S5  1  0.50000000  0.24649600  0.50000000  1
  S  S6  1  0.00000000  0.24649600  0.00000000  1
  S  S7  1  0.47144500  0.00000000  0.70802000  1
  S  S8  1  0.50659800  0.50000000  0.72580600  1
  S  S9  1  0.99340200  0.50000000  0.22580600  1
  S  S10  1  0.00659800  0.50000000  0.77419400  1
  S  S11  1  0.49340200  0.50000000  0.27419400  1
  O  O0  1  0.62344800  0.79244600  0.88628700  1
  O  O1  1  0.86702600  0.50000000  0.57250600  1
  O  O2  1  0.37655200  0.20755400  0.11371300  1
  O  O3  1  0.12344800  0.20755400  0.61371300  1
  O  O4  1  0.31693900  0.00000000  0.94008600  1
  O  O5  1  0.81693900  0.00000000  0.55991400  1
  O  O6  1  0.13297400  0.50000000  0.42749400  1
  O  O7  1  0.87655200  0.20755400  0.38628700  1
  O  O8  1  0.18306100  0.00000000  0.44008600  1
  O  O9  1  0.87655200  0.79244600  0.38628700  1
  O  O10  1  0.37655200  0.79244600  0.11371300  1
  O  O11  1  0.12344800  0.79244600  0.61371300  1
  O  O12  1  0.63297400  0.50000000  0.07250600  1
  O  O13  1  0.36702600  0.50000000  0.92749400  1
  O  O14  1  0.62344800  0.20755400  0.88628700  1
  O  O15  1  0.68306100  0.00000000  0.05991400  1
loop_
_geom_bond_atom_site_label_1
_geom_bond_atom_site_label_2
_geom_bond_distance
_geom_bond_site_symmetry_2
Ce0 O12 2.346062 1_555
Ce0 O15 2.352601 1_555
Ce0 O2 2.467253 1_555
Ce0 S9 2.924316 1_555
Ce0 S2 2.992067 1_655
Ce0 S11 2.993353 1_555
Ce0 S3 3.004352 1_555
Ce0 S6 3.052298 1_655
Ce1 O1 2.346062 1_555
Ce1 O5 2.352601 1_555
Ce1 O3 2.467253 1_655
Ce1 S8 2.924316 1_555
Ce1 S7 2.992067 1_555
Ce1 S10 2.993353 1_655
Ce1 S1 3.004352 1_555
Ce1 S5 3.052298 1_555
Ce2 O12 2.303906 1_556
Ce2 O14 2.357485 1_555
Ce2 O0 2.357485 1_555
Ce2 O13 2.462609 1_555
Ce2 S10 2.940524 1_655
Ce2 S4 3.001022 1_656
Ce2 S6 3.001022 1_656
Ce2 S8 3.189310 1_555
Ce3 O6 2.346062 1_555
Ce3 O8 2.352601 1_555
Ce3 O7 2.467253 1_455
Ce3 S11 2.924316 1_555
Ce3 S3 2.992067 1_555
Ce3 S9 2.993353 1_455
Ce3 S2 3.004352 1_555
Ce3 S5 3.052298 1_555
Ce4 O13 2.346062 1_555
Ce4 O4 2.352601 1_565
Ce4 O0 2.467253 1_555
Ce4 S10 2.924316 1_555
Ce4 S1 2.992067 1_465
Ce4 S8 2.993353 1_555
Ce4 S7 3.004352 1_565
Ce4 S4 3.052298 1_556
Ce5 O6 2.346062 1_555
Ce5 O8 2.352601 1_565
Ce5 O9 2.467253 1_455
Ce5 S11 2.924316 1_555
Ce5 S3 2.992067 1_565
Ce5 S9 2.993353 1_455
Ce5 S2 3.004352 1_565
Ce5 S0 3.052298 1_555
Ce6 O13 2.346062 1_555
Ce6 O4 2.352601 1_555
Ce6 O14 2.467253 1_555
Ce6 S10 2.924316 1_555
Ce6 S1 2.992067 1_455
Ce6 S8 2.993353 1_555
Ce6 S7 3.004352 1_555
Ce6 S6 3.052298 1_556
Ce7 O6 2.303906 1_555
Ce7 O11 2.357485 1_555
Ce7 O3 2.357485 1_555
Ce7 O1 2.462609 1_455
Ce7 S8 2.940524 1_555
Ce7 S0 3.001022 1_555
Ce7 S5 3.001022 1_555
Ce7 S10 3.189310 1_555
Ce8 O13 2.303906 1_554
Ce8 O2 2.357485 1_555
Ce8 O10 2.357485 1_555
Ce8 O12 2.462609 1_555
Ce8 S9 2.940524 1_455
Ce8 S4 3.001022 1_555
Ce8 S6 3.001022 1_555
Ce8 S11 3.189310 1_555
Ce9 O1 2.346062 1_555
Ce9 O5 2.352601 1_565
Ce9 O11 2.467253 1_655
Ce9 S8 2.924316 1_555
Ce9 S7 2.992067 1_565
Ce9 S10 2.993353 1_655
Ce9 S1 3.004352 1_565
Ce9 S0 3.052298 1_555
Ce10 O12 2.346062 1_555
Ce10 O15 2.352601 1_565
Ce10 O10 2.467253 1_555
Ce10 S9 2.924316 1_555
Ce10 S2 2.992067 1_665
Ce10 S11 2.993353 1_555
Ce10 S3 3.004352 1_565
Ce10 S4 3.052298 1_655
Ce11 O1 2.303906 1_555
Ce11 O7 2.357485 1_555
Ce11 O9 2.357485 1_555
Ce11 O6 2.462609 1_655
Ce11 S11 2.940524 1_555
Ce11 S0 3.001022 1_555
Ce11 S5 3.001022 1_555
Ce11 S9 3.189310 1_555
Nb0 O7 1.917211 1_555
Nb0 O9 1.917211 1_545
Nb0 O5 1.946999 1_555
Nb0 S3 2.545076 1_555
Nb0 S5 2.752515 1_555
Nb0 S0 2.752515 1_545
Nb1 O14 1.917211 1_555
Nb1 O0 1.917211 1_545
Nb1 O15 1.946999 1_556
Nb1 S1 2.545076 1_555
Nb1 S6 2.752515 1_656
Nb1 S4 2.752515 1_646
Nb2 O3 1.917211 1_555
Nb2 O11 1.917211 1_545
Nb2 O8 1.946999 1_555
Nb2 S7 2.545076 1_555
Nb2 S5 2.752515 1_555
Nb2 S0 2.752515 1_545
Nb3 O2 1.917211 1_555
Nb3 O10 1.917211 1_545
Nb3 O4 1.946999 1_554
Nb3 S2 2.545076 1_555
Nb3 S6 2.752515 1_555
Nb3 S4 2.752515 1_545
