# generated using pymatgen
data_NaPO3
_symmetry_space_group_name_H-M   'P 1'
_cell_length_a   9.69306983
_cell_length_b   9.69306983
_cell_length_c   9.69306983
_cell_angle_alpha   98.57500686
_cell_angle_beta   98.57500686
_cell_angle_gamma   134.57095040
_symmetry_Int_Tables_number   1
_chemical_formula_structural   NaPO3
_chemical_formula_sum   'Na8 P8 O24'
_cell_volume   598.46005648
_cell_formula_units_Z   8
loop_
 _symmetry_equiv_pos_site_id
 _symmetry_equiv_pos_as_xyz
  1  'x, y, z'
loop_
 _atom_site_type_symbol
 _atom_site_label
 _atom_site_symmetry_multiplicity
 _atom_site_fract_x
 _atom_site_fract_y
 _atom_site_fract_z
 _atom_site_occupancy
  Na  Na0  1  0.81340800  0.62792800  0.97755000  1
  Na  Na1  1  0.43659200  0.12207200  0.52245000  1
  Na  Na2  1  0.16414200  0.18659200  0.81451900  1
  Na  Na3  1  0.87792800  0.40037800  0.31451900  1
  Na  Na4  1  0.65037800  0.83585800  0.02245000  1
  Na  Na5  1  0.37207200  0.34962200  0.18548100  1
  Na  Na6  1  0.08585800  0.56340800  0.68548100  1
  Na  Na7  1  0.59962200  0.91414200  0.47755000  1
  P  P0  1  0.45428600  0.11427300  0.93922500  1
  P  P1  1  0.88572700  0.82495200  0.34001200  1
  P  P2  1  0.36427300  0.92504800  0.15998800  1
  P  P3  1  0.07495200  0.23494000  0.43922500  1
  P  P4  1  0.79571400  0.63572700  0.56077500  1
  P  P5  1  0.76506000  0.20428600  0.84001200  1
  P  P6  1  0.48494000  0.54571400  0.65998800  1
  P  P7  1  0.17504800  0.51506000  0.06077500  1
  O  O0  1  0.47822700  0.00975700  0.32475500  1
  O  O1  1  0.99024300  0.31499800  0.46847000  1
  O  O2  1  0.68500200  0.15347200  0.67524500  1
  O  O3  1  0.93606000  0.84033700  0.68243600  1
  O  O4  1  0.74637600  0.06394000  0.90427800  1
  O  O5  1  0.01020100  0.43088100  0.89827200  1
  O  O6  1  0.31394000  0.90966300  0.81756400  1
  O  O7  1  0.88807000  0.98979900  0.42067900  1
  O  O8  1  0.09209800  0.49637600  0.18243600  1
  O  O9  1  0.15790200  0.25362400  0.31756400  1
  O  O10  1  0.84652800  0.52177300  0.53153000  1
  O  O11  1  0.23979900  0.31911900  0.60172800  1
  O  O12  1  0.53260900  0.11193000  0.10172800  1
  O  O13  1  0.71739100  0.63807000  0.39827200  1
  O  O14  1  0.09033700  0.90790200  0.40427800  1
  O  O15  1  0.56499800  0.59652800  0.82475500  1
  O  O16  1  0.56911900  0.46739100  0.57932100  1
  O  O17  1  0.68088100  0.28260900  0.92067900  1
  O  O18  1  0.25975700  0.43500200  0.03153000  1
  O  O19  1  0.77177300  0.74024300  0.17524500  1
  O  O20  1  0.50362400  0.68606000  0.59572200  1
  O  O21  1  0.36193000  0.76020100  0.07932100  1
  O  O22  1  0.15966300  0.84209800  0.09572200  1
  O  O23  1  0.40347200  0.22822700  0.96847000  1
loop_
_geom_bond_atom_site_label_1
_geom_bond_atom_site_label_2
_geom_bond_distance
_geom_bond_site_symmetry_2
Na0 O19 2.290275 1_556
Na0 O22 2.291555 1_656
Na0 O15 2.420208 1_555
Na0 O17 2.522159 1_555
Na1 O0 2.290275 1_555
Na1 O14 2.291555 1_545
Na1 O2 2.420208 1_555
Na1 O16 2.522159 1_555
Na2 O23 2.290279 1_555
Na2 O3 2.291552 1_445
Na2 O18 2.420214 1_556
Na2 O11 2.522150 1_555
Na3 O1 2.290281 1_555
Na3 O8 2.291540 1_655
Na3 O10 2.420216 1_555
Na3 O12 2.522154 1_555
Na4 O15 2.290275 1_554
Na4 O4 2.291547 1_564
Na4 O19 2.420208 1_555
Na4 O21 2.522154 1_555
Na5 O18 2.290281 1_555
Na5 O9 2.291540 1_555
Na5 O23 2.420216 1_554
Na5 O13 2.522154 1_555
Na6 O10 2.290279 1_455
Na6 O6 2.291552 1_555
Na6 O1 2.420214 1_455
Na6 O5 2.522150 1_555
Na7 O2 2.290275 1_565
Na7 O20 2.291547 1_555
Na7 O0 2.420208 1_565
Na7 O7 2.522154 1_555
O0 P2 1.501623 1_545
O1 P3 1.501623 1_655
O2 P5 1.501621 1_555
O3 P4 1.487277 1_555
O4 P5 1.487293 1_555
O5 P5 1.641309 1_455
O5 P7 1.654170 1_556
O6 P0 1.487277 1_565
O7 P3 1.641309 1_665
O7 P1 1.654174 1_555
O8 P7 1.487284 1_555
O9 P3 1.487284 1_555
O10 P4 1.501631 1_555
O11 P6 1.641309 1_555
O11 P3 1.654170 1_555
O12 P2 1.641316 1_545
O12 P0 1.654162 1_554
O13 P1 1.641316 1_555
O13 P4 1.654162 1_555
O14 P1 1.487275 1_455
O15 P6 1.501621 1_555
O16 P4 1.641309 1_555
O16 P6 1.654158 1_555
O17 P0 1.641309 1_555
O17 P5 1.654158 1_555
O18 P7 1.501623 1_555
O19 P1 1.501623 1_555
O20 P6 1.487293 1_555
O21 P7 1.641309 1_555
O21 P2 1.654174 1_555
O22 P2 1.487275 1_555
O23 P0 1.501631 1_555
