# generated using pymatgen
data_Sr7LaCu4(BiO3)8
_symmetry_space_group_name_H-M   'P 1'
_cell_length_a   9.45474700
_cell_length_b   10.07027857
_cell_length_c   10.11443307
_cell_angle_alpha   63.11645610
_cell_angle_beta   64.92698729
_cell_angle_gamma   64.39186662
_symmetry_Int_Tables_number   1
_chemical_formula_structural   Sr7LaCu4(BiO3)8
_chemical_formula_sum   'Sr7 La1 Cu4 Bi8 O24'
_cell_volume   742.69909229
_cell_formula_units_Z   1
loop_
 _symmetry_equiv_pos_site_id
 _symmetry_equiv_pos_as_xyz
  1  'x, y, z'
loop_
 _atom_site_type_symbol
 _atom_site_label
 _atom_site_symmetry_multiplicity
 _atom_site_fract_x
 _atom_site_fract_y
 _atom_site_fract_z
 _atom_site_occupancy
  Sr  Sr0  1  0.59586800  0.43526800  0.61312400  1
  Sr  Sr1  1  0.54433600  0.27927300  0.10197200  1
  Sr  Sr2  1  0.12873100  0.94941300  0.11799600  1
  Sr  Sr3  1  0.88117600  0.06412800  0.86268600  1
  Sr  Sr4  1  0.03567200  0.78836000  0.63426400  1
  Sr  Sr5  1  0.36564200  0.77491500  0.75232700  1
  Sr  Sr6  1  0.30957900  0.55334700  0.40121000  1
  La  La0  1  0.00526500  0.22993600  0.39268100  1
  Cu  Cu0  1  0.52956100  0.97559700  0.05677000  1
  Cu  Cu1  1  0.90185400  0.31430200  0.08528900  1
  Cu  Cu2  1  0.96201800  0.51333300  0.46027100  1
  Cu  Cu3  1  0.64134600  0.16375800  0.40341500  1
  Bi  Bi0  1  0.71523900  0.65535500  0.14593600  1
  Bi  Bi1  1  0.56998400  0.05264200  0.72338600  1
  Bi  Bi2  1  0.80102300  0.55527500  0.80110500  1
  Bi  Bi3  1  0.18709800  0.23182900  0.66017700  1
  Bi  Bi4  1  0.77062400  0.85437900  0.36347100  1
  Bi  Bi5  1  0.15625700  0.59085900  0.11098600  1
  Bi  Bi6  1  0.34049900  0.94155400  0.38393000  1
  Bi  Bi7  1  0.28946100  0.30184200  0.93419300  1
  O  O0  1  0.27685200  0.21441200  0.17898000  1
  O  O1  1  0.34774500  0.69396500  0.54315400  1
  O  O2  1  0.14246500  0.00958900  0.59471800  1
  O  O3  1  0.55277500  0.07363300  0.34459300  1
  O  O4  1  0.39412100  0.30474300  0.64091500  1
  O  O5  1  0.71535900  0.77711800  0.62772300  1
  O  O6  1  0.05456200  0.69110400  0.31511400  1
  O  O7  1  0.37560900  0.65015300  0.09858100  1
  O  O8  1  0.36971700  0.03236100  0.96127100  1
  O  O9  1  0.93021600  0.44040500  0.15709000  1
  O  O10  1  0.36245400  0.50167800  0.91071600  1
  O  O11  1  0.88479000  0.18036900  0.02409500  1
  O  O12  1  0.11027200  0.82589700  0.95564500  1
  O  O13  1  0.52153400  0.51877100  0.14654500  1
  O  O14  1  0.72710900  0.88969500  0.10908800  1
  O  O15  1  0.04907800  0.52335600  0.66844100  1
  O  O16  1  0.56929900  0.21107600  0.87144500  1
  O  O17  1  0.88570000  0.33412000  0.61372300  1
  O  O18  1  0.19450500  0.36155800  0.42007400  1
  O  O19  1  0.39534800  0.02007100  0.66888100  1
  O  O20  1  0.74688000  0.63139700  0.40248900  1
  O  O21  1  0.10937700  0.96252800  0.36127200  1
  O  O22  1  0.73863800  0.21556400  0.48951000  1
  O  O23  1  0.81436200  0.71107300  0.89074900  1
loop_
_geom_bond_atom_site_label_1
_geom_bond_atom_site_label_2
_geom_bond_distance
_geom_bond_site_symmetry_2
La0 O22 2.330173 1_455
La0 O9 2.497871 1_455
La0 O17 2.516162 1_455
La0 O2 2.537732 1_555
La0 O21 2.557087 1_545
La0 O0 2.558212 1_555
La0 O18 2.799506 1_555
Cu0 O8 1.880121 1_564
Cu0 O14 1.882530 1_555
Cu0 O16 2.330541 1_564
Cu1 O11 1.804415 1_555
Cu1 O9 1.872266 1_555
Cu2 O17 1.957029 1_555
Cu2 O6 2.003563 1_655
Cu2 O20 2.044804 1_555
Cu2 O18 2.057526 1_655
Cu2 O15 2.617988 1_655
Cu3 O22 1.838810 1_555
Cu3 O3 1.856480 1_555
Bi0 O23 2.224805 1_554
Bi0 O9 2.236027 1_555
Bi0 O14 2.262426 1_555
Bi0 O20 2.628786 1_555
Bi0 O13 2.721452 1_555
Bi1 O19 2.130943 1_555
Bi1 O8 2.333397 1_555
Bi1 O4 2.348845 1_555
Bi1 O22 2.526832 1_555
Bi1 O16 2.632830 1_555
Bi2 O15 2.115519 1_655
Bi2 O5 2.195190 1_555
Bi2 O23 2.203178 1_555
Bi3 O18 2.162177 1_555
Bi3 O19 2.186221 1_555
Bi3 O4 2.279937 1_555
Bi3 O15 2.673274 1_555
Bi3 O17 2.749903 1_455
Bi3 O2 2.831674 1_555
Bi4 O20 2.192629 1_555
Bi4 O3 2.274812 1_565
Bi4 O5 2.304162 1_555
Bi4 O6 2.438933 1_655
Bi4 O14 2.618959 1_555
Bi5 O12 2.141523 1_554
Bi5 O7 2.335719 1_555
Bi5 O10 2.344163 1_554
Bi5 O6 2.360011 1_555
Bi6 O21 2.203162 1_555
Bi6 O1 2.264801 1_555
Bi6 O2 2.312870 1_565
Bi6 O0 2.585759 1_565
Bi6 O3 2.666027 1_565
Bi7 O0 2.188279 1_556
Bi7 O10 2.282964 1_555
Bi7 O16 2.291167 1_555
Bi7 O8 2.395659 1_555
Bi7 O4 2.690359 1_555
O0 Sr1 2.593728 1_555
O1 Sr4 2.553797 1_555
O1 Sr6 2.629829 1_555
O1 Sr5 2.674244 1_555
O1 Sr0 2.692193 1_555
O2 Sr4 2.634210 1_545
O2 Sr5 2.777036 1_545
O2 Sr3 2.872113 1_455
O3 Sr1 2.396690 1_555
O4 Sr0 2.612259 1_555
O4 Sr6 2.684787 1_555
O5 Sr5 3.004656 1_555
O5 Sr4 3.108349 1_655
O6 Sr6 2.508378 1_555
O6 Sr2 2.633419 1_555
O7 Sr6 2.630068 1_555
O7 Sr2 2.938524 1_555
O7 Sr5 3.170278 1_554
O8 Sr2 2.405932 1_546
O10 Sr5 2.486528 1_555
O10 Sr1 2.699515 1_556
O10 Sr0 3.048311 1_555
O11 Sr3 2.418015 1_554
O11 Sr2 2.617777 1_645
O11 Sr1 2.786217 1_555
O12 Sr5 2.448918 1_555
O12 Sr3 2.554495 1_465
O12 Sr2 2.559637 1_556
O13 O7 1.515997 1_555
O13 Sr1 2.553046 1_555
O13 Sr6 2.570001 1_555
O14 Sr3 2.567980 1_564
O15 Sr4 2.483504 1_555
O15 Sr6 2.779495 1_555
O16 Sr0 2.566346 1_555
O16 Sr1 2.608744 1_556
O16 Sr3 2.649115 1_555
O17 Sr0 2.478390 1_555
O17 Sr3 2.748218 1_555
O18 Sr6 2.501512 1_555
O19 Sr5 2.323841 1_545
O20 Sr0 2.555881 1_555
O21 Sr2 2.448849 1_555
O21 Sr4 2.496382 1_555
O22 Sr0 2.601925 1_555
O23 Sr4 2.587480 1_655
