# generated using pymatgen
data_Ba2Tm2Al3Si5N11O3
_symmetry_space_group_name_H-M   'P 1'
_cell_length_a   6.73105644
_cell_length_b   6.73105644
_cell_length_c   10.24425800
_cell_angle_alpha   90.00000000
_cell_angle_beta   90.00000000
_cell_angle_gamma   120.00000434
_symmetry_Int_Tables_number   1
_chemical_formula_structural   Ba2Tm2Al3Si5N11O3
_chemical_formula_sum   'Ba2 Tm2 Al3 Si5 N11 O3'
_cell_volume   401.95513830
_cell_formula_units_Z   1
loop_
 _symmetry_equiv_pos_site_id
 _symmetry_equiv_pos_as_xyz
  1  'x, y, z'
loop_
 _atom_site_type_symbol
 _atom_site_label
 _atom_site_symmetry_multiplicity
 _atom_site_fract_x
 _atom_site_fract_y
 _atom_site_fract_z
 _atom_site_occupancy
  Ba  Ba0  1  0.33333300  0.66666700  0.22393000  1
  Ba  Ba1  1  0.66666700  0.33333300  0.60950300  1
  Tm  Tm0  1  0.33333300  0.66666700  0.63271500  1
  Tm  Tm1  1  0.66666700  0.33333300  0.04027900  1
  Al  Al0  1  0.17513800  0.82486200  0.95775400  1
  Al  Al1  1  0.17513800  0.35027500  0.95775400  1
  Al  Al2  1  0.64972500  0.82486200  0.95775400  1
  Si  Si0  1  0.00000000  0.00000000  0.21083200  1
  Si  Si1  1  0.00000000  0.00000000  0.56760900  1
  Si  Si2  1  0.32453200  0.16226600  0.37502300  1
  Si  Si3  1  0.83773400  0.67546800  0.37502300  1
  Si  Si4  1  0.83773400  0.16226600  0.37502300  1
  N  N0  1  0.52492000  0.47508000  0.38390300  1
  N  N1  1  0.52492000  0.04983900  0.38390300  1
  N  N2  1  0.52242200  0.26121100  0.83915500  1
  N  N3  1  0.47607700  0.52392300  0.01826300  1
  N  N4  1  0.95016100  0.47508000  0.38390300  1
  N  N5  1  0.73878900  0.47757800  0.83915500  1
  N  N6  1  0.00000000  0.00000000  0.87289200  1
  N  N7  1  0.47607700  0.95215500  0.01826300  1
  N  N8  1  0.04784500  0.52392300  0.01826300  1
  N  N9  1  0.73878900  0.26121100  0.83915500  1
  N  N10  1  0.00000000  0.00000000  0.73012000  1
  O  O0  1  0.06533900  0.53267000  0.51054300  1
  O  O1  1  0.46733000  0.93466100  0.51054300  1
  O  O2  1  0.46733000  0.53267000  0.51054300  1
loop_
_geom_bond_atom_site_label_1
_geom_bond_atom_site_label_2
_geom_bond_distance
_geom_bond_site_symmetry_2
Ba0 N7 2.684877 1_555
Ba0 N8 2.684877 1_555
Ba0 N3 2.684877 1_555
Ba0 N1 2.770325 1_565
Ba0 N4 2.770325 1_455
Ba0 N0 2.770335 1_555
Ba1 N9 2.498360 1_555
Ba1 N5 2.498362 1_555
Ba1 N2 2.498362 1_555
Ba1 O0 2.535458 1_655
Ba1 O1 2.535458 1_545
Ba1 O2 2.535469 1_555
Al0 N8 1.867078 1_556
Al0 N7 1.867078 1_556
Al0 N6 2.219217 1_565
Al1 N3 1.867079 1_556
Al1 N8 1.867090 1_556
Al1 N6 2.219212 1_555
Al2 N3 1.867079 1_556
Al2 N7 1.867090 1_556
Al2 N6 2.219212 1_665
Si0 Si2 2.531406 1_555
Si0 Si3 2.531406 1_445
Si0 Si4 2.531406 1_455
N0 O2 1.460777 1_555
N0 Si3 1.849589 1_555
N0 Si2 1.849589 1_555
N1 O1 1.460772 1_545
N1 Si4 1.849588 1_555
N1 Si2 1.849594 1_555
N2 N5 1.456378 1_555
N2 N9 1.456378 1_555
N2 Tm1 2.225337 1_556
N3 Tm1 2.233417 1_555
N4 O0 1.460772 1_655
N4 Si4 1.849588 1_555
N4 Si3 1.849594 1_555
N5 N9 1.456378 1_555
N5 Tm1 2.225337 1_556
N7 Tm1 2.233405 1_565
N8 Tm1 2.233405 1_455
N9 Tm1 2.225335 1_556
N10 N6 1.462593 1_555
N10 Si1 1.664805 1_555
O0 Tm0 2.001724 1_555
O1 Tm0 2.001724 1_555
O2 Tm0 2.001724 1_555
