# generated using pymatgen
data_TeS2N3Cl5
_symmetry_space_group_name_H-M   'P 1'
_cell_length_a   7.26635000
_cell_length_b   16.25245200
_cell_length_c   19.85902877
_cell_angle_alpha   78.91512736
_cell_angle_beta   90.00000000
_cell_angle_gamma   90.00000000
_symmetry_Int_Tables_number   1
_chemical_formula_structural   TeS2N3Cl5
_chemical_formula_sum   'Te8 S16 N24 Cl40'
_cell_volume   2301.51729214
_cell_formula_units_Z   8
loop_
 _symmetry_equiv_pos_site_id
 _symmetry_equiv_pos_as_xyz
  1  'x, y, z'
loop_
 _atom_site_type_symbol
 _atom_site_label
 _atom_site_symmetry_multiplicity
 _atom_site_fract_x
 _atom_site_fract_y
 _atom_site_fract_z
 _atom_site_occupancy
  Te  Te0  1  0.42847600  0.53452500  0.64927200  1
  Te  Te1  1  0.57152400  0.46547500  0.35072800  1
  Te  Te2  1  0.92847600  0.46547500  0.85072800  1
  Te  Te3  1  0.05825200  0.95532400  0.90591600  1
  Te  Te4  1  0.07152400  0.53452500  0.14927200  1
  Te  Te5  1  0.94174800  0.04467600  0.09408400  1
  Te  Te6  1  0.55825200  0.04467600  0.59408400  1
  Te  Te7  1  0.44174800  0.95532400  0.40591600  1
  S  S0  1  0.90244700  0.13045900  0.34607300  1
  S  S1  1  0.40244700  0.86954100  0.15392700  1
  S  S2  1  0.63808500  0.31860100  0.17517100  1
  S  S3  1  0.50918700  0.16883800  0.93159100  1
  S  S4  1  0.99081300  0.16883800  0.43159100  1
  S  S5  1  0.59755300  0.13045900  0.84607300  1
  S  S6  1  0.13808500  0.68139900  0.32482900  1
  S  S7  1  0.00918700  0.83116200  0.56840900  1
  S  S8  1  0.49081300  0.83116200  0.06840900  1
  S  S9  1  0.31955700  0.66030600  0.92792300  1
  S  S10  1  0.09755300  0.86954100  0.65392700  1
  S  S11  1  0.68044300  0.33969400  0.07207700  1
  S  S12  1  0.81955700  0.33969400  0.57207700  1
  S  S13  1  0.86191500  0.31860100  0.67517100  1
  S  S14  1  0.18044300  0.66030600  0.42792300  1
  S  S15  1  0.36191500  0.68139900  0.82482900  1
  N  N0  1  0.51328100  0.70371900  0.94333600  1
  N  N1  1  0.55890400  0.72815200  0.82939200  1
  N  N2  1  0.01328100  0.29628100  0.55666400  1
  N  N3  1  0.49372600  0.79015600  0.20568100  1
  N  N4  1  0.99372600  0.20984400  0.29431900  1
  N  N5  1  0.44109600  0.27184800  0.17060800  1
  N  N6  1  0.58253300  0.73468900  0.17793900  1
  N  N7  1  0.38353500  0.26439900  0.10959900  1
  N  N8  1  0.41746700  0.26531100  0.82206100  1
  N  N9  1  0.88353500  0.73560100  0.39040100  1
  N  N10  1  0.91746700  0.73468900  0.67793900  1
  N  N11  1  0.11646500  0.26439900  0.60959900  1
  N  N12  1  0.09104900  0.25249100  0.38936100  1
  N  N13  1  0.94109600  0.72815200  0.32939200  1
  N  N14  1  0.48671900  0.29628100  0.05666400  1
  N  N15  1  0.90895100  0.74750900  0.61063900  1
  N  N16  1  0.59104900  0.74750900  0.11063900  1
  N  N17  1  0.40895100  0.25249100  0.88936100  1
  N  N18  1  0.61646500  0.73560100  0.89040100  1
  N  N19  1  0.98671900  0.70371900  0.44333600  1
  N  N20  1  0.50627400  0.20984400  0.79431900  1
  N  N21  1  0.05890400  0.27184800  0.67060800  1
  N  N22  1  0.08253300  0.26531100  0.32206100  1
  N  N23  1  0.00627400  0.79015600  0.70568100  1
  Cl  Cl0  1  0.84304800  0.07961400  0.64649000  1
  Cl  Cl1  1  0.34304800  0.92038600  0.85351000  1
  Cl  Cl2  1  0.39525500  0.42590800  0.45272700  1
  Cl  Cl3  1  0.46587900  0.37832400  0.64111100  1
  Cl  Cl4  1  0.15695200  0.92038600  0.35351000  1
  Cl  Cl5  1  0.86403700  0.46139200  0.41645600  1
  Cl  Cl6  1  0.10169400  0.68797400  0.15630800  1
  Cl  Cl7  1  0.41990000  0.10531800  0.33749300  1
  Cl  Cl8  1  0.86554200  0.92293700  0.81811400  1
  Cl  Cl9  1  0.89525500  0.57409200  0.04727300  1
  Cl  Cl10  1  0.26183400  0.00295800  0.02669600  1
  Cl  Cl11  1  0.10474500  0.42590800  0.95272700  1
  Cl  Cl12  1  0.73816600  0.99704200  0.97330400  1
  Cl  Cl13  1  0.03412100  0.37832400  0.14111100  1
  Cl  Cl14  1  0.53412100  0.62167600  0.35888900  1
  Cl  Cl15  1  0.36554200  0.07706300  0.68188600  1
  Cl  Cl16  1  0.13596300  0.53860800  0.58354400  1
  Cl  Cl17  1  0.96587900  0.62167600  0.85888900  1
  Cl  Cl18  1  0.76183400  0.99704200  0.47330400  1
  Cl  Cl19  1  0.63445800  0.92293700  0.31811400  1
  Cl  Cl20  1  0.63596300  0.46139200  0.91645600  1
  Cl  Cl21  1  0.96267700  0.19317200  0.02829400  1
  Cl  Cl22  1  0.91990000  0.89468200  0.16250700  1
  Cl  Cl23  1  0.58010000  0.89468200  0.66250700  1
  Cl  Cl24  1  0.03732300  0.80682800  0.97170600  1
  Cl  Cl25  1  0.24533100  0.47836500  0.78133600  1
  Cl  Cl26  1  0.39830600  0.68797400  0.65630800  1
  Cl  Cl27  1  0.46267700  0.80682800  0.47170600  1
  Cl  Cl28  1  0.65695200  0.07961400  0.14649000  1
  Cl  Cl29  1  0.53732300  0.19317200  0.52829400  1
  Cl  Cl30  1  0.25466900  0.47836500  0.28133600  1
  Cl  Cl31  1  0.13445800  0.07706300  0.18188600  1
  Cl  Cl32  1  0.89830600  0.31202600  0.84369200  1
  Cl  Cl33  1  0.23816600  0.00295800  0.52669600  1
  Cl  Cl34  1  0.60474500  0.57409200  0.54727300  1
  Cl  Cl35  1  0.75466900  0.52163500  0.21866400  1
  Cl  Cl36  1  0.74533100  0.52163500  0.71866400  1
  Cl  Cl37  1  0.08010000  0.10531800  0.83749300  1
  Cl  Cl38  1  0.36403700  0.53860800  0.08354400  1
  Cl  Cl39  1  0.60169400  0.31202600  0.34369200  1
loop_
_geom_bond_atom_site_label_1
_geom_bond_atom_site_label_2
_geom_bond_distance
_geom_bond_site_symmetry_2
N0 N18 1.313885 1_555
N0 S9 1.629750 1_555
N1 N18 1.309169 1_555
N1 S15 1.631239 1_555
N2 S12 1.629750 1_455
N3 N6 1.312848 1_555
N3 S1 1.628183 1_555
N4 S0 1.628183 1_555
N5 N7 1.309169 1_555
N5 S2 1.631239 1_555
N10 N23 1.312848 1_655
N10 N15 1.313936 1_555
N11 N21 1.309169 1_555
N11 N2 1.313885 1_555
N12 N22 1.313936 1_555
N12 S4 1.625979 1_455
N13 N9 1.309169 1_555
N13 S6 1.631239 1_655
N14 N7 1.313885 1_555
N14 S11 1.629750 1_555
N15 S7 1.625979 1_655
N16 N6 1.313936 1_555
N16 S8 1.625979 1_555
N17 N8 1.313936 1_555
N17 S3 1.625979 1_555
N19 N9 1.313885 1_555
N19 S14 1.629750 1_655
N20 N8 1.312848 1_555
N20 S5 1.628183 1_555
N21 S13 1.631239 1_455
N22 N4 1.312848 1_455
N23 S10 1.628183 1_555
Cl0 Te6 2.432143 1_555
Cl1 Te3 2.432143 1_555
Cl2 Te1 2.378285 1_555
Cl3 Te0 2.589031 1_555
Cl4 Te7 2.432143 1_555
Cl5 Te1 2.488503 1_555
Cl6 Te4 2.534014 1_555
Cl7 Te7 2.557454 1_545
Cl8 Te3 2.373010 1_655
Cl9 Te4 2.378285 1_655
Cl10 Te5 2.830047 1_455
Cl10 Te3 3.042177 1_544
Cl11 Te2 2.378285 1_455
Cl12 Te3 2.830047 1_655
Cl12 Te5 3.042177 1_566
Cl13 Te4 2.589031 1_555
Cl14 Te1 2.589031 1_555
Cl15 Te6 2.373010 1_555
Cl16 Te0 2.488503 1_555
Cl17 Te2 2.589031 1_555
Cl18 Te7 2.830047 1_555
Cl18 Te6 3.042177 1_565
Cl19 Te7 2.373010 1_555
Cl20 Te2 2.488503 1_555
Cl21 Te5 2.518386 1_555
Cl22 Te5 2.557454 1_565
Cl23 Te6 2.557454 1_565
Cl24 Te3 2.518386 1_555
Cl25 Te2 2.670743 1_455
Cl25 Te0 2.926088 1_555
Cl26 Te0 2.534014 1_555
Cl27 Te7 2.518386 1_555
Cl28 Te5 2.432143 1_555
Cl29 Te6 2.518386 1_555
Cl30 Te1 2.670743 1_555
Cl30 Te4 2.926088 1_555
Cl31 Te5 2.373010 1_455
Cl32 Te2 2.534014 1_555
Cl33 Te6 2.830047 1_555
Cl33 Te7 3.042177 1_545
Cl34 Te0 2.378285 1_555
Cl35 Te4 2.670743 1_655
Cl35 Te1 2.926088 1_555
Cl36 Te0 2.670743 1_555
Cl36 Te2 2.926088 1_555
Cl37 Te3 2.557454 1_545
Cl38 Te4 2.488503 1_555
Cl39 Te1 2.534014 1_555
