# generated using pymatgen
data_Mn2SnC10(ClO5)2
_symmetry_space_group_name_H-M   'P 1'
_cell_length_a   12.35173600
_cell_length_b   10.41397400
_cell_length_c   16.10476549
_cell_angle_alpha   60.91523599
_cell_angle_beta   90.00000000
_cell_angle_gamma   90.00000000
_symmetry_Int_Tables_number   1
_chemical_formula_structural   Mn2SnC10(ClO5)2
_chemical_formula_sum   'Mn8 Sn4 C40 Cl8 O40'
_cell_volume   1810.34517324
_cell_formula_units_Z   4
loop_
 _symmetry_equiv_pos_site_id
 _symmetry_equiv_pos_as_xyz
  1  'x, y, z'
loop_
 _atom_site_type_symbol
 _atom_site_label
 _atom_site_symmetry_multiplicity
 _atom_site_fract_x
 _atom_site_fract_y
 _atom_site_fract_z
 _atom_site_occupancy
  Mn  Mn0  1  0.20055200  0.50204500  0.37326900  1
  Mn  Mn1  1  0.15500300  0.93661500  0.86294200  1
  Mn  Mn2  1  0.29944800  0.50204500  0.87326900  1
  Mn  Mn3  1  0.84499700  0.06338500  0.13705800  1
  Mn  Mn4  1  0.79944800  0.49795500  0.62673100  1
  Mn  Mn5  1  0.34499700  0.93661500  0.36294200  1
  Mn  Mn6  1  0.70055200  0.49795500  0.12673100  1
  Mn  Mn7  1  0.65500300  0.06338500  0.63705800  1
  Sn  Sn0  1  0.32261500  0.74657100  0.29537300  1
  Sn  Sn1  1  0.17738500  0.74657100  0.79537300  1
  Sn  Sn2  1  0.67738500  0.25342900  0.70462700  1
  Sn  Sn3  1  0.82261500  0.25342900  0.20462700  1
  C  C0  1  0.16904300  0.08771000  0.73797400  1
  C  C1  1  0.99213600  0.06675600  0.15942900  1
  C  C2  1  0.86524700  0.94164900  0.08705000  1
  C  C3  1  0.73871900  0.53027300  0.72091200  1
  C  C4  1  0.67907200  0.57793100  0.54878200  1
  C  C5  1  0.59316700  0.38327900  0.21085600  1
  C  C6  1  0.33095700  0.08771000  0.23797400  1
  C  C7  1  0.12560300  0.32770400  0.42339100  1
  C  C8  1  0.85449700  0.45052700  0.53834100  1
  C  C9  1  0.76128100  0.53027300  0.22091200  1
  C  C10  1  0.36524700  0.05835100  0.41295000  1
  C  C11  1  0.30493500  0.93037300  0.87825500  1
  C  C12  1  0.32092800  0.42206900  0.45121800  1
  C  C13  1  0.14550300  0.54947300  0.46165900  1
  C  C14  1  0.35449700  0.54947300  0.96165900  1
  C  C15  1  0.63475300  0.94164900  0.58705000  1
  C  C16  1  0.26128100  0.46972700  0.27908800  1
  C  C17  1  0.83095700  0.91229000  0.26202600  1
  C  C18  1  0.37439700  0.32770400  0.92339100  1
  C  C19  1  0.66904300  0.91229000  0.76202600  1
  C  C20  1  0.69506500  0.06962700  0.12174500  1
  C  C21  1  0.23871900  0.46972700  0.77908800  1
  C  C22  1  0.50786400  0.06675600  0.65942900  1
  C  C23  1  0.40683300  0.61672100  0.78914400  1
  C  C24  1  0.13475300  0.05835100  0.91295000  1
  C  C25  1  0.80493500  0.06962700  0.62174500  1
  C  C26  1  0.87439700  0.67229600  0.57660900  1
  C  C27  1  0.62560300  0.67229600  0.07660900  1
  C  C28  1  0.49213600  0.93324400  0.34057100  1
  C  C29  1  0.35840800  0.76683800  0.48006500  1
  C  C30  1  0.09316700  0.61672100  0.28914400  1
  C  C31  1  0.00786400  0.93324400  0.84057100  1
  C  C32  1  0.82092800  0.57793100  0.04878200  1
  C  C33  1  0.90683300  0.38327900  0.71085600  1
  C  C34  1  0.19506500  0.93037300  0.37825500  1
  C  C35  1  0.64550300  0.45052700  0.03834100  1
  C  C36  1  0.14159200  0.76683800  0.98006500  1
  C  C37  1  0.85840800  0.23316200  0.01993500  1
  C  C38  1  0.17907200  0.42206900  0.95121800  1
  C  C39  1  0.64159200  0.23316200  0.51993500  1
  Cl  Cl0  1  0.50083700  0.66106700  0.28326400  1
  Cl  Cl1  1  0.49916300  0.33893300  0.71673600  1
  Cl  Cl2  1  0.71581800  0.12466200  0.87249800  1
  Cl  Cl3  1  0.28418200  0.87533800  0.12750200  1
  Cl  Cl4  1  0.00083700  0.33893300  0.21673600  1
  Cl  Cl5  1  0.78418200  0.12466200  0.37249800  1
  Cl  Cl6  1  0.99916300  0.66106700  0.78326400  1
  Cl  Cl7  1  0.21581800  0.87533800  0.62750200  1
  O  O0  1  0.70327200  0.55468500  0.77826300  1
  O  O1  1  0.97433700  0.31041700  0.76206400  1
  O  O2  1  0.67475200  0.81612900  0.83900100  1
  O  O3  1  0.13401500  0.66157100  0.05301400  1
  O  O4  1  0.41965700  0.21667100  0.95521800  1
  O  O5  1  0.17475200  0.18387100  0.66099900  1
  O  O6  1  0.52566300  0.31041700  0.26206400  1
  O  O7  1  0.08034300  0.21667100  0.45521800  1
  O  O8  1  0.20327200  0.44531500  0.72173700  1
  O  O9  1  0.36598500  0.66157100  0.55301400  1
  O  O10  1  0.10215700  0.92683600  0.38814000  1
  O  O11  1  0.29672800  0.44531500  0.22173700  1
  O  O12  1  0.58412900  0.93707300  0.32636900  1
  O  O13  1  0.89784300  0.07316400  0.61186000  1
  O  O14  1  0.58034300  0.78332900  0.04478200  1
  O  O15  1  0.91587100  0.93707300  0.82636900  1
  O  O16  1  0.89446400  0.62587200  0.99846000  1
  O  O17  1  0.88019300  0.86503100  0.05472000  1
  O  O18  1  0.60553600  0.62587200  0.49846000  1
  O  O19  1  0.10553600  0.37412800  0.00154000  1
  O  O20  1  0.60215700  0.07316400  0.11186000  1
  O  O21  1  0.39784300  0.92683600  0.88814000  1
  O  O22  1  0.61980700  0.86503100  0.55472000  1
  O  O23  1  0.39045900  0.57768900  0.01737500  1
  O  O24  1  0.79672800  0.55468500  0.27826300  1
  O  O25  1  0.60954100  0.42231100  0.98262500  1
  O  O26  1  0.39446400  0.37412800  0.50154000  1
  O  O27  1  0.41587100  0.06292700  0.67363100  1
  O  O28  1  0.86598500  0.33842900  0.94698600  1
  O  O29  1  0.08412900  0.06292700  0.17363100  1
  O  O30  1  0.91965700  0.78332900  0.54478200  1
  O  O31  1  0.32524800  0.18387100  0.16099900  1
  O  O32  1  0.11980700  0.13496900  0.94528000  1
  O  O33  1  0.63401500  0.33842900  0.44698600  1
  O  O34  1  0.82524800  0.81612900  0.33900100  1
  O  O35  1  0.02566300  0.68958300  0.23793600  1
  O  O36  1  0.10954100  0.57768900  0.51737500  1
  O  O37  1  0.47433700  0.68958300  0.73793600  1
  O  O38  1  0.38019300  0.13496900  0.44528000  1
  O  O39  1  0.89045900  0.42231100  0.48262500  1
loop_
_geom_bond_atom_site_label_1
_geom_bond_atom_site_label_2
_geom_bond_distance
_geom_bond_site_symmetry_2
Mn0 Sn0 2.688070 1_555
Mn1 Sn1 2.696523 1_555
Mn2 Sn1 2.688070 1_555
Mn3 Sn3 2.696523 1_555
Mn4 Sn2 2.688070 1_555
Mn5 Sn0 2.696523 1_555
Mn6 Sn3 2.688070 1_555
Mn7 Sn2 2.696523 1_555
C0 O5 1.156573 1_555
C0 Mn1 1.864853 1_545
C1 O29 1.155921 1_655
C1 Mn3 1.856436 1_555
C2 O17 1.160047 1_555
C2 Mn3 1.819619 1_565
C3 O0 1.156587 1_555
C3 Mn4 1.863544 1_555
C4 O18 1.156583 1_555
C4 Mn4 1.861135 1_555
C5 O6 1.158753 1_555
C5 Mn6 1.856888 1_555
C6 O31 1.156573 1_555
C6 Mn5 1.864853 1_545
C7 O7 1.155882 1_555
C7 Mn0 1.838510 1_555
C8 O39 1.159792 1_555
C8 Mn4 1.848292 1_555
C9 O24 1.156587 1_555
C9 Mn6 1.863544 1_555
C10 O38 1.160047 1_555
C10 Mn5 1.819619 1_545
C11 O21 1.156688 1_555
C11 Mn1 1.865226 1_555
C12 O26 1.156583 1_555
C12 Mn0 1.861135 1_555
C13 O36 1.159792 1_555
C13 Mn0 1.848292 1_555
C14 O23 1.159792 1_556
C14 Mn2 1.848292 1_555
C15 O22 1.160047 1_555
C15 Mn7 1.819619 1_565
C16 O11 1.156587 1_555
C16 Mn0 1.863544 1_555
C17 O34 1.156573 1_555
C17 Mn3 1.864853 1_565
C18 O4 1.155882 1_555
C18 Mn2 1.838510 1_555
C19 O2 1.156573 1_555
C19 Mn7 1.864853 1_565
C20 O20 1.156688 1_555
C20 Mn3 1.865226 1_555
C21 O8 1.156587 1_555
C21 Mn2 1.863544 1_555
C22 O27 1.155921 1_555
C22 Mn7 1.856436 1_555
C23 O37 1.158753 1_555
C23 Mn2 1.856888 1_555
C24 O32 1.160047 1_555
C24 Mn1 1.819619 1_545
C25 O13 1.156688 1_555
C25 Mn7 1.865226 1_555
C26 O30 1.155882 1_555
C26 Mn4 1.838510 1_555
C27 O14 1.155882 1_555
C27 Mn6 1.838510 1_555
C28 O12 1.155921 1_555
C28 Mn5 1.856436 1_555
C29 O9 1.156992 1_555
C29 Mn5 1.862544 1_555
C30 O35 1.158753 1_555
C30 Mn0 1.856888 1_555
C31 O15 1.155921 1_455
C31 Mn1 1.856436 1_555
C32 O16 1.156583 1_554
C32 Mn6 1.861135 1_555
C33 O1 1.158753 1_555
C33 Mn4 1.856888 1_555
C34 O10 1.156688 1_555
C34 Mn5 1.865226 1_555
C35 O25 1.159792 1_554
C35 Mn6 1.848292 1_555
C36 O3 1.156992 1_556
C36 Mn1 1.862544 1_555
C37 O28 1.156992 1_554
C37 Mn3 1.862544 1_555
C38 O19 1.156583 1_556
C38 Mn2 1.861135 1_555
C39 O33 1.156992 1_555
C39 Mn7 1.862544 1_555
Cl0 Sn0 2.417783 1_555
Cl1 Sn2 2.417783 1_555
Cl2 Sn2 2.409982 1_555
Cl3 Sn0 2.409982 1_555
Cl4 Sn3 2.417783 1_455
Cl5 Sn3 2.409982 1_555
Cl6 Sn1 2.417783 1_655
Cl7 Sn1 2.409982 1_555
