# generated using pymatgen
data_Cu16I19
_symmetry_space_group_name_H-M   'P 1'
_cell_length_a   4.23286968
_cell_length_b   4.23286968
_cell_length_c   67.07513432
_cell_angle_alpha   88.28905182
_cell_angle_beta   88.28905182
_cell_angle_gamma   60.30583740
_symmetry_Int_Tables_number   1
_chemical_formula_structural   Cu16I19
_chemical_formula_sum   'Cu16 I19'
_cell_volume   1043.35741663
_cell_formula_units_Z   1
loop_
 _symmetry_equiv_pos_site_id
 _symmetry_equiv_pos_as_xyz
  1  'x, y, z'
loop_
 _atom_site_type_symbol
 _atom_site_label
 _atom_site_symmetry_multiplicity
 _atom_site_fract_x
 _atom_site_fract_y
 _atom_site_fract_z
 _atom_site_occupancy
  Cu  Cu0  1  0.33352800  0.33352800  0.93223600  1
  Cu  Cu1  1  0.72225400  0.72225400  0.82925300  1
  Cu  Cu2  1  0.06830200  0.06830200  0.72390500  1
  Cu  Cu3  1  0.75097300  0.75097300  0.67012400  1
  Cu  Cu4  1  0.43494000  0.43494000  0.61726900  1
  Cu  Cu5  1  0.11935700  0.11935700  0.56462800  1
  Cu  Cu6  1  0.80350800  0.80350800  0.51201400  1
  Cu  Cu7  1  0.48738000  0.48738000  0.45937600  1
  Cu  Cu8  1  0.17178200  0.17178200  0.40675300  1
  Cu  Cu9  1  0.85582200  0.85582200  0.35409600  1
  Cu  Cu10  1  0.54009200  0.54009200  0.30145600  1
  Cu  Cu11  1  0.22444300  0.22444300  0.24880900  1
  Cu  Cu12  1  0.90865300  0.90865300  0.19614600  1
  Cu  Cu13  1  0.59280000  0.59280000  0.14352000  1
  Cu  Cu14  1  0.27694000  0.27694000  0.09061600  1
  Cu  Cu15  1  0.96014700  0.96014700  0.03653800  1
  I  I0  1  0.99351300  0.99351300  0.99988800  1
  I  I1  1  0.66689100  0.66689100  0.94706100  1
  I  I2  1  0.36062300  0.36062300  0.89532300  1
  I  I3  1  0.05659900  0.05659900  0.84438600  1
  I  I4  1  0.40188900  0.40188900  0.73603200  1
  I  I5  1  0.73253600  0.73253600  0.79225000  1
  I  I6  1  0.76770500  0.76770500  0.63062500  1
  I  I7  1  0.08361300  0.08361300  0.68321600  1
  I  I8  1  0.13627500  0.13627500  0.52554600  1
  I  I9  1  0.45208500  0.45208500  0.57808700  1
  I  I10  1  0.82022200  0.82022200  0.47296900  1
  I  I11  1  0.50471200  0.50471200  0.42036900  1
  I  I12  1  0.87304100  0.87304100  0.31513300  1
  I  I13  1  0.18876400  0.18876400  0.36775300  1
  I  I14  1  0.55734800  0.55734800  0.26252600  1
  I  I15  1  0.24159800  0.24159800  0.20992600  1
  I  I16  1  0.61016600  0.61016600  0.10491000  1
  I  I17  1  0.29488200  0.29488200  0.05241800  1
  I  I18  1  0.92578000  0.92578000  0.15737100  1
loop_
_geom_bond_atom_site_label_1
_geom_bond_atom_site_label_2
_geom_bond_distance
_geom_bond_site_symmetry_2
Cu0 I2 2.477040 1_555
Cu0 I1 2.629406 1_455
Cu0 I1 2.629406 1_545
Cu0 I1 2.666722 1_555
Cu1 I5 2.480523 1_555
Cu1 I3 2.633736 1_655
Cu1 I3 2.633736 1_565
Cu1 I3 2.681798 1_665
Cu2 I4 2.568649 1_545
Cu2 I4 2.568649 1_455
Cu2 I4 2.600356 1_555
Cu2 I7 2.727651 1_555
Cu3 I7 2.592011 1_655
Cu3 I7 2.592011 1_565
Cu3 I7 2.616874 1_665
Cu3 I6 2.648002 1_555
Cu4 I6 2.597355 1_545
Cu4 I6 2.597355 1_455
Cu4 I6 2.624297 1_555
Cu4 I9 2.626801 1_555
Cu5 I9 2.599758 1_545
Cu5 I9 2.599758 1_455
Cu5 I8 2.620079 1_555
Cu5 I9 2.626630 1_555
Cu6 I8 2.601252 1_565
Cu6 I8 2.601252 1_655
Cu6 I10 2.617582 1_555
Cu6 I8 2.628742 1_665
Cu7 I10 2.602364 1_455
Cu7 I10 2.602364 1_545
Cu7 I11 2.615095 1_555
Cu7 I10 2.630803 1_555
Cu8 I11 2.602585 1_545
Cu8 I11 2.602585 1_455
Cu8 I13 2.614591 1_555
Cu8 I11 2.631992 1_555
Cu9 I13 2.603467 1_565
Cu9 I13 2.603467 1_655
Cu9 I12 2.612135 1_555
Cu9 I13 2.633118 1_665
Cu10 I12 2.603894 1_545
Cu10 I12 2.603894 1_455
Cu10 I14 2.609928 1_555
Cu10 I12 2.633676 1_555
Cu11 I14 2.604944 1_455
Cu11 I14 2.604944 1_545
Cu11 I15 2.606769 1_555
Cu11 I14 2.634395 1_555
Cu12 I18 2.599531 1_555
Cu12 I15 2.606237 1_565
Cu12 I15 2.606237 1_655
Cu12 I15 2.636283 1_665
Cu13 I16 2.588501 1_555
Cu13 I18 2.607736 1_545
Cu13 I18 2.607736 1_455
Cu13 I18 2.638348 1_555
Cu14 I17 2.560967 1_555
Cu14 I16 2.617173 1_545
Cu14 I16 2.617173 1_455
Cu14 I16 2.651581 1_555
Cu15 I0 2.462001 1_554
Cu15 I17 2.651395 1_655
Cu15 I17 2.651395 1_565
Cu15 I17 2.705353 1_665
