# generated using pymatgen
data_Ba2NdNbO6
_symmetry_space_group_name_H-M   'P 1'
_cell_length_a   6.11789269
_cell_length_b   6.11789269
_cell_length_c   6.17854721
_cell_angle_alpha   60.04388255
_cell_angle_beta   60.04388255
_cell_angle_gamma   60.11223137
_symmetry_Int_Tables_number   1
_chemical_formula_structural   Ba2NdNbO6
_chemical_formula_sum   'Ba2 Nd1 Nb1 O6'
_cell_volume   163.76848159
_cell_formula_units_Z   1
loop_
 _symmetry_equiv_pos_site_id
 _symmetry_equiv_pos_as_xyz
  1  'x, y, z'
loop_
 _atom_site_type_symbol
 _atom_site_label
 _atom_site_symmetry_multiplicity
 _atom_site_fract_x
 _atom_site_fract_y
 _atom_site_fract_z
 _atom_site_occupancy
  Ba  Ba0  1  0.24842400  0.24842400  0.25737300  1
  Ba  Ba1  1  0.75157600  0.75157600  0.74262700  1
  Nd  Nd0  1  0.00000000  0.00000000  0.00000000  1
  Nb  Nb0  1  0.50000000  0.50000000  0.50000000  1
  O  O0  1  0.30135600  0.76854300  0.69454100  1
  O  O1  1  0.23145700  0.69864400  0.30545900  1
  O  O2  1  0.69864400  0.23145700  0.30545900  1
  O  O3  1  0.76854300  0.30135600  0.69454100  1
  O  O4  1  0.73037700  0.73037700  0.20518600  1
  O  O5  1  0.26962300  0.26962300  0.79481400  1
loop_
_geom_bond_atom_site_label_1
_geom_bond_atom_site_label_2
_geom_bond_distance
_geom_bond_site_symmetry_2
Ba0 O5 2.734577 1_554
Ba0 O0 2.833107 1_545
Ba0 O3 2.833107 1_455
Ba0 O1 2.861339 1_555
Ba0 O2 2.861339 1_555
Ba1 O4 2.734577 1_556
Ba1 O2 2.833107 1_565
Ba1 O1 2.833107 1_655
Ba1 O3 2.861339 1_555
Ba1 O0 2.861339 1_555
Nd0 O0 2.357602 1_544
Nd0 O3 2.357602 1_454
Nd0 O2 2.357602 1_455
Nd0 O1 2.357602 1_545
Nd0 O5 2.363033 1_554
Nd0 O4 2.363033 1_445
Nb0 O4 2.035396 1_555
Nb0 O5 2.035396 1_555
Nb0 O3 2.035766 1_555
Nb0 O0 2.035766 1_555
Nb0 O1 2.035766 1_555
Nb0 O2 2.035766 1_555
