# generated using pymatgen
data_MgMo3Se4
_symmetry_space_group_name_H-M   'P 1'
_cell_length_a   9.30709300
_cell_length_b   9.49319020
_cell_length_c   9.69189392
_cell_angle_alpha   66.53996489
_cell_angle_beta   64.88839760
_cell_angle_gamma   65.36500474
_symmetry_Int_Tables_number   1
_chemical_formula_structural   MgMo3Se4
_chemical_formula_sum   'Mg4 Mo12 Se16'
_cell_volume   678.87436651
_cell_formula_units_Z   4
loop_
 _symmetry_equiv_pos_site_id
 _symmetry_equiv_pos_as_xyz
  1  'x, y, z'
loop_
 _atom_site_type_symbol
 _atom_site_label
 _atom_site_symmetry_multiplicity
 _atom_site_fract_x
 _atom_site_fract_y
 _atom_site_fract_z
 _atom_site_occupancy
  Mg  Mg0  1  0.36764900  0.27834100  0.67878200  1
  Mg  Mg1  1  0.22042600  0.77624400  0.76437800  1
  Mg  Mg2  1  0.77957400  0.22375600  0.23562200  1
  Mg  Mg3  1  0.63235100  0.72165900  0.32121800  1
  Mo  Mo0  1  0.55235400  0.68718200  0.86045800  1
  Mo  Mo1  1  0.81301700  0.64324600  0.93760400  1
  Mo  Mo2  1  0.86134800  0.55693300  0.68167600  1
  Mo  Mo3  1  0.64000900  0.93961900  0.81741300  1
  Mo  Mo4  1  0.68363800  0.85392000  0.56356300  1
  Mo  Mo5  1  0.94533400  0.81102000  0.64021200  1
  Mo  Mo6  1  0.05466600  0.18898000  0.35978800  1
  Mo  Mo7  1  0.31636200  0.14608000  0.43643700  1
  Mo  Mo8  1  0.35999100  0.06038100  0.18258700  1
  Mo  Mo9  1  0.13865200  0.44306700  0.31832400  1
  Mo  Mo10  1  0.18698300  0.35675400  0.06239600  1
  Mo  Mo11  1  0.44764600  0.31281800  0.13954200  1
  Se  Se0  1  0.49523000  0.22718100  0.89664600  1
  Se  Se1  1  0.73466400  0.39539100  0.96450200  1
  Se  Se2  1  0.59693100  0.59491700  0.62123600  1
  Se  Se3  1  0.37947400  0.98193800  0.73401300  1
  Se  Se4  1  0.11650600  0.52035400  0.76596600  1
  Se  Se5  1  0.89439900  0.89129900  0.89373200  1
  Se  Se6  1  0.98284600  0.73103300  0.39782700  1
  Se  Se7  1  0.76282200  0.10589600  0.53353500  1
  Se  Se8  1  0.23717800  0.89410400  0.46646500  1
  Se  Se9  1  0.01715400  0.26896700  0.60217300  1
  Se  Se10  1  0.10560100  0.10870100  0.10626800  1
  Se  Se11  1  0.88349400  0.47964600  0.23403400  1
  Se  Se12  1  0.62052600  0.01806200  0.26598700  1
  Se  Se13  1  0.40306900  0.40508300  0.37876400  1
  Se  Se14  1  0.26533600  0.60460900  0.03549800  1
  Se  Se15  1  0.50477000  0.77281900  0.10335400  1
loop_
_geom_bond_atom_site_label_1
_geom_bond_atom_site_label_2
_geom_bond_distance
_geom_bond_site_symmetry_2
Mg0 Se13 2.596682 1_555
Mg0 Se3 2.609356 1_545
Mg0 Se4 2.616922 1_555
Mg0 Se0 2.633451 1_555
Mg0 Se7 3.257239 1_555
Mg1 Se14 2.586438 1_556
Mg1 Se8 2.608453 1_555
Mg1 Se5 2.659048 1_455
Mg1 Se3 2.770065 1_555
Mg1 Se4 2.958563 1_555
Mg1 Mo5 3.115521 1_455
Mg1 Se2 3.148575 1_555
Mg2 Se1 2.586438 1_554
Mg2 Se7 2.608453 1_555
Mg2 Se10 2.659048 1_655
Mg2 Se12 2.770065 1_555
Mg2 Se11 2.958563 1_555
Mg2 Mo6 3.115521 1_655
Mg2 Se13 3.148575 1_555
Mg3 Se2 2.596682 1_555
Mg3 Se12 2.609356 1_565
Mg3 Se11 2.616922 1_555
Mg3 Se15 2.633451 1_555
Mg3 Se8 3.257239 1_555
Mo0 Se15 2.595711 1_556
Mo0 Se2 2.610050 1_555
Mo0 Se1 2.622744 1_555
Mo0 Se3 2.666527 1_555
Mo0 Se14 2.732906 1_556
Mo1 Se5 2.591525 1_555
Mo1 Se4 2.629935 1_655
Mo1 Se1 2.629973 1_555
Mo1 Se15 2.654030 1_556
Mo1 Mo5 2.707064 1_555
Mo1 Se11 2.879891 1_556
Mo2 Se1 2.583198 1_555
Mo2 Se2 2.616302 1_555
Mo2 Se6 2.622204 1_555
Mo2 Mo5 2.669107 1_555
Mo2 Se4 2.675969 1_655
Mo2 Se9 2.755668 1_655
Mo3 Se5 2.583422 1_555
Mo3 Se7 2.597099 1_565
Mo3 Se15 2.641720 1_556
Mo3 Mo5 2.673957 1_555
Mo3 Se3 2.699521 1_555
Mo3 Se0 2.753523 1_565
Mo4 Se6 2.585157 1_555
Mo4 Se3 2.642154 1_555
Mo4 Se7 2.661407 1_565
Mo4 Mo5 2.667940 1_555
Mo4 Se2 2.680713 1_555
Mo4 Se12 2.861393 1_565
Mo5 Se6 2.592341 1_555
Mo5 Se4 2.634952 1_655
Mo5 Se7 2.648129 1_565
Mo5 Se5 2.654044 1_555
Mo5 Se8 2.771624 1_655
Mo6 Se9 2.592341 1_555
Mo6 Se11 2.634952 1_455
Mo6 Se8 2.648129 1_545
Mo6 Se10 2.654044 1_555
Mo6 Mo7 2.667940 1_555
Mo6 Mo9 2.669107 1_555
Mo6 Mo8 2.673957 1_555
Mo6 Se7 2.771624 1_455
Mo7 Se9 2.585157 1_555
Mo7 Se12 2.642154 1_555
Mo7 Se8 2.661407 1_545
Mo7 Se13 2.680713 1_555
Mo7 Se3 2.861393 1_545
Mo8 Se10 2.583422 1_555
Mo8 Se8 2.597099 1_545
Mo8 Se0 2.641720 1_554
Mo8 Se12 2.699521 1_555
Mo8 Se15 2.753523 1_545
Mo9 Se14 2.583198 1_555
Mo9 Se13 2.616302 1_555
Mo9 Se9 2.622204 1_555
Mo9 Se11 2.675969 1_455
Mo9 Se6 2.755668 1_455
Mo10 Se10 2.591525 1_555
Mo10 Se11 2.629935 1_455
Mo10 Se14 2.629973 1_555
Mo10 Se0 2.654030 1_554
Mo10 Mo6 2.707064 1_555
Mo10 Se4 2.879891 1_554
Mo11 Se0 2.595711 1_554
Mo11 Se13 2.610050 1_555
Mo11 Se14 2.622744 1_555
Mo11 Se12 2.666527 1_555
Mo11 Se1 2.732906 1_554
