# generated using pymatgen
data_Ca19In8N7
_symmetry_space_group_name_H-M   'P 1'
_cell_length_a   10.39740012
_cell_length_b   10.39741617
_cell_length_c   10.39742559
_cell_angle_alpha   59.99984365
_cell_angle_beta   60.00023203
_cell_angle_gamma   60.00028580
_symmetry_Int_Tables_number   1
_chemical_formula_structural   Ca19In8N7
_chemical_formula_sum   'Ca19 In8 N7'
_cell_volume   794.80793452
_cell_formula_units_Z   1
loop_
 _symmetry_equiv_pos_site_id
 _symmetry_equiv_pos_as_xyz
  1  'x, y, z'
loop_
 _atom_site_type_symbol
 _atom_site_label
 _atom_site_symmetry_multiplicity
 _atom_site_fract_x
 _atom_site_fract_y
 _atom_site_fract_z
 _atom_site_occupancy
  Ca  Ca0  1  0.17258550  0.49999968  0.82741478  1
  Ca  Ca1  1  0.49999980  0.82741541  0.17258446  1
  Ca  Ca2  1  0.82741407  0.17258491  0.50000021  1
  Ca  Ca3  1  0.16632141  0.83368020  0.16631930  1
  Ca  Ca4  1  0.82741428  0.50000058  0.17258456  1
  Ca  Ca5  1  0.17258557  0.82741472  0.49999969  1
  Ca  Ca6  1  0.16632091  0.16631973  0.83367984  1
  Ca  Ca7  1  0.17258603  0.49999992  0.49999982  1
  Ca  Ca8  1  0.83367868  0.83368048  0.16631965  1
  Ca  Ca9  1  0.83367865  0.16631973  0.83368031  1
  Ca  Ca10  1  0.49999947  0.82741486  0.49999972  1
  Ca  Ca11  1  0.49999995  0.49999985  0.49999987  1
  Ca  Ca12  1  0.50000017  0.50000017  0.17258492  1
  Ca  Ca13  1  0.16632047  0.83367938  0.83367970  1
  Ca  Ca14  1  0.49999975  0.17258479  0.82741567  1
  Ca  Ca15  1  0.50000009  0.17258512  0.50000038  1
  Ca  Ca16  1  0.82741345  0.50000015  0.49999995  1
  Ca  Ca17  1  0.83367941  0.16632047  0.16632019  1
  Ca  Ca18  1  0.49999988  0.49999990  0.82741500  1
  In  In0  1  0.17531080  0.17530221  0.47407795  1
  In  In1  1  0.82468905  0.52592191  0.82469778  1
  In  In2  1  0.47408302  0.17530523  0.17530514  1
  In  In3  1  0.17531089  0.47407780  0.17530214  1
  In  In4  1  0.52592004  0.82469313  0.82469695  1
  In  In5  1  0.17530660  0.17530514  0.17530503  1
  In  In6  1  0.82469366  0.82469451  0.82469496  1
  In  In7  1  0.82468905  0.82469814  0.52592370  1
  N  N0  1  0.67409048  0.32590869  0.67409156  1
  N  N1  1  0.67409091  0.32590913  0.32590857  1
  N  N2  1  0.32590904  0.67409078  0.67409126  1
  N  N3  1  0.32590931  0.67409116  0.32590838  1
  N  N4  1  0.32590908  0.32590859  0.67409144  1
  N  N5  1  0.67409058  0.67409155  0.32590822  1
  N  N6  1  -0.00000006  -0.00000004  -0.00000010  1
loop_
_geom_bond_atom_site_label_1
_geom_bond_atom_site_label_2
_geom_bond_distance
_geom_bond_site_symmetry_2
Ca0 N2 2.412011 1_555
Ca0 N4 2.412028 1_555
Ca0 In3 3.503863 1_556
Ca0 In5 3.503886 1_556
Ca0 In1 3.503907 1_455
Ca0 In6 3.503914 1_455
Ca1 N3 2.412012 1_555
Ca1 N5 2.412014 1_555
Ca1 In4 3.503859 1_554
Ca1 In2 3.503888 1_565
Ca1 In5 3.503896 1_565
Ca1 In6 3.503897 1_554
Ca2 N1 2.412015 1_555
Ca2 N0 2.412034 1_555
Ca2 In7 3.503845 1_545
Ca2 In6 3.503887 1_545
Ca2 In0 3.503911 1_655
Ca2 In5 3.503919 1_655
Ca3 N3 2.346613 1_555
Ca3 N6 2.445601 1_565
Ca3 In5 3.647836 1_565
Ca3 In4 3.647850 1_554
Ca3 In3 3.647897 1_555
Ca3 In7 3.647930 1_455
Ca4 N1 2.412012 1_555
Ca4 N5 2.412030 1_555
Ca4 In1 3.503859 1_554
Ca4 In6 3.503879 1_554
Ca4 In3 3.503909 1_655
Ca4 In5 3.503920 1_655
Ca5 N2 2.412017 1_555
Ca5 N3 2.412032 1_555
Ca5 In0 3.503861 1_565
Ca5 In5 3.503887 1_565
Ca5 In7 3.503897 1_455
Ca5 In6 3.503915 1_455
Ca6 N4 2.346611 1_555
Ca6 N6 2.445597 1_556
Ca6 In5 3.647842 1_556
Ca6 In4 3.647875 1_545
Ca6 In0 3.647895 1_555
Ca6 In1 3.647917 1_455
Ca7 N3 2.412011 1_555
Ca7 N4 2.412015 1_555
Ca7 In0 3.503936 1_555
Ca7 In3 3.503940 1_555
Ca7 In1 3.503961 1_455
Ca7 In7 3.503964 1_455
Ca8 N5 2.346611 1_555
Ca8 N6 2.445597 1_665
Ca8 In6 3.647837 1_554
Ca8 In2 3.647847 1_565
Ca8 In7 3.647919 1_555
Ca8 In3 3.647921 1_655
Ca9 N0 2.346613 1_555
Ca9 N6 2.445601 1_656
Ca9 In6 3.647835 1_545
Ca9 In2 3.647846 1_556
Ca9 In1 3.647896 1_555
Ca9 In0 3.647918 1_655
Ca10 N2 2.412011 1_555
Ca10 N5 2.412032 1_555
Ca10 In0 3.503861 1_565
Ca10 In2 3.503887 1_565
Ca10 In7 3.503900 1_555
Ca10 In4 3.503941 1_555
Ca11 N4 2.559858 1_555
Ca11 N5 2.559860 1_555
Ca11 N3 2.559861 1_555
Ca11 N0 2.559862 1_555
Ca11 N1 2.559877 1_555
Ca11 N2 2.559880 1_555
Ca12 N1 2.412013 1_555
Ca12 N3 2.412029 1_555
Ca12 In1 3.503859 1_554
Ca12 In4 3.503867 1_554
Ca12 In3 3.503885 1_555
Ca12 In2 3.503902 1_555
Ca13 N2 2.346629 1_555
Ca13 N6 2.445616 1_566
Ca13 In6 3.647842 1_455
Ca13 In3 3.647848 1_556
Ca13 In0 3.647851 1_565
Ca13 In4 3.647879 1_555
Ca14 N0 2.412011 1_555
Ca14 N4 2.412016 1_555
Ca14 In4 3.503881 1_545
Ca14 In2 3.503886 1_556
Ca14 In5 3.503893 1_556
Ca14 In6 3.503903 1_545
Ca15 N1 2.412014 1_555
Ca15 N4 2.412030 1_555
Ca15 In7 3.503861 1_545
Ca15 In0 3.503886 1_555
Ca15 In4 3.503907 1_545
Ca15 In2 3.503909 1_555
Ca16 N0 2.412010 1_555
Ca16 N5 2.412015 1_555
Ca16 In1 3.503942 1_555
Ca16 In7 3.503952 1_555
Ca16 In3 3.503963 1_655
Ca16 In0 3.503964 1_655
Ca17 N1 2.346629 1_555
Ca17 N6 2.445616 1_655
Ca17 In2 3.647842 1_555
Ca17 In5 3.647845 1_655
Ca17 In1 3.647847 1_554
Ca17 In7 3.647858 1_545
Ca18 N2 2.412014 1_555
Ca18 N0 2.412031 1_555
Ca18 In3 3.503860 1_556
Ca18 In1 3.503881 1_555
Ca18 In2 3.503886 1_556
Ca18 In4 3.503913 1_555
In0 In2 3.106472 1_555
In0 In5 3.106476 1_555
In0 In3 3.106489 1_555
In1 In4 3.106448 1_555
In1 In6 3.106472 1_555
In1 In7 3.106484 1_555
In2 In3 3.106471 1_555
In2 In5 3.106499 1_555
In3 In5 3.106471 1_555
In4 In7 3.106458 1_555
In4 In6 3.106466 1_555
In6 In7 3.106457 1_555
