# generated using pymatgen
data_K2SiH4(NO)2
_symmetry_space_group_name_H-M   'P 1'
_cell_length_a   9.91554350
_cell_length_b   6.62854526
_cell_length_c   7.57032927
_cell_angle_alpha   89.05505985
_cell_angle_beta   90.00000000
_cell_angle_gamma   90.00000000
_symmetry_Int_Tables_number   1
_chemical_formula_structural   K2SiH4(NO)2
_chemical_formula_sum   'K8 Si4 H16 N8 O8'
_cell_volume   497.49698500
_cell_formula_units_Z   4
loop_
 _symmetry_equiv_pos_site_id
 _symmetry_equiv_pos_as_xyz
  1  'x, y, z'
loop_
 _atom_site_type_symbol
 _atom_site_label
 _atom_site_symmetry_multiplicity
 _atom_site_fract_x
 _atom_site_fract_y
 _atom_site_fract_z
 _atom_site_occupancy
  K  K0  1  0.56346403  0.65224587  0.15941984  1
  K  K1  1  0.06346403  0.34775413  0.34058016  1
  K  K2  1  0.43653597  0.34775413  0.84058016  1
  K  K3  1  0.93653597  0.65224587  0.65941984  1
  K  K4  1  0.19375299  0.66378162  0.97616336  1
  K  K5  1  0.69375299  0.33621838  0.52383664  1
  K  K6  1  0.80624701  0.33621838  0.02383664  1
  K  K7  1  0.30624701  0.66378162  0.47616336  1
  Si  Si0  1  0.42221205  0.21094926  0.25415149  1
  Si  Si1  1  0.92221205  0.78905074  0.24584851  1
  Si  Si2  1  0.57778795  0.78905074  0.74584851  1
  Si  Si3  1  0.07778795  0.21094926  0.75415149  1
  H  H0  1  0.87655428  0.05548378  0.44380181  1
  H  H1  1  0.37655428  0.94451622  0.05619819  1
  H  H2  1  0.12344572  0.94451622  0.55619819  1
  H  H3  1  0.62344572  0.05548378  0.94380181  1
  H  H4  1  0.76047909  0.05190136  0.28625619  1
  H  H5  1  0.26047909  0.94809864  0.21374381  1
  H  H6  1  0.23952091  0.94809864  0.71374381  1
  H  H7  1  0.73952091  0.05190136  0.78625619  1
  H  H8  1  0.81253068  0.74260924  0.96572507  1
  H  H9  1  0.31253068  0.25739076  0.53427493  1
  H  H10  1  0.18746932  0.25739076  0.03427493  1
  H  H11  1  0.68746932  0.74260924  0.46572507  1
  H  H12  1  0.93081919  0.91186494  0.94421273  1
  H  H13  1  0.43081919  0.08813506  0.55578727  1
  H  H14  1  0.06918081  0.08813506  0.05578727  1
  H  H15  1  0.56918081  0.91186494  0.44421273  1
  N  N0  1  0.13982337  0.97368890  0.68683983  1
  N  N1  1  0.63982337  0.02631110  0.81316017  1
  N  N2  1  0.86017663  0.02631110  0.31316017  1
  N  N3  1  0.36017663  0.97368890  0.18683983  1
  N  N4  1  0.90457156  0.78544204  0.01386029  1
  N  N5  1  0.40457156  0.21455796  0.48613971  1
  N  N6  1  0.09542844  0.21455796  0.98613971  1
  N  N7  1  0.59542844  0.78544204  0.51386029  1
  O  O0  1  0.83265744  0.60188068  0.31871321  1
  O  O1  1  0.33265744  0.39811932  0.18128679  1
  O  O2  1  0.16734256  0.39811932  0.68128679  1
  O  O3  1  0.66734256  0.60188068  0.81871321  1
  O  O4  1  0.07865828  0.78089570  0.30147967  1
  O  O5  1  0.57865828  0.21910430  0.19852033  1
  O  O6  1  0.92134172  0.21910430  0.69852033  1
  O  O7  1  0.42134172  0.78089570  0.80147967  1
loop_
_geom_bond_atom_site_label_1
_geom_bond_atom_site_label_2
_geom_bond_distance
_geom_bond_site_symmetry_2
K0 O3 2.802386 1_554
K0 O1 2.844868 1_555
K0 N7 2.856191 1_555
K0 O5 2.885393 1_555
K0 N3 2.942894 1_555
K0 O0 2.945675 1_555
K0 O7 3.159034 1_554
K1 O2 2.802386 1_555
K1 O0 2.844868 1_455
K1 N6 2.856191 1_554
K1 O4 2.885393 1_555
K1 N2 2.942894 1_455
K1 O1 2.945675 1_555
K1 O6 3.159034 1_455
K2 O1 2.802386 1_556
K2 O3 2.844868 1_555
K2 N5 2.856191 1_555
K2 O7 2.885393 1_555
K2 N1 2.942894 1_555
K2 O2 2.945675 1_555
K2 O5 3.159034 1_556
K3 O0 2.802386 1_555
K3 O2 2.844868 1_655
K3 N4 2.856191 1_556
K3 O6 2.885393 1_555
K3 N0 2.942894 1_655
K3 O3 2.945675 1_555
K3 O4 3.159034 1_655
K4 O1 2.705385 1_556
K4 O7 2.722149 1_555
K4 O4 2.834297 1_556
K4 O2 2.877919 1_555
K4 N4 2.993542 1_456
K5 O0 2.705385 1_555
K5 O6 2.722149 1_555
K5 O5 2.834297 1_555
K5 O3 2.877919 1_555
K5 N5 2.993542 1_555
K6 O3 2.705385 1_554
K6 O5 2.722149 1_555
K6 O6 2.834297 1_554
K6 O0 2.877919 1_555
K6 N6 2.993542 1_654
K7 O2 2.705385 1_555
K7 O4 2.722149 1_555
K7 O7 2.834297 1_555
K7 O1 2.877919 1_555
K7 N7 2.993542 1_555
H0 N2 1.023813 1_555
H0 K5 2.674420 1_555
H0 K1 2.783647 1_655
H1 N3 1.023813 1_555
H1 K4 2.674420 1_554
H1 K0 2.783647 1_555
H2 N0 1.023813 1_555
H2 K7 2.674420 1_555
H2 K3 2.783647 1_455
H3 N1 1.023813 1_555
H3 K6 2.674420 1_556
H3 K2 2.783647 1_555
H4 N2 1.022916 1_555
H4 K5 2.708528 1_555
H4 K6 2.753325 1_555
H5 N3 1.022916 1_555
H5 K4 2.708528 1_554
H5 K7 2.753325 1_555
H6 N0 1.022916 1_555
H6 K7 2.708528 1_555
H6 K4 2.753325 1_555
H7 N1 1.022916 1_555
H7 K6 2.708528 1_556
H7 K5 2.753325 1_555
H8 N4 1.024555 1_556
H8 K3 2.700635 1_555
H8 K6 2.723009 1_556
H8 K0 2.928996 1_556
H9 N5 1.024555 1_555
H9 K2 2.700635 1_555
H9 K7 2.723009 1_555
H9 K1 2.928996 1_555
H10 N6 1.024555 1_554
H10 K1 2.700635 1_555
H10 K4 2.723009 1_554
H10 K2 2.928996 1_554
H11 N7 1.024555 1_555
H11 K0 2.700635 1_555
H11 K5 2.723009 1_555
H11 K3 2.928996 1_555
H12 N4 1.016565 1_556
H12 K3 2.781242 1_555
H13 N5 1.016565 1_555
H13 K2 2.781242 1_555
H14 N6 1.016565 1_554
H14 K1 2.781242 1_555
H15 N7 1.016565 1_555
H15 K0 2.781242 1_555
N0 Si3 1.771389 1_565
N1 Si2 1.771389 1_545
N2 Si1 1.771389 1_545
N3 Si0 1.771389 1_565
N4 Si1 1.765471 1_555
N5 Si0 1.765471 1_555
N6 Si3 1.765471 1_555
N7 Si2 1.765471 1_555
O0 Si1 1.615384 1_555
O1 Si0 1.615384 1_555
O2 Si3 1.615384 1_555
O3 Si2 1.615384 1_555
O4 Si1 1.608076 1_455
O5 Si0 1.608076 1_555
O6 Si3 1.608076 1_655
O7 Si2 1.608076 1_555
