# generated using pymatgen
data_Ca3Ga3Rh2
_symmetry_space_group_name_H-M   'P 1'
_cell_length_a   5.83142861
_cell_length_b   8.07621369
_cell_length_c   14.80350837
_cell_angle_alpha   90.00000000
_cell_angle_beta   90.00000000
_cell_angle_gamma   90.00101547
_symmetry_Int_Tables_number   1
_chemical_formula_structural   Ca3Ga3Rh2
_chemical_formula_sum   'Ca12 Ga12 Rh8'
_cell_volume   697.18401053
_cell_formula_units_Z   4
loop_
 _symmetry_equiv_pos_site_id
 _symmetry_equiv_pos_as_xyz
  1  'x, y, z'
loop_
 _atom_site_type_symbol
 _atom_site_label
 _atom_site_symmetry_multiplicity
 _atom_site_fract_x
 _atom_site_fract_y
 _atom_site_fract_z
 _atom_site_occupancy
  Ca  Ca0  1  0.11546366  0.54669764  0.60873430  1
  Ca  Ca1  1  0.61745098  0.69776940  0.75000000  1
  Ca  Ca2  1  0.61547583  0.95336484  0.10872113  1
  Ca  Ca3  1  0.38452417  0.04663516  0.89127887  1
  Ca  Ca4  1  0.61547583  0.95336484  0.39127887  1
  Ca  Ca5  1  0.88260698  0.19765873  0.75000000  1
  Ca  Ca6  1  0.38254902  0.30223060  0.25000000  1
  Ca  Ca7  1  0.38452417  0.04663516  0.60872113  1
  Ca  Ca8  1  0.88453634  0.45330236  0.10873430  1
  Ca  Ca9  1  0.11546366  0.54669764  0.89126570  1
  Ca  Ca10  1  0.11739302  0.80234127  0.25000000  1
  Ca  Ca11  1  0.88453634  0.45330236  0.39126570  1
  Ga  Ga0  1  0.07770381  0.85306075  0.75000000  1
  Ga  Ga1  1  0.87292654  0.17920725  0.95955065  1
  Ga  Ga2  1  0.92229619  0.14693925  0.25000000  1
  Ga  Ga3  1  0.57764993  0.64698640  0.25000000  1
  Ga  Ga4  1  0.12707346  0.82079275  0.45955065  1
  Ga  Ga5  1  0.37282539  0.32067644  0.04046570  1
  Ga  Ga6  1  0.62717461  0.67932356  0.54046570  1
  Ga  Ga7  1  0.62717461  0.67932356  0.95953430  1
  Ga  Ga8  1  0.37282539  0.32067644  0.45953430  1
  Ga  Ga9  1  0.12707346  0.82079275  0.04044935  1
  Ga  Ga10  1  0.42235007  0.35301360  0.75000000  1
  Ga  Ga11  1  0.87292654  0.17920725  0.54044935  1
  Rh  Rh0  1  0.89751133  0.89075334  0.59578698  1
  Rh  Rh1  1  0.60254435  0.39069340  0.90423371  1
  Rh  Rh2  1  0.89751133  0.89075334  0.90421302  1
  Rh  Rh3  1  0.39745565  0.60930660  0.09576629  1
  Rh  Rh4  1  0.10248867  0.10924666  0.40421302  1
  Rh  Rh5  1  0.39745565  0.60930660  0.40423371  1
  Rh  Rh6  1  0.60254435  0.39069340  0.59576629  1
  Rh  Rh7  1  0.10248867  0.10924666  0.09578698  1
loop_
_geom_bond_atom_site_label_1
_geom_bond_atom_site_label_2
_geom_bond_distance
_geom_bond_site_symmetry_2
Ca0 Rh0 3.061573 1_455
Ca0 Rh6 3.113218 1_555
Ca0 Ga4 3.127625 1_555
Ca0 Ga10 3.165877 1_555
Ca0 Ga6 3.205707 1_455
Ca0 Ga8 3.234627 1_555
Ca0 Ga0 3.247102 1_555
Ca0 Rh6 3.251234 1_455
Ca0 Ga6 3.327583 1_555
Ca0 Ga11 3.439571 1_455
Ca1 Ga0 2.962482 1_655
Ca1 Ga10 3.007779 1_555
Ca1 Ga7 3.105936 1_555
Ca1 Ga6 3.105936 1_555
Ca1 Rh0 3.210587 1_555
Ca1 Rh2 3.210587 1_555
Ca1 Rh1 3.372092 1_555
Ca1 Rh6 3.372092 1_555
Ca1 Ga0 3.388187 1_555
Ca2 Rh3 3.061722 1_555
Ca2 Rh7 3.112385 1_665
Ca2 Ga7 3.127364 1_554
Ca2 Ga2 3.165320 1_565
Ca2 Ga9 3.206129 1_555
Ca2 Ga1 3.233724 1_564
Ca2 Ga3 3.247342 1_555
Ca2 Rh7 3.251226 1_565
Ca2 Ga9 3.326899 1_655
Ca2 Ga5 3.438512 1_565
Ca3 Rh1 3.061722 1_555
Ca3 Rh2 3.112385 1_445
Ca3 Ga5 3.127364 1_556
Ca3 Ga0 3.165320 1_545
Ca3 Ga1 3.206129 1_555
Ca3 Ga9 3.233724 1_546
Ca3 Ga10 3.247342 1_555
Ca3 Rh2 3.251226 1_545
Ca3 Ga1 3.326899 1_455
Ca3 Ga7 3.438512 1_545
Ca4 Rh5 3.061722 1_555
Ca4 Rh4 3.112385 1_665
Ca4 Ga6 3.127364 1_555
Ca4 Ga2 3.165320 1_565
Ca4 Ga4 3.206129 1_555
Ca4 Ga11 3.233724 1_565
Ca4 Ga3 3.247342 1_555
Ca4 Rh4 3.251226 1_565
Ca4 Ga4 3.326899 1_655
Ca4 Ga8 3.438512 1_565
Ca5 Ga10 2.962761 1_555
Ca5 Ga0 3.006627 1_645
Ca5 Ga11 3.106175 1_555
Ca5 Ga1 3.106175 1_555
Ca5 Rh1 3.211039 1_555
Ca5 Rh6 3.211039 1_555
Ca5 Rh2 3.370874 1_545
Ca5 Rh0 3.370874 1_545
Ca5 Ga10 3.388313 1_655
Ca6 Ga2 2.962482 1_455
Ca6 Ga3 3.007779 1_555
Ca6 Ga8 3.105936 1_555
Ca6 Ga5 3.105936 1_555
Ca6 Rh4 3.210587 1_555
Ca6 Rh7 3.210587 1_555
Ca6 Rh3 3.372092 1_555
Ca6 Rh5 3.372092 1_555
Ca6 Ga2 3.388187 1_555
Ca7 Rh6 3.061722 1_555
Ca7 Rh0 3.112385 1_445
Ca7 Ga8 3.127364 1_555
Ca7 Ga0 3.165320 1_545
Ca7 Ga11 3.206129 1_555
Ca7 Ga4 3.233724 1_545
Ca7 Ga10 3.247342 1_555
Ca7 Rh0 3.251226 1_545
Ca7 Ga11 3.326899 1_455
Ca7 Ga6 3.438512 1_545
Ca8 Rh7 3.061573 1_655
Ca8 Rh3 3.113218 1_555
Ca8 Ga1 3.127625 1_554
Ca8 Ga3 3.165877 1_555
Ca8 Ga5 3.205707 1_655
Ca8 Ga7 3.234627 1_554
Ca8 Ga2 3.247102 1_555
Ca8 Rh3 3.251234 1_655
Ca8 Ga5 3.327583 1_555
Ca8 Ga9 3.439571 1_655
Ca9 Rh2 3.061573 1_455
Ca9 Rh1 3.113218 1_555
Ca9 Ga9 3.127625 1_556
Ca9 Ga10 3.165877 1_555
Ca9 Ga7 3.205707 1_455
Ca9 Ga5 3.234627 1_556
Ca9 Ga0 3.247102 1_555
Ca9 Rh1 3.251234 1_455
Ca9 Ga7 3.327583 1_555
Ca9 Ga1 3.439571 1_455
Ca10 Ga3 2.962761 1_555
Ca10 Ga2 3.006627 1_465
Ca10 Ga9 3.106175 1_555
Ca10 Ga4 3.106175 1_555
Ca10 Rh5 3.211039 1_555
Ca10 Rh3 3.211039 1_555
Ca10 Rh7 3.370874 1_565
Ca10 Rh4 3.370874 1_565
Ca10 Ga3 3.388313 1_455
Ca11 Rh4 3.061573 1_655
Ca11 Rh5 3.113218 1_555
Ca11 Ga11 3.127625 1_555
Ca11 Ga3 3.165877 1_555
Ca11 Ga8 3.205707 1_655
Ca11 Ga6 3.234627 1_555
Ca11 Ga2 3.247102 1_555
Ca11 Rh5 3.251234 1_655
Ca11 Ga8 3.327583 1_555
Ca11 Ga4 3.439571 1_655
Ga0 Rh2 2.531486 1_455
Ga0 Rh0 2.531486 1_455
Ga1 Rh1 2.464546 1_555
Ga1 Rh2 2.473610 1_545
Ga1 Rh7 2.485700 1_656
Ga2 Rh4 2.531486 1_655
Ga2 Rh7 2.531486 1_655
Ga3 Rh3 2.531749 1_555
Ga3 Rh5 2.531749 1_555
Ga4 Rh5 2.464546 1_555
Ga4 Rh4 2.473610 1_565
Ga4 Rh0 2.485700 1_455
Ga5 Rh7 2.464043 1_555
Ga5 Rh3 2.474780 1_555
Ga5 Rh1 2.486234 1_554
Ga6 Rh0 2.464043 1_555
Ga6 Rh6 2.474780 1_555
Ga6 Rh5 2.486234 1_555
Ga7 Rh2 2.464043 1_555
Ga7 Rh1 2.474780 1_555
Ga7 Rh3 2.486234 1_556
Ga8 Rh4 2.464043 1_555
Ga8 Rh5 2.474780 1_555
Ga8 Rh6 2.486234 1_555
Ga9 Rh3 2.464546 1_555
Ga9 Rh7 2.473610 1_565
Ga9 Rh2 2.485700 1_454
Ga10 Rh6 2.531749 1_555
Ga10 Rh1 2.531749 1_555
Ga11 Rh6 2.464546 1_555
Ga11 Rh0 2.473610 1_545
Ga11 Rh4 2.485700 1_655
