# generated using pymatgen
data_HfSi2Br
_symmetry_space_group_name_H-M   'P 1'
_cell_length_a   4.79480764
_cell_length_b   4.79480764
_cell_length_c   4.79480764
_cell_angle_alpha   60.00000000
_cell_angle_beta   60.00000000
_cell_angle_gamma   60.00000000
_symmetry_Int_Tables_number   1
_chemical_formula_structural   HfSi2Br
_chemical_formula_sum   'Hf1 Si2 Br1'
_cell_volume   77.94685005
_cell_formula_units_Z   1
loop_
 _symmetry_equiv_pos_site_id
 _symmetry_equiv_pos_as_xyz
  1  'x, y, z'
loop_
 _atom_site_type_symbol
 _atom_site_label
 _atom_site_symmetry_multiplicity
 _atom_site_fract_x
 _atom_site_fract_y
 _atom_site_fract_z
 _atom_site_occupancy
  Hf  Hf0  1  0.50000000  0.50000000  0.50000000  1
  Si  Si0  1  0.25000000  0.25000000  0.25000000  1
  Si  Si1  1  0.75000000  0.75000000  0.75000000  1
  Br  Br0  1  0.00000000  0.00000000  0.00000000  1
loop_
_geom_bond_atom_site_label_1
_geom_bond_atom_site_label_2
_geom_bond_distance
_geom_bond_site_symmetry_2
Hf0 Si0 2.936208 1_556
Hf0 Si0 2.936208 1_555
Hf0 Si1 2.936208 1_555
Hf0 Si1 2.936208 1_554
Hf0 Si1 2.936208 1_455
Hf0 Si0 2.936208 1_655
Hf0 Si1 2.936208 1_545
Hf0 Si0 2.936208 1_565
Br0 Si0 2.936208 1_555
Br0 Si0 2.936208 1_554
Br0 Si1 2.936208 1_445
Br0 Si1 2.936208 1_444
Br0 Si0 2.936208 1_455
Br0 Si0 2.936208 1_545
Br0 Si1 2.936208 1_454
Br0 Si1 2.936208 1_544
Br0 Hf0 3.390441 1_445
Br0 Hf0 3.390441 1_455
Br0 Hf0 3.390441 1_554
Br0 Hf0 3.390441 1_454
Br0 Hf0 3.390441 1_544
Br0 Hf0 3.390441 1_545
