# generated using pymatgen
data_SbN6Cl
_symmetry_space_group_name_H-M   'P 1'
_cell_length_a   7.61632984
_cell_length_b   7.61632984
_cell_length_c   14.08103975
_cell_angle_alpha   75.19839614
_cell_angle_beta   75.19839614
_cell_angle_gamma   68.62744406
_symmetry_Int_Tables_number   1
_chemical_formula_structural   SbN6Cl
_chemical_formula_sum   'Sb4 N24 Cl4'
_cell_volume   723.34799245
_cell_formula_units_Z   4
loop_
 _symmetry_equiv_pos_site_id
 _symmetry_equiv_pos_as_xyz
  1  'x, y, z'
loop_
 _atom_site_type_symbol
 _atom_site_label
 _atom_site_symmetry_multiplicity
 _atom_site_fract_x
 _atom_site_fract_y
 _atom_site_fract_z
 _atom_site_occupancy
  Sb  Sb0  1  0.16859900  0.62922400  0.52452300  1
  Sb  Sb1  1  0.83140100  0.37077600  0.47547700  1
  Sb  Sb2  1  0.62922400  0.16859900  0.02452300  1
  Sb  Sb3  1  0.37077600  0.83140100  0.97547700  1
  N  N0  1  0.46701400  0.27508800  0.33630600  1
  N  N1  1  0.84205100  0.86171300  0.79624100  1
  N  N2  1  0.64391000  0.67326500  0.11693200  1
  N  N3  1  0.15136100  0.17865400  0.27546200  1
  N  N4  1  0.82134600  0.84863900  0.22453800  1
  N  N5  1  0.35609000  0.32673500  0.88306800  1
  N  N6  1  0.56168200  0.82682600  0.06791000  1
  N  N7  1  0.13828700  0.15794900  0.70375900  1
  N  N8  1  0.17865400  0.15136100  0.77546200  1
  N  N9  1  0.96352900  0.99190800  0.96988200  1
  N  N10  1  0.17317400  0.43831800  0.43209000  1
  N  N11  1  0.72491200  0.53298600  0.16369400  1
  N  N12  1  0.86171300  0.84205100  0.29624100  1
  N  N13  1  0.43831800  0.17317400  0.93209000  1
  N  N14  1  0.27508800  0.46701400  0.83630600  1
  N  N15  1  0.15794900  0.13828700  0.20375900  1
  N  N16  1  0.03647100  0.00809200  0.03011800  1
  N  N17  1  0.84863900  0.82134600  0.72453800  1
  N  N18  1  0.82682600  0.56168200  0.56791000  1
  N  N19  1  0.67326500  0.64391000  0.61693200  1
  N  N20  1  0.00809200  0.03647100  0.53011800  1
  N  N21  1  0.32673500  0.35609000  0.38306800  1
  N  N22  1  0.53298600  0.72491200  0.66369400  1
  N  N23  1  0.99190800  0.96352900  0.46988200  1
  Cl  Cl0  1  0.43807000  0.71601100  0.40983900  1
  Cl  Cl1  1  0.56193000  0.28398900  0.59016100  1
  Cl  Cl2  1  0.71601100  0.43807000  0.90983900  1
  Cl  Cl3  1  0.28398900  0.56193000  0.09016100  1
loop_
_geom_bond_atom_site_label_1
_geom_bond_atom_site_label_2
_geom_bond_distance
_geom_bond_site_symmetry_2
N0 N21 1.150376 1_555
N1 N17 1.112618 1_555
N2 N6 1.229274 1_555
N6 Sb3 2.171687 1_554
N6 Sb2 2.723350 1_565
N7 N8 1.112618 1_555
N9 Sb2 2.432417 1_566
N10 N21 1.229274 1_555
N10 Sb0 2.171687 1_555
N10 Sb1 2.723350 1_455
N11 N2 1.150376 1_555
N12 N4 1.112618 1_555
N13 N5 1.229274 1_555
N13 Sb2 2.171687 1_556
N13 Sb3 2.723350 1_545
N14 N5 1.150376 1_555
N15 N3 1.112618 1_555
N16 N9 1.177855 1_444
N16 Sb3 2.432417 1_544
N18 N19 1.229274 1_555
N18 Sb1 2.171687 1_555
N18 Sb0 2.723350 1_655
N19 N22 1.150376 1_555
N20 N23 1.177855 1_445
N20 Sb1 2.432417 1_455
N23 Sb0 2.432417 1_655
Cl0 Sb0 2.450906 1_555
Cl1 Sb1 2.450906 1_555
Cl2 Sb2 2.450906 1_556
Cl3 Sb3 2.450906 1_554
