# generated using pymatgen
data_Ta2H4O7
_symmetry_space_group_name_H-M   'P 1'
_cell_length_a   7.72945353
_cell_length_b   7.49804704
_cell_length_c   7.46237693
_cell_angle_alpha   62.21642088
_cell_angle_beta   59.11817636
_cell_angle_gamma   58.66540276
_symmetry_Int_Tables_number   1
_chemical_formula_structural   Ta2H4O7
_chemical_formula_sum   'Ta4 H8 O14'
_cell_volume   305.10399898
_cell_formula_units_Z   2
loop_
 _symmetry_equiv_pos_site_id
 _symmetry_equiv_pos_as_xyz
  1  'x, y, z'
loop_
 _atom_site_type_symbol
 _atom_site_label
 _atom_site_symmetry_multiplicity
 _atom_site_fract_x
 _atom_site_fract_y
 _atom_site_fract_z
 _atom_site_occupancy
  Ta  Ta0  1  0.12500000  0.62500000  0.62500000  1
  Ta  Ta1  1  0.62500000  0.12500000  0.62500000  1
  Ta  Ta2  1  0.62500000  0.62500000  0.12500000  1
  Ta  Ta3  1  0.62500000  0.62500000  0.62500000  1
  H  H0  1  0.80371000  0.19629000  0.19629000  1
  H  H1  1  0.19629000  0.80371000  0.80371000  1
  H  H2  1  0.44629000  0.05371000  0.05371000  1
  H  H3  1  0.05371000  0.44629000  0.44629000  1
  H  H4  1  0.91188700  0.08811300  0.91188700  1
  H  H5  1  0.08811300  0.91188700  0.08811300  1
  H  H6  1  0.16188700  0.33811300  0.16188700  1
  H  H7  1  0.33811300  0.16188700  0.33811300  1
  O  O0  1  0.32678100  0.32678100  0.67321900  1
  O  O1  1  0.67321900  0.67321900  0.32678100  1
  O  O2  1  0.32054800  0.67945200  0.32054800  1
  O  O3  1  0.67945200  0.32054800  0.67945200  1
  O  O4  1  0.70665400  0.29334600  0.29334600  1
  O  O5  1  0.29334600  0.70665400  0.70665400  1
  O  O6  1  0.92321900  0.92321900  0.57678100  1
  O  O7  1  0.57678100  0.57678100  0.92321900  1
  O  O8  1  0.92945200  0.57054800  0.92945200  1
  O  O9  1  0.57054800  0.92945200  0.57054800  1
  O  O10  1  0.54334600  0.95665400  0.95665400  1
  O  O11  1  0.95665400  0.54334600  0.54334600  1
  O  O12  1  0.00000000  0.00000000  0.00000000  1
  O  O13  1  0.25000000  0.25000000  0.25000000  1
loop_
_geom_bond_atom_site_label_1
_geom_bond_atom_site_label_2
_geom_bond_distance
_geom_bond_site_symmetry_2
H0 O4 0.991334 1_555
H1 O5 0.991334 1_555
H2 O10 0.991334 1_544
H3 O11 0.991334 1_455
H4 O12 0.958861 1_656
H5 O12 0.958861 1_565
H6 O13 0.958861 1_555
H7 O13 0.958861 1_555
O0 Ta1 1.939264 1_555
O0 Ta0 1.939264 1_555
O1 Ta2 1.939264 1_555
O1 Ta3 1.939264 1_555
O2 Ta0 1.965939 1_555
O2 Ta2 1.965939 1_555
O3 Ta1 1.965939 1_555
O3 Ta3 1.965939 1_555
O4 Ta2 2.104665 1_555
O4 Ta1 2.104665 1_555
O5 Ta0 2.104665 1_555
O5 Ta3 2.104665 1_555
O6 Ta0 1.939264 1_655
O6 Ta1 1.939264 1_565
O7 Ta3 1.939264 1_555
O7 Ta2 1.939264 1_556
O8 Ta2 1.965939 1_556
O8 Ta0 1.965939 1_655
O9 Ta3 1.965939 1_555
O9 Ta1 1.965939 1_565
O10 Ta1 2.104665 1_565
O10 Ta2 2.104665 1_556
O11 Ta0 2.104665 1_655
O11 Ta3 2.104665 1_555
