# generated using pymatgen
data_Nd(HO)3
_symmetry_space_group_name_H-M   'P 1'
_cell_length_a   6.42369827
_cell_length_b   6.42578412
_cell_length_c   3.72548882
_cell_angle_alpha   90.00000000
_cell_angle_beta   90.00000000
_cell_angle_gamma   120.00053537
_symmetry_Int_Tables_number   1
_chemical_formula_structural   Nd(HO)3
_chemical_formula_sum   'Nd2 H6 O6'
_cell_volume   133.17503426
_cell_formula_units_Z   2
loop_
 _symmetry_equiv_pos_site_id
 _symmetry_equiv_pos_as_xyz
  1  'x, y, z'
loop_
 _atom_site_type_symbol
 _atom_site_label
 _atom_site_symmetry_multiplicity
 _atom_site_fract_x
 _atom_site_fract_y
 _atom_site_fract_z
 _atom_site_occupancy
  Nd  Nd0  1  0.33341280  0.66675047  0.25000000  1
  Nd  Nd1  1  0.66658720  0.33324953  0.75000000  1
  H  H0  1  0.86489300  0.72493652  0.25000000  1
  H  H1  1  0.86021744  0.13500504  0.25000000  1
  H  H2  1  0.27458459  0.13997198  0.25000000  1
  H  H3  1  0.13510700  0.27506348  0.75000000  1
  H  H4  1  0.13978256  0.86499496  0.75000000  1
  H  H5  1  0.72541541  0.86002802  0.75000000  1
  O  O0  1  0.91790616  0.60835705  0.25000000  1
  O  O1  1  0.69054736  0.08209268  0.25000000  1
  O  O2  1  0.39149627  0.30952296  0.25000000  1
  O  O3  1  0.08209384  0.39164295  0.75000000  1
  O  O4  1  0.30945264  0.91790732  0.75000000  1
  O  O5  1  0.60850373  0.69047704  0.75000000  1
loop_
_geom_bond_atom_site_label_1
_geom_bond_atom_site_label_2
_geom_bond_distance
_geom_bond_site_symmetry_2
Nd0 O1 2.502628 1_565
Nd0 O0 2.502660 1_455
Nd0 O2 2.502970 1_555
Nd0 O5 2.519184 1_554
Nd0 O5 2.519184 1_555
Nd0 O4 2.519229 1_555
Nd0 O4 2.519229 1_554
Nd0 O3 2.519365 1_554
Nd0 O3 2.519365 1_555
Nd1 O4 2.502628 1_545
Nd1 O3 2.502660 1_655
Nd1 O5 2.502970 1_555
Nd1 O2 2.519184 1_556
Nd1 O2 2.519184 1_555
Nd1 O1 2.519229 1_555
Nd1 O1 2.519229 1_556
Nd1 O0 2.519365 1_555
Nd1 O0 2.519365 1_556
H0 O0 0.965530 1_555
H1 O1 0.965881 1_555
H2 O2 0.965807 1_555
H3 O3 0.965530 1_555
H4 O4 0.965881 1_555
H5 O5 0.965807 1_555
