# generated using pymatgen
data_SiO2
_symmetry_space_group_name_H-M   'P 1'
_cell_length_a   9.58432100
_cell_length_b   9.58432100
_cell_length_c   9.88934800
_cell_angle_alpha   90.00000000
_cell_angle_beta   90.00000000
_cell_angle_gamma   90.00000000
_symmetry_Int_Tables_number   1
_chemical_formula_structural   SiO2
_chemical_formula_sum   'Si12 O24'
_cell_volume   908.42768511
_cell_formula_units_Z   12
loop_
 _symmetry_equiv_pos_site_id
 _symmetry_equiv_pos_as_xyz
  1  'x, y, z'
loop_
 _atom_site_type_symbol
 _atom_site_label
 _atom_site_symmetry_multiplicity
 _atom_site_fract_x
 _atom_site_fract_y
 _atom_site_fract_z
 _atom_site_occupancy
  Si  Si0  1  0.79759300  0.20240700  0.75000000  1
  Si  Si1  1  0.20240700  0.79759300  0.25000000  1
  Si  Si2  1  0.70240700  0.70240700  0.50000000  1
  Si  Si3  1  0.29759300  0.29759300  0.00000000  1
  Si  Si4  1  0.87701500  0.46527200  0.60148300  1
  Si  Si5  1  0.12298500  0.53472800  0.10148300  1
  Si  Si6  1  0.96527200  0.62298500  0.35148300  1
  Si  Si7  1  0.03472800  0.37701500  0.85148300  1
  Si  Si8  1  0.53472800  0.12298500  0.89851700  1
  Si  Si9  1  0.46527200  0.87701500  0.39851700  1
  Si  Si10  1  0.62298500  0.96527200  0.64851700  1
  Si  Si11  1  0.37701500  0.03472800  0.14851700  1
  O  O0  1  0.97618200  0.50580900  0.47239900  1
  O  O1  1  0.02381800  0.49419100  0.97239900  1
  O  O2  1  0.00580900  0.52381800  0.22239900  1
  O  O3  1  0.99419100  0.47618200  0.72239900  1
  O  O4  1  0.49419100  0.02381800  0.02760100  1
  O  O5  1  0.50580900  0.97618200  0.52760100  1
  O  O6  1  0.52381800  0.00580900  0.77760100  1
  O  O7  1  0.47618200  0.99419100  0.27760100  1
  O  O8  1  0.73523600  0.56115300  0.58732200  1
  O  O9  1  0.26476400  0.43884700  0.08732200  1
  O  O10  1  0.06115300  0.76476400  0.33732200  1
  O  O11  1  0.93884700  0.23523600  0.83732200  1
  O  O12  1  0.43884700  0.26476400  0.91267800  1
  O  O13  1  0.56115300  0.73523600  0.41267800  1
  O  O14  1  0.76476400  0.06115300  0.66267800  1
  O  O15  1  0.23523600  0.93884700  0.16267800  1
  O  O16  1  0.80075100  0.31438500  0.62446100  1
  O  O17  1  0.19924900  0.68561500  0.12446100  1
  O  O18  1  0.81438500  0.69924900  0.37446100  1
  O  O19  1  0.18561500  0.30075100  0.87446100  1
  O  O20  1  0.68561500  0.19924900  0.87553900  1
  O  O21  1  0.31438500  0.80075100  0.37553900  1
  O  O22  1  0.69924900  0.81438500  0.62553900  1
  O  O23  1  0.30075100  0.18561500  0.12553900  1
loop_
_geom_bond_atom_site_label_1
_geom_bond_atom_site_label_2
_geom_bond_distance
_geom_bond_site_symmetry_2
O0 Si4 1.638260 1_555
O0 Si6 1.643798 1_555
O1 Si5 1.638260 1_556
O1 Si7 1.643798 1_555
O2 Si6 1.638260 1_455
O2 Si5 1.643798 1_555
O3 Si7 1.638260 1_655
O3 Si4 1.643798 1_555
O4 Si8 1.638260 1_554
O4 Si11 1.643798 1_555
O5 Si9 1.638260 1_555
O5 Si10 1.643798 1_555
O6 Si10 1.638260 1_545
O6 Si8 1.643798 1_555
O7 Si11 1.638260 1_565
O7 Si9 1.643798 1_555
O8 Si2 1.636329 1_555
O8 Si4 1.646383 1_555
O9 Si3 1.636329 1_555
O9 Si5 1.646383 1_555
O10 Si1 1.636329 1_555
O10 Si6 1.646383 1_455
O11 Si0 1.636329 1_555
O11 Si7 1.646383 1_655
O12 Si3 1.636329 1_556
O12 Si8 1.646383 1_555
O13 Si2 1.636329 1_555
O13 Si9 1.646383 1_555
O14 Si0 1.636329 1_555
O14 Si10 1.646383 1_545
O15 Si1 1.636329 1_555
O15 Si11 1.646383 1_565
O16 Si4 1.636232 1_555
O16 Si0 1.641361 1_555
O17 Si5 1.636232 1_555
O17 Si1 1.641361 1_555
O18 Si6 1.636232 1_555
O18 Si2 1.641361 1_555
O19 Si7 1.636232 1_555
O19 Si3 1.641361 1_556
O20 Si8 1.636232 1_555
O20 Si0 1.641361 1_555
O21 Si9 1.636232 1_555
O21 Si1 1.641361 1_555
O22 Si10 1.636232 1_555
O22 Si2 1.641361 1_555
O23 Si11 1.636232 1_555
O23 Si3 1.641361 1_555
