# generated using pymatgen
data_Ca3Ag8
_symmetry_space_group_name_H-M   'P 1'
_cell_length_a   8.59924906
_cell_length_b   8.59924941
_cell_length_c   8.59924914
_cell_angle_alpha   109.47122001
_cell_angle_beta   109.47122081
_cell_angle_gamma   109.47121965
_symmetry_Int_Tables_number   1
_chemical_formula_structural   Ca3Ag8
_chemical_formula_sum   'Ca6 Ag16'
_cell_volume   489.50791840
_cell_formula_units_Z   2
loop_
 _symmetry_equiv_pos_site_id
 _symmetry_equiv_pos_as_xyz
  1  'x, y, z'
loop_
 _atom_site_type_symbol
 _atom_site_label
 _atom_site_symmetry_multiplicity
 _atom_site_fract_x
 _atom_site_fract_y
 _atom_site_fract_z
 _atom_site_occupancy
  Ca  Ca0  1  -0.00000000  0.28281918  0.28281918  1
  Ca  Ca1  1  0.71718082  0.00000000  0.71718082  1
  Ca  Ca2  1  0.28281918  0.28281918  -0.00000000  1
  Ca  Ca3  1  0.71718082  0.71718082  0.00000000  1
  Ca  Ca4  1  0.00000000  0.71718082  0.71718082  1
  Ca  Ca5  1  0.28281918  0.00000000  0.28281918  1
  Ag  Ag0  1  0.66079244  0.00000000  0.33920756  1
  Ag  Ag1  1  0.66079244  0.32158489  0.66079244  1
  Ag  Ag2  1  -0.00000000  0.66079244  0.33920756  1
  Ag  Ag3  1  0.67841511  0.33920756  0.33920756  1
  Ag  Ag4  1  0.33920756  0.33920756  0.67841511  1
  Ag  Ag5  1  0.00000000  0.33920756  0.66079244  1
  Ag  Ag6  1  0.33920756  0.66079244  -0.00000000  1
  Ag  Ag7  1  0.66079244  0.66079244  0.32158489  1
  Ag  Ag8  1  0.32158489  0.66079244  0.66079244  1
  Ag  Ag9  1  0.50000000  0.00000000  0.00000000  1
  Ag  Ag10  1  0.66079244  0.33920756  0.00000000  1
  Ag  Ag11  1  0.33920756  0.00000000  0.66079244  1
  Ag  Ag12  1  0.33920756  0.67841511  0.33920756  1
  Ag  Ag13  1  0.50000000  0.50000000  0.50000000  1
  Ag  Ag14  1  0.00000000  0.50000000  0.00000000  1
  Ag  Ag15  1  0.00000000  0.00000000  0.50000000  1
loop_
_geom_bond_atom_site_label_1
_geom_bond_atom_site_label_2
_geom_bond_distance
_geom_bond_site_symmetry_2
Ca0 Ca2 3.971493 1_555
Ca0 Ca5 3.971493 1_555
Ca0 Ca1 3.971493 1_454
Ca0 Ca3 3.971493 1_445
Ca1 Ca4 3.971493 1_645
Ca1 Ca2 3.971493 1_656
Ca1 Ca3 3.971493 1_546
Ca2 Ca5 3.971493 1_555
Ca2 Ca4 3.971493 1_544
Ca3 Ca4 3.971493 1_654
Ca3 Ca5 3.971493 1_665
Ca4 Ca5 3.971493 1_566
Ag0 Ag15 2.780559 1_655
Ag0 Ag9 2.780559 1_555
Ag0 Ag5 2.869975 1_655
Ag0 Ag6 2.869975 1_545
Ag0 Ag7 2.869975 1_545
Ag0 Ag3 2.869975 1_555
Ag0 Ca5 3.122304 1_555
Ag0 Ca1 3.122304 1_555
Ag0 Ag1 3.193196 1_555
Ag0 Ag12 3.193196 1_545
Ag0 Ca0 3.414403 1_655
Ag0 Ca3 3.414403 1_545
Ag1 Ag13 2.780559 1_555
Ag1 Ag14 2.780559 1_656
Ag1 Ag4 2.869975 1_555
Ag1 Ag3 2.869975 1_555
Ag1 Ag5 2.869975 1_655
Ag1 Ag10 2.869975 1_556
Ag1 Ca5 3.122304 1_555
Ag1 Ca1 3.122304 1_555
Ag1 Ag11 3.193196 1_555
Ag1 Ca4 3.414403 1_655
Ag1 Ca3 3.414403 1_556
Ag2 Ag7 2.869975 1_455
Ag2 Ca4 3.122304 1_555
Ag2 Ca0 3.122304 1_555
Ag2 Ag8 3.193196 1_555
Ag2 Ag3 3.193196 1_455
Ag2 Ca3 3.414402 1_455
Ag2 Ca5 3.414403 1_565
Ag3 Ag9 2.780560 1_555
Ag3 Ag7 2.869975 1_555
Ag3 Ca0 3.122304 1_655
Ag3 Ca4 3.122304 1_655
Ag3 Ag5 3.193196 1_655
Ag3 Ca2 3.414402 1_555
Ag3 Ca5 3.414403 1_555
Ag4 Ag5 2.869975 1_555
Ag4 Ag8 2.869975 1_555
Ag4 Ca2 3.122304 1_556
Ag4 Ca3 3.122304 1_556
Ag4 Ag6 3.193196 1_556
Ag4 Ca0 3.414402 1_555
Ag4 Ca5 3.414403 1_555
Ag5 Ag6 2.869975 1_556
Ag5 Ca0 3.122304 1_555
Ag5 Ca4 3.122304 1_555
Ag5 Ag8 3.193196 1_555
Ag5 Ca2 3.414402 1_556
Ag5 Ca1 3.414403 1_455
Ag6 Ag9 2.780560 1_565
Ag6 Ag8 2.869975 1_554
Ag6 Ca3 3.122304 1_555
Ag6 Ca2 3.122304 1_555
Ag6 Ag7 3.193196 1_555
Ag6 Ca4 3.414402 1_554
Ag6 Ca5 3.414403 1_565
Ag7 Ca3 3.122304 1_555
Ag7 Ca2 3.122304 1_555
Ag7 Ca4 3.414402 1_655
Ag7 Ca1 3.414403 1_565
Ag8 Ag9 2.780560 1_566
Ag8 Ca4 3.122304 1_555
Ag8 Ca0 3.122304 1_555
Ag8 Ca3 3.414402 1_556
Ag8 Ca1 3.414403 1_565
Ag9 Ca5 3.525721 1_555
Ag9 Ca1 3.525721 1_554
Ag9 Ca2 3.525722 1_555
Ag9 Ca3 3.525722 1_545
Ag9 Ca0 3.525722 1_655
Ag9 Ca4 3.525722 1_544
Ag10 Ag14 2.780559 1_655
Ag10 Ag9 2.780560 1_555
Ag10 Ag3 2.869975 1_555
Ag10 Ag2 2.869975 1_655
Ag10 Ag11 2.869975 1_554
Ag10 Ca2 3.122304 1_555
Ag10 Ca3 3.122304 1_555
Ag10 Ag4 3.193196 1_554
Ag10 Ag7 3.193196 1_555
Ag10 Ca0 3.414402 1_655
Ag10 Ca1 3.414403 1_554
Ag11 Ag15 2.780559 1_555
Ag11 Ag9 2.780559 1_556
Ag11 Ag2 2.869975 1_545
Ag11 Ag4 2.869975 1_555
Ag11 Ag8 2.869975 1_545
Ag11 Ca1 3.122304 1_555
Ag11 Ca5 3.122304 1_555
Ag11 Ag12 3.193196 1_545
Ag11 Ca2 3.414403 1_556
Ag11 Ca4 3.414403 1_545
Ag12 Ag13 2.780559 1_555
Ag12 Ag14 2.780559 1_555
Ag12 Ag7 2.869975 1_555
Ag12 Ag8 2.869975 1_555
Ag12 Ag2 2.869975 1_555
Ag12 Ag6 2.869975 1_555
Ag12 Ca1 3.122304 1_565
Ag12 Ca5 3.122304 1_565
Ag12 Ca0 3.414403 1_555
Ag12 Ca2 3.414403 1_555
Ag13 Ag3 2.780559 1_555
Ag13 Ag8 2.780559 1_555
Ag13 Ag4 2.780559 1_555
Ag13 Ag7 2.780559 1_555
Ag13 Ca0 3.525721 1_555
Ag13 Ca4 3.525721 1_655
Ag13 Ca3 3.525722 1_556
Ag13 Ca2 3.525722 1_555
Ag13 Ca1 3.525722 1_565
Ag13 Ca5 3.525722 1_555
Ag14 Ag6 2.780559 1_555
Ag14 Ag5 2.780559 1_554
Ag14 Ag2 2.780559 1_555
Ag14 Ca2 3.525721 1_555
Ag14 Ca3 3.525721 1_455
Ag14 Ca0 3.525722 1_555
Ag14 Ca4 3.525722 1_554
Ag14 Ca1 3.525722 1_454
Ag14 Ca5 3.525722 1_565
Ag15 Ag2 2.780560 1_545
Ag15 Ag5 2.780560 1_555
Ag15 Ag7 2.780560 1_445
Ag15 Ag4 2.780560 1_555
Ag15 Ca5 3.525721 1_555
Ag15 Ca1 3.525721 1_455
Ag15 Ca3 3.525722 1_445
Ag15 Ca0 3.525722 1_555
Ag15 Ca4 3.525722 1_545
Ag15 Ca2 3.525722 1_556
