# generated using pymatgen
data_Na5Lu(SiO3)4
_symmetry_space_group_name_H-M   'P 1'
_cell_length_a   13.48506371
_cell_length_b   13.48506371
_cell_length_c   13.48506441
_cell_angle_alpha   110.61858794
_cell_angle_beta   110.61858794
_cell_angle_gamma   110.61858971
_symmetry_Int_Tables_number   1
_chemical_formula_structural   Na5Lu(SiO3)4
_chemical_formula_sum   'Na30 Lu6 Si24 O72'
_cell_volume   1803.07976418
_cell_formula_units_Z   6
loop_
 _symmetry_equiv_pos_site_id
 _symmetry_equiv_pos_as_xyz
  1  'x, y, z'
loop_
 _atom_site_type_symbol
 _atom_site_label
 _atom_site_symmetry_multiplicity
 _atom_site_fract_x
 _atom_site_fract_y
 _atom_site_fract_z
 _atom_site_occupancy
  Na  Na0  1  0.34203500  0.39343100  0.87237100  1
  Na  Na1  1  0.64925300  0.17028500  0.14057100  1
  Na  Na2  1  0.14057100  0.64925300  0.17028500  1
  Na  Na3  1  0.74061900  0.74061900  0.74061900  1
  Na  Na4  1  0.33330200  0.33147700  0.52881200  1
  Na  Na5  1  0.60656900  0.65796500  0.12762900  1
  Na  Na6  1  0.27954500  0.00000000  0.72045500  1
  Na  Na7  1  0.35074700  0.85942900  0.82971500  1
  Na  Na8  1  0.17996500  0.18537100  0.97160700  1
  Na  Na9  1  0.33147700  0.52881200  0.33330200  1
  Na  Na10  1  0.81462800  0.82003500  0.02839300  1
  Na  Na11  1  0.82971500  0.35074700  0.85942900  1
  Na  Na12  1  0.02839300  0.81462800  0.82003500  1
  Na  Na13  1  0.82003500  0.02839300  0.81462800  1
  Na  Na14  1  0.47118800  0.66852300  0.66669800  1
  Na  Na15  1  0.52881200  0.33330200  0.33147700  1
  Na  Na16  1  0.85942900  0.82971500  0.35074700  1
  Na  Na17  1  0.97160700  0.17996500  0.18537100  1
  Na  Na18  1  0.66669800  0.47118800  0.66852300  1
  Na  Na19  1  0.87237100  0.34203500  0.39343100  1
  Na  Na20  1  0.39343100  0.87237100  0.34203500  1
  Na  Na21  1  0.65796500  0.12762900  0.60656900  1
  Na  Na22  1  0.00000000  0.72045500  0.27954500  1
  Na  Na23  1  0.72045500  0.27954500  0.00000000  1
  Na  Na24  1  0.12762900  0.60656900  0.65796500  1
  Na  Na25  1  0.17028500  0.14057100  0.64925300  1
  Na  Na26  1  0.66852300  0.66669800  0.47118800  1
  Na  Na27  1  0.00000000  0.00000000  0.00000000  1
  Na  Na28  1  0.25938100  0.25938100  0.25938100  1
  Na  Na29  1  0.18537100  0.97160700  0.17996500  1
  Lu  Lu0  1  0.74837400  0.00000000  0.25162600  1
  Lu  Lu1  1  0.25203800  0.74796200  0.50000000  1
  Lu  Lu2  1  0.50000000  0.25203800  0.74796200  1
  Lu  Lu3  1  0.74796200  0.50000000  0.25203800  1
  Lu  Lu4  1  0.00000000  0.25162600  0.74837400  1
  Lu  Lu5  1  0.25162600  0.74837400  0.00000000  1
  Si  Si0  1  0.46920500  0.18846900  0.46289500  1
  Si  Si1  1  0.94203600  0.48801400  0.74485400  1
  Si  Si2  1  0.05796400  0.25514600  0.51198600  1
  Si  Si3  1  0.68955000  0.96294400  0.95906700  1
  Si  Si4  1  0.18846900  0.46289500  0.46920500  1
  Si  Si5  1  0.51198600  0.05796400  0.25514600  1
  Si  Si6  1  0.46289500  0.46920500  0.18846900  1
  Si  Si7  1  0.44637600  0.24549900  0.99098700  1
  Si  Si8  1  0.48801400  0.74485400  0.94203600  1
  Si  Si9  1  0.31045000  0.04093300  0.03705600  1
  Si  Si10  1  0.95906700  0.68955000  0.96294400  1
  Si  Si11  1  0.03705600  0.31045000  0.04093300  1
  Si  Si12  1  0.74485400  0.94203600  0.48801400  1
  Si  Si13  1  0.75450100  0.55362400  0.00901300  1
  Si  Si14  1  0.99098700  0.44637600  0.24549900  1
  Si  Si15  1  0.04093300  0.03705600  0.31045000  1
  Si  Si16  1  0.96294400  0.95906700  0.68955000  1
  Si  Si17  1  0.24549900  0.99098700  0.44637600  1
  Si  Si18  1  0.00901300  0.75450100  0.55362400  1
  Si  Si19  1  0.55362400  0.00901300  0.75450100  1
  Si  Si20  1  0.53710500  0.81153100  0.53079500  1
  Si  Si21  1  0.81153100  0.53079500  0.53710500  1
  Si  Si22  1  0.53079500  0.53710500  0.81153100  1
  Si  Si23  1  0.25514600  0.51198600  0.05796400  1
  O  O0  1  0.07094000  0.22056700  0.07830300  1
  O  O1  1  0.75310400  0.05311600  0.11008400  1
  O  O2  1  0.95240900  0.66245700  0.60185900  1
  O  O3  1  0.30236700  0.09062500  0.59285500  1
  O  O4  1  0.04269700  0.89787900  0.64779900  1
  O  O5  1  0.92169700  0.77943300  0.92906000  1
  O  O6  1  0.22056700  0.07830300  0.07094000  1
  O  O7  1  0.83027700  0.88887700  0.54961800  1
  O  O8  1  0.91109400  0.35758700  0.73730800  1
  O  O9  1  0.73730800  0.91109400  0.35758700  1
  O  O10  1  0.35758700  0.73730800  0.91109400  1
  O  O11  1  0.24809000  0.61395800  0.55787000  1
  O  O12  1  0.91329400  0.19508400  0.40661600  1
  O  O13  1  0.64779900  0.04269700  0.89787900  1
  O  O14  1  0.16972300  0.45038200  0.11112300  1
  O  O15  1  0.77555300  0.58807500  0.14563600  1
  O  O16  1  0.27702800  0.42920100  0.43121500  1
  O  O17  1  0.04759100  0.39814100  0.33754300  1
  O  O18  1  0.44213000  0.38604200  0.75191000  1
  O  O19  1  0.75191000  0.44213000  0.38604200  1
  O  O20  1  0.11008400  0.75310400  0.05311600  1
  O  O21  1  0.85212800  0.45357400  0.59959700  1
  O  O22  1  0.95730300  0.35220100  0.10212100  1
  O  O23  1  0.89787900  0.64779900  0.04269700  1
  O  O24  1  0.58807500  0.14563600  0.77555300  1
  O  O25  1  0.85436400  0.41192500  0.22444700  1
  O  O26  1  0.45357400  0.59959700  0.85212800  1
  O  O27  1  0.43121500  0.27702800  0.42920100  1
  O  O28  1  0.61395800  0.55787000  0.24809000  1
  O  O29  1  0.10212100  0.95730300  0.35220100  1
  O  O30  1  0.22444700  0.85436400  0.41192500  1
  O  O31  1  0.11112300  0.16972300  0.45038200  1
  O  O32  1  0.08890600  0.26269200  0.64241300  1
  O  O33  1  0.26269200  0.64241300  0.08890600  1
  O  O34  1  0.57079900  0.72297200  0.56878500  1
  O  O35  1  0.55787000  0.24809000  0.61395800  1
  O  O36  1  0.64241300  0.08890600  0.26269200  1
  O  O37  1  0.69763300  0.40714500  0.90937500  1
  O  O38  1  0.08670600  0.59338400  0.80491600  1
  O  O39  1  0.09062500  0.59285500  0.30236700  1
  O  O40  1  0.14563600  0.77555300  0.58807500  1
  O  O41  1  0.94688400  0.24689600  0.88991600  1
  O  O42  1  0.41192500  0.22444700  0.85436400  1
  O  O43  1  0.56878500  0.57079900  0.72297200  1
  O  O44  1  0.33754300  0.04759100  0.39814100  1
  O  O45  1  0.45038200  0.11112300  0.16972300  1
  O  O46  1  0.92906000  0.92169700  0.77943300  1
  O  O47  1  0.90937500  0.69763300  0.40714500  1
  O  O48  1  0.19508400  0.40661600  0.91329400  1
  O  O49  1  0.39814100  0.33754300  0.04759100  1
  O  O50  1  0.59285500  0.30236700  0.09062500  1
  O  O51  1  0.24689600  0.88991600  0.94688400  1
  O  O52  1  0.88887700  0.54961800  0.83027700  1
  O  O53  1  0.40714500  0.90937500  0.69763300  1
  O  O54  1  0.54961800  0.83027700  0.88887700  1
  O  O55  1  0.42920100  0.43121500  0.27702800  1
  O  O56  1  0.35220100  0.10212100  0.95730300  1
  O  O57  1  0.72297200  0.56878500  0.57079900  1
  O  O58  1  0.60185900  0.95240900  0.66245700  1
  O  O59  1  0.40661600  0.91329400  0.19508400  1
  O  O60  1  0.88991600  0.94688400  0.24689600  1
  O  O61  1  0.38604200  0.75191000  0.44213000  1
  O  O62  1  0.77943300  0.92906000  0.92169700  1
  O  O63  1  0.59338400  0.80491600  0.08670600  1
  O  O64  1  0.66245700  0.60185900  0.95240900  1
  O  O65  1  0.14787200  0.40040300  0.54642600  1
  O  O66  1  0.59959700  0.85212800  0.45357400  1
  O  O67  1  0.80491600  0.08670600  0.59338400  1
  O  O68  1  0.40040300  0.54642600  0.14787200  1
  O  O69  1  0.54642600  0.14787200  0.40040300  1
  O  O70  1  0.05311600  0.11008400  0.75310400  1
  O  O71  1  0.07830300  0.07094000  0.22056700  1
loop_
_geom_bond_atom_site_label_1
_geom_bond_atom_site_label_2
_geom_bond_distance
_geom_bond_site_symmetry_2
Na0 O48 2.283045 1_555
Na0 O18 2.448588 1_555
Na0 O49 2.668370 1_556
Na0 O42 2.724704 1_555
Na0 O26 2.818640 1_555
Na1 O36 2.287634 1_555
Na1 O50 2.375426 1_555
Na1 O1 2.476520 1_555
Na1 O45 2.727554 1_555
Na1 O25 2.898438 1_555
Na2 O33 2.287634 1_555
Na2 O39 2.375426 1_555
Na2 O20 2.476520 1_555
Na2 O14 2.727554 1_555
Na2 O30 2.898438 1_555
Na3 O43 2.482098 1_555
Na3 O57 2.482098 1_555
Na3 O34 2.482098 1_555
Na3 O46 2.546939 1_555
Na3 O62 2.546940 1_555
Na3 O5 2.546940 1_555
Na4 O16 2.295005 1_555
Na4 O27 2.307404 1_555
Na4 O18 2.513368 1_555
Na4 O31 2.528605 1_555
Na4 O43 2.886148 1_555
Na5 O63 2.283045 1_555
Na5 O28 2.448588 1_555
Na5 O64 2.668370 1_554
Na5 O15 2.724704 1_555
Na5 O68 2.818640 1_555
Na6 O40 2.383990 1_545
Na6 O42 2.383990 1_555
Na6 O53 2.477513 1_545
Na6 O3 2.477513 1_555
Na6 O4 2.608738 1_545
Na6 O56 2.608739 1_555
Na7 O10 2.287634 1_555
Na7 O53 2.375426 1_555
Na7 O51 2.476520 1_555
Na7 O54 2.727554 1_555
Na7 O40 2.898438 1_555
Na8 O6 2.362417 1_556
Na8 O70 2.399800 1_555
Na8 O0 2.440747 1_556
Na8 O49 2.461861 1_556
Na9 O55 2.295005 1_555
Na9 O16 2.307404 1_555
Na9 O61 2.513368 1_555
Na9 O14 2.528606 1_555
Na9 O34 2.886148 1_555
Na10 O5 2.362429 1_554
Na10 O60 2.399796 1_555
Na10 O62 2.440744 1_554
Na10 O64 2.461857 1_554
Na11 O8 2.287634 1_555
Na11 O37 2.375426 1_555
Na11 O41 2.476520 1_555
Na11 O52 2.727554 1_555
Na11 O24 2.898438 1_555
Na12 O46 2.362429 1_455
Na12 O51 2.399796 1_555
Na12 O5 2.440744 1_455
Na12 O2 2.461857 1_455
Na13 O62 2.362429 1_545
Na13 O41 2.399796 1_555
Na13 O46 2.440744 1_545
Na13 O58 2.461857 1_545
Na14 O43 2.295005 1_555
Na14 O34 2.307404 1_555
Na14 O11 2.513368 1_555
Na14 O54 2.528606 1_555
Na14 O16 2.886148 1_555
Na15 O27 2.295005 1_555
Na15 O55 2.307404 1_555
Na15 O19 2.513368 1_555
Na15 O45 2.528605 1_555
Na15 O57 2.886148 1_555
Na16 O9 2.287634 1_555
Na16 O47 2.375426 1_555
Na16 O60 2.476520 1_555
Na16 O7 2.727554 1_555
Na16 O15 2.898438 1_555
Na17 O0 2.362417 1_655
Na17 O1 2.399800 1_555
Na17 O71 2.440747 1_655
Na17 O17 2.461861 1_655
Na18 O57 2.295005 1_555
Na18 O43 2.307404 1_555
Na18 O35 2.513368 1_555
Na18 O52 2.528605 1_555
Na18 O27 2.886148 1_555
Na19 O12 2.283045 1_555
Na19 O19 2.448588 1_555
Na19 O17 2.668370 1_655
Na19 O25 2.724704 1_555
Na19 O21 2.818640 1_555
Na20 O59 2.283045 1_555
Na20 O61 2.448588 1_555
Na20 O44 2.668370 1_565
Na20 O30 2.724704 1_555
Na20 O66 2.818640 1_555
Na21 O67 2.283045 1_555
Na21 O35 2.448588 1_555
Na21 O58 2.668370 1_545
Na21 O24 2.724704 1_555
Na21 O69 2.818640 1_555
Na22 O30 2.383990 1_555
Na22 O15 2.383990 1_455
Na22 O39 2.477513 1_555
Na22 O47 2.477513 1_455
Na22 O29 2.608738 1_555
Na22 O23 2.608739 1_455
Na23 O25 2.383990 1_555
Na23 O24 2.383990 1_554
Na23 O50 2.477513 1_555
Na23 O37 2.477513 1_554
Na23 O22 2.608738 1_555
Na23 O13 2.608738 1_554
Na24 O38 2.283045 1_555
Na24 O11 2.448588 1_555
Na24 O2 2.668370 1_455
Na24 O40 2.724704 1_555
Na24 O65 2.818640 1_555
Na25 O32 2.287634 1_555
Na25 O3 2.375426 1_555
Na25 O70 2.476520 1_555
Na25 O31 2.727554 1_555
Na25 O42 2.898438 1_555
Na26 O34 2.295005 1_555
Na26 O57 2.307404 1_555
Na26 O28 2.513368 1_555
Na26 O7 2.528605 1_555
Na26 O55 2.886148 1_555
Na27 O6 2.439177 1_555
Na27 O5 2.439177 1_444
Na27 O0 2.439177 1_555
Na27 O62 2.439177 1_444
Na27 O71 2.439177 1_555
Na27 O46 2.439177 1_444
Na28 O55 2.482098 1_555
Na28 O27 2.482098 1_555
Na28 O16 2.482098 1_555
Na28 O71 2.546939 1_555
Na28 O0 2.546940 1_555
Na28 O6 2.546940 1_555
Na29 O71 2.362417 1_565
Na29 O20 2.399800 1_555
Na29 O6 2.440747 1_565
Na29 O44 2.461861 1_565
Lu0 O36 2.175330 1_555
Lu0 O9 2.175330 1_545
Lu0 O12 2.228981 1_555
Lu0 O63 2.228981 1_545
Lu0 O60 2.275236 1_545
Lu0 O1 2.275237 1_555
Lu1 O61 2.198171 1_555
Lu1 O11 2.198171 1_555
Lu1 O40 2.207441 1_555
Lu1 O30 2.207441 1_555
Lu1 O53 2.235495 1_555
Lu1 O39 2.235495 1_555
Lu2 O18 2.198171 1_555
Lu2 O35 2.198171 1_555
Lu2 O24 2.207441 1_555
Lu2 O42 2.207441 1_555
Lu2 O3 2.235495 1_555
Lu2 O37 2.235495 1_555
Lu3 O28 2.198171 1_555
Lu3 O19 2.198171 1_555
Lu3 O25 2.207441 1_555
Lu3 O15 2.207441 1_555
Lu3 O47 2.235495 1_555
Lu3 O50 2.235495 1_555
Lu4 O8 2.175330 1_455
Lu4 O32 2.175330 1_555
Lu4 O67 2.228981 1_455
Lu4 O48 2.228981 1_555
Lu4 O70 2.275236 1_555
Lu4 O41 2.275237 1_455
Lu5 O33 2.175330 1_555
Lu5 O10 2.175330 1_554
Lu5 O59 2.228981 1_555
Lu5 O38 2.228981 1_554
Lu5 O51 2.275236 1_554
Lu5 O20 2.275236 1_555
O0 Si11 1.609330 1_555
O1 Si3 1.628838 1_544
O2 Si18 1.672535 1_655
O2 Si21 1.699430 1_555
O3 Si17 1.622774 1_545
O4 Si18 1.674293 1_555
O4 Si16 1.696679 1_455
O5 Si10 1.609330 1_555
O6 Si9 1.609330 1_555
O7 Si16 1.682000 1_555
O7 Si12 1.690554 1_555
O8 Si1 1.614025 1_555
O9 Si12 1.614025 1_555
O10 Si8 1.614025 1_555
O11 Si4 1.637011 1_555
O12 Si2 1.614078 1_655
O13 Si19 1.674293 1_555
O13 Si3 1.696679 1_545
O14 Si11 1.682000 1_555
O14 Si23 1.690554 1_555
O15 Si13 1.620705 1_555
O16 Si4 1.595046 1_555
O17 Si14 1.672535 1_455
O17 Si4 1.699430 1_555
O18 Si22 1.637011 1_555
O19 Si21 1.637012 1_555
O20 Si10 1.628838 1_454
O21 Si21 1.669986 1_555
O21 Si1 1.677099 1_555
O22 Si14 1.674293 1_555
O22 Si11 1.696679 1_655
O23 Si13 1.674293 1_555
O23 Si10 1.696679 1_554
O24 Si19 1.620705 1_555
O25 Si14 1.620705 1_555
O26 Si22 1.669986 1_555
O26 Si8 1.677098 1_555
O27 Si0 1.595046 1_555
O28 Si6 1.637011 1_555
O29 Si17 1.674293 1_555
O29 Si15 1.696679 1_565
O30 Si17 1.620705 1_555
O31 Si15 1.682000 1_555
O31 Si2 1.690554 1_555
O32 Si2 1.614025 1_555
O33 Si23 1.614025 1_555
O34 Si20 1.595046 1_555
O35 Si0 1.637012 1_555
O36 Si5 1.614025 1_555
O37 Si13 1.622774 1_556
O38 Si1 1.614078 1_455
O39 Si14 1.622774 1_455
O40 Si18 1.620705 1_555
O41 Si11 1.628838 1_656
O42 Si7 1.620705 1_555
O43 Si22 1.595046 1_555
O44 Si17 1.672535 1_545
O44 Si0 1.699430 1_555
O45 Si9 1.682000 1_555
O45 Si5 1.690554 1_555
O46 Si16 1.609330 1_555
O47 Si18 1.622774 1_655
O48 Si23 1.614078 1_556
O49 Si7 1.672535 1_554
O49 Si6 1.699430 1_555
O50 Si7 1.622774 1_554
O51 Si9 1.628838 1_566
O52 Si10 1.682000 1_555
O52 Si1 1.690554 1_555
O53 Si19 1.622774 1_565
O54 Si3 1.682000 1_555
O54 Si8 1.690554 1_555
O55 Si6 1.595046 1_555
O56 Si7 1.674293 1_555
O56 Si9 1.696679 1_556
O57 Si21 1.595046 1_555
O58 Si19 1.672535 1_565
O58 Si20 1.699430 1_555
O59 Si5 1.614078 1_565
O60 Si15 1.628838 1_665
O61 Si20 1.637011 1_555
O62 Si3 1.609330 1_555
O63 Si8 1.614078 1_554
O64 Si13 1.672535 1_556
O64 Si22 1.699430 1_555
O65 Si4 1.669986 1_555
O65 Si2 1.677098 1_555
O66 Si20 1.669986 1_555
O66 Si12 1.677098 1_555
O67 Si12 1.614078 1_545
O68 Si6 1.669986 1_555
O68 Si23 1.677098 1_555
O69 Si0 1.669986 1_555
O69 Si5 1.677099 1_555
O70 Si16 1.628838 1_445
O71 Si15 1.609330 1_555
