# generated using pymatgen
data_KNO3
_symmetry_space_group_name_H-M   'P 1'
_cell_length_a   5.60223500
_cell_length_b   6.40508500
_cell_length_c   9.26819600
_cell_angle_alpha   90.00000000
_cell_angle_beta   90.00000000
_cell_angle_gamma   90.00000000
_symmetry_Int_Tables_number   1
_chemical_formula_structural   KNO3
_chemical_formula_sum   'K4 N4 O12'
_cell_volume   332.56874340
_cell_formula_units_Z   4
loop_
 _symmetry_equiv_pos_site_id
 _symmetry_equiv_pos_as_xyz
  1  'x, y, z'
loop_
 _atom_site_type_symbol
 _atom_site_label
 _atom_site_symmetry_multiplicity
 _atom_site_fract_x
 _atom_site_fract_y
 _atom_site_fract_z
 _atom_site_occupancy
  K  K0  1  0.25000000  0.13596600  0.38995400  1
  K  K1  1  0.75000000  0.36403400  0.88995400  1
  K  K2  1  0.25000000  0.63596600  0.11004600  1
  K  K3  1  0.75000000  0.86403400  0.61004600  1
  N  N0  1  0.75000000  0.88537100  0.13414700  1
  N  N1  1  0.25000000  0.61462900  0.63414700  1
  N  N2  1  0.25000000  0.11462900  0.86585300  1
  N  N3  1  0.75000000  0.38537100  0.36585300  1
  O  O0  1  0.25000000  0.77409600  0.55169600  1
  O  O1  1  0.55371400  0.46398500  0.32576200  1
  O  O2  1  0.44628600  0.53601500  0.67423800  1
  O  O3  1  0.94628600  0.46398500  0.32576200  1
  O  O4  1  0.44628600  0.03601500  0.82576200  1
  O  O5  1  0.05371400  0.03601500  0.82576200  1
  O  O6  1  0.05371400  0.53601500  0.67423800  1
  O  O7  1  0.55371400  0.96398500  0.17423800  1
  O  O8  1  0.25000000  0.27409600  0.94830400  1
  O  O9  1  0.75000000  0.22590400  0.44830400  1
  O  O10  1  0.75000000  0.72590400  0.05169600  1
  O  O11  1  0.94628600  0.96398500  0.17423800  1
loop_
_geom_bond_atom_site_label_1
_geom_bond_atom_site_label_2
_geom_bond_distance
_geom_bond_site_symmetry_2
K0 O0 2.760327 1_545
K0 O1 2.768238 1_555
K0 O3 2.768238 1_455
K0 O7 2.847040 1_545
K0 O11 2.847040 1_445
K0 O9 2.910424 1_455
K0 O9 2.910424 1_555
K1 O10 2.760327 1_556
K1 O5 2.768238 1_655
K1 O4 2.768238 1_555
K1 O6 2.847040 1_655
K1 O2 2.847040 1_555
K1 O8 2.910424 1_655
K1 O8 2.910424 1_555
K2 O8 2.760327 1_554
K2 O7 2.768238 1_555
K2 O11 2.768238 1_455
K2 O1 2.847040 1_555
K2 O3 2.847040 1_455
K2 O10 2.910424 1_555
K2 O10 2.910424 1_455
K3 O9 2.760327 1_565
K3 O6 2.768238 1_655
K3 O2 2.768238 1_555
K3 O5 2.847040 1_665
K3 O4 2.847040 1_565
K3 O0 2.910424 1_555
K3 O0 2.910424 1_655
N0 O11 1.265233 1_555
N0 O7 1.265233 1_555
N0 O10 1.275624 1_555
N1 O2 1.265233 1_555
N1 O6 1.265233 1_555
N1 O0 1.275624 1_555
N2 O4 1.265233 1_555
N2 O5 1.265233 1_555
N2 O8 1.275624 1_555
N3 O3 1.265233 1_555
N3 O1 1.265233 1_555
N3 O9 1.275624 1_555
