# generated using pymatgen
data_TeS7Cl2
_symmetry_space_group_name_H-M   'P 1'
_cell_length_a   9.02065121
_cell_length_b   9.29841445
_cell_length_c   13.54777545
_cell_angle_alpha   90.00000000
_cell_angle_beta   90.00000000
_cell_angle_gamma   90.00000000
_symmetry_Int_Tables_number   1
_chemical_formula_structural   TeS7Cl2
_chemical_formula_sum   'Te4 S28 Cl8'
_cell_volume   1136.35697047
_cell_formula_units_Z   4
loop_
 _symmetry_equiv_pos_site_id
 _symmetry_equiv_pos_as_xyz
  1  'x, y, z'
loop_
 _atom_site_type_symbol
 _atom_site_label
 _atom_site_symmetry_multiplicity
 _atom_site_fract_x
 _atom_site_fract_y
 _atom_site_fract_z
 _atom_site_occupancy
  Te  Te0  1  0.75000000  0.31693145  0.59829902  1
  Te  Te1  1  0.25000000  0.18306855  0.09829902  1
  Te  Te2  1  0.25000000  0.68306855  0.40170098  1
  Te  Te3  1  0.75000000  0.81693145  0.90170098  1
  S  S0  1  0.93217293  0.63814798  0.21031405  1
  S  S1  1  0.93217293  0.13814798  0.28968595  1
  S  S2  1  0.46218191  0.82331511  0.46924750  1
  S  S3  1  0.75000000  0.24344409  0.23623372  1
  S  S4  1  0.52906424  0.74204011  0.59852570  1
  S  S5  1  0.43217293  0.36185202  0.78968595  1
  S  S6  1  0.96218191  0.17668489  0.53075250  1
  S  S7  1  0.52906424  0.24204011  0.90147430  1
  S  S8  1  0.25000000  0.25655591  0.73623372  1
  S  S9  1  0.97093576  0.74204011  0.59852570  1
  S  S10  1  0.02906424  0.75795989  0.09852570  1
  S  S11  1  0.47093576  0.75795989  0.09852570  1
  S  S12  1  0.02906424  0.25795989  0.40147430  1
  S  S13  1  0.97093576  0.24204011  0.90147430  1
  S  S14  1  0.03781809  0.32331511  0.03075250  1
  S  S15  1  0.06782707  0.36185202  0.78968595  1
  S  S16  1  0.43217293  0.86185202  0.71031405  1
  S  S17  1  0.56782707  0.13814798  0.28968595  1
  S  S18  1  0.25000000  0.75655591  0.76376628  1
  S  S19  1  0.56782707  0.63814798  0.21031405  1
  S  S20  1  0.06782707  0.86185202  0.71031405  1
  S  S21  1  0.53781809  0.17668489  0.53075250  1
  S  S22  1  0.75000000  0.74344409  0.26376628  1
  S  S23  1  0.46218191  0.32331511  0.03075250  1
  S  S24  1  0.47093576  0.25795989  0.40147430  1
  S  S25  1  0.03781809  0.82331511  0.46924750  1
  S  S26  1  0.96218191  0.67668489  0.96924750  1
  S  S27  1  0.53781809  0.67668489  0.96924750  1
  Cl  Cl0  1  0.25000000  0.90000353  0.28807207  1
  Cl  Cl1  1  0.75000000  0.98549324  0.03845747  1
  Cl  Cl2  1  0.25000000  0.01450676  0.96154253  1
  Cl  Cl3  1  0.75000000  0.09999647  0.71192793  1
  Cl  Cl4  1  0.75000000  0.48549324  0.46154253  1
  Cl  Cl5  1  0.25000000  0.51450676  0.53845747  1
  Cl  Cl6  1  0.75000000  0.59999647  0.78807207  1
  Cl  Cl7  1  0.25000000  0.40000353  0.21192793  1
loop_
_geom_bond_atom_site_label_1
_geom_bond_atom_site_label_2
_geom_bond_distance
_geom_bond_site_symmetry_2
S0 S22 2.045364 1_555
S0 S10 2.073332 1_655
S1 S3 2.045364 1_555
S1 S12 2.073332 1_655
S2 S4 2.000659 1_555
S2 Te2 2.490278 1_555
S5 S8 2.045364 1_555
S5 S7 2.073332 1_555
S6 Te0 2.490278 1_555
S10 S26 2.000659 1_454
S11 S27 2.000659 1_554
S11 S19 2.073332 1_555
S12 S6 2.000659 1_455
S13 S14 2.000659 1_656
S13 S15 2.073332 1_655
S14 Te1 2.490278 1_555
S15 S8 2.045364 1_555
S16 S18 2.045364 1_555
S16 S4 2.073332 1_555
S17 S3 2.045364 1_555
S17 S24 2.073332 1_555
S18 S20 2.045364 1_555
S19 S22 2.045364 1_555
S20 S9 2.073332 1_455
S21 S24 2.000659 1_555
S21 Te0 2.490278 1_555
S23 S7 2.000659 1_554
S23 Te1 2.490278 1_555
S25 S9 2.000659 1_455
S25 Te2 2.490278 1_555
S26 Te3 2.490278 1_555
S27 Te3 2.490278 1_555
Cl0 Te2 2.537461 1_555
Cl1 Te3 2.426783 1_554
Cl2 Te1 2.426783 1_556
Cl3 Te0 2.537461 1_555
Cl4 Te0 2.426783 1_555
Cl5 Te2 2.426783 1_555
Cl6 Te3 2.537461 1_555
Cl7 Te1 2.537461 1_555
