# generated using pymatgen
data_La4C5Cl2
_symmetry_space_group_name_H-M   'P 1'
_cell_length_a   11.50829433
_cell_length_b   11.50829433
_cell_length_c   10.26626458
_cell_angle_alpha   84.73108141
_cell_angle_beta   84.73108141
_cell_angle_gamma   19.61532894
_symmetry_Int_Tables_number   1
_chemical_formula_structural   La4C5Cl2
_chemical_formula_sum   'La8 C10 Cl4'
_cell_volume   454.46060735
_cell_formula_units_Z   2
loop_
 _symmetry_equiv_pos_site_id
 _symmetry_equiv_pos_as_xyz
  1  'x, y, z'
loop_
 _atom_site_type_symbol
 _atom_site_label
 _atom_site_symmetry_multiplicity
 _atom_site_fract_x
 _atom_site_fract_y
 _atom_site_fract_z
 _atom_site_occupancy
  La  La0  1  0.17458500  0.17458500  0.97647300  1
  La  La1  1  0.82541500  0.82541500  0.02352700  1
  La  La2  1  0.61750500  0.61750500  0.64660700  1
  La  La3  1  0.38249500  0.38249500  0.35339300  1
  La  La4  1  0.27480000  0.27480000  0.66629800  1
  La  La5  1  0.72520000  0.72520000  0.33370200  1
  La  La6  1  0.95374000  0.95374000  0.65062300  1
  La  La7  1  0.04626000  0.04626000  0.34937700  1
  C  C0  1  0.14432600  0.14432600  0.45259600  1
  C  C1  1  0.85567400  0.85567400  0.54740400  1
  C  C2  1  0.70311300  0.70311300  0.79669800  1
  C  C3  1  0.29688700  0.29688700  0.20330200  1
  C  C4  1  0.18966600  0.18966600  0.52381800  1
  C  C5  1  0.81033400  0.81033400  0.47618200  1
  C  C6  1  0.25078700  0.25078700  0.13298900  1
  C  C7  1  0.74921300  0.74921300  0.86701100  1
  C  C8  1  0.52358200  0.52358200  0.53456200  1
  C  C9  1  0.47641800  0.47641800  0.46543800  1
  Cl  Cl0  1  0.05725300  0.05725300  0.83602400  1
  Cl  Cl1  1  0.94274700  0.94274700  0.16397600  1
  Cl  Cl2  1  0.60266000  0.60266000  0.14996800  1
  Cl  Cl3  1  0.39734000  0.39734000  0.85003200  1
loop_
_geom_bond_atom_site_label_1
_geom_bond_atom_site_label_2
_geom_bond_distance
_geom_bond_site_symmetry_2
C0 C4 1.316136 1_555
C0 La7 2.551288 1_555
C0 La2 2.820333 1_455
C0 La2 2.820333 1_545
C0 La5 2.877486 1_545
C0 La5 2.877486 1_455
C1 C5 1.316136 1_555
C1 La6 2.551288 1_555
C1 La3 2.820333 1_565
C1 La3 2.820333 1_655
C1 La4 2.877486 1_565
C1 La4 2.877486 1_655
C2 C7 1.324738 1_555
C2 La2 2.588774 1_555
C2 La0 2.728607 1_565
C2 La0 2.728607 1_655
C2 La4 2.805866 1_655
C2 La4 2.805866 1_565
C3 C6 1.324738 1_555
C3 La3 2.588774 1_555
C3 La1 2.728607 1_455
C3 La1 2.728607 1_545
C3 La5 2.805866 1_455
C3 La5 2.805866 1_545
C4 La4 2.528680 1_555
C4 La2 2.779570 1_455
C4 La2 2.779570 1_545
C4 La5 2.829965 1_545
C4 La5 2.829965 1_455
C5 La5 2.528680 1_555
C5 La3 2.779570 1_655
C5 La3 2.779570 1_565
C5 La4 2.829965 1_565
C5 La4 2.829965 1_655
C6 La0 2.467075 1_554
C6 La1 2.759725 1_455
C6 La1 2.759725 1_545
C6 La5 2.864049 1_455
C6 La5 2.864049 1_545
C7 La1 2.467075 1_556
C7 La0 2.759725 1_565
C7 La0 2.759725 1_655
C7 La4 2.864049 1_655
C7 La4 2.864049 1_565
C8 C9 1.337653 1_555
C8 La2 2.513479 1_555
C8 La6 2.723968 1_455
C8 La6 2.723968 1_545
C8 La7 2.745837 1_655
C8 La7 2.745837 1_565
C9 La3 2.513479 1_555
C9 La7 2.723968 1_655
C9 La7 2.723968 1_565
C9 La6 2.745837 1_545
C9 La6 2.745837 1_455
Cl0 La2 2.999420 1_545
Cl0 La2 2.999420 1_455
Cl0 La0 3.142567 1_555
Cl0 La6 3.157117 1_445
Cl1 La3 2.999420 1_565
Cl1 La3 2.999420 1_655
Cl1 La1 3.142567 1_555
Cl1 La7 3.157117 1_665
Cl2 La0 3.022401 1_564
Cl2 La0 3.022401 1_654
Cl2 La7 3.030193 1_565
Cl2 La7 3.030193 1_655
Cl2 La5 3.501316 1_555
Cl3 La1 3.022401 1_456
Cl3 La1 3.022401 1_546
Cl3 La6 3.030193 1_545
Cl3 La6 3.030193 1_455
Cl3 La4 3.501316 1_555
