# generated using pymatgen
data_Ca2LaF7
_symmetry_space_group_name_H-M   'P 1'
_cell_length_a   4.00085886
_cell_length_b   4.00085886
_cell_length_c   9.88750756
_cell_angle_alpha   89.15153967
_cell_angle_beta   89.15153967
_cell_angle_gamma   61.41585102
_symmetry_Int_Tables_number   1
_chemical_formula_structural   Ca2LaF7
_chemical_formula_sum   'Ca2 La1 F7'
_cell_volume   138.95700643
_cell_formula_units_Z   1
loop_
 _symmetry_equiv_pos_site_id
 _symmetry_equiv_pos_as_xyz
  1  'x, y, z'
loop_
 _atom_site_type_symbol
 _atom_site_label
 _atom_site_symmetry_multiplicity
 _atom_site_fract_x
 _atom_site_fract_y
 _atom_site_fract_z
 _atom_site_occupancy
  Ca  Ca0  1  0.65435500  0.65435500  0.66548100  1
  Ca  Ca1  1  0.34278400  0.34278400  0.35163700  1
  La  La0  1  0.03364400  0.03364400  0.00008800  1
  F  F0  1  0.33505300  0.33505300  0.58278700  1
  F  F1  1  0.36878400  0.36878400  0.87252700  1
  F  F2  1  0.01134400  0.01134400  0.74176300  1
  F  F3  1  0.01485500  0.01485500  0.26424300  1
  F  F4  1  0.67389400  0.67389400  0.42816100  1
  F  F5  1  0.69799600  0.69799600  0.98636600  1
  F  F6  1  0.35863700  0.35863700  0.12356600  1
loop_
_geom_bond_atom_site_label_1
_geom_bond_atom_site_label_2
_geom_bond_distance
_geom_bond_site_symmetry_2
Ca0 F4 2.348038 1_555
Ca0 F0 2.357104 1_555
Ca0 F2 2.384435 1_565
Ca0 F2 2.384435 1_655
Ca0 F0 2.520546 1_655
Ca0 F0 2.520546 1_565
Ca0 F2 2.581581 1_665
Ca0 F1 2.812866 1_555
Ca1 F6 2.255813 1_555
Ca1 F0 2.285200 1_555
Ca1 F4 2.412655 1_555
Ca1 F3 2.429744 1_555
Ca1 F4 2.463019 1_455
Ca1 F4 2.463019 1_545
Ca1 F3 2.507396 1_565
Ca1 F3 2.507396 1_655
F1 La0 2.608972 1_556
F1 La0 2.664704 1_566
F1 La0 2.664704 1_656
F2 La0 2.561430 1_556
F3 La0 2.612807 1_555
F5 La0 2.315482 1_666
F5 La0 2.337905 1_566
F5 La0 2.337905 1_656
F6 La0 2.565870 1_555
F6 La0 2.657773 1_655
F6 La0 2.657773 1_565
