# generated using pymatgen
data_Dy(FeSn)6
_symmetry_space_group_name_H-M   'P 1'
_cell_length_a   23.56039964
_cell_length_b   23.56039964
_cell_length_c   9.00048100
_cell_angle_alpha   90.00000000
_cell_angle_beta   90.00000000
_cell_angle_gamma   166.81988907
_symmetry_Int_Tables_number   1
_chemical_formula_structural   Dy(FeSn)6
_chemical_formula_sum   'Dy5 Fe30 Sn30'
_cell_volume   1139.17498455
_cell_formula_units_Z   5
loop_
 _symmetry_equiv_pos_site_id
 _symmetry_equiv_pos_as_xyz
  1  'x, y, z'
loop_
 _atom_site_type_symbol
 _atom_site_label
 _atom_site_symmetry_multiplicity
 _atom_site_fract_x
 _atom_site_fract_y
 _atom_site_fract_z
 _atom_site_occupancy
  Dy  Dy0  1  0.39984500  0.60015500  0.50000000  1
  Dy  Dy1  1  0.60015500  0.39984500  0.50000000  1
  Dy  Dy2  1  0.19984500  0.80015500  0.00000000  1
  Dy  Dy3  1  0.80015500  0.19984500  0.00000000  1
  Dy  Dy4  1  0.00000000  0.00000000  0.50000000  1
  Fe  Fe0  1  0.39986500  0.09995200  0.75002900  1
  Fe  Fe1  1  0.69998700  0.30001300  0.24906400  1
  Fe  Fe2  1  0.60013500  0.90004800  0.24997100  1
  Fe  Fe3  1  0.69998700  0.30001300  0.75093600  1
  Fe  Fe4  1  0.50000000  0.00000000  0.75110100  1
  Fe  Fe5  1  0.90004800  0.60013500  0.24997100  1
  Fe  Fe6  1  0.60013500  0.90004800  0.75002900  1
  Fe  Fe7  1  0.80009900  0.70015000  0.74880100  1
  Fe  Fe8  1  0.29985000  0.19990100  0.74880100  1
  Fe  Fe9  1  0.70015000  0.80009900  0.25119900  1
  Fe  Fe10  1  0.30001300  0.69998700  0.75093600  1
  Fe  Fe11  1  0.19990100  0.29985000  0.74880100  1
  Fe  Fe12  1  0.10006100  0.89993900  0.74907600  1
  Fe  Fe13  1  0.10006100  0.89993900  0.25092400  1
  Fe  Fe14  1  0.50000000  0.50000000  0.25116400  1
  Fe  Fe15  1  0.80009900  0.70015000  0.25119900  1
  Fe  Fe16  1  0.00000000  0.50000000  0.24889900  1
  Fe  Fe17  1  0.00000000  0.50000000  0.75110100  1
  Fe  Fe18  1  0.90004800  0.60013500  0.75002900  1
  Fe  Fe19  1  0.39986500  0.09995200  0.24997100  1
  Fe  Fe20  1  0.70015000  0.80009900  0.74880100  1
  Fe  Fe21  1  0.89993900  0.10006100  0.74907600  1
  Fe  Fe22  1  0.89993900  0.10006100  0.25092400  1
  Fe  Fe23  1  0.19990100  0.29985000  0.25119900  1
  Fe  Fe24  1  0.09995200  0.39986500  0.75002900  1
  Fe  Fe25  1  0.29985000  0.19990100  0.25119900  1
  Fe  Fe26  1  0.50000000  0.00000000  0.24889900  1
  Fe  Fe27  1  0.30001300  0.69998700  0.24906400  1
  Fe  Fe28  1  0.50000000  0.50000000  0.74883600  1
  Fe  Fe29  1  0.09995200  0.39986500  0.24997100  1
  Sn  Sn0  1  0.06653400  0.93346600  0.00000000  1
  Sn  Sn1  1  0.79998700  0.20001300  0.66575300  1
  Sn  Sn2  1  0.06662300  0.93337700  0.50000000  1
  Sn  Sn3  1  0.33341500  0.66658500  0.00000000  1
  Sn  Sn4  1  0.13306700  0.86693300  0.00000000  1
  Sn  Sn5  1  0.66699900  0.33300100  0.50000000  1
  Sn  Sn6  1  0.66658500  0.33341500  0.00000000  1
  Sn  Sn7  1  0.53348300  0.46651700  0.00000000  1
  Sn  Sn8  1  0.93337700  0.06662300  0.50000000  1
  Sn  Sn9  1  0.40021600  0.59978400  0.83443200  1
  Sn  Sn10  1  0.59978400  0.40021600  0.83443200  1
  Sn  Sn11  1  0.33300100  0.66699900  0.50000000  1
  Sn  Sn12  1  0.20001300  0.79998700  0.66575300  1
  Sn  Sn13  1  0.20001300  0.79998700  0.33424700  1
  Sn  Sn14  1  0.40021600  0.59978400  0.16556800  1
  Sn  Sn15  1  0.26672700  0.73327300  0.00000000  1
  Sn  Sn16  1  0.93346600  0.06653400  0.00000000  1
  Sn  Sn17  1  0.73331200  0.26668800  0.50000000  1
  Sn  Sn18  1  0.86647200  0.13352800  0.50000000  1
  Sn  Sn19  1  0.13352800  0.86647200  0.50000000  1
  Sn  Sn20  1  0.00000000  0.00000000  0.83410400  1
  Sn  Sn21  1  0.79998700  0.20001300  0.33424700  1
  Sn  Sn22  1  0.00000000  0.00000000  0.16589600  1
  Sn  Sn23  1  0.73327300  0.26672700  0.00000000  1
  Sn  Sn24  1  0.26668800  0.73331200  0.50000000  1
  Sn  Sn25  1  0.59978400  0.40021600  0.16556800  1
  Sn  Sn26  1  0.46651700  0.53348300  0.00000000  1
  Sn  Sn27  1  0.53340100  0.46659900  0.50000000  1
  Sn  Sn28  1  0.46659900  0.53340100  0.50000000  1
  Sn  Sn29  1  0.86693300  0.13306700  0.00000000  1
loop_
_geom_bond_atom_site_label_1
_geom_bond_atom_site_label_2
_geom_bond_distance
_geom_bond_site_symmetry_2
Dy0 Sn9 3.010099 1_555
Dy0 Sn14 3.010099 1_555
Dy0 Sn18 3.122735 1_455
Dy0 Sn18 3.122735 1_565
Dy0 Sn28 3.124719 1_555
Dy0 Sn8 3.126465 1_565
Dy0 Sn8 3.126465 1_455
Dy0 Sn11 3.128931 1_555
Dy0 Fe6 3.511087 1_555
Dy0 Fe2 3.511087 1_555
Dy0 Fe29 3.511087 1_555
Dy0 Fe24 3.511087 1_555
Dy0 Fe21 3.512377 1_455
Dy0 Fe21 3.512377 1_565
Dy0 Fe22 3.512377 1_565
Dy0 Fe22 3.512377 1_455
Dy0 Fe11 3.515910 1_555
Dy0 Fe23 3.515910 1_555
Dy0 Fe9 3.515910 1_555
Dy0 Fe20 3.515910 1_555
Dy1 Sn10 3.010099 1_555
Dy1 Sn25 3.010099 1_555
Dy1 Sn19 3.122735 1_545
Dy1 Sn19 3.122735 1_655
Dy1 Sn27 3.124719 1_555
Dy1 Sn2 3.126465 1_655
Dy1 Sn2 3.126465 1_545
Dy1 Sn5 3.128931 1_555
Dy1 Fe18 3.511087 1_555
Dy1 Fe5 3.511087 1_555
Dy1 Fe0 3.511087 1_555
Dy1 Fe19 3.511087 1_555
Dy1 Fe12 3.512377 1_545
Dy1 Fe12 3.512377 1_655
Dy1 Fe13 3.512377 1_545
Dy1 Fe13 3.512377 1_655
Dy1 Fe25 3.515910 1_555
Dy1 Fe8 3.515910 1_555
Dy1 Fe15 3.515910 1_555
Dy1 Fe7 3.515910 1_555
Dy2 Sn12 3.008394 1_554
Dy2 Sn13 3.008394 1_555
Dy2 Sn6 3.120092 1_565
Dy2 Sn6 3.120092 1_455
Dy2 Sn23 3.124024 1_455
Dy2 Sn23 3.124024 1_565
Dy2 Sn4 3.125842 1_555
Dy2 Sn15 3.130710 1_555
Dy2 Fe3 3.512312 1_564
Dy2 Fe3 3.512312 1_454
Dy2 Fe1 3.512312 1_455
Dy2 Fe1 3.512312 1_565
Dy2 Fe5 3.513077 1_455
Dy2 Fe19 3.513077 1_565
Dy2 Fe18 3.513077 1_454
Dy2 Fe0 3.513077 1_564
Dy2 Fe17 3.515415 1_554
Dy2 Fe26 3.515415 1_565
Dy2 Fe16 3.515415 1_555
Dy2 Fe4 3.515415 1_564
Dy3 Sn1 3.008394 1_554
Dy3 Sn21 3.008394 1_555
Dy3 Sn3 3.120092 1_545
Dy3 Sn3 3.120092 1_655
Dy3 Sn15 3.124024 1_545
Dy3 Sn15 3.124024 1_655
Dy3 Sn29 3.125842 1_555
Dy3 Sn23 3.130710 1_555
Dy3 Fe10 3.512312 1_544
Dy3 Fe10 3.512312 1_654
Dy3 Fe27 3.512312 1_655
Dy3 Fe27 3.512312 1_545
Dy3 Fe2 3.513077 1_545
Dy3 Fe29 3.513077 1_655
Dy3 Fe6 3.513077 1_544
Dy3 Fe24 3.513077 1_654
Dy3 Fe17 3.515415 1_654
Dy3 Fe26 3.515415 1_555
Dy3 Fe16 3.515415 1_655
Dy3 Fe4 3.515415 1_554
Dy4 Sn20 3.007097 1_555
Dy4 Sn22 3.007097 1_555
Dy4 Sn2 3.118587 1_545
Dy4 Sn8 3.118587 1_455
Dy4 Sn28 3.123391 1_555
Dy4 Sn27 3.123391 1_555
Dy4 Sn27 3.123391 1_445
Dy4 Sn28 3.123391 1_445
Dy4 Fe9 3.508956 1_445
Dy4 Fe15 3.508956 1_445
Dy4 Fe7 3.508956 1_445
Dy4 Fe20 3.508956 1_445
Dy4 Fe23 3.508956 1_555
Dy4 Fe11 3.508956 1_555
Dy4 Fe25 3.508956 1_555
Dy4 Fe8 3.508956 1_555
Dy4 Fe28 3.510996 1_555
Dy4 Fe28 3.510996 1_445
Dy4 Fe14 3.510996 1_445
Dy4 Fe14 3.510996 1_555
Fe0 Fe12 2.698416 1_545
Fe0 Fe18 2.702913 1_445
Fe0 Fe3 2.704381 1_555
Fe0 Fe18 2.704893 1_555
Fe0 Sn19 2.735329 1_545
Fe0 Sn6 2.738036 1_556
Fe0 Sn4 2.741046 1_546
Fe0 Sn5 2.744036 1_555
Fe0 Sn12 2.809269 1_545
Fe0 Sn10 2.814584 1_555
Fe1 Fe26 2.703412 1_555
Fe1 Fe16 2.703412 1_655
Fe1 Fe19 2.704381 1_555
Fe1 Fe5 2.704381 1_555
Fe1 Sn23 2.729995 1_555
Fe1 Sn6 2.733098 1_555
Fe1 Sn5 2.735950 1_555
Fe1 Sn17 2.744884 1_555
Fe1 Sn13 2.810499 1_655
Fe1 Sn13 2.810499 1_545
Fe2 Fe22 2.698416 1_565
Fe2 Fe29 2.702913 1_665
Fe2 Fe27 2.704381 1_555
Fe2 Fe29 2.704893 1_555
Fe2 Sn18 2.735329 1_565
Fe2 Sn3 2.738036 1_555
Fe2 Sn29 2.741046 1_565
Fe2 Sn11 2.744036 1_555
Fe2 Sn21 2.809269 1_565
Fe2 Sn14 2.814584 1_555
Fe3 Fe4 2.703412 1_555
Fe3 Sn23 2.729995 1_556
Fe3 Sn6 2.733098 1_556
Fe3 Sn5 2.735950 1_555
Fe3 Sn17 2.744884 1_555
Fe3 Sn12 2.810499 1_545
Fe3 Sn12 2.810499 1_655
Fe4 Sn23 2.731186 1_556
Fe4 Sn15 2.731186 1_546
Fe4 Sn17 2.746946 1_555
Fe4 Sn24 2.746946 1_545
Fe4 Sn1 2.809418 1_555
Fe4 Sn12 2.809418 1_545
Fe5 Sn19 2.735329 1_655
Fe5 Sn6 2.738036 1_555
Fe5 Sn4 2.741046 1_655
Fe5 Sn5 2.744036 1_555
Fe5 Sn13 2.809269 1_655
Fe5 Sn25 2.814584 1_555
Fe6 Sn18 2.735329 1_565
Fe6 Sn3 2.738036 1_556
Fe6 Sn29 2.741046 1_566
Fe6 Sn11 2.744036 1_555
Fe6 Sn1 2.809269 1_565
Fe6 Sn9 2.814584 1_555
Fe7 Fe8 2.702556 1_665
Fe7 Fe8 2.705250 1_555
Fe7 Sn27 2.728745 1_555
Fe7 Sn2 2.729078 1_655
Fe7 Sn7 2.745403 1_556
Fe7 Sn0 2.745636 1_656
Fe7 Sn10 2.803526 1_555
Fe7 Sn20 2.808496 1_665
Fe8 Sn27 2.728745 1_555
Fe8 Sn2 2.729078 1_545
Fe8 Sn7 2.745403 1_556
Fe8 Sn0 2.745636 1_546
Fe8 Sn10 2.803526 1_555
Fe8 Sn20 2.808496 1_555
Fe9 Sn28 2.728745 1_555
Fe9 Sn8 2.729078 1_565
Fe9 Sn26 2.745403 1_555
Fe9 Sn16 2.745636 1_565
Fe9 Sn14 2.803526 1_555
Fe9 Sn22 2.808496 1_665
Fe10 Fe4 2.703412 1_565
Fe10 Fe17 2.703412 1_555
Fe10 Fe24 2.704381 1_555
Fe10 Fe6 2.704381 1_555
Fe10 Sn15 2.729995 1_556
Fe10 Sn3 2.733098 1_556
Fe10 Sn11 2.735950 1_555
Fe10 Sn24 2.744884 1_555
Fe10 Sn1 2.810499 1_565
Fe10 Sn1 2.810499 1_455
Fe11 Fe28 2.702188 1_555
Fe11 Fe20 2.702556 1_445
Fe11 Fe20 2.705250 1_555
Fe11 Fe21 2.706057 1_455
Fe11 Sn28 2.728745 1_555
Fe11 Sn8 2.729078 1_455
Fe11 Sn26 2.745403 1_556
Fe11 Sn16 2.745636 1_456
Fe11 Sn9 2.803526 1_555
Fe11 Sn20 2.808496 1_555
Fe12 Fe18 2.698416 1_455
Fe12 Fe7 2.706057 1_455
Fe12 Fe8 2.706057 1_565
Fe12 Sn2 2.734151 1_555
Fe12 Sn19 2.734928 1_555
Fe12 Sn4 2.736337 1_556
Fe12 Sn0 2.750180 1_556
Fe12 Sn10 2.810954 1_565
Fe12 Sn10 2.810954 1_455
Fe13 Fe19 2.698416 1_565
Fe13 Fe5 2.698416 1_455
Fe13 Fe15 2.706057 1_455
Fe13 Fe25 2.706057 1_565
Fe13 Sn2 2.734151 1_555
Fe13 Sn19 2.734928 1_555
Fe13 Sn4 2.736337 1_555
Fe13 Sn0 2.750180 1_555
Fe13 Sn25 2.810954 1_565
Fe13 Sn25 2.810954 1_455
Fe14 Fe9 2.702188 1_555
Fe14 Fe15 2.702188 1_555
Fe14 Fe23 2.702188 1_555
Fe14 Fe25 2.702188 1_555
Fe14 Sn28 2.731388 1_555
Fe14 Sn27 2.731388 1_555
Fe14 Sn7 2.750780 1_555
Fe14 Sn26 2.750780 1_555
Fe14 Sn22 2.810707 1_665
Fe14 Sn22 2.810707 1_555
Fe15 Fe25 2.702556 1_665
Fe15 Fe25 2.705250 1_555
Fe15 Sn27 2.728745 1_555
Fe15 Sn2 2.729078 1_655
Fe15 Sn7 2.745403 1_555
Fe15 Sn0 2.745636 1_655
Fe15 Sn25 2.803526 1_555
Fe15 Sn22 2.808496 1_665
Fe16 Fe27 2.703412 1_555
Fe16 Fe26 2.703903 1_455
Fe16 Fe26 2.703903 1_565
Fe16 Sn15 2.731186 1_555
Fe16 Sn23 2.731186 1_455
Fe16 Sn24 2.746946 1_555
Fe16 Sn17 2.746946 1_455
Fe16 Sn21 2.809418 1_455
Fe16 Sn13 2.809418 1_555
Fe17 Fe3 2.703412 1_455
Fe17 Fe4 2.703903 1_455
Fe17 Fe4 2.703903 1_565
Fe17 Sn15 2.731186 1_556
Fe17 Sn23 2.731186 1_456
Fe17 Sn24 2.746946 1_555
Fe17 Sn17 2.746946 1_455
Fe17 Sn1 2.809418 1_455
Fe17 Sn12 2.809418 1_555
Fe18 Fe3 2.704381 1_555
Fe18 Sn19 2.735329 1_655
Fe18 Sn6 2.738036 1_556
Fe18 Sn4 2.741046 1_656
Fe18 Sn5 2.744036 1_555
Fe18 Sn12 2.809269 1_655
Fe18 Sn10 2.814584 1_555
Fe19 Fe5 2.702913 1_445
Fe19 Fe5 2.704893 1_555
Fe19 Sn19 2.735329 1_545
Fe19 Sn6 2.738036 1_555
Fe19 Sn4 2.741046 1_545
Fe19 Sn5 2.744036 1_555
Fe19 Sn13 2.809269 1_545
Fe19 Sn25 2.814584 1_555
Fe20 Fe28 2.702188 1_555
Fe20 Fe21 2.706057 1_565
Fe20 Sn28 2.728745 1_555
Fe20 Sn8 2.729078 1_565
Fe20 Sn26 2.745403 1_556
Fe20 Sn16 2.745636 1_566
Fe20 Sn9 2.803526 1_555
Fe20 Sn20 2.808496 1_665
Fe21 Fe24 2.698416 1_655
Fe21 Fe6 2.698416 1_545
Fe21 Sn8 2.734151 1_555
Fe21 Sn18 2.734928 1_555
Fe21 Sn29 2.736337 1_556
Fe21 Sn16 2.750180 1_556
Fe21 Sn9 2.810954 1_655
Fe21 Sn9 2.810954 1_545
Fe22 Fe29 2.698416 1_655
Fe22 Fe9 2.706057 1_545
Fe22 Fe23 2.706057 1_655
Fe22 Sn8 2.734151 1_555
Fe22 Sn18 2.734928 1_555
Fe22 Sn29 2.736337 1_555
Fe22 Sn16 2.750180 1_555
Fe22 Sn14 2.810954 1_655
Fe22 Sn14 2.810954 1_545
Fe23 Fe9 2.702556 1_445
Fe23 Fe9 2.705250 1_555
Fe23 Sn28 2.728745 1_555
Fe23 Sn8 2.729078 1_455
Fe23 Sn26 2.745403 1_555
Fe23 Sn16 2.745636 1_455
Fe23 Sn14 2.803526 1_555
Fe23 Sn22 2.808496 1_555
Fe24 Fe6 2.702913 1_445
Fe24 Fe6 2.704893 1_555
Fe24 Sn18 2.735329 1_455
Fe24 Sn3 2.738036 1_556
Fe24 Sn29 2.741046 1_456
Fe24 Sn11 2.744036 1_555
Fe24 Sn1 2.809269 1_455
Fe24 Sn9 2.814584 1_555
Fe25 Sn27 2.728745 1_555
Fe25 Sn2 2.729078 1_545
Fe25 Sn7 2.745403 1_555
Fe25 Sn0 2.745636 1_545
Fe25 Sn25 2.803526 1_555
Fe25 Sn22 2.808496 1_555
Fe26 Fe27 2.703412 1_545
Fe26 Sn23 2.731186 1_555
Fe26 Sn15 2.731186 1_545
Fe26 Sn17 2.746946 1_555
Fe26 Sn24 2.746946 1_545
Fe26 Sn13 2.809418 1_545
Fe26 Sn21 2.809418 1_555
Fe27 Fe29 2.704381 1_555
Fe27 Sn15 2.729995 1_555
Fe27 Sn3 2.733098 1_555
Fe27 Sn11 2.735950 1_555
Fe27 Sn24 2.744884 1_555
Fe27 Sn21 2.810499 1_565
Fe27 Sn21 2.810499 1_455
Fe28 Fe7 2.702188 1_555
Fe28 Fe8 2.702188 1_555
Fe28 Sn28 2.731388 1_555
Fe28 Sn27 2.731388 1_555
Fe28 Sn26 2.750780 1_556
Fe28 Sn7 2.750780 1_556
Fe28 Sn20 2.810707 1_555
Fe28 Sn20 2.810707 1_665
Fe29 Sn18 2.735329 1_455
Fe29 Sn3 2.738036 1_555
Fe29 Sn29 2.741046 1_455
Fe29 Sn11 2.744036 1_555
Fe29 Sn21 2.809269 1_455
Fe29 Sn14 2.814584 1_555
Sn1 Sn21 2.983713 1_555
Sn10 Sn25 2.980383 1_556
Sn12 Sn13 2.983713 1_555
Sn14 Sn9 2.980383 1_554
Sn20 Sn22 2.986288 1_556
