# generated using pymatgen
data_SrLaCuRuO6
_symmetry_space_group_name_H-M   'P 1'
_cell_length_a   5.56290700
_cell_length_b   5.57417140
_cell_length_c   32.42729958
_cell_angle_alpha   85.96601013
_cell_angle_beta   85.96518617
_cell_angle_gamma   61.27543625
_symmetry_Int_Tables_number   1
_chemical_formula_structural   SrLaCuRuO6
_chemical_formula_sum   'Sr7 La7 Cu7 Ru7 O42'
_cell_volume   878.83246050
_cell_formula_units_Z   7
loop_
 _symmetry_equiv_pos_site_id
 _symmetry_equiv_pos_as_xyz
  1  'x, y, z'
loop_
 _atom_site_type_symbol
 _atom_site_label
 _atom_site_symmetry_multiplicity
 _atom_site_fract_x
 _atom_site_fract_y
 _atom_site_fract_z
 _atom_site_occupancy
  Sr  Sr0  1  0.67604100  0.67767800  0.96842000  1
  Sr  Sr1  1  0.39456600  0.39320200  0.82042500  1
  Sr  Sr2  1  0.11045600  0.11171600  0.68013000  1
  Sr  Sr3  1  0.03434300  0.03561400  0.89374100  1
  Sr  Sr4  1  0.82688800  0.82602700  0.53621500  1
  Sr  Sr5  1  0.54234000  0.54062300  0.39345200  1
  Sr  Sr6  1  0.25271400  0.25488400  0.25173600  1
  La  La0  1  0.75505300  0.75861200  0.75191100  1
  La  La1  1  0.47442400  0.47525000  0.60778100  1
  La  La2  1  0.18762600  0.18801000  0.46575000  1
  La  La3  1  0.97332000  0.96450600  0.10152800  1
  La  La4  1  0.90296100  0.90537500  0.32301200  1
  La  La5  1  0.61449200  0.60797200  0.17935900  1
  La  La6  1  0.31453500  0.32847700  0.03341900  1
  Cu  Cu0  1  0.00953300  0.98748700  0.00074400  1
  Cu  Cu1  1  0.08259300  0.07136200  0.78705600  1
  Cu  Cu2  1  0.79539200  0.79268800  0.64399500  1
  Cu  Cu3  1  0.50717300  0.51021100  0.50102100  1
  Cu  Cu4  1  0.22453700  0.22351000  0.35826400  1
  Cu  Cu5  1  0.93204500  0.93581100  0.21487800  1
  Cu  Cu6  1  0.64704700  0.63796400  0.07097800  1
  Ru  Ru0  1  0.71344200  0.71449300  0.85776000  1
  Ru  Ru1  1  0.43164500  0.43265100  0.71420300  1
  Ru  Ru2  1  0.35833400  0.35675800  0.92851400  1
  Ru  Ru3  1  0.86166000  0.86045000  0.42892700  1
  Ru  Ru4  1  0.14689000  0.14676200  0.57222400  1
  Ru  Ru5  1  0.57368300  0.57720800  0.28570000  1
  Ru  Ru6  1  0.29008300  0.28517500  0.14334800  1
  O  O0  1  0.17369200  0.71066700  0.95457600  1
  O  O1  1  0.59276400  0.47785800  0.89301900  1
  O  O2  1  0.07766900  0.51315600  0.88466900  1
  O  O3  1  0.62337100  0.20861300  0.97290900  1
  O  O4  1  0.86098200  0.45444800  0.81268400  1
  O  O5  1  0.12979200  0.24550900  0.96450700  1
  O  O6  1  0.33009000  0.17216400  0.74736900  1
  O  O7  1  0.55711200  0.99402900  0.90208200  1
  O  O8  1  0.77764000  0.23946000  0.74171600  1
  O  O9  1  0.35866700  0.89802100  0.83237000  1
  O  O10  1  0.56930800  0.17440100  0.66767900  1
  O  O11  1  0.82537400  0.94564900  0.82211900  1
  O  O12  1  0.04522800  0.88338900  0.60459800  1
  O  O13  1  0.26204200  0.70237400  0.75714000  1
  O  O14  1  0.50055400  0.94202400  0.59771000  1
  O  O15  1  0.05261000  0.61645700  0.69149000  1
  O  O16  1  0.28251300  0.88600100  0.52535000  1
  O  O17  1  0.53710000  0.66371600  0.67786000  1
  O  O18  1  0.76086900  0.59882800  0.46159400  1
  O  O19  1  0.97772500  0.41120100  0.61526800  1
  O  O20  1  0.21348200  0.65772500  0.45471900  1
  O  O21  1  0.77311200  0.32775700  0.54795200  1
  O  O22  1  0.99662700  0.60147300  0.38212100  1
  O  O23  1  0.25492500  0.37260400  0.53537100  1
  O  O24  1  0.47171500  0.31405600  0.31831300  1
  O  O25  1  0.69347700  0.12744000  0.47180200  1
  O  O26  1  0.92207200  0.37446300  0.31229900  1
  O  O27  1  0.48561300  0.04113000  0.40548000  1
  O  O28  1  0.70992200  0.31074300  0.23910000  1
  O  O29  1  0.96723800  0.08809200  0.39196800  1
  O  O30  1  0.19411900  0.02539000  0.17483600  1
  O  O31  1  0.40703400  0.84318900  0.32868100  1
  O  O32  1  0.66271600  0.08853900  0.16434400  1
  O  O33  1  0.19583000  0.75766100  0.26252800  1
  O  O34  1  0.42836800  0.03444200  0.09571000  1
  O  O35  1  0.67708300  0.79849800  0.24732600  1
  O  O36  1  0.88361800  0.76154700  0.03793800  1
  O  O37  1  0.13599700  0.54690900  0.18701900  1
  O  O38  1  0.34954000  0.79945000  0.03094000  1
  O  O39  1  0.91617500  0.47351700  0.11892600  1
  O  O40  1  0.38690800  0.53628400  0.10842300  1
  O  O41  1  0.84551500  0.28065000  0.04300800  1
loop_
_geom_bond_atom_site_label_1
_geom_bond_atom_site_label_2
_geom_bond_distance
_geom_bond_site_symmetry_2
La0 O6 2.384830 1_565
La0 O15 2.389134 1_655
La0 O4 2.416300 1_555
La0 O11 2.697121 1_555
La0 O13 2.700241 1_655
La0 O8 2.739059 1_565
La0 O8 2.877266 1_555
La0 O13 2.898655 1_555
La1 O21 2.378747 1_555
La1 O12 2.380661 1_555
La1 O10 2.387195 1_555
La1 O14 2.671114 1_555
La1 O19 2.673581 1_555
La1 O17 2.681193 1_555
La1 O23 2.931854 1_555
La1 O19 2.943243 1_455
La1 O14 2.945660 1_545
La2 O18 2.382053 1_455
La2 O16 2.383170 1_545
La2 O27 2.388001 1_555
La2 O23 2.666799 1_555
La2 O25 2.688175 1_555
La2 O20 2.688301 1_555
La2 O25 2.918191 1_455
La2 O20 2.935787 1_545
La2 O29 2.965499 1_455
La3 O41 2.393136 1_565
La3 O40 2.399932 1_655
La3 O32 2.483402 1_565
La3 O36 2.607034 1_555
La3 O34 2.732486 1_665
La3 O39 2.793334 1_565
La3 O30 2.863552 1_665
La3 O38 2.870080 1_655
La3 O34 2.883030 1_565
La3 O39 2.916079 1_555
La4 O22 2.377045 1_555
La4 O33 2.380592 1_655
La4 O24 2.391132 1_565
La4 O29 2.635930 1_565
La4 O26 2.665191 1_565
La4 O31 2.673252 1_655
La4 O31 2.933217 1_555
La4 O26 2.954156 1_555
La4 O35 3.052311 1_555
La5 O28 2.372223 1_555
La5 O30 2.382045 1_565
La5 O39 2.398617 1_555
La5 O35 2.626679 1_555
La5 O37 2.781045 1_655
La5 O32 2.823766 1_565
La5 O37 2.833511 1_555
La5 O40 2.842383 1_555
La5 O32 2.850577 1_555
La6 O3 2.419685 1_554
La6 O34 2.425701 1_555
La6 O36 2.456291 1_455
La6 O5 2.681246 1_554
La6 O38 2.719557 1_555
La6 O41 2.741897 1_455
La6 O38 2.866969 1_545
La6 O41 2.872860 1_555
La6 O40 2.898586 1_555
Cu0 O38 1.961008 1_555
Cu0 O36 2.011669 1_455
Cu0 O41 2.021677 1_465
Cu0 O0 2.057773 1_554
Cu0 O5 2.115031 1_564
Cu0 O3 2.126011 1_464
Cu1 O9 2.035399 1_545
Cu1 O6 2.063984 1_555
Cu1 O13 2.083012 1_545
Cu1 O4 2.084576 1_455
Cu1 O11 2.110445 1_445
Cu1 O8 2.132315 1_455
Cu2 O15 2.032390 1_655
Cu2 O12 2.038128 1_655
Cu2 O10 2.054424 1_565
Cu2 O17 2.108812 1_555
Cu2 O19 2.119199 1_555
Cu2 O14 2.119917 1_555
Cu3 O16 2.037054 1_555
Cu3 O21 2.047395 1_555
Cu3 O18 2.048812 1_555
Cu3 O20 2.116582 1_555
Cu3 O23 2.119564 1_555
Cu3 O25 2.131900 1_555
Cu4 O24 2.036705 1_555
Cu4 O27 2.040043 1_555
Cu4 O22 2.041678 1_455
Cu4 O29 2.124919 1_455
Cu4 O31 2.127337 1_545
Cu4 O26 2.139246 1_455
Cu5 O28 2.030702 1_565
Cu5 O33 2.056570 1_655
Cu5 O30 2.098302 1_665
Cu5 O35 2.103517 1_555
Cu5 O37 2.137745 1_655
Cu5 O32 2.139627 1_565
Cu6 O36 1.980780 1_555
Cu6 O38 1.985184 1_555
Cu6 O41 2.002036 1_555
Cu6 O39 2.075353 1_555
Cu6 O40 2.081845 1_555
Cu6 O34 2.129603 1_565
O0 Ru2 1.955948 1_555
O0 Sr3 2.477136 1_565
O0 Sr0 2.777712 1_555
O0 Sr0 2.863934 1_455
O1 Ru2 2.001700 1_555
O1 Ru0 2.007174 1_555
O1 Sr3 2.508205 1_655
O1 Sr1 2.828672 1_555
O1 Sr0 2.910678 1_555
O2 Ru2 2.012171 1_555
O2 Ru0 2.012853 1_455
O2 Sr1 2.537900 1_555
O2 Sr3 2.779725 1_555
O2 Sr3 2.839337 1_565
O3 Ru2 1.972140 1_555
O3 Sr0 2.760478 1_555
O3 Sr0 2.843753 1_545
O4 Ru0 1.974098 1_555
O4 Sr1 2.767557 1_555
O4 Sr1 2.847630 1_655
O5 Ru2 1.952001 1_555
O5 Sr0 2.518717 1_455
O5 Sr3 2.839548 1_555
O6 Ru1 2.016774 1_555
O6 Sr2 2.689676 1_555
O6 Sr1 2.866000 1_555
O7 Ru2 2.001736 1_565
O7 Ru0 2.021531 1_555
O7 Sr0 2.592287 1_555
O7 Sr3 2.767028 1_665
O7 Sr3 2.835127 1_565
O8 Ru1 1.942794 1_555
O8 Sr2 2.517074 1_655
O8 Sr1 3.094658 1_555
O9 Ru0 1.946522 1_555
O9 Sr3 2.486608 1_565
O9 Sr1 2.776786 1_555
O9 Sr1 2.859594 1_565
O10 Ru1 2.004512 1_555
O10 Sr2 2.737342 1_555
O10 Sr2 2.913330 1_655
O11 Ru0 1.960632 1_555
O11 Sr1 2.494521 1_565
O11 Sr3 2.846229 1_665
O12 Ru4 2.018624 1_565
O12 Sr4 2.710494 1_455
O12 Sr2 2.959416 1_565
O13 Ru1 1.958417 1_555
O13 Sr1 2.493790 1_555
O13 Sr2 3.130300 1_565
O14 Ru4 1.947833 1_565
O14 Sr4 2.496770 1_555
O15 Ru1 2.018412 1_555
O15 Sr2 2.722867 1_555
O15 Sr2 2.924827 1_565
O16 Ru4 2.021814 1_565
O16 Sr4 2.707822 1_455
O16 Sr4 2.926946 1_555
O17 Ru1 1.951246 1_555
O17 Sr2 2.485735 1_565
O18 Ru3 2.012020 1_555
O18 Sr5 2.706230 1_555
O18 Sr4 2.932112 1_555
O19 Ru4 1.943685 1_655
O19 Sr2 2.509110 1_655
O20 Ru3 1.943829 1_455
O20 Sr5 2.498612 1_555
O21 Ru4 2.015689 1_655
O21 Sr4 2.717646 1_545
O21 Sr4 2.929576 1_555
O22 Ru3 2.014310 1_555
O22 Sr5 2.704125 1_555
O22 Sr5 2.935223 1_655
O23 Ru4 1.946428 1_555
O23 Sr4 2.504883 1_455
O24 Ru5 2.022110 1_555
O24 Sr6 2.666545 1_555
O24 Sr5 2.954779 1_555
O25 Ru3 1.947539 1_545
O25 Sr4 2.502462 1_545
O26 Ru5 1.941660 1_555
O26 Sr6 2.486305 1_655
O26 Sr5 3.150453 1_555
O27 Ru3 2.014824 1_545
O27 Sr5 2.706447 1_545
O27 Sr5 2.945883 1_555
O28 Ru5 2.033871 1_555
O28 Sr6 2.707463 1_555
O28 Sr6 2.938486 1_655
O29 Ru3 1.948017 1_545
O29 Sr5 2.494448 1_555
O30 Ru6 1.970490 1_555
O30 Sr6 2.987481 1_555
O31 Ru5 1.946260 1_555
O31 Sr5 2.515225 1_555
O31 Sr6 3.135466 1_565
O32 Ru6 1.967647 1_555
O33 Ru5 2.019477 1_555
O33 Sr6 2.710525 1_555
O33 Sr6 2.931786 1_565
O34 Ru6 2.008622 1_555
O35 Ru5 1.940657 1_555
O35 Sr6 2.509254 1_565
O36 Sr0 2.768977 1_554
O37 Ru6 1.945901 1_555
O37 Sr6 2.484075 1_555
O38 Sr0 2.521951 1_554
O39 Ru6 2.017839 1_655
O40 Ru6 1.986897 1_555
