# generated using pymatgen
data_Sm2Mo2O7
_symmetry_space_group_name_H-M   'P 1'
_cell_length_a   7.61149602
_cell_length_b   14.81006002
_cell_length_c   12.91996279
_cell_angle_alpha   29.25556075
_cell_angle_beta   53.87417227
_cell_angle_gamma   59.04474890
_symmetry_Int_Tables_number   1
_chemical_formula_structural   Sm2Mo2O7
_chemical_formula_sum   'Sm8 Mo8 O28'
_cell_volume   574.90859476
_cell_formula_units_Z   4
loop_
 _symmetry_equiv_pos_site_id
 _symmetry_equiv_pos_as_xyz
  1  'x, y, z'
loop_
 _atom_site_type_symbol
 _atom_site_label
 _atom_site_symmetry_multiplicity
 _atom_site_fract_x
 _atom_site_fract_y
 _atom_site_fract_z
 _atom_site_occupancy
  Sm  Sm0  1  0.50394400  0.00006600  0.50428300  1
  Sm  Sm1  1  0.98920900  0.50025700  0.50392100  1
  Sm  Sm2  1  0.50206800  0.24958300  0.50080100  1
  Sm  Sm3  1  0.49782900  0.50017700  0.49711500  1
  Sm  Sm4  1  0.00895000  0.00023100  0.49715200  1
  Sm  Sm5  1  0.50030400  0.24974200  0.00026200  1
  Sm  Sm6  1  0.49997500  0.75132000  0.49840700  1
  Sm  Sm7  1  0.50008900  0.74837700  0.00189400  1
  Mo  Mo0  1  0.00526500  0.00042900  0.98126900  1
  Mo  Mo1  1  0.99921800  0.25000900  0.99971300  1
  Mo  Mo2  1  0.99708600  0.50040500  0.01718000  1
  Mo  Mo3  1  0.46839600  0.00083600  0.01677800  1
  Mo  Mo4  1  0.00503700  0.25207400  0.49645300  1
  Mo  Mo5  1  0.00125000  0.75065600  0.99907500  1
  Mo  Mo6  1  0.53098400  0.50079200  0.98111000  1
  Mo  Mo7  1  0.99975800  0.75113900  0.49831500  1
  O  O0  1  0.15081000  0.00082400  0.13758900  1
  O  O1  1  0.10501500  0.29751900  0.08333100  1
  O  O2  1  0.62871000  0.00038300  0.09788700  1
  O  O3  1  0.93843400  0.00280700  0.85469800  1
  O  O4  1  0.36576900  0.29612300  0.32565700  1
  O  O5  1  0.12249500  0.25130000  0.61950600  1
  O  O6  1  0.11768400  0.74967000  0.12070300  1
  O  O7  1  0.63961200  0.24930500  0.12164500  1
  O  O8  1  0.89420900  0.00016700  0.36886300  1
  O  O9  1  0.67554000  0.49700400  0.10182300  1
  O  O10  1  0.11011100  0.50022600  0.62834800  1
  O  O11  1  0.35731100  0.24916100  0.88283100  1
  O  O12  1  0.35719300  0.75162700  0.37971500  1
  O  O13  1  0.10635900  0.70341700  0.67663300  1
  O  O14  1  0.88309500  0.25195400  0.37985900  1
  O  O15  1  0.63592800  0.79685700  0.08343200  1
  O  O16  1  0.63230300  0.20288400  0.67788500  1
  O  O17  1  0.07616500  0.50280200  0.13421400  1
  O  O18  1  0.86967600  0.49850800  0.36982500  1
  O  O19  1  0.37771200  0.50030000  0.89649500  1
  O  O20  1  0.13430500  0.99841200  0.62964100  1
  O  O21  1  0.36898500  0.70339800  0.91794000  1
  O  O22  1  0.89047600  0.20391900  0.91791300  1
  O  O23  1  0.89174300  0.79700600  0.32406200  1
  O  O24  1  0.63940300  0.75155000  0.61876600  1
  O  O25  1  0.84664500  0.50078500  0.85729800  1
  O  O26  1  0.32862000  0.99702700  0.90104400  1
  O  O27  1  0.87848600  0.74880000  0.88264200  1
loop_
_geom_bond_atom_site_label_1
_geom_bond_atom_site_label_2
_geom_bond_distance
_geom_bond_site_symmetry_2
Mo0 O3 1.948360 1_455
Mo0 O26 2.022376 1_545
Mo0 O23 2.078851 1_446
Mo0 O22 2.084669 1_455
Mo0 O5 2.153597 1_555
Mo0 O6 2.155037 1_546
Mo0 O2 2.322330 1_456
Mo1 O25 2.164801 1_555
Mo1 O0 2.167033 1_656
Mo1 O8 2.198093 1_556
Mo1 O11 2.203234 1_655
Mo1 O10 2.209939 1_655
Mo1 O7 2.211369 1_556
Mo1 O22 2.267016 1_555
Mo1 O1 2.290367 1_656
Mo2 O17 1.959267 1_655
Mo2 O9 2.015752 1_555
Mo2 O1 2.059462 1_655
Mo2 O13 2.065219 1_654
Mo2 O27 2.155379 1_554
Mo2 O14 2.157354 1_555
Mo2 O19 2.344725 1_654
Mo3 O0 1.957216 1_555
Mo3 O2 2.018469 1_555
Mo3 O16 2.054188 1_554
Mo3 O15 2.070329 1_545
Mo3 O11 2.157826 1_554
Mo3 O12 2.159145 1_545
Mo3 O26 2.335732 1_544
Mo4 O3 2.156886 1_455
Mo4 O17 2.177539 1_555
Mo4 O18 2.181468 1_455
Mo4 O14 2.187620 1_455
Mo4 O20 2.226253 1_545
Mo4 O5 2.227248 1_555
Mo4 O4 2.240659 1_555
Mo4 O16 2.319341 1_455
Mo5 O17 2.164581 1_556
Mo5 O3 2.171105 1_465
Mo5 O20 2.198838 1_555
Mo5 O6 2.200859 1_556
Mo5 O18 2.207184 1_456
Mo5 O27 2.211979 1_455
Mo5 O15 2.271243 1_456
Mo5 O21 2.286569 1_555
Mo6 O25 1.949311 1_555
Mo6 O19 2.020567 1_555
Mo6 O21 2.073013 1_555
Mo6 O4 2.088467 1_556
Mo6 O24 2.156418 1_555
Mo6 O7 2.157451 1_556
Mo6 O9 2.335247 1_556
Mo7 O25 2.163881 1_555
Mo7 O0 2.168104 1_665
Mo7 O8 2.194972 1_565
Mo7 O12 2.198892 1_655
Mo7 O10 2.212782 1_655
Mo7 O24 2.216157 1_555
Mo7 O23 2.268343 1_555
Mo7 O13 2.288818 1_655
O1 Sm5 2.456117 1_555
O1 Sm4 2.476407 1_555
O2 Sm6 2.403605 1_545
O2 Sm5 2.407730 1_555
O4 Sm2 2.445980 1_555
O4 Sm0 2.473575 1_555
O5 Sm1 2.276965 1_455
O5 Sm2 2.338298 1_555
O6 Sm1 2.282474 1_455
O6 Sm7 2.356775 1_555
O7 Sm0 2.278578 1_555
O7 Sm5 2.349427 1_555
O8 Sm4 2.284834 1_655
O8 Sm0 2.399347 1_555
O9 Sm2 2.394864 1_555
O9 Sm7 2.416927 1_555
O10 Sm1 2.274609 1_455
O10 Sm3 2.384087 1_555
O11 Sm3 2.297410 1_555
O11 Sm5 2.337966 1_556
O12 Sm3 2.296104 1_555
O12 Sm6 2.341064 1_555
O13 Sm6 2.446059 1_555
O13 Sm4 2.477537 1_565
O14 Sm4 2.300514 1_655
O14 Sm2 2.349359 1_555
O15 Sm7 2.462145 1_555
O15 Sm3 2.475249 1_555
O16 Sm2 2.429696 1_555
O16 Sm3 2.475406 1_555
O18 Sm3 2.286145 1_555
O18 Sm1 2.406500 1_555
O19 Sm5 2.381228 1_556
O19 Sm6 2.385718 1_555
O20 Sm0 2.273373 1_565
O20 Sm4 2.379096 1_565
O21 Sm7 2.415986 1_556
O21 Sm0 2.473677 1_565
O22 Sm5 2.423443 1_556
O22 Sm1 2.475499 1_555
O23 Sm6 2.433071 1_555
O23 Sm1 2.474615 1_555
O24 Sm0 2.278689 1_565
O24 Sm6 2.345902 1_555
O26 Sm7 2.377081 1_556
O26 Sm2 2.398821 1_565
O27 Sm4 2.295458 1_665
O27 Sm7 2.332070 1_556
