# generated using pymatgen
data_Cs3Tb2Br9
_symmetry_space_group_name_H-M   'P 1'
_cell_length_a   10.27539361
_cell_length_b   10.27539361
_cell_length_c   10.27539387
_cell_angle_alpha   83.88858451
_cell_angle_beta   83.88858451
_cell_angle_gamma   83.88857842
_symmetry_Int_Tables_number   1
_chemical_formula_structural   Cs3Tb2Br9
_chemical_formula_sum   'Cs6 Tb4 Br18'
_cell_volume   1067.64090792
_cell_formula_units_Z   2
loop_
 _symmetry_equiv_pos_site_id
 _symmetry_equiv_pos_as_xyz
  1  'x, y, z'
loop_
 _atom_site_type_symbol
 _atom_site_label
 _atom_site_symmetry_multiplicity
 _atom_site_fract_x
 _atom_site_fract_y
 _atom_site_fract_z
 _atom_site_occupancy
  Cs  Cs0  1  0.75000000  0.41185715  0.08814285  1
  Cs  Cs1  1  0.08814285  0.75000000  0.41185715  1
  Cs  Cs2  1  0.25000000  0.58814285  0.91185715  1
  Cs  Cs3  1  0.41185715  0.08814285  0.75000000  1
  Cs  Cs4  1  0.91185715  0.25000000  0.58814285  1
  Cs  Cs5  1  0.58814285  0.91185715  0.25000000  1
  Tb  Tb0  1  0.34978715  0.34978715  0.34978715  1
  Tb  Tb1  1  0.65021285  0.65021285  0.65021285  1
  Tb  Tb2  1  0.84978715  0.84978715  0.84978715  1
  Tb  Tb3  1  0.15021285  0.15021285  0.15021285  1
  Br  Br0  1  0.41461209  0.76602278  0.58004598  1
  Br  Br1  1  0.23397722  0.41995402  0.58538791  1
  Br  Br2  1  0.40712177  0.25000000  0.09287823  1
  Br  Br3  1  0.09287823  0.40712177  0.25000000  1
  Br  Br4  1  0.91995402  0.73397722  0.08538791  1
  Br  Br5  1  0.91461209  0.08004598  0.26602278  1
  Br  Br6  1  0.59287823  0.75000000  0.90712177  1
  Br  Br7  1  0.75000000  0.90712177  0.59287823  1
  Br  Br8  1  0.58004598  0.41461209  0.76602278  1
  Br  Br9  1  0.25000000  0.09287823  0.40712177  1
  Br  Br10  1  0.76602278  0.58004598  0.41461209  1
  Br  Br11  1  0.73397722  0.08538791  0.91995402  1
  Br  Br12  1  0.08004598  0.26602278  0.91461209  1
  Br  Br13  1  0.41995402  0.58538791  0.23397722  1
  Br  Br14  1  0.58538791  0.23397722  0.41995402  1
  Br  Br15  1  0.90712177  0.59287823  0.75000000  1
  Br  Br16  1  0.26602278  0.91461209  0.08004598  1
  Br  Br17  1  0.08538791  0.91995402  0.73397722  1
loop_
_geom_bond_atom_site_label_1
_geom_bond_atom_site_label_2
_geom_bond_distance
_geom_bond_site_symmetry_2
Br0 Tb1 2.715177 1_555
Br0 Cs5 3.889152 1_555
Br0 Cs3 3.899526 1_565
Br0 Cs1 3.959766 1_555
Br0 Cs2 3.991226 1_555
Br1 Tb0 2.715177 1_555
Br1 Cs1 3.889152 1_555
Br1 Cs4 3.899527 1_455
Br1 Cs2 3.959766 1_555
Br1 Cs3 3.991226 1_555
Br2 Tb0 2.912689 1_555
Br2 Tb3 2.912689 1_555
Br2 Cs5 4.025891 1_545
Br2 Cs2 4.025891 1_554
Br2 Cs3 4.046646 1_554
Br2 Cs0 4.046646 1_555
Br3 Tb3 2.912689 1_555
Br3 Tb0 2.912689 1_555
Br3 Cs4 4.025892 1_455
Br3 Cs2 4.025892 1_554
Br3 Cs0 4.046646 1_455
Br3 Cs1 4.046646 1_555
Br4 Tb2 2.715177 1_554
Br4 Cs2 3.889152 1_654
Br4 Cs0 3.899527 1_555
Br4 Cs1 3.959766 1_655
Br4 Cs5 3.991226 1_555
Br5 Tb3 2.715177 1_655
Br5 Cs1 3.889152 1_645
Br5 Cs4 3.899526 1_555
Br5 Cs5 3.959766 1_545
Br5 Cs0 3.991226 1_555
Br6 Tb1 2.912689 1_555
Br6 Tb2 2.912689 1_555
Br6 Cs3 4.025891 1_565
Br6 Cs0 4.025891 1_556
Br6 Cs5 4.046646 1_556
Br6 Cs2 4.046646 1_555
Br7 Tb2 2.912689 1_555
Br7 Tb1 2.912689 1_555
Br7 Cs3 4.025891 1_565
Br7 Cs1 4.025891 1_655
Br7 Cs5 4.046646 1_555
Br7 Cs4 4.046646 1_565
Br8 Tb1 2.715177 1_555
Br8 Cs2 3.889152 1_555
Br8 Cs0 3.899526 1_556
Br8 Cs3 3.959766 1_555
Br8 Cs4 3.991226 1_555
Br9 Tb3 2.912689 1_555
Br9 Tb0 2.912689 1_555
Br9 Cs5 4.025891 1_545
Br9 Cs4 4.025891 1_455
Br9 Cs3 4.046646 1_555
Br9 Cs1 4.046646 1_545
Br10 Tb1 2.715177 1_555
Br10 Cs4 3.889152 1_555
Br10 Cs1 3.899527 1_655
Br10 Cs0 3.959766 1_555
Br10 Cs5 3.991226 1_555
Br11 Tb2 2.715177 1_545
Br11 Cs5 3.889152 1_546
Br11 Cs3 3.899526 1_555
Br11 Cs0 3.959766 1_556
Br11 Cs4 3.991226 1_555
Br12 Tb3 2.715177 1_556
Br12 Cs0 3.889152 1_456
Br12 Cs2 3.899527 1_555
Br12 Cs4 3.959766 1_455
Br12 Cs3 3.991226 1_555
Br13 Tb0 2.715177 1_555
Br13 Cs0 3.889152 1_555
Br13 Cs2 3.899526 1_554
Br13 Cs5 3.959766 1_555
Br13 Cs1 3.991226 1_555
Br14 Tb0 2.715177 1_555
Br14 Cs3 3.889152 1_555
Br14 Cs5 3.899526 1_545
Br14 Cs4 3.959766 1_555
Br14 Cs0 3.991226 1_555
Br15 Tb1 2.912689 1_555
Br15 Tb2 2.912689 1_555
Br15 Cs1 4.025892 1_655
Br15 Cs0 4.025892 1_556
Br15 Cs2 4.046646 1_655
Br15 Cs4 4.046646 1_555
Br16 Tb3 2.715177 1_565
Br16 Cs3 3.889152 1_564
Br16 Cs5 3.899526 1_555
Br16 Cs2 3.959766 1_554
Br16 Cs1 3.991226 1_555
Br17 Tb2 2.715177 1_455
Br17 Cs4 3.889152 1_465
Br17 Cs1 3.899526 1_555
Br17 Cs3 3.959766 1_565
Br17 Cs2 3.991226 1_555
