# generated using pymatgen
data_Mg3Sn
_symmetry_space_group_name_H-M   'P 1'
_cell_length_a   10.96180001
_cell_length_b   10.96262894
_cell_length_c   5.26949300
_cell_angle_alpha   90.00429462
_cell_angle_beta   89.99868585
_cell_angle_gamma   120.00222294
_symmetry_Int_Tables_number   1
_chemical_formula_structural   Mg3Sn
_chemical_formula_sum   'Mg18 Sn6'
_cell_volume   548.38595447
_cell_formula_units_Z   6
loop_
 _symmetry_equiv_pos_site_id
 _symmetry_equiv_pos_as_xyz
  1  'x, y, z'
loop_
 _atom_site_type_symbol
 _atom_site_label
 _atom_site_symmetry_multiplicity
 _atom_site_fract_x
 _atom_site_fract_y
 _atom_site_fract_z
 _atom_site_occupancy
  Mg  Mg0  1  0.50155700  0.82972800  0.25101100  1
  Mg  Mg1  1  0.32815600  0.49837500  0.25106800  1
  Mg  Mg2  1  0.17024500  0.67182300  0.25104000  1
  Mg  Mg3  1  0.49844400  0.17026400  0.74898800  1
  Mg  Mg4  1  0.67183500  0.50162400  0.74896600  1
  Mg  Mg5  1  0.82976000  0.32819000  0.74896100  1
  Mg  Mg6  1  0.16824400  0.16303900  0.25102500  1
  Mg  Mg7  1  0.99478000  0.83170300  0.25100500  1
  Mg  Mg8  1  0.83692000  0.00517800  0.25100200  1
  Mg  Mg9  1  0.83174300  0.83695000  0.74898200  1
  Mg  Mg10  1  0.00521900  0.16831100  0.74898200  1
  Mg  Mg11  1  0.16308500  0.99482200  0.74898700  1
  Mg  Mg12  1  0.83492400  0.49632600  0.25087500  1
  Mg  Mg13  1  0.66141000  0.16502900  0.25086200  1
  Mg  Mg14  1  0.50366200  0.33856300  0.25092900  1
  Mg  Mg15  1  0.16506100  0.50366500  0.74910600  1
  Mg  Mg16  1  0.33859600  0.83496500  0.74911100  1
  Mg  Mg17  1  0.49634100  0.66142400  0.74905700  1
  Sn  Sn0  1  0.66673700  0.66680300  0.25202600  1
  Sn  Sn1  1  0.00008700  0.33324500  0.25216800  1
  Sn  Sn2  1  0.33311800  0.99988900  0.25220500  1
  Sn  Sn3  1  0.33325400  0.33319100  0.74801000  1
  Sn  Sn4  1  0.99993800  0.66678000  0.74787900  1
  Sn  Sn5  1  0.66688400  0.00011200  0.74775400  1
loop_
_geom_bond_atom_site_label_1
_geom_bond_atom_site_label_2
_geom_bond_distance
_geom_bond_site_symmetry_2
Mg0 Sn0 3.114946 1_555
Mg0 Mg2 3.146287 1_555
Mg0 Mg1 3.146899 1_555
Mg0 Mg13 3.184402 1_565
Mg0 Mg8 3.184735 1_565
Mg0 Mg16 3.191533 1_555
Mg0 Mg17 3.192248 1_555
Mg0 Sn5 3.199871 1_565
Mg0 Mg16 3.208096 1_554
Mg0 Mg17 3.208975 1_554
Mg0 Sn2 3.214575 1_555
Mg0 Sn5 3.228171 1_564
Mg1 Sn1 3.114383 1_555
Mg1 Mg2 3.146970 1_555
Mg1 Mg14 3.184550 1_555
Mg1 Mg6 3.184722 1_555
Mg1 Mg17 3.191233 1_555
Mg1 Mg15 3.192273 1_555
Mg1 Sn3 3.200228 1_555
Mg1 Mg17 3.208834 1_554
Mg1 Mg15 3.209369 1_554
Mg1 Sn0 3.214162 1_555
Mg1 Sn3 3.226429 1_554
Mg2 Sn2 3.114594 1_555
Mg2 Mg7 3.184791 1_455
Mg2 Sn4 3.199881 1_455
Mg2 Sn1 3.214378 1_555
Mg2 Sn4 3.227258 1_454
Mg3 Sn3 3.115060 1_555
Mg3 Mg5 3.146319 1_555
Mg3 Mg4 3.146962 1_555
Mg3 Sn2 3.200010 1_545
Mg3 Sn5 3.214499 1_555
Mg3 Sn2 3.227965 1_546
Mg4 Sn4 3.114706 1_555
Mg4 Mg5 3.146966 1_555
Mg4 Mg9 3.184627 1_555
Mg4 Sn0 3.200188 1_555
Mg4 Sn3 3.214162 1_555
Mg4 Sn0 3.226406 1_556
Mg5 Sn5 3.114708 1_555
Mg5 Sn1 3.199773 1_655
Mg5 Sn4 3.214492 1_555
Mg5 Sn1 3.227546 1_656
Mg6 Sn2 3.114169 1_545
Mg6 Mg8 3.146416 1_455
Mg6 Mg7 3.146759 1_445
Mg6 Sn3 3.199197 1_555
Mg6 Sn1 3.212330 1_555
Mg6 Sn3 3.225421 1_554
Mg7 Sn0 3.114127 1_555
Mg7 Mg8 3.146754 1_565
Mg7 Mg9 3.191507 1_555
Mg7 Sn4 3.198489 1_555
Mg7 Mg9 3.209134 1_554
Mg7 Sn2 3.211862 1_655
Mg7 Sn4 3.225289 1_554
Mg8 Sn1 3.114591 1_655
Mg8 Mg9 3.191604 1_545
Mg8 Sn5 3.197730 1_555
Mg8 Mg9 3.208906 1_544
Mg8 Sn0 3.212454 1_545
Mg8 Sn5 3.225874 1_554
Mg9 Sn5 3.114141 1_565
Mg9 Sn0 3.199044 1_555
Mg9 Sn4 3.212347 1_555
Mg9 Sn0 3.225518 1_556
Mg10 Sn3 3.114050 1_555
Mg10 Mg11 3.146945 1_545
Mg10 Mg9 3.146996 1_445
Mg10 Mg5 3.184723 1_455
Mg10 Mg15 3.184916 1_555
Mg10 Mg6 3.191427 1_555
Mg10 Mg8 3.191816 1_455
Mg10 Sn1 3.198214 1_555
Mg10 Mg6 3.209228 1_556
Mg10 Mg8 3.209491 1_456
Mg10 Sn5 3.211833 1_455
Mg10 Sn1 3.225533 1_556
Mg11 Sn4 3.114354 1_455
Mg11 Mg9 3.146586 1_455
Mg11 Mg3 3.184695 1_565
Mg11 Mg16 3.185019 1_555
Mg11 Mg6 3.191511 1_565
Mg11 Mg7 3.191802 1_455
Mg11 Sn2 3.197838 1_555
Mg11 Mg6 3.208969 1_566
Mg11 Mg7 3.209461 1_456
Mg11 Sn3 3.212396 1_565
Mg11 Sn2 3.225722 1_556
Mg12 Sn1 3.116265 1_655
Mg12 Mg14 3.145847 1_555
Mg12 Mg13 3.146410 1_555
Mg12 Mg2 3.184357 1_655
Mg12 Mg7 3.185134 1_555
Mg12 Mg5 3.191528 1_555
Mg12 Mg4 3.192492 1_555
Mg12 Sn4 3.200287 1_555
Mg12 Mg5 3.207913 1_554
Mg12 Mg4 3.209127 1_554
Mg12 Sn0 3.215193 1_555
Mg12 Sn4 3.226338 1_554
Mg13 Sn2 3.116498 1_545
Mg13 Mg14 3.146277 1_555
Mg13 Mg8 3.184953 1_555
Mg13 Mg3 3.191671 1_555
Mg13 Mg5 3.192581 1_555
Mg13 Sn5 3.199571 1_555
Mg13 Mg3 3.208007 1_554
Mg13 Mg5 3.209223 1_554
Mg13 Sn1 3.215086 1_655
Mg13 Sn5 3.226207 1_554
Mg14 Sn0 3.116240 1_555
Mg14 Mg6 3.185271 1_555
Mg14 Mg4 3.191437 1_555
Mg14 Mg3 3.192268 1_555
Mg14 Sn3 3.200573 1_555
Mg14 Mg4 3.208622 1_554
Mg14 Mg3 3.208882 1_554
Mg14 Sn2 3.215304 1_545
Mg14 Sn3 3.225861 1_554
Mg15 Sn4 3.116206 1_455
Mg15 Mg17 3.146022 1_555
Mg15 Mg16 3.146444 1_555
Mg15 Mg5 3.184163 1_455
Mg15 Mg2 3.191520 1_555
Mg15 Sn1 3.199770 1_555
Mg15 Mg2 3.208077 1_556
Mg15 Sn3 3.215220 1_555
Mg15 Sn1 3.226394 1_556
Mg16 Sn5 3.116461 1_565
Mg16 Mg17 3.146316 1_555
Mg16 Mg3 3.184385 1_565
Mg16 Mg2 3.192406 1_555
Mg16 Sn2 3.199689 1_555
Mg16 Mg2 3.209291 1_556
Mg16 Sn4 3.214906 1_455
Mg16 Sn2 3.226204 1_556
Mg17 Sn3 3.116172 1_555
Mg17 Mg4 3.184323 1_555
Mg17 Mg9 3.185122 1_555
Mg17 Sn0 3.200261 1_555
Mg17 Sn5 3.215437 1_565
Mg17 Sn0 3.225982 1_556
