# generated using pymatgen
data_K3TiCl6
_symmetry_space_group_name_H-M   'P 1'
_cell_length_a   7.26755600
_cell_length_b   13.18304600
_cell_length_c   15.74941306
_cell_angle_alpha   71.70382361
_cell_angle_beta   90.00000000
_cell_angle_gamma   90.00000000
_symmetry_Int_Tables_number   1
_chemical_formula_structural   K3TiCl6
_chemical_formula_sum   'K12 Ti4 Cl24'
_cell_volume   1432.64633627
_cell_formula_units_Z   4
loop_
 _symmetry_equiv_pos_site_id
 _symmetry_equiv_pos_as_xyz
  1  'x, y, z'
loop_
 _atom_site_type_symbol
 _atom_site_label
 _atom_site_symmetry_multiplicity
 _atom_site_fract_x
 _atom_site_fract_y
 _atom_site_fract_z
 _atom_site_occupancy
  K  K0  1  0.99801300  0.17240300  0.89735700  1
  K  K1  1  0.51520500  0.54429900  0.15847300  1
  K  K2  1  0.89030100  0.14546600  0.19894300  1
  K  K3  1  0.01520500  0.45570100  0.34152700  1
  K  K4  1  0.49801300  0.82759700  0.60264300  1
  K  K5  1  0.39030100  0.85453400  0.30105700  1
  K  K6  1  0.60969900  0.14546600  0.69894300  1
  K  K7  1  0.00198700  0.82759700  0.10264300  1
  K  K8  1  0.10969900  0.85453400  0.80105700  1
  K  K9  1  0.48479500  0.45570100  0.84152700  1
  K  K10  1  0.50198700  0.17240300  0.39735700  1
  K  K11  1  0.98479500  0.54429900  0.65847300  1
  Ti  Ti0  1  0.00000000  0.00000000  0.50000000  1
  Ti  Ti1  1  0.50000000  0.00000000  0.00000000  1
  Ti  Ti2  1  0.50000000  0.50000000  0.50000000  1
  Ti  Ti3  1  0.00000000  0.50000000  0.00000000  1
  Cl  Cl0  1  0.56573200  0.18029700  0.96455500  1
  Cl  Cl1  1  0.72021200  0.96944200  0.42080400  1
  Cl  Cl2  1  0.40111500  0.38477800  0.42222500  1
  Cl  Cl3  1  0.74284600  0.33550200  0.25140200  1
  Cl  Cl4  1  0.90111500  0.61522200  0.07777500  1
  Cl  Cl5  1  0.75715400  0.33550200  0.75140200  1
  Cl  Cl6  1  0.71114200  0.42517100  0.01334200  1
  Cl  Cl7  1  0.93426800  0.18029700  0.46455500  1
  Cl  Cl8  1  0.17323200  0.03452000  0.35639100  1
  Cl  Cl9  1  0.43426800  0.81970300  0.03544500  1
  Cl  Cl10  1  0.24284600  0.66449800  0.24859800  1
  Cl  Cl11  1  0.59888500  0.61522200  0.57777500  1
  Cl  Cl12  1  0.28885800  0.57482900  0.98665800  1
  Cl  Cl13  1  0.21114200  0.57482900  0.48665800  1
  Cl  Cl14  1  0.32676800  0.03452000  0.85639100  1
  Cl  Cl15  1  0.09888500  0.38477800  0.92222500  1
  Cl  Cl16  1  0.06573200  0.81970300  0.53544500  1
  Cl  Cl17  1  0.82676800  0.96548000  0.64360900  1
  Cl  Cl18  1  0.77978800  0.96944200  0.92080400  1
  Cl  Cl19  1  0.22021200  0.03055800  0.07919600  1
  Cl  Cl20  1  0.25715400  0.66449800  0.74859800  1
  Cl  Cl21  1  0.78885800  0.42517100  0.51334200  1
  Cl  Cl22  1  0.27978800  0.03055800  0.57919600  1
  Cl  Cl23  1  0.67323200  0.96548000  0.14360900  1
loop_
_geom_bond_atom_site_label_1
_geom_bond_atom_site_label_2
_geom_bond_distance
_geom_bond_site_symmetry_2
Cl0 Ti1 2.314355 1_556
Cl0 K0 3.327139 1_555
Cl0 K9 3.586809 1_555
Cl1 Ti0 2.483568 1_665
Cl1 K10 3.031560 1_565
Cl1 K4 3.308136 1_555
Cl1 K5 3.659776 1_555
Cl1 K2 3.745836 1_565
Cl2 Ti2 2.343578 1_555
Cl2 K10 3.036098 1_555
Cl2 K3 3.099889 1_555
Cl3 K2 3.067062 1_555
Cl3 K3 3.139395 1_655
Cl3 K10 3.141343 1_555
Cl3 K1 3.150615 1_555
Cl4 Ti3 2.343578 1_655
Cl4 K7 3.036098 1_655
Cl4 K1 3.099889 1_555
Cl5 K6 3.067062 1_555
Cl5 K9 3.139395 1_555
Cl5 K0 3.141343 1_555
Cl5 K11 3.150615 1_555
Cl6 Ti3 2.300905 1_655
Cl6 K9 3.083267 1_554
Cl6 K1 3.460124 1_555
Cl7 Ti0 2.314355 1_655
Cl7 K10 3.327139 1_555
Cl7 K3 3.586809 1_655
Cl8 Ti0 2.502282 1_555
Cl8 K10 3.188291 1_555
Cl8 K5 3.190058 1_545
Cl8 K2 3.199856 1_455
Cl9 Ti1 2.314355 1_565
Cl9 K7 3.327139 1_555
Cl9 K1 3.586809 1_555
Cl10 K5 3.067062 1_555
Cl10 K1 3.139395 1_555
Cl10 K7 3.141343 1_555
Cl10 K3 3.150615 1_555
Cl11 Ti2 2.343578 1_555
Cl11 K4 3.036098 1_555
Cl11 K11 3.099889 1_555
Cl12 Ti3 2.300905 1_556
Cl12 K1 3.083267 1_556
Cl12 K9 3.460124 1_555
Cl13 Ti2 2.300905 1_555
Cl13 K11 3.083267 1_455
Cl13 K3 3.460124 1_555
Cl14 Ti1 2.502282 1_556
Cl14 K0 3.188291 1_455
Cl14 K8 3.190058 1_545
Cl14 K6 3.199856 1_555
Cl15 Ti3 2.343578 1_556
Cl15 K0 3.036098 1_455
Cl15 K9 3.099889 1_555
Cl16 Ti0 2.314355 1_565
Cl16 K4 3.327139 1_555
Cl16 K11 3.586809 1_455
Cl17 Ti0 2.502282 1_665
Cl17 K4 3.188291 1_555
Cl17 K6 3.190058 1_565
Cl17 K8 3.199856 1_655
Cl18 Ti1 2.483568 1_566
Cl18 K0 3.031560 1_565
Cl18 K7 3.308136 1_656
Cl18 K8 3.659776 1_655
Cl18 K6 3.745836 1_565
Cl19 Ti1 2.483568 1_555
Cl19 K7 3.031560 1_545
Cl19 K0 3.308136 1_454
Cl19 K2 3.659776 1_455
Cl19 K5 3.745836 1_545
Cl20 K8 3.067062 1_555
Cl20 K11 3.139395 1_455
Cl20 K4 3.141343 1_555
Cl20 K9 3.150615 1_555
Cl21 Ti2 2.300905 1_555
Cl21 K3 3.083267 1_655
Cl21 K11 3.460124 1_555
Cl22 Ti0 2.483568 1_555
Cl22 K4 3.031560 1_545
Cl22 K10 3.308136 1_555
Cl22 K6 3.659776 1_555
Cl22 K8 3.745836 1_545
Cl23 Ti1 2.502282 1_565
Cl23 K7 3.188291 1_655
Cl23 K2 3.190058 1_565
Cl23 K5 3.199856 1_555
