# generated using pymatgen
data_Li27As10
_symmetry_space_group_name_H-M   'P 1'
_cell_length_a   11.45173923
_cell_length_b   11.45173923
_cell_length_c   7.44709604
_cell_angle_alpha   83.98056105
_cell_angle_beta   83.98056105
_cell_angle_gamma   142.08186688
_symmetry_Int_Tables_number   1
_chemical_formula_structural   Li27As10
_chemical_formula_sum   'Li27 As10'
_cell_volume   568.04995040
_cell_formula_units_Z   1
loop_
 _symmetry_equiv_pos_site_id
 _symmetry_equiv_pos_as_xyz
  1  'x, y, z'
loop_
 _atom_site_type_symbol
 _atom_site_label
 _atom_site_symmetry_multiplicity
 _atom_site_fract_x
 _atom_site_fract_y
 _atom_site_fract_z
 _atom_site_occupancy
  Li  Li0  1  0.81689100  0.41458200  0.65293000  1
  Li  Li1  1  0.19921600  0.80078400  0.50000000  1
  Li  Li2  1  0.41458200  0.81689100  0.65293000  1
  Li  Li3  1  0.80078400  0.19921600  0.50000000  1
  Li  Li4  1  0.34323400  0.93027400  0.11274000  1
  Li  Li5  1  0.58541800  0.18310900  0.34707000  1
  Li  Li6  1  0.02995500  0.21117800  0.61677900  1
  Li  Li7  1  0.93027400  0.34323400  0.11274000  1
  Li  Li8  1  0.64827600  0.64827600  0.61598700  1
  Li  Li9  1  0.18310900  0.58541800  0.34707000  1
  Li  Li10  1  0.39849900  0.60150100  0.50000000  1
  Li  Li11  1  0.21117800  0.02995500  0.61677900  1
  Li  Li12  1  0.06972600  0.65676600  0.88726000  1
  Li  Li13  1  0.51008400  0.72233600  0.11631000  1
  Li  Li14  1  0.78882200  0.97004500  0.38322100  1
  Li  Li15  1  0.11296300  0.11296300  0.15006500  1
  Li  Li16  1  0.90018100  0.09981900  0.00000000  1
  Li  Li17  1  0.65676600  0.06972600  0.88726000  1
  Li  Li18  1  0.35172400  0.35172400  0.38401300  1
  Li  Li19  1  0.60150100  0.39849900  0.50000000  1
  Li  Li20  1  0.72233600  0.51008400  0.11631000  1
  Li  Li21  1  0.27766400  0.48991600  0.88369000  1
  Li  Li22  1  0.97004500  0.78882200  0.38322100  1
  Li  Li23  1  0.50000000  0.50000000  0.00000000  1
  Li  Li24  1  0.09981900  0.90018100  0.00000000  1
  Li  Li25  1  0.88703700  0.88703700  0.84993500  1
  Li  Li26  1  0.48991600  0.27766400  0.88369000  1
  As  As0  1  0.44031900  0.04788600  0.73255400  1
  As  As1  1  0.04788600  0.44031900  0.73255400  1
  As  As2  1  0.65428100  0.85574700  0.75261900  1
  As  As3  1  0.55968100  0.95211400  0.26744600  1
  As  As4  1  0.26481200  0.26481200  0.76296600  1
  As  As5  1  0.14425300  0.34571900  0.24738100  1
  As  As6  1  0.85574700  0.65428100  0.75261900  1
  As  As7  1  0.73518800  0.73518800  0.23703400  1
  As  As8  1  0.34571900  0.14425300  0.24738100  1
  As  As9  1  0.95211400  0.55968100  0.26744600  1
loop_
_geom_bond_atom_site_label_1
_geom_bond_atom_site_label_2
_geom_bond_distance
_geom_bond_site_symmetry_2
Li0 Li3 2.707248 1_555
Li0 Li19 2.707662 1_555
Li0 Li1 2.715256 1_655
Li1 Li9 2.707248 1_555
Li1 Li2 2.707248 1_555
Li1 Li5 2.715256 1_565
Li1 Li12 2.735512 1_555
Li1 Li4 2.735512 1_555
Li1 Li22 2.756635 1_455
Li1 Li11 2.756635 1_565
Li2 Li3 2.715256 1_565
Li3 Li5 2.707248 1_555
Li3 Li9 2.715256 1_655
Li3 Li7 2.735512 1_555
Li3 Li6 2.756635 1_655
Li10 Li14 2.683024 1_555
Li10 Li6 2.683024 1_555
Li10 Li13 2.706908 1_555
Li10 Li21 2.706908 1_555
Li10 Li2 2.707662 1_555
Li10 Li9 2.707662 1_555
Li10 Li8 2.722606 1_555
Li10 Li18 2.722606 1_555
Li11 Li19 2.683024 1_555
Li11 Li24 2.708595 1_546
Li12 Li24 2.762215 1_556
Li13 Li23 2.695551 1_555
Li13 Li16 2.707015 1_565
Li14 Li16 2.708595 1_565
Li14 Li3 2.756635 1_565
Li15 Li24 2.690151 1_545
Li15 Li16 2.690151 1_455
Li15 Li23 2.732335 1_555
Li16 Li25 2.690151 1_544
Li16 Li21 2.707015 1_654
Li16 Li6 2.708595 1_654
Li16 Li17 2.762215 1_554
Li16 Li7 2.762215 1_555
Li17 Li3 2.735512 1_555
Li18 Li23 2.712716 1_555
Li18 Li19 2.722606 1_555
Li19 Li22 2.683024 1_555
Li19 Li20 2.706908 1_555
Li19 Li26 2.706908 1_555
Li19 Li5 2.707662 1_555
Li19 Li8 2.722606 1_555
Li20 Li23 2.695551 1_555
Li20 Li24 2.707015 1_655
Li21 Li23 2.695551 1_556
Li22 Li24 2.708595 1_655
Li23 Li26 2.695551 1_554
Li23 Li8 2.712716 1_554
Li23 Li25 2.732335 1_554
Li24 Li25 2.690151 1_454
Li24 Li26 2.707015 1_564
Li24 Li4 2.762215 1_555
As0 Li2 2.563507 1_545
As0 Li26 2.628806 1_555
As0 Li0 2.636644 1_555
As0 Li17 2.686091 1_555
As0 Li4 2.691410 1_546
As0 Li12 2.701977 1_545
As0 Li11 2.707900 1_555
As0 Li5 2.721680 1_555
As0 Li1 2.886795 1_545
As0 Li19 2.950518 1_555
As0 Li24 3.048083 1_546
As0 Li3 3.102700 1_555
As1 Li0 2.563507 1_455
As1 Li21 2.628806 1_555
As1 Li2 2.636644 1_555
As1 Li12 2.686091 1_555
As1 Li7 2.691410 1_456
As1 Li17 2.701977 1_455
As1 Li6 2.707900 1_555
As1 Li9 2.721680 1_555
As1 Li3 2.886795 1_455
As1 Li10 2.950518 1_555
As1 Li16 3.048083 1_456
As1 Li1 3.102700 1_555
As2 Li13 2.571039 1_556
As2 Li6 2.587320 1_665
As2 Li25 2.590554 1_555
As2 Li14 2.613193 1_555
As2 Li2 2.617929 1_555
As2 Li21 2.618465 1_555
As2 Li8 2.636076 1_555
As2 Li17 2.724349 1_565
As2 Li16 2.980876 1_566
As2 Li3 3.033030 1_565
As2 Li10 3.073257 1_555
As2 Li23 3.082065 1_556
As3 Li5 2.563507 1_565
As3 Li13 2.628806 1_555
As3 Li9 2.636644 1_555
As3 Li4 2.686091 1_555
As3 Li17 2.691410 1_564
As3 Li7 2.701977 1_565
As3 Li14 2.707900 1_555
As3 Li2 2.721680 1_555
As3 Li3 2.886795 1_565
As3 Li10 2.950518 1_555
As3 Li16 3.048083 1_565
As3 Li1 3.102700 1_555
As4 Li6 2.635138 1_555
As4 Li11 2.635138 1_555
As4 Li25 2.673272 1_445
As4 Li18 2.684084 1_555
As4 Li8 2.706269 1_555
As4 Li21 2.718524 1_555
As4 Li26 2.718524 1_555
As4 Li15 2.735751 1_556
As4 Li23 2.858844 1_556
As4 Li16 3.070582 1_456
As4 Li24 3.070582 1_546
As4 Li10 3.085337 1_555
As4 Li19 3.085337 1_555
As5 Li21 2.571039 1_554
As5 Li14 2.587320 1_445
As5 Li15 2.590554 1_555
As5 Li6 2.613193 1_555
As5 Li9 2.617929 1_555
As5 Li13 2.618465 1_555
As5 Li18 2.636076 1_555
As5 Li7 2.724349 1_455
As5 Li16 2.980876 1_455
As5 Li3 3.033030 1_455
As5 Li10 3.073257 1_555
As5 Li23 3.082065 1_555
As6 Li20 2.571039 1_556
As6 Li11 2.587320 1_665
As6 Li25 2.590554 1_555
As6 Li22 2.613193 1_555
As6 Li0 2.617929 1_555
As6 Li26 2.618465 1_555
As6 Li8 2.636076 1_555
As6 Li12 2.724349 1_655
As6 Li24 2.980876 1_656
As6 Li1 3.033030 1_655
As6 Li19 3.073257 1_555
As6 Li23 3.082065 1_556
As7 Li22 2.635138 1_555
As7 Li14 2.635138 1_555
As7 Li15 2.673272 1_665
As7 Li8 2.684084 1_555
As7 Li18 2.706269 1_555
As7 Li13 2.718524 1_555
As7 Li20 2.718524 1_555
As7 Li25 2.735751 1_554
As7 Li23 2.858844 1_555
As7 Li24 3.070582 1_655
As7 Li16 3.070582 1_565
As7 Li10 3.085337 1_555
As7 Li19 3.085337 1_555
As8 Li26 2.571039 1_554
As8 Li22 2.587320 1_445
As8 Li15 2.590554 1_555
As8 Li11 2.613193 1_555
As8 Li5 2.617929 1_555
As8 Li20 2.618465 1_555
As8 Li18 2.636076 1_555
As8 Li4 2.724349 1_545
As8 Li24 2.980876 1_545
As8 Li1 3.033030 1_545
As8 Li19 3.073257 1_555
As8 Li23 3.082065 1_555
As9 Li9 2.563507 1_655
As9 Li20 2.628806 1_555
As9 Li5 2.636644 1_555
As9 Li7 2.686091 1_555
As9 Li12 2.691410 1_654
As9 Li4 2.701977 1_655
As9 Li22 2.707900 1_555
As9 Li0 2.721680 1_555
As9 Li1 2.886795 1_655
As9 Li19 2.950518 1_555
As9 Li24 3.048083 1_655
As9 Li3 3.102700 1_555
