# generated using pymatgen
data_Nb12TlTe16
_symmetry_space_group_name_H-M   'P 1'
_cell_length_a   10.82985341
_cell_length_b   10.82985341
_cell_length_c   14.65194900
_cell_angle_alpha   90.00000000
_cell_angle_beta   90.00000000
_cell_angle_gamma   119.99999639
_symmetry_Int_Tables_number   1
_chemical_formula_structural   Nb12TlTe16
_chemical_formula_sum   'Nb24 Tl2 Te32'
_cell_volume   1488.23393108
_cell_formula_units_Z   2
loop_
 _symmetry_equiv_pos_site_id
 _symmetry_equiv_pos_as_xyz
  1  'x, y, z'
loop_
 _atom_site_type_symbol
 _atom_site_label
 _atom_site_symmetry_multiplicity
 _atom_site_fract_x
 _atom_site_fract_y
 _atom_site_fract_z
 _atom_site_occupancy
  Nb  Nb0  1  0.10140600  0.49109900  0.75075500  1
  Nb  Nb1  1  0.10174100  0.49054700  0.00000000  1
  Nb  Nb2  1  0.10140600  0.49109900  0.24924500  1
  Nb  Nb3  1  0.10140400  0.49244600  0.50000000  1
  Nb  Nb4  1  0.38969200  0.89859400  0.75075500  1
  Nb  Nb5  1  0.38880700  0.89825900  0.00000000  1
  Nb  Nb6  1  0.39104200  0.89859600  0.50000000  1
  Nb  Nb7  1  0.38969200  0.89859400  0.24924500  1
  Nb  Nb8  1  0.50890100  0.61030800  0.75075500  1
  Nb  Nb9  1  0.50945300  0.61119300  0.00000000  1
  Nb  Nb10  1  0.50890100  0.61030800  0.24924500  1
  Nb  Nb11  1  0.50755400  0.60895800  0.50000000  1
  Nb  Nb12  1  0.48711300  0.38514700  0.87555500  1
  Nb  Nb13  1  0.48711300  0.38514700  0.12444500  1
  Nb  Nb14  1  0.48552500  0.38427500  0.37504200  1
  Nb  Nb15  1  0.48552500  0.38427500  0.62495800  1
  Nb  Nb16  1  0.61485300  0.10196500  0.12444500  1
  Nb  Nb17  1  0.61485300  0.10196500  0.87555500  1
  Nb  Nb18  1  0.61572500  0.10125000  0.37504200  1
  Nb  Nb19  1  0.61572500  0.10125000  0.62495800  1
  Nb  Nb20  1  0.89803500  0.51288700  0.87555500  1
  Nb  Nb21  1  0.89803500  0.51288700  0.12444500  1
  Nb  Nb22  1  0.89875000  0.51447500  0.37504200  1
  Nb  Nb23  1  0.89875000  0.51447500  0.62495800  1
  Tl  Tl0  1  0.00000000  0.00000000  0.36624400  1
  Tl  Tl1  1  0.00000000  0.00000000  0.63375600  1
  Te  Te0  1  0.06622500  0.73038600  0.75112700  1
  Te  Te1  1  0.06652800  0.72929900  0.00000000  1
  Te  Te2  1  0.06622500  0.73038600  0.24887300  1
  Te  Te3  1  0.06619400  0.73307900  0.50000000  1
  Te  Te4  1  0.33333300  0.66666700  0.87472900  1
  Te  Te5  1  0.33333300  0.66666700  0.12527100  1
  Te  Te6  1  0.33333300  0.66666700  0.37529100  1
  Te  Te7  1  0.33333300  0.66666700  0.62470900  1
  Te  Te8  1  0.26961400  0.33584000  0.75112700  1
  Te  Te9  1  0.27070100  0.33722900  0.00000000  1
  Te  Te10  1  0.26961400  0.33584000  0.24887300  1
  Te  Te11  1  0.26692100  0.33311500  0.50000000  1
  Te  Te12  1  0.66416000  0.93377500  0.75112700  1
  Te  Te13  1  0.66277100  0.93347200  0.00000000  1
  Te  Te14  1  0.66416000  0.93377500  0.24887300  1
  Te  Te15  1  0.66688500  0.93380600  0.50000000  1
  Te  Te16  1  0.34076900  0.06617500  0.87535800  1
  Te  Te17  1  0.34076900  0.06617500  0.12464200  1
  Te  Te18  1  0.34234500  0.06565500  0.37495800  1
  Te  Te19  1  0.34234500  0.06565500  0.62504200  1
  Te  Te20  1  0.72540600  0.65923100  0.12464200  1
  Te  Te21  1  0.72540600  0.65923100  0.87535800  1
  Te  Te22  1  0.72331100  0.65765500  0.37495800  1
  Te  Te23  1  0.72331100  0.65765500  0.62504200  1
  Te  Te24  1  0.66666700  0.33333300  0.74934500  1
  Te  Te25  1  0.66666700  0.33333300  0.00000000  1
  Te  Te26  1  0.66666700  0.33333300  0.50000000  1
  Te  Te27  1  0.66666700  0.33333300  0.25065500  1
  Te  Te28  1  0.93382500  0.27459400  0.87535800  1
  Te  Te29  1  0.93434500  0.27668900  0.37495800  1
  Te  Te30  1  0.93434500  0.27668900  0.62504200  1
  Te  Te31  1  0.93382500  0.27459400  0.12464200  1
loop_
_geom_bond_atom_site_label_1
_geom_bond_atom_site_label_2
_geom_bond_distance
_geom_bond_site_symmetry_2
Nb0 Te0 2.801451 1_555
Nb0 Te30 2.803001 1_455
Nb0 Te28 2.805210 1_455
Nb0 Te4 2.906514 1_555
Nb0 Te7 2.925583 1_555
Nb0 Te8 3.034589 1_555
Nb1 Te1 2.795899 1_555
Nb1 Te31 2.803362 1_455
Nb1 Te28 2.803362 1_454
Nb1 Te5 2.917822 1_555
Nb1 Te4 2.917822 1_554
Nb1 Te9 3.023809 1_555
Nb2 Te2 2.801451 1_555
Nb2 Te29 2.803001 1_455
Nb2 Te31 2.805210 1_455
Nb2 Te5 2.906514 1_555
Nb2 Te6 2.925583 1_555
Nb2 Te10 3.034589 1_555
Nb3 Te29 2.803967 1_455
Nb3 Te30 2.803967 1_455
Nb3 Te3 2.816109 1_555
Nb3 Te7 2.910070 1_555
Nb3 Te6 2.910070 1_555
Nb3 Te11 3.046910 1_555
Nb4 Te12 2.801451 1_555
Nb4 Te19 2.802990 1_565
Nb4 Te16 2.805204 1_565
Nb4 Te4 2.906514 1_555
Nb4 Te7 2.925583 1_555
Nb4 Te0 3.034589 1_555
Nb5 Te13 2.795888 1_555
Nb5 Te17 2.803367 1_565
Nb5 Te16 2.803367 1_564
Nb5 Te5 2.917817 1_555
Nb5 Te4 2.917817 1_554
Nb5 Te1 3.023818 1_555
Nb6 Te18 2.803961 1_565
Nb6 Te19 2.803961 1_565
Nb6 Te15 2.816109 1_555
Nb6 Te7 2.910068 1_555
Nb6 Te6 2.910068 1_555
Nb6 Te3 3.046910 1_555
Nb7 Te14 2.801451 1_555
Nb7 Te18 2.802990 1_565
Nb7 Te17 2.805204 1_565
Nb7 Te5 2.906514 1_555
Nb7 Te6 2.925583 1_555
Nb7 Te2 3.034589 1_555
Nb8 Te8 2.801451 1_555
Nb8 Te23 2.803006 1_555
Nb8 Te21 2.805212 1_555
Nb8 Te4 2.906514 1_555
Nb8 Te7 2.925583 1_555
Nb8 Te12 3.034589 1_555
Nb9 Te9 2.795893 1_555
Nb9 Te21 2.803359 1_554
Nb9 Te20 2.803359 1_555
Nb9 Te5 2.917833 1_555
Nb9 Te4 2.917833 1_554
Nb9 Te13 3.023818 1_555
Nb10 Te10 2.801451 1_555
Nb10 Te22 2.803006 1_555
Nb10 Te20 2.805212 1_555
Nb10 Te5 2.906514 1_555
Nb10 Te6 2.925583 1_555
Nb10 Te14 3.034589 1_555
Nb11 Te22 2.803969 1_555
Nb11 Te23 2.803969 1_555
Nb11 Te11 2.816109 1_555
Nb11 Te7 2.910076 1_555
Nb11 Te6 2.910076 1_555
Nb11 Te15 3.046910 1_555
Nb12 Te21 2.794719 1_555
Nb12 Te9 2.805472 1_556
Nb12 Te8 2.810584 1_555
Nb12 Te25 2.917521 1_556
Nb12 Te24 2.933753 1_555
Nb12 Te16 2.995001 1_555
Nb13 Te20 2.794719 1_555
Nb13 Te9 2.805472 1_555
Nb13 Te10 2.810584 1_555
Nb13 Te25 2.917521 1_555
Nb13 Te27 2.933753 1_555
Nb13 Te17 2.995001 1_555
Nb14 Te22 2.787986 1_555
Nb14 Te10 2.816663 1_555
Nb14 Te11 2.819966 1_555
Nb14 Te27 2.925171 1_555
Nb14 Te26 2.930391 1_555
Nb14 Te18 2.993416 1_555
Nb15 Te23 2.787986 1_555
Nb15 Te8 2.816663 1_555
Nb15 Te11 2.819966 1_555
Nb15 Te24 2.925171 1_555
Nb15 Te26 2.930391 1_555
Nb15 Te19 2.993416 1_555
Nb16 Te17 2.794723 1_555
Nb16 Te13 2.805464 1_545
Nb16 Te14 2.810568 1_545
Nb16 Te25 2.917521 1_555
Nb16 Te27 2.933753 1_555
Nb16 Te31 2.995001 1_555
Nb17 Te16 2.794723 1_555
Nb17 Te13 2.805464 1_546
Nb17 Te12 2.810568 1_545
Nb17 Te25 2.917521 1_556
Nb17 Te24 2.933753 1_555
Nb17 Te28 2.995001 1_555
Nb18 Te18 2.787981 1_555
Nb18 Te14 2.816655 1_545
Nb18 Te15 2.819966 1_545
Nb18 Te27 2.925163 1_555
Nb18 Te26 2.930383 1_555
Nb18 Te29 2.993415 1_555
Nb19 Te19 2.787981 1_555
Nb19 Te12 2.816655 1_545
Nb19 Te15 2.819966 1_545
Nb19 Te24 2.925163 1_555
Nb19 Te26 2.930383 1_555
Nb19 Te30 2.993415 1_555
Nb20 Te28 2.794712 1_555
Nb20 Te1 2.805470 1_656
Nb20 Te0 2.810579 1_655
Nb20 Te25 2.917521 1_556
Nb20 Te24 2.933753 1_555
Nb20 Te21 2.995010 1_555
Nb21 Te31 2.794712 1_555
Nb21 Te1 2.805470 1_655
Nb21 Te2 2.810579 1_655
Nb21 Te25 2.917521 1_555
Nb21 Te27 2.933753 1_555
Nb21 Te20 2.995010 1_555
Nb22 Te29 2.787992 1_555
Nb22 Te2 2.816661 1_655
Nb22 Te3 2.819967 1_655
Nb22 Te27 2.925166 1_555
Nb22 Te26 2.930386 1_555
Nb22 Te22 2.993406 1_555
Nb23 Te30 2.787992 1_555
Nb23 Te0 2.816661 1_655
Nb23 Te3 2.819967 1_655
Nb23 Te24 2.925166 1_555
Nb23 Te26 2.930386 1_555
Nb23 Te23 2.993406 1_555
Te18 Tl0 3.410510 1_555
Te19 Tl1 3.410510 1_555
Te22 Tl0 3.410506 1_665
Te23 Tl1 3.410506 1_665
Te29 Tl0 3.410499 1_655
Te30 Tl1 3.410499 1_655
