# generated using pymatgen
data_BaNiF6
_symmetry_space_group_name_H-M   'P 1'
_cell_length_a   4.82112658
_cell_length_b   4.82112539
_cell_length_c   4.82112602
_cell_angle_alpha   98.69118245
_cell_angle_beta   98.69117451
_cell_angle_gamma   98.69117462
_symmetry_Int_Tables_number   1
_chemical_formula_structural   BaNiF6
_chemical_formula_sum   'Ba1 Ni1 F6'
_cell_volume   107.75113970
_cell_formula_units_Z   1
loop_
 _symmetry_equiv_pos_site_id
 _symmetry_equiv_pos_as_xyz
  1  'x, y, z'
loop_
 _atom_site_type_symbol
 _atom_site_label
 _atom_site_symmetry_multiplicity
 _atom_site_fract_x
 _atom_site_fract_y
 _atom_site_fract_z
 _atom_site_occupancy
  Ba  Ba0  1  0.50000000  0.50000000  0.50000000  1
  Ni  Ni0  1  0.00000000  0.00000000  0.00000000  1
  F  F0  1  0.73484013  0.73484013  0.07365147  1
  F  F1  1  0.73484013  0.07365147  0.73484013  1
  F  F2  1  0.26515987  0.92634853  0.26515987  1
  F  F3  1  0.26515987  0.26515987  0.92634853  1
  F  F4  1  0.92634853  0.26515987  0.26515987  1
  F  F5  1  0.07365147  0.73484013  0.73484013  1
loop_
_geom_bond_atom_site_label_1
_geom_bond_atom_site_label_2
_geom_bond_distance
_geom_bond_site_symmetry_2
Ba0 F2 2.794273 1_555
Ba0 F1 2.794273 1_555
Ba0 F4 2.794273 1_555
Ba0 F5 2.794273 1_555
Ba0 F3 2.794273 1_555
Ba0 F0 2.794273 1_555
Ba0 F1 2.816467 1_565
Ba0 F2 2.816467 1_545
Ba0 F0 2.816467 1_556
Ba0 F3 2.816467 1_554
Ba0 F5 2.816468 1_655
Ba0 F4 2.816468 1_455
F0 Ni0 1.781858 1_665
F1 Ni0 1.781858 1_656
F2 Ni0 1.781858 1_565
F3 Ni0 1.781858 1_556
F4 Ni0 1.781857 1_655
F5 Ni0 1.781857 1_566
