# generated using pymatgen
data_Ba3Li2Mo4P6(ClO14)2
_symmetry_space_group_name_H-M   'P 1'
_cell_length_a   9.33358700
_cell_length_b   15.93138700
_cell_length_c   18.40249900
_cell_angle_alpha   90.00000000
_cell_angle_beta   90.00000000
_cell_angle_gamma   90.00000000
_symmetry_Int_Tables_number   1
_chemical_formula_structural   Ba3Li2Mo4P6(ClO14)2
_chemical_formula_sum   'Ba12 Li8 Mo16 P24 Cl8 O112'
_cell_volume   2736.39614712
_cell_formula_units_Z   4
loop_
 _symmetry_equiv_pos_site_id
 _symmetry_equiv_pos_as_xyz
  1  'x, y, z'
loop_
 _atom_site_type_symbol
 _atom_site_label
 _atom_site_symmetry_multiplicity
 _atom_site_fract_x
 _atom_site_fract_y
 _atom_site_fract_z
 _atom_site_occupancy
  Ba  Ba0  1  0.99254900  0.55250900  0.33201200  1
  Ba  Ba1  1  0.92401900  0.03339500  0.43457200  1
  Ba  Ba2  1  0.57598100  0.96660500  0.93457200  1
  Ba  Ba3  1  0.00745100  0.05250900  0.16798800  1
  Ba  Ba4  1  0.50745100  0.44749100  0.83201200  1
  Ba  Ba5  1  0.42401900  0.46660500  0.56542800  1
  Ba  Ba6  1  0.56030700  0.51019900  0.09226300  1
  Ba  Ba7  1  0.49254900  0.94749100  0.66798800  1
  Ba  Ba8  1  0.43969300  0.01019900  0.40773700  1
  Ba  Ba9  1  0.07598100  0.53339500  0.06542800  1
  Ba  Ba10  1  0.06030700  0.98980100  0.90773700  1
  Ba  Ba11  1  0.93969300  0.48980100  0.59226300  1
  Li  Li0  1  0.35106800  0.94753000  0.21802100  1
  Li  Li1  1  0.85106800  0.55247000  0.78198000  1
  Li  Li2  1  0.14893200  0.05247000  0.71802000  1
  Li  Li3  1  0.57925700  0.08820000  0.13263500  1
  Li  Li4  1  0.64893200  0.44753000  0.28197900  1
  Li  Li5  1  0.42074300  0.58820000  0.36736500  1
  Li  Li6  1  0.07925700  0.41180000  0.86736500  1
  Li  Li7  1  0.92074300  0.91180000  0.63263500  1
  Mo  Mo0  1  0.28456100  0.72036200  0.24869100  1
  Mo  Mo1  1  0.78586500  0.80691500  0.25137400  1
  Mo  Mo2  1  0.21543900  0.27963800  0.74869100  1
  Mo  Mo3  1  0.28298700  0.79479500  0.00122700  1
  Mo  Mo4  1  0.78456100  0.77963800  0.75130900  1
  Mo  Mo5  1  0.71482100  0.29458200  0.99865000  1
  Mo  Mo6  1  0.71701300  0.29479500  0.49877300  1
  Mo  Mo7  1  0.21482100  0.20541800  0.00135000  1
  Mo  Mo8  1  0.21701300  0.20520500  0.50122700  1
  Mo  Mo9  1  0.78298700  0.70520500  0.99877300  1
  Mo  Mo10  1  0.21413500  0.30691500  0.24862600  1
  Mo  Mo11  1  0.71413500  0.19308500  0.75137400  1
  Mo  Mo12  1  0.28517900  0.79458200  0.50135000  1
  Mo  Mo13  1  0.78517900  0.70541800  0.49865000  1
  Mo  Mo14  1  0.71543900  0.22036200  0.25130900  1
  Mo  Mo15  1  0.28586500  0.69308500  0.74862600  1
  P  P0  1  0.18763800  0.99514600  0.55777700  1
  P  P1  1  0.02915200  0.77444500  0.37686300  1
  P  P2  1  0.46160500  0.24638500  0.37459200  1
  P  P3  1  0.68763800  0.50485400  0.44222300  1
  P  P4  1  0.81236200  0.49514600  0.94222300  1
  P  P5  1  0.46425300  0.24116700  0.62553300  1
  P  P6  1  0.46724000  0.27090700  0.12468700  1
  P  P7  1  0.17856300  0.49158000  0.73095300  1
  P  P8  1  0.96425300  0.25883300  0.37446700  1
  P  P9  1  0.32143700  0.50842000  0.23095300  1
  P  P10  1  0.52915200  0.72555500  0.62313700  1
  P  P11  1  0.03839500  0.75361500  0.87459200  1
  P  P12  1  0.67856300  0.00842000  0.26904700  1
  P  P13  1  0.47084800  0.22555500  0.87686300  1
  P  P14  1  0.96724000  0.22909300  0.87531300  1
  P  P15  1  0.03574700  0.75883300  0.12553300  1
  P  P16  1  0.31236200  0.00485400  0.05777700  1
  P  P17  1  0.53276000  0.77090700  0.37531300  1
  P  P18  1  0.03276000  0.72909300  0.62468700  1
  P  P19  1  0.53574700  0.74116700  0.87446700  1
  P  P20  1  0.82143700  0.99158000  0.76904700  1
  P  P21  1  0.97084800  0.27444500  0.12313700  1
  P  P22  1  0.53839500  0.74638500  0.12540800  1
  P  P23  1  0.96160500  0.25361500  0.62540800  1
  Cl  Cl0  1  0.83773200  0.50594900  0.18779800  1
  Cl  Cl1  1  0.16226800  0.00594900  0.31220200  1
  Cl  Cl2  1  0.83604400  0.00392000  0.03550000  1
  Cl  Cl3  1  0.66395600  0.99608000  0.53550000  1
  Cl  Cl4  1  0.33604400  0.49608000  0.96450000  1
  Cl  Cl5  1  0.33773200  0.99405100  0.81220200  1
  Cl  Cl6  1  0.16395600  0.50392000  0.46450000  1
  Cl  Cl7  1  0.66226800  0.49405100  0.68779800  1
  O  O0  1  0.45041600  0.68431100  0.82282200  1
  O  O1  1  0.43901400  0.80104000  0.92014600  1
  O  O2  1  0.30239400  0.69071500  0.47974400  1
  O  O3  1  0.79686800  0.98024900  0.85067700  1
  O  O4  1  0.87468400  0.31687800  0.57768500  1
  O  O5  1  0.94521300  0.70594600  0.41968300  1
  O  O6  1  0.70313200  0.01975100  0.35067700  1
  O  O7  1  0.56619000  0.20840300  0.16641500  1
  O  O8  1  0.44098800  0.83090100  0.42329700  1
  O  O9  1  0.12763200  0.82643800  0.42689200  1
  O  O10  1  0.62468800  0.68263800  0.92327500  1
  O  O11  1  0.25955200  0.68827300  0.00673600  1
  O  O12  1  0.86495700  0.19736300  0.33142600  1
  O  O13  1  0.63981500  0.80352200  0.16834500  1
  O  O14  1  0.47941900  0.49569900  0.24840800  1
  O  O15  1  0.62531600  0.68312200  0.07768500  1
  O  O16  1  0.53134000  0.53337800  0.44227000  1
  O  O17  1  0.21905000  0.43900100  0.26144400  1
  O  O18  1  0.19785200  0.20083100  0.23219100  1
  O  O19  1  0.87531200  0.31736200  0.42327500  1
  O  O20  1  0.05478700  0.20594600  0.08031700  1
  O  O21  1  0.94098800  0.66909900  0.57670300  1
  O  O22  1  0.56098600  0.30104000  0.57985400  1
  O  O23  1  0.29132800  0.92663100  0.52439000  1
  O  O24  1  0.69401100  0.32709300  0.26027400  1
  O  O25  1  0.29886400  0.92920000  0.00145300  1
  O  O26  1  0.44415600  0.80361300  0.07746700  1
  O  O27  1  0.13504300  0.69736300  0.16857400  1
  O  O28  1  0.07231200  0.33569500  0.16251800  1
  O  O29  1  0.12468800  0.81736200  0.07672500  1
  O  O30  1  0.79886400  0.57080000  0.99854700  1
  O  O31  1  0.79132700  0.57336900  0.47561000  1
  O  O32  1  0.69785200  0.29916900  0.76780900  1
  O  O33  1  0.57231200  0.16430500  0.83748200  1
  O  O34  1  0.78095000  0.93900100  0.23855600  1
  O  O35  1  0.86018500  0.19647800  0.66834500  1
  O  O36  1  0.06619000  0.29159700  0.83358500  1
  O  O37  1  0.80598900  0.67290700  0.76027400  1
  O  O38  1  0.88247800  0.17295500  0.82287600  1
  O  O39  1  0.92768800  0.83569500  0.33748200  1
  O  O40  1  0.37531200  0.18263800  0.57672500  1
  O  O41  1  0.43381000  0.70840300  0.33358500  1
  O  O42  1  0.44521300  0.79405400  0.58031700  1
  O  O43  1  0.61784800  0.77895800  0.67800100  1
  O  O44  1  0.12531600  0.81687800  0.92231500  1
  O  O45  1  0.05901200  0.16909900  0.92329700  1
  O  O46  1  0.52058100  0.99569900  0.25159200  1
  O  O47  1  0.05584400  0.19638700  0.57746700  1
  O  O48  1  0.13981500  0.69647800  0.83165500  1
  O  O49  1  0.97941900  0.00430100  0.75159200  1
  O  O50  1  0.24443600  0.01841400  0.63270400  1
  O  O51  1  0.29686800  0.51975100  0.14932300  1
  O  O52  1  0.11752200  0.67295500  0.67712400  1
  O  O53  1  0.93381000  0.79159700  0.66641500  1
  O  O54  1  0.71905000  0.06099900  0.73855600  1
  O  O55  1  0.75556400  0.51841400  0.86729600  1
  O  O56  1  0.42768800  0.66430500  0.66251800  1
  O  O57  1  0.74443600  0.48158600  0.36729600  1
  O  O58  1  0.62763200  0.67356200  0.57310800  1
  O  O59  1  0.94543600  0.80973000  0.82414500  1
  O  O60  1  0.72971200  0.09006600  0.22588900  1
  O  O61  1  0.20113600  0.07080000  0.50145300  1
  O  O62  1  0.20313200  0.48024900  0.64932300  1
  O  O63  1  0.87236800  0.32643800  0.07310800  1
  O  O64  1  0.24044800  0.31172700  0.50673600  1
  O  O65  1  0.70867300  0.42663100  0.97561000  1
  O  O66  1  0.22971200  0.40993400  0.77411100  1
  O  O67  1  0.63504300  0.80263700  0.83142600  1
  O  O68  1  0.03134000  0.96662200  0.55773000  1
  O  O69  1  0.38247800  0.32704500  0.17712400  1
  O  O70  1  0.30214800  0.79916900  0.73219100  1
  O  O71  1  0.36495700  0.30263700  0.66857400  1
  O  O72  1  0.55584400  0.30361300  0.42253300  1
  O  O73  1  0.46866000  0.03337800  0.05773000  1
  O  O74  1  0.80214800  0.70083100  0.26780900  1
  O  O75  1  0.11784800  0.72104200  0.32199900  1
  O  O76  1  0.13158400  0.78544700  0.57904200  1
  O  O77  1  0.27028800  0.59006600  0.27411100  1
  O  O78  1  0.02058100  0.50430100  0.74840800  1
  O  O79  1  0.37468400  0.18312200  0.42231500  1
  O  O80  1  0.94415600  0.69638700  0.92253300  1
  O  O81  1  0.55901200  0.33090100  0.07670300  1
  O  O82  1  0.86841600  0.28544700  0.92095800  1
  O  O83  1  0.05456400  0.30973000  0.67585500  1
  O  O84  1  0.20867200  0.07336900  0.02439000  1
  O  O85  1  0.28095000  0.56099900  0.76144400  1
  O  O86  1  0.80239400  0.80928500  0.52025600  1
  O  O87  1  0.63158400  0.71455300  0.42095800  1
  O  O88  1  0.44543600  0.69027000  0.17585500  1
  O  O89  1  0.36018500  0.30352200  0.33165500  1
  O  O90  1  0.70113600  0.42920000  0.49854700  1
  O  O91  1  0.55456400  0.19027000  0.32414500  1
  O  O92  1  0.19401100  0.17290700  0.73972600  1
  O  O93  1  0.37236800  0.17356200  0.92689200  1
  O  O94  1  0.77028800  0.90993400  0.72588900  1
  O  O95  1  0.69760600  0.19071500  0.02025600  1
  O  O96  1  0.30598900  0.82709300  0.23972600  1
  O  O97  1  0.19760600  0.30928500  0.97974400  1
  O  O98  1  0.88215200  0.22104200  0.17800100  1
  O  O99  1  0.25556400  0.98158600  0.13270400  1
  O  O100  1  0.04958400  0.31568900  0.32282200  1
  O  O101  1  0.36841600  0.21455300  0.07904200  1
  O  O102  1  0.75955200  0.81172700  0.99326400  1
  O  O103  1  0.06098600  0.19896000  0.42014600  1
  O  O104  1  0.96866000  0.46662200  0.94227000  1
  O  O105  1  0.38215200  0.27895800  0.82199900  1
  O  O106  1  0.74044800  0.18827300  0.49326400  1
  O  O107  1  0.54958400  0.18431100  0.67717800  1
  O  O108  1  0.93901400  0.69896000  0.07985400  1
  O  O109  1  0.61752200  0.82704500  0.32287600  1
  O  O110  1  0.55478700  0.29405400  0.91968300  1
  O  O111  1  0.95041600  0.81568900  0.17717800  1
loop_
_geom_bond_atom_site_label_1
_geom_bond_atom_site_label_2
_geom_bond_distance
_geom_bond_site_symmetry_2
Ba0 O57 2.657281 1_555
Ba0 O77 2.865898 1_655
Ba0 O75 2.934398 1_655
Ba0 O5 2.962019 1_555
Ba0 Cl6 3.017133 1_655
Ba0 O17 3.070147 1_655
Ba0 Cl0 3.111496 1_555
Ba0 O74 3.183984 1_555
Ba0 O31 3.258976 1_555
Ba1 O6 2.584818 1_555
Ba1 O68 2.696602 1_645
Ba1 O61 2.925728 1_655
Ba1 O103 2.943148 1_655
Ba1 Cl3 3.113673 1_545
Ba1 O106 3.192240 1_555
Ba1 Cl1 3.194875 1_655
Ba1 O12 3.275763 1_555
Ba2 O3 2.584818 1_555
Ba2 O73 2.696602 1_566
Ba2 O25 2.925728 1_556
Ba2 O1 2.943148 1_555
Ba2 Cl2 3.113673 1_566
Ba2 O102 3.192240 1_555
Ba2 Cl5 3.194875 1_555
Ba2 O67 3.275763 1_555
Ba3 O99 2.657281 1_545
Ba3 O60 2.865898 1_455
Ba3 O98 2.934398 1_455
Ba3 O20 2.962019 1_555
Ba3 Cl2 3.017133 1_455
Ba3 O34 3.070147 1_445
Ba3 Cl1 3.111496 1_555
Ba3 O18 3.183984 1_555
Ba3 O84 3.258970 1_555
Ba4 O55 2.657281 1_555
Ba4 O66 2.865898 1_555
Ba4 O105 2.934398 1_555
Ba4 O110 2.962019 1_555
Ba4 Cl4 3.017133 1_555
Ba4 O85 3.070147 1_555
Ba4 Cl7 3.111496 1_555
Ba4 O32 3.183984 1_555
Ba4 O65 3.258976 1_555
Ba5 O62 2.584818 1_555
Ba5 O16 2.696602 1_555
Ba5 O90 2.925728 1_555
Ba5 O22 2.943148 1_555
Ba5 Cl6 3.113673 1_555
Ba5 O64 3.192240 1_555
Ba5 Cl7 3.194875 1_555
Ba5 O71 3.275763 1_555
Ba6 O51 2.677985 1_555
Ba6 O15 2.833660 1_555
Ba6 O81 2.870807 1_555
Ba6 O65 2.880710 1_554
Ba6 O30 2.977264 1_554
Ba6 O14 2.979952 1_555
Ba6 Cl0 3.130540 1_555
Ba6 Cl4 3.155937 1_554
Ba7 O50 2.657281 1_565
Ba7 O94 2.865898 1_555
Ba7 O43 2.934398 1_555
Ba7 O42 2.962019 1_555
Ba7 Cl3 3.017133 1_555
Ba7 O54 3.070147 1_565
Ba7 Cl5 3.111496 1_555
Ba7 O70 3.183984 1_555
Ba7 O23 3.258970 1_555
Ba8 O6 2.677985 1_555
Ba8 O79 2.833660 1_555
Ba8 O8 2.870807 1_545
Ba8 O23 2.880705 1_545
Ba8 O61 2.977264 1_555
Ba8 O46 2.979952 1_545
Ba8 Cl1 3.130540 1_555
Ba8 Cl3 3.155937 1_545
Ba9 O51 2.584818 1_555
Ba9 O104 2.696602 1_454
Ba9 O30 2.925728 1_454
Ba9 O108 2.943148 1_455
Ba9 Cl4 3.113673 1_554
Ba9 O11 3.192240 1_555
Ba9 Cl0 3.194875 1_455
Ba9 O27 3.275763 1_555
Ba10 O3 2.677985 1_455
Ba10 O44 2.833660 1_555
Ba10 O45 2.870807 1_565
Ba10 O84 2.880705 1_566
Ba10 O25 2.977264 1_556
Ba10 O49 2.979952 1_465
Ba10 Cl5 3.130540 1_555
Ba10 Cl2 3.155937 1_466
Ba11 O62 2.677985 1_655
Ba11 O4 2.833660 1_555
Ba11 O21 2.870807 1_555
Ba11 O31 2.880710 1_555
Ba11 O90 2.977264 1_555
Ba11 O78 2.979952 1_655
Ba11 Cl7 3.130540 1_555
Ba11 Cl6 3.155937 1_655
Li0 O46 1.863816 1_555
Li0 O99 1.885206 1_555
Li0 O96 2.004517 1_555
Li1 O78 1.863822 1_655
Li1 O55 1.885190 1_555
Li1 O37 2.004521 1_555
Li2 O49 1.863822 1_455
Li2 O50 1.885190 1_555
Li2 O92 2.004521 1_555
Li3 O73 1.930927 1_555
Li3 O7 2.017061 1_555
Li3 O60 2.217639 1_555
Li4 O14 1.863816 1_555
Li4 O57 1.885206 1_555
Li4 O24 2.004517 1_555
Li5 O16 1.930927 1_555
Li5 O41 2.017061 1_555
Li5 O77 2.217639 1_555
Li6 O104 1.930927 1_455
Li6 O36 2.017061 1_555
Li6 O66 2.217639 1_555
Li7 O68 1.930927 1_655
Li7 O53 2.017061 1_555
Li7 O94 2.217639 1_555
Mo0 O96 1.720025 1_555
Mo0 O75 2.059438 1_555
Mo0 O27 2.062886 1_555
Mo0 O88 2.069066 1_555
Mo0 O41 2.101782 1_555
Mo0 O77 2.132019 1_555
Mo1 O74 1.723627 1_555
Mo1 O13 2.048355 1_555
Mo1 O111 2.059775 1_555
Mo1 O109 2.074374 1_555
Mo1 O39 2.115046 1_555
Mo1 O34 2.117989 1_555
Mo2 O92 1.720025 1_555
Mo2 O105 2.059438 1_555
Mo2 O71 2.062886 1_555
Mo2 O83 2.069066 1_555
Mo2 O36 2.101782 1_555
Mo2 O66 2.132019 1_555
Mo3 O11 1.714082 1_555
Mo3 O29 2.059746 1_555
Mo3 O26 2.061804 1_555
Mo3 O1 2.087349 1_554
Mo3 O44 2.097214 1_554
Mo3 O25 2.146384 1_555
Mo4 O37 1.720025 1_555
Mo4 O43 2.059438 1_555
Mo4 O67 2.062886 1_555
Mo4 O59 2.069066 1_555
Mo4 O53 2.101782 1_555
Mo4 O94 2.132019 1_555
Mo5 O95 1.709412 1_556
Mo5 O82 2.029898 1_555
Mo5 O63 2.073007 1_556
Mo5 O110 2.083974 1_555
Mo5 O81 2.124339 1_556
Mo5 O65 2.146792 1_555
Mo6 O106 1.714082 1_555
Mo6 O19 2.059746 1_555
Mo6 O72 2.061804 1_555
Mo6 O22 2.087349 1_555
Mo6 O4 2.097214 1_555
Mo6 O90 2.146384 1_555
Mo7 O97 1.709412 1_554
Mo7 O101 2.029898 1_555
Mo7 O93 2.073007 1_554
Mo7 O20 2.083974 1_555
Mo7 O45 2.124339 1_554
Mo7 O84 2.146792 1_555
Mo8 O64 1.714082 1_555
Mo8 O40 2.059746 1_555
Mo8 O47 2.061804 1_555
Mo8 O103 2.087349 1_555
Mo8 O79 2.097214 1_555
Mo8 O61 2.146384 1_555
Mo9 O102 1.714082 1_555
Mo9 O10 2.059746 1_555
Mo9 O80 2.061804 1_555
Mo9 O108 2.087349 1_556
Mo9 O15 2.097214 1_556
Mo9 O30 2.146384 1_555
Mo10 O18 1.723627 1_555
Mo10 O89 2.048355 1_555
Mo10 O100 2.059775 1_555
Mo10 O69 2.074374 1_555
Mo10 O28 2.115046 1_555
Mo10 O17 2.117989 1_555
Mo11 O32 1.723627 1_555
Mo11 O35 2.048355 1_555
Mo11 O107 2.059775 1_555
Mo11 O38 2.074374 1_555
Mo11 O33 2.115046 1_555
Mo11 O54 2.117989 1_555
Mo12 O2 1.709412 1_555
Mo12 O76 2.029898 1_555
Mo12 O9 2.073007 1_555
Mo12 O42 2.083974 1_555
Mo12 O8 2.124339 1_555
Mo12 O23 2.146792 1_555
Mo13 O86 1.709412 1_555
Mo13 O87 2.029898 1_555
Mo13 O58 2.073007 1_555
Mo13 O5 2.083974 1_555
Mo13 O21 2.124339 1_555
Mo13 O31 2.146792 1_555
Mo14 O24 1.720025 1_555
Mo14 O98 2.059438 1_555
Mo14 O12 2.062886 1_555
Mo14 O91 2.069066 1_555
Mo14 O7 2.101782 1_555
Mo14 O60 2.132019 1_555
Mo15 O70 1.723627 1_555
Mo15 O48 2.048355 1_555
Mo15 O0 2.059775 1_555
Mo15 O52 2.074374 1_555
Mo15 O56 2.115046 1_555
Mo15 O85 2.117989 1_555
Cl0 Li4 2.641087 1_555
Cl1 Li0 2.641087 1_545
Cl5 Li2 2.641099 1_565
Cl7 Li1 2.641099 1_555
O0 P19 1.535592 1_555
O1 P19 1.559371 1_555
O3 P20 1.530283 1_555
O4 P23 1.563731 1_555
O5 P1 1.557445 1_655
O6 P12 1.530283 1_555
O7 P6 1.560192 1_555
O8 P17 1.557871 1_555
O9 P1 1.542272 1_555
O10 P19 1.537964 1_555
O12 P8 1.563755 1_555
O13 P22 1.532646 1_555
O14 P9 1.522668 1_555
O15 P22 1.563731 1_555
O16 P3 1.527960 1_555
O17 P9 1.565629 1_555
O19 P8 1.537964 1_555
O20 P21 1.557445 1_455
O21 P18 1.557871 1_655
O22 P5 1.559371 1_555
O23 P0 1.582904 1_555
O25 P16 1.594645 1_565
O26 P22 1.543777 1_555
O27 P15 1.563755 1_555
O28 P21 1.540856 1_455
O29 P15 1.537964 1_555
O30 P4 1.594645 1_555
O31 P3 1.582899 1_555
O33 P13 1.540856 1_555
O34 P12 1.565629 1_565
O35 P23 1.532646 1_555
O36 P14 1.560192 1_455
O38 P14 1.535232 1_555
O39 P1 1.540856 1_655
O40 P5 1.537964 1_555
O41 P17 1.560192 1_555
O42 P10 1.557445 1_555
O43 P10 1.558375 1_555
O44 P11 1.563731 1_555
O45 P14 1.557871 1_455
O46 P12 1.522668 1_565
O47 P23 1.543777 1_455
O48 P11 1.532646 1_555
O49 P20 1.522668 1_545
O50 P0 1.523043 1_545
O51 P9 1.530283 1_555
O52 P18 1.535232 1_555
O53 P18 1.560192 1_655
O54 P20 1.565629 1_545
O55 P4 1.523043 1_555
O56 P10 1.540856 1_555
O57 P3 1.523043 1_555
O58 P10 1.542272 1_555
O59 P11 1.553658 1_655
O60 P12 1.597060 1_555
O61 P0 1.594645 1_545
O62 P7 1.530283 1_555
O63 P21 1.542272 1_555
O65 P4 1.582899 1_555
O66 P7 1.597060 1_555
O67 P19 1.563755 1_555
O68 P0 1.527960 1_555
O69 P6 1.535232 1_555
O71 P5 1.563755 1_555
O72 P2 1.543777 1_555
O73 P16 1.527960 1_555
O75 P1 1.558375 1_555
O76 P18 1.537010 1_555
O77 P9 1.597060 1_555
O78 P7 1.522668 1_555
O79 P2 1.563731 1_555
O80 P11 1.543777 1_655
O81 P6 1.557871 1_555
O82 P14 1.537010 1_555
O83 P23 1.553658 1_455
O84 P16 1.582904 1_555
O85 P7 1.565629 1_555
O87 P17 1.537010 1_555
O88 P22 1.553658 1_555
O89 P2 1.532646 1_555
O90 P3 1.594645 1_555
O91 P2 1.553658 1_555
O93 P13 1.542272 1_555
O94 P20 1.597060 1_555
O98 P21 1.558375 1_555
O99 P16 1.523043 1_565
O100 P8 1.535592 1_455
O101 P6 1.537010 1_555
O103 P8 1.559371 1_455
O104 P4 1.527960 1_555
O105 P13 1.558375 1_555
O107 P5 1.535592 1_555
O108 P15 1.559371 1_655
O109 P17 1.535232 1_555
O110 P13 1.557445 1_555
O111 P15 1.535592 1_655
