# generated using pymatgen
data_Cs3Bi7Se12
_symmetry_space_group_name_H-M   'P 1'
_cell_length_a   14.05661373
_cell_length_b   14.05661373
_cell_length_c   13.41749668
_cell_angle_alpha   73.09391130
_cell_angle_beta   73.09391130
_cell_angle_gamma   17.53099980
_symmetry_Int_Tables_number   1
_chemical_formula_structural   Cs3Bi7Se12
_chemical_formula_sum   'Cs3 Bi7 Se12'
_cell_volume   763.22945483
_cell_formula_units_Z   1
loop_
 _symmetry_equiv_pos_site_id
 _symmetry_equiv_pos_as_xyz
  1  'x, y, z'
loop_
 _atom_site_type_symbol
 _atom_site_label
 _atom_site_symmetry_multiplicity
 _atom_site_fract_x
 _atom_site_fract_y
 _atom_site_fract_z
 _atom_site_occupancy
  Cs  Cs0  1  0.63786000  0.63786000  0.12063000  1
  Cs  Cs1  1  0.36545400  0.36545400  0.86782800  1
  Cs  Cs2  1  0.02687900  0.02687900  0.42710100  1
  Bi  Bi0  1  0.31918500  0.31918500  0.52089500  1
  Bi  Bi1  1  0.72278700  0.72278700  0.78487800  1
  Bi  Bi2  1  0.08643200  0.08643200  0.74106100  1
  Bi  Bi3  1  0.27820900  0.27820900  0.21333200  1
  Bi  Bi4  1  0.91192700  0.91192700  0.25815100  1
  Bi  Bi5  1  0.68068600  0.68068600  0.47904800  1
  Bi  Bi6  1  0.50025300  0.50025300  0.99863000  1
  Se  Se0  1  0.57658600  0.57658600  0.59133400  1
  Se  Se1  1  0.79860700  0.79860700  0.37901000  1
  Se  Se2  1  0.22998200  0.22998200  0.91682700  1
  Se  Se3  1  0.77031600  0.77031600  0.08268000  1
  Se  Se4  1  0.82778200  0.82778200  0.66691500  1
  Se  Se5  1  0.17004400  0.17004400  0.33347600  1
  Se  Se6  1  0.60609100  0.60609100  0.87555600  1
  Se  Se7  1  0.98244900  0.98244900  0.85798200  1
  Se  Se8  1  0.39205300  0.39205300  0.12390900  1
  Se  Se9  1  0.01809100  0.01809100  0.14210500  1
  Se  Se10  1  0.42357700  0.42357700  0.40718100  1
  Se  Se11  1  0.20140200  0.20140200  0.62046900  1
loop_
_geom_bond_atom_site_label_1
_geom_bond_atom_site_label_2
_geom_bond_distance
_geom_bond_site_symmetry_2
Cs0 Se3 3.563831 1_555
Cs0 Se6 3.646922 1_554
Cs0 Se2 3.807730 1_654
Cs0 Se2 3.807730 1_564
Cs0 Se5 3.879050 1_565
Cs0 Se5 3.879050 1_655
Cs0 Se9 3.896327 1_565
Cs0 Se9 3.896327 1_655
Cs1 Se2 3.625490 1_555
Cs1 Se8 3.721077 1_556
Cs1 Se4 3.822533 1_545
Cs1 Se4 3.822533 1_455
Cs1 Se7 3.862682 1_455
Cs1 Se7 3.862682 1_545
Cs1 Se3 3.924553 1_546
Cs1 Se3 3.924553 1_456
Cs2 Se0 3.625306 1_545
Cs2 Se0 3.625306 1_455
Cs2 Se10 3.653725 1_455
Cs2 Se10 3.653725 1_545
Cs2 Se5 3.802696 1_555
Cs2 Se9 3.902762 1_555
Bi0 Se10 2.852478 1_555
Bi0 Se4 2.959662 1_455
Bi0 Se4 2.959662 1_545
Bi0 Se1 3.029896 1_545
Bi0 Se1 3.029896 1_455
Bi0 Se11 3.149888 1_555
Bi1 Se2 2.823338 1_655
Bi1 Se2 2.823338 1_565
Bi1 Se4 2.880695 1_555
Bi1 Se6 3.109957 1_555
Bi1 Se11 3.252572 1_565
Bi1 Se11 3.252572 1_655
Bi2 Se7 2.853250 1_445
Bi2 Se6 2.953565 1_545
Bi2 Se6 2.953565 1_455
Bi2 Se0 3.003793 1_545
Bi2 Se0 3.003793 1_455
Bi2 Se11 3.127416 1_555
Bi3 Se3 2.817092 1_545
Bi3 Se3 2.817092 1_455
Bi3 Se5 2.963065 1_555
Bi3 Se8 3.035067 1_555
Bi3 Se1 3.254670 1_545
Bi3 Se1 3.254670 1_455
Bi4 Se9 2.902172 1_665
Bi4 Se8 2.953491 1_655
Bi4 Se8 2.953491 1_565
Bi4 Se10 3.012092 1_655
Bi4 Se10 3.012092 1_565
Bi4 Se1 3.088456 1_555
Bi5 Se0 2.841026 1_555
Bi5 Se5 2.971687 1_655
Bi5 Se5 2.971687 1_565
Bi5 Se11 3.027076 1_655
Bi5 Se11 3.027076 1_565
Bi5 Se1 3.154134 1_555
Bi6 Se6 2.918374 1_555
Bi6 Se8 2.981554 1_556
Bi6 Se7 2.990648 1_455
Bi6 Se7 2.990648 1_545
Bi6 Se9 3.016890 1_656
Bi6 Se9 3.016890 1_566
