# generated using pymatgen
data_FeNiMo
_symmetry_space_group_name_H-M   'P 1'
_cell_length_a   3.94480873
_cell_length_b   3.94480873
_cell_length_c   3.94480873
_cell_angle_alpha   60.00000000
_cell_angle_beta   60.00000000
_cell_angle_gamma   60.00000000
_symmetry_Int_Tables_number   1
_chemical_formula_structural   FeNiMo
_chemical_formula_sum   'Fe1 Ni1 Mo1'
_cell_volume   43.40730795
_cell_formula_units_Z   1
loop_
 _symmetry_equiv_pos_site_id
 _symmetry_equiv_pos_as_xyz
  1  'x, y, z'
loop_
 _atom_site_type_symbol
 _atom_site_label
 _atom_site_symmetry_multiplicity
 _atom_site_fract_x
 _atom_site_fract_y
 _atom_site_fract_z
 _atom_site_occupancy
  Fe  Fe0  1  0.75000000  0.75000000  0.75000000  1
  Ni  Ni0  1  0.50000000  0.50000000  0.50000000  1
  Mo  Mo0  1  0.00000000  0.00000000  0.00000000  1
loop_
_geom_bond_atom_site_label_1
_geom_bond_atom_site_label_2
_geom_bond_distance
_geom_bond_site_symmetry_2
Fe0 Mo0 2.415692 1_656
Fe0 Ni0 2.415692 1_655
Fe0 Ni0 2.415692 1_565
Fe0 Ni0 2.415692 1_556
Fe0 Mo0 2.415692 1_665
Fe0 Mo0 2.415692 1_566
Fe0 Mo0 2.415692 1_666
Fe0 Ni0 2.415692 1_555
Mo0 Ni0 2.789401 1_554
Mo0 Ni0 2.789401 1_445
Mo0 Ni0 2.789401 1_454
Mo0 Ni0 2.789401 1_544
Mo0 Ni0 2.789401 1_455
Mo0 Ni0 2.789401 1_545
