# generated using pymatgen
data_KFeCo3(PO4)3
_symmetry_space_group_name_H-M   'P 1'
_cell_length_a   6.22966900
_cell_length_b   9.79101600
_cell_length_c   16.82079500
_cell_angle_alpha   90.00000000
_cell_angle_beta   90.00000000
_cell_angle_gamma   90.00000000
_symmetry_Int_Tables_number   1
_chemical_formula_structural   KFeCo3(PO4)3
_chemical_formula_sum   'K4 Fe4 Co12 P12 O48'
_cell_volume   1025.98083938
_cell_formula_units_Z   4
loop_
 _symmetry_equiv_pos_site_id
 _symmetry_equiv_pos_as_xyz
  1  'x, y, z'
loop_
 _atom_site_type_symbol
 _atom_site_label
 _atom_site_symmetry_multiplicity
 _atom_site_fract_x
 _atom_site_fract_y
 _atom_site_fract_z
 _atom_site_occupancy
  K  K0  1  0.50000000  0.20475500  0.53501300  1
  K  K1  1  0.00000000  0.29524500  0.03501300  1
  K  K2  1  0.50000000  0.79524500  0.46498700  1
  K  K3  1  0.00000000  0.70475500  0.96498700  1
  Fe  Fe0  1  0.00000000  0.01234300  0.63922000  1
  Fe  Fe1  1  0.00000000  0.98765700  0.36078000  1
  Fe  Fe2  1  0.50000000  0.48765700  0.13922000  1
  Fe  Fe3  1  0.50000000  0.51234300  0.86078000  1
  Co  Co0  1  0.50000000  0.03428400  0.09079500  1
  Co  Co1  1  0.25096100  0.74893500  0.70212200  1
  Co  Co2  1  0.25096100  0.25106500  0.29787800  1
  Co  Co3  1  0.75096100  0.24893500  0.79787800  1
  Co  Co4  1  0.24903900  0.75106500  0.20212200  1
  Co  Co5  1  0.50000000  0.96571600  0.90920500  1
  Co  Co6  1  0.00000000  0.53428400  0.40920500  1
  Co  Co7  1  0.74903900  0.25106500  0.29787800  1
  Co  Co8  1  0.00000000  0.46571600  0.59079500  1
  Co  Co9  1  0.75096100  0.75106500  0.20212200  1
  Co  Co10  1  0.24903900  0.24893500  0.79787800  1
  Co  Co11  1  0.74903900  0.74893500  0.70212200  1
  P  P0  1  0.00000000  0.21078300  0.46323300  1
  P  P1  1  0.00000000  0.45674900  0.21746100  1
  P  P2  1  0.00000000  0.95760100  0.83454800  1
  P  P3  1  0.50000000  0.54239900  0.33454800  1
  P  P4  1  0.00000000  0.54325100  0.78253900  1
  P  P5  1  0.50000000  0.45760100  0.66545200  1
  P  P6  1  0.50000000  0.71078300  0.03676700  1
  P  P7  1  0.50000000  0.04325100  0.71746100  1
  P  P8  1  0.00000000  0.04239900  0.16545200  1
  P  P9  1  0.50000000  0.28921700  0.96323300  1
  P  P10  1  0.00000000  0.78921700  0.53676700  1
  P  P11  1  0.50000000  0.95674900  0.28253900  1
  O  O0  1  0.69789700  0.33376400  0.91148900  1
  O  O1  1  0.20195600  0.08707100  0.12068300  1
  O  O2  1  0.79481700  0.40139400  0.17820500  1
  O  O3  1  0.80210300  0.16623600  0.41148900  1
  O  O4  1  0.50000000  0.35900600  0.04371700  1
  O  O5  1  0.50000000  0.61676000  0.67732800  1
  O  O6  1  0.50000000  0.89176800  0.19573500  1
  O  O7  1  0.00000000  0.85900600  0.45628300  1
  O  O8  1  0.69789700  0.66623600  0.08851100  1
  O  O9  1  0.30210300  0.33376400  0.91148900  1
  O  O10  1  0.00000000  0.38405500  0.77571300  1
  O  O11  1  0.29481700  0.90139400  0.32179500  1
  O  O12  1  0.00000000  0.61594500  0.22428700  1
  O  O13  1  0.29804400  0.58707100  0.37931700  1
  O  O14  1  0.30210300  0.66623600  0.08851100  1
  O  O15  1  0.50000000  0.11594500  0.27571300  1
  O  O16  1  0.00000000  0.36811600  0.47855800  1
  O  O17  1  0.50000000  0.38541600  0.75122400  1
  O  O18  1  0.50000000  0.86811600  0.02144200  1
  O  O19  1  0.70518300  0.90139400  0.32179500  1
  O  O20  1  0.29481700  0.09860600  0.67820500  1
  O  O21  1  0.50000000  0.64099400  0.95628300  1
  O  O22  1  0.19789700  0.83376400  0.58851100  1
  O  O23  1  0.70195600  0.58707100  0.37931700  1
  O  O24  1  0.80210300  0.83376400  0.58851100  1
  O  O25  1  0.00000000  0.88324000  0.17732800  1
  O  O26  1  0.00000000  0.88541600  0.74877600  1
  O  O27  1  0.50000000  0.88405500  0.72428700  1
  O  O28  1  0.20518300  0.59860600  0.82179500  1
  O  O29  1  0.79481700  0.59860600  0.82179500  1
  O  O30  1  0.00000000  0.11676000  0.82267200  1
  O  O31  1  0.70195600  0.41292900  0.62068300  1
  O  O32  1  0.50000000  0.38324000  0.32267200  1
  O  O33  1  0.20195600  0.91292900  0.87931700  1
  O  O34  1  0.29804400  0.41292900  0.62068300  1
  O  O35  1  0.79804400  0.08707100  0.12068300  1
  O  O36  1  0.50000000  0.61458400  0.24877600  1
  O  O37  1  0.00000000  0.11458400  0.25122400  1
  O  O38  1  0.00000000  0.14099400  0.54371700  1
  O  O39  1  0.00000000  0.39176800  0.30426500  1
  O  O40  1  0.00000000  0.63188400  0.52144200  1
  O  O41  1  0.19789700  0.16623600  0.41148900  1
  O  O42  1  0.20518300  0.40139400  0.17820500  1
  O  O43  1  0.50000000  0.13188400  0.97855800  1
  O  O44  1  0.50000000  0.10823200  0.80426500  1
  O  O45  1  0.00000000  0.60823200  0.69573500  1
  O  O46  1  0.79804400  0.91292900  0.87931700  1
  O  O47  1  0.70518300  0.09860600  0.67820500  1
loop_
_geom_bond_atom_site_label_1
_geom_bond_atom_site_label_2
_geom_bond_distance
_geom_bond_site_symmetry_2
K0 O34 2.795327 1_555
K0 O31 2.795327 1_555
K0 O3 2.828657 1_555
K0 O41 2.828657 1_555
K0 O20 2.918112 1_555
K0 O47 2.918112 1_555
K0 O38 3.180151 1_555
K0 O38 3.180151 1_655
K1 O35 2.795327 1_455
K1 O1 2.795327 1_555
K1 O9 2.828657 1_554
K1 O0 2.828657 1_454
K1 O42 2.918112 1_555
K1 O2 2.918112 1_455
K1 O4 3.180151 1_555
K1 O4 3.180151 1_455
K2 O23 2.795327 1_555
K2 O13 2.795327 1_555
K2 O24 2.828657 1_555
K2 O22 2.828657 1_555
K2 O19 2.918112 1_555
K2 O11 2.918112 1_555
K2 O7 3.180151 1_655
K2 O7 3.180151 1_555
K3 O46 2.795327 1_455
K3 O33 2.795327 1_555
K3 O8 2.828657 1_456
K3 O14 2.828657 1_556
K3 O28 2.918112 1_555
K3 O29 2.918112 1_455
K3 O21 3.180151 1_555
K3 O21 3.180151 1_455
Fe0 O38 2.041394 1_555
Fe0 O20 2.125210 1_555
Fe0 O47 2.125210 1_455
Fe0 O26 2.222700 1_545
Fe0 O24 2.303166 1_445
Fe0 O22 2.303166 1_545
Fe1 O7 2.041394 1_555
Fe1 O11 2.125210 1_555
Fe1 O19 2.125210 1_455
Fe1 O37 2.222700 1_565
Fe1 O3 2.303166 1_465
Fe1 O41 2.303166 1_565
Fe2 O4 2.041394 1_555
Fe2 O42 2.125210 1_555
Fe2 O2 2.125210 1_555
Fe2 O36 2.222700 1_555
Fe2 O14 2.303166 1_555
Fe2 O8 2.303166 1_555
Fe3 O21 2.041394 1_555
Fe3 O28 2.125210 1_555
Fe3 O29 2.125210 1_555
Fe3 O17 2.222700 1_555
Fe3 O0 2.303166 1_555
Fe3 O9 2.303166 1_555
Co0 O35 1.991799 1_555
Co0 O1 1.991799 1_555
Co0 O18 2.001966 1_545
Co0 O43 2.115987 1_554
Co0 O6 2.250092 1_545
Co1 O5 2.062920 1_555
Co1 O27 2.072720 1_555
Co1 O45 2.086534 1_555
Co1 O22 2.109772 1_555
Co1 O26 2.201304 1_555
Co1 O28 2.509958 1_555
Co2 O32 2.062920 1_555
Co2 O15 2.072720 1_555
Co2 O39 2.086534 1_555
Co2 O41 2.109772 1_555
Co2 O37 2.201304 1_555
Co2 O42 2.509958 1_555
Co3 O30 2.062920 1_655
Co3 O10 2.072720 1_655
Co3 O44 2.086534 1_555
Co3 O0 2.109772 1_555
Co3 O17 2.201304 1_555
Co3 O47 2.509958 1_555
Co4 O25 2.062920 1_555
Co4 O12 2.072720 1_555
Co4 O6 2.086534 1_555
Co4 O14 2.109772 1_555
Co4 O36 2.201304 1_555
Co4 O11 2.509958 1_555
Co5 O33 1.991799 1_555
Co5 O46 1.991799 1_555
Co5 O43 2.001966 1_565
Co5 O18 2.115987 1_556
Co5 O44 2.250092 1_565
Co6 O23 1.991799 1_455
Co6 O13 1.991799 1_555
Co6 O16 2.001966 1_555
Co6 O40 2.115987 1_555
Co6 O39 2.250092 1_555
Co7 O32 2.062920 1_555
Co7 O15 2.072720 1_555
Co7 O39 2.086534 1_655
Co7 O3 2.109772 1_555
Co7 O37 2.201304 1_655
Co7 O2 2.509958 1_555
Co8 O34 1.991799 1_555
Co8 O31 1.991799 1_455
Co8 O40 2.001966 1_555
Co8 O16 2.115987 1_555
Co8 O45 2.250092 1_555
Co9 O25 2.062920 1_655
Co9 O12 2.072720 1_655
Co9 O6 2.086534 1_555
Co9 O8 2.109772 1_555
Co9 O36 2.201304 1_555
Co9 O19 2.509958 1_555
Co10 O30 2.062920 1_555
Co10 O10 2.072720 1_555
Co10 O44 2.086534 1_555
Co10 O9 2.109772 1_555
Co10 O17 2.201304 1_555
Co10 O20 2.509958 1_555
Co11 O5 2.062920 1_555
Co11 O27 2.072720 1_555
Co11 O45 2.086534 1_655
Co11 O24 2.109772 1_555
Co11 O26 2.201304 1_655
Co11 O29 2.509958 1_555
O0 P9 1.570881 1_555
O1 P8 1.530115 1_555
O2 P1 1.537405 1_655
O3 P0 1.570881 1_655
O4 P9 1.516474 1_554
O5 P5 1.571080 1_555
O6 P11 1.592707 1_555
O7 P10 1.516474 1_555
O8 P6 1.570881 1_555
O9 P9 1.570881 1_555
O10 P4 1.562914 1_555
O11 P11 1.537405 1_555
O12 P1 1.562914 1_555
O13 P3 1.530115 1_555
O14 P6 1.570881 1_555
O15 P11 1.562914 1_545
O16 P0 1.561869 1_555
O17 P5 1.606566 1_555
O18 P6 1.561869 1_555
O19 P11 1.537405 1_555
O20 P7 1.537405 1_555
O21 P6 1.516474 1_556
O22 P10 1.570881 1_555
O23 P3 1.530115 1_555
O24 P10 1.570881 1_655
O25 P8 1.571080 1_565
O26 P2 1.606566 1_555
O27 P7 1.562914 1_565
O28 P4 1.537405 1_555
O29 P4 1.537405 1_655
O30 P2 1.571080 1_545
O31 P5 1.530115 1_555
O32 P3 1.571080 1_555
O33 P2 1.530115 1_555
O34 P5 1.530115 1_555
O35 P8 1.530115 1_655
O36 P3 1.606566 1_555
O37 P8 1.606566 1_555
O38 P0 1.516474 1_555
O39 P1 1.592707 1_555
O40 P10 1.561869 1_555
O41 P0 1.570881 1_555
O42 P1 1.537405 1_555
O43 P9 1.561869 1_555
O44 P7 1.592707 1_555
O45 P4 1.592707 1_555
O46 P2 1.530115 1_655
O47 P7 1.537405 1_555
