# generated using pymatgen
data_Cu6PbO8
_symmetry_space_group_name_H-M   'P 1'
_cell_length_a   6.18951351
_cell_length_b   6.18951351
_cell_length_c   6.18951351
_cell_angle_alpha   122.57888836
_cell_angle_beta   120.00281662
_cell_angle_gamma   87.79340063
_symmetry_Int_Tables_number   1
_chemical_formula_structural   Cu6PbO8
_chemical_formula_sum   'Cu6 Pb1 O8'
_cell_volume   164.15700887
_cell_formula_units_Z   1
loop_
 _symmetry_equiv_pos_site_id
 _symmetry_equiv_pos_as_xyz
  1  'x, y, z'
loop_
 _atom_site_type_symbol
 _atom_site_label
 _atom_site_symmetry_multiplicity
 _atom_site_fract_x
 _atom_site_fract_y
 _atom_site_fract_z
 _atom_site_occupancy
  Cu  Cu0  1  0.50000000  0.50000000  0.50000000  1
  Cu  Cu1  1  0.00000000  0.50000000  0.00000000  1
  Cu  Cu2  1  0.50000000  0.00000000  0.00000000  1
  Cu  Cu3  1  0.50000000  0.00000000  0.50000000  1
  Cu  Cu4  1  0.50000000  0.50000000  0.00000000  1
  Cu  Cu5  1  0.00000000  0.00000000  0.50000000  1
  Pb  Pb0  1  0.00000000  0.00000000  0.00000000  1
  O  O0  1  0.73124500  0.23124500  0.50000000  1
  O  O1  1  0.74024400  0.74024400  0.00000000  1
  O  O2  1  0.27952400  0.75280700  0.03233200  1
  O  O3  1  0.72047600  0.75280700  0.47328300  1
  O  O4  1  0.27952400  0.24719300  0.52671700  1
  O  O5  1  0.72047600  0.24719300  0.96766800  1
  O  O6  1  0.25975600  0.25975600  0.00000000  1
  O  O7  1  0.26875500  0.76875500  0.50000000  1
loop_
_geom_bond_atom_site_label_1
_geom_bond_atom_site_label_2
_geom_bond_distance
_geom_bond_site_symmetry_2
Cu0 O6 2.147546 1_555
Cu0 O1 2.147546 1_556
Cu0 O0 2.152294 1_555
Cu0 O7 2.152294 1_555
Cu0 O4 2.237590 1_555
Cu0 O3 2.237590 1_555
Cu1 O6 2.147546 1_555
Cu1 O1 2.147546 1_455
Cu1 O7 2.152294 1_555
Cu1 O0 2.152294 1_454
Cu1 O5 2.237586 1_454
Cu1 O2 2.237586 1_555
Cu2 O6 2.147546 1_555
Cu2 O1 2.147546 1_545
Cu2 O7 2.152294 1_544
Cu2 O0 2.152294 1_555
Cu2 O5 2.237595 1_554
Cu2 O2 2.237595 1_545
Cu3 O5 2.005720 1_555
Cu3 O2 2.005720 1_545
Cu3 O3 2.005724 1_545
Cu3 O4 2.005724 1_555
Cu3 O0 2.062755 1_555
Cu3 O7 2.062755 1_545
Cu4 O3 2.030319 1_555
Cu4 O4 2.030319 1_554
Cu4 O5 2.030319 1_554
Cu4 O2 2.030319 1_555
Cu4 O6 2.143028 1_555
Cu4 O1 2.143028 1_555
Cu5 O1 2.147546 1_445
Cu5 O6 2.147546 1_556
Cu5 O7 2.152294 1_545
Cu5 O0 2.152294 1_455
Cu5 O3 2.237590 1_445
Cu5 O4 2.237590 1_555
O1 Pb0 2.317080 1_665
O2 Pb0 2.270221 1_565
O3 Pb0 2.270220 1_666
O4 Pb0 2.270220 1_555
O5 Pb0 2.270221 1_656
O6 Pb0 2.317080 1_555
