# generated using pymatgen
data_KH2I3O
_symmetry_space_group_name_H-M   'P 1'
_cell_length_a   10.17997700
_cell_length_b   4.69073900
_cell_length_c   9.77311943
_cell_angle_alpha   63.68517177
_cell_angle_beta   90.00000000
_cell_angle_gamma   90.00000000
_symmetry_Int_Tables_number   1
_chemical_formula_structural   KH2I3O
_chemical_formula_sum   'K2 H4 I6 O2'
_cell_volume   418.32076613
_cell_formula_units_Z   2
loop_
 _symmetry_equiv_pos_site_id
 _symmetry_equiv_pos_as_xyz
  1  'x, y, z'
loop_
 _atom_site_type_symbol
 _atom_site_label
 _atom_site_symmetry_multiplicity
 _atom_site_fract_x
 _atom_site_fract_y
 _atom_site_fract_z
 _atom_site_occupancy
  K  K0  1  0.76360700  0.97356200  0.62110300  1
  K  K1  1  0.23639300  0.97356200  0.12110300  1
  H  H0  1  0.79627400  0.24213700  0.87393500  1
  H  H1  1  0.20372600  0.24213700  0.37393500  1
  H  H2  1  0.64649900  0.28595600  0.83761500  1
  H  H3  1  0.35350100  0.28595600  0.33761500  1
  I  I0  1  0.45466600  0.66617600  0.90540100  1
  I  I1  1  0.54533400  0.66617600  0.40540100  1
  I  I2  1  0.24348300  0.63399800  0.70239600  1
  I  I3  1  0.75651700  0.63399800  0.20239600  1
  I  I4  1  0.03170400  0.61152300  0.49915600  1
  I  I5  1  0.96829600  0.61152300  0.99915600  1
  O  O0  1  0.73291900  0.31344900  0.78959400  1
  O  O1  1  0.26708100  0.31344900  0.28959400  1
loop_
_geom_bond_atom_site_label_1
_geom_bond_atom_site_label_2
_geom_bond_distance
_geom_bond_site_symmetry_2
K0 O0 2.771040 1_565
K0 O0 2.806478 1_555
K1 O1 2.771040 1_565
K1 O1 2.806478 1_555
H0 O0 0.981238 1_555
H1 O1 0.981238 1_555
H2 O0 0.978363 1_555
H3 O1 0.978363 1_555
I0 I2 2.974276 1_555
I0 K1 3.723473 1_546
I0 K1 3.762345 1_556
I0 K0 4.017226 1_555
I1 I3 2.974276 1_555
I1 K0 3.723473 1_545
I1 K0 3.762345 1_555
I1 K1 4.017226 1_555
I2 I4 2.964801 1_555
I2 K1 3.886899 1_546
I3 I5 2.964801 1_554
I3 K0 3.886899 1_545
I4 K0 3.680690 1_455
I4 K0 3.829110 1_445
I4 K1 3.913322 1_555
I5 K1 3.680690 1_656
I5 K1 3.829110 1_646
I5 K0 3.913322 1_555
