# generated using pymatgen
data_Sr3ZnIrO6
_symmetry_space_group_name_H-M   'P 1'
_cell_length_a   6.76481868
_cell_length_b   6.76481868
_cell_length_c   6.76481905
_cell_angle_alpha   91.43518730
_cell_angle_beta   91.43518730
_cell_angle_gamma   91.43518419
_symmetry_Int_Tables_number   1
_chemical_formula_structural   Sr3ZnIrO6
_chemical_formula_sum   'Sr6 Zn2 Ir2 O12'
_cell_volume   309.28056411
_cell_formula_units_Z   2
loop_
 _symmetry_equiv_pos_site_id
 _symmetry_equiv_pos_as_xyz
  1  'x, y, z'
loop_
 _atom_site_type_symbol
 _atom_site_label
 _atom_site_symmetry_multiplicity
 _atom_site_fract_x
 _atom_site_fract_y
 _atom_site_fract_z
 _atom_site_occupancy
  Sr  Sr0  1  0.25000000  0.61229500  0.88770500  1
  Sr  Sr1  1  0.88770500  0.25000000  0.61229500  1
  Sr  Sr2  1  0.61229500  0.88770500  0.25000000  1
  Sr  Sr3  1  0.75000000  0.38770500  0.11229500  1
  Sr  Sr4  1  0.11229500  0.75000000  0.38770500  1
  Sr  Sr5  1  0.38770500  0.11229500  0.75000000  1
  Zn  Zn0  1  0.75000000  0.75000000  0.75000000  1
  Zn  Zn1  1  0.25000000  0.25000000  0.25000000  1
  Ir  Ir0  1  0.50000000  0.50000000  0.50000000  1
  Ir  Ir1  1  0.00000000  0.00000000  0.00000000  1
  O  O0  1  0.09415500  0.28467700  0.95957300  1
  O  O1  1  0.95957300  0.09415500  0.28467700  1
  O  O2  1  0.28467700  0.95957300  0.09415500  1
  O  O3  1  0.40584500  0.54042700  0.21532300  1
  O  O4  1  0.21532300  0.40584500  0.54042700  1
  O  O5  1  0.54042700  0.21532300  0.40584500  1
  O  O6  1  0.90584500  0.71532300  0.04042700  1
  O  O7  1  0.04042700  0.90584500  0.71532300  1
  O  O8  1  0.71532300  0.04042700  0.90584500  1
  O  O9  1  0.59415500  0.45957300  0.78467700  1
  O  O10  1  0.45957300  0.78467700  0.59415500  1
  O  O11  1  0.78467700  0.59415500  0.45957300  1
loop_
_geom_bond_atom_site_label_1
_geom_bond_atom_site_label_2
_geom_bond_distance
_geom_bond_site_symmetry_2
Ir0 O10 2.040297 1_555
Ir0 O5 2.040297 1_555
Ir0 O11 2.040297 1_555
Ir0 O4 2.040297 1_555
Ir0 O9 2.040297 1_555
Ir0 O3 2.040297 1_555
Ir1 O2 2.040297 1_545
Ir1 O8 2.040297 1_454
Ir1 O0 2.040297 1_554
Ir1 O6 2.040297 1_445
Ir1 O1 2.040297 1_455
Ir1 O7 2.040297 1_544
O0 Zn1 2.226704 1_556
O0 Sr0 2.494459 1_555
O0 Sr3 2.671909 1_456
O0 Sr1 2.704852 1_455
O0 Sr5 2.736324 1_555
O1 Zn1 2.226704 1_655
O1 Sr1 2.494459 1_555
O1 Sr4 2.671909 1_645
O1 Sr2 2.704852 1_545
O1 Sr3 2.736324 1_555
O2 Zn1 2.226704 1_565
O2 Sr2 2.494459 1_555
O2 Sr5 2.671909 1_564
O2 Sr0 2.704852 1_554
O2 Sr4 2.736324 1_555
O3 Zn1 2.226704 1_555
O3 Sr0 2.494459 1_554
O3 Sr3 2.671909 1_555
O3 Sr2 2.704852 1_555
O3 Sr4 2.736324 1_555
O4 Zn1 2.226704 1_555
O4 Sr1 2.494459 1_455
O4 Sr4 2.671909 1_555
O4 Sr0 2.704852 1_555
O4 Sr5 2.736324 1_555
O5 Zn1 2.226704 1_555
O5 Sr2 2.494459 1_545
O5 Sr5 2.671909 1_555
O5 Sr1 2.704852 1_555
O5 Sr3 2.736324 1_555
O6 Zn0 2.226704 1_554
O6 Sr3 2.494459 1_555
O6 Sr0 2.671909 1_654
O6 Sr4 2.704852 1_655
O6 Sr2 2.736324 1_555
O7 Zn0 2.226704 1_455
O7 Sr4 2.494459 1_555
O7 Sr1 2.671909 1_465
O7 Sr5 2.704852 1_565
O7 Sr0 2.736324 1_555
O8 Zn0 2.226704 1_545
O8 Sr5 2.494459 1_555
O8 Sr2 2.671909 1_546
O8 Sr3 2.704852 1_556
O8 Sr1 2.736324 1_555
O9 Zn0 2.226704 1_555
O9 Sr3 2.494459 1_556
O9 Sr0 2.671909 1_555
O9 Sr5 2.704852 1_555
O9 Sr1 2.736324 1_555
O10 Zn0 2.226704 1_555
O10 Sr5 2.494459 1_565
O10 Sr2 2.671909 1_555
O10 Sr4 2.704852 1_555
O10 Sr0 2.736324 1_555
O11 Zn0 2.226704 1_555
O11 Sr4 2.494459 1_655
O11 Sr1 2.671909 1_555
O11 Sr3 2.704852 1_555
O11 Sr2 2.736324 1_555
