# generated using pymatgen
data_Rb2NbCuS4
_symmetry_space_group_name_H-M   'P 1'
_cell_length_a   13.98986513
_cell_length_b   12.47726316
_cell_length_c   7.46683337
_cell_angle_alpha   85.16063384
_cell_angle_beta   62.71025399
_cell_angle_gamma   32.12911218
_symmetry_Int_Tables_number   1
_chemical_formula_structural   Rb2NbCuS4
_chemical_formula_sum   'Rb4 Nb2 Cu2 S8'
_cell_volume   471.78364544
_cell_formula_units_Z   2
loop_
 _symmetry_equiv_pos_site_id
 _symmetry_equiv_pos_as_xyz
  1  'x, y, z'
loop_
 _atom_site_type_symbol
 _atom_site_label
 _atom_site_symmetry_multiplicity
 _atom_site_fract_x
 _atom_site_fract_y
 _atom_site_fract_z
 _atom_site_occupancy
  Rb  Rb0  1  0.54858300  0.55316000  0.20458800  1
  Rb  Rb1  1  0.19528500  0.20344200  0.55419400  1
  Rb  Rb2  1  0.44173600  0.45229400  0.81213600  1
  Rb  Rb3  1  0.79674400  0.81099700  0.45131200  1
  Nb  Nb0  1  0.63309200  0.61779600  0.61526700  1
  Nb  Nb1  1  0.38251200  0.37037200  0.36697600  1
  Cu  Cu0  1  0.13231400  0.12087900  0.11789400  1
  Cu  Cu1  1  0.86593600  0.88359400  0.88412300  1
  S  S0  1  0.18226300  0.46241700  0.76336400  1
  S  S1  1  0.07938600  0.77715800  0.47472500  1
  S  S2  1  0.77116000  0.08928700  0.17405500  1
  S  S3  1  0.46309800  0.17649300  0.09523800  1
  S  S4  1  0.53160700  0.82472500  0.91673700  1
  S  S5  1  0.90146000  0.24043100  0.53683700  1
  S  S6  1  0.24047800  0.90338600  0.82360600  1
  S  S7  1  0.81888800  0.53537500  0.23979200  1
loop_
_geom_bond_atom_site_label_1
_geom_bond_atom_site_label_2
_geom_bond_distance
_geom_bond_site_symmetry_2
Rb0 S6 3.503666 1_555
Rb0 S2 3.506330 1_555
Rb0 S5 3.541550 1_554
Rb0 S1 3.564316 1_555
Rb0 S5 3.627156 1_465
Rb0 S6 3.639039 1_644
Rb0 S7 3.728095 1_555
Rb0 S4 3.746139 1_554
Rb1 S3 3.490204 1_555
Rb1 S4 3.495184 1_455
Rb1 S7 3.529545 1_545
Rb1 S0 3.536581 1_555
Rb1 S4 3.567184 1_544
Rb1 S7 3.606777 1_456
Rb1 S6 3.788083 1_545
Rb1 S5 3.793661 1_455
Rb2 S1 3.491237 1_556
Rb2 S2 3.545719 1_466
Rb2 S5 3.546236 1_555
Rb2 S1 3.547280 1_645
Rb2 S2 3.550539 1_555
Rb2 S6 3.554355 1_555
Rb2 S0 3.708544 1_555
Rb2 S3 3.742995 1_556
Rb3 S0 3.446478 1_565
Rb3 S3 3.531735 1_655
Rb3 S3 3.573425 1_566
Rb3 S0 3.609239 1_654
Rb3 S4 3.615121 1_555
Rb3 S7 3.616704 1_555
Rb3 S1 3.692926 1_655
Rb3 S2 3.719203 1_565
Nb0 S7 2.225028 1_555
Nb0 S5 2.262049 1_555
Nb0 S6 2.288454 1_555
Nb0 S4 2.364427 1_555
Nb1 S2 2.304555 1_555
Nb1 S3 2.313292 1_555
Nb1 S0 2.334156 1_555
Nb1 S1 2.344664 1_555
Cu0 S4 2.323045 1_544
Cu0 S6 2.341933 1_544
Cu0 S7 2.351233 1_455
Cu0 S5 2.409302 1_455
Cu1 S3 2.354514 1_566
Cu1 S2 2.360797 1_566
Cu1 S1 2.371312 1_655
Cu1 S0 2.401089 1_655
