# generated using pymatgen
data_V2Bi7O15
_symmetry_space_group_name_H-M   'P 1'
_cell_length_a   11.65392807
_cell_length_b   11.65392807
_cell_length_c   26.78238882
_cell_angle_alpha   96.50729408
_cell_angle_beta   96.29059146
_cell_angle_gamma   119.19229561
_symmetry_Int_Tables_number   1
_chemical_formula_structural   V2Bi7O15
_chemical_formula_sum   'V16 Bi56 O120'
_cell_volume   3097.46454206
_cell_formula_units_Z   8
loop_
 _symmetry_equiv_pos_site_id
 _symmetry_equiv_pos_as_xyz
  1  'x, y, z'
loop_
 _atom_site_type_symbol
 _atom_site_label
 _atom_site_symmetry_multiplicity
 _atom_site_fract_x
 _atom_site_fract_y
 _atom_site_fract_z
 _atom_site_occupancy
  V  V0  1  0.64446633  0.25238024  0.18789558  1
  V  V1  1  0.30883657  0.06004341  0.06010266  1
  V  V2  1  0.16429714  0.56657645  0.43593142  1
  V  V3  1  0.75669312  0.22599489  0.69425411  1
  V  V4  1  0.83570286  0.43342355  0.56406858  1
  V  V5  1  0.43551534  0.54342925  0.68789558  1
  V  V6  1  0.96825921  0.93756099  0.19425411  1
  V  V7  1  0.35553367  0.74761976  0.81210442  1
  V  V8  1  0.36935497  0.27163428  0.93593142  1
  V  V9  1  0.56448466  0.45657075  0.31210442  1
  V  V10  1  0.03174079  0.06243901  0.80574589  1
  V  V11  1  0.63064503  0.72836572  0.06406858  1
  V  V12  1  0.49994075  0.24873391  0.43989734  1
  V  V13  1  0.69116343  0.93995659  0.93989734  1
  V  V14  1  0.50005925  0.75126609  0.56010266  1
  V  V15  1  0.24330688  0.77400511  0.30574589  1
  Bi  Bi0  1  0.30004235  0.27026446  0.17906896  1
  Bi  Bi1  1  0.30225631  0.93011677  0.18706266  1
  Bi  Bi2  1  0.83346777  0.58265579  0.43919055  1
  Bi  Bi3  1  0.69995765  0.72973554  0.82093104  1
  Bi  Bi4  1  0.84350677  0.11402966  0.55933441  1
  Bi  Bi5  1  0.48810354  0.39749734  0.55644523  1
  Bi  Bi6  1  0.35653476  0.60572278  0.93919055  1
  Bi  Bi7  1  0.81569144  0.76870641  0.56218916  1
  Bi  Bi8  1  0.29348275  0.74649772  0.06218916  1
  Bi  Bi9  1  0.58109364  0.81133828  0.31647408  1
  Bi  Bi10  1  0.09730183  0.21037717  0.68597231  1
  Bi  Bi11  1  0.02440486  0.41132952  0.81402769  1
  Bi  Bi12  1  0.64346524  0.39427722  0.06080945  1
  Bi  Bi13  1  0.02955134  0.59967565  0.93951921  1
  Bi  Bi14  1  0.47032325  0.07204189  0.56292165  1
  Bi  Bi15  1  0.65894790  0.06834169  0.05644523  1
  Bi  Bi16  1  0.75710257  0.55310459  0.69012360  1
  Bi  Bi17  1  0.86401151  0.25969314  0.45303135  1
  Bi  Bi18  1  0.29983906  0.60899700  0.17783364  1
  Bi  Bi19  1  0.00513580  0.73538043  0.81647408  1
  Bi  Bi20  1  0.51189646  0.60250266  0.44355477  1
  Bi  Bi21  1  0.69774369  0.06988323  0.81293734  1
  Bi  Bi22  1  0.83984355  0.90996787  0.43951921  1
  Bi  Bi23  1  0.70651725  0.25350228  0.93781084  1
  Bi  Bi24  1  0.18430856  0.23129359  0.43781084  1
  Bi  Bi25  1  0.59119550  0.12097339  0.32093104  1
  Bi  Bi26  1  0.93116336  0.12200542  0.32216636  1
  Bi  Bi27  1  0.06883664  0.87799458  0.67783364  1
  Bi  Bi28  1  0.24289743  0.44689541  0.30987640  1
  Bi  Bi29  1  0.97044866  0.40032435  0.06048079  1
  Bi  Bi30  1  0.75694589  0.88480635  0.68706266  1
  Bi  Bi31  1  0.38026629  0.41121908  0.81575356  1
  Bi  Bi32  1  0.24305411  0.11519365  0.31293734  1
  Bi  Bi33  1  0.34105210  0.93165831  0.94355477  1
  Bi  Bi34  1  0.13598849  0.74030686  0.54696865  1
  Bi  Bi35  1  0.63701901  0.93302103  0.19012360  1
  Bi  Bi36  1  0.99486420  0.26461957  0.18352592  1
  Bi  Bi37  1  0.05469525  0.28417236  0.94066559  1
  Bi  Bi38  1  0.90453448  0.43548727  0.31575356  1
  Bi  Bi39  1  0.52967675  0.92795811  0.43707835  1
  Bi  Bi40  1  0.61973371  0.58878092  0.18424644  1
  Bi  Bi41  1  0.09546552  0.56451273  0.68424644  1
  Bi  Bi42  1  0.36298099  0.06697897  0.80987640  1
  Bi  Bi43  1  0.15649323  0.88597034  0.44066559  1
  Bi  Bi44  1  0.70016094  0.39100300  0.82216636  1
  Bi  Bi45  1  0.16015645  0.09003213  0.56048079  1
  Bi  Bi46  1  0.69333821  0.58901984  0.95303135  1
  Bi  Bi47  1  0.99087976  0.09259840  0.06292165  1
  Bi  Bi48  1  0.16653223  0.41734421  0.56080945  1
  Bi  Bi49  1  0.40880450  0.87902661  0.67906896  1
  Bi  Bi50  1  0.97559514  0.58867048  0.18597231  1
  Bi  Bi51  1  0.41890636  0.18866172  0.68352592  1
  Bi  Bi52  1  0.90269817  0.78962283  0.31402769  1
  Bi  Bi53  1  0.30666179  0.41098016  0.04696865  1
  Bi  Bi54  1  0.00912024  0.90740160  0.93707835  1
  Bi  Bi55  1  0.94530475  0.71582764  0.05933441  1
  O  O0  1  0.78854176  0.88716077  0.34284572  1
  O  O1  1  0.22022023  0.47241701  0.98385517  1
  O  O2  1  0.80671487  0.24492368  0.33844228  1
  O  O3  1  0.66963451  0.20140340  0.63439253  1
  O  O4  1  0.40643797  0.63746309  0.82970863  1
  O  O5  1  0.62367122  0.59665758  0.09886635  1
  O  O6  1  0.29081600  0.19632710  0.08813984  1
  O  O7  1  0.96996423  0.65056203  0.70121423  1
  O  O8  1  0.00220877  0.47519513  0.59886635  1
  O  O9  1  0.04431505  0.44569604  0.15715428  1
  O  O10  1  0.35826701  0.01902144  0.72669259  1
  O  O11  1  0.09638680  0.77742313  0.31059138  1
  O  O12  1  0.87908702  0.18127028  0.09360620  1
  O  O13  1  0.23027474  0.73472774  0.47115557  1
  O  O14  1  0.12519648  0.46397308  0.89236813  1
  O  O15  1  0.79232885  0.63157442  0.77330741  1
  O  O16  1  0.27130572  0.92552875  0.09983239  1
  O  O17  1  0.30775446  0.57672933  0.67029137  1
  O  O18  1  0.44176382  0.57691044  0.53867469  1
  O  O19  1  0.90041564  0.95932687  0.53510219  1
  O  O20  1  0.80506798  0.34143780  0.22624163  1
  O  O21  1  0.17542394  0.95761191  0.00505097  1
  O  O22  1  0.60818725  0.20267615  0.41186016  1
  O  O23  1  0.34347451  0.90055955  0.27320717  1
  O  O24  1  0.87264762  0.92973266  0.77320717  1
  O  O25  1  0.40648140  0.46827260  0.16155772  1
  O  O26  1  0.55065220  0.73125000  0.20121423  1
  O  O27  1  0.52699967  0.37309369  0.98332086  1
  O  O28  1  0.21145824  0.11283923  0.65715428  1
  O  O29  1  0.07160495  0.23282835  0.60763187  1
  O  O30  1  0.15459858  0.07193946  0.77135239  1
  O  O31  1  0.82248263  0.74783466  0.66425166  1
  O  O32  1  0.47093842  0.47703223  0.63392689  1
  O  O33  1  0.44934780  0.26875000  0.79878577  1
  O  O34  1  0.67430363  0.82852666  0.59983239  1
  O  O35  1  0.45256094  0.17037296  0.49494903  1
  O  O36  1  0.46176425  0.09691087  0.03867469  1
  O  O37  1  0.75188124  0.04925579  0.46989313  1
  O  O38  1  0.76972526  0.26527226  0.52884443  1
  O  O39  1  0.01143816  0.76363494  0.48385517  1
  O  O40  1  0.93298913  0.96475802  0.13439253  1
  O  O41  1  0.47300033  0.62690631  0.01667914  1
  O  O42  1  0.74145471  0.70601300  0.46968511  1
  O  O43  1  0.12091298  0.81872972  0.90639380  1
  O  O44  1  0.92422468  0.36531344  0.96489781  1
  O  O45  1  0.38480384  0.42117365  0.72624163  1
  O  O46  1  0.27203702  0.52454015  0.40523170  1
  O  O47  1  0.70918400  0.80367290  0.91186016  1
  O  O48  1  0.12059136  0.24417261  0.13377978  1
  O  O49  1  0.55823618  0.42308956  0.46132531  1
  O  O50  1  0.52906158  0.52296777  0.36607311  1
  O  O51  1  0.03003577  0.34943797  0.29878577  1
  O  O52  1  0.19328513  0.75507632  0.66155772  1
  O  O53  1  0.73632789  0.27176960  0.03031489  1
  O  O54  1  0.80058707  0.38324620  0.72864761  1
  O  O55  1  0.32569637  0.17147334  0.40016761  1
  O  O56  1  0.69224554  0.42327067  0.32970863  1
  O  O57  1  0.96683175  0.78579542  0.18940862  1
  O  O58  1  0.61039283  0.98681157  0.36622022  1
  O  O59  1  0.17751737  0.25216534  0.33574834  1
  O  O60  1  0.53067494  0.13435265  0.21832642  1
  O  O61  1  0.25983456  0.56248878  0.09397990  1
  O  O62  1  0.83697365  0.28828571  0.83523456  1
  O  O63  1  0.82457606  0.04238809  0.99494903  1
  O  O64  1  0.92839505  0.76717165  0.39236813  1
  O  O65  1  0.23642783  0.24088083  0.97115557  1
  O  O66  1  0.88977283  0.54367882  0.51667914  1
  O  O67  1  0.03316825  0.21420458  0.81059138  1
  O  O68  1  0.12735238  0.07026734  0.22679283  1
  O  O69  1  0.59356203  0.36253691  0.17029137  1
  O  O70  1  0.74016544  0.43751122  0.90602010  1
  O  O71  1  0.38960717  0.01318843  0.63377978  1
  O  O72  1  0.65689466  0.16298846  0.13392689  1
  O  O73  1  0.65652549  0.09944045  0.72679283  1
  O  O74  1  0.24811876  0.95074421  0.53010687  1
  O  O75  1  0.11022717  0.45632118  0.48332086  1
  O  O76  1  0.64173299  0.98097856  0.27330741  1
  O  O77  1  0.58358299  0.15823096  0.83574834  1
  O  O78  1  0.87480352  0.53602692  0.10763187  1
  O  O79  1  0.07936266  0.28198811  0.03010687  1
  O  O80  1  0.37632878  0.40334242  0.90113365  1
  O  O81  1  0.46932506  0.86564735  0.78167358  1
  O  O82  1  0.59351860  0.53172740  0.83844228  1
  O  O83  1  0.61519616  0.57882635  0.27375837  1
  O  O84  1  0.77977977  0.52758299  0.01614483  1
  O  O85  1  0.54743906  0.82962704  0.50505097  1
  O  O86  1  0.58766409  0.78548082  0.40639380  1
  O  O87  1  0.76357217  0.75911917  0.02884443  1
  O  O88  1  0.72869428  0.07447125  0.90016761  1
  O  O89  1  0.26367211  0.72823040  0.96968511  1
  O  O90  1  0.41641701  0.84176904  0.16425166  1
  O  O91  1  0.92063734  0.71801189  0.96989313  1
  O  O92  1  0.38069155  0.13319467  0.90523170  1
  O  O93  1  0.04694885  0.99826091  0.33523456  1
  O  O94  1  0.25854529  0.29398700  0.53031489  1
  O  O95  1  0.84540142  0.92806054  0.22864761  1
  O  O96  1  0.16302635  0.71171429  0.16476544  1
  O  O97  1  0.58397377  0.68765148  0.71832642  1
  O  O98  1  0.96850888  0.16585466  0.40602010  1
  O  O99  1  0.95305115  0.00173909  0.66476544  1
  O  O100  1  0.61930845  0.86680533  0.09476830  1
  O  O101  1  0.72796298  0.47545985  0.59476830  1
  O  O102  1  0.41233591  0.21451918  0.59360620  1
  O  O103  1  0.39181275  0.79732385  0.58813984  1
  O  O104  1  0.95568495  0.55430396  0.84284572  1
  O  O105  1  0.03149112  0.83414534  0.59397990  1
  O  O106  1  0.41602623  0.31234852  0.28167358  1
  O  O107  1  0.98856184  0.23636506  0.51614483  1
  O  O108  1  0.19941293  0.61675380  0.27135239  1
  O  O109  1  0.20767115  0.36842558  0.22669259  1
  O  O110  1  0.06701087  0.03524198  0.86560747  1
  O  O111  1  0.87940864  0.75582739  0.86622022  1
  O  O112  1  0.53823575  0.90308913  0.96132531  1
  O  O113  1  0.33036549  0.79859660  0.36560747  1
  O  O114  1  0.99779123  0.52480487  0.40113365  1
  O  O115  1  0.90361320  0.22257687  0.68940862  1
  O  O116  1  0.19493202  0.65856220  0.77375837  1
  O  O117  1  0.34310534  0.83701154  0.86607311  1
  O  O118  1  0.07577532  0.63468656  0.03510219  1
  O  O119  1  0.09958436  0.04067313  0.46489781  1
loop_
_geom_bond_atom_site_label_1
_geom_bond_atom_site_label_2
_geom_bond_distance
_geom_bond_site_symmetry_2
Bi0 O25 2.159650 1_555
Bi0 O48 2.162748 1_555
Bi0 O109 2.294723 1_555
Bi0 O6 2.461975 1_555
Bi0 O68 2.789189 1_555
Bi0 O106 2.802304 1_555
Bi1 O90 2.138947 1_555
Bi1 O96 2.209567 1_555
Bi1 O16 2.314987 1_555
Bi1 O23 2.402297 1_555
Bi1 O60 2.516264 1_565
Bi2 O39 2.190501 1_655
Bi2 O66 2.269336 1_555
Bi2 O42 2.305022 1_555
Bi2 O64 2.452552 1_555
Bi2 O114 2.586911 1_555
Bi3 O82 2.159650 1_555
Bi3 O111 2.162748 1_555
Bi3 O15 2.294723 1_555
Bi3 O47 2.461975 1_555
Bi3 O24 2.789189 1_555
Bi3 O97 2.802304 1_555
Bi4 O107 2.163229 1_555
Bi4 O19 2.259863 1_545
Bi4 O37 2.385692 1_555
Bi4 O29 2.430377 1_655
Bi4 O38 2.482651 1_555
Bi5 O32 2.245272 1_555
Bi5 O102 2.270305 1_555
Bi5 O94 2.313490 1_555
Bi5 O18 2.482052 1_555
Bi5 O101 2.524901 1_555
Bi5 O49 2.763627 1_555
Bi5 O35 2.771850 1_555
Bi6 O1 2.190501 1_555
Bi6 O41 2.269336 1_556
Bi6 O89 2.305022 1_555
Bi6 O14 2.452552 1_555
Bi6 O80 2.586911 1_555
Bi7 O19 2.195164 1_555
Bi7 O105 2.268037 1_655
Bi7 O34 2.354290 1_555
Bi7 O42 2.433847 1_555
Bi7 O31 2.767562 1_555
Bi8 O118 2.195164 1_555
Bi8 O61 2.268037 1_555
Bi8 O16 2.354290 1_555
Bi8 O89 2.433847 1_554
Bi8 O90 2.767562 1_555
Bi9 O0 2.127168 1_555
Bi9 O58 2.162206 1_555
Bi9 O76 2.253588 1_555
Bi9 O86 2.458251 1_555
Bi10 O99 2.133325 1_455
Bi10 O29 2.150237 1_555
Bi10 O28 2.271342 1_555
Bi10 O115 2.340811 1_455
Bi11 O62 2.133325 1_455
Bi11 O14 2.150237 1_555
Bi11 O104 2.271342 1_455
Bi11 O67 2.340811 1_555
Bi12 O84 2.190501 1_555
Bi12 O27 2.269336 1_554
Bi12 O53 2.305022 1_555
Bi12 O78 2.452552 1_555
Bi12 O5 2.586911 1_555
Bi13 O89 2.365736 1_555
Bi13 O91 2.419546 1_455
Bi13 O118 2.501321 1_556
Bi13 O104 2.545890 1_455
Bi13 O43 2.550809 1_555
Bi13 O44 2.600313 1_455
Bi13 O14 2.629360 1_555
Bi14 O102 2.189983 1_555
Bi14 O71 2.239103 1_555
Bi14 O74 2.263906 1_545
Bi14 O35 2.300392 1_555
Bi14 O3 2.507529 1_555
Bi15 O72 2.245272 1_555
Bi15 O12 2.270305 1_555
Bi15 O53 2.313491 1_555
Bi15 O36 2.482053 1_555
Bi15 O100 2.524901 1_545
Bi15 O112 2.763627 1_544
Bi15 O63 2.771850 1_554
Bi16 O7 2.132043 1_555
Bi16 O15 2.222555 1_555
Bi16 O31 2.235197 1_555
Bi16 O101 2.538233 1_555
Bi16 O54 2.562566 1_555
Bi17 O107 2.233698 1_555
Bi17 O37 2.275989 1_555
Bi17 O98 2.363746 1_555
Bi17 O38 2.421372 1_555
Bi17 O75 2.607096 1_655
Bi17 O22 2.779736 1_555
Bi18 O61 2.191556 1_555
Bi18 O96 2.435582 1_555
Bi18 O90 2.464493 1_555
Bi18 O26 2.509981 1_555
Bi18 O25 2.523698 1_555
Bi18 O9 2.582172 1_555
Bi19 O104 2.127168 1_455
Bi19 O111 2.162206 1_455
Bi19 O15 2.253588 1_455
Bi19 O43 2.458251 1_555
Bi20 O50 2.245272 1_555
Bi20 O86 2.270305 1_555
Bi20 O42 2.313490 1_555
Bi20 O49 2.482052 1_555
Bi20 O46 2.524901 1_555
Bi20 O18 2.763627 1_555
Bi20 O85 2.771850 1_555
Bi21 O77 2.138947 1_555
Bi21 O62 2.209567 1_555
Bi21 O88 2.314987 1_555
Bi21 O73 2.402297 1_555
Bi21 O81 2.516264 1_545
Bi22 O42 2.365736 1_555
Bi22 O37 2.419546 1_565
Bi22 O19 2.501321 1_555
Bi22 O0 2.545890 1_555
Bi22 O86 2.550808 1_555
Bi22 O119 2.600313 1_665
Bi22 O64 2.629360 1_555
Bi23 O44 2.195164 1_555
Bi23 O70 2.268037 1_555
Bi23 O88 2.354290 1_555
Bi23 O53 2.433847 1_556
Bi23 O77 2.767562 1_555
Bi24 O119 2.195164 1_555
Bi24 O98 2.268037 1_455
Bi24 O55 2.354290 1_555
Bi24 O94 2.433847 1_555
Bi24 O59 2.767562 1_555
Bi25 O2 2.159650 1_555
Bi25 O58 2.162748 1_545
Bi25 O76 2.294723 1_545
Bi25 O22 2.461975 1_555
Bi25 O23 2.789189 1_545
Bi25 O60 2.802304 1_555
Bi26 O98 2.191556 1_555
Bi26 O93 2.435582 1_645
Bi26 O59 2.464493 1_655
Bi26 O51 2.509981 1_655
Bi26 O2 2.523698 1_555
Bi26 O0 2.582172 1_545
Bi27 O105 2.191556 1_555
Bi27 O99 2.435582 1_465
Bi27 O31 2.464493 1_455
Bi27 O7 2.509981 1_455
Bi27 O52 2.523698 1_555
Bi27 O28 2.582172 1_565
Bi28 O51 2.132043 1_555
Bi28 O109 2.222555 1_555
Bi28 O59 2.235197 1_555
Bi28 O46 2.538233 1_555
Bi28 O108 2.562566 1_555
Bi29 O53 2.365736 1_555
Bi29 O79 2.419546 1_655
Bi29 O44 2.501321 1_554
Bi29 O9 2.545890 1_655
Bi29 O12 2.550809 1_555
Bi29 O118 2.600313 1_655
Bi29 O78 2.629360 1_555
Bi30 O31 2.138947 1_555
Bi30 O99 2.209567 1_565
Bi30 O34 2.314987 1_555
Bi30 O24 2.402297 1_555
Bi30 O97 2.516264 1_555
Bi31 O82 2.142167 1_555
Bi31 O33 2.196451 1_555
Bi31 O80 2.303457 1_555
Bi31 O45 2.418335 1_555
Bi31 O4 2.480269 1_555
Bi32 O59 2.138947 1_555
Bi32 O93 2.209567 1_545
Bi32 O55 2.314987 1_555
Bi32 O68 2.402297 1_555
Bi32 O106 2.516264 1_555
Bi33 O117 2.245272 1_555
Bi33 O43 2.270305 1_555
Bi33 O89 2.313491 1_555
Bi33 O112 2.482053 1_555
Bi33 O92 2.524901 1_565
Bi33 O36 2.763627 1_566
Bi33 O21 2.771850 1_556
Bi34 O39 2.233698 1_555
Bi34 O74 2.275989 1_555
Bi34 O105 2.363746 1_555
Bi34 O13 2.421372 1_555
Bi34 O66 2.607096 1_455
Bi34 O103 2.779736 1_555
Bi35 O26 2.132043 1_555
Bi35 O76 2.222555 1_555
Bi35 O90 2.235197 1_555
Bi35 O100 2.538233 1_555
Bi35 O95 2.562566 1_555
Bi36 O9 2.127168 1_655
Bi36 O48 2.162206 1_655
Bi36 O109 2.253588 1_655
Bi36 O12 2.458251 1_555
Bi37 O1 2.163229 1_555
Bi37 O44 2.259863 1_455
Bi37 O79 2.385692 1_556
Bi37 O14 2.430377 1_555
Bi37 O65 2.482651 1_555
Bi38 O2 2.142167 1_555
Bi38 O51 2.196451 1_655
Bi38 O114 2.303457 1_555
Bi38 O20 2.418335 1_555
Bi38 O56 2.480269 1_555
Bi39 O86 2.189983 1_555
Bi39 O58 2.239103 1_555
Bi39 O37 2.263906 1_565
Bi39 O85 2.300392 1_555
Bi39 O113 2.507529 1_555
Bi40 O25 2.142167 1_555
Bi40 O26 2.196451 1_555
Bi40 O5 2.303457 1_555
Bi40 O83 2.418335 1_555
Bi40 O69 2.480269 1_555
Bi41 O52 2.142167 1_555
Bi41 O7 2.196451 1_455
Bi41 O8 2.303457 1_555
Bi41 O116 2.418335 1_555
Bi41 O17 2.480269 1_555
Bi42 O33 2.132043 1_555
Bi42 O10 2.222555 1_555
Bi42 O77 2.235197 1_555
Bi42 O92 2.538233 1_555
Bi42 O30 2.562566 1_555
Bi43 O39 2.163229 1_555
Bi43 O119 2.259863 1_565
Bi43 O74 2.385692 1_555
Bi43 O64 2.430377 1_455
Bi43 O13 2.482651 1_555
Bi44 O70 2.191556 1_555
Bi44 O62 2.435582 1_555
Bi44 O77 2.464493 1_555
Bi44 O33 2.509981 1_555
Bi44 O82 2.523698 1_555
Bi44 O104 2.582172 1_555
Bi45 O94 2.365736 1_555
Bi45 O74 2.419546 1_545
Bi45 O119 2.501321 1_555
Bi45 O28 2.545890 1_555
Bi45 O102 2.550808 1_555
Bi45 O19 2.600313 1_445
Bi45 O29 2.629360 1_555
Bi46 O84 2.233698 1_556
Bi46 O91 2.275989 1_555
Bi46 O70 2.363746 1_555
Bi46 O87 2.421372 1_556
Bi46 O27 2.607096 1_555
Bi46 O47 2.779736 1_555
Bi47 O12 2.189983 1_555
Bi47 O48 2.239103 1_655
Bi47 O79 2.263906 1_655
Bi47 O63 2.300392 1_554
Bi47 O40 2.507529 1_545
Bi48 O107 2.190501 1_455
Bi48 O75 2.269336 1_555
Bi48 O94 2.305022 1_555
Bi48 O29 2.452552 1_555
Bi48 O8 2.586911 1_555
Bi49 O52 2.159650 1_555
Bi49 O71 2.162748 1_565
Bi49 O10 2.294723 1_565
Bi49 O103 2.461975 1_555
Bi49 O73 2.789189 1_565
Bi49 O81 2.802304 1_555
Bi50 O96 2.133325 1_655
Bi50 O78 2.150237 1_555
Bi50 O9 2.271342 1_655
Bi50 O57 2.340811 1_555
Bi51 O28 2.127168 1_555
Bi51 O71 2.162206 1_555
Bi51 O10 2.253588 1_555
Bi51 O102 2.458251 1_555
Bi52 O93 2.133325 1_655
Bi52 O64 2.150237 1_555
Bi52 O0 2.271342 1_555
Bi52 O11 2.340811 1_655
Bi53 O1 2.233698 1_554
Bi53 O79 2.275989 1_555
Bi53 O61 2.363746 1_555
Bi53 O65 2.421372 1_554
Bi53 O41 2.607096 1_555
Bi53 O6 2.779736 1_555
Bi54 O43 2.189983 1_555
Bi54 O111 2.239103 1_455
Bi54 O91 2.263906 1_455
Bi54 O21 2.300392 1_556
Bi54 O110 2.507529 1_565
Bi55 O84 2.163229 1_555
Bi55 O118 2.259863 1_655
Bi55 O91 2.385692 1_554
Bi55 O78 2.430377 1_555
Bi55 O87 2.482651 1_555
O3 V3 1.713950 1_555
O4 V7 1.743862 1_555
O5 V11 1.857494 1_555
O6 V1 1.794457 1_555
O8 V4 1.857494 1_455
O11 V15 1.750456 1_555
O13 V2 1.809285 1_555
O16 V1 1.895307 1_565
O17 V5 1.743862 1_555
O18 V14 1.795352 1_555
O20 V0 1.754200 1_555
O21 V1 1.817816 1_565
O22 V12 1.794457 1_555
O23 V15 1.769786 1_555
O24 V10 1.769786 1_665
O27 V8 1.847705 1_555
O30 V10 1.751639 1_555
O32 V5 1.745632 1_555
O34 V14 1.895307 1_555
O35 V12 1.817816 1_555
O36 V1 1.795352 1_555
O38 V4 1.809285 1_555
O40 V6 1.713950 1_555
O41 V11 1.847705 1_555
O45 V5 1.754200 1_555
O46 V2 1.796523 1_555
O47 V13 1.794457 1_555
O49 V12 1.795352 1_555
O50 V9 1.745632 1_555
O54 V3 1.751639 1_555
O55 V12 1.895307 1_555
O56 V9 1.743862 1_555
O57 V6 1.750456 1_555
O60 V0 1.739653 1_555
O63 V13 1.817816 1_545
O65 V8 1.809285 1_555
O66 V4 1.847705 1_555
O67 V10 1.750456 1_555
O68 V6 1.769786 1_445
O69 V0 1.743862 1_555
O72 V0 1.745632 1_555
O73 V3 1.769786 1_555
O75 V2 1.847705 1_555
O80 V8 1.857494 1_555
O81 V7 1.739653 1_555
O83 V9 1.754200 1_555
O85 V14 1.817816 1_555
O87 V11 1.809285 1_555
O88 V13 1.895307 1_545
O92 V8 1.796523 1_555
O95 V6 1.751639 1_555
O97 V5 1.739653 1_555
O100 V11 1.796523 1_555
O101 V4 1.796523 1_555
O103 V14 1.794457 1_555
O106 V9 1.739653 1_555
O108 V15 1.751639 1_555
O110 V10 1.713950 1_555
O112 V13 1.795352 1_555
O113 V15 1.713950 1_555
O114 V2 1.857494 1_655
O115 V3 1.750456 1_555
O116 V7 1.754200 1_555
O117 V7 1.745632 1_555
