# generated using pymatgen
data_Nd2Fe2Si2C
_symmetry_space_group_name_H-M   'P 1'
_cell_length_a   5.76478846
_cell_length_b   5.76478846
_cell_length_c   6.97109401
_cell_angle_alpha   54.18248860
_cell_angle_beta   54.18248860
_cell_angle_gamma   40.58849939
_symmetry_Int_Tables_number   1
_chemical_formula_structural   Nd2Fe2Si2C
_chemical_formula_sum   'Nd2 Fe2 Si2 C1'
_cell_volume   117.79072524
_cell_formula_units_Z   1
loop_
 _symmetry_equiv_pos_site_id
 _symmetry_equiv_pos_as_xyz
  1  'x, y, z'
loop_
 _atom_site_type_symbol
 _atom_site_label
 _atom_site_symmetry_multiplicity
 _atom_site_fract_x
 _atom_site_fract_y
 _atom_site_fract_z
 _atom_site_occupancy
  Nd  Nd0  1  0.94160700  0.94160700  0.79922900  1
  Nd  Nd1  1  0.05839300  0.05839300  0.20077100  1
  Fe  Fe0  1  0.30437600  0.30437600  0.58776100  1
  Fe  Fe1  1  0.69562400  0.69562400  0.41223900  1
  Si  Si0  1  0.67677400  0.67677400  0.76068200  1
  Si  Si1  1  0.32322600  0.32322600  0.23931800  1
  C  C0  1  0.50000000  0.50000000  0.50000000  1
loop_
_geom_bond_atom_site_label_1
_geom_bond_atom_site_label_2
_geom_bond_distance
_geom_bond_site_symmetry_2
Nd0 Si0 3.038794 1_555
Nd0 Si0 3.111994 1_655
Nd0 Si0 3.111994 1_565
Nd0 Si1 3.185561 1_566
Nd0 Si1 3.185561 1_656
Nd1 Si1 3.038794 1_555
Nd1 Si1 3.111994 1_455
Nd1 Si1 3.111994 1_545
Nd1 Si0 3.185561 1_454
Nd1 Si0 3.185561 1_544
Fe0 Si0 2.297684 1_455
Fe0 Si0 2.297684 1_545
Fe0 Si1 2.307350 1_555
Fe1 Si1 2.297684 1_655
Fe1 Si1 2.297684 1_565
Fe1 Si0 2.307350 1_555
C0 Fe0 1.798446 1_555
C0 Fe1 1.798446 1_555
C0 Nd1 2.665357 1_565
C0 Nd0 2.665357 1_455
C0 Nd1 2.665357 1_655
C0 Nd0 2.665357 1_545
