# generated using pymatgen
data_La6Ti3Se9O5
_symmetry_space_group_name_H-M   'P 1'
_cell_length_a   3.92825922
_cell_length_b   11.25711979
_cell_length_c   22.50907522
_cell_angle_alpha   96.96936165
_cell_angle_beta   94.99360807
_cell_angle_gamma   89.98818759
_symmetry_Int_Tables_number   1
_chemical_formula_structural   La6Ti3Se9O5
_chemical_formula_sum   'La12 Ti6 Se18 O10'
_cell_volume   984.21252150
_cell_formula_units_Z   2
loop_
 _symmetry_equiv_pos_site_id
 _symmetry_equiv_pos_as_xyz
  1  'x, y, z'
loop_
 _atom_site_type_symbol
 _atom_site_label
 _atom_site_symmetry_multiplicity
 _atom_site_fract_x
 _atom_site_fract_y
 _atom_site_fract_z
 _atom_site_occupancy
  La  La0  1  0.36792200  0.34796900  0.72522700  1
  La  La1  1  0.46856000  0.25348200  0.92597800  1
  La  La2  1  0.53725000  0.74370100  0.07392300  1
  La  La3  1  0.89017700  0.98674200  0.77635100  1
  La  La4  1  0.95839600  0.74522600  0.91896300  1
  La  La5  1  0.79487800  0.53830400  0.57853700  1
  La  La6  1  0.63411600  0.64987700  0.27544500  1
  La  La7  1  0.04255000  0.25094700  0.08048500  1
  La  La8  1  0.21583400  0.46058500  0.42233100  1
  La  La9  1  0.78425600  0.99354000  0.57755300  1
  La  La10  1  0.21122600  0.00603400  0.42359000  1
  La  La11  1  0.10641400  0.01119800  0.22405900  1
  Ti  Ti0  1  0.27079700  0.25899200  0.53982200  1
  Ti  Ti1  1  0.64406300  0.34258700  0.28351800  1
  Ti  Ti2  1  0.35922300  0.65497400  0.71650400  1
  Ti  Ti3  1  0.00724500  0.49871000  0.99991000  1
  Ti  Ti4  1  0.72996300  0.74123200  0.46147800  1
  Ti  Ti5  1  0.49505300  0.99866500  0.99962000  1
  Se  Se0  1  0.58593300  0.18421600  0.18182300  1
  Se  Se1  1  0.41322200  0.81401200  0.81853400  1
  Se  Se2  1  0.27303800  0.76540500  0.54495000  1
  Se  Se3  1  0.16223200  0.22429200  0.32738300  1
  Se  Se4  1  0.95908900  0.02819700  0.91912500  1
  Se  Se5  1  0.91675200  0.25268500  0.81490100  1
  Se  Se6  1  0.18896800  0.71701000  0.37957500  1
  Se  Se7  1  0.10646200  0.44573000  0.22461200  1
  Se  Se8  1  0.73186300  0.23526400  0.45606200  1
  Se  Se9  1  0.65277600  0.93800600  0.31284000  1
  Se  Se10  1  0.03598200  0.96928700  0.08057200  1
  Se  Se11  1  0.83667300  0.77420000  0.67322900  1
  Se  Se12  1  0.46479900  0.52317200  0.91768800  1
  Se  Se13  1  0.09244100  0.74445400  0.18521900  1
  Se  Se14  1  0.34139700  0.06170200  0.68813200  1
  Se  Se15  1  0.88567800  0.55185300  0.77521500  1
  Se  Se16  1  0.54579900  0.47324600  0.08125500  1
  Se  Se17  1  0.81318900  0.28134600  0.62120500  1
  O  O0  1  0.27158400  0.43017800  0.53198300  1
  O  O1  1  0.99350600  0.32692000  0.97710000  1
  O  O2  1  0.48299100  0.82612900  0.97324400  1
  O  O3  1  0.26682300  0.08168000  0.53690400  1
  O  O4  1  0.73333000  0.91920600  0.46458300  1
  O  O5  1  0.66632700  0.46821300  0.34262500  1
  O  O6  1  0.01258700  0.66939300  0.02266400  1
  O  O7  1  0.73695400  0.57021300  0.46849700  1
  O  O8  1  0.51391000  0.17013200  0.02602600  1
  O  O9  1  0.32900400  0.53079600  0.65745100  1
loop_
_geom_bond_atom_site_label_1
_geom_bond_atom_site_label_2
_geom_bond_distance
_geom_bond_site_symmetry_2
La0 O9 2.703289 1_555
La0 Se17 3.064397 1_555
La0 Se17 3.078913 1_455
La0 Se5 3.084615 1_455
La0 Se5 3.104795 1_555
La0 Se15 3.105998 1_555
La0 Se15 3.140858 1_455
La0 Se14 3.228750 1_555
La1 O1 2.369951 1_555
La1 O1 2.373261 1_455
La1 O8 2.535039 1_556
La1 Se12 3.064132 1_555
La1 Se5 3.162441 1_455
La1 Se5 3.179926 1_555
La1 Se4 3.181703 1_555
La1 Se4 3.211565 1_455
La2 O6 2.373024 1_555
La2 O6 2.378607 1_655
La2 O2 2.543263 1_554
La2 Se16 3.068965 1_555
La2 Se13 3.174291 1_655
La2 Se13 3.175844 1_555
La2 Se10 3.188767 1_655
La2 Se10 3.210235 1_555
La3 Se14 2.969336 1_665
La3 Se1 2.991996 1_555
La3 Se14 2.993841 1_565
La3 Se1 3.001797 1_655
La3 Se5 3.013360 1_565
La3 Se11 3.118359 1_555
La3 Se4 3.178623 1_565
La4 O2 2.421021 1_655
La4 O2 2.436466 1_555
La4 O6 2.572857 1_656
La4 Se1 3.142838 1_555
La4 Se12 3.159715 1_555
La4 Se1 3.167086 1_655
La4 Se4 3.184999 1_565
La4 Se12 3.193272 1_655
La4 Se15 3.663272 1_555
La5 O0 2.473355 1_655
La5 O0 2.474217 1_555
La5 O7 2.536453 1_555
La5 O9 2.636709 1_655
La5 O9 2.667190 1_555
La5 Se17 3.155443 1_555
La5 Se11 3.191767 1_555
La5 Se2 3.369516 1_655
La5 Se2 3.392126 1_555
La6 O5 2.683608 1_555
La6 Se6 3.066883 1_555
La6 Se6 3.081714 1_655
La6 Se13 3.091481 1_555
La6 Se13 3.108321 1_655
La6 Se7 3.124595 1_655
La6 Se7 3.136527 1_555
La6 Se9 3.249769 1_555
La7 O8 2.425408 1_555
La7 O8 2.435093 1_455
La7 O1 2.566868 1_454
La7 Se0 3.145029 1_555
La7 Se10 3.171030 1_545
La7 Se16 3.172337 1_455
La7 Se0 3.180163 1_455
La7 Se16 3.186878 1_555
La7 Se7 3.678004 1_555
La8 O7 2.472433 1_555
La8 O7 2.483899 1_455
La8 O0 2.523462 1_555
La8 O5 2.635914 1_555
La8 O5 2.692374 1_455
La8 Se6 3.150589 1_555
La8 Se3 3.198392 1_555
La8 Se8 3.364006 1_555
La8 Se8 3.368260 1_455
La9 O3 2.418441 1_565
La9 O3 2.436834 1_665
La9 O4 2.569330 1_555
La9 Se14 3.178091 1_565
La9 Se14 3.187922 1_665
La9 Se2 3.233414 1_555
La9 Se2 3.256756 1_655
La9 Se17 3.268527 1_565
La9 Se11 3.462652 1_555
La10 O4 2.419135 1_445
La10 O4 2.429362 1_545
La10 O3 2.579609 1_555
La10 Se9 3.177797 1_545
La10 Se9 3.193547 1_445
La10 Se8 3.243281 1_455
La10 Se8 3.264983 1_555
La10 Se6 3.282949 1_545
La10 Se3 3.461450 1_555
La11 Se9 2.977929 1_445
La11 Se9 2.988469 1_545
La11 Se0 2.997822 1_455
La11 Se0 3.001358 1_555
La11 Se13 3.023011 1_545
La11 Se3 3.125538 1_555
La11 Se10 3.194556 1_545
Se0 Ti1 2.718297 1_555
Se1 Ti2 2.728027 1_555
Se2 Ti4 2.699777 1_555
Se2 Ti4 2.708086 1_455
Se3 Ti1 2.619075 1_455
Se3 Ti1 2.641248 1_555
Se4 Ti5 2.703314 1_645
Se4 Ti5 2.727193 1_545
Se6 Ti4 2.679683 1_455
Se6 Ti4 2.680596 1_555
Se7 Ti1 2.683160 1_455
Se7 Ti1 2.729684 1_555
Se8 Ti0 2.700200 1_655
Se8 Ti0 2.716318 1_555
Se10 Ti5 2.720336 1_554
Se10 Ti5 2.723371 1_454
Se11 Ti2 2.627586 1_555
Se11 Ti2 2.632838 1_655
Se12 Ti3 2.726660 1_555
Se12 Ti3 2.734695 1_655
Se15 Ti2 2.695618 1_555
Se15 Ti2 2.712107 1_655
Se16 Ti3 2.713517 1_554
Se16 Ti3 2.725056 1_654
Se17 Ti0 2.666760 1_655
Se17 Ti0 2.677236 1_555
O0 Ti0 1.956355 1_555
O1 Ti3 1.939228 1_655
O2 Ti5 1.960203 1_555
O3 Ti0 1.989141 1_555
O4 Ti4 1.996206 1_555
O5 Ti1 1.816825 1_555
O6 Ti3 1.927139 1_554
O7 Ti4 1.950660 1_555
O8 Ti5 1.948977 1_544
O9 Ti2 1.804634 1_555
