# generated using pymatgen
data_KAlSi3O8
_symmetry_space_group_name_H-M   'P 1'
_cell_length_a   7.32588200
_cell_length_b   7.72277880
_cell_length_c   8.02731003
_cell_angle_alpha   112.91205410
_cell_angle_beta   104.45208495
_cell_angle_gamma   103.49404949
_symmetry_Int_Tables_number   1
_chemical_formula_structural   KAlSi3O8
_chemical_formula_sum   'K2 Al2 Si6 O16'
_cell_volume   376.25050930
_cell_formula_units_Z   2
loop_
 _symmetry_equiv_pos_site_id
 _symmetry_equiv_pos_as_xyz
  1  'x, y, z'
loop_
 _atom_site_type_symbol
 _atom_site_label
 _atom_site_symmetry_multiplicity
 _atom_site_fract_x
 _atom_site_fract_y
 _atom_site_fract_z
 _atom_site_occupancy
  K  K0  1  0.86266100  0.70944800  0.72419500  1
  K  K1  1  0.13733900  0.29055200  0.27580500  1
  Al  Al0  1  0.78297000  0.17785700  0.80036200  1
  Al  Al1  1  0.21703000  0.82214300  0.19963800  1
  Si  Si0  1  0.76788300  0.80743200  0.17066600  1
  Si  Si1  1  0.23211700  0.19256800  0.82933400  1
  Si  Si2  1  0.65979500  0.40712600  0.16585500  1
  Si  Si3  1  0.34020500  0.59287400  0.83414500  1
  Si  Si4  1  0.64802300  0.17665700  0.40544800  1
  Si  Si5  1  0.35197700  0.82334300  0.59455200  1
  O  O0  1  0.01776300  0.14602800  0.85517500  1
  O  O1  1  0.98223700  0.85397200  0.14482500  1
  O  O2  1  0.71302700  0.36602700  0.35500300  1
  O  O3  1  0.28697300  0.63397300  0.64499700  1
  O  O4  1  0.77966100  0.32562500  0.02923300  1
  O  O5  1  0.22033900  0.67437500  0.97076700  1
  O  O6  1  0.75916200  0.02281100  0.30915700  1
  O  O7  1  0.24083800  0.97718900  0.69084300  1
  O  O8  1  0.74808800  0.28297300  0.64167900  1
  O  O9  1  0.25191200  0.71702700  0.35832100  1
  O  O10  1  0.73119600  0.65539900  0.26676700  1
  O  O11  1  0.26880400  0.34460100  0.73323300  1
  O  O12  1  0.59580100  0.93382000  0.68842300  1
  O  O13  1  0.40419900  0.06618000  0.31157700  1
  O  O14  1  0.58803000  0.69702900  0.95124100  1
  O  O15  1  0.41197000  0.30297100  0.04875900  1
loop_
_geom_bond_atom_site_label_1
_geom_bond_atom_site_label_2
_geom_bond_distance
_geom_bond_site_symmetry_2
K0 O2 2.814288 1_555
K0 O1 2.923524 1_556
K0 O12 2.931737 1_555
K0 O0 2.935962 1_665
K0 O8 2.953736 1_555
K0 O5 3.002826 1_655
K0 O14 3.042217 1_555
K0 O7 3.185979 1_655
K1 O3 2.814288 1_555
K1 O0 2.923524 1_554
K1 O13 2.931737 1_555
K1 O1 2.935962 1_445
K1 O9 2.953736 1_555
K1 O4 3.002826 1_455
K1 O15 3.042217 1_555
K1 O6 3.185979 1_455
Al0 O4 1.755251 1_556
Al0 O8 1.756801 1_555
Al0 O12 1.760634 1_545
Al0 O0 1.765338 1_655
Al1 O5 1.755251 1_554
Al1 O9 1.756801 1_555
Al1 O13 1.760634 1_565
Al1 O1 1.765338 1_455
O0 Si1 1.611022 1_555
O1 Si0 1.611022 1_555
O2 Si2 1.641848 1_555
O2 Si4 1.661894 1_555
O3 Si3 1.641848 1_555
O3 Si5 1.661894 1_555
O4 Si2 1.603492 1_555
O5 Si3 1.603492 1_555
O6 Si0 1.628457 1_545
O6 Si4 1.650002 1_555
O7 Si1 1.628457 1_565
O7 Si5 1.650002 1_555
O8 Si4 1.618766 1_555
O9 Si5 1.618766 1_555
O10 Si0 1.645407 1_555
O10 Si2 1.648381 1_555
O11 Si1 1.645407 1_555
O11 Si3 1.648381 1_555
O12 Si5 1.613287 1_555
O13 Si4 1.613287 1_555
O14 Si3 1.644588 1_555
O14 Si0 1.647259 1_556
O15 Si2 1.644588 1_555
O15 Si1 1.647259 1_554
