# generated using pymatgen
data_Mn(GaS2)2
_symmetry_space_group_name_H-M   'P 1'
_cell_length_a   6.44441881
_cell_length_b   12.39767262
_cell_length_c   13.06592337
_cell_angle_alpha   115.35019997
_cell_angle_beta   99.04049180
_cell_angle_gamma   100.83049140
_symmetry_Int_Tables_number   1
_chemical_formula_structural   Mn(GaS2)2
_chemical_formula_sum   'Mn6 Ga12 S24'
_cell_volume   892.77775827
_cell_formula_units_Z   6
loop_
 _symmetry_equiv_pos_site_id
 _symmetry_equiv_pos_as_xyz
  1  'x, y, z'
loop_
 _atom_site_type_symbol
 _atom_site_label
 _atom_site_symmetry_multiplicity
 _atom_site_fract_x
 _atom_site_fract_y
 _atom_site_fract_z
 _atom_site_occupancy
  Mn  Mn0  1  0.46359700  0.21641500  0.43399900  1
  Mn  Mn1  1  0.11979100  0.86938900  0.74000000  1
  Mn  Mn2  1  0.53674100  0.78383900  0.56498300  1
  Mn  Mn3  1  0.70532900  0.95688900  0.91244300  1
  Mn  Mn4  1  0.29541900  0.04326500  0.08699700  1
  Mn  Mn5  1  0.87822700  0.12777600  0.25727800  1
  Ga  Ga0  1  0.29342800  0.67196300  0.91935700  1
  Ga  Ga1  1  0.45388000  0.83312700  0.25218100  1
  Ga  Ga2  1  0.30087400  0.41751900  0.25082000  1
  Ga  Ga3  1  0.71039500  0.32880500  0.08044800  1
  Ga  Ga4  1  0.03414400  0.88725500  0.40246800  1
  Ga  Ga5  1  0.12943700  0.24606700  0.91846700  1
  Ga  Ga6  1  0.96997100  0.11560200  0.59969400  1
  Ga  Ga7  1  0.87242600  0.51824000  0.40228900  1
  Ga  Ga8  1  0.13078600  0.48573900  0.59839600  1
  Ga  Ga9  1  0.55094500  0.16622000  0.74856600  1
  Ga  Ga10  1  0.70205400  0.58110000  0.74824700  1
  Ga  Ga11  1  0.87119700  0.75087800  0.08073900  1
  S  S0  1  0.74667300  0.74342500  0.23741400  1
  S  S1  1  0.25723400  0.25653800  0.76445900  1
  S  S2  1  0.42663200  0.41404500  0.60321500  1
  S  S3  1  0.67093100  0.15019300  0.08820300  1
  S  S4  1  0.59610400  0.59103000  0.91816500  1
  S  S5  1  0.07963800  0.05996900  0.91052100  1
  S  S6  1  0.01068400  0.50802700  0.76434200  1
  S  S7  1  0.25610600  0.23860700  0.26377900  1
  S  S8  1  0.82485200  0.32567900  0.91808100  1
  S  S9  1  0.99199400  0.49265200  0.23577100  1
  S  S10  1  0.91705300  0.91174900  0.56906400  1
  S  S11  1  0.92205100  0.93688800  0.08750700  1
  S  S12  1  0.08653600  0.09045400  0.43309200  1
  S  S13  1  0.40480400  0.40688800  0.08069700  1
  S  S14  1  0.33192700  0.84951700  0.91025700  1
  S  S15  1  0.84543600  0.34533400  0.43313800  1
  S  S16  1  0.57065800  0.58464900  0.39913300  1
  S  S17  1  0.49652000  0.97516500  0.73620000  1
  S  S18  1  0.32469700  0.81049400  0.39700600  1
  S  S19  1  0.50895000  0.02475500  0.26466700  1
  S  S20  1  0.74336300  0.76003300  0.73561800  1
  S  S21  1  0.15803700  0.65912300  0.56766100  1
  S  S22  1  0.18033700  0.67514100  0.08177000  1
  S  S23  1  0.67138500  0.18502900  0.60013700  1
loop_
_geom_bond_atom_site_label_1
_geom_bond_atom_site_label_2
_geom_bond_distance
_geom_bond_site_symmetry_2
Mn0 S7 2.556923 1_555
Mn0 S19 2.566911 1_555
Mn0 S23 2.581137 1_555
Mn0 S2 2.587369 1_555
Mn0 S12 2.625348 1_555
Mn0 S15 2.675056 1_555
Mn1 S20 2.525876 1_455
Mn1 S17 2.552163 1_555
Mn1 S5 2.552796 1_565
Mn1 S14 2.553129 1_555
Mn1 S21 2.704833 1_555
Mn1 S10 2.704856 1_455
Mn2 S17 2.562736 1_555
Mn2 S20 2.570803 1_555
Mn2 S16 2.571250 1_555
Mn2 S18 2.577169 1_555
Mn2 S10 2.636349 1_555
Mn2 S21 2.646345 1_555
Mn3 S14 2.511057 1_555
Mn3 S5 2.518043 1_665
Mn3 S3 2.590978 1_566
Mn3 S17 2.598547 1_555
Mn3 S11 2.618407 1_556
Mn3 S20 2.632239 1_555
Mn4 S11 2.519698 1_445
Mn4 S3 2.525536 1_555
Mn4 S14 2.605974 1_544
Mn4 S5 2.608231 1_554
Mn4 S7 2.624679 1_555
Mn4 S19 2.627966 1_555
Mn5 S19 2.517830 1_555
Mn5 S7 2.530421 1_655
Mn5 S3 2.545564 1_555
Mn5 S11 2.560028 1_545
Mn5 S12 2.732709 1_655
Mn5 S15 2.767523 1_555
Ga0 S14 2.224717 1_555
Ga0 S22 2.336910 1_556
Ga0 S6 2.340228 1_555
Ga0 S4 2.354448 1_555
Ga1 S19 2.264900 1_565
Ga1 S18 2.283517 1_555
Ga1 S0 2.356601 1_555
Ga1 S22 2.374035 1_555
Ga2 S7 2.264575 1_555
Ga2 S16 2.284813 1_555
Ga2 S9 2.366272 1_455
Ga2 S13 2.378453 1_555
Ga3 S3 2.228673 1_555
Ga3 S9 2.337813 1_555
Ga3 S8 2.340584 1_554
Ga3 S13 2.351863 1_555
Ga4 S18 2.251732 1_555
Ga4 S12 2.322753 1_565
Ga4 S10 2.331534 1_455
Ga4 S0 2.339362 1_455
Ga5 S5 2.223289 1_555
Ga5 S1 2.334230 1_555
Ga5 S13 2.342379 1_556
Ga5 S8 2.357181 1_455
Ga6 S23 2.250589 1_555
Ga6 S12 2.328249 1_655
Ga6 S1 2.329287 1_655
Ga6 S10 2.330414 1_545
Ga7 S16 2.251015 1_555
Ga7 S15 2.325868 1_555
Ga7 S21 2.327574 1_655
Ga7 S9 2.335765 1_555
Ga8 S2 2.252998 1_555
Ga8 S15 2.324801 1_455
Ga8 S21 2.330704 1_555
Ga8 S6 2.339103 1_555
Ga9 S17 2.258724 1_545
Ga9 S23 2.282590 1_555
Ga9 S1 2.366541 1_555
Ga9 S8 2.374911 1_555
Ga10 S20 2.263737 1_555
Ga10 S2 2.287259 1_555
Ga10 S6 2.351525 1_655
Ga10 S4 2.384175 1_555
Ga11 S11 2.228346 1_555
Ga11 S4 2.339635 1_554
Ga11 S0 2.343826 1_555
Ga11 S22 2.357159 1_655
