# generated using pymatgen
data_Sb2Pb2O7
_symmetry_space_group_name_H-M   'P 1'
_cell_length_a   7.55144632
_cell_length_b   7.55146249
_cell_length_c   7.55146683
_cell_angle_alpha   120.45373827
_cell_angle_beta   116.93501671
_cell_angle_gamma   92.30268073
_symmetry_Int_Tables_number   1
_chemical_formula_structural   Sb2Pb2O7
_chemical_formula_sum   'Sb4 Pb4 O14'
_cell_volume   309.88268738
_cell_formula_units_Z   2
loop_
 _symmetry_equiv_pos_site_id
 _symmetry_equiv_pos_as_xyz
  1  'x, y, z'
loop_
 _atom_site_type_symbol
 _atom_site_label
 _atom_site_symmetry_multiplicity
 _atom_site_fract_x
 _atom_site_fract_y
 _atom_site_fract_z
 _atom_site_occupancy
  Sb  Sb0  1  0.49761266  0.76080784  0.75842004  1
  Sb  Sb1  1  0.50238738  0.26080770  0.26319500  1
  Sb  Sb2  1  0.50000007  0.25899637  0.75899630  1
  Sb  Sb3  1  0.00000015  0.75899650  0.75899655  1
  Pb  Pb0  1  0.04101035  0.24549814  0.78650897  1
  Pb  Pb1  1  0.95898939  0.74549816  0.20448702  1
  Pb  Pb2  1  0.50000004  0.77189734  0.27189750  1
  Pb  Pb3  1  0.00000028  0.27189739  0.27189753  1
  O  O0  1  0.54924385  0.57952403  0.88615326  1
  O  O1  1  0.45075621  0.33691075  0.03027774  1
  O  O2  1  0.80662991  0.83690912  0.88615354  1
  O  O3  1  0.19336869  0.07952339  0.03028063  1
  O  O4  1  0.19658735  0.17636020  0.55157272  1
  O  O5  1  0.80341284  0.35498313  0.97977186  1
  O  O6  1  0.87521265  0.85498537  0.55157382  1
  O  O7  1  0.12478806  0.67636112  0.97977249  1
  O  O8  1  0.53975540  0.17535315  0.48270404  1
  O  O9  1  0.46024481  0.94294824  0.63559790  1
  O  O10  1  0.80735004  0.44294808  0.48270275  1
  O  O11  1  0.19264942  0.67535382  0.63559746  1
  O  O12  1  0.59142434  0.01002823  0.10144968  1
  O  O13  1  0.40857610  0.51002592  0.41860320  1
loop_
_geom_bond_atom_site_label_1
_geom_bond_atom_site_label_2
_geom_bond_distance
_geom_bond_site_symmetry_2
O0 Sb0 1.999293 1_555
O0 Sb2 2.041348 1_555
O0 Pb1 2.611345 1_556
O0 Pb2 2.732953 1_556
O1 Sb1 1.999315 1_555
O1 Sb2 2.041330 1_554
O1 Pb0 2.611345 1_554
O1 Pb2 2.732942 1_555
O2 Sb0 1.999288 1_555
O2 Sb3 2.041343 1_655
O2 Pb1 2.611345 1_556
O2 Pb3 2.732951 1_666
O3 Sb1 1.999297 1_555
O3 Sb3 2.041340 1_544
O3 Pb0 2.611355 1_554
O3 Pb3 2.732934 1_555
O4 Sb2 1.932728 1_555
O4 Pb0 2.408096 1_555
O4 Pb3 2.444344 1_555
O4 Pb1 2.702039 1_445
O5 Sb2 1.932729 1_555
O5 Pb1 2.408106 1_556
O5 Pb3 2.444340 1_656
O5 Pb0 2.702028 1_655
O6 Sb3 1.932727 1_655
O6 Pb0 2.408093 1_665
O6 Pb2 2.444342 1_555
O6 Pb1 2.702053 1_555
O7 Sb3 1.932725 1_555
O7 Pb1 2.408096 1_456
O7 Pb2 2.444340 1_556
O7 Pb0 2.702048 1_555
O8 Sb1 1.979625 1_555
O8 Sb2 2.022132 1_555
O8 Pb2 2.546310 1_545
O9 Sb0 1.979618 1_555
O9 Sb2 2.022135 1_565
O9 Pb2 2.546310 1_555
O10 Sb1 1.979613 1_555
O10 Sb3 2.022137 1_655
O10 Pb3 2.546308 1_655
O11 Sb0 1.979616 1_555
O11 Sb3 2.022133 1_555
O11 Pb3 2.546311 1_555
O12 Sb1 2.007939 1_555
O12 Sb0 2.010566 1_544
O13 Sb0 2.007942 1_555
O13 Sb1 2.010563 1_555
