# generated using pymatgen
data_Rb5(W4O15)2
_symmetry_space_group_name_H-M   'P 1'
_cell_length_a   7.45378000
_cell_length_b   10.58777422
_cell_length_c   19.79678180
_cell_angle_alpha   104.78681328
_cell_angle_beta   100.55260771
_cell_angle_gamma   90.31911261
_symmetry_Int_Tables_number   1
_chemical_formula_structural   Rb5(W4O15)2
_chemical_formula_sum   'Rb10 W16 O60'
_cell_volume   1482.80058535
_cell_formula_units_Z   2
loop_
 _symmetry_equiv_pos_site_id
 _symmetry_equiv_pos_as_xyz
  1  'x, y, z'
loop_
 _atom_site_type_symbol
 _atom_site_label
 _atom_site_symmetry_multiplicity
 _atom_site_fract_x
 _atom_site_fract_y
 _atom_site_fract_z
 _atom_site_occupancy
  Rb  Rb0  1  0.74723500  0.37055100  0.00125100  1
  Rb  Rb1  1  0.25276500  0.62944900  0.99874900  1
  Rb  Rb2  1  0.16017000  0.77946800  0.80564500  1
  Rb  Rb3  1  0.54978100  0.18205900  0.59552900  1
  Rb  Rb4  1  0.66227700  0.02409600  0.81303200  1
  Rb  Rb5  1  0.03998100  0.42975900  0.59816400  1
  Rb  Rb6  1  0.96001900  0.57024100  0.40183600  1
  Rb  Rb7  1  0.33772300  0.97590400  0.18696800  1
  Rb  Rb8  1  0.45021900  0.81794100  0.40447100  1
  Rb  Rb9  1  0.83983000  0.22053200  0.19435500  1
  W  W0  1  0.00000000  0.00000000  0.00000000  1
  W  W1  1  0.20605900  0.21465500  0.90748600  1
  W  W2  1  0.50000000  0.00000000  0.00000000  1
  W  W3  1  0.62436500  0.61628900  0.70796000  1
  W  W4  1  0.89694500  0.40685200  0.80683800  1
  W  W5  1  0.00000000  0.00000000  0.50000000  1
  W  W6  1  0.40056200  0.41061200  0.79989900  1
  W  W7  1  0.32874400  0.80710100  0.60272400  1
  W  W8  1  0.67125600  0.19289900  0.39727600  1
  W  W9  1  0.10048400  0.10851500  0.70749800  1
  W  W10  1  0.10305500  0.59314800  0.19316200  1
  W  W11  1  0.50000000  0.50000000  0.50000000  1
  W  W12  1  0.37563500  0.38371100  0.29204000  1
  W  W13  1  0.59943800  0.58938800  0.20010100  1
  W  W14  1  0.89951600  0.89148500  0.29250200  1
  W  W15  1  0.79394100  0.78534500  0.09251400  1
  O  O0  1  0.36279700  0.28935500  0.85957100  1
  O  O1  1  0.74399300  0.04514800  0.98712700  1
  O  O2  1  0.95208300  0.85106300  0.92173600  1
  O  O3  1  0.80421400  0.68582400  0.67411000  1
  O  O4  1  0.92305000  0.54725400  0.87968800  1
  O  O5  1  0.98816800  0.28924700  0.86500300  1
  O  O6  1  0.13718200  0.43214900  0.78442700  1
  O  O7  1  0.24991600  0.34244200  0.98664300  1
  O  O8  1  0.25600700  0.95485200  0.01287300  1
  O  O9  1  0.14094100  0.07568000  0.79671800  1
  O  O10  1  0.39608000  0.09906900  0.93104100  1
  O  O11  1  0.24233300  0.94235600  0.67411200  1
  O  O12  1  0.30168200  0.22089000  0.71652600  1
  O  O13  1  0.21194000  0.09487800  0.49625500  1
  O  O14  1  0.47816400  0.85001900  0.92361000  1
  O  O15  1  0.40824600  0.70838200  0.66923400  1
  O  O16  1  0.44577700  0.54721300  0.87465700  1
  O  O17  1  0.65263900  0.73736400  0.79102400  1
  O  O18  1  0.52468000  0.90570100  0.60518300  1
  O  O19  1  0.64754400  0.34513300  0.80566200  1
  O  O20  1  0.57903200  0.50433600  0.60015600  1
  O  O21  1  0.79099300  0.48469500  0.73151700  1
  O  O22  1  0.64619700  0.34454600  0.47522700  1
  O  O23  1  0.69419100  0.60876000  0.49364400  1
  O  O24  1  0.56666100  0.50880700  0.27326600  1
  O  O25  1  0.83015700  0.13099300  0.47541000  1
  O  O26  1  0.03719800  0.10195000  0.93362100  1
  O  O27  1  0.93745700  0.94106000  0.66103900  1
  O  O28  1  0.91426900  0.22038800  0.72021300  1
  O  O29  1  0.93737700  0.28114000  0.42653500  1
  O  O30  1  0.03703200  0.09647100  0.59939500  1
  O  O31  1  0.06262300  0.71886000  0.57346500  1
  O  O32  1  0.96296800  0.90352900  0.40060500  1
  O  O33  1  0.16984300  0.86900700  0.52459000  1
  O  O34  1  0.08573100  0.77961200  0.27978700  1
  O  O35  1  0.06254300  0.05894000  0.33896100  1
  O  O36  1  0.96280200  0.89805000  0.06637900  1
  O  O37  1  0.43333900  0.49119300  0.72673400  1
  O  O38  1  0.35380300  0.65545400  0.52477300  1
  O  O39  1  0.30580900  0.39124000  0.50635600  1
  O  O40  1  0.20900700  0.51530500  0.26848300  1
  O  O41  1  0.42096800  0.49566400  0.39984400  1
  O  O42  1  0.35245600  0.65486700  0.19433800  1
  O  O43  1  0.47532000  0.09429900  0.39481700  1
  O  O44  1  0.34736100  0.26263600  0.20897600  1
  O  O45  1  0.59175400  0.29161800  0.33076600  1
  O  O46  1  0.52183600  0.14998100  0.07639000  1
  O  O47  1  0.55422300  0.45278700  0.12534300  1
  O  O48  1  0.78806000  0.90512200  0.50374500  1
  O  O49  1  0.75766700  0.05764400  0.32588800  1
  O  O50  1  0.60392000  0.90093100  0.06895900  1
  O  O51  1  0.69831800  0.77911000  0.28347400  1
  O  O52  1  0.85905900  0.92432000  0.20328200  1
  O  O53  1  0.86281800  0.56785100  0.21557300  1
  O  O54  1  0.75008400  0.65755800  0.01335700  1
  O  O55  1  0.01183200  0.71075300  0.13499700  1
  O  O56  1  0.07695000  0.45274600  0.12031200  1
  O  O57  1  0.19578600  0.31417600  0.32589000  1
  O  O58  1  0.04791700  0.14893700  0.07826400  1
  O  O59  1  0.63720300  0.71064500  0.14042900  1
loop_
_geom_bond_atom_site_label_1
_geom_bond_atom_site_label_2
_geom_bond_distance
_geom_bond_site_symmetry_2
O0 W1 1.915404 1_555
O0 W6 2.003725 1_555
O1 W2 1.955317 1_556
O1 W0 1.956776 1_656
O2 W0 1.886446 1_666
O2 Rb2 2.948160 1_655
O3 W3 1.832498 1_555
O3 Rb2 3.305378 1_655
O4 W4 1.768405 1_555
O4 Rb1 3.026589 1_655
O5 W4 1.947623 1_555
O5 W1 1.954947 1_655
O6 W6 1.954551 1_555
O6 W4 1.954839 1_455
O7 W1 1.765863 1_555
O7 Rb1 2.986245 1_555
O8 W2 1.955317 1_565
O8 W0 1.956776 1_565
O9 W9 1.857691 1_555
O9 W1 2.272548 1_555
O9 Rb2 3.188469 1_545
O10 W1 1.946776 1_555
O10 W2 1.979034 1_556
O11 W7 1.942553 1_555
O11 W9 2.081555 1_565
O12 W9 1.862802 1_555
O12 W6 2.268923 1_555
O12 Rb3 3.233391 1_555
O13 W5 1.890363 1_555
O13 Rb3 2.879436 1_555
O14 W2 1.875170 1_566
O14 Rb2 2.948258 1_555
O15 W7 1.897601 1_555
O15 W3 2.019956 1_555
O15 Rb2 3.476402 1_555
O16 W6 1.764923 1_555
O16 Rb1 3.013223 1_555
O17 W3 1.784885 1_555
O17 Rb4 2.953361 1_565
O18 W7 1.776570 1_555
O18 Rb3 2.987566 1_565
O19 W4 1.961178 1_555
O19 W6 1.964791 1_555
O20 W11 1.950874 1_555
O20 W3 2.124619 1_555
O20 Rb3 3.394682 1_555
O21 W4 1.931225 1_555
O21 W3 1.959621 1_555
O22 W8 1.959189 1_555
O22 W11 1.985127 1_555
O22 Rb3 3.442776 1_555
O23 W11 1.886553 1_555
O23 Rb6 2.888836 1_555
O23 Rb8 3.491895 1_555
O24 W13 1.908830 1_555
O24 W12 2.084202 1_555
O25 W5 1.975268 1_655
O25 W8 2.019942 1_555
O25 Rb3 3.389859 1_555
O26 W1 1.952638 1_555
O26 W0 1.955258 1_556
O27 W9 2.049453 1_665
O28 W9 1.840386 1_655
O28 W4 2.282748 1_555
O28 Rb3 3.264754 1_555
O29 W8 2.103654 1_555
O29 Rb6 3.228830 1_555
O29 Rb5 3.303191 1_655
O30 W5 1.939930 1_555
O30 W9 2.075869 1_555
O31 W7 2.103654 1_555
O31 Rb5 3.228830 1_555
O31 Rb6 3.303191 1_455
O32 W5 1.939930 1_665
O32 W14 2.075869 1_555
O33 W5 1.975268 1_565
O33 W7 2.019942 1_555
O33 Rb8 3.389859 1_555
O34 W14 1.840386 1_455
O34 W10 2.282748 1_555
O34 Rb8 3.264754 1_555
O35 W14 2.049453 1_445
O36 W15 1.952638 1_555
O36 W0 1.955258 1_665
O37 W6 1.908830 1_555
O37 W3 2.084202 1_555
O38 W7 1.959189 1_555
O38 W11 1.985127 1_555
O38 Rb8 3.442776 1_555
O39 W11 1.886553 1_555
O39 Rb5 2.888836 1_555
O39 Rb3 3.491895 1_555
O40 W10 1.931225 1_555
O40 W12 1.959621 1_555
O41 W11 1.950874 1_555
O41 W12 2.124619 1_555
O41 Rb8 3.394682 1_555
O42 W10 1.961178 1_555
O42 W13 1.964791 1_555
O43 W8 1.776570 1_555
O43 Rb8 2.987566 1_545
O44 W12 1.784885 1_555
O44 Rb7 2.953361 1_545
O45 W8 1.897601 1_555
O45 W12 2.019956 1_555
O45 Rb9 3.476402 1_555
O46 W2 1.875170 1_555
O46 Rb9 2.948258 1_555
O47 W13 1.764923 1_555
O47 Rb0 3.013223 1_555
O48 W5 1.890363 1_665
O48 Rb8 2.879436 1_555
O49 W8 1.942553 1_555
O49 W14 2.081555 1_545
O50 W15 1.946776 1_555
O50 W2 1.979034 1_565
O51 W14 1.862802 1_555
O51 W13 2.268923 1_555
O51 Rb8 3.233391 1_555
O52 W14 1.857691 1_555
O52 W15 2.272548 1_555
O52 Rb9 3.188469 1_565
O53 W13 1.954551 1_555
O53 W10 1.954839 1_655
O54 W15 1.765863 1_555
O54 Rb0 2.986245 1_555
O55 W10 1.947623 1_555
O55 W15 1.954947 1_455
O56 W10 1.768405 1_555
O56 Rb0 3.026589 1_455
O57 W12 1.832498 1_555
O57 Rb9 3.305378 1_455
O58 W0 1.886446 1_555
O58 Rb9 2.948160 1_455
O59 W15 1.915404 1_555
O59 W13 2.003725 1_555
