# generated using pymatgen
data_Yb5(InSb3)2
_symmetry_space_group_name_H-M   'P 1'
_cell_length_a   4.54652600
_cell_length_b   7.45771100
_cell_length_c   23.15854600
_cell_angle_alpha   90.00000000
_cell_angle_beta   90.00000000
_cell_angle_gamma   90.00000000
_symmetry_Int_Tables_number   1
_chemical_formula_structural   Yb5(InSb3)2
_chemical_formula_sum   'Yb10 In4 Sb12'
_cell_volume   785.22933813
_cell_formula_units_Z   2
loop_
 _symmetry_equiv_pos_site_id
 _symmetry_equiv_pos_as_xyz
  1  'x, y, z'
loop_
 _atom_site_type_symbol
 _atom_site_label
 _atom_site_symmetry_multiplicity
 _atom_site_fract_x
 _atom_site_fract_y
 _atom_site_fract_z
 _atom_site_occupancy
  Yb  Yb0  1  0.50000000  0.04148200  0.91025600  1
  Yb  Yb1  1  0.50000000  0.54148200  0.58974400  1
  Yb  Yb2  1  0.50000000  0.95851800  0.08974400  1
  Yb  Yb3  1  0.50000000  0.23091200  0.74433900  1
  Yb  Yb4  1  0.50000000  0.45851800  0.41025600  1
  Yb  Yb5  1  0.50000000  0.50000000  0.00000000  1
  Yb  Yb6  1  0.50000000  0.26908800  0.24433900  1
  Yb  Yb7  1  0.50000000  0.76908800  0.25566100  1
  Yb  Yb8  1  0.50000000  0.73091200  0.75566100  1
  Yb  Yb9  1  0.50000000  0.00000000  0.50000000  1
  In  In0  1  0.00000000  0.32309500  0.12010700  1
  In  In1  1  0.00000000  0.67690500  0.87989300  1
  In  In2  1  0.00000000  0.82309500  0.37989300  1
  In  In3  1  0.00000000  0.17690500  0.62010700  1
  Sb  Sb0  1  0.00000000  0.69729900  0.50126300  1
  Sb  Sb1  1  0.50000000  0.04882300  0.36300100  1
  Sb  Sb2  1  0.00000000  0.00463600  0.18981800  1
  Sb  Sb3  1  0.00000000  0.50463600  0.31018200  1
  Sb  Sb4  1  0.00000000  0.99536400  0.81018200  1
  Sb  Sb5  1  0.00000000  0.49536400  0.68981800  1
  Sb  Sb6  1  0.50000000  0.45117700  0.86300100  1
  Sb  Sb7  1  0.00000000  0.19729900  0.99873700  1
  Sb  Sb8  1  0.50000000  0.54882300  0.13699900  1
  Sb  Sb9  1  0.00000000  0.30270100  0.49873700  1
  Sb  Sb10  1  0.00000000  0.80270100  0.00126300  1
  Sb  Sb11  1  0.50000000  0.95117700  0.63699900  1
loop_
_geom_bond_atom_site_label_1
_geom_bond_atom_site_label_2
_geom_bond_distance
_geom_bond_site_symmetry_2
In0 Sb8 2.855633 1_455
In0 Sb8 2.855633 1_555
In0 Sb2 2.871726 1_555
In0 Sb7 2.963184 1_554
In0 Yb2 3.613120 1_445
In0 Yb2 3.613120 1_545
In1 Sb6 2.855633 1_455
In1 Sb6 2.855633 1_555
In1 Sb4 2.871726 1_555
In1 Sb10 2.963184 1_556
In1 Yb0 3.613120 1_465
In1 Yb0 3.613120 1_565
In2 Sb1 2.855633 1_465
In2 Sb1 2.855633 1_565
In2 Sb3 2.871726 1_555
In2 Sb0 2.963184 1_555
In2 Yb4 3.613120 1_455
In2 Yb4 3.613120 1_555
In3 Sb11 2.855633 1_445
In3 Sb11 2.855633 1_545
In3 Sb5 2.871726 1_555
In3 Sb9 2.963184 1_555
In3 Yb1 3.613120 1_455
In3 Yb1 3.613120 1_555
Sb0 Sb9 2.943379 1_555
Sb0 Yb9 3.203856 1_565
Sb0 Yb9 3.203856 1_465
Sb0 Yb1 3.273657 1_455
Sb0 Yb1 3.273657 1_555
Sb0 Yb4 3.575020 1_555
Sb0 Yb4 3.575020 1_455
Sb1 Yb9 3.193522 1_555
Sb1 Yb6 3.201577 1_555
Sb1 Yb7 3.245235 1_545
Sb1 Yb4 3.245459 1_555
Sb2 Yb7 3.252482 1_445
Sb2 Yb7 3.252482 1_545
Sb2 Yb6 3.263671 1_555
Sb2 Yb6 3.263671 1_455
Sb2 Yb2 3.264527 1_445
Sb2 Yb2 3.264527 1_545
Sb3 Yb6 3.252482 1_455
Sb3 Yb6 3.252482 1_555
Sb3 Yb7 3.263671 1_555
Sb3 Yb7 3.263671 1_455
Sb3 Yb4 3.264527 1_455
Sb3 Yb4 3.264527 1_555
Sb4 Yb3 3.252482 1_565
Sb4 Yb3 3.252482 1_465
Sb4 Yb8 3.263671 1_455
Sb4 Yb8 3.263671 1_555
Sb4 Yb0 3.264527 1_565
Sb4 Yb0 3.264527 1_465
Sb5 Yb8 3.252482 1_455
Sb5 Yb8 3.252482 1_555
Sb5 Yb3 3.263671 1_455
Sb5 Yb3 3.263671 1_555
Sb5 Yb1 3.264527 1_555
Sb5 Yb1 3.264527 1_455
Sb6 Yb5 3.193522 1_556
Sb6 Yb3 3.201577 1_555
Sb6 Yb8 3.245235 1_555
Sb6 Yb0 3.245459 1_555
Sb7 Yb5 3.203856 1_556
Sb7 Yb5 3.203856 1_456
Sb7 Yb0 3.273657 1_455
Sb7 Yb0 3.273657 1_555
Sb7 Yb2 3.575020 1_546
Sb7 Yb2 3.575020 1_446
Sb8 Yb5 3.193522 1_555
Sb8 Yb7 3.201577 1_555
Sb8 Yb6 3.245235 1_555
Sb8 Yb2 3.245459 1_555
Sb9 Yb9 3.203856 1_455
Sb9 Yb9 3.203856 1_555
Sb9 Yb4 3.273657 1_455
Sb9 Yb4 3.273657 1_555
Sb9 Yb1 3.575020 1_555
Sb9 Yb1 3.575020 1_455
Sb10 Sb7 2.943379 1_564
Sb10 Yb5 3.203856 1_555
Sb10 Yb5 3.203856 1_455
Sb10 Yb2 3.273657 1_455
Sb10 Yb2 3.273657 1_555
Sb10 Yb0 3.575020 1_564
Sb10 Yb0 3.575020 1_464
Sb11 Yb9 3.193522 1_565
Sb11 Yb8 3.201577 1_555
Sb11 Yb3 3.245235 1_565
Sb11 Yb1 3.245459 1_555
