# generated using pymatgen
data_V6Cu5Te12
_symmetry_space_group_name_H-M   'P 1'
_cell_length_a   7.83715400
_cell_length_b   9.01913468
_cell_length_c   15.56370279
_cell_angle_alpha   85.81848898
_cell_angle_beta   81.56709433
_cell_angle_gamma   86.27387103
_symmetry_Int_Tables_number   1
_chemical_formula_structural   V6Cu5Te12
_chemical_formula_sum   'V12 Cu10 Te24'
_cell_volume   1083.67449185
_cell_formula_units_Z   2
loop_
 _symmetry_equiv_pos_site_id
 _symmetry_equiv_pos_as_xyz
  1  'x, y, z'
loop_
 _atom_site_type_symbol
 _atom_site_label
 _atom_site_symmetry_multiplicity
 _atom_site_fract_x
 _atom_site_fract_y
 _atom_site_fract_z
 _atom_site_occupancy
  V  V0  1  0.87360000  0.40345200  0.42877500  1
  V  V1  1  0.37365900  0.04488600  0.54401300  1
  V  V2  1  0.95044700  0.66704400  0.71255100  1
  V  V3  1  0.07659400  0.65254300  0.86579300  1
  V  V4  1  0.59588700  0.30868500  0.73313900  1
  V  V5  1  0.87263000  0.99893800  0.09825000  1
  V  V6  1  0.12737000  0.00106200  0.90175000  1
  V  V7  1  0.40411300  0.69131500  0.26686100  1
  V  V8  1  0.92340600  0.34745700  0.13420700  1
  V  V9  1  0.04955300  0.33295600  0.28744900  1
  V  V10  1  0.62634100  0.95511400  0.45598700  1
  V  V11  1  0.12640000  0.59654800  0.57122500  1
  Cu  Cu0  1  0.50839500  0.77153500  0.59211500  1
  Cu  Cu1  1  0.12974800  0.40983600  0.73842700  1
  Cu  Cu2  1  0.01104500  0.91526100  0.60634600  1
  Cu  Cu3  1  0.33586800  0.61290600  0.71363100  1
  Cu  Cu4  1  0.99397700  0.68420600  0.06786100  1
  Cu  Cu5  1  0.00602300  0.31579400  0.93213900  1
  Cu  Cu6  1  0.66413200  0.38709400  0.28636900  1
  Cu  Cu7  1  0.98895500  0.08473900  0.39365400  1
  Cu  Cu8  1  0.87025200  0.59016400  0.26157300  1
  Cu  Cu9  1  0.49160500  0.22846500  0.40788500  1
  Te  Te0  1  0.93794500  0.81299300  0.46948400  1
  Te  Te1  1  0.64750600  0.05564700  0.62133100  1
  Te  Te2  1  0.37354000  0.36474700  0.60411800  1
  Te  Te3  1  0.78742200  0.50225100  0.60648100  1
  Te  Te4  1  0.93987500  0.18413000  0.79069000  1
  Te  Te5  1  0.17107000  0.87514000  0.73553800  1
  Te  Te6  1  0.46227200  0.08447100  0.84803600  1
  Te  Te7  1  0.61397400  0.77950700  0.75605000  1
  Te  Te8  1  0.30292600  0.75712900  0.96252800  1
  Te  Te9  1  0.78713500  0.50908700  0.85817900  1
  Te  Te10  1  0.83299000  0.85147100  0.95381000  1
  Te  Te11  1  0.34056100  0.43484500  0.86406500  1
  Te  Te12  1  0.65943900  0.56515500  0.13593500  1
  Te  Te13  1  0.16701000  0.14852900  0.04619000  1
  Te  Te14  1  0.69707400  0.24287100  0.03747200  1
  Te  Te15  1  0.21286500  0.49091300  0.14182100  1
  Te  Te16  1  0.38602600  0.22049300  0.24395000  1
  Te  Te17  1  0.53772800  0.91552900  0.15196400  1
  Te  Te18  1  0.82893000  0.12486000  0.26446200  1
  Te  Te19  1  0.06012500  0.81587000  0.20931000  1
  Te  Te20  1  0.21257800  0.49774900  0.39351900  1
  Te  Te21  1  0.35249400  0.94435300  0.37866900  1
  Te  Te22  1  0.62646000  0.63525300  0.39588200  1
  Te  Te23  1  0.06205500  0.18700700  0.53051600  1
loop_
_geom_bond_atom_site_label_1
_geom_bond_atom_site_label_2
_geom_bond_distance
_geom_bond_site_symmetry_2
V0 V9 2.518776 1_655
V1 V10 2.368909 1_545
V2 V3 2.704084 1_655
V8 V9 2.704084 1_655
V11 V2 2.518776 1_455
Cu0 Cu3 2.561000 1_555
Cu0 V10 2.682819 1_555
Cu0 V1 2.716242 1_565
Cu0 Te7 2.802381 1_555
Cu0 Te1 2.939374 1_565
Cu0 Te3 3.178762 1_555
Cu0 Te5 3.331230 1_555
Cu0 Te22 3.356387 1_555
Cu0 V11 3.540269 1_555
Cu1 Cu3 2.492289 1_555
Cu1 Te4 2.610969 1_455
Cu1 Te2 2.652736 1_555
Cu1 V2 2.669137 1_455
Cu1 Te11 2.768471 1_555
Cu1 V11 2.997260 1_555
Cu1 V3 3.027677 1_555
Cu1 Cu5 3.102524 1_555
Cu1 Te9 3.154029 1_455
Cu2 Te5 2.514215 1_555
Cu2 Te0 2.535613 1_455
Cu2 Te23 2.669606 1_565
Cu2 V2 2.708847 1_455
Cu2 V11 3.020823 1_555
Cu2 Te1 3.025605 1_465
Cu2 V1 3.137187 1_565
Cu3 Te5 2.639994 1_555
Cu3 Te11 2.744344 1_555
Cu3 Te2 2.885226 1_555
Cu3 Te7 2.904568 1_555
Cu3 V3 2.912514 1_555
Cu3 V11 2.962319 1_555
Cu3 V2 3.030634 1_455
Cu3 V4 3.332655 1_555
Cu4 Te10 2.652820 1_554
Cu4 Te15 2.684184 1_655
Cu4 Te19 2.705801 1_655
Cu4 Te8 2.805036 1_654
Cu4 Te12 2.921413 1_555
Cu4 V5 2.983089 1_555
Cu4 Cu8 3.102524 1_555
Cu4 V3 3.146592 1_654
Cu4 V8 3.192193 1_555
Cu5 Te13 2.652820 1_556
Cu5 Te9 2.684184 1_455
Cu5 Te4 2.705801 1_455
Cu5 Te14 2.805036 1_456
Cu5 Te11 2.921413 1_555
Cu5 V6 2.983089 1_555
Cu5 V8 3.146592 1_456
Cu5 V3 3.192193 1_555
Cu6 Cu8 2.492289 1_555
Cu6 Cu9 2.561000 1_555
Cu6 Te18 2.639994 1_555
Cu6 Te12 2.744344 1_555
Cu6 Te22 2.885226 1_555
Cu6 Te16 2.904568 1_555
Cu6 V8 2.912514 1_555
Cu6 V0 2.962319 1_555
Cu6 V9 3.030634 1_655
Cu6 V7 3.332655 1_555
Cu7 Te18 2.514215 1_555
Cu7 Te23 2.535613 1_655
Cu7 Te0 2.669606 1_545
Cu7 V9 2.708847 1_655
Cu7 V0 3.020823 1_555
Cu7 Te21 3.025605 1_645
Cu7 V10 3.137187 1_545
Cu8 Te19 2.610969 1_655
Cu8 Te22 2.652736 1_555
Cu8 V9 2.669137 1_655
Cu8 Te12 2.768471 1_555
Cu8 V0 2.997260 1_555
Cu8 V8 3.027677 1_555
Cu8 Te15 3.154029 1_655
Cu9 V1 2.682819 1_555
Cu9 V10 2.716242 1_545
Cu9 Te16 2.802381 1_555
Cu9 Te21 2.939374 1_545
Cu9 Te20 3.178762 1_555
Cu9 Te18 3.331230 1_555
Cu9 Te2 3.356387 1_555
Cu9 V0 3.540269 1_555
Te0 V10 2.712064 1_555
Te0 V11 2.891373 1_655
Te1 V1 2.620146 1_555
Te1 V10 2.820795 1_545
Te1 V4 2.941565 1_555
Te2 V11 2.827152 1_555
Te2 V4 2.843971 1_555
Te2 V1 3.096853 1_555
Te3 V2 2.791058 1_555
Te3 V11 2.807151 1_655
Te3 V4 2.856189 1_555
Te3 V0 2.938185 1_555
Te4 V6 2.808299 1_655
Te4 V4 3.082199 1_555
Te5 V2 2.709488 1_455
Te5 V3 2.801424 1_555
Te5 V6 2.866545 1_565
Te5 V1 3.465890 1_565
Te6 V4 2.753597 1_555
Te6 V6 2.770395 1_555
Te7 V2 2.769435 1_555
Te8 V6 2.704229 1_565
Te8 V3 2.740562 1_555
Te9 V3 2.705003 1_655
Te9 V2 2.778501 1_555
Te9 V4 3.319827 1_555
Te10 V6 2.737952 1_665
Te10 V5 2.759284 1_556
Te10 V3 2.808307 1_655
Te11 V3 2.756631 1_555
Te11 V4 2.880500 1_555
Te12 V8 2.756631 1_555
Te12 V7 2.880500 1_555
Te13 V5 2.737952 1_445
Te13 V6 2.759284 1_554
Te13 V8 2.808307 1_455
Te14 V5 2.704229 1_545
Te14 V8 2.740562 1_555
Te15 V8 2.705003 1_455
Te15 V9 2.778501 1_555
Te15 V7 3.319827 1_555
Te16 V9 2.769435 1_555
Te17 V7 2.753597 1_555
Te17 V5 2.770395 1_555
Te18 V9 2.709488 1_655
Te18 V8 2.801424 1_555
Te18 V5 2.866545 1_545
Te18 V10 3.465890 1_545
Te19 V5 2.808299 1_455
Te19 V7 3.082199 1_555
Te20 V9 2.791058 1_555
Te20 V0 2.807151 1_455
Te20 V7 2.856189 1_555
Te20 V11 2.938185 1_555
Te21 V10 2.620146 1_555
Te21 V1 2.820795 1_565
Te21 V7 2.941565 1_555
Te22 V0 2.827152 1_555
Te22 V7 2.843971 1_555
Te22 V10 3.096853 1_555
Te23 V1 2.712064 1_555
Te23 V0 2.891373 1_455
