# generated using pymatgen
data_KMgH5(SO5)2
_symmetry_space_group_name_H-M   'P 1'
_cell_length_a   5.82207200
_cell_length_b   6.24873195
_cell_length_c   6.65014184
_cell_angle_alpha   103.58609943
_cell_angle_beta   98.49839233
_cell_angle_gamma   100.64290715
_symmetry_Int_Tables_number   1
_chemical_formula_structural   KMgH5(SO5)2
_chemical_formula_sum   'K1 Mg1 H5 S2 O10'
_cell_volume   226.44575095
_cell_formula_units_Z   1
loop_
 _symmetry_equiv_pos_site_id
 _symmetry_equiv_pos_as_xyz
  1  'x, y, z'
loop_
 _atom_site_type_symbol
 _atom_site_label
 _atom_site_symmetry_multiplicity
 _atom_site_fract_x
 _atom_site_fract_y
 _atom_site_fract_z
 _atom_site_occupancy
  K  K0  1  0.31292600  0.28315300  0.51719200  1
  Mg  Mg0  1  0.03416000  0.87451700  0.94785500  1
  H  H0  1  0.60080800  0.66999100  0.19738000  1
  H  H1  1  0.46858700  0.96735700  0.23291000  1
  H  H2  1  0.30097600  0.77843600  0.29918900  1
  H  H3  1  0.45204100  0.09528500  0.88848900  1
  H  H4  1  0.39776000  0.45158900  0.95730500  1
  S  S0  1  0.88125100  0.68752900  0.47415400  1
  S  S1  1  0.90240300  0.36704200  0.22471900  1
  O  O0  1  0.05128000  0.66996600  0.66557200  1
  O  O1  1  0.25140700  0.32286300  0.89254200  1
  O  O2  1  0.29987400  0.89167400  0.21927800  1
  O  O3  1  0.31669200  0.14391500  0.98039600  1
  O  O4  1  0.62265100  0.61342600  0.48392900  1
  O  O5  1  0.58983500  0.04598000  0.73990500  1
  O  O6  1  0.82907700  0.62234600  0.01739400  1
  O  O7  1  0.80951100  0.04635700  0.82927100  1
  O  O8  1  0.59962400  0.67253100  0.04800800  1
  O  O9  1  0.79413700  0.18104000  0.32151100  1
loop_
_geom_bond_atom_site_label_1
_geom_bond_atom_site_label_2
_geom_bond_distance
_geom_bond_site_symmetry_2
K0 O1 2.535075 1_555
K0 O4 2.552953 1_555
Mg0 O6 1.983200 1_456
Mg0 O7 2.024178 1_465
Mg0 O0 2.035370 1_555
Mg0 O3 2.070566 1_565
Mg0 O2 2.164546 1_556
H0 O8 0.996222 1_555
H1 O2 0.989272 1_555
H2 O2 0.980035 1_555
H3 O3 1.109237 1_555
H3 O5 1.377476 1_555
H4 O1 1.016934 1_555
H4 O8 1.565584 1_556
O0 S0 1.531575 1_455
O4 S0 1.506980 1_555
O5 O7 1.327604 1_555
O9 S1 1.537310 1_555
