# generated using pymatgen
data_BaH4(CO2)3
_symmetry_space_group_name_H-M   'P 1'
_cell_length_a   10.71447654
_cell_length_b   10.71447654
_cell_length_c   10.71447654
_cell_angle_alpha   96.37232984
_cell_angle_beta   96.37232984
_cell_angle_gamma   141.07982784
_symmetry_Int_Tables_number   1
_chemical_formula_structural   BaH4(CO2)3
_chemical_formula_sum   'Ba4 H16 C12 O24'
_cell_volume   728.60133780
_cell_formula_units_Z   4
loop_
 _symmetry_equiv_pos_site_id
 _symmetry_equiv_pos_as_xyz
  1  'x, y, z'
loop_
 _atom_site_type_symbol
 _atom_site_label
 _atom_site_symmetry_multiplicity
 _atom_site_fract_x
 _atom_site_fract_y
 _atom_site_fract_z
 _atom_site_occupancy
  Ba  Ba0  1  0.02211400  0.16791000  0.80308100  1
  Ba  Ba1  1  0.36482900  0.21903300  0.19691900  1
  Ba  Ba2  1  0.78096700  0.97788600  0.14579700  1
  Ba  Ba3  1  0.83209000  0.63517100  0.85420300  1
  H  H0  1  0.35299100  0.35619300  0.55314300  1
  H  H1  1  0.80305000  0.79984800  0.44685700  1
  H  H2  1  0.20015200  0.64700900  0.00320200  1
  H  H3  1  0.64380700  0.19695000  0.99679800  1
  H  H4  1  0.38483100  0.11202900  0.82218500  1
  H  H5  1  0.28984400  0.56264600  0.17781500  1
  H  H6  1  0.43735400  0.61516900  0.72719800  1
  H  H7  1  0.88797100  0.71015600  0.27280200  1
  H  H8  1  0.44776200  0.81160200  0.43012000  1
  H  H9  1  0.38148200  0.01764100  0.56988000  1
  H  H10  1  0.98235900  0.55223800  0.36384100  1
  H  H11  1  0.18839800  0.61851800  0.63615900  1
  H  H12  1  0.90105400  0.12602000  0.47604600  1
  H  H13  1  0.64997400  0.42500800  0.52395400  1
  H  H14  1  0.57499200  0.09894600  0.22496600  1
  H  H15  1  0.87398000  0.35002600  0.77503400  1
  C  C0  1  0.20286400  0.27119000  0.48851700  1
  C  C1  1  0.78267300  0.71434700  0.51148300  1
  C  C2  1  0.28565300  0.79713600  0.06832600  1
  C  C3  1  0.72881000  0.21732700  0.93167400  1
  C  C4  1  0.32290700  0.15793300  0.83997100  1
  C  C5  1  0.31796200  0.48293600  0.16002900  1
  C  C6  1  0.51706400  0.67709300  0.83502600  1
  C  C7  1  0.84206700  0.68203800  0.16497400  1
  C  C8  1  0.61002400  0.91753500  0.48680600  1
  C  C9  1  0.43072900  0.12321800  0.51319400  1
  C  C10  1  0.87678200  0.38997600  0.30751100  1
  C  C11  1  0.08246500  0.56927100  0.69248900  1
  O  O0  1  0.15570000  0.21536300  0.36497300  1
  O  O1  1  0.85039000  0.79072700  0.63502700  1
  O  O2  1  0.20927300  0.84430000  0.05966300  1
  O  O3  1  0.78463700  0.14961000  0.94033700  1
  O  O4  1  0.08965300  0.23890500  0.55331500  1
  O  O5  1  0.68559000  0.53633800  0.44668500  1
  O  O6  1  0.46366200  0.91034700  0.14925200  1
  O  O7  1  0.76109500  0.31441000  0.85074800  1
  O  O8  1  0.19326800  0.06703100  0.90599200  1
  O  O9  1  0.16103900  0.28727600  0.09400800  1
  O  O10  1  0.71272400  0.80673200  0.87376300  1
  O  O11  1  0.93296900  0.83896100  0.12623700  1
  O  O12  1  0.38442400  0.29573400  0.79273800  1
  O  O13  1  0.50299600  0.59168600  0.20726200  1
  O  O14  1  0.40831400  0.61557600  0.91131000  1
  O  O15  1  0.70426600  0.49700400  0.08869000  1
  O  O16  1  0.73915000  0.02143200  0.41714300  1
  O  O17  1  0.60428900  0.32200700  0.58285700  1
  O  O18  1  0.67799300  0.26085000  0.28228200  1
  O  O19  1  0.97856800  0.39571100  0.71771800  1
  O  O20  1  0.65489500  0.92970100  0.60260300  1
  O  O21  1  0.32709800  0.05229200  0.39739700  1
  O  O22  1  0.94770800  0.34510500  0.27480600  1
  O  O23  1  0.07029900  0.67290200  0.72519400  1
loop_
_geom_bond_atom_site_label_1
_geom_bond_atom_site_label_2
_geom_bond_distance
_geom_bond_site_symmetry_2
Ba0 O10 2.790064 1_445
Ba0 O20 2.808898 1_445
Ba0 O4 2.879074 1_555
Ba0 O14 2.879252 1_555
Ba0 O8 2.940572 1_555
Ba0 O9 2.947998 1_556
Ba0 O3 2.965416 1_455
Ba0 O12 2.968827 1_555
Ba0 O1 3.006449 1_445
Ba0 O19 3.030577 1_455
Ba1 O11 2.790064 1_445
Ba1 O21 2.808898 1_555
Ba1 O5 2.879074 1_555
Ba1 O15 2.879252 1_555
Ba1 O9 2.940572 1_555
Ba1 O8 2.947998 1_554
Ba1 O2 2.965416 1_545
Ba1 O13 2.968827 1_555
Ba1 O0 3.006449 1_555
Ba1 O18 3.030577 1_555
Ba2 O9 2.790069 1_665
Ba2 O22 2.808895 1_565
Ba2 O6 2.879072 1_555
Ba2 O13 2.879247 1_555
Ba2 O10 2.940582 1_554
Ba2 O11 2.947999 1_555
Ba2 O0 2.965410 1_665
Ba2 O14 2.968833 1_554
Ba2 O3 3.006457 1_564
Ba2 O16 3.030567 1_565
Ba3 O8 2.790062 1_665
Ba3 O23 2.808892 1_655
Ba3 O7 2.879076 1_555
Ba3 O12 2.879253 1_555
Ba3 O11 2.940582 1_556
Ba3 O10 2.947998 1_555
Ba3 O1 2.965407 1_555
Ba3 O15 2.968837 1_556
Ba3 O2 3.006454 1_656
Ba3 O17 3.030569 1_555
H12 O16 1.112855 1_555
H12 O4 1.354603 1_655
H13 O17 1.112855 1_555
H13 O5 1.354603 1_555
H14 O18 1.112855 1_555
H14 O6 1.354603 1_545
H15 O19 1.112855 1_555
H15 O7 1.354603 1_555
C0 H0 1.108833 1_555
C0 O0 1.253305 1_555
C0 O4 1.288557 1_555
C1 H1 1.108833 1_555
C1 O1 1.253305 1_555
C1 O5 1.288557 1_555
C2 H2 1.108833 1_555
C2 O2 1.253305 1_555
C2 O6 1.288557 1_555
C3 H3 1.108833 1_555
C3 O3 1.253305 1_555
C3 O7 1.288557 1_555
C4 H4 1.110616 1_555
C4 O12 1.263375 1_555
C4 O8 1.282303 1_555
C5 H5 1.110616 1_555
C5 O13 1.263375 1_555
C5 O9 1.282303 1_555
C6 H6 1.110616 1_555
C6 O14 1.263375 1_555
C6 O10 1.282303 1_555
C7 H7 1.110616 1_555
C7 O15 1.263375 1_555
C7 O11 1.282303 1_555
C8 H8 1.105341 1_555
C8 O20 1.233553 1_555
C8 O16 1.314385 1_565
C9 H9 1.105348 1_555
C9 O21 1.233553 1_555
C9 O17 1.314385 1_555
C10 H10 1.105341 1_555
C10 O22 1.233553 1_555
C10 O18 1.314385 1_555
C11 H11 1.105348 1_555
C11 O23 1.233553 1_555
C11 O19 1.314385 1_455
