# generated using pymatgen
data_Ca2As2O7
_symmetry_space_group_name_H-M   'P 1'
_cell_length_a   4.92614710
_cell_length_b   5.86236551
_cell_length_c   5.86236596
_cell_angle_alpha   105.85076743
_cell_angle_beta   96.85919334
_cell_angle_gamma   96.85917209
_symmetry_Int_Tables_number   1
_chemical_formula_structural   Ca2As2O7
_chemical_formula_sum   'Ca2 As2 O7'
_cell_volume   159.63335040
_cell_formula_units_Z   1
loop_
 _symmetry_equiv_pos_site_id
 _symmetry_equiv_pos_as_xyz
  1  'x, y, z'
loop_
 _atom_site_type_symbol
 _atom_site_label
 _atom_site_symmetry_multiplicity
 _atom_site_fract_x
 _atom_site_fract_y
 _atom_site_fract_z
 _atom_site_occupancy
  Ca  Ca0  1  0.50000000  0.69322466  0.30677534  1
  Ca  Ca1  1  0.50000000  0.30677534  0.69322466  1
  As  As0  1  0.09052029  0.77371285  0.77371285  1
  As  As1  1  0.90947971  0.22628715  0.22628715  1
  O  O0  1  0.27677045  0.91564369  0.61648008  1
  O  O1  1  0.72322955  0.38351992  0.08435631  1
  O  O2  1  0.72322955  0.08435631  0.38351992  1
  O  O3  1  0.27677045  0.61648008  0.91564369  1
  O  O4  1  -0.00000000  -0.00000000  -0.00000000  1
  O  O5  1  0.78626192  0.61784220  0.61784220  1
  O  O6  1  0.21373808  0.38215780  0.38215780  1
loop_
_geom_bond_atom_site_label_1
_geom_bond_atom_site_label_2
_geom_bond_distance
_geom_bond_site_symmetry_2
Ca0 O3 2.320632 1_554
Ca0 O2 2.320633 1_565
Ca0 O5 2.341831 1_555
Ca0 O6 2.341832 1_555
Ca0 O1 2.394159 1_555
Ca0 O0 2.394159 1_555
Ca1 O1 2.320632 1_556
Ca1 O0 2.320633 1_545
Ca1 O6 2.341831 1_555
Ca1 O5 2.341832 1_555
Ca1 O3 2.394159 1_555
Ca1 O2 2.394159 1_555
As0 O5 1.675120 1_455
As0 O3 1.679987 1_555
As0 O0 1.679987 1_555
As0 O4 1.743481 1_566
As1 O6 1.675120 1_655
As1 O1 1.679987 1_555
As1 O2 1.679987 1_555
As1 O4 1.743481 1_655
