# generated using pymatgen
data_Li4SiO4
_symmetry_space_group_name_H-M   'P 1'
_cell_length_a   5.28217500
_cell_length_b   5.53334871
_cell_length_c   18.25951930
_cell_angle_alpha   92.10442461
_cell_angle_beta   90.14783093
_cell_angle_gamma   90.36570731
_symmetry_Int_Tables_number   1
_chemical_formula_structural   Li4SiO4
_chemical_formula_sum   'Li24 Si6 O24'
_cell_volume   533.31843132
_cell_formula_units_Z   6
loop_
 _symmetry_equiv_pos_site_id
 _symmetry_equiv_pos_as_xyz
  1  'x, y, z'
loop_
 _atom_site_type_symbol
 _atom_site_label
 _atom_site_symmetry_multiplicity
 _atom_site_fract_x
 _atom_site_fract_y
 _atom_site_fract_z
 _atom_site_occupancy
  Li  Li0  1  0.18550900  0.98749200  0.90494300  1
  Li  Li1  1  0.11619000  0.89723300  0.54476600  1
  Li  Li2  1  0.18995100  0.96850400  0.23481900  1
  Li  Li3  1  0.36796800  0.84330500  0.67348500  1
  Li  Li4  1  0.48346700  0.82037100  0.41776900  1
  Li  Li5  1  0.51727700  0.68540500  0.79911000  1
  Li  Li6  1  0.46492000  0.83055900  0.09444400  1
  Li  Li7  1  0.78509600  0.16874800  0.66290400  1
  Li  Li8  1  0.65540200  0.16854100  0.98390300  1
  Li  Li9  1  0.78188300  0.15789500  0.31648800  1
  Li  Li10  1  0.79164000  0.18391300  0.83855400  1
  Li  Li11  1  0.65348800  0.15333200  0.50633400  1
  Li  Li12  1  0.75843200  0.16848700  0.16932400  1
  Li  Li13  1  0.96589700  0.86448900  0.74884600  1
  Li  Li14  1  0.82042000  0.55590600  0.42338200  1
  Li  Li15  1  0.83148900  0.59223100  0.08897800  1
  Li  Li16  1  0.02382600  0.95214000  0.05878000  1
  Li  Li17  1  0.02506200  0.91050800  0.39835600  1
  Li  Li18  1  0.06739000  0.54713400  0.84462700  1
  Li  Li19  1  0.08201100  0.49259100  0.64645400  1
  Li  Li20  1  0.14529400  0.46842700  0.96580800  1
  Li  Li21  1  0.13697400  0.41111300  0.52390100  1
  Li  Li22  1  0.08843400  0.52624300  0.31103500  1
  Li  Li23  1  0.13123900  0.46574300  0.18938200  1
  Si  Si0  1  0.31756100  0.28232100  0.40302900  1
  Si  Si1  1  0.30276100  0.29214700  0.74788300  1
  Si  Si2  1  0.33179000  0.30080700  0.07767400  1
  Si  Si3  1  0.66995900  0.68334200  0.92685600  1
  Si  Si4  1  0.65296800  0.66103200  0.57791700  1
  Si  Si5  1  0.65458800  0.67094200  0.25129100  1
  O  O0  1  0.16308800  0.18981300  0.82016600  1
  O  O1  1  0.18002200  0.14826900  0.67480900  1
  O  O2  1  0.24152700  0.11041100  0.47285700  1
  O  O3  1  0.17949400  0.15834500  0.33079000  1
  O  O4  1  0.20713500  0.13895300  0.14273300  1
  O  O5  1  0.25991500  0.15730600  0.99970900  1
  O  O6  1  0.19449200  0.55631100  0.41773400  1
  O  O7  1  0.21975000  0.58908000  0.74251100  1
  O  O8  1  0.19978300  0.57141300  0.08040300  1
  O  O9  1  0.36652600  0.67239200  0.90550900  1
  O  O10  1  0.34538800  0.65551600  0.25134400  1
  O  O11  1  0.34012700  0.64140600  0.58032900  1
  O  O12  1  0.61026200  0.28270800  0.75209600  1
  O  O13  1  0.62559200  0.28224600  0.40515800  1
  O  O14  1  0.63847500  0.31080200  0.08384100  1
  O  O15  1  0.80566600  0.41669500  0.92386600  1
  O  O16  1  0.80099800  0.39693100  0.57495800  1
  O  O17  1  0.80787600  0.41114100  0.24431900  1
  O  O18  1  0.73849300  0.81378400  0.65340400  1
  O  O19  1  0.74756000  0.80507000  0.50363400  1
  O  O20  1  0.75460900  0.79124100  0.33262800  1
  O  O21  1  0.72937500  0.82160600  0.00687500  1
  O  O22  1  0.80527900  0.82608300  0.85694700  1
  O  O23  1  0.74668300  0.82757700  0.18033900  1
loop_
_geom_bond_atom_site_label_1
_geom_bond_atom_site_label_2
_geom_bond_distance
_geom_bond_site_symmetry_2
Li0 O0 1.947208 1_565
Li0 O5 1.975849 1_565
Li0 O9 1.994218 1_555
Li0 O22 2.347361 1_455
Li1 O2 1.913645 1_565
Li1 O11 1.977284 1_555
Li1 O19 2.137115 1_455
Li2 O10 1.954429 1_555
Li2 O4 1.959899 1_565
Li2 O3 2.010823 1_565
Li3 O1 1.962712 1_565
Li3 O18 1.998765 1_555
Li3 O11 2.005021 1_555
Li3 O7 2.074032 1_555
Li4 O19 2.100307 1_555
Li4 O6 2.106258 1_555
Li4 O20 2.118998 1_555
Li4 O2 2.266040 1_565
Li5 O7 1.939720 1_555
Li5 O22 1.987898 1_555
Li5 O9 2.105052 1_555
Li5 O12 2.412261 1_555
Li6 O8 2.007198 1_555
Li6 O21 2.125339 1_555
Li6 O23 2.159959 1_555
Li6 O4 2.338572 1_565
Li7 O12 1.960258 1_555
Li7 O18 1.979171 1_545
Li7 O16 2.080448 1_555
Li7 O1 2.101015 1_655
Li8 O15 1.954058 1_555
Li8 O14 1.963125 1_556
Li8 O21 2.020343 1_546
Li8 O5 2.110446 1_555
Li9 O13 1.925803 1_555
Li9 O17 1.962932 1_555
Li9 O20 2.064979 1_545
Li9 O3 2.115730 1_655
Li10 O12 1.941968 1_555
Li10 O15 1.985454 1_555
Li10 O0 1.991692 1_655
Li10 O22 2.022105 1_545
Li11 O16 1.962554 1_555
Li11 O19 1.992049 1_545
Li11 O13 2.010036 1_555
Li11 O2 2.267406 1_555
Li12 O14 1.884010 1_555
Li12 O17 1.898645 1_555
Li12 O23 1.905031 1_545
Li12 O4 2.425905 1_655
Li13 O7 2.036590 1_655
Li13 O18 2.123122 1_555
Li13 O22 2.167553 1_555
Li13 O1 2.390327 1_665
Li13 O0 2.412095 1_665
Li14 O13 1.845024 1_555
Li14 O6 1.978860 1_655
Li14 O19 2.014338 1_555
Li14 O20 2.173451 1_555
Li15 O14 1.855201 1_555
Li15 O8 1.955875 1_655
Li15 O21 2.072107 1_555
Li15 O23 2.128662 1_555
Li16 O21 1.940829 1_455
Li16 O5 2.021426 1_564
Li16 O4 2.054065 1_565
Li16 O8 2.354165 1_555
Li17 O20 1.959006 1_455
Li17 O3 2.045316 1_565
Li17 O2 2.060773 1_565
Li17 O6 2.199779 1_555
Li17 O19 2.504061 1_455
Li18 O9 2.033041 1_555
Li18 O7 2.053143 1_555
Li18 O0 2.076856 1_555
Li18 O22 2.086465 1_455
Li18 O15 2.144732 1_455
Li19 O7 1.952035 1_555
Li19 O11 2.015436 1_555
Li19 O16 2.029042 1_455
Li19 O1 2.061488 1_555
Li19 O18 2.548153 1_455
Li20 O5 1.950151 1_555
Li20 O15 1.963938 1_455
Li20 O9 1.983100 1_555
Li20 O8 2.166368 1_556
Li21 O11 1.928048 1_555
Li21 O2 1.960284 1_555
Li21 O16 2.009212 1_455
Li21 O6 2.147120 1_555
Li22 O10 1.895867 1_555
Li22 O17 2.001876 1_455
Li22 O6 2.026490 1_555
Li22 O3 2.138016 1_555
Li22 O20 2.325727 1_455
Li23 O10 1.885008 1_555
Li23 O17 2.009856 1_455
Li23 O4 2.013430 1_555
Li23 O8 2.125831 1_555
O0 Si1 1.631424 1_555
O1 Si1 1.656933 1_555
O2 Si0 1.666939 1_555
O3 Si0 1.632346 1_555
O4 Si2 1.649699 1_555
O5 Si2 1.646703 1_556
O6 Si0 1.666367 1_555
O7 Si1 1.709461 1_555
O8 Si2 1.654931 1_555
O9 Si3 1.648736 1_555
O10 Si5 1.634938 1_555
O11 Si4 1.656159 1_555
O12 Si1 1.627159 1_555
O13 Si0 1.627441 1_555
O14 Si2 1.624032 1_555
O15 Si3 1.643644 1_555
O16 Si4 1.660996 1_555
O17 Si5 1.655406 1_555
O18 Si4 1.650671 1_555
O19 Si4 1.674047 1_555
O20 Si5 1.687255 1_555
O21 Si3 1.652613 1_554
O22 Si3 1.683974 1_555
O23 Si5 1.657295 1_555
