# generated using pymatgen
data_TaTeCl9
_symmetry_space_group_name_H-M   'P 1'
_cell_length_a   6.41558728
_cell_length_b   11.39641222
_cell_length_c   19.51909434
_cell_angle_alpha   106.82290304
_cell_angle_beta   90.00000000
_cell_angle_gamma   106.34819686
_symmetry_Int_Tables_number   1
_chemical_formula_structural   TaTeCl9
_chemical_formula_sum   'Ta4 Te4 Cl36'
_cell_volume   1305.65966203
_cell_formula_units_Z   4
loop_
 _symmetry_equiv_pos_site_id
 _symmetry_equiv_pos_as_xyz
  1  'x, y, z'
loop_
 _atom_site_type_symbol
 _atom_site_label
 _atom_site_symmetry_multiplicity
 _atom_site_fract_x
 _atom_site_fract_y
 _atom_site_fract_z
 _atom_site_occupancy
  Ta  Ta0  1  0.14954488  0.70942171  0.62396644  1
  Ta  Ta1  1  0.44012317  0.29057829  0.87603356  1
  Ta  Ta2  1  0.85045512  0.29057829  0.37603356  1
  Ta  Ta3  1  0.55987683  0.70942171  0.12396644  1
  Te  Te0  1  0.11328751  0.83904377  0.84138073  1
  Te  Te1  1  0.88671249  0.16095623  0.15861927  1
  Te  Te2  1  0.27424374  0.16095623  0.65861927  1
  Te  Te3  1  0.72575626  0.83904377  0.34138073  1
  Cl  Cl0  1  0.13816870  0.36145894  0.17509146  1
  Cl  Cl1  1  0.93459231  0.04982517  0.59294214  1
  Cl  Cl2  1  0.89440336  0.82844948  0.20392031  1
  Cl  Cl3  1  0.62937374  0.52437745  0.12507615  1
  Cl  Cl4  1  0.25601602  0.27470112  0.97389480  1
  Cl  Cl5  1  0.48927329  0.08125657  0.85816879  1
  Cl  Cl6  1  0.30389983  0.82579399  0.94046636  1
  Cl  Cl7  1  0.89500371  0.52437745  0.62507615  1
  Cl  Cl8  1  0.51072671  0.91874343  0.14183121  1
  Cl  Cl9  1  0.47810484  0.17420601  0.55953364  1
  Cl  Cl10  1  0.22329024  0.36145894  0.67509146  1
  Cl  Cl11  1  0.10499629  0.47562255  0.37492385  1
  Cl  Cl12  1  0.98131590  0.72529888  0.52610520  1
  Cl  Cl13  1  0.86183130  0.63854106  0.82490854  1
  Cl  Cl14  1  0.37062626  0.47562255  0.87492385  1
  Cl  Cl15  1  0.22471553  0.61367995  0.06247795  1
  Cl  Cl16  1  0.52189516  0.82579399  0.44046636  1
  Cl  Cl17  1  0.88476714  0.95017483  0.90705786  1
  Cl  Cl18  1  0.37045120  0.71127029  0.23493110  1
  Cl  Cl19  1  0.34081909  0.71127029  0.73493110  1
  Cl  Cl20  1  0.06540769  0.95017483  0.40705786  1
  Cl  Cl21  1  0.40801672  0.91874343  0.64183121  1
  Cl  Cl22  1  0.65918091  0.28872971  0.26506890  1
  Cl  Cl23  1  0.01868410  0.27470112  0.47389480  1
  Cl  Cl24  1  0.11523286  0.04982517  0.09294214  1
  Cl  Cl25  1  0.74398398  0.72529888  0.02610520  1
  Cl  Cl26  1  0.10559664  0.17155052  0.79607969  1
  Cl  Cl27  1  0.06595588  0.17155052  0.29607969  1
  Cl  Cl28  1  0.59198328  0.08125657  0.35816879  1
  Cl  Cl29  1  0.38896442  0.61367995  0.56247795  1
  Cl  Cl30  1  0.62954880  0.28872971  0.76506890  1
  Cl  Cl31  1  0.61103558  0.38632005  0.43752205  1
  Cl  Cl32  1  0.93404412  0.82844948  0.70392031  1
  Cl  Cl33  1  0.69610017  0.17420601  0.05953364  1
  Cl  Cl34  1  0.77528447  0.38632005  0.93752205  1
  Cl  Cl35  1  0.77670976  0.63854106  0.32490854  1
loop_
_geom_bond_atom_site_label_1
_geom_bond_atom_site_label_2
_geom_bond_distance
_geom_bond_site_symmetry_2
Cl0 Te1 2.329541 1_455
Cl1 Te2 2.345709 1_655
Cl2 Ta3 2.453052 1_555
Cl2 Te3 2.875814 1_555
Cl3 Ta3 2.280839 1_555
Cl4 Ta1 2.270757 1_555
Cl5 Ta1 2.419438 1_555
Cl5 Te0 3.045255 1_545
Cl6 Te0 2.351989 1_555
Cl7 Ta0 2.280839 1_655
Cl8 Ta3 2.419438 1_555
Cl8 Te1 3.045255 1_565
Cl9 Te2 2.351985 1_555
Cl10 Te2 2.329541 1_555
Cl11 Ta2 2.280839 1_455
Cl12 Ta0 2.270754 1_655
Cl13 Te0 2.329541 1_655
Cl14 Ta1 2.280839 1_555
Cl15 Ta3 2.275045 1_555
Cl16 Te3 2.351985 1_555
Cl17 Te0 2.345709 1_655
Cl18 Ta3 2.481248 1_555
Cl18 Te3 2.830871 1_555
Cl19 Ta0 2.481248 1_555
Cl19 Te0 2.830871 1_555
Cl20 Te3 2.345709 1_455
Cl21 Ta0 2.419438 1_555
Cl21 Te2 3.045255 1_565
Cl22 Ta2 2.481248 1_555
Cl22 Te1 2.830871 1_555
Cl23 Ta2 2.270754 1_455
Cl24 Te1 2.345709 1_455
Cl25 Ta3 2.270757 1_555
Cl26 Ta1 2.453052 1_555
Cl26 Te2 2.875814 1_555
Cl27 Ta2 2.453061 1_455
Cl27 Te1 2.875819 1_455
Cl28 Ta2 2.419438 1_555
Cl28 Te3 3.045255 1_545
Cl29 Ta0 2.275045 1_555
Cl30 Ta1 2.481248 1_555
Cl30 Te2 2.830871 1_555
Cl31 Ta2 2.275045 1_555
Cl32 Ta0 2.453061 1_655
Cl32 Te0 2.875819 1_655
Cl33 Te1 2.351989 1_555
Cl34 Ta1 2.275045 1_555
Cl35 Te3 2.329541 1_555
