# generated using pymatgen
data_CdI2
_symmetry_space_group_name_H-M   'P 1'
_cell_length_a   4.34597546
_cell_length_b   4.34597546
_cell_length_c   80.82293400
_cell_angle_alpha   90.00000000
_cell_angle_beta   90.00000000
_cell_angle_gamma   119.99999182
_symmetry_Int_Tables_number   1
_chemical_formula_structural   CdI2
_chemical_formula_sum   'Cd11 I22'
_cell_volume   1322.02546124
_cell_formula_units_Z   11
loop_
 _symmetry_equiv_pos_site_id
 _symmetry_equiv_pos_as_xyz
  1  'x, y, z'
loop_
 _atom_site_type_symbol
 _atom_site_label
 _atom_site_symmetry_multiplicity
 _atom_site_fract_x
 _atom_site_fract_y
 _atom_site_fract_z
 _atom_site_occupancy
  Cd  Cd0  1  0.00000000  0.00000000  0.29544900  1
  Cd  Cd1  1  0.33333300  0.66666700  0.56818500  1
  Cd  Cd2  1  0.66666700  0.33333300  0.02273500  1
  Cd  Cd3  1  0.00000000  0.00000000  0.93180800  1
  Cd  Cd4  1  0.00000000  0.00000000  0.84092500  1
  Cd  Cd5  1  0.00000000  0.00000000  0.20454800  1
  Cd  Cd6  1  0.00000000  0.00000000  0.11363700  1
  Cd  Cd7  1  0.00000000  0.00000000  0.65907300  1
  Cd  Cd8  1  0.33333300  0.66666700  0.47726300  1
  Cd  Cd9  1  0.00000000  0.00000000  0.38635800  1
  Cd  Cd10  1  0.33333300  0.66666700  0.75000000  1
  I  I0  1  0.33333300  0.66666700  0.40776200  1
  I  I1  1  0.00000000  0.00000000  0.58961000  1
  I  I2  1  0.33333300  0.66666700  0.86232300  1
  I  I3  1  0.33333300  0.66666700  0.95319900  1
  I  I4  1  0.66666700  0.33333300  0.45586200  1
  I  I5  1  0.66666700  0.33333300  0.27405800  1
  I  I6  1  0.66666700  0.33333300  0.36495700  1
  I  I7  1  0.33333300  0.66666700  0.04413600  1
  I  I8  1  0.66666700  0.33333300  0.18313200  1
  I  I9  1  0.33333300  0.66666700  0.22593200  1
  I  I10  1  0.66666700  0.33333300  0.09223500  1
  I  I11  1  0.00000000  0.00000000  0.00136400  1
  I  I12  1  0.00000000  0.00000000  0.77141100  1
  I  I13  1  0.33333300  0.66666700  0.31686500  1
  I  I14  1  0.66666700  0.33333300  0.54678800  1
  I  I15  1  0.66666700  0.33333300  0.72861100  1
  I  I16  1  0.33333300  0.66666700  0.68047000  1
  I  I17  1  0.66666700  0.33333300  0.91042700  1
  I  I18  1  0.00000000  0.00000000  0.49863400  1
  I  I19  1  0.66666700  0.33333300  0.81952900  1
  I  I20  1  0.33333300  0.66666700  0.13503900  1
  I  I21  1  0.66666700  0.33333300  0.63767400  1
loop_
_geom_bond_atom_site_label_1
_geom_bond_atom_site_label_2
_geom_bond_distance
_geom_bond_site_symmetry_2
Cd0 I5 3.047107 1_455
Cd0 I5 3.047110 1_555
Cd0 I5 3.047110 1_445
Cd0 I13 3.048254 1_545
Cd0 I13 3.048257 1_445
Cd0 I13 3.048257 1_555
Cd1 I14 3.047382 1_455
Cd1 I14 3.047382 1_565
Cd1 I14 3.047388 1_555
Cd1 I1 3.048667 1_565
Cd1 I1 3.048670 1_665
Cd1 I1 3.048670 1_555
Cd2 I11 3.046190 1_655
Cd2 I11 3.046193 1_665
Cd2 I11 3.046193 1_555
Cd2 I7 3.047566 1_545
Cd2 I7 3.047566 1_655
Cd2 I7 3.047571 1_555
Cd3 I17 3.046648 1_455
Cd3 I17 3.046651 1_555
Cd3 I17 3.046651 1_445
Cd3 I3 3.047107 1_545
Cd3 I3 3.047110 1_445
Cd3 I3 3.047110 1_555
Cd4 I19 3.047336 1_455
Cd4 I19 3.047339 1_555
Cd4 I19 3.047339 1_445
Cd4 I2 3.047428 1_545
Cd4 I2 3.047431 1_445
Cd4 I2 3.047431 1_555
Cd5 I9 3.046786 1_545
Cd5 I9 3.046789 1_445
Cd5 I9 3.046789 1_555
Cd5 I8 3.048254 1_455
Cd5 I8 3.048257 1_555
Cd5 I8 3.048257 1_445
Cd6 I10 3.047611 1_455
Cd6 I20 3.047611 1_545
Cd6 I10 3.047615 1_555
Cd6 I10 3.047615 1_445
Cd6 I20 3.047615 1_445
Cd6 I20 3.047615 1_555
Cd7 I16 3.047382 1_545
Cd7 I16 3.047385 1_445
Cd7 I16 3.047385 1_555
Cd7 I21 3.047474 1_455
Cd7 I21 3.047477 1_555
Cd7 I21 3.047477 1_445
Cd8 I18 3.046190 1_565
Cd8 I18 3.046193 1_555
Cd8 I18 3.046193 1_665
Cd8 I4 3.047566 1_455
Cd8 I4 3.047566 1_565
Cd8 I4 3.047571 1_555
Cd9 I6 3.047565 1_455
Cd9 I6 3.047569 1_445
Cd9 I6 3.047569 1_555
Cd9 I0 3.047703 1_545
Cd9 I0 3.047706 1_445
Cd9 I0 3.047706 1_555
Cd10 I15 3.047015 1_455
Cd10 I15 3.047015 1_565
Cd10 I15 3.047021 1_555
Cd10 I12 3.048024 1_565
Cd10 I12 3.048027 1_555
Cd10 I12 3.048027 1_665
