# generated using pymatgen
data_Ce2(GeO3)3
_symmetry_space_group_name_H-M   'P 1'
_cell_length_a   5.77182400
_cell_length_b   7.76788369
_cell_length_c   8.79520129
_cell_angle_alpha   107.33750912
_cell_angle_beta   108.48886280
_cell_angle_gamma   91.48835313
_symmetry_Int_Tables_number   1
_chemical_formula_structural   Ce2(GeO3)3
_chemical_formula_sum   'Ce4 Ge6 O18'
_cell_volume   353.81171017
_cell_formula_units_Z   2
loop_
 _symmetry_equiv_pos_site_id
 _symmetry_equiv_pos_as_xyz
  1  'x, y, z'
loop_
 _atom_site_type_symbol
 _atom_site_label
 _atom_site_symmetry_multiplicity
 _atom_site_fract_x
 _atom_site_fract_y
 _atom_site_fract_z
 _atom_site_occupancy
  Ce  Ce0  1  0.86757000  0.80307800  0.78167000  1
  Ce  Ce1  1  0.13243000  0.19692200  0.21833000  1
  Ce  Ce2  1  0.19018300  0.81837400  0.41760100  1
  Ce  Ce3  1  0.80981700  0.18162600  0.58239900  1
  Ge  Ge0  1  0.76262400  0.48682500  0.99766700  1
  Ge  Ge1  1  0.23737600  0.51317500  0.00233300  1
  Ge  Ge2  1  0.57215800  0.92570500  0.14758300  1
  Ge  Ge3  1  0.42784200  0.07429500  0.85241700  1
  Ge  Ge4  1  0.66449900  0.51391800  0.34206600  1
  Ge  Ge5  1  0.33550100  0.48608200  0.65793400  1
  O  O0  1  0.71231000  0.00669500  0.00097100  1
  O  O1  1  0.28769000  0.99330500  0.99902900  1
  O  O2  1  0.01008800  0.67694300  0.04415500  1
  O  O3  1  0.98991200  0.32305700  0.95584500  1
  O  O4  1  0.53157500  0.67278500  0.04555300  1
  O  O5  1  0.46842500  0.32721500  0.95444700  1
  O  O6  1  0.87350300  0.48345800  0.22552800  1
  O  O7  1  0.12649700  0.51654200  0.77447200  1
  O  O8  1  0.60231300  0.31595800  0.38357900  1
  O  O9  1  0.39768700  0.68404200  0.61642100  1
  O  O10  1  0.88093600  0.98783200  0.30634400  1
  O  O11  1  0.11906400  0.01216800  0.69365600  1
  O  O12  1  0.35173100  0.53793700  0.23802600  1
  O  O13  1  0.64826900  0.46206300  0.76197400  1
  O  O14  1  0.58118600  0.02881900  0.69195200  1
  O  O15  1  0.41881400  0.97118100  0.30804800  1
  O  O16  1  0.82583100  0.71275300  0.50128600  1
  O  O17  1  0.17416900  0.28724700  0.49871400  1
loop_
_geom_bond_atom_site_label_1
_geom_bond_atom_site_label_2
_geom_bond_distance
_geom_bond_site_symmetry_2
Ce0 O16 2.283603 1_555
Ce0 O0 2.525205 1_566
Ce0 O14 2.564720 1_565
Ce0 O11 2.585313 1_665
Ce0 O9 2.625168 1_555
Ce0 O1 2.628348 1_655
Ce0 O2 2.674303 1_656
Ce0 O7 2.709316 1_655
Ce0 O13 2.839445 1_555
Ce1 O17 2.283603 1_555
Ce1 O1 2.525205 1_544
Ce1 O15 2.564720 1_545
Ce1 O10 2.585313 1_445
Ce1 O8 2.625168 1_555
Ce1 O0 2.628348 1_455
Ce1 O3 2.674303 1_454
Ce1 O6 2.709316 1_455
Ce1 O12 2.839445 1_555
Ce2 O9 2.324911 1_555
Ce2 O15 2.342106 1_555
Ce2 O10 2.378688 1_455
Ce2 O11 2.610646 1_565
Ce2 O16 2.624761 1_455
Ce2 O12 2.664268 1_555
Ce2 O14 2.755263 1_565
Ce2 O6 2.852755 1_455
Ce2 O2 2.949619 1_555
Ce3 O8 2.324911 1_555
Ce3 O14 2.342106 1_555
Ce3 O11 2.378688 1_655
Ce3 O10 2.610646 1_545
Ce3 O17 2.624761 1_655
Ce3 O13 2.664268 1_555
Ce3 O15 2.755263 1_545
Ce3 O7 2.852755 1_655
Ce3 O3 2.949619 1_555
Ge0 O2 1.883719 1_656
Ge0 O3 1.894325 1_555
Ge0 O6 1.909256 1_556
Ge0 O13 1.912540 1_555
Ge0 O5 1.940478 1_555
Ge0 O4 2.033747 1_556
Ge1 O3 1.883719 1_454
Ge1 O2 1.894325 1_555
Ge1 O7 1.909256 1_554
Ge1 O12 1.912540 1_555
Ge1 O4 1.940478 1_555
Ge1 O5 2.033747 1_554
Ge2 O10 1.826001 1_555
Ge2 O15 1.846977 1_555
Ge2 O4 1.874039 1_555
Ge2 O1 1.942105 1_554
Ge2 O0 1.957440 1_565
Ge3 O11 1.826001 1_555
Ge3 O14 1.846977 1_555
Ge3 O5 1.874039 1_555
Ge3 O0 1.942105 1_556
Ge3 O1 1.957440 1_545
Ge4 O8 1.736612 1_555
Ge4 O16 1.738633 1_555
Ge4 O12 1.789577 1_555
Ge4 O6 1.793405 1_555
Ge5 O9 1.736612 1_555
Ge5 O17 1.738633 1_555
Ge5 O13 1.789577 1_555
Ge5 O7 1.793405 1_555
