# generated using pymatgen
data_Na3Sr14Nd3Ti20O60
_symmetry_space_group_name_H-M   'P 1'
_cell_length_a   5.53353707
_cell_length_b   5.53353707
_cell_length_c   39.48486100
_cell_angle_alpha   90.00000000
_cell_angle_beta   90.00000000
_cell_angle_gamma   90.02449801
_symmetry_Int_Tables_number   1
_chemical_formula_structural   Na3Sr14Nd3Ti20O60
_chemical_formula_sum   'Na3 Sr14 Nd3 Ti20 O60'
_cell_volume   1209.02761878
_cell_formula_units_Z   1
loop_
 _symmetry_equiv_pos_site_id
 _symmetry_equiv_pos_as_xyz
  1  'x, y, z'
loop_
 _atom_site_type_symbol
 _atom_site_label
 _atom_site_symmetry_multiplicity
 _atom_site_fract_x
 _atom_site_fract_y
 _atom_site_fract_z
 _atom_site_occupancy
  Na  Na0  1  0.50000000  0.50000000  0.05168900  1
  Na  Na1  1  0.00000000  0.00000000  0.14971300  1
  Na  Na2  1  0.50000000  0.50000000  0.24700700  1
  Sr  Sr0  1  0.00000000  0.00000000  0.24820100  1
  Sr  Sr1  1  0.50000000  0.50000000  0.34836100  1
  Sr  Sr2  1  0.00000000  0.00000000  0.45007800  1
  Sr  Sr3  1  0.50000000  0.50000000  0.55021600  1
  Sr  Sr4  1  0.50000000  0.50000000  0.45056900  1
  Sr  Sr5  1  0.00000000  0.00000000  0.65034200  1
  Sr  Sr6  1  0.00000000  0.00000000  0.55014100  1
  Sr  Sr7  1  0.50000000  0.50000000  0.75053600  1
  Sr  Sr8  1  0.50000000  0.50000000  0.65034300  1
  Sr  Sr9  1  0.00000000  0.00000000  0.85086600  1
  Sr  Sr10  1  0.00000000  0.00000000  0.75052200  1
  Sr  Sr11  1  0.50000000  0.50000000  0.95146400  1
  Sr  Sr12  1  0.50000000  0.50000000  0.85093200  1
  Sr  Sr13  1  0.00000000  0.00000000  0.95124500  1
  Nd  Nd0  1  0.00000000  0.00000000  0.05074800  1
  Nd  Nd1  1  0.50000000  0.50000000  0.15139000  1
  Nd  Nd2  1  0.00000000  0.00000000  0.34791600  1
  Ti  Ti0  1  0.00000000  0.50000000  0.19929900  1
  Ti  Ti1  1  0.00000000  0.50000000  0.10105700  1
  Ti  Ti2  1  0.50000000  0.00000000  0.29749400  1
  Ti  Ti3  1  0.50000000  0.00000000  0.19929900  1
  Ti  Ti4  1  0.50000000  0.00000000  0.10105700  1
  Ti  Ti5  1  0.00000000  0.50000000  0.39949600  1
  Ti  Ti6  1  0.00000000  0.50000000  0.29749400  1
  Ti  Ti7  1  0.50000000  0.00000000  0.50037600  1
  Ti  Ti8  1  0.50000000  0.00000000  0.39949600  1
  Ti  Ti9  1  0.00000000  0.50000000  0.60075200  1
  Ti  Ti10  1  0.00000000  0.50000000  0.50037600  1
  Ti  Ti11  1  0.50000000  0.00000000  0.70092300  1
  Ti  Ti12  1  0.50000000  0.00000000  0.60075200  1
  Ti  Ti13  1  0.00000000  0.50000000  0.80122300  1
  Ti  Ti14  1  0.00000000  0.50000000  0.70092300  1
  Ti  Ti15  1  0.50000000  0.00000000  0.90175500  1
  Ti  Ti16  1  0.50000000  0.00000000  0.80122300  1
  Ti  Ti17  1  0.00000000  0.50000000  0.00253800  1
  Ti  Ti18  1  0.00000000  0.50000000  0.90175500  1
  Ti  Ti19  1  0.50000000  0.00000000  0.00253800  1
  O  O0  1  0.50000000  0.00000000  0.05064200  1
  O  O1  1  0.80270600  0.19729400  0.09798700  1
  O  O2  1  0.30307600  0.30307600  0.10203800  1
  O  O3  1  0.00000000  0.50000000  0.14931400  1
  O  O4  1  0.00000000  0.50000000  0.05064200  1
  O  O5  1  0.28645100  0.71354900  0.19757300  1
  O  O6  1  0.69692400  0.69692400  0.10203800  1
  O  O7  1  0.77820300  0.77820300  0.19854800  1
  O  O8  1  0.19729400  0.80270600  0.09798700  1
  O  O9  1  0.50000000  0.00000000  0.24967900  1
  O  O10  1  0.50000000  0.00000000  0.14931400  1
  O  O11  1  0.78337600  0.21662400  0.30194600  1
  O  O12  1  0.22179700  0.22179700  0.19854800  1
  O  O13  1  0.26921800  0.26921800  0.30103800  1
  O  O14  1  0.71354900  0.28645100  0.19757300  1
  O  O15  1  0.00000000  0.50000000  0.34982300  1
  O  O16  1  0.00000000  0.50000000  0.24967900  1
  O  O17  1  0.28417800  0.71582200  0.39927000  1
  O  O18  1  0.73078200  0.73078200  0.30103800  1
  O  O19  1  0.79198200  0.79198200  0.39740400  1
  O  O20  1  0.21662400  0.78337600  0.30194600  1
  O  O21  1  0.50000000  0.00000000  0.44883300  1
  O  O22  1  0.50000000  0.00000000  0.34982300  1
  O  O23  1  0.77081500  0.22918500  0.49931800  1
  O  O24  1  0.20801800  0.20801800  0.39740400  1
  O  O25  1  0.27092600  0.27092600  0.49920200  1
  O  O26  1  0.71582200  0.28417800  0.39927000  1
  O  O27  1  0.00000000  0.50000000  0.54922100  1
  O  O28  1  0.00000000  0.50000000  0.44883300  1
  O  O29  1  0.27075900  0.72924100  0.59950200  1
  O  O30  1  0.72907400  0.72907400  0.49920200  1
  O  O31  1  0.77072200  0.77072200  0.59948100  1
  O  O32  1  0.22918500  0.77081500  0.49931800  1
  O  O33  1  0.50000000  0.00000000  0.64949800  1
  O  O34  1  0.50000000  0.00000000  0.54922100  1
  O  O35  1  0.77084700  0.22915300  0.69967500  1
  O  O36  1  0.22927800  0.22927800  0.59948100  1
  O  O37  1  0.27082500  0.27082500  0.69968000  1
  O  O38  1  0.72924100  0.27075900  0.59950200  1
  O  O39  1  0.00000000  0.50000000  0.74973200  1
  O  O40  1  0.00000000  0.50000000  0.64949800  1
  O  O41  1  0.27088400  0.72911600  0.79987800  1
  O  O42  1  0.72917500  0.72917500  0.69968000  1
  O  O43  1  0.77086300  0.77086300  0.79990600  1
  O  O44  1  0.22915300  0.77084700  0.69967500  1
  O  O45  1  0.50000000  0.00000000  0.85008900  1
  O  O46  1  0.50000000  0.00000000  0.74973200  1
  O  O47  1  0.77119300  0.22880700  0.90026300  1
  O  O48  1  0.22913700  0.22913700  0.79990600  1
  O  O49  1  0.27134100  0.27134100  0.90059700  1
  O  O50  1  0.72911600  0.27088400  0.79987800  1
  O  O51  1  0.00000000  0.50000000  0.95073200  1
  O  O52  1  0.00000000  0.50000000  0.85008900  1
  O  O53  1  0.27895800  0.72104200  0.00052900  1
  O  O54  1  0.72865900  0.72865900  0.90059700  1
  O  O55  1  0.79123500  0.79123500  0.00253800  1
  O  O56  1  0.22880700  0.77119300  0.90026300  1
  O  O57  1  0.50000000  0.00000000  0.95073200  1
  O  O58  1  0.20876500  0.20876500  0.00253800  1
  O  O59  1  0.72104200  0.27895800  0.00052900  1
loop_
_geom_bond_atom_site_label_1
_geom_bond_atom_site_label_2
_geom_bond_distance
_geom_bond_site_symmetry_2
Na0 O2 2.515165 1_555
Na0 O6 2.515165 1_555
Na0 O59 2.659704 1_555
Na0 O53 2.659704 1_555
Na0 O4 2.767077 1_655
Na0 O4 2.767077 1_555
Na0 O0 2.767077 1_555
Na0 O0 2.767077 1_565
Na1 O8 2.560499 1_545
Na1 O1 2.560499 1_455
Na1 O12 2.594123 1_555
Na1 O7 2.594123 1_445
Na1 O3 2.766813 1_545
Na1 O10 2.766813 1_555
Na1 O10 2.766813 1_455
Na1 O3 2.766813 1_555
Na1 O14 2.932284 1_455
Na1 O5 2.932284 1_545
Na1 O2 3.027604 1_555
Na1 O6 3.027604 1_445
Na2 O5 2.569791 1_555
Na2 O14 2.569791 1_555
Na2 O16 2.768779 1_655
Na2 O9 2.768779 1_555
Na2 O9 2.768779 1_565
Na2 O16 2.768779 1_555
Na2 O18 2.794941 1_555
Na2 O13 2.794941 1_555
Na2 O12 2.898077 1_555
Na2 O7 2.898077 1_555
Nd0 O8 2.421539 1_545
Nd0 O1 2.421539 1_455
Nd0 O58 2.508273 1_555
Nd0 O55 2.508273 1_445
Nd0 O4 2.766772 1_545
Nd0 O0 2.766772 1_555
Nd0 O0 2.766772 1_455
Nd0 O4 2.766772 1_555
Nd0 O59 2.949482 1_455
Nd0 O53 2.949482 1_545
Nd0 O6 3.118357 1_445
Nd0 O2 3.118357 1_555
Nd1 O14 2.473701 1_555
Nd1 O5 2.473701 1_555
Nd1 O2 2.484166 1_555
Nd1 O6 2.484166 1_555
Nd1 O10 2.767983 1_555
Nd1 O10 2.767983 1_565
Nd1 O3 2.767983 1_655
Nd1 O3 2.767983 1_555
Nd1 O12 2.864421 1_555
Nd1 O7 2.864421 1_555
Nd1 O8 3.171769 1_555
Nd1 O1 3.171769 1_555
Nd2 O20 2.483875 1_545
Nd2 O11 2.483875 1_455
Nd2 O24 2.543037 1_555
Nd2 O19 2.543037 1_445
Nd2 O15 2.767793 1_545
Nd2 O15 2.767793 1_555
Nd2 O22 2.767793 1_455
Nd2 O22 2.767793 1_555
Nd2 O13 2.804064 1_555
Nd2 O18 2.804064 1_445
Nd2 O26 3.009863 1_455
Nd2 O17 3.009863 1_545
O0 Ti19 1.899380 1_555
O0 Ti4 1.990629 1_555
O1 Ti4 2.002687 1_555
O1 Ti1 2.002687 1_655
O2 Ti4 2.000771 1_555
O2 Ti1 2.000771 1_555
O3 Ti1 1.905421 1_555
O3 Ti0 1.973651 1_555
O4 Ti17 1.899380 1_555
O4 Ti1 1.990629 1_555
O5 Ti0 1.977856 1_555
O5 Ti3 1.977856 1_565
O5 Sr0 3.003883 1_565
O6 Ti1 2.000771 1_655
O6 Ti4 2.000771 1_565
O7 Ti0 1.969444 1_655
O7 Ti3 1.969444 1_565
O7 Sr0 2.618220 1_665
O8 Ti1 2.002687 1_555
O8 Ti4 2.002687 1_565
O9 Ti2 1.887969 1_555
O9 Ti3 1.989247 1_555
O9 Sr0 2.767384 1_555
O9 Sr0 2.767384 1_655
O10 Ti4 1.905421 1_555
O10 Ti3 1.973651 1_555
O11 Ti2 1.981165 1_555
O11 Ti6 1.981165 1_655
O11 Sr0 2.716311 1_655
O11 Sr1 2.877247 1_555
O12 Ti0 1.969444 1_555
O12 Ti3 1.969444 1_555
O12 Sr0 2.618220 1_555
O13 Ti6 1.967570 1_555
O13 Ti2 1.967570 1_555
O13 Sr1 2.598407 1_555
O13 Sr0 2.964653 1_555
O14 Ti3 1.977856 1_555
O14 Ti0 1.977856 1_655
O14 Sr0 3.003883 1_655
O15 Ti5 1.961332 1_555
O15 Ti6 2.066203 1_555
O15 Sr1 2.767371 1_455
O15 Sr1 2.767371 1_555
O16 Ti6 1.887969 1_555
O16 Ti0 1.989247 1_555
O16 Sr0 2.767384 1_555
O16 Sr0 2.767384 1_565
O17 Ti5 1.974212 1_555
O17 Ti8 1.974212 1_565
O17 Sr1 2.625713 1_555
O17 Sr4 2.637521 1_555
O17 Sr2 2.995382 1_565
O18 Ti6 1.967570 1_655
O18 Ti2 1.967570 1_565
O18 Sr1 2.598407 1_555
O18 Sr0 2.964653 1_665
O19 Ti8 1.985914 1_565
O19 Ti5 1.985914 1_655
O19 Sr2 2.640926 1_665
O19 Sr1 2.994755 1_555
O19 Sr4 3.102481 1_555
O20 Ti6 1.981165 1_555
O20 Ti2 1.981165 1_565
O20 Sr0 2.716311 1_565
O20 Sr1 2.877247 1_555
O21 Ti8 1.948065 1_555
O21 Ti7 2.035168 1_555
O21 Sr2 2.767205 1_555
O21 Sr2 2.767205 1_655
O21 Sr4 2.767618 1_545
O21 Sr4 2.767618 1_555
O22 Ti8 1.961332 1_555
O22 Ti2 2.066203 1_555
O22 Sr1 2.767371 1_545
O22 Sr1 2.767371 1_555
O23 Ti7 1.963201 1_555
O23 Ti10 1.963201 1_655
O23 Sr2 2.645393 1_655
O23 Sr6 2.691665 1_655
O23 Sr4 2.863276 1_555
O23 Sr3 2.920995 1_555
O24 Ti5 1.985914 1_555
O24 Ti8 1.985914 1_555
O24 Sr2 2.640926 1_555
O24 Sr1 2.994755 1_555
O24 Sr4 3.102481 1_555
O25 Ti10 1.964203 1_555
O25 Ti7 1.964203 1_555
O25 Sr4 2.626712 1_555
O25 Sr3 2.696205 1_555
O25 Sr2 2.873223 1_555
O25 Sr6 2.922081 1_555
O26 Ti8 1.974212 1_555
O26 Ti5 1.974212 1_655
O26 Sr1 2.625713 1_555
O26 Sr4 2.637521 1_555
O26 Sr2 2.995382 1_655
O27 Ti10 1.928638 1_555
O27 Ti9 2.034694 1_555
O27 Sr6 2.767007 1_555
O27 Sr6 2.767007 1_565
O27 Sr3 2.767047 1_555
O27 Sr3 2.767047 1_455
O28 Ti5 1.948065 1_555
O28 Ti10 2.035168 1_555
O28 Sr2 2.767205 1_555
O28 Sr2 2.767205 1_565
O28 Sr4 2.767618 1_555
O28 Sr4 2.767618 1_455
O29 Ti9 1.963340 1_555
O29 Ti12 1.963340 1_565
O29 Sr3 2.647025 1_555
O29 Sr8 2.692487 1_555
O29 Sr6 2.879254 1_565
O29 Sr5 2.919101 1_565
O30 Ti10 1.964203 1_655
O30 Ti7 1.964203 1_565
O30 Sr4 2.626712 1_555
O30 Sr3 2.696205 1_555
O30 Sr2 2.873223 1_665
O30 Sr6 2.922081 1_665
O31 Ti12 1.964165 1_565
O31 Ti9 1.964165 1_655
O31 Sr6 2.648270 1_665
O31 Sr5 2.692757 1_665
O31 Sr3 2.875809 1_555
O31 Sr8 2.918831 1_555
O32 Ti10 1.963201 1_555
O32 Ti7 1.963201 1_565
O32 Sr2 2.645393 1_565
O32 Sr6 2.691665 1_565
O32 Sr4 2.863276 1_555
O32 Sr3 2.920995 1_555
O33 Ti12 1.924729 1_555
O33 Ti11 2.030509 1_555
O33 Sr5 2.766969 1_655
O33 Sr5 2.766969 1_555
O33 Sr8 2.766970 1_555
O33 Sr8 2.766970 1_545
O34 Ti7 1.928638 1_555
O34 Ti12 2.034694 1_555
O34 Sr6 2.767007 1_555
O34 Sr6 2.767007 1_655
O34 Sr3 2.767047 1_555
O34 Sr3 2.767047 1_545
O35 Ti11 1.963396 1_555
O35 Ti14 1.963396 1_655
O35 Sr5 2.647923 1_655
O35 Sr10 2.692204 1_655
O35 Sr8 2.878986 1_555
O35 Sr7 2.920171 1_555
O36 Ti12 1.964165 1_555
O36 Ti9 1.964165 1_555
O36 Sr6 2.648270 1_555
O36 Sr5 2.692757 1_555
O36 Sr3 2.875809 1_555
O36 Sr8 2.918831 1_555
O37 Ti14 1.964204 1_555
O37 Ti11 1.964204 1_555
O37 Sr8 2.647637 1_555
O37 Sr7 2.692073 1_555
O37 Sr5 2.878353 1_555
O37 Sr10 2.918873 1_555
O38 Ti12 1.963340 1_555
O38 Ti9 1.963340 1_655
O38 Sr3 2.647025 1_555
O38 Sr8 2.692487 1_555
O38 Sr6 2.879254 1_655
O38 Sr5 2.919101 1_655
O39 Ti14 1.927217 1_555
O39 Ti13 2.033115 1_555
O39 Sr10 2.766944 1_555
O39 Sr10 2.766944 1_565
O39 Sr7 2.766951 1_455
O39 Sr7 2.766951 1_555
O40 Ti9 1.924729 1_555
O40 Ti14 2.030509 1_555
O40 Sr5 2.766969 1_565
O40 Sr5 2.766969 1_555
O40 Sr8 2.766970 1_555
O40 Sr8 2.766970 1_455
O41 Ti13 1.963519 1_555
O41 Ti16 1.963519 1_565
O41 Sr7 2.647989 1_555
O41 Sr12 2.698113 1_555
O41 Sr10 2.879841 1_565
O41 Sr9 2.923832 1_565
O42 Ti11 1.964204 1_565
O42 Ti14 1.964204 1_655
O42 Sr8 2.647637 1_555
O42 Sr7 2.692073 1_555
O42 Sr5 2.878353 1_665
O42 Sr10 2.918873 1_665
O43 Ti13 1.964304 1_655
O43 Ti16 1.964304 1_565
O43 Sr10 2.648801 1_665
O43 Sr9 2.694940 1_665
O43 Sr7 2.879427 1_555
O43 Sr12 2.924090 1_555
O44 Ti14 1.963396 1_555
O44 Ti11 1.963396 1_565
O44 Sr5 2.647923 1_565
O44 Sr10 2.692204 1_565
O44 Sr8 2.878986 1_555
O44 Sr7 2.920171 1_555
O45 Ti16 1.929467 1_555
O45 Ti15 2.040025 1_555
O45 Sr9 2.766939 1_555
O45 Sr9 2.766939 1_655
O45 Sr12 2.766969 1_555
O45 Sr12 2.766969 1_545
O46 Ti11 1.927217 1_555
O46 Ti16 2.033115 1_555
O46 Sr10 2.766944 1_555
O46 Sr10 2.766944 1_655
O46 Sr7 2.766951 1_555
O46 Sr7 2.766951 1_545
O47 Ti15 1.963888 1_555
O47 Ti18 1.963888 1_655
O47 Sr9 2.647950 1_655
O47 Sr13 2.694381 1_655
O47 Sr12 2.880954 1_555
O47 Sr11 2.931381 1_555
O48 Ti16 1.964304 1_555
O48 Ti13 1.964304 1_555
O48 Sr10 2.648801 1_555
O48 Sr9 2.694940 1_555
O48 Sr7 2.879427 1_555
O48 Sr12 2.924090 1_555
O49 Ti15 1.964462 1_555
O49 Ti18 1.964462 1_555
O49 Sr12 2.654458 1_555
O49 Sr11 2.689710 1_555
O49 Sr9 2.891840 1_555
O49 Sr13 2.916547 1_555
O50 Ti16 1.963519 1_555
O50 Ti13 1.963519 1_655
O50 Sr7 2.647989 1_555
O50 Sr12 2.698113 1_555
O50 Sr10 2.879841 1_655
O50 Sr9 2.923832 1_655
O51 Ti18 1.933850 1_555
O51 Ti17 2.045553 1_556
O51 Sr13 2.766843 1_555
O51 Sr13 2.766843 1_565
O51 Sr11 2.766919 1_455
O51 Sr11 2.766919 1_555
O52 Ti13 1.929467 1_555
O52 Ti18 2.040025 1_555
O52 Sr9 2.766939 1_565
O52 Sr9 2.766939 1_555
O52 Sr12 2.766969 1_555
O52 Sr12 2.766969 1_455
O53 Ti17 1.970669 1_555
O53 Ti19 1.970669 1_565
O53 Sr11 2.597435 1_554
O53 Sr13 2.924790 1_564
O54 Ti15 1.964462 1_565
O54 Ti18 1.964462 1_655
O54 Sr12 2.654458 1_555
O54 Sr11 2.689710 1_555
O54 Sr9 2.891840 1_665
O54 Sr13 2.916547 1_665
O55 Ti17 1.983236 1_655
O55 Ti19 1.983236 1_565
O55 Sr13 2.601865 1_664
O55 Sr11 3.042845 1_554
O56 Ti18 1.963888 1_555
O56 Ti15 1.963888 1_565
O56 Sr9 2.647950 1_565
O56 Sr13 2.694381 1_565
O56 Sr12 2.880954 1_555
O56 Sr11 2.931381 1_555
O57 Ti15 1.933850 1_555
O57 Ti19 2.045553 1_556
O57 Sr13 2.766843 1_555
O57 Sr13 2.766843 1_655
O57 Sr11 2.766919 1_545
O57 Sr11 2.766919 1_555
O58 Ti19 1.983236 1_555
O58 Ti17 1.983236 1_555
O58 Sr13 2.601865 1_554
O58 Sr11 3.042845 1_554
O59 Ti19 1.970669 1_555
O59 Ti17 1.970669 1_655
O59 Sr11 2.597435 1_554
O59 Sr13 2.924790 1_654
