# generated using pymatgen
data_Rb2Gd4Cu4S9
_symmetry_space_group_name_H-M   'P 1'
_cell_length_a   4.00114644
_cell_length_b   7.27086288
_cell_length_c   15.51290971
_cell_angle_alpha   81.94912181
_cell_angle_beta   82.56916501
_cell_angle_gamma   74.11159584
_symmetry_Int_Tables_number   1
_chemical_formula_structural   Rb2Gd4Cu4S9
_chemical_formula_sum   'Rb2 Gd4 Cu4 S9'
_cell_volume   427.81303662
_cell_formula_units_Z   1
loop_
 _symmetry_equiv_pos_site_id
 _symmetry_equiv_pos_as_xyz
  1  'x, y, z'
loop_
 _atom_site_type_symbol
 _atom_site_label
 _atom_site_symmetry_multiplicity
 _atom_site_fract_x
 _atom_site_fract_y
 _atom_site_fract_z
 _atom_site_occupancy
  Rb  Rb0  1  0.97887400  0.28550700  0.76899300  1
  Rb  Rb1  1  0.02263900  0.71305700  0.23089000  1
  Gd  Gd0  1  0.34519800  0.25477500  0.05311200  1
  Gd  Gd1  1  0.22957200  0.14022300  0.39601300  1
  Gd  Gd2  1  0.76466600  0.85992600  0.60329400  1
  Gd  Gd3  1  0.65309900  0.74565200  0.94631700  1
  Cu  Cu0  1  0.42672600  0.67402300  0.45932600  1
  Cu  Cu1  1  0.75130500  0.26622400  0.22673600  1
  Cu  Cu2  1  0.25146900  0.73191700  0.77227300  1
  Cu  Cu3  1  0.56474900  0.32136100  0.54330600  1
  S  S0  1  0.60658500  0.40879900  0.37529100  1
  S  S1  1  0.38809500  0.59196800  0.62346300  1
  S  S2  1  0.70133700  0.49283300  0.10084300  1
  S  S3  1  0.29678800  0.50761300  0.89826700  1
  S  S4  1  0.33954500  0.09481200  0.22255300  1
  S  S5  1  0.66382300  0.90345400  0.77664000  1
  S  S6  1  0.99985100  0.00146300  0.99892700  1
  S  S7  1  0.85774600  0.84958100  0.42583100  1
  S  S8  1  0.13524800  0.15064200  0.57362500  1
loop_
_geom_bond_atom_site_label_1
_geom_bond_atom_site_label_2
_geom_bond_distance
_geom_bond_site_symmetry_2
Rb0 S8 3.247207 1_655
Rb0 S3 3.307464 1_655
Rb0 S5 3.326382 1_645
Rb0 S5 3.332545 1_545
Rb0 S3 3.340076 1_555
Rb0 S1 3.517829 1_655
Rb0 S1 3.568848 1_555
Rb0 S6 3.861928 1_555
Rb1 S7 3.245306 1_455
Rb1 S2 3.315009 1_455
Rb1 S4 3.320909 1_465
Rb1 S4 3.333623 1_565
Rb1 S2 3.333941 1_555
Rb1 S0 3.513803 1_455
Rb1 S0 3.536460 1_555
Gd0 S4 2.721227 1_555
Gd0 S2 2.749020 1_555
Gd0 S2 2.757728 1_455
Gd0 S3 2.806348 1_554
Gd0 S6 2.852299 1_454
Gd0 S6 2.860509 1_554
Gd1 S4 2.721482 1_555
Gd1 S0 2.737939 1_455
Gd1 S0 2.739311 1_555
Gd1 S8 2.741091 1_555
Gd1 S7 2.848805 1_545
Gd1 S7 2.857021 1_445
Gd2 S5 2.716992 1_555
Gd2 S1 2.734685 1_555
Gd2 S1 2.736075 1_655
Gd2 S7 2.738733 1_555
Gd2 S8 2.852151 1_565
Gd2 S8 2.854012 1_665
Gd3 S5 2.720013 1_555
Gd3 S3 2.751512 1_555
Gd3 S3 2.758341 1_655
Gd3 S2 2.802452 1_556
Gd3 S6 2.858116 1_465
Gd3 S6 2.860321 1_565
Cu0 S7 2.368800 1_455
Cu0 S0 2.374394 1_555
Cu0 S7 2.379334 1_555
Cu0 S1 2.527126 1_555
Cu1 S4 2.333744 1_555
Cu1 S4 2.339690 1_655
Cu1 S2 2.363914 1_555
Cu1 S0 2.591539 1_555
Cu2 S5 2.336997 1_555
Cu2 S5 2.337815 1_455
Cu2 S3 2.355791 1_555
Cu2 S1 2.586560 1_555
Cu3 S8 2.347458 1_555
Cu3 S8 2.352716 1_655
Cu3 S1 2.369295 1_555
Cu3 S0 2.589750 1_555
