# generated using pymatgen
data_Al(HO)3
_symmetry_space_group_name_H-M   'P 1'
_cell_length_a   5.17990500
_cell_length_b   8.68240200
_cell_length_c   12.73305486
_cell_angle_alpha   48.44201686
_cell_angle_beta   90.00000000
_cell_angle_gamma   90.00000000
_symmetry_Int_Tables_number   1
_chemical_formula_structural   Al(HO)3
_chemical_formula_sum   'Al8 H24 O24'
_cell_volume   428.51023532
_cell_formula_units_Z   8
loop_
 _symmetry_equiv_pos_site_id
 _symmetry_equiv_pos_as_xyz
  1  'x, y, z'
loop_
 _atom_site_type_symbol
 _atom_site_label
 _atom_site_symmetry_multiplicity
 _atom_site_fract_x
 _atom_site_fract_y
 _atom_site_fract_z
 _atom_site_occupancy
  Al  Al0  1  0.24377700  0.83975300  0.48581900  1
  Al  Al1  1  0.75622300  0.83975300  0.98581900  1
  Al  Al2  1  0.26613900  0.18766200  0.50137900  1
  Al  Al3  1  0.73386100  0.18766200  0.00137900  1
  Al  Al4  1  0.73030400  0.67630500  0.49236600  1
  Al  Al5  1  0.26969600  0.67630500  0.99236600  1
  Al  Al6  1  0.75176200  0.31751000  0.51066300  1
  Al  Al7  1  0.24823800  0.31751000  0.01066300  1
  H  H0  1  0.54993500  0.03648800  0.27581000  1
  H  H1  1  0.45006500  0.03648800  0.77581000  1
  H  H2  1  0.98138000  0.99990100  0.70640400  1
  H  H3  1  0.01862000  0.99990100  0.20640400  1
  H  H4  1  0.05864100  0.52063900  0.29134300  1
  H  H5  1  0.94135900  0.52063900  0.79134300  1
  H  H6  1  0.33965500  0.46401700  0.61420100  1
  H  H7  1  0.66034500  0.46401700  0.11420100  1
  H  H8  1  0.42268800  0.56388400  0.39533800  1
  H  H9  1  0.57731200  0.56388400  0.89533800  1
  H  H10  1  0.83330000  0.31356300  0.70070700  1
  H  H11  1  0.16670000  0.31356300  0.20070700  1
  H  H12  1  0.94827700  0.12867300  0.38063000  1
  H  H13  1  0.05172300  0.12867300  0.88063000  1
  H  H14  1  0.57924300  0.91973600  0.58475300  1
  H  H15  1  0.39171100  0.76310300  0.72774700  1
  H  H16  1  0.42075700  0.91973600  0.08475300  1
  H  H17  1  0.60828900  0.76310300  0.22774700  1
  H  H18  1  0.11802700  0.71262800  0.36756600  1
  H  H19  1  0.88197300  0.71262800  0.86756600  1
  H  H20  1  0.57047200  0.38366000  0.29631800  1
  H  H21  1  0.42952800  0.38366000  0.79631800  1
  H  H22  1  0.89618200  0.83536500  0.60561000  1
  H  H23  1  0.10381800  0.83536500  0.10561000  1
  O  O0  1  0.54735600  0.91986500  0.38612300  1
  O  O1  1  0.45264400  0.91986500  0.88612300  1
  O  O2  1  0.95655800  0.07531400  0.60504800  1
  O  O3  1  0.04344200  0.07531400  0.10504800  1
  O  O4  1  0.07628100  0.43818500  0.39335300  1
  O  O5  1  0.92371900  0.43818500  0.89335300  1
  O  O6  1  0.41855600  0.57616300  0.60415700  1
  O  O7  1  0.58144400  0.57616300  0.10415700  1
  O  O8  1  0.60363500  0.61091900  0.37603300  1
  O  O9  1  0.39636500  0.61091900  0.87603300  1
  O  O10  1  0.87192300  0.41294300  0.59925300  1
  O  O11  1  0.12807700  0.41294300  0.09925300  1
  O  O12  1  0.13631400  0.11580600  0.38928600  1
  O  O13  1  0.86368600  0.11580600  0.88928600  1
  O  O14  1  0.39896500  0.88016300  0.61301600  1
  O  O15  1  0.60103500  0.88016300  0.11301600  1
  O  O16  1  0.03806600  0.79981700  0.38196900  1
  O  O17  1  0.96193400  0.79981700  0.88196900  1
  O  O18  1  0.45357100  0.20227300  0.61487600  1
  O  O19  1  0.54642900  0.20227300  0.11487600  1
  O  O20  1  0.58116600  0.27412100  0.39884800  1
  O  O21  1  0.41883400  0.27412100  0.89884800  1
  O  O22  1  0.93534000  0.73125300  0.59949500  1
  O  O23  1  0.06466000  0.73125300  0.09949500  1
loop_
_geom_bond_atom_site_label_1
_geom_bond_atom_site_label_2
_geom_bond_distance
_geom_bond_site_symmetry_2
Al0 O0 1.842979 1_555
Al0 O16 1.900665 1_555
Al0 O12 1.912240 1_565
Al0 O22 1.930284 1_455
Al0 O6 1.937135 1_555
Al0 O14 2.036257 1_555
Al1 O1 1.842979 1_555
Al1 O17 1.900665 1_555
Al1 O13 1.912240 1_565
Al1 O23 1.930284 1_656
Al1 O7 1.937135 1_556
Al1 O15 2.036257 1_556
Al2 O18 1.813955 1_555
Al2 O2 1.886040 1_455
Al2 O4 1.902861 1_555
Al2 O20 1.905380 1_555
Al2 O12 2.014951 1_555
Al2 O14 2.141680 1_545
Al3 O19 1.813955 1_555
Al3 O3 1.886040 1_655
Al3 O5 1.902861 1_554
Al3 O21 1.905380 1_554
Al3 O13 2.014951 1_554
Al3 O15 2.141680 1_545
Al4 O0 1.845129 1_555
Al4 O10 1.868177 1_555
Al4 O16 1.915038 1_655
Al4 O6 1.935918 1_555
Al4 O8 2.015611 1_555
Al4 O22 2.019833 1_555
Al5 O1 1.845129 1_555
Al5 O11 1.868177 1_556
Al5 O17 1.915038 1_455
Al5 O7 1.935918 1_556
Al5 O9 2.015611 1_555
Al5 O23 2.019833 1_556
Al6 O18 1.840157 1_555
Al6 O10 1.893798 1_555
Al6 O2 1.907523 1_555
Al6 O20 1.913494 1_555
Al6 O4 2.019461 1_655
Al6 O8 2.055021 1_555
Al7 O19 1.840157 1_555
Al7 O11 1.893798 1_555
Al7 O3 1.907523 1_555
Al7 O21 1.913494 1_554
Al7 O5 2.019461 1_454
Al7 O9 2.055021 1_554
H0 O0 1.054241 1_545
H0 O19 1.535566 1_555
H1 O1 1.054241 1_545
H1 O18 1.535566 1_555
H2 O2 0.994830 1_565
H3 O3 0.994830 1_565
H4 O4 0.987054 1_555
H5 O5 0.987054 1_555
H6 O6 0.982985 1_555
H7 O7 0.982985 1_555
H8 O8 0.986164 1_555
H9 O9 0.986164 1_555
H10 O10 0.987152 1_555
H11 O11 0.987152 1_555
H12 O12 0.978261 1_655
H13 O13 0.978261 1_455
H14 O14 0.977515 1_555
H15 O14 1.094817 1_555
H15 O9 1.414740 1_555
H16 O15 0.977515 1_555
H17 O15 1.094817 1_555
H17 O8 1.414740 1_555
H18 O16 0.981043 1_555
H19 O17 0.981043 1_555
H20 O20 0.982156 1_555
H21 O21 0.982156 1_555
H22 O22 0.978620 1_555
H23 O23 0.978620 1_555
