# generated using pymatgen
data_Ce4Si4N7ClO3
_symmetry_space_group_name_H-M   'P 1'
_cell_length_a   9.79124881
_cell_length_b   10.50679124
_cell_length_c   10.86901000
_cell_angle_alpha   90.00000000
_cell_angle_beta   90.00000000
_cell_angle_gamma   90.00000000
_symmetry_Int_Tables_number   1
_chemical_formula_structural   Ce4Si4N7ClO3
_chemical_formula_sum   'Ce16 Si16 N28 Cl4 O12'
_cell_volume   1118.14513468
_cell_formula_units_Z   4
loop_
 _symmetry_equiv_pos_site_id
 _symmetry_equiv_pos_as_xyz
  1  'x, y, z'
loop_
 _atom_site_type_symbol
 _atom_site_label
 _atom_site_symmetry_multiplicity
 _atom_site_fract_x
 _atom_site_fract_y
 _atom_site_fract_z
 _atom_site_occupancy
  Ce  Ce0  1  0.06437407  0.19578608  0.67074713  1
  Ce  Ce1  1  0.09485980  0.54955851  0.42045964  1
  Ce  Ce2  1  0.15770985  0.68338668  0.06266978  1
  Ce  Ce3  1  0.21785641  0.96701605  0.30284626  1
  Ce  Ce4  1  0.28214359  0.46701605  0.69715374  1
  Ce  Ce5  1  0.34229015  0.18338668  0.93733022  1
  Ce  Ce6  1  0.40514020  0.04955851  0.57954036  1
  Ce  Ce7  1  0.43562593  0.69578608  0.32925287  1
  Ce  Ce8  1  0.56437407  0.80421392  0.82925287  1
  Ce  Ce9  1  0.59485980  0.45044149  0.07954036  1
  Ce  Ce10  1  0.65770985  0.31661332  0.43733022  1
  Ce  Ce11  1  0.71785641  0.03298395  0.19715374  1
  Ce  Ce12  1  0.78214359  0.53298395  0.80284626  1
  Ce  Ce13  1  0.84229015  0.81661332  0.56266978  1
  Ce  Ce14  1  0.90514020  0.95044149  0.92045964  1
  Ce  Ce15  1  0.93562593  0.30421392  0.17074713  1
  Si  Si0  1  0.05886641  0.70612437  0.77292230  1
  Si  Si1  1  0.05147595  0.42469813  0.92521738  1
  Si  Si2  1  0.21232815  0.26383528  0.41346258  1
  Si  Si3  1  0.23986055  0.41220592  0.17472856  1
  Si  Si4  1  0.26013945  0.91220592  0.82527144  1
  Si  Si5  1  0.28767185  0.76383528  0.58653742  1
  Si  Si6  1  0.44852405  0.92469813  0.07478262  1
  Si  Si7  1  0.44113359  0.20612437  0.22707770  1
  Si  Si8  1  0.55886641  0.29387563  0.72707770  1
  Si  Si9  1  0.55147595  0.57530187  0.57478262  1
  Si  Si10  1  0.71232815  0.73616472  0.08653742  1
  Si  Si11  1  0.73986055  0.58779408  0.32527144  1
  Si  Si12  1  0.76013945  0.08779408  0.67472856  1
  Si  Si13  1  0.78767185  0.23616472  0.91346258  1
  Si  Si14  1  0.94852405  0.07530187  0.42521738  1
  Si  Si15  1  0.94113359  0.79387563  0.27292230  1
  N  N0  1  0.04828155  0.56099387  0.84099970  1
  N  N1  1  0.12450982  0.69835390  0.62445537  1
  N  N2  1  0.11456537  0.45284074  0.07006595  1
  N  N3  1  0.12995447  0.81522687  0.87753852  1
  N  N4  1  0.11578745  0.12774637  0.44703897  1
  N  N5  1  0.14224875  0.35403904  0.29471807  1
  N  N6  1  0.19881370  0.36067317  0.54086638  1
  N  N7  1  0.30118630  0.86067317  0.45913362  1
  N  N8  1  0.35775125  0.85403904  0.70528193  1
  N  N9  1  0.38421255  0.62774637  0.55296103  1
  N  N10  1  0.37004553  0.31522687  0.12246148  1
  N  N11  1  0.38543463  0.95284074  0.92993405  1
  N  N12  1  0.37549018  0.19835390  0.37554463  1
  N  N13  1  0.45171845  0.06099387  0.15900030  1
  N  N14  1  0.54828155  0.43900613  0.65900030  1
  N  N15  1  0.62450982  0.30164610  0.87554463  1
  N  N16  1  0.61456537  0.54715926  0.42993405  1
  N  N17  1  0.62995447  0.18477313  0.62246148  1
  N  N18  1  0.61578745  0.87225363  0.05296103  1
  N  N19  1  0.64224875  0.64596096  0.20528193  1
  N  N20  1  0.69881370  0.63932683  0.95913362  1
  N  N21  1  0.80118630  0.13932683  0.04086638  1
  N  N22  1  0.85775125  0.14596096  0.79471807  1
  N  N23  1  0.88421255  0.37225363  0.94703897  1
  N  N24  1  0.87004553  0.68477313  0.37753852  1
  N  N25  1  0.88543463  0.04715926  0.57006595  1
  N  N26  1  0.87549018  0.80164610  0.12445537  1
  N  N27  1  0.95171845  0.93900613  0.34099970  1
  Cl  Cl0  1  0.11093050  0.08662894  0.07634179  1
  Cl  Cl1  1  0.38906950  0.58662894  0.92365821  1
  Cl  Cl2  1  0.61093050  0.91337106  0.42365821  1
  Cl  Cl3  1  0.88906950  0.41337106  0.57634179  1
  O  O0  1  0.10493011  0.74224449  0.26300678  1
  O  O1  1  0.15221826  0.32233116  0.84804406  1
  O  O2  1  0.19438556  0.05061524  0.77924858  1
  O  O3  1  0.30561444  0.55061524  0.22075142  1
  O  O4  1  0.34778174  0.82233116  0.15195594  1
  O  O5  1  0.39506989  0.24224449  0.73699322  1
  O  O6  1  0.60493011  0.25775551  0.23699322  1
  O  O7  1  0.65221826  0.67766884  0.65195594  1
  O  O8  1  0.69438556  0.94938476  0.72075142  1
  O  O9  1  0.80561444  0.44938476  0.27924858  1
  O  O10  1  0.84778174  0.17766884  0.34804406  1
  O  O11  1  0.89506989  0.75775551  0.76300678  1
loop_
_geom_bond_atom_site_label_1
_geom_bond_atom_site_label_2
_geom_bond_distance
_geom_bond_site_symmetry_2
Ce0 O2 2.310346 1_555
Ce0 N22 2.486477 1_455
Ce0 O1 2.494205 1_555
Ce0 N4 2.583910 1_555
Ce0 N25 2.589540 1_455
Ce0 N6 2.593624 1_555
Ce0 Cl3 3.037337 1_455
Ce1 N5 2.510618 1_555
Ce1 N6 2.585972 1_555
Ce1 O0 2.652755 1_555
Ce1 N24 2.661067 1_455
Ce1 N1 2.728461 1_555
Ce1 O3 2.994996 1_555
Ce1 Cl3 2.996340 1_455
Ce2 O0 2.321819 1_555
Ce2 N3 2.457967 1_554
Ce2 N2 2.460172 1_555
Ce2 O4 2.556647 1_555
Ce2 O3 2.644883 1_555
Ce2 Cl1 2.906537 1_554
Ce2 N0 2.933693 1_554
Ce2 N26 3.103318 1_455
Ce3 N7 2.190811 1_555
Ce3 N4 2.511353 1_565
Ce3 O4 2.572730 1_555
Ce3 O0 2.643357 1_555
Ce3 N27 2.654975 1_455
Ce3 N13 2.943226 1_565
Ce3 Cl0 2.955731 1_565
Ce3 N12 2.985706 1_565
Ce4 N6 2.190811 1_555
Ce4 N9 2.511353 1_555
Ce4 O1 2.572730 1_555
Ce4 O5 2.643357 1_555
Ce4 N14 2.654975 1_555
Ce4 N0 2.943226 1_555
Ce4 Cl1 2.955731 1_555
Ce4 N1 2.985706 1_555
Ce5 O5 2.321819 1_555
Ce5 N10 2.457967 1_556
Ce5 N11 2.460172 1_545
Ce5 O1 2.556647 1_555
Ce5 O2 2.644883 1_555
Ce5 Cl0 2.906537 1_556
Ce5 N13 2.933693 1_556
Ce5 N15 3.103318 1_555
Ce6 N8 2.510618 1_545
Ce6 N7 2.585972 1_545
Ce6 O5 2.652755 1_555
Ce6 N17 2.661067 1_555
Ce6 N12 2.728461 1_555
Ce6 O2 2.994996 1_555
Ce6 Cl2 2.996340 1_545
Ce7 O3 2.310346 1_555
Ce7 N19 2.486477 1_555
Ce7 O4 2.494205 1_555
Ce7 N9 2.583910 1_555
Ce7 N16 2.589540 1_555
Ce7 N7 2.593624 1_555
Ce7 Cl2 3.037337 1_555
Ce8 O8 2.310346 1_555
Ce8 N8 2.486477 1_555
Ce8 O7 2.494205 1_555
Ce8 N18 2.583910 1_556
Ce8 N11 2.589540 1_555
Ce8 N20 2.593624 1_555
Ce8 Cl1 3.037337 1_555
Ce9 N19 2.510618 1_555
Ce9 N20 2.585972 1_554
Ce9 O6 2.652755 1_555
Ce9 N10 2.661067 1_555
Ce9 N15 2.728461 1_554
Ce9 O9 2.994996 1_555
Ce9 Cl1 2.996340 1_554
Ce10 O6 2.321819 1_555
Ce10 N17 2.457967 1_555
Ce10 N16 2.460172 1_555
Ce10 O10 2.556647 1_555
Ce10 O9 2.644883 1_555
Ce10 Cl3 2.906537 1_555
Ce10 N14 2.933693 1_555
Ce10 N12 3.103318 1_555
Ce11 N21 2.190811 1_555
Ce11 N18 2.511353 1_545
Ce11 O10 2.572730 1_555
Ce11 O6 2.643357 1_555
Ce11 N13 2.654975 1_555
Ce11 N27 2.943226 1_545
Ce11 Cl2 2.955731 1_545
Ce11 N26 2.985706 1_545
Ce12 N20 2.190811 1_555
Ce12 N23 2.511353 1_555
Ce12 O7 2.572730 1_555
Ce12 O11 2.643357 1_555
Ce12 N0 2.654975 1_655
Ce12 N14 2.943226 1_555
Ce12 Cl3 2.955731 1_555
Ce12 N15 2.985706 1_555
Ce13 O11 2.321819 1_555
Ce13 N24 2.457967 1_555
Ce13 N25 2.460172 1_565
Ce13 O7 2.556647 1_555
Ce13 O8 2.644883 1_555
Ce13 Cl2 2.906537 1_555
Ce13 N27 2.933693 1_555
Ce13 N1 3.103318 1_655
Ce14 N22 2.510618 1_565
Ce14 N21 2.585972 1_566
Ce14 O11 2.652755 1_555
Ce14 N3 2.661067 1_655
Ce14 N26 2.728461 1_556
Ce14 O8 2.994996 1_555
Ce14 Cl0 2.996340 1_666
Ce15 O9 2.310346 1_555
Ce15 N5 2.486477 1_655
Ce15 O10 2.494205 1_555
Ce15 N23 2.583910 1_554
Ce15 N2 2.589540 1_655
Ce15 N21 2.593624 1_555
Ce15 Cl0 3.037337 1_655
N0 Si0 1.698066 1_555
N0 Si1 1.699876 1_555
N1 Si0 1.738896 1_555
N1 Si5 1.787566 1_555
N2 Si1 1.716865 1_554
N2 Si3 1.726671 1_555
N3 Si4 1.727934 1_555
N3 Si0 1.758253 1_555
N4 Si14 1.744133 1_455
N4 Si2 1.752479 1_555
N5 Si3 1.728524 1_555
N5 Si2 1.742066 1_555
N6 Si2 1.723446 1_555
N7 Si5 1.723446 1_555
N8 Si4 1.728524 1_555
N8 Si5 1.742066 1_555
N9 Si9 1.744133 1_555
N9 Si5 1.752479 1_555
N10 Si3 1.727934 1_555
N10 Si7 1.758253 1_555
N11 Si6 1.716865 1_556
N11 Si4 1.726671 1_555
N12 Si7 1.738896 1_555
N12 Si2 1.787566 1_555
N13 Si7 1.698066 1_555
N13 Si6 1.699876 1_545
N14 Si8 1.698066 1_555
N14 Si9 1.699876 1_555
N15 Si8 1.738896 1_555
N15 Si13 1.787566 1_555
N16 Si9 1.716865 1_555
N16 Si11 1.726671 1_555
N17 Si12 1.727934 1_555
N17 Si8 1.758253 1_555
N18 Si6 1.744133 1_555
N18 Si10 1.752479 1_555
N19 Si11 1.728524 1_555
N19 Si10 1.742066 1_555
N20 Si10 1.723446 1_556
N21 Si13 1.723446 1_554
N22 Si12 1.728524 1_555
N22 Si13 1.742066 1_555
N23 Si1 1.744133 1_655
N23 Si13 1.752479 1_555
N24 Si11 1.727934 1_555
N24 Si15 1.758253 1_555
N25 Si14 1.716865 1_555
N25 Si12 1.726671 1_555
N26 Si15 1.738896 1_555
N26 Si10 1.787566 1_555
N27 Si15 1.698066 1_555
N27 Si14 1.699876 1_565
O0 Si15 1.696462 1_455
O1 Si1 1.683258 1_555
O2 Si4 1.667191 1_545
O3 Si3 1.667191 1_555
O4 Si6 1.683258 1_555
O5 Si8 1.696462 1_555
O6 Si7 1.696462 1_555
O7 Si9 1.683258 1_555
O8 Si12 1.667191 1_565
O9 Si11 1.667191 1_555
O10 Si14 1.683258 1_555
O11 Si0 1.696462 1_655
