# generated using pymatgen
data_Nd2PbSe4
_symmetry_space_group_name_H-M   'P 1'
_cell_length_a   7.83962503
_cell_length_b   7.83962503
_cell_length_c   7.83962503
_cell_angle_alpha   109.41801808
_cell_angle_beta   109.41801808
_cell_angle_gamma   109.57767822
_symmetry_Int_Tables_number   1
_chemical_formula_structural   Nd2PbSe4
_chemical_formula_sum   'Nd4 Pb2 Se8'
_cell_volume   370.90514407
_cell_formula_units_Z   2
loop_
 _symmetry_equiv_pos_site_id
 _symmetry_equiv_pos_as_xyz
  1  'x, y, z'
loop_
 _atom_site_type_symbol
 _atom_site_label
 _atom_site_symmetry_multiplicity
 _atom_site_fract_x
 _atom_site_fract_y
 _atom_site_fract_z
 _atom_site_occupancy
  Nd  Nd0  1  0.99397000  0.37500000  0.11897000  1
  Nd  Nd1  1  0.25603000  0.87500000  0.88103000  1
  Nd  Nd2  1  0.62500000  0.74397000  0.61897000  1
  Nd  Nd3  1  0.12500000  0.00603000  0.38103000  1
  Pb  Pb0  1  0.75000000  0.25000000  0.50000000  1
  Pb  Pb1  1  0.50000000  0.50000000  0.00000000  1
  Se  Se0  1  0.51784700  0.11522000  0.74782100  1
  Se  Se1  1  0.88478000  0.63260000  0.40262700  1
  Se  Se2  1  0.36522000  0.26784700  0.24782100  1
  Se  Se3  1  0.22997400  0.48215300  0.59737300  1
  Se  Se4  1  0.88260000  0.63478000  0.90262700  1
  Se  Se5  1  0.36740000  0.77002600  0.25217900  1
  Se  Se6  1  0.73215300  0.97997400  0.09737300  1
  Se  Se7  1  0.02002600  0.11740000  0.75217900  1
loop_
_geom_bond_atom_site_label_1
_geom_bond_atom_site_label_2
_geom_bond_distance
_geom_bond_site_symmetry_2
Nd0 Se6 2.998755 1_545
Nd0 Se5 2.998759 1_655
Nd0 Se1 3.032226 1_555
Nd0 Se7 3.032227 1_654
Nd0 Se0 3.207842 1_554
Nd0 Se4 3.207845 1_554
Nd0 Se3 3.231829 1_655
Nd0 Se2 3.231829 1_655
Nd1 Se0 2.998755 1_565
Nd1 Se4 2.998761 1_455
Nd1 Se2 3.032230 1_566
Nd1 Se3 3.032230 1_555
Nd1 Se6 3.207842 1_556
Nd1 Se5 3.207843 1_556
Nd1 Se1 3.231828 1_455
Nd1 Se7 3.231836 1_565
Nd2 Se3 2.998755 1_555
Nd2 Se7 2.998759 1_665
Nd2 Se4 3.032226 1_555
Nd2 Se5 3.032227 1_555
Nd2 Se2 3.207842 1_555
Nd2 Se1 3.207845 1_555
Nd2 Se6 3.231829 1_556
Nd2 Se0 3.231829 1_565
Nd3 Se2 2.998755 1_555
Nd3 Se1 2.998761 1_445
Nd3 Se0 3.032230 1_555
Nd3 Se6 3.032230 1_445
Nd3 Se3 3.207842 1_555
Nd3 Se7 3.207843 1_555
Nd3 Se4 3.231828 1_444
Nd3 Se5 3.231836 1_545
Pb0 Se7 3.086896 1_655
Pb0 Se6 3.086902 1_545
Pb0 Se2 3.086902 1_555
Pb0 Se4 3.086905 1_555
Pb0 Se1 3.260465 1_555
Pb0 Se5 3.260469 1_545
Pb0 Se3 3.260472 1_655
Pb0 Se0 3.260472 1_555
Pb1 Se5 3.086896 1_555
Pb1 Se0 3.086902 1_554
Pb1 Se3 3.086902 1_554
Pb1 Se1 3.086905 1_555
Pb1 Se4 3.260465 1_554
Pb1 Se7 3.260469 1_554
Pb1 Se2 3.260472 1_555
Pb1 Se6 3.260472 1_555
