# generated using pymatgen
data_BiBr3
_symmetry_space_group_name_H-M   'P 1'
_cell_length_a   10.24432700
_cell_length_b   7.29069200
_cell_length_c   8.26833041
_cell_angle_alpha   71.77856245
_cell_angle_beta   90.00000000
_cell_angle_gamma   90.00000000
_symmetry_Int_Tables_number   1
_chemical_formula_structural   BiBr3
_chemical_formula_sum   'Bi4 Br12'
_cell_volume   586.58016977
_cell_formula_units_Z   4
loop_
 _symmetry_equiv_pos_site_id
 _symmetry_equiv_pos_as_xyz
  1  'x, y, z'
loop_
 _atom_site_type_symbol
 _atom_site_label
 _atom_site_symmetry_multiplicity
 _atom_site_fract_x
 _atom_site_fract_y
 _atom_site_fract_z
 _atom_site_occupancy
  Bi  Bi0  1  0.81586400  0.97065800  0.16494800  1
  Bi  Bi1  1  0.31586400  0.02934200  0.33505200  1
  Bi  Bi2  1  0.18413600  0.02934200  0.83505200  1
  Bi  Bi3  1  0.68413600  0.97065800  0.66494800  1
  Br  Br0  1  0.75082800  0.68347800  0.96106000  1
  Br  Br1  1  0.25082800  0.31652200  0.53894000  1
  Br  Br2  1  0.24917200  0.31652200  0.03894000  1
  Br  Br3  1  0.59198500  0.21251900  0.83185600  1
  Br  Br4  1  0.90801500  0.21251900  0.33185600  1
  Br  Br5  1  0.74917200  0.68347800  0.46106000  1
  Br  Br6  1  0.40801500  0.78748100  0.16814400  1
  Br  Br7  1  0.05934900  0.79664700  0.18892700  1
  Br  Br8  1  0.55934900  0.20335300  0.31107300  1
  Br  Br9  1  0.44065100  0.79664700  0.68892700  1
  Br  Br10  1  0.09198500  0.78748100  0.66814400  1
  Br  Br11  1  0.94065100  0.20335300  0.81107300  1
loop_
_geom_bond_atom_site_label_1
_geom_bond_atom_site_label_2
_geom_bond_distance
_geom_bond_site_symmetry_2
Bi0 Br4 2.725239 1_565
Bi0 Br5 2.763897 1_555
Bi0 Br7 2.777272 1_655
Bi0 Br0 3.142767 1_554
Bi0 Br11 3.157408 1_564
Bi1 Br6 2.725239 1_545
Bi1 Br2 2.763897 1_555
Bi1 Br8 2.777272 1_555
Bi1 Br1 3.142767 1_555
Bi1 Br9 3.157408 1_545
Bi2 Br10 2.725239 1_545
Bi2 Br1 2.763897 1_555
Bi2 Br11 2.777272 1_455
Bi2 Br2 3.142767 1_556
Bi2 Br7 3.157408 1_546
Bi3 Br3 2.725239 1_565
Bi3 Br0 2.763897 1_555
Bi3 Br9 2.777272 1_555
Bi3 Br5 3.142767 1_555
Bi3 Br8 3.157408 1_565
