# generated using pymatgen
data_TaOF3
_symmetry_space_group_name_H-M   'P 1'
_cell_length_a   4.06407200
_cell_length_b   4.89662957
_cell_length_c   18.22848273
_cell_angle_alpha   90.82835344
_cell_angle_beta   89.89660436
_cell_angle_gamma   114.09773108
_symmetry_Int_Tables_number   1
_chemical_formula_structural   TaOF3
_chemical_formula_sum   'Ta5 O5 F15'
_cell_volume   331.09984943
_cell_formula_units_Z   5
loop_
 _symmetry_equiv_pos_site_id
 _symmetry_equiv_pos_as_xyz
  1  'x, y, z'
loop_
 _atom_site_type_symbol
 _atom_site_label
 _atom_site_symmetry_multiplicity
 _atom_site_fract_x
 _atom_site_fract_y
 _atom_site_fract_z
 _atom_site_occupancy
  Ta  Ta0  1  0.05563600  0.00148900  0.00050700  1
  Ta  Ta1  1  0.19046900  0.37083800  0.79689300  1
  Ta  Ta2  1  0.38801800  0.77549900  0.59752300  1
  Ta  Ta3  1  0.58935400  0.17751100  0.39801100  1
  Ta  Ta4  1  0.79037300  0.58160200  0.19846700  1
  O  O0  1  0.00572800  0.02394000  0.75190900  1
  O  O1  1  0.21440900  0.42838100  0.55269900  1
  O  O2  1  0.41580700  0.83079700  0.35294200  1
  O  O3  1  0.61077300  0.22938100  0.15530200  1
  O  O4  1  0.49859800  0.00322500  0.99996600  1
  F  F0  1  0.30155400  0.60268800  0.70037200  1
  F  F1  1  0.50386000  0.00652600  0.50117200  1
  F  F2  1  0.90363400  0.80049200  0.10063500  1
  F  F3  1  0.79476200  0.62655900  0.95315600  1
  F  F4  1  0.70171900  0.40217600  0.80188200  1
  F  F5  1  0.90346500  0.80653800  0.60059500  1
  F  F6  1  0.10468500  0.20819100  0.40122400  1
  F  F7  1  0.30409400  0.60920300  0.20093900  1
  F  F8  1  0.37503200  0.77614200  0.84487200  1
  F  F9  1  0.58802500  0.17946400  0.64663000  1
  F  F10  1  0.99054500  0.98276800  0.24801100  1
  F  F11  1  0.78991700  0.58172200  0.44668600  1
  F  F12  1  0.16872000  0.37821600  0.04730100  1
  F  F13  1  0.10448500  0.20665600  0.90058300  1
  F  F14  1  0.70634100  0.40999900  0.30172400  1
loop_
_geom_bond_atom_site_label_1
_geom_bond_atom_site_label_2
_geom_bond_distance
_geom_bond_site_symmetry_2
O0 Ta1 1.744121 1_555
O1 Ta2 1.742718 1_555
O2 Ta3 1.743168 1_565
O3 Ta4 1.749658 1_555
O4 Ta0 1.796785 1_556
O4 Ta0 2.267366 1_656
F0 Ta2 2.038383 1_555
F0 Ta1 2.055393 1_555
F1 Ta3 2.040463 1_555
F1 Ta2 2.050767 1_545
F2 Ta4 2.047040 1_555
F2 Ta0 2.057415 1_665
F3 Ta0 1.899370 1_666
F4 Ta1 2.022082 1_555
F4 Ta1 2.055507 1_655
F5 Ta2 2.036658 1_655
F5 Ta2 2.038301 1_555
F6 Ta3 2.036369 1_555
F6 Ta3 2.038513 1_455
F7 Ta4 2.035574 1_555
F7 Ta4 2.036897 1_455
F8 Ta1 2.000708 1_555
F9 Ta2 2.003302 1_545
F10 Ta4 1.995633 1_555
F11 Ta3 2.000895 1_555
F12 Ta0 1.898766 1_555
F13 Ta1 2.037915 1_555
F13 Ta0 2.062803 1_556
F14 Ta4 2.043164 1_555
F14 Ta3 2.053146 1_555
