# generated using pymatgen
data_LiGd(PO3)4
_symmetry_space_group_name_H-M   'P 1'
_cell_length_a   9.01708757
_cell_length_b   9.01708757
_cell_length_c   9.79258010
_cell_angle_alpha   57.16131789
_cell_angle_beta   57.16131789
_cell_angle_gamma   46.75456722
_symmetry_Int_Tables_number   1
_chemical_formula_structural   LiGd(PO3)4
_chemical_formula_sum   'Li2 Gd2 P8 O24'
_cell_volume   467.95277455
_cell_formula_units_Z   2
loop_
 _symmetry_equiv_pos_site_id
 _symmetry_equiv_pos_as_xyz
  1  'x, y, z'
loop_
 _atom_site_type_symbol
 _atom_site_label
 _atom_site_symmetry_multiplicity
 _atom_site_fract_x
 _atom_site_fract_y
 _atom_site_fract_z
 _atom_site_occupancy
  Li  Li0  1  0.20501100  0.79498900  0.75000000  1
  Li  Li1  1  0.79498900  0.20501100  0.25000000  1
  Gd  Gd0  1  0.70264700  0.29735300  0.75000000  1
  Gd  Gd1  1  0.29735300  0.70264700  0.25000000  1
  P  P0  1  0.79931700  0.49332000  0.30461100  1
  P  P1  1  0.50668000  0.20068200  0.19538900  1
  P  P2  1  0.20068300  0.50668000  0.69538900  1
  P  P3  1  0.49332000  0.79931800  0.80461100  1
  P  P4  1  0.80933500  0.91543300  0.61549100  1
  P  P5  1  0.08456700  0.19066500  0.88450900  1
  P  P6  1  0.19066500  0.08456700  0.38450900  1
  P  P7  1  0.91543300  0.80933500  0.11549100  1
  O  O0  1  0.74194500  0.50998600  0.47294000  1
  O  O1  1  0.49001400  0.25805500  0.02706000  1
  O  O2  1  0.25805500  0.49001400  0.52706000  1
  O  O3  1  0.50998600  0.74194500  0.97294000  1
  O  O4  1  0.66111700  0.48510100  0.27120600  1
  O  O5  1  0.51489900  0.33888300  0.22879400  1
  O  O6  1  0.33888300  0.51489900  0.72879400  1
  O  O7  1  0.48510100  0.66111700  0.77120600  1
  O  O8  1  0.10077200  0.67454300  0.18292700  1
  O  O9  1  0.32545700  0.89922800  0.31707300  1
  O  O10  1  0.89922800  0.32545700  0.81707300  1
  O  O11  1  0.67454300  0.10077200  0.68292700  1
  O  O12  1  0.28129800  0.03252200  0.76825900  1
  O  O13  1  0.96747800  0.71870200  0.73174100  1
  O  O14  1  0.71870200  0.96747800  0.23174100  1
  O  O15  1  0.03252200  0.28129800  0.26825900  1
  O  O16  1  0.83707300  0.67287300  0.15081700  1
  O  O17  1  0.32712700  0.16292700  0.34918300  1
  O  O18  1  0.16292700  0.32712700  0.84918300  1
  O  O19  1  0.67287300  0.83707300  0.65081700  1
  O  O20  1  0.06124000  0.07271800  0.07044400  1
  O  O21  1  0.92728200  0.93876000  0.42955600  1
  O  O22  1  0.93876000  0.92728200  0.92955600  1
  O  O23  1  0.07271800  0.06124000  0.57044400  1
loop_
_geom_bond_atom_site_label_1
_geom_bond_atom_site_label_2
_geom_bond_distance
_geom_bond_site_symmetry_2
Li0 O6 1.999587 1_555
Li0 O7 1.999587 1_555
Li0 O23 2.012663 1_565
Li0 O22 2.012663 1_455
Li1 O5 1.999587 1_555
Li1 O4 1.999587 1_555
Li1 O21 2.012663 1_545
Li1 O20 2.012663 1_655
Gd0 O0 2.325785 1_555
Gd0 O1 2.325785 1_556
Gd0 O11 2.386723 1_555
Gd0 O10 2.386723 1_555
Gd0 O7 2.475970 1_555
Gd0 O6 2.475970 1_555
Gd0 O22 2.592559 1_545
Gd0 O23 2.592559 1_655
Gd1 O2 2.325785 1_555
Gd1 O3 2.325785 1_554
Gd1 O8 2.386723 1_555
Gd1 O9 2.386723 1_555
Gd1 O4 2.475970 1_555
Gd1 O5 2.475970 1_555
Gd1 O21 2.592559 1_455
Gd1 O20 2.592559 1_565
O0 P0 1.498210 1_555
O1 P1 1.498207 1_555
O2 P2 1.498210 1_555
O3 P3 1.498207 1_555
O4 P0 1.503454 1_555
O5 P1 1.503463 1_555
O6 P2 1.503454 1_555
O7 P3 1.503463 1_555
O8 P7 1.499817 1_455
O9 P6 1.499817 1_565
O10 P5 1.499817 1_655
O11 P4 1.499817 1_545
O12 P5 1.606372 1_555
O12 P3 1.619010 1_545
O13 P4 1.606372 1_555
O13 P2 1.619014 1_655
O14 P7 1.606372 1_555
O14 P1 1.619010 1_565
O15 P6 1.606372 1_555
O15 P0 1.619014 1_455
O16 P0 1.600019 1_555
O16 P7 1.611714 1_555
O17 P1 1.600015 1_555
O17 P6 1.611714 1_555
O18 P2 1.600019 1_555
O18 P5 1.611714 1_555
O19 P3 1.600015 1_555
O19 P4 1.611714 1_555
O20 P5 1.510487 1_554
O21 P4 1.510487 1_555
O22 P7 1.510487 1_556
O23 P6 1.510487 1_555
