# generated using pymatgen
data_Ti3Fe5O12
_symmetry_space_group_name_H-M   'P 1'
_cell_length_a   5.57616100
_cell_length_b   7.55342216
_cell_length_c   10.33850561
_cell_angle_alpha   89.86931350
_cell_angle_beta   89.91322366
_cell_angle_gamma   84.40858082
_symmetry_Int_Tables_number   1
_chemical_formula_structural   Ti3Fe5O12
_chemical_formula_sum   'Ti6 Fe10 O24'
_cell_volume   433.37517610
_cell_formula_units_Z   2
loop_
 _symmetry_equiv_pos_site_id
 _symmetry_equiv_pos_as_xyz
  1  'x, y, z'
loop_
 _atom_site_type_symbol
 _atom_site_label
 _atom_site_symmetry_multiplicity
 _atom_site_fract_x
 _atom_site_fract_y
 _atom_site_fract_z
 _atom_site_occupancy
  Ti  Ti0  1  0.71218300  0.35648500  0.00062200  1
  Ti  Ti1  1  0.29707200  0.14150500  0.50357100  1
  Ti  Ti2  1  0.70363100  0.85413800  0.00509500  1
  Ti  Ti3  1  0.19978900  0.35887700  0.74693700  1
  Ti  Ti4  1  0.70579700  0.85110800  0.49928700  1
  Ti  Ti5  1  0.21774500  0.34498700  0.25178400  1
  Fe  Fe0  1  0.28992000  0.14488300  0.99850600  1
  Fe  Fe1  1  0.78985900  0.64680100  0.74895500  1
  Fe  Fe2  1  0.20994300  0.85067800  0.75058200  1
  Fe  Fe3  1  0.28678200  0.64587200  0.00244000  1
  Fe  Fe4  1  0.71523100  0.36050400  0.50194100  1
  Fe  Fe5  1  0.77859300  0.14056000  0.75334300  1
  Fe  Fe6  1  0.79474200  0.65147400  0.25021800  1
  Fe  Fe7  1  0.21214200  0.85465800  0.24738300  1
  Fe  Fe8  1  0.28485600  0.64387800  0.49539300  1
  Fe  Fe9  1  0.79396400  0.14482700  0.25148400  1
  O  O0  1  0.66658600  0.58378700  0.92445500  1
  O  O1  1  0.99018600  0.25736700  0.91285700  1
  O  O2  1  0.15686100  0.59093700  0.81493600  1
  O  O3  1  0.16496500  0.09582000  0.66988600  1
  O  O4  1  0.35447600  0.90488300  0.91858600  1
  O  O5  1  0.50207900  0.75001500  0.65473600  1
  O  O6  1  0.46930800  0.26532600  0.85186800  1
  O  O7  1  0.64840500  0.08715500  0.56516500  1
  O  O8  1  0.64939700  0.60964200  0.41958500  1
  O  O9  1  0.85142000  0.89113400  0.83586100  1
  O  O10  1  0.85633600  0.39899900  0.68249500  1
  O  O11  1  0.03207700  0.24580100  0.40423500  1
  O  O12  1  0.98119300  0.76074600  0.59884900  1
  O  O13  1  0.14979100  0.58223800  0.31076000  1
  O  O14  1  0.15732800  0.10787300  0.17182000  1
  O  O15  1  0.34070100  0.39098600  0.58933200  1
  O  O16  1  0.34926200  0.91713600  0.43163000  1
  O  O17  1  0.51816300  0.75473000  0.14713600  1
  O  O18  1  0.48830900  0.26230500  0.34695500  1
  O  O19  1  0.65498100  0.09257200  0.06173800  1
  O  O20  1  0.84416100  0.89590600  0.33874000  1
  O  O21  1  0.84099500  0.40710700  0.16260400  1
  O  O22  1  0.97876400  0.76439100  0.09179600  1
  O  O23  1  0.36200700  0.39190800  0.08643600  1
loop_
_geom_bond_atom_site_label_1
_geom_bond_atom_site_label_2
_geom_bond_distance
_geom_bond_site_symmetry_2
Fe0 O14 1.967066 1_556
Fe0 O4 1.994333 1_545
Fe0 O1 2.005930 1_455
Fe0 O6 2.071958 1_555
Fe0 O19 2.138556 1_556
Fe0 O23 2.150466 1_556
Fe1 O5 1.972108 1_555
Fe1 O10 1.995710 1_555
Fe1 O0 2.011757 1_555
Fe1 O12 2.110733 1_555
Fe1 O9 2.112607 1_555
Fe1 O2 2.160098 1_655
Fe2 O4 1.976314 1_555
Fe2 O5 1.992696 1_555
Fe2 O3 2.022537 1_565
Fe2 O2 2.118033 1_555
Fe2 O12 2.174632 1_455
Fe2 O9 2.178135 1_455
Fe3 O22 2.074654 1_455
Fe3 O23 2.108702 1_555
Fe3 O2 2.126347 1_554
Fe3 O17 2.190156 1_555
Fe3 O4 2.203815 1_554
Fe3 O0 2.271178 1_554
Fe4 O10 2.059019 1_555
Fe4 O8 2.063993 1_555
Fe4 O11 2.143091 1_655
Fe4 O18 2.216573 1_555
Fe4 O7 2.229844 1_555
Fe4 O15 2.265485 1_555
Fe5 O9 2.070476 1_545
Fe5 O7 2.130619 1_555
Fe5 O6 2.140642 1_555
Fe5 O10 2.166228 1_555
Fe5 O1 2.259555 1_555
Fe5 O3 2.313922 1_655
Fe6 O8 1.966160 1_555
Fe6 O17 1.972148 1_555
Fe6 O21 2.051376 1_555
Fe6 O13 2.094138 1_655
Fe6 O20 2.104741 1_555
Fe6 O22 2.149893 1_555
Fe7 O14 2.059584 1_565
Fe7 O17 2.074356 1_555
Fe7 O16 2.124751 1_555
Fe7 O13 2.217411 1_555
Fe7 O22 2.220371 1_455
Fe7 O20 2.251758 1_455
Fe8 O12 2.120843 1_455
Fe8 O13 2.122351 1_555
Fe8 O15 2.136722 1_555
Fe8 O8 2.169520 1_555
Fe8 O16 2.227398 1_555
Fe8 O5 2.241655 1_555
Fe9 O20 2.077925 1_545
Fe9 O18 2.090629 1_555
Fe9 O19 2.161568 1_555
Fe9 O14 2.178856 1_655
Fe9 O21 2.220392 1_555
Fe9 O11 2.246722 1_655
O0 Ti0 1.881987 1_556
O0 Ti2 2.235684 1_556
O1 Ti0 1.886686 1_556
O1 Ti3 2.249219 1_655
O2 Ti3 1.883439 1_555
O3 Ti1 1.913433 1_555
O3 Ti3 2.168694 1_555
O4 Ti2 2.143759 1_556
O5 Ti4 2.148070 1_555
O6 Ti3 1.931147 1_555
O6 Ti0 2.205958 1_556
O7 Ti4 1.907598 1_545
O7 Ti1 2.063475 1_555
O8 Ti4 2.055211 1_555
O9 Ti2 1.963847 1_556
O10 Ti3 2.023203 1_655
O11 Ti1 1.906002 1_555
O11 Ti5 2.063523 1_555
O12 Ti4 1.918575 1_555
O13 Ti5 1.897043 1_555
O14 Ti5 2.032212 1_555
O15 Ti3 1.833745 1_555
O15 Ti1 2.119912 1_555
O16 Ti1 1.849067 1_565
O16 Ti4 2.121304 1_555
O17 Ti2 1.982810 1_555
O18 Ti5 1.858072 1_555
O18 Ti1 2.183822 1_555
O19 Ti2 1.889239 1_545
O19 Ti0 2.142977 1_555
O20 Ti4 1.873285 1_555
O21 Ti0 1.877943 1_555
O21 Ti5 2.301189 1_655
O22 Ti2 1.848096 1_555
O23 Ti5 1.934830 1_555
O23 Ti0 2.136706 1_555
