# generated using pymatgen
data_TiNb2Zn(PbO3)4
_symmetry_space_group_name_H-M   'P 1'
_cell_length_a   4.05481832
_cell_length_b   4.05481832
_cell_length_c   16.76517501
_cell_angle_alpha   89.82618626
_cell_angle_beta   89.82618626
_cell_angle_gamma   89.52117983
_symmetry_Int_Tables_number   1
_chemical_formula_structural   TiNb2Zn(PbO3)4
_chemical_formula_sum   'Ti1 Nb2 Zn1 Pb4 O12'
_cell_volume   275.63334908
_cell_formula_units_Z   1
loop_
 _symmetry_equiv_pos_site_id
 _symmetry_equiv_pos_as_xyz
  1  'x, y, z'
loop_
 _atom_site_type_symbol
 _atom_site_label
 _atom_site_symmetry_multiplicity
 _atom_site_fract_x
 _atom_site_fract_y
 _atom_site_fract_z
 _atom_site_occupancy
  Ti  Ti0  1  0.52572200  0.52572200  0.12926400  1
  Nb  Nb0  1  0.48961500  0.48961500  0.88236100  1
  Nb  Nb1  1  0.47621900  0.47621900  0.37681000  1
  Zn  Zn0  1  0.49325200  0.49325200  0.62750200  1
  Pb  Pb0  1  0.94426700  0.94426700  0.73167300  1
  Pb  Pb1  1  0.96271800  0.96271800  0.24769500  1
  Pb  Pb2  1  0.99424800  0.99424800  0.53309300  1
  Pb  Pb3  1  0.04834200  0.04834200  0.01684700  1
  O  O0  1  0.49153500  0.49153500  0.01104900  1
  O  O1  1  0.50006800  0.50006800  0.48776200  1
  O  O2  1  0.52292800  0.52292800  0.76883400  1
  O  O3  1  0.51309300  0.51309300  0.24563800  1
  O  O4  1  0.50801200  0.00836900  0.89064800  1
  O  O5  1  0.52110800  0.00025100  0.62678900  1
  O  O6  1  0.49860600  0.99554000  0.12787400  1
  O  O7  1  0.50630400  0.99980300  0.36440000  1
  O  O8  1  0.00836900  0.50801200  0.89064800  1
  O  O9  1  0.00025100  0.52110800  0.62678900  1
  O  O10  1  0.99980300  0.50630400  0.36440000  1
  O  O11  1  0.99554000  0.49860600  0.12787400  1
loop_
_geom_bond_atom_site_label_1
_geom_bond_atom_site_label_2
_geom_bond_distance
_geom_bond_site_symmetry_2
Nb0 O2 1.912127 1_555
Nb0 O4 1.956701 1_555
Nb0 O8 1.956701 1_555
Nb0 O4 2.110413 1_565
Nb0 O8 2.110413 1_655
Nb0 O0 2.157552 1_556
Nb1 O1 1.865777 1_555
Nb1 O10 1.946353 1_455
Nb1 O7 1.946353 1_545
Nb1 O7 2.137043 1_555
Nb1 O10 2.137043 1_555
Nb1 O3 2.208445 1_555
O0 Ti0 1.992485 1_555
O0 Pb3 2.553469 1_555
O1 Zn0 2.342927 1_555
O2 Zn0 2.376338 1_555
O2 Pb0 2.502326 1_555
O3 Ti0 1.952075 1_555
O3 Pb1 2.589448 1_555
O5 Zn0 2.001345 1_555
O5 Zn0 2.059828 1_545
O5 Pb0 2.469201 1_545
O5 Pb2 2.475863 1_545
O5 Pb2 2.655829 1_445
O6 Ti0 1.907355 1_555
O6 Ti0 2.153719 1_565
O6 Pb3 2.618318 1_565
O6 Pb1 2.758932 1_555
O7 Pb1 2.692765 1_555
O9 Zn0 2.001345 1_555
O9 Zn0 2.059828 1_455
O9 Pb0 2.469201 1_455
O9 Pb2 2.475863 1_455
O9 Pb2 2.655829 1_445
O10 Pb1 2.692765 1_555
O11 Ti0 1.907355 1_555
O11 Ti0 2.153719 1_655
O11 Pb3 2.618318 1_655
O11 Pb1 2.758932 1_555
