# generated using pymatgen
data_Zr2In5Ni
_symmetry_space_group_name_H-M   'P 1'
_cell_length_a   10.08193800
_cell_length_b   10.08193800
_cell_length_c   6.75245609
_cell_angle_alpha   90.00000000
_cell_angle_beta   90.00000000
_cell_angle_gamma   90.00000000
_symmetry_Int_Tables_number   1
_chemical_formula_structural   Zr2In5Ni
_chemical_formula_sum   'Zr8 In20 Ni4'
_cell_volume   686.35659882
_cell_formula_units_Z   4
loop_
 _symmetry_equiv_pos_site_id
 _symmetry_equiv_pos_as_xyz
  1  'x, y, z'
loop_
 _atom_site_type_symbol
 _atom_site_label
 _atom_site_symmetry_multiplicity
 _atom_site_fract_x
 _atom_site_fract_y
 _atom_site_fract_z
 _atom_site_occupancy
  Zr  Zr0  1  0.19879232  0.80120768  0.00000000  1
  Zr  Zr1  1  0.69879232  0.69879232  0.50000000  1
  Zr  Zr2  1  0.16204911  0.83795089  0.50000000  1
  Zr  Zr3  1  0.33795089  0.33795089  0.00000000  1
  Zr  Zr4  1  0.80120768  0.19879232  0.00000000  1
  Zr  Zr5  1  0.66204911  0.66204911  0.00000000  1
  Zr  Zr6  1  0.83795089  0.16204911  0.50000000  1
  Zr  Zr7  1  0.30120768  0.30120768  0.50000000  1
  In  In0  1  0.20109023  0.55847500  0.72174837  1
  In  In1  1  0.29890977  0.05847500  0.22174837  1
  In  In2  1  0.50000000  0.50000000  0.29716017  1
  In  In3  1  0.44152500  0.79890977  0.72174837  1
  In  In4  1  0.55847500  0.20109023  0.27825163  1
  In  In5  1  0.79890977  0.44152500  0.72174837  1
  In  In6  1  0.94152500  0.70109023  0.77825163  1
  In  In7  1  0.79890977  0.44152500  0.27825163  1
  In  In8  1  0.94152500  0.70109023  0.22174837  1
  In  In9  1  0.29890977  0.05847500  0.77825163  1
  In  In10  1  0.55847500  0.20109023  0.72174837  1
  In  In11  1  0.05847500  0.29890977  0.77825163  1
  In  In12  1  0.00000000  0.00000000  0.79716017  1
  In  In13  1  0.70109023  0.94152500  0.22174837  1
  In  In14  1  0.20109023  0.55847500  0.27825163  1
  In  In15  1  0.44152500  0.79890977  0.27825163  1
  In  In16  1  0.05847500  0.29890977  0.22174837  1
  In  In17  1  0.00000000  0.00000000  0.20283983  1
  In  In18  1  0.70109023  0.94152500  0.77825163  1
  In  In19  1  0.50000000  0.50000000  0.70283983  1
  Ni  Ni0  1  0.11359875  0.11359875  0.50000000  1
  Ni  Ni1  1  0.88640125  0.88640125  0.50000000  1
  Ni  Ni2  1  0.61359875  0.38640125  0.00000000  1
  Ni  Ni3  1  0.38640125  0.61359875  0.00000000  1
loop_
_geom_bond_atom_site_label_1
_geom_bond_atom_site_label_2
_geom_bond_distance
_geom_bond_site_symmetry_2
In0 Ni3 2.707320 1_556
In0 In14 2.994692 1_555
In0 In11 3.010186 1_555
In0 In6 3.010186 1_455
In0 In19 3.073367 1_555
In0 Zr0 3.085385 1_556
In0 Zr7 3.160450 1_555
In0 Zr2 3.214992 1_555
In0 Zr3 3.221368 1_556
In1 Ni0 2.707320 1_555
In1 In9 2.994692 1_554
In1 In4 3.010186 1_555
In1 In15 3.010186 1_545
In1 In17 3.073367 1_555
In1 Zr7 3.085385 1_555
In1 Zr0 3.160450 1_545
In1 Zr3 3.214992 1_555
In1 Zr2 3.221368 1_545
In2 Ni2 2.578699 1_555
In2 Ni3 2.578699 1_555
In2 Zr5 3.060178 1_555
In2 Zr3 3.060178 1_555
In2 In4 3.073367 1_555
In2 In7 3.073367 1_555
In2 Zr7 3.147970 1_555
In2 Zr1 3.147970 1_555
In3 Ni3 2.707320 1_556
In3 In9 3.010186 1_565
In3 Zr0 3.085385 1_556
In3 Zr1 3.160450 1_555
In3 Zr2 3.214992 1_555
In3 Zr5 3.221368 1_556
In4 Ni2 2.707320 1_555
In4 Zr4 3.085385 1_555
In4 Zr7 3.160450 1_555
In4 Zr6 3.214992 1_555
In4 Zr3 3.221368 1_555
In5 Ni2 2.707320 1_556
In5 In7 2.994692 1_555
In5 In6 3.010186 1_555
In5 Zr4 3.085385 1_556
In5 Zr1 3.160450 1_555
In5 Zr6 3.214992 1_555
In5 Zr5 3.221368 1_556
In6 Ni1 2.707320 1_555
In6 In8 2.994692 1_556
In6 Zr1 3.085385 1_555
In6 Zr0 3.160450 1_656
In6 Zr5 3.214992 1_556
In6 Zr2 3.221368 1_655
In7 Ni2 2.707320 1_555
In7 In8 3.010186 1_555
In7 Zr4 3.085385 1_555
In7 Zr1 3.160450 1_555
In7 Zr6 3.214992 1_555
In7 Zr5 3.221368 1_555
In8 Ni1 2.707320 1_555
In8 Zr1 3.085385 1_555
In8 Zr0 3.160450 1_655
In8 Zr5 3.214992 1_555
In8 Zr2 3.221368 1_655
In9 Ni0 2.707320 1_555
In9 Zr7 3.085385 1_555
In9 Zr0 3.160450 1_546
In9 Zr3 3.214992 1_556
In9 Zr2 3.221368 1_545
In10 Ni2 2.707320 1_556
In10 In4 2.994692 1_555
In10 In9 3.010186 1_555
In10 In18 3.010186 1_545
In10 In19 3.073367 1_555
In10 Zr4 3.085385 1_556
In10 Zr7 3.160450 1_555
In10 Zr6 3.214992 1_555
In10 Zr3 3.221368 1_556
In11 Ni0 2.707320 1_555
In11 In16 2.994692 1_556
In11 In5 3.010186 1_455
In11 In12 3.073367 1_555
In11 Zr7 3.085385 1_555
In11 Zr4 3.160450 1_456
In11 Zr3 3.214992 1_556
In11 Zr6 3.221368 1_455
In12 Ni0 2.578699 1_555
In12 Ni1 2.578699 1_445
In12 In17 2.739334 1_556
In12 Zr6 3.060178 1_455
In12 Zr2 3.060178 1_545
In12 In6 3.073367 1_445
In12 In18 3.073367 1_445
In12 In9 3.073367 1_555
In12 Zr0 3.147970 1_546
In12 Zr4 3.147970 1_456
In13 Ni1 2.707320 1_555
In13 In18 2.994692 1_554
In13 In15 3.010186 1_555
In13 In4 3.010186 1_565
In13 In17 3.073367 1_665
In13 Zr1 3.085385 1_555
In13 Zr4 3.160450 1_565
In13 Zr5 3.214992 1_555
In13 Zr6 3.221368 1_565
In14 Ni3 2.707320 1_555
In14 In16 3.010186 1_555
In14 In8 3.010186 1_455
In14 In2 3.073367 1_555
In14 Zr0 3.085385 1_555
In14 Zr7 3.160450 1_555
In14 Zr2 3.214992 1_555
In14 Zr3 3.221368 1_555
In15 Ni3 2.707320 1_555
In15 In3 2.994692 1_555
In15 In2 3.073367 1_555
In15 Zr0 3.085385 1_555
In15 Zr1 3.160450 1_555
In15 Zr2 3.214992 1_555
In15 Zr5 3.221368 1_555
In16 Ni0 2.707320 1_555
In16 In7 3.010186 1_455
In16 In17 3.073367 1_555
In16 Zr7 3.085385 1_555
In16 Zr4 3.160450 1_455
In16 Zr3 3.214992 1_555
In16 Zr6 3.221368 1_455
In17 Ni0 2.578699 1_555
In17 Ni1 2.578699 1_445
In17 Zr6 3.060178 1_455
In17 Zr2 3.060178 1_545
In17 In8 3.073367 1_445
In17 Zr0 3.147970 1_545
In17 Zr4 3.147970 1_455
In18 Ni1 2.707320 1_555
In18 In3 3.010186 1_555
In18 Zr1 3.085385 1_555
In18 Zr4 3.160450 1_566
In18 Zr5 3.214992 1_556
In18 Zr6 3.221368 1_565
In19 Ni2 2.578699 1_556
In19 Ni3 2.578699 1_556
In19 In2 2.739334 1_555
In19 Zr5 3.060178 1_556
In19 Zr3 3.060178 1_556
In19 In5 3.073367 1_555
In19 In3 3.073367 1_555
In19 Zr7 3.147970 1_555
In19 Zr1 3.147970 1_555
Ni0 Zr7 2.674931 1_555
Ni0 Zr2 2.821667 1_545
Ni0 Zr6 2.821667 1_455
Ni1 Zr1 2.674931 1_555
Ni1 Zr6 2.821667 1_565
Ni1 Zr2 2.821667 1_655
Ni2 Zr4 2.674931 1_555
Ni2 Zr3 2.821667 1_555
Ni2 Zr5 2.821667 1_555
Ni3 Zr0 2.674931 1_555
Ni3 Zr3 2.821667 1_555
Ni3 Zr5 2.821667 1_555
