# generated using pymatgen
data_BaV13O18
_symmetry_space_group_name_H-M   'P 1'
_cell_length_a   7.30101500
_cell_length_b   7.90108382
_cell_length_c   7.98197979
_cell_angle_alpha   109.98549664
_cell_angle_beta   108.65364743
_cell_angle_gamma   107.00215854
_symmetry_Int_Tables_number   1
_chemical_formula_structural   BaV13O18
_chemical_formula_sum   'Ba1 V13 O18'
_cell_volume   365.88954986
_cell_formula_units_Z   1
loop_
 _symmetry_equiv_pos_site_id
 _symmetry_equiv_pos_as_xyz
  1  'x, y, z'
loop_
 _atom_site_type_symbol
 _atom_site_label
 _atom_site_symmetry_multiplicity
 _atom_site_fract_x
 _atom_site_fract_y
 _atom_site_fract_z
 _atom_site_occupancy
  Ba  Ba0  1  0.00000000  0.00000000  0.00000000  1
  V  V0  1  0.60003400  0.37295900  0.94827100  1
  V  V1  1  0.66404400  0.05957700  0.42206700  1
  V  V2  1  0.24296100  0.59384600  0.63782000  1
  V  V3  1  0.39996600  0.62704100  0.05172900  1
  V  V4  1  0.33595600  0.94042300  0.57793300  1
  V  V5  1  0.75703900  0.40615400  0.36218000  1
  V  V6  1  0.08122000  0.51379600  0.19399400  1
  V  V7  1  0.87859300  0.79668700  0.30752400  1
  V  V8  1  0.57301100  0.69172900  0.48730000  1
  V  V9  1  0.91878000  0.48620400  0.80600600  1
  V  V10  1  0.12140700  0.20331300  0.69247600  1
  V  V11  1  0.42698900  0.30827100  0.51270000  1
  V  V12  1  0.50000000  0.00000000  0.00000000  1
  O  O0  1  0.61135400  0.21907600  0.67690800  1
  O  O1  1  0.95171100  0.33568300  0.55161100  1
  O  O2  1  0.39400600  0.45935000  0.77674800  1
  O  O3  1  0.38864600  0.78092400  0.32309200  1
  O  O4  1  0.04828900  0.66431700  0.44838900  1
  O  O5  1  0.60599400  0.54065000  0.22325200  1
  O  O6  1  0.89558300  0.63302300  0.05912300  1
  O  O7  1  0.84195300  0.92781800  0.55907000  1
  O  O8  1  0.28327800  0.44511400  0.38466600  1
  O  O9  1  0.10441700  0.36697700  0.94087700  1
  O  O10  1  0.15804700  0.07218200  0.44093000  1
  O  O11  1  0.71672200  0.55488600  0.61533400  1
  O  O12  1  0.47985800  0.16993400  0.27033000  1
  O  O13  1  0.21491800  0.72655900  0.89527900  1
  O  O14  1  0.68679500  0.88883200  0.16509800  1
  O  O15  1  0.78508200  0.27344100  0.10472100  1
  O  O16  1  0.52014200  0.83006600  0.72967000  1
  O  O17  1  0.31320500  0.11116800  0.83490200  1
loop_
_geom_bond_atom_site_label_1
_geom_bond_atom_site_label_2
_geom_bond_distance
_geom_bond_site_symmetry_2
Ba0 O6 3.013944 1_445
Ba0 O9 3.013944 1_554
Ba0 O12 3.027489 1_555
Ba0 O16 3.027489 1_444
Ba0 O17 3.046550 1_554
Ba0 O14 3.046550 1_445
Ba0 O15 3.068490 1_455
Ba0 O13 3.068490 1_544
Ba0 O7 3.112679 1_444
Ba0 O10 3.112679 1_555
Ba0 O8 3.221191 1_555
Ba0 O11 3.221191 1_444
O0 V11 2.020900 1_555
O0 V0 2.133029 1_555
O0 V4 2.172627 1_545
O0 V9 2.194927 1_555
O0 V1 2.214867 1_555
O1 V5 2.068801 1_555
O1 V9 2.103378 1_555
O1 V10 2.136253 1_655
O1 V1 2.151444 1_555
O1 V2 2.173424 1_655
O2 V2 2.069702 1_555
O2 V10 2.089213 1_555
O2 V3 2.119487 1_556
O2 V0 2.127173 1_555
O2 V11 2.167486 1_555
O3 V8 2.020900 1_555
O3 V3 2.133029 1_555
O3 V1 2.172627 1_565
O3 V6 2.194927 1_555
O3 V4 2.214867 1_555
O4 V2 2.068801 1_555
O4 V6 2.103378 1_555
O4 V7 2.136253 1_455
O4 V4 2.151444 1_555
O4 V5 2.173424 1_455
O5 V5 2.069702 1_555
O5 V7 2.089213 1_555
O5 V0 2.119487 1_554
O5 V3 2.127173 1_555
O5 V8 2.167486 1_555
O6 V7 2.029117 1_555
O6 V9 2.046456 1_554
O6 V6 2.095187 1_655
O6 V0 2.145710 1_554
O7 V8 2.017729 1_555
O7 V7 2.064000 1_555
O7 V10 2.112658 1_665
O7 V1 2.151083 1_565
O8 V11 2.011750 1_555
O8 V8 2.081432 1_555
O8 V6 2.093697 1_555
O8 V2 2.123751 1_555
O9 V10 2.029117 1_555
O9 V6 2.046456 1_556
O9 V9 2.095187 1_455
O9 V3 2.145710 1_556
O10 V11 2.017729 1_555
O10 V10 2.064000 1_555
O10 V7 2.112658 1_445
O10 V4 2.151083 1_545
O11 V8 2.011750 1_555
O11 V11 2.081432 1_555
O11 V9 2.093697 1_555
O11 V5 2.123751 1_555
O12 V5 2.005741 1_555
O12 V11 2.089335 1_555
O12 V1 2.097919 1_555
O12 V12 2.195085 1_555
O13 V3 2.053347 1_556
O13 V2 2.070341 1_555
O13 V9 2.115918 1_455
O13 V12 2.172870 1_566
O14 V7 1.981662 1_555
O14 V3 2.111361 1_555
O14 V1 2.124189 1_565
O14 V12 2.170286 1_565
O15 V0 2.053347 1_554
O15 V5 2.070341 1_555
O15 V6 2.115918 1_655
O15 V12 2.172870 1_555
O16 V2 2.005741 1_555
O16 V8 2.089335 1_555
O16 V4 2.097919 1_555
O16 V12 2.195085 1_566
O17 V10 1.981662 1_555
O17 V0 2.111361 1_555
O17 V4 2.124189 1_545
O17 V12 2.170286 1_556
