# generated using pymatgen
data_KZn4(BO3)3
_symmetry_space_group_name_H-M   'P 1'
_cell_length_a   5.05523900
_cell_length_b   7.05019700
_cell_length_c   12.77338581
_cell_angle_alpha   85.97963662
_cell_angle_beta   90.00000000
_cell_angle_gamma   90.00000000
_symmetry_Int_Tables_number   1
_chemical_formula_structural   KZn4(BO3)3
_chemical_formula_sum   'K2 Zn8 B6 O18'
_cell_volume   454.12869456
_cell_formula_units_Z   2
loop_
 _symmetry_equiv_pos_site_id
 _symmetry_equiv_pos_as_xyz
  1  'x, y, z'
loop_
 _atom_site_type_symbol
 _atom_site_label
 _atom_site_symmetry_multiplicity
 _atom_site_fract_x
 _atom_site_fract_y
 _atom_site_fract_z
 _atom_site_occupancy
  K  K0  1  0.80943200  0.00000000  0.25000000  1
  K  K1  1  0.19056800  0.00000000  0.75000000  1
  Zn  Zn0  1  0.85119900  0.51116000  0.12331600  1
  Zn  Zn1  1  0.85119900  0.48884000  0.37668400  1
  Zn  Zn2  1  0.14880100  0.48884000  0.87668400  1
  Zn  Zn3  1  0.14880100  0.51116000  0.62331600  1
  Zn  Zn4  1  0.33795700  0.79072600  0.05854200  1
  Zn  Zn5  1  0.33795700  0.20927400  0.44145800  1
  Zn  Zn6  1  0.66204300  0.20927400  0.94145800  1
  Zn  Zn7  1  0.66204300  0.79072600  0.55854200  1
  B  B0  1  0.85285200  0.81449600  0.95126300  1
  B  B1  1  0.85285200  0.18550400  0.54873700  1
  B  B2  1  0.14714800  0.18550400  0.04873700  1
  B  B3  1  0.14714800  0.81449600  0.45126300  1
  B  B4  1  0.34704100  0.50000000  0.25000000  1
  B  B5  1  0.65295900  0.50000000  0.75000000  1
  O  O0  1  0.10817200  0.73993200  0.93325900  1
  O  O1  1  0.10817200  0.26006800  0.56674100  1
  O  O2  1  0.23759800  0.03257400  0.10816900  1
  O  O3  1  0.23759800  0.96742600  0.39183100  1
  O  O4  1  0.79010300  0.59110400  0.66738000  1
  O  O5  1  0.79010300  0.40889600  0.83262000  1
  O  O6  1  0.20989700  0.40889600  0.33262000  1
  O  O7  1  0.20989700  0.59110400  0.16738000  1
  O  O8  1  0.37763700  0.50000000  0.75000000  1
  O  O9  1  0.62236300  0.50000000  0.25000000  1
  O  O10  1  0.29345200  0.72493000  0.53347400  1
  O  O11  1  0.29345200  0.27507000  0.96652600  1
  O  O12  1  0.70654800  0.27507000  0.46652600  1
  O  O13  1  0.70654800  0.72493000  0.03347400  1
  O  O14  1  0.89182800  0.73993200  0.43325900  1
  O  O15  1  0.89182800  0.26006800  0.06674100  1
  O  O16  1  0.76240200  0.03257400  0.60816900  1
  O  O17  1  0.76240200  0.96742600  0.89183100  1
loop_
_geom_bond_atom_site_label_1
_geom_bond_atom_site_label_2
_geom_bond_distance
_geom_bond_site_symmetry_2
K0 O3 2.821613 1_645
K0 O2 2.821613 1_655
K0 O14 2.900521 1_545
K0 O15 2.900521 1_555
K1 O17 2.821613 1_445
K1 O16 2.821613 1_455
K1 O0 2.900521 1_545
K1 O1 2.900521 1_555
B0 O17 1.353918 1_555
B0 O13 1.398394 1_556
B0 O0 1.418487 1_655
B1 O16 1.353918 1_555
B1 O12 1.398394 1_555
B1 O1 1.418487 1_655
B2 O2 1.353918 1_555
B2 O11 1.398394 1_554
B2 O15 1.418487 1_455
B3 O3 1.353918 1_555
B3 O10 1.398394 1_555
B3 O14 1.418487 1_455
B4 O7 1.382714 1_555
B4 O6 1.382714 1_555
B4 O9 1.391819 1_555
B5 O5 1.382714 1_555
B5 O4 1.382714 1_555
B5 O8 1.391819 1_555
O0 Zn2 1.969156 1_555
O0 Zn4 2.029502 1_556
O1 Zn3 1.969156 1_555
O1 Zn5 2.029502 1_555
O2 Zn4 1.928230 1_545
O3 Zn5 1.928230 1_565
O4 Zn3 1.991738 1_655
O4 Zn7 2.014492 1_555
O5 Zn2 1.991738 1_655
O5 Zn6 2.014492 1_555
O6 Zn1 1.991738 1_455
O6 Zn5 2.014492 1_555
O7 Zn0 1.991738 1_455
O7 Zn4 2.014492 1_555
O8 Zn3 1.986225 1_555
O8 Zn2 1.986225 1_555
O9 Zn1 1.986225 1_555
O9 Zn0 1.986225 1_555
O10 Zn7 1.952046 1_555
O10 Zn3 1.969915 1_555
O11 Zn6 1.952046 1_555
O11 Zn2 1.969915 1_555
O12 Zn5 1.952046 1_555
O12 Zn1 1.969915 1_555
O13 Zn4 1.952046 1_555
O13 Zn0 1.969915 1_555
O14 Zn1 1.969156 1_555
O14 Zn7 2.029502 1_555
O15 Zn0 1.969156 1_555
O15 Zn6 2.029502 1_554
O16 Zn7 1.928230 1_545
O17 Zn6 1.928230 1_565
