# generated using pymatgen
data_Co2Bi11O20
_symmetry_space_group_name_H-M   'P 1'
_cell_length_a   8.74216100
_cell_length_b   8.83547104
_cell_length_c   8.84131176
_cell_angle_alpha   110.53263514
_cell_angle_beta   108.70136557
_cell_angle_gamma   107.95784166
_symmetry_Int_Tables_number   1
_chemical_formula_structural   Co2Bi11O20
_chemical_formula_sum   'Co2 Bi11 O20'
_cell_volume   533.27027096
_cell_formula_units_Z   1
loop_
 _symmetry_equiv_pos_site_id
 _symmetry_equiv_pos_as_xyz
  1  'x, y, z'
loop_
 _atom_site_type_symbol
 _atom_site_label
 _atom_site_symmetry_multiplicity
 _atom_site_fract_x
 _atom_site_fract_y
 _atom_site_fract_z
 _atom_site_occupancy
  Co  Co0  1  0.80545000  0.09469500  0.33279500  1
  Co  Co1  1  0.00396100  0.01818300  0.02884300  1
  Bi  Bi0  1  0.49860700  0.65935900  0.80386100  1
  Bi  Bi1  1  0.81829800  0.48416400  0.64905700  1
  Bi  Bi2  1  0.29450900  0.15231400  0.48606500  1
  Bi  Bi3  1  0.13616700  0.31562400  0.82141400  1
  Bi  Bi4  1  0.31955300  0.83158200  0.13172500  1
  Bi  Bi5  1  0.70345700  0.19278100  0.85724300  1
  Bi  Bi6  1  0.85971200  0.71455400  0.19787700  1
  Bi  Bi7  1  0.65062700  0.79683500  0.50544500  1
  Bi  Bi8  1  0.14898000  0.48548200  0.29408700  1
  Bi  Bi9  1  0.50448300  0.30421900  0.16124100  1
  Bi  Bi10  1  0.18842300  0.86151100  0.69422400  1
  O  O0  1  0.66719600  0.25925700  0.35920300  1
  O  O1  1  0.82935500  0.05946100  0.08349500  1
  O  O2  1  0.27037000  0.38593500  0.62184200  1
  O  O3  1  0.22860300  0.61086300  0.87300300  1
  O  O4  1  0.88485200  0.23422200  0.59972600  1
  O  O5  1  0.63793100  0.35620300  0.73053700  1
  O  O6  1  0.01293000  0.81177100  0.01929300  1
  O  O7  1  0.61723000  0.87350500  0.23107100  1
  O  O8  1  0.99837200  0.39087900  0.99182600  1
  O  O9  1  0.37451600  0.60677400  0.25679000  1
  O  O10  1  0.35028600  0.12301900  0.74057400  1
  O  O11  1  0.73308800  0.38000800  0.10078000  1
  O  O12  1  0.99872500  0.01476600  0.40252400  1
  O  O13  1  0.11929300  0.74391400  0.35705000  1
  O  O14  1  0.38221200  0.99639200  0.99523500  1
  O  O15  1  0.38025800  0.76080500  0.64075400  1
  O  O16  1  0.76967000  0.64925400  0.38910100  1
  O  O17  1  0.97843900  0.01249600  0.81460800  1
  O  O18  1  0.22110900  0.21517800  0.21894500  1
  O  O19  1  0.61333900  0.60399400  0.60976500  1
loop_
_geom_bond_atom_site_label_1
_geom_bond_atom_site_label_2
_geom_bond_distance
_geom_bond_site_symmetry_2
Co0 O7 1.780684 1_545
Co0 O4 1.988015 1_555
Co0 O12 2.026550 1_555
Co0 O0 2.157742 1_555
Co0 O1 2.202949 1_555
Co1 O17 1.815298 1_454
Co1 O18 1.822766 1_555
Co1 O6 1.823111 1_545
Co1 O1 1.840961 1_455
Bi0 O15 2.115469 1_555
Bi0 O2 2.156049 1_555
Bi0 O19 2.237776 1_555
Bi0 O3 2.571820 1_555
Bi1 O5 2.117539 1_555
Bi1 O0 2.213450 1_555
Bi1 O19 2.341105 1_555
Bi1 O4 2.384316 1_555
Bi2 O2 2.106935 1_555
Bi2 O12 2.217341 1_455
Bi2 O10 2.269560 1_555
Bi2 O18 2.542829 1_555
Bi2 O5 2.588988 1_555
Bi3 O4 2.112154 1_455
Bi3 O8 2.262371 1_455
Bi3 O3 2.301061 1_555
Bi3 O2 2.553973 1_555
Bi3 O17 2.575773 1_455
Bi4 O3 2.101434 1_554
Bi4 O14 2.245318 1_554
Bi4 O7 2.322167 1_555
Bi4 O6 2.466576 1_555
Bi4 O9 2.680921 1_555
Bi5 O11 2.078296 1_556
Bi5 O5 2.213858 1_555
Bi5 O8 2.217117 1_555
Bi5 O10 2.704564 1_555
Bi5 O1 2.764216 1_556
Bi6 O13 2.128488 1_655
Bi6 O12 2.240988 1_565
Bi6 O16 2.251333 1_555
Bi6 O11 2.508474 1_555
Bi6 O6 2.573530 1_655
Bi7 O16 2.103277 1_555
Bi7 O19 2.193789 1_555
Bi7 O9 2.233243 1_555
Bi7 O7 2.692449 1_555
Bi7 O17 2.696460 1_565
Bi8 O9 2.122875 1_555
Bi8 O8 2.252095 1_454
Bi8 O13 2.270997 1_555
Bi8 O18 2.574302 1_555
Bi8 O15 2.676320 1_555
Bi9 O0 2.117598 1_555
Bi9 O11 2.199800 1_555
Bi9 O14 2.257224 1_544
Bi9 O18 2.628018 1_555
Bi9 O16 2.658100 1_555
Bi10 O10 2.111098 1_565
Bi10 O15 2.227375 1_555
Bi10 O14 2.238741 1_555
Bi10 O13 2.572207 1_555
Bi10 O17 2.837130 1_465
