# generated using pymatgen
data_Ti2Fe4O9
_symmetry_space_group_name_H-M   'P 1'
_cell_length_a   5.51850500
_cell_length_b   7.59920479
_cell_length_c   8.88844228
_cell_angle_alpha   113.31270811
_cell_angle_beta   105.11609602
_cell_angle_gamma   95.85149452
_symmetry_Int_Tables_number   1
_chemical_formula_structural   Ti2Fe4O9
_chemical_formula_sum   'Ti4 Fe8 O18'
_cell_volume   321.50276994
_cell_formula_units_Z   2
loop_
 _symmetry_equiv_pos_site_id
 _symmetry_equiv_pos_as_xyz
  1  'x, y, z'
loop_
 _atom_site_type_symbol
 _atom_site_label
 _atom_site_symmetry_multiplicity
 _atom_site_fract_x
 _atom_site_fract_y
 _atom_site_fract_z
 _atom_site_occupancy
  Ti  Ti0  1  0.29840300  0.36214900  0.00668600  1
  Ti  Ti1  1  0.97156200  0.52167800  0.33618100  1
  Ti  Ti2  1  0.61381700  0.17845600  0.66151400  1
  Ti  Ti3  1  0.30043600  0.86686700  0.00408400  1
  Fe  Fe0  1  0.71657100  0.14109600  0.00082700  1
  Fe  Fe1  1  0.36426300  0.81948700  0.33531500  1
  Fe  Fe2  1  0.95123800  0.01698700  0.32973200  1
  Fe  Fe3  1  0.04259700  0.47606300  0.66804600  1
  Fe  Fe4  1  0.61882100  0.68354500  0.66097700  1
  Fe  Fe5  1  0.38402900  0.31565200  0.33755000  1
  Fe  Fe6  1  0.02779600  0.97747700  0.66438600  1
  Fe  Fe7  1  0.71350300  0.64487500  0.99914100  1
  O  O0  1  0.39047800  0.63163200  0.09078000  1
  O  O1  1  0.08371600  0.33147100  0.12722600  1
  O  O2  1  0.95695400  0.69425800  0.22823100  1
  O  O3  1  0.05730500  0.32758000  0.43382800  1
  O  O4  1  0.67883900  0.92934600  0.08991000  1
  O  O5  1  0.73670700  0.99530400  0.47784100  1
  O  O6  1  0.61920300  0.36464600  0.20020300  1
  O  O7  1  0.64377000  0.37784000  0.58432000  1
  O  O8  1  0.72854700  0.97599800  0.75852600  1
  O  O9  1  0.26230800  0.00486700  0.21716400  1
  O  O10  1  0.36273600  0.62839300  0.44324700  1
  O  O11  1  0.39536000  0.64865000  0.79410000  1
  O  O12  1  0.27852000  0.03132900  0.55183900  1
  O  O13  1  0.27816800  0.04222600  0.90159400  1
  O  O14  1  0.92611800  0.67972300  0.55483000  1
  O  O15  1  0.05058700  0.29089700  0.78148800  1
  O  O16  1  0.95151500  0.69218700  0.87419500  1
  O  O17  1  0.59613400  0.34932000  0.88623900  1
loop_
_geom_bond_atom_site_label_1
_geom_bond_atom_site_label_2
_geom_bond_distance
_geom_bond_site_symmetry_2
Fe0 O8 2.041872 1_544
Fe0 O4 2.070208 1_545
Fe0 O1 2.094966 1_655
Fe0 O6 2.148271 1_555
Fe0 O17 2.262712 1_554
Fe0 O13 2.277613 1_554
Fe1 O10 2.033119 1_555
Fe1 O5 2.087283 1_555
Fe1 O9 2.104376 1_565
Fe1 O0 2.129155 1_555
Fe1 O2 2.143593 1_455
Fe1 O12 2.167353 1_565
Fe2 O5 2.026471 1_545
Fe2 O4 2.061099 1_545
Fe2 O3 2.115862 1_655
Fe2 O9 2.193527 1_655
Fe2 O12 2.258591 1_655
Fe2 O2 2.260301 1_545
Fe3 O3 1.965029 1_555
Fe3 O11 1.985931 1_555
Fe3 O15 2.027582 1_555
Fe3 O7 2.079943 1_455
Fe3 O16 2.138751 1_455
Fe3 O14 2.217940 1_455
Fe4 O10 1.931049 1_555
Fe4 O11 1.983386 1_555
Fe4 O8 1.996034 1_555
Fe4 O14 2.142342 1_555
Fe4 O7 2.177469 1_555
Fe4 O16 2.242537 1_555
Fe5 O6 2.097818 1_555
Fe5 O9 2.115500 1_555
Fe5 O7 2.119109 1_555
Fe5 O3 2.183602 1_555
Fe5 O1 2.204201 1_555
Fe5 O10 2.211758 1_555
Fe6 O12 2.003268 1_565
Fe6 O14 2.023626 1_455
Fe6 O13 2.029147 1_565
Fe6 O8 2.037594 1_455
Fe6 O5 2.044767 1_455
Fe6 O15 2.163418 1_565
Fe7 O2 1.989394 1_556
Fe7 O17 2.012819 1_555
Fe7 O16 2.017024 1_555
Fe7 O4 2.035941 1_556
Fe7 O0 2.153344 1_556
Fe7 O11 2.188045 1_555
O0 Ti0 1.840870 1_555
O0 Ti3 2.260075 1_555
O1 Ti0 1.846436 1_555
O1 Ti1 2.139844 1_455
O2 Ti1 1.903764 1_555
O3 Ti1 2.023407 1_455
O4 Ti3 1.961723 1_555
O5 Ti2 2.008422 1_565
O6 Ti1 1.955869 1_555
O6 Ti0 2.114762 1_555
O7 Ti2 1.903875 1_555
O8 Ti2 2.115505 1_565
O9 Ti3 1.847120 1_545
O10 Ti1 2.045490 1_455
O11 Ti3 2.178340 1_556
O12 Ti2 1.843594 1_555
O13 Ti3 1.885901 1_546
O13 Ti0 2.210960 1_556
O14 Ti1 1.936618 1_555
O15 Ti0 1.932239 1_556
O15 Ti2 2.279301 1_455
O16 Ti3 1.977121 1_656
O17 Ti2 1.939065 1_555
O17 Ti0 2.173170 1_556
