# generated using pymatgen
data_Rb3Nd2(NO3)9
_symmetry_space_group_name_H-M   'P 1'
_cell_length_a   13.91875800
_cell_length_b   13.91875800
_cell_length_c   13.91875800
_cell_angle_alpha   90.00000000
_cell_angle_beta   90.00000000
_cell_angle_gamma   90.00000000
_symmetry_Int_Tables_number   1
_chemical_formula_structural   Rb3Nd2(NO3)9
_chemical_formula_sum   'Rb12 Nd8 N36 O108'
_cell_volume   2696.50637881
_cell_formula_units_Z   4
loop_
 _symmetry_equiv_pos_site_id
 _symmetry_equiv_pos_as_xyz
  1  'x, y, z'
loop_
 _atom_site_type_symbol
 _atom_site_label
 _atom_site_symmetry_multiplicity
 _atom_site_fract_x
 _atom_site_fract_y
 _atom_site_fract_z
 _atom_site_occupancy
  Rb  Rb0  1  0.87500000  0.80402500  0.55402500  1
  Rb  Rb1  1  0.55402500  0.87500000  0.80402500  1
  Rb  Rb2  1  0.30402500  0.94597500  0.12500000  1
  Rb  Rb3  1  0.94597500  0.12500000  0.30402500  1
  Rb  Rb4  1  0.69597500  0.44597500  0.37500000  1
  Rb  Rb5  1  0.12500000  0.30402500  0.94597500  1
  Rb  Rb6  1  0.05402500  0.62500000  0.19597500  1
  Rb  Rb7  1  0.80402500  0.55402500  0.87500000  1
  Rb  Rb8  1  0.19597500  0.05402500  0.62500000  1
  Rb  Rb9  1  0.37500000  0.69597500  0.44597500  1
  Rb  Rb10  1  0.44597500  0.37500000  0.69597500  1
  Rb  Rb11  1  0.62500000  0.19597500  0.05402500  1
  Nd  Nd0  1  0.44439800  0.55560200  0.05560200  1
  Nd  Nd1  1  0.30560200  0.30560200  0.30560200  1
  Nd  Nd2  1  0.55560200  0.05560200  0.44439800  1
  Nd  Nd3  1  0.94439800  0.94439800  0.94439800  1
  Nd  Nd4  1  0.80560200  0.19439800  0.69439800  1
  Nd  Nd5  1  0.69439800  0.80560200  0.19439800  1
  Nd  Nd6  1  0.19439800  0.69439800  0.80560200  1
  Nd  Nd7  1  0.05560200  0.44439800  0.55560200  1
  N  N0  1  0.73280800  0.87500000  0.98280800  1
  N  N1  1  0.07585000  0.86135700  0.09534900  1
  N  N2  1  0.36135700  0.40465100  0.92415000  1
  N  N3  1  0.32585000  0.84534900  0.88864300  1
  N  N4  1  0.34534900  0.61135700  0.67415000  1
  N  N5  1  0.87500000  0.98280800  0.73280800  1
  N  N6  1  0.67415000  0.34534900  0.61135700  1
  N  N7  1  0.62500000  0.01719200  0.23280800  1
  N  N8  1  0.63864300  0.90465100  0.57585000  1
  N  N9  1  0.48280800  0.76719200  0.12500000  1
  N  N10  1  0.13864300  0.59534900  0.42415000  1
  N  N11  1  0.01719200  0.23280800  0.62500000  1
  N  N12  1  0.84534900  0.88864300  0.32585000  1
  N  N13  1  0.37500000  0.51719200  0.26719200  1
  N  N14  1  0.12500000  0.48280800  0.76719200  1
  N  N15  1  0.17415000  0.15465100  0.38864300  1
  N  N16  1  0.90465100  0.57585000  0.63864300  1
  N  N17  1  0.40465100  0.92415000  0.36135700  1
  N  N18  1  0.92415000  0.36135700  0.40465100  1
  N  N19  1  0.98280800  0.73280800  0.87500000  1
  N  N20  1  0.65465100  0.11135700  0.82585000  1
  N  N21  1  0.51719200  0.26719200  0.37500000  1
  N  N22  1  0.09534900  0.07585000  0.86135700  1
  N  N23  1  0.76719200  0.12500000  0.48280800  1
  N  N24  1  0.61135700  0.67415000  0.34534900  1
  N  N25  1  0.88864300  0.32585000  0.84534900  1
  N  N26  1  0.23280800  0.62500000  0.01719200  1
  N  N27  1  0.57585000  0.63864300  0.90465100  1
  N  N28  1  0.15465100  0.38864300  0.17415000  1
  N  N29  1  0.38864300  0.17415000  0.15465100  1
  N  N30  1  0.82585000  0.65465100  0.11135700  1
  N  N31  1  0.26719200  0.37500000  0.51719200  1
  N  N32  1  0.59534900  0.42415000  0.13864300  1
  N  N33  1  0.86135700  0.09534900  0.07585000  1
  N  N34  1  0.42415000  0.13864300  0.59534900  1
  N  N35  1  0.11135700  0.82585000  0.65465100  1
  O  O0  1  0.84278400  0.63002700  0.67353500  1
  O  O1  1  0.42353500  0.11997300  0.09278400  1
  O  O2  1  0.92529000  0.24350600  0.82691700  1
  O  O3  1  0.45375000  0.89985400  0.43551900  1
  O  O4  1  0.24524500  0.40381800  0.59982800  1
  O  O5  1  0.00649400  0.32471000  0.42308300  1
  O  O6  1  0.13002700  0.82646500  0.15721600  1
  O  O7  1  0.15017200  0.65381800  0.99524500  1
  O  O8  1  0.84982800  0.15381800  0.50475500  1
  O  O9  1  0.37500000  0.45162700  0.20162700  1
  O  O10  1  0.06448100  0.54625000  0.39985400  1
  O  O11  1  0.95375000  0.60014600  0.56448100  1
  O  O12  1  0.17308300  0.42529000  0.25649400  1
  O  O13  1  0.59278400  0.07646500  0.88002700  1
  O  O14  1  0.32691700  0.57471000  0.75649400  1
  O  O15  1  0.40381800  0.59982800  0.24524500  1
  O  O16  1  0.07471000  0.74350600  0.67308300  1
  O  O17  1  0.09278400  0.42353500  0.11997300  1
  O  O18  1  0.49524500  0.34982800  0.34618200  1
  O  O19  1  0.39985400  0.06448100  0.54625000  1
  O  O20  1  0.57646500  0.61997300  0.40721600  1
  O  O21  1  0.67308300  0.07471000  0.74350600  1
  O  O22  1  0.79625000  0.81448100  0.35014600  1
  O  O23  1  0.42529000  0.25649400  0.17308300  1
  O  O24  1  0.81448100  0.35014600  0.79625000  1
  O  O25  1  0.49350600  0.67529000  0.92308300  1
  O  O26  1  0.42308300  0.00649400  0.32471000  1
  O  O27  1  0.54837300  0.70162700  0.12500000  1
  O  O28  1  0.09982800  0.25475500  0.59618200  1
  O  O29  1  0.17529000  0.57691700  0.50649400  1
  O  O30  1  0.40017200  0.74524500  0.09618200  1
  O  O31  1  0.57691700  0.50649400  0.17529000  1
  O  O32  1  0.65017200  0.84618200  0.00475500  1
  O  O33  1  0.62500000  0.95162700  0.29837300  1
  O  O34  1  0.56448100  0.95375000  0.60014600  1
  O  O35  1  0.86997300  0.32646500  0.34278400  1
  O  O36  1  0.15381800  0.50475500  0.84982800  1
  O  O37  1  0.87500000  0.04837300  0.79837300  1
  O  O38  1  0.38002700  0.90721600  0.92353500  1
  O  O39  1  0.50649400  0.17529000  0.57691700  1
  O  O40  1  0.36997300  0.17353500  0.65721600  1
  O  O41  1  0.60014600  0.56448100  0.95375000  1
  O  O42  1  0.89985400  0.43551900  0.45375000  1
  O  O43  1  0.15721600  0.13002700  0.82646500  1
  O  O44  1  0.63002700  0.67353500  0.84278400  1
  O  O45  1  0.40721600  0.57646500  0.61997300  1
  O  O46  1  0.99350600  0.82471000  0.07691700  1
  O  O47  1  0.67529000  0.92308300  0.49350600  1
  O  O48  1  0.61997300  0.40721600  0.57646500  1
  O  O49  1  0.34982800  0.34618200  0.49524500  1
  O  O50  1  0.04837300  0.79837300  0.87500000  1
  O  O51  1  0.07691700  0.99350600  0.82471000  1
  O  O52  1  0.90721600  0.92353500  0.38002700  1
  O  O53  1  0.82471000  0.07691700  0.99350600  1
  O  O54  1  0.70375000  0.18551900  0.85014600  1
  O  O55  1  0.93551900  0.04625000  0.10014600  1
  O  O56  1  0.82646500  0.15721600  0.13002700  1
  O  O57  1  0.59982800  0.24524500  0.40381800  1
  O  O58  1  0.70162700  0.12500000  0.54837300  1
  O  O59  1  0.34278400  0.86997300  0.32646500  1
  O  O60  1  0.20375000  0.31448100  0.14985400  1
  O  O61  1  0.18551900  0.85014600  0.70375000  1
  O  O62  1  0.64985400  0.29625000  0.68551900  1
  O  O63  1  0.45162700  0.20162700  0.37500000  1
  O  O64  1  0.11997300  0.09278400  0.42353500  1
  O  O65  1  0.75649400  0.32691700  0.57471000  1
  O  O66  1  0.99524500  0.15017200  0.65381800  1
  O  O67  1  0.29625000  0.68551900  0.64985400  1
  O  O68  1  0.00475500  0.65017200  0.84618200  1
  O  O69  1  0.50475500  0.84982800  0.15381800  1
  O  O70  1  0.34618200  0.49524500  0.34982800  1
  O  O71  1  0.54625000  0.39985400  0.06448100  1
  O  O72  1  0.79837300  0.87500000  0.04837300  1
  O  O73  1  0.12500000  0.54837300  0.70162700  1
  O  O74  1  0.90381800  0.90017200  0.75475500  1
  O  O75  1  0.92308300  0.49350600  0.67529000  1
  O  O76  1  0.90017200  0.75475500  0.90381800  1
  O  O77  1  0.85014600  0.70375000  0.18551900  1
  O  O78  1  0.65721600  0.36997300  0.17353500  1
  O  O79  1  0.35014600  0.79625000  0.81448100  1
  O  O80  1  0.74350600  0.67308300  0.07471000  1
  O  O81  1  0.20162700  0.37500000  0.45162700  1
  O  O82  1  0.82691700  0.92529000  0.24350600  1
  O  O83  1  0.17353500  0.65721600  0.36997300  1
  O  O84  1  0.14985400  0.20375000  0.31448100  1
  O  O85  1  0.67353500  0.84278400  0.63002700  1
  O  O86  1  0.29837300  0.62500000  0.95162700  1
  O  O87  1  0.43551900  0.45375000  0.89985400  1
  O  O88  1  0.59618200  0.09982800  0.25475500  1
  O  O89  1  0.88002700  0.59278400  0.07646500  1
  O  O90  1  0.74524500  0.09618200  0.40017200  1
  O  O91  1  0.31448100  0.14985400  0.20375000  1
  O  O92  1  0.92353500  0.38002700  0.90721600  1
  O  O93  1  0.68551900  0.64985400  0.29625000  1
  O  O94  1  0.24350600  0.82691700  0.92529000  1
  O  O95  1  0.95162700  0.29837300  0.62500000  1
  O  O96  1  0.75475500  0.90381800  0.90017200  1
  O  O97  1  0.57471000  0.75649400  0.32691700  1
  O  O98  1  0.65381800  0.99524500  0.15017200  1
  O  O99  1  0.25475500  0.59618200  0.09982800  1
  O  O100  1  0.09618200  0.40017200  0.74524500  1
  O  O101  1  0.32471000  0.42308300  0.00649400  1
  O  O102  1  0.25649400  0.17308300  0.42529000  1
  O  O103  1  0.04625000  0.10014600  0.93551900  1
  O  O104  1  0.32646500  0.34278400  0.86997300  1
  O  O105  1  0.84618200  0.00475500  0.65017200  1
  O  O106  1  0.07646500  0.88002700  0.59278400  1
  O  O107  1  0.10014600  0.93551900  0.04625000  1
loop_
_geom_bond_atom_site_label_1
_geom_bond_atom_site_label_2
_geom_bond_distance
_geom_bond_site_symmetry_2
Nd0 O101 2.577719 1_555
Nd0 O31 2.577719 1_555
Nd0 O25 2.577719 1_554
Nd0 O71 2.593155 1_555
Nd0 O87 2.593155 1_554
Nd0 O41 2.593155 1_554
Nd0 O9 2.675524 1_555
Nd0 O86 2.675524 1_554
Nd0 O27 2.675524 1_555
Nd0 O99 2.768649 1_555
Nd0 O30 2.768649 1_555
Nd0 O15 2.768649 1_555
Nd1 O102 2.577719 1_555
Nd1 O12 2.577719 1_555
Nd1 O23 2.577719 1_555
Nd1 O84 2.593155 1_555
Nd1 O60 2.593155 1_555
Nd1 O91 2.593155 1_555
Nd1 O81 2.675524 1_555
Nd1 O9 2.675524 1_555
Nd1 O63 2.675524 1_555
Nd1 O70 2.768649 1_555
Nd1 O18 2.768649 1_555
Nd1 O49 2.768649 1_555
Nd2 O26 2.577719 1_555
Nd2 O39 2.577719 1_555
Nd2 O47 2.577719 1_545
Nd2 O19 2.593155 1_555
Nd2 O3 2.593155 1_545
Nd2 O34 2.593155 1_545
Nd2 O63 2.675524 1_555
Nd2 O33 2.675524 1_545
Nd2 O58 2.675524 1_555
Nd2 O88 2.768649 1_555
Nd2 O90 2.768649 1_555
Nd2 O57 2.768649 1_555
Nd3 O51 2.577719 1_655
Nd3 O46 2.577719 1_556
Nd3 O53 2.577719 1_565
Nd3 O107 2.593155 1_656
Nd3 O55 2.593155 1_566
Nd3 O103 2.593155 1_665
Nd3 O72 2.675524 1_556
Nd3 O50 2.675524 1_655
Nd3 O37 2.675524 1_565
Nd3 O76 2.768649 1_555
Nd3 O74 2.768649 1_555
Nd3 O96 2.768649 1_555
Nd4 O65 2.577719 1_555
Nd4 O21 2.577719 1_555
Nd4 O2 2.577719 1_555
Nd4 O24 2.593155 1_555
Nd4 O54 2.593155 1_555
Nd4 O62 2.593155 1_555
Nd4 O58 2.675524 1_555
Nd4 O37 2.675524 1_555
Nd4 O95 2.675524 1_555
Nd4 O66 2.768649 1_555
Nd4 O105 2.768649 1_555
Nd4 O8 2.768649 1_555
Nd5 O97 2.577719 1_555
Nd5 O80 2.577719 1_555
Nd5 O82 2.577719 1_555
Nd5 O22 2.593155 1_555
Nd5 O77 2.593155 1_555
Nd5 O93 2.593155 1_555
Nd5 O27 2.675524 1_555
Nd5 O72 2.675524 1_555
Nd5 O33 2.675524 1_555
Nd5 O98 2.768649 1_555
Nd5 O69 2.768649 1_555
Nd5 O32 2.768649 1_555
Nd6 O14 2.577719 1_555
Nd6 O16 2.577719 1_555
Nd6 O94 2.577719 1_555
Nd6 O79 2.593155 1_555
Nd6 O61 2.593155 1_555
Nd6 O67 2.593155 1_555
Nd6 O73 2.675524 1_555
Nd6 O50 2.675524 1_555
Nd6 O86 2.675524 1_555
Nd6 O7 2.768649 1_555
Nd6 O36 2.768649 1_555
Nd6 O68 2.768649 1_555
Nd7 O5 2.577719 1_555
Nd7 O29 2.577719 1_555
Nd7 O75 2.577719 1_455
Nd7 O10 2.593155 1_555
Nd7 O42 2.593155 1_455
Nd7 O11 2.593155 1_455
Nd7 O81 2.675524 1_555
Nd7 O95 2.675524 1_455
Nd7 O73 2.675524 1_555
Nd7 O28 2.768649 1_555
Nd7 O100 2.768649 1_555
Nd7 O4 2.768649 1_555
N0 O96 1.255844 1_555
N0 O32 1.255844 1_556
N0 O72 1.290588 1_556
N1 O6 1.243384 1_555
N1 O46 1.280471 1_455
N1 O107 1.283322 1_555
N2 O104 1.243384 1_555
N2 O101 1.280471 1_556
N2 O87 1.283322 1_555
N3 O38 1.243384 1_555
N3 O94 1.280471 1_555
N3 O79 1.283322 1_555
N4 O45 1.243384 1_555
N4 O14 1.280471 1_555
N4 O67 1.283322 1_555
N5 O74 1.255844 1_555
N5 O105 1.255844 1_565
N5 O37 1.290588 1_565
N6 O48 1.243384 1_555
N6 O65 1.280471 1_555
N6 O62 1.283322 1_555
N7 O88 1.255844 1_555
N7 O98 1.255844 1_545
N7 O33 1.290588 1_545
N8 O85 1.243384 1_555
N8 O47 1.280471 1_555
N8 O34 1.283322 1_555
N9 O69 1.255844 1_555
N9 O30 1.255844 1_555
N9 O27 1.290588 1_555
N10 O83 1.243384 1_555
N10 O29 1.280471 1_555
N10 O10 1.283322 1_555
N11 O28 1.255844 1_555
N11 O66 1.255844 1_455
N11 O95 1.290588 1_455
N12 O52 1.243384 1_555
N12 O82 1.280471 1_555
N12 O22 1.283322 1_555
N13 O15 1.255844 1_555
N13 O70 1.255844 1_555
N13 O9 1.290588 1_555
N14 O36 1.255844 1_555
N14 O100 1.255844 1_555
N14 O73 1.290588 1_555
N15 O64 1.243384 1_555
N15 O102 1.280471 1_555
N15 O84 1.283322 1_555
N16 O0 1.243384 1_555
N16 O75 1.280471 1_555
N16 O11 1.283322 1_555
N17 O59 1.243384 1_555
N17 O26 1.280471 1_565
N17 O3 1.283322 1_555
N18 O35 1.243384 1_555
N18 O5 1.280471 1_655
N18 O42 1.283322 1_555
N19 O76 1.255844 1_555
N19 O68 1.255844 1_655
N19 O50 1.290588 1_655
N20 O13 1.243384 1_555
N20 O21 1.280471 1_555
N20 O54 1.283322 1_555
N21 O57 1.255844 1_555
N21 O18 1.255844 1_555
N21 O63 1.290588 1_555
N22 O43 1.243384 1_555
N22 O51 1.280471 1_545
N22 O103 1.283322 1_555
N23 O8 1.255844 1_555
N23 O90 1.255844 1_555
N23 O58 1.290588 1_555
N24 O20 1.243384 1_555
N24 O97 1.280471 1_555
N24 O93 1.283322 1_555
N25 O92 1.243384 1_555
N25 O2 1.280471 1_555
N25 O24 1.283322 1_555
N26 O99 1.255844 1_555
N26 O7 1.255844 1_554
N26 O86 1.290588 1_554
N27 O44 1.243384 1_555
N27 O25 1.280471 1_555
N27 O41 1.283322 1_555
N28 O17 1.243384 1_555
N28 O12 1.280471 1_555
N28 O60 1.283322 1_555
N29 O1 1.243384 1_555
N29 O23 1.280471 1_555
N29 O91 1.283322 1_555
N30 O89 1.243384 1_555
N30 O80 1.280471 1_555
N30 O77 1.283322 1_555
N31 O4 1.255844 1_555
N31 O49 1.255844 1_555
N31 O81 1.290588 1_555
N32 O78 1.243384 1_555
N32 O31 1.280471 1_555
N32 O71 1.283322 1_555
N33 O56 1.243384 1_555
N33 O53 1.280471 1_554
N33 O55 1.283322 1_555
N34 O40 1.243384 1_555
N34 O39 1.280471 1_555
N34 O19 1.283322 1_555
N35 O106 1.243384 1_555
N35 O16 1.280471 1_555
N35 O61 1.283322 1_555
O0 Rb0 2.972097 1_555
O0 Rb7 3.045210 1_555
O1 Rb2 2.972097 1_545
O1 Rb11 3.045210 1_555
O2 Rb5 3.344022 1_655
O3 Rb9 3.045555 1_555
O4 Rb10 3.123738 1_555
O5 Rb3 3.344022 1_455
O6 Rb2 2.972097 1_555
O6 Rb6 3.045210 1_555
O7 Rb6 3.123738 1_556
O8 Rb3 3.123738 1_555
O10 Rb6 3.045555 1_555
O11 Rb0 3.045555 1_555
O12 Rb6 3.344022 1_555
O13 Rb11 2.972097 1_556
O13 Rb1 3.045210 1_545
O14 Rb10 3.344022 1_555
O15 Rb9 3.123738 1_555
O16 Rb0 3.344022 1_455
O17 Rb5 2.972097 1_554
O17 Rb6 3.045210 1_555
O18 Rb4 3.123738 1_555
O19 Rb8 3.045555 1_555
O20 Rb4 2.972097 1_555
O20 Rb9 3.045210 1_555
O21 Rb1 3.344022 1_545
O22 Rb0 3.045555 1_555
O23 Rb11 3.344022 1_555
O24 Rb7 3.045555 1_555
O25 Rb1 3.344022 1_555
O26 Rb2 3.344022 1_545
O28 Rb8 3.123738 1_555
O29 Rb9 3.344022 1_555
O30 Rb2 3.123738 1_555
O31 Rb4 3.344022 1_555
O32 Rb1 3.123738 1_554
O34 Rb1 3.045555 1_555
O35 Rb4 2.972097 1_555
O35 Rb3 3.045210 1_555
O36 Rb5 3.123738 1_555
O38 Rb1 2.972097 1_555
O38 Rb2 3.045210 1_556
O39 Rb10 3.344022 1_555
O40 Rb8 2.972097 1_555
O40 Rb10 3.045210 1_555
O41 Rb7 3.045555 1_555
O42 Rb4 3.045555 1_555
O43 Rb5 2.972097 1_555
O43 Rb8 3.045210 1_555
O44 Rb7 2.972097 1_555
O44 Rb1 3.045210 1_555
O45 Rb9 2.972097 1_555
O45 Rb10 3.045210 1_555
O46 Rb6 3.344022 1_655
O47 Rb0 3.344022 1_555
O48 Rb10 2.972097 1_555
O48 Rb4 3.045210 1_555
O49 Rb10 3.123738 1_555
O51 Rb8 3.344022 1_565
O52 Rb0 2.972097 1_555
O52 Rb3 3.045210 1_565
O53 Rb11 3.344022 1_556
O54 Rb11 3.045555 1_556
O55 Rb3 3.045555 1_555
O56 Rb3 2.972097 1_555
O56 Rb11 3.045210 1_555
O57 Rb4 3.123738 1_555
O59 Rb9 2.972097 1_555
O59 Rb2 3.045210 1_555
O60 Rb5 3.045555 1_554
O61 Rb8 3.045555 1_565
O62 Rb10 3.045555 1_555
O64 Rb3 2.972097 1_455
O64 Rb8 3.045210 1_555
O65 Rb4 3.344022 1_555
O66 Rb8 3.123738 1_655
O67 Rb9 3.045555 1_555
O68 Rb7 3.123738 1_455
O69 Rb2 3.123738 1_555
O70 Rb9 3.123738 1_555
O71 Rb11 3.045555 1_555
O74 Rb0 3.123738 1_555
O75 Rb7 3.344022 1_555
O76 Rb7 3.123738 1_555
O77 Rb6 3.045555 1_655
O78 Rb11 2.972097 1_555
O78 Rb4 3.045210 1_555
O79 Rb1 3.045555 1_555
O80 Rb7 3.344022 1_554
O82 Rb3 3.344022 1_565
O83 Rb6 2.972097 1_555
O83 Rb9 3.045210 1_555
O84 Rb3 3.045555 1_455
O85 Rb1 2.972097 1_555
O85 Rb0 3.045210 1_555
O87 Rb10 3.045555 1_555
O88 Rb11 3.123738 1_555
O89 Rb6 2.972097 1_655
O89 Rb7 3.045210 1_554
O90 Rb3 3.123738 1_555
O91 Rb2 3.045555 1_545
O92 Rb7 2.972097 1_555
O92 Rb5 3.045210 1_655
O93 Rb4 3.045555 1_555
O94 Rb2 3.344022 1_556
O96 Rb1 3.123738 1_555
O97 Rb9 3.344022 1_555
O98 Rb11 3.123738 1_565
O99 Rb6 3.123738 1_555
O100 Rb5 3.123738 1_555
O101 Rb5 3.344022 1_554
O102 Rb8 3.344022 1_555
O103 Rb5 3.045555 1_555
O104 Rb10 2.972097 1_555
O104 Rb5 3.045210 1_555
O105 Rb0 3.123738 1_545
O106 Rb8 2.972097 1_565
O106 Rb0 3.045210 1_455
O107 Rb2 3.045555 1_555
