# generated using pymatgen
data_Ba3FeS5
_symmetry_space_group_name_H-M   'P 1'
_cell_length_a   8.54632400
_cell_length_b   9.61038700
_cell_length_c   12.06378600
_cell_angle_alpha   90.00000000
_cell_angle_beta   90.00000000
_cell_angle_gamma   90.00000000
_symmetry_Int_Tables_number   1
_chemical_formula_structural   Ba3FeS5
_chemical_formula_sum   'Ba12 Fe4 S20'
_cell_volume   990.84073903
_cell_formula_units_Z   4
loop_
 _symmetry_equiv_pos_site_id
 _symmetry_equiv_pos_as_xyz
  1  'x, y, z'
loop_
 _atom_site_type_symbol
 _atom_site_label
 _atom_site_symmetry_multiplicity
 _atom_site_fract_x
 _atom_site_fract_y
 _atom_site_fract_z
 _atom_site_occupancy
  Ba  Ba0  1  0.91153400  0.98100500  0.82214000  1
  Ba  Ba1  1  0.08846600  0.48100500  0.17786000  1
  Ba  Ba2  1  0.58846600  0.51899500  0.32214000  1
  Ba  Ba3  1  0.59517000  0.25000000  0.01650200  1
  Ba  Ba4  1  0.40483000  0.75000000  0.98349800  1
  Ba  Ba5  1  0.41153400  0.01899500  0.67786000  1
  Ba  Ba6  1  0.08846600  0.01899500  0.17786000  1
  Ba  Ba7  1  0.90483000  0.25000000  0.51650200  1
  Ba  Ba8  1  0.91153400  0.51899500  0.82214000  1
  Ba  Ba9  1  0.41153400  0.48100500  0.67786000  1
  Ba  Ba10  1  0.58846600  0.98100500  0.32214000  1
  Ba  Ba11  1  0.09517000  0.75000000  0.48349800  1
  Fe  Fe0  1  0.31246600  0.25000000  0.39997600  1
  Fe  Fe1  1  0.18753400  0.25000000  0.89997600  1
  Fe  Fe2  1  0.68753400  0.75000000  0.60002400  1
  Fe  Fe3  1  0.81246600  0.75000000  0.10002400  1
  S  S0  1  0.19407100  0.44485200  0.43912200  1
  S  S1  1  0.67075500  0.25000000  0.76265300  1
  S  S2  1  0.32924500  0.75000000  0.23734700  1
  S  S3  1  0.47364300  0.75000000  0.50340600  1
  S  S4  1  0.63364600  0.75000000  0.77830300  1
  S  S5  1  0.19407100  0.05514800  0.43912200  1
  S  S6  1  0.80592900  0.94485200  0.56087800  1
  S  S7  1  0.69407100  0.94485200  0.06087800  1
  S  S8  1  0.30592900  0.05514800  0.93912200  1
  S  S9  1  0.02635700  0.75000000  0.00340600  1
  S  S10  1  0.36635400  0.25000000  0.22169700  1
  S  S11  1  0.97364300  0.25000000  0.99659400  1
  S  S12  1  0.17075500  0.75000000  0.73734700  1
  S  S13  1  0.30592900  0.44485200  0.93912200  1
  S  S14  1  0.80592900  0.55514800  0.56087800  1
  S  S15  1  0.52635700  0.25000000  0.49659400  1
  S  S16  1  0.82924500  0.25000000  0.26265300  1
  S  S17  1  0.69407100  0.55514800  0.06087800  1
  S  S18  1  0.13364600  0.25000000  0.72169700  1
  S  S19  1  0.86635400  0.75000000  0.27830300  1
loop_
_geom_bond_atom_site_label_1
_geom_bond_atom_site_label_2
_geom_bond_distance
_geom_bond_site_symmetry_2
Ba0 S9 3.267030 1_656
Ba0 S4 3.293711 1_555
Ba0 S6 3.296845 1_555
Ba0 S12 3.298928 1_655
Ba0 S11 3.375496 1_565
Ba0 S1 3.381187 1_565
Ba0 S18 3.428494 1_665
Ba0 S7 3.445237 1_556
Ba0 S8 3.722964 1_665
Ba1 S11 3.267030 1_454
Ba1 S10 3.293711 1_555
Ba1 S0 3.296845 1_555
Ba1 S16 3.298928 1_455
Ba1 S9 3.375496 1_555
Ba1 S2 3.381187 1_555
Ba1 S19 3.428494 1_455
Ba1 S13 3.445237 1_554
Ba1 S17 3.722964 1_455
Ba2 S3 3.267030 1_555
Ba2 S19 3.293711 1_555
Ba2 S17 3.296845 1_555
Ba2 S2 3.298928 1_555
Ba2 S15 3.375496 1_555
Ba2 S16 3.381187 1_555
Ba2 S10 3.428494 1_555
Ba2 S14 3.445237 1_555
Ba2 S0 3.722964 1_555
Ba3 S7 3.098566 1_545
Ba3 S17 3.098566 1_555
Ba3 S1 3.129769 1_554
Ba3 S10 3.154658 1_555
Ba3 S8 3.238608 1_554
Ba3 S13 3.238608 1_554
Ba3 S11 3.243457 1_554
Ba3 S16 3.580493 1_555
Ba4 S8 3.098566 1_565
Ba4 S13 3.098566 1_555
Ba4 S2 3.129769 1_556
Ba4 S4 3.154658 1_555
Ba4 S17 3.238608 1_556
Ba4 S7 3.238608 1_556
Ba4 S9 3.243457 1_556
Ba4 S12 3.580493 1_555
Ba5 S15 3.267030 1_555
Ba5 S18 3.293711 1_555
Ba5 S8 3.296845 1_555
Ba5 S1 3.298928 1_555
Ba5 S3 3.375496 1_545
Ba5 S12 3.381187 1_545
Ba5 S4 3.428494 1_545
Ba5 S5 3.445237 1_555
Ba5 S6 3.722964 1_545
Ba6 S11 3.267030 1_454
Ba6 S10 3.293711 1_555
Ba6 S5 3.296845 1_555
Ba6 S16 3.298928 1_455
Ba6 S9 3.375496 1_545
Ba6 S2 3.381187 1_545
Ba6 S19 3.428494 1_445
Ba6 S8 3.445237 1_554
Ba6 S7 3.722964 1_445
Ba7 S6 3.098566 1_545
Ba7 S14 3.098566 1_555
Ba7 S16 3.129769 1_555
Ba7 S18 3.154658 1_655
Ba7 S5 3.238608 1_655
Ba7 S0 3.238608 1_655
Ba7 S15 3.243457 1_555
Ba7 S1 3.580493 1_555
Ba8 S9 3.267030 1_656
Ba8 S4 3.293711 1_555
Ba8 S14 3.296845 1_555
Ba8 S12 3.298928 1_655
Ba8 S11 3.375496 1_555
Ba8 S1 3.381187 1_555
Ba8 S18 3.428494 1_655
Ba8 S17 3.445237 1_556
Ba8 S13 3.722964 1_655
Ba9 S15 3.267030 1_555
Ba9 S18 3.293711 1_555
Ba9 S13 3.296845 1_555
Ba9 S1 3.298928 1_555
Ba9 S3 3.375496 1_555
Ba9 S12 3.381187 1_555
Ba9 S4 3.428494 1_555
Ba9 S0 3.445237 1_555
Ba9 S14 3.722964 1_555
Ba10 S3 3.267030 1_555
Ba10 S19 3.293711 1_555
Ba10 S7 3.296845 1_555
Ba10 S2 3.298928 1_555
Ba10 S15 3.375496 1_565
Ba10 S16 3.381187 1_565
Ba10 S10 3.428494 1_565
Ba10 S6 3.445237 1_555
Ba10 S5 3.722964 1_565
Ba11 S5 3.098566 1_565
Ba11 S0 3.098566 1_555
Ba11 S12 3.129769 1_555
Ba11 S19 3.154658 1_455
Ba11 S14 3.238608 1_455
Ba11 S6 3.238608 1_455
Ba11 S3 3.243457 1_555
Ba11 S2 3.580493 1_555
Fe0 S15 2.167969 1_555
Fe0 S5 2.180249 1_555
Fe0 S0 2.180249 1_555
Fe0 S10 2.199476 1_555
Fe1 S11 2.167969 1_455
Fe1 S8 2.180249 1_555
Fe1 S13 2.180249 1_555
Fe1 S18 2.199476 1_555
Fe2 S3 2.167969 1_555
Fe2 S6 2.180249 1_555
Fe2 S14 2.180249 1_555
Fe2 S4 2.199476 1_555
Fe3 S9 2.167969 1_655
Fe3 S17 2.180249 1_555
Fe3 S7 2.180249 1_555
Fe3 S19 2.199476 1_555
