# generated using pymatgen
data_Li25Ca5La7Nb8O48
_symmetry_space_group_name_H-M   'P 1'
_cell_length_a   11.32710251
_cell_length_b   11.32551535
_cell_length_c   11.12980281
_cell_angle_alpha   108.33855955
_cell_angle_beta   109.54211594
_cell_angle_gamma   110.22389805
_symmetry_Int_Tables_number   1
_chemical_formula_structural   Li25Ca5La7Nb8O48
_chemical_formula_sum   'Li25 Ca5 La7 Nb8 O48'
_cell_volume   1103.05629567
_cell_formula_units_Z   1
loop_
 _symmetry_equiv_pos_site_id
 _symmetry_equiv_pos_as_xyz
  1  'x, y, z'
loop_
 _atom_site_type_symbol
 _atom_site_label
 _atom_site_symmetry_multiplicity
 _atom_site_fract_x
 _atom_site_fract_y
 _atom_site_fract_z
 _atom_site_occupancy
  Li  Li0  1  0.25058500  0.62822400  0.38458800  1
  Li  Li1  1  0.36468500  0.23056100  0.61916200  1
  Li  Li2  1  0.53585800  0.72640300  0.38160800  1
  Li  Li3  1  0.68498500  0.64918300  0.29532100  1
  Li  Li4  1  0.72817600  0.90479400  0.32250400  1
  Li  Li5  1  0.29565900  0.14033800  0.90068400  1
  Li  Li6  1  0.48333200  0.41586400  0.15775100  1
  Li  Li7  1  0.81445400  0.88494300  0.14127100  1
  Li  Li8  1  0.84825100  0.48374500  0.68070500  1
  Li  Li9  1  0.65198900  0.35430900  0.24321800  1
  Li  Li10  1  0.83693200  0.27947000  0.70575000  1
  Li  Li11  1  0.58527400  0.32896900  0.46316700  1
  Li  Li12  1  0.60697700  0.31623900  0.66769200  1
  Li  Li13  1  0.88409900  0.43124800  0.25691000  1
  Li  Li14  1  0.06627700  0.08886900  0.80569000  1
  Li  Li15  1  0.77202800  0.96780800  0.56110400  1
  Li  Li16  1  0.13622800  0.75318500  0.87757700  1
  Li  Li17  1  0.65889000  0.52273900  0.43098700  1
  Li  Li18  1  0.48305000  0.70972600  0.86540400  1
  Li  Li19  1  0.89960100  0.14433200  0.78010000  1
  Li  Li20  1  0.84779100  0.13197800  0.94652900  1
  Li  Li21  1  0.14503400  0.88902200  0.26860800  1
  Li  Li22  1  0.57215200  0.72176000  0.10016300  1
  Li  Li23  1  0.84553400  0.15288400  0.16387000  1
  Li  Li24  1  0.00673300  0.36867500  0.14624000  1
  Ca  Ca0  1  0.13267000  0.24908500  0.37903100  1
  Ca  Ca1  1  0.63189900  0.24148800  0.89849800  1
  Ca  Ca2  1  0.76744800  0.63648900  0.87662700  1
  Ca  Ca3  1  0.76396800  0.17079600  0.39338500  1
  Ca  Ca4  1  0.89828900  0.65228400  0.24469500  1
  La  La0  1  0.15345400  0.38568400  0.76238300  1
  La  La1  1  0.26253500  0.88033300  0.63474300  1
  La  La2  1  0.61434700  0.85907100  0.73013500  1
  La  La3  1  0.23198600  0.37050900  0.12160200  1
  La  La4  1  0.36422800  0.75915700  0.13995800  1
  La  La5  1  0.35622500  0.10260600  0.21074100  1
  La  La6  1  0.90005100  0.76672100  0.62802000  1
  Nb  Nb0  1  0.02206600  0.01864700  0.50719800  1
  Nb  Nb1  1  0.99729100  0.98360700  0.99939100  1
  Nb  Nb2  1  0.48106400  0.49999500  0.52404900  1
  Nb  Nb3  1  0.51493500  0.01378200  0.50991700  1
  Nb  Nb4  1  0.51540600  0.47413700  0.96522400  1
  Nb  Nb5  1  0.51266500  0.99525300  0.00375500  1
  Nb  Nb6  1  0.04043400  0.51063400  0.52940900  1
  Nb  Nb7  1  0.00125600  0.52433400  0.00628400  1
  O  O0  1  0.11080700  0.98085800  0.68239000  1
  O  O1  1  0.02034300  0.33026100  0.92386900  1
  O  O2  1  0.13158300  0.60005500  0.93115900  1
  O  O3  1  0.08476100  0.69904900  0.67607800  1
  O  O4  1  0.08555400  0.89538400  0.41545800  1
  O  O5  1  0.08976800  0.61124600  0.42028200  1
  O  O6  1  0.19446000  0.48312400  0.60380400  1
  O  O7  1  0.43259000  0.83227400  0.80268600  1
  O  O8  1  0.32605800  0.33251700  0.93997300  1
  O  O9  1  0.40706800  0.57210000  0.91428200  1
  O  O10  1  0.01252000  0.19608800  0.12284800  1
  O  O11  1  0.34537000  0.93233300  0.30956600  1
  O  O12  1  0.18216200  0.21012000  0.58442000  1
  O  O13  1  0.18636600  0.57048300  0.17996400  1
  O  O14  1  0.41893900  0.83121400  0.52370900  1
  O  O15  1  0.30000800  0.46799400  0.38258500  1
  O  O16  1  0.33288400  0.90700700  0.02587700  1
  O  O17  1  0.11875500  0.02219700  0.19452200  1
  O  O18  1  0.42411700  0.07762900  0.89072800  1
  O  O19  1  0.52630700  0.61973600  0.71245400  1
  O  O20  1  0.54379400  0.38956800  0.81163900  1
  O  O21  1  0.40066900  0.30326200  0.48876500  1
  O  O22  1  0.60115100  0.92066200  0.39581200  1
  O  O23  1  0.18445700  0.11866600  0.00914100  1
  O  O24  1  0.80216700  0.87879900  0.96721800  1
  O  O25  1  0.44780700  0.10430000  0.63139900  1
  O  O26  1  0.61495900  0.67945000  0.52182900  1
  O  O27  1  0.49093400  0.60782900  0.19067600  1
  O  O28  1  0.48237800  0.36141000  0.29805500  1
  O  O29  1  0.58496700  0.88910100  0.10386100  1
  O  O30  1  0.88627500  0.98505400  0.80412900  1
  O  O31  1  0.68884300  0.09004900  0.98284200  1
  O  O32  1  0.69121600  0.51530800  0.61197400  1
  O  O33  1  0.61678400  0.19235700  0.49953000  1
  O  O34  1  0.81896500  0.43271800  0.82077300  1
  O  O35  1  0.82775100  0.84275100  0.44136700  1
  O  O36  1  0.69977200  0.08232600  0.69785900  1
  O  O37  1  0.98153800  0.80540300  0.88077300  1
  O  O38  1  0.70502600  0.67007100  0.08077500  1
  O  O39  1  0.61857300  0.42150400  0.09956000  1
  O  O40  1  0.59102300  0.16117700  0.20090100  1
  O  O41  1  0.81223700  0.55902900  0.39633200  1
  O  O42  1  0.93570000  0.39189400  0.60677000  1
  O  O43  1  0.96084200  0.13474900  0.64283400  1
  O  O44  1  0.91903400  0.32156900  0.33966300  1
  O  O45  1  0.87717200  0.42506600  0.08451500  1
  O  O46  1  0.99246000  0.69241200  0.09769900  1
  O  O47  1  0.90439300  0.03946600  0.34000300  1
loop_
_geom_bond_atom_site_label_1
_geom_bond_atom_site_label_2
_geom_bond_distance
_geom_bond_site_symmetry_2
Li0 O13 1.941418 1_555
Li0 O5 1.950133 1_555
Li0 O14 2.018137 1_555
Li0 O15 2.071774 1_555
Li1 O12 1.885585 1_555
Li1 O21 1.966211 1_555
Li1 O25 1.979257 1_555
Li1 O20 2.021644 1_555
Li2 O26 1.853997 1_555
Li2 O27 1.893806 1_555
Li2 O22 1.997570 1_555
Li2 O14 2.640278 1_555
Li3 O35 1.900347 1_555
Li3 O27 1.907761 1_555
Li3 O41 2.244950 1_555
Li3 O39 2.447277 1_555
Li3 O38 2.547610 1_555
Li4 O22 1.907901 1_555
Li4 O35 1.910675 1_555
Li4 O47 1.948474 1_565
Li4 O29 2.339302 1_555
Li5 O18 1.845720 1_555
Li5 O8 1.956849 1_555
Li5 O23 2.023316 1_556
Li5 O0 2.184017 1_545
Li6 O39 1.841830 1_555
Li6 O28 1.852459 1_555
Li6 O27 2.053423 1_555
Li6 O8 2.109148 1_554
Li7 O24 1.872158 1_554
Li7 O47 1.953694 1_565
Li7 O38 2.058389 1_555
Li7 O29 2.511072 1_555
Li8 O42 1.859976 1_555
Li8 O32 1.891639 1_555
Li8 O34 1.911704 1_555
Li9 O40 1.890213 1_555
Li9 O39 1.959287 1_555
Li9 O41 2.027109 1_555
Li9 O28 2.220440 1_555
Li10 O34 1.926911 1_555
Li10 O36 2.189450 1_555
Li10 O42 2.192873 1_555
Li10 O1 2.336941 1_655
Li10 O33 2.346210 1_555
Li11 O32 1.832161 1_555
Li11 O33 1.834176 1_555
Li11 O28 2.039233 1_555
Li11 O21 2.137339 1_555
Li12 O34 2.016821 1_555
Li12 O33 2.019456 1_555
Li12 O20 2.027163 1_555
Li12 O25 2.255198 1_555
Li12 O21 2.431745 1_555
Li12 O32 2.483218 1_555
Li13 O44 1.834067 1_555
Li13 O45 1.871765 1_555
Li13 O5 2.106979 1_655
Li13 O41 2.326190 1_555
Li14 O0 1.862086 1_545
Li14 O30 1.961087 1_445
Li14 O23 2.052358 1_556
Li14 O43 2.134285 1_455
Li15 O22 1.923800 1_555
Li15 O43 1.948543 1_565
Li15 O35 2.042895 1_555
Li15 O36 2.234671 1_565
Li15 O30 2.485958 1_555
Li16 O3 1.938611 1_555
Li16 O16 1.941425 1_556
Li16 O2 1.993701 1_555
Li16 O37 2.041096 1_455
Li17 O28 1.821850 1_555
Li17 O41 1.840967 1_555
Li17 O32 1.957883 1_555
Li17 O26 2.058613 1_555
Li18 O9 1.839968 1_555
Li18 O7 1.905638 1_555
Li18 O19 1.997039 1_555
Li18 O29 2.332271 1_556
Li19 O1 1.813721 1_655
Li19 O43 1.866461 1_555
Li19 O30 1.868344 1_545
Li19 O36 1.888077 1_555
Li20 O10 1.891259 1_656
Li20 O31 1.909665 1_555
Li20 O30 2.185158 1_545
Li20 O36 2.460002 1_555
Li21 O4 1.956156 1_555
Li21 O17 1.993037 1_565
Li21 O11 1.998870 1_555
Li21 O46 2.009506 1_455
Li22 O29 1.836124 1_555
Li22 O38 1.844305 1_555
Li22 O9 1.914064 1_554
Li22 O27 2.035528 1_555
Li23 O31 1.883654 1_554
Li23 O44 1.905122 1_555
Li23 O10 2.025823 1_655
Li24 O45 1.811948 1_455
Li24 O10 1.916366 1_555
Li24 O13 2.288847 1_555
Li24 O1 2.441815 1_554
Ca0 O12 2.383914 1_555
Ca0 O10 2.470726 1_555
Ca0 O15 2.525896 1_555
Ca0 O21 2.616035 1_555
Ca0 O47 2.620359 1_455
Ca0 O17 2.650998 1_555
Ca0 O6 2.673459 1_555
Ca0 O44 2.759011 1_455
Ca1 O31 2.368930 1_555
Ca1 O18 2.394536 1_555
Ca1 O45 2.403612 1_556
Ca1 O20 2.505004 1_555
Ca1 O25 2.511183 1_555
Ca1 O39 2.599016 1_556
Ca1 O36 2.898397 1_555
Ca2 O24 2.439218 1_555
Ca2 O37 2.490931 1_555
Ca2 O32 2.498128 1_555
Ca2 O34 2.514746 1_555
Ca2 O38 2.554223 1_556
Ca2 O46 2.580527 1_556
Ca2 O19 2.630596 1_555
Ca2 O20 2.713799 1_555
Ca3 O40 2.310173 1_555
Ca3 O42 2.343924 1_555
Ca3 O44 2.372734 1_555
Ca3 O33 2.377453 1_555
Ca3 O47 2.609054 1_555
Ca3 O22 2.810089 1_545
Ca4 O46 2.306768 1_555
Ca4 O4 2.379985 1_655
Ca4 O38 2.454692 1_555
Ca4 O45 2.501989 1_555
Ca4 O41 2.534614 1_555
Ca4 O5 2.678085 1_655
Ca4 O39 2.770058 1_555
La0 O9 2.424806 1_555
La0 O6 2.443015 1_555
La0 O43 2.449233 1_455
La0 O12 2.526284 1_555
La0 O42 2.535154 1_455
La0 O8 2.658822 1_555
La0 O2 2.709573 1_555
La0 O1 2.786784 1_555
La1 O0 2.472594 1_555
La1 O18 2.477474 1_565
La1 O7 2.541020 1_555
La1 O14 2.586244 1_555
La1 O3 2.614878 1_555
La1 O5 2.643651 1_555
La1 O4 2.688720 1_555
La1 O25 2.696453 1_565
La2 O7 2.411863 1_555
La2 O14 2.436425 1_555
La2 O19 2.458599 1_555
La2 O26 2.562444 1_555
La2 O36 2.563415 1_565
La2 O30 2.593548 1_555
La2 O24 2.661480 1_555
La2 O31 2.778862 1_565
La3 O1 2.425236 1_554
La3 O13 2.434393 1_555
La3 O15 2.479199 1_555
La3 O23 2.496573 1_555
La3 O8 2.572490 1_554
La3 O10 2.593713 1_555
La4 O2 2.361520 1_554
La4 O11 2.384414 1_555
La4 O16 2.447320 1_555
La4 O22 2.621577 1_555
La4 O13 2.654357 1_555
La4 O29 2.660626 1_555
La4 O27 2.661434 1_555
La5 O16 2.360851 1_545
La5 O28 2.441394 1_555
La5 O17 2.444448 1_555
La5 O11 2.490985 1_545
La5 O23 2.536533 1_555
La5 O40 2.558558 1_555
La5 O21 2.955462 1_555
La6 O3 2.422572 1_655
La6 O41 2.453844 1_555
La6 O0 2.460507 1_655
La6 O37 2.482986 1_555
La6 O35 2.490540 1_555
La6 O26 2.703110 1_555
La6 O30 2.720685 1_555
La6 O32 2.911302 1_555
Nb0 O12 1.948177 1_555
Nb0 O4 1.948570 1_545
Nb0 O47 2.031996 1_455
Nb0 O35 2.078710 1_445
Nb0 O0 2.122926 1_545
Nb0 O43 2.137889 1_455
Nb1 O37 1.940323 1_555
Nb1 O17 1.946416 1_666
Nb1 O24 1.952275 1_555
Nb1 O23 2.084634 1_666
Nb1 O30 2.124353 1_555
Nb1 O10 2.276515 1_666
Nb2 O19 1.873478 1_555
Nb2 O21 1.937854 1_555
Nb2 O15 1.945017 1_555
Nb2 O26 2.087360 1_555
Nb2 O32 2.168748 1_555
Nb3 O25 1.952358 1_555
Nb3 O33 2.014402 1_555
Nb3 O11 2.031676 1_545
Nb3 O14 2.058677 1_545
Nb3 O36 2.070307 1_555
Nb3 O22 2.092306 1_545
Nb4 O20 1.868987 1_555
Nb4 O39 1.957014 1_556
Nb4 O9 1.982424 1_555
Nb4 O8 2.046043 1_555
Nb4 O38 2.062132 1_556
Nb5 O18 2.000061 1_564
Nb5 O40 2.020624 1_565
Nb5 O7 2.030527 1_554
Nb5 O31 2.043503 1_564
Nb5 O29 2.066538 1_555
Nb5 O16 2.071123 1_555
Nb6 O6 1.843435 1_555
Nb6 O5 1.992624 1_555
Nb6 O3 1.997323 1_555
Nb6 O44 2.027739 1_455
Nb6 O42 2.065465 1_455
Nb6 O41 2.846841 1_455
Nb7 O46 1.910206 1_455
Nb7 O34 1.980318 1_454
Nb7 O2 2.003868 1_554
Nb7 O13 2.073937 1_555
Nb7 O45 2.083202 1_455
Nb7 O1 2.216249 1_554
