# generated using pymatgen
data_Na2ZnCl4
_symmetry_space_group_name_H-M   'P 1'
_cell_length_a   6.37441719
_cell_length_b   7.98240250
_cell_length_c   13.64337458
_cell_angle_alpha   90.00000000
_cell_angle_beta   90.00000000
_cell_angle_gamma   90.00000000
_symmetry_Int_Tables_number   1
_chemical_formula_structural   Na2ZnCl4
_chemical_formula_sum   'Na8 Zn4 Cl16'
_cell_volume   694.21806236
_cell_formula_units_Z   4
loop_
 _symmetry_equiv_pos_site_id
 _symmetry_equiv_pos_as_xyz
  1  'x, y, z'
loop_
 _atom_site_type_symbol
 _atom_site_label
 _atom_site_symmetry_multiplicity
 _atom_site_fract_x
 _atom_site_fract_y
 _atom_site_fract_z
 _atom_site_occupancy
  Na  Na0  1  0.50000000  0.00000000  0.50000000  1
  Na  Na1  1  0.50000000  0.50000000  0.50000000  1
  Na  Na2  1  0.49435806  0.75000000  0.76940771  1
  Na  Na3  1  0.99435806  0.25000000  0.73059229  1
  Na  Na4  1  0.00564194  0.75000000  0.26940771  1
  Na  Na5  1  -0.00000000  0.00000000  0.00000000  1
  Na  Na6  1  0.50564194  0.25000000  0.23059229  1
  Na  Na7  1  -0.00000000  0.50000000  0.00000000  1
  Zn  Zn0  1  0.08845797  0.25000000  0.40867858  1
  Zn  Zn1  1  0.58845797  0.75000000  0.09132142  1
  Zn  Zn2  1  0.91154203  0.75000000  0.59132142  1
  Zn  Zn3  1  0.41154203  0.25000000  0.90867858  1
  Cl  Cl0  1  0.26360361  0.75000000  0.59161135  1
  Cl  Cl1  1  0.23262947  0.25000000  0.56278824  1
  Cl  Cl2  1  0.76036542  0.97631392  0.66539739  1
  Cl  Cl3  1  0.73262947  0.75000000  0.93721176  1
  Cl  Cl4  1  0.76360361  0.25000000  0.90838865  1
  Cl  Cl5  1  0.73639639  0.25000000  0.40838865  1
  Cl  Cl6  1  0.26036542  0.47631392  0.83460261  1
  Cl  Cl7  1  0.26737053  0.25000000  0.06278824  1
  Cl  Cl8  1  0.73963458  0.97631392  0.16539739  1
  Cl  Cl9  1  0.23963458  0.47631392  0.33460261  1
  Cl  Cl10  1  0.23963458  0.02368608  0.33460261  1
  Cl  Cl11  1  0.26036542  0.02368608  0.83460261  1
  Cl  Cl12  1  0.76036542  0.52368608  0.66539739  1
  Cl  Cl13  1  0.23639639  0.75000000  0.09161135  1
  Cl  Cl14  1  0.76737053  0.75000000  0.43721176  1
  Cl  Cl15  1  0.73963458  0.52368608  0.16539739  1
loop_
_geom_bond_atom_site_label_1
_geom_bond_atom_site_label_2
_geom_bond_distance
_geom_bond_site_symmetry_2
Cl0 Zn2 2.244191 1_455
Cl0 Na0 2.795596 1_565
Cl0 Na1 2.795596 1_555
Cl0 Na2 2.836873 1_555
Cl1 Zn0 2.294647 1_555
Cl1 Na3 2.747416 1_455
Cl1 Na0 2.760617 1_555
Cl1 Na1 2.760617 1_555
Cl2 Zn2 2.283330 1_555
Cl2 Na3 2.790831 1_565
Cl2 Na0 2.807566 1_565
Cl2 Na2 2.855251 1_555
Cl3 Zn1 2.294647 1_556
Cl3 Na2 2.747416 1_555
Cl3 Na7 2.760617 1_656
Cl3 Na5 2.760617 1_666
Cl4 Zn3 2.244191 1_555
Cl4 Na5 2.795596 1_656
Cl4 Na7 2.795596 1_656
Cl4 Na3 2.836873 1_555
Cl5 Zn0 2.244191 1_655
Cl5 Na0 2.795596 1_555
Cl5 Na1 2.795596 1_555
Cl5 Na6 2.836873 1_555
Cl6 Zn3 2.283330 1_555
Cl6 Na2 2.790831 1_555
Cl6 Na7 2.807566 1_556
Cl6 Na3 2.855251 1_455
Cl7 Zn3 2.294647 1_554
Cl7 Na6 2.747416 1_555
Cl7 Na7 2.760617 1_555
Cl7 Na5 2.760617 1_555
Cl8 Zn1 2.283330 1_555
Cl8 Na6 2.790831 1_565
Cl8 Na5 2.807566 1_665
Cl8 Na4 2.855251 1_655
Cl9 Zn0 2.283330 1_555
Cl9 Na4 2.790831 1_555
Cl9 Na1 2.807566 1_555
Cl9 Na6 2.855251 1_555
Cl10 Zn0 2.283330 1_555
Cl10 Na4 2.790831 1_545
Cl10 Na0 2.807566 1_555
Cl10 Na6 2.855251 1_555
Cl11 Zn3 2.283330 1_555
Cl11 Na2 2.790831 1_545
Cl11 Na5 2.807566 1_556
Cl11 Na3 2.855251 1_455
Cl12 Zn2 2.283330 1_555
Cl12 Na3 2.790831 1_555
Cl12 Na1 2.807566 1_555
Cl12 Na2 2.855251 1_555
Cl13 Zn1 2.244191 1_555
Cl13 Na7 2.795596 1_555
Cl13 Na5 2.795596 1_565
Cl13 Na4 2.836873 1_555
Cl14 Zn2 2.294647 1_555
Cl14 Na4 2.747416 1_655
Cl14 Na1 2.760617 1_555
Cl14 Na0 2.760617 1_565
Cl15 Zn1 2.283330 1_555
Cl15 Na6 2.790831 1_555
Cl15 Na7 2.807566 1_655
Cl15 Na4 2.855251 1_655
