# generated using pymatgen
data_CeCuSb2
_symmetry_space_group_name_H-M   'P 1'
_cell_length_a   4.38240124
_cell_length_b   4.38240124
_cell_length_c   10.10351799
_cell_angle_alpha   90.00000000
_cell_angle_beta   90.00000000
_cell_angle_gamma   90.00000000
_symmetry_Int_Tables_number   1
_chemical_formula_structural   CeCuSb2
_chemical_formula_sum   'Ce2 Cu2 Sb4'
_cell_volume   194.04251489
_cell_formula_units_Z   2
loop_
 _symmetry_equiv_pos_site_id
 _symmetry_equiv_pos_as_xyz
  1  'x, y, z'
loop_
 _atom_site_type_symbol
 _atom_site_label
 _atom_site_symmetry_multiplicity
 _atom_site_fract_x
 _atom_site_fract_y
 _atom_site_fract_z
 _atom_site_occupancy
  Ce  Ce0  1  0.25000000  0.25000000  0.24963152  1
  Ce  Ce1  1  0.75000000  0.75000000  0.75036848  1
  Cu  Cu0  1  0.75000000  0.25000000  0.00000000  1
  Cu  Cu1  1  0.25000000  0.75000000  0.00000000  1
  Sb  Sb0  1  0.25000000  0.25000000  0.85137474  1
  Sb  Sb1  1  0.75000000  0.75000000  0.14862526  1
  Sb  Sb2  1  0.75000000  0.25000000  0.50000000  1
  Sb  Sb3  1  0.25000000  0.75000000  0.50000000  1
loop_
_geom_bond_atom_site_label_1
_geom_bond_atom_site_label_2
_geom_bond_distance
_geom_bond_site_symmetry_2
Ce0 Sb1 3.262542 1_455
Ce0 Sb1 3.262542 1_555
Ce0 Sb1 3.262542 1_545
Ce0 Sb1 3.262542 1_445
Ce0 Cu0 3.341053 1_555
Ce0 Cu1 3.341053 1_555
Ce0 Cu0 3.341053 1_455
Ce0 Cu1 3.341053 1_545
Ce0 Sb3 3.346677 1_545
Ce0 Sb3 3.346677 1_555
Ce0 Sb2 3.346677 1_555
Ce0 Sb2 3.346677 1_455
Ce1 Sb0 3.262542 1_555
Ce1 Sb0 3.262542 1_565
Ce1 Sb0 3.262542 1_655
Ce1 Sb0 3.262542 1_665
Ce1 Cu0 3.341053 1_556
Ce1 Cu1 3.341053 1_556
Ce1 Cu1 3.341053 1_656
Ce1 Cu0 3.341053 1_566
Ce1 Sb2 3.346677 1_565
Ce1 Sb3 3.346677 1_555
Ce1 Sb3 3.346677 1_655
Ce1 Sb2 3.346677 1_555
Cu0 Sb0 2.656365 1_654
Cu0 Sb0 2.656365 1_554
Cu0 Sb1 2.656365 1_545
Cu0 Sb1 2.656365 1_555
Cu1 Sb0 2.656365 1_564
Cu1 Sb0 2.656365 1_554
Cu1 Sb1 2.656365 1_455
Cu1 Sb1 2.656365 1_555
Sb2 Sb3 3.098826 1_645
Sb2 Sb3 3.098826 1_545
Sb2 Sb3 3.098826 1_555
Sb2 Sb3 3.098826 1_655
