# generated using pymatgen
data_NaInH8(NF3)2
_symmetry_space_group_name_H-M   'P 1'
_cell_length_a   6.19948234
_cell_length_b   6.19948234
_cell_length_c   6.19948234
_cell_angle_alpha   60.00000000
_cell_angle_beta   60.00000000
_cell_angle_gamma   60.00000000
_symmetry_Int_Tables_number   1
_chemical_formula_structural   NaInH8(NF3)2
_chemical_formula_sum   'Na1 In1 H8 N2 F6'
_cell_volume   168.48113635
_cell_formula_units_Z   1
loop_
 _symmetry_equiv_pos_site_id
 _symmetry_equiv_pos_as_xyz
  1  'x, y, z'
loop_
 _atom_site_type_symbol
 _atom_site_label
 _atom_site_symmetry_multiplicity
 _atom_site_fract_x
 _atom_site_fract_y
 _atom_site_fract_z
 _atom_site_occupancy
  Na  Na0  1  0.00000000  0.00000000  0.00000000  1
  In  In0  1  0.50000000  0.50000000  0.50000000  1
  H  H0  1  0.18220900  0.18220900  0.45337300  1
  H  H1  1  0.18220900  0.45337300  0.18220900  1
  H  H2  1  0.45337300  0.18220900  0.18220900  1
  H  H3  1  0.18220900  0.18220900  0.18220900  1
  H  H4  1  0.81779100  0.81779100  0.54662700  1
  H  H5  1  0.81779100  0.54662700  0.81779100  1
  H  H6  1  0.54662700  0.81779100  0.81779100  1
  H  H7  1  0.81779100  0.81779100  0.81779100  1
  N  N0  1  0.25000000  0.25000000  0.25000000  1
  N  N1  1  0.75000000  0.75000000  0.75000000  1
  F  F0  1  0.25825700  0.25825700  0.74174300  1
  F  F1  1  0.74174300  0.25825700  0.74174300  1
  F  F2  1  0.25825700  0.74174300  0.74174300  1
  F  F3  1  0.74174300  0.74174300  0.25825700  1
  F  F4  1  0.25825700  0.74174300  0.25825700  1
  F  F5  1  0.74174300  0.25825700  0.25825700  1
loop_
_geom_bond_atom_site_label_1
_geom_bond_atom_site_label_2
_geom_bond_distance
_geom_bond_site_symmetry_2
H0 N0 1.029445 1_555
H1 N0 1.029445 1_555
H2 N0 1.029445 1_555
H3 N0 1.029445 1_555
H4 N1 1.029445 1_555
H5 N1 1.029445 1_555
H6 N1 1.029445 1_555
H7 N1 1.029445 1_555
F0 In0 2.119456 1_555
F0 Na0 2.264240 1_556
F1 In0 2.119456 1_555
F1 Na0 2.264240 1_656
F2 In0 2.119456 1_555
F2 Na0 2.264240 1_566
F3 In0 2.119456 1_555
F3 Na0 2.264240 1_665
F4 In0 2.119456 1_555
F4 Na0 2.264240 1_565
F5 In0 2.119456 1_555
F5 Na0 2.264240 1_655
