# generated using pymatgen
data_K2Mn2(SO4)3
_symmetry_space_group_name_H-M   'P 1'
_cell_length_a   10.90333900
_cell_length_b   12.32467400
_cell_length_c   12.33065900
_cell_angle_alpha   90.00000000
_cell_angle_beta   90.00000000
_cell_angle_gamma   90.00000000
_symmetry_Int_Tables_number   1
_chemical_formula_structural   K2Mn2(SO4)3
_chemical_formula_sum   'K8 Mn8 S12 O48'
_cell_volume   1656.99517329
_cell_formula_units_Z   4
loop_
 _symmetry_equiv_pos_site_id
 _symmetry_equiv_pos_as_xyz
  1  'x, y, z'
loop_
 _atom_site_type_symbol
 _atom_site_label
 _atom_site_symmetry_multiplicity
 _atom_site_fract_x
 _atom_site_fract_y
 _atom_site_fract_z
 _atom_site_occupancy
  K  K0  1  0.86430000  0.95661600  0.82611200  1
  K  K1  1  0.63570000  0.04338400  0.32611200  1
  K  K2  1  0.07973200  0.81529100  0.29148900  1
  K  K3  1  0.57973200  0.68470900  0.70851100  1
  K  K4  1  0.36430000  0.54338400  0.17388800  1
  K  K5  1  0.42026800  0.18470900  0.79148900  1
  K  K6  1  0.13570000  0.45661600  0.67388800  1
  K  K7  1  0.92026800  0.31529100  0.20851100  1
  Mn  Mn0  1  0.78043800  0.74155300  0.03991900  1
  Mn  Mn1  1  0.71956200  0.25844700  0.53991900  1
  Mn  Mn2  1  0.95046700  0.12556200  0.40737800  1
  Mn  Mn3  1  0.28043800  0.75844700  0.96008100  1
  Mn  Mn4  1  0.54953300  0.87443800  0.90737800  1
  Mn  Mn5  1  0.45046700  0.37443800  0.59262200  1
  Mn  Mn6  1  0.04953300  0.62556200  0.09262200  1
  Mn  Mn7  1  0.21956200  0.24155300  0.46008100  1
  S  S0  1  0.10942200  0.67772500  0.85366400  1
  S  S1  1  0.39057800  0.32227500  0.35366400  1
  S  S2  1  0.46271300  0.74712000  0.38126500  1
  S  S3  1  0.03728700  0.25288000  0.88126500  1
  S  S4  1  0.69288000  0.52873400  0.12095700  1
  S  S5  1  0.89057800  0.17772500  0.64633600  1
  S  S6  1  0.80712000  0.47126600  0.62095700  1
  S  S7  1  0.53728700  0.24712000  0.11873500  1
  S  S8  1  0.30712000  0.02873400  0.37904300  1
  S  S9  1  0.19288000  0.97126600  0.87904300  1
  S  S10  1  0.96271300  0.75288000  0.61873500  1
  S  S11  1  0.60942200  0.82227500  0.14633600  1
  O  O0  1  0.31109500  0.67475200  0.63908600  1
  O  O1  1  0.29279600  0.33934900  0.56643400  1
  O  O2  1  0.52989200  0.73020900  0.19154200  1
  O  O3  1  0.93473500  0.26539800  0.95583100  1
  O  O4  1  0.97010800  0.26979100  0.69154200  1
  O  O5  1  0.79709500  0.41406400  0.51218300  1
  O  O6  1  0.24698300  0.09312200  0.29308600  1
  O  O7  1  0.83457300  0.73244600  0.39294100  1
  O  O8  1  0.04494200  0.24084800  0.42773600  1
  O  O9  1  0.38240300  0.65349100  0.36682700  1
  O  O10  1  0.33457300  0.76755400  0.60705900  1
  O  O11  1  0.77071200  0.58726000  0.61519200  1
  O  O12  1  0.72928800  0.41274000  0.11519200  1
  O  O13  1  0.88240300  0.84650900  0.63317300  1
  O  O14  1  0.02989200  0.76979100  0.80845800  1
  O  O15  1  0.70720400  0.83934900  0.93356600  1
  O  O16  1  0.44972700  0.40474200  0.72398400  1
  O  O17  1  0.54494200  0.25915200  0.57226400  1
  O  O18  1  0.11759700  0.34650900  0.86682700  1
  O  O19  1  0.70290500  0.58593600  0.01218300  1
  O  O20  1  0.66542700  0.26755400  0.89294100  1
  O  O21  1  0.16542700  0.23244600  0.10705900  1
  O  O22  1  0.20720400  0.66065100  0.06643400  1
  O  O23  1  0.05027300  0.59525800  0.22398400  1
  O  O24  1  0.99546600  0.02447100  0.48456700  1
  O  O25  1  0.79279600  0.16065100  0.43356600  1
  O  O26  1  0.94972700  0.09525800  0.27601600  1
  O  O27  1  0.75301700  0.59312200  0.20691400  1
  O  O28  1  0.25301700  0.90687800  0.79308600  1
  O  O29  1  0.47010800  0.23020900  0.30845800  1
  O  O30  1  0.68890500  0.17475200  0.86091400  1
  O  O31  1  0.29709500  0.08593600  0.48781700  1
  O  O32  1  0.50453400  0.97552900  0.98456700  1
  O  O33  1  0.27071200  0.91274000  0.38480800  1
  O  O34  1  0.22928800  0.08726000  0.88480800  1
  O  O35  1  0.61759700  0.15349100  0.13317300  1
  O  O36  1  0.74698300  0.40687800  0.70691400  1
  O  O37  1  0.81109500  0.82524800  0.36091400  1
  O  O38  1  0.49546600  0.47552900  0.51543300  1
  O  O39  1  0.56526500  0.73460200  0.45583100  1
  O  O40  1  0.20290500  0.91406400  0.98781700  1
  O  O41  1  0.45505800  0.75915200  0.92773600  1
  O  O42  1  0.00453400  0.52447100  0.01543300  1
  O  O43  1  0.06526500  0.76539800  0.54416900  1
  O  O44  1  0.55027300  0.90474200  0.77601600  1
  O  O45  1  0.43473500  0.23460200  0.04416900  1
  O  O46  1  0.18890500  0.32524800  0.13908600  1
  O  O47  1  0.95505800  0.74084800  0.07226400  1
loop_
_geom_bond_atom_site_label_1
_geom_bond_atom_site_label_2
_geom_bond_distance
_geom_bond_site_symmetry_2
K0 O15 2.603521 1_555
K0 O13 2.745988 1_555
K0 O14 2.934111 1_655
K0 O30 3.327038 1_565
K0 S5 3.524522 1_565
K0 S9 3.646059 1_655
K1 O25 2.603521 1_555
K1 O35 2.745988 1_555
K1 O29 2.934111 1_555
K1 O37 3.327038 1_545
K1 S11 3.524522 1_545
K1 S8 3.646059 1_555
K2 O33 2.665070 1_555
K2 O23 2.854834 1_555
K2 O37 3.054041 1_455
K2 O7 3.122923 1_455
K2 O47 3.161784 1_455
K2 O43 3.179726 1_555
K3 O11 2.665070 1_555
K3 O44 2.854834 1_555
K3 O0 3.054041 1_555
K3 O10 3.122923 1_555
K3 O41 3.161784 1_555
K3 O39 3.179726 1_555
K4 O22 2.603521 1_555
K4 O9 2.745988 1_555
K4 O2 2.934111 1_555
K4 O46 3.327038 1_555
K4 S1 3.524522 1_555
K4 S4 3.646059 1_555
K5 O34 2.665070 1_555
K5 O16 2.854834 1_555
K5 O30 3.054041 1_555
K5 O20 3.122923 1_555
K5 O17 3.161784 1_555
K5 O45 3.179726 1_556
K6 O1 2.603521 1_555
K6 O18 2.745988 1_555
K6 O4 2.934111 1_455
K6 O0 3.327038 1_555
K6 S0 3.524522 1_555
K6 S6 3.646059 1_455
K7 O12 2.665070 1_555
K7 O26 2.854834 1_555
K7 O46 3.054041 1_655
K7 O21 3.122923 1_655
K7 O8 3.161784 1_655
K7 O3 3.179726 1_554
Mn0 O47 1.945286 1_555
Mn0 O15 1.951955 1_554
Mn0 O19 2.123691 1_555
Mn0 S11 2.487674 1_555
Mn0 O27 2.770576 1_555
Mn1 O17 1.945286 1_555
Mn1 O25 1.951955 1_555
Mn1 O5 2.123691 1_555
Mn1 S5 2.487674 1_555
Mn1 O36 2.770576 1_555
Mn2 O24 1.642843 1_555
Mn2 O26 1.662301 1_555
Mn2 O8 1.772838 1_655
Mn2 O25 1.801871 1_555
Mn3 O41 1.945286 1_555
Mn3 O22 1.951955 1_556
Mn3 O40 2.123691 1_555
Mn3 S0 2.487674 1_555
Mn3 O28 2.770576 1_555
Mn4 O32 1.642843 1_555
Mn4 O44 1.662301 1_555
Mn4 O41 1.772838 1_555
Mn4 O15 1.801871 1_555
Mn5 O38 1.642843 1_555
Mn5 O16 1.662301 1_555
Mn5 O17 1.772838 1_555
Mn5 O1 1.801871 1_555
Mn6 O42 1.642843 1_555
Mn6 O23 1.662301 1_555
Mn6 O47 1.772838 1_455
Mn6 O22 1.801871 1_555
Mn7 O8 1.945286 1_555
Mn7 O1 1.951955 1_555
Mn7 O31 2.123691 1_555
Mn7 S1 2.487674 1_555
Mn7 O6 2.770576 1_555
O0 O10 1.236795 1_555
O2 S11 1.533023 1_555
O3 S3 1.455839 1_655
O4 S5 1.533023 1_555
O5 S6 1.519188 1_555
O6 S8 1.477523 1_555
O9 S2 1.459468 1_555
O11 S6 1.485382 1_555
O12 S4 1.485382 1_555
O13 S10 1.459468 1_555
O14 S0 1.533023 1_555
O18 S3 1.459468 1_555
O19 S4 1.519188 1_555
O20 O30 1.236795 1_555
O21 O46 1.236795 1_555
O27 S4 1.477523 1_555
O28 S9 1.477523 1_555
O29 S1 1.533023 1_555
O31 S8 1.519188 1_555
O33 S8 1.485382 1_565
O34 S9 1.485382 1_545
O35 S7 1.459468 1_555
O36 S6 1.477523 1_555
O37 O7 1.236795 1_555
O39 S2 1.455839 1_555
O40 S9 1.519188 1_555
O43 S10 1.455839 1_455
O45 S7 1.455839 1_555
