# generated using pymatgen
data_Ti9S10
_symmetry_space_group_name_H-M   'P 1'
_cell_length_a   9.03423500
_cell_length_b   9.11860008
_cell_length_c   11.82969800
_cell_angle_alpha   102.48142621
_cell_angle_beta   109.11288139
_cell_angle_gamma   85.94874798
_symmetry_Int_Tables_number   1
_chemical_formula_structural   Ti9S10
_chemical_formula_sum   'Ti27 S30'
_cell_volume   899.04289637
_cell_formula_units_Z   3
loop_
 _symmetry_equiv_pos_site_id
 _symmetry_equiv_pos_as_xyz
  1  'x, y, z'
loop_
 _atom_site_type_symbol
 _atom_site_label
 _atom_site_symmetry_multiplicity
 _atom_site_fract_x
 _atom_site_fract_y
 _atom_site_fract_z
 _atom_site_occupancy
  Ti  Ti0  1  0.00068500  0.00292400  0.99928200  1
  Ti  Ti1  1  0.99922500  0.35714800  0.06638600  1
  Ti  Ti2  1  0.79922600  0.99946600  0.20156200  1
  Ti  Ti3  1  0.80065100  0.35045900  0.25852100  1
  Ti  Ti4  1  0.60182700  0.00221800  0.39953700  1
  Ti  Ti5  1  0.99814300  0.99423500  0.49894900  1
  Ti  Ti6  1  0.60822400  0.35781400  0.45857600  1
  Ti  Ti7  1  0.00328100  0.34931400  0.55926300  1
  Ti  Ti8  1  0.80141700  0.00518300  0.70056600  1
  Ti  Ti9  1  0.39987600  0.00014300  0.60154300  1
  Ti  Ti10  1  0.39159300  0.35695200  0.65312800  1
  Ti  Ti11  1  0.79820900  0.65069000  0.64119500  1
  Ti  Ti12  1  0.59727400  0.00347100  0.89974200  1
  Ti  Ti13  1  0.20111600  0.00115800  0.80083300  1
  Ti  Ti14  1  0.19931800  0.35350700  0.85895300  1
  Ti  Ti15  1  0.60077000  0.35482500  0.95919200  1
  Ti  Ti16  1  0.00804300  0.64605300  0.94750800  1
  Ti  Ti17  1  0.60129500  0.64941100  0.84203200  1
  Ti  Ti18  1  0.40024500  0.00669400  0.10036900  1
  Ti  Ti19  1  0.79247000  0.64025400  0.13504900  1
  Ti  Ti20  1  0.39772400  0.65110100  0.04042700  1
  Ti  Ti21  1  0.19702900  0.35067800  0.35749800  1
  Ti  Ti22  1  0.20127700  0.64936800  0.24256800  1
  Ti  Ti23  1  0.60044700  0.65017000  0.34115700  1
  Ti  Ti24  1  0.20009000  0.99963700  0.29961400  1
  Ti  Ti25  1  0.40794900  0.64005600  0.53912000  1
  Ti  Ti26  1  0.19182700  0.64299200  0.74181100  1
  S  S0  1  0.99785300  0.51319100  0.26141300  1
  S  S1  1  0.79894100  0.82721700  0.33677000  1
  S  S2  1  0.99961400  0.16848400  0.36204000  1
  S  S3  1  0.81340900  0.51121700  0.45010200  1
  S  S4  1  0.59859100  0.82983200  0.53827800  1
  S  S5  1  0.80124700  0.17091200  0.56059900  1
  S  S6  1  0.61159800  0.48841900  0.65541500  1
  S  S7  1  0.80027100  0.83230700  0.83869800  1
  S  S8  1  0.40117900  0.82806800  0.73815000  1
  S  S9  1  0.59935200  0.17137900  0.76161600  1
  S  S10  1  0.00005900  0.17211700  0.86209600  1
  S  S11  1  0.80191300  0.48979900  0.93903500  1
  S  S12  1  0.39907700  0.50068800  0.84847900  1
  S  S13  1  0.60001100  0.82893200  0.03879300  1
  S  S14  1  0.19922400  0.82951100  0.93858000  1
  S  S15  1  0.80187300  0.17079500  0.06324500  1
  S  S16  1  0.39964200  0.17238300  0.96183300  1
  S  S17  1  0.58755400  0.48990100  0.14984500  1
  S  S18  1  0.21183400  0.48918300  0.05749800  1
  S  S19  1  0.40039200  0.83209700  0.23781400  1
  S  S20  1  0.99884700  0.82809700  0.13676300  1
  S  S21  1  0.60118100  0.17250500  0.26249700  1
  S  S22  1  0.19918500  0.17280900  0.16225300  1
  S  S23  1  0.40165800  0.48874800  0.33957300  1
  S  S24  1  0.20191600  0.82805200  0.43814000  1
  S  S25  1  0.39901700  0.17125700  0.46193900  1
  S  S26  1  0.18868400  0.51328700  0.54346900  1
  S  S27  1  0.99958300  0.82974800  0.64003300  1
  S  S28  1  0.20039700  0.17018000  0.66076700  1
  S  S29  1  0.98666600  0.49046700  0.75113600  1
loop_
_geom_bond_atom_site_label_1
_geom_bond_atom_site_label_2
_geom_bond_distance
_geom_bond_site_symmetry_2
S0 Ti19 2.376621 1_555
S0 Ti22 2.383162 1_655
S0 Ti3 2.385114 1_555
S0 Ti21 2.395361 1_655
S0 Ti1 2.438198 1_555
S1 Ti5 2.470259 1_555
S1 Ti2 2.472749 1_555
S1 Ti4 2.494224 1_565
S1 Ti23 2.516145 1_555
S1 Ti19 2.601645 1_555
S2 Ti2 2.477011 1_545
S2 Ti24 2.487272 1_645
S2 Ti5 2.505453 1_545
S2 Ti7 2.541171 1_655
S2 Ti21 2.542408 1_655
S2 Ti3 2.549405 1_555
S3 Ti11 2.383782 1_555
S3 Ti23 2.388642 1_555
S3 Ti3 2.390656 1_555
S3 Ti7 2.409393 1_655
S3 Ti6 2.439589 1_555
S4 Ti9 2.485622 1_565
S4 Ti4 2.513685 1_565
S4 Ti8 2.526539 1_565
S4 Ti25 2.529989 1_555
S4 Ti11 2.531497 1_555
S4 Ti23 2.548001 1_555
S5 Ti8 2.470815 1_555
S5 Ti4 2.473676 1_555
S5 Ti5 2.495647 1_545
S5 Ti7 2.535279 1_655
S5 Ti6 2.548140 1_555
S6 Ti6 2.366717 1_555
S6 Ti10 2.382381 1_555
S6 Ti11 2.388674 1_555
S6 Ti17 2.398284 1_555
S6 Ti25 2.448416 1_555
S7 Ti0 2.485065 1_665
S7 Ti8 2.506405 1_565
S7 Ti12 2.509263 1_565
S7 Ti11 2.550515 1_555
S7 Ti17 2.552014 1_555
S7 Ti16 2.641394 1_655
S8 Ti9 2.480856 1_565
S8 Ti12 2.492367 1_565
S8 Ti13 2.505286 1_565
S8 Ti17 2.535137 1_555
S8 Ti25 2.611734 1_555
S8 Ti26 2.638820 1_555
S9 Ti12 2.473869 1_555
S9 Ti8 2.479934 1_555
S9 Ti9 2.481188 1_555
S9 Ti15 2.560194 1_555
S9 Ti10 2.635505 1_555
S10 Ti8 2.464153 1_455
S10 Ti0 2.467586 1_555
S10 Ti13 2.495660 1_555
S10 Ti14 2.543393 1_555
S10 Ti1 2.633403 1_456
S11 Ti15 2.366518 1_555
S11 Ti1 2.373743 1_556
S11 Ti16 2.387255 1_655
S11 Ti17 2.388976 1_555
S11 Ti19 2.450346 1_556
S12 Ti26 2.366225 1_555
S12 Ti14 2.373586 1_555
S12 Ti15 2.377461 1_555
S12 Ti10 2.379888 1_555
S12 Ti17 2.380855 1_555
S12 Ti20 2.388925 1_556
S13 Ti2 2.489306 1_555
S13 Ti12 2.517711 1_564
S13 Ti18 2.520374 1_565
S13 Ti19 2.531281 1_555
S13 Ti20 2.534769 1_555
S13 Ti17 2.542772 1_554
S14 Ti0 2.486999 1_565
S14 Ti13 2.495961 1_565
S14 Ti20 2.516794 1_556
S14 Ti18 2.524551 1_566
S14 Ti16 2.529209 1_555
S14 Ti26 2.553111 1_555
S15 Ti0 2.478429 1_654
S15 Ti2 2.500889 1_545
S15 Ti12 2.503450 1_554
S15 Ti3 2.529576 1_555
S15 Ti1 2.534790 1_555
S15 Ti15 2.574788 1_554
S16 Ti18 2.455961 1_556
S16 Ti12 2.465955 1_555
S16 Ti13 2.480987 1_555
S16 Ti14 2.547227 1_555
S16 Ti15 2.560660 1_555
S17 Ti15 2.360686 1_554
S17 Ti23 2.386009 1_555
S17 Ti3 2.390757 1_555
S17 Ti20 2.406188 1_555
S17 Ti19 2.451940 1_555
S18 Ti14 2.376919 1_554
S18 Ti1 2.379843 1_455
S18 Ti22 2.381293 1_555
S18 Ti20 2.396321 1_555
S18 Ti16 2.447939 1_554
S19 Ti24 2.477083 1_555
S19 Ti4 2.492863 1_565
S19 Ti18 2.509100 1_565
S19 Ti20 2.545551 1_555
S19 Ti23 2.553255 1_555
S19 Ti22 2.558442 1_555
S20 Ti24 2.503819 1_655
S20 Ti16 2.504141 1_654
S20 Ti2 2.504223 1_555
S20 Ti0 2.515717 1_664
S20 Ti22 2.555160 1_655
S20 Ti19 2.611895 1_555
S21 Ti18 2.472690 1_555
S21 Ti4 2.473836 1_555
S21 Ti2 2.482848 1_545
S21 Ti3 2.526743 1_555
S21 Ti6 2.542445 1_555
S22 Ti18 2.476381 1_555
S22 Ti0 2.483952 1_554
S22 Ti24 2.496516 1_545
S22 Ti21 2.524164 1_555
S22 Ti1 2.535412 1_455
S23 Ti6 2.362447 1_555
S23 Ti22 2.393865 1_555
S23 Ti23 2.394118 1_555
S23 Ti21 2.397623 1_555
S23 Ti25 2.448391 1_555
S24 Ti5 2.490918 1_455
S24 Ti9 2.493785 1_565
S24 Ti24 2.494116 1_555
S24 Ti22 2.523995 1_555
S24 Ti25 2.609311 1_555
S25 Ti24 2.490923 1_545
S25 Ti9 2.503147 1_555
S25 Ti4 2.504549 1_555
S25 Ti10 2.532771 1_555
S25 Ti21 2.551191 1_555
S25 Ti6 2.645835 1_555
S26 Ti26 2.380442 1_555
S26 Ti25 2.383024 1_555
S26 Ti21 2.393116 1_555
S26 Ti7 2.399092 1_555
S26 Ti10 2.438899 1_555
S27 Ti5 2.469899 1_555
S27 Ti8 2.493329 1_565
S27 Ti13 2.495059 1_665
S27 Ti11 2.534085 1_555
S27 Ti26 2.542647 1_655
S28 Ti9 2.470842 1_555
S28 Ti13 2.493252 1_555
S28 Ti7 2.513505 1_555
S28 Ti5 2.524532 1_445
S28 Ti10 2.544940 1_555
S28 Ti14 2.570954 1_555
S29 Ti14 2.371110 1_655
S29 Ti11 2.396780 1_555
S29 Ti7 2.400875 1_655
S29 Ti16 2.401430 1_655
S29 Ti26 2.438513 1_655
