# generated using pymatgen
data_LiNb(PO4)2
_symmetry_space_group_name_H-M   'P 1'
_cell_length_a   7.78605800
_cell_length_b   5.20257300
_cell_length_c   7.84919787
_cell_angle_alpha   86.10254230
_cell_angle_beta   90.00000000
_cell_angle_gamma   90.00000000
_symmetry_Int_Tables_number   1
_chemical_formula_structural   LiNb(PO4)2
_chemical_formula_sum   'Li2 Nb2 P4 O16'
_cell_volume   317.21633042
_cell_formula_units_Z   2
loop_
 _symmetry_equiv_pos_site_id
 _symmetry_equiv_pos_as_xyz
  1  'x, y, z'
loop_
 _atom_site_type_symbol
 _atom_site_label
 _atom_site_symmetry_multiplicity
 _atom_site_fract_x
 _atom_site_fract_y
 _atom_site_fract_z
 _atom_site_occupancy
  Li  Li0  1  0.11988200  0.33927900  0.17091400  1
  Li  Li1  1  0.61988200  0.66072100  0.82908600  1
  Nb  Nb0  1  0.00883300  0.74970600  0.74573300  1
  Nb  Nb1  1  0.50883300  0.25029400  0.25426700  1
  P  P0  1  0.31160700  0.79041200  0.04770300  1
  P  P1  1  0.81160700  0.20958800  0.95229700  1
  P  P2  1  0.68996700  0.71608000  0.45887800  1
  P  P3  1  0.18996700  0.28392000  0.54112200  1
  O  O0  1  0.68501700  0.47496000  0.34724600  1
  O  O1  1  0.93572500  0.18084100  0.09497500  1
  O  O2  1  0.37797200  0.23634100  0.47834700  1
  O  O3  1  0.62488900  0.27375500  0.01720500  1
  O  O4  1  0.85528900  0.44711000  0.82157200  1
  O  O5  1  0.06525200  0.30869200  0.39931700  1
  O  O6  1  0.56525200  0.69130800  0.60068300  1
  O  O7  1  0.18501700  0.52504000  0.65275400  1
  O  O8  1  0.35528900  0.55289000  0.17842800  1
  O  O9  1  0.87797200  0.76365900  0.52165300  1
  O  O10  1  0.12488900  0.72624500  0.98279500  1
  O  O11  1  0.31002800  0.03629100  0.15368300  1
  O  O12  1  0.81002800  0.96370900  0.84631700  1
  O  O13  1  0.14133400  0.05481400  0.67638600  1
  O  O14  1  0.43572500  0.81915900  0.90502500  1
  O  O15  1  0.64133400  0.94518600  0.32361400  1
loop_
_geom_bond_atom_site_label_1
_geom_bond_atom_site_label_2
_geom_bond_distance
_geom_bond_site_symmetry_2
Li0 O1 1.776928 1_455
Li0 O5 1.838893 1_555
Li0 O8 2.146376 1_555
Li0 O11 2.173452 1_555
Li0 O10 2.414696 1_554
Li1 O14 1.776928 1_555
Li1 O6 1.838893 1_555
Li1 O4 2.146376 1_555
Li1 O12 2.173452 1_555
Li1 O3 2.414696 1_556
Nb0 O13 1.939799 1_565
Nb0 O7 1.973969 1_555
Nb0 O9 2.029680 1_455
Nb0 O4 2.033355 1_455
Nb0 O10 2.064686 1_555
Nb0 O12 2.092465 1_455
Nb1 O15 1.939799 1_545
Nb1 O0 1.973969 1_555
Nb1 O2 2.029680 1_555
Nb1 O8 2.033355 1_555
Nb1 O3 2.064686 1_555
Nb1 O11 2.092465 1_555
O0 P2 1.578703 1_555
O1 P1 1.479088 1_554
O2 P3 1.569523 1_555
O3 P1 1.583559 1_554
O4 P1 1.588451 1_555
O5 P3 1.476115 1_555
O6 P2 1.476115 1_555
O7 P3 1.578703 1_555
O8 P0 1.588451 1_555
O9 P2 1.569523 1_555
O10 P0 1.583559 1_556
O11 P0 1.572628 1_545
O12 P1 1.572628 1_565
O13 P3 1.587233 1_555
O14 P0 1.479088 1_556
O15 P2 1.587233 1_555
