# generated using pymatgen
data_Li4H6Os
_symmetry_space_group_name_H-M   'P 1'
_cell_length_a   5.80333816
_cell_length_b   5.80333816
_cell_length_c   5.80333810
_cell_angle_alpha   89.78474323
_cell_angle_beta   89.78474323
_cell_angle_gamma   89.78474494
_symmetry_Int_Tables_number   1
_chemical_formula_structural   Li4H6Os
_chemical_formula_sum   'Li8 H12 Os2'
_cell_volume   195.44495101
_cell_formula_units_Z   2
loop_
 _symmetry_equiv_pos_site_id
 _symmetry_equiv_pos_as_xyz
  1  'x, y, z'
loop_
 _atom_site_type_symbol
 _atom_site_label
 _atom_site_symmetry_multiplicity
 _atom_site_fract_x
 _atom_site_fract_y
 _atom_site_fract_z
 _atom_site_occupancy
  Li  Li0  1  0.25000000  0.25000000  0.25000000  1
  Li  Li1  1  0.75000000  0.75000000  0.75000000  1
  Li  Li2  1  0.84182162  0.65817838  0.25000000  1
  Li  Li3  1  0.25000000  0.84182162  0.65817838  1
  Li  Li4  1  0.65817838  0.25000000  0.84182162  1
  Li  Li5  1  0.75000000  0.15817838  0.34182162  1
  Li  Li6  1  0.34182162  0.75000000  0.15817838  1
  Li  Li7  1  0.15817838  0.34182162  0.75000000  1
  H  H0  1  0.21117148  0.54298179  0.45047701  1
  H  H1  1  0.45047701  0.21117148  0.54298179  1
  H  H2  1  0.54298179  0.45047701  0.21117148  1
  H  H3  1  0.95047701  0.04298179  0.71117148  1
  H  H4  1  0.71117148  0.95047701  0.04298179  1
  H  H5  1  0.04298179  0.71117148  0.95047701  1
  H  H6  1  0.78882852  0.45701821  0.54952299  1
  H  H7  1  0.54952299  0.78882852  0.45701821  1
  H  H8  1  0.45701821  0.54952299  0.78882852  1
  H  H9  1  0.04952299  0.95701821  0.28882852  1
  H  H10  1  0.28882852  0.04952299  0.95701821  1
  H  H11  1  0.95701821  0.28882852  0.04952299  1
  Os  Os0  1  0.50000000  0.50000000  0.50000000  1
  Os  Os1  1  -0.00000000  0.00000000  -0.00000000  1
loop_
_geom_bond_atom_site_label_1
_geom_bond_atom_site_label_2
_geom_bond_distance
_geom_bond_site_symmetry_2
H0 Os0 1.718808 1_555
H0 Li0 2.074922 1_555
H0 Li7 2.112414 1_555
H0 Li3 2.128860 1_555
H0 Li6 2.208520 1_555
H1 Os0 1.718808 1_555
H1 Li0 2.074922 1_555
H1 Li5 2.112414 1_555
H1 Li4 2.128860 1_555
H1 Li7 2.208520 1_555
H2 Os0 1.718808 1_555
H2 Li0 2.074922 1_555
H2 Li6 2.112414 1_555
H2 Li2 2.128860 1_555
H2 Li5 2.208520 1_555
H3 Os1 1.718808 1_656
H3 Li1 2.074922 1_545
H3 Li3 2.112414 1_645
H3 Li7 2.128860 1_655
H3 Li4 2.208520 1_555
H4 Os1 1.718808 1_665
H4 Li1 2.074922 1_554
H4 Li4 2.112414 1_564
H4 Li5 2.128860 1_565
H4 Li2 2.208520 1_555
H5 Os1 1.718808 1_566
H5 Li1 2.074922 1_455
H5 Li2 2.112414 1_456
H5 Li6 2.128860 1_556
H5 Li3 2.208520 1_555
H6 Os0 1.718808 1_555
H6 Li1 2.074922 1_555
H6 Li2 2.112414 1_555
H6 Li5 2.128860 1_555
H6 Li4 2.208520 1_555
H7 Os0 1.718808 1_555
H7 Li1 2.074922 1_555
H7 Li3 2.112414 1_555
H7 Li6 2.128860 1_555
H7 Li2 2.208520 1_555
H8 Os0 1.718808 1_555
H8 Li1 2.074922 1_555
H8 Li4 2.112414 1_555
H8 Li7 2.128860 1_555
H8 Li3 2.208520 1_555
H9 Os1 1.718808 1_565
H9 Li0 2.074922 1_565
H9 Li5 2.112414 1_465
H9 Li2 2.128860 1_455
H9 Li6 2.208520 1_555
H10 Os1 1.718808 1_556
H10 Li0 2.074922 1_556
H10 Li6 2.112414 1_546
H10 Li3 2.128860 1_545
H10 Li7 2.208520 1_555
H11 Os1 1.718808 1_655
H11 Li0 2.074922 1_655
H11 Li7 2.112414 1_654
H11 Li4 2.128860 1_554
H11 Li5 2.208520 1_555
