# generated using pymatgen
data_Sr4LaCl11
_symmetry_space_group_name_H-M   'P 1'
_cell_length_a   5.01770500
_cell_length_b   5.02469912
_cell_length_c   35.66858820
_cell_angle_alpha   90.53927789
_cell_angle_beta   90.00697150
_cell_angle_gamma   90.03826789
_symmetry_Int_Tables_number   1
_chemical_formula_structural   Sr4LaCl11
_chemical_formula_sum   'Sr8 La2 Cl22'
_cell_volume   899.25273710
_cell_formula_units_Z   2
loop_
 _symmetry_equiv_pos_site_id
 _symmetry_equiv_pos_as_xyz
  1  'x, y, z'
loop_
 _atom_site_type_symbol
 _atom_site_label
 _atom_site_symmetry_multiplicity
 _atom_site_fract_x
 _atom_site_fract_y
 _atom_site_fract_z
 _atom_site_occupancy
  Sr  Sr0  1  0.00265500  0.99717300  0.00081300  1
  Sr  Sr1  1  0.49784500  0.49750800  0.09993500  1
  Sr  Sr2  1  0.99966300  0.99947700  0.19962800  1
  Sr  Sr3  1  0.49773300  0.49942700  0.29966400  1
  Sr  Sr4  1  0.99671500  0.00045400  0.39966000  1
  Sr  Sr5  1  0.49926100  0.50266800  0.49978400  1
  Sr  Sr6  1  0.99875000  0.00275600  0.59960000  1
  Sr  Sr7  1  0.50562100  0.50121200  0.69891600  1
  La  La0  1  0.98720100  0.98158400  0.80265100  1
  La  La1  1  0.49508100  0.52357500  0.89729500  1
  Cl  Cl0  1  0.00103100  0.49950300  0.24967900  1
  Cl  Cl1  1  0.49745700  0.00008400  0.34958400  1
  Cl  Cl2  1  0.99890200  0.50123700  0.44965800  1
  Cl  Cl3  1  0.49717800  0.00368300  0.55003300  1
  Cl  Cl4  1  0.00347300  0.50017900  0.64869700  1
  Cl  Cl5  1  0.50256000  0.00229700  0.74696100  1
  Cl  Cl6  1  0.00697400  0.50287800  0.74653000  1
  Cl  Cl7  1  0.51747900  0.51222200  0.80313900  1
  Cl  Cl8  1  0.00744200  0.48662800  0.84982300  1
  Cl  Cl9  1  0.49926500  0.01003500  0.84986000  1
  Cl  Cl10  1  0.00251800  0.98019300  0.89663000  1
  Cl  Cl11  1  0.50254500  0.99577200  0.95312300  1
  Cl  Cl12  1  0.00550800  0.49493300  0.95299500  1
  Cl  Cl13  1  0.00060600  0.49985100  0.05077500  1
  Cl  Cl14  1  0.49985900  0.99879900  0.05061600  1
  Cl  Cl15  1  0.49583400  0.99857700  0.14954400  1
  Cl  Cl16  1  0.99728600  0.49837500  0.14968000  1
  Cl  Cl17  1  0.49987800  0.00136000  0.24947000  1
  Cl  Cl18  1  0.99766400  0.50092900  0.34971000  1
  Cl  Cl19  1  0.50081700  0.00301400  0.44989600  1
  Cl  Cl20  1  0.99647800  0.50334500  0.54961300  1
  Cl  Cl21  1  0.50205200  0.99993300  0.64921900  1
loop_
_geom_bond_atom_site_label_1
_geom_bond_atom_site_label_2
_geom_bond_distance
_geom_bond_site_symmetry_2
Cl0 Sr3 3.064184 1_555
Cl0 Sr2 3.068429 1_445
Cl0 Sr3 3.091516 1_455
Cl0 Sr2 3.095618 1_455
Cl1 Sr3 3.068328 1_545
Cl1 Sr4 3.076494 1_555
Cl1 Sr4 3.082916 1_455
Cl1 Sr3 3.090286 1_555
Cl2 Sr4 3.070449 1_555
Cl2 Sr5 3.079432 1_555
Cl2 Sr5 3.082004 1_655
Cl2 Sr4 3.091419 1_565
Cl3 Sr6 3.062978 1_455
Cl3 Sr6 3.075526 1_555
Cl3 Sr5 3.076548 1_545
Cl3 Sr5 3.095698 1_555
Cl4 Sr6 3.038397 1_455
Cl4 Sr7 3.074065 1_455
Cl4 Sr6 3.086711 1_465
Cl4 Sr7 3.091249 1_555
Cl5 Sr7 3.032351 1_545
Cl5 Sr7 3.049976 1_555
Cl5 La0 3.142163 1_545
Cl5 La0 3.263175 1_445
Cl6 Sr7 3.024151 1_555
Cl6 Sr7 3.035044 1_455
Cl6 La0 3.116461 1_455
Cl6 La0 3.313042 1_445
Cl7 La0 3.333291 1_555
Cl7 La1 3.360254 1_555
Cl7 La0 3.556860 1_455
Cl7 La0 3.559785 1_545
Cl8 La1 2.980106 1_555
Cl8 La0 3.017545 1_455
Cl8 La0 3.033224 1_445
Cl8 La1 3.083306 1_455
Cl9 La0 2.974406 1_545
Cl9 La1 2.985895 1_545
Cl9 La1 3.072357 1_555
Cl9 La0 3.074338 1_445
Cl10 La0 3.353043 1_455
Cl10 La1 3.373687 1_555
Cl10 La1 3.426500 1_455
Cl11 Sr0 3.030838 1_556
Cl11 Sr0 3.031401 1_656
Cl11 La1 3.083356 1_555
Cl11 La1 3.331607 1_565
Cl12 Sr0 3.032638 1_556
Cl12 Sr0 3.040561 1_546
Cl12 La1 3.163622 1_555
Cl12 La1 3.245318 1_455
Cl13 Sr1 3.049454 1_555
Cl13 Sr1 3.072501 1_455
Cl13 Sr0 3.077482 1_545
Cl13 Sr0 3.082882 1_555
Cl14 Sr1 3.048127 1_565
Cl14 Sr0 3.062423 1_555
Cl14 Sr0 3.085685 1_655
Cl14 Sr1 3.085869 1_555
Cl15 Sr1 3.063701 1_555
Cl15 Sr2 3.064407 1_455
Cl15 Sr1 3.082140 1_565
Cl15 Sr2 3.095349 1_555
Cl16 Sr1 3.070393 1_555
Cl16 Sr2 3.070736 1_555
Cl16 Sr1 3.075330 1_655
Cl16 Sr2 3.089072 1_545
Cl17 Sr3 3.063389 1_555
Cl17 Sr2 3.074145 1_545
Cl17 Sr2 3.075542 1_445
Cl17 Sr3 3.106643 1_545
Cl18 Sr4 3.064317 1_565
Cl18 Sr3 3.078598 1_555
Cl18 Sr3 3.079525 1_655
Cl18 Sr4 3.095563 1_555
Cl19 Sr5 3.063584 1_555
Cl19 Sr4 3.066441 1_555
Cl19 Sr5 3.093748 1_545
Cl19 Sr4 3.099572 1_455
Cl20 Sr5 3.063034 1_555
Cl20 Sr6 3.064616 1_565
Cl20 Sr5 3.086180 1_655
Cl20 Sr6 3.096826 1_555
Cl21 Sr6 3.057043 1_565
Cl21 Sr7 3.066370 1_565
Cl21 Sr7 3.083152 1_555
Cl21 Sr6 3.083783 1_465
