# generated using pymatgen
data_LaCO3F
_symmetry_space_group_name_H-M   'P 1'
_cell_length_a   7.29338279
_cell_length_b   7.29338279
_cell_length_c   4.97384200
_cell_angle_alpha   90.00000000
_cell_angle_beta   90.00000000
_cell_angle_gamma   120.00000714
_symmetry_Int_Tables_number   1
_chemical_formula_structural   LaCO3F
_chemical_formula_sum   'La3 C3 O9 F3'
_cell_volume   229.12928568
_cell_formula_units_Z   3
loop_
 _symmetry_equiv_pos_site_id
 _symmetry_equiv_pos_as_xyz
  1  'x, y, z'
loop_
 _atom_site_type_symbol
 _atom_site_label
 _atom_site_symmetry_multiplicity
 _atom_site_fract_x
 _atom_site_fract_y
 _atom_site_fract_z
 _atom_site_occupancy
  La  La0  1  0.67179600  0.67179600  0.00000000  1
  La  La1  1  0.32820400  0.00000000  0.00000000  1
  La  La2  1  0.00000000  0.32820400  0.00000000  1
  C  C0  1  0.59974600  0.00000000  0.50000000  1
  C  C1  1  0.00000000  0.59974600  0.50000000  1
  C  C2  1  0.40025400  0.40025400  0.50000000  1
  O  O0  1  0.00000000  0.68384900  0.27141600  1
  O  O1  1  0.31615100  0.31615100  0.72858400  1
  O  O2  1  0.68384900  0.00000000  0.27141600  1
  O  O3  1  0.42043000  0.00000000  0.50000000  1
  O  O4  1  0.00000000  0.68384900  0.72858400  1
  O  O5  1  0.68384900  0.00000000  0.72858400  1
  O  O6  1  0.31615100  0.31615100  0.27141600  1
  O  O7  1  0.57957000  0.57957000  0.50000000  1
  O  O8  1  0.00000000  0.42043000  0.50000000  1
  F  F0  1  0.00000000  0.00000000  0.00000000  1
  F  F1  1  0.66666700  0.33333300  0.00000000  1
  F  F2  1  0.33333300  0.66666700  0.00000000  1
loop_
_geom_bond_atom_site_label_1
_geom_bond_atom_site_label_2
_geom_bond_distance
_geom_bond_site_symmetry_2
La0 O7 2.576280 1_554
La0 O7 2.576280 1_555
La0 O4 2.711021 1_654
La0 O0 2.711021 1_655
La0 O2 2.711021 1_565
La0 O5 2.711021 1_564
La0 O6 2.924129 1_555
La0 O1 2.924129 1_554
La1 O3 2.576280 1_555
La1 O3 2.576280 1_554
La1 O0 2.711020 1_545
La1 O4 2.711020 1_544
La1 O6 2.711021 1_555
La1 O1 2.711021 1_554
La1 O2 2.924129 1_555
La1 O5 2.924129 1_554
La2 O8 2.576280 1_555
La2 O8 2.576280 1_554
La2 O5 2.711020 1_454
La2 O2 2.711020 1_455
La2 O6 2.711021 1_555
La2 O1 2.711021 1_554
La2 O0 2.924129 1_555
La2 O4 2.924129 1_554
C0 O5 1.291854 1_555
C0 O2 1.291854 1_555
C0 O3 1.307820 1_555
C1 O4 1.291854 1_555
C1 O0 1.291854 1_555
C1 O8 1.307820 1_555
C2 O6 1.291854 1_555
C2 O1 1.291854 1_555
C2 O7 1.307820 1_555
F0 La0 2.393717 1_445
F0 La2 2.393717 1_555
F0 La1 2.393717 1_555
F1 La2 2.450043 1_655
F1 La1 2.450047 1_555
F1 La0 2.450051 1_555
F2 La1 2.450043 1_565
F2 La2 2.450047 1_555
F2 La0 2.450051 1_555
