# generated using pymatgen
data_Sr3La7Ti3Mn7O30
_symmetry_space_group_name_H-M   'P 1'
_cell_length_a   5.57950800
_cell_length_b   7.93478450
_cell_length_c   14.83597884
_cell_angle_alpha   105.28693323
_cell_angle_beta   100.58058609
_cell_angle_gamma   90.79691718
_symmetry_Int_Tables_number   1
_chemical_formula_structural   Sr3La7Ti3Mn7O30
_chemical_formula_sum   'Sr3 La7 Ti3 Mn7 O30'
_cell_volume   621.46242159
_cell_formula_units_Z   1
loop_
 _symmetry_equiv_pos_site_id
 _symmetry_equiv_pos_as_xyz
  1  'x, y, z'
loop_
 _atom_site_type_symbol
 _atom_site_label
 _atom_site_symmetry_multiplicity
 _atom_site_fract_x
 _atom_site_fract_y
 _atom_site_fract_z
 _atom_site_occupancy
  Sr  Sr0  1  0.89998400  0.65257300  0.79802500  1
  Sr  Sr1  1  0.50009000  0.24743900  0.00053100  1
  Sr  Sr2  1  0.50181700  0.75377300  0.00100200  1
  La  La0  1  0.29915300  0.04946600  0.60129600  1
  La  La1  1  0.70012900  0.45116700  0.40104000  1
  La  La2  1  0.89787500  0.14663600  0.79895300  1
  La  La3  1  0.10059300  0.85297200  0.20005800  1
  La  La4  1  0.30057900  0.55308200  0.60045600  1
  La  La5  1  0.69849400  0.94917300  0.39853900  1
  La  La6  1  0.09910700  0.34774400  0.20020900  1
  Ti  Ti0  1  0.99694900  0.99906600  0.99714900  1
  Ti  Ti1  1  0.40298500  0.40136700  0.80239000  1
  Ti  Ti2  1  0.00370000  0.50086500  0.00173900  1
  Mn  Mn0  1  0.79932000  0.79980800  0.59900700  1
  Mn  Mn1  1  0.20004600  0.20073000  0.40074300  1
  Mn  Mn2  1  0.39675200  0.90083500  0.80068400  1
  Mn  Mn3  1  0.59766500  0.60130500  0.19999200  1
  Mn  Mn4  1  0.79831400  0.30167700  0.59947000  1
  Mn  Mn5  1  0.19890200  0.70077800  0.39966000  1
  Mn  Mn6  1  0.60229000  0.09901100  0.20010700  1
  O  O0  1  0.68397400  0.47784900  0.90889500  1
  O  O1  1  0.98783700  0.23974200  0.97727300  1
  O  O2  1  0.07555800  0.89050800  0.70799400  1
  O  O3  1  0.16816000  0.46409500  0.88842600  1
  O  O4  1  0.22273500  0.93470100  0.91440400  1
  O  O5  1  0.40537900  0.16751900  0.81858500  1
  O  O6  1  0.38800100  0.62642100  0.77303300  1
  O  O7  1  0.47298800  0.28906700  0.51295600  1
  O  O8  1  0.56571100  0.87389700  0.68634300  1
  O  O9  1  0.63417200  0.31672700  0.71190400  1
  O  O10  1  0.72825000  0.92642100  0.89272300  1
  O  O11  1  0.80848300  0.56011600  0.61816400  1
  O  O12  1  0.78524100  0.03590300  0.57278600  1
  O  O13  1  0.87577500  0.68786700  0.31403400  1
  O  O14  1  0.95944900  0.27479000  0.48747400  1
  O  O15  1  0.04234700  0.72463800  0.51271200  1
  O  O16  1  0.13039200  0.30992400  0.68749700  1
  O  O17  1  0.21247600  0.96324300  0.42541600  1
  O  O18  1  0.18626600  0.43699300  0.37421100  1
  O  O19  1  0.26863500  0.08436300  0.11442000  1
  O  O20  1  0.35914600  0.67686900  0.28911200  1
  O  O21  1  0.43990500  0.12523700  0.31270900  1
  O  O22  1  0.52602600  0.71105000  0.48565800  1
  O  O23  1  0.61321700  0.36298600  0.22658300  1
  O  O24  1  0.59085700  0.84127300  0.18192400  1
  O  O25  1  0.78243700  0.07392600  0.09259700  1
  O  O26  1  0.84601600  0.52565900  0.11095800  1
  O  O27  1  0.92631000  0.11290300  0.28840900  1
  O  O28  1  0.01104300  0.75994700  0.02349100  1
  O  O29  1  0.30847100  0.51589900  0.08825900  1
loop_
_geom_bond_atom_site_label_1
_geom_bond_atom_site_label_2
_geom_bond_distance
_geom_bond_site_symmetry_2
La0 O16 2.428162 1_555
La0 O8 2.457657 1_545
La0 O17 2.469148 1_545
La0 O2 2.717963 1_545
La0 O9 2.759047 1_555
La0 O15 2.800539 1_545
La0 O12 2.816799 1_455
La0 O12 2.819848 1_555
La0 O7 2.828842 1_555
La1 O22 2.431143 1_555
La1 O23 2.449166 1_555
La1 O14 2.453113 1_555
La2 O9 2.435307 1_555
La2 O2 2.456708 1_645
La2 O1 2.503618 1_555
La2 O10 2.757474 1_545
La2 O8 2.784641 1_545
La2 O3 2.788817 1_655
La2 O5 2.790878 1_655
La2 O5 2.818563 1_555
La2 O16 2.822554 1_655
La3 O27 2.452739 1_465
La3 O20 2.471610 1_555
La3 O28 2.479113 1_555
La3 O19 2.735687 1_565
La3 O24 2.797810 1_555
La3 O21 2.804450 1_565
La3 O24 2.805042 1_455
La3 O26 2.812067 1_455
La3 O13 2.837320 1_455
La3 O25 3.047600 1_465
La3 O29 3.115029 1_555
La3 O17 3.163763 1_555
La4 O6 2.424823 1_555
La4 O15 2.433872 1_555
La4 O7 2.465727 1_555
La4 O8 2.790103 1_555
La4 O11 2.795948 1_555
La4 O11 2.805740 1_455
La4 O22 2.814721 1_555
La4 O16 2.829304 1_555
La4 O14 2.840448 1_455
La5 O21 2.444230 1_565
La5 O12 2.446195 1_565
La5 O13 2.447644 1_555
La6 O18 2.442846 1_555
La6 O19 2.444728 1_555
La6 O26 2.468769 1_455
La6 O25 2.723872 1_455
La6 O29 2.782283 1_555
La6 O27 2.795206 1_455
La6 O23 2.809114 1_455
La6 O23 2.819419 1_555
La6 O20 2.835556 1_555
Mn0 O2 1.987021 1_655
Mn0 O8 1.990793 1_555
Mn0 O11 1.995754 1_555
Mn0 O12 2.011006 1_565
Mn0 O22 2.013210 1_555
Mn0 O15 2.022590 1_655
Mn1 O7 2.001486 1_555
Mn1 O27 2.004756 1_455
Mn1 O17 2.011923 1_545
Mn1 O18 2.014287 1_555
Mn1 O14 2.015109 1_455
Mn1 O21 2.026655 1_555
Mn2 O2 2.034910 1_555
Mn2 O8 2.052732 1_555
Mn2 O4 2.056975 1_555
Mn2 O10 2.059772 1_555
Mn2 O5 2.060771 1_565
Mn2 O6 2.104873 1_555
Mn3 O24 1.991553 1_555
Mn3 O23 2.030874 1_555
Mn3 O20 2.032018 1_555
Mn3 O13 2.033625 1_555
Mn3 O29 2.050768 1_555
Mn3 O26 2.074224 1_555
Mn4 O11 1.994097 1_555
Mn4 O14 1.995404 1_555
Mn4 O7 2.005961 1_555
Mn4 O9 2.023482 1_555
Mn4 O12 2.038191 1_555
Mn4 O16 2.050796 1_655
Mn5 O20 1.975960 1_555
Mn5 O13 1.989935 1_455
Mn5 O15 1.996786 1_555
Mn5 O22 2.012869 1_555
Mn5 O17 2.013540 1_555
Mn5 O18 2.024328 1_555
Mn6 O24 1.989572 1_545
Mn6 O25 2.005217 1_555
Mn6 O21 2.008168 1_555
Mn6 O27 2.011299 1_555
Mn6 O23 2.024625 1_555
Mn6 O19 2.035245 1_555
O0 Ti1 1.970053 1_555
O0 Ti2 2.017159 1_656
O0 Sr2 2.586130 1_556
O0 Sr0 2.822107 1_555
O0 Sr1 2.830920 1_556
O1 Ti2 2.004772 1_656
O1 Ti0 2.007655 1_545
O1 Sr1 2.804836 1_556
O1 Sr1 2.813095 1_656
O2 Sr0 2.840237 1_455
O3 Ti1 1.972548 1_555
O3 Ti2 2.017068 1_556
O3 Sr0 2.580160 1_455
O3 Sr2 2.872852 1_556
O3 Sr1 3.101058 1_556
O4 Ti0 1.900028 1_455
O4 Sr2 2.537010 1_556
O4 Sr1 2.771353 1_566
O4 Sr0 2.818389 1_455
O5 Ti1 1.932747 1_555
O5 Sr1 2.555791 1_556
O6 Ti1 1.945895 1_555
O6 Sr0 2.809760 1_555
O6 Sr0 2.817907 1_455
O9 Ti1 2.025262 1_555
O9 Sr0 2.886580 1_555
O10 Ti0 1.905832 1_555
O10 Sr0 2.560488 1_555
O10 Sr2 2.812658 1_556
O10 Sr1 3.058871 1_566
O11 Sr0 2.525136 1_555
O16 Ti1 2.027381 1_555
O19 Ti0 2.040823 1_444
O19 Sr1 2.846884 1_555
O23 Sr1 3.173560 1_555
O24 Sr2 2.539992 1_555
O25 Ti0 1.997304 1_544
O25 Sr1 2.550431 1_555
O25 Sr2 2.835340 1_545
O26 Ti2 1.949001 1_655
O26 Sr1 2.845343 1_555
O28 Ti2 1.993727 1_555
O28 Ti0 2.035374 1_454
O28 Sr2 2.797444 1_455
O28 Sr2 2.818246 1_555
O29 Ti2 1.914555 1_555
O29 Sr1 2.546978 1_555
O29 Sr2 2.854264 1_555
