# generated using pymatgen
data_MnSbSe2Br
_symmetry_space_group_name_H-M   'P 1'
_cell_length_a   3.93760200
_cell_length_b   10.72351600
_cell_length_c   27.55305000
_cell_angle_alpha   90.00000000
_cell_angle_beta   90.00000000
_cell_angle_gamma   90.00000000
_symmetry_Int_Tables_number   1
_chemical_formula_structural   MnSbSe2Br
_chemical_formula_sum   'Mn8 Sb8 Se16 Br8'
_cell_volume   1163.42582930
_cell_formula_units_Z   8
loop_
 _symmetry_equiv_pos_site_id
 _symmetry_equiv_pos_as_xyz
  1  'x, y, z'
loop_
 _atom_site_type_symbol
 _atom_site_label
 _atom_site_symmetry_multiplicity
 _atom_site_fract_x
 _atom_site_fract_y
 _atom_site_fract_z
 _atom_site_occupancy
  Mn  Mn0  1  0.50000000  0.50000000  0.50000000  1
  Mn  Mn1  1  0.50000000  0.56970800  0.24375300  1
  Mn  Mn2  1  0.50000000  0.06970800  0.25624700  1
  Mn  Mn3  1  0.50000000  0.93029200  0.74375300  1
  Mn  Mn4  1  0.50000000  0.50000000  0.00000000  1
  Mn  Mn5  1  0.50000000  0.43029200  0.75624700  1
  Mn  Mn6  1  0.50000000  0.00000000  0.50000000  1
  Mn  Mn7  1  0.50000000  0.00000000  0.00000000  1
  Sb  Sb0  1  0.50000000  0.14801800  0.14427800  1
  Sb  Sb1  1  0.00000000  0.32364500  0.39690300  1
  Sb  Sb2  1  0.50000000  0.35198200  0.64427800  1
  Sb  Sb3  1  0.00000000  0.67635500  0.60309700  1
  Sb  Sb4  1  0.00000000  0.17635500  0.89690300  1
  Sb  Sb5  1  0.50000000  0.64801800  0.35572200  1
  Sb  Sb6  1  0.00000000  0.82364500  0.10309700  1
  Sb  Sb7  1  0.50000000  0.85198200  0.85572200  1
  Se  Se0  1  0.50000000  0.76592200  0.03457900  1
  Se  Se1  1  0.00000000  0.78096800  0.78960000  1
  Se  Se2  1  0.00000000  0.28096800  0.71040000  1
  Se  Se3  1  0.50000000  0.26592200  0.46542100  1
  Se  Se4  1  0.50000000  0.73407800  0.53457900  1
  Se  Se5  1  0.50000000  0.08130900  0.81943000  1
  Se  Se6  1  0.00000000  0.55261800  0.43387800  1
  Se  Se7  1  0.00000000  0.44738200  0.56612200  1
  Se  Se8  1  0.50000000  0.91869100  0.18057000  1
  Se  Se9  1  0.00000000  0.94738200  0.93387800  1
  Se  Se10  1  0.50000000  0.23407800  0.96542100  1
  Se  Se11  1  0.00000000  0.71903200  0.28960000  1
  Se  Se12  1  0.50000000  0.58130900  0.68057000  1
  Se  Se13  1  0.50000000  0.41869100  0.31943000  1
  Se  Se14  1  0.00000000  0.21903200  0.21040000  1
  Se  Se15  1  0.00000000  0.05261800  0.06612200  1
  Br  Br0  1  0.50000000  0.08416200  0.58001400  1
  Br  Br1  1  0.00000000  0.55643100  0.18177000  1
  Br  Br2  1  0.00000000  0.44356900  0.81823000  1
  Br  Br3  1  0.50000000  0.91583800  0.41998600  1
  Br  Br4  1  0.00000000  0.94356900  0.68177000  1
  Br  Br5  1  0.50000000  0.41583800  0.08001400  1
  Br  Br6  1  0.50000000  0.58416200  0.91998600  1
  Br  Br7  1  0.00000000  0.05643100  0.31823000  1
loop_
_geom_bond_atom_site_label_1
_geom_bond_atom_site_label_2
_geom_bond_distance
_geom_bond_site_symmetry_2
Mn0 Se3 2.684873 1_555
Mn0 Se4 2.684873 1_555
Mn0 Se6 2.741120 1_555
Mn0 Se7 2.741120 1_555
Mn0 Se6 2.741120 1_655
Mn0 Se7 2.741120 1_655
Mn1 Se13 2.640140 1_555
Mn1 Se11 2.834785 1_555
Mn1 Se11 2.834785 1_655
Mn2 Se8 2.640140 1_545
Mn2 Se14 2.834785 1_655
Mn2 Se14 2.834785 1_555
Mn3 Se5 2.640140 1_565
Mn3 Se1 2.834785 1_655
Mn3 Se1 2.834785 1_555
Mn4 Se10 3.006572 1_554
Mn4 Se0 3.006572 1_555
Mn5 Se12 2.640140 1_555
Mn5 Se2 2.834785 1_655
Mn5 Se2 2.834785 1_555
Mn6 Se3 3.006572 1_555
Mn6 Se4 3.006572 1_545
Mn7 Se10 2.684873 1_554
Mn7 Se0 2.684873 1_545
Mn7 Se15 2.741120 1_655
Mn7 Se15 2.741120 1_555
Mn7 Se9 2.741120 1_544
Mn7 Se9 2.741120 1_644
Sb0 Se8 2.654719 1_545
Sb0 Se14 2.788418 1_655
Sb0 Se14 2.788418 1_555
Sb0 Se15 3.091932 1_655
Sb0 Se15 3.091932 1_555
Sb1 Se6 2.658358 1_555
Sb1 Se3 2.797038 1_555
Sb1 Se3 2.797038 1_455
Sb1 Se13 3.077595 1_455
Sb1 Se13 3.077595 1_555
Sb2 Se12 2.654719 1_555
Sb2 Se2 2.788418 1_655
Sb2 Se2 2.788418 1_555
Sb2 Se7 3.091932 1_555
Sb2 Se7 3.091932 1_655
Sb3 Se7 2.658358 1_555
Sb3 Se4 2.797038 1_555
Sb3 Se4 2.797038 1_455
Sb3 Se12 3.077595 1_455
Sb3 Se12 3.077595 1_555
Sb4 Se9 2.658358 1_545
Sb4 Se10 2.797038 1_455
Sb4 Se10 2.797038 1_555
Sb4 Se5 3.077595 1_555
Sb4 Se5 3.077595 1_455
Sb5 Se13 2.654719 1_555
Sb5 Se11 2.788418 1_655
Sb5 Se11 2.788418 1_555
Sb5 Se6 3.091932 1_655
Sb5 Se6 3.091932 1_555
Sb6 Se15 2.658358 1_565
Sb6 Se0 2.797038 1_455
Sb6 Se0 2.797038 1_555
Sb6 Se8 3.077595 1_455
Sb6 Se8 3.077595 1_555
Sb7 Se5 2.654719 1_565
Sb7 Se1 2.788418 1_655
Sb7 Se1 2.788418 1_555
Sb7 Se9 3.091932 1_655
Sb7 Se9 3.091932 1_555
Br0 Mn6 2.382209 1_555
Br1 Mn1 2.610192 1_555
Br1 Mn1 2.610192 1_455
Br2 Mn5 2.610192 1_455
Br2 Mn5 2.610192 1_555
Br3 Mn6 2.382209 1_565
Br4 Mn3 2.610192 1_455
Br4 Mn3 2.610192 1_555
Br5 Mn4 2.382209 1_555
Br6 Mn4 2.382209 1_556
Br7 Mn2 2.610192 1_555
Br7 Mn2 2.610192 1_455
