# generated using pymatgen
data_Ag9(SI)4
_symmetry_space_group_name_H-M   'P 1'
_cell_length_a   4.12861455
_cell_length_b   4.12861455
_cell_length_c   27.12509033
_cell_angle_alpha   89.04633398
_cell_angle_beta   89.04633398
_cell_angle_gamma   62.67108110
_symmetry_Int_Tables_number   1
_chemical_formula_structural   Ag9(SI)4
_chemical_formula_sum   'Ag9 S4 I4'
_cell_volume   410.67562231
_cell_formula_units_Z   1
loop_
 _symmetry_equiv_pos_site_id
 _symmetry_equiv_pos_as_xyz
  1  'x, y, z'
loop_
 _atom_site_type_symbol
 _atom_site_label
 _atom_site_symmetry_multiplicity
 _atom_site_fract_x
 _atom_site_fract_y
 _atom_site_fract_z
 _atom_site_occupancy
  Ag  Ag0  1  0.28933900  0.28933900  0.02730700  1
  Ag  Ag1  1  0.91664300  0.91664300  0.17246700  1
  Ag  Ag2  1  0.56176700  0.56176700  0.31102000  1
  Ag  Ag3  1  0.20794200  0.20794200  0.44921600  1
  Ag  Ag4  1  0.84144300  0.84144300  0.59286300  1
  Ag  Ag5  1  0.48284600  0.48284600  0.68205600  1
  Ag  Ag6  1  0.29736600  0.29736600  0.78275600  1
  Ag  Ag7  1  0.90831300  0.90831300  0.84003200  1
  Ag  Ag8  1  0.64717500  0.64717500  0.93821400  1
  S  S0  1  0.18162800  0.18162800  0.63252400  1
  S  S1  1  0.94899700  0.94899700  0.98805700  1
  S  S2  1  0.76074600  0.76074600  0.73849800  1
  S  S3  1  0.36501600  0.36501600  0.88210300  1
  I  I0  1  0.58328200  0.58328200  0.10871900  1
  I  I1  1  0.23441600  0.23441600  0.24366600  1
  I  I2  1  0.88842600  0.88842600  0.37866700  1
  I  I3  1  0.54090400  0.54090400  0.51308400  1
loop_
_geom_bond_atom_site_label_1
_geom_bond_atom_site_label_2
_geom_bond_distance
_geom_bond_site_symmetry_2
Ag0 S1 2.639071 1_544
Ag0 S1 2.639071 1_454
Ag0 S1 2.644777 1_444
Ag0 I0 3.058247 1_555
Ag0 I0 3.387260 1_455
Ag0 I0 3.387260 1_545
Ag1 I0 2.945552 1_555
Ag1 I0 2.983631 1_565
Ag1 I0 2.983631 1_655
Ag1 I1 2.986881 1_665
Ag1 I1 3.145605 1_565
Ag1 I1 3.145605 1_655
Ag2 I1 2.971959 1_555
Ag2 I2 2.973129 1_555
Ag2 I1 3.056767 1_655
Ag2 I1 3.056767 1_565
Ag2 I2 3.063349 1_545
Ag2 I2 3.063349 1_455
Ag3 I3 2.945238 1_555
Ag3 I2 2.984677 1_445
Ag3 I3 2.986571 1_455
Ag3 I3 2.986571 1_545
Ag3 I2 3.130079 1_545
Ag3 I2 3.130079 1_455
Ag4 S0 2.643959 1_565
Ag4 S0 2.643959 1_655
Ag4 S0 2.648469 1_665
Ag4 I3 3.058528 1_555
Ag4 I3 3.339647 1_565
Ag4 I3 3.339647 1_655
Ag5 S2 2.510455 1_555
Ag5 S0 2.535665 1_555
Ag5 S0 2.882226 1_565
Ag5 S0 2.882226 1_655
Ag5 S2 3.051907 1_455
Ag5 S2 3.051907 1_545
Ag6 S2 2.475875 1_545
Ag6 S2 2.475875 1_455
Ag6 S3 2.745848 1_555
Ag7 S3 2.447840 1_565
Ag7 S3 2.447840 1_655
Ag7 S2 2.963117 1_555
Ag8 S3 2.528778 1_555
Ag8 S1 2.543890 1_555
Ag8 S1 2.884060 1_455
Ag8 S1 2.884060 1_545
Ag8 S3 3.032466 1_565
Ag8 S3 3.032466 1_655
