# generated using pymatgen
data_Eu2SnS4
_symmetry_space_group_name_H-M   'P 1'
_cell_length_a   7.52073100
_cell_length_b   8.81738800
_cell_length_c   11.28408000
_cell_angle_alpha   90.00000000
_cell_angle_beta   90.00000000
_cell_angle_gamma   90.00000000
_symmetry_Int_Tables_number   1
_chemical_formula_structural   Eu2SnS4
_chemical_formula_sum   'Eu8 Sn4 S16'
_cell_volume   748.28349076
_cell_formula_units_Z   4
loop_
 _symmetry_equiv_pos_site_id
 _symmetry_equiv_pos_as_xyz
  1  'x, y, z'
loop_
 _atom_site_type_symbol
 _atom_site_label
 _atom_site_symmetry_multiplicity
 _atom_site_fract_x
 _atom_site_fract_y
 _atom_site_fract_z
 _atom_site_occupancy
  Eu  Eu0  1  0.88044700  0.99486500  0.31037700  1
  Eu  Eu1  1  0.61955300  0.50513500  0.81037700  1
  Eu  Eu2  1  0.11955300  0.49486500  0.68962300  1
  Eu  Eu3  1  0.38044700  0.00513500  0.18962300  1
  Eu  Eu4  1  0.11955300  0.00513500  0.68962300  1
  Eu  Eu5  1  0.38044700  0.49486500  0.18962300  1
  Eu  Eu6  1  0.88044700  0.50513500  0.31037700  1
  Eu  Eu7  1  0.61955300  0.99486500  0.81037700  1
  Sn  Sn0  1  0.89032500  0.25000000  0.03013100  1
  Sn  Sn1  1  0.60967500  0.25000000  0.53013100  1
  Sn  Sn2  1  0.10967500  0.75000000  0.96986900  1
  Sn  Sn3  1  0.39032500  0.75000000  0.46986900  1
  S  S0  1  0.10339500  0.25000000  0.19835500  1
  S  S1  1  0.39660500  0.25000000  0.69835500  1
  S  S2  1  0.89660500  0.75000000  0.80164500  1
  S  S3  1  0.60339500  0.75000000  0.30164500  1
  S  S4  1  0.90135300  0.25000000  0.81112400  1
  S  S5  1  0.59864700  0.25000000  0.31112400  1
  S  S6  1  0.09864700  0.75000000  0.18887600  1
  S  S7  1  0.40135300  0.75000000  0.68887600  1
  S  S8  1  0.72597900  0.01446300  0.06357200  1
  S  S9  1  0.77402100  0.48553700  0.56357200  1
  S  S10  1  0.27402100  0.51446300  0.93642800  1
  S  S11  1  0.22597900  0.98553700  0.43642800  1
  S  S12  1  0.27402100  0.98553700  0.93642800  1
  S  S13  1  0.22597900  0.51446300  0.43642800  1
  S  S14  1  0.72597900  0.48553700  0.06357200  1
  S  S15  1  0.77402100  0.01446300  0.56357200  1
loop_
_geom_bond_atom_site_label_1
_geom_bond_atom_site_label_2
_geom_bond_distance
_geom_bond_site_symmetry_2
Eu0 S11 2.963596 1_655
Eu0 S15 2.972098 1_565
Eu0 S3 3.002136 1_555
Eu0 S8 3.022496 1_565
Eu0 S6 3.038792 1_655
Eu0 S0 3.077353 1_665
Eu0 S5 3.090710 1_565
Eu1 S10 2.963596 1_555
Eu1 S14 2.972098 1_556
Eu1 S2 3.002136 1_555
Eu1 S9 3.022496 1_555
Eu1 S7 3.038792 1_555
Eu1 S1 3.077353 1_555
Eu1 S4 3.090710 1_555
Eu2 S9 2.963596 1_455
Eu2 S13 2.972098 1_555
Eu2 S1 3.002136 1_555
Eu2 S10 3.022496 1_555
Eu2 S4 3.038792 1_455
Eu2 S2 3.077353 1_455
Eu2 S7 3.090710 1_555
Eu3 S8 2.963596 1_555
Eu3 S12 2.972098 1_544
Eu3 S0 3.002136 1_555
Eu3 S11 3.022496 1_545
Eu3 S5 3.038792 1_555
Eu3 S3 3.077353 1_545
Eu3 S6 3.090710 1_545
Eu4 S15 2.963596 1_455
Eu4 S11 2.972098 1_545
Eu4 S1 3.002136 1_555
Eu4 S12 3.022496 1_545
Eu4 S4 3.038792 1_455
Eu4 S2 3.077353 1_445
Eu4 S7 3.090710 1_545
Eu5 S14 2.963596 1_555
Eu5 S10 2.972098 1_554
Eu5 S0 3.002136 1_555
Eu5 S13 3.022496 1_555
Eu5 S5 3.038792 1_555
Eu5 S3 3.077353 1_555
Eu5 S6 3.090710 1_555
Eu6 S13 2.963596 1_655
Eu6 S9 2.972098 1_555
Eu6 S3 3.002136 1_555
Eu6 S14 3.022496 1_555
Eu6 S6 3.038792 1_655
Eu6 S0 3.077353 1_655
Eu6 S5 3.090710 1_555
Eu7 S12 2.963596 1_555
Eu7 S8 2.972098 1_566
Eu7 S2 3.002136 1_555
Eu7 S15 3.022496 1_565
Eu7 S7 3.038792 1_555
Eu7 S1 3.077353 1_565
Eu7 S4 3.090710 1_565
S0 Sn0 2.484187 1_455
S1 Sn1 2.484187 1_555
S2 Sn2 2.484187 1_655
S3 Sn3 2.484187 1_555
S4 Sn0 2.472684 1_556
S5 Sn1 2.472684 1_555
S6 Sn2 2.472684 1_554
S7 Sn3 2.472684 1_555
S8 Sn0 2.446075 1_555
S9 Sn1 2.446075 1_555
S10 Sn2 2.446075 1_555
S11 Sn3 2.446075 1_555
S12 Sn2 2.446075 1_555
S13 Sn3 2.446075 1_555
S14 Sn0 2.446075 1_555
S15 Sn1 2.446075 1_555
