# generated using pymatgen
data_Sb2Te(SeF5)2
_symmetry_space_group_name_H-M   'P 1'
_cell_length_a   15.60949402
_cell_length_b   17.59037016
_cell_length_c   17.69492763
_cell_angle_alpha   90.00000000
_cell_angle_beta   90.00000000
_cell_angle_gamma   90.00000000
_symmetry_Int_Tables_number   1
_chemical_formula_structural   Sb2Te(SeF5)2
_chemical_formula_sum   'Sb32 Te16 Se32 F160'
_cell_volume   4858.61621244
_cell_formula_units_Z   16
loop_
 _symmetry_equiv_pos_site_id
 _symmetry_equiv_pos_as_xyz
  1  'x, y, z'
loop_
 _atom_site_type_symbol
 _atom_site_label
 _atom_site_symmetry_multiplicity
 _atom_site_fract_x
 _atom_site_fract_y
 _atom_site_fract_z
 _atom_site_occupancy
  F  F0  1  0.22398372  0.96561522  0.40411017  1
  F  F1  1  0.72398372  0.53438478  0.59588983  1
  F  F2  1  0.77601628  0.46561522  0.09588983  1
  F  F3  1  0.27601628  0.03438478  0.90411017  1
  F  F4  1  0.77601628  0.03438478  0.59588983  1
  F  F5  1  0.27601628  0.46561522  0.40411017  1
  F  F6  1  0.22398372  0.53438478  0.90411017  1
  F  F7  1  0.72398372  0.96561522  0.09588983  1
  F  F8  1  0.23489605  0.97107477  0.18213243  1
  F  F9  1  0.73489605  0.52892523  0.81786757  1
  F  F10  1  0.76510395  0.47107477  0.31786757  1
  F  F11  1  0.26510395  0.02892523  0.68213243  1
  F  F12  1  0.76510395  0.02892523  0.81786757  1
  F  F13  1  0.26510395  0.47107477  0.18213243  1
  F  F14  1  0.23489605  0.52892523  0.68213243  1
  F  F15  1  0.73489605  0.97107477  0.31786757  1
  F  F16  1  0.24909668  0.86174118  0.29028001  1
  F  F17  1  0.74909668  0.63825882  0.70971999  1
  F  F18  1  0.75090332  0.36174118  0.20971999  1
  F  F19  1  0.25090332  0.13825882  0.79028001  1
  F  F20  1  0.75090332  0.13825882  0.70971999  1
  F  F21  1  0.25090332  0.36174118  0.29028001  1
  F  F22  1  0.24909668  0.63825882  0.79028001  1
  F  F23  1  0.74909668  0.86174118  0.20971999  1
  F  F24  1  0.34863812  0.98778396  0.29368617  1
  F  F25  1  0.84863812  0.51221604  0.70631383  1
  F  F26  1  0.65136188  0.48778396  0.20631383  1
  F  F27  1  0.15136188  0.01221604  0.79368617  1
  F  F28  1  0.65136188  0.01221604  0.70631383  1
  F  F29  1  0.15136188  0.48778396  0.29368617  1
  F  F30  1  0.34863812  0.51221604  0.79368617  1
  F  F31  1  0.84863812  0.98778396  0.20631383  1
  F  F32  1  0.10846991  0.94962583  0.28158991  1
  F  F33  1  0.60846991  0.55037417  0.71841009  1
  F  F34  1  0.89153009  0.44962583  0.21841009  1
  F  F35  1  0.39153009  0.05037417  0.78158991  1
  F  F36  1  0.89153009  0.05037417  0.71841009  1
  F  F37  1  0.39153009  0.44962583  0.28158991  1
  F  F38  1  0.10846991  0.55037417  0.78158991  1
  F  F39  1  0.60846991  0.94962583  0.21841009  1
  F  F40  1  0.20418302  0.07508748  0.29479832  1
  F  F41  1  0.70418302  0.42491252  0.70520168  1
  F  F42  1  0.79581698  0.57508748  0.20520168  1
  F  F43  1  0.29581698  0.92491252  0.79479832  1
  F  F44  1  0.79581698  0.92491252  0.70520168  1
  F  F45  1  0.29581698  0.57508748  0.29479832  1
  F  F46  1  0.20418302  0.42491252  0.79479832  1
  F  F47  1  0.70418302  0.07508748  0.20520168  1
  F  F48  1  0.33314770  0.09482034  0.14479831  1
  F  F49  1  0.83314770  0.40517966  0.85520169  1
  F  F50  1  0.66685230  0.59482034  0.35520169  1
  F  F51  1  0.16685230  0.90517966  0.64479831  1
  F  F52  1  0.66685230  0.90517966  0.85520169  1
  F  F53  1  0.16685230  0.59482034  0.14479831  1
  F  F54  1  0.33314770  0.40517966  0.64479831  1
  F  F55  1  0.83314770  0.09482034  0.35520169  1
  F  F56  1  0.15652506  0.10776299  0.13730091  1
  F  F57  1  0.65652506  0.39223701  0.86269909  1
  F  F58  1  0.84347494  0.60776299  0.36269909  1
  F  F59  1  0.34347494  0.89223701  0.63730091  1
  F  F60  1  0.84347494  0.89223701  0.86269909  1
  F  F61  1  0.34347494  0.60776299  0.13730091  1
  F  F62  1  0.15652506  0.39223701  0.63730091  1
  F  F63  1  0.65652506  0.10776299  0.36269909  1
  F  F64  1  0.26395962  0.38246013  0.03852229  1
  F  F65  1  0.76395962  0.11753987  0.96147771  1
  F  F66  1  0.73604038  0.88246013  0.46147771  1
  F  F67  1  0.23604038  0.61753987  0.53852229  1
  F  F68  1  0.73604038  0.61753987  0.96147771  1
  F  F69  1  0.23604038  0.88246013  0.03852229  1
  F  F70  1  0.26395962  0.11753987  0.53852229  1
  F  F71  1  0.76395962  0.38246013  0.46147771  1
  F  F72  1  0.25882419  0.16172274  0.01976897  1
  F  F73  1  0.75882419  0.33827726  0.98023103  1
  F  F74  1  0.74117581  0.66172274  0.48023103  1
  F  F75  1  0.24117581  0.83827726  0.51976897  1
  F  F76  1  0.74117581  0.83827726  0.98023103  1
  F  F77  1  0.24117581  0.66172274  0.01976897  1
  F  F78  1  0.25882419  0.33827726  0.51976897  1
  F  F79  1  0.75882419  0.16172274  0.48023103  1
  F  F80  1  0.25525383  0.27812388  0.92350573  1
  F  F81  1  0.75525383  0.22187612  0.07649427  1
  F  F82  1  0.74474617  0.77812388  0.57649427  1
  F  F83  1  0.24474617  0.72187612  0.42350573  1
  F  F84  1  0.74474617  0.72187612  0.07649427  1
  F  F85  1  0.24474617  0.77812388  0.92350573  1
  F  F86  1  0.25525383  0.22187612  0.42350573  1
  F  F87  1  0.75525383  0.27812388  0.57649427  1
  F  F88  1  0.26741742  0.26206342  0.13785127  1
  F  F89  1  0.76741742  0.23793658  0.86214873  1
  F  F90  1  0.73258258  0.76206342  0.36214873  1
  F  F91  1  0.23258258  0.73793658  0.63785127  1
  F  F92  1  0.73258258  0.73793658  0.86214873  1
  F  F93  1  0.23258258  0.76206342  0.13785127  1
  F  F94  1  0.26741742  0.23793658  0.63785127  1
  F  F95  1  0.76741742  0.26206342  0.36214873  1
  F  F96  1  0.38491232  0.26892301  0.02477880  1
  F  F97  1  0.88491232  0.23107699  0.97522120  1
  F  F98  1  0.61508768  0.76892301  0.47522120  1
  F  F99  1  0.11508768  0.73107699  0.52477880  1
  F  F100  1  0.61508768  0.73107699  0.97522120  1
  F  F101  1  0.11508768  0.76892301  0.02477880  1
  F  F102  1  0.38491232  0.23107699  0.52477880  1
  F  F103  1  0.88491232  0.26892301  0.47522120  1
  F  F104  1  0.13880270  0.27195971  0.03654291  1
  F  F105  1  0.63880270  0.22804029  0.96345709  1
  F  F106  1  0.86119730  0.77195971  0.46345709  1
  F  F107  1  0.36119730  0.72804029  0.53654291  1
  F  F108  1  0.86119730  0.72804029  0.96345709  1
  F  F109  1  0.36119730  0.77195971  0.03654291  1
  F  F110  1  0.13880270  0.22804029  0.53654291  1
  F  F111  1  0.63880270  0.27195971  0.46345709  1
  F  F112  1  0.05418723  0.92883008  0.93242855  1
  F  F113  1  0.55418723  0.57116992  0.06757145  1
  F  F114  1  0.94581277  0.42883008  0.56757145  1
  F  F115  1  0.44581277  0.07116992  0.43242855  1
  F  F116  1  0.94581277  0.07116992  0.06757145  1
  F  F117  1  0.44581277  0.42883008  0.93242855  1
  F  F118  1  0.05418723  0.57116992  0.43242855  1
  F  F119  1  0.55418723  0.92883008  0.56757145  1
  F  F120  1  0.91233384  0.92601259  0.02059692  1
  F  F121  1  0.41233384  0.57398741  0.97940308  1
  F  F122  1  0.08766616  0.42601259  0.47940308  1
  F  F123  1  0.58766616  0.07398741  0.52059692  1
  F  F124  1  0.08766616  0.07398741  0.97940308  1
  F  F125  1  0.58766616  0.42601259  0.02059692  1
  F  F126  1  0.91233384  0.57398741  0.52059692  1
  F  F127  1  0.41233384  0.92601259  0.47940308  1
  F  F128  1  0.93094391  0.03675368  0.91765661  1
  F  F129  1  0.43094391  0.46324632  0.08234339  1
  F  F130  1  0.06905609  0.53675368  0.58234339  1
  F  F131  1  0.56905609  0.96324632  0.41765661  1
  F  F132  1  0.06905609  0.96324632  0.08234339  1
  F  F133  1  0.56905609  0.53675368  0.91765661  1
  F  F134  1  0.93094391  0.46324632  0.41765661  1
  F  F135  1  0.43094391  0.03675368  0.58234339  1
  F  F136  1  0.89284871  0.97198025  0.45231705  1
  F  F137  1  0.39284871  0.52801975  0.54768295  1
  F  F138  1  0.10715129  0.47198025  0.04768295  1
  F  F139  1  0.60715129  0.02801975  0.95231705  1
  F  F140  1  0.10715129  0.02801975  0.54768295  1
  F  F141  1  0.60715129  0.47198025  0.45231705  1
  F  F142  1  0.89284871  0.52801975  0.95231705  1
  F  F143  1  0.39284871  0.97198025  0.04768295  1
  F  F144  1  0.03846083  0.04224643  0.40556403  1
  F  F145  1  0.53846083  0.45775357  0.59443597  1
  F  F146  1  0.96153917  0.54224643  0.09443597  1
  F  F147  1  0.46153917  0.95775357  0.90556403  1
  F  F148  1  0.96153917  0.95775357  0.59443597  1
  F  F149  1  0.46153917  0.54224643  0.40556403  1
  F  F150  1  0.03846083  0.45775357  0.90556403  1
  F  F151  1  0.53846083  0.04224643  0.09443597  1
  F  F152  1  0.95276461  0.09680071  0.52635677  1
  F  F153  1  0.45276461  0.40319929  0.47364323  1
  F  F154  1  0.04723539  0.59680071  0.97364323  1
  F  F155  1  0.54723539  0.90319929  0.02635677  1
  F  F156  1  0.04723539  0.90319929  0.47364323  1
  F  F157  1  0.54723539  0.59680071  0.52635677  1
  F  F158  1  0.95276461  0.40319929  0.02635677  1
  F  F159  1  0.45276461  0.09680071  0.97364323  1
  Se  Se0  1  0.86825897  0.20474645  0.21902223  1
  Se  Se1  1  0.36825897  0.29525355  0.78097777  1
  Se  Se2  1  0.13174103  0.70474645  0.28097777  1
  Se  Se3  1  0.63174103  0.79525355  0.71902223  1
  Se  Se4  1  0.13174103  0.79525355  0.78097777  1
  Se  Se5  1  0.63174103  0.70474645  0.21902223  1
  Se  Se6  1  0.86825897  0.29525355  0.71902223  1
  Se  Se7  1  0.36825897  0.20474645  0.28097777  1
  Se  Se8  1  0.00135222  0.32346591  0.31388680  1
  Se  Se9  1  0.50135222  0.17653409  0.68611320  1
  Se  Se10  1  0.99864778  0.82346591  0.18611320  1
  Se  Se11  1  0.49864778  0.67653409  0.81388680  1
  Se  Se12  1  0.99864778  0.67653409  0.68611320  1
  Se  Se13  1  0.49864778  0.82346591  0.31388680  1
  Se  Se14  1  0.00135222  0.17653409  0.81388680  1
  Se  Se15  1  0.50135222  0.32346591  0.18611320  1
  Se  Se16  1  0.07347331  0.21312107  0.34687626  1
  Se  Se17  1  0.57347331  0.28687893  0.65312374  1
  Se  Se18  1  0.92652669  0.71312107  0.15312374  1
  Se  Se19  1  0.42652669  0.78687893  0.84687626  1
  Se  Se20  1  0.92652669  0.78687893  0.65312374  1
  Se  Se21  1  0.42652669  0.71312107  0.34687626  1
  Se  Se22  1  0.07347331  0.28687893  0.84687626  1
  Se  Se23  1  0.57347331  0.21312107  0.15312374  1
  Se  Se24  1  0.06628634  0.33851047  0.19606901  1
  Se  Se25  1  0.56628634  0.16148953  0.80393099  1
  Se  Se26  1  0.93371366  0.83851047  0.30393099  1
  Se  Se27  1  0.43371366  0.66148953  0.69606901  1
  Se  Se28  1  0.93371366  0.66148953  0.80393099  1
  Se  Se29  1  0.43371366  0.83851047  0.19606901  1
  Se  Se30  1  0.06628634  0.16148953  0.69606901  1
  Se  Se31  1  0.56628634  0.33851047  0.30393099  1
  Sb  Sb0  1  0.22799626  0.96836760  0.29670476  1
  Sb  Sb1  1  0.72799626  0.53163240  0.70329524  1
  Sb  Sb2  1  0.77200374  0.46836760  0.20329524  1
  Sb  Sb3  1  0.27200374  0.03163240  0.79670476  1
  Sb  Sb4  1  0.77200374  0.03163240  0.70329524  1
  Sb  Sb5  1  0.27200374  0.46836760  0.29670476  1
  Sb  Sb6  1  0.22799626  0.53163240  0.79670476  1
  Sb  Sb7  1  0.72799626  0.96836760  0.20329524  1
  Sb  Sb8  1  0.24322238  0.04975679  0.08344705  1
  Sb  Sb9  1  0.74322238  0.45024321  0.91655295  1
  Sb  Sb10  1  0.75677762  0.54975679  0.41655295  1
  Sb  Sb11  1  0.25677762  0.95024321  0.58344705  1
  Sb  Sb12  1  0.75677762  0.95024321  0.91655295  1
  Sb  Sb13  1  0.25677762  0.54975679  0.08344705  1
  Sb  Sb14  1  0.24322238  0.45024321  0.58344705  1
  Sb  Sb15  1  0.74322238  0.04975679  0.41655295  1
  Sb  Sb16  1  0.26252629  0.27449214  0.03109772  1
  Sb  Sb17  1  0.76252629  0.22550786  0.96890228  1
  Sb  Sb18  1  0.73747371  0.77449214  0.46890228  1
  Sb  Sb19  1  0.23747371  0.72550786  0.53109772  1
  Sb  Sb20  1  0.73747371  0.72550786  0.96890228  1
  Sb  Sb21  1  0.23747371  0.77449214  0.03109772  1
  Sb  Sb22  1  0.26252629  0.22550786  0.53109772  1
  Sb  Sb23  1  0.76252629  0.27449214  0.46890228  1
  Sb  Sb24  1  0.50000000  0.00000000  0.50000000  1
  Sb  Sb25  1  0.00000000  0.50000000  0.50000000  1
  Sb  Sb26  1  0.50000000  0.50000000  0.00000000  1
  Sb  Sb27  1  0.00000000  0.00000000  0.00000000  1
  Sb  Sb28  1  0.00000000  0.50000000  0.00000000  1
  Sb  Sb29  1  0.50000000  0.00000000  0.00000000  1
  Sb  Sb30  1  0.00000000  0.00000000  0.50000000  1
  Sb  Sb31  1  0.50000000  0.50000000  0.50000000  1
  Te  Te0  1  0.99464564  0.12219938  0.25429867  1
  Te  Te1  1  0.49464564  0.37780062  0.74570133  1
  Te  Te2  1  0.00535436  0.62219938  0.24570133  1
  Te  Te3  1  0.50535436  0.87780062  0.75429867  1
  Te  Te4  1  0.00535436  0.87780062  0.74570133  1
  Te  Te5  1  0.50535436  0.62219938  0.25429867  1
  Te  Te6  1  0.99464564  0.37780062  0.75429867  1
  Te  Te7  1  0.49464564  0.12219938  0.24570133  1
  Te  Te8  1  0.99269630  0.22613913  0.12833894  1
  Te  Te9  1  0.49269630  0.27386087  0.87166106  1
  Te  Te10  1  0.00730370  0.72613913  0.37166106  1
  Te  Te11  1  0.50730370  0.77386087  0.62833894  1
  Te  Te12  1  0.00730370  0.77386087  0.87166106  1
  Te  Te13  1  0.50730370  0.72613913  0.12833894  1
  Te  Te14  1  0.99269630  0.27386087  0.62833894  1
  Te  Te15  1  0.49269630  0.22613913  0.37166106  1
loop_
_geom_bond_atom_site_label_1
_geom_bond_atom_site_label_2
_geom_bond_distance
_geom_bond_site_symmetry_2
F0 Sb0 1.902179 1_555
F1 Sb1 1.902179 1_555
F2 Sb2 1.902179 1_555
F3 Sb3 1.902179 1_555
F4 Sb4 1.902179 1_555
F5 Sb5 1.902179 1_555
F6 Sb6 1.902179 1_555
F7 Sb7 1.902179 1_555
F8 Sb0 2.030766 1_555
F8 Sb8 2.231994 1_565
F9 Sb1 2.030766 1_555
F9 Sb9 2.231994 1_555
F10 Sb2 2.030766 1_555
F10 Sb10 2.231994 1_555
F11 Sb3 2.030766 1_555
F11 Sb11 2.231994 1_545
F12 Sb4 2.030766 1_555
F12 Sb12 2.231994 1_545
F13 Sb5 2.030766 1_555
F13 Sb13 2.231994 1_555
F14 Sb6 2.030766 1_555
F14 Sb14 2.231994 1_555
F15 Sb7 2.030766 1_555
F15 Sb15 2.231994 1_565
F16 Sb0 1.907689 1_555
F17 Sb1 1.907689 1_555
F18 Sb2 1.907689 1_555
F19 Sb3 1.907689 1_555
F20 Sb4 1.907689 1_555
F21 Sb5 1.907689 1_555
F22 Sb6 1.907689 1_555
F23 Sb7 1.907689 1_555
F24 Sb0 1.914625 1_555
F25 Sb1 1.914625 1_555
F26 Sb2 1.914625 1_555
F27 Sb3 1.914625 1_555
F28 Sb4 1.914625 1_555
F29 Sb5 1.914625 1_555
F30 Sb6 1.914625 1_555
F31 Sb7 1.914625 1_555
F32 Sb0 1.913433 1_555
F33 Sb1 1.913433 1_555
F34 Sb2 1.913433 1_555
F35 Sb3 1.913433 1_555
F36 Sb4 1.913433 1_555
F37 Sb5 1.913433 1_555
F38 Sb6 1.913433 1_555
F39 Sb7 1.913433 1_555
F40 Sb0 1.913987 1_545
F41 Sb1 1.913987 1_555
F42 Sb2 1.913987 1_555
F43 Sb3 1.913987 1_565
F44 Sb4 1.913987 1_565
F45 Sb5 1.913987 1_555
F46 Sb6 1.913987 1_555
F47 Sb7 1.913987 1_545
F48 Sb8 1.943510 1_555
F49 Sb9 1.943510 1_555
F50 Sb10 1.943510 1_555
F51 Sb11 1.943510 1_555
F52 Sb12 1.943510 1_555
F53 Sb13 1.943510 1_555
F54 Sb14 1.943510 1_555
F55 Sb15 1.943510 1_555
F56 Sb8 1.944385 1_555
F57 Sb9 1.944385 1_555
F58 Sb10 1.944385 1_555
F59 Sb11 1.944385 1_555
F60 Sb12 1.944385 1_555
F61 Sb13 1.944385 1_555
F62 Sb14 1.944385 1_555
F63 Sb15 1.944385 1_555
F64 Sb16 1.903867 1_555
F65 Sb17 1.903867 1_555
F66 Sb18 1.903867 1_555
F67 Sb19 1.903867 1_555
F68 Sb20 1.903867 1_555
F69 Sb21 1.903867 1_555
F70 Sb22 1.903867 1_555
F71 Sb23 1.903867 1_555
F72 Sb16 1.994596 1_555
F72 Sb8 2.282095 1_555
F73 Sb17 1.994596 1_555
F73 Sb9 2.282095 1_555
F74 Sb18 1.994596 1_555
F74 Sb10 2.282095 1_555
F75 Sb19 1.994596 1_555
F75 Sb11 2.282095 1_555
F76 Sb20 1.994596 1_555
F76 Sb12 2.282095 1_555
F77 Sb21 1.994596 1_555
F77 Sb13 2.282095 1_555
F78 Sb22 1.994596 1_555
F78 Sb14 2.282095 1_555
F79 Sb23 1.994596 1_555
F79 Sb15 2.282095 1_555
F80 Sb16 1.908283 1_556
F81 Sb17 1.908283 1_554
F82 Sb18 1.908283 1_555
F83 Sb19 1.908283 1_555
F84 Sb20 1.908283 1_554
F85 Sb21 1.908283 1_556
F86 Sb22 1.908283 1_555
F87 Sb23 1.908283 1_555
F88 Sb16 1.903138 1_555
F89 Sb17 1.903138 1_555
F90 Sb18 1.903138 1_555
F91 Sb19 1.903138 1_555
F92 Sb20 1.903138 1_555
F93 Sb21 1.903138 1_555
F94 Sb22 1.903138 1_555
F95 Sb23 1.903138 1_555
F96 Sb16 1.916159 1_555
F97 Sb17 1.916159 1_555
F98 Sb18 1.916159 1_555
F99 Sb19 1.916159 1_555
F100 Sb20 1.916159 1_555
F101 Sb21 1.916159 1_555
F102 Sb22 1.916159 1_555
F103 Sb23 1.916159 1_555
F104 Sb16 1.934178 1_555
F105 Sb17 1.934178 1_555
F106 Sb18 1.934178 1_555
F107 Sb19 1.934178 1_555
F108 Sb20 1.934178 1_555
F109 Sb21 1.934178 1_555
F110 Sb22 1.934178 1_555
F111 Sb23 1.934178 1_555
F112 Sb27 1.926742 1_566
F113 Sb26 1.926742 1_555
F114 Sb25 1.926742 1_655
F115 Sb24 1.926742 1_555
F116 Sb27 1.926742 1_655
F117 Sb26 1.926742 1_556
F118 Sb25 1.926742 1_555
F119 Sb24 1.926742 1_565
F120 Sb27 1.923338 1_665
F121 Sb26 1.923338 1_556
F122 Sb25 1.923338 1_555
F123 Sb24 1.923338 1_555
F124 Sb27 1.923338 1_556
F125 Sb26 1.923338 1_555
F126 Sb25 1.923338 1_655
F127 Sb24 1.923338 1_565
F128 Sb27 1.924301 1_656
F129 Sb26 1.924301 1_555
F130 Sb25 1.924301 1_555
F131 Sb24 1.924301 1_565
F132 Sb27 1.924301 1_565
F133 Sb26 1.924301 1_556
F134 Sb25 1.924301 1_655
F135 Sb24 1.924301 1_555
F136 Sb30 1.937099 1_665
F137 Sb31 1.937099 1_555
F138 Sb28 1.937099 1_555
F139 Sb29 1.937099 1_556
F140 Sb30 1.937099 1_555
F141 Sb31 1.937099 1_555
F142 Sb28 1.937099 1_656
F143 Sb29 1.937099 1_565
F144 Sb30 1.924847 1_555
F145 Sb31 1.924847 1_555
F146 Sb28 1.924847 1_655
F147 Sb29 1.924847 1_566
F148 Sb30 1.924847 1_665
F149 Sb31 1.924847 1_555
F150 Sb28 1.924847 1_556
F151 Sb29 1.924847 1_555
F152 Sb30 1.913255 1_655
F153 Sb31 1.913255 1_555
F154 Sb28 1.913255 1_556
F155 Sb29 1.913255 1_565
F156 Sb30 1.913255 1_565
F157 Sb31 1.913255 1_555
F158 Sb28 1.913255 1_655
F159 Sb29 1.913255 1_556
Se0 Te0 2.527867 1_555
Se0 Te8 2.547428 1_555
Se1 Te1 2.527867 1_555
Se1 Te9 2.547428 1_555
Se2 Te2 2.527867 1_555
Se2 Te10 2.547428 1_555
Se3 Te3 2.527867 1_555
Se3 Te11 2.547428 1_555
Se4 Te4 2.527867 1_555
Se4 Te12 2.547428 1_555
Se5 Te5 2.527867 1_555
Se5 Te13 2.547428 1_555
Se6 Te6 2.527867 1_555
Se6 Te14 2.547428 1_555
Se7 Te7 2.527867 1_555
Se7 Te15 2.547428 1_555
Se10 Se18 2.318541 1_555
Se10 Se26 2.333172 1_555
Se11 Se19 2.318541 1_555
Se11 Se27 2.333172 1_555
Se12 Se20 2.318541 1_555
Se12 Se28 2.333172 1_555
Se13 Se21 2.318541 1_555
Se13 Se29 2.333172 1_555
Se14 Se22 2.318541 1_555
Se14 Se30 2.333172 1_555
Se15 Se23 2.318541 1_555
Se15 Se31 2.333172 1_555
Se16 Se8 2.318541 1_555
Se16 Te0 2.599132 1_455
Se17 Se9 2.318541 1_555
Se17 Te1 2.599132 1_555
Se18 Te2 2.599132 1_655
Se19 Te3 2.599132 1_555
Se20 Te4 2.599132 1_655
Se21 Te5 2.599132 1_555
Se22 Te6 2.599132 1_455
Se23 Te7 2.599132 1_555
Se24 Se8 2.333172 1_555
Se24 Te8 2.581284 1_455
Se25 Se9 2.333172 1_555
Se25 Te9 2.581284 1_555
Se26 Te10 2.581284 1_655
Se27 Te11 2.581284 1_555
Se28 Te12 2.581284 1_655
Se29 Te13 2.581284 1_555
Se30 Te14 2.581284 1_455
Se31 Te15 2.581284 1_555
