# generated using pymatgen
data_ErZr11Si11PO48
_symmetry_space_group_name_H-M   'P 1'
_cell_length_a   5.62992764
_cell_length_b   5.62992764
_cell_length_c   57.03107300
_cell_angle_alpha   90.00000000
_cell_angle_beta   90.00000000
_cell_angle_gamma   115.25570417
_symmetry_Int_Tables_number   1
_chemical_formula_structural   ErZr11Si11PO48
_chemical_formula_sum   'Er2 Zr22 Si22 P2 O96'
_cell_volume   1634.87219861
_cell_formula_units_Z   2
loop_
 _symmetry_equiv_pos_site_id
 _symmetry_equiv_pos_as_xyz
  1  'x, y, z'
loop_
 _atom_site_type_symbol
 _atom_site_label
 _atom_site_symmetry_multiplicity
 _atom_site_fract_x
 _atom_site_fract_y
 _atom_site_fract_z
 _atom_site_occupancy
  Er  Er0  1  0.50000000  0.00000000  0.04185400  1
  Er  Er1  1  0.00000000  0.50000000  0.95814600  1
  Zr  Zr0  1  0.50000000  0.00000000  0.87486100  1
  Zr  Zr1  1  0.00000000  0.50000000  0.79166400  1
  Zr  Zr2  1  0.50000000  0.50000000  0.08398400  1
  Zr  Zr3  1  0.50000000  0.00000000  0.70833100  1
  Zr  Zr4  1  0.00000000  0.00000000  0.00000000  1
  Zr  Zr5  1  0.00000000  0.50000000  0.62499900  1
  Zr  Zr6  1  0.50000000  0.50000000  0.91601600  1
  Zr  Zr7  1  0.50000000  0.00000000  0.54166700  1
  Zr  Zr8  1  0.00000000  0.00000000  0.83333800  1
  Zr  Zr9  1  0.00000000  0.50000000  0.45833300  1
  Zr  Zr10  1  0.50000000  0.50000000  0.74999700  1
  Zr  Zr11  1  0.50000000  0.00000000  0.37500100  1
  Zr  Zr12  1  0.00000000  0.00000000  0.66666500  1
  Zr  Zr13  1  0.00000000  0.50000000  0.29166900  1
  Zr  Zr14  1  0.50000000  0.50000000  0.58333300  1
  Zr  Zr15  1  0.50000000  0.00000000  0.20833600  1
  Zr  Zr16  1  0.00000000  0.00000000  0.50000000  1
  Zr  Zr17  1  0.00000000  0.50000000  0.12513900  1
  Zr  Zr18  1  0.50000000  0.50000000  0.41666700  1
  Zr  Zr19  1  0.00000000  0.00000000  0.33333500  1
  Zr  Zr20  1  0.50000000  0.50000000  0.25000300  1
  Zr  Zr21  1  0.00000000  0.00000000  0.16666200  1
  Si  Si0  1  0.00000000  0.00000000  0.08387800  1
  Si  Si1  1  0.50000000  0.50000000  0.00000000  1
  Si  Si2  1  0.00000000  0.00000000  0.91612200  1
  Si  Si3  1  0.50000000  0.50000000  0.83329600  1
  Si  Si4  1  0.00000000  0.50000000  0.87502900  1
  Si  Si5  1  0.00000000  0.00000000  0.74999800  1
  Si  Si6  1  0.50000000  0.00000000  0.79167000  1
  Si  Si7  1  0.50000000  0.50000000  0.66666600  1
  Si  Si8  1  0.00000000  0.50000000  0.70833100  1
  Si  Si9  1  0.00000000  0.00000000  0.58333200  1
  Si  Si10  1  0.50000000  0.00000000  0.62500000  1
  Si  Si11  1  0.50000000  0.50000000  0.50000000  1
  Si  Si12  1  0.00000000  0.50000000  0.54166700  1
  Si  Si13  1  0.00000000  0.00000000  0.41666800  1
  Si  Si14  1  0.50000000  0.00000000  0.45833300  1
  Si  Si15  1  0.50000000  0.50000000  0.33333400  1
  Si  Si16  1  0.00000000  0.50000000  0.37500000  1
  Si  Si17  1  0.00000000  0.00000000  0.25000200  1
  Si  Si18  1  0.50000000  0.00000000  0.29166900  1
  Si  Si19  1  0.50000000  0.50000000  0.16670400  1
  Si  Si20  1  0.00000000  0.50000000  0.20833000  1
  Si  Si21  1  0.50000000  0.00000000  0.12497100  1
  P  P0  1  0.00000000  0.50000000  0.04163900  1
  P  P1  1  0.50000000  0.00000000  0.95836100  1
  O  O0  1  0.08621000  0.27305200  0.09910900  1
  O  O1  1  0.72708200  0.90186900  0.06900200  1
  O  O2  1  0.27291800  0.09813100  0.06900200  1
  O  O3  1  0.59609600  0.77474500  0.01490900  1
  O  O4  1  0.91379000  0.72694800  0.09910900  1
  O  O5  1  0.22525500  0.40390400  0.98509100  1
  O  O6  1  0.07010800  0.75004200  0.02663200  1
  O  O7  1  0.77474500  0.59609600  0.98509100  1
  O  O8  1  0.09813100  0.27291800  0.93099800  1
  O  O9  1  0.75070800  0.43093600  0.05670500  1
  O  O10  1  0.40390400  0.22525500  0.01490900  1
  O  O11  1  0.24929200  0.56906400  0.05670500  1
  O  O12  1  0.72694800  0.91379000  0.90089100  1
  O  O13  1  0.56906400  0.24929200  0.94329500  1
  O  O14  1  0.27305200  0.08621000  0.90089100  1
  O  O15  1  0.58855800  0.77137000  0.84855400  1
  O  O16  1  0.92989200  0.24995800  0.02663200  1
  O  O17  1  0.24995800  0.92989200  0.97336800  1
  O  O18  1  0.90186900  0.72708200  0.93099800  1
  O  O19  1  0.75004200  0.07010800  0.97336800  1
  O  O20  1  0.22826600  0.41148900  0.81805500  1
  O  O21  1  0.08800000  0.77112800  0.85975700  1
  O  O22  1  0.77173400  0.58851100  0.81805500  1
  O  O23  1  0.08852600  0.27167400  0.76525800  1
  O  O24  1  0.43093600  0.75070800  0.94329500  1
  O  O25  1  0.72807900  0.41152800  0.89028500  1
  O  O26  1  0.41144200  0.22863000  0.84855400  1
  O  O27  1  0.27192100  0.58847200  0.89028500  1
  O  O28  1  0.72835600  0.91151800  0.73473700  1
  O  O29  1  0.58851300  0.27165800  0.77641000  1
  O  O30  1  0.27164400  0.08848200  0.73473700  1
  O  O31  1  0.58853000  0.77168900  0.68192500  1
  O  O32  1  0.91200000  0.22887200  0.85975700  1
  O  O33  1  0.22836600  0.91153900  0.80693500  1
  O  O34  1  0.91147400  0.72832600  0.76525800  1
  O  O35  1  0.77163400  0.08846100  0.80693500  1
  O  O36  1  0.22836300  0.41150300  0.65140500  1
  O  O37  1  0.08853400  0.77166600  0.69307100  1
  O  O38  1  0.77163700  0.58849700  0.65140500  1
  O  O39  1  0.08853200  0.27166200  0.59859300  1
  O  O40  1  0.41148700  0.72834200  0.77641000  1
  O  O41  1  0.72835500  0.41152100  0.72359200  1
  O  O42  1  0.41147000  0.22831100  0.68192500  1
  O  O43  1  0.27164500  0.58847900  0.72359200  1
  O  O44  1  0.72836300  0.91150100  0.56807200  1
  O  O45  1  0.58854100  0.27168600  0.60974000  1
  O  O46  1  0.27163700  0.08849900  0.56807200  1
  O  O47  1  0.58853400  0.77168000  0.51525900  1
  O  O48  1  0.91146600  0.22833400  0.69307100  1
  O  O49  1  0.22837400  0.91150500  0.64026100  1
  O  O50  1  0.91146800  0.72833800  0.59859300  1
  O  O51  1  0.77162600  0.08849500  0.64026100  1
  O  O52  1  0.22832000  0.41146600  0.48474100  1
  O  O53  1  0.08853000  0.77168400  0.52640800  1
  O  O54  1  0.77168000  0.58853400  0.48474100  1
  O  O55  1  0.08849900  0.27163700  0.43192800  1
  O  O56  1  0.41145900  0.72831400  0.60974000  1
  O  O57  1  0.72836000  0.41150800  0.55692700  1
  O  O58  1  0.41146600  0.22832000  0.51525900  1
  O  O59  1  0.27164000  0.58849200  0.55692700  1
  O  O60  1  0.72833800  0.91146800  0.40140700  1
  O  O61  1  0.58849200  0.27164000  0.44307300  1
  O  O62  1  0.27166200  0.08853200  0.40140700  1
  O  O63  1  0.58849700  0.77163700  0.34859500  1
  O  O64  1  0.91147000  0.22831600  0.52640800  1
  O  O65  1  0.22831600  0.91147000  0.47359200  1
  O  O66  1  0.91150100  0.72836300  0.43192800  1
  O  O67  1  0.77168400  0.08853000  0.47359200  1
  O  O68  1  0.22831100  0.41147000  0.31807500  1
  O  O69  1  0.08849500  0.77162600  0.35973900  1
  O  O70  1  0.77168900  0.58853000  0.31807500  1
  O  O71  1  0.08848200  0.27164400  0.26526300  1
  O  O72  1  0.41150800  0.72836000  0.44307300  1
  O  O73  1  0.72831400  0.41145900  0.39026000  1
  O  O74  1  0.41150300  0.22836300  0.34859500  1
  O  O75  1  0.27168600  0.58854100  0.39026000  1
  O  O76  1  0.72832600  0.91147400  0.23474200  1
  O  O77  1  0.58847900  0.27164500  0.27640800  1
  O  O78  1  0.27167400  0.08852600  0.23474200  1
  O  O79  1  0.58851100  0.77173400  0.18194500  1
  O  O80  1  0.91150500  0.22837400  0.35973900  1
  O  O81  1  0.22833400  0.91146600  0.30692900  1
  O  O82  1  0.91151800  0.72835600  0.26526300  1
  O  O83  1  0.77166600  0.08853400  0.30692900  1
  O  O84  1  0.22863000  0.41144200  0.15144600  1
  O  O85  1  0.08846100  0.77163400  0.19306500  1
  O  O86  1  0.77137000  0.58855800  0.15144600  1
  O  O87  1  0.41152100  0.72835500  0.27640800  1
  O  O88  1  0.72834200  0.41148700  0.22359000  1
  O  O89  1  0.41148900  0.22826600  0.18194500  1
  O  O90  1  0.27165800  0.58851300  0.22359000  1
  O  O91  1  0.58847200  0.27192100  0.10971500  1
  O  O92  1  0.91153900  0.22836600  0.19306500  1
  O  O93  1  0.22887200  0.91200000  0.14024300  1
  O  O94  1  0.77112800  0.08800000  0.14024300  1
  O  O95  1  0.41152800  0.72807900  0.10971500  1
loop_
_geom_bond_atom_site_label_1
_geom_bond_atom_site_label_2
_geom_bond_distance
_geom_bond_site_symmetry_2
Er0 O3 2.201786 1_545
Er0 O10 2.201786 1_555
Er0 O1 2.222509 1_545
Er0 O2 2.222509 1_555
Er0 O11 2.381938 1_545
Er0 O9 2.381938 1_555
Er0 O6 2.384393 1_545
Er0 O16 2.384393 1_555
Er1 O7 2.201786 1_455
Er1 O5 2.201786 1_555
Er1 O18 2.222509 1_455
Er1 O8 2.222509 1_555
Er1 O24 2.381938 1_555
Er1 O13 2.381938 1_455
Er1 O19 2.384393 1_455
Er1 O17 2.384393 1_555
O0 Si0 1.648213 1_555
O0 Zr17 2.145009 1_555
O0 Zr2 2.294281 1_555
O1 Si0 1.631409 1_665
O1 Zr2 2.239458 1_555
O2 Si0 1.631409 1_555
O2 Zr2 2.239458 1_555
O3 Si1 1.641387 1_555
O3 Zr4 2.245287 1_665
O4 Si0 1.648213 1_665
O4 Zr17 2.145009 1_655
O4 Zr2 2.294281 1_555
O5 Si1 1.641387 1_556
O5 Zr4 2.245287 1_556
O6 P0 1.547849 1_555
O6 Zr4 2.217433 1_565
O7 Si1 1.641387 1_556
O7 Zr4 2.245287 1_666
O8 Si2 1.631409 1_555
O8 Zr6 2.239458 1_555
O9 P0 1.547125 1_655
O9 Zr2 2.243234 1_555
O10 Si1 1.641387 1_555
O10 Zr4 2.245287 1_555
O11 P0 1.547125 1_555
O11 Zr2 2.243234 1_555
O12 Si2 1.648213 1_665
O12 Zr0 2.145009 1_565
O12 Zr6 2.294281 1_555
O13 P1 1.547125 1_555
O13 Zr6 2.243234 1_555
O14 Si2 1.648213 1_555
O14 Zr0 2.145009 1_555
O14 Zr6 2.294281 1_555
O15 Si3 1.640108 1_555
O15 Zr0 2.168860 1_565
O15 Zr8 2.287198 1_665
O16 P0 1.547849 1_655
O16 Zr4 2.217433 1_655
O17 P1 1.547849 1_565
O17 Zr4 2.217433 1_566
O18 Si2 1.631409 1_665
O18 Zr6 2.239458 1_555
O19 P1 1.547849 1_555
O19 Zr4 2.217433 1_656
O20 Si3 1.641263 1_555
O20 Zr1 2.170634 1_555
O20 Zr8 2.288588 1_555
O21 Si4 1.639735 1_555
O21 Zr8 2.172711 1_565
O21 Zr0 2.287390 1_565
O22 Si3 1.641263 1_555
O22 Zr1 2.170634 1_655
O22 Zr8 2.288588 1_665
O23 Si5 1.641558 1_555
O23 Zr1 2.171501 1_555
O23 Zr10 2.288089 1_555
O24 P1 1.547125 1_565
O24 Zr6 2.243234 1_555
O25 Si4 1.642582 1_655
O25 Zr6 2.143864 1_555
O25 Zr0 2.291696 1_555
O26 Si3 1.640108 1_555
O26 Zr0 2.168860 1_555
O26 Zr8 2.287198 1_555
O27 Si4 1.642582 1_555
O27 Zr6 2.143864 1_555
O27 Zr0 2.291696 1_565
O28 Si5 1.641476 1_665
O28 Zr3 2.171498 1_565
O28 Zr10 2.288281 1_555
O29 Si6 1.641493 1_555
O29 Zr10 2.171805 1_555
O29 Zr1 2.288006 1_655
O30 Si5 1.641476 1_555
O30 Zr3 2.171498 1_555
O30 Zr10 2.288281 1_555
O31 Si7 1.641594 1_555
O31 Zr3 2.171454 1_565
O31 Zr12 2.288039 1_665
O32 Si4 1.639735 1_655
O32 Zr8 2.172711 1_655
O32 Zr0 2.287390 1_555
O33 Si6 1.641563 1_565
O33 Zr8 2.171361 1_565
O33 Zr1 2.288618 1_555
O34 Si5 1.641558 1_665
O34 Zr1 2.171501 1_655
O34 Zr10 2.288089 1_555
O35 Si6 1.641563 1_555
O35 Zr8 2.171361 1_655
O35 Zr1 2.288618 1_655
O36 Si7 1.641437 1_555
O36 Zr5 2.171566 1_555
O36 Zr12 2.288221 1_555
O37 Si8 1.641518 1_555
O37 Zr12 2.171554 1_565
O37 Zr3 2.288038 1_565
O38 Si7 1.641437 1_555
O38 Zr5 2.171566 1_655
O38 Zr12 2.288221 1_665
O39 Si9 1.641531 1_555
O39 Zr5 2.171564 1_555
O39 Zr14 2.288050 1_555
O40 Si6 1.641493 1_565
O40 Zr10 2.171805 1_555
O40 Zr1 2.288006 1_555
O41 Si8 1.641482 1_655
O41 Zr10 2.171447 1_555
O41 Zr3 2.288315 1_555
O42 Si7 1.641594 1_555
O42 Zr3 2.171454 1_555
O42 Zr12 2.288039 1_555
O43 Si8 1.641482 1_555
O43 Zr10 2.171447 1_555
O43 Zr3 2.288315 1_565
O44 Si9 1.641405 1_665
O44 Zr7 2.171532 1_565
O44 Zr14 2.288234 1_555
O45 Si10 1.641604 1_555
O45 Zr14 2.171535 1_555
O45 Zr5 2.287972 1_655
O46 Si9 1.641405 1_555
O46 Zr7 2.171532 1_555
O46 Zr14 2.288234 1_555
O47 Si11 1.641551 1_555
O47 Zr7 2.171579 1_565
O47 Zr16 2.288007 1_665
O48 Si8 1.641518 1_655
O48 Zr12 2.171554 1_655
O48 Zr3 2.288038 1_555
O49 Si10 1.641388 1_565
O49 Zr12 2.171524 1_565
O49 Zr5 2.288281 1_555
O50 Si9 1.641531 1_665
O50 Zr5 2.171564 1_655
O50 Zr14 2.288050 1_555
O51 Si10 1.641388 1_555
O51 Zr12 2.171524 1_655
O51 Zr5 2.288281 1_655
O52 Si11 1.641551 1_555
O52 Zr9 2.171579 1_555
O52 Zr16 2.288007 1_555
O53 Si12 1.641571 1_555
O53 Zr16 2.171552 1_565
O53 Zr7 2.288021 1_565
O54 Si11 1.641551 1_555
O54 Zr9 2.171579 1_655
O54 Zr16 2.288007 1_665
O55 Si13 1.641405 1_555
O55 Zr9 2.171532 1_555
O55 Zr18 2.288234 1_555
O56 Si10 1.641604 1_565
O56 Zr14 2.171535 1_555
O56 Zr5 2.287972 1_555
O57 Si12 1.641423 1_655
O57 Zr14 2.171541 1_555
O57 Zr7 2.288240 1_555
O58 Si11 1.641551 1_555
O58 Zr7 2.171579 1_555
O58 Zr16 2.288007 1_555
O59 Si12 1.641423 1_555
O59 Zr14 2.171541 1_555
O59 Zr7 2.288240 1_565
O60 Si13 1.641531 1_665
O60 Zr11 2.171564 1_565
O60 Zr18 2.288050 1_555
O61 Si14 1.641423 1_555
O61 Zr18 2.171541 1_555
O61 Zr9 2.288240 1_655
O62 Si13 1.641531 1_555
O62 Zr11 2.171564 1_555
O62 Zr18 2.288050 1_555
O63 Si15 1.641437 1_555
O63 Zr11 2.171566 1_565
O63 Zr19 2.288221 1_665
O64 Si12 1.641571 1_655
O64 Zr16 2.171552 1_655
O64 Zr7 2.288021 1_555
O65 Si14 1.641571 1_565
O65 Zr16 2.171552 1_565
O65 Zr9 2.288021 1_555
O66 Si13 1.641405 1_665
O66 Zr9 2.171532 1_655
O66 Zr18 2.288234 1_555
O67 Si14 1.641571 1_555
O67 Zr16 2.171552 1_655
O67 Zr9 2.288021 1_655
O68 Si15 1.641594 1_555
O68 Zr13 2.171454 1_555
O68 Zr19 2.288039 1_555
O69 Si16 1.641388 1_555
O69 Zr19 2.171524 1_565
O69 Zr11 2.288281 1_565
O70 Si15 1.641594 1_555
O70 Zr13 2.171454 1_655
O70 Zr19 2.288039 1_665
O71 Si17 1.641476 1_555
O71 Zr13 2.171498 1_555
O71 Zr20 2.288281 1_555
O72 Si14 1.641423 1_565
O72 Zr18 2.171541 1_555
O72 Zr9 2.288240 1_555
O73 Si16 1.641604 1_655
O73 Zr18 2.171535 1_555
O73 Zr11 2.287972 1_555
O74 Si15 1.641437 1_555
O74 Zr11 2.171566 1_555
O74 Zr19 2.288221 1_555
O75 Si16 1.641604 1_555
O75 Zr18 2.171535 1_555
O75 Zr11 2.287972 1_565
O76 Si17 1.641558 1_665
O76 Zr15 2.171501 1_565
O76 Zr20 2.288089 1_555
O77 Si18 1.641482 1_555
O77 Zr20 2.171447 1_555
O77 Zr13 2.288315 1_655
O78 Si17 1.641558 1_555
O78 Zr15 2.171501 1_555
O78 Zr20 2.288089 1_555
O79 Si19 1.641263 1_555
O79 Zr15 2.170634 1_565
O79 Zr21 2.288588 1_665
O80 Si16 1.641388 1_655
O80 Zr19 2.171524 1_655
O80 Zr11 2.288281 1_555
O81 Si18 1.641518 1_565
O81 Zr19 2.171554 1_565
O81 Zr13 2.288038 1_555
O82 Si17 1.641476 1_665
O82 Zr13 2.171498 1_655
O82 Zr20 2.288281 1_555
O83 Si18 1.641518 1_555
O83 Zr19 2.171554 1_655
O83 Zr13 2.288038 1_655
O84 Si19 1.640108 1_555
O84 Zr17 2.168860 1_555
O84 Zr21 2.287198 1_555
O85 Si20 1.641563 1_555
O85 Zr21 2.171361 1_565
O85 Zr15 2.288618 1_565
O86 Si19 1.640108 1_555
O86 Zr17 2.168860 1_655
O86 Zr21 2.287198 1_665
O87 Si18 1.641482 1_565
O87 Zr20 2.171447 1_555
O87 Zr13 2.288315 1_555
O88 Si20 1.641493 1_655
O88 Zr20 2.171805 1_555
O88 Zr15 2.288006 1_555
O89 Si19 1.641263 1_555
O89 Zr15 2.170634 1_555
O89 Zr21 2.288588 1_555
O90 Si20 1.641493 1_555
O90 Zr20 2.171805 1_555
O90 Zr15 2.288006 1_565
O91 Si21 1.642582 1_555
O91 Zr2 2.143864 1_555
O91 Zr17 2.291696 1_655
O92 Si20 1.641563 1_655
O92 Zr21 2.171361 1_655
O92 Zr15 2.288618 1_555
O93 Si21 1.639735 1_565
O93 Zr21 2.172711 1_565
O93 Zr17 2.287390 1_555
O94 Si21 1.639735 1_555
O94 Zr21 2.172711 1_655
O94 Zr17 2.287390 1_655
O95 Si21 1.642582 1_565
O95 Zr2 2.143864 1_555
O95 Zr17 2.291696 1_555
