# generated using pymatgen
data_KNiPS4
_symmetry_space_group_name_H-M   'P 1'
_cell_length_a   8.41161300
_cell_length_b   8.41161300
_cell_length_c   10.95811600
_cell_angle_alpha   90.00000000
_cell_angle_beta   90.00000000
_cell_angle_gamma   90.00000000
_symmetry_Int_Tables_number   1
_chemical_formula_structural   KNiPS4
_chemical_formula_sum   'K4 Ni4 P4 S16'
_cell_volume   775.34405369
_cell_formula_units_Z   4
loop_
 _symmetry_equiv_pos_site_id
 _symmetry_equiv_pos_as_xyz
  1  'x, y, z'
loop_
 _atom_site_type_symbol
 _atom_site_label
 _atom_site_symmetry_multiplicity
 _atom_site_fract_x
 _atom_site_fract_y
 _atom_site_fract_z
 _atom_site_occupancy
  K  K0  1  0.00000000  0.50000000  0.25000000  1
  K  K1  1  0.50000000  0.00000000  0.75000000  1
  K  K2  1  0.50000000  0.00000000  0.25000000  1
  K  K3  1  0.00000000  0.50000000  0.75000000  1
  Ni  Ni0  1  0.50000000  0.50000000  0.50000000  1
  Ni  Ni1  1  0.00000000  0.00000000  0.00000000  1
  Ni  Ni2  1  0.00000000  0.00000000  0.50000000  1
  Ni  Ni3  1  0.50000000  0.50000000  0.00000000  1
  P  P0  1  0.24939300  0.75060700  0.50000000  1
  P  P1  1  0.75060700  0.24939300  0.50000000  1
  P  P2  1  0.25060700  0.25060700  0.00000000  1
  P  P3  1  0.74939300  0.74939300  0.00000000  1
  S  S0  1  0.26225900  0.00618800  0.00000000  1
  S  S1  1  0.99381200  0.73774100  0.00000000  1
  S  S2  1  0.50618800  0.23774100  0.50000000  1
  S  S3  1  0.00618800  0.26225900  0.00000000  1
  S  S4  1  0.49381200  0.76225900  0.50000000  1
  S  S5  1  0.86540400  0.13459600  0.64000500  1
  S  S6  1  0.73774100  0.99381200  0.00000000  1
  S  S7  1  0.36540400  0.36540400  0.14000500  1
  S  S8  1  0.23774100  0.50618800  0.50000000  1
  S  S9  1  0.86540400  0.13459600  0.35999500  1
  S  S10  1  0.76225900  0.49381200  0.50000000  1
  S  S11  1  0.36540400  0.36540400  0.85999500  1
  S  S12  1  0.63459600  0.63459600  0.85999500  1
  S  S13  1  0.63459600  0.63459600  0.14000500  1
  S  S14  1  0.13459600  0.86540400  0.35999500  1
  S  S15  1  0.13459600  0.86540400  0.64000500  1
loop_
_geom_bond_atom_site_label_1
_geom_bond_atom_site_label_2
_geom_bond_distance
_geom_bond_site_symmetry_2
K0 S8 3.392178 1_555
K0 S1 3.392178 1_455
K0 S10 3.392178 1_455
K0 S3 3.392178 1_555
K0 S14 3.490257 1_555
K0 S7 3.490257 1_555
K0 S9 3.490257 1_455
K0 S13 3.490257 1_455
K1 S2 3.392178 1_555
K1 S6 3.392178 1_546
K1 S4 3.392178 1_545
K1 S0 3.392178 1_556
K1 S11 3.490257 1_555
K1 S5 3.490257 1_555
K1 S15 3.490257 1_545
K1 S12 3.490257 1_545
K2 S2 3.392178 1_555
K2 S6 3.392178 1_545
K2 S4 3.392178 1_545
K2 S0 3.392178 1_555
K2 S9 3.490257 1_555
K2 S7 3.490257 1_555
K2 S14 3.490257 1_545
K2 S13 3.490257 1_545
K3 S8 3.392178 1_555
K3 S10 3.392178 1_455
K3 S1 3.392178 1_456
K3 S3 3.392178 1_556
K3 S11 3.490257 1_555
K3 S15 3.490257 1_555
K3 S5 3.490257 1_455
K3 S12 3.490257 1_455
Ni0 S10 2.206635 1_555
Ni0 S4 2.206635 1_555
Ni0 S8 2.206635 1_555
Ni0 S2 2.206635 1_555
Ni1 S0 2.206635 1_555
Ni1 S3 2.206635 1_555
Ni1 S1 2.206635 1_445
Ni1 S6 2.206635 1_445
Ni2 S15 2.217512 1_545
Ni2 S5 2.217512 1_455
Ni2 S14 2.217512 1_545
Ni2 S9 2.217512 1_455
Ni3 S13 2.217512 1_555
Ni3 S12 2.217512 1_554
Ni3 S7 2.217512 1_555
Ni3 S11 2.217512 1_554
P0 S15 2.053927 1_555
P0 S14 2.053927 1_555
P0 S8 2.058293 1_555
P0 S4 2.058293 1_555
P1 S5 2.053927 1_555
P1 S9 2.053927 1_555
P1 S2 2.058293 1_555
P1 S10 2.058293 1_555
P2 S7 2.053927 1_555
P2 S11 2.053927 1_554
P2 S0 2.058293 1_555
P2 S3 2.058293 1_555
P3 S13 2.053927 1_555
P3 S12 2.053927 1_554
P3 S6 2.058293 1_555
P3 S1 2.058293 1_555
