# generated using pymatgen
data_NdH4C3O8
_symmetry_space_group_name_H-M   'P 1'
_cell_length_a   8.87488900
_cell_length_b   9.40646400
_cell_length_c   17.10482200
_cell_angle_alpha   90.00000000
_cell_angle_beta   90.00000000
_cell_angle_gamma   90.00000000
_symmetry_Int_Tables_number   1
_chemical_formula_structural   NdH4C3O8
_chemical_formula_sum   'Nd8 H32 C24 O64'
_cell_volume   1427.93318533
_cell_formula_units_Z   8
loop_
 _symmetry_equiv_pos_site_id
 _symmetry_equiv_pos_as_xyz
  1  'x, y, z'
loop_
 _atom_site_type_symbol
 _atom_site_label
 _atom_site_symmetry_multiplicity
 _atom_site_fract_x
 _atom_site_fract_y
 _atom_site_fract_z
 _atom_site_occupancy
  Nd  Nd0  1  0.36945000  0.24204500  0.85648000  1
  Nd  Nd1  1  0.13055000  0.75795500  0.35648000  1
  Nd  Nd2  1  0.86945000  0.25795500  0.14352000  1
  Nd  Nd3  1  0.63055000  0.74204500  0.64352000  1
  Nd  Nd4  1  0.12408400  0.24011800  0.63785700  1
  Nd  Nd5  1  0.37591600  0.75988200  0.13785700  1
  Nd  Nd6  1  0.62408400  0.25988200  0.36214300  1
  Nd  Nd7  1  0.87591600  0.74011800  0.86214300  1
  H  H0  1  0.36417500  0.40977700  0.01324600  1
  H  H1  1  0.13582500  0.59022300  0.51324600  1
  H  H2  1  0.86417500  0.09022300  0.98675400  1
  H  H3  1  0.63582500  0.90977700  0.48675400  1
  H  H4  1  0.69213500  0.32153600  0.78714900  1
  H  H5  1  0.80786500  0.67846400  0.28714900  1
  H  H6  1  0.19213500  0.17846400  0.21285100  1
  H  H7  1  0.30786500  0.82153600  0.71285100  1
  H  H8  1  0.41589100  0.05914500  0.60494900  1
  H  H9  1  0.08410900  0.94085500  0.10494900  1
  H  H10  1  0.91589100  0.44085500  0.39505100  1
  H  H11  1  0.58410900  0.55914500  0.89505100  1
  H  H12  1  0.43639000  0.19819200  0.55517100  1
  H  H13  1  0.06361000  0.80180800  0.05517100  1
  H  H14  1  0.93639000  0.30180800  0.44482900  1
  H  H15  1  0.56361000  0.69819200  0.94482900  1
  H  H16  1  0.14209100  0.09977300  0.47176700  1
  H  H17  1  0.35790900  0.90022700  0.97176700  1
  H  H18  1  0.64209100  0.40022700  0.52823300  1
  H  H19  1  0.85790900  0.59977300  0.02823300  1
  H  H20  1  0.18077000  0.25827100  0.45789300  1
  H  H21  1  0.31923000  0.74172900  0.95789300  1
  H  H22  1  0.68077000  0.24172900  0.54210700  1
  H  H23  1  0.81923000  0.75827100  0.04210700  1
  H  H24  1  0.72368900  0.33026700  0.87647700  1
  H  H25  1  0.77631100  0.66973300  0.37647700  1
  H  H26  1  0.22368900  0.16973300  0.12352300  1
  H  H27  1  0.27631100  0.83026700  0.62352300  1
  H  H28  1  0.47766400  0.27897100  0.03015500  1
  H  H29  1  0.02233600  0.72102900  0.53015500  1
  H  H30  1  0.97766400  0.22102900  0.96984500  1
  H  H31  1  0.52233600  0.77897100  0.46984500  1
  C  C0  1  0.63836900  0.00483800  0.89658300  1
  C  C1  1  0.86163100  0.99516200  0.39658300  1
  C  C2  1  0.13836900  0.49516200  0.10341700  1
  C  C3  1  0.36163100  0.50483800  0.60341700  1
  C  C4  1  0.59167200  0.96225500  0.81167500  1
  C  C5  1  0.90832800  0.03774500  0.31167500  1
  C  C6  1  0.09167200  0.53774500  0.18832500  1
  C  C7  1  0.40832800  0.46225500  0.68832500  1
  C  C8  1  0.13555200  0.98271100  0.89191600  1
  C  C9  1  0.36444800  0.01728900  0.39191600  1
  C  C10  1  0.63555200  0.51728900  0.10808400  1
  C  C11  1  0.86444800  0.48271100  0.60808400  1
  C  C12  1  0.08773400  0.01793600  0.80644600  1
  C  C13  1  0.41226600  0.98206400  0.30644600  1
  C  C14  1  0.58773400  0.48206400  0.19355400  1
  C  C15  1  0.91226600  0.51793600  0.69355400  1
  C  C16  1  0.05548700  0.43620400  0.88628400  1
  C  C17  1  0.44451300  0.56379600  0.38628400  1
  C  C18  1  0.55548700  0.06379600  0.11371600  1
  C  C19  1  0.94451300  0.93620400  0.61371600  1
  C  C20  1  0.18204800  0.54326100  0.86327600  1
  C  C21  1  0.31795200  0.45673900  0.36327600  1
  C  C22  1  0.68204800  0.95673900  0.13672400  1
  C  C23  1  0.81795200  0.04326100  0.63672400  1
  O  O0  1  0.56200000  0.10144000  0.92845600  1
  O  O1  1  0.93800000  0.89856000  0.42845600  1
  O  O2  1  0.06200000  0.39856000  0.07154400  1
  O  O3  1  0.43800000  0.60144000  0.57154400  1
  O  O4  1  0.49057700  0.03698500  0.78062400  1
  O  O5  1  0.00942300  0.96301500  0.28062400  1
  O  O6  1  0.99057700  0.46301500  0.21937600  1
  O  O7  1  0.50942300  0.53698500  0.71937600  1
  O  O8  1  0.25536000  0.03959000  0.91842500  1
  O  O9  1  0.24464000  0.96041000  0.41842500  1
  O  O10  1  0.75536000  0.46041000  0.08157500  1
  O  O11  1  0.74464000  0.53959000  0.58157500  1
  O  O12  1  0.15880600  0.11874500  0.77178200  1
  O  O13  1  0.34119400  0.88125500  0.27178200  1
  O  O14  1  0.65880600  0.38125500  0.22821800  1
  O  O15  1  0.84119400  0.61874500  0.72821800  1
  O  O16  1  0.09694400  0.30856700  0.89775900  1
  O  O17  1  0.40305600  0.69143300  0.39775900  1
  O  O18  1  0.59694400  0.19143300  0.10224100  1
  O  O19  1  0.90305600  0.80856700  0.60224100  1
  O  O20  1  0.31650800  0.49871600  0.86670800  1
  O  O21  1  0.18349200  0.50128400  0.36670800  1
  O  O22  1  0.81650800  0.00128400  0.13329200  1
  O  O23  1  0.68349200  0.99871600  0.63329200  1
  O  O24  1  0.41564000  0.32747900  0.98990000  1
  O  O25  1  0.08436000  0.67252100  0.48990000  1
  O  O26  1  0.91564000  0.17252100  0.01010000  1
  O  O27  1  0.58436000  0.82747900  0.51010000  1
  O  O28  1  0.64302000  0.33348500  0.83755100  1
  O  O29  1  0.85698000  0.66651500  0.33755100  1
  O  O30  1  0.14302000  0.16651500  0.16244900  1
  O  O31  1  0.35698000  0.83348500  0.66244900  1
  O  O32  1  0.75002300  0.94151000  0.92783300  1
  O  O33  1  0.74997700  0.05849000  0.42783300  1
  O  O34  1  0.25002300  0.55849000  0.07216700  1
  O  O35  1  0.24997700  0.44151000  0.57216700  1
  O  O36  1  0.65881900  0.85481700  0.78107500  1
  O  O37  1  0.84118100  0.14518300  0.28107500  1
  O  O38  1  0.15881900  0.64518300  0.21892500  1
  O  O39  1  0.34118100  0.35481700  0.71892500  1
  O  O40  1  0.36876500  0.14948100  0.59194500  1
  O  O41  1  0.13123500  0.85051900  0.09194500  1
  O  O42  1  0.86876500  0.35051900  0.40805500  1
  O  O43  1  0.63123500  0.64948100  0.90805500  1
  O  O44  1  0.10878000  0.19749300  0.48534300  1
  O  O45  1  0.39122000  0.80250700  0.98534300  1
  O  O46  1  0.60878000  0.30250700  0.51465700  1
  O  O47  1  0.89122000  0.69749300  0.01465700  1
  O  O48  1  0.05446700  0.89623600  0.92849200  1
  O  O49  1  0.44553300  0.10376400  0.42849200  1
  O  O50  1  0.55446700  0.60376400  0.07150800  1
  O  O51  1  0.94553300  0.39623600  0.57150800  1
  O  O52  1  0.98471500  0.94137900  0.77859500  1
  O  O53  1  0.51528500  0.05862100  0.27859500  1
  O  O54  1  0.48471500  0.55862100  0.22140500  1
  O  O55  1  0.01528500  0.44137900  0.72140500  1
  O  O56  1  0.92265500  0.48408200  0.89305300  1
  O  O57  1  0.57734500  0.51591800  0.39305300  1
  O  O58  1  0.42265500  0.01591800  0.10694700  1
  O  O59  1  0.07734500  0.98408200  0.60694700  1
  O  O60  1  0.14184600  0.66809600  0.84462600  1
  O  O61  1  0.35815400  0.33190400  0.34462600  1
  O  O62  1  0.64184600  0.83190400  0.15537400  1
  O  O63  1  0.85815400  0.16809600  0.65537400  1
loop_
_geom_bond_atom_site_label_1
_geom_bond_atom_site_label_2
_geom_bond_distance
_geom_bond_site_symmetry_2
Nd0 O8 2.403035 1_555
Nd0 O24 2.453969 1_555
Nd0 O20 2.465874 1_555
Nd0 O0 2.486998 1_555
Nd0 O4 2.561197 1_555
Nd0 O39 2.593093 1_555
Nd0 O16 2.595965 1_555
Nd0 O28 2.596029 1_555
Nd0 O12 2.634170 1_555
Nd1 O9 2.403035 1_555
Nd1 O25 2.453969 1_555
Nd1 O21 2.465874 1_555
Nd1 O1 2.486998 1_455
Nd1 O5 2.561197 1_555
Nd1 O38 2.593093 1_555
Nd1 O17 2.595965 1_555
Nd1 O29 2.596029 1_455
Nd1 O13 2.634170 1_555
Nd2 O10 2.403035 1_555
Nd2 O26 2.453969 1_555
Nd2 O22 2.465874 1_555
Nd2 O2 2.486998 1_655
Nd2 O6 2.561197 1_555
Nd2 O37 2.593093 1_555
Nd2 O18 2.595965 1_555
Nd2 O30 2.596029 1_655
Nd2 O14 2.634170 1_555
Nd3 O11 2.403035 1_555
Nd3 O27 2.453969 1_555
Nd3 O23 2.465874 1_555
Nd3 O3 2.486998 1_555
Nd3 O7 2.561197 1_555
Nd3 O36 2.593093 1_555
Nd3 O19 2.595965 1_555
Nd3 O31 2.596029 1_555
Nd3 O15 2.634170 1_555
Nd4 O51 2.440397 1_455
Nd4 O40 2.461522 1_555
Nd4 O35 2.469725 1_555
Nd4 O63 2.473623 1_455
Nd4 O59 2.500391 1_545
Nd4 O55 2.560982 1_555
Nd4 O12 2.577986 1_555
Nd4 O39 2.607504 1_555
Nd4 O44 2.642850 1_555
Nd5 O50 2.440397 1_555
Nd5 O41 2.461522 1_555
Nd5 O34 2.469725 1_555
Nd5 O62 2.473623 1_555
Nd5 O58 2.500391 1_565
Nd5 O54 2.560982 1_555
Nd5 O13 2.577986 1_555
Nd5 O38 2.607504 1_555
Nd5 O45 2.642850 1_554
Nd6 O49 2.440397 1_555
Nd6 O42 2.461522 1_555
Nd6 O33 2.469725 1_555
Nd6 O61 2.473623 1_555
Nd6 O57 2.500391 1_555
Nd6 O53 2.560982 1_555
Nd6 O14 2.577986 1_555
Nd6 O37 2.607504 1_555
Nd6 O46 2.642850 1_555
Nd7 O48 2.440397 1_655
Nd7 O43 2.461522 1_555
Nd7 O32 2.469725 1_555
Nd7 O60 2.473623 1_655
Nd7 O56 2.500391 1_555
Nd7 O52 2.560982 1_555
Nd7 O15 2.577986 1_555
Nd7 O36 2.607504 1_555
Nd7 O47 2.642850 1_556
H0 O24 0.983546 1_554
H1 O25 0.983546 1_555
H2 O26 0.983546 1_556
H3 O27 0.983546 1_555
H4 O28 0.972563 1_555
H5 O29 0.972563 1_555
H6 O30 0.972563 1_555
H7 O31 0.972563 1_555
H8 O40 0.972862 1_555
H9 O41 0.972862 1_555
H10 O42 0.972862 1_555
H11 O43 0.972862 1_555
H12 O40 0.982751 1_555
H13 O41 0.982751 1_555
H14 O42 0.982751 1_555
H15 O43 0.982751 1_555
H16 O44 0.993101 1_555
H17 O45 0.993101 1_555
H18 O46 0.993101 1_555
H19 O47 0.993101 1_555
H20 O44 0.977497 1_555
H21 O45 0.977497 1_555
H22 O46 0.977497 1_555
H23 O47 0.977497 1_555
H24 O28 0.978156 1_555
H25 O29 0.978156 1_555
H26 O30 0.978156 1_555
H27 O31 0.978156 1_555
H28 O24 0.992627 1_554
H29 O25 0.992627 1_555
H30 O26 0.992627 1_556
H31 O27 0.992627 1_555
C0 O0 1.257893 1_555
C0 O32 1.273767 1_545
C1 O1 1.257893 1_555
C1 O33 1.273767 1_565
C2 O2 1.257893 1_555
C2 O34 1.273767 1_555
C3 O3 1.257893 1_555
C3 O35 1.273767 1_555
C4 O4 1.257459 1_565
C4 O36 1.284685 1_555
C5 O5 1.257459 1_645
C5 O37 1.284685 1_555
C6 O6 1.257459 1_455
C6 O38 1.284685 1_555
C7 O7 1.257459 1_555
C7 O39 1.284685 1_555
C8 O48 1.253363 1_555
C8 O8 1.273746 1_565
C9 O49 1.253363 1_555
C9 O9 1.273746 1_545
C10 O50 1.253363 1_555
C10 O10 1.273746 1_555
C11 O51 1.253363 1_555
C11 O11 1.273746 1_555
C12 O52 1.257555 1_445
C12 O12 1.283978 1_555
C13 O53 1.257555 1_565
C13 O13 1.283978 1_555
C14 O54 1.257555 1_555
C14 O14 1.283978 1_555
C15 O55 1.257555 1_655
C15 O15 1.283978 1_555
C16 O56 1.267267 1_455
C16 O16 1.270970 1_555
C17 O57 1.267267 1_555
C17 O17 1.270970 1_555
C18 O58 1.267267 1_555
C18 O18 1.270970 1_555
C19 O59 1.267267 1_655
C19 O19 1.270970 1_555
C20 O20 1.266105 1_555
C20 O60 1.268045 1_555
C21 O21 1.266105 1_555
C21 O61 1.268045 1_555
C22 O22 1.266105 1_565
C22 O62 1.268045 1_555
C23 O23 1.266105 1_545
C23 O63 1.268045 1_555
