# generated using pymatgen
data_Dy3Ge4
_symmetry_space_group_name_H-M   'P 1'
_cell_length_a   4.04871340
_cell_length_b   5.72269353
_cell_length_c   14.30488459
_cell_angle_alpha   89.98722862
_cell_angle_beta   90.03319517
_cell_angle_gamma   110.75517467
_symmetry_Int_Tables_number   1
_chemical_formula_structural   Dy3Ge4
_chemical_formula_sum   'Dy6 Ge8'
_cell_volume   309.92838735
_cell_formula_units_Z   2
loop_
 _symmetry_equiv_pos_site_id
 _symmetry_equiv_pos_as_xyz
  1  'x, y, z'
loop_
 _atom_site_type_symbol
 _atom_site_label
 _atom_site_symmetry_multiplicity
 _atom_site_fract_x
 _atom_site_fract_y
 _atom_site_fract_z
 _atom_site_occupancy
  Dy  Dy0  1  0.66523200  0.32972700  0.09699600  1
  Dy  Dy1  1  0.34080200  0.67972700  0.90301500  1
  Dy  Dy2  1  0.66075900  0.32008000  0.40386500  1
  Dy  Dy3  1  0.33648800  0.68055300  0.59760700  1
  Dy  Dy4  1  0.94521600  0.89001100  0.25173600  1
  Dy  Dy5  1  0.05610500  0.11434700  0.74922700  1
  Ge  Ge0  1  0.21923700  0.43151700  0.25059400  1
  Ge  Ge1  1  0.78164600  0.57152300  0.75015400  1
  Ge  Ge2  1  0.37244100  0.74683500  0.11003000  1
  Ge  Ge3  1  0.00158500  0.00218200  0.00139800  1
  Ge  Ge4  1  0.36933000  0.73768900  0.39186900  1
  Ge  Ge5  1  0.63197100  0.26025700  0.89076700  1
  Ge  Ge6  1  0.99481300  0.99436900  0.49842900  1
  Ge  Ge7  1  0.62889800  0.26319500  0.60911700  1
loop_
_geom_bond_atom_site_label_1
_geom_bond_atom_site_label_2
_geom_bond_distance
_geom_bond_site_symmetry_2
Dy0 Ge5 2.973430 1_554
Dy0 Ge3 3.005069 1_555
Dy0 Ge3 3.008419 1_655
Dy0 Ge2 3.014365 1_655
Dy0 Ge2 3.023840 1_555
Dy0 Ge0 3.029564 1_555
Dy0 Ge0 3.044161 1_655
Dy0 Ge2 3.124801 1_545
Dy1 Ge2 2.983043 1_556
Dy1 Ge3 3.006826 1_666
Dy1 Ge3 3.011917 1_566
Dy1 Ge1 3.023086 1_555
Dy1 Ge5 3.024254 1_455
Dy1 Ge5 3.031318 1_555
Dy1 Ge1 3.048164 1_455
Dy1 Ge5 3.111529 1_565
Dy2 Ge7 2.951878 1_555
Dy2 Ge6 2.986114 1_545
Dy2 Ge6 3.002496 1_445
Dy2 Ge4 3.018614 1_655
Dy2 Ge4 3.021778 1_555
Dy2 Ge0 3.035152 1_555
Dy2 Ge0 3.051169 1_655
Dy2 Ge4 3.121278 1_545
Dy3 Ge4 2.958951 1_555
Dy3 Ge6 2.984785 1_455
Dy3 Ge6 2.992130 1_555
Dy3 Ge7 3.014911 1_455
Dy3 Ge7 3.022725 1_555
Dy3 Ge1 3.031727 1_555
Dy3 Ge1 3.034654 1_455
Dy3 Ge7 3.122246 1_565
Dy4 Ge0 2.897834 1_665
Dy4 Ge4 2.962888 1_555
Dy4 Ge2 2.963377 1_655
Dy4 Ge4 2.963577 1_655
Dy4 Ge2 2.967626 1_555
Dy4 Ge0 3.171442 1_555
Dy4 Ge0 3.190411 1_655
Dy5 Ge1 2.904868 1_445
Dy5 Ge7 2.953859 1_555
Dy5 Ge5 2.960824 1_455
Dy5 Ge7 2.962047 1_455
Dy5 Ge5 2.974581 1_555
Dy5 Ge1 3.166547 1_555
Dy5 Ge1 3.184399 1_455
Ge0 Ge4 2.601708 1_555
Ge0 Ge2 2.624979 1_555
Ge1 Ge7 2.606325 1_555
Ge1 Ge5 2.611683 1_555
Ge2 Ge3 2.890666 1_565
Ge2 Ge3 2.898957 1_665
Ge3 Ge5 2.913368 1_454
Ge3 Ge5 2.920920 1_554
Ge4 Ge6 2.873044 1_555
Ge4 Ge6 2.891839 1_455
Ge6 Ge7 2.943069 1_665
Ge6 Ge7 2.947495 1_565
