# generated using pymatgen
data_Li10Ge(PS6)2
_symmetry_space_group_name_H-M   'P 1'
_cell_length_a   8.58995100
_cell_length_b   8.87954092
_cell_length_c   12.97496188
_cell_angle_alpha   91.98415256
_cell_angle_beta   90.64261126
_cell_angle_gamma   90.24910835
_symmetry_Int_Tables_number   1
_chemical_formula_structural   Li10Ge(PS6)2
_chemical_formula_sum   'Li20 Ge2 P4 S24'
_cell_volume   988.99622585
_cell_formula_units_Z   2
loop_
 _symmetry_equiv_pos_site_id
 _symmetry_equiv_pos_as_xyz
  1  'x, y, z'
loop_
 _atom_site_type_symbol
 _atom_site_label
 _atom_site_symmetry_multiplicity
 _atom_site_fract_x
 _atom_site_fract_y
 _atom_site_fract_z
 _atom_site_occupancy
  Li  Li0  1  0.98873100  0.51709100  0.95173700  1
  Li  Li1  1  0.96449400  0.51712200  0.42632300  1
  Li  Li2  1  0.51056000  0.96484100  0.54895200  1
  Li  Li3  1  0.49636200  0.99632200  0.05065000  1
  Li  Li4  1  0.25981300  0.28931300  0.15758100  1
  Li  Li5  1  0.74378200  0.74710700  0.28195700  1
  Li  Li6  1  0.21596100  0.81787800  0.75355300  1
  Li  Li7  1  0.22963700  0.75699200  0.25192800  1
  Li  Li8  1  0.75405800  0.22010500  0.35152600  1
  Li  Li9  1  0.46204700  0.51608000  0.75077400  1
  Li  Li10  1  0.22964800  0.22813400  0.36607000  1
  Li  Li11  1  0.73424600  0.25637500  0.85726800  1
  Li  Li12  1  0.24505400  0.76112900  0.00578800  1
  Li  Li13  1  0.74140100  0.26285600  0.13140300  1
  Li  Li14  1  0.76416900  0.72825800  0.68945400  1
  Li  Li15  1  0.22149600  0.25883500  0.91942800  1
  Li  Li16  1  0.74812600  0.76110900  0.00840300  1
  Li  Li17  1  0.24419600  0.71965500  0.48493600  1
  Li  Li18  1  0.78341000  0.21458800  0.62546500  1
  Li  Li19  1  0.24119100  0.21180500  0.64968200  1
  Ge  Ge0  1  0.99686700  0.48797300  0.18311100  1
  Ge  Ge1  1  0.50884000  0.99075000  0.81562000  1
  P  P0  1  0.99263900  0.96501400  0.50184400  1
  P  P1  1  0.49240000  0.51563000  0.99308400  1
  P  P2  1  0.00835900  0.48317600  0.68443600  1
  P  P3  1  0.48781500  0.00918100  0.31050100  1
  S  S0  1  0.98869400  0.17643600  0.44384300  1
  S  S1  1  0.00460200  0.79393100  0.38965500  1
  S  S2  1  0.29566100  0.53085800  0.90125800  1
  S  S3  1  0.68425700  0.53032400  0.89968500  1
  S  S4  1  0.49553100  0.69484300  0.09715600  1
  S  S5  1  0.48693300  0.31015900  0.05939900  1
  S  S6  1  0.19577900  0.94764600  0.58834500  1
  S  S7  1  0.80164300  0.94582600  0.58992100  1
  S  S8  1  0.00688600  0.29568500  0.06545300  1
  S  S9  1  0.00076600  0.70923300  0.10383400  1
  S  S10  1  0.21236200  0.48630000  0.60103900  1
  S  S11  1  0.81504400  0.49101000  0.58956000  1
  S  S12  1  0.48488000  0.80052200  0.37512300  1
  S  S13  1  0.49577400  0.17875900  0.42244500  1
  S  S14  1  0.28488900  0.98907400  0.90546300  1
  S  S15  1  0.71375500  0.99900300  0.92154600  1
  S  S16  1  0.99309500  0.66313600  0.78761900  1
  S  S17  1  0.00308500  0.28150400  0.76047400  1
  S  S18  1  0.77925200  0.46617900  0.27322000  1
  S  S19  1  0.20118900  0.47858500  0.29158300  1
  S  S20  1  0.51746100  0.20098800  0.72148000  1
  S  S21  1  0.49247400  0.79265400  0.70300900  1
  S  S22  1  0.68587600  0.01593600  0.22140400  1
  S  S23  1  0.29220800  0.03118700  0.21921100  1
loop_
_geom_bond_atom_site_label_1
_geom_bond_atom_site_label_2
_geom_bond_distance
_geom_bond_site_symmetry_2
Li0 S8 2.502951 1_656
Li0 S16 2.531831 1_555
Li0 S9 2.564534 1_656
Li0 S3 2.697941 1_555
Li0 S2 2.727013 1_655
Li1 S11 2.506018 1_555
Li1 S1 2.542399 1_655
Li1 S18 2.558011 1_555
Li1 S19 2.711404 1_655
Li2 S13 2.555739 1_565
Li2 S7 2.557947 1_555
Li2 S21 2.563955 1_555
Li2 S12 2.650032 1_555
Li2 S6 2.762017 1_555
Li2 S20 3.013701 1_565
Li3 S15 2.523152 1_554
Li3 S14 2.601247 1_554
Li3 S22 2.734761 1_565
Li3 S4 2.764462 1_555
Li3 S5 2.786676 1_565
Li3 S23 2.828138 1_565
Li4 S5 2.352073 1_555
Li4 S19 2.434297 1_555
Li4 S23 2.469370 1_555
Li4 S8 2.469798 1_555
Li5 S18 2.513180 1_555
Li5 S12 2.581079 1_555
Li5 S22 2.587328 1_565
Li5 S1 2.650756 1_655
Li6 S16 2.405508 1_455
Li6 S6 2.473282 1_555
Li6 S21 2.480197 1_555
Li6 S14 2.510949 1_555
Li7 S23 2.542103 1_565
Li7 S19 2.553723 1_555
Li7 S1 2.660830 1_555
Li7 S12 2.717139 1_555
Li7 S9 2.754771 1_555
Li8 S0 2.373225 1_555
Li8 S13 2.442540 1_555
Li8 S18 2.451123 1_555
Li8 S22 2.497361 1_555
Li9 S2 2.432859 1_555
Li9 S21 2.566524 1_555
Li9 S3 2.700136 1_555
Li9 S20 2.853268 1_555
Li9 S10 2.882800 1_555
Li10 S0 2.362982 1_455
Li10 S13 2.438547 1_555
Li10 S19 2.467339 1_555
Li10 S23 2.603529 1_555
Li11 S15 2.465994 1_545
Li11 S3 2.515198 1_555
Li11 S20 2.583041 1_555
Li11 S17 2.653296 1_655
Li12 S2 2.457270 1_554
Li12 S14 2.468750 1_554
Li12 S9 2.515181 1_555
Li12 S4 2.526514 1_555
Li13 S5 2.411765 1_555
Li13 S8 2.464377 1_655
Li13 S18 2.550006 1_555
Li13 S22 2.564968 1_555
Li14 S7 2.383351 1_555
Li14 S21 2.412174 1_555
Li14 S16 2.414196 1_555
Li14 S11 2.478010 1_555
Li15 S14 2.459793 1_545
Li15 S2 2.514997 1_555
Li15 S8 2.671320 1_556
Li15 S17 2.785541 1_555
Li15 S5 2.923279 1_556
Li16 S15 2.445857 1_554
Li16 S3 2.502599 1_554
Li16 S9 2.538284 1_655
Li16 S4 2.544040 1_555
Li17 S6 2.429686 1_555
Li17 S1 2.492051 1_555
Li17 S10 2.618800 1_555
Li17 S12 2.635174 1_555
Li18 S7 2.420987 1_545
Li18 S11 2.528174 1_555
Li18 S17 2.612743 1_655
Li18 S20 2.618649 1_555
Li18 S0 2.969962 1_555
Li19 S6 2.478556 1_545
Li19 S20 2.543122 1_555
Li19 S10 2.551235 1_555
Li19 S17 2.578407 1_555
Ge0 S18 2.227156 1_555
Ge0 S19 2.241027 1_655
Ge0 S9 2.249291 1_655
Ge0 S8 2.253216 1_655
Ge1 S15 2.220424 1_555
Ge1 S21 2.250334 1_555
Ge1 S14 2.260771 1_555
Ge1 S20 2.267418 1_565
P0 S7 2.019861 1_555
P0 S0 2.046870 1_565
P0 S1 2.070951 1_655
P0 S6 2.073340 1_655
P1 S5 2.044548 1_556
P1 S4 2.050965 1_556
P1 S3 2.062892 1_555
P1 S2 2.064416 1_555
P2 S16 2.054426 1_455
P2 S11 2.058833 1_455
P2 S10 2.070425 1_555
P2 S17 2.074814 1_555
P3 S13 2.055998 1_555
P3 S23 2.058806 1_555
P3 S12 2.060136 1_545
P3 S22 2.069438 1_555
