# generated using pymatgen
data_Ca3Sc2(SiO4)3
_symmetry_space_group_name_H-M   'P 1'
_cell_length_a   10.71042196
_cell_length_b   10.71042196
_cell_length_c   10.71042196
_cell_angle_alpha   109.47122063
_cell_angle_beta   109.47122063
_cell_angle_gamma   109.47122063
_symmetry_Int_Tables_number   1
_chemical_formula_structural   Ca3Sc2(SiO4)3
_chemical_formula_sum   'Ca12 Sc8 Si12 O48'
_cell_volume   945.79682608
_cell_formula_units_Z   4
loop_
 _symmetry_equiv_pos_site_id
 _symmetry_equiv_pos_as_xyz
  1  'x, y, z'
loop_
 _atom_site_type_symbol
 _atom_site_label
 _atom_site_symmetry_multiplicity
 _atom_site_fract_x
 _atom_site_fract_y
 _atom_site_fract_z
 _atom_site_occupancy
  Ca  Ca0  1  0.75000000  0.12500000  0.37500000  1
  Ca  Ca1  1  0.25000000  0.37500000  0.12500000  1
  Ca  Ca2  1  0.12500000  0.25000000  0.37500000  1
  Ca  Ca3  1  0.37500000  0.75000000  0.12500000  1
  Ca  Ca4  1  0.75000000  0.62500000  0.87500000  1
  Ca  Ca5  1  0.12500000  0.37500000  0.75000000  1
  Ca  Ca6  1  0.62500000  0.87500000  0.75000000  1
  Ca  Ca7  1  0.25000000  0.87500000  0.62500000  1
  Ca  Ca8  1  0.87500000  0.62500000  0.25000000  1
  Ca  Ca9  1  0.62500000  0.25000000  0.87500000  1
  Ca  Ca10  1  0.87500000  0.75000000  0.62500000  1
  Ca  Ca11  1  0.37500000  0.12500000  0.25000000  1
  Sc  Sc0  1  0.00000000  0.00000000  0.00000000  1
  Sc  Sc1  1  0.50000000  0.00000000  0.00000000  1
  Sc  Sc2  1  0.00000000  0.50000000  0.00000000  1
  Sc  Sc3  1  0.50000000  0.50000000  0.00000000  1
  Sc  Sc4  1  0.00000000  0.50000000  0.50000000  1
  Sc  Sc5  1  0.50000000  0.00000000  0.50000000  1
  Sc  Sc6  1  0.50000000  0.50000000  0.50000000  1
  Sc  Sc7  1  0.00000000  0.00000000  0.50000000  1
  Si  Si0  1  0.12500000  0.87500000  0.25000000  1
  Si  Si1  1  0.87500000  0.12500000  0.75000000  1
  Si  Si2  1  0.25000000  0.62500000  0.37500000  1
  Si  Si3  1  0.37500000  0.25000000  0.62500000  1
  Si  Si4  1  0.75000000  0.87500000  0.12500000  1
  Si  Si5  1  0.12500000  0.75000000  0.87500000  1
  Si  Si6  1  0.37500000  0.62500000  0.75000000  1
  Si  Si7  1  0.62500000  0.75000000  0.37500000  1
  Si  Si8  1  0.87500000  0.25000000  0.12500000  1
  Si  Si9  1  0.25000000  0.12500000  0.87500000  1
  Si  Si10  1  0.75000000  0.37500000  0.62500000  1
  Si  Si11  1  0.62500000  0.37500000  0.25000000  1
  O  O0  1  0.49010700  0.38147500  0.29167200  1
  O  O1  1  0.30156500  0.89136800  0.00989300  1
  O  O2  1  0.60863200  0.91019700  0.11852500  1
  O  O3  1  0.58980300  0.19843500  0.20832800  1
  O  O4  1  0.11852500  0.00989300  0.20832800  1
  O  O5  1  0.19843500  0.20832800  0.58980300  1
  O  O6  1  0.19843500  0.49010700  0.60863200  1
  O  O7  1  0.20832800  0.58980300  0.19843500  1
  O  O8  1  0.38147500  0.58980300  0.89136800  1
  O  O9  1  0.91019700  0.29167200  0.30156500  1
  O  O10  1  0.29167200  0.30156500  0.91019700  1
  O  O11  1  0.20832800  0.11852500  0.00989300  1
  O  O12  1  0.49010700  0.60863200  0.19843500  1
  O  O13  1  0.89136800  0.38147500  0.58980300  1
  O  O14  1  0.00989300  0.20832800  0.11852500  1
  O  O15  1  0.60863200  0.19843500  0.49010700  1
  O  O16  1  0.58980300  0.89136800  0.38147500  1
  O  O17  1  0.00989300  0.30156500  0.89136800  1
  O  O18  1  0.91019700  0.11852500  0.60863200  1
  O  O19  1  0.61852500  0.41019700  0.10863200  1
  O  O20  1  0.11852500  0.60863200  0.91019700  1
  O  O21  1  0.29167200  0.49010700  0.38147500  1
  O  O22  1  0.89136800  0.00989300  0.30156500  1
  O  O23  1  0.30156500  0.91019700  0.29167200  1
  O  O24  1  0.50989300  0.61852500  0.70832800  1
  O  O25  1  0.69843500  0.10863200  0.99010700  1
  O  O26  1  0.39136800  0.08980300  0.88147500  1
  O  O27  1  0.41019700  0.80156500  0.79167200  1
  O  O28  1  0.88147500  0.99010700  0.79167200  1
  O  O29  1  0.80156500  0.79167200  0.41019700  1
  O  O30  1  0.80156500  0.50989300  0.39136800  1
  O  O31  1  0.79167200  0.41019700  0.80156500  1
  O  O32  1  0.69843500  0.08980300  0.70832800  1
  O  O33  1  0.10863200  0.99010700  0.69843500  1
  O  O34  1  0.70832800  0.50989300  0.61852500  1
  O  O35  1  0.61852500  0.70832800  0.50989300  1
  O  O36  1  0.88147500  0.39136800  0.08980300  1
  O  O37  1  0.08980300  0.88147500  0.39136800  1
  O  O38  1  0.99010700  0.69843500  0.10863200  1
  O  O39  1  0.41019700  0.10863200  0.61852500  1
  O  O40  1  0.39136800  0.80156500  0.50989300  1
  O  O41  1  0.99010700  0.79167200  0.88147500  1
  O  O42  1  0.10863200  0.61852500  0.41019700  1
  O  O43  1  0.50989300  0.39136800  0.80156500  1
  O  O44  1  0.79167200  0.88147500  0.99010700  1
  O  O45  1  0.70832800  0.69843500  0.08980300  1
  O  O46  1  0.08980300  0.70832800  0.69843500  1
  O  O47  1  0.38147500  0.29167200  0.49010700  1
loop_
_geom_bond_atom_site_label_1
_geom_bond_atom_site_label_2
_geom_bond_distance
_geom_bond_site_symmetry_2
Ca0 O15 2.413084 1_555
Ca0 O13 2.413084 1_555
Ca0 O22 2.413084 1_555
Ca0 O2 2.413084 1_545
Ca0 O18 2.557920 1_555
Ca0 O9 2.557920 1_555
Ca0 O3 2.557920 1_555
Ca0 O16 2.557920 1_545
Ca1 O21 2.413084 1_555
Ca1 O7 2.413084 1_555
Ca1 O11 2.413084 1_555
Ca1 O10 2.413084 1_554
Ca1 O0 2.557920 1_555
Ca1 O12 2.557920 1_555
Ca1 O14 2.557920 1_555
Ca1 O17 2.557920 1_554
Ca2 O47 2.413084 1_555
Ca2 O5 2.413084 1_555
Ca2 O14 2.413084 1_555
Ca2 O9 2.413084 1_455
Ca2 O21 2.557920 1_555
Ca2 O6 2.557920 1_555
Ca2 O4 2.557920 1_555
Ca2 O22 2.557920 1_455
Ca3 O12 2.413084 1_555
Ca3 O16 2.413084 1_555
Ca3 O1 2.413084 1_555
Ca3 O20 2.413084 1_554
Ca3 O2 2.557920 1_555
Ca3 O23 2.557920 1_555
Ca3 O7 2.557920 1_555
Ca3 O8 2.557920 1_554
Ca4 O31 2.413084 1_555
Ca4 O45 2.413084 1_556
Ca4 O34 2.413084 1_555
Ca4 O44 2.413084 1_555
Ca4 O41 2.557920 1_555
Ca4 O38 2.557920 1_556
Ca4 O43 2.557920 1_555
Ca4 O24 2.557920 1_555
Ca5 O6 2.413084 1_555
Ca5 O8 2.413084 1_555
Ca5 O17 2.413084 1_555
Ca5 O18 2.413084 1_455
Ca5 O10 2.557920 1_555
Ca5 O20 2.557920 1_555
Ca5 O5 2.557920 1_555
Ca5 O13 2.557920 1_455
Ca6 O27 2.413084 1_555
Ca6 O32 2.413084 1_565
Ca6 O24 2.413084 1_555
Ca6 O28 2.413084 1_555
Ca6 O44 2.557920 1_555
Ca6 O25 2.557920 1_565
Ca6 O40 2.557920 1_555
Ca6 O35 2.557920 1_555
Ca7 O42 2.413084 1_555
Ca7 O26 2.413084 1_565
Ca7 O33 2.413084 1_555
Ca7 O40 2.413084 1_555
Ca7 O39 2.557920 1_565
Ca7 O46 2.557920 1_555
Ca7 O27 2.557920 1_555
Ca7 O37 2.557920 1_555
Ca8 O19 2.413084 1_555
Ca8 O37 2.413084 1_655
Ca8 O38 2.413084 1_555
Ca8 O30 2.413084 1_555
Ca8 O42 2.557920 1_655
Ca8 O45 2.557920 1_555
Ca8 O29 2.557920 1_555
Ca8 O36 2.557920 1_555
Ca9 O39 2.413084 1_555
Ca9 O36 2.413084 1_556
Ca9 O25 2.413084 1_555
Ca9 O43 2.413084 1_555
Ca9 O19 2.557920 1_556
Ca9 O32 2.557920 1_555
Ca9 O31 2.557920 1_555
Ca9 O26 2.557920 1_555
Ca10 O29 2.413084 1_555
Ca10 O46 2.413084 1_655
Ca10 O35 2.413084 1_555
Ca10 O41 2.413084 1_555
Ca10 O28 2.557920 1_555
Ca10 O33 2.557920 1_655
Ca10 O30 2.557920 1_555
Ca10 O34 2.557920 1_555
Ca11 O0 2.413084 1_555
Ca11 O3 2.413084 1_555
Ca11 O4 2.413084 1_555
Ca11 O23 2.413084 1_545
Ca11 O47 2.557920 1_555
Ca11 O15 2.557920 1_555
Ca11 O11 2.557920 1_555
Ca11 O1 2.557920 1_545
O0 Si11 1.663550 1_555
O0 Sc6 2.113227 1_555
O1 Si5 1.663550 1_554
O1 Sc1 2.113227 1_565
O2 Si4 1.663550 1_555
O2 Sc1 2.113227 1_565
O3 Si11 1.663550 1_555
O3 Sc1 2.113227 1_555
O4 Si0 1.663550 1_545
O4 Sc0 2.113227 1_555
O5 Si3 1.663550 1_555
O5 Sc7 2.113227 1_555
O6 Si6 1.663550 1_555
O6 Sc4 2.113227 1_555
O7 Si2 1.663550 1_555
O7 Sc2 2.113227 1_555
O8 Si6 1.663550 1_555
O8 Sc3 2.113227 1_556
O9 Si8 1.663550 1_555
O9 Sc4 2.113227 1_655
O10 Si9 1.663550 1_555
O10 Sc3 2.113227 1_556
O11 Si9 1.663550 1_554
O11 Sc0 2.113227 1_555
O12 Si7 1.663550 1_555
O12 Sc3 2.113227 1_555
O13 Si10 1.663550 1_555
O13 Sc4 2.113227 1_655
O14 Si8 1.663550 1_455
O14 Sc0 2.113227 1_555
O15 Si10 1.663550 1_555
O15 Sc5 2.113227 1_555
O16 Si7 1.663550 1_555
O16 Sc5 2.113227 1_565
O17 Si1 1.663550 1_455
O17 Sc2 2.113227 1_556
O18 Si1 1.663550 1_555
O18 Sc7 2.113227 1_655
O19 Si11 1.663550 1_555
O19 Sc3 2.113227 1_555
O20 Si5 1.663550 1_555
O20 Sc2 2.113227 1_556
O21 Si2 1.663550 1_555
O21 Sc6 2.113227 1_555
O22 Si4 1.663550 1_545
O22 Sc7 2.113227 1_655
O23 Si0 1.663550 1_555
O23 Sc5 2.113227 1_565
O24 Si6 1.663550 1_555
O24 Sc6 2.113227 1_555
O25 Si8 1.663550 1_556
O25 Sc1 2.113227 1_556
O26 Si9 1.663550 1_555
O26 Sc1 2.113227 1_556
O27 Si6 1.663550 1_555
O27 Sc1 2.113227 1_566
O28 Si1 1.663550 1_565
O28 Sc0 2.113227 1_666
O29 Si7 1.663550 1_555
O29 Sc7 2.113227 1_665
O30 Si11 1.663550 1_555
O30 Sc4 2.113227 1_655
O31 Si10 1.663550 1_555
O31 Sc2 2.113227 1_656
O32 Si1 1.663550 1_555
O32 Sc5 2.113227 1_555
O33 Si9 1.663550 1_565
O33 Sc7 2.113227 1_565
O34 Si10 1.663550 1_555
O34 Sc6 2.113227 1_555
O35 Si7 1.663550 1_555
O35 Sc6 2.113227 1_555
O36 Si8 1.663550 1_555
O36 Sc2 2.113227 1_655
O37 Si0 1.663550 1_555
O37 Sc7 2.113227 1_565
O38 Si0 1.663550 1_655
O38 Sc2 2.113227 1_655
O39 Si3 1.663550 1_555
O39 Sc5 2.113227 1_555
O40 Si2 1.663550 1_555
O40 Sc5 2.113227 1_565
O41 Si5 1.663550 1_655
O41 Sc0 2.113227 1_666
O42 Si2 1.663550 1_555
O42 Sc4 2.113227 1_555
O43 Si3 1.663550 1_555
O43 Sc3 2.113227 1_556
O44 Si4 1.663550 1_556
O44 Sc0 2.113227 1_666
O45 Si4 1.663550 1_555
O45 Sc3 2.113227 1_555
O46 Si5 1.663550 1_555
O46 Sc4 2.113227 1_555
O47 Si3 1.663550 1_555
O47 Sc6 2.113227 1_555
