# generated using pymatgen
data_TiVO4
_symmetry_space_group_name_H-M   'P 1'
_cell_length_a   3.00334700
_cell_length_b   6.46329963
_cell_length_c   12.99959390
_cell_angle_alpha   90.00000000
_cell_angle_beta   90.00000000
_cell_angle_gamma   90.00000000
_symmetry_Int_Tables_number   1
_chemical_formula_structural   TiVO4
_chemical_formula_sum   'Ti4 V4 O16'
_cell_volume   252.34202735
_cell_formula_units_Z   4
loop_
 _symmetry_equiv_pos_site_id
 _symmetry_equiv_pos_as_xyz
  1  'x, y, z'
loop_
 _atom_site_type_symbol
 _atom_site_label
 _atom_site_symmetry_multiplicity
 _atom_site_fract_x
 _atom_site_fract_y
 _atom_site_fract_z
 _atom_site_occupancy
  Ti  Ti0  1  0.50000000  0.50000000  0.50000000  1
  Ti  Ti1  1  0.50000000  0.00000000  0.75000000  1
  Ti  Ti2  1  0.50000000  0.50000000  0.00000000  1
  Ti  Ti3  1  0.50000000  0.00000000  0.25000000  1
  V  V0  1  0.00000000  0.00000000  0.50000000  1
  V  V1  1  0.00000000  0.50000000  0.75000000  1
  V  V2  1  0.00000000  0.00000000  0.00000000  1
  V  V3  1  0.00000000  0.50000000  0.25000000  1
  O  O0  1  0.00000000  0.30084600  0.50000000  1
  O  O1  1  0.00000000  0.80084600  0.75000000  1
  O  O2  1  0.00000000  0.30084600  0.00000000  1
  O  O3  1  0.00000000  0.80084600  0.25000000  1
  O  O4  1  0.00000000  0.69915400  0.50000000  1
  O  O5  1  0.00000000  0.19915400  0.75000000  1
  O  O6  1  0.00000000  0.69915400  0.00000000  1
  O  O7  1  0.00000000  0.19915400  0.25000000  1
  O  O8  1  0.50000000  0.50000000  0.34807200  1
  O  O9  1  0.50000000  0.00000000  0.59807200  1
  O  O10  1  0.50000000  0.50000000  0.84807200  1
  O  O11  1  0.50000000  0.00000000  0.09807200  1
  O  O12  1  0.50000000  0.50000000  0.65192800  1
  O  O13  1  0.50000000  0.00000000  0.90192800  1
  O  O14  1  0.50000000  0.50000000  0.15192800  1
  O  O15  1  0.50000000  0.00000000  0.40192800  1
loop_
_geom_bond_atom_site_label_1
_geom_bond_atom_site_label_2
_geom_bond_distance
_geom_bond_site_symmetry_2
O0 V0 1.944458 1_555
O0 Ti0 1.977849 1_555
O0 Ti0 1.977849 1_455
O1 V1 1.944458 1_555
O1 Ti1 1.977849 1_565
O1 Ti1 1.977849 1_465
O2 V2 1.944458 1_555
O2 Ti2 1.977849 1_455
O2 Ti2 1.977849 1_555
O3 V3 1.944458 1_555
O3 Ti3 1.977849 1_565
O3 Ti3 1.977849 1_465
O4 V0 1.944458 1_565
O4 Ti0 1.977849 1_455
O4 Ti0 1.977849 1_555
O5 V1 1.944458 1_555
O5 Ti1 1.977849 1_555
O5 Ti1 1.977849 1_455
O6 V2 1.944458 1_565
O6 Ti2 1.977849 1_555
O6 Ti2 1.977849 1_455
O7 V3 1.944458 1_555
O7 Ti3 1.977849 1_455
O7 Ti3 1.977849 1_555
O8 V3 1.969869 1_555
O8 V3 1.969869 1_655
O8 Ti0 1.975002 1_555
O9 V0 1.969869 1_555
O9 V0 1.969869 1_655
O9 Ti1 1.975002 1_555
O10 V1 1.969869 1_555
O10 V1 1.969869 1_655
O10 Ti2 1.975002 1_556
O11 V2 1.969869 1_555
O11 V2 1.969869 1_655
O11 Ti3 1.975002 1_555
O12 V1 1.969869 1_555
O12 V1 1.969869 1_655
O12 Ti0 1.975002 1_555
O13 V2 1.969869 1_556
O13 V2 1.969869 1_656
O13 Ti1 1.975002 1_555
O14 V3 1.969869 1_555
O14 V3 1.969869 1_655
O14 Ti2 1.975002 1_555
O15 V0 1.969869 1_555
O15 V0 1.969869 1_655
O15 Ti3 1.975002 1_555
