# generated using pymatgen
data_K4Mg2H16S4O23
_symmetry_space_group_name_H-M   'P 1'
_cell_length_a   7.74878100
_cell_length_b   7.91794964
_cell_length_c   9.93595857
_cell_angle_alpha   83.72368114
_cell_angle_beta   84.39348530
_cell_angle_gamma   80.58496171
_symmetry_Int_Tables_number   1
_chemical_formula_structural   K4Mg2H16S4O23
_chemical_formula_sum   'K4 Mg2 H16 S4 O23'
_cell_volume   595.81540379
_cell_formula_units_Z   1
loop_
 _symmetry_equiv_pos_site_id
 _symmetry_equiv_pos_as_xyz
  1  'x, y, z'
loop_
 _atom_site_type_symbol
 _atom_site_label
 _atom_site_symmetry_multiplicity
 _atom_site_fract_x
 _atom_site_fract_y
 _atom_site_fract_z
 _atom_site_occupancy
  K  K0  1  0.38655600  0.92107700  0.72147900  1
  K  K1  1  0.91247800  0.41892600  0.71969200  1
  K  K2  1  0.08058900  0.60911100  0.29527900  1
  K  K3  1  0.58368800  0.10057000  0.24241700  1
  Mg  Mg0  1  0.99759900  0.99639100  0.94904200  1
  Mg  Mg1  1  0.51256700  0.50624900  0.49950500  1
  H  H0  1  0.91338700  0.92636800  0.27091000  1
  H  H1  1  0.97256700  0.89093600  0.68959700  1
  H  H2  1  0.34280200  0.82531900  0.38099100  1
  H  H3  1  0.32440400  0.79277900  0.02217900  1
  H  H4  1  0.45076600  0.72838400  0.26300900  1
  H  H5  1  0.20824500  0.66760600  0.97259400  1
  H  H6  1  0.18258300  0.65440500  0.62079500  1
  H  H7  1  0.28624600  0.55230300  0.73778300  1
  H  H8  1  0.72612000  0.44560800  0.25942600  1
  H  H9  1  0.82498100  0.34252600  0.37998100  1
  H  H10  1  0.79885200  0.32630300  0.02068400  1
  H  H11  1  0.54952400  0.26663200  0.74294300  1
  H  H12  1  0.66511700  0.22223100  0.96570700  1
  H  H13  1  0.66215600  0.18565800  0.61988700  1
  H  H14  1  0.04056200  0.06601300  0.27373900  1
  H  H15  1  0.05386600  0.07056900  0.68309400  1
  S  S0  1  0.74343600  0.76923300  0.61033300  1
  S  S1  1  0.72888800  0.73650400  0.10296700  1
  S  S2  1  0.26076800  0.26265700  0.89493400  1
  S  S3  1  0.24270500  0.24575500  0.40425700  1
  O  O0  1  0.99502600  0.99108200  0.74645500  1
  O  O1  1  0.82402700  0.83408600  0.99117100  1
  O  O2  1  0.77120600  0.78741700  0.23470600  1
  O  O3  1  0.94872700  0.75195400  0.61225200  1
  O  O4  1  0.53446300  0.78280300  0.09562400  1
  O  O5  1  0.20806700  0.78786600  0.99023700  1
  O  O6  1  0.67661600  0.71318000  0.75345900  1
  O  O7  1  0.72088700  0.62268800  0.52568300  1
  O  O8  1  0.39167600  0.70852400  0.35602600  1
  O  O9  1  0.30408600  0.62057400  0.64914500  1
  O  O10  1  0.78441700  0.54736500  0.09941100  1
  O  O11  1  0.21234500  0.44991300  0.90883500  1
  O  O12  1  0.70581700  0.37399000  0.34713400  1
  O  O13  1  0.61926700  0.29629600  0.65581800  1
  O  O14  1  0.78709800  0.21357600  0.99217200  1
  O  O15  1  0.33773400  0.35448000  0.47602100  1
  O  O16  1  0.27462500  0.29025200  0.25525500  1
  O  O17  1  0.45430600  0.20673100  0.90473400  1
  O  O18  1  0.05141300  0.28692700  0.44593000  1
  O  O19  1  0.21731900  0.22774300  0.75911000  1
  O  O20  1  0.15917800  0.15745500  0.99975600  1
  O  O21  1  0.31231400  0.06071700  0.44155100  1
  O  O22  1  0.00803400  0.95837100  0.31718900  1
loop_
_geom_bond_atom_site_label_1
_geom_bond_atom_site_label_2
_geom_bond_distance
_geom_bond_site_symmetry_2
K0 O6 2.584015 1_555
K0 O19 2.610828 1_565
K0 O9 2.747256 1_555
K0 O21 2.953221 1_565
K0 O0 2.984298 1_455
K0 S0 2.986344 1_555
K0 O5 3.048945 1_555
K0 O17 3.190986 1_565
K1 O19 2.627909 1_655
K1 O6 2.745755 1_555
K1 O7 2.760152 1_555
K1 O13 2.765129 1_555
K1 O3 2.782083 1_555
K1 O18 3.054757 1_655
K1 O14 3.155590 1_555
K1 O11 3.183039 1_655
K2 O2 2.662985 1_455
K2 O22 2.758639 1_555
K2 O16 2.766532 1_555
K2 O8 2.793491 1_555
K2 O18 2.843791 1_555
K3 O16 2.610123 1_555
K3 O2 2.665763 1_545
K3 O21 2.775582 1_555
K3 O12 2.832004 1_555
K3 O14 2.945588 1_554
K3 O4 3.135035 1_545
Mg0 O1 1.993384 1_555
Mg0 O0 2.020033 1_555
Mg0 O20 2.057686 1_665
Mg0 O5 2.157560 1_655
Mg0 O14 2.215467 1_565
Mg1 O15 1.997388 1_555
Mg1 O7 2.035870 1_555
Mg1 O8 2.178495 1_555
Mg1 O9 2.233008 1_555
Mg1 O12 2.240918 1_555
Mg1 O13 2.257439 1_555
H0 O22 0.982699 1_655
H0 K2 2.628879 1_655
H0 K3 2.722600 1_565
H1 O0 1.067951 1_555
H1 O3 1.454258 1_555
H2 O8 0.988627 1_555
H3 O5 0.992453 1_554
H3 K0 3.066889 1_554
H4 O8 0.998821 1_555
H5 O5 0.986641 1_555
H6 O9 0.995154 1_555
H6 K1 3.049075 1_455
H7 O9 0.991729 1_555
H8 O12 1.000056 1_555
H9 O12 0.993502 1_555
H10 O14 0.985978 1_554
H10 K1 3.078023 1_554
H11 O13 1.001135 1_555
H12 O14 0.995331 1_555
H12 K3 2.857619 1_556
H13 O13 0.977381 1_555
H14 O22 0.972061 1_545
H15 O0 0.975445 1_445
H15 K0 2.699516 1_545
H15 K1 2.844888 1_455
O1 S1 1.487630 1_556
O2 S1 1.491940 1_555
O3 S0 1.575987 1_555
O4 S1 1.498120 1_555
O6 S0 1.510209 1_555
O7 S0 1.546853 1_555
O10 S1 1.492297 1_555
O11 S2 1.486894 1_555
O15 S3 1.495318 1_555
O16 S3 1.489979 1_555
O17 S2 1.502151 1_555
O18 S3 1.492103 1_555
O19 S2 1.487225 1_555
O20 S2 1.504303 1_555
O21 S3 1.495535 1_555
