# generated using pymatgen
data_ReNCl4O3
_symmetry_space_group_name_H-M   'P 1'
_cell_length_a   10.88547600
_cell_length_b   10.03835200
_cell_length_c   15.75966290
_cell_angle_alpha   85.26084009
_cell_angle_beta   90.00000000
_cell_angle_gamma   90.00000000
_symmetry_Int_Tables_number   1
_chemical_formula_structural   ReNCl4O3
_chemical_formula_sum   'Re8 N8 Cl32 O24'
_cell_volume   1716.20608584
_cell_formula_units_Z   8
loop_
 _symmetry_equiv_pos_site_id
 _symmetry_equiv_pos_as_xyz
  1  'x, y, z'
loop_
 _atom_site_type_symbol
 _atom_site_label
 _atom_site_symmetry_multiplicity
 _atom_site_fract_x
 _atom_site_fract_y
 _atom_site_fract_z
 _atom_site_occupancy
  Re  Re0  1  0.21970700  0.58492000  0.78396800  1
  Re  Re1  1  0.76644700  0.78938400  0.96962500  1
  Re  Re2  1  0.26644700  0.21061600  0.53037500  1
  Re  Re3  1  0.78029300  0.41508000  0.21603200  1
  Re  Re4  1  0.23355300  0.21061600  0.03037500  1
  Re  Re5  1  0.28029300  0.58492000  0.28396800  1
  Re  Re6  1  0.71970700  0.41508000  0.71603200  1
  Re  Re7  1  0.73355300  0.78938400  0.46962500  1
  N  N0  1  0.85338500  0.14911800  0.52679300  1
  N  N1  1  0.50090900  0.18098500  0.25977600  1
  N  N2  1  0.35338500  0.85088200  0.97320700  1
  N  N3  1  0.14661500  0.85088200  0.47320700  1
  N  N4  1  0.49909100  0.81901500  0.74022400  1
  N  N5  1  0.64661500  0.14911800  0.02679300  1
  N  N6  1  0.99909100  0.18098500  0.75977600  1
  N  N7  1  0.00090900  0.81901500  0.24022400  1
  Cl  Cl0  1  0.09451300  0.07577200  0.60303800  1
  Cl  Cl1  1  0.69045700  0.14485200  0.19571100  1
  Cl  Cl2  1  0.19045700  0.85514800  0.30428900  1
  Cl  Cl3  1  0.90548700  0.92422800  0.39696200  1
  Cl  Cl4  1  0.40006400  0.53753500  0.86556400  1
  Cl  Cl5  1  0.14084200  0.61000000  0.17141700  1
  Cl  Cl6  1  0.64084200  0.39000000  0.32858300  1
  Cl  Cl7  1  0.87263000  0.38385200  0.08861200  1
  Cl  Cl8  1  0.85915800  0.39000000  0.82858300  1
  Cl  Cl9  1  0.65838200  0.82250600  0.09133000  1
  Cl  Cl10  1  0.35790800  0.17892700  0.66244700  1
  Cl  Cl11  1  0.40548700  0.07577200  0.10303800  1
  Cl  Cl12  1  0.33751200  0.96549800  0.51519500  1
  Cl  Cl13  1  0.34161800  0.17749400  0.90867000  1
  Cl  Cl14  1  0.62737000  0.38385200  0.58861200  1
  Cl  Cl15  1  0.09993600  0.53753500  0.36556400  1
  Cl  Cl16  1  0.16248800  0.96549800  0.01519500  1
  Cl  Cl17  1  0.30954300  0.85514800  0.80428900  1
  Cl  Cl18  1  0.37263000  0.61614800  0.41138800  1
  Cl  Cl19  1  0.35915800  0.61000000  0.67141700  1
  Cl  Cl20  1  0.59451300  0.92422800  0.89696200  1
  Cl  Cl21  1  0.90006400  0.46246500  0.63443600  1
  Cl  Cl22  1  0.83751200  0.03450200  0.98480500  1
  Cl  Cl23  1  0.64209200  0.82107300  0.33755300  1
  Cl  Cl24  1  0.80954300  0.14485200  0.69571100  1
  Cl  Cl25  1  0.12737000  0.61614800  0.91138800  1
  Cl  Cl26  1  0.66248800  0.03450200  0.48480500  1
  Cl  Cl27  1  0.84161800  0.82250600  0.59133000  1
  Cl  Cl28  1  0.85790800  0.82107300  0.83755300  1
  Cl  Cl29  1  0.15838200  0.17749400  0.40867000  1
  Cl  Cl30  1  0.59993600  0.46246500  0.13443600  1
  Cl  Cl31  1  0.14209200  0.17892700  0.16244700  1
  O  O0  1  0.88612800  0.31721300  0.27400900  1
  O  O1  1  0.01901400  0.11185000  0.81846200  1
  O  O2  1  0.38612800  0.68278700  0.22599100  1
  O  O3  1  0.69388700  0.64271600  0.95123800  1
  O  O4  1  0.85790000  0.25500800  0.49670200  1
  O  O5  1  0.32631800  0.42454100  0.27250700  1
  O  O6  1  0.98098600  0.88815000  0.18153800  1
  O  O7  1  0.40036800  0.26061400  0.47874300  1
  O  O8  1  0.30611300  0.35728400  0.04876200  1
  O  O9  1  0.67368200  0.57545900  0.72749300  1
  O  O10  1  0.59963200  0.73938600  0.52125700  1
  O  O11  1  0.35790000  0.74499200  0.00329800  1
  O  O12  1  0.09963200  0.26061400  0.97874300  1
  O  O13  1  0.48098600  0.11185000  0.31846200  1
  O  O14  1  0.90036800  0.73938600  0.02125700  1
  O  O15  1  0.11387200  0.68278700  0.72599100  1
  O  O16  1  0.64210000  0.25500800  0.99670200  1
  O  O17  1  0.80611300  0.64271600  0.45123800  1
  O  O18  1  0.82631800  0.57545900  0.22749300  1
  O  O19  1  0.17368200  0.42454100  0.77250700  1
  O  O20  1  0.61387200  0.31721300  0.77400900  1
  O  O21  1  0.14210000  0.74499200  0.50329800  1
  O  O22  1  0.19388700  0.35728400  0.54876200  1
  O  O23  1  0.51901400  0.88815000  0.68153800  1
loop_
_geom_bond_atom_site_label_1
_geom_bond_atom_site_label_2
_geom_bond_distance
_geom_bond_site_symmetry_2
N0 O4 1.128670 1_555
N1 O13 1.130486 1_555
N2 O11 1.128670 1_556
N3 O21 1.128670 1_555
N4 O23 1.130486 1_555
N5 O16 1.128670 1_554
N6 O1 1.130486 1_655
N7 O6 1.130486 1_455
Cl0 Re2 2.527906 1_555
Cl1 N1 2.338535 1_555
Cl1 Re3 2.925893 1_555
Cl2 N7 2.338535 1_555
Cl2 Re5 2.925893 1_555
Cl3 Re7 2.527906 1_555
Cl4 Re0 2.373442 1_555
Cl5 Re5 2.332409 1_555
Cl6 Re3 2.332409 1_555
Cl7 Re3 2.290202 1_555
Cl8 Re6 2.332409 1_555
Cl9 Re1 2.297507 1_554
Cl10 Re2 2.305486 1_555
Cl11 Re4 2.527906 1_555
Cl12 Re2 2.609095 1_565
Cl13 Re4 2.297507 1_556
Cl14 Re6 2.290202 1_555
Cl15 Re5 2.373442 1_555
Cl16 Re4 2.609095 1_565
Cl17 N4 2.338535 1_555
Cl17 Re0 2.925893 1_555
Cl18 Re5 2.290202 1_555
Cl19 Re0 2.332409 1_555
Cl20 Re1 2.527906 1_555
Cl21 Re6 2.373442 1_555
Cl22 Re1 2.609095 1_545
Cl23 Re7 2.305486 1_555
Cl24 N6 2.338535 1_555
Cl24 Re6 2.925893 1_555
Cl25 Re0 2.290202 1_555
Cl26 Re7 2.609095 1_545
Cl27 Re7 2.297507 1_555
Cl28 Re1 2.305486 1_555
Cl29 Re2 2.297507 1_555
Cl30 Re3 2.373442 1_555
Cl31 Re4 2.305486 1_555
O0 Re3 1.725957 1_555
O2 Re5 1.725957 1_555
O3 Re1 1.716395 1_555
O5 Re5 1.709850 1_555
O7 Re2 1.723860 1_555
O8 Re4 1.716395 1_555
O9 Re6 1.709850 1_555
O10 Re7 1.723860 1_555
O12 Re4 1.723860 1_556
O14 Re1 1.723860 1_554
O15 Re0 1.725957 1_555
O17 Re7 1.716395 1_555
O18 Re3 1.709850 1_555
O19 Re0 1.709850 1_555
O20 Re6 1.725957 1_555
O22 Re2 1.716395 1_555
