# generated using pymatgen
data_RbP(HO2)2
_symmetry_space_group_name_H-M   'P 1'
_cell_length_a   6.56492894
_cell_length_b   6.56492894
_cell_length_c   6.56492894
_cell_angle_alpha   108.94168475
_cell_angle_beta   108.94168475
_cell_angle_gamma   110.53556388
_symmetry_Int_Tables_number   1
_chemical_formula_structural   RbP(HO2)2
_chemical_formula_sum   'Rb2 P2 H4 O8'
_cell_volume   217.74868703
_cell_formula_units_Z   2
loop_
 _symmetry_equiv_pos_site_id
 _symmetry_equiv_pos_as_xyz
  1  'x, y, z'
loop_
 _atom_site_type_symbol
 _atom_site_label
 _atom_site_symmetry_multiplicity
 _atom_site_fract_x
 _atom_site_fract_y
 _atom_site_fract_z
 _atom_site_occupancy
  Rb  Rb0  1  0.75000000  0.25000000  0.50000000  1
  Rb  Rb1  1  0.50000000  0.50000000  0.00000000  1
  P  P0  1  0.25000000  0.75000000  0.50000000  1
  P  P1  1  0.00000000  0.00000000  0.00000000  1
  H  H0  1  0.12500000  0.74013300  0.11513300  1
  H  H1  1  0.62500000  0.00986700  0.88486700  1
  H  H2  1  0.25986700  0.37500000  0.38486700  1
  H  H3  1  0.99013300  0.87500000  0.61513300  1
  O  O0  1  0.27620900  0.72750300  0.26760300  1
  O  O1  1  0.97379100  0.74139500  0.95129500  1
  O  O2  1  0.45990000  0.00860500  0.73239700  1
  O  O3  1  0.79010000  0.02249700  0.04870500  1
  O  O4  1  0.27249700  0.54010000  0.54870500  1
  O  O5  1  0.97750300  0.02620900  0.76760300  1
  O  O6  1  0.99139500  0.72379100  0.45129500  1
  O  O7  1  0.25860500  0.20990000  0.23239700  1
loop_
_geom_bond_atom_site_label_1
_geom_bond_atom_site_label_2
_geom_bond_distance
_geom_bond_site_symmetry_2
H0 O1 1.208613 1_454
H0 O0 1.208613 1_555
H1 O2 1.208609 1_555
H1 O3 1.208609 1_556
H2 O7 1.208609 1_555
H2 O4 1.208609 1_555
H3 O6 1.208613 1_555
H3 O5 1.208613 1_565
O0 P0 1.555973 1_555
O0 Rb1 2.997852 1_555
O0 Rb0 3.131245 1_565
O1 P1 1.555967 1_666
O1 Rb0 2.997859 1_555
O1 Rb1 3.131242 1_556
O2 P0 1.555970 1_545
O2 Rb1 2.997857 1_556
O2 Rb0 3.131248 1_555
O3 P1 1.555970 1_655
O3 Rb0 2.997857 1_555
O3 Rb1 3.131248 1_545
O4 P0 1.555970 1_555
O4 Rb1 2.997857 1_556
O4 Rb0 3.131248 1_455
O5 P1 1.555973 1_656
O5 Rb0 2.997852 1_555
O5 Rb1 3.131245 1_656
O6 P0 1.555967 1_655
O6 Rb1 2.997859 1_555
O6 Rb0 3.131242 1_555
O7 P1 1.555970 1_555
O7 Rb0 2.997857 1_555
O7 Rb1 3.131248 1_555
