# generated using pymatgen
data_NbSe2
_symmetry_space_group_name_H-M   'P 1'
_cell_length_a   3.43764980
_cell_length_b   3.43764980
_cell_length_c   29.27351900
_cell_angle_alpha   90.00000000
_cell_angle_beta   90.00000000
_cell_angle_gamma   119.99999618
_symmetry_Int_Tables_number   1
_chemical_formula_structural   NbSe2
_chemical_formula_sum   'Nb4 Se8'
_cell_volume   299.59105734
_cell_formula_units_Z   4
loop_
 _symmetry_equiv_pos_site_id
 _symmetry_equiv_pos_as_xyz
  1  'x, y, z'
loop_
 _atom_site_type_symbol
 _atom_site_label
 _atom_site_symmetry_multiplicity
 _atom_site_fract_x
 _atom_site_fract_y
 _atom_site_fract_z
 _atom_site_occupancy
  Nb  Nb0  1  0.33333300  0.66666700  0.00000000  1
  Nb  Nb1  1  0.33333300  0.66666700  0.25444300  1
  Nb  Nb2  1  0.66666700  0.33333300  0.50000000  1
  Nb  Nb3  1  0.33333300  0.66666700  0.74555700  1
  Se  Se0  1  0.33333300  0.66666700  0.08245400  1
  Se  Se1  1  0.00000000  0.00000000  0.44179800  1
  Se  Se2  1  0.00000000  0.00000000  0.80375500  1
  Se  Se3  1  0.66666700  0.33333300  0.31276100  1
  Se  Se4  1  0.00000000  0.00000000  0.55820200  1
  Se  Se5  1  0.00000000  0.00000000  0.19624500  1
  Se  Se6  1  0.33333300  0.66666700  0.91754600  1
  Se  Se7  1  0.66666700  0.33333300  0.68723900  1
loop_
_geom_bond_atom_site_label_1
_geom_bond_atom_site_label_2
_geom_bond_distance
_geom_bond_site_symmetry_2
Nb0 Se0 2.413719 1_555
Nb0 Se6 2.413719 1_554
Nb1 Se5 2.615644 1_565
Nb1 Se5 2.615647 1_665
Nb1 Se5 2.615647 1_555
Nb1 Se3 2.617934 1_455
Nb1 Se3 2.617934 1_565
Nb1 Se3 2.617938 1_555
Nb2 Se4 2.615721 1_655
Nb2 Se1 2.615721 1_655
Nb2 Se4 2.615723 1_665
Nb2 Se4 2.615723 1_555
Nb2 Se1 2.615723 1_555
Nb2 Se1 2.615723 1_665
Nb3 Se2 2.615644 1_565
Nb3 Se2 2.615647 1_665
Nb3 Se2 2.615647 1_555
Nb3 Se7 2.617934 1_455
Nb3 Se7 2.617934 1_565
Nb3 Se7 2.617938 1_555
