# generated using pymatgen
data_In(HO)3
_symmetry_space_group_name_H-M   'P 1'
_cell_length_a   6.91043259
_cell_length_b   6.91043260
_cell_length_c   6.91043195
_cell_angle_alpha   109.67157319
_cell_angle_beta   109.67157316
_cell_angle_gamma   109.67157366
_symmetry_Int_Tables_number   1
_chemical_formula_structural   In(HO)3
_chemical_formula_sum   'In4 H12 O12'
_cell_volume   252.13312880
_cell_formula_units_Z   4
loop_
 _symmetry_equiv_pos_site_id
 _symmetry_equiv_pos_as_xyz
  1  'x, y, z'
loop_
 _atom_site_type_symbol
 _atom_site_label
 _atom_site_symmetry_multiplicity
 _atom_site_fract_x
 _atom_site_fract_y
 _atom_site_fract_z
 _atom_site_occupancy
  In  In0  1  0.50000000  0.00000000  0.00000000  1
  In  In1  1  0.00000000  0.50000000  0.00000000  1
  In  In2  1  0.00000000  0.00000000  0.50000000  1
  In  In3  1  0.50000000  0.50000000  0.50000000  1
  H  H0  1  0.45173923  0.82596194  0.27691496  1
  H  H1  1  0.54826077  0.17403806  0.72308504  1
  H  H2  1  0.31375178  0.04288889  0.35709420  1
  H  H3  1  0.68624822  0.95711111  0.64290580  1
  H  H4  1  0.82596194  0.27691496  0.45173923  1
  H  H5  1  0.17403806  0.72308504  0.54826077  1
  H  H6  1  0.04288889  0.35709420  0.31375178  1
  H  H7  1  0.95711111  0.64290580  0.68624822  1
  H  H8  1  0.27691496  0.45173923  0.82596194  1
  H  H9  1  0.72308504  0.54826077  0.17403806  1
  H  H10  1  0.35709420  0.31375178  0.04288889  1
  H  H11  1  0.64290580  0.68624822  0.95711111  1
  O  O0  1  0.32624156  0.83149411  0.15997256  1
  O  O1  1  0.67375844  0.16850589  0.84002744  1
  O  O2  1  0.31797832  0.16695098  0.48672798  1
  O  O3  1  0.68202168  0.83304902  0.51327202  1
  O  O4  1  0.83149411  0.15997256  0.32624156  1
  O  O5  1  0.16850589  0.84002744  0.67375844  1
  O  O6  1  0.16695098  0.48672798  0.31797832  1
  O  O7  1  0.83304902  0.51327202  0.68202168  1
  O  O8  1  0.15997256  0.32624156  0.83149411  1
  O  O9  1  0.84002744  0.67375844  0.16850589  1
  O  O10  1  0.48672798  0.31797832  0.16695098  1
  O  O11  1  0.51327202  0.68202168  0.83304902  1
loop_
_geom_bond_atom_site_label_1
_geom_bond_atom_site_label_2
_geom_bond_distance
_geom_bond_site_symmetry_2
In0 O10 2.160558 1_555
In0 O11 2.160558 1_544
In0 O4 2.166204 1_555
In0 O5 2.166204 1_544
In0 O1 2.199730 1_554
In0 O0 2.199730 1_545
In1 O6 2.160558 1_555
In1 O7 2.160558 1_454
In1 O0 2.166204 1_555
In1 O1 2.166204 1_454
In1 O8 2.199730 1_554
In1 O9 2.199730 1_455
In2 O2 2.160558 1_555
In2 O3 2.160558 1_445
In2 O8 2.166204 1_555
In2 O9 2.166204 1_445
In2 O5 2.199730 1_545
In2 O4 2.199730 1_455
In3 O11 2.172263 1_555
In3 O10 2.172263 1_555
In3 O7 2.172263 1_555
In3 O6 2.172263 1_555
In3 O3 2.172263 1_555
In3 O2 2.172263 1_555
H0 O0 0.988894 1_555
H1 O1 0.988894 1_555
H2 O2 0.993386 1_555
H3 O3 0.993386 1_555
H4 O4 0.988894 1_555
H5 O5 0.988894 1_555
H6 O6 0.993386 1_555
H7 O7 0.993386 1_555
H8 O8 0.988894 1_555
H9 O9 0.988894 1_555
H10 O10 0.993386 1_555
H11 O11 0.993386 1_555
