# generated using pymatgen
data_U11Se20
_symmetry_space_group_name_H-M   'P 1'
_cell_length_a   15.13096800
_cell_length_b   15.13096800
_cell_length_c   6.71347000
_cell_angle_alpha   90.00000000
_cell_angle_beta   90.00000000
_cell_angle_gamma   90.00000000
_symmetry_Int_Tables_number   1
_chemical_formula_structural   U11Se20
_chemical_formula_sum   'U22 Se40'
_cell_volume   1537.02339575
_cell_formula_units_Z   2
loop_
 _symmetry_equiv_pos_site_id
 _symmetry_equiv_pos_as_xyz
  1  'x, y, z'
loop_
 _atom_site_type_symbol
 _atom_site_label
 _atom_site_symmetry_multiplicity
 _atom_site_fract_x
 _atom_site_fract_y
 _atom_site_fract_z
 _atom_site_occupancy
  U  U0  1  0.50000000  0.50000000  0.14490400  1
  U  U1  1  0.90617700  0.75636800  0.25103400  1
  U  U2  1  0.40345800  0.25309900  0.25032900  1
  U  U3  1  0.74690100  0.40345800  0.25032900  1
  U  U4  1  0.24363200  0.90617700  0.25103400  1
  U  U5  1  0.59654200  0.74690100  0.25032900  1
  U  U6  1  0.09382300  0.24363200  0.25103400  1
  U  U7  1  0.75636800  0.09382300  0.25103400  1
  U  U8  1  0.25309900  0.59654200  0.25032900  1
  U  U9  1  0.00000000  0.50000000  0.35480500  1
  U  U10  1  0.50000000  0.00000000  0.35480500  1
  U  U11  1  0.00000000  0.00000000  0.64490400  1
  U  U12  1  0.75309900  0.90345800  0.75032900  1
  U  U13  1  0.25636800  0.40617700  0.75103400  1
  U  U14  1  0.74363200  0.59382300  0.75103400  1
  U  U15  1  0.59382300  0.25636800  0.75103400  1
  U  U16  1  0.90345800  0.24690100  0.75032900  1
  U  U17  1  0.24690100  0.09654200  0.75032900  1
  U  U18  1  0.40617700  0.74363200  0.75103400  1
  U  U19  1  0.09654200  0.75309900  0.75032900  1
  U  U20  1  0.00000000  0.50000000  0.85480500  1
  U  U21  1  0.50000000  0.00000000  0.85480500  1
  Se  Se0  1  0.24844200  0.25025800  0.00284800  1
  Se  Se1  1  0.74974200  0.24844200  0.00284800  1
  Se  Se2  1  0.25025800  0.75155800  0.00284800  1
  Se  Se3  1  0.55979300  0.14855800  0.11127100  1
  Se  Se4  1  0.64886900  0.94057800  0.11208600  1
  Se  Se5  1  0.05942200  0.64886900  0.11208600  1
  Se  Se6  1  0.85144200  0.55979300  0.11127100  1
  Se  Se7  1  0.14855800  0.44020700  0.11127100  1
  Se  Se8  1  0.94057800  0.35113100  0.11208600  1
  Se  Se9  1  0.35113100  0.05942200  0.11208600  1
  Se  Se10  1  0.44020700  0.85144200  0.11127100  1
  Se  Se11  1  0.64838500  0.56050300  0.38446000  1
  Se  Se12  1  0.93864300  0.14896800  0.38991600  1
  Se  Se13  1  0.14896800  0.06135700  0.38991600  1
  Se  Se14  1  0.43949700  0.64838500  0.38446000  1
  Se  Se15  1  0.85103200  0.93864300  0.38991600  1
  Se  Se16  1  0.35161500  0.43949700  0.38446000  1
  Se  Se17  1  0.56050300  0.35161500  0.38446000  1
  Se  Se18  1  0.06135700  0.85103200  0.38991600  1
  Se  Se19  1  0.75025800  0.74844200  0.50284800  1
  Se  Se20  1  0.24974200  0.25155800  0.50284800  1
  Se  Se21  1  0.74844200  0.24974200  0.50284800  1
  Se  Se22  1  0.25155800  0.75025800  0.50284800  1
  Se  Se23  1  0.94020700  0.64855800  0.61127100  1
  Se  Se24  1  0.44057800  0.14886900  0.61208600  1
  Se  Se25  1  0.64855800  0.05979300  0.61127100  1
  Se  Se26  1  0.55942200  0.85113100  0.61208600  1
  Se  Se27  1  0.85113100  0.44057800  0.61208600  1
  Se  Se28  1  0.14886900  0.55942200  0.61208600  1
  Se  Se29  1  0.35144200  0.94020700  0.61127100  1
  Se  Se30  1  0.05979300  0.35144200  0.61127100  1
  Se  Se31  1  0.56135700  0.64896800  0.88991600  1
  Se  Se32  1  0.06050300  0.14838500  0.88446000  1
  Se  Se33  1  0.64896800  0.43864300  0.88991600  1
  Se  Se34  1  0.85161500  0.06050300  0.88446000  1
  Se  Se35  1  0.93949700  0.85161500  0.88446000  1
  Se  Se36  1  0.35103200  0.56135700  0.88991600  1
  Se  Se37  1  0.14838500  0.93949700  0.88446000  1
  Se  Se38  1  0.43864300  0.35103200  0.88991600  1
  Se  Se39  1  0.75155800  0.74974200  0.00284800  1
loop_
_geom_bond_atom_site_label_1
_geom_bond_atom_site_label_2
_geom_bond_distance
_geom_bond_site_symmetry_2
Se0 U6 2.873963 1_555
Se0 U2 2.874692 1_555
Se0 U17 2.878228 1_554
Se0 U13 2.904854 1_554
Se1 U7 2.873963 1_555
Se1 U3 2.874692 1_555
Se1 U16 2.878228 1_554
Se1 U15 2.904854 1_554
Se2 U4 2.873963 1_555
Se2 U8 2.874692 1_555
Se2 U19 2.878228 1_554
Se2 U18 2.904854 1_554
Se3 U10 2.923070 1_555
Se3 U15 2.962267 1_554
Se3 U21 2.972502 1_554
Se3 U2 2.994869 1_555
Se3 U7 3.226946 1_555
Se4 U10 2.921905 1_565
Se4 U12 2.949750 1_554
Se4 U21 2.977531 1_564
Se4 U7 2.982021 1_565
Se4 U5 3.174300 1_555
Se5 U9 2.921905 1_555
Se5 U19 2.949750 1_554
Se5 U20 2.977531 1_554
Se5 U1 2.982021 1_455
Se5 U8 3.174300 1_555
Se6 U9 2.923070 1_655
Se6 U14 2.962267 1_554
Se6 U20 2.972502 1_654
Se6 U3 2.994869 1_555
Se6 U1 3.226946 1_555
Se7 U9 2.923070 1_555
Se7 U13 2.962267 1_554
Se7 U20 2.972502 1_554
Se7 U8 2.994869 1_555
Se7 U6 3.226946 1_555
Se8 U9 2.921905 1_655
Se8 U16 2.949750 1_554
Se8 U20 2.977531 1_654
Se8 U6 2.982021 1_655
Se8 U3 3.174300 1_555
Se9 U10 2.921905 1_555
Se9 U17 2.949750 1_554
Se9 U21 2.977531 1_554
Se9 U4 2.982021 1_545
Se9 U2 3.174300 1_555
Se10 U10 2.923070 1_565
Se10 U18 2.962267 1_554
Se10 U21 2.972502 1_564
Se10 U5 2.994869 1_555
Se10 U4 3.226946 1_555
Se11 U14 2.896139 1_555
Se11 U0 2.909557 1_555
Se11 U3 2.946085 1_555
Se11 U5 3.062804 1_555
Se12 U16 2.886831 1_555
Se12 U6 2.904169 1_655
Se12 U11 2.978759 1_655
Se12 U7 3.028548 1_555
Se13 U17 2.886831 1_555
Se13 U4 2.904169 1_545
Se13 U11 2.978759 1_555
Se13 U6 3.028548 1_555
Se14 U18 2.896139 1_555
Se14 U0 2.909557 1_555
Se14 U5 2.946085 1_555
Se14 U8 3.062804 1_555
Se15 U12 2.886831 1_555
Se15 U7 2.904169 1_565
Se15 U11 2.978759 1_665
Se15 U1 3.028548 1_555
Se16 U13 2.896139 1_555
Se16 U0 2.909557 1_555
Se16 U8 2.946085 1_555
Se16 U2 3.062804 1_555
Se17 U15 2.896139 1_555
Se17 U0 2.909557 1_555
Se17 U2 2.946085 1_555
Se17 U3 3.062804 1_555
Se18 U19 2.886831 1_555
Se18 U1 2.904169 1_455
Se18 U11 2.978759 1_565
Se18 U4 3.028548 1_555
Se19 U14 2.873963 1_555
Se19 U12 2.874692 1_555
Se19 U5 2.878228 1_555
Se19 U1 2.904854 1_555
Se20 U13 2.873963 1_555
Se20 U17 2.874692 1_555
Se20 U2 2.878228 1_555
Se20 U6 2.904854 1_555
Se21 U15 2.873963 1_555
Se21 U16 2.874692 1_555
Se21 U3 2.878228 1_555
Se21 U7 2.904854 1_555
Se22 U18 2.873963 1_555
Se22 U19 2.874692 1_555
Se22 U8 2.878228 1_555
Se22 U4 2.904854 1_555
Se23 U20 2.923070 1_655
Se23 U1 2.962267 1_555
Se23 U9 2.972502 1_655
Se23 U19 2.994869 1_655
Se23 U14 3.226946 1_555
Se24 U21 2.921905 1_555
Se24 U2 2.949750 1_555
Se24 U10 2.977531 1_555
Se24 U15 2.982021 1_555
Se24 U17 3.174300 1_555
Se25 U21 2.923070 1_555
Se25 U7 2.962267 1_555
Se25 U10 2.972502 1_555
Se25 U12 2.994869 1_545
Se25 U15 3.226946 1_555
Se26 U21 2.921905 1_565
Se26 U5 2.949750 1_555
Se26 U10 2.977531 1_565
Se26 U18 2.982021 1_555
Se26 U12 3.174300 1_555
Se27 U20 2.921905 1_655
Se27 U3 2.949750 1_555
Se27 U9 2.977531 1_655
Se27 U14 2.982021 1_555
Se27 U16 3.174300 1_555
Se28 U20 2.921905 1_555
Se28 U8 2.949750 1_555
Se28 U9 2.977531 1_555
Se28 U13 2.982021 1_555
Se28 U19 3.174300 1_555
Se29 U21 2.923070 1_565
Se29 U4 2.962267 1_555
Se29 U10 2.972502 1_565
Se29 U17 2.994869 1_565
Se29 U18 3.226946 1_555
Se30 U20 2.923070 1_555
Se30 U6 2.962267 1_555
Se30 U9 2.972502 1_555
Se30 U16 2.994869 1_455
Se30 U13 3.226946 1_555
Se31 U5 2.886831 1_556
Se31 U18 2.904169 1_555
Se31 U0 2.978759 1_556
Se31 U14 3.028548 1_555
Se32 U6 2.896139 1_556
Se32 U11 2.909557 1_555
Se32 U16 2.946085 1_455
Se32 U17 3.062804 1_555
Se33 U3 2.886831 1_556
Se33 U14 2.904169 1_555
Se33 U0 2.978759 1_556
Se33 U15 3.028548 1_555
Se34 U7 2.896139 1_556
Se34 U11 2.909557 1_655
Se34 U12 2.946085 1_545
Se34 U16 3.062804 1_555
Se35 U1 2.896139 1_556
Se35 U11 2.909557 1_665
Se35 U19 2.946085 1_655
Se35 U12 3.062804 1_555
Se36 U8 2.886831 1_556
Se36 U13 2.904169 1_555
Se36 U0 2.978759 1_556
Se36 U18 3.028548 1_555
Se37 U4 2.896139 1_556
Se37 U11 2.909557 1_565
Se37 U17 2.946085 1_565
Se37 U19 3.062804 1_555
Se38 U2 2.886831 1_556
Se38 U15 2.904169 1_555
Se38 U0 2.978759 1_556
Se38 U13 3.028548 1_555
Se39 U1 2.873963 1_555
Se39 U5 2.874692 1_555
Se39 U12 2.878228 1_554
Se39 U14 2.904854 1_554
