# generated using pymatgen
data_SrNd7Fe8(AsO)8
_symmetry_space_group_name_H-M   'P 1'
_cell_length_a   11.01732167
_cell_length_b   11.01732167
_cell_length_c   11.01732167
_cell_angle_alpha   136.33732725
_cell_angle_beta   136.33732725
_cell_angle_gamma   63.45925098
_symmetry_Int_Tables_number   1
_chemical_formula_structural   SrNd7Fe8(AsO)8
_chemical_formula_sum   'Sr1 Nd7 Fe8 As8 O8'
_cell_volume   629.18419941
_cell_formula_units_Z   1
loop_
 _symmetry_equiv_pos_site_id
 _symmetry_equiv_pos_as_xyz
  1  'x, y, z'
loop_
 _atom_site_type_symbol
 _atom_site_label
 _atom_site_symmetry_multiplicity
 _atom_site_fract_x
 _atom_site_fract_y
 _atom_site_fract_z
 _atom_site_occupancy
  Sr  Sr0  1  0.30883700  0.30883700  0.00000000  1
  Nd  Nd0  1  0.18712200  0.18712200  0.50202700  1
  Nd  Nd1  1  0.68509600  0.18712200  0.00000000  1
  Nd  Nd2  1  0.31440400  0.81440400  0.50000000  1
  Nd  Nd3  1  0.81262600  0.81262600  0.00000000  1
  Nd  Nd4  1  0.18712200  0.68509600  0.00000000  1
  Nd  Nd5  1  0.68509600  0.68509600  0.49797300  1
  Nd  Nd6  1  0.81440400  0.31440400  0.50000000  1
  Fe  Fe0  1  0.62441600  0.37465500  0.75023900  1
  Fe  Fe1  1  0.12513700  0.37495800  0.24982100  1
  Fe  Fe2  1  0.87417700  0.62441600  0.24976100  1
  Fe  Fe3  1  0.37465500  0.62441600  0.75023900  1
  Fe  Fe4  1  0.62441600  0.87417700  0.24976100  1
  Fe  Fe5  1  0.12513700  0.87531600  0.75017900  1
  Fe  Fe6  1  0.87531600  0.12513700  0.75017900  1
  Fe  Fe7  1  0.37495800  0.12513700  0.24982100  1
  As  As0  1  0.96151300  0.46298600  0.00000000  1
  As  As1  1  0.46298600  0.46298600  0.50147200  1
  As  As2  1  0.53648200  0.53648200  0.00000000  1
  As  As3  1  0.03760400  0.53760400  0.50000000  1
  As  As4  1  0.96151300  0.96151300  0.49852800  1
  As  As5  1  0.46298600  0.96151300  0.00000000  1
  As  As6  1  0.53760400  0.03760400  0.50000000  1
  As  As7  1  0.03719000  0.03719000  0.00000000  1
  O  O0  1  0.12186000  0.87434300  0.24751700  1
  O  O1  1  0.62682600  0.87434300  0.75248300  1
  O  O2  1  0.37816400  0.11898800  0.74082400  1
  O  O3  1  0.87434300  0.12186000  0.24751700  1
  O  O4  1  0.11898800  0.37816400  0.74082400  1
  O  O5  1  0.63733900  0.37816400  0.25917600  1
  O  O6  1  0.37816400  0.63733900  0.25917600  1
  O  O7  1  0.87434300  0.62682600  0.75248300  1
loop_
_geom_bond_atom_site_label_1
_geom_bond_atom_site_label_2
_geom_bond_distance
_geom_bond_site_symmetry_2
Nd0 O4 2.312751 1_555
Nd0 O2 2.312751 1_555
Nd0 O3 2.360377 1_455
Nd0 O0 2.360377 1_545
Nd1 O2 2.312759 1_554
Nd1 O5 2.312767 1_555
Nd1 O3 2.360378 1_555
Nd1 O1 2.360378 1_544
Nd2 O6 2.306944 1_555
Nd2 O2 2.306945 1_565
Nd2 O0 2.354179 1_555
Nd2 O1 2.354179 1_555
Nd3 O1 2.334827 1_554
Nd3 O7 2.334827 1_554
Nd3 O3 2.334827 1_565
Nd3 O0 2.334827 1_655
Nd4 O4 2.312759 1_554
Nd4 O6 2.312767 1_555
Nd4 O7 2.360378 1_454
Nd4 O0 2.360378 1_555
Nd5 O6 2.312761 1_555
Nd5 O5 2.312761 1_555
Nd5 O1 2.360386 1_555
Nd5 O7 2.360386 1_555
Nd6 O5 2.306944 1_555
Nd6 O4 2.306945 1_655
Nd6 O3 2.354179 1_555
Nd6 O7 2.354179 1_555
As0 Fe2 2.623267 1_555
As0 Fe0 2.623267 1_554
As0 Fe6 2.624255 1_554
As0 Fe1 2.624255 1_655
As0 Sr0 3.423342 1_655
As0 Nd3 3.447100 1_555
As0 Nd2 3.472525 1_655
As0 Nd6 3.472525 1_554
As1 Fe0 2.623276 1_555
As1 Fe3 2.623276 1_555
As1 Fe7 2.624258 1_555
As1 Fe1 2.624258 1_555
As1 Sr0 3.423333 1_555
As1 Nd3 3.447100 1_556
As1 Nd2 3.472520 1_555
As1 Nd6 3.472520 1_555
As2 Fe3 2.627620 1_554
As2 Fe0 2.627620 1_554
As2 Fe4 2.627620 1_555
As2 Fe2 2.627620 1_555
As2 Nd5 3.444370 1_555
As2 Nd4 3.444380 1_555
As2 Nd1 3.444380 1_555
As2 Nd0 3.444380 1_554
As3 Fe3 2.617550 1_555
As3 Fe2 2.617550 1_455
As3 Fe1 2.625586 1_555
As3 Fe5 2.625586 1_555
As3 Nd5 3.465730 1_455
As3 Nd1 3.465735 1_455
As3 Nd4 3.465735 1_556
As3 Nd0 3.465740 1_555
As4 Fe4 2.623264 1_555
As4 Fe2 2.623264 1_555
As4 Fe6 2.624246 1_565
As4 Fe5 2.624246 1_655
As4 Sr0 3.423342 1_666
As4 Nd3 3.447110 1_555
As4 Nd6 3.472530 1_565
As4 Nd2 3.472530 1_655
As5 Fe4 2.623267 1_555
As5 Fe3 2.623267 1_554
As5 Fe5 2.624255 1_554
As5 Fe7 2.624255 1_565
As5 Sr0 3.423342 1_565
As5 Nd3 3.447100 1_555
As5 Nd6 3.472525 1_565
As5 Nd2 3.472525 1_554
As6 Fe0 2.617550 1_555
As6 Fe4 2.617550 1_545
As6 Fe7 2.625586 1_555
As6 Fe6 2.625586 1_555
As6 Nd5 3.465730 1_545
As6 Nd4 3.465735 1_545
As6 Nd1 3.465735 1_556
As6 Nd0 3.465740 1_555
As7 Fe1 2.628156 1_555
As7 Fe7 2.628156 1_555
As7 Fe6 2.628156 1_454
As7 Fe5 2.628156 1_544
As7 Nd5 3.471294 1_444
As7 Nd4 3.471294 1_545
As7 Nd1 3.471294 1_455
As7 Nd0 3.471304 1_555
O2 Sr0 2.489647 1_556
O4 Sr0 2.489647 1_556
O5 Sr0 2.489638 1_555
O6 Sr0 2.489638 1_555
