# generated using pymatgen
data_BaCa4(CoN2)2
_symmetry_space_group_name_H-M   'P 1'
_cell_length_a   8.37600700
_cell_length_b   8.37600700
_cell_length_c   12.10942000
_cell_angle_alpha   90.00000000
_cell_angle_beta   90.00000000
_cell_angle_gamma   90.00000000
_symmetry_Int_Tables_number   1
_chemical_formula_structural   BaCa4(CoN2)2
_chemical_formula_sum   'Ba4 Ca16 Co8 N16'
_cell_volume   849.56655208
_cell_formula_units_Z   4
loop_
 _symmetry_equiv_pos_site_id
 _symmetry_equiv_pos_as_xyz
  1  'x, y, z'
loop_
 _atom_site_type_symbol
 _atom_site_label
 _atom_site_symmetry_multiplicity
 _atom_site_fract_x
 _atom_site_fract_y
 _atom_site_fract_z
 _atom_site_occupancy
  Ba  Ba0  1  0.00000000  0.50000000  0.34219900  1
  Ba  Ba1  1  0.50000000  0.00000000  0.65780100  1
  Ba  Ba2  1  0.00000000  0.50000000  0.84219900  1
  Ba  Ba3  1  0.50000000  0.00000000  0.15780100  1
  Ca  Ca0  1  0.11940400  0.83378100  0.09554100  1
  Ca  Ca1  1  0.38059600  0.33378100  0.40445900  1
  Ca  Ca2  1  0.33378100  0.61940400  0.59554100  1
  Ca  Ca3  1  0.38059600  0.66621900  0.90445900  1
  Ca  Ca4  1  0.16621900  0.88059600  0.40445900  1
  Ca  Ca5  1  0.11940400  0.16621900  0.59554100  1
  Ca  Ca6  1  0.83378100  0.88059600  0.90445900  1
  Ca  Ca7  1  0.83378100  0.11940400  0.40445900  1
  Ca  Ca8  1  0.33378100  0.38059600  0.09554100  1
  Ca  Ca9  1  0.61940400  0.33378100  0.90445900  1
  Ca  Ca10  1  0.66621900  0.38059600  0.59554100  1
  Ca  Ca11  1  0.66621900  0.61940400  0.09554100  1
  Ca  Ca12  1  0.16621900  0.11940400  0.90445900  1
  Ca  Ca13  1  0.61940400  0.66621900  0.40445900  1
  Ca  Ca14  1  0.88059600  0.16621900  0.09554100  1
  Ca  Ca15  1  0.88059600  0.83378100  0.59554100  1
  Co  Co0  1  0.65613200  0.34386800  0.25000000  1
  Co  Co1  1  0.15613200  0.84386800  0.75000000  1
  Co  Co2  1  0.34386800  0.34386800  0.75000000  1
  Co  Co3  1  0.84386800  0.15613200  0.75000000  1
  Co  Co4  1  0.15613200  0.15613200  0.25000000  1
  Co  Co5  1  0.84386800  0.84386800  0.25000000  1
  Co  Co6  1  0.34386800  0.65613200  0.25000000  1
  Co  Co7  1  0.65613200  0.65613200  0.75000000  1
  N  N0  1  0.12273000  0.18118500  0.39504700  1
  N  N1  1  0.87727000  0.18118500  0.89504700  1
  N  N2  1  0.18118500  0.12273000  0.10495300  1
  N  N3  1  0.87727000  0.81881500  0.39504700  1
  N  N4  1  0.81881500  0.12273000  0.60495300  1
  N  N5  1  0.31881500  0.37727000  0.89504700  1
  N  N6  1  0.62273000  0.68118500  0.60495300  1
  N  N7  1  0.37727000  0.68118500  0.10495300  1
  N  N8  1  0.62273000  0.31881500  0.10495300  1
  N  N9  1  0.37727000  0.31881500  0.60495300  1
  N  N10  1  0.12273000  0.81881500  0.89504700  1
  N  N11  1  0.31881500  0.62273000  0.39504700  1
  N  N12  1  0.68118500  0.62273000  0.89504700  1
  N  N13  1  0.68118500  0.37727000  0.39504700  1
  N  N14  1  0.81881500  0.87727000  0.10495300  1
  N  N15  1  0.18118500  0.87727000  0.60495300  1
loop_
_geom_bond_atom_site_label_1
_geom_bond_atom_site_label_2
_geom_bond_distance
_geom_bond_site_symmetry_2
Ba0 N13 2.932119 1_455
Ba0 N0 2.932119 1_555
Ba0 N3 2.932119 1_455
Ba0 N11 2.932119 1_555
Ba1 N15 2.932119 1_545
Ba1 N6 2.932119 1_545
Ba1 N4 2.932119 1_555
Ba1 N9 2.932119 1_555
Ba2 N12 2.932119 1_455
Ba2 N10 2.932119 1_555
Ba2 N1 2.932119 1_455
Ba2 N5 2.932119 1_555
Ba3 N14 2.932119 1_545
Ba3 N7 2.932119 1_545
Ba3 N2 2.932119 1_555
Ba3 N8 2.932119 1_555
Ca0 N10 2.431260 1_554
Ca0 N2 2.477565 1_565
Ca0 N7 2.512321 1_555
Ca0 N14 2.546502 1_455
Ca1 N9 2.431260 1_555
Ca1 N11 2.477565 1_555
Ca1 N0 2.512321 1_555
Ca1 N13 2.546502 1_555
Ca2 N11 2.431260 1_555
Ca2 N6 2.477565 1_555
Ca2 N15 2.512321 1_555
Ca2 N9 2.546502 1_555
Ca3 N7 2.431260 1_556
Ca3 N5 2.477565 1_555
Ca3 N10 2.512321 1_555
Ca3 N12 2.546502 1_555
Ca4 N15 2.431260 1_555
Ca4 N3 2.477565 1_455
Ca4 N11 2.512321 1_555
Ca4 N0 2.546502 1_565
Ca5 N0 2.431260 1_555
Ca5 N15 2.477565 1_545
Ca5 N9 2.512321 1_555
Ca5 N4 2.546502 1_455
Ca6 N14 2.431260 1_556
Ca6 N10 2.477565 1_655
Ca6 N12 2.512321 1_555
Ca6 N1 2.546502 1_565
Ca7 N4 2.431260 1_555
Ca7 N0 2.477565 1_655
Ca7 N13 2.512321 1_555
Ca7 N3 2.546502 1_545
Ca8 N5 2.431260 1_554
Ca8 N8 2.477565 1_555
Ca8 N2 2.512321 1_555
Ca8 N7 2.546502 1_555
Ca9 N8 2.431260 1_556
Ca9 N12 2.477565 1_555
Ca9 N1 2.512321 1_555
Ca9 N5 2.546502 1_555
Ca10 N13 2.431260 1_555
Ca10 N9 2.477565 1_555
Ca10 N4 2.512321 1_555
Ca10 N6 2.546502 1_555
Ca11 N12 2.431260 1_554
Ca11 N7 2.477565 1_555
Ca11 N14 2.512321 1_555
Ca11 N8 2.546502 1_555
Ca12 N2 2.431260 1_556
Ca12 N1 2.477565 1_455
Ca12 N5 2.512321 1_555
Ca12 N10 2.546502 1_545
Ca13 N6 2.431260 1_555
Ca13 N13 2.477565 1_555
Ca13 N3 2.512321 1_555
Ca13 N11 2.546502 1_555
Ca14 N1 2.431260 1_554
Ca14 N14 2.477565 1_545
Ca14 N8 2.512321 1_555
Ca14 N2 2.546502 1_655
Ca15 N3 2.431260 1_555
Ca15 N4 2.477565 1_565
Ca15 N6 2.512321 1_555
Ca15 N15 2.546502 1_655
Co0 N13 1.790914 1_555
Co0 N8 1.790914 1_555
Co1 N10 1.790914 1_555
Co1 N15 1.790914 1_555
Co2 N9 1.790914 1_555
Co2 N5 1.790914 1_555
Co3 N1 1.790914 1_555
Co3 N4 1.790914 1_555
Co4 N0 1.790914 1_555
Co4 N2 1.790914 1_555
Co5 N14 1.790914 1_555
Co5 N3 1.790914 1_555
Co6 N7 1.790914 1_555
Co6 N11 1.790914 1_555
Co7 N6 1.790914 1_555
Co7 N12 1.790914 1_555
