# generated using pymatgen
data_FeS
_symmetry_space_group_name_H-M   'P 1'
_cell_length_a   6.73225847
_cell_length_b   6.73225847
_cell_length_c   5.36706500
_cell_angle_alpha   90.00000000
_cell_angle_beta   90.00000000
_cell_angle_gamma   120.00000466
_symmetry_Int_Tables_number   1
_chemical_formula_structural   FeS
_chemical_formula_sum   'Fe8 S8'
_cell_volume   210.66337110
_cell_formula_units_Z   8
loop_
 _symmetry_equiv_pos_site_id
 _symmetry_equiv_pos_as_xyz
  1  'x, y, z'
loop_
 _atom_site_type_symbol
 _atom_site_label
 _atom_site_symmetry_multiplicity
 _atom_site_fract_x
 _atom_site_fract_y
 _atom_site_fract_z
 _atom_site_occupancy
  Fe  Fe0  1  0.52944700  0.47055300  0.50075200  1
  Fe  Fe1  1  0.94110500  0.47055300  0.50075200  1
  Fe  Fe2  1  0.00000000  0.00000000  0.96202900  1
  Fe  Fe3  1  0.47055300  0.52944700  0.00075200  1
  Fe  Fe4  1  0.52944700  0.05889500  0.50075200  1
  Fe  Fe5  1  0.00000000  0.00000000  0.46202900  1
  Fe  Fe6  1  0.05889500  0.52944700  0.00075200  1
  Fe  Fe7  1  0.47055300  0.94110500  0.00075200  1
  S  S0  1  0.16553600  0.83446400  0.73902200  1
  S  S1  1  0.83446400  0.66892800  0.23902200  1
  S  S2  1  0.66892800  0.83446400  0.73902200  1
  S  S3  1  0.66666700  0.33333300  0.79773100  1
  S  S4  1  0.33107200  0.16553600  0.23902200  1
  S  S5  1  0.83446400  0.16553600  0.23902200  1
  S  S6  1  0.33333300  0.66666700  0.29773100  1
  S  S7  1  0.16553600  0.33107200  0.73902200  1
loop_
_geom_bond_atom_site_label_1
_geom_bond_atom_site_label_2
_geom_bond_distance
_geom_bond_site_symmetry_2
Fe0 S3 2.258486 1_555
Fe0 S4 2.287159 1_555
Fe0 S1 2.287159 1_555
Fe0 S2 2.493750 1_555
Fe0 S7 2.493750 1_555
Fe0 S6 2.533137 1_555
Fe1 S3 2.258477 1_555
Fe1 S1 2.287155 1_555
Fe1 S5 2.287160 1_555
Fe1 S0 2.493751 1_655
Fe1 S7 2.493755 1_655
Fe1 S6 2.533137 1_655
Fe2 S2 2.271216 1_445
Fe2 S7 2.271216 1_555
Fe2 S0 2.271216 1_545
Fe2 S4 2.436384 1_556
Fe2 S1 2.436384 1_446
Fe2 S5 2.436384 1_456
Fe3 S6 2.258486 1_555
Fe3 S2 2.287159 1_554
Fe3 S7 2.287159 1_554
Fe3 S1 2.493750 1_555
Fe3 S4 2.493750 1_555
Fe3 S3 2.533137 1_554
Fe4 S3 2.258477 1_555
Fe4 S4 2.287155 1_555
Fe4 S5 2.287160 1_555
Fe4 S0 2.493751 1_545
Fe4 S2 2.493755 1_545
Fe4 S6 2.533137 1_545
Fe5 S4 2.271216 1_555
Fe5 S1 2.271216 1_445
Fe5 S5 2.271216 1_455
Fe5 S7 2.436384 1_555
Fe5 S2 2.436384 1_445
Fe5 S0 2.436384 1_545
Fe6 S6 2.258477 1_555
Fe6 S7 2.287155 1_554
Fe6 S0 2.287160 1_554
Fe6 S5 2.493751 1_455
Fe6 S1 2.493755 1_455
Fe6 S3 2.533137 1_454
Fe7 S6 2.258477 1_555
Fe7 S2 2.287155 1_554
Fe7 S0 2.287160 1_554
Fe7 S5 2.493751 1_565
Fe7 S4 2.493755 1_565
Fe7 S3 2.533137 1_564
