# generated using pymatgen
data_Ba
_symmetry_space_group_name_H-M   'P 1'
_cell_length_a   8.62090332
_cell_length_b   8.62555147
_cell_length_c   7.82682660
_cell_angle_alpha   90.00000000
_cell_angle_beta   90.00000000
_cell_angle_gamma   119.98217554
_symmetry_Int_Tables_number   1
_chemical_formula_structural   Ba
_chemical_formula_sum   Ba8
_cell_volume   504.12004446
_cell_formula_units_Z   8
loop_
 _symmetry_equiv_pos_site_id
 _symmetry_equiv_pos_as_xyz
  1  'x, y, z'
loop_
 _atom_site_type_symbol
 _atom_site_label
 _atom_site_symmetry_multiplicity
 _atom_site_fract_x
 _atom_site_fract_y
 _atom_site_fract_z
 _atom_site_occupancy
  Ba  Ba0_0  1  0.00000000  0.00000000  0.00000000  1
  Ba  Ba0_1  1  0.00000000  0.00000000  0.50000000  1
  Ba  Ba0_2  1  0.00000000  0.50000000  0.00000000  1
  Ba  Ba0_3  1  0.00000000  0.50000000  0.50000000  1
  Ba  Ba0_4  1  0.50000000  0.00000000  0.00000000  1
  Ba  Ba0_5  1  0.50000000  0.00000000  0.50000000  1
  Ba  Ba0_6  1  0.50000000  0.50000000  0.00000000  1
  Ba  Ba0_7  1  0.50000000  0.50000000  0.50000000  1
loop_
_geom_bond_atom_site_label_1
_geom_bond_atom_site_label_2
_geom_bond_distance
_geom_bond_site_symmetry_2
Ba0_0 Ba0_1 3.913413 1_555
Ba0_0 Ba0_1 3.913413 1_554
Ba0_0 Ba0_4 4.310452 1_555
Ba0_0 Ba0_4 4.310452 1_455
Ba0_0 Ba0_2 4.312776 1_545
Ba0_0 Ba0_6 4.312776 1_445
Ba0_0 Ba0_2 4.312776 1_555
Ba0_0 Ba0_6 4.312776 1_555
Ba0_1 Ba0_5 4.310452 1_555
Ba0_1 Ba0_5 4.310452 1_455
Ba0_1 Ba0_7 4.312776 1_555
Ba0_1 Ba0_7 4.312776 1_445
Ba0_1 Ba0_3 4.312776 1_545
Ba0_1 Ba0_3 4.312776 1_555
Ba0_2 Ba0_3 3.913413 1_555
Ba0_2 Ba0_3 3.913413 1_554
Ba0_2 Ba0_6 4.310452 1_455
Ba0_2 Ba0_6 4.310452 1_555
Ba0_2 Ba0_4 4.312776 1_455
Ba0_2 Ba0_4 4.312776 1_565
Ba0_3 Ba0_7 4.310452 1_555
Ba0_3 Ba0_7 4.310452 1_455
Ba0_3 Ba0_5 4.312776 1_565
Ba0_3 Ba0_5 4.312776 1_455
Ba0_4 Ba0_5 3.913413 1_555
Ba0_4 Ba0_5 3.913413 1_554
Ba0_4 Ba0_6 4.312776 1_545
Ba0_4 Ba0_6 4.312776 1_555
Ba0_5 Ba0_7 4.312776 1_555
Ba0_5 Ba0_7 4.312776 1_545
Ba0_6 Ba0_7 3.913413 1_555
Ba0_6 Ba0_7 3.913413 1_554
