# generated using pymatgen
data_Cs2AgBr3
_symmetry_space_group_name_H-M   'P 1'
_cell_length_a   4.74392570
_cell_length_b   13.92708011
_cell_length_c   14.45216056
_cell_angle_alpha   90.00000000
_cell_angle_beta   90.00000000
_cell_angle_gamma   90.00000000
_symmetry_Int_Tables_number   1
_chemical_formula_structural   Cs2AgBr3
_chemical_formula_sum   'Cs8 Ag4 Br12'
_cell_volume   954.84027671
_cell_formula_units_Z   4
loop_
 _symmetry_equiv_pos_site_id
 _symmetry_equiv_pos_as_xyz
  1  'x, y, z'
loop_
 _atom_site_type_symbol
 _atom_site_label
 _atom_site_symmetry_multiplicity
 _atom_site_fract_x
 _atom_site_fract_y
 _atom_site_fract_z
 _atom_site_occupancy
  Cs  Cs0  1  0.75000000  0.98860188  0.82588216  1
  Cs  Cs1  1  0.25000000  0.17291482  0.51907086  1
  Cs  Cs2  1  0.75000000  0.82708518  0.48092914  1
  Cs  Cs3  1  0.75000000  0.48860188  0.67411784  1
  Cs  Cs4  1  0.25000000  0.51139812  0.32588216  1
  Cs  Cs5  1  0.25000000  0.01139812  0.17411784  1
  Cs  Cs6  1  0.75000000  0.32708518  0.01907086  1
  Cs  Cs7  1  0.25000000  0.67291482  0.98092914  1
  Ag  Ag0  1  0.25000000  0.25525431  0.80340644  1
  Ag  Ag1  1  0.75000000  0.24474569  0.30340644  1
  Ag  Ag2  1  0.25000000  0.75525431  0.69659356  1
  Ag  Ag3  1  0.75000000  0.74474569  0.19659356  1
  Br  Br0  1  0.25000000  0.13712735  0.95128862  1
  Br  Br1  1  0.75000000  0.22502245  0.71220470  1
  Br  Br2  1  0.75000000  0.86287265  0.04871138  1
  Br  Br3  1  0.25000000  0.44100027  0.85975049  1
  Br  Br4  1  0.25000000  0.77497755  0.28779530  1
  Br  Br5  1  0.75000000  0.72502245  0.78779530  1
  Br  Br6  1  0.25000000  0.27497755  0.21220470  1
  Br  Br7  1  0.25000000  0.63712735  0.54871138  1
  Br  Br8  1  0.75000000  0.05899973  0.35975049  1
  Br  Br9  1  0.75000000  0.55899973  0.14024951  1
  Br  Br10  1  0.75000000  0.36287265  0.45128862  1
  Br  Br11  1  0.25000000  0.94100027  0.64024951  1
loop_
_geom_bond_atom_site_label_1
_geom_bond_atom_site_label_2
_geom_bond_distance
_geom_bond_site_symmetry_2
Ag0 Br0 2.697084 1_555
Ag0 Br3 2.712032 1_555
Ag0 Br1 2.746047 1_455
Ag0 Br1 2.746047 1_555
Ag1 Br10 2.697084 1_555
Ag1 Br8 2.712032 1_555
Ag1 Br6 2.746047 1_655
Ag1 Br6 2.746047 1_555
Ag2 Br7 2.697084 1_555
Ag2 Br11 2.712032 1_555
Ag2 Br5 2.746047 1_455
Ag2 Br5 2.746047 1_555
Ag3 Br2 2.697084 1_555
Ag3 Br9 2.712032 1_555
Ag3 Br4 2.746047 1_655
Ag3 Br4 2.746047 1_555
Br0 Cs0 3.631774 1_445
Br0 Cs0 3.631774 1_545
Br0 Cs5 3.665636 1_556
Br0 Cs6 3.685756 1_456
Br0 Cs6 3.685756 1_556
Br1 Cs0 3.679756 1_545
Br1 Cs3 3.711931 1_555
Br1 Cs1 3.734121 1_655
Br1 Cs1 3.734121 1_555
Br2 Cs5 3.631774 1_565
Br2 Cs5 3.631774 1_665
Br2 Cs0 3.665636 1_554
Br2 Cs7 3.685756 1_554
Br2 Cs7 3.685756 1_654
Br3 Cs3 3.641853 1_555
Br3 Cs3 3.641853 1_455
Br3 Cs6 3.666718 1_456
Br3 Cs6 3.666718 1_556
Br3 Cs7 3.674130 1_555
Br4 Cs5 3.679756 1_565
Br4 Cs4 3.711931 1_555
Br4 Cs2 3.734121 1_555
Br4 Cs2 3.734121 1_455
Br5 Cs3 3.679756 1_555
Br5 Cs0 3.711931 1_555
Br5 Cs7 3.734121 1_555
Br5 Cs7 3.734121 1_655
Br6 Cs4 3.679756 1_555
Br6 Cs5 3.711931 1_555
Br6 Cs6 3.734121 1_455
Br6 Cs6 3.734121 1_555
Br7 Cs3 3.631774 1_455
Br7 Cs3 3.631774 1_555
Br7 Cs4 3.665636 1_555
Br7 Cs2 3.685756 1_555
Br7 Cs2 3.685756 1_455
Br8 Cs5 3.641853 1_655
Br8 Cs5 3.641853 1_555
Br8 Cs1 3.666718 1_655
Br8 Cs1 3.666718 1_555
Br8 Cs2 3.674130 1_545
Br9 Cs4 3.641853 1_655
Br9 Cs4 3.641853 1_555
Br9 Cs7 3.666718 1_654
Br9 Cs7 3.666718 1_554
Br9 Cs6 3.674130 1_555
Br10 Cs4 3.631774 1_555
Br10 Cs4 3.631774 1_655
Br10 Cs3 3.665636 1_555
Br10 Cs1 3.685756 1_555
Br10 Cs1 3.685756 1_655
Br11 Cs0 3.641853 1_455
Br11 Cs0 3.641853 1_555
Br11 Cs2 3.666718 1_555
Br11 Cs2 3.666718 1_455
Br11 Cs1 3.674130 1_565
