# generated using pymatgen
data_YbBeF4
_symmetry_space_group_name_H-M   'P 1'
_cell_length_a   6.57353700
_cell_length_b   7.11663028
_cell_length_c   7.52021875
_cell_angle_alpha   103.52582795
_cell_angle_beta   92.59101119
_cell_angle_gamma   103.46402438
_symmetry_Int_Tables_number   1
_chemical_formula_structural   YbBeF4
_chemical_formula_sum   'Yb4 Be4 F16'
_cell_volume   330.79536529
_cell_formula_units_Z   4
loop_
 _symmetry_equiv_pos_site_id
 _symmetry_equiv_pos_as_xyz
  1  'x, y, z'
loop_
 _atom_site_type_symbol
 _atom_site_label
 _atom_site_symmetry_multiplicity
 _atom_site_fract_x
 _atom_site_fract_y
 _atom_site_fract_z
 _atom_site_occupancy
  Yb  Yb0  1  0.24124600  0.01217200  0.88493500  1
  Yb  Yb1  1  0.22336400  0.93932400  0.41965000  1
  Yb  Yb2  1  0.80014000  0.99693100  0.14593700  1
  Yb  Yb3  1  0.75060900  0.11047300  0.69164000  1
  Be  Be0  1  0.79422200  0.59121400  0.61528700  1
  Be  Be1  1  0.23899500  0.47891200  0.29874000  1
  Be  Be2  1  0.40974900  0.35791500  0.60491400  1
  Be  Be3  1  0.60960700  0.62981800  0.23288300  1
  F  F0  1  0.51519600  0.81899800  0.28498200  1
  F  F1  1  0.39721100  0.44588100  0.16365100  1
  F  F2  1  0.41453100  0.89662000  0.64765800  1
  F  F3  1  0.96861100  0.14894900  0.94185200  1
  F  F4  1  0.74785900  0.66892800  0.08458800  1
  F  F5  1  0.27779800  0.23930400  0.72317800  1
  F  F6  1  0.88487900  0.42471500  0.65409900  1
  F  F7  1  0.57585900  0.08948400  0.97977900  1
  F  F8  1  0.24516800  0.38674400  0.45594100  1
  F  F9  1  0.14013800  0.97173700  0.14813300  1
  F  F10  1  0.10492500  0.61347500  0.29921500  1
  F  F11  1  0.94269400  0.80591800  0.69117200  1
  F  F12  1  0.71425200  0.58165400  0.40351200  1
  F  F13  1  0.51827700  0.20148100  0.48892800  1
  F  F14  1  0.91605500  0.03292200  0.43974800  1
  F  F15  1  0.56861400  0.55643100  0.69957600  1
loop_
_geom_bond_atom_site_label_1
_geom_bond_atom_site_label_2
_geom_bond_distance
_geom_bond_site_symmetry_2
Be0 F6 1.522899 1_555
Be0 F11 1.568511 1_555
Be0 F15 1.627858 1_555
Be0 F12 1.635328 1_555
Be1 F10 1.444123 1_555
Be1 F8 1.483315 1_555
Be1 F1 1.505542 1_555
Be2 F5 1.528340 1_555
Be2 F15 1.539014 1_555
Be2 F13 1.575133 1_555
Be2 F8 1.602792 1_555
Be3 F4 1.505366 1_555
Be3 F12 1.572554 1_555
Be3 F0 1.586061 1_555
Be3 F1 1.642663 1_555
F0 Yb2 2.428428 1_555
F0 Yb1 2.444178 1_555
F2 Yb1 2.199634 1_555
F2 Yb0 2.256405 1_565
F2 Yb3 2.332177 1_565
F3 Yb3 2.236440 1_555
F3 Yb0 2.242636 1_655
F3 Yb2 2.263800 1_546
F4 Yb2 2.210915 1_555
F5 Yb0 2.217116 1_555
F6 Yb3 2.293177 1_555
F7 Yb0 2.181897 1_555
F7 Yb2 2.199875 1_546
F7 Yb3 2.516694 1_555
F9 Yb1 2.167908 1_555
F9 Yb0 2.176811 1_564
F9 Yb2 2.283036 1_455
F10 Yb1 2.217438 1_555
F11 Yb0 2.351358 1_665
F11 Yb3 2.750138 1_565
F13 Yb1 2.297866 1_545
F13 Yb3 2.405789 1_555
F14 Yb2 2.240618 1_545
F14 Yb3 2.247764 1_555
F14 Yb1 2.270349 1_645
