# generated using pymatgen
data_Ba3La9Mg7Nb5O36
_symmetry_space_group_name_H-M   'P 1'
_cell_length_a   5.70096600
_cell_length_b   8.11095500
_cell_length_c   17.13284400
_cell_angle_alpha   90.00000000
_cell_angle_beta   90.00000000
_cell_angle_gamma   90.00000000
_symmetry_Int_Tables_number   1
_chemical_formula_structural   Ba3La9Mg7Nb5O36
_chemical_formula_sum   'Ba3 La9 Mg7 Nb5 O36'
_cell_volume   792.22748118
_cell_formula_units_Z   1
loop_
 _symmetry_equiv_pos_site_id
 _symmetry_equiv_pos_as_xyz
  1  'x, y, z'
loop_
 _atom_site_type_symbol
 _atom_site_label
 _atom_site_symmetry_multiplicity
 _atom_site_fract_x
 _atom_site_fract_y
 _atom_site_fract_z
 _atom_site_occupancy
  Ba  Ba0  1  0.50000000  0.75072900  0.83298100  1
  Ba  Ba1  1  0.00000000  0.24881100  0.00000000  1
  Ba  Ba2  1  0.50000000  0.75072900  0.16701900  1
  La  La0  1  0.00000000  0.77261200  0.64107500  1
  La  La1  1  0.50000000  0.25514100  0.82680300  1
  La  La2  1  0.00000000  0.73525500  0.00000000  1
  La  La3  1  0.50000000  0.25514100  0.17319700  1
  La  La4  1  0.00000000  0.77261200  0.35892500  1
  La  La5  1  0.50000000  0.21847900  0.50000000  1
  La  La6  1  0.00000000  0.24066100  0.34208100  1
  La  La7  1  0.50000000  0.78394000  0.50000000  1
  La  La8  1  0.00000000  0.24066100  0.65791900  1
  Mg  Mg0  1  0.50000000  0.99990300  0.66542000  1
  Mg  Mg1  1  0.00000000  0.49950200  0.83046300  1
  Mg  Mg2  1  0.50000000  0.00225900  0.00000000  1
  Mg  Mg3  1  0.00000000  0.49950200  0.16953700  1
  Mg  Mg4  1  0.50000000  0.99990300  0.33458000  1
  Mg  Mg5  1  0.00000000  0.49417700  0.50000000  1
  Mg  Mg6  1  0.00000000  0.00655500  0.50000000  1
  Nb  Nb0  1  0.50000000  0.49919000  0.66330900  1
  Nb  Nb1  1  0.00000000  0.00138100  0.83254600  1
  Nb  Nb2  1  0.50000000  0.49882100  0.00000000  1
  Nb  Nb3  1  0.00000000  0.00138100  0.16745400  1
  Nb  Nb4  1  0.50000000  0.49919000  0.33669100  1
  O  O0  1  0.73701400  0.47271800  0.74911400  1
  O  O1  1  0.50000000  0.74450000  0.65877000  1
  O  O2  1  0.50000000  0.25002100  0.65132200  1
  O  O3  1  0.24333800  0.01958400  0.74564300  1
  O  O4  1  0.24973700  0.00374600  0.91278800  1
  O  O5  1  0.26298600  0.47271800  0.74911400  1
  O  O6  1  0.00000000  0.24808800  0.83128000  1
  O  O7  1  0.00000000  0.75542000  0.83270800  1
  O  O8  1  0.75042600  0.50676800  0.91805100  1
  O  O9  1  0.75042600  0.50676800  0.08194900  1
  O  O10  1  0.75666200  0.01958400  0.74564300  1
  O  O11  1  0.75026300  0.00374600  0.91278800  1
  O  O12  1  0.50000000  0.74938100  0.00000000  1
  O  O13  1  0.50000000  0.25599600  0.00000000  1
  O  O14  1  0.24973700  0.00374600  0.08721200  1
  O  O15  1  0.24333800  0.01958400  0.25435700  1
  O  O16  1  0.24957400  0.50676800  0.91805100  1
  O  O17  1  0.24957400  0.50676800  0.08194900  1
  O  O18  1  0.00000000  0.24808800  0.16872000  1
  O  O19  1  0.00000000  0.75542000  0.16729200  1
  O  O20  1  0.73701400  0.47271800  0.25088600  1
  O  O21  1  0.75868900  0.50119700  0.41345700  1
  O  O22  1  0.75026300  0.00374600  0.08721200  1
  O  O23  1  0.75666200  0.01958400  0.25435700  1
  O  O24  1  0.50000000  0.74450000  0.34123000  1
  O  O25  1  0.50000000  0.25002100  0.34867800  1
  O  O26  1  0.25108800  0.98978700  0.41857000  1
  O  O27  1  0.25108800  0.98978700  0.58143000  1
  O  O28  1  0.26298600  0.47271800  0.25088600  1
  O  O29  1  0.24131100  0.50119700  0.41345700  1
  O  O30  1  0.00000000  0.24925500  0.50000000  1
  O  O31  1  0.00000000  0.74756500  0.50000000  1
  O  O32  1  0.75868900  0.50119700  0.58654300  1
  O  O33  1  0.74891200  0.98978700  0.58143000  1
  O  O34  1  0.74891200  0.98978700  0.41857000  1
  O  O35  1  0.24131100  0.50119700  0.58654300  1
loop_
_geom_bond_atom_site_label_1
_geom_bond_atom_site_label_2
_geom_bond_distance
_geom_bond_site_symmetry_2
Ba0 O16 2.842182 1_555
Ba0 O8 2.842182 1_555
Ba0 O4 2.848986 1_565
Ba0 O11 2.848986 1_565
Ba0 O7 2.850741 1_555
Ba0 O7 2.850741 1_655
Ba0 O12 2.861531 1_556
Ba0 O1 2.985157 1_555
Ba0 O0 2.995851 1_555
Ba0 O5 2.995851 1_555
Ba0 O10 3.022482 1_565
Ba0 O3 3.022482 1_565
Ba1 O13 2.851079 1_455
Ba1 O13 2.851079 1_555
Ba1 O11 2.865421 1_454
Ba1 O4 2.865421 1_554
Ba1 O14 2.865421 1_555
Ba1 O22 2.865421 1_455
Ba1 O6 2.890659 1_554
Ba1 O18 2.890659 1_555
Ba1 O17 2.893664 1_555
Ba1 O9 2.893664 1_455
Ba1 O16 2.893664 1_554
Ba1 O8 2.893664 1_454
Ba2 O17 2.842182 1_555
Ba2 O9 2.842182 1_555
Ba2 O22 2.848986 1_565
Ba2 O14 2.848986 1_565
Ba2 O19 2.850741 1_655
Ba2 O19 2.850741 1_555
Ba2 O12 2.861531 1_555
Ba2 O24 2.985157 1_555
Ba2 O20 2.995851 1_555
Ba2 O28 2.995851 1_555
Ba2 O15 3.022482 1_565
Ba2 O23 3.022482 1_565
La0 O31 2.425539 1_555
La0 O27 2.489208 1_555
La0 O33 2.489208 1_455
La0 O35 2.758945 1_555
La0 O32 2.758945 1_455
La0 O1 2.875614 1_455
La0 O1 2.875614 1_555
La0 O3 3.024378 1_565
La0 O10 3.024378 1_465
La0 O7 3.286178 1_555
La1 O5 2.590711 1_555
La1 O0 2.590711 1_555
La1 O10 2.779366 1_555
La1 O3 2.779366 1_555
La1 O6 2.852089 1_555
La1 O6 2.852089 1_655
La1 O11 2.891981 1_555
La1 O4 2.891981 1_555
La1 O16 2.940694 1_555
La1 O8 2.940694 1_555
La1 O13 2.967365 1_556
La1 O2 3.006775 1_555
La2 O17 2.725838 1_555
La2 O9 2.725838 1_455
La2 O16 2.725838 1_554
La2 O8 2.725838 1_454
La2 O12 2.852785 1_455
La2 O12 2.852785 1_555
La2 O19 2.870851 1_555
La2 O7 2.870851 1_554
La2 O4 3.000350 1_564
La2 O11 3.000350 1_464
La2 O14 3.000350 1_565
La2 O22 3.000350 1_465
La3 O20 2.590711 1_555
La3 O28 2.590711 1_555
La3 O23 2.779366 1_555
La3 O15 2.779366 1_555
La3 O18 2.852089 1_655
La3 O18 2.852089 1_555
La3 O22 2.891981 1_555
La3 O14 2.891981 1_555
La3 O17 2.940694 1_555
La3 O9 2.940694 1_555
La3 O13 2.967365 1_555
La3 O25 3.006775 1_555
La4 O31 2.425539 1_555
La4 O26 2.489208 1_555
La4 O34 2.489208 1_455
La4 O29 2.758945 1_555
La4 O21 2.758945 1_455
La4 O24 2.875614 1_455
La4 O24 2.875614 1_555
La4 O15 3.024378 1_565
La4 O23 3.024378 1_465
La4 O19 3.286178 1_555
La5 O2 2.605169 1_555
La5 O25 2.605169 1_555
La5 O26 2.720431 1_545
La5 O33 2.720431 1_545
La5 O34 2.720431 1_545
La5 O27 2.720431 1_545
La5 O30 2.861392 1_555
La5 O30 2.861392 1_655
La5 O21 3.103517 1_555
La5 O32 3.103517 1_555
La5 O29 3.103517 1_555
La5 O35 3.103517 1_555
La6 O30 2.706499 1_555
La6 O23 2.720066 1_455
La6 O15 2.720066 1_555
La6 O29 2.802425 1_555
La6 O21 2.802425 1_455
La6 O34 2.811921 1_445
La6 O26 2.811921 1_545
La6 O25 2.853733 1_455
La6 O25 2.853733 1_555
La6 O28 2.869094 1_555
La6 O20 2.869094 1_455
La6 O18 2.970778 1_555
La7 O33 2.597628 1_555
La7 O26 2.597628 1_555
La7 O34 2.597628 1_555
La7 O27 2.597628 1_555
La7 O1 2.738927 1_555
La7 O24 2.738927 1_555
La7 O31 2.865711 1_655
La7 O31 2.865711 1_555
La7 O32 3.103667 1_555
La7 O21 3.103667 1_555
La7 O29 3.103667 1_555
La7 O35 3.103667 1_555
La8 O30 2.706499 1_555
La8 O3 2.720066 1_555
La8 O10 2.720066 1_455
La8 O35 2.802425 1_555
La8 O32 2.802425 1_455
La8 O33 2.811921 1_445
La8 O27 2.811921 1_545
La8 O2 2.853733 1_455
La8 O2 2.853733 1_555
La8 O5 2.869094 1_555
La8 O0 2.869094 1_455
La8 O6 2.970778 1_555
Mg0 O3 2.013854 1_565
Mg0 O10 2.013854 1_565
Mg0 O27 2.022644 1_555
Mg0 O33 2.022644 1_555
Mg0 O2 2.043024 1_565
Mg0 O1 2.074693 1_555
Mg1 O6 2.039256 1_555
Mg1 O5 2.058526 1_555
Mg1 O0 2.058526 1_455
Mg1 O16 2.068759 1_555
Mg1 O8 2.068759 1_455
Mg1 O7 2.076096 1_555
Mg2 O12 2.051082 1_545
Mg2 O13 2.058049 1_555
Mg2 O11 2.065996 1_554
Mg2 O4 2.065996 1_554
Mg2 O22 2.065996 1_555
Mg2 O14 2.065996 1_555
Mg3 O18 2.039256 1_555
Mg3 O28 2.058526 1_555
Mg3 O20 2.058526 1_455
Mg3 O17 2.068759 1_555
Mg3 O9 2.068759 1_455
Mg3 O19 2.076096 1_555
Mg4 O23 2.013854 1_565
Mg4 O15 2.013854 1_565
Mg4 O34 2.022644 1_555
Mg4 O26 2.022644 1_555
Mg4 O25 2.043024 1_565
Mg4 O24 2.074693 1_555
Mg5 O30 1.986551 1_555
Mg5 O21 2.023435 1_455
Mg5 O29 2.023435 1_555
Mg5 O35 2.023435 1_555
Mg5 O32 2.023435 1_455
Mg5 O31 2.055219 1_555
Mg6 O30 1.968529 1_555
Mg6 O26 2.003475 1_545
Mg6 O34 2.003475 1_445
Mg6 O27 2.003475 1_545
Mg6 O33 2.003475 1_445
Mg6 O31 2.100656 1_545
Nb0 O32 1.976116 1_555
Nb0 O35 1.976116 1_555
Nb0 O1 1.991218 1_555
Nb0 O0 2.008236 1_555
Nb0 O5 2.008236 1_555
Nb0 O2 2.031407 1_555
Nb1 O11 1.979245 1_455
Nb1 O4 1.979245 1_555
Nb1 O7 1.994981 1_545
Nb1 O6 2.001147 1_555
Nb1 O3 2.040368 1_555
Nb1 O10 2.040368 1_455
Nb2 O13 1.969543 1_555
Nb2 O17 2.003414 1_555
Nb2 O9 2.003414 1_555
Nb2 O16 2.003414 1_554
Nb2 O8 2.003414 1_554
Nb2 O12 2.032281 1_555
Nb3 O22 1.979245 1_455
Nb3 O14 1.979245 1_555
Nb3 O19 1.994981 1_545
Nb3 O18 2.001147 1_555
Nb3 O23 2.040368 1_455
Nb3 O15 2.040368 1_555
Nb4 O21 1.976116 1_555
Nb4 O29 1.976116 1_555
Nb4 O24 1.991218 1_555
Nb4 O20 2.008236 1_555
Nb4 O28 2.008236 1_555
Nb4 O25 2.031407 1_555
