# generated using pymatgen
data_Fe21Ni9O40
_symmetry_space_group_name_H-M   'P 1'
_cell_length_a   10.45708550
_cell_length_b   10.45708550
_cell_length_c   10.45708550
_cell_angle_alpha   99.69741386
_cell_angle_beta   99.69741386
_cell_angle_gamma   131.53750974
_symmetry_Int_Tables_number   1
_chemical_formula_structural   Fe21Ni9O40
_chemical_formula_sum   'Fe21 Ni9 O40'
_cell_volume   780.51621111
_cell_formula_units_Z   1
loop_
 _symmetry_equiv_pos_site_id
 _symmetry_equiv_pos_as_xyz
  1  'x, y, z'
loop_
 _atom_site_type_symbol
 _atom_site_label
 _atom_site_symmetry_multiplicity
 _atom_site_fract_x
 _atom_site_fract_y
 _atom_site_fract_z
 _atom_site_occupancy
  Fe  Fe0  1  0.57261700  0.52128500  0.34772700  1
  Fe  Fe1  1  0.37493000  0.12464700  0.75095000  1
  Fe  Fe2  1  0.97332500  0.82287300  0.55022600  1
  Fe  Fe3  1  0.97470400  0.82595500  0.04848600  1
  Fe  Fe4  1  0.17712700  0.72735300  0.15045200  1
  Fe  Fe5  1  0.77510900  0.42738300  0.94866800  1
  Fe  Fe6  1  0.87535300  0.62630300  0.25028300  1
  Fe  Fe7  1  0.77264200  0.42244300  0.44842300  1
  Fe  Fe8  1  0.57755700  0.02598100  0.35019900  1
  Fe  Fe9  1  0.97401900  0.32421900  0.55157700  1
  Fe  Fe10  1  0.67578100  0.22735800  0.64980100  1
  Fe  Fe11  1  0.57690100  0.02667500  0.84954800  1
  Fe  Fe12  1  0.37602000  0.62507000  0.74971700  1
  Fe  Fe13  1  0.77746900  0.92621900  0.95151400  1
  Fe  Fe14  1  0.47871500  0.82644100  0.05133200  1
  Fe  Fe15  1  0.37369700  0.62398000  0.24905000  1
  Fe  Fe16  1  0.17404500  0.22253100  0.14875000  1
  Fe  Fe17  1  0.25000000  0.75000000  0.50000000  1
  Fe  Fe18  1  0.27264700  0.42309900  0.44977400  1
  Fe  Fe19  1  0.17355900  0.22489100  0.65227300  1
  Fe  Fe20  1  0.07378100  0.02529600  0.85125000  1
  Ni  Ni0  1  0.29897100  0.09967900  0.40079100  1
  Ni  Ni1  1  0.10182000  0.70102900  0.80070800  1
  Ni  Ni2  1  0.90032100  0.30111200  0.19929200  1
  Ni  Ni3  1  0.65239600  0.55050600  0.70228900  1
  Ni  Ni4  1  0.69888800  0.89818000  0.59920900  1
  Ni  Ni5  1  0.44949400  0.15178300  0.10189000  1
  Ni  Ni6  1  0.50000000  0.50000000  0.00000000  1
  Ni  Ni7  1  0.04989300  0.34760400  0.89811000  1
  Ni  Ni8  1  0.84821700  0.95010700  0.29771100  1
  O  O0  1  0.21594200  0.06660500  0.56184500  1
  O  O1  1  0.31337400  0.25868200  0.83783900  1
  O  O2  1  0.12700100  0.88798900  0.74564900  1
  O  O3  1  0.20614900  0.07051400  0.04400700  1
  O  O4  1  0.01475700  0.67218400  0.96081600  1
  O  O5  1  0.11201100  0.85766000  0.23901200  1
  O  O6  1  0.74131800  0.57915700  0.05469200  1
  O  O7  1  0.93339500  0.49524000  0.14933700  1
  O  O8  1  0.81812000  0.75522500  0.34974100  1
  O  O9  1  0.63758500  0.39117000  0.25857200  1
  O  O10  1  0.00018700  0.66473900  0.44396600  1
  O  O11  1  0.72887200  0.57436900  0.53714100  1
  O  O12  1  0.81926900  0.27187600  0.36084400  1
  O  O13  1  0.91103200  0.45842500  0.63915600  1
  O  O14  1  0.54157500  0.18073100  0.45260700  1
  O  O15  1  0.72812400  0.08896800  0.54739300  1
  O  O16  1  0.62098700  0.36241500  0.75358500  1
  O  O17  1  0.44377900  0.99981300  0.66455200  1
  O  O18  1  0.80826800  0.27112800  0.84549700  1
  O  O19  1  0.53162100  0.18188000  0.93710500  1
  O  O20  1  0.61864800  0.87299900  0.76098800  1
  O  O21  1  0.71136800  0.05394100  0.03918400  1
  O  O22  1  0.34590300  0.78405800  0.85066300  1
  O  O23  1  0.52446500  0.68662600  0.94530800  1
  O  O24  1  0.42563100  0.96277200  0.15450300  1
  O  O25  1  0.24477500  0.59451600  0.06289500  1
  O  O26  1  0.60883000  0.86740200  0.24641500  1
  O  O27  1  0.33526100  0.77922800  0.33544800  1
  O  O28  1  0.42084300  0.47553500  0.16216100  1
  O  O29  1  0.50476000  0.65409700  0.43815500  1
  O  O30  1  0.14234000  0.38135200  0.25435100  1
  O  O31  1  0.32781600  0.28863200  0.34257300  1
  O  O32  1  0.22077200  0.55622100  0.55603400  1
  O  O33  1  0.03722800  0.19173200  0.46285900  1
  O  O34  1  0.40548400  0.46837900  0.65025900  1
  O  O35  1  0.13259800  0.37901300  0.74142800  1
  O  O36  1  0.94605900  0.98524300  0.65742700  1
  O  O37  1  0.02650700  0.16214200  0.95599300  1
  O  O38  1  0.83785800  0.79385100  0.86436500  1
  O  O39  1  0.92948600  0.97349300  0.13563500  1
loop_
_geom_bond_atom_site_label_1
_geom_bond_atom_site_label_2
_geom_bond_distance
_geom_bond_site_symmetry_2
Fe0 O31 2.030920 1_555
Fe0 O28 2.038624 1_555
Fe0 O9 2.047924 1_555
Fe0 O8 2.052085 1_555
Fe0 O11 2.058543 1_555
Fe0 O29 2.101698 1_555
Fe1 O19 2.016130 1_555
Fe1 O17 2.026551 1_545
Fe1 O1 2.041806 1_555
Fe1 O0 2.047613 1_555
Fe1 O2 2.060426 1_545
Fe1 O16 2.066837 1_555
Fe2 O10 2.037210 1_655
Fe2 O0 2.040485 1_665
Fe2 O2 2.048388 1_655
Fe2 O11 2.063653 1_555
Fe2 O36 2.080714 1_555
Fe2 O8 2.088353 1_555
Fe3 O39 2.018264 1_555
Fe3 O38 2.021001 1_554
Fe3 O4 2.031618 1_654
Fe3 O3 2.066367 1_665
Fe3 O5 2.079274 1_655
Fe3 O6 2.092240 1_555
Fe4 O27 2.037206 1_555
Fe4 O7 2.040485 1_455
Fe4 O5 2.048388 1_555
Fe4 O24 2.063653 1_555
Fe4 O4 2.080714 1_554
Fe4 O25 2.088353 1_555
Fe5 O4 2.030924 1_655
Fe5 O6 2.038615 1_556
Fe5 O16 2.047919 1_555
Fe5 O19 2.052080 1_555
Fe5 O18 2.058543 1_555
Fe5 O7 2.101702 1_556
Fe6 O8 2.016130 1_555
Fe6 O10 2.026551 1_655
Fe6 O6 2.041806 1_555
Fe6 O7 2.047613 1_555
Fe6 O5 2.060426 1_655
Fe6 O9 2.066837 1_555
Fe7 O10 2.040889 1_655
Fe7 O14 2.049934 1_555
Fe7 O11 2.050621 1_555
Fe7 O12 2.058708 1_555
Fe7 O13 2.065563 1_555
Fe7 O9 2.065692 1_555
Fe8 O27 2.040889 1_545
Fe8 O12 2.049929 1_555
Fe8 O24 2.050618 1_545
Fe8 O15 2.058711 1_555
Fe8 O14 2.065554 1_555
Fe8 O26 2.065701 1_545
Fe9 O32 2.040889 1_655
Fe9 O15 2.049929 1_555
Fe9 O33 2.050622 1_655
Fe9 O13 2.058699 1_555
Fe9 O12 2.065558 1_555
Fe9 O35 2.065697 1_655
Fe10 O17 2.040889 1_545
Fe10 O13 2.049934 1_555
Fe10 O18 2.050618 1_555
Fe10 O14 2.058708 1_555
Fe10 O15 2.065563 1_555
Fe10 O16 2.065692 1_555
Fe11 O17 2.037210 1_545
Fe11 O22 2.040485 1_545
Fe11 O20 2.048388 1_545
Fe11 O18 2.063649 1_555
Fe11 O21 2.080714 1_556
Fe11 O19 2.088353 1_555
Fe12 O34 2.016130 1_555
Fe12 O32 2.026555 1_555
Fe12 O23 2.041806 1_555
Fe12 O22 2.047613 1_555
Fe12 O20 2.060426 1_555
Fe12 O35 2.066837 1_555
Fe13 O38 2.018272 1_555
Fe13 O39 2.021006 1_556
Fe13 O21 2.031610 1_566
Fe13 O37 2.066363 1_665
Fe13 O20 2.079270 1_555
Fe13 O23 2.092244 1_555
Fe14 O21 2.030924 1_565
Fe14 O23 2.038615 1_554
Fe14 O26 2.047919 1_555
Fe14 O25 2.052080 1_555
Fe14 O24 2.058552 1_555
Fe14 O22 2.101702 1_554
Fe15 O25 2.016130 1_555
Fe15 O27 2.026560 1_555
Fe15 O28 2.041806 1_555
Fe15 O29 2.047613 1_555
Fe15 O30 2.060426 1_555
Fe15 O26 2.066837 1_555
Fe16 O37 2.018272 1_554
Fe16 O3 2.021006 1_555
Fe16 O31 2.031610 1_555
Fe16 O39 2.066363 1_445
Fe16 O30 2.079270 1_555
Fe16 O28 2.092244 1_555
Fe17 O32 2.044962 1_555
Fe17 O10 2.044966 1_555
Fe17 O17 2.044966 1_555
Fe17 O27 2.044966 1_555
Fe18 O32 2.037219 1_555
Fe18 O29 2.040485 1_555
Fe18 O30 2.048388 1_555
Fe18 O33 2.063649 1_555
Fe18 O31 2.080714 1_555
Fe18 O34 2.088353 1_555
Fe19 O36 2.030928 1_445
Fe19 O1 2.038624 1_555
Fe19 O35 2.047923 1_555
Fe19 O34 2.052076 1_555
Fe19 O33 2.058548 1_555
Fe19 O0 2.101698 1_555
Fe20 O3 2.018277 1_556
Fe20 O37 2.020998 1_555
Fe20 O36 2.031605 1_445
Fe20 O38 2.066367 1_445
Fe20 O2 2.079278 1_545
Fe20 O1 2.092240 1_555
Ni0 O5 1.992643 1_545
Ni0 O14 1.994619 1_555
Ni0 O0 2.000110 1_555
Ni0 O31 2.010588 1_555
Ni1 O2 1.992643 1_555
Ni1 O13 1.994619 1_455
Ni1 O22 2.000110 1_555
Ni1 O4 2.010588 1_555
Ni2 O30 1.992643 1_655
Ni2 O12 1.994619 1_555
Ni2 O7 2.000110 1_555
Ni2 O21 2.010588 1_555
Ni3 O16 1.955063 1_555
Ni3 O38 2.000940 1_555
Ni3 O11 2.007492 1_555
Ni3 O34 2.031925 1_555
Ni4 O20 1.992643 1_555
Ni4 O15 1.994619 1_565
Ni4 O29 2.000110 1_555
Ni4 O36 2.010588 1_555
Ni5 O9 1.955063 1_555
Ni5 O3 2.000940 1_555
Ni5 O24 2.007492 1_545
Ni5 O19 2.031925 1_554
Ni6 O23 1.991056 1_554
Ni6 O28 1.991056 1_555
Ni6 O1 1.991056 1_554
Ni6 O6 1.991056 1_555
Ni7 O35 1.955063 1_555
Ni7 O37 2.000940 1_555
Ni7 O18 2.007502 1_455
Ni7 O25 2.031925 1_556
Ni8 O26 1.955063 1_555
Ni8 O39 2.000940 1_555
Ni8 O33 2.007496 1_665
Ni8 O8 2.031925 1_555
