# generated using pymatgen
data_Na3TlH24(ClO2)6
_symmetry_space_group_name_H-M   'P 1'
_cell_length_a   8.77474400
_cell_length_b   8.77809311
_cell_length_c   8.85090454
_cell_angle_alpha   71.40313696
_cell_angle_beta   73.61444206
_cell_angle_gamma   73.15845955
_symmetry_Int_Tables_number   1
_chemical_formula_structural   Na3TlH24(ClO2)6
_chemical_formula_sum   'Na3 Tl1 H24 Cl6 O12'
_cell_volume   604.76108147
_cell_formula_units_Z   1
loop_
 _symmetry_equiv_pos_site_id
 _symmetry_equiv_pos_as_xyz
  1  'x, y, z'
loop_
 _atom_site_type_symbol
 _atom_site_label
 _atom_site_symmetry_multiplicity
 _atom_site_fract_x
 _atom_site_fract_y
 _atom_site_fract_z
 _atom_site_occupancy
  Na  Na0  1  0.35706400  0.31780800  0.32154100  1
  Na  Na1  1  0.50322200  0.47979000  0.51479200  1
  Na  Na2  1  0.66993800  0.66936800  0.69328900  1
  Tl  Tl0  1  0.02030800  0.97890200  0.98042600  1
  H  H0  1  0.13895800  0.12879300  0.39941800  1
  H  H1  1  0.11086900  0.39152700  0.14282500  1
  H  H2  1  0.11742200  0.47778100  0.13378200  1
  H  H3  1  0.13844000  0.13384200  0.48299400  1
  H  H4  1  0.38689300  0.12802600  0.07593400  1
  H  H5  1  0.16881500  0.43797300  0.60940300  1
  H  H6  1  0.14133800  0.60864100  0.48222100  1
  H  H7  1  0.56247600  0.12761900  0.08136300  1
  H  H8  1  0.49091300  0.10806900  0.62547000  1
  H  H9  1  0.44710200  0.62085200  0.17989800  1
  H  H10  1  0.37629500  0.82686100  0.54028700  1
  H  H11  1  0.36767600  0.55632900  0.83115800  1
  H  H12  1  0.61530400  0.50300300  0.13661500  1
  H  H13  1  0.62980400  0.12644400  0.47343700  1
  H  H14  1  0.47913500  0.38329700  0.88605800  1
  H  H15  1  0.52167500  0.83288700  0.38823500  1
  H  H16  1  0.44241100  0.89423000  0.90450000  1
  H  H17  1  0.83537800  0.54432600  0.39242600  1
  H  H18  1  0.84542300  0.38726000  0.54236600  1
  H  H19  1  0.61369000  0.93494100  0.85146400  1
  H  H20  1  0.95217000  0.39452600  0.88256700  1
  H  H21  1  0.96689900  0.92404500  0.36454100  1
  H  H22  1  0.84287100  0.63590100  0.98195100  1
  H  H23  1  0.86055900  0.93754800  0.63941300  1
  Cl  Cl0  1  0.18196200  0.21394100  0.82273200  1
  Cl  Cl1  1  0.26686700  0.85476900  0.14332900  1
  Cl  Cl2  1  0.17099900  0.78069300  0.79794100  1
  Cl  Cl3  1  0.86715300  0.15139500  0.19181100  1
  Cl  Cl4  1  0.82094600  0.77723800  0.15311900  1
  Cl  Cl5  1  0.80853800  0.11864000  0.78507100  1
  O  O0  1  0.21467900  0.49898100  0.49936400  1
  O  O1  1  0.44971400  0.18981200  0.10044200  1
  O  O2  1  0.51418600  0.51114100  0.22049000  1
  O  O3  1  0.52008700  0.18307400  0.51704200  1
  O  O4  1  0.47354900  0.48479600  0.79753500  1
  O  O5  1  0.48476000  0.76732100  0.49784500  1
  O  O6  1  0.53529000  0.90634300  0.81107600  1
  O  O7  1  0.77517900  0.49154400  0.49886100  1
  O  O8  1  0.78121300  0.57166000  0.95633000  1
  O  O9  1  0.83133000  0.87877000  0.57603400  1
  O  O10  1  0.89425600  0.50345100  0.82528900  1
  O  O11  1  0.98624700  0.83603700  0.46511700  1
loop_
_geom_bond_atom_site_label_1
_geom_bond_atom_site_label_2
_geom_bond_distance
_geom_bond_site_symmetry_2
Na0 O2 2.296271 1_555
Na0 O3 2.355872 1_555
Na0 O1 2.393401 1_555
Na0 O0 2.429614 1_555
Na1 O7 2.380915 1_555
Na1 O5 2.440185 1_555
Na1 O4 2.455254 1_555
Na1 O2 2.507371 1_555
Na1 O0 2.527991 1_555
Na1 O3 2.559585 1_555
Na2 O10 2.431363 1_555
Na2 O9 2.433895 1_555
Na2 O6 2.464565 1_555
Na2 O5 2.489899 1_555
Na2 O4 2.492641 1_555
Na2 O7 2.496430 1_555
Na2 O8 2.575456 1_555
H0 H3 0.753706 1_555
H1 H2 0.752968 1_555
H4 O1 0.980212 1_555
H5 O0 0.984072 1_555
H6 O0 0.983240 1_555
H7 O1 0.978320 1_555
H8 O3 0.987962 1_555
H9 O2 0.986509 1_555
H10 O5 0.977434 1_555
H11 O4 0.985439 1_555
H12 O2 0.984354 1_555
H13 O3 0.978952 1_555
H14 O4 0.980422 1_555
H15 O5 0.975683 1_555
H16 O6 0.986496 1_555
H17 O7 0.981744 1_555
H18 O7 0.973810 1_555
H19 O6 0.979856 1_555
H20 O10 0.992027 1_555
H21 O11 0.994343 1_555
H22 O8 0.994843 1_555
H23 O9 0.994550 1_555
Cl0 Tl0 2.637995 1_545
Cl1 Tl0 2.709023 1_554
Cl2 Tl0 2.576573 1_555
Cl3 Tl0 2.609281 1_644
Cl4 Tl0 2.662752 1_654
Cl5 Tl0 2.662057 1_645
