# generated using pymatgen
data_K4Na2FeH3F12
_symmetry_space_group_name_H-M   'P 1'
_cell_length_a   6.13850600
_cell_length_b   5.88180100
_cell_length_c   8.54935380
_cell_angle_alpha   85.99567871
_cell_angle_beta   90.00000000
_cell_angle_gamma   90.00000000
_symmetry_Int_Tables_number   1
_chemical_formula_structural   K4Na2FeH3F12
_chemical_formula_sum   'K4 Na2 Fe1 H3 F12'
_cell_volume   307.92489332
_cell_formula_units_Z   1
loop_
 _symmetry_equiv_pos_site_id
 _symmetry_equiv_pos_as_xyz
  1  'x, y, z'
loop_
 _atom_site_type_symbol
 _atom_site_label
 _atom_site_symmetry_multiplicity
 _atom_site_fract_x
 _atom_site_fract_y
 _atom_site_fract_z
 _atom_site_occupancy
  K  K0  1  0.50222700  0.95190300  0.76037800  1
  K  K1  1  0.99363300  0.50729200  0.26306300  1
  K  K2  1  0.50222700  0.04809700  0.23962200  1
  K  K3  1  0.99363300  0.49270800  0.73693700  1
  Na  Na0  1  0.00779800  0.00000000  0.00000000  1
  Na  Na1  1  0.49164400  0.50000000  0.50000000  1
  Fe  Fe0  1  0.99713900  0.00000000  0.50000000  1
  H  H0  1  0.37987500  0.62920700  0.12690200  1
  H  H1  1  0.37987500  0.37079300  0.87309800  1
  H  H2  1  0.75301200  0.50000000  0.00000000  1
  F  F0  1  0.76724400  0.23745700  0.49390600  1
  F  F1  1  0.99304700  0.98992200  0.73099000  1
  F  F2  1  0.99304700  0.01007800  0.26901000  1
  F  F3  1  0.22350400  0.23430700  0.49308200  1
  F  F4  1  0.28551600  0.25653900  0.96188800  1
  F  F5  1  0.28551600  0.74346100  0.03811200  1
  F  F6  1  0.46036400  0.52810900  0.23348000  1
  F  F7  1  0.46036400  0.47189100  0.76652000  1
  F  F8  1  0.76979300  0.30410300  0.00889200  1
  F  F9  1  0.76979300  0.69589700  0.99110800  1
  F  F10  1  0.76724400  0.76254300  0.50609400  1
  F  F11  1  0.22350400  0.76569300  0.50691800  1
loop_
_geom_bond_atom_site_label_1
_geom_bond_atom_site_label_2
_geom_bond_distance
_geom_bond_site_symmetry_2
H0 K1 2.715533 1_455
H0 K2 2.809774 1_565
H1 K3 2.715533 1_455
H1 K0 2.809774 1_545
H2 K1 2.693526 1_555
H2 K3 2.693526 1_554
F0 Fe0 1.983626 1_555
F0 Na1 2.293617 1_555
F0 K1 2.812054 1_555
F0 K3 2.989648 1_555
F0 K2 2.991871 1_555
F0 K0 3.181681 1_545
F1 Fe0 1.971723 1_565
F1 Na0 2.306538 1_666
F1 K3 2.921406 1_555
F1 K3 2.961274 1_565
F1 K0 3.030323 1_555
F1 K0 3.142402 1_655
F2 Fe0 1.971723 1_555
F2 Na0 2.306538 1_655
F2 K1 2.921406 1_555
F2 K1 2.961274 1_545
F2 K2 3.030323 1_555
F2 K2 3.142402 1_655
F3 Fe0 1.955053 1_455
F3 Na1 2.273291 1_555
F3 K1 2.827610 1_455
F3 K3 3.014968 1_455
F3 K2 3.025542 1_555
F3 K0 3.221557 1_545
F4 H1 1.136702 1_555
F4 Na0 2.284856 1_556
F4 K0 2.894706 1_545
F4 K3 2.909538 1_455
F4 K2 2.916193 1_556
F5 H0 1.136702 1_555
F5 Na0 2.284856 1_565
F5 K2 2.894706 1_565
F5 K1 2.909538 1_455
F5 K0 2.916193 1_554
F6 H0 1.162874 1_555
F6 Na1 2.281115 1_555
F6 K2 2.831839 1_555
F6 K1 2.878026 1_455
F6 K2 3.073343 1_565
F6 K1 3.284855 1_555
F7 H1 1.162874 1_555
F7 Na1 2.281115 1_555
F7 K0 2.831839 1_555
F7 K3 2.878026 1_455
F7 K0 3.073343 1_545
F7 K3 3.284855 1_555
F8 H2 1.154030 1_555
F8 Na0 2.314871 1_655
F8 K3 2.857307 1_554
F8 K1 2.898435 1_555
F8 K2 2.905392 1_555
F9 H2 1.154030 1_556
F9 Na0 2.314871 1_666
F9 K1 2.857307 1_556
F9 K3 2.898435 1_555
F9 K0 2.905392 1_555
F10 Fe0 1.983626 1_565
F10 Na1 2.293617 1_555
F10 K3 2.812054 1_555
F10 K1 2.989648 1_555
F10 K0 2.991871 1_555
F10 K2 3.181681 1_565
F11 Fe0 1.955053 1_465
F11 Na1 2.273291 1_555
F11 K3 2.827610 1_455
F11 K1 3.014968 1_455
F11 K0 3.025542 1_555
F11 K2 3.221557 1_565
