# generated using pymatgen
data_Ba(HO)2
_symmetry_space_group_name_H-M   'P 1'
_cell_length_a   8.10048100
_cell_length_b   6.89112300
_cell_length_c   11.00346185
_cell_angle_alpha   57.28906405
_cell_angle_beta   90.00000000
_cell_angle_gamma   90.00000000
_symmetry_Int_Tables_number   1
_chemical_formula_structural   Ba(HO)2
_chemical_formula_sum   'Ba8 H16 O16'
_cell_volume   516.81678349
_cell_formula_units_Z   8
loop_
 _symmetry_equiv_pos_site_id
 _symmetry_equiv_pos_as_xyz
  1  'x, y, z'
loop_
 _atom_site_type_symbol
 _atom_site_label
 _atom_site_symmetry_multiplicity
 _atom_site_fract_x
 _atom_site_fract_y
 _atom_site_fract_z
 _atom_site_occupancy
  Ba  Ba0  1  0.86865700  0.34556300  0.90173400  1
  Ba  Ba1  1  0.63134300  0.34556300  0.40173400  1
  Ba  Ba2  1  0.13134300  0.65443700  0.09826600  1
  Ba  Ba3  1  0.36865700  0.65443700  0.59826600  1
  Ba  Ba4  1  0.97372200  0.96786200  0.32686100  1
  Ba  Ba5  1  0.52627800  0.96786200  0.82686100  1
  Ba  Ba6  1  0.02627800  0.03213800  0.67313900  1
  Ba  Ba7  1  0.47372200  0.03213800  0.17313900  1
  H  H0  1  0.96533100  0.53490100  0.61581100  1
  H  H1  1  0.53466900  0.53490100  0.11581100  1
  H  H2  1  0.03466900  0.46509900  0.38418900  1
  H  H3  1  0.46533100  0.46509900  0.88418900  1
  H  H4  1  0.16736200  0.20219500  0.02527700  1
  H  H5  1  0.33263800  0.20219500  0.52527700  1
  H  H6  1  0.83263800  0.79780500  0.97472300  1
  H  H7  1  0.66736200  0.79780500  0.47472300  1
  H  H8  1  0.19110700  0.25016700  0.81537100  1
  H  H9  1  0.30889300  0.25016700  0.31537100  1
  H  H10  1  0.80889300  0.74983300  0.18462900  1
  H  H11  1  0.69110700  0.74983300  0.68462900  1
  H  H12  1  0.26682000  0.55941000  0.39694600  1
  H  H13  1  0.23318000  0.55941000  0.89694600  1
  H  H14  1  0.73318000  0.44059000  0.60305400  1
  H  H15  1  0.76682000  0.44059000  0.10305400  1
  O  O0  1  0.03642100  0.63835100  0.62855900  1
  O  O1  1  0.46357900  0.63835100  0.12855900  1
  O  O2  1  0.96357900  0.36164900  0.37144100  1
  O  O3  1  0.53642100  0.36164900  0.87144100  1
  O  O4  1  0.15466900  0.27287700  0.08313400  1
  O  O5  1  0.34533100  0.27287700  0.58313400  1
  O  O6  1  0.84533100  0.72712300  0.91686600  1
  O  O7  1  0.65466900  0.72712300  0.41686600  1
  O  O8  1  0.15923000  0.10046200  0.89871400  1
  O  O9  1  0.34077000  0.10046200  0.39871400  1
  O  O10  1  0.84077000  0.89953800  0.10128600  1
  O  O11  1  0.65923000  0.89953800  0.60128600  1
  O  O12  1  0.22213300  0.71202700  0.32378200  1
  O  O13  1  0.27786700  0.71202700  0.82378200  1
  O  O14  1  0.77786700  0.28797300  0.67621800  1
  O  O15  1  0.72213300  0.28797300  0.17621800  1
loop_
_geom_bond_atom_site_label_1
_geom_bond_atom_site_label_2
_geom_bond_distance
_geom_bond_site_symmetry_2
Ba0 O10 2.650519 1_546
Ba0 H4 2.688347 1_656
Ba0 O3 2.706733 1_555
Ba0 O6 2.729510 1_555
Ba0 H15 2.753969 1_556
Ba0 H0 2.788768 1_555
Ba0 O14 2.814314 1_555
Ba0 H11 2.888522 1_555
Ba0 O0 2.897950 1_655
Ba0 O8 2.907721 1_655
Ba0 O4 2.919275 1_656
Ba0 H8 2.972026 1_655
Ba0 O15 3.064775 1_556
Ba1 O11 2.650519 1_545
Ba1 H5 2.688347 1_555
Ba1 O2 2.706733 1_555
Ba1 O7 2.729510 1_555
Ba1 H14 2.753969 1_555
Ba1 H1 2.788768 1_555
Ba1 O15 2.814314 1_555
Ba1 H10 2.888522 1_555
Ba1 O1 2.897950 1_555
Ba1 O9 2.907721 1_555
Ba1 O5 2.919275 1_555
Ba1 H9 2.972026 1_555
Ba1 O14 3.064775 1_555
Ba2 O8 2.650519 1_564
Ba2 H6 2.688347 1_454
Ba2 O1 2.706733 1_555
Ba2 O4 2.729510 1_555
Ba2 H13 2.753969 1_554
Ba2 H2 2.788768 1_555
Ba2 O12 2.814314 1_555
Ba2 H9 2.888522 1_555
Ba2 O2 2.897950 1_455
Ba2 O10 2.907721 1_455
Ba2 O6 2.919275 1_454
Ba2 H10 2.972026 1_455
Ba2 O13 3.064775 1_554
Ba3 O9 2.650519 1_565
Ba3 H7 2.688347 1_555
Ba3 O0 2.706733 1_555
Ba3 O5 2.729510 1_555
Ba3 H12 2.753969 1_555
Ba3 H3 2.788768 1_555
Ba3 O13 2.814314 1_555
Ba3 H8 2.888522 1_555
Ba3 O3 2.897950 1_555
Ba3 O11 2.907721 1_555
Ba3 O7 2.919275 1_555
Ba3 H11 2.972026 1_555
Ba3 O12 3.064775 1_555
Ba4 O12 2.687561 1_655
Ba4 O4 2.768800 1_665
Ba4 O15 2.795559 1_565
Ba4 H7 2.849275 1_555
Ba4 O0 2.878785 1_655
Ba4 O7 2.938843 1_555
Ba4 H0 2.960177 1_555
Ba4 O10 2.967403 1_555
Ba4 H10 3.005151 1_555
Ba4 O2 3.008301 1_565
Ba4 O9 3.328843 1_665
Ba5 O13 2.687561 1_555
Ba5 O5 2.768800 1_565
Ba5 O14 2.795559 1_565
Ba5 H6 2.849275 1_555
Ba5 O1 2.878785 1_556
Ba5 O6 2.938843 1_555
Ba5 H1 2.960177 1_556
Ba5 O11 2.967403 1_555
Ba5 H11 3.005151 1_555
Ba5 O3 3.008301 1_565
Ba5 O8 3.328843 1_565
Ba6 O14 2.687561 1_455
Ba6 O6 2.768800 1_445
Ba6 O13 2.795559 1_545
Ba6 H5 2.849275 1_555
Ba6 O2 2.878785 1_455
Ba6 O5 2.938843 1_555
Ba6 H2 2.960177 1_555
Ba6 O8 2.967403 1_555
Ba6 H8 3.005151 1_555
Ba6 O0 3.008301 1_545
Ba6 O11 3.328843 1_445
Ba7 O15 2.687561 1_555
Ba7 O7 2.768800 1_545
Ba7 O12 2.795559 1_545
Ba7 H4 2.849275 1_555
Ba7 O3 2.878785 1_554
Ba7 O4 2.938843 1_555
Ba7 H3 2.960177 1_554
Ba7 O9 2.967403 1_555
Ba7 H9 3.005151 1_555
Ba7 O1 3.008301 1_545
Ba7 O10 3.328843 1_545
H0 O0 0.983657 1_655
H1 O1 0.983657 1_555
H2 O2 0.983657 1_455
H3 O3 0.983657 1_555
H4 O4 0.994110 1_555
H5 O5 0.994110 1_555
H6 O6 0.994110 1_555
H7 O7 0.994110 1_555
H8 O8 0.974389 1_555
H9 O9 0.974389 1_555
H10 O10 0.974389 1_555
H11 O11 0.974389 1_555
H12 O12 0.984954 1_555
H13 O13 0.984954 1_555
H14 O14 0.984954 1_555
H15 O15 0.984954 1_555
