# generated using pymatgen
data_ZnH6C2(NCl2)2
_symmetry_space_group_name_H-M   'P 1'
_cell_length_a   13.14477800
_cell_length_b   7.53606800
_cell_length_c   13.64862920
_cell_angle_alpha   83.76693658
_cell_angle_beta   90.00000000
_cell_angle_gamma   90.00000000
_symmetry_Int_Tables_number   1
_chemical_formula_structural   ZnH6C2(NCl2)2
_chemical_formula_sum   'Zn4 H24 C8 N8 Cl16'
_cell_volume   1344.03982920
_cell_formula_units_Z   4
loop_
 _symmetry_equiv_pos_site_id
 _symmetry_equiv_pos_as_xyz
  1  'x, y, z'
loop_
 _atom_site_type_symbol
 _atom_site_label
 _atom_site_symmetry_multiplicity
 _atom_site_fract_x
 _atom_site_fract_y
 _atom_site_fract_z
 _atom_site_occupancy
  Zn  Zn0  1  0.58643100  0.73779400  0.29360200  1
  Zn  Zn1  1  0.08643100  0.26220600  0.20639800  1
  Zn  Zn2  1  0.41356900  0.26220600  0.70639800  1
  Zn  Zn3  1  0.91356900  0.73779400  0.79360200  1
  H  H0  1  0.12067200  0.52525400  0.54236800  1
  H  H1  1  0.62067200  0.47474600  0.95763200  1
  H  H2  1  0.87932800  0.47474600  0.45763200  1
  H  H3  1  0.37932800  0.52525400  0.04236800  1
  H  H4  1  0.35704500  0.79092600  0.37419300  1
  H  H5  1  0.85704500  0.20907400  0.12580700  1
  H  H6  1  0.64295500  0.20907400  0.62580700  1
  H  H7  1  0.14295500  0.79092600  0.87419300  1
  H  H8  1  0.96152400  0.84934700  0.12159600  1
  H  H9  1  0.46152400  0.15065300  0.37840400  1
  H  H10  1  0.03847600  0.15065300  0.87840400  1
  H  H11  1  0.53847600  0.84934700  0.62159600  1
  H  H12  1  0.59366000  0.70562000  0.54032500  1
  H  H13  1  0.09366000  0.29438000  0.95967500  1
  H  H14  1  0.40634000  0.29438000  0.45967500  1
  H  H15  1  0.90634000  0.70562000  0.04032500  1
  H  H16  1  0.82641900  0.85752700  0.09323900  1
  H  H17  1  0.32641900  0.14247300  0.40676100  1
  H  H18  1  0.17358100  0.14247300  0.90676100  1
  H  H19  1  0.67358100  0.85752700  0.59323900  1
  H  H20  1  0.87651900  0.67526900  0.16986500  1
  H  H21  1  0.37651900  0.32473100  0.33013500  1
  H  H22  1  0.12348100  0.32473100  0.83013500  1
  H  H23  1  0.62348100  0.67526900  0.66986500  1
  C  C0  1  0.86554200  0.59408300  0.40899400  1
  C  C1  1  0.36554200  0.40591700  0.09100600  1
  C  C2  1  0.13445800  0.40591700  0.59100600  1
  C  C3  1  0.63445800  0.59408300  0.90899400  1
  C  C4  1  0.89318700  0.77280000  0.10636900  1
  C  C5  1  0.39318700  0.22720000  0.39363100  1
  C  C6  1  0.10681300  0.22720000  0.89363100  1
  C  C7  1  0.60681300  0.77280000  0.60636900  1
  N  N0  1  0.06182700  0.94639300  0.37425400  1
  N  N1  1  0.56182700  0.05360700  0.12574600  1
  N  N2  1  0.93817300  0.05360700  0.62574600  1
  N  N3  1  0.43817300  0.94639300  0.87425400  1
  N  N4  1  0.85104500  0.72464300  0.35732100  1
  N  N5  1  0.35104500  0.27535700  0.14267900  1
  N  N6  1  0.14895500  0.27535700  0.64267900  1
  N  N7  1  0.64895500  0.72464300  0.85732100  1
  Cl  Cl0  1  0.61169600  0.65133900  0.14489900  1
  Cl  Cl1  1  0.11169600  0.34866100  0.35510100  1
  Cl  Cl2  1  0.38830400  0.34866100  0.85510100  1
  Cl  Cl3  1  0.88830400  0.65133900  0.64489900  1
  Cl  Cl4  1  0.37297000  0.78566400  0.28150400  1
  Cl  Cl5  1  0.87297000  0.21433600  0.21849600  1
  Cl  Cl6  1  0.62703000  0.21433600  0.71849600  1
  Cl  Cl7  1  0.12703000  0.78566400  0.78150400  1
  Cl  Cl8  1  0.59656600  0.49557600  0.40365100  1
  Cl  Cl9  1  0.09656600  0.50442400  0.09634900  1
  Cl  Cl10  1  0.40343400  0.50442400  0.59634900  1
  Cl  Cl11  1  0.90343400  0.49557600  0.90365100  1
  Cl  Cl12  1  0.62695600  0.99258500  0.34859200  1
  Cl  Cl13  1  0.12695600  0.00741500  0.15140800  1
  Cl  Cl14  1  0.37304400  0.00741500  0.65140800  1
  Cl  Cl15  1  0.87304400  0.99258500  0.84859200  1
loop_
_geom_bond_atom_site_label_1
_geom_bond_atom_site_label_2
_geom_bond_distance
_geom_bond_site_symmetry_2
C0 H2 1.073631 1_555
C0 N4 1.162372 1_555
C1 H3 1.073631 1_555
C1 N5 1.162372 1_555
C2 H0 1.073631 1_555
C2 N6 1.162372 1_555
C3 H1 1.073631 1_555
C3 N7 1.162372 1_555
C4 H16 1.088683 1_555
C4 H15 1.094459 1_555
C4 H20 1.095886 1_555
C4 H8 1.099497 1_555
C5 H17 1.088683 1_555
C5 H14 1.094459 1_555
C5 H21 1.095886 1_555
C5 H9 1.099497 1_555
C6 H18 1.088683 1_555
C6 H13 1.094459 1_555
C6 H22 1.095886 1_555
C6 H10 1.099497 1_555
C7 H19 1.088683 1_555
C7 H12 1.094459 1_555
C7 H23 1.095886 1_555
C7 H11 1.099497 1_555
Cl0 Zn0 2.222874 1_555
Cl1 Zn1 2.222874 1_555
Cl2 Zn2 2.222874 1_555
Cl3 Zn3 2.222874 1_555
Cl4 H4 1.287131 1_555
Cl4 Zn0 2.831525 1_555
Cl5 H5 1.287131 1_555
Cl5 Zn1 2.831525 1_655
Cl6 H6 1.287131 1_555
Cl6 Zn2 2.831525 1_555
Cl7 H7 1.287131 1_555
Cl7 Zn3 2.831525 1_455
Cl8 Zn0 2.238399 1_555
Cl9 Zn1 2.238399 1_555
Cl10 Zn2 2.238399 1_555
Cl11 Zn3 2.238399 1_555
Cl12 Zn0 2.201561 1_555
Cl13 Zn1 2.201561 1_555
Cl14 Zn2 2.201561 1_555
Cl15 Zn3 2.201561 1_555
