# generated using pymatgen
data_In2Sn3S7
_symmetry_space_group_name_H-M   'P 1'
_cell_length_a   3.84717600
_cell_length_b   11.49926900
_cell_length_c   13.08105731
_cell_angle_alpha   74.16019082
_cell_angle_beta   90.00000000
_cell_angle_gamma   90.00000000
_symmetry_Int_Tables_number   1
_chemical_formula_structural   In2Sn3S7
_chemical_formula_sum   'In4 Sn6 S14'
_cell_volume   556.72806035
_cell_formula_units_Z   2
loop_
 _symmetry_equiv_pos_site_id
 _symmetry_equiv_pos_as_xyz
  1  'x, y, z'
loop_
 _atom_site_type_symbol
 _atom_site_label
 _atom_site_symmetry_multiplicity
 _atom_site_fract_x
 _atom_site_fract_y
 _atom_site_fract_z
 _atom_site_occupancy
  In  In0  1  0.25000000  0.52286600  0.61558000  1
  In  In1  1  0.75000000  0.47713400  0.38442000  1
  In  In2  1  0.75000000  0.51303400  0.87698300  1
  In  In3  1  0.25000000  0.48696600  0.12301700  1
  Sn  Sn0  1  0.25000000  0.11206600  0.38717500  1
  Sn  Sn1  1  0.75000000  0.82597900  0.99165400  1
  Sn  Sn2  1  0.75000000  0.88793400  0.61282500  1
  Sn  Sn3  1  0.75000000  0.83144300  0.27973900  1
  Sn  Sn4  1  0.25000000  0.16855700  0.72026100  1
  Sn  Sn5  1  0.25000000  0.17402100  0.00834600  1
  S  S0  1  0.75000000  0.11810600  0.52865400  1
  S  S1  1  0.75000000  0.35919400  0.06423500  1
  S  S2  1  0.75000000  0.08869400  0.26303300  1
  S  S3  1  0.75000000  0.61142900  0.18115200  1
  S  S4  1  0.25000000  0.91130600  0.73696700  1
  S  S5  1  0.75000000  0.65428200  0.67212100  1
  S  S6  1  0.25000000  0.62069900  0.41282400  1
  S  S7  1  0.25000000  0.38857100  0.81884800  1
  S  S8  1  0.25000000  0.34571800  0.32787900  1
  S  S9  1  0.75000000  0.37930100  0.58717600  1
  S  S10  1  0.25000000  0.64080600  0.93576500  1
  S  S11  1  0.25000000  0.90210100  0.11722200  1
  S  S12  1  0.75000000  0.09789900  0.88277800  1
  S  S13  1  0.25000000  0.88189400  0.47134600  1
loop_
_geom_bond_atom_site_label_1
_geom_bond_atom_site_label_2
_geom_bond_distance
_geom_bond_site_symmetry_2
In0 S6 2.582883 1_555
In0 S9 2.626507 1_455
In0 S9 2.626507 1_555
In0 S5 2.672276 1_455
In0 S5 2.672276 1_555
In0 S7 2.685766 1_555
In1 S9 2.582883 1_555
In1 S6 2.626507 1_655
In1 S6 2.626507 1_555
In1 S8 2.672276 1_655
In1 S8 2.672276 1_555
In1 S3 2.685766 1_555
In2 S1 2.600744 1_556
In2 S7 2.630796 1_555
In2 S7 2.630796 1_655
In2 S10 2.658380 1_655
In2 S10 2.658380 1_555
In2 S5 2.728270 1_555
In3 S10 2.600744 1_554
In3 S3 2.630796 1_555
In3 S3 2.630796 1_455
In3 S1 2.658380 1_455
In3 S1 2.658380 1_555
In3 S8 2.728270 1_555
S0 Sn2 2.574299 1_545
S0 Sn0 2.683329 1_555
S0 Sn0 2.683329 1_655
S1 Sn5 3.101395 1_555
S1 Sn5 3.101395 1_655
S2 Sn0 2.578324 1_655
S2 Sn0 2.578324 1_555
S2 Sn3 2.906165 1_545
S3 Sn1 2.982112 1_554
S3 Sn3 3.137698 1_555
S4 Sn2 2.578324 1_555
S4 Sn2 2.578324 1_455
S4 Sn4 2.906165 1_565
S5 Sn2 2.585150 1_555
S7 Sn5 2.982112 1_556
S7 Sn4 3.137698 1_555
S8 Sn0 2.585150 1_555
S10 Sn1 3.101395 1_555
S10 Sn1 3.101395 1_455
S11 Sn3 2.817243 1_555
S11 Sn3 2.817243 1_455
S11 Sn1 2.819456 1_554
S11 Sn1 2.819456 1_454
S11 Sn5 3.061813 1_565
S12 Sn4 2.817243 1_555
S12 Sn4 2.817243 1_655
S12 Sn5 2.819456 1_556
S12 Sn5 2.819456 1_656
S12 Sn1 3.061813 1_545
S13 Sn0 2.574299 1_565
S13 Sn2 2.683329 1_455
S13 Sn2 2.683329 1_555
