# generated using pymatgen
data_Cr(Bi7O12)2
_symmetry_space_group_name_H-M   'P 1'
_cell_length_a   8.70123367
_cell_length_b   8.69012256
_cell_length_c   10.45985832
_cell_angle_alpha   114.03796017
_cell_angle_beta   114.23981248
_cell_angle_gamma   89.98730546
_symmetry_Int_Tables_number   1
_chemical_formula_structural   Cr(Bi7O12)2
_chemical_formula_sum   'Cr1 Bi14 O24'
_cell_volume   645.26170484
_cell_formula_units_Z   1
loop_
 _symmetry_equiv_pos_site_id
 _symmetry_equiv_pos_as_xyz
  1  'x, y, z'
loop_
 _atom_site_type_symbol
 _atom_site_label
 _atom_site_symmetry_multiplicity
 _atom_site_fract_x
 _atom_site_fract_y
 _atom_site_fract_z
 _atom_site_occupancy
  Cr  Cr0  1  0.02311478  0.02149834  0.03407386  1
  Bi  Bi0  1  0.05441800  0.87550294  0.33736409  1
  Bi  Bi1  1  0.53284752  0.94795858  0.66596227  1
  Bi  Bi2  1  0.66045879  0.65628707  0.32053378  1
  Bi  Bi3  1  0.12674718  0.73289390  0.67275395  1
  Bi  Bi4  1  0.55945789  0.79154525  0.00485058  1
  Bi  Bi5  1  0.27667973  0.47235971  0.34368845  1
  Bi  Bi6  1  0.71964039  0.54148952  0.66811583  1
  Bi  Bi7  1  0.21233347  0.56503073  0.00533683  1
  Bi  Bi8  1  0.87072397  0.28279196  0.33925844  1
  Bi  Bi9  1  0.33873861  0.34913257  0.68078126  1
  Bi  Bi10  1  0.78440095  0.43962974  -0.00172432  1
  Bi  Bi11  1  0.46531465  0.06515065  0.34201892  1
  Bi  Bi12  1  0.93985986  0.13362336  0.67031481  1
  Bi  Bi13  1  0.43469819  0.21238464  0.99823427  1
  O  O0  1  0.92096048  0.82551236  0.97010017  1
  O  O1  1  0.66593585  0.00454204  0.50430363  1
  O  O2  1  0.45423847  0.76750262  0.15971391  1
  O  O3  1  0.75797519  0.70285497  0.15882641  1
  O  O4  1  0.98956381  0.82558307  0.49376695  1
  O  O5  1  0.36991313  0.89469544  0.76346089  1
  O  O6  1  0.11829893  0.62506499  0.24171135  1
  O  O7  1  0.49511041  0.67332762  0.49731147  1
  O  O8  1  0.39238900  0.46020736  0.15988440  1
  O  O9  1  0.69754652  0.40017051  0.15883722  1
  O  O10  1  0.18052031  0.51507931  0.52064326  1
  O  O11  1  0.81386186  0.49999209  0.48811083  1
  O  O12  1  0.30075778  0.61140105  0.84748893  1
  O  O13  1  0.59804492  0.54598364  0.84116171  1
  O  O14  1  0.88782471  0.13824687  0.97235730  1
  O  O15  1  0.50007121  0.33785449  0.51479973  1
  O  O16  1  0.87738449  0.38408307  0.76381359  1
  O  O17  1  0.62494232  0.11960389  0.24282162  1
  O  O18  1  0.11425244  0.11088090  0.22825517  1
  O  O19  1  -0.00015191  0.18077502  0.51269941  1
  O  O20  1  0.23358207  0.30557749  0.84712864  1
  O  O21  1  0.53902137  0.24250475  0.84056649  1
  O  O22  1  0.32966871  0.00640533  0.50662063  1
  O  O23  1  0.17655191  0.01357319  0.97745428  1
loop_
_geom_bond_atom_site_label_1
_geom_bond_atom_site_label_2
_geom_bond_distance
_geom_bond_site_symmetry_2
Cr0 O0 1.649958 1_444
Cr0 O14 1.655564 1_454
Cr0 O18 1.658320 1_555
Cr0 O23 1.659496 1_554
Bi0 O4 2.125865 1_455
Bi0 O6 2.174535 1_555
Bi0 O22 2.245735 1_565
Bi0 O3 2.481061 1_455
Bi0 O19 2.716136 1_565
Bi0 O18 2.854406 1_565
Bi1 O22 2.105023 1_565
Bi1 O5 2.199155 1_555
Bi1 O7 2.238377 1_555
Bi1 O21 2.449735 1_565
Bi1 O1 2.593751 1_565
Bi2 O9 2.302060 1_555
Bi2 O3 2.341145 1_555
Bi2 O8 2.370351 1_555
Bi2 O2 2.414279 1_555
Bi2 O11 2.591616 1_555
Bi2 O4 2.686542 1_555
Bi2 O7 2.733533 1_555
Bi2 O1 2.835786 1_565
Bi3 O10 2.119099 1_555
Bi3 O5 2.149453 1_555
Bi3 O4 2.229758 1_455
Bi3 O12 2.459018 1_555
Bi3 O11 2.781873 1_455
Bi4 O3 2.213145 1_555
Bi4 O2 2.235916 1_555
Bi4 O12 2.255442 1_554
Bi4 O13 2.256797 1_554
Bi5 O7 2.109958 1_555
Bi5 O6 2.177914 1_555
Bi5 O10 2.230586 1_555
Bi5 O8 2.478916 1_555
Bi5 O15 2.682280 1_555
Bi6 O15 2.127709 1_555
Bi6 O16 2.177964 1_555
Bi6 O11 2.249762 1_555
Bi6 O13 2.431474 1_555
Bi6 O7 2.668693 1_555
Bi6 O0 2.871411 1_555
Bi7 O8 2.239870 1_555
Bi7 O2 2.242749 1_555
Bi7 O12 2.250695 1_554
Bi7 O20 2.251134 1_554
Bi7 O6 2.768520 1_555
Bi7 O16 2.840586 1_454
Bi8 O11 2.114133 1_555
Bi8 O17 2.160282 1_555
Bi8 O19 2.230622 1_655
Bi8 O9 2.470851 1_555
Bi8 O10 2.761087 1_655
Bi9 O13 2.321037 1_555
Bi9 O21 2.357611 1_555
Bi9 O12 2.362086 1_555
Bi9 O20 2.419073 1_555
Bi9 O10 2.618047 1_555
Bi9 O15 2.618579 1_555
Bi9 O19 2.752490 1_555
Bi9 O22 2.767165 1_555
Bi10 O9 2.240703 1_555
Bi10 O21 2.240939 1_554
Bi10 O13 2.287555 1_554
Bi10 O3 2.300611 1_555
Bi10 O14 2.713599 1_554
Bi10 O16 2.750766 1_554
Bi10 O6 2.847124 1_655
Bi11 O1 2.121549 1_555
Bi11 O17 2.193941 1_555
Bi11 O15 2.244119 1_555
Bi11 O2 2.483323 1_545
Bi11 O22 2.646299 1_555
Bi12 O19 2.101283 1_655
Bi12 O16 2.165896 1_555
Bi12 O1 2.229441 1_555
Bi12 O20 2.460542 1_655
Bi12 O4 2.718650 1_545
Bi13 O20 2.233252 1_555
Bi13 O8 2.275229 1_556
Bi13 O21 2.278885 1_555
Bi13 O9 2.308555 1_556
Bi13 O5 2.703850 1_545
Bi13 O23 2.715226 1_555
Bi13 O17 2.852705 1_556
