# generated using pymatgen
data_SiO2
_symmetry_space_group_name_H-M   'P 1'
_cell_length_a   13.75433115
_cell_length_b   13.75433115
_cell_length_c   8.35908103
_cell_angle_alpha   90.00000000
_cell_angle_beta   90.00000000
_cell_angle_gamma   138.56536742
_symmetry_Int_Tables_number   1
_chemical_formula_structural   SiO2
_chemical_formula_sum   'Si20 O40'
_cell_volume   1046.50517674
_cell_formula_units_Z   20
loop_
 _symmetry_equiv_pos_site_id
 _symmetry_equiv_pos_as_xyz
  1  'x, y, z'
loop_
 _atom_site_type_symbol
 _atom_site_label
 _atom_site_symmetry_multiplicity
 _atom_site_fract_x
 _atom_site_fract_y
 _atom_site_fract_z
 _atom_site_occupancy
  Si  Si0  1  0.84744203  0.56421458  0.06173037  1
  Si  Si1  1  0.56421458  0.84744203  0.93826963  1
  Si  Si2  1  0.43578542  0.15255797  0.43826963  1
  Si  Si3  1  0.15255797  0.43578542  0.56173037  1
  Si  Si4  1  0.15255797  0.43578542  0.93826963  1
  Si  Si5  1  0.43578542  0.15255797  0.06173037  1
  Si  Si6  1  0.56421458  0.84744203  0.56173037  1
  Si  Si7  1  0.84744203  0.56421458  0.43826963  1
  Si  Si8  1  0.44092022  0.55907978  0.05834264  1
  Si  Si9  1  0.55907978  0.44092022  0.94165736  1
  Si  Si10  1  0.44092022  0.55907978  0.44165736  1
  Si  Si11  1  0.55907978  0.44092022  0.55834264  1
  Si  Si12  1  0.27631685  0.72368315  0.06658054  1
  Si  Si13  1  0.72368315  0.27631685  0.93341946  1
  Si  Si14  1  0.27631685  0.72368315  0.43341946  1
  Si  Si15  1  0.72368315  0.27631685  0.56658054  1
  Si  Si16  1  0.83622356  0.16377644  0.06366435  1
  Si  Si17  1  0.16377644  0.83622356  0.93633565  1
  Si  Si18  1  0.83622356  0.16377644  0.43633565  1
  Si  Si19  1  0.16377644  0.83622356  0.56366435  1
  O  O0  1  0.83319352  0.53130487  0.25000000  1
  O  O1  1  0.53130487  0.83319352  0.75000000  1
  O  O2  1  0.46869513  0.16680648  0.25000000  1
  O  O3  1  0.16680648  0.46869513  0.75000000  1
  O  O4  1  0.00637188  0.72749688  0.02234267  1
  O  O5  1  0.72749688  0.00637188  0.97765733  1
  O  O6  1  0.27250312  0.99362812  0.47765733  1
  O  O7  1  0.99362812  0.27250312  0.52234267  1
  O  O8  1  0.99362812  0.27250312  0.97765733  1
  O  O9  1  0.27250312  0.99362812  0.02234267  1
  O  O10  1  0.72749688  0.00637188  0.52234267  1
  O  O11  1  0.00637188  0.72749688  0.47765733  1
  O  O12  1  0.82507746  0.44669024  0.96504558  1
  O  O13  1  0.44669024  0.82507746  0.03495442  1
  O  O14  1  0.55330976  0.17492254  0.53495442  1
  O  O15  1  0.17492254  0.55330976  0.46504558  1
  O  O16  1  0.17492254  0.55330976  0.03495442  1
  O  O17  1  0.55330976  0.17492254  0.96504558  1
  O  O18  1  0.44669024  0.82507746  0.46504558  1
  O  O19  1  0.82507746  0.44669024  0.53495442  1
  O  O20  1  0.72349776  0.54865704  0.00946276  1
  O  O21  1  0.54865704  0.72349776  0.99053724  1
  O  O22  1  0.45134296  0.27650224  0.49053724  1
  O  O23  1  0.27650224  0.45134296  0.50946276  1
  O  O24  1  0.27650224  0.45134296  0.99053724  1
  O  O25  1  0.45134296  0.27650224  0.00946276  1
  O  O26  1  0.54865704  0.72349776  0.50946276  1
  O  O27  1  0.72349776  0.54865704  0.49053724  1
  O  O28  1  0.50000000  0.50000000  0.00000000  1
  O  O29  1  0.50000000  0.50000000  0.50000000  1
  O  O30  1  0.43806191  0.56193809  0.25000000  1
  O  O31  1  0.56193809  0.43806191  0.75000000  1
  O  O32  1  0.25672241  0.74327759  0.25000000  1
  O  O33  1  0.74327759  0.25672241  0.75000000  1
  O  O34  1  0.22632579  0.77367421  0.95163187  1
  O  O35  1  0.77367421  0.22632579  0.04836813  1
  O  O36  1  0.22632579  0.77367421  0.54836813  1
  O  O37  1  0.77367421  0.22632579  0.45163187  1
  O  O38  1  0.85156055  0.14843945  0.25000000  1
  O  O39  1  0.14843945  0.85156055  0.75000000  1
loop_
_geom_bond_atom_site_label_1
_geom_bond_atom_site_label_2
_geom_bond_distance
_geom_bond_site_symmetry_2
O0 Si0 1.608419 1_555
O0 Si7 1.608419 1_555
O1 Si1 1.608419 1_555
O1 Si6 1.608419 1_555
O2 Si5 1.608419 1_555
O2 Si2 1.608419 1_555
O3 Si4 1.608419 1_555
O3 Si3 1.608419 1_555
O4 Si0 1.602964 1_455
O4 Si17 1.608058 1_554
O5 Si1 1.602964 1_545
O5 Si16 1.608058 1_556
O6 Si2 1.602964 1_565
O6 Si19 1.608058 1_555
O7 Si3 1.602964 1_655
O7 Si18 1.608058 1_555
O8 Si4 1.602964 1_655
O8 Si16 1.608058 1_556
O9 Si5 1.602964 1_565
O9 Si17 1.608058 1_554
O10 Si6 1.602964 1_545
O10 Si18 1.608058 1_555
O11 Si7 1.602964 1_455
O11 Si19 1.608058 1_555
O12 Si13 1.614302 1_555
O12 Si0 1.617158 1_556
O13 Si12 1.614302 1_555
O13 Si1 1.617158 1_554
O14 Si15 1.614302 1_555
O14 Si2 1.617158 1_555
O15 Si14 1.614302 1_555
O15 Si3 1.617158 1_555
O16 Si12 1.614302 1_555
O16 Si4 1.617158 1_554
O17 Si13 1.614302 1_555
O17 Si5 1.617158 1_556
O18 Si14 1.614302 1_555
O18 Si6 1.617158 1_555
O19 Si15 1.614302 1_555
O19 Si7 1.617158 1_555
O20 Si0 1.611193 1_555
O20 Si9 1.614482 1_554
O21 Si1 1.611193 1_555
O21 Si8 1.614482 1_556
O22 Si2 1.611193 1_555
O22 Si11 1.614482 1_555
O23 Si3 1.611193 1_555
O23 Si10 1.614482 1_555
O24 Si4 1.611193 1_555
O24 Si8 1.614482 1_556
O25 Si5 1.611193 1_555
O25 Si9 1.614482 1_554
O26 Si6 1.611193 1_555
O26 Si10 1.614482 1_555
O27 Si7 1.611193 1_555
O27 Si11 1.614482 1_555
O28 Si8 1.596431 1_555
O28 Si9 1.596431 1_554
O29 Si11 1.596431 1_555
O29 Si10 1.596431 1_555
O30 Si10 1.603767 1_555
O30 Si8 1.603767 1_555
O31 Si9 1.603767 1_555
O31 Si11 1.603767 1_555
O32 Si14 1.613982 1_555
O32 Si12 1.613982 1_555
O33 Si15 1.613982 1_555
O33 Si13 1.613982 1_555
O34 Si12 1.605533 1_556
O34 Si17 1.614458 1_555
O35 Si13 1.605533 1_554
O35 Si16 1.614458 1_555
O36 Si14 1.605533 1_555
O36 Si19 1.614458 1_555
O37 Si15 1.605533 1_555
O37 Si18 1.614458 1_555
O38 Si18 1.606806 1_555
O38 Si16 1.606806 1_555
O39 Si19 1.606806 1_555
O39 Si17 1.606806 1_555
