# generated using pymatgen
data_LiFe6Ge5
_symmetry_space_group_name_H-M   'P 1'
_cell_length_a   14.74552588
_cell_length_b   14.74552588
_cell_length_c   14.74552566
_cell_angle_alpha   19.64053501
_cell_angle_beta   19.64053501
_cell_angle_gamma   19.64053257
_symmetry_Int_Tables_number   1
_chemical_formula_structural   LiFe6Ge5
_chemical_formula_sum   'Li2 Fe12 Ge10'
_cell_volume   316.75666291
_cell_formula_units_Z   2
loop_
 _symmetry_equiv_pos_site_id
 _symmetry_equiv_pos_as_xyz
  1  'x, y, z'
loop_
 _atom_site_type_symbol
 _atom_site_label
 _atom_site_symmetry_multiplicity
 _atom_site_fract_x
 _atom_site_fract_y
 _atom_site_fract_z
 _atom_site_occupancy
  Li  Li0  1  0.91224500  0.91224500  0.91224500  1
  Li  Li1  1  0.08775500  0.08775500  0.08775500  1
  Fe  Fe0  1  0.04571600  0.54639200  0.54639200  1
  Fe  Fe1  1  0.63552300  0.14632200  0.63552300  1
  Fe  Fe2  1  0.14632200  0.63552300  0.63552300  1
  Fe  Fe3  1  0.63552300  0.63552300  0.14632200  1
  Fe  Fe4  1  0.54639200  0.04571600  0.54639200  1
  Fe  Fe5  1  0.36447700  0.85367800  0.36447700  1
  Fe  Fe6  1  0.45360800  0.95428400  0.45360800  1
  Fe  Fe7  1  0.95428400  0.45360800  0.45360800  1
  Fe  Fe8  1  0.85367800  0.36447700  0.36447700  1
  Fe  Fe9  1  0.45360800  0.45360800  0.95428400  1
  Fe  Fe10  1  0.36447700  0.36447700  0.85367800  1
  Fe  Fe11  1  0.54639200  0.54639200  0.04571600  1
  Ge  Ge0  1  0.42538700  0.42538700  0.42538700  1
  Ge  Ge1  1  0.33338900  0.33338900  0.33338900  1
  Ge  Ge2  1  0.66661100  0.66661100  0.66661100  1
  Ge  Ge3  1  0.97054100  0.97054100  0.97054100  1
  Ge  Ge4  1  0.02945900  0.02945900  0.02945900  1
  Ge  Ge5  1  0.14749500  0.14749500  0.14749500  1
  Ge  Ge6  1  0.57461300  0.57461300  0.57461300  1
  Ge  Ge7  1  0.24087800  0.24087800  0.24087800  1
  Ge  Ge8  1  0.75912200  0.75912200  0.75912200  1
  Ge  Ge9  1  0.85250500  0.85250500  0.85250500  1
loop_
_geom_bond_atom_site_label_1
_geom_bond_atom_site_label_2
_geom_bond_distance
_geom_bond_site_symmetry_2
Fe0 Ge0 2.464685 1_555
Fe0 Ge1 2.472536 1_555
Fe0 Ge2 2.474140 1_455
Fe0 Ge8 2.476471 1_455
Fe0 Fe4 2.511568 1_465
Fe0 Fe11 2.511568 1_456
Fe0 Fe4 2.518368 1_555
Fe0 Fe11 2.518369 1_555
Fe0 Ge4 2.617276 1_565
Fe0 Ge4 2.617276 1_556
Fe0 Li1 3.094896 1_556
Fe0 Li1 3.094896 1_565
Fe1 Ge0 2.487076 1_555
Fe1 Ge8 2.509357 1_545
Fe1 Ge9 2.511048 1_545
Fe1 Ge5 2.541239 1_556
Fe1 Ge5 2.541239 1_655
Fe2 Ge0 2.487076 1_555
Fe2 Ge8 2.509357 1_455
Fe2 Ge9 2.511048 1_455
Fe2 Ge5 2.541239 1_556
Fe2 Ge5 2.541239 1_565
Fe3 Ge0 2.487076 1_555
Fe3 Ge8 2.509357 1_554
Fe3 Ge9 2.511048 1_554
Fe3 Ge5 2.541239 1_565
Fe3 Ge5 2.541239 1_655
Fe4 Ge0 2.464685 1_555
Fe4 Ge1 2.472536 1_555
Fe4 Ge2 2.474140 1_545
Fe4 Ge8 2.476471 1_545
Fe4 Ge4 2.617276 1_655
Fe4 Ge4 2.617276 1_556
Fe4 Li1 3.094896 1_556
Fe4 Li1 3.094896 1_655
Fe5 Ge6 2.487076 1_555
Fe5 Ge7 2.509357 1_565
Fe5 Ge5 2.511048 1_565
Fe5 Ge9 2.541239 1_554
Fe5 Ge9 2.541239 1_455
Fe6 Ge6 2.464685 1_555
Fe6 Ge2 2.472536 1_555
Fe6 Ge1 2.474140 1_565
Fe6 Ge7 2.476471 1_565
Fe6 Fe7 2.511568 1_465
Fe6 Fe9 2.511568 1_564
Fe6 Fe7 2.518368 1_555
Fe6 Fe9 2.518369 1_555
Fe6 Ge3 2.617276 1_455
Fe6 Ge3 2.617276 1_554
Fe6 Li0 3.094896 1_554
Fe6 Li0 3.094896 1_455
Fe7 Ge6 2.464685 1_555
Fe7 Ge2 2.472536 1_555
Fe7 Ge1 2.474140 1_655
Fe7 Ge7 2.476471 1_655
Fe7 Fe9 2.511568 1_654
Fe7 Fe9 2.518369 1_555
Fe7 Ge3 2.617276 1_545
Fe7 Ge3 2.617276 1_554
Fe7 Li0 3.094896 1_554
Fe7 Li0 3.094896 1_545
Fe8 Ge6 2.487076 1_555
Fe8 Ge7 2.509357 1_655
Fe8 Ge5 2.511048 1_655
Fe8 Ge9 2.541239 1_554
Fe8 Ge9 2.541239 1_545
Fe9 Ge6 2.464685 1_555
Fe9 Ge2 2.472536 1_555
Fe9 Ge1 2.474140 1_556
Fe9 Ge7 2.476471 1_556
Fe9 Ge3 2.617276 1_545
Fe9 Ge3 2.617276 1_455
Fe9 Li0 3.094896 1_545
Fe9 Li0 3.094896 1_455
Fe10 Ge6 2.487076 1_555
Fe10 Ge7 2.509357 1_556
Fe10 Ge5 2.511048 1_556
Fe10 Ge9 2.541239 1_545
Fe10 Ge9 2.541239 1_455
Fe11 Ge0 2.464685 1_555
Fe11 Ge1 2.472536 1_555
Fe11 Ge2 2.474140 1_554
Fe11 Ge8 2.476471 1_554
Fe11 Fe4 2.511568 1_564
Fe11 Fe4 2.518369 1_555
Fe11 Ge4 2.617276 1_655
Fe11 Ge4 2.617276 1_565
Fe11 Li1 3.094896 1_565
Fe11 Li1 3.094896 1_655
Ge0 Li1 2.910013 1_655
Ge0 Li1 2.910013 1_565
Ge0 Li1 2.910014 1_556
Ge3 Li0 2.528309 1_555
Ge3 Ge4 2.555285 1_666
Ge4 Li1 2.528309 1_555
Ge5 Li1 2.590936 1_555
Ge6 Li0 2.910013 1_545
Ge6 Li0 2.910013 1_455
Ge6 Li0 2.910014 1_554
Ge7 Li0 2.911181 1_454
Ge7 Li0 2.911181 1_544
Ge7 Li0 2.911182 1_445
Ge8 Li1 2.911181 1_566
Ge8 Li1 2.911181 1_656
Ge8 Li1 2.911182 1_665
Ge9 Li0 2.590936 1_555
