# generated using pymatgen
data_In3Te3I
_symmetry_space_group_name_H-M   'P 1'
_cell_length_a   4.37290710
_cell_length_b   11.87943375
_cell_length_c   20.69909451
_cell_angle_alpha   90.00000000
_cell_angle_beta   90.00000000
_cell_angle_gamma   90.00000000
_symmetry_Int_Tables_number   1
_chemical_formula_structural   In3Te3I
_chemical_formula_sum   'In12 Te12 I4'
_cell_volume   1075.26952783
_cell_formula_units_Z   4
loop_
 _symmetry_equiv_pos_site_id
 _symmetry_equiv_pos_as_xyz
  1  'x, y, z'
loop_
 _atom_site_type_symbol
 _atom_site_label
 _atom_site_symmetry_multiplicity
 _atom_site_fract_x
 _atom_site_fract_y
 _atom_site_fract_z
 _atom_site_occupancy
  In  In0  1  0.25000000  0.32254317  0.01154834  1
  In  In1  1  0.25000000  0.84351910  0.13187736  1
  In  In2  1  0.25000000  0.44630381  0.89660445  1
  In  In3  1  0.75000000  0.55369619  0.10339555  1
  In  In4  1  0.75000000  0.67745683  0.98845166  1
  In  In5  1  0.75000000  0.05369619  0.39660445  1
  In  In6  1  0.75000000  0.15648090  0.86812264  1
  In  In7  1  0.25000000  0.94630381  0.60339555  1
  In  In8  1  0.75000000  0.17745683  0.51154834  1
  In  In9  1  0.25000000  0.82254317  0.48845166  1
  In  In10  1  0.25000000  0.34351910  0.36812264  1
  In  In11  1  0.75000000  0.65648090  0.63187736  1
  Te  Te0  1  0.75000000  0.73630447  0.19448591  1
  Te  Te1  1  0.75000000  0.66519365  0.49546496  1
  Te  Te2  1  0.25000000  0.33480635  0.50453504  1
  Te  Te3  1  0.25000000  0.83480635  0.99546496  1
  Te  Te4  1  0.75000000  0.16519365  0.00453504  1
  Te  Te5  1  0.25000000  0.41101079  0.13925188  1
  Te  Te6  1  0.25000000  0.91101079  0.36074812  1
  Te  Te7  1  0.25000000  0.76369553  0.69448591  1
  Te  Te8  1  0.75000000  0.08898921  0.63925188  1
  Te  Te9  1  0.75000000  0.58898921  0.86074812  1
  Te  Te10  1  0.75000000  0.23630447  0.30551409  1
  Te  Te11  1  0.25000000  0.26369553  0.80551409  1
  I  I0  1  0.25000000  0.56400907  0.33044367  1
  I  I1  1  0.75000000  0.43599093  0.66955633  1
  I  I2  1  0.25000000  0.06400907  0.16955633  1
  I  I3  1  0.75000000  0.93599093  0.83044367  1
loop_
_geom_bond_atom_site_label_1
_geom_bond_atom_site_label_2
_geom_bond_distance
_geom_bond_site_symmetry_2
In0 In2 2.796831 1_554
In0 Te5 2.844604 1_555
In0 Te4 2.880217 1_455
In0 Te4 2.880217 1_555
In1 Te3 2.825510 1_554
In1 Te0 2.842925 1_555
In1 Te0 2.842925 1_455
In2 Te9 2.864355 1_455
In2 Te9 2.864355 1_555
In2 Te11 2.874170 1_555
In3 In4 2.796831 1_554
In3 Te5 2.864355 1_655
In3 Te5 2.864355 1_555
In3 Te0 2.874170 1_555
In4 Te9 2.844604 1_555
In4 Te3 2.880217 1_555
In4 Te3 2.880217 1_655
In5 In8 2.796831 1_555
In5 Te6 2.864355 1_645
In5 Te6 2.864355 1_545
In5 Te10 2.874170 1_555
In6 Te4 2.825510 1_556
In6 Te11 2.842925 1_555
In6 Te11 2.842925 1_655
In7 In9 2.796831 1_555
In7 Te8 2.864355 1_565
In7 Te8 2.864355 1_465
In7 Te7 2.874170 1_555
In8 Te8 2.844604 1_555
In8 Te2 2.880217 1_655
In8 Te2 2.880217 1_555
In9 Te6 2.844604 1_555
In9 Te1 2.880217 1_555
In9 Te1 2.880217 1_455
In10 Te2 2.825510 1_555
In10 Te10 2.842925 1_555
In10 Te10 2.842925 1_455
In11 Te1 2.825510 1_555
In11 Te7 2.842925 1_555
In11 Te7 2.842925 1_655
I0 In10 2.732945 1_555
I1 In11 2.732945 1_555
I2 In1 2.732945 1_545
I3 In6 2.732945 1_565
