# generated using pymatgen
data_Ba2(InAs)5
_symmetry_space_group_name_H-M   'P 1'
_cell_length_a   4.32691621
_cell_length_b   17.78092068
_cell_length_c   18.14082480
_cell_angle_alpha   90.00000000
_cell_angle_beta   90.00000000
_cell_angle_gamma   90.00000000
_symmetry_Int_Tables_number   1
_chemical_formula_structural   Ba2(InAs)5
_chemical_formula_sum   'Ba8 In20 As20'
_cell_volume   1395.69254536
_cell_formula_units_Z   4
loop_
 _symmetry_equiv_pos_site_id
 _symmetry_equiv_pos_as_xyz
  1  'x, y, z'
loop_
 _atom_site_type_symbol
 _atom_site_label
 _atom_site_symmetry_multiplicity
 _atom_site_fract_x
 _atom_site_fract_y
 _atom_site_fract_z
 _atom_site_occupancy
  Ba  Ba0  1  0.75000000  0.97963870  0.62113379  1
  Ba  Ba1  1  0.25000000  0.02036130  0.37886621  1
  Ba  Ba2  1  0.75000000  0.47963870  0.87886621  1
  Ba  Ba3  1  0.25000000  0.04261454  0.86960878  1
  Ba  Ba4  1  0.75000000  0.95738546  0.13039122  1
  Ba  Ba5  1  0.25000000  0.52036130  0.12113379  1
  Ba  Ba6  1  0.75000000  0.45738546  0.36960878  1
  Ba  Ba7  1  0.25000000  0.54261454  0.63039122  1
  In  In0  1  0.75000000  0.21095328  0.37312046  1
  In  In1  1  0.25000000  0.67349186  0.94192663  1
  In  In2  1  0.75000000  0.32650814  0.05807337  1
  In  In3  1  0.75000000  0.82650814  0.44192663  1
  In  In4  1  0.75000000  0.34166873  0.68903020  1
  In  In5  1  0.25000000  0.32858958  0.52811571  1
  In  In6  1  0.75000000  0.84166873  0.81096980  1
  In  In7  1  0.25000000  0.82858958  0.97188429  1
  In  In8  1  0.25000000  0.65833127  0.31096980  1
  In  In9  1  0.75000000  0.71095328  0.12687954  1
  In  In10  1  0.25000000  0.17349186  0.55807337  1
  In  In11  1  0.25000000  0.28904672  0.87312046  1
  In  In12  1  0.25000000  0.15833127  0.18903020  1
  In  In13  1  0.75000000  0.67141042  0.47188429  1
  In  In14  1  0.75000000  0.18866732  0.72133735  1
  In  In15  1  0.75000000  0.68866732  0.77866265  1
  In  In16  1  0.25000000  0.78904672  0.62687954  1
  In  In17  1  0.25000000  0.81133268  0.27866265  1
  In  In18  1  0.75000000  0.17141042  0.02811571  1
  In  In19  1  0.25000000  0.31133268  0.22133735  1
  As  As0  1  0.25000000  0.58381089  0.44177197  1
  As  As1  1  0.25000000  0.10509367  0.69014242  1
  As  As2  1  0.75000000  0.69633846  0.62562991  1
  As  As3  1  0.75000000  0.89490633  0.30985758  1
  As  As4  1  0.75000000  0.91618911  0.94177197  1
  As  As5  1  0.75000000  0.10760361  0.26377006  1
  As  As6  1  0.25000000  0.88452190  0.51180462  1
  As  As7  1  0.25000000  0.39239639  0.76377006  1
  As  As8  1  0.75000000  0.61547810  0.01180462  1
  As  As9  1  0.75000000  0.41618911  0.55822803  1
  As  As10  1  0.25000000  0.80366154  0.12562991  1
  As  As11  1  0.25000000  0.60509367  0.80985758  1
  As  As12  1  0.25000000  0.30366154  0.37437009  1
  As  As13  1  0.75000000  0.11547810  0.48819538  1
  As  As14  1  0.25000000  0.38452190  0.98819538  1
  As  As15  1  0.25000000  0.08381089  0.05822803  1
  As  As16  1  0.25000000  0.89239639  0.73622994  1
  As  As17  1  0.75000000  0.60760361  0.23622994  1
  As  As18  1  0.75000000  0.39490633  0.19014242  1
  As  As19  1  0.75000000  0.19633846  0.87437009  1
loop_
_geom_bond_atom_site_label_1
_geom_bond_atom_site_label_2
_geom_bond_distance
_geom_bond_site_symmetry_2
In1 In7 2.810818 1_555
In10 In5 2.810818 1_555
In12 In19 2.782919 1_555
In13 In3 2.810818 1_555
In14 In4 2.782919 1_555
In15 In6 2.782919 1_555
In17 In8 2.782919 1_555
In18 In2 2.810818 1_555
As0 In8 2.717755 1_555
As0 In13 2.721226 1_555
As0 In13 2.721226 1_455
As0 Ba6 3.383433 1_555
As0 Ba6 3.383433 1_455
As0 Ba7 3.499237 1_555
As1 In14 2.684966 1_455
As1 In14 2.684966 1_555
As1 In10 2.686849 1_555
As1 Ba0 3.350191 1_445
As1 Ba0 3.350191 1_545
As1 Ba3 3.439993 1_555
As2 In16 2.720002 1_555
As2 In16 2.720002 1_655
As2 In15 2.779489 1_555
As2 In13 2.824073 1_555
As2 Ba7 3.487009 1_555
As2 Ba7 3.487009 1_655
As3 In17 2.684966 1_655
As3 In17 2.684966 1_555
As3 In3 2.686849 1_555
As3 Ba1 3.350191 1_565
As3 Ba1 3.350191 1_665
As3 Ba4 3.439993 1_555
As4 In6 2.717755 1_555
As4 In7 2.721226 1_555
As4 In7 2.721226 1_655
As4 Ba3 3.383433 1_665
As4 Ba3 3.383433 1_565
As4 Ba4 3.499237 1_556
As5 In0 2.704082 1_555
As5 In12 2.707847 1_555
As5 In12 2.707847 1_655
As5 Ba1 3.383255 1_655
As5 Ba1 3.383255 1_555
As5 Ba4 3.603999 1_545
As6 In16 2.690697 1_555
As6 In3 2.711373 1_455
As6 In3 2.711373 1_555
As6 Ba0 3.387402 1_455
As6 Ba0 3.387402 1_555
As6 Ba1 3.413179 1_565
As7 In11 2.704082 1_555
As7 In4 2.707847 1_455
As7 In4 2.707847 1_555
As7 Ba2 3.383255 1_455
As7 Ba2 3.383255 1_555
As7 Ba7 3.603999 1_555
As8 In9 2.690697 1_555
As8 In1 2.711373 1_554
As8 In1 2.711373 1_654
As8 Ba5 3.387402 1_655
As8 Ba5 3.387402 1_555
As8 Ba2 3.413179 1_554
As9 In4 2.717755 1_555
As9 In5 2.721226 1_555
As9 In5 2.721226 1_655
As9 Ba7 3.383433 1_555
As9 Ba7 3.383433 1_655
As9 Ba6 3.499237 1_555
As10 In9 2.720002 1_555
As10 In9 2.720002 1_455
As10 In17 2.779489 1_555
As10 In7 2.824073 1_554
As10 Ba4 3.487009 1_455
As10 Ba4 3.487009 1_555
As11 In15 2.684966 1_455
As11 In15 2.684966 1_555
As11 In1 2.686849 1_555
As11 Ba2 3.350191 1_555
As11 Ba2 3.350191 1_455
As11 Ba7 3.439993 1_555
As12 In0 2.720002 1_555
As12 In0 2.720002 1_455
As12 In19 2.779489 1_555
As12 In5 2.824073 1_555
As12 Ba6 3.487009 1_455
As12 Ba6 3.487009 1_555
As13 In0 2.690697 1_555
As13 In10 2.711373 1_655
As13 In10 2.711373 1_555
As13 Ba1 3.387402 1_655
As13 Ba1 3.387402 1_555
As13 Ba0 3.413179 1_545
As14 In11 2.690697 1_555
As14 In2 2.711373 1_456
As14 In2 2.711373 1_556
As14 Ba2 3.387402 1_455
As14 Ba2 3.387402 1_555
As14 Ba5 3.413179 1_556
As15 In12 2.717755 1_555
As15 In18 2.721226 1_555
As15 In18 2.721226 1_455
As15 Ba4 3.383433 1_445
As15 Ba4 3.383433 1_545
As15 Ba3 3.499237 1_554
As16 In16 2.704082 1_555
As16 In6 2.707847 1_455
As16 In6 2.707847 1_555
As16 Ba0 3.383255 1_455
As16 Ba0 3.383255 1_555
As16 Ba3 3.603999 1_565
As17 In9 2.704082 1_555
As17 In8 2.707847 1_555
As17 In8 2.707847 1_655
As17 Ba5 3.383255 1_555
As17 Ba5 3.383255 1_655
As17 Ba6 3.603999 1_555
As18 In19 2.684966 1_655
As18 In19 2.684966 1_555
As18 In2 2.686849 1_555
As18 Ba5 3.350191 1_555
As18 Ba5 3.350191 1_655
As18 Ba6 3.439993 1_555
As19 In11 2.720002 1_555
As19 In11 2.720002 1_655
As19 In14 2.779489 1_555
As19 In18 2.824073 1_556
As19 Ba3 3.487009 1_655
As19 Ba3 3.487009 1_555
