# generated using pymatgen
data_YbPaO4
_symmetry_space_group_name_H-M   'P 1'
_cell_length_a   6.72157634
_cell_length_b   6.72157634
_cell_length_c   6.72157634
_cell_angle_alpha   138.56719622
_cell_angle_beta   138.56719622
_cell_angle_gamma   60.03541240
_symmetry_Int_Tables_number   1
_chemical_formula_structural   YbPaO4
_chemical_formula_sum   'Yb2 Pa2 O8'
_cell_volume   131.61375580
_cell_formula_units_Z   2
loop_
 _symmetry_equiv_pos_site_id
 _symmetry_equiv_pos_as_xyz
  1  'x, y, z'
loop_
 _atom_site_type_symbol
 _atom_site_label
 _atom_site_symmetry_multiplicity
 _atom_site_fract_x
 _atom_site_fract_y
 _atom_site_fract_z
 _atom_site_occupancy
  Yb  Yb0  1  0.00000000  0.00000000  0.00000000  1
  Yb  Yb1  1  0.75000000  0.25000000  0.50000000  1
  Pa  Pa0  1  0.50000000  0.50000000  0.00000000  1
  Pa  Pa1  1  0.25000000  0.75000000  0.50000000  1
  O  O0  1  0.37500000  0.37751000  0.50251000  1
  O  O1  1  0.87500000  0.87249000  0.49749000  1
  O  O2  1  0.62249000  0.12500000  0.99749000  1
  O  O3  1  0.87500000  0.37751000  0.00251000  1
  O  O4  1  0.12751000  0.62500000  0.00251000  1
  O  O5  1  0.37500000  0.87249000  0.99749000  1
  O  O6  1  0.12751000  0.12500000  0.50251000  1
  O  O7  1  0.62249000  0.62500000  0.49749000  1
loop_
_geom_bond_atom_site_label_1
_geom_bond_atom_site_label_2
_geom_bond_distance
_geom_bond_site_symmetry_2
O0 Pa1 2.217103 1_555
O0 Pa0 2.217103 1_556
O0 Yb1 2.229867 1_555
O0 Yb0 2.229867 1_555
O1 Pa1 2.217103 1_655
O1 Pa0 2.217103 1_555
O1 Yb0 2.229867 1_666
O1 Yb1 2.229867 1_565
O2 Pa1 2.217103 1_545
O2 Pa0 2.217103 1_556
O2 Yb0 2.229867 1_656
O2 Yb1 2.229867 1_556
O3 Pa1 2.217103 1_655
O3 Pa0 2.217103 1_555
O3 Yb1 2.229867 1_554
O3 Yb0 2.229867 1_655
O4 Pa0 2.217103 1_555
O4 Pa1 2.217103 1_555
O4 Yb0 2.229867 1_565
O4 Yb1 2.229867 1_454
O5 Pa0 2.217103 1_556
O5 Pa1 2.217103 1_555
O5 Yb0 2.229867 1_566
O5 Yb1 2.229867 1_566
O6 Pa0 2.217103 1_556
O6 Pa1 2.217103 1_545
O6 Yb1 2.229867 1_455
O6 Yb0 2.229867 1_555
O7 Pa0 2.217103 1_555
O7 Pa1 2.217103 1_555
O7 Yb1 2.229867 1_555
O7 Yb0 2.229867 1_666
