# generated using pymatgen
data_H4SO5
_symmetry_space_group_name_H-M   'P 1'
_cell_length_a   7.03231800
_cell_length_b   7.04388767
_cell_length_c   8.20421674
_cell_angle_alpha   86.60521742
_cell_angle_beta   81.29108073
_cell_angle_gamma   85.20157809
_symmetry_Int_Tables_number   1
_chemical_formula_structural   H4SO5
_chemical_formula_sum   'H16 S4 O20'
_cell_volume   399.85393644
_cell_formula_units_Z   4
loop_
 _symmetry_equiv_pos_site_id
 _symmetry_equiv_pos_as_xyz
  1  'x, y, z'
loop_
 _atom_site_type_symbol
 _atom_site_label
 _atom_site_symmetry_multiplicity
 _atom_site_fract_x
 _atom_site_fract_y
 _atom_site_fract_z
 _atom_site_occupancy
  H  H0  1  0.09336300  0.13069600  0.56376400  1
  H  H1  1  0.58956400  0.67600500  0.90542100  1
  H  H2  1  0.52189900  0.93982000  0.50393700  1
  H  H3  1  0.40622200  0.31159600  0.08978100  1
  H  H4  1  0.91298600  0.31017600  0.08600700  1
  H  H5  1  0.79242600  0.38373200  0.27476200  1
  H  H6  1  0.75973100  0.16565000  0.20656800  1
  H  H7  1  0.24782200  0.88999100  0.22726500  1
  H  H8  1  0.33759400  0.66533500  0.22905900  1
  H  H9  1  0.36779100  0.78283800  0.38204100  1
  H  H10  1  0.23883200  0.83097600  0.79710500  1
  H  H11  1  0.07741700  0.69140400  0.91491700  1
  H  H12  1  0.20736200  0.61393400  0.73059700  1
  H  H13  1  0.72710000  0.13087300  0.78658900  1
  H  H14  1  0.69907800  0.36835700  0.71563600  1
  H  H15  1  0.62529800  0.19971100  0.61447900  1
  S  S0  1  0.32323100  0.30196600  0.44916800  1
  S  S1  1  0.76085300  0.83932700  0.03329200  1
  S  S2  1  0.70907800  0.68015300  0.54966900  1
  S  S3  1  0.22564500  0.16018100  0.96341000  1
  O  O0  1  0.15297000  0.16406300  0.45068100  1
  O  O1  1  0.92056600  0.68969200  0.04363500  1
  O  O2  1  0.84515700  0.82188100  0.54418200  1
  O  O3  1  0.06878000  0.31188300  0.95042300  1
  O  O4  1  0.49520000  0.17419500  0.47995300  1
  O  O5  1  0.57389700  0.73082300  0.01804700  1
  O  O6  1  0.50320800  0.79913300  0.52144600  1
  O  O7  1  0.41513000  0.26229300  0.97546200  1
  O  O8  1  0.26573500  0.44003600  0.57511200  1
  O  O9  1  0.80378700  0.95980500  0.88266100  1
  O  O10  1  0.74323500  0.53848100  0.42439300  1
  O  O11  1  0.17922000  0.04030300  0.11359000  1
  O  O12  1  0.34712200  0.38363500  0.27959800  1
  O  O13  1  0.70396900  0.94131800  0.18383600  1
  O  O14  1  0.65716100  0.58350200  0.71688500  1
  O  O15  1  0.27622300  0.05618200  0.81146600  1
  O  O16  1  0.79188500  0.30205100  0.17894500  1
  O  O17  1  0.27565500  0.76797700  0.30026900  1
  O  O18  1  0.20575000  0.69481700  0.82599700  1
  O  O19  1  0.72392600  0.22671300  0.68762600  1
loop_
_geom_bond_atom_site_label_1
_geom_bond_atom_site_label_2
_geom_bond_distance
_geom_bond_site_symmetry_2
H0 O0 0.982127 1_555
H1 O5 1.009622 1_556
H1 O14 1.699401 1_555
H2 O6 1.009542 1_555
H2 O4 1.649344 1_565
H3 O7 1.010607 1_554
H3 O12 1.648547 1_555
H4 O16 1.056532 1_555
H4 O3 1.438533 1_654
H5 O16 1.001918 1_555
H5 O10 1.667827 1_555
H6 O16 1.010274 1_555
H6 O13 1.687069 1_545
H7 O17 1.040237 1_555
H7 O11 1.468801 1_565
H8 O17 0.986937 1_555
H9 O17 1.015944 1_555
H9 O6 1.609898 1_555
H10 O18 1.011863 1_555
H10 O15 1.643397 1_565
H11 O18 1.072110 1_555
H11 O1 1.407119 1_456
H12 O18 0.993155 1_555
H13 O19 1.026400 1_555
H13 O9 1.507180 1_545
H14 O19 1.031805 1_555
H14 O14 1.519801 1_555
H15 O19 1.019316 1_555
H15 O4 1.563401 1_555
O0 S0 1.601864 1_555
O1 S1 1.483182 1_555
O2 S2 1.433833 1_555
O3 S3 1.481547 1_555
O4 S0 1.489895 1_555
O5 S1 1.599230 1_555
O6 S2 1.651514 1_555
O7 S3 1.584738 1_555
O8 S0 1.450412 1_555
O9 S1 1.464320 1_556
O10 S2 1.454821 1_555
O11 S3 1.462462 1_554
O12 S0 1.464641 1_555
O13 S1 1.452235 1_555
O14 S2 1.502705 1_555
O15 S3 1.465402 1_555
