# generated using pymatgen
data_CdI2
_symmetry_space_group_name_H-M   'P 1'
_cell_length_a   4.34483073
_cell_length_b   4.34483073
_cell_length_c   80.94515200
_cell_angle_alpha   90.00000000
_cell_angle_beta   90.00000000
_cell_angle_gamma   120.00001114
_symmetry_Int_Tables_number   1
_chemical_formula_structural   CdI2
_chemical_formula_sum   'Cd11 I22'
_cell_volume   1323.32692557
_cell_formula_units_Z   11
loop_
 _symmetry_equiv_pos_site_id
 _symmetry_equiv_pos_as_xyz
  1  'x, y, z'
loop_
 _atom_site_type_symbol
 _atom_site_label
 _atom_site_symmetry_multiplicity
 _atom_site_fract_x
 _atom_site_fract_y
 _atom_site_fract_z
 _atom_site_occupancy
  Cd  Cd0  1  0.00000000  0.00000000  0.20453600  1
  Cd  Cd1  1  0.00000000  0.00000000  0.02273100  1
  Cd  Cd2  1  0.66666700  0.33333300  0.11365600  1
  Cd  Cd3  1  0.33333300  0.66666700  0.84092100  1
  Cd  Cd4  1  0.00000000  0.00000000  0.38638600  1
  Cd  Cd5  1  0.66666700  0.33333300  0.29545800  1
  Cd  Cd6  1  0.66666700  0.33333300  0.47727800  1
  Cd  Cd7  1  0.66666700  0.33333300  0.74999500  1
  Cd  Cd8  1  0.66666700  0.33333300  0.93181000  1
  Cd  Cd9  1  0.00000000  0.00000000  0.56817000  1
  Cd  Cd10  1  0.66666700  0.33333300  0.65906700  1
  I  I0  1  0.33333300  0.66666700  0.09226600  1
  I  I1  1  0.66666700  0.33333300  0.58953200  1
  I  I2  1  0.00000000  0.00000000  0.86229500  1
  I  I3  1  0.00000000  0.00000000  0.68044600  1
  I  I4  1  0.33333300  0.66666700  0.45589100  1
  I  I5  1  0.66666700  0.33333300  0.40776600  1
  I  I6  1  0.33333300  0.66666700  0.18316200  1
  I  I7  1  0.33333300  0.66666700  0.63769900  1
  I  I8  1  0.00000000  0.00000000  0.77136600  1
  I  I9  1  0.00000000  0.00000000  0.95318100  1
  I  I10  1  0.33333300  0.66666700  0.72860600  1
  I  I11  1  0.33333300  0.66666700  0.54680400  1
  I  I12  1  0.66666700  0.33333300  0.04411000  1
  I  I13  1  0.66666700  0.33333300  0.81954100  1
  I  I14  1  0.66666700  0.33333300  0.22590800  1
  I  I15  1  0.33333300  0.66666700  0.91040200  1
  I  I16  1  0.33333300  0.66666700  0.27409100  1
  I  I17  1  0.33333300  0.66666700  0.00138900  1
  I  I18  1  0.33333300  0.66666700  0.36501500  1
  I  I19  1  0.00000000  0.00000000  0.49864500  1
  I  I20  1  0.00000000  0.00000000  0.31684600  1
  I  I21  1  0.00000000  0.00000000  0.13503000  1
loop_
_geom_bond_atom_site_label_1
_geom_bond_atom_site_label_2
_geom_bond_distance
_geom_bond_site_symmetry_2
Cd0 I14 3.047174 1_455
Cd0 I14 3.047176 1_555
Cd0 I14 3.047176 1_445
Cd0 I6 3.047266 1_545
Cd0 I6 3.047268 1_445
Cd0 I6 3.047268 1_555
Cd1 I17 3.045796 1_545
Cd1 I17 3.045798 1_555
Cd1 I17 3.045798 1_445
Cd1 I12 3.047495 1_455
Cd1 I12 3.047498 1_555
Cd1 I12 3.047498 1_445
Cd2 I21 3.047266 1_655
Cd2 I21 3.047268 1_665
Cd2 I21 3.047268 1_555
Cd2 I0 3.048001 1_545
Cd2 I0 3.048001 1_655
Cd2 I0 3.048007 1_555
Cd3 I2 3.047266 1_565
Cd3 I2 3.047268 1_665
Cd3 I2 3.047268 1_555
Cd3 I13 3.047541 1_455
Cd3 I13 3.047541 1_565
Cd3 I13 3.047547 1_555
Cd4 I18 3.047128 1_545
Cd4 I18 3.047130 1_445
Cd4 I18 3.047130 1_555
Cd4 I5 3.047541 1_455
Cd4 I5 3.047544 1_555
Cd4 I5 3.047544 1_445
Cd5 I16 3.046944 1_545
Cd5 I16 3.046944 1_655
Cd5 I16 3.046950 1_555
Cd5 I20 3.047909 1_655
Cd5 I20 3.047912 1_665
Cd5 I20 3.047912 1_555
Cd6 I19 3.046944 1_655
Cd6 I19 3.046947 1_665
Cd6 I19 3.046947 1_555
Cd6 I4 3.047863 1_545
Cd6 I4 3.047863 1_655
Cd6 I4 3.047869 1_555
Cd7 I8 3.047128 1_655
Cd7 I8 3.047130 1_665
Cd7 I8 3.047130 1_555
Cd7 I10 3.047955 1_545
Cd7 I10 3.047955 1_655
Cd7 I10 3.047961 1_555
Cd8 I9 3.047128 1_655
Cd8 I9 3.047130 1_555
Cd8 I9 3.047130 1_665
Cd8 I15 3.048829 1_545
Cd8 I15 3.048829 1_655
Cd8 I15 3.048835 1_555
Cd9 I1 3.046714 1_455
Cd9 I1 3.046717 1_555
Cd9 I1 3.046717 1_445
Cd9 I11 3.046898 1_545
Cd9 I11 3.046901 1_555
Cd9 I11 3.046901 1_445
Cd10 I7 3.046989 1_545
Cd10 I7 3.046989 1_655
Cd10 I7 3.046996 1_555
Cd10 I3 3.047495 1_655
Cd10 I3 3.047498 1_555
Cd10 I3 3.047498 1_665
