# generated using pymatgen
data_Ba16Tb8Nb5(SnO16)3
_symmetry_space_group_name_H-M   'P 1'
_cell_length_a   6.08103900
_cell_length_b   6.08103900
_cell_length_c   34.54696000
_cell_angle_alpha   90.00000000
_cell_angle_beta   90.00000000
_cell_angle_gamma   90.00000000
_symmetry_Int_Tables_number   1
_chemical_formula_structural   Ba16Tb8Nb5(SnO16)3
_chemical_formula_sum   'Ba16 Tb8 Nb5 Sn3 O48'
_cell_volume   1277.51325402
_cell_formula_units_Z   1
loop_
 _symmetry_equiv_pos_site_id
 _symmetry_equiv_pos_as_xyz
  1  'x, y, z'
loop_
 _atom_site_type_symbol
 _atom_site_label
 _atom_site_symmetry_multiplicity
 _atom_site_fract_x
 _atom_site_fract_y
 _atom_site_fract_z
 _atom_site_occupancy
  Ba  Ba0  1  0.50000000  0.00000000  0.06236000  1
  Ba  Ba1  1  0.00000000  0.50000000  0.18755100  1
  Ba  Ba2  1  0.00000000  0.50000000  0.06236000  1
  Ba  Ba3  1  0.50000000  0.00000000  0.31292500  1
  Ba  Ba4  1  0.50000000  0.00000000  0.18755100  1
  Ba  Ba5  1  0.00000000  0.50000000  0.43860200  1
  Ba  Ba6  1  0.00000000  0.50000000  0.31292500  1
  Ba  Ba7  1  0.50000000  0.00000000  0.56152700  1
  Ba  Ba8  1  0.50000000  0.00000000  0.43860200  1
  Ba  Ba9  1  0.00000000  0.50000000  0.68739400  1
  Ba  Ba10  1  0.00000000  0.50000000  0.56152700  1
  Ba  Ba11  1  0.50000000  0.00000000  0.81180200  1
  Ba  Ba12  1  0.50000000  0.00000000  0.68739400  1
  Ba  Ba13  1  0.00000000  0.50000000  0.93791500  1
  Ba  Ba14  1  0.00000000  0.50000000  0.81180200  1
  Ba  Ba15  1  0.50000000  0.00000000  0.93791500  1
  Tb  Tb0  1  0.00000000  0.00000000  0.12597000  1
  Tb  Tb1  1  0.50000000  0.50000000  0.25004900  1
  Tb  Tb2  1  0.00000000  0.00000000  0.37547800  1
  Tb  Tb3  1  0.50000000  0.50000000  0.49992400  1
  Tb  Tb4  1  0.00000000  0.00000000  0.62453300  1
  Tb  Tb5  1  0.50000000  0.50000000  0.74917700  1
  Tb  Tb6  1  0.50000000  0.50000000  0.87594700  1
  Tb  Tb7  1  0.00000000  0.00000000  0.99960000  1
  Nb  Nb0  1  0.50000000  0.50000000  0.12465100  1
  Nb  Nb1  1  0.00000000  0.00000000  0.25049000  1
  Nb  Nb2  1  0.50000000  0.50000000  0.37516100  1
  Nb  Nb3  1  0.50000000  0.50000000  0.62456200  1
  Nb  Nb4  1  0.00000000  0.00000000  0.87434700  1
  Sn  Sn0  1  0.00000000  0.00000000  0.49991800  1
  Sn  Sn1  1  0.00000000  0.00000000  0.75006600  1
  Sn  Sn2  1  0.50000000  0.50000000  0.00047600  1
  O  O0  1  0.00000000  0.00000000  0.06312000  1
  O  O1  1  0.72616900  0.25649500  0.12569500  1
  O  O2  1  0.25649500  0.27383100  0.12569500  1
  O  O3  1  0.50000000  0.50000000  0.18382900  1
  O  O4  1  0.50000000  0.50000000  0.06460800  1
  O  O5  1  0.74350500  0.72616900  0.12569500  1
  O  O6  1  0.22708200  0.75538100  0.24991700  1
  O  O7  1  0.27383100  0.74350500  0.12569500  1
  O  O8  1  0.75538100  0.77291800  0.24991700  1
  O  O9  1  0.00000000  0.00000000  0.30915900  1
  O  O10  1  0.00000000  0.00000000  0.19184800  1
  O  O11  1  0.24461900  0.22708200  0.24991700  1
  O  O12  1  0.72659800  0.25589100  0.37427300  1
  O  O13  1  0.77291800  0.24461900  0.24991700  1
  O  O14  1  0.25589100  0.27340200  0.37427300  1
  O  O15  1  0.50000000  0.50000000  0.43347000  1
  O  O16  1  0.50000000  0.50000000  0.31545500  1
  O  O17  1  0.74410900  0.72659800  0.37427300  1
  O  O18  1  0.23260000  0.75010500  0.49988300  1
  O  O19  1  0.27340200  0.74410900  0.37427300  1
  O  O20  1  0.75010500  0.76740000  0.49988300  1
  O  O21  1  0.00000000  0.00000000  0.56052300  1
  O  O22  1  0.00000000  0.00000000  0.43920500  1
  O  O23  1  0.24989500  0.23260000  0.49988300  1
  O  O24  1  0.72679800  0.25597000  0.62504800  1
  O  O25  1  0.76740000  0.24989500  0.49988300  1
  O  O26  1  0.25597000  0.27320200  0.62504800  1
  O  O27  1  0.50000000  0.50000000  0.68299300  1
  O  O28  1  0.50000000  0.50000000  0.56594500  1
  O  O29  1  0.74403000  0.72679800  0.62504800  1
  O  O30  1  0.23117600  0.75216600  0.75015400  1
  O  O31  1  0.27320200  0.74403000  0.62504800  1
  O  O32  1  0.75216600  0.76882400  0.75015400  1
  O  O33  1  0.00000000  0.00000000  0.81443500  1
  O  O34  1  0.00000000  0.00000000  0.68945400  1
  O  O35  1  0.24783400  0.23117600  0.75015400  1
  O  O36  1  0.75629700  0.22656700  0.87462000  1
  O  O37  1  0.76882400  0.24783400  0.75015400  1
  O  O38  1  0.22656700  0.24370300  0.87462000  1
  O  O39  1  0.50000000  0.50000000  0.94041100  1
  O  O40  1  0.50000000  0.50000000  0.81240000  1
  O  O41  1  0.77343300  0.75629700  0.87462000  1
  O  O42  1  0.25125800  0.73200000  0.00049700  1
  O  O43  1  0.24370300  0.77343300  0.87462000  1
  O  O44  1  0.73200000  0.74874200  0.00049700  1
  O  O45  1  0.00000000  0.00000000  0.93223700  1
  O  O46  1  0.26800000  0.25125800  0.00049700  1
  O  O47  1  0.74874200  0.26800000  0.00049700  1
loop_
_geom_bond_atom_site_label_1
_geom_bond_atom_site_label_2
_geom_bond_distance
_geom_bond_site_symmetry_2
Ba0 O46 2.982013 1_555
Ba0 O44 2.982013 1_545
Ba0 O1 3.018591 1_555
Ba0 O7 3.018591 1_545
Ba0 O0 3.040633 1_555
Ba0 O0 3.040633 1_655
Ba0 O4 3.041511 1_555
Ba0 O4 3.041511 1_545
Ba0 O42 3.084072 1_545
Ba0 O47 3.084072 1_555
Ba0 O2 3.122973 1_555
Ba0 O5 3.122973 1_545
Ba1 O5 2.981762 1_455
Ba1 O2 2.981762 1_555
Ba1 O6 2.993448 1_555
Ba1 O13 2.993448 1_455
Ba1 O3 3.043237 1_455
Ba1 O3 3.043237 1_555
Ba1 O10 3.044141 1_555
Ba1 O10 3.044141 1_565
Ba1 O7 3.087389 1_555
Ba1 O1 3.087389 1_455
Ba1 O8 3.099876 1_455
Ba1 O11 3.099876 1_555
Ba2 O42 2.982013 1_555
Ba2 O47 2.982013 1_455
Ba2 O5 3.018591 1_455
Ba2 O2 3.018591 1_555
Ba2 O0 3.040633 1_555
Ba2 O0 3.040633 1_565
Ba2 O4 3.041511 1_555
Ba2 O4 3.041511 1_455
Ba2 O44 3.084072 1_455
Ba2 O46 3.084072 1_555
Ba2 O7 3.122973 1_555
Ba2 O1 3.122973 1_455
Ba3 O12 2.968492 1_555
Ba3 O19 2.968492 1_545
Ba3 O8 3.009451 1_545
Ba3 O11 3.009451 1_555
Ba3 O16 3.041776 1_545
Ba3 O16 3.041776 1_555
Ba3 O9 3.043302 1_555
Ba3 O9 3.043302 1_655
Ba3 O17 3.075628 1_545
Ba3 O14 3.075628 1_555
Ba3 O13 3.115333 1_555
Ba3 O6 3.115333 1_545
Ba4 O1 2.981762 1_555
Ba4 O7 2.981762 1_545
Ba4 O8 2.993448 1_545
Ba4 O11 2.993448 1_555
Ba4 O3 3.043237 1_545
Ba4 O3 3.043237 1_555
Ba4 O10 3.044141 1_655
Ba4 O10 3.044141 1_555
Ba4 O5 3.087389 1_545
Ba4 O2 3.087389 1_555
Ba4 O13 3.099876 1_555
Ba4 O6 3.099876 1_545
Ba5 O18 2.965770 1_555
Ba5 O25 2.965770 1_455
Ba5 O22 3.040591 1_555
Ba5 O22 3.040591 1_565
Ba5 O14 3.042873 1_555
Ba5 O17 3.042873 1_455
Ba5 O15 3.045684 1_455
Ba5 O15 3.045684 1_555
Ba5 O23 3.071701 1_555
Ba5 O20 3.071701 1_455
Ba5 O19 3.147478 1_555
Ba5 O12 3.147478 1_455
Ba6 O14 2.968492 1_555
Ba6 O17 2.968492 1_455
Ba6 O6 3.009451 1_555
Ba6 O13 3.009451 1_455
Ba6 O16 3.041776 1_455
Ba6 O16 3.041776 1_555
Ba6 O9 3.043302 1_555
Ba6 O9 3.043302 1_565
Ba6 O19 3.075628 1_555
Ba6 O12 3.075628 1_455
Ba6 O8 3.115333 1_455
Ba6 O11 3.115333 1_555
Ba7 O20 2.974735 1_545
Ba7 O23 2.974735 1_555
Ba7 O24 3.023349 1_555
Ba7 O31 3.023349 1_545
Ba7 O21 3.040717 1_555
Ba7 O21 3.040717 1_655
Ba7 O28 3.044348 1_555
Ba7 O28 3.044348 1_545
Ba7 O25 3.080358 1_555
Ba7 O18 3.080358 1_545
Ba7 O26 3.126957 1_555
Ba7 O29 3.126957 1_545
Ba8 O20 2.965770 1_545
Ba8 O23 2.965770 1_555
Ba8 O22 3.040591 1_555
Ba8 O22 3.040591 1_655
Ba8 O19 3.042873 1_545
Ba8 O12 3.042873 1_555
Ba8 O15 3.045684 1_555
Ba8 O15 3.045684 1_545
Ba8 O25 3.071701 1_555
Ba8 O18 3.071701 1_545
Ba8 O14 3.147478 1_555
Ba8 O17 3.147478 1_545
Ba9 O29 2.994015 1_455
Ba9 O26 2.994015 1_555
Ba9 O30 3.004764 1_555
Ba9 O37 3.004764 1_455
Ba9 O34 3.041352 1_555
Ba9 O34 3.041352 1_565
Ba9 O27 3.044319 1_455
Ba9 O27 3.044319 1_555
Ba9 O31 3.098604 1_555
Ba9 O24 3.098604 1_455
Ba9 O35 3.105576 1_555
Ba9 O32 3.105576 1_455
Ba10 O18 2.974735 1_555
Ba10 O25 2.974735 1_455
Ba10 O29 3.023349 1_455
Ba10 O26 3.023349 1_555
Ba10 O21 3.040717 1_565
Ba10 O21 3.040717 1_555
Ba10 O28 3.044348 1_555
Ba10 O28 3.044348 1_455
Ba10 O23 3.080358 1_555
Ba10 O20 3.080358 1_455
Ba10 O31 3.126957 1_555
Ba10 O24 3.126957 1_455
Ba11 O35 2.977163 1_555
Ba11 O32 2.977163 1_545
Ba11 O36 3.006153 1_555
Ba11 O43 3.006153 1_545
Ba11 O40 3.040590 1_545
Ba11 O40 3.040590 1_555
Ba11 O33 3.041880 1_655
Ba11 O33 3.041880 1_555
Ba11 O37 3.078879 1_555
Ba11 O30 3.078879 1_545
Ba11 O41 3.109764 1_545
Ba11 O38 3.109764 1_555
Ba12 O24 2.994015 1_555
Ba12 O31 2.994015 1_545
Ba12 O35 3.004764 1_555
Ba12 O32 3.004764 1_545
Ba12 O34 3.041352 1_555
Ba12 O34 3.041352 1_655
Ba12 O27 3.044319 1_555
Ba12 O27 3.044319 1_545
Ba12 O26 3.098604 1_555
Ba12 O29 3.098604 1_545
Ba12 O37 3.105576 1_555
Ba12 O30 3.105576 1_545
Ba13 O47 2.999865 1_456
Ba13 O42 2.999865 1_556
Ba13 O41 3.018071 1_455
Ba13 O38 3.018071 1_555
Ba13 O39 3.041742 1_455
Ba13 O39 3.041742 1_555
Ba13 O45 3.046840 1_565
Ba13 O45 3.046840 1_555
Ba13 O46 3.101337 1_556
Ba13 O44 3.101337 1_456
Ba13 O43 3.121286 1_555
Ba13 O36 3.121286 1_455
Ba14 O30 2.977163 1_555
Ba14 O37 2.977163 1_455
Ba14 O41 3.006153 1_455
Ba14 O38 3.006153 1_555
Ba14 O40 3.040590 1_455
Ba14 O40 3.040590 1_555
Ba14 O33 3.041880 1_555
Ba14 O33 3.041880 1_565
Ba14 O32 3.078879 1_455
Ba14 O35 3.078879 1_555
Ba14 O43 3.109764 1_555
Ba14 O36 3.109764 1_455
Ba15 O46 2.999865 1_556
Ba15 O44 2.999865 1_546
Ba15 O36 3.018071 1_555
Ba15 O43 3.018071 1_545
Ba15 O39 3.041742 1_555
Ba15 O39 3.041742 1_545
Ba15 O45 3.046840 1_655
Ba15 O45 3.046840 1_555
Ba15 O42 3.101337 1_546
Ba15 O47 3.101337 1_556
Ba15 O41 3.121286 1_545
Ba15 O38 3.121286 1_555
Nb0 O5 2.021269 1_555
Nb0 O1 2.021269 1_555
Nb0 O7 2.021269 1_555
Nb0 O2 2.021269 1_555
Nb0 O3 2.044420 1_555
Nb0 O4 2.074303 1_555
Nb1 O10 2.025903 1_555
Nb1 O9 2.026836 1_555
Nb1 O11 2.029786 1_555
Nb1 O6 2.029786 1_545
Nb1 O13 2.029786 1_455
Nb1 O8 2.029786 1_445
Nb2 O15 2.014399 1_555
Nb2 O19 2.025646 1_555
Nb2 O12 2.025646 1_555
Nb2 O17 2.025646 1_555
Nb2 O14 2.025646 1_555
Nb2 O16 2.062661 1_555
Nb3 O27 2.018613 1_555
Nb3 O28 2.025039 1_555
Nb3 O24 2.025959 1_555
Nb3 O29 2.025959 1_555
Nb3 O26 2.025959 1_555
Nb3 O31 2.025959 1_555
Nb4 O45 1.999924 1_555
Nb4 O38 2.023499 1_555
Nb4 O43 2.023499 1_545
Nb4 O36 2.023499 1_455
Nb4 O41 2.023499 1_445
Nb4 O33 2.069777 1_555
O0 Tb0 2.171276 1_555
O0 Tb7 2.194423 1_554
O1 Tb0 2.281610 1_655
O2 Tb0 2.281610 1_555
O3 Tb1 2.287700 1_555
O4 Sn2 2.215566 1_555
O5 Tb0 2.281610 1_665
O6 Tb1 2.272912 1_555
O7 Tb0 2.281610 1_565
O8 Tb1 2.272912 1_555
O9 Tb2 2.291120 1_555
O10 Tb0 2.275885 1_555
O11 Tb1 2.272912 1_555
O12 Tb2 2.277556 1_655
O13 Tb1 2.272912 1_555
O14 Tb2 2.277556 1_555
O15 Tb3 2.295784 1_555
O16 Tb1 2.259578 1_555
O17 Tb2 2.277556 1_665
O18 Sn0 2.076034 1_565
O18 Tb3 2.226485 1_555
O19 Tb2 2.277556 1_565
O20 Sn0 2.076034 1_665
O20 Tb3 2.226485 1_555
O21 Sn0 2.093719 1_555
O21 Tb4 2.211351 1_555
O22 Sn0 2.097450 1_555
O22 Tb2 2.201574 1_555
O23 Sn0 2.076034 1_555
O23 Tb3 2.226485 1_555
O24 Tb4 2.276686 1_655
O25 Sn0 2.076034 1_655
O25 Tb3 2.226485 1_555
O26 Tb4 2.276686 1_555
O27 Tb5 2.286456 1_555
O28 Tb3 2.280825 1_555
O29 Tb4 2.276686 1_665
O30 Sn1 2.060963 1_565
O30 Tb5 2.241627 1_555
O31 Tb4 2.276686 1_565
O32 Sn1 2.060963 1_665
O32 Tb5 2.241627 1_555
O33 Sn1 2.223753 1_555
O34 Sn1 2.093960 1_555
O34 Tb4 2.242823 1_555
O35 Sn1 2.060963 1_555
O35 Tb5 2.241627 1_555
O36 Tb6 2.279462 1_555
O37 Sn1 2.060963 1_655
O37 Tb5 2.241627 1_555
O38 Tb6 2.279462 1_555
O39 Sn2 2.075063 1_556
O39 Tb6 2.227035 1_555
O40 Tb5 2.184162 1_555
O40 Tb6 2.195356 1_555
O41 Tb6 2.279462 1_555
O42 Sn2 2.068417 1_555
O42 Tb7 2.234155 1_564
O43 Tb6 2.279462 1_555
O44 Sn2 2.068417 1_555
O44 Tb7 2.234155 1_664
O45 Tb7 2.327187 1_555
O46 Sn2 2.068417 1_555
O46 Tb7 2.234155 1_554
O47 Sn2 2.068417 1_555
O47 Tb7 2.234155 1_654
