# generated using pymatgen
data_Ca6TiAl5Si6(O5F)5
_symmetry_space_group_name_H-M   'P 1'
_cell_length_a   5.40492700
_cell_length_b   5.40725788
_cell_length_c   38.50679381
_cell_angle_alpha   91.65765246
_cell_angle_beta   91.67164256
_cell_angle_gamma   105.71598908
_symmetry_Int_Tables_number   1
_chemical_formula_structural   Ca6TiAl5Si6(O5F)5
_chemical_formula_sum   'Ca12 Ti2 Al10 Si12 O50 F10'
_cell_volume   1082.06714693
_cell_formula_units_Z   2
loop_
 _symmetry_equiv_pos_site_id
 _symmetry_equiv_pos_as_xyz
  1  'x, y, z'
loop_
 _atom_site_type_symbol
 _atom_site_label
 _atom_site_symmetry_multiplicity
 _atom_site_fract_x
 _atom_site_fract_y
 _atom_site_fract_z
 _atom_site_occupancy
  Ca  Ca0  1  0.95555800  0.28460200  0.04346200  1
  Ca  Ca1  1  0.46406300  0.79033500  0.20916900  1
  Ca  Ca2  1  0.96270000  0.28943400  0.37543600  1
  Ca  Ca3  1  0.46259400  0.78934800  0.54205200  1
  Ca  Ca4  1  0.54078400  0.21414200  0.12662100  1
  Ca  Ca5  1  0.96159600  0.28837700  0.70823800  1
  Ca  Ca6  1  0.03951300  0.71292100  0.29218100  1
  Ca  Ca7  1  0.46009600  0.79216800  0.87188100  1
  Ca  Ca8  1  0.53935100  0.21262000  0.45873200  1
  Ca  Ca9  1  0.03921900  0.71260500  0.62531800  1
  Ca  Ca10  1  0.53885600  0.21190500  0.79080900  1
  Ca  Ca11  1  0.03065700  0.70235700  0.95588300  1
  Ti  Ti0  1  0.24960200  0.24084800  0.91276800  1
  Ti  Ti1  1  0.47887400  0.49563000  0.99747900  1
  Al  Al0  1  0.75136400  0.74795300  0.08497200  1
  Al  Al1  1  0.00156300  0.00082100  0.16740600  1
  Al  Al2  1  0.25031700  0.25060600  0.25033900  1
  Al  Al3  1  0.50016300  0.49988000  0.33347500  1
  Al  Al4  1  0.74971300  0.74998500  0.41672200  1
  Al  Al5  1  0.99988400  0.99965900  0.50002200  1
  Al  Al6  1  0.24956000  0.24980000  0.58329600  1
  Al  Al7  1  0.49965500  0.49960500  0.66648600  1
  Al  Al8  1  0.74959600  0.74990600  0.74945200  1
  Al  Al9  1  0.00656700  0.00102900  0.83259100  1
  Si  Si0  1  0.19063600  0.56239400  0.12625500  1
  Si  Si1  1  0.68889300  0.06183200  0.29183400  1
  Si  Si2  1  0.18859900  0.56154700  0.45834300  1
  Si  Si3  1  0.30960400  0.93658800  0.04489000  1
  Si  Si4  1  0.68846900  0.06148400  0.62487000  1
  Si  Si5  1  0.81262300  0.43957300  0.20874500  1
  Si  Si6  1  0.18790400  0.56034900  0.79011400  1
  Si  Si7  1  0.31158200  0.93866100  0.37500800  1
  Si  Si8  1  0.68926600  0.06019800  0.95903400  1
  Si  Si9  1  0.81150100  0.43857100  0.54161500  1
  Si  Si10  1  0.31105700  0.93820300  0.70798000  1
  Si  Si11  1  0.81300200  0.44191600  0.87200600  1
  O  O0  1  0.30598100  0.16525300  0.01746800  1
  O  O1  1  0.91324500  0.50387800  0.10361400  1
  O  O2  1  0.80937700  0.67717200  0.18287400  1
  O  O3  1  0.42661100  0.55908500  0.10006300  1
  O  O4  1  0.24855300  0.83948500  0.14873700  1
  O  O5  1  0.41239400  0.00431100  0.26893000  1
  O  O6  1  0.24428900  0.66149800  0.02207800  1
  O  O7  1  0.30828500  0.17651700  0.34914500  1
  O  O8  1  0.07684600  0.94941200  0.07055200  1
  O  O9  1  0.92651700  0.05856200  0.26590200  1
  O  O10  1  0.74635400  0.33831900  0.31461000  1
  O  O11  1  0.91214200  0.50398500  0.43538100  1
  O  O12  1  0.59023800  0.99630400  0.06611100  1
  O  O13  1  0.75506600  0.16329000  0.18587700  1
  O  O14  1  0.80820200  0.67650700  0.51576500  1
  O  O15  1  0.57369900  0.44172900  0.23443500  1
  O  O16  1  0.42651600  0.55825200  0.43244100  1
  O  O17  1  0.19416800  0.32443700  0.15184400  1
  O  O18  1  0.24596900  0.83799200  0.48113600  1
  O  O19  1  0.41193800  0.00379400  0.60194800  1
  O  O20  1  0.08918800  0.49707100  0.23151700  1
  O  O21  1  0.25399000  0.66231200  0.35208900  1
  O  O22  1  0.30816300  0.17636000  0.68217600  1
  O  O23  1  0.07292000  0.94102300  0.40076000  1
  O  O24  1  0.92646200  0.05807500  0.59900900  1
  O  O25  1  0.69126300  0.82312100  0.31752300  1
  O  O26  1  0.74591300  0.33795500  0.64762600  1
  O  O27  1  0.91088200  0.50175700  0.76754800  1
  O  O28  1  0.58813800  0.99600900  0.39782900  1
  O  O29  1  0.75388200  0.16222400  0.51868700  1
  O  O30  1  0.79837800  0.67151200  0.84598100  1
  O  O31  1  0.57289500  0.44094000  0.56737900  1
  O  O32  1  0.42542500  0.55504600  0.76446100  1
  O  O33  1  0.19097100  0.32292800  0.48405800  1
  O  O34  1  0.24662000  0.83724100  0.81265400  1
  O  O35  1  0.41092700  0.99414600  0.93748000  1
  O  O36  1  0.08804700  0.49591700  0.56443600  1
  O  O37  1  0.25332300  0.66182600  0.68509400  1
  O  O38  1  0.19283600  0.05323500  0.87363100  1
  O  O39  1  0.07296900  0.94108200  0.73375200  1
  O  O40  1  0.91080200  0.04861800  0.93149400  1
  O  O41  1  0.69085500  0.82319100  0.65062300  1
  O  O42  1  0.75524500  0.33788300  0.98137700  1
  O  O43  1  0.58750400  0.99569200  0.73079100  1
  O  O44  1  0.75038900  0.16161800  0.85074000  1
  O  O45  1  0.59321100  0.45204200  0.90092000  1
  O  O46  1  0.30146800  0.44932200  0.95843200  1
  O  O47  1  0.19027400  0.32593400  0.81642400  1
  O  O48  1  0.08809400  0.50647800  0.89518000  1
  O  O49  1  0.70639300  0.83805800  0.98681800  1
  F  F0  1  0.70343200  0.55933200  0.04419300  1
  F  F1  1  0.19392500  0.05685500  0.20881900  1
  F  F2  1  0.80653200  0.94376800  0.12608000  1
  F  F3  1  0.69310400  0.55662800  0.37499100  1
  F  F4  1  0.30686200  0.44340600  0.29179800  1
  F  F5  1  0.19306200  0.05661900  0.54155900  1
  F  F6  1  0.80663000  0.94311500  0.45827000  1
  F  F7  1  0.69402900  0.55741100  0.70769200  1
  F  F8  1  0.30645800  0.44303200  0.62480800  1
  F  F9  1  0.80716900  0.94358800  0.79090600  1
loop_
_geom_bond_atom_site_label_1
_geom_bond_atom_site_label_2
_geom_bond_distance
_geom_bond_site_symmetry_2
Ca0 F0 2.271810 1_555
Ca0 O8 2.348633 1_645
Ca0 O12 2.366679 1_545
Ca0 O6 2.390788 1_655
Ca0 O0 2.396049 1_655
Ca0 O1 2.615745 1_555
Ca0 O42 2.651119 1_554
Ca1 F1 2.312744 1_565
Ca1 O15 2.351282 1_555
Ca1 O2 2.361397 1_555
Ca1 O20 2.408444 1_555
Ca1 O13 2.411187 1_565
Ca1 O5 2.602063 1_565
Ca1 O4 2.624480 1_555
Ca2 F3 2.313322 1_555
Ca2 O23 2.352757 1_645
Ca2 O7 2.361995 1_655
Ca2 O28 2.408385 1_545
Ca2 O21 2.412466 1_655
Ca2 O11 2.608140 1_555
Ca2 O10 2.639443 1_555
Ca3 F5 2.313391 1_565
Ca3 O31 2.352993 1_555
Ca3 O14 2.361846 1_555
Ca3 O36 2.408206 1_555
Ca3 O29 2.412742 1_565
Ca3 O19 2.606367 1_565
Ca3 O18 2.642834 1_555
Ca4 F2 2.310522 1_545
Ca4 O17 2.342374 1_555
Ca4 O3 2.366999 1_555
Ca4 O1 2.401618 1_555
Ca4 O4 2.401872 1_545
Ca4 O13 2.584192 1_555
Ca4 O12 2.633655 1_545
Ca5 F7 2.312541 1_555
Ca5 O39 2.353463 1_645
Ca5 O22 2.360496 1_655
Ca5 O43 2.407395 1_545
Ca5 O37 2.412330 1_655
Ca5 O27 2.584126 1_555
Ca5 O26 2.631546 1_555
Ca6 F4 2.313634 1_555
Ca6 O25 2.351892 1_455
Ca6 O9 2.362574 1_465
Ca6 O10 2.408701 1_455
Ca6 O5 2.410933 1_565
Ca6 O21 2.606279 1_555
Ca6 O20 2.634339 1_555
Ca7 O38 2.277899 1_565
Ca7 O30 2.340574 1_555
Ca7 O44 2.363457 1_565
Ca7 O48 2.395156 1_555
Ca7 O45 2.437082 1_555
Ca7 O34 2.573520 1_555
Ca7 O35 2.771447 1_555
Ca8 F6 2.313311 1_545
Ca8 O33 2.352514 1_555
Ca8 O16 2.362336 1_555
Ca8 O18 2.408940 1_545
Ca8 O11 2.412148 1_555
Ca8 O29 2.607705 1_555
Ca8 O28 2.643058 1_545
Ca9 F8 2.313448 1_555
Ca9 O41 2.352779 1_455
Ca9 O24 2.361685 1_465
Ca9 O26 2.407356 1_455
Ca9 O19 2.411775 1_565
Ca9 O37 2.601160 1_555
Ca9 O36 2.642588 1_555
Ca10 F9 2.312567 1_545
Ca10 O32 2.353045 1_555
Ca10 O47 2.367554 1_555
Ca10 O34 2.397774 1_545
Ca10 O27 2.404362 1_555
Ca10 O44 2.599542 1_555
Ca10 O43 2.612055 1_545
Ca11 O46 2.260189 1_555
Ca11 O40 2.351711 1_465
Ca11 O35 2.368296 1_555
Ca11 O42 2.381504 1_455
Ca11 O49 2.407697 1_455
Ca11 O48 2.599855 1_555
Ca11 O6 2.806834 1_556
Al0 F0 1.820320 1_555
Al0 F2 1.849368 1_555
Al0 O3 1.893237 1_555
Al0 O8 1.908823 1_655
Al0 O1 1.914783 1_555
Al0 O12 1.934518 1_555
Al1 F1 1.849446 1_555
Al1 F2 1.853713 1_445
Al1 O2 1.899487 1_445
Al1 O17 1.901335 1_555
Al1 O13 1.925071 1_455
Al1 O4 1.926290 1_545
Al2 F4 1.852445 1_555
Al2 F1 1.856970 1_555
Al2 O9 1.900799 1_455
Al2 O15 1.902257 1_555
Al2 O5 1.924609 1_555
Al2 O20 1.925527 1_555
Al3 F3 1.854274 1_555
Al3 F4 1.860465 1_555
Al3 O7 1.900554 1_555
Al3 O25 1.902696 1_555
Al3 O21 1.925579 1_555
Al3 O10 1.926375 1_555
Al4 F6 1.856181 1_555
Al4 F3 1.862734 1_555
Al4 O16 1.899897 1_555
Al4 O23 1.902195 1_655
Al4 O11 1.925487 1_555
Al4 O28 1.926126 1_555
Al5 F5 1.855572 1_665
Al5 F6 1.862767 1_555
Al5 O14 1.900353 1_555
Al5 O33 1.902962 1_665
Al5 O29 1.926016 1_565
Al5 O18 1.926575 1_655
Al6 F8 1.855289 1_555
Al6 F5 1.862468 1_555
Al6 O24 1.899383 1_455
Al6 O31 1.902270 1_555
Al6 O19 1.925237 1_555
Al6 O36 1.925841 1_555
Al7 F7 1.848031 1_555
Al7 F8 1.860215 1_555
Al7 O22 1.899696 1_555
Al7 O41 1.903069 1_555
Al7 O37 1.925479 1_555
Al7 O26 1.926903 1_555
Al8 F9 1.854574 1_555
Al8 F7 1.861465 1_555
Al8 O39 1.899458 1_655
Al8 O32 1.899562 1_555
Al8 O27 1.923085 1_555
Al8 O43 1.923411 1_555
Al9 O38 1.821561 1_555
Al9 F9 1.877068 1_445
Al9 O47 1.901126 1_555
Al9 O34 1.923137 1_545
Al9 O30 1.925520 1_445
Al9 O44 1.957628 1_455
O0 Si3 1.652766 1_545
O0 Ti1 1.968298 1_554
O1 Si0 1.660972 1_655
O2 Si5 1.651843 1_555
O3 Si0 1.652458 1_555
O4 Si0 1.657532 1_555
O5 Si1 1.662352 1_555
O6 Si3 1.652478 1_555
O6 Ti1 1.986514 1_554
O7 Si7 1.652816 1_545
O8 Si3 1.636997 1_555
O9 Si1 1.653199 1_555
O10 Si1 1.660567 1_555
O11 Si2 1.663262 1_655
O12 Si3 1.649180 1_555
O13 Si5 1.661373 1_555
O14 Si9 1.652851 1_555
O15 Si5 1.651781 1_555
O16 Si2 1.653767 1_555
O17 Si0 1.646944 1_555
O18 Si2 1.660739 1_555
O19 Si4 1.662776 1_555
O20 Si5 1.660128 1_455
O21 Si7 1.662636 1_555
O22 Si10 1.652255 1_545
O23 Si7 1.652356 1_555
O24 Si4 1.653234 1_555
O25 Si1 1.651322 1_565
O26 Si4 1.660119 1_555
O27 Si6 1.657853 1_655
O28 Si7 1.661084 1_555
O29 Si9 1.662790 1_555
O30 Si11 1.634727 1_555
O31 Si9 1.652410 1_555
O32 Si6 1.648330 1_555
O33 Si2 1.651548 1_555
O34 Si6 1.657427 1_555
O35 Si8 1.642732 1_565
O35 Ti0 2.024962 1_565
O36 Si9 1.661039 1_455
O37 Si10 1.662074 1_555
O38 Ti0 1.763636 1_555
O39 Si10 1.650921 1_555
O40 Si8 1.634969 1_555
O40 Ti0 2.010694 1_655
O41 Si4 1.651063 1_565
O42 Si8 1.655057 1_555
O42 Ti1 2.014211 1_555
O43 Si10 1.660346 1_555
O44 Si11 1.648160 1_555
O45 Si11 1.662149 1_555
O45 Ti0 1.972818 1_555
O46 Ti1 1.734040 1_555
O46 Ti0 2.031398 1_555
O47 Si6 1.647896 1_555
O48 Si11 1.658997 1_455
O48 Ti0 1.996191 1_555
O49 Si8 1.650700 1_565
O49 Ti1 1.987228 1_555
F0 Ti1 2.106599 1_554
