# generated using pymatgen
data_Li2Mo(PO3)8
_symmetry_space_group_name_H-M   'P 1'
_cell_length_a   7.34408881
_cell_length_b   7.26102076
_cell_length_c   9.88594357
_cell_angle_alpha   70.66469234
_cell_angle_beta   80.79470941
_cell_angle_gamma   110.41165680
_symmetry_Int_Tables_number   1
_chemical_formula_structural   Li2Mo(PO3)8
_chemical_formula_sum   'Li2 Mo1 P8 O24'
_cell_volume   443.01527141
_cell_formula_units_Z   1
loop_
 _symmetry_equiv_pos_site_id
 _symmetry_equiv_pos_as_xyz
  1  'x, y, z'
loop_
 _atom_site_type_symbol
 _atom_site_label
 _atom_site_symmetry_multiplicity
 _atom_site_fract_x
 _atom_site_fract_y
 _atom_site_fract_z
 _atom_site_occupancy
  Li  Li0  1  0.99059500  0.01184800  0.03180200  1
  Li  Li1  1  0.93885700  0.19292800  0.25644500  1
  Mo  Mo0  1  0.05481500  0.80500700  0.74836100  1
  P  P0  1  0.29032600  0.48375400  0.70461200  1
  P  P1  1  0.31301500  0.01624100  0.18998300  1
  P  P2  1  0.73195700  0.26277500  0.97532800  1
  P  P3  1  0.70641300  0.50256600  0.31271200  1
  P  P4  1  0.24444600  0.29775300  0.47626000  1
  P  P5  1  0.27318300  0.72110200  0.02181400  1
  P  P6  1  0.68929700  0.99331000  0.79328200  1
  P  P7  1  0.74092500  0.71284700  0.52257400  1
  O  O0  1  0.24633800  0.09123500  0.59752100  1
  O  O1  1  0.50943600  0.79280500  0.93766100  1
  O  O2  1  0.35728400  0.97121700  0.33693600  1
  O  O3  1  0.18692800  0.84909500  0.90872800  1
  O  O4  1  0.46367700  0.43799900  0.35639500  1
  O  O5  1  0.24400100  0.67705900  0.69798000  1
  O  O6  1  0.87410800  0.93924700  0.81258200  1
  O  O7  1  0.74183600  0.31409600  0.30814100  1
  O  O8  1  0.64390000  0.03487800  0.65047700  1
  O  O9  1  0.85201100  0.51414900  0.89896600  1
  O  O10  1  0.90899100  0.74745700  0.59967200  1
  O  O11  1  0.72355800  0.20105400  0.83355800  1
  O  O12  1  0.76728700  0.54648500  0.45362100  1
  O  O13  1  0.50535200  0.22419800  0.04868500  1
  O  O14  1  0.80795400  0.13719300  0.08231900  1
  O  O15  1  0.53247700  0.55928300  0.66496000  1
  O  O16  1  0.23348800  0.44773800  0.56209600  1
  O  O17  1  0.80545300  0.69923800  0.16658400  1
  O  O18  1  0.16097300  0.48552200  0.08921400  1
  O  O19  1  0.07962500  0.25290300  0.40992600  1
  O  O20  1  0.18690500  0.28729600  0.84648100  1
  O  O21  1  0.12842800  0.05531100  0.18025800  1
  O  O22  1  0.72855400  0.89583600  0.41038100  1
  O  O23  1  0.29810000  0.81694400  0.14443000  1
loop_
_geom_bond_atom_site_label_1
_geom_bond_atom_site_label_2
_geom_bond_distance
_geom_bond_site_symmetry_2
Li0 O14 1.953232 1_555
Li0 O21 1.958924 1_655
Li0 O17 2.010289 1_545
Li0 O20 2.037740 1_654
Li0 O3 2.556429 1_644
Li0 O6 2.596466 1_544
Li1 O7 2.019404 1_555
Li1 O22 2.026069 1_545
Li1 O19 2.045974 1_655
Li1 O18 2.074059 1_655
Li1 O21 2.153441 1_655
Li1 O14 2.184174 1_555
Mo0 O0 1.938834 1_565
Mo0 O9 1.977259 1_455
Mo0 O5 2.006730 1_555
Mo0 O10 2.020022 1_455
Mo0 O6 2.038858 1_455
Mo0 O3 2.041778 1_555
O0 P4 1.585989 1_555
O1 P6 1.606543 1_555
O1 P5 1.610861 1_556
O2 P1 1.494613 1_565
O3 P5 1.569727 1_556
O4 P4 1.574903 1_555
O4 P3 1.618913 1_555
O5 P0 1.539285 1_555
O6 P6 1.561274 1_555
O7 P3 1.492644 1_555
O8 P6 1.460803 1_545
O9 P2 1.559115 1_555
O10 P7 1.542409 1_555
O11 P2 1.610354 1_555
O11 P6 1.631639 1_545
O12 P7 1.620951 1_555
O12 P3 1.623587 1_555
O13 P2 1.590018 1_554
O13 P1 1.646442 1_555
O14 P2 1.472049 1_554
O15 P0 1.603548 1_555
O15 P7 1.627514 1_555
O16 P4 1.601187 1_555
O16 P0 1.607373 1_555
O17 P3 1.492808 1_555
O18 P5 1.461298 1_555
O19 P4 1.456616 1_555
O20 P0 1.468808 1_555
O21 P1 1.489740 1_555
O22 P7 1.464383 1_555
O23 P5 1.589934 1_555
O23 P1 1.626545 1_565
