# generated using pymatgen
data_TlSbTe2
_symmetry_space_group_name_H-M   'P 1'
_cell_length_a   5.70704812
_cell_length_b   5.70704812
_cell_length_c   6.89929188
_cell_angle_alpha   62.28611178
_cell_angle_beta   62.28611178
_cell_angle_gamma   53.68300426
_symmetry_Int_Tables_number   1
_chemical_formula_structural   TlSbTe2
_chemical_formula_sum   'Tl1 Sb1 Te2'
_cell_volume   154.52388893
_cell_formula_units_Z   1
loop_
 _symmetry_equiv_pos_site_id
 _symmetry_equiv_pos_as_xyz
  1  'x, y, z'
loop_
 _atom_site_type_symbol
 _atom_site_label
 _atom_site_symmetry_multiplicity
 _atom_site_fract_x
 _atom_site_fract_y
 _atom_site_fract_z
 _atom_site_occupancy
  Tl  Tl0  1  0.00000000  0.00000000  0.00000000  1
  Sb  Sb0  1  0.00000000  0.00000000  0.50000000  1
  Te  Te0  1  0.35573700  0.35573700  0.42560700  1
  Te  Te1  1  0.64426300  0.64426300  0.57439300  1
loop_
_geom_bond_atom_site_label_1
_geom_bond_atom_site_label_2
_geom_bond_distance
_geom_bond_site_symmetry_2
Sb0 Te1 3.138214 1_545
Sb0 Te0 3.138214 1_455
Sb0 Te0 3.138214 1_545
Sb0 Te1 3.138214 1_455
Sb0 Te0 3.383896 1_555
Sb0 Te1 3.383896 1_445
Sb0 Tl0 3.449646 1_555
Sb0 Tl0 3.449646 1_556
Te0 Te1 3.166683 1_545
Te0 Te1 3.166683 1_455
Te0 Tl0 3.594997 1_565
Te0 Tl0 3.594997 1_655
Te1 Tl0 3.594997 1_566
Te1 Tl0 3.594997 1_656
