# generated using pymatgen
data_Co2PClO4
_symmetry_space_group_name_H-M   'P 1'
_cell_length_a   8.22751131
_cell_length_b   8.22751131
_cell_length_c   9.31746473
_cell_angle_alpha   55.59606967
_cell_angle_beta   55.59606967
_cell_angle_gamma   67.93351953
_symmetry_Int_Tables_number   1
_chemical_formula_structural   Co2PClO4
_chemical_formula_sum   'Co8 P4 Cl4 O16'
_cell_volume   427.88201267
_cell_formula_units_Z   4
loop_
 _symmetry_equiv_pos_site_id
 _symmetry_equiv_pos_as_xyz
  1  'x, y, z'
loop_
 _atom_site_type_symbol
 _atom_site_label
 _atom_site_symmetry_multiplicity
 _atom_site_fract_x
 _atom_site_fract_y
 _atom_site_fract_z
 _atom_site_occupancy
  Co  Co0  1  0.55894800  0.07404400  0.17429000  1
  Co  Co1  1  0.44105200  0.92595600  0.82571000  1
  Co  Co2  1  0.92595600  0.44105200  0.32571000  1
  Co  Co3  1  0.72596700  0.27403300  0.25000000  1
  Co  Co4  1  0.00000000  0.00000000  0.50000000  1
  Co  Co5  1  0.07404400  0.55894800  0.67429000  1
  Co  Co6  1  0.27403300  0.72596700  0.75000000  1
  Co  Co7  1  0.00000000  0.00000000  0.00000000  1
  P  P0  1  0.75927400  0.77532600  0.48535300  1
  P  P1  1  0.24072600  0.22467400  0.51464700  1
  P  P2  1  0.22467400  0.24072600  0.01464700  1
  P  P3  1  0.77532600  0.75927400  0.98535300  1
  Cl  Cl0  1  0.19028500  0.66109800  0.07406000  1
  Cl  Cl1  1  0.66109800  0.19028500  0.57406000  1
  Cl  Cl2  1  0.80971500  0.33890200  0.92594000  1
  Cl  Cl3  1  0.33890200  0.80971500  0.42594000  1
  O  O0  1  0.07952300  0.22338100  0.47580000  1
  O  O1  1  0.22338100  0.07952300  0.97580000  1
  O  O2  1  0.02836000  0.22111500  0.21237300  1
  O  O3  1  0.97164000  0.77888500  0.78762700  1
  O  O4  1  0.21628200  0.40583100  0.52984900  1
  O  O5  1  0.55105900  0.78558200  0.65717100  1
  O  O6  1  0.92047700  0.77661900  0.52420000  1
  O  O7  1  0.78558200  0.55105900  0.15717100  1
  O  O8  1  0.40583100  0.21628200  0.02984900  1
  O  O9  1  0.77661900  0.92047700  0.02420000  1
  O  O10  1  0.21441800  0.44894100  0.84282900  1
  O  O11  1  0.59416900  0.78371800  0.97015100  1
  O  O12  1  0.78371800  0.59416900  0.47015100  1
  O  O13  1  0.44894100  0.21441800  0.34282900  1
  O  O14  1  0.22111500  0.02836000  0.71237300  1
  O  O15  1  0.77888500  0.97164000  0.28762700  1
loop_
_geom_bond_atom_site_label_1
_geom_bond_atom_site_label_2
_geom_bond_distance
_geom_bond_site_symmetry_2
Co0 O8 1.948384 1_555
Co0 O9 2.055653 1_545
Co0 O13 2.068095 1_555
Co0 O15 2.260063 1_545
Co1 O11 1.948384 1_555
Co1 O1 2.055653 1_565
Co1 O5 2.068095 1_555
Co1 O14 2.260063 1_565
Co2 O12 1.948384 1_555
Co2 O0 2.055653 1_655
Co2 O7 2.068095 1_555
Co2 O2 2.260063 1_655
Co3 O13 2.077595 1_555
Co3 O7 2.077595 1_555
Co3 O15 2.207998 1_545
Co3 O2 2.207998 1_655
Co4 O0 2.031051 1_555
Co4 O6 2.031051 1_445
Co4 O3 2.156155 1_445
Co4 O2 2.156155 1_555
Co5 O4 1.948384 1_555
Co5 O6 2.055653 1_455
Co5 O10 2.068095 1_555
Co5 O3 2.260063 1_455
Co6 O10 2.077595 1_555
Co6 O5 2.077595 1_555
Co6 O3 2.207998 1_455
Co6 O14 2.207998 1_565
Co7 O1 2.031051 1_554
Co7 O9 2.031051 1_445
Co7 O15 2.156155 1_445
Co7 O14 2.156155 1_554
Cl0 Co2 2.429807 1_455
Cl0 Co6 2.445546 1_554
Cl0 Co7 2.543322 1_565
Cl0 Co1 2.577724 1_554
Cl1 Co1 2.429807 1_545
Cl1 Co3 2.445546 1_555
Cl1 Co4 2.543322 1_655
Cl1 Co2 2.577724 1_555
Cl2 Co5 2.429807 1_655
Cl2 Co3 2.445546 1_556
Cl2 Co7 2.543322 1_656
Cl2 Co0 2.577724 1_556
Cl3 Co0 2.429807 1_565
Cl3 Co6 2.445546 1_555
Cl3 Co4 2.543322 1_565
Cl3 Co5 2.577724 1_555
O0 P1 1.564494 1_555
O1 P2 1.564494 1_556
O2 P2 1.589400 1_555
O3 P3 1.589400 1_555
O4 P1 1.504384 1_555
O5 P0 1.565118 1_555
O6 P0 1.564494 1_555
O7 P3 1.565118 1_554
O8 P2 1.504384 1_555
O9 P3 1.564494 1_554
O10 P2 1.565118 1_556
O11 P3 1.504384 1_555
O12 P0 1.504384 1_555
O13 P1 1.565118 1_555
O14 P1 1.589400 1_555
O15 P0 1.589400 1_555
