# generated using pymatgen
data_Ni(HO)2
_symmetry_space_group_name_H-M   'P 1'
_cell_length_a   3.15696910
_cell_length_b   10.94803314
_cell_length_c   7.50617571
_cell_angle_alpha   96.92525611
_cell_angle_beta   77.95798626
_cell_angle_gamma   90.00304583
_symmetry_Int_Tables_number   1
_chemical_formula_structural   Ni(HO)2
_chemical_formula_sum   'Ni4 H8 O8'
_cell_volume   251.78881048
_cell_formula_units_Z   4
loop_
 _symmetry_equiv_pos_site_id
 _symmetry_equiv_pos_as_xyz
  1  'x, y, z'
loop_
 _atom_site_type_symbol
 _atom_site_label
 _atom_site_symmetry_multiplicity
 _atom_site_fract_x
 _atom_site_fract_y
 _atom_site_fract_z
 _atom_site_occupancy
  Ni  Ni0  1  0.50022600  0.74965000  0.00007000  1
  Ni  Ni1  1  0.00036400  0.50041200  0.00004900  1
  Ni  Ni2  1  0.49981500  0.24985100  0.00003600  1
  Ni  Ni3  1  0.99965600  0.00019600  0.99990100  1
  H  H0  1  0.63535100  0.89425100  0.72791300  1
  H  H1  1  0.13552700  0.64401600  0.72773000  1
  H  H2  1  0.63529300  0.39429000  0.72799800  1
  H  H3  1  0.13534800  0.14413400  0.72766500  1
  H  H4  1  0.86472800  0.85569200  0.27199000  1
  H  H5  1  0.36464300  0.60589200  0.27242000  1
  H  H6  1  0.86467400  0.35564800  0.27208600  1
  H  H7  1  0.36455800  0.10584700  0.27214500  1
  O  O0  1  0.56893200  0.90492400  0.86076200  1
  O  O1  1  0.06946200  0.65496600  0.86055400  1
  O  O2  1  0.56922900  0.40512900  0.86083400  1
  O  O3  1  0.06853300  0.15508500  0.86047600  1
  O  O4  1  0.93128300  0.84492400  0.13915200  1
  O  O5  1  0.43120800  0.59498500  0.13962500  1
  O  O6  1  0.93045000  0.34507900  0.13925000  1
  O  O7  1  0.43071900  0.09502800  0.13934600  1
loop_
_geom_bond_atom_site_label_1
_geom_bond_atom_site_label_2
_geom_bond_distance
_geom_bond_site_symmetry_2
Ni0 O5 2.084330 1_555
Ni0 O1 2.086359 1_554
Ni0 O1 2.086583 1_654
Ni0 O4 2.087860 1_455
Ni0 O4 2.088007 1_555
Ni0 O0 2.089084 1_554
Ni1 O1 2.083009 1_554
Ni1 O5 2.085980 1_455
Ni1 O5 2.086281 1_555
Ni1 O2 2.087978 1_554
Ni1 O2 2.088811 1_454
Ni1 O6 2.089186 1_455
Ni2 O7 2.084778 1_555
Ni2 O3 2.085825 1_654
Ni2 O6 2.087349 1_555
Ni2 O3 2.088179 1_554
Ni2 O2 2.088663 1_554
Ni2 O6 2.088905 1_455
Ni3 O3 2.085908 1_655
Ni3 O7 2.086437 1_556
Ni3 O0 2.087449 1_545
Ni3 O7 2.087472 1_656
Ni3 O0 2.088757 1_645
Ni3 O4 2.088819 1_546
H0 O0 0.967813 1_555
H1 O1 0.967624 1_555
H2 O2 0.967713 1_555
H3 O3 0.967534 1_555
H4 O4 0.967731 1_555
H5 O5 0.967415 1_555
H6 O6 0.967722 1_555
H7 O7 0.967444 1_555
