# generated using pymatgen
data_In4(SnO4)3
_symmetry_space_group_name_H-M   'P 1'
_cell_length_a   6.29463500
_cell_length_b   6.33794150
_cell_length_c   12.67568164
_cell_angle_alpha   99.30582214
_cell_angle_beta   99.73676215
_cell_angle_gamma   99.39571722
_symmetry_Int_Tables_number   1
_chemical_formula_structural   In4(SnO4)3
_chemical_formula_sum   'In8 Sn6 O24'
_cell_volume   482.31619059
_cell_formula_units_Z   2
loop_
 _symmetry_equiv_pos_site_id
 _symmetry_equiv_pos_as_xyz
  1  'x, y, z'
loop_
 _atom_site_type_symbol
 _atom_site_label
 _atom_site_symmetry_multiplicity
 _atom_site_fract_x
 _atom_site_fract_y
 _atom_site_fract_z
 _atom_site_occupancy
  In  In0  1  0.39725100  0.86553600  0.09486700  1
  In  In1  1  0.31330000  0.60464000  0.81765800  1
  In  In2  1  0.30593600  0.60296900  0.31650100  1
  In  In3  1  0.86388900  0.68649700  0.44768600  1
  In  In4  1  0.68670000  0.39536000  0.18234200  1
  In  In5  1  0.13611100  0.31350300  0.55231400  1
  In  In6  1  0.60274900  0.13446400  0.90513300  1
  In  In7  1  0.69406400  0.39703100  0.68349900  1
  Sn  Sn0  1  0.99586600  0.99628300  0.24815400  1
  Sn  Sn1  1  0.39616900  0.86010800  0.59181300  1
  Sn  Sn2  1  0.00413400  0.00371700  0.75184600  1
  Sn  Sn3  1  0.86099600  0.68159000  0.94824000  1
  Sn  Sn4  1  0.13900400  0.31841000  0.05176000  1
  Sn  Sn5  1  0.60383100  0.13989200  0.40818700  1
  O  O0  1  0.31593400  0.94131600  0.79508600  1
  O  O1  1  0.04934300  0.89858800  0.08894000  1
  O  O2  1  0.31910600  0.95236700  0.29939600  1
  O  O3  1  0.58964500  0.81929200  0.96042000  1
  O  O4  1  0.06888200  0.90380200  0.59536900  1
  O  O5  1  0.90748200  0.69563900  0.78714000  1
  O  O6  1  0.58517600  0.83390000  0.46269500  1
  O  O7  1  0.16943200  0.57517500  0.95842700  1
  O  O8  1  0.40575100  0.57502400  0.15807400  1
  O  O9  1  0.91072100  0.68525900  0.27874400  1
  O  O10  1  0.18711300  0.59144600  0.46219600  1
  O  O11  1  0.59424900  0.42497600  0.84192600  1
  O  O12  1  0.42097700  0.58699600  0.65859900  1
  O  O13  1  0.83056800  0.42482500  0.04157300  1
  O  O14  1  0.09251800  0.30436100  0.21286000  1
  O  O15  1  0.57902300  0.41300400  0.34140100  1
  O  O16  1  0.81288700  0.40855400  0.53780400  1
  O  O17  1  0.41035500  0.18070800  0.03958000  1
  O  O18  1  0.08927900  0.31474100  0.72125600  1
  O  O19  1  0.95065700  0.10141200  0.91106000  1
  O  O20  1  0.41482400  0.16610000  0.53730500  1
  O  O21  1  0.68406600  0.05868400  0.20491400  1
  O  O22  1  0.93111800  0.09619800  0.40463100  1
  O  O23  1  0.68089400  0.04763300  0.70060400  1
loop_
_geom_bond_atom_site_label_1
_geom_bond_atom_site_label_2
_geom_bond_distance
_geom_bond_site_symmetry_2
In0 O8 2.128314 1_555
In0 O21 2.139659 1_565
In0 O17 2.215081 1_565
In0 O1 2.223657 1_555
In0 O3 2.260379 1_554
In0 O7 2.388375 1_554
In0 O2 2.706366 1_555
In1 O7 2.153596 1_555
In1 O18 2.168563 1_555
In1 O0 2.196106 1_555
In1 O12 2.225071 1_555
In1 O11 2.259543 1_555
In1 O3 2.348988 1_555
In1 O5 2.688229 1_455
In2 O10 2.113851 1_555
In2 O8 2.192477 1_555
In2 O14 2.209340 1_555
In2 O2 2.249256 1_555
In2 O15 2.262572 1_555
In2 O6 2.418034 1_555
In2 O9 2.606056 1_455
In3 O6 2.139498 1_555
In3 O4 2.198885 1_655
In3 O10 2.201296 1_655
In3 O9 2.209443 1_555
In3 O16 2.258605 1_555
In3 O15 2.334045 1_555
In4 O13 2.153596 1_555
In4 O9 2.168563 1_555
In4 O21 2.196106 1_555
In4 O15 2.225071 1_555
In4 O8 2.259543 1_555
In4 O17 2.348988 1_555
In4 O14 2.688229 1_655
In5 O20 2.139498 1_555
In5 O22 2.198885 1_455
In5 O16 2.201296 1_455
In5 O18 2.209443 1_555
In5 O10 2.258605 1_555
In5 O12 2.334045 1_555
In6 O11 2.128314 1_555
In6 O0 2.139659 1_545
In6 O3 2.215081 1_545
In6 O19 2.223657 1_555
In6 O17 2.260379 1_556
In6 O13 2.388375 1_556
In6 O23 2.706366 1_555
In7 O16 2.113851 1_555
In7 O11 2.192477 1_555
In7 O5 2.209340 1_555
In7 O23 2.249256 1_555
In7 O12 2.262572 1_555
In7 O20 2.418034 1_555
In7 O18 2.606056 1_655
O0 Sn2 2.066053 1_565
O1 Sn3 2.106422 1_454
O1 Sn0 2.112657 1_455
O2 Sn0 2.106094 1_455
O2 Sn5 2.113015 1_565
O3 Sn3 2.057989 1_555
O4 Sn2 2.110141 1_565
O4 Sn1 2.129929 1_555
O5 Sn2 2.090349 1_665
O5 Sn3 2.125073 1_555
O6 Sn5 2.153769 1_565
O6 Sn1 2.181038 1_555
O7 Sn3 2.147524 1_455
O7 Sn4 2.163826 1_556
O8 Sn4 2.216912 1_555
O9 Sn0 2.072672 1_555
O10 Sn1 2.227734 1_555
O11 Sn3 2.216912 1_555
O12 Sn1 2.062704 1_555
O13 Sn4 2.147524 1_655
O13 Sn3 2.163826 1_554
O14 Sn0 2.090349 1_445
O14 Sn4 2.125073 1_555
O15 Sn5 2.062704 1_555
O16 Sn5 2.227734 1_555
O17 Sn4 2.057989 1_555
O18 Sn2 2.072672 1_555
O19 Sn4 2.106422 1_656
O19 Sn2 2.112657 1_655
O20 Sn1 2.153769 1_545
O20 Sn5 2.181038 1_555
O21 Sn0 2.066053 1_545
O22 Sn0 2.110141 1_545
O22 Sn5 2.129929 1_555
O23 Sn2 2.106094 1_655
O23 Sn1 2.113015 1_545
