# generated using pymatgen
data_MnFeC5N6O
_symmetry_space_group_name_H-M   'P 1'
_cell_length_a   7.49930400
_cell_length_b   10.94783300
_cell_length_c   13.94430200
_cell_angle_alpha   90.00000000
_cell_angle_beta   90.00000000
_cell_angle_gamma   90.00000000
_symmetry_Int_Tables_number   1
_chemical_formula_structural   MnFeC5N6O
_chemical_formula_sum   'Mn4 Fe4 C20 N24 O4'
_cell_volume   1144.84292070
_cell_formula_units_Z   4
loop_
 _symmetry_equiv_pos_site_id
 _symmetry_equiv_pos_as_xyz
  1  'x, y, z'
loop_
 _atom_site_type_symbol
 _atom_site_label
 _atom_site_symmetry_multiplicity
 _atom_site_fract_x
 _atom_site_fract_y
 _atom_site_fract_z
 _atom_site_occupancy
  Mn  Mn0  1  0.25000000  0.35736000  0.32223800  1
  Mn  Mn1  1  0.75000000  0.64264000  0.67776200  1
  Mn  Mn2  1  0.75000000  0.85736000  0.17776200  1
  Mn  Mn3  1  0.25000000  0.14264000  0.82223800  1
  Fe  Fe0  1  0.75000000  0.19224900  0.55768400  1
  Fe  Fe1  1  0.25000000  0.69224900  0.94231600  1
  Fe  Fe2  1  0.75000000  0.30775100  0.05768400  1
  Fe  Fe3  1  0.25000000  0.80775100  0.44231600  1
  C  C0  1  0.56667900  0.33615700  0.15347000  1
  C  C1  1  0.43368700  0.75189200  0.02889000  1
  C  C2  1  0.56667900  0.16384300  0.65347000  1
  C  C3  1  0.43332100  0.83615700  0.34653000  1
  C  C4  1  0.06667900  0.66384300  0.84653000  1
  C  C5  1  0.93332100  0.16384300  0.65347000  1
  C  C6  1  0.56631300  0.24810800  0.97111000  1
  C  C7  1  0.43368700  0.74810800  0.52889000  1
  C  C8  1  0.06631300  0.74810800  0.52889000  1
  C  C9  1  0.06631300  0.75189200  0.02889000  1
  C  C10  1  0.93368700  0.25189200  0.47111000  1
  C  C11  1  0.75000000  0.35662900  0.60690700  1
  C  C12  1  0.93332100  0.33615700  0.15347000  1
  C  C13  1  0.25000000  0.64337100  0.39309300  1
  C  C14  1  0.75000000  0.14337100  0.10690700  1
  C  C15  1  0.06667900  0.83615700  0.34653000  1
  C  C16  1  0.43332100  0.66384300  0.84653000  1
  C  C17  1  0.25000000  0.85662900  0.89309300  1
  C  C18  1  0.93368700  0.24810800  0.97111000  1
  C  C19  1  0.56631300  0.25189200  0.47111000  1
  N  N0  1  0.04631300  0.21620100  0.91902000  1
  N  N1  1  0.04631300  0.28379900  0.41902000  1
  N  N2  1  0.25000000  0.54355800  0.36393100  1
  N  N3  1  0.54616500  0.64703800  0.79034800  1
  N  N4  1  0.54631300  0.71620100  0.58098000  1
  N  N5  1  0.25000000  0.95644200  0.86393100  1
  N  N6  1  0.54616500  0.85296200  0.29034800  1
  N  N7  1  0.45383500  0.14703800  0.70965200  1
  N  N8  1  0.45383500  0.35296200  0.20965200  1
  N  N9  1  0.45368700  0.28379900  0.41902000  1
  N  N10  1  0.95383500  0.85296200  0.29034800  1
  N  N11  1  0.45368700  0.21620100  0.91902000  1
  N  N12  1  0.04616500  0.35296200  0.20965200  1
  N  N13  1  0.75000000  0.04916000  0.51537200  1
  N  N14  1  0.75000000  0.45644200  0.63606900  1
  N  N15  1  0.25000000  0.54916000  0.98462800  1
  N  N16  1  0.95368700  0.78379900  0.08098000  1
  N  N17  1  0.75000000  0.45084000  0.01537200  1
  N  N18  1  0.95383500  0.64703800  0.79034800  1
  N  N19  1  0.95368700  0.71620100  0.58098000  1
  N  N20  1  0.75000000  0.04355800  0.13606900  1
  N  N21  1  0.04616500  0.14703800  0.70965200  1
  N  N22  1  0.25000000  0.95084000  0.48462800  1
  N  N23  1  0.54631300  0.78379900  0.08098000  1
  O  O0  1  0.75000000  0.54954100  0.98709700  1
  O  O1  1  0.25000000  0.04954100  0.51290300  1
  O  O2  1  0.75000000  0.95045900  0.48709700  1
  O  O3  1  0.25000000  0.45045900  0.01290300  1
loop_
_geom_bond_atom_site_label_1
_geom_bond_atom_site_label_2
_geom_bond_distance
_geom_bond_site_symmetry_2
Mn0 N2 2.119750 1_555
Mn0 N9 2.191610 1_555
Mn0 N1 2.191610 1_555
Mn0 N8 2.191732 1_555
Mn0 N12 2.191732 1_555
Mn1 N14 2.119750 1_555
Mn1 N4 2.191610 1_555
Mn1 N19 2.191610 1_555
Mn1 N3 2.191732 1_555
Mn1 N18 2.191732 1_555
Mn2 N20 2.119750 1_565
Mn2 N16 2.191610 1_555
Mn2 N23 2.191610 1_555
Mn2 N10 2.191732 1_555
Mn2 N6 2.191732 1_555
Mn3 N5 2.119750 1_545
Mn3 N0 2.191610 1_555
Mn3 N11 2.191610 1_555
Mn3 N21 2.191732 1_555
Mn3 N7 2.191732 1_555
Fe0 N13 1.673942 1_555
Fe1 N15 1.673942 1_555
Fe2 N17 1.673942 1_555
Fe3 N22 1.673942 1_555
C0 N8 1.167790 1_555
C0 Fe2 1.941840 1_555
C1 N23 1.167473 1_555
C1 Fe1 1.944556 1_554
C2 N7 1.167790 1_555
C2 Fe0 1.941840 1_555
C3 N6 1.167790 1_555
C3 Fe3 1.941840 1_555
C4 N18 1.167790 1_455
C4 Fe1 1.941840 1_555
C5 N21 1.167790 1_655
C5 Fe0 1.941840 1_555
C6 N11 1.167473 1_555
C6 Fe2 1.944556 1_556
C7 N4 1.167473 1_555
C7 Fe3 1.944556 1_555
C8 N19 1.167473 1_455
C8 Fe3 1.944556 1_555
C9 N16 1.167473 1_455
C9 Fe1 1.944556 1_554
C10 N1 1.167473 1_655
C10 Fe0 1.944556 1_555
C11 N14 1.165946 1_555
C11 Fe0 1.926057 1_555
C12 N12 1.167790 1_655
C12 Fe2 1.941840 1_555
C13 N2 1.165946 1_555
C13 Fe3 1.926057 1_555
C14 N20 1.165946 1_555
C14 Fe2 1.926057 1_555
C15 N10 1.167790 1_455
C15 Fe3 1.941840 1_555
C16 N3 1.167790 1_555
C16 Fe1 1.941840 1_555
C17 N5 1.165946 1_555
C17 Fe1 1.926057 1_555
C18 N0 1.167473 1_655
C18 Fe2 1.944556 1_556
C19 N9 1.167473 1_555
C19 Fe0 1.944556 1_555
N13 O2 1.150247 1_545
N15 O3 1.150247 1_556
N17 O0 1.150247 1_554
N22 O1 1.150247 1_565
