# generated using pymatgen
data_Pu2InPt2
_symmetry_space_group_name_H-M   'P 1'
_cell_length_a   7.75211851
_cell_length_b   7.75211851
_cell_length_c   3.77634734
_cell_angle_alpha   90.00000000
_cell_angle_beta   90.00000000
_cell_angle_gamma   90.00000000
_symmetry_Int_Tables_number   1
_chemical_formula_structural   Pu2InPt2
_chemical_formula_sum   'Pu4 In2 Pt4'
_cell_volume   226.94088262
_cell_formula_units_Z   2
loop_
 _symmetry_equiv_pos_site_id
 _symmetry_equiv_pos_as_xyz
  1  'x, y, z'
loop_
 _atom_site_type_symbol
 _atom_site_label
 _atom_site_symmetry_multiplicity
 _atom_site_fract_x
 _atom_site_fract_y
 _atom_site_fract_z
 _atom_site_occupancy
  Pu  Pu0  1  0.67301351  0.17301351  0.50000000  1
  Pu  Pu1  1  0.17301351  0.32698649  0.50000000  1
  Pu  Pu2  1  0.32698649  0.82698649  0.50000000  1
  Pu  Pu3  1  0.82698649  0.67301351  0.50000000  1
  In  In0  1  -0.00000000  -0.00000000  -0.00000000  1
  In  In1  1  0.50000000  0.50000000  -0.00000000  1
  Pt  Pt0  1  0.86983381  0.36983381  -0.00000000  1
  Pt  Pt1  1  0.63016619  0.86983381  -0.00000000  1
  Pt  Pt2  1  0.13016619  0.63016619  0.00000000  1
  Pt  Pt3  1  0.36983381  0.13016619  0.00000000  1
loop_
_geom_bond_atom_site_label_1
_geom_bond_atom_site_label_2
_geom_bond_distance
_geom_bond_site_symmetry_2
In0 Pt0 3.039387 1_455
In0 Pt1 3.039387 1_445
In0 Pt3 3.039387 1_555
In0 Pt2 3.039387 1_545
In0 Pu3 3.433581 1_445
In0 Pu0 3.433581 1_454
In0 Pu0 3.433581 1_455
In0 Pu1 3.433581 1_554
In0 Pu3 3.433581 1_444
In0 Pu2 3.433581 1_544
In0 Pu1 3.433581 1_555
In0 Pu2 3.433581 1_545
In1 Pt2 3.039387 1_555
In1 Pt3 3.039387 1_555
In1 Pt0 3.039387 1_555
In1 Pt1 3.039387 1_555
In1 Pu2 3.433581 1_554
In1 Pu2 3.433581 1_555
In1 Pu1 3.433581 1_554
In1 Pu0 3.433581 1_554
In1 Pu3 3.433581 1_555
In1 Pu3 3.433581 1_554
In1 Pu0 3.433581 1_555
In1 Pu1 3.433581 1_555
Pt0 Pt2 2.854063 1_655
Pt0 Pu0 2.867259 1_554
Pt0 Pu0 2.867259 1_555
Pt0 Pu1 3.033046 1_655
Pt0 Pu1 3.033046 1_654
Pt0 Pu3 3.033046 1_555
Pt0 Pu3 3.033046 1_554
Pt1 Pt3 2.854063 1_565
Pt1 Pu3 2.867259 1_555
Pt1 Pu3 2.867259 1_554
Pt1 Pu2 3.033046 1_554
Pt1 Pu2 3.033046 1_555
Pt1 Pu0 3.033046 1_565
Pt1 Pu0 3.033046 1_564
Pt2 Pu2 2.867259 1_555
Pt2 Pu2 2.867259 1_554
Pt2 Pu1 3.033046 1_555
Pt2 Pu1 3.033046 1_554
Pt2 Pu3 3.033046 1_454
Pt2 Pu3 3.033046 1_455
Pt3 Pu1 2.867259 1_554
Pt3 Pu1 2.867259 1_555
Pt3 Pu0 3.033046 1_554
Pt3 Pu2 3.033046 1_544
Pt3 Pu2 3.033046 1_545
Pt3 Pu0 3.033046 1_555
