# generated using pymatgen
data_Zn(Bi25O38)2
_symmetry_space_group_name_H-M   'P 1'
_cell_length_a   8.95415000
_cell_length_b   9.03749819
_cell_length_c   29.54245726
_cell_angle_alpha   90.05228766
_cell_angle_beta   90.07596977
_cell_angle_gamma   109.32117275
_symmetry_Int_Tables_number   1
_chemical_formula_structural   Zn(Bi25O38)2
_chemical_formula_sum   'Zn1 Bi50 O76'
_cell_volume   2256.01796370
_cell_formula_units_Z   1
loop_
 _symmetry_equiv_pos_site_id
 _symmetry_equiv_pos_as_xyz
  1  'x, y, z'
loop_
 _atom_site_type_symbol
 _atom_site_label
 _atom_site_symmetry_multiplicity
 _atom_site_fract_x
 _atom_site_fract_y
 _atom_site_fract_z
 _atom_site_occupancy
  Zn  Zn0  1  0.56910400  0.50195500  0.24929000  1
  Bi  Bi0  1  0.98048600  0.68537600  0.07926300  1
  Bi  Bi1  1  0.57595500  0.74451200  0.05020600  1
  Bi  Bi2  1  0.15709800  0.47651800  0.16089000  1
  Bi  Bi3  1  0.47469700  0.18975300  0.32756600  1
  Bi  Bi4  1  0.76055300  0.25788400  0.21688900  1
  Bi  Bi5  1  0.21530800  0.39982300  0.03751100  1
  Bi  Bi6  1  0.55511700  0.42446500  0.13327400  1
  Bi  Bi7  1  0.07525400  0.24168000  0.29968500  1
  Bi  Bi8  1  0.65203100  0.97907500  0.41042600  1
  Bi  Bi9  1  0.91268600  0.05128600  0.12577000  1
  Bi  Bi10  1  0.27120100  0.10794000  0.20253500  1
  Bi  Bi11  1  0.98263300  0.68880200  0.58235000  1
  Bi  Bi12  1  0.26551000  0.76878500  0.46707800  1
  Bi  Bi13  1  0.75561600  0.28053800  0.03870500  1
  Bi  Bi14  1  0.70772800  0.88367600  0.28949200  1
  Bi  Bi15  1  0.05686300  0.91931800  0.38117800  1
  Bi  Bi16  1  0.35024300  0.02131100  0.07452900  1
  Bi  Bi17  1  0.58324100  0.74623700  0.54990600  1
  Bi  Bi18  1  0.91956900  0.72456300  0.20639500  1
  Bi  Bi19  1  0.41245800  0.55344100  0.37319300  1
  Bi  Bi20  1  0.15280900  0.47108700  0.66332400  1
  Bi  Bi21  1  0.75798000  0.59693700  0.45009700  1
  Bi  Bi22  1  0.47861100  0.17867600  0.82347500  1
  Bi  Bi23  1  0.74374300  0.25759200  0.71889300  1
  Bi  Bi24  1  0.50797700  0.84174100  0.17501000  1
  Bi  Bi25  1  0.25918000  0.77746800  0.28917400  1
  Bi  Bi26  1  0.22322500  0.40246700  0.54069800  1
  Bi  Bi27  1  0.56152900  0.43623100  0.63579400  1
  Bi  Bi28  1  0.84897700  0.51687800  0.32696600  1
  Bi  Bi29  1  0.07025000  0.24564800  0.79984900  1
  Bi  Bi30  1  0.41518600  0.21205400  0.46000200  1
  Bi  Bi31  1  0.90861700  0.05835000  0.62881400  1
  Bi  Bi32  1  0.65759400  0.98662100  0.90987200  1
  Bi  Bi33  1  0.96771100  0.00146300  0.50162300  1
  Bi  Bi34  1  0.27345900  0.10237500  0.70253300  1
  Bi  Bi35  1  0.27593000  0.76609600  0.96384600  1
  Bi  Bi36  1  0.01438000  0.34784200  0.42572700  1
  Bi  Bi37  1  0.75302300  0.28348500  0.54065300  1
  Bi  Bi38  1  0.71140500  0.88005000  0.79086900  1
  Bi  Bi39  1  0.35718400  0.01953900  0.57906300  1
  Bi  Bi40  1  0.06099500  0.91472600  0.87889800  1
  Bi  Bi41  1  0.90523200  0.72218000  0.70646300  1
  Bi  Bi42  1  0.42547800  0.55222100  0.86751700  1
  Bi  Bi43  1  0.75609000  0.60141800  0.95038300  1
  Bi  Bi44  1  0.51168800  0.82690800  0.67643800  1
  Bi  Bi45  1  0.25190600  0.76962400  0.78697900  1
  Bi  Bi46  1  0.82948900  0.51929800  0.82381600  1
  Bi  Bi47  1  0.41427300  0.21475900  0.95773800  1
  Bi  Bi48  1  0.01580600  0.36315700  0.92097200  1
  Bi  Bi49  1  0.96712000  0.00036100  0.99833800  1
  O  O0  1  0.81532600  0.81531100  0.09265300  1
  O  O1  1  0.94058800  0.57460900  0.15368000  1
  O  O2  1  0.30735300  0.67521100  0.02880600  1
  O  O3  1  0.44903400  0.57014600  0.09833000  1
  O  O4  1  0.07227800  0.42574100  0.09312900  1
  O  O5  1  0.00041700  0.26855000  0.18954600  1
  O  O6  1  0.43943600  0.07377000  0.40396600  1
  O  O7  1  0.80702600  0.17564900  0.28039600  1
  O  O8  1  0.76556800  0.51100700  0.06004700  1
  O  O9  1  0.30869100  0.31075700  0.15606200  1
  O  O10  1  0.30738200  0.31070100  0.34393800  1
  O  O11  1  0.39558600  0.99834100  0.49947500  1
  O  O12  1  0.49317800  0.27452900  0.25238900  1
  O  O13  1  0.95071000  0.06799800  0.34770100  1
  O  O14  1  0.49842500  0.25573700  0.06701400  1
  O  O15  1  0.11844000  0.11685900  0.05313500  1
  O  O16  1  0.11304100  0.10150000  0.44409700  1
  O  O17  1  0.56516600  0.92063200  0.34280500  1
  O  O18  1  0.74797800  0.98327400  0.18475500  1
  O  O19  1  0.06914200  0.94992700  0.15650800  1
  O  O20  1  0.50325000  0.76763400  0.43829200  1
  O  O21  1  0.93528400  0.57641600  0.65292600  1
  O  O22  1  0.44501400  0.06252500  0.16260700  1
  O  O23  1  0.30481800  0.67490400  0.52934700  1
  O  O24  1  0.26271900  0.00742600  0.30848000  1
  O  O25  1  0.81558600  0.81576200  0.40702700  1
  O  O26  1  0.81837400  0.82198700  0.58852500  1
  O  O27  1  0.31893600  0.31448800  0.83897100  1
  O  O28  1  0.01150500  0.78440400  0.50146200  1
  O  O29  1  0.44986500  0.56973400  0.59635300  1
  O  O30  1  0.55752600  0.93406700  0.08899500  1
  O  O31  1  0.99853500  0.75118900  0.31697600  1
  O  O32  1  0.61066700  0.62161700  0.30498200  1
  O  O33  1  0.63489800  0.64190600  0.68145800  1
  O  O34  1  0.17815400  0.79023700  0.22258100  1
  O  O35  1  0.07420800  0.42781800  0.59396600  1
  O  O36  1  0.25228700  0.48805000  0.43390000  1
  O  O37  1  0.49695700  0.87610200  0.25021100  1
  O  O38  1  0.57488800  0.45584000  0.40236200  1
  O  O39  1  0.99719800  0.25878300  0.68758200  1
  O  O40  1  0.43567200  0.06494000  0.90542300  1
  O  O41  1  0.80268800  0.17682400  0.78156300  1
  O  O42  1  0.93963900  0.55774000  0.41071000  1
  O  O43  1  0.76928400  0.51667900  0.55870400  1
  O  O44  1  0.86153400  0.49928000  0.24976600  1
  O  O45  1  0.31685800  0.32342200  0.65871500  1
  O  O46  1  0.49615900  0.21777400  0.74922100  1
  O  O47  1  0.05963800  0.43742400  0.33599000  1
  O  O48  1  0.95258300  0.06484700  0.84716300  1
  O  O49  1  0.50079800  0.25297500  0.56476900  1
  O  O50  1  0.12621400  0.12174900  0.55300900  1
  O  O51  1  0.60426900  0.60848900  0.19165900  1
  O  O52  1  0.12239900  0.09820800  0.94426900  1
  O  O53  1  0.68047800  0.30215400  0.47287800  1
  O  O54  1  0.56504400  0.92173700  0.84323700  1
  O  O55  1  0.74393100  0.98662800  0.68658400  1
  O  O56  1  0.00359600  0.36776500  0.50013500  1
  O  O57  1  0.05941800  0.94409800  0.65510500  1
  O  O58  1  0.51666100  0.77922400  0.94280700  1
  O  O59  1  0.43553700  0.05901000  0.65698900  1
  O  O60  1  0.25924300  0.99873600  0.80964500  1
  O  O61  1  0.82225500  0.82525600  0.91074100  1
  O  O62  1  0.00520300  0.78069600  0.00408500  1
  O  O63  1  0.56546000  0.93737100  0.58764400  1
  O  O64  1  0.99292800  0.74972600  0.81639800  1
  O  O65  1  0.63521800  0.63482800  0.81856000  1
  O  O66  1  0.17963400  0.79881400  0.72131400  1
  O  O67  1  0.25023100  0.50297100  0.93517100  1
  O  O68  1  0.49551800  0.85214100  0.75126200  1
  O  O69  1  0.57280700  0.45244000  0.90434700  1
  O  O70  1  0.94034900  0.56874500  0.91125100  1
  O  O71  1  0.86810800  0.49952600  0.74955200  1
  O  O72  1  0.05354600  0.42877000  0.84135200  1
  O  O73  1  0.67979900  0.30042300  0.97245300  1
  O  O74  1  0.99676900  0.36933100  0.00072700  1
  O  O75  1  0.39578300  0.00393300  0.00141700  1
loop_
_geom_bond_atom_site_label_1
_geom_bond_atom_site_label_2
_geom_bond_distance
_geom_bond_site_symmetry_2
Bi0 O8 2.120771 1_555
Bi0 O0 2.207339 1_555
Bi0 O62 2.366919 1_655
Bi0 O1 2.394247 1_555
Bi0 O4 2.761566 1_655
Bi1 O30 2.111651 1_555
Bi1 O3 2.149266 1_555
Bi1 O2 2.361129 1_555
Bi1 O0 2.379034 1_555
Bi2 O5 2.116288 1_555
Bi2 O4 2.135037 1_555
Bi2 O9 2.335113 1_555
Bi2 O1 2.392941 1_455
Bi3 O24 2.135804 1_555
Bi3 O10 2.181243 1_555
Bi3 O12 2.338168 1_555
Bi3 O6 2.465737 1_555
Bi4 O7 2.109639 1_555
Bi4 O5 2.267707 1_655
Bi4 O44 2.282292 1_555
Bi4 O18 2.623671 1_545
Bi4 O12 2.664395 1_555
Bi5 O4 2.144348 1_555
Bi5 O74 2.173247 1_455
Bi5 O2 2.363049 1_555
Bi5 O15 2.457748 1_555
Bi6 O3 2.128107 1_555
Bi6 O9 2.209701 1_555
Bi6 O51 2.333048 1_555
Bi6 O14 2.427834 1_555
Bi7 O47 2.111871 1_555
Bi7 O13 2.137651 1_455
Bi7 O7 2.344480 1_455
Bi7 O10 2.356226 1_555
Bi8 O20 2.103623 1_555
Bi8 O17 2.144020 1_555
Bi8 O6 2.338784 1_565
Bi8 O25 2.400767 1_555
Bi9 O19 2.115102 1_645
Bi9 O18 2.235694 1_545
Bi9 O0 2.242527 1_545
Bi9 O5 2.644048 1_655
Bi9 O15 2.764111 1_655
Bi10 O22 2.099703 1_555
Bi10 O9 2.226208 1_555
Bi10 O19 2.332787 1_545
Bi10 O12 2.528728 1_555
Bi10 O34 2.776746 1_545
Bi11 O43 2.141324 1_555
Bi11 O26 2.194793 1_555
Bi11 O21 2.297783 1_555
Bi11 O28 2.526117 1_655
Bi11 O35 2.762942 1_655
Bi12 O23 2.103935 1_555
Bi12 O11 2.229589 1_555
Bi12 O20 2.296597 1_555
Bi12 O28 2.538297 1_555
Bi12 O36 2.684808 1_555
Bi13 O73 2.098055 1_554
Bi13 O8 2.149050 1_555
Bi13 O74 2.329562 1_555
Bi13 O14 2.391029 1_555
Bi14 O17 2.123245 1_555
Bi14 O37 2.195841 1_555
Bi14 O32 2.283602 1_555
Bi14 O7 2.504984 1_565
Bi15 O13 2.128892 1_465
Bi15 O25 2.189570 1_455
Bi15 O31 2.376119 1_455
Bi15 O16 2.421332 1_565
Bi15 O24 2.772467 1_565
Bi16 O14 2.107094 1_555
Bi16 O75 2.213649 1_555
Bi16 O30 2.283882 1_545
Bi16 O15 2.576193 1_555
Bi16 O22 2.722624 1_555
Bi17 O63 2.105007 1_555
Bi17 O29 2.145068 1_555
Bi17 O26 2.289437 1_555
Bi17 O23 2.435466 1_555
Bi18 O1 2.112581 1_555
Bi18 O34 2.242589 1_655
Bi18 O44 2.315906 1_555
Bi18 O19 2.513898 1_655
Bi18 O51 2.701255 1_555
Bi19 O38 2.117298 1_555
Bi19 O36 2.251769 1_555
Bi19 O10 2.252406 1_555
Bi19 O32 2.622664 1_555
Bi19 O20 2.656020 1_555
Bi20 O39 2.091054 1_455
Bi20 O35 2.158535 1_555
Bi20 O45 2.292291 1_555
Bi20 O21 2.453584 1_455
Bi21 O42 2.123870 1_555
Bi21 O38 2.215782 1_555
Bi21 O25 2.264373 1_555
Bi21 O53 2.610187 1_555
Bi21 O28 2.787033 1_655
Bi22 O60 2.133704 1_545
Bi22 O27 2.218612 1_555
Bi22 O46 2.219733 1_555
Bi22 O40 2.609761 1_555
Bi22 O54 2.742698 1_545
Bi23 O41 2.119901 1_555
Bi23 O71 2.285530 1_555
Bi23 O46 2.307567 1_555
Bi23 O39 2.448608 1_555
Bi23 O55 2.627987 1_545
Bi24 O18 2.125075 1_555
Bi24 O37 2.249750 1_555
Bi24 O22 2.275665 1_565
Bi24 O51 2.575374 1_555
Bi24 O30 2.666854 1_555
Bi25 O34 2.112363 1_555
Bi25 O24 2.144670 1_565
Bi25 O37 2.324881 1_555
Bi25 O31 2.411750 1_455
Bi26 O35 2.125214 1_555
Bi26 O56 2.233108 1_555
Bi26 O23 2.349514 1_555
Bi26 O50 2.422267 1_555
Bi26 O29 2.657715 1_555
Bi27 O29 2.147288 1_555
Bi27 O45 2.196544 1_555
Bi27 O33 2.211689 1_555
Bi27 O49 2.614568 1_555
Bi28 O31 2.119033 1_555
Bi28 O47 2.245014 1_655
Bi28 O44 2.291567 1_555
Bi28 O42 2.590505 1_555
Bi28 O32 2.684256 1_555
Bi29 O72 2.103612 1_555
Bi29 O48 2.145375 1_455
Bi29 O41 2.329890 1_455
Bi29 O27 2.399267 1_555
Bi30 O6 2.127495 1_555
Bi30 O11 2.213918 1_545
Bi30 O53 2.273245 1_555
Bi30 O16 2.597224 1_555
Bi30 O38 2.779774 1_555
Bi31 O57 2.100957 1_645
Bi31 O55 2.209880 1_545
Bi31 O26 2.341637 1_545
Bi31 O39 2.442217 1_555
Bi32 O58 2.119849 1_555
Bi32 O54 2.139590 1_555
Bi32 O40 2.323170 1_565
Bi32 O61 2.392498 1_555
Bi33 O50 2.114453 1_655
Bi33 O28 2.123903 1_645
Bi33 O16 2.151530 1_655
Bi34 O59 2.109665 1_555
Bi34 O45 2.304326 1_555
Bi34 O46 2.362284 1_555
Bi34 O57 2.420248 1_545
Bi34 O66 2.649325 1_545
Bi35 O2 2.142675 1_556
Bi35 O58 2.209346 1_555
Bi35 O75 2.338776 1_566
Bi35 O67 2.461530 1_555
Bi35 O62 2.743352 1_556
Bi36 O36 2.100899 1_555
Bi36 O56 2.210238 1_555
Bi36 O42 2.254763 1_455
Bi36 O16 2.708107 1_555
Bi36 O47 2.763586 1_555
Bi37 O53 2.128163 1_555
Bi37 O43 2.131145 1_555
Bi37 O49 2.297128 1_555
Bi37 O56 2.434120 1_655
Bi38 O54 2.141013 1_555
Bi38 O68 2.200082 1_555
Bi38 O65 2.247324 1_555
Bi38 O41 2.547267 1_565
Bi38 O48 2.795968 1_565
Bi39 O49 2.119094 1_555
Bi39 O63 2.238123 1_545
Bi39 O11 2.393347 1_545
Bi39 O59 2.397470 1_555
Bi39 O50 2.642751 1_555
Bi40 O48 2.129176 1_465
Bi40 O61 2.229685 1_455
Bi40 O64 2.322691 1_455
Bi40 O52 2.483874 1_565
Bi40 O60 2.652153 1_555
Bi41 O21 2.131009 1_555
Bi41 O71 2.311531 1_555
Bi41 O66 2.362142 1_655
Bi41 O33 2.400748 1_555
Bi41 O57 2.531659 1_655
Bi42 O69 2.126625 1_555
Bi42 O27 2.208084 1_555
Bi42 O65 2.292945 1_555
Bi42 O67 2.490560 1_555
Bi43 O70 2.114848 1_555
Bi43 O69 2.210053 1_555
Bi43 O61 2.242295 1_555
Bi43 O73 2.658240 1_555
Bi43 O62 2.777055 1_656
Bi44 O55 2.123475 1_555
Bi44 O68 2.231813 1_555
Bi44 O33 2.292419 1_555
Bi44 O59 2.478451 1_565
Bi44 O63 2.792785 1_555
Bi45 O66 2.088584 1_555
Bi45 O60 2.155786 1_555
Bi45 O68 2.314918 1_555
Bi45 O64 2.427921 1_455
Bi46 O64 2.124026 1_555
Bi46 O71 2.237648 1_555
Bi46 O65 2.311205 1_555
Bi46 O72 2.459048 1_655
Bi46 O70 2.748589 1_555
Bi47 O40 2.104104 1_555
Bi47 O75 2.262550 1_556
Bi47 O73 2.284678 1_555
Bi47 O52 2.504589 1_555
Bi47 O69 2.666724 1_555
Bi48 O67 2.102444 1_555
Bi48 O70 2.195977 1_455
Bi48 O74 2.364481 1_456
Bi48 O72 2.422928 1_555
Bi49 O52 2.112225 1_655
Bi49 O62 2.129469 1_646
Bi49 O15 2.147576 1_656
O12 Zn0 1.941892 1_555
O32 Zn0 1.934883 1_555
O51 Zn0 1.930971 1_555
