# generated using pymatgen
data_Yb2EuS4
_symmetry_space_group_name_H-M   'P 1'
_cell_length_a   7.18034926
_cell_length_b   7.18034926
_cell_length_c   7.18034926
_cell_angle_alpha   109.52124184
_cell_angle_beta   109.52124184
_cell_angle_gamma   109.37122448
_symmetry_Int_Tables_number   1
_chemical_formula_structural   Yb2EuS4
_chemical_formula_sum   'Yb4 Eu2 S8'
_cell_volume   284.97963464
_cell_formula_units_Z   2
loop_
 _symmetry_equiv_pos_site_id
 _symmetry_equiv_pos_as_xyz
  1  'x, y, z'
loop_
 _atom_site_type_symbol
 _atom_site_label
 _atom_site_symmetry_multiplicity
 _atom_site_fract_x
 _atom_site_fract_y
 _atom_site_fract_z
 _atom_site_occupancy
  Yb  Yb0  1  0.37500000  0.00003600  0.12503600  1
  Yb  Yb1  1  0.75003600  0.62500000  0.62503600  1
  Yb  Yb2  1  0.87500000  0.24996400  0.87496400  1
  Yb  Yb3  1  0.99996400  0.12500000  0.37496400  1
  Eu  Eu0  1  0.25000000  0.75000000  0.50000000  1
  Eu  Eu1  1  0.50000000  0.50000000  0.00000000  1
  S  S0  1  0.62479200  0.87476900  0.41524000  1
  S  S1  1  0.29047100  0.37523100  0.25002300  1
  S  S2  1  0.62476900  0.87479200  0.91524000  1
  S  S3  1  0.95955200  0.70952900  0.08476000  1
  S  S4  1  0.45952900  0.20955200  0.58476000  1
  S  S5  1  0.12523100  0.54047100  0.75002300  1
  S  S6  1  0.79044800  0.37520800  0.24997700  1
  S  S7  1  0.12520800  0.04044800  0.74997700  1
loop_
_geom_bond_atom_site_label_1
_geom_bond_atom_site_label_2
_geom_bond_distance
_geom_bond_site_symmetry_2
Eu0 S7 2.861268 1_565
Eu0 S3 2.861268 1_455
Eu0 S1 2.861268 1_555
Eu0 S2 2.861268 1_555
Eu0 S4 2.876604 1_565
Eu0 S6 2.876604 1_455
Eu0 S0 2.876604 1_555
Eu0 S5 2.876604 1_555
Eu1 S0 2.861268 1_555
Eu1 S5 2.861268 1_554
Eu1 S4 2.861268 1_554
Eu1 S6 2.861268 1_555
Eu1 S3 2.876604 1_555
Eu1 S2 2.876604 1_554
Eu1 S7 2.876604 1_554
Eu1 S1 2.876604 1_555
S0 Yb0 2.862362 1_565
S0 Yb3 2.868083 1_565
S0 Yb1 2.874798 1_555
S0 Yb2 2.874809 1_565
S1 Yb2 2.862362 1_454
S1 Yb3 2.868083 1_455
S1 Yb1 2.874798 1_555
S1 Yb0 2.874809 1_555
S2 Yb1 2.862362 1_555
S2 Yb2 2.868083 1_565
S2 Yb0 2.874798 1_566
S2 Yb3 2.874809 1_566
S3 Yb3 2.862362 1_565
S3 Yb0 2.868083 1_665
S3 Yb2 2.874798 1_554
S3 Yb1 2.874809 1_554
S4 Yb2 2.862362 1_555
S4 Yb1 2.868083 1_555
S4 Yb3 2.874798 1_455
S4 Yb0 2.874809 1_555
S5 Yb3 2.862362 1_455
S5 Yb2 2.868083 1_455
S5 Yb0 2.874798 1_566
S5 Yb1 2.874809 1_455
S6 Yb1 2.862362 1_555
S6 Yb0 2.868083 1_555
S6 Yb2 2.874798 1_554
S6 Yb3 2.874809 1_555
S7 Yb0 2.862362 1_556
S7 Yb1 2.868083 1_445
S7 Yb3 2.874798 1_455
S7 Yb2 2.874809 1_455
