# generated using pymatgen
data_Ba15(ZrSe3)14
_symmetry_space_group_name_H-M   'P 1'
_cell_length_a   31.54561879
_cell_length_b   31.54561845
_cell_length_c   31.54561915
_cell_angle_alpha   23.09735895
_cell_angle_beta   23.09736039
_cell_angle_gamma   23.09735957
_symmetry_Int_Tables_number   1
_chemical_formula_structural   Ba15(ZrSe3)14
_chemical_formula_sum   'Ba30 Zr28 Se84'
_cell_volume   4240.44849688
_cell_formula_units_Z   2
loop_
 _symmetry_equiv_pos_site_id
 _symmetry_equiv_pos_as_xyz
  1  'x, y, z'
loop_
 _atom_site_type_symbol
 _atom_site_label
 _atom_site_symmetry_multiplicity
 _atom_site_fract_x
 _atom_site_fract_y
 _atom_site_fract_z
 _atom_site_occupancy
  Ba  Ba0  1  0.71588245  0.35755905  0.07683947  1
  Ba  Ba1  1  0.48365649  0.80765429  0.15677702  1
  Ba  Ba2  1  0.15677702  0.48365649  0.80765429  1
  Ba  Ba3  1  0.51634351  0.19234571  0.84322298  1
  Ba  Ba4  1  0.60851230  0.25000000  0.89148770  1
  Ba  Ba5  1  0.35755905  0.07683947  0.71588245  1
  Ba  Ba6  1  0.14244095  0.78411755  0.42316053  1
  Ba  Ba7  1  0.69234571  0.01634351  0.34322298  1
  Ba  Ba8  1  0.28411755  0.64244095  0.92316053  1
  Ba  Ba9  1  0.19234571  0.84322298  0.51634351  1
  Ba  Ba10  1  0.92316053  0.28411755  0.64244095  1
  Ba  Ba11  1  0.78411755  0.42316053  0.14244095  1
  Ba  Ba12  1  0.34322298  0.69234571  0.01634351  1
  Ba  Ba13  1  0.21588245  0.57683947  0.85755905  1
  Ba  Ba14  1  0.65677702  0.30765429  0.98365649  1
  Ba  Ba15  1  0.80765429  0.15677702  0.48365649  1
  Ba  Ba16  1  0.39148770  0.75000000  0.10851230  1
  Ba  Ba17  1  0.42316053  0.14244095  0.78411755  1
  Ba  Ba18  1  0.07683947  0.71588245  0.35755905  1
  Ba  Ba19  1  0.84322298  0.51634351  0.19234571  1
  Ba  Ba20  1  0.25000000  0.89148770  0.60851230  1
  Ba  Ba21  1  0.57683947  0.85755905  0.21588245  1
  Ba  Ba22  1  0.10851230  0.39148770  0.75000000  1
  Ba  Ba23  1  0.89148770  0.60851230  0.25000000  1
  Ba  Ba24  1  0.85755905  0.21588245  0.57683947  1
  Ba  Ba25  1  0.01634351  0.34322298  0.69234571  1
  Ba  Ba26  1  0.30765429  0.98365649  0.65677702  1
  Ba  Ba27  1  0.98365649  0.65677702  0.30765429  1
  Ba  Ba28  1  0.75000000  0.10851230  0.39148770  1
  Ba  Ba29  1  0.64244095  0.92316053  0.28411755  1
  Zr  Zr0  1  0.13939028  0.13939028  0.13939028  1
  Zr  Zr1  1  0.96641493  0.96641493  0.96641493  1
  Zr  Zr2  1  0.36060972  0.36060972  0.36060972  1
  Zr  Zr3  1  0.17536602  0.17536602  0.17536602  1
  Zr  Zr4  1  0.56798074  0.56798074  0.56798074  1
  Zr  Zr5  1  0.21228741  0.21228741  0.21228741  1
  Zr  Zr6  1  0.39672399  0.39672399  0.39672399  1
  Zr  Zr7  1  0.25000000  0.25000000  0.25000000  1
  Zr  Zr8  1  0.89672399  0.89672399  0.89672399  1
  Zr  Zr9  1  0.82463398  0.82463398  0.82463398  1
  Zr  Zr10  1  0.06798074  0.06798074  0.06798074  1
  Zr  Zr11  1  0.63939028  0.63939028  0.63939028  1
  Zr  Zr12  1  0.78771259  0.78771259  0.78771259  1
  Zr  Zr13  1  0.93201926  0.93201926  0.93201926  1
  Zr  Zr14  1  0.46641493  0.46641493  0.46641493  1
  Zr  Zr15  1  0.32463398  0.32463398  0.32463398  1
  Zr  Zr16  1  0.71228741  0.71228741  0.71228741  1
  Zr  Zr17  1  0.43201926  0.43201926  0.43201926  1
  Zr  Zr18  1  0.67536602  0.67536602  0.67536602  1
  Zr  Zr19  1  0.10327601  0.10327601  0.10327601  1
  Zr  Zr20  1  0.28771259  0.28771259  0.28771259  1
  Zr  Zr21  1  0.53358507  0.53358507  0.53358507  1
  Zr  Zr22  1  0.03358507  0.03358507  0.03358507  1
  Zr  Zr23  1  0.00000000  0.00000000  0.00000000  1
  Zr  Zr24  1  0.50000000  0.50000000  0.50000000  1
  Zr  Zr25  1  0.86060972  0.86060972  0.86060972  1
  Zr  Zr26  1  0.60327601  0.60327601  0.60327601  1
  Zr  Zr27  1  0.75000000  0.75000000  0.75000000  1
  Se  Se0  1  0.54575121  0.20321139  0.38833225  1
  Se  Se1  1  0.03477281  0.23508546  0.88341700  1
  Se  Se2  1  0.07919561  0.38250699  0.34577066  1
  Se  Se3  1  0.86250780  0.68966673  0.52722142  1
  Se  Se4  1  0.38833225  0.54575121  0.20321139  1
  Se  Se5  1  0.88341700  0.03477281  0.23508546  1
  Se  Se6  1  0.66078754  0.48025317  0.30809402  1
  Se  Se7  1  0.61166775  0.45424879  0.79678861  1
  Se  Se8  1  0.83921246  0.19190598  0.01974683  1
  Se  Se9  1  0.38250699  0.34577066  0.07919561  1
  Se  Se10  1  0.11166775  0.29678861  0.95424879  1
  Se  Se11  1  0.16078754  0.80809402  0.98025317  1
  Se  Se12  1  0.23708119  0.58321696  0.42303352  1
  Se  Se13  1  0.61658300  0.26491454  0.46522719  1
  Se  Se14  1  0.51974683  0.69190598  0.33921246  1
  Se  Se15  1  0.20321139  0.38833225  0.54575121  1
  Se  Se16  1  0.58321696  0.42303352  0.23708119  1
  Se  Se17  1  0.00429915  0.66460930  0.86106206  1
  Se  Se18  1  0.69190598  0.33921246  0.51974683  1
  Se  Se19  1  0.68966673  0.52722142  0.86250780  1
  Se  Se20  1  0.42080439  0.15422934  0.11749301  1
  Se  Se21  1  0.73508546  0.53477281  0.38341700  1
  Se  Se22  1  0.49570085  0.63893794  0.83539070  1
  Se  Se23  1  0.34577066  0.07919561  0.38250699  1
  Se  Se24  1  0.91678304  0.26291881  0.07696648  1
  Se  Se25  1  0.11749301  0.42080439  0.15422934  1
  Se  Se26  1  0.48025317  0.30809402  0.66078754  1
  Se  Se27  1  0.29678861  0.95424879  0.11166775  1
  Se  Se28  1  0.11658300  0.96522719  0.76491454  1
  Se  Se29  1  0.61749301  0.65422934  0.92080439  1
  Se  Se30  1  0.63749220  0.97277858  0.81033327  1
  Se  Se31  1  0.19190598  0.01974683  0.83921246  1
  Se  Se32  1  0.46522719  0.61658300  0.26491454  1
  Se  Se33  1  0.23508546  0.88341700  0.03477281  1
  Se  Se34  1  0.33921246  0.51974683  0.69190598  1
  Se  Se35  1  0.18966673  0.36250780  0.02722142  1
  Se  Se36  1  0.96522719  0.76491454  0.11658300  1
  Se  Se37  1  0.80809402  0.98025317  0.16078754  1
  Se  Se38  1  0.36106206  0.16460930  0.50429915  1
  Se  Se39  1  0.13893794  0.99570085  0.33539070  1
  Se  Se40  1  0.66460930  0.86106206  0.00429915  1
  Se  Se41  1  0.53477281  0.38341700  0.73508546  1
  Se  Se42  1  0.02722142  0.18966673  0.36250780  1
  Se  Se43  1  0.92303352  0.08321696  0.73708119  1
  Se  Se44  1  0.42303352  0.23708119  0.58321696  1
  Se  Se45  1  0.95424879  0.11166775  0.29678861  1
  Se  Se46  1  0.47277858  0.13749220  0.31033327  1
  Se  Se47  1  0.07696648  0.91678304  0.26291881  1
  Se  Se48  1  0.63893794  0.83539070  0.49570085  1
  Se  Se49  1  0.01974683  0.83921246  0.19190598  1
  Se  Se50  1  0.88833225  0.70321139  0.04575121  1
  Se  Se51  1  0.57696648  0.76291881  0.41678304  1
  Se  Se52  1  0.50429915  0.36106206  0.16460930  1
  Se  Se53  1  0.92080439  0.61749301  0.65422934  1
  Se  Se54  1  0.76291881  0.41678304  0.57696648  1
  Se  Se55  1  0.26291881  0.07696648  0.91678304  1
  Se  Se56  1  0.65422934  0.92080439  0.61749301  1
  Se  Se57  1  0.73708119  0.92303352  0.08321696  1
  Se  Se58  1  0.04575121  0.88833225  0.70321139  1
  Se  Se59  1  0.16460930  0.50429915  0.36106206  1
  Se  Se60  1  0.41678304  0.57696648  0.76291881  1
  Se  Se61  1  0.15422934  0.11749301  0.42080439  1
  Se  Se62  1  0.83539070  0.49570085  0.63893794  1
  Se  Se63  1  0.36250780  0.02722142  0.18966673  1
  Se  Se64  1  0.79678861  0.61166775  0.45424879  1
  Se  Se65  1  0.31033327  0.47277858  0.13749220  1
  Se  Se66  1  0.57919561  0.84577066  0.88250699  1
  Se  Se67  1  0.81033327  0.63749220  0.97277858  1
  Se  Se68  1  0.70321139  0.04575121  0.88833225  1
  Se  Se69  1  0.97277858  0.81033327  0.63749220  1
  Se  Se70  1  0.08321696  0.73708119  0.92303352  1
  Se  Se71  1  0.52722142  0.86250780  0.68966673  1
  Se  Se72  1  0.38341700  0.73508546  0.53477281  1
  Se  Se73  1  0.33539070  0.13893794  0.99570085  1
  Se  Se74  1  0.84577066  0.88250699  0.57919561  1
  Se  Se75  1  0.13749220  0.31033327  0.47277858  1
  Se  Se76  1  0.26491454  0.46522719  0.61658300  1
  Se  Se77  1  0.76491454  0.11658300  0.96522719  1
  Se  Se78  1  0.86106206  0.00429915  0.66460930  1
  Se  Se79  1  0.45424879  0.79678861  0.61166775  1
  Se  Se80  1  0.99570085  0.33539070  0.13893794  1
  Se  Se81  1  0.30809402  0.66078754  0.48025317  1
  Se  Se82  1  0.88250699  0.57919561  0.84577066  1
  Se  Se83  1  0.98025317  0.16078754  0.80809402  1
loop_
_geom_bond_atom_site_label_1
_geom_bond_atom_site_label_2
_geom_bond_distance
_geom_bond_site_symmetry_2
Ba0 Se19 3.258046 1_554
Ba0 Se29 3.371764 1_554
Ba0 Se16 3.423413 1_555
Ba0 Se0 3.479011 1_555
Ba0 Se1 3.507274 1_654
Ba0 Se5 3.543449 1_555
Ba0 Se8 3.564996 1_555
Ba0 Se4 3.579364 1_555
Ba0 Se24 3.780783 1_555
Ba1 Se40 3.291105 1_555
Ba1 Se27 3.366782 1_555
Ba1 Se81 3.539372 1_555
Ba1 Se6 3.589000 1_555
Ba1 Se73 3.608122 1_564
Ba1 Se32 3.643755 1_555
Ba1 Se14 3.673783 1_555
Ba1 Se67 3.770232 1_554
Ba1 Se30 3.785292 1_554
Ba1 Se39 3.909662 1_555
Ba2 Se17 3.291105 1_555
Ba2 Se10 3.366782 1_555
Ba2 Se26 3.539372 1_555
Ba2 Se81 3.589000 1_555
Ba2 Se80 3.608123 1_456
Ba2 Se76 3.643755 1_555
Ba2 Se34 3.673783 1_555
Ba2 Se69 3.770231 1_455
Ba2 Se67 3.785292 1_455
Ba2 Se73 3.909661 1_555
Ba3 Se73 3.291105 1_555
Ba3 Se68 3.366782 1_555
Ba3 Se18 3.539372 1_555
Ba3 Se34 3.589000 1_555
Ba3 Se40 3.608122 1_546
Ba3 Se41 3.643755 1_555
Ba3 Se26 3.673783 1_555
Ba3 Se35 3.770232 1_556
Ba3 Se63 3.785292 1_556
Ba3 Se78 3.909662 1_555
Ba4 Se20 3.261958 1_556
Ba4 Se9 3.261958 1_556
Ba4 Se54 3.471679 1_555
Ba4 Se43 3.471679 1_555
Ba4 Se77 3.516921 1_555
Ba4 Se41 3.516921 1_555
Ba4 Se57 3.580445 1_546
Ba4 Se60 3.580445 1_555
Ba4 Se7 3.958690 1_555
Ba4 Se68 3.958690 1_555
Ba5 Se71 3.258046 1_545
Ba5 Se56 3.371764 1_545
Ba5 Se44 3.423413 1_555
Ba5 Se15 3.479011 1_555
Ba5 Se33 3.507274 1_546
Ba5 Se1 3.543449 1_555
Ba5 Se31 3.564996 1_555
Ba5 Se0 3.579364 1_555
Ba5 Se55 3.780783 1_555
Ba6 Se69 3.258046 1_455
Ba6 Se74 3.371764 1_455
Ba6 Se47 3.423413 1_555
Ba6 Se27 3.479011 1_555
Ba6 Se76 3.507274 1_555
Ba6 Se32 3.543449 1_555
Ba6 Se81 3.564996 1_555
Ba6 Se45 3.579364 1_465
Ba6 Se12 3.780783 1_555
Ba7 Se48 3.291105 1_545
Ba7 Se0 3.366782 1_555
Ba7 Se8 3.539372 1_555
Ba7 Se49 3.589000 1_645
Ba7 Se38 3.608123 1_555
Ba7 Se5 3.643755 1_555
Ba7 Se37 3.673783 1_545
Ba7 Se3 3.770231 1_545
Ba7 Se71 3.785292 1_545
Ba7 Se52 3.909661 1_555
Ba8 Se65 3.258046 1_556
Ba8 Se9 3.371764 1_556
Ba8 Se60 3.423413 1_555
Ba8 Se79 3.479011 1_555
Ba8 Se36 3.507274 1_456
Ba8 Se28 3.543449 1_555
Ba8 Se11 3.564996 1_555
Ba8 Se7 3.579364 1_555
Ba8 Se70 3.780783 1_555
Ba9 Se39 3.291106 1_555
Ba9 Se58 3.366782 1_555
Ba9 Se34 3.539371 1_555
Ba9 Se14 3.589000 1_555
Ba9 Se78 3.608123 1_465
Ba9 Se72 3.643755 1_555
Ba9 Se81 3.673783 1_555
Ba9 Se63 3.770231 1_565
Ba9 Se42 3.785291 1_565
Ba9 Se17 3.909662 1_555
Ba10 Se75 3.258046 1_655
Ba10 Se2 3.371764 1_655
Ba10 Se54 3.423413 1_555
Ba10 Se7 3.479011 1_555
Ba10 Se28 3.507274 1_645
Ba10 Se77 3.543449 1_555
Ba10 Se83 3.564996 1_555
Ba10 Se64 3.579364 1_555
Ba10 Se43 3.780783 1_555
Ba11 Se67 3.258046 1_554
Ba11 Se82 3.371764 1_554
Ba11 Se24 3.423413 1_555
Ba11 Se45 3.479011 1_555
Ba11 Se32 3.507274 1_555
Ba11 Se13 3.543449 1_555
Ba11 Se6 3.564996 1_555
Ba11 Se10 3.579364 1_654
Ba11 Se16 3.780783 1_555
Ba12 Se22 3.291106 1_554
Ba12 Se4 3.366782 1_555
Ba12 Se49 3.539372 1_555
Ba12 Se31 3.589000 1_564
Ba12 Se52 3.608122 1_555
Ba12 Se33 3.643755 1_555
Ba12 Se11 3.673783 1_554
Ba12 Se71 3.770231 1_554
Ba12 Se19 3.785292 1_554
Ba12 Se59 3.909662 1_555
Ba13 Se35 3.258046 1_556
Ba13 Se25 3.371764 1_556
Ba13 Se70 3.423413 1_555
Ba13 Se58 3.479011 1_555
Ba13 Se41 3.507274 1_555
Ba13 Se72 3.543449 1_555
Ba13 Se34 3.564996 1_555
Ba13 Se50 3.579364 1_456
Ba13 Se60 3.780783 1_555
Ba14 Se52 3.291106 1_556
Ba14 Se7 3.366782 1_555
Ba14 Se83 3.539372 1_555
Ba14 Se37 3.589000 1_546
Ba14 Se22 3.608122 1_555
Ba14 Se77 3.643755 1_555
Ba14 Se8 3.673783 1_556
Ba14 Se46 3.770231 1_556
Ba14 Se65 3.785292 1_556
Ba14 Se62 3.909662 1_555
Ba15 Se78 3.291106 1_555
Ba15 Se45 3.366782 1_555
Ba15 Se6 3.539371 1_555
Ba15 Se26 3.589000 1_555
Ba15 Se39 3.608123 1_645
Ba15 Se13 3.643755 1_555
Ba15 Se18 3.673783 1_555
Ba15 Se30 3.770231 1_545
Ba15 Se69 3.785291 1_545
Ba15 Se80 3.909662 1_555
Ba16 Se66 3.261958 1_554
Ba16 Se29 3.261958 1_554
Ba16 Se12 3.471679 1_555
Ba16 Se47 3.471679 1_555
Ba16 Se33 3.516921 1_555
Ba16 Se32 3.516921 1_555
Ba16 Se55 3.580445 1_564
Ba16 Se16 3.580445 1_555
Ba16 Se4 3.958690 1_555
Ba16 Se27 3.958690 1_555
Ba17 Se30 3.258046 1_545
Ba17 Se66 3.371764 1_545
Ba17 Se55 3.423413 1_555
Ba17 Se10 3.479011 1_555
Ba17 Se13 3.507274 1_555
Ba17 Se76 3.543449 1_555
Ba17 Se26 3.564996 1_555
Ba17 Se27 3.579364 1_546
Ba17 Se44 3.780783 1_555
Ba18 Se3 3.258046 1_455
Ba18 Se53 3.371764 1_455
Ba18 Se12 3.423413 1_555
Ba18 Se4 3.479011 1_555
Ba18 Se5 3.507274 1_465
Ba18 Se33 3.543449 1_555
Ba18 Se49 3.564996 1_555
Ba18 Se15 3.579364 1_555
Ba18 Se47 3.780783 1_555
Ba19 Se80 3.291105 1_555
Ba19 Se50 3.366782 1_555
Ba19 Se14 3.539372 1_555
Ba19 Se18 3.589000 1_555
Ba19 Se17 3.608123 1_654
Ba19 Se21 3.643755 1_555
Ba19 Se6 3.673783 1_555
Ba19 Se42 3.770231 1_655
Ba19 Se35 3.785292 1_655
Ba19 Se40 3.909661 1_555
Ba20 Se23 3.261958 1_565
Ba20 Se61 3.261958 1_565
Ba20 Se60 3.471678 1_555
Ba20 Se70 3.471679 1_555
Ba20 Se72 3.516921 1_555
Ba20 Se28 3.516921 1_555
Ba20 Se43 3.580445 1_465
Ba20 Se51 3.580445 1_555
Ba20 Se58 3.958691 1_555
Ba20 Se79 3.958691 1_555
Ba21 Se63 3.258046 1_565
Ba21 Se20 3.371764 1_565
Ba21 Se57 3.423413 1_555
Ba21 Se50 3.479011 1_555
Ba21 Se72 3.507274 1_555
Ba21 Se21 3.543449 1_555
Ba21 Se14 3.564996 1_555
Ba21 Se68 3.579364 1_564
Ba21 Se51 3.780783 1_555
Ba22 Se53 3.261958 1_455
Ba22 Se82 3.261958 1_455
Ba22 Se55 3.471678 1_555
Ba22 Se44 3.471679 1_555
Ba22 Se1 3.516921 1_555
Ba22 Se76 3.516921 1_555
Ba22 Se12 3.580445 1_555
Ba22 Se24 3.580445 1_456
Ba22 Se10 3.958691 1_555
Ba22 Se15 3.958691 1_555
Ba23 Se2 3.261958 1_655
Ba23 Se25 3.261958 1_655
Ba23 Se57 3.471678 1_555
Ba23 Se51 3.471679 1_555
Ba23 Se36 3.516921 1_555
Ba23 Se21 3.516921 1_555
Ba23 Se54 3.580445 1_555
Ba23 Se70 3.580445 1_654
Ba23 Se50 3.958691 1_555
Ba23 Se64 3.958691 1_555
Ba24 Se42 3.258046 1_655
Ba24 Se61 3.371764 1_655
Ba24 Se43 3.423413 1_555
Ba24 Se68 3.479011 1_555
Ba24 Se21 3.507274 1_555
Ba24 Se41 3.543449 1_555
Ba24 Se18 3.564996 1_555
Ba24 Se58 3.579364 1_645
Ba24 Se54 3.780783 1_555
Ba25 Se62 3.291106 1_455
Ba25 Se15 3.366782 1_555
Ba25 Se31 3.539371 1_555
Ba25 Se8 3.589000 1_456
Ba25 Se59 3.608123 1_555
Ba25 Se1 3.643755 1_555
Ba25 Se83 3.673783 1_455
Ba25 Se19 3.770232 1_455
Ba25 Se3 3.785291 1_455
Ba25 Se38 3.909662 1_555
Ba26 Se38 3.291105 1_565
Ba26 Se79 3.366782 1_555
Ba26 Se11 3.539372 1_555
Ba26 Se83 3.589000 1_465
Ba26 Se48 3.608123 1_555
Ba26 Se28 3.643755 1_555
Ba26 Se31 3.673783 1_565
Ba26 Se75 3.770231 1_565
Ba26 Se46 3.785292 1_565
Ba26 Se22 3.909661 1_555
Ba27 Se59 3.291106 1_655
Ba27 Se64 3.366782 1_555
Ba27 Se37 3.539371 1_555
Ba27 Se11 3.589000 1_654
Ba27 Se62 3.608123 1_555
Ba27 Se36 3.643755 1_555
Ba27 Se49 3.673783 1_655
Ba27 Se65 3.770232 1_655
Ba27 Se75 3.785291 1_655
Ba27 Se48 3.909662 1_555
Ba28 Se56 3.261958 1_545
Ba28 Se74 3.261958 1_545
Ba28 Se16 3.471678 1_555
Ba28 Se24 3.471679 1_555
Ba28 Se13 3.516921 1_555
Ba28 Se5 3.516921 1_555
Ba28 Se47 3.580445 1_645
Ba28 Se44 3.580445 1_555
Ba28 Se45 3.958691 1_555
Ba28 Se0 3.958691 1_555
Ba29 Se46 3.258046 1_565
Ba29 Se23 3.371764 1_565
Ba29 Se51 3.423413 1_555
Ba29 Se64 3.479011 1_555
Ba29 Se77 3.507274 1_564
Ba29 Se36 3.543449 1_555
Ba29 Se37 3.564996 1_555
Ba29 Se79 3.579364 1_555
Ba29 Se57 3.780783 1_555
Se0 Zr6 2.706235 1_555
Se0 Zr2 2.754610 1_555
Se1 Zr10 2.717087 1_556
Se1 Zr22 2.750032 1_556
Se2 Zr20 2.700054 1_555
Se2 Zr7 2.735517 1_555
Se3 Zr18 2.675991 1_555
Se3 Zr16 2.756053 1_555
Se4 Zr6 2.706235 1_555
Se4 Zr2 2.754610 1_555
Se5 Zr10 2.717087 1_655
Se5 Zr22 2.750032 1_655
Se6 Zr14 2.703115 1_555
Se6 Zr24 2.720183 1_555
Se7 Zr26 2.706235 1_555
Se7 Zr11 2.754610 1_555
Se8 Zr22 2.703115 1_655
Se8 Zr23 2.720183 1_655
Se9 Zr20 2.700054 1_555
Se9 Zr7 2.735516 1_555
Se10 Zr19 2.706235 1_556
Se10 Zr0 2.754610 1_556
Se11 Zr1 2.703115 1_455
Se11 Zr23 2.720183 1_566
Se12 Zr17 2.721412 1_555
Se12 Zr6 2.729346 1_555
Se13 Zr17 2.717087 1_555
Se13 Zr14 2.750032 1_555
Se14 Zr21 2.703115 1_555
Se14 Zr24 2.720183 1_555
Se15 Zr6 2.706235 1_555
Se15 Zr2 2.754610 1_555
Se16 Zr17 2.721412 1_555
Se16 Zr6 2.729346 1_555
Se17 Zr25 2.678269 1_455
Se17 Zr9 2.757012 1_455
Se18 Zr21 2.703115 1_555
Se18 Zr24 2.720183 1_555
Se19 Zr18 2.675991 1_555
Se19 Zr16 2.756053 1_555
Se20 Zr5 2.700054 1_555
Se20 Zr7 2.735517 1_555
Se21 Zr4 2.717087 1_555
Se21 Zr21 2.750032 1_555
Se22 Zr11 2.678269 1_555
Se22 Zr18 2.757012 1_555
Se23 Zr20 2.700054 1_555
Se23 Zr7 2.735516 1_555
Se24 Zr10 2.721412 1_655
Se24 Zr19 2.729346 1_655
Se25 Zr5 2.700054 1_555
Se25 Zr7 2.735516 1_555
Se26 Zr14 2.703115 1_555
Se26 Zr24 2.720183 1_555
Se27 Zr19 2.706235 1_565
Se27 Zr0 2.754610 1_565
Se28 Zr13 2.717087 1_455
Se28 Zr1 2.750032 1_455
Se29 Zr16 2.700054 1_555
Se29 Zr27 2.735516 1_555
Se30 Zr9 2.675991 1_555
Se30 Zr12 2.756053 1_555
Se31 Zr22 2.703115 1_556
Se31 Zr23 2.720183 1_556
Se32 Zr17 2.717087 1_555
Se32 Zr14 2.750032 1_555
Se33 Zr10 2.717087 1_565
Se33 Zr22 2.750032 1_565
Se34 Zr21 2.703115 1_555
Se34 Zr24 2.720183 1_555
Se35 Zr3 2.675990 1_555
Se35 Zr5 2.756053 1_555
Se36 Zr13 2.717087 1_554
Se36 Zr1 2.750032 1_554
Se37 Zr1 2.703115 1_554
Se37 Zr23 2.720183 1_665
Se38 Zr2 2.678269 1_555
Se38 Zr15 2.757012 1_555
Se39 Zr0 2.678269 1_565
Se39 Zr3 2.757012 1_565
Se40 Zr25 2.678269 1_554
Se40 Zr9 2.757012 1_554
Se41 Zr4 2.717087 1_555
Se41 Zr21 2.750032 1_555
Se42 Zr3 2.675991 1_555
Se42 Zr5 2.756053 1_555
Se43 Zr13 2.721412 1_545
Se43 Zr8 2.729346 1_545
Se44 Zr17 2.721412 1_555
Se44 Zr6 2.729346 1_555
Se45 Zr19 2.706235 1_655
Se45 Zr0 2.754610 1_655
Se46 Zr15 2.675991 1_555
Se46 Zr20 2.756053 1_555
Se47 Zr10 2.721412 1_565
Se47 Zr19 2.729346 1_565
Se48 Zr11 2.678269 1_555
Se48 Zr18 2.757012 1_555
Se49 Zr22 2.703115 1_565
Se49 Zr23 2.720183 1_565
Se50 Zr8 2.706235 1_554
Se50 Zr25 2.754610 1_554
Se51 Zr4 2.721412 1_555
Se51 Zr26 2.729346 1_555
Se52 Zr2 2.678269 1_555
Se52 Zr15 2.757012 1_555
Se53 Zr16 2.700054 1_555
Se53 Zr27 2.735517 1_555
Se54 Zr4 2.721412 1_555
Se54 Zr26 2.729346 1_555
Se55 Zr10 2.721412 1_556
Se55 Zr19 2.729346 1_556
Se56 Zr16 2.700054 1_555
Se56 Zr27 2.735516 1_555
Se57 Zr13 2.721412 1_554
Se57 Zr8 2.729346 1_554
Se58 Zr8 2.706235 1_455
Se58 Zr25 2.754610 1_455
Se59 Zr2 2.678269 1_555
Se59 Zr15 2.757012 1_555
Se60 Zr4 2.721412 1_555
Se60 Zr26 2.729346 1_555
Se61 Zr5 2.700054 1_555
Se61 Zr7 2.735516 1_555
Se62 Zr11 2.678269 1_555
Se62 Zr18 2.757012 1_555
Se63 Zr3 2.675991 1_555
Se63 Zr5 2.756053 1_555
Se64 Zr26 2.706235 1_555
Se64 Zr11 2.754610 1_555
Se65 Zr15 2.675991 1_555
Se65 Zr20 2.756053 1_555
Se66 Zr12 2.700054 1_555
Se66 Zr27 2.735517 1_555
Se67 Zr9 2.675990 1_555
Se67 Zr12 2.756053 1_555
Se68 Zr8 2.706235 1_545
Se68 Zr25 2.754610 1_545
Se69 Zr9 2.675991 1_555
Se69 Zr12 2.756053 1_555
Se70 Zr13 2.721412 1_455
Se70 Zr8 2.729346 1_455
Se71 Zr18 2.675991 1_555
Se71 Zr16 2.756053 1_555
Se72 Zr4 2.717087 1_555
Se72 Zr21 2.750032 1_555
Se73 Zr0 2.678269 1_556
Se73 Zr3 2.757012 1_556
Se74 Zr12 2.700054 1_555
Se74 Zr27 2.735516 1_555
Se75 Zr15 2.675991 1_555
Se75 Zr20 2.756053 1_555
Se76 Zr17 2.717087 1_555
Se76 Zr14 2.750032 1_555
Se77 Zr13 2.717087 1_545
Se77 Zr1 2.750032 1_545
Se78 Zr25 2.678269 1_545
Se78 Zr9 2.757012 1_545
Se79 Zr26 2.706235 1_555
Se79 Zr11 2.754610 1_555
Se80 Zr0 2.678269 1_655
Se80 Zr3 2.757012 1_655
Se81 Zr14 2.703115 1_555
Se81 Zr24 2.720183 1_555
Se82 Zr12 2.700054 1_555
Se82 Zr27 2.735516 1_555
Se83 Zr1 2.703115 1_545
Se83 Zr23 2.720183 1_656
