# generated using pymatgen
data_Re(Se2Cl3)2
_symmetry_space_group_name_H-M   'P 1'
_cell_length_a   10.81721600
_cell_length_b   10.84082000
_cell_length_c   11.25220700
_cell_angle_alpha   90.00000000
_cell_angle_beta   90.00000000
_cell_angle_gamma   90.00000000
_symmetry_Int_Tables_number   1
_chemical_formula_structural   Re(Se2Cl3)2
_chemical_formula_sum   'Re4 Se16 Cl24'
_cell_volume   1319.51808937
_cell_formula_units_Z   4
loop_
 _symmetry_equiv_pos_site_id
 _symmetry_equiv_pos_as_xyz
  1  'x, y, z'
loop_
 _atom_site_type_symbol
 _atom_site_label
 _atom_site_symmetry_multiplicity
 _atom_site_fract_x
 _atom_site_fract_y
 _atom_site_fract_z
 _atom_site_occupancy
  Re  Re0  1  0.00000000  0.00000000  0.00000000  1
  Re  Re1  1  0.50000000  0.00000000  0.50000000  1
  Re  Re2  1  0.50000000  0.50000000  0.00000000  1
  Re  Re3  1  0.00000000  0.50000000  0.50000000  1
  Se  Se0  1  0.60811200  0.47791200  0.60204600  1
  Se  Se1  1  0.39188800  0.52208800  0.39795400  1
  Se  Se2  1  0.08840700  0.57259300  0.90043200  1
  Se  Se3  1  0.39188800  0.02208800  0.10204600  1
  Se  Se4  1  0.89188800  0.97791200  0.60204600  1
  Se  Se5  1  0.91159300  0.92740700  0.40043200  1
  Se  Se6  1  0.60811200  0.97791200  0.89795400  1
  Se  Se7  1  0.91159300  0.42740700  0.09956800  1
  Se  Se8  1  0.41159300  0.57259300  0.59956800  1
  Se  Se9  1  0.10811200  0.52208800  0.10204600  1
  Se  Se10  1  0.08840700  0.07259300  0.59956800  1
  Se  Se11  1  0.89188800  0.47791200  0.89795400  1
  Se  Se12  1  0.58840700  0.42740700  0.40043200  1
  Se  Se13  1  0.41159300  0.07259300  0.90043200  1
  Se  Se14  1  0.58840700  0.92740700  0.09956800  1
  Se  Se15  1  0.10811200  0.02208800  0.39795400  1
  Cl  Cl0  1  0.34523700  0.15343400  0.47361000  1
  Cl  Cl1  1  0.91417100  0.61668000  0.65791400  1
  Cl  Cl2  1  0.84523700  0.84656600  0.97361000  1
  Cl  Cl3  1  0.58582900  0.11668000  0.65791400  1
  Cl  Cl4  1  0.37302000  0.89725200  0.63556900  1
  Cl  Cl5  1  0.41417100  0.38332000  0.15791400  1
  Cl  Cl6  1  0.87302000  0.10274800  0.13556900  1
  Cl  Cl7  1  0.84523700  0.34656600  0.52639000  1
  Cl  Cl8  1  0.12698000  0.39725200  0.63556900  1
  Cl  Cl9  1  0.58582900  0.61668000  0.84208600  1
  Cl  Cl10  1  0.62698000  0.60274800  0.13556900  1
  Cl  Cl11  1  0.12698000  0.89725200  0.86443100  1
  Cl  Cl12  1  0.62698000  0.10274800  0.36443100  1
  Cl  Cl13  1  0.87302000  0.60274800  0.36443100  1
  Cl  Cl14  1  0.08582900  0.38332000  0.34208600  1
  Cl  Cl15  1  0.65476300  0.84656600  0.52639000  1
  Cl  Cl16  1  0.41417100  0.88332000  0.34208600  1
  Cl  Cl17  1  0.34523700  0.65343400  0.02639000  1
  Cl  Cl18  1  0.08582900  0.88332000  0.15791400  1
  Cl  Cl19  1  0.15476300  0.15343400  0.02639000  1
  Cl  Cl20  1  0.91417100  0.11668000  0.84208600  1
  Cl  Cl21  1  0.65476300  0.34656600  0.97361000  1
  Cl  Cl22  1  0.37302000  0.39725200  0.86443100  1
  Cl  Cl23  1  0.15476300  0.65343400  0.47361000  1
loop_
_geom_bond_atom_site_label_1
_geom_bond_atom_site_label_2
_geom_bond_distance
_geom_bond_site_symmetry_2
Se0 Se12 2.343451 1_555
Se0 Se8 2.360782 1_555
Se1 Se8 2.343451 1_555
Se1 Se12 2.360782 1_555
Se2 Se9 2.343451 1_556
Se4 Se5 2.343451 1_555
Se7 Se9 2.360782 1_655
Se10 Se15 2.343451 1_555
Se10 Se4 2.360782 1_445
Se11 Se7 2.343451 1_556
Se11 Se2 2.360782 1_655
Se13 Se3 2.343451 1_556
Se13 Se6 2.360782 1_545
Se14 Se6 2.343451 1_554
Se14 Se3 2.360782 1_565
Se15 Se5 2.360782 1_445
Cl0 Re1 2.378558 1_555
Cl1 Re3 2.370502 1_655
Cl2 Re0 2.378558 1_666
Cl3 Re1 2.370502 1_555
Cl4 Re1 2.335467 1_565
Cl5 Re2 2.370502 1_555
Cl6 Re0 2.335467 1_655
Cl7 Re3 2.378558 1_655
Cl8 Re3 2.335467 1_555
Cl9 Re2 2.370502 1_556
Cl10 Re2 2.335467 1_555
Cl11 Re0 2.335467 1_566
Cl12 Re1 2.335467 1_555
Cl13 Re3 2.335467 1_655
Cl14 Re3 2.370502 1_555
Cl15 Re1 2.378558 1_565
Cl16 Re1 2.370502 1_565
Cl17 Re2 2.378558 1_555
Cl18 Re0 2.370502 1_565
Cl19 Re0 2.378558 1_555
Cl20 Re0 2.370502 1_656
Cl21 Re2 2.378558 1_556
Cl22 Re2 2.335467 1_556
Cl23 Re3 2.378558 1_555
