# generated using pymatgen
data_La4C5Cl2
_symmetry_space_group_name_H-M   'P 1'
_cell_length_a   3.98730100
_cell_length_b   10.19028940
_cell_length_c   11.47693558
_cell_angle_alpha   95.85100635
_cell_angle_beta   99.87927264
_cell_angle_gamma   89.96999788
_symmetry_Int_Tables_number   1
_chemical_formula_structural   La4C5Cl2
_chemical_formula_sum   'La8 C10 Cl4'
_cell_volume   456.95115197
_cell_formula_units_Z   2
loop_
 _symmetry_equiv_pos_site_id
 _symmetry_equiv_pos_as_xyz
  1  'x, y, z'
loop_
 _atom_site_type_symbol
 _atom_site_label
 _atom_site_symmetry_multiplicity
 _atom_site_fract_x
 _atom_site_fract_y
 _atom_site_fract_z
 _atom_site_occupancy
  La  La0  1  0.62272900  0.35201600  0.23384300  1
  La  La1  1  0.17567500  0.02488500  0.34993000  1
  La  La2  1  0.04814100  0.64987000  0.09139700  1
  La  La3  1  0.27380300  0.33354100  0.54888100  1
  La  La4  1  0.72619700  0.66645900  0.45111900  1
  La  La5  1  0.37727100  0.64798400  0.76615700  1
  La  La6  1  0.95185900  0.35013000  0.90860400  1
  La  La7  1  0.82432500  0.97511500  0.65007000  1
  C  C0  1  0.85456300  0.45259700  0.71206400  1
  C  C1  1  0.74709800  0.13149500  0.49728100  1
  C  C2  1  0.47490400  0.53419100  0.95270500  1
  C  C3  1  0.52509600  0.46580900  0.04729500  1
  C  C4  1  0.80745500  0.52295300  0.62137500  1
  C  C5  1  0.25290200  0.86850500  0.50271900  1
  C  C6  1  0.19254500  0.47704700  0.37862500  1
  C  C7  1  0.14543700  0.54740300  0.28793600  1
  C  C8  1  0.70302800  0.20360500  0.40588900  1
  C  C9  1  0.29697200  0.79639500  0.59411100  1
  Cl  Cl0  1  0.60826200  0.84995500  0.20411400  1
  Cl  Cl1  1  0.39173800  0.15004500  0.79588600  1
  Cl  Cl2  1  0.93375000  0.83706500  0.88537600  1
  Cl  Cl3  1  0.06625000  0.16293500  0.11462400  1
loop_
_geom_bond_atom_site_label_1
_geom_bond_atom_site_label_2
_geom_bond_distance
_geom_bond_site_symmetry_2
C0 C4 1.310550 1_555
C0 La6 2.551151 1_555
C0 La5 2.828762 1_655
C0 La5 2.849728 1_555
C0 La3 2.895289 1_655
C0 La3 2.897108 1_555
C1 C8 1.328456 1_555
C1 La7 2.468422 1_545
C1 La1 2.745409 1_555
C1 La1 2.752371 1_655
C1 La3 2.877856 1_555
C1 La3 2.886091 1_655
C2 C3 1.335552 1_556
C2 La5 2.509932 1_555
C2 La2 2.713596 1_556
C2 La2 2.742147 1_656
C2 La6 2.742973 1_555
C2 La6 2.751723 1_455
C3 La0 2.509932 1_555
C3 La6 2.713589 1_554
C3 La6 2.742142 1_454
C3 La2 2.742976 1_555
C3 La2 2.751723 1_655
C4 La4 2.535061 1_555
C4 La5 2.796863 1_655
C4 La5 2.805474 1_555
C4 La3 2.831046 1_555
C4 La3 2.841671 1_655
C5 C9 1.328456 1_555
C5 La1 2.468422 1_565
C5 La7 2.745409 1_555
C5 La7 2.752371 1_455
C5 La4 2.877856 1_555
C5 La4 2.886091 1_455
C6 C7 1.310550 1_555
C6 La3 2.535061 1_555
C6 La0 2.796863 1_455
C6 La0 2.805474 1_555
C6 La4 2.831046 1_555
C6 La4 2.841671 1_455
C7 La2 2.551141 1_555
C7 La0 2.828762 1_455
C7 La0 2.849728 1_555
C7 La4 2.895289 1_455
C7 La4 2.897108 1_555
C8 La0 2.584571 1_555
C8 La1 2.729985 1_555
C8 La1 2.730237 1_655
C8 La3 2.809605 1_555
C8 La3 2.811485 1_655
C9 La5 2.584571 1_555
C9 La7 2.729985 1_555
C9 La7 2.730237 1_455
C9 La4 2.809605 1_555
C9 La4 2.811485 1_455
Cl0 La2 3.023916 1_655
Cl0 La1 3.032114 1_665
Cl0 La2 3.048649 1_555
Cl0 La1 3.054911 1_565
Cl0 La4 3.518011 1_555
Cl1 La6 3.023921 1_455
Cl1 La7 3.032114 1_445
Cl1 La6 3.048651 1_555
Cl1 La7 3.054911 1_545
Cl1 La3 3.518011 1_555
Cl2 La5 2.988838 1_555
Cl2 La5 3.000222 1_655
Cl2 La7 3.135629 1_555
Cl2 La2 3.160110 1_656
Cl3 La0 2.988838 1_555
Cl3 La0 3.000222 1_455
Cl3 La1 3.135629 1_555
Cl3 La6 3.160101 1_454
