# generated using pymatgen
data_CaMgSiO4
_symmetry_space_group_name_H-M   'P 1'
_cell_length_a   5.24078500
_cell_length_b   6.86954800
_cell_length_c   9.13477400
_cell_angle_alpha   90.00000000
_cell_angle_beta   90.00000000
_cell_angle_gamma   90.00000000
_symmetry_Int_Tables_number   1
_chemical_formula_structural   CaMgSiO4
_chemical_formula_sum   'Ca4 Mg4 Si4 O16'
_cell_volume   328.86852688
_cell_formula_units_Z   4
loop_
 _symmetry_equiv_pos_site_id
 _symmetry_equiv_pos_as_xyz
  1  'x, y, z'
loop_
 _atom_site_type_symbol
 _atom_site_label
 _atom_site_symmetry_multiplicity
 _atom_site_fract_x
 _atom_site_fract_y
 _atom_site_fract_z
 _atom_site_occupancy
  Ca  Ca0  1  0.03604900  0.75000000  0.35001300  1
  Ca  Ca1  1  0.96395100  0.25000000  0.64998700  1
  Ca  Ca2  1  0.53604900  0.25000000  0.14998700  1
  Ca  Ca3  1  0.46395100  0.75000000  0.85001300  1
  Mg  Mg0  1  0.50000000  0.00000000  0.50000000  1
  Mg  Mg1  1  0.00000000  0.00000000  0.00000000  1
  Mg  Mg2  1  0.00000000  0.50000000  0.00000000  1
  Mg  Mg3  1  0.50000000  0.50000000  0.50000000  1
  Si  Si0  1  0.04264800  0.25000000  0.31714100  1
  Si  Si1  1  0.45735200  0.25000000  0.81714100  1
  Si  Si2  1  0.54264800  0.75000000  0.18285900  1
  Si  Si3  1  0.95735200  0.75000000  0.68285900  1
  O  O0  1  0.74938600  0.25000000  0.38396100  1
  O  O1  1  0.19925600  0.44181300  0.37411300  1
  O  O2  1  0.24938600  0.75000000  0.11603900  1
  O  O3  1  0.19925600  0.05818700  0.37411300  1
  O  O4  1  0.69925600  0.55818700  0.12588700  1
  O  O5  1  0.75061400  0.25000000  0.88396100  1
  O  O6  1  0.80074400  0.55818700  0.62588700  1
  O  O7  1  0.25061400  0.75000000  0.61603900  1
  O  O8  1  0.93836200  0.75000000  0.86412500  1
  O  O9  1  0.80074400  0.94181300  0.62588700  1
  O  O10  1  0.30074400  0.05818700  0.87411300  1
  O  O11  1  0.06163800  0.25000000  0.13587500  1
  O  O12  1  0.43836200  0.25000000  0.63587500  1
  O  O13  1  0.30074400  0.44181300  0.87411300  1
  O  O14  1  0.69925600  0.94181300  0.12588700  1
  O  O15  1  0.56163800  0.75000000  0.36412500  1
loop_
_geom_bond_atom_site_label_1
_geom_bond_atom_site_label_2
_geom_bond_distance
_geom_bond_site_symmetry_2
Ca0 O3 2.293947 1_565
Ca0 O1 2.293947 1_555
Ca0 O2 2.412072 1_555
Ca0 O15 2.489626 1_455
Ca0 O7 2.677648 1_555
Ca0 O15 2.757514 1_555
Ca1 O9 2.293947 1_545
Ca1 O6 2.293947 1_555
Ca1 O5 2.412072 1_555
Ca1 O12 2.489626 1_655
Ca1 O0 2.677648 1_555
Ca1 O12 2.757514 1_555
Ca2 O14 2.293947 1_545
Ca2 O4 2.293947 1_555
Ca2 O0 2.412072 1_555
Ca2 O11 2.489626 1_555
Ca2 O5 2.677648 1_554
Ca2 O11 2.757514 1_655
Ca3 O10 2.293947 1_565
Ca3 O13 2.293947 1_555
Ca3 O7 2.412072 1_555
Ca3 O8 2.489626 1_555
Ca3 O2 2.677648 1_556
Ca3 O8 2.757514 1_455
Mg0 O3 1.991572 1_555
Mg0 O9 1.991572 1_545
Mg0 O12 2.143435 1_555
Mg0 O15 2.143435 1_545
Mg0 O7 2.404410 1_545
Mg0 O0 2.404410 1_555
Mg1 O14 1.991572 1_445
Mg1 O10 1.991572 1_554
Mg1 O11 2.143435 1_555
Mg1 O8 2.143435 1_444
Mg1 O2 2.404410 1_545
Mg1 O5 2.404410 1_454
Mg2 O4 1.991572 1_455
Mg2 O13 1.991572 1_554
Mg2 O11 2.143435 1_555
Mg2 O8 2.143435 1_454
Mg2 O2 2.404410 1_555
Mg2 O5 2.404410 1_454
Mg3 O6 1.991572 1_555
Mg3 O1 1.991572 1_555
Mg3 O12 2.143435 1_555
Mg3 O15 2.143435 1_555
Mg3 O0 2.404410 1_555
Mg3 O7 2.404410 1_555
O0 Si0 1.653694 1_655
O1 Si0 1.637291 1_555
O2 Si2 1.653694 1_555
O3 Si0 1.637291 1_555
O4 Si2 1.637291 1_555
O5 Si1 1.653694 1_555
O6 Si3 1.637291 1_555
O7 Si3 1.653694 1_455
O8 Si3 1.658812 1_555
O9 Si3 1.637291 1_555
O10 Si1 1.637291 1_555
O11 Si0 1.658812 1_555
O12 Si1 1.658812 1_555
O13 Si1 1.637291 1_555
O14 Si2 1.637291 1_555
O15 Si2 1.658812 1_555
