# generated using pymatgen
data_CsSnI3
_symmetry_space_group_name_H-M   'P 1'
_cell_length_a   6.36120441
_cell_length_b   8.66038717
_cell_length_c   8.66038717
_cell_angle_alpha   90.00000000
_cell_angle_beta   90.00000000
_cell_angle_gamma   90.00000000
_symmetry_Int_Tables_number   1
_chemical_formula_structural   CsSnI3
_chemical_formula_sum   'Cs2 Sn2 I6'
_cell_volume   477.10499927
_cell_formula_units_Z   2
loop_
 _symmetry_equiv_pos_site_id
 _symmetry_equiv_pos_as_xyz
  1  'x, y, z'
loop_
 _atom_site_type_symbol
 _atom_site_label
 _atom_site_symmetry_multiplicity
 _atom_site_fract_x
 _atom_site_fract_y
 _atom_site_fract_z
 _atom_site_occupancy
  Cs  Cs0  1  0.00000000  -0.00000000  0.50000000  1
  Cs  Cs1  1  0.00000000  0.50000000  0.00000000  1
  Sn  Sn0  1  0.50000000  0.50000000  0.50000000  1
  Sn  Sn1  1  0.50000000  -0.00000000  0.00000000  1
  I  I0  1  0.50000000  0.80658712  0.69341288  1
  I  I1  1  0.50000000  0.69341288  0.19341288  1
  I  I2  1  0.00000000  0.50000000  0.50000000  1
  I  I3  1  0.00000000  -0.00000000  0.00000000  1
  I  I4  1  0.50000000  0.19341288  0.30658712  1
  I  I5  1  0.50000000  0.30658712  0.80658712  1
loop_
_geom_bond_atom_site_label_1
_geom_bond_atom_site_label_2
_geom_bond_distance
_geom_bond_site_symmetry_2
Cs0 I4 3.965814 1_455
Cs0 I4 3.965814 1_555
Cs0 I0 3.965814 1_545
Cs0 I0 3.965814 1_445
Cs0 I3 4.330194 1_555
Cs0 I2 4.330194 1_555
Cs0 I2 4.330194 1_545
Cs0 I3 4.330194 1_556
Cs1 I5 3.965814 1_454
Cs1 I1 3.965814 1_455
Cs1 I1 3.965814 1_555
Cs1 I5 3.965814 1_554
Cs1 I2 4.330194 1_554
Cs1 I2 4.330194 1_555
Cs1 I3 4.330194 1_565
Cs1 I3 4.330194 1_555
I0 Sn0 3.139366 1_555
I0 Sn1 3.139366 1_566
I1 Sn0 3.139366 1_555
I1 Sn1 3.139366 1_565
I2 Sn0 3.180602 1_455
I2 Sn0 3.180602 1_555
I3 Sn1 3.180602 1_455
I3 Sn1 3.180602 1_555
I4 Sn1 3.139366 1_555
I4 Sn0 3.139366 1_555
I5 Sn1 3.139366 1_556
I5 Sn0 3.139366 1_555
