# generated using pymatgen
data_KB5O8
_symmetry_space_group_name_H-M   'P 1'
_cell_length_a   8.27606200
_cell_length_b   12.39026200
_cell_length_c   17.18323200
_cell_angle_alpha   90.00000000
_cell_angle_beta   90.00000000
_cell_angle_gamma   90.00000000
_symmetry_Int_Tables_number   1
_chemical_formula_structural   KB5O8
_chemical_formula_sum   'K8 B40 O64'
_cell_volume   1762.01288202
_cell_formula_units_Z   8
loop_
 _symmetry_equiv_pos_site_id
 _symmetry_equiv_pos_as_xyz
  1  'x, y, z'
loop_
 _atom_site_type_symbol
 _atom_site_label
 _atom_site_symmetry_multiplicity
 _atom_site_fract_x
 _atom_site_fract_y
 _atom_site_fract_z
 _atom_site_occupancy
  K  K0  1  0.55349500  0.09000500  0.80284200  1
  K  K1  1  0.44650500  0.90999500  0.19715800  1
  K  K2  1  0.05349500  0.09000500  0.69715800  1
  K  K3  1  0.94650500  0.90999500  0.30284200  1
  K  K4  1  0.94650500  0.59000500  0.80284200  1
  K  K5  1  0.44650500  0.59000500  0.69715800  1
  K  K6  1  0.05349500  0.40999500  0.19715800  1
  K  K7  1  0.55349500  0.40999500  0.30284200  1
  B  B0  1  0.54170600  0.07325800  0.55498100  1
  B  B1  1  0.42714000  0.77904500  0.98512800  1
  B  B2  1  0.77688600  0.44645000  0.48745300  1
  B  B3  1  0.70018200  0.86164500  0.98984500  1
  B  B4  1  0.29981800  0.36164500  0.51015500  1
  B  B5  1  0.69414500  0.23225300  0.20098600  1
  B  B6  1  0.92714000  0.77904500  0.51487200  1
  B  B7  1  0.69414500  0.26774700  0.70098600  1
  B  B8  1  0.22311400  0.94645000  0.01254700  1
  B  B9  1  0.72311400  0.55355000  0.98745300  1
  B  B10  1  0.70018200  0.63835500  0.48984500  1
  B  B11  1  0.45829400  0.92674100  0.44501900  1
  B  B12  1  0.29981800  0.13835500  0.01015500  1
  B  B13  1  0.54170600  0.42674100  0.05498100  1
  B  B14  1  0.07286000  0.22095500  0.48512800  1
  B  B15  1  0.42714000  0.72095500  0.48512800  1
  B  B16  1  0.79981800  0.13835500  0.48984500  1
  B  B17  1  0.95829400  0.92674100  0.05498100  1
  B  B18  1  0.79981800  0.36164500  0.98984500  1
  B  B19  1  0.27688600  0.05355000  0.51254700  1
  B  B20  1  0.19414500  0.26774700  0.79901400  1
  B  B21  1  0.04170600  0.42674100  0.44501900  1
  B  B22  1  0.27688600  0.44645000  0.01254700  1
  B  B23  1  0.95829400  0.57325900  0.55498100  1
  B  B24  1  0.72311400  0.94645000  0.48745300  1
  B  B25  1  0.20018200  0.63835500  0.01015500  1
  B  B26  1  0.20018200  0.86164500  0.51015500  1
  B  B27  1  0.04170600  0.07325800  0.94501900  1
  B  B28  1  0.19414500  0.23225300  0.29901400  1
  B  B29  1  0.77688600  0.05355000  0.98745300  1
  B  B30  1  0.30585500  0.76774700  0.79901400  1
  B  B31  1  0.30585500  0.73225300  0.29901400  1
  B  B32  1  0.80585500  0.76774700  0.70098600  1
  B  B33  1  0.92714000  0.72095500  0.01487200  1
  B  B34  1  0.07286000  0.27904500  0.98512800  1
  B  B35  1  0.57286000  0.27904500  0.51487200  1
  B  B36  1  0.57286000  0.22095500  0.01487200  1
  B  B37  1  0.22311400  0.55355000  0.51254700  1
  B  B38  1  0.80585500  0.73225300  0.20098600  1
  B  B39  1  0.45829400  0.57325900  0.94501900  1
  O  O0  1  0.83026700  0.86048800  0.50936900  1
  O  O1  1  0.59176700  0.78010500  0.99050000  1
  O  O2  1  0.87766000  0.47914300  0.55466000  1
  O  O3  1  0.73002800  0.68384600  0.67798000  1
  O  O4  1  0.23002800  0.68384600  0.82202000  1
  O  O5  1  0.39380400  0.65684200  0.27317500  1
  O  O6  1  0.88733200  0.08904700  0.92358000  1
  O  O7  1  0.90823300  0.21989500  0.49050000  1
  O  O8  1  0.90823300  0.28010500  0.99050000  1
  O  O9  1  0.12234000  0.52085700  0.44534000  1
  O  O10  1  0.26997200  0.18384600  0.82202000  1
  O  O11  1  0.36252700  0.66720000  0.97890900  1
  O  O12  1  0.67766600  0.53973200  0.46214300  1
  O  O13  1  0.83026700  0.63951200  0.00936900  1
  O  O14  1  0.09176700  0.78010500  0.50950000  1
  O  O15  1  0.17766600  0.53973200  0.03785700  1
  O  O16  1  0.86252700  0.66720000  0.52109100  1
  O  O17  1  0.16973300  0.13951200  0.49063100  1
  O  O18  1  0.60619600  0.34315800  0.72682500  1
  O  O19  1  0.60619600  0.15684200  0.22682500  1
  O  O20  1  0.11266800  0.58904700  0.57642000  1
  O  O21  1  0.67766600  0.96026800  0.96214300  1
  O  O22  1  0.37766000  0.47914300  0.94534000  1
  O  O23  1  0.32233400  0.03973200  0.03785700  1
  O  O24  1  0.62234000  0.97914300  0.55466000  1
  O  O25  1  0.89380400  0.65684200  0.22682500  1
  O  O26  1  0.36252700  0.83280000  0.47890900  1
  O  O27  1  0.87766000  0.02085700  0.05466000  1
  O  O28  1  0.13747300  0.16720000  0.97890900  1
  O  O29  1  0.66973300  0.13951200  0.00936900  1
  O  O30  1  0.39380400  0.84315800  0.77317500  1
  O  O31  1  0.61266800  0.91095300  0.42358000  1
  O  O32  1  0.16973300  0.36048800  0.99063100  1
  O  O33  1  0.89380400  0.84315800  0.72682500  1
  O  O34  1  0.10619600  0.34315800  0.77317500  1
  O  O35  1  0.32233400  0.46026800  0.53785700  1
  O  O36  1  0.10619600  0.15684200  0.27317500  1
  O  O37  1  0.76997200  0.18384600  0.67798000  1
  O  O38  1  0.26997200  0.31615400  0.32202000  1
  O  O39  1  0.17766600  0.96026800  0.53785700  1
  O  O40  1  0.86252700  0.83280000  0.02109100  1
  O  O41  1  0.37766000  0.02085700  0.44534000  1
  O  O42  1  0.40823300  0.21989500  0.00950000  1
  O  O43  1  0.38733200  0.08904700  0.57642000  1
  O  O44  1  0.12234000  0.97914300  0.94534000  1
  O  O45  1  0.63747300  0.33280000  0.02109100  1
  O  O46  1  0.09176700  0.71989500  0.00950000  1
  O  O47  1  0.76997200  0.31615400  0.17798000  1
  O  O48  1  0.82233400  0.03973200  0.46214300  1
  O  O49  1  0.33026700  0.63951200  0.49063100  1
  O  O50  1  0.61266800  0.58904700  0.92358000  1
  O  O51  1  0.40823300  0.28010500  0.50950000  1
  O  O52  1  0.66973300  0.36048800  0.50936900  1
  O  O53  1  0.73002800  0.81615400  0.17798000  1
  O  O54  1  0.23002800  0.81615400  0.32202000  1
  O  O55  1  0.13747300  0.33280000  0.47890900  1
  O  O56  1  0.62234000  0.52085700  0.05466000  1
  O  O57  1  0.33026700  0.86048800  0.99063100  1
  O  O58  1  0.38733200  0.41095300  0.07642000  1
  O  O59  1  0.82233400  0.46026800  0.96214300  1
  O  O60  1  0.11266800  0.91095300  0.07642000  1
  O  O61  1  0.88733200  0.41095300  0.42358000  1
  O  O62  1  0.59176700  0.71989500  0.49050000  1
  O  O63  1  0.63747300  0.16720000  0.52109100  1
loop_
_geom_bond_atom_site_label_1
_geom_bond_atom_site_label_2
_geom_bond_distance
_geom_bond_site_symmetry_2
K0 O10 2.639384 1_555
K1 O53 2.639384 1_555
K2 O37 2.639384 1_455
K3 O54 2.639384 1_655
K4 O4 2.639384 1_655
K5 O3 2.639384 1_555
K6 O47 2.639384 1_455
K7 O38 2.639384 1_555
B0 O24 1.343568 1_545
B0 O43 1.343974 1_555
B0 O63 1.523847 1_555
B1 O57 1.292281 1_555
B1 O1 1.365650 1_555
B1 O11 1.489221 1_555
B2 O52 1.436197 1_555
B2 O2 1.480980 1_555
B2 O12 1.482997 1_555
B2 O61 1.494505 1_555
B3 O21 1.324578 1_555
B3 O1 1.351256 1_555
B3 O40 1.490370 1_556
B4 O35 1.324578 1_555
B4 O51 1.351256 1_555
B4 O55 1.490370 1_555
B5 O19 1.264896 1_555
B5 O47 1.277016 1_555
B6 O0 1.292281 1_555
B6 O14 1.365650 1_655
B6 O16 1.489221 1_555
B7 O18 1.264896 1_555
B7 O37 1.277016 1_555
B8 O57 1.436197 1_554
B8 O44 1.480980 1_554
B8 O23 1.482997 1_565
B8 O60 1.494505 1_555
B9 O13 1.436197 1_556
B9 O56 1.480980 1_556
B9 O59 1.482997 1_555
B9 O50 1.494505 1_555
B10 O12 1.324578 1_555
B10 O62 1.351256 1_555
B10 O16 1.490370 1_555
B11 O41 1.343578 1_565
B11 O31 1.343973 1_555
B11 O26 1.523837 1_555
B12 O23 1.324578 1_555
B12 O42 1.351256 1_555
B12 O28 1.490370 1_554
B13 O56 1.343578 1_555
B13 O58 1.343973 1_555
B13 O45 1.523837 1_555
B14 O17 1.292281 1_555
B14 O7 1.365650 1_455
B14 O55 1.489221 1_555
B15 O49 1.292281 1_555
B15 O62 1.365650 1_555
B15 O26 1.489221 1_555
B16 O48 1.324578 1_555
B16 O7 1.351256 1_555
B16 O63 1.490370 1_555
B17 O27 1.343578 1_565
B17 O60 1.343973 1_655
B17 O40 1.523837 1_555
B18 O59 1.324578 1_555
B18 O8 1.351256 1_555
B18 O45 1.490370 1_556
B19 O17 1.436197 1_555
B19 O41 1.480980 1_555
B19 O39 1.482997 1_545
B19 O43 1.494505 1_555
B20 O34 1.264896 1_555
B20 O10 1.277016 1_555
B21 O9 1.343578 1_555
B21 O61 1.343973 1_455
B21 O55 1.523837 1_555
B22 O32 1.436197 1_554
B22 O22 1.480980 1_554
B22 O15 1.482997 1_555
B22 O58 1.494505 1_555
B23 O2 1.343578 1_555
B23 O20 1.343973 1_655
B23 O16 1.523837 1_555
B24 O0 1.436197 1_555
B24 O24 1.480980 1_555
B24 O48 1.482997 1_565
B24 O31 1.494505 1_555
B25 O15 1.324578 1_555
B25 O46 1.351256 1_555
B25 O11 1.490370 1_554
B26 O39 1.324578 1_555
B26 O14 1.351256 1_555
B26 O26 1.490370 1_555
B27 O44 1.343568 1_545
B27 O6 1.343974 1_455
B27 O28 1.523847 1_555
B28 O36 1.264896 1_555
B28 O38 1.277016 1_555
B29 O29 1.436197 1_556
B29 O27 1.480980 1_556
B29 O21 1.482997 1_545
B29 O6 1.494505 1_555
B30 O30 1.264896 1_555
B30 O4 1.277016 1_555
B31 O5 1.264896 1_555
B31 O54 1.277016 1_555
B32 O33 1.264896 1_555
B32 O3 1.277016 1_555
B33 O13 1.292281 1_555
B33 O46 1.365650 1_655
B33 O40 1.489221 1_555
B34 O32 1.292281 1_555
B34 O8 1.365650 1_455
B34 O28 1.489221 1_555
B35 O52 1.292281 1_555
B35 O51 1.365650 1_555
B35 O63 1.489221 1_555
B36 O29 1.292281 1_555
B36 O42 1.365650 1_555
B36 O45 1.489221 1_555
B37 O49 1.436197 1_555
B37 O9 1.480980 1_555
B37 O35 1.482997 1_555
B37 O20 1.494505 1_555
B38 O25 1.264896 1_555
B38 O53 1.277016 1_555
B39 O22 1.343578 1_555
B39 O50 1.343973 1_555
B39 O11 1.523837 1_555
