# generated using pymatgen
data_CdI2
_symmetry_space_group_name_H-M   'P 1'
_cell_length_a   4.33911267
_cell_length_b   4.33911267
_cell_length_c   154.43503200
_cell_angle_alpha   90.00000000
_cell_angle_beta   90.00000000
_cell_angle_gamma   120.00001027
_symmetry_Int_Tables_number   1
_chemical_formula_structural   CdI2
_chemical_formula_sum   'Cd21 I42'
_cell_volume   2518.13068017
_cell_formula_units_Z   21
loop_
 _symmetry_equiv_pos_site_id
 _symmetry_equiv_pos_as_xyz
  1  'x, y, z'
loop_
 _atom_site_type_symbol
 _atom_site_label
 _atom_site_symmetry_multiplicity
 _atom_site_fract_x
 _atom_site_fract_y
 _atom_site_fract_z
 _atom_site_occupancy
  Cd  Cd0  1  0.33333300  0.66666700  0.53571500  1
  Cd  Cd1  1  0.66666700  0.33333300  0.58333200  1
  Cd  Cd2  1  0.66666700  0.33333300  0.01190000  1
  Cd  Cd3  1  0.33333300  0.66666700  0.10714200  1
  Cd  Cd4  1  0.66666700  0.33333300  0.86904600  1
  Cd  Cd5  1  0.66666700  0.33333300  0.72619000  1
  Cd  Cd6  1  0.33333300  0.66666700  0.48809600  1
  Cd  Cd7  1  0.66666700  0.33333300  0.82142900  1
  Cd  Cd8  1  0.33333300  0.66666700  0.34523900  1
  Cd  Cd9  1  0.66666700  0.33333300  0.15476900  1
  Cd  Cd10  1  0.33333300  0.66666700  0.77380600  1
  Cd  Cd11  1  0.33333300  0.66666700  0.63096300  1
  Cd  Cd12  1  0.33333300  0.66666700  0.20238400  1
  Cd  Cd13  1  0.33333300  0.66666700  0.67856800  1
  Cd  Cd14  1  0.33333300  0.66666700  0.91666500  1
  Cd  Cd15  1  0.66666700  0.33333300  0.29761800  1
  Cd  Cd16  1  0.33333300  0.66666700  0.05952300  1
  Cd  Cd17  1  0.33333300  0.66666700  0.39285500  1
  Cd  Cd18  1  0.66666700  0.33333300  0.44047700  1
  Cd  Cd19  1  0.33333300  0.66666700  0.24999600  1
  Cd  Cd20  1  0.33333300  0.66666700  0.96428800  1
  I  I0  1  0.66666700  0.33333300  0.07071700  1
  I  I1  1  0.00000000  0.00000000  0.09595200  1
  I  I2  1  0.00000000  0.00000000  0.23880300  1
  I  I3  1  0.00000000  0.00000000  0.19118600  1
  I  I4  1  0.66666700  0.33333300  0.68975600  1
  I  I5  1  0.00000000  0.00000000  0.52451700  1
  I  I6  1  0.33333300  0.66666700  0.45166300  1
  I  I7  1  0.00000000  0.00000000  0.81023700  1
  I  I8  1  0.33333300  0.66666700  0.59451300  1
  I  I9  1  0.66666700  0.33333300  0.78499100  1
  I  I10  1  0.00000000  0.00000000  0.71501400  1
  I  I11  1  0.00000000  0.00000000  0.76261500  1
  I  I12  1  0.00000000  0.00000000  0.28642400  1
  I  I13  1  0.66666700  0.33333300  0.64214200  1
  I  I14  1  0.33333300  0.66666700  0.83262100  1
  I  I15  1  0.00000000  0.00000000  0.66739600  1
  I  I16  1  0.33333300  0.66666700  0.30879900  1
  I  I17  1  0.00000000  0.00000000  0.47690500  1
  I  I18  1  0.00000000  0.00000000  0.04834700  1
  I  I19  1  0.00000000  0.00000000  0.14357700  1
  I  I20  1  0.66666700  0.33333300  0.11832600  1
  I  I21  1  0.00000000  0.00000000  0.85784800  1
  I  I22  1  0.00000000  0.00000000  0.61977200  1
  I  I23  1  0.66666700  0.33333300  0.97546800  1
  I  I24  1  0.00000000  0.00000000  0.00072500  1
  I  I25  1  0.00000000  0.00000000  0.90547100  1
  I  I26  1  0.33333300  0.66666700  0.16597000  1
  I  I27  1  0.66666700  0.33333300  0.92784600  1
  I  I28  1  0.00000000  0.00000000  0.38168000  1
  I  I29  1  0.66666700  0.33333300  0.21357200  1
  I  I30  1  0.33333300  0.66666700  0.02308800  1
  I  I31  1  0.00000000  0.00000000  0.33406400  1
  I  I32  1  0.33333300  0.66666700  0.73738400  1
  I  I33  1  0.66666700  0.33333300  0.26117900  1
  I  I34  1  0.66666700  0.33333300  0.35643000  1
  I  I35  1  0.66666700  0.33333300  0.40405000  1
  I  I36  1  0.66666700  0.33333300  0.49928800  1
  I  I37  1  0.00000000  0.00000000  0.57213600  1
  I  I38  1  0.33333300  0.66666700  0.88023300  1
  I  I39  1  0.00000000  0.00000000  0.42929000  1
  I  I40  1  0.00000000  0.00000000  0.95309900  1
  I  I41  1  0.66666700  0.33333300  0.54690200  1
loop_
_geom_bond_atom_site_label_1
_geom_bond_atom_site_label_2
_geom_bond_distance
_geom_bond_site_symmetry_2
Cd0 I41 3.043153 1_455
Cd0 I41 3.043153 1_565
Cd0 I41 3.043159 1_555
Cd0 I5 3.044118 1_565
Cd0 I5 3.044120 1_665
Cd0 I5 3.044120 1_555
Cd1 I8 3.042627 1_545
Cd1 I8 3.042627 1_655
Cd1 I8 3.042633 1_555
Cd1 I37 3.043942 1_655
Cd1 I37 3.043945 1_555
Cd1 I37 3.043945 1_665
Cd2 I24 3.042101 1_655
Cd2 I24 3.042104 1_665
Cd2 I24 3.042104 1_555
Cd2 I30 3.043240 1_545
Cd2 I30 3.043240 1_655
Cd2 I30 3.043247 1_555
Cd3 I20 3.042890 1_455
Cd3 I20 3.042890 1_565
Cd3 I20 3.042896 1_555
Cd3 I1 3.043416 1_565
Cd3 I1 3.043419 1_665
Cd3 I1 3.043419 1_555
Cd4 I38 3.043153 1_655
Cd4 I38 3.043153 1_545
Cd4 I38 3.043159 1_555
Cd4 I21 3.044118 1_655
Cd4 I21 3.044120 1_555
Cd4 I21 3.044120 1_665
Cd5 I10 3.042189 1_655
Cd5 I10 3.042192 1_555
Cd5 I10 3.042192 1_665
Cd5 I32 3.043766 1_545
Cd5 I32 3.043766 1_655
Cd5 I32 3.043773 1_555
Cd6 I17 3.043504 1_565
Cd6 I17 3.043506 1_665
Cd6 I17 3.043506 1_555
Cd6 I36 3.043591 1_565
Cd6 I36 3.043591 1_455
Cd6 I36 3.043598 1_555
Cd7 I14 3.043591 1_545
Cd7 I14 3.043591 1_655
Cd7 I7 3.043591 1_655
Cd7 I7 3.043594 1_555
Cd7 I7 3.043594 1_665
Cd7 I14 3.043598 1_555
Cd8 I31 3.042101 1_565
Cd8 I31 3.042104 1_555
Cd8 I31 3.042104 1_665
Cd8 I34 3.043503 1_455
Cd8 I34 3.043503 1_565
Cd8 I34 3.043510 1_555
Cd9 I19 3.043591 1_655
Cd9 I19 3.043594 1_665
Cd9 I19 3.043594 1_555
Cd9 I26 3.044381 1_545
Cd9 I26 3.044381 1_655
Cd9 I26 3.044387 1_555
Cd10 I9 3.042977 1_565
Cd10 I9 3.042977 1_455
Cd10 I9 3.042984 1_555
Cd10 I11 3.043504 1_565
Cd10 I11 3.043506 1_665
Cd10 I11 3.043506 1_555
Cd11 I13 3.042451 1_455
Cd11 I13 3.042451 1_565
Cd11 I13 3.042458 1_555
Cd11 I22 3.043504 1_565
Cd11 I22 3.043506 1_555
Cd11 I22 3.043506 1_665
Cd12 I29 3.043240 1_455
Cd12 I29 3.043240 1_565
Cd12 I29 3.043247 1_555
Cd12 I3 3.044118 1_565
Cd12 I3 3.044120 1_555
Cd12 I3 3.044120 1_665
Cd13 I15 3.041838 1_565
Cd13 I15 3.041841 1_665
Cd13 I15 3.041841 1_555
Cd13 I4 3.043240 1_455
Cd13 I4 3.043240 1_565
Cd13 I4 3.043247 1_555
Cd14 I27 3.042627 1_455
Cd14 I27 3.042627 1_565
Cd14 I27 3.042633 1_555
Cd14 I25 3.043767 1_565
Cd14 I25 3.043770 1_555
Cd14 I25 3.043770 1_665
Cd15 I16 3.042627 1_545
Cd15 I16 3.042627 1_655
Cd15 I16 3.042633 1_555
Cd15 I12 3.043767 1_655
Cd15 I12 3.043770 1_555
Cd15 I12 3.043770 1_665
Cd16 I18 3.042189 1_565
Cd16 I18 3.042192 1_555
Cd16 I18 3.042192 1_665
Cd16 I0 3.043766 1_455
Cd16 I0 3.043766 1_565
Cd16 I0 3.043773 1_555
Cd17 I28 3.042101 1_565
Cd17 I28 3.042104 1_665
Cd17 I28 3.042104 1_555
Cd17 I35 3.043854 1_455
Cd17 I35 3.043854 1_565
Cd17 I35 3.043861 1_555
Cd18 I6 3.043065 1_545
Cd18 I6 3.043065 1_655
Cd18 I6 3.043071 1_555
Cd18 I39 3.043153 1_655
Cd18 I39 3.043156 1_555
Cd18 I39 3.043156 1_665
Cd19 I33 3.042802 1_455
Cd19 I33 3.042802 1_565
Cd19 I33 3.042808 1_555
Cd19 I2 3.043679 1_565
Cd19 I2 3.043682 1_555
Cd19 I2 3.043682 1_665
Cd20 I23 3.042539 1_455
Cd20 I23 3.042539 1_565
Cd20 I23 3.042546 1_555
Cd20 I40 3.043328 1_565
Cd20 I40 3.043331 1_555
Cd20 I40 3.043331 1_665
