# generated using pymatgen
data_Pr6Si4Ni7
_symmetry_space_group_name_H-M   'P 1'
_cell_length_a   5.95179000
_cell_length_b   7.43818800
_cell_length_c   29.78581100
_cell_angle_alpha   90.00000000
_cell_angle_beta   90.00000000
_cell_angle_gamma   90.00000000
_symmetry_Int_Tables_number   1
_chemical_formula_structural   Pr6Si4Ni7
_chemical_formula_sum   'Pr24 Si16 Ni28'
_cell_volume   1318.63372751
_cell_formula_units_Z   4
loop_
 _symmetry_equiv_pos_site_id
 _symmetry_equiv_pos_as_xyz
  1  'x, y, z'
loop_
 _atom_site_type_symbol
 _atom_site_label
 _atom_site_symmetry_multiplicity
 _atom_site_fract_x
 _atom_site_fract_y
 _atom_site_fract_z
 _atom_site_occupancy
  Pr  Pr0  1  0.87308100  0.52103600  0.25000000  1
  Pr  Pr1  1  0.88630100  0.61703600  0.92072400  1
  Pr  Pr2  1  0.62358400  0.25000000  0.50000000  1
  Pr  Pr3  1  0.60608400  0.61224100  0.81805900  1
  Pr  Pr4  1  0.39391600  0.38775900  0.31805900  1
  Pr  Pr5  1  0.39391600  0.11224100  0.81805900  1
  Pr  Pr6  1  0.12691900  0.47896400  0.75000000  1
  Pr  Pr7  1  0.37641600  0.75000000  0.00000000  1
  Pr  Pr8  1  0.11369900  0.38296400  0.42072400  1
  Pr  Pr9  1  0.60608400  0.88775900  0.18194100  1
  Pr  Pr10  1  0.11369900  0.11703600  0.92072400  1
  Pr  Pr11  1  0.88630100  0.88296400  0.42072400  1
  Pr  Pr12  1  0.37641600  0.75000000  0.50000000  1
  Pr  Pr13  1  0.12691900  0.02103600  0.25000000  1
  Pr  Pr14  1  0.11369900  0.38296400  0.07927600  1
  Pr  Pr15  1  0.60608400  0.61224100  0.68194100  1
  Pr  Pr16  1  0.87308100  0.97896400  0.75000000  1
  Pr  Pr17  1  0.11369900  0.11703600  0.57927600  1
  Pr  Pr18  1  0.60608400  0.88775900  0.31805900  1
  Pr  Pr19  1  0.39391600  0.11224100  0.68194100  1
  Pr  Pr20  1  0.88630100  0.61703600  0.57927600  1
  Pr  Pr21  1  0.88630100  0.88296400  0.07927600  1
  Pr  Pr22  1  0.62358400  0.25000000  0.00000000  1
  Pr  Pr23  1  0.39391600  0.38775900  0.18194100  1
  Si  Si0  1  0.11196900  0.76923400  0.67233800  1
  Si  Si1  1  0.39102000  0.46547700  0.58306000  1
  Si  Si2  1  0.60898000  0.53452300  0.41694000  1
  Si  Si3  1  0.60898000  0.53452300  0.08306000  1
  Si  Si4  1  0.39102000  0.03452300  0.08306000  1
  Si  Si5  1  0.88803100  0.26923400  0.82766200  1
  Si  Si6  1  0.88803100  0.23076600  0.32766200  1
  Si  Si7  1  0.39102000  0.46547700  0.91694000  1
  Si  Si8  1  0.88803100  0.26923400  0.67233800  1
  Si  Si9  1  0.11196900  0.73076600  0.32766200  1
  Si  Si10  1  0.60898000  0.96547700  0.91694000  1
  Si  Si11  1  0.11196900  0.73076600  0.17233800  1
  Si  Si12  1  0.60898000  0.96547700  0.58306000  1
  Si  Si13  1  0.39102000  0.03452300  0.41694000  1
  Si  Si14  1  0.11196900  0.76923400  0.82766200  1
  Si  Si15  1  0.88803100  0.23076600  0.17233800  1
  Ni  Ni0  1  0.64580900  0.25747400  0.89029600  1
  Ni  Ni1  1  0.15018900  0.09448600  0.01826900  1
  Ni  Ni2  1  0.84106000  0.97160000  0.85197400  1
  Ni  Ni3  1  0.31209000  0.82472100  0.75000000  1
  Ni  Ni4  1  0.35419100  0.75747400  0.89029600  1
  Ni  Ni5  1  0.15018900  0.40551400  0.51826900  1
  Ni  Ni6  1  0.84106000  0.52840000  0.14802600  1
  Ni  Ni7  1  0.84981100  0.90551400  0.51826900  1
  Ni  Ni8  1  0.15018900  0.09448600  0.48173100  1
  Ni  Ni9  1  0.35419100  0.75747400  0.60970400  1
  Ni  Ni10  1  0.84106000  0.52840000  0.35197400  1
  Ni  Ni11  1  0.15894000  0.02840000  0.35197400  1
  Ni  Ni12  1  0.15894000  0.47160000  0.85197400  1
  Ni  Ni13  1  0.84981100  0.59448600  0.48173100  1
  Ni  Ni14  1  0.15894000  0.47160000  0.64802600  1
  Ni  Ni15  1  0.68791000  0.17527900  0.25000000  1
  Ni  Ni16  1  0.64580900  0.24252600  0.39029600  1
  Ni  Ni17  1  0.64580900  0.24252600  0.10970400  1
  Ni  Ni18  1  0.84981100  0.90551400  0.98173100  1
  Ni  Ni19  1  0.15018900  0.40551400  0.98173100  1
  Ni  Ni20  1  0.68791000  0.32472100  0.75000000  1
  Ni  Ni21  1  0.15894000  0.02840000  0.14802600  1
  Ni  Ni22  1  0.84106000  0.97160000  0.64802600  1
  Ni  Ni23  1  0.84981100  0.59448600  0.01826900  1
  Ni  Ni24  1  0.31209000  0.67527900  0.25000000  1
  Ni  Ni25  1  0.35419100  0.74252600  0.10970400  1
  Ni  Ni26  1  0.64580900  0.25747400  0.60970400  1
  Ni  Ni27  1  0.35419100  0.74252600  0.39029600  1
loop_
_geom_bond_atom_site_label_1
_geom_bond_atom_site_label_2
_geom_bond_distance
_geom_bond_site_symmetry_2
Pr0 Si9 3.131484 1_655
Pr0 Si11 3.131484 1_655
Pr0 Si6 3.165528 1_555
Pr0 Si15 3.165528 1_555
Pr1 Si10 3.074786 1_555
Pr1 Si7 3.158028 1_555
Pr1 Si7 3.210525 1_655
Pr1 Si14 3.281642 1_655
Pr2 Si1 3.256607 1_555
Pr2 Si13 3.256607 1_555
Pr2 Si12 3.256863 1_545
Pr2 Si2 3.256863 1_555
Pr3 Si5 3.067114 1_555
Pr3 Si14 3.177129 1_555
Pr3 Si14 3.242081 1_655
Pr3 Si7 3.391852 1_555
Pr4 Si9 3.067114 1_555
Pr4 Si6 3.177129 1_555
Pr4 Si6 3.242081 1_455
Pr4 Si2 3.391852 1_555
Pr5 Si14 3.067114 1_545
Pr5 Si5 3.177129 1_555
Pr5 Si5 3.242081 1_455
Pr5 Si10 3.391852 1_545
Pr6 Si8 3.131484 1_455
Pr6 Si5 3.131484 1_455
Pr6 Si0 3.165528 1_555
Pr6 Si14 3.165528 1_555
Pr7 Si3 3.256607 1_555
Pr7 Si10 3.256607 1_554
Pr7 Si4 3.256863 1_565
Pr7 Si7 3.256863 1_554
Pr8 Si13 3.074786 1_555
Pr8 Si2 3.158028 1_555
Pr8 Si2 3.210525 1_455
Pr8 Si6 3.281642 1_455
Pr9 Si15 3.067114 1_565
Pr9 Si11 3.177129 1_555
Pr9 Si11 3.242081 1_655
Pr9 Si4 3.391852 1_565
Pr10 Si7 3.074786 1_555
Pr10 Si10 3.158028 1_545
Pr10 Si10 3.210525 1_445
Pr10 Si5 3.281642 1_455
Pr11 Si2 3.074786 1_555
Pr11 Si13 3.158028 1_565
Pr11 Si13 3.210525 1_665
Pr11 Si9 3.281642 1_655
Pr12 Si2 3.256607 1_555
Pr12 Si12 3.256607 1_555
Pr12 Si1 3.256863 1_555
Pr12 Si13 3.256863 1_565
Pr13 Si15 3.131484 1_455
Pr13 Si6 3.131484 1_455
Pr13 Si9 3.165528 1_545
Pr13 Si11 3.165528 1_545
Pr14 Si4 3.074786 1_555
Pr14 Si3 3.158028 1_555
Pr14 Si3 3.210525 1_455
Pr14 Si15 3.281642 1_455
Pr15 Si8 3.067114 1_555
Pr15 Si0 3.177129 1_555
Pr15 Si0 3.242081 1_655
Pr15 Si1 3.391852 1_555
Pr16 Si14 3.131484 1_655
Pr16 Si0 3.131484 1_655
Pr16 Si5 3.165528 1_565
Pr16 Si8 3.165528 1_565
Pr17 Si1 3.074786 1_555
Pr17 Si12 3.158028 1_545
Pr17 Si12 3.210525 1_445
Pr17 Si8 3.281642 1_455
Pr18 Si6 3.067114 1_565
Pr18 Si9 3.177129 1_555
Pr18 Si9 3.242081 1_655
Pr18 Si13 3.391852 1_565
Pr19 Si0 3.067114 1_545
Pr19 Si8 3.177129 1_555
Pr19 Si8 3.242081 1_455
Pr19 Si12 3.391852 1_545
Pr20 Si12 3.074786 1_555
Pr20 Si1 3.158028 1_555
Pr20 Si1 3.210525 1_655
Pr20 Si0 3.281642 1_655
Pr21 Si3 3.074786 1_555
Pr21 Si4 3.158028 1_565
Pr21 Si4 3.210525 1_665
Pr21 Si11 3.281642 1_655
Pr22 Si4 3.256607 1_555
Pr22 Si7 3.256607 1_554
Pr22 Si3 3.256863 1_555
Pr22 Si10 3.256863 1_544
Pr23 Si11 3.067114 1_555
Pr23 Si15 3.177129 1_555
Pr23 Si15 3.242081 1_455
Pr23 Si3 3.391852 1_555
Ni0 Si7 2.307199 1_555
Ni0 Si10 2.322745 1_545
Ni0 Si5 2.359343 1_555
Ni0 Ni2 2.678597 1_545
Ni0 Pr5 2.836225 1_555
Ni0 Pr10 3.109282 1_655
Ni0 Pr1 3.165928 1_555
Ni0 Pr22 3.270771 1_556
Ni0 Pr3 3.413039 1_555
Ni0 Pr10 3.455800 1_555
Ni1 Si4 2.444959 1_555
Ni1 Ni18 2.521180 1_444
Ni1 Ni19 2.556685 1_554
Ni1 Pr14 2.820183 1_555
Ni1 Pr21 2.871274 1_445
Ni1 Pr10 2.918387 1_554
Ni1 Pr7 2.945284 1_545
Ni1 Pr22 3.093984 1_555
Ni1 Pr22 3.384913 1_455
Ni2 Si14 2.321626 1_655
Ni2 Si5 2.346000 1_565
Ni2 Si10 2.377923 1_555
Ni2 Pr10 2.827853 1_665
Ni2 Pr5 3.032719 1_565
Ni2 Pr16 3.043844 1_555
Ni2 Pr3 3.181380 1_555
Ni3 Si0 2.634392 1_555
Ni3 Si14 2.634392 1_555
Ni3 Pr6 2.798000 1_555
Ni3 Pr16 2.853675 1_455
Ni3 Pr5 2.986707 1_565
Ni3 Pr19 2.986707 1_565
Ni3 Pr3 3.109526 1_555
Ni3 Pr15 3.109526 1_555
Ni3 Pr16 3.530514 1_555
Ni4 Si10 2.307199 1_555
Ni4 Si7 2.322745 1_555
Ni4 Si14 2.359343 1_555
Ni4 Pr3 2.836225 1_555
Ni4 Pr1 3.109282 1_455
Ni4 Pr10 3.165928 1_565
Ni4 Pr7 3.270771 1_556
Ni4 Pr5 3.413039 1_565
Ni4 Pr1 3.455800 1_555
Ni5 Si1 2.444959 1_555
Ni5 Ni8 2.556685 1_555
Ni5 Pr17 2.820183 1_555
Ni5 Pr20 2.871274 1_455
Ni5 Pr8 2.918387 1_555
Ni5 Pr12 2.945284 1_555
Ni5 Pr2 3.093984 1_555
Ni5 Pr2 3.384913 1_455
Ni6 Si11 2.321626 1_655
Ni6 Si15 2.346000 1_555
Ni6 Si3 2.377923 1_555
Ni6 Pr14 2.827853 1_655
Ni6 Pr23 3.032719 1_555
Ni6 Pr0 3.043844 1_555
Ni6 Pr9 3.181380 1_555
Ni7 Si12 2.444959 1_555
Ni7 Ni8 2.521180 1_665
Ni7 Pr20 2.820183 1_555
Ni7 Pr17 2.871274 1_665
Ni7 Pr11 2.918387 1_555
Ni7 Pr2 2.945284 1_565
Ni7 Pr12 3.093984 1_555
Ni7 Pr12 3.384913 1_655
Ni8 Si13 2.444959 1_555
Ni8 Pr8 2.820183 1_555
Ni8 Pr11 2.871274 1_445
Ni8 Pr17 2.918387 1_555
Ni8 Pr12 2.945284 1_545
Ni8 Pr2 3.093984 1_555
Ni8 Pr2 3.384913 1_455
Ni9 Si12 2.307199 1_555
Ni9 Si1 2.322745 1_555
Ni9 Si0 2.359343 1_555
Ni9 Pr15 2.836225 1_555
Ni9 Pr20 3.109282 1_455
Ni9 Pr17 3.165928 1_565
Ni9 Pr12 3.270771 1_555
Ni9 Pr19 3.413039 1_565
Ni9 Pr20 3.455800 1_555
Ni10 Si9 2.321626 1_655
Ni10 Si6 2.346000 1_555
Ni10 Si2 2.377923 1_555
Ni10 Ni16 2.678597 1_555
Ni10 Pr8 2.827853 1_655
Ni10 Pr4 3.032719 1_555
Ni10 Pr0 3.043844 1_555
Ni10 Pr18 3.181380 1_555
Ni11 Si6 2.321626 1_455
Ni11 Si9 2.346000 1_545
Ni11 Si13 2.377923 1_555
Ni11 Ni27 2.678597 1_545
Ni11 Pr11 2.827853 1_445
Ni11 Pr18 3.032719 1_545
Ni11 Pr13 3.043844 1_555
Ni11 Pr4 3.181380 1_555
Ni12 Si5 2.321626 1_455
Ni12 Si14 2.346000 1_555
Ni12 Si7 2.377923 1_555
Ni12 Ni4 2.678597 1_555
Ni12 Pr1 2.827853 1_455
Ni12 Pr3 3.032719 1_555
Ni12 Pr6 3.043844 1_555
Ni12 Pr5 3.181380 1_555
Ni13 Si2 2.444959 1_555
Ni13 Ni5 2.521180 1_655
Ni13 Ni7 2.556685 1_555
Ni13 Pr11 2.820183 1_555
Ni13 Pr8 2.871274 1_655
Ni13 Pr20 2.918387 1_555
Ni13 Pr2 2.945284 1_555
Ni13 Pr12 3.093984 1_555
Ni13 Pr12 3.384913 1_655
Ni14 Si8 2.321626 1_455
Ni14 Si0 2.346000 1_555
Ni14 Si1 2.377923 1_555
Ni14 Ni9 2.678597 1_555
Ni14 Pr20 2.827853 1_455
Ni14 Pr15 3.032719 1_555
Ni14 Pr6 3.043844 1_555
Ni14 Pr19 3.181380 1_555
Ni15 Si6 2.634392 1_555
Ni15 Si15 2.634392 1_555
Ni15 Pr0 2.798000 1_555
Ni15 Pr13 2.853675 1_655
Ni15 Pr18 2.986707 1_545
Ni15 Pr9 2.986707 1_545
Ni15 Pr4 3.109526 1_555
Ni15 Pr23 3.109526 1_555
Ni15 Pr13 3.530514 1_555
Ni16 Si13 2.307199 1_555
Ni16 Si2 2.322745 1_555
Ni16 Si6 2.359343 1_555
Ni16 Pr4 2.836225 1_555
Ni16 Pr8 3.109282 1_655
Ni16 Pr11 3.165928 1_545
Ni16 Pr2 3.270771 1_555
Ni16 Pr18 3.413039 1_545
Ni16 Pr8 3.455800 1_555
Ni17 Si4 2.307199 1_555
Ni17 Si3 2.322745 1_555
Ni17 Si15 2.359343 1_555
Ni17 Ni6 2.678597 1_555
Ni17 Pr23 2.836225 1_555
Ni17 Pr14 3.109282 1_655
Ni17 Pr21 3.165928 1_545
Ni17 Pr22 3.270771 1_555
Ni17 Pr9 3.413039 1_545
Ni17 Pr14 3.455800 1_555
Ni18 Si10 2.444959 1_555
Ni18 Ni23 2.556685 1_556
Ni18 Pr1 2.820183 1_555
Ni18 Pr10 2.871274 1_665
Ni18 Pr21 2.918387 1_556
Ni18 Pr22 2.945284 1_566
Ni18 Pr7 3.093984 1_556
Ni18 Pr7 3.384913 1_656
Ni19 Si7 2.444959 1_555
Ni19 Ni23 2.521180 1_456
Ni19 Pr10 2.820183 1_555
Ni19 Pr1 2.871274 1_455
Ni19 Pr14 2.918387 1_556
Ni19 Pr7 2.945284 1_556
Ni19 Pr22 3.093984 1_556
Ni19 Pr22 3.384913 1_456
Ni20 Si8 2.634392 1_555
Ni20 Si5 2.634392 1_555
Ni20 Pr16 2.798000 1_545
Ni20 Pr6 2.853675 1_655
Ni20 Pr3 2.986707 1_555
Ni20 Pr15 2.986707 1_555
Ni20 Pr5 3.109526 1_555
Ni20 Pr19 3.109526 1_555
Ni20 Pr6 3.530514 1_555
Ni21 Si15 2.321626 1_455
Ni21 Si11 2.346000 1_545
Ni21 Si4 2.377923 1_555
Ni21 Ni25 2.678597 1_545
Ni21 Pr21 2.827853 1_445
Ni21 Pr9 3.032719 1_545
Ni21 Pr13 3.043844 1_555
Ni21 Pr23 3.181380 1_555
Ni22 Si0 2.321626 1_655
Ni22 Si8 2.346000 1_565
Ni22 Si12 2.377923 1_555
Ni22 Ni26 2.678597 1_565
Ni22 Pr17 2.827853 1_665
Ni22 Pr19 3.032719 1_565
Ni22 Pr16 3.043844 1_555
Ni22 Pr15 3.181380 1_555
Ni23 Si3 2.444959 1_555
Ni23 Pr21 2.820183 1_555
Ni23 Pr14 2.871274 1_655
Ni23 Pr1 2.918387 1_554
Ni23 Pr22 2.945284 1_555
Ni23 Pr7 3.093984 1_555
Ni23 Pr7 3.384913 1_655
Ni24 Si11 2.634392 1_555
Ni24 Si9 2.634392 1_555
Ni24 Pr13 2.798000 1_565
Ni24 Pr0 2.853675 1_455
Ni24 Pr4 2.986707 1_555
Ni24 Pr23 2.986707 1_555
Ni24 Pr18 3.109526 1_555
Ni24 Pr9 3.109526 1_555
Ni24 Pr0 3.530514 1_555
Ni25 Si3 2.307199 1_555
Ni25 Si4 2.322745 1_565
Ni25 Si11 2.359343 1_555
Ni25 Pr9 2.836225 1_555
Ni25 Pr21 3.109282 1_455
Ni25 Pr14 3.165928 1_555
Ni25 Pr7 3.270771 1_555
Ni25 Pr23 3.413039 1_555
Ni25 Pr21 3.455800 1_555
Ni26 Si1 2.307199 1_555
Ni26 Si12 2.322745 1_545
Ni26 Si8 2.359343 1_555
Ni26 Pr19 2.836225 1_555
Ni26 Pr17 3.109282 1_655
Ni26 Pr20 3.165928 1_555
Ni26 Pr2 3.270771 1_555
Ni26 Pr15 3.413039 1_555
Ni26 Pr17 3.455800 1_555
Ni27 Si2 2.307199 1_555
Ni27 Si13 2.322745 1_565
Ni27 Si9 2.359343 1_555
Ni27 Pr18 2.836225 1_555
Ni27 Pr11 3.109282 1_455
Ni27 Pr8 3.165928 1_555
Ni27 Pr12 3.270771 1_555
Ni27 Pr4 3.413039 1_555
Ni27 Pr11 3.455800 1_555
