# generated using pymatgen
data_RbTiPO5
_symmetry_space_group_name_H-M   'P 1'
_cell_length_a   8.61768400
_cell_length_b   9.95077700
_cell_length_c   10.31114200
_cell_angle_alpha   90.00000000
_cell_angle_beta   90.00000000
_cell_angle_gamma   90.00000000
_symmetry_Int_Tables_number   1
_chemical_formula_structural   RbTiPO5
_chemical_formula_sum   'Rb8 Ti8 P8 O40'
_cell_volume   884.20776897
_cell_formula_units_Z   8
loop_
 _symmetry_equiv_pos_site_id
 _symmetry_equiv_pos_as_xyz
  1  'x, y, z'
loop_
 _atom_site_type_symbol
 _atom_site_label
 _atom_site_symmetry_multiplicity
 _atom_site_fract_x
 _atom_site_fract_y
 _atom_site_fract_z
 _atom_site_occupancy
  Rb  Rb0  1  0.45057300  0.60247600  0.65230100  1
  Rb  Rb1  1  0.95057300  0.10247600  0.84769900  1
  Rb  Rb2  1  0.32169400  0.89292600  0.56024900  1
  Rb  Rb3  1  0.17830600  0.89292600  0.06024900  1
  Rb  Rb4  1  0.54942700  0.10247600  0.34769900  1
  Rb  Rb5  1  0.82169400  0.39292600  0.93975100  1
  Rb  Rb6  1  0.67830600  0.39292600  0.43975100  1
  Rb  Rb7  1  0.04942700  0.60247600  0.15230100  1
  Ti  Ti0  1  0.71635800  0.74611600  0.34949300  1
  Ti  Ti1  1  0.68578400  0.88559200  0.10641200  1
  Ti  Ti2  1  0.21635800  0.24611600  0.15050700  1
  Ti  Ti3  1  0.28364200  0.24611600  0.65050700  1
  Ti  Ti4  1  0.81421600  0.88559200  0.60641200  1
  Ti  Ti5  1  0.18578400  0.38559200  0.39358800  1
  Ti  Ti6  1  0.78364200  0.74611600  0.84949300  1
  Ti  Ti7  1  0.31421600  0.38559200  0.89358800  1
  P  P0  1  0.49068600  0.05827700  0.98057200  1
  P  P1  1  0.40516900  0.71532200  0.27097000  1
  P  P2  1  0.99068600  0.55827700  0.51942800  1
  P  P3  1  0.90516900  0.21532200  0.22903000  1
  P  P4  1  0.59483100  0.21532200  0.72903000  1
  P  P5  1  0.50931400  0.55827700  0.01942800  1
  P  P6  1  0.09483100  0.71532200  0.77097000  1
  P  P7  1  0.00931400  0.05827700  0.48057200  1
  O  O0  1  0.26908000  0.16831400  0.83342200  1
  O  O1  1  0.15909900  0.03914000  0.36511900  1
  O  O2  1  0.13927400  0.56774400  0.41173900  1
  O  O3  1  0.49531900  0.90163000  0.98427300  1
  O  O4  1  0.90530400  0.14647900  0.37778500  1
  O  O5  1  0.69114000  0.88162800  0.75330300  1
  O  O6  1  0.51392300  0.84469400  0.24691900  1
  O  O7  1  0.15908200  0.35637400  0.01232700  1
  O  O8  1  0.76908000  0.66831400  0.66657800  1
  O  O9  1  0.52269200  0.63359400  0.36296900  1
  O  O10  1  0.65909900  0.53914000  0.13488100  1
  O  O11  1  0.12622900  0.13649600  0.57671900  1
  O  O12  1  0.63927400  0.06774400  0.08826100  1
  O  O13  1  0.99531900  0.40163000  0.51572700  1
  O  O14  1  0.87377100  0.63649600  0.42328100  1
  O  O15  1  0.40530400  0.64647900  0.12221500  1
  O  O16  1  0.47730800  0.13359500  0.63703100  1
  O  O17  1  0.19114000  0.38162800  0.74669700  1
  O  O18  1  0.84091800  0.85637400  0.98767300  1
  O  O19  1  0.48607700  0.34469400  0.75308100  1
  O  O20  1  0.01392300  0.34469400  0.25308100  1
  O  O21  1  0.65908200  0.85637400  0.48767300  1
  O  O22  1  0.30886000  0.38162800  0.24669700  1
  O  O23  1  0.02269200  0.13359500  0.13703100  1
  O  O24  1  0.09469600  0.64647900  0.62221500  1
  O  O25  1  0.62622900  0.63649600  0.92328100  1
  O  O26  1  0.50468100  0.40163000  0.01572700  1
  O  O27  1  0.86072600  0.06774400  0.58826100  1
  O  O28  1  0.37377100  0.13649600  0.07671900  1
  O  O29  1  0.84090100  0.53914000  0.63488100  1
  O  O30  1  0.97730800  0.63359400  0.86296900  1
  O  O31  1  0.73092000  0.66831400  0.16657800  1
  O  O32  1  0.34091800  0.35637400  0.51232700  1
  O  O33  1  0.98607700  0.84469400  0.74691900  1
  O  O34  1  0.80886000  0.88162800  0.25330300  1
  O  O35  1  0.59469600  0.14647900  0.87778500  1
  O  O36  1  0.00468100  0.90163000  0.48427300  1
  O  O37  1  0.36072600  0.56774400  0.91173900  1
  O  O38  1  0.34090100  0.03914000  0.86511900  1
  O  O39  1  0.23092000  0.16831400  0.33342200  1
loop_
_geom_bond_atom_site_label_1
_geom_bond_atom_site_label_2
_geom_bond_distance
_geom_bond_site_symmetry_2
O0 O38 1.463592 1_555
O0 Ti3 2.042633 1_555
O0 Ti7 2.282713 1_555
O0 Rb1 2.825733 1_455
O1 O39 1.463592 1_555
O1 P7 1.766240 1_555
O1 Rb2 2.851034 1_545
O2 P2 1.697497 1_455
O2 Ti5 1.865751 1_555
O2 Rb7 2.806264 1_555
O3 P0 1.559738 1_565
O3 Ti1 2.075000 1_556
O3 Rb3 2.843342 1_556
O4 P7 1.642256 1_655
O4 P3 1.679860 1_555
O4 Rb4 3.113429 1_555
O5 Ti4 1.849472 1_555
O5 Ti6 1.854048 1_555
O6 P1 1.611563 1_555
O6 Ti1 2.111421 1_555
O6 Ti0 2.263671 1_555
O6 Rb4 2.784485 1_565
O7 Ti7 1.835978 1_554
O7 Ti2 1.864781 1_555
O7 Rb7 2.995531 1_555
O7 Rb5 3.024216 1_454
O8 Ti6 2.042633 1_555
O8 Ti4 2.282713 1_555
O8 Rb0 2.825733 1_555
O9 P1 1.608407 1_555
O9 Ti0 2.014546 1_555
O9 Rb6 2.856641 1_555
O9 Rb0 3.063083 1_555
O10 O31 1.463592 1_555
O10 P5 1.766240 1_555
O10 Rb5 2.851034 1_554
O11 P7 1.613626 1_555
O11 Ti3 1.899715 1_555
O11 Rb2 2.956451 1_545
O12 P0 1.697497 1_554
O12 Ti1 1.865751 1_545
O12 Rb4 2.806264 1_555
O13 P2 1.559738 1_555
O13 Ti5 2.075000 1_655
O13 Rb6 2.843342 1_555
O14 P2 1.613626 1_555
O14 Ti0 1.899715 1_555
O14 Rb6 2.956451 1_555
O15 P5 1.642256 1_555
O15 P1 1.679860 1_555
O15 Rb7 3.113429 1_555
O16 P4 1.608402 1_555
O16 Ti3 2.014541 1_555
O16 Rb2 2.856650 1_545
O16 Rb4 3.063084 1_555
O17 Ti7 1.849472 1_555
O17 Ti3 1.854048 1_555
O18 Ti1 1.835978 1_556
O18 Ti6 1.864781 1_555
O18 Rb1 2.995531 1_565
O18 Rb3 3.024216 1_656
O19 P4 1.611563 1_555
O19 Ti7 2.111421 1_555
O19 Ti3 2.263671 1_555
O19 Rb0 2.784485 1_555
O20 P3 1.611563 1_455
O20 Ti5 2.111421 1_555
O20 Ti2 2.263671 1_555
O20 Rb7 2.784485 1_555
O21 Ti4 1.835978 1_555
O21 Ti0 1.864781 1_555
O21 Rb4 2.995531 1_565
O21 Rb2 3.024216 1_555
O22 Ti5 1.849472 1_555
O22 Ti2 1.854048 1_555
O23 P3 1.608402 1_455
O23 Ti2 2.014541 1_555
O23 Rb3 2.856650 1_545
O23 Rb1 3.063084 1_454
O24 P2 1.642256 1_455
O24 P6 1.679860 1_555
O24 Rb0 3.113429 1_555
O25 P5 1.613626 1_556
O25 Ti6 1.899715 1_555
O25 Rb5 2.956451 1_555
O26 P5 1.559738 1_555
O26 Ti7 2.075000 1_554
O26 Rb5 2.843342 1_554
O27 P7 1.697497 1_655
O27 Ti4 1.865751 1_545
O27 Rb1 2.806264 1_555
O28 P0 1.613626 1_554
O28 Ti2 1.899715 1_555
O28 Rb3 2.956451 1_545
O29 O8 1.463592 1_555
O29 P2 1.766240 1_555
O29 Rb6 2.851034 1_555
O30 P6 1.608407 1_655
O30 Ti6 2.014546 1_555
O30 Rb5 2.856641 1_555
O30 Rb7 3.063083 1_656
O31 Ti0 2.042633 1_555
O31 Ti1 2.282713 1_555
O31 Rb7 2.825733 1_655
O32 Ti5 1.835978 1_555
O32 Ti3 1.864781 1_555
O32 Rb0 2.995531 1_555
O32 Rb6 3.024216 1_555
O33 P6 1.611563 1_655
O33 Ti4 2.111421 1_555
O33 Ti6 2.263671 1_555
O33 Rb1 2.784485 1_565
O34 Ti1 1.849472 1_555
O34 Ti0 1.854048 1_555
O35 P0 1.642256 1_555
O35 P4 1.679860 1_555
O35 Rb1 3.113429 1_555
O36 P7 1.559738 1_565
O36 Ti4 2.075000 1_455
O36 Rb2 2.843342 1_555
O37 P5 1.697497 1_556
O37 Ti7 1.865751 1_555
O37 Rb0 2.806264 1_555
O38 P0 1.766240 1_555
O38 Rb3 2.851034 1_546
O39 Ti2 2.042633 1_555
O39 Ti5 2.282713 1_555
O39 Rb4 2.825733 1_555
