# generated using pymatgen
data_BaCu(Si2O5)2
_symmetry_space_group_name_H-M   'P 1'
_cell_length_a   7.52183800
_cell_length_b   7.52183800
_cell_length_c   16.55382700
_cell_angle_alpha   90.00000000
_cell_angle_beta   90.00000000
_cell_angle_gamma   90.00000000
_symmetry_Int_Tables_number   1
_chemical_formula_structural   BaCu(Si2O5)2
_chemical_formula_sum   'Ba4 Cu4 Si16 O40'
_cell_volume   936.58320035
_cell_formula_units_Z   4
loop_
 _symmetry_equiv_pos_site_id
 _symmetry_equiv_pos_as_xyz
  1  'x, y, z'
loop_
 _atom_site_type_symbol
 _atom_site_label
 _atom_site_symmetry_multiplicity
 _atom_site_fract_x
 _atom_site_fract_y
 _atom_site_fract_z
 _atom_site_occupancy
  Ba  Ba0  1  0.50000000  0.50000000  0.00000000  1
  Ba  Ba1  1  0.00000000  0.00000000  0.00000000  1
  Ba  Ba2  1  0.00000000  0.00000000  0.50000000  1
  Ba  Ba3  1  0.50000000  0.50000000  0.50000000  1
  Cu  Cu0  1  0.50000000  0.00000000  0.09709400  1
  Cu  Cu1  1  0.00000000  0.50000000  0.40290600  1
  Cu  Cu2  1  0.00000000  0.50000000  0.90290600  1
  Cu  Cu3  1  0.50000000  0.00000000  0.59709400  1
  Si  Si0  1  0.18622200  0.26548200  0.65532900  1
  Si  Si1  1  0.81377800  0.73451800  0.65532900  1
  Si  Si2  1  0.26548200  0.18622200  0.84467100  1
  Si  Si3  1  0.76548200  0.31377800  0.65532900  1
  Si  Si4  1  0.23451800  0.68622200  0.65532900  1
  Si  Si5  1  0.31377800  0.76548200  0.84467100  1
  Si  Si6  1  0.68622200  0.23451800  0.84467100  1
  Si  Si7  1  0.73451800  0.81377800  0.84467100  1
  Si  Si8  1  0.31377800  0.23451800  0.34467100  1
  Si  Si9  1  0.68622200  0.76548200  0.34467100  1
  Si  Si10  1  0.23451800  0.31377800  0.15532900  1
  Si  Si11  1  0.73451800  0.18622200  0.34467100  1
  Si  Si12  1  0.26548200  0.81377800  0.34467100  1
  Si  Si13  1  0.18622200  0.73451800  0.15532900  1
  Si  Si14  1  0.81377800  0.26548200  0.15532900  1
  Si  Si15  1  0.76548200  0.68622200  0.15532900  1
  O  O0  1  0.27624600  0.13115100  0.59195800  1
  O  O1  1  0.72375400  0.86884900  0.59195800  1
  O  O2  1  0.13115100  0.27624600  0.90804200  1
  O  O3  1  0.63115100  0.22375400  0.59195800  1
  O  O4  1  0.36884900  0.77624600  0.59195800  1
  O  O5  1  0.22375400  0.63115100  0.90804200  1
  O  O6  1  0.77624600  0.36884900  0.90804200  1
  O  O7  1  0.86884900  0.72375400  0.90804200  1
  O  O8  1  0.22375400  0.36884900  0.40804200  1
  O  O9  1  0.77624600  0.63115100  0.40804200  1
  O  O10  1  0.36884900  0.22375400  0.09195800  1
  O  O11  1  0.86884900  0.27624600  0.40804200  1
  O  O12  1  0.13115100  0.72375400  0.40804200  1
  O  O13  1  0.27624600  0.86884900  0.09195800  1
  O  O14  1  0.72375400  0.13115100  0.09195800  1
  O  O15  1  0.25047300  0.02902700  0.36298000  1
  O  O16  1  0.63115100  0.77624600  0.09195800  1
  O  O17  1  0.75047300  0.52902700  0.63702000  1
  O  O18  1  0.47097300  0.24952700  0.86298000  1
  O  O19  1  0.97097300  0.25047300  0.63702000  1
  O  O20  1  0.02902700  0.74952700  0.63702000  1
  O  O21  1  0.25047300  0.97097300  0.86298000  1
  O  O22  1  0.74952700  0.02902700  0.86298000  1
  O  O23  1  0.52902700  0.75047300  0.86298000  1
  O  O24  1  0.72239700  0.72239700  0.25000000  1
  O  O25  1  0.77760300  0.22239700  0.25000000  1
  O  O26  1  0.22239700  0.77760300  0.25000000  1
  O  O27  1  0.27760300  0.27760300  0.25000000  1
  O  O28  1  0.77760300  0.77760300  0.75000000  1
  O  O29  1  0.72239700  0.27760300  0.75000000  1
  O  O30  1  0.27760300  0.72239700  0.75000000  1
  O  O31  1  0.22239700  0.22239700  0.75000000  1
  O  O32  1  0.97097300  0.74952700  0.13702000  1
  O  O33  1  0.75047300  0.47097300  0.13702000  1
  O  O34  1  0.24952700  0.52902700  0.13702000  1
  O  O35  1  0.47097300  0.75047300  0.36298000  1
  O  O36  1  0.52902700  0.24952700  0.36298000  1
  O  O37  1  0.02902700  0.25047300  0.13702000  1
  O  O38  1  0.74952700  0.97097300  0.36298000  1
  O  O39  1  0.24952700  0.47097300  0.63702000  1
loop_
_geom_bond_atom_site_label_1
_geom_bond_atom_site_label_2
_geom_bond_distance
_geom_bond_site_symmetry_2
Ba0 O6 2.758263 1_554
Ba0 O16 2.758263 1_555
Ba0 O10 2.758263 1_555
Ba0 O5 2.758263 1_554
Ba0 O33 2.956678 1_555
Ba0 O34 2.956678 1_555
Ba0 O18 2.956678 1_554
Ba0 O23 2.956678 1_554
Ba1 O13 2.758263 1_545
Ba1 O14 2.758263 1_455
Ba1 O2 2.758263 1_554
Ba1 O7 2.758263 1_444
Ba1 O32 2.956678 1_445
Ba1 O37 2.956678 1_555
Ba1 O22 2.956678 1_454
Ba1 O21 2.956678 1_544
Ba2 O1 2.758263 1_445
Ba2 O0 2.758263 1_555
Ba2 O11 2.758263 1_455
Ba2 O12 2.758263 1_545
Ba2 O38 2.956678 1_445
Ba2 O15 2.956678 1_555
Ba2 O20 2.956678 1_545
Ba2 O19 2.956678 1_455
Ba3 O9 2.758263 1_555
Ba3 O3 2.758263 1_555
Ba3 O4 2.758263 1_555
Ba3 O8 2.758263 1_555
Ba3 O36 2.956678 1_555
Ba3 O35 2.956678 1_555
Ba3 O39 2.956678 1_555
Ba3 O17 2.956678 1_555
Cu0 O13 1.952699 1_545
Cu0 O14 1.952699 1_555
Cu0 O16 1.952699 1_545
Cu0 O10 1.952699 1_555
Cu1 O12 1.952699 1_555
Cu1 O9 1.952699 1_455
Cu1 O8 1.952699 1_555
Cu1 O11 1.952699 1_455
Cu2 O5 1.952699 1_555
Cu2 O2 1.952699 1_555
Cu2 O6 1.952699 1_455
Cu2 O7 1.952699 1_455
Cu3 O0 1.952699 1_555
Cu3 O1 1.952699 1_545
Cu3 O4 1.952699 1_545
Cu3 O3 1.952699 1_555
O0 Si0 1.606218 1_555
O1 Si1 1.606218 1_555
O2 Si2 1.606218 1_555
O3 Si3 1.606218 1_555
O4 Si4 1.606218 1_555
O5 Si5 1.606218 1_555
O6 Si6 1.606218 1_555
O7 Si7 1.606218 1_555
O8 Si8 1.606218 1_555
O9 Si9 1.606218 1_555
O10 Si10 1.606218 1_555
O11 Si11 1.606218 1_555
O12 Si12 1.606218 1_555
O13 Si13 1.606218 1_555
O14 Si14 1.606218 1_555
O15 Si8 1.645507 1_555
O15 Si12 1.651056 1_545
O16 Si15 1.606218 1_555
O17 Si1 1.645507 1_555
O17 Si3 1.651056 1_555
O18 Si2 1.645507 1_555
O18 Si6 1.651056 1_555
O19 Si3 1.645507 1_555
O19 Si0 1.651056 1_655
O20 Si4 1.645507 1_555
O20 Si1 1.651056 1_455
O21 Si5 1.645507 1_555
O21 Si2 1.651056 1_565
O22 Si6 1.645507 1_555
O22 Si7 1.651056 1_545
O23 Si7 1.645507 1_555
O23 Si5 1.651056 1_555
O24 Si9 1.623293 1_555
O24 Si15 1.623293 1_555
O25 Si14 1.623293 1_555
O25 Si11 1.623293 1_555
O26 Si12 1.623293 1_555
O26 Si13 1.623293 1_555
O27 Si10 1.623293 1_555
O27 Si8 1.623293 1_555
O28 Si7 1.623293 1_555
O28 Si1 1.623293 1_555
O29 Si6 1.623293 1_555
O29 Si3 1.623293 1_555
O30 Si4 1.623293 1_555
O30 Si5 1.623293 1_555
O31 Si2 1.623293 1_555
O31 Si0 1.623293 1_555
O32 Si15 1.645507 1_555
O32 Si13 1.651056 1_655
O33 Si14 1.645507 1_555
O33 Si15 1.651056 1_555
O34 Si13 1.645507 1_555
O34 Si10 1.651056 1_555
O35 Si12 1.645507 1_555
O35 Si9 1.651056 1_555
O36 Si11 1.645507 1_555
O36 Si8 1.651056 1_555
O37 Si10 1.645507 1_555
O37 Si14 1.651056 1_455
O38 Si9 1.645507 1_555
O38 Si11 1.651056 1_565
O39 Si0 1.645507 1_555
O39 Si4 1.651056 1_555
