# generated using pymatgen
data_K5CeCu2(NO2)12
_symmetry_space_group_name_H-M   'P 1'
_cell_length_a   10.67200900
_cell_length_b   10.67200900
_cell_length_c   10.67200900
_cell_angle_alpha   90.00000000
_cell_angle_beta   90.00000000
_cell_angle_gamma   90.00000000
_symmetry_Int_Tables_number   1
_chemical_formula_structural   K5CeCu2(NO2)12
_chemical_formula_sum   'K10 Ce2 Cu4 N24 O48'
_cell_volume   1215.45405952
_cell_formula_units_Z   2
loop_
 _symmetry_equiv_pos_site_id
 _symmetry_equiv_pos_as_xyz
  1  'x, y, z'
loop_
 _atom_site_type_symbol
 _atom_site_label
 _atom_site_symmetry_multiplicity
 _atom_site_fract_x
 _atom_site_fract_y
 _atom_site_fract_z
 _atom_site_occupancy
  K  K0  1  0.50000000  0.50000000  0.00000000  1
  K  K1  1  0.50000000  0.00000000  0.50000000  1
  K  K2  1  0.25000000  0.75000000  0.75000000  1
  K  K3  1  0.75000000  0.25000000  0.25000000  1
  K  K4  1  0.75000000  0.25000000  0.75000000  1
  K  K5  1  0.00000000  0.00000000  0.00000000  1
  K  K6  1  0.75000000  0.75000000  0.25000000  1
  K  K7  1  0.25000000  0.75000000  0.25000000  1
  K  K8  1  0.00000000  0.50000000  0.50000000  1
  K  K9  1  0.25000000  0.25000000  0.75000000  1
  Ce  Ce0  1  0.25000000  0.25000000  0.25000000  1
  Ce  Ce1  1  0.75000000  0.75000000  0.75000000  1
  Cu  Cu0  1  0.00000000  0.00000000  0.50000000  1
  Cu  Cu1  1  0.50000000  0.00000000  0.00000000  1
  Cu  Cu2  1  0.00000000  0.50000000  0.00000000  1
  Cu  Cu3  1  0.50000000  0.50000000  0.50000000  1
  N  N0  1  0.50414600  0.50323400  0.69689100  1
  N  N1  1  0.80310900  0.99585400  0.50323400  1
  N  N2  1  0.69689100  0.99585400  0.99676600  1
  N  N3  1  0.50323400  0.80310900  0.99585400  1
  N  N4  1  0.99585400  0.99676600  0.69689100  1
  N  N5  1  0.00323400  0.30310900  0.00414600  1
  N  N6  1  0.30310900  0.00414600  0.00323400  1
  N  N7  1  0.80310900  0.50414600  0.99676600  1
  N  N8  1  0.50323400  0.69689100  0.50414600  1
  N  N9  1  0.00414600  0.49676600  0.19689100  1
  N  N10  1  0.99676600  0.80310900  0.50414600  1
  N  N11  1  0.49585400  0.49676600  0.30310900  1
  N  N12  1  0.50414600  0.99676600  0.80310900  1
  N  N13  1  0.00323400  0.19689100  0.49585400  1
  N  N14  1  0.69689100  0.50414600  0.50323400  1
  N  N15  1  0.49676600  0.19689100  0.00414600  1
  N  N16  1  0.49676600  0.30310900  0.49585400  1
  N  N17  1  0.19689100  0.00414600  0.49676600  1
  N  N18  1  0.99676600  0.69689100  0.99585400  1
  N  N19  1  0.99585400  0.50323400  0.80310900  1
  N  N20  1  0.49585400  0.00323400  0.19689100  1
  N  N21  1  0.00414600  0.00323400  0.30310900  1
  N  N22  1  0.19689100  0.49585400  0.00323400  1
  N  N23  1  0.30310900  0.49585400  0.49676600  1
  O  O0  1  0.50352300  0.25801600  0.90448000  1
  O  O1  1  0.00352300  0.75801600  0.09552000  1
  O  O2  1  0.40448000  0.00352300  0.74198400  1
  O  O3  1  0.24198400  0.59552000  0.50352300  1
  O  O4  1  0.90448000  0.50352300  0.25801600  1
  O  O5  1  0.25591800  0.10557700  0.47604400  1
  O  O6  1  0.39442300  0.47604400  0.24408200  1
  O  O7  1  0.97604400  0.74408200  0.60557700  1
  O  O8  1  0.59552000  0.99647700  0.25801600  1
  O  O9  1  0.02395600  0.25591800  0.39442300  1
  O  O10  1  0.09552000  0.00352300  0.75801600  1
  O  O11  1  0.39442300  0.02395600  0.25591800  1
  O  O12  1  0.74198400  0.40448000  0.00352300  1
  O  O13  1  0.89442300  0.97604400  0.75591800  1
  O  O14  1  0.02395600  0.24408200  0.10557700  1
  O  O15  1  0.90448000  0.99647700  0.24198400  1
  O  O16  1  0.89442300  0.52395600  0.74408200  1
  O  O17  1  0.25801600  0.90448000  0.50352300  1
  O  O18  1  0.09552000  0.49647700  0.74198400  1
  O  O19  1  0.10557700  0.02395600  0.24408200  1
  O  O20  1  0.52395600  0.74408200  0.89442300  1
  O  O21  1  0.25801600  0.59552000  0.99647700  1
  O  O22  1  0.25591800  0.39442300  0.02395600  1
  O  O23  1  0.74198400  0.09552000  0.49647700  1
  O  O24  1  0.00352300  0.74198400  0.40448000  1
  O  O25  1  0.24408200  0.39442300  0.47604400  1
  O  O26  1  0.40448000  0.49647700  0.75801600  1
  O  O27  1  0.99647700  0.25801600  0.59552000  1
  O  O28  1  0.59552000  0.50352300  0.24198400  1
  O  O29  1  0.52395600  0.75591800  0.60557700  1
  O  O30  1  0.74408200  0.60557700  0.97604400  1
  O  O31  1  0.60557700  0.97604400  0.74408200  1
  O  O32  1  0.24198400  0.90448000  0.99647700  1
  O  O33  1  0.75591800  0.89442300  0.97604400  1
  O  O34  1  0.75801600  0.09552000  0.00352300  1
  O  O35  1  0.50352300  0.24198400  0.59552000  1
  O  O36  1  0.74408200  0.89442300  0.52395600  1
  O  O37  1  0.75801600  0.40448000  0.49647700  1
  O  O38  1  0.99647700  0.24198400  0.90448000  1
  O  O39  1  0.49647700  0.74198400  0.09552000  1
  O  O40  1  0.10557700  0.47604400  0.25591800  1
  O  O41  1  0.24408200  0.10557700  0.02395600  1
  O  O42  1  0.47604400  0.24408200  0.39442300  1
  O  O43  1  0.60557700  0.52395600  0.75591800  1
  O  O44  1  0.49647700  0.75801600  0.40448000  1
  O  O45  1  0.97604400  0.75591800  0.89442300  1
  O  O46  1  0.75591800  0.60557700  0.52395600  1
  O  O47  1  0.47604400  0.25591800  0.10557700  1
loop_
_geom_bond_atom_site_label_1
_geom_bond_atom_site_label_2
_geom_bond_distance
_geom_bond_site_symmetry_2
K0 O28 2.776625 1_555
K0 O12 2.776625 1_555
K0 O39 2.776625 1_555
K0 O0 2.776625 1_554
K0 O26 2.776625 1_554
K0 O21 2.776625 1_554
K0 O43 2.849575 1_554
K0 O30 2.849575 1_554
K0 O47 2.849575 1_555
K0 O20 2.849575 1_554
K0 O22 2.849575 1_555
K0 O6 2.849575 1_555
K1 O35 2.776625 1_555
K1 O23 2.776625 1_555
K1 O2 2.776625 1_555
K1 O17 2.776625 1_545
K1 O8 2.776625 1_545
K1 O44 2.776625 1_545
K1 O29 2.849575 1_545
K1 O5 2.849575 1_555
K1 O31 2.849575 1_545
K1 O36 2.849575 1_545
K1 O11 2.849575 1_555
K1 O42 2.849575 1_555
K2 O21 3.105522 1_555
K2 O32 3.105522 1_555
K2 O3 3.105522 1_555
K2 O17 3.105522 1_555
K2 O10 3.169465 1_565
K2 O2 3.169465 1_565
K2 O26 3.169465 1_555
K2 O18 3.169465 1_555
K2 O20 3.305652 1_555
K2 O29 3.305652 1_555
K2 O45 3.305652 1_455
K2 O7 3.305652 1_455
K3 O37 3.105522 1_555
K3 O23 3.105522 1_555
K3 O34 3.105522 1_555
K3 O12 3.105522 1_555
K3 O4 3.169465 1_555
K3 O28 3.169465 1_555
K3 O8 3.169465 1_545
K3 O15 3.169465 1_545
K3 O9 3.305652 1_655
K3 O14 3.305652 1_655
K3 O42 3.305652 1_555
K3 O47 3.305652 1_555
K4 O27 3.105522 1_555
K4 O38 3.105522 1_555
K4 O35 3.105522 1_555
K4 O0 3.105522 1_555
K4 O34 3.169465 1_556
K4 O12 3.169465 1_556
K4 O23 3.169465 1_555
K4 O37 3.169465 1_555
K4 O16 3.305652 1_555
K4 O43 3.305652 1_555
K4 O13 3.305652 1_545
K4 O31 3.305652 1_545
K5 O32 2.776625 1_544
K5 O38 2.776625 1_454
K5 O15 2.776625 1_445
K5 O34 2.776625 1_455
K5 O10 2.776625 1_554
K5 O1 2.776625 1_545
K5 O14 2.849575 1_555
K5 O41 2.849575 1_555
K5 O19 2.849575 1_555
K5 O33 2.849575 1_444
K5 O13 2.849575 1_444
K5 O45 2.849575 1_444
K6 O8 3.105522 1_555
K6 O15 3.105522 1_555
K6 O28 3.105522 1_555
K6 O4 3.105522 1_555
K6 O1 3.169465 1_655
K6 O24 3.169465 1_655
K6 O44 3.169465 1_555
K6 O39 3.169465 1_555
K6 O36 3.305652 1_555
K6 O46 3.305652 1_555
K6 O33 3.305652 1_554
K6 O30 3.305652 1_554
K7 O44 3.105522 1_555
K7 O39 3.105522 1_555
K7 O1 3.105522 1_555
K7 O24 3.105522 1_555
K7 O17 3.169465 1_555
K7 O3 3.169465 1_555
K7 O21 3.169465 1_554
K7 O32 3.169465 1_554
K7 O11 3.305652 1_565
K7 O19 3.305652 1_565
K7 O6 3.305652 1_555
K7 O40 3.305652 1_555
K8 O3 2.776625 1_555
K8 O24 2.776625 1_555
K8 O18 2.776625 1_555
K8 O4 2.776625 1_455
K8 O37 2.776625 1_455
K8 O27 2.776625 1_455
K8 O46 2.849575 1_455
K8 O40 2.849575 1_555
K8 O7 2.849575 1_455
K8 O16 2.849575 1_455
K8 O9 2.849575 1_555
K8 O25 2.849575 1_555
K9 O18 3.105522 1_555
K9 O26 3.105522 1_555
K9 O10 3.105522 1_555
K9 O2 3.105522 1_555
K9 O0 3.169465 1_555
K9 O35 3.169465 1_555
K9 O27 3.169465 1_455
K9 O38 3.169465 1_455
K9 O22 3.305652 1_556
K9 O41 3.305652 1_556
K9 O25 3.305652 1_555
K9 O5 3.305652 1_555
Ce0 O25 2.863380 1_555
Ce0 O6 2.863380 1_555
Ce0 O42 2.863380 1_555
Ce0 O5 2.863380 1_555
Ce0 O40 2.863380 1_555
Ce0 O47 2.863380 1_555
Ce0 O9 2.863380 1_555
Ce0 O22 2.863380 1_555
Ce0 O11 2.863380 1_555
Ce0 O14 2.863380 1_555
Ce0 O41 2.863380 1_555
Ce0 O19 2.863380 1_555
Ce1 O13 2.863380 1_555
Ce1 O45 2.863380 1_555
Ce1 O33 2.863380 1_555
Ce1 O7 2.863380 1_555
Ce1 O30 2.863380 1_555
Ce1 O31 2.863380 1_555
Ce1 O20 2.863380 1_555
Ce1 O16 2.863380 1_555
Ce1 O36 2.863380 1_555
Ce1 O29 2.863380 1_555
Ce1 O46 2.863380 1_555
Ce1 O43 2.863380 1_555
Cu0 N17 2.101972 1_555
Cu0 N13 2.101972 1_555
Cu0 N4 2.101972 1_445
Cu0 N10 2.101972 1_445
Cu0 N1 2.101972 1_445
Cu0 N21 2.101972 1_555
Cu1 N15 2.101972 1_555
Cu1 N20 2.101972 1_555
Cu1 N2 2.101972 1_544
Cu1 N3 2.101972 1_544
Cu1 N12 2.101972 1_544
Cu1 N6 2.101972 1_555
Cu2 N9 2.101972 1_555
Cu2 N22 2.101972 1_555
Cu2 N18 2.101972 1_454
Cu2 N7 2.101972 1_454
Cu2 N19 2.101972 1_454
Cu2 N5 2.101972 1_555
Cu3 N8 2.101972 1_555
Cu3 N14 2.101972 1_555
Cu3 N0 2.101972 1_555
Cu3 N11 2.101972 1_555
Cu3 N23 2.101972 1_555
Cu3 N16 2.101972 1_555
N0 O26 1.249821 1_555
N0 O43 1.271799 1_555
N1 O23 1.249821 1_565
N1 O36 1.271799 1_555
N2 O34 1.249821 1_566
N2 O33 1.271799 1_555
N3 O39 1.249821 1_556
N3 O20 1.271799 1_555
N4 O10 1.249821 1_665
N4 O13 1.271799 1_555
N5 O38 1.249821 1_454
N5 O14 1.271799 1_555
N6 O32 1.249821 1_544
N6 O41 1.271799 1_555
N7 O12 1.249821 1_556
N7 O30 1.271799 1_555
N8 O44 1.249821 1_555
N8 O29 1.271799 1_555
N9 O4 1.249821 1_455
N9 O40 1.271799 1_555
N10 O24 1.249821 1_655
N10 O7 1.271799 1_555
N11 O28 1.249821 1_555
N11 O6 1.271799 1_555
N12 O2 1.249821 1_565
N12 O31 1.271799 1_555
N13 O27 1.249821 1_455
N13 O9 1.271799 1_555
N14 O37 1.249821 1_555
N14 O46 1.271799 1_555
N15 O0 1.249821 1_554
N15 O47 1.271799 1_555
N16 O35 1.249821 1_555
N16 O42 1.271799 1_555
N17 O17 1.249821 1_545
N17 O5 1.271799 1_555
N18 O1 1.249821 1_656
N18 O45 1.271799 1_555
N19 O18 1.249821 1_655
N19 O16 1.271799 1_555
N20 O8 1.249821 1_545
N20 O11 1.271799 1_555
N21 O15 1.249821 1_445
N21 O19 1.271799 1_555
N22 O21 1.249821 1_554
N22 O22 1.271799 1_555
N23 O3 1.249821 1_555
N23 O25 1.271799 1_555
