# generated using pymatgen
data_SiO2
_symmetry_space_group_name_H-M   'P 1'
_cell_length_a   8.73925100
_cell_length_b   8.73925100
_cell_length_c   27.93854900
_cell_angle_alpha   90.00000000
_cell_angle_beta   90.00000000
_cell_angle_gamma   90.00000000
_symmetry_Int_Tables_number   1
_chemical_formula_structural   SiO2
_chemical_formula_sum   'Si40 O80'
_cell_volume   2133.79293525
_cell_formula_units_Z   40
loop_
 _symmetry_equiv_pos_site_id
 _symmetry_equiv_pos_as_xyz
  1  'x, y, z'
loop_
 _atom_site_type_symbol
 _atom_site_label
 _atom_site_symmetry_multiplicity
 _atom_site_fract_x
 _atom_site_fract_y
 _atom_site_fract_z
 _atom_site_occupancy
  Si  Si0  1  0.74566800  0.56561700  0.82025500  1
  Si  Si1  1  0.43438300  0.74566800  0.82025500  1
  Si  Si2  1  0.56561700  0.25433200  0.82025500  1
  Si  Si3  1  0.74566800  0.43438300  0.17974500  1
  Si  Si4  1  0.25433200  0.56561700  0.17974500  1
  Si  Si5  1  0.25433200  0.43438300  0.82025500  1
  Si  Si6  1  0.56561700  0.74566800  0.17974500  1
  Si  Si7  1  0.43438300  0.25433200  0.17974500  1
  Si  Si8  1  0.75433200  0.93438300  0.67974500  1
  Si  Si9  1  0.06561700  0.75433200  0.67974500  1
  Si  Si10  1  0.93438300  0.24566800  0.67974500  1
  Si  Si11  1  0.75433200  0.06561700  0.32025500  1
  Si  Si12  1  0.24566800  0.93438300  0.32025500  1
  Si  Si13  1  0.24566800  0.06561700  0.67974500  1
  Si  Si14  1  0.93438300  0.75433200  0.32025500  1
  Si  Si15  1  0.06561700  0.24566800  0.32025500  1
  Si  Si16  1  0.56765700  0.25338700  0.93055300  1
  Si  Si17  1  0.74661300  0.56765700  0.93055300  1
  Si  Si18  1  0.25338700  0.43234300  0.93055300  1
  Si  Si19  1  0.56765700  0.74661300  0.06944700  1
  Si  Si20  1  0.43234300  0.25338700  0.06944700  1
  Si  Si21  1  0.43234300  0.74661300  0.93055300  1
  Si  Si22  1  0.25338700  0.56765700  0.06944700  1
  Si  Si23  1  0.74661300  0.43234300  0.06944700  1
  Si  Si24  1  0.93234300  0.24661300  0.56944700  1
  Si  Si25  1  0.75338700  0.93234300  0.56944700  1
  Si  Si26  1  0.24661300  0.06765700  0.56944700  1
  Si  Si27  1  0.93234300  0.75338700  0.43055300  1
  Si  Si28  1  0.06765700  0.24661300  0.43055300  1
  Si  Si29  1  0.06765700  0.75338700  0.56944700  1
  Si  Si30  1  0.24661300  0.93234300  0.43055300  1
  Si  Si31  1  0.75338700  0.06765700  0.43055300  1
  Si  Si32  1  0.00000000  0.50000000  0.75000000  1
  Si  Si33  1  0.50000000  0.00000000  0.75000000  1
  Si  Si34  1  0.00000000  0.50000000  0.25000000  1
  Si  Si35  1  0.50000000  0.00000000  0.25000000  1
  Si  Si36  1  0.00000000  0.50000000  0.00000000  1
  Si  Si37  1  0.50000000  0.00000000  0.00000000  1
  Si  Si38  1  0.50000000  0.00000000  0.50000000  1
  Si  Si39  1  0.00000000  0.50000000  0.50000000  1
  O  O0  1  0.88582400  0.60089100  0.78377800  1
  O  O1  1  0.39910900  0.88582400  0.78377800  1
  O  O2  1  0.60089100  0.11417600  0.78377800  1
  O  O3  1  0.88582400  0.39910900  0.21622200  1
  O  O4  1  0.11417600  0.60089100  0.21622200  1
  O  O5  1  0.11417600  0.39910900  0.78377800  1
  O  O6  1  0.60089100  0.88582400  0.21622200  1
  O  O7  1  0.39910900  0.11417600  0.21622200  1
  O  O8  1  0.61417600  0.89910900  0.71622200  1
  O  O9  1  0.10089100  0.61417600  0.71622200  1
  O  O10  1  0.89910900  0.38582400  0.71622200  1
  O  O11  1  0.61417600  0.10089100  0.28377800  1
  O  O12  1  0.38582400  0.89910900  0.28377800  1
  O  O13  1  0.38582400  0.10089100  0.71622200  1
  O  O14  1  0.89910900  0.61417600  0.28377800  1
  O  O15  1  0.10089100  0.38582400  0.28377800  1
  O  O16  1  0.68667000  0.39164000  0.81066000  1
  O  O17  1  0.60836000  0.68667000  0.81066000  1
  O  O18  1  0.39164000  0.31333000  0.81066000  1
  O  O19  1  0.68667000  0.60836000  0.18934000  1
  O  O20  1  0.31333000  0.39164000  0.18934000  1
  O  O21  1  0.31333000  0.60836000  0.81066000  1
  O  O22  1  0.39164000  0.68667000  0.18934000  1
  O  O23  1  0.60836000  0.31333000  0.18934000  1
  O  O24  1  0.81333000  0.10836000  0.68934000  1
  O  O25  1  0.89164000  0.81333000  0.68934000  1
  O  O26  1  0.10836000  0.18667000  0.68934000  1
  O  O27  1  0.81333000  0.89164000  0.31066000  1
  O  O28  1  0.18667000  0.10836000  0.31066000  1
  O  O29  1  0.18667000  0.89164000  0.68934000  1
  O  O30  1  0.10836000  0.81333000  0.31066000  1
  O  O31  1  0.89164000  0.18667000  0.31066000  1
  O  O32  1  0.80456900  0.58397800  0.87531900  1
  O  O33  1  0.41602200  0.80456900  0.87531900  1
  O  O34  1  0.58397800  0.19543100  0.87531900  1
  O  O35  1  0.80456900  0.41602200  0.12468100  1
  O  O36  1  0.19543100  0.58397800  0.12468100  1
  O  O37  1  0.19543100  0.41602200  0.87531900  1
  O  O38  1  0.58397800  0.80456900  0.12468100  1
  O  O39  1  0.41602200  0.19543100  0.12468100  1
  O  O40  1  0.69543100  0.91602200  0.62468100  1
  O  O41  1  0.08397800  0.69543100  0.62468100  1
  O  O42  1  0.91602200  0.30456900  0.62468100  1
  O  O43  1  0.69543100  0.08397800  0.37531900  1
  O  O44  1  0.30456900  0.91602200  0.37531900  1
  O  O45  1  0.30456900  0.08397800  0.62468100  1
  O  O46  1  0.91602200  0.69543100  0.37531900  1
  O  O47  1  0.08397800  0.30456900  0.37531900  1
  O  O48  1  0.11005300  0.60579500  0.03405600  1
  O  O49  1  0.39420500  0.11005300  0.03405600  1
  O  O50  1  0.60579500  0.88994700  0.03405600  1
  O  O51  1  0.11005300  0.39420500  0.96594400  1
  O  O52  1  0.88994700  0.60579500  0.96594400  1
  O  O53  1  0.88994700  0.39420500  0.03405600  1
  O  O54  1  0.60579500  0.11005300  0.96594400  1
  O  O55  1  0.39420500  0.88994700  0.96594400  1
  O  O56  1  0.38994700  0.89420500  0.46594400  1
  O  O57  1  0.10579500  0.38994700  0.46594400  1
  O  O58  1  0.89420500  0.61005300  0.46594400  1
  O  O59  1  0.38994700  0.10579500  0.53405600  1
  O  O60  1  0.61005300  0.89420500  0.53405600  1
  O  O61  1  0.61005300  0.10579500  0.46594400  1
  O  O62  1  0.89420500  0.38994700  0.53405600  1
  O  O63  1  0.10579500  0.61005300  0.53405600  1
  O  O64  1  0.68749300  0.39287900  0.94053000  1
  O  O65  1  0.60712100  0.68749300  0.94053000  1
  O  O66  1  0.39287900  0.31250700  0.94053000  1
  O  O67  1  0.68749300  0.60712100  0.05947000  1
  O  O68  1  0.31250700  0.39287900  0.05947000  1
  O  O69  1  0.31250700  0.60712100  0.94053000  1
  O  O70  1  0.39287900  0.68749300  0.05947000  1
  O  O71  1  0.60712100  0.31250700  0.05947000  1
  O  O72  1  0.81250700  0.10712100  0.55947000  1
  O  O73  1  0.89287900  0.81250700  0.55947000  1
  O  O74  1  0.10712100  0.18749300  0.55947000  1
  O  O75  1  0.81250700  0.89287900  0.44053000  1
  O  O76  1  0.18749300  0.10712100  0.44053000  1
  O  O77  1  0.18749300  0.89287900  0.55947000  1
  O  O78  1  0.10712100  0.81250700  0.44053000  1
  O  O79  1  0.89287900  0.18749300  0.44053000  1
loop_
_geom_bond_atom_site_label_1
_geom_bond_atom_site_label_2
_geom_bond_distance
_geom_bond_site_symmetry_2
O0 Si0 1.622930 1_555
O0 Si32 1.632063 1_655
O1 Si1 1.622930 1_555
O1 Si33 1.632063 1_565
O2 Si2 1.622930 1_555
O2 Si33 1.632063 1_555
O3 Si3 1.622930 1_555
O3 Si34 1.632063 1_655
O4 Si4 1.622930 1_555
O4 Si34 1.632063 1_555
O5 Si5 1.622930 1_555
O5 Si32 1.632063 1_555
O6 Si6 1.622930 1_555
O6 Si35 1.632063 1_565
O7 Si7 1.622930 1_555
O7 Si35 1.632063 1_555
O8 Si8 1.622930 1_555
O8 Si33 1.632063 1_565
O9 Si9 1.622930 1_555
O9 Si32 1.632063 1_555
O10 Si10 1.622930 1_555
O10 Si32 1.632063 1_655
O11 Si11 1.622930 1_555
O11 Si35 1.632063 1_555
O12 Si12 1.622930 1_555
O12 Si35 1.632063 1_565
O13 Si13 1.622930 1_555
O13 Si33 1.632063 1_555
O14 Si14 1.622930 1_555
O14 Si34 1.632063 1_655
O15 Si15 1.622930 1_555
O15 Si34 1.632063 1_555
O16 Si2 1.622025 1_555
O16 Si0 1.627700 1_555
O17 Si0 1.622025 1_555
O17 Si1 1.627700 1_555
O18 Si5 1.622025 1_555
O18 Si2 1.627700 1_555
O19 Si6 1.622025 1_555
O19 Si3 1.627700 1_555
O20 Si7 1.622025 1_555
O20 Si4 1.627700 1_555
O21 Si1 1.622025 1_555
O21 Si5 1.627700 1_555
O22 Si4 1.622025 1_555
O22 Si6 1.627700 1_555
O23 Si3 1.622025 1_555
O23 Si7 1.627700 1_555
O24 Si10 1.622025 1_555
O24 Si8 1.627700 1_545
O25 Si8 1.622025 1_555
O25 Si9 1.627700 1_655
O26 Si13 1.622025 1_555
O26 Si10 1.627700 1_455
O27 Si14 1.622025 1_555
O27 Si11 1.627700 1_565
O28 Si15 1.622025 1_555
O28 Si12 1.627700 1_545
O29 Si9 1.622025 1_555
O29 Si13 1.627700 1_565
O30 Si12 1.622025 1_555
O30 Si14 1.627700 1_455
O31 Si11 1.622025 1_555
O31 Si15 1.627700 1_655
O32 Si0 1.630158 1_555
O32 Si17 1.630403 1_555
O33 Si1 1.630158 1_555
O33 Si21 1.630403 1_555
O34 Si2 1.630158 1_555
O34 Si16 1.630403 1_555
O35 Si3 1.630158 1_555
O35 Si23 1.630403 1_555
O36 Si4 1.630158 1_555
O36 Si22 1.630403 1_555
O37 Si5 1.630158 1_555
O37 Si18 1.630403 1_555
O38 Si6 1.630158 1_555
O38 Si19 1.630403 1_555
O39 Si7 1.630158 1_555
O39 Si20 1.630403 1_555
O40 Si8 1.630158 1_555
O40 Si25 1.630403 1_555
O41 Si9 1.630158 1_555
O41 Si29 1.630403 1_555
O42 Si10 1.630158 1_555
O42 Si24 1.630403 1_555
O43 Si11 1.630158 1_555
O43 Si31 1.630403 1_555
O44 Si12 1.630158 1_555
O44 Si30 1.630403 1_555
O45 Si13 1.630158 1_555
O45 Si26 1.630403 1_555
O46 Si14 1.630158 1_555
O46 Si27 1.630403 1_555
O47 Si15 1.630158 1_555
O47 Si28 1.630403 1_555
O48 Si22 1.630290 1_555
O48 Si36 1.638644 1_555
O49 Si20 1.630290 1_555
O49 Si37 1.638644 1_555
O50 Si19 1.630290 1_555
O50 Si37 1.638644 1_565
O51 Si18 1.630290 1_555
O51 Si36 1.638644 1_556
O52 Si17 1.630290 1_555
O52 Si36 1.638644 1_656
O53 Si23 1.630290 1_555
O53 Si36 1.638644 1_655
O54 Si16 1.630290 1_555
O54 Si37 1.638644 1_556
O55 Si21 1.630290 1_555
O55 Si37 1.638644 1_566
O56 Si30 1.630290 1_555
O56 Si38 1.638644 1_565
O57 Si28 1.630290 1_555
O57 Si39 1.638644 1_555
O58 Si27 1.630290 1_555
O58 Si39 1.638644 1_655
O59 Si26 1.630290 1_555
O59 Si38 1.638644 1_555
O60 Si25 1.630290 1_555
O60 Si38 1.638644 1_565
O61 Si31 1.630290 1_555
O61 Si38 1.638644 1_555
O62 Si24 1.630290 1_555
O62 Si39 1.638644 1_655
O63 Si29 1.630290 1_555
O63 Si39 1.638644 1_555
O64 Si16 1.631129 1_555
O64 Si17 1.636361 1_555
O65 Si17 1.631129 1_555
O65 Si21 1.636361 1_555
O66 Si18 1.631129 1_555
O66 Si16 1.636361 1_555
O67 Si19 1.631129 1_555
O67 Si23 1.636361 1_555
O68 Si20 1.631129 1_555
O68 Si22 1.636361 1_555
O69 Si21 1.631129 1_555
O69 Si18 1.636361 1_555
O70 Si22 1.631129 1_555
O70 Si19 1.636361 1_555
O71 Si23 1.631129 1_555
O71 Si20 1.636361 1_555
O72 Si24 1.631129 1_555
O72 Si25 1.636361 1_545
O73 Si25 1.631129 1_555
O73 Si29 1.636361 1_655
O74 Si26 1.631129 1_555
O74 Si24 1.636361 1_455
O75 Si27 1.631129 1_555
O75 Si31 1.636361 1_565
O76 Si28 1.631129 1_555
O76 Si30 1.636361 1_545
O77 Si29 1.631129 1_555
O77 Si26 1.636361 1_565
O78 Si30 1.631129 1_555
O78 Si27 1.636361 1_455
O79 Si31 1.631129 1_555
O79 Si28 1.636361 1_655
