# generated using pymatgen
data_Sr2Er2Al3Si5N11O3
_symmetry_space_group_name_H-M   'P 1'
_cell_length_a   6.19641269
_cell_length_b   6.19641269
_cell_length_c   10.42460900
_cell_angle_alpha   90.00000000
_cell_angle_beta   90.00000000
_cell_angle_gamma   120.00000736
_symmetry_Int_Tables_number   1
_chemical_formula_structural   Sr2Er2Al3Si5N11O3
_chemical_formula_sum   'Sr2 Er2 Al3 Si5 N11 O3'
_cell_volume   346.63390797
_cell_formula_units_Z   1
loop_
 _symmetry_equiv_pos_site_id
 _symmetry_equiv_pos_as_xyz
  1  'x, y, z'
loop_
 _atom_site_type_symbol
 _atom_site_label
 _atom_site_symmetry_multiplicity
 _atom_site_fract_x
 _atom_site_fract_y
 _atom_site_fract_z
 _atom_site_occupancy
  Sr  Sr0  1  0.33333300  0.66666700  0.13277700  1
  Sr  Sr1  1  0.66666700  0.33333300  0.64893800  1
  Er  Er0  1  0.33333300  0.66666700  0.63992200  1
  Er  Er1  1  0.66666700  0.33333300  0.34801800  1
  Al  Al0  1  0.16130100  0.83869900  0.43527300  1
  Al  Al1  1  0.16130100  0.32260200  0.43527300  1
  Al  Al2  1  0.67739800  0.83869900  0.43527300  1
  Si  Si0  1  0.00000000  0.00000000  0.70810800  1
  Si  Si1  1  0.00000000  0.00000000  0.21299800  1
  Si  Si2  1  0.34014100  0.17007000  0.93289900  1
  Si  Si3  1  0.82993000  0.65985900  0.93289900  1
  Si  Si4  1  0.82993000  0.17007000  0.93289900  1
  N  N0  1  0.14993600  0.85006400  0.26113100  1
  N  N1  1  0.00000000  0.00000000  0.53336700  1
  N  N2  1  0.00000000  0.00000000  0.01581800  1
  N  N3  1  0.14993600  0.29987100  0.26113100  1
  N  N4  1  0.29353600  0.14676800  0.77623400  1
  N  N5  1  0.49140300  0.50859700  0.49433200  1
  N  N6  1  0.70012900  0.85006400  0.26113100  1
  N  N7  1  0.49140300  0.98280700  0.49433200  1
  N  N8  1  0.85323200  0.70646400  0.77623400  1
  N  N9  1  0.01719300  0.50859700  0.49433200  1
  N  N10  1  0.85323200  0.14676800  0.77623400  1
  O  O0  1  0.94825500  0.47412800  0.98214100  1
  O  O1  1  0.52587200  0.05174500  0.98214100  1
  O  O2  1  0.52587200  0.47412800  0.98214100  1
loop_
_geom_bond_atom_site_label_1
_geom_bond_atom_site_label_2
_geom_bond_distance
_geom_bond_site_symmetry_2
Er0 N9 2.276299 1_555
Er0 N7 2.276299 1_555
Er0 N5 2.276299 1_555
Er1 N9 2.421701 1_655
Er1 N7 2.421701 1_545
Er1 N5 2.421710 1_555
Al0 N0 1.819455 1_555
Al0 N9 1.879835 1_555
Al0 N7 1.879835 1_555
Al0 N1 2.010627 1_565
Al1 N3 1.819456 1_555
Al1 N5 1.879835 1_555
Al1 N9 1.879841 1_555
Al1 N1 2.010627 1_555
Al2 N6 1.819456 1_555
Al2 N5 1.879835 1_555
Al2 N7 1.879841 1_555
Al2 N1 2.010627 1_665
N0 Si1 1.685603 1_565
N0 Sr0 2.380040 1_555
N1 Si0 1.821607 1_555
N2 Si4 2.019609 1_454
N2 Si2 2.019613 1_554
N2 Si3 2.019613 1_444
N2 Si1 2.055524 1_555
N3 Si1 1.685598 1_555
N3 Sr0 2.380049 1_555
N4 Si2 1.652209 1_555
N4 Si0 1.727884 1_555
N4 Sr1 2.402128 1_555
N5 Sr1 2.477063 1_555
N6 Si1 1.685598 1_665
N6 Sr0 2.380049 1_555
N7 Sr1 2.477055 1_565
N8 Si3 1.652209 1_555
N8 Si0 1.727884 1_665
N8 Sr1 2.402128 1_555
N9 Sr1 2.477055 1_455
N10 Si4 1.652209 1_555
N10 Si0 1.727884 1_655
N10 Sr1 2.402124 1_555
O0 Si3 1.723186 1_555
O0 Si4 1.723197 1_555
O0 Sr0 2.595385 1_656
O1 Si2 1.723186 1_555
O1 Si4 1.723197 1_555
O1 Sr0 2.595385 1_546
O2 Si3 1.723196 1_555
O2 Si2 1.723196 1_555
O2 Sr0 2.595385 1_556
