# generated using pymatgen
data_Nd2MoC2
_symmetry_space_group_name_H-M   'P 1'
_cell_length_a   5.82844295
_cell_length_b   5.82844501
_cell_length_c   10.36776929
_cell_angle_alpha   90.00003738
_cell_angle_beta   90.00002151
_cell_angle_gamma   89.99972200
_symmetry_Int_Tables_number   1
_chemical_formula_structural   Nd2MoC2
_chemical_formula_sum   'Nd8 Mo4 C8'
_cell_volume   352.20099428
_cell_formula_units_Z   4
loop_
 _symmetry_equiv_pos_site_id
 _symmetry_equiv_pos_as_xyz
  1  'x, y, z'
loop_
 _atom_site_type_symbol
 _atom_site_label
 _atom_site_symmetry_multiplicity
 _atom_site_fract_x
 _atom_site_fract_y
 _atom_site_fract_z
 _atom_site_occupancy
  Nd  Nd0  1  0.69728646  0.30271154  0.15556969  1
  Nd  Nd1  1  0.30271172  0.69728628  0.84443222  1
  Nd  Nd2  1  0.69728646  0.30271154  0.84443031  1
  Nd  Nd3  1  0.80270700  0.80270855  0.34439860  1
  Nd  Nd4  1  0.19729245  0.19729400  0.34439860  1
  Nd  Nd5  1  0.80270600  0.80270955  0.65560140  1
  Nd  Nd6  1  0.30271172  0.69728728  0.15556778  1
  Nd  Nd7  1  0.19729145  0.19729500  0.65560140  1
  Mo  Mo0  1  0.82442081  0.82442230  0.00000000  1
  Mo  Mo1  1  0.67557533  0.32442667  0.50000000  1
  Mo  Mo2  1  0.17557470  0.17557619  -0.00000000  1
  Mo  Mo3  1  0.32443351  0.67556949  0.50000000  1
  C  C0  1  0.50000325  0.00000891  0.50000000  1
  C  C1  1  0.50000295  0.49999705  0.35686475  1
  C  C2  1  0.00000024  0.49999782  0.00000100  1
  C  C3  1  0.50000295  0.49999705  0.64313525  1
  C  C4  1  0.99999838  0.00000062  0.85688402  1
  C  C5  1  -0.00000062  0.00000062  0.14311498  1
  C  C6  1  -0.00000291  0.49999775  0.50000000  1
  C  C7  1  0.49999818  0.00000076  0.00000000  1
loop_
_geom_bond_atom_site_label_1
_geom_bond_atom_site_label_2
_geom_bond_distance
_geom_bond_site_symmetry_2
C0 Mo1 2.150001 1_555
C0 Mo3 2.150105 1_545
C0 Nd4 2.652844 1_555
C0 Nd5 2.652849 1_545
C0 Nd7 2.652850 1_555
C0 Nd3 2.652855 1_545
C1 Mo3 2.072808 1_555
C1 Mo1 2.072811 1_555
C1 Nd4 2.498462 1_555
C1 Nd3 2.498470 1_555
C1 Nd0 2.645721 1_555
C1 Nd6 2.645768 1_555
C2 Mo2 2.150019 1_555
C2 Mo0 2.150047 1_455
C2 Nd6 2.652646 1_555
C2 Nd1 2.652658 1_554
C2 Nd0 2.652661 1_455
C2 Nd2 2.652672 1_454
C3 Mo3 2.072808 1_555
C3 Mo1 2.072810 1_555
C3 Nd7 2.498462 1_555
C3 Nd5 2.498470 1_555
C3 Nd2 2.645721 1_555
C3 Nd1 2.645765 1_555
C4 Mo2 2.072698 1_656
C4 Mo0 2.072711 1_546
C4 Nd2 2.498481 1_555
C4 Nd1 2.498500 1_645
C4 Nd5 2.645660 1_545
C4 Nd7 2.645672 1_655
C5 Mo2 2.072689 1_555
C5 Mo0 2.072705 1_445
C5 Nd0 2.498486 1_455
C5 Nd6 2.498492 1_545
C5 Nd3 2.645672 1_445
C5 Nd4 2.645676 1_555
C6 Mo1 2.150018 1_455
C6 Mo3 2.150095 1_555
C6 Nd7 2.652837 1_555
C6 Nd4 2.652842 1_555
C6 Nd3 2.652857 1_455
C6 Nd5 2.652863 1_455
C7 Mo2 2.150030 1_555
C7 Mo0 2.150034 1_545
C7 Nd6 2.652655 1_545
C7 Nd1 2.652657 1_544
C7 Nd0 2.652659 1_555
C7 Nd2 2.652661 1_554
