# generated using pymatgen
data_As2Pb2S5
_symmetry_space_group_name_H-M   'P 1'
_cell_length_a   26.23510900
_cell_length_b   8.21752300
_cell_length_c   8.47963186
_cell_angle_alpha   89.95291812
_cell_angle_beta   90.00000000
_cell_angle_gamma   90.00000000
_symmetry_Int_Tables_number   1
_chemical_formula_structural   As2Pb2S5
_chemical_formula_sum   'As16 Pb16 S40'
_cell_volume   1828.10296349
_cell_formula_units_Z   8
loop_
 _symmetry_equiv_pos_site_id
 _symmetry_equiv_pos_as_xyz
  1  'x, y, z'
loop_
 _atom_site_type_symbol
 _atom_site_label
 _atom_site_symmetry_multiplicity
 _atom_site_fract_x
 _atom_site_fract_y
 _atom_site_fract_z
 _atom_site_occupancy
  As  As0  1  0.45197400  0.55885800  0.44214600  1
  As  As1  1  0.34579900  0.27974000  0.63622400  1
  As  As2  1  0.96032200  0.43876700  0.11410500  1
  As  As3  1  0.36485000  0.89222800  0.37347800  1
  As  As4  1  0.46032200  0.56123300  0.88589500  1
  As  As5  1  0.64065500  0.05676700  0.82502800  1
  As  As6  1  0.95197400  0.44114200  0.55785400  1
  As  As7  1  0.86485000  0.10777200  0.62652200  1
  As  As8  1  0.35439100  0.88674700  0.96003700  1
  As  As9  1  0.84579900  0.72026000  0.36377600  1
  As  As10  1  0.85439100  0.11325300  0.03996300  1
  As  As11  1  0.63463900  0.05953800  0.36955900  1
  As  As12  1  0.14065500  0.94323300  0.17497200  1
  As  As13  1  0.23095100  0.63150600  0.11205300  1
  As  As14  1  0.13463900  0.94046200  0.63044100  1
  As  As15  1  0.73095100  0.36849400  0.88794700  1
  Pb  Pb0  1  0.59426600  0.46866100  0.62207300  1
  Pb  Pb1  1  0.22916100  0.21500800  0.39976500  1
  Pb  Pb2  1  0.99627100  0.03563500  0.36025400  1
  Pb  Pb3  1  0.72916100  0.78499200  0.60023500  1
  Pb  Pb4  1  0.09426600  0.53133900  0.37792700  1
  Pb  Pb5  1  0.72495900  0.80276000  0.12620700  1
  Pb  Pb6  1  0.49772700  0.96063400  0.13475000  1
  Pb  Pb7  1  0.59877300  0.46184500  0.12912000  1
  Pb  Pb8  1  0.25594200  0.64565700  0.65005300  1
  Pb  Pb9  1  0.75594200  0.35434300  0.34994700  1
  Pb  Pb10  1  0.99772700  0.03936600  0.86525000  1
  Pb  Pb11  1  0.37584100  0.30718900  0.13910200  1
  Pb  Pb12  1  0.49627100  0.96436500  0.63974600  1
  Pb  Pb13  1  0.22495900  0.19724000  0.87379300  1
  Pb  Pb14  1  0.09877300  0.53815500  0.87088000  1
  Pb  Pb15  1  0.87584100  0.69281100  0.86089800  1
  S  S0  1  0.98294700  0.59335200  0.34170400  1
  S  S1  1  0.48649100  0.39553500  0.07742700  1
  S  S2  1  0.80252400  0.96164300  0.88207400  1
  S  S3  1  0.61106700  0.90918000  0.60046700  1
  S  S4  1  0.10904100  0.10401700  0.82174700  1
  S  S5  1  0.29555400  0.05241700  0.63427400  1
  S  S6  1  0.60904100  0.89598300  0.17825300  1
  S  S7  1  0.52785900  0.73765700  0.88216200  1
  S  S8  1  0.90053600  0.25936600  0.83814200  1
  S  S9  1  0.81225900  0.57326400  0.57862100  1
  S  S10  1  0.91971600  0.89531100  0.62148700  1
  S  S11  1  0.18247900  0.41296000  0.62497100  1
  S  S12  1  0.91505400  0.92775900  0.09913100  1
  S  S13  1  0.69252300  0.22908600  0.67504800  1
  S  S14  1  0.41505400  0.07224100  0.90086900  1
  S  S15  1  0.02111200  0.28446800  0.60297800  1
  S  S16  1  0.18241800  0.40168600  0.12645700  1
  S  S17  1  0.40357300  0.74163000  0.58645100  1
  S  S18  1  0.56828600  0.24131900  0.37456500  1
  S  S19  1  0.30252400  0.03835700  0.11792600  1
  S  S20  1  0.80823700  0.57224400  0.15387400  1
  S  S21  1  0.68247900  0.58704000  0.37502900  1
  S  S22  1  0.40053600  0.74063400  0.16185800  1
  S  S23  1  0.19186900  0.76183800  0.91006600  1
  S  S24  1  0.31225900  0.42673600  0.42137900  1
  S  S25  1  0.11106700  0.09082000  0.39953300  1
  S  S26  1  0.07293400  0.78140900  0.13692500  1
  S  S27  1  0.57293400  0.21859100  0.86307500  1
  S  S28  1  0.79555400  0.94758300  0.36572600  1
  S  S29  1  0.41971600  0.10468900  0.37851300  1
  S  S30  1  0.68241800  0.59831400  0.87354300  1
  S  S31  1  0.19252300  0.77091400  0.32495200  1
  S  S32  1  0.48294700  0.40664800  0.65829600  1
  S  S33  1  0.30823700  0.42775600  0.84612600  1
  S  S34  1  0.06828600  0.75868100  0.62543500  1
  S  S35  1  0.02785900  0.26234300  0.11783800  1
  S  S36  1  0.52111200  0.71553200  0.39702200  1
  S  S37  1  0.90357300  0.25837000  0.41354900  1
  S  S38  1  0.69186900  0.23816200  0.08993400  1
  S  S39  1  0.98649100  0.60446500  0.92257300  1
loop_
_geom_bond_atom_site_label_1
_geom_bond_atom_site_label_2
_geom_bond_distance
_geom_bond_site_symmetry_2
As0 S36 2.256814 1_555
As0 S17 2.317015 1_555
As0 S32 2.362290 1_555
As1 S5 2.286367 1_555
As1 S24 2.355580 1_555
As1 S33 2.371100 1_555
As2 S39 2.226995 1_554
As2 S35 2.289579 1_655
As2 S0 2.386370 1_555
As3 S29 2.263192 1_565
As3 S22 2.377418 1_555
As3 S17 2.412735 1_555
As4 S1 2.226995 1_556
As4 S7 2.289579 1_555
As4 S32 2.386370 1_555
As5 S27 2.242697 1_555
As5 S13 2.339077 1_555
As5 S3 2.388135 1_545
As6 S15 2.256814 1_655
As6 S37 2.317015 1_555
As6 S0 2.362290 1_555
As7 S10 2.263192 1_545
As7 S8 2.377418 1_555
As7 S37 2.412735 1_555
As8 S14 2.259831 1_565
As8 S19 2.280132 1_566
As8 S22 2.415088 1_556
As9 S28 2.286367 1_555
As9 S9 2.355580 1_555
As9 S20 2.371100 1_555
As10 S12 2.259831 1_545
As10 S2 2.280132 1_544
As10 S8 2.415088 1_554
As11 S6 2.211903 1_545
As11 S18 2.294258 1_555
As11 S3 2.395603 1_545
As12 S26 2.242697 1_555
As12 S31 2.339077 1_555
As12 S25 2.388135 1_565
As13 S23 2.264712 1_554
As13 S16 2.280872 1_555
As13 S31 2.364591 1_555
As14 S4 2.211903 1_565
As14 S34 2.294258 1_555
As14 S25 2.395603 1_565
As15 S38 2.264712 1_556
As15 S30 2.280872 1_555
As15 S13 2.364591 1_555
Pb0 S18 2.892403 1_555
Pb0 S27 2.950505 1_555
Pb0 S32 2.980419 1_555
Pb0 S21 3.269128 1_555
Pb1 S11 2.792472 1_555
Pb1 S24 2.795365 1_555
Pb1 S5 2.961263 1_555
Pb1 S16 3.036821 1_555
Pb2 S35 2.894244 1_655
Pb2 S15 2.974733 1_655
Pb2 S25 3.063835 1_655
Pb2 S37 3.077344 1_555
Pb2 S12 3.198734 1_545
Pb2 S10 3.204091 1_545
Pb3 S21 2.792472 1_555
Pb3 S9 2.795365 1_555
Pb3 S28 2.961263 1_555
Pb3 S30 3.036821 1_555
Pb4 S34 2.892403 1_555
Pb4 S26 2.950505 1_555
Pb4 S0 2.980419 1_455
Pb4 S11 3.269128 1_555
Pb5 S20 2.901026 1_555
Pb5 S30 2.943527 1_554
Pb5 S21 2.971541 1_555
Pb5 S28 2.995918 1_555
Pb5 S6 3.167112 1_555
Pb5 S2 3.182246 1_554
Pb6 S7 2.928531 1_554
Pb6 S6 2.991047 1_555
Pb6 S36 3.061339 1_555
Pb6 S14 3.078247 1_564
Pb6 S22 3.134016 1_555
Pb6 S29 3.141115 1_565
Pb7 S18 2.872152 1_555
Pb7 S1 3.027669 1_555
Pb7 S38 3.074954 1_555
Pb7 S27 3.090647 1_554
Pb7 S21 3.198851 1_555
Pb7 S30 3.281147 1_554
Pb8 S11 2.723400 1_555
Pb8 S33 2.801427 1_555
Pb8 S23 2.932881 1_555
Pb8 S24 3.030684 1_555
Pb9 S21 2.723400 1_555
Pb9 S20 2.801427 1_555
Pb9 S38 2.932881 1_555
Pb9 S9 3.030684 1_555
Pb10 S35 2.928531 1_656
Pb10 S4 2.991047 1_655
Pb10 S15 3.061339 1_655
Pb10 S12 3.078247 1_546
Pb10 S8 3.134016 1_555
Pb10 S10 3.141115 1_545
Pb11 S29 2.865280 1_555
Pb11 S19 2.934781 1_555
Pb11 S14 2.978798 1_554
Pb11 S1 3.037574 1_555
Pb11 S24 3.079087 1_555
Pb11 S33 3.208598 1_554
Pb12 S7 2.894244 1_555
Pb12 S36 2.974733 1_555
Pb12 S3 3.063835 1_555
Pb12 S17 3.077344 1_555
Pb12 S14 3.198734 1_565
Pb12 S29 3.204091 1_565
Pb13 S33 2.901026 1_555
Pb13 S16 2.943527 1_556
Pb13 S11 2.971541 1_555
Pb13 S5 2.995918 1_555
Pb13 S4 3.167112 1_555
Pb13 S19 3.182246 1_556
Pb14 S34 2.872152 1_555
Pb14 S39 3.027669 1_455
Pb14 S23 3.074954 1_555
Pb14 S26 3.090647 1_556
Pb14 S11 3.198851 1_555
Pb14 S16 3.281147 1_556
Pb15 S10 2.865280 1_555
Pb15 S2 2.934781 1_555
Pb15 S12 2.978798 1_556
Pb15 S39 3.037574 1_555
Pb15 S9 3.079087 1_555
Pb15 S20 3.208598 1_556
