# generated using pymatgen
data_Li5B4
_symmetry_space_group_name_H-M   'P 1'
_cell_length_a   4.77913107
_cell_length_b   4.77913107
_cell_length_c   3.81832083
_cell_angle_alpha   85.57075287
_cell_angle_beta   85.57075287
_cell_angle_gamma   91.82909386
_symmetry_Int_Tables_number   1
_chemical_formula_structural   Li5B4
_chemical_formula_sum   'Li5 B4'
_cell_volume   86.62769118
_cell_formula_units_Z   1
loop_
 _symmetry_equiv_pos_site_id
 _symmetry_equiv_pos_as_xyz
  1  'x, y, z'
loop_
 _atom_site_type_symbol
 _atom_site_label
 _atom_site_symmetry_multiplicity
 _atom_site_fract_x
 _atom_site_fract_y
 _atom_site_fract_z
 _atom_site_occupancy
  Li  Li0  1  0.57040800  0.57040800  0.71126300  1
  Li  Li1  1  0.38836100  0.87912900  0.23858000  1
  Li  Li2  1  0.87912900  0.38836100  0.23858000  1
  Li  Li3  1  0.37374400  0.37374400  0.23704800  1
  Li  Li4  1  0.16534800  0.16534800  0.75903700  1
  B  B0  1  0.84928500  0.84928500  0.97043700  1
  B  B1  1  0.65735700  0.07805700  0.72300900  1
  B  B2  1  0.07805700  0.65735700  0.72300900  1
  B  B3  1  0.88831000  0.88831000  0.47403600  1
loop_
_geom_bond_atom_site_label_1
_geom_bond_atom_site_label_2
_geom_bond_distance
_geom_bond_site_symmetry_2
Li0 Li3 2.271122 1_556
Li0 Li3 2.348349 1_555
Li1 Li3 2.366659 1_565
Li1 Li3 2.414553 1_555
Li2 Li3 2.366659 1_655
Li2 Li3 2.414553 1_555
Li3 Li4 2.297792 1_555
Li3 Li4 2.411102 1_554
B0 B2 1.722676 1_655
B0 B1 1.722676 1_565
B0 B3 1.884345 1_555
B0 B3 1.968677 1_556
B0 Li4 2.166223 1_665
B0 Li0 2.196822 1_555
B0 Li2 2.369658 1_556
B0 Li1 2.369658 1_556
B1 B3 1.726076 1_545
B1 Li1 2.382011 1_546
B1 Li4 2.396549 1_555
B1 Li0 2.400070 1_555
B1 Li2 2.432522 1_555
B1 Li0 2.452769 1_545
B1 Li4 2.466324 1_655
B1 Li1 2.557109 1_545
B1 Li3 2.717153 1_555
B1 Li3 2.797555 1_556
B1 Li2 2.805509 1_556
B2 B3 1.726076 1_455
B2 Li2 2.382011 1_456
B2 Li4 2.396549 1_555
B2 Li0 2.400070 1_555
B2 Li1 2.432522 1_555
B2 Li0 2.452769 1_455
B2 Li4 2.466324 1_565
B2 Li2 2.557109 1_455
B2 Li3 2.717153 1_555
B2 Li3 2.797555 1_556
B2 Li1 2.805509 1_556
B3 Li0 2.205569 1_555
B3 Li4 2.241288 1_665
B3 Li1 2.490447 1_655
B3 Li2 2.490447 1_565
B3 Li2 2.617300 1_555
B3 Li1 2.617300 1_555
