# generated using pymatgen
data_Cu3P4Se4Br3
_symmetry_space_group_name_H-M   'P 1'
_cell_length_a   6.50725900
_cell_length_b   19.28822100
_cell_length_c   34.06127616
_cell_angle_alpha   89.87262838
_cell_angle_beta   90.00000000
_cell_angle_gamma   90.00000000
_symmetry_Int_Tables_number   1
_chemical_formula_structural   Cu3P4Se4Br3
_chemical_formula_sum   'Cu36 P48 Se48 Br36'
_cell_volume   4275.13770869
_cell_formula_units_Z   12
loop_
 _symmetry_equiv_pos_site_id
 _symmetry_equiv_pos_as_xyz
  1  'x, y, z'
loop_
 _atom_site_type_symbol
 _atom_site_label
 _atom_site_symmetry_multiplicity
 _atom_site_fract_x
 _atom_site_fract_y
 _atom_site_fract_z
 _atom_site_occupancy
  Cu  Cu0  1  0.73901100  0.12410100  0.07020500  1
  Cu  Cu1  1  0.96506800  0.12321900  0.73539200  1
  Cu  Cu2  1  0.27282700  0.67592400  0.64619600  1
  Cu  Cu3  1  0.23901100  0.87589900  0.92979500  1
  Cu  Cu4  1  0.23487700  0.69612500  0.85840300  1
  Cu  Cu5  1  0.74898100  0.82827900  0.53220200  1
  Cu  Cu6  1  0.75233400  0.80178600  0.98575300  1
  Cu  Cu7  1  0.77016900  0.62570600  0.58195700  1
  Cu  Cu8  1  0.24975300  0.69712800  0.52531100  1
  Cu  Cu9  1  0.46506800  0.87678100  0.26460800  1
  Cu  Cu10  1  0.27016900  0.37429400  0.41804300  1
  Cu  Cu11  1  0.73113500  0.82472700  0.86436300  1
  Cu  Cu12  1  0.47024400  0.67744900  0.31259400  1
  Cu  Cu13  1  0.95166100  0.30464500  0.80912700  1
  Cu  Cu14  1  0.77717100  0.79898900  0.65234500  1
  Cu  Cu15  1  0.74975300  0.30287200  0.47468900  1
  Cu  Cu16  1  0.46952900  0.20090500  0.68043600  1
  Cu  Cu17  1  0.46732900  0.37262800  0.75121900  1
  Cu  Cu18  1  0.74611400  0.62549800  0.91653300  1
  Cu  Cu19  1  0.23113500  0.17527300  0.13563700  1
  Cu  Cu20  1  0.77282700  0.32407600  0.35380400  1
  Cu  Cu21  1  0.24898100  0.17172100  0.46779800  1
  Cu  Cu22  1  0.45166100  0.69535500  0.19087300  1
  Cu  Cu23  1  0.24894000  0.67878100  0.97970600  1
  Cu  Cu24  1  0.74894000  0.32121900  0.02029400  1
  Cu  Cu25  1  0.73487700  0.30387500  0.14159700  1
  Cu  Cu26  1  0.96732900  0.62737200  0.24878100  1
  Cu  Cu27  1  0.27717100  0.20101100  0.34765500  1
  Cu  Cu28  1  0.95222100  0.83071800  0.19811900  1
  Cu  Cu29  1  0.96952900  0.79909500  0.31956400  1
  Cu  Cu30  1  0.45222100  0.16928200  0.80188100  1
  Cu  Cu31  1  0.25233400  0.19821400  0.01424700  1
  Cu  Cu32  1  0.24611400  0.37450200  0.08346700  1
  Cu  Cu33  1  0.97024400  0.32255100  0.68740600  1
  Cu  Cu34  1  0.26362300  0.87609200  0.59792800  1
  Cu  Cu35  1  0.76362300  0.12390800  0.40207200  1
  P  P0  1  0.36268600  0.98515500  0.59381300  1
  P  P1  1  0.10685200  0.55924900  0.06421800  1
  P  P2  1  0.83974200  0.01519900  0.07267700  1
  P  P3  1  0.37036000  0.48330700  0.41970700  1
  P  P4  1  0.80538400  0.87801300  0.47503200  1
  P  P5  1  0.35001400  0.48314700  0.08350600  1
  P  P6  1  0.40520600  0.62127700  0.36769200  1
  P  P7  1  0.86876300  0.87667100  0.14143000  1
  P  P8  1  0.91328500  0.86032300  0.37313300  1
  P  P9  1  0.14473200  0.54472300  0.72595300  1
  P  P10  1  0.89869300  0.01144000  0.73939500  1
  P  P11  1  0.36839200  0.64206300  0.13642300  1
  P  P12  1  0.36751900  0.62238700  0.70048000  1
  P  P13  1  0.64023400  0.93949000  0.71992800  1
  P  P14  1  0.30586200  0.64227400  0.46990400  1
  P  P15  1  0.10540300  0.06871300  0.93901600  1
  P  P16  1  0.34859700  0.62247300  0.03278400  1
  P  P17  1  0.41059700  0.48507200  0.75281700  1
  P  P18  1  0.60685200  0.44075100  0.93578200  1
  P  P19  1  0.29999000  0.64196900  0.80310300  1
  P  P20  1  0.14210800  0.55405900  0.39000500  1
  P  P21  1  0.36876300  0.12332900  0.85857000  1
  P  P22  1  0.85001400  0.51685300  0.91649400  1
  P  P23  1  0.79541800  0.87446200  0.80748400  1
  P  P24  1  0.86751900  0.37761300  0.29952000  1
  P  P25  1  0.29541800  0.12553800  0.19251600  1
  P  P26  1  0.64210800  0.44594100  0.60999500  1
  P  P27  1  0.41328500  0.13967700  0.62686700  1
  P  P28  1  0.33974200  0.98480100  0.92732300  1
  P  P29  1  0.87350900  0.85731100  0.70498500  1
  P  P30  1  0.91059700  0.51492800  0.24718300  1
  P  P31  1  0.35535100  0.13781000  0.96286000  1
  P  P32  1  0.64473200  0.45527700  0.27404700  1
  P  P33  1  0.79999000  0.35803100  0.19689700  1
  P  P34  1  0.60540300  0.93128700  0.06098400  1
  P  P35  1  0.86839200  0.35793700  0.86357700  1
  P  P36  1  0.14023400  0.06051000  0.28007200  1
  P  P37  1  0.37350900  0.14268900  0.29501500  1
  P  P38  1  0.64382000  0.93190800  0.38529400  1
  P  P39  1  0.30538400  0.12198700  0.52496800  1
  P  P40  1  0.84859700  0.37752700  0.96721600  1
  P  P41  1  0.86268600  0.01484500  0.40618700  1
  P  P42  1  0.14382000  0.06809200  0.61470600  1
  P  P43  1  0.90520600  0.37872300  0.63230800  1
  P  P44  1  0.39869300  0.98856000  0.26060500  1
  P  P45  1  0.80586200  0.35772600  0.53009600  1
  P  P46  1  0.85535100  0.86219000  0.03714000  1
  P  P47  1  0.87036000  0.51669300  0.58029300  1
  Se  Se0  1  0.53935300  0.03776300  0.97498600  1
  Se  Se1  1  0.04228200  0.47815300  0.96916300  1
  Se  Se2  1  0.60823000  0.53426700  0.70394800  1
  Se  Se3  1  0.94837400  0.80208200  0.76329900  1
  Se  Se4  1  0.54228200  0.52184700  0.03083700  1
  Se  Se5  1  0.43991900  0.69858600  0.75025200  1
  Se  Se6  1  0.03935300  0.96223700  0.02501400  1
  Se  Se7  1  0.47711400  0.54048200  0.81107100  1
  Se  Se8  1  0.50157300  0.89271700  0.44037800  1
  Se  Se9  1  0.49251700  0.53153900  0.13901400  1
  Se  Se10  1  0.99366200  0.09872200  0.22527800  1
  Se  Se11  1  0.00157300  0.10728300  0.55962200  1
  Se  Se12  1  0.99251700  0.46846100  0.86098600  1
  Se  Se13  1  0.49853600  0.39878600  0.22464500  1
  Se  Se14  1  0.97210500  0.30481400  0.58139200  1
  Se  Se15  1  0.48969100  0.69257200  0.08028000  1
  Se  Se16  1  0.60450500  0.52271800  0.37396300  1
  Se  Se17  1  0.44837400  0.19791800  0.23670100  1
  Se  Se18  1  0.60398100  0.05245200  0.30245800  1
  Se  Se19  1  0.10450500  0.47728200  0.62603700  1
  Se  Se20  1  0.48153500  0.19160800  0.56756100  1
  Se  Se21  1  0.60632000  0.03988400  0.63236000  1
  Se  Se22  1  0.50084500  0.38760300  0.56080700  1
  Se  Se23  1  0.53072100  0.88699200  0.11959600  1
  Se  Se24  1  0.53058500  0.38039200  0.88228900  1
  Se  Se25  1  0.45157600  0.53572600  0.47840100  1
  Se  Se26  1  0.43905500  0.01244700  0.52994500  1
  Se  Se27  1  0.95157600  0.46427400  0.52159900  1
  Se  Se28  1  0.00084500  0.61239700  0.43919300  1
  Se  Se29  1  0.98101800  0.98762300  0.13249400  1
  Se  Se30  1  0.93991900  0.30141400  0.24974800  1
  Se  Se31  1  0.99853600  0.60121400  0.77535500  1
  Se  Se32  1  0.03072100  0.11300800  0.88040400  1
  Se  Se33  1  0.48101800  0.01237700  0.86750600  1
  Se  Se34  1  0.10632000  0.96011600  0.36764000  1
  Se  Se35  1  0.97711400  0.45951800  0.18892900  1
  Se  Se36  1  0.98969100  0.30742800  0.91972000  1
  Se  Se37  1  0.98153500  0.80839200  0.43243900  1
  Se  Se38  1  0.49366200  0.90127800  0.77472200  1
  Se  Se39  1  0.47210500  0.69518600  0.41860800  1
  Se  Se40  1  0.10398100  0.94754800  0.69754200  1
  Se  Se41  1  0.10823000  0.46573300  0.29605200  1
  Se  Se42  1  0.96117300  0.97918100  0.80300000  1
  Se  Se43  1  0.03058500  0.61960800  0.11771100  1
  Se  Se44  1  0.93905500  0.98755300  0.47005500  1
  Se  Se45  1  0.50018200  0.18937200  0.90830300  1
  Se  Se46  1  0.46117300  0.02081900  0.19700000  1
  Se  Se47  1  0.00018200  0.81062800  0.09169700  1
  Br  Br0  1  0.35790900  0.80327900  0.98566200  1
  Br  Br1  1  0.84018400  0.18176500  0.13361600  1
  Br  Br2  1  0.86870500  0.19810400  0.67979500  1
  Br  Br3  1  0.86042700  0.87747100  0.26362400  1
  Br  Br4  1  0.84799000  0.87503100  0.92725800  1
  Br  Br5  1  0.36845200  0.32331500  0.68608900  1
  Br  Br6  1  0.34021000  0.81622700  0.20382100  1
  Br  Br7  1  0.34799000  0.12496900  0.07274200  1
  Br  Br8  1  0.38027700  0.32386100  0.35355700  1
  Br  Br9  1  0.37120000  0.12413300  0.40458600  1
  Br  Br10  1  0.85654200  0.67886800  0.98038800  1
  Br  Br11  1  0.34018400  0.81823500  0.86638400  1
  Br  Br12  1  0.84021000  0.18377300  0.79617900  1
  Br  Br13  1  0.35838600  0.81856300  0.53405800  1
  Br  Br14  1  0.37549700  0.62538400  0.58231700  1
  Br  Br15  1  0.85838600  0.18143700  0.46594200  1
  Br  Br16  1  0.84042900  0.70582400  0.19713000  1
  Br  Br17  1  0.35286300  0.62561500  0.91625900  1
  Br  Br18  1  0.85859000  0.70354900  0.52710000  1
  Br  Br19  1  0.85790900  0.19672100  0.01433800  1
  Br  Br20  1  0.87549700  0.37461600  0.41768300  1
  Br  Br21  1  0.36870500  0.80189600  0.32020500  1
  Br  Br22  1  0.38230200  0.80090500  0.65249400  1
  Br  Br23  1  0.36411400  0.62402200  0.25012600  1
  Br  Br24  1  0.88027700  0.67613900  0.64644300  1
  Br  Br25  1  0.87120000  0.87586700  0.59541400  1
  Br  Br26  1  0.88230200  0.19909500  0.34750600  1
  Br  Br27  1  0.86845200  0.67668500  0.31391100  1
  Br  Br28  1  0.86411400  0.37597800  0.74987400  1
  Br  Br29  1  0.35859000  0.29645100  0.47290000  1
  Br  Br30  1  0.34247100  0.29981200  0.13954700  1
  Br  Br31  1  0.35654200  0.32113200  0.01961200  1
  Br  Br32  1  0.84247100  0.70018800  0.86045300  1
  Br  Br33  1  0.34042900  0.29417600  0.80287000  1
  Br  Br34  1  0.85286300  0.37438500  0.08374100  1
  Br  Br35  1  0.36042700  0.12252900  0.73637600  1
loop_
_geom_bond_atom_site_label_1
_geom_bond_atom_site_label_2
_geom_bond_distance
_geom_bond_site_symmetry_2
Cu0 P2 2.201856 1_555
Cu1 P10 2.202783 1_555
Cu2 P12 2.203693 1_555
Cu3 P28 2.201856 1_555
Cu4 P19 2.197115 1_555
Cu5 P4 2.199667 1_555
Cu6 P46 2.208947 1_556
Cu7 P47 2.202275 1_555
Cu8 P14 2.196196 1_555
Cu9 P44 2.202783 1_555
Cu10 P3 2.202275 1_555
Cu11 P23 2.200086 1_555
Cu12 P6 2.205899 1_555
Cu13 P35 2.190514 1_555
Cu14 P29 2.209576 1_555
Cu15 P45 2.196196 1_555
Cu16 P27 2.206244 1_555
Cu17 P17 2.200832 1_555
Cu18 P22 2.201940 1_555
Cu19 P25 2.200086 1_555
Cu20 P24 2.203693 1_555
Cu21 P39 2.199667 1_555
Cu22 P11 2.190514 1_555
Cu23 P16 2.204519 1_556
Cu24 P40 2.204519 1_554
Cu25 P33 2.197115 1_555
Cu26 P30 2.200832 1_555
Cu27 P37 2.209576 1_555
Cu28 P7 2.191192 1_555
Cu29 P8 2.206244 1_555
Cu30 P21 2.191192 1_555
Cu31 P31 2.208947 1_554
Cu32 P5 2.201940 1_555
Cu33 P43 2.205899 1_555
Cu34 P0 2.204347 1_555
Cu35 P41 2.204347 1_555
P0 P42 2.258087 1_565
P0 Se26 2.291606 1_565
P0 Se21 2.314699 1_565
P1 Se43 2.220578 1_555
P1 P5 2.255151 1_555
P1 P16 2.258831 1_555
P2 P34 2.259737 1_545
P2 Se29 2.296609 1_545
P2 Se6 2.318135 1_645
P3 Se25 2.303763 1_555
P3 Se16 2.306891 1_555
P4 Se37 2.287051 1_555
P4 Se44 2.290810 1_555
P4 Se8 2.319619 1_555
P5 Se9 2.305127 1_555
P5 Se4 2.309746 1_555
P6 Se39 2.289199 1_555
P6 Se16 2.310768 1_555
P7 Se29 2.281057 1_555
P7 Se47 2.287609 1_655
P7 Se23 2.330419 1_555
P8 Se37 2.296109 1_555
P8 Se34 2.305696 1_655
P9 Se31 2.220789 1_455
P10 P13 2.279991 1_545
P10 Se42 2.289115 1_545
P10 Se40 2.311557 1_645
P11 Se9 2.281222 1_555
P11 Se15 2.284901 1_555
P11 Se43 2.329616 1_555
P12 P9 2.256713 1_555
P12 Se5 2.295042 1_555
P12 Se2 2.314190 1_555
P13 Se38 2.220381 1_555
P13 P29 2.253755 1_555
P14 Se25 2.281167 1_555
P14 Se39 2.292738 1_555
P14 Se28 2.317010 1_555
P15 Se32 2.223545 1_555
P15 P31 2.255234 1_555
P15 P28 2.259737 1_545
P16 Se15 2.301744 1_555
P16 Se4 2.315287 1_555
P17 P9 2.269242 1_555
P17 Se7 2.296977 1_555
P17 Se2 2.306074 1_555
P18 Se24 2.220578 1_555
P18 P22 2.255151 1_555
P18 P40 2.258831 1_555
P19 Se7 2.287266 1_555
P19 Se5 2.292061 1_555
P19 Se31 2.315717 1_455
P20 Se28 2.219576 1_555
P20 P3 2.255178 1_555
P20 P6 2.277123 1_555
P21 Se33 2.281057 1_555
P21 Se45 2.287609 1_555
P21 Se32 2.330419 1_555
P22 Se12 2.305127 1_555
P22 Se1 2.309746 1_655
P23 Se3 2.283434 1_555
P23 Se42 2.294586 1_555
P23 Se38 2.316457 1_555
P24 P32 2.256713 1_555
P24 Se30 2.295042 1_555
P24 Se41 2.314190 1_655
P25 Se17 2.283434 1_555
P25 Se46 2.294586 1_555
P25 Se10 2.316457 1_455
P26 Se22 2.219576 1_555
P26 P47 2.255178 1_555
P26 P43 2.277123 1_555
P27 P42 2.270522 1_555
P27 Se20 2.296109 1_555
P27 Se21 2.305696 1_555
P28 Se33 2.296609 1_565
P28 Se0 2.318135 1_565
P29 Se3 2.303890 1_555
P29 Se40 2.311041 1_655
P30 P32 2.269242 1_555
P30 Se35 2.296977 1_555
P30 Se41 2.306074 1_655
P31 Se45 2.307015 1_555
P31 Se0 2.307497 1_555
P32 Se13 2.220789 1_555
P33 Se35 2.287266 1_555
P33 Se30 2.292061 1_555
P33 Se13 2.315717 1_555
P34 Se23 2.223545 1_555
P34 P46 2.255234 1_555
P35 Se12 2.281222 1_555
P35 Se36 2.284901 1_555
P35 Se24 2.329616 1_555
P36 Se10 2.220381 1_455
P36 P37 2.253755 1_555
P36 P44 2.279991 1_545
P37 Se17 2.303890 1_555
P37 Se18 2.311041 1_555
P38 Se8 2.223098 1_555
P38 P41 2.258087 1_565
P38 P8 2.270522 1_555
P39 Se20 2.287051 1_555
P39 Se26 2.290810 1_555
P39 Se11 2.319619 1_555
P40 Se36 2.301744 1_555
P40 Se1 2.315287 1_655
P41 Se44 2.291606 1_545
P41 Se34 2.314699 1_645
P42 Se11 2.223098 1_555
P43 Se14 2.289199 1_555
P43 Se19 2.310768 1_655
P44 Se46 2.289115 1_565
P44 Se18 2.311557 1_565
P45 Se27 2.281167 1_555
P45 Se14 2.292738 1_555
P45 Se22 2.317010 1_555
P46 Se47 2.307015 1_655
P46 Se6 2.307497 1_655
P47 Se27 2.303763 1_555
P47 Se19 2.306891 1_655
Br0 Cu3 2.483905 1_555
Br0 Cu23 2.512486 1_555
Br0 Cu6 2.566789 1_555
Br1 Cu25 2.468541 1_555
Br1 Cu0 2.519162 1_555
Br1 Cu19 2.548022 1_655
Br2 Cu1 2.460375 1_555
Br2 Cu33 2.503654 1_555
Br2 Cu16 2.598196 1_555
Br3 Cu28 2.481358 1_555
Br3 Cu29 2.531219 1_555
Br3 Cu9 2.572956 1_555
Br4 Cu11 2.473514 1_555
Br4 Cu6 2.518047 1_555
Br4 Cu3 2.545998 1_655
Br5 Cu16 2.458936 1_555
Br5 Cu17 2.499884 1_555
Br5 Cu33 2.591672 1_455
Br6 Cu22 2.482036 1_555
Br6 Cu9 2.514350 1_555
Br6 Cu28 2.547536 1_455
Br7 Cu19 2.473514 1_555
Br7 Cu31 2.518047 1_555
Br7 Cu0 2.545998 1_555
Br8 Cu27 2.471334 1_555
Br8 Cu10 2.508714 1_555
Br8 Cu20 2.554442 1_555
Br9 Cu21 2.473779 1_555
Br9 Cu27 2.514098 1_555
Br9 Cu35 2.555037 1_555
Br10 Cu6 2.473090 1_555
Br10 Cu18 2.513276 1_555
Br10 Cu23 2.553542 1_655
Br11 Cu4 2.468541 1_555
Br11 Cu3 2.519162 1_555
Br11 Cu11 2.548022 1_555
Br12 Cu13 2.482036 1_555
Br12 Cu1 2.514350 1_555
Br12 Cu30 2.547536 1_555
Br13 Cu8 2.465316 1_555
Br13 Cu34 2.520921 1_555
Br13 Cu5 2.549376 1_555
Br14 Cu2 2.477939 1_555
Br14 Cu8 2.518475 1_555
Br14 Cu7 2.568270 1_555
Br15 Cu15 2.465316 1_555
Br15 Cu35 2.520921 1_555
Br15 Cu21 2.549376 1_655
Br16 Cu26 2.460684 1_555
Br16 Cu28 2.516723 1_555
Br16 Cu22 2.546831 1_555
Br17 Cu23 2.487784 1_555
Br17 Cu4 2.512099 1_555
Br17 Cu18 2.559004 1_555
Br18 Cu7 2.462567 1_555
Br18 Cu5 2.515702 1_555
Br18 Cu8 2.549145 1_655
Br19 Cu0 2.483905 1_555
Br19 Cu24 2.512486 1_555
Br19 Cu31 2.566789 1_655
Br20 Cu20 2.477939 1_555
Br20 Cu15 2.518475 1_555
Br20 Cu10 2.568270 1_655
Br21 Cu9 2.460375 1_555
Br21 Cu12 2.503654 1_555
Br21 Cu29 2.598196 1_455
Br22 Cu34 2.478290 1_555
Br22 Cu2 2.523310 1_555
Br22 Cu14 2.569786 1_555
Br23 Cu12 2.464940 1_555
Br23 Cu22 2.505699 1_555
Br23 Cu26 2.583195 1_455
Br24 Cu14 2.471334 1_555
Br24 Cu7 2.508714 1_555
Br24 Cu2 2.554442 1_655
Br25 Cu5 2.473779 1_555
Br25 Cu14 2.514098 1_555
Br25 Cu34 2.555037 1_655
Br26 Cu35 2.478290 1_555
Br26 Cu20 2.523310 1_555
Br26 Cu27 2.569786 1_655
Br27 Cu29 2.458936 1_555
Br27 Cu26 2.499884 1_555
Br27 Cu12 2.591672 1_555
Br28 Cu33 2.464940 1_555
Br28 Cu13 2.505699 1_555
Br28 Cu17 2.583195 1_555
Br29 Cu10 2.462567 1_555
Br29 Cu21 2.515702 1_555
Br29 Cu15 2.549145 1_555
Br30 Cu32 2.470840 1_555
Br30 Cu19 2.512828 1_555
Br30 Cu25 2.555649 1_555
Br31 Cu31 2.473090 1_555
Br31 Cu32 2.513276 1_555
Br31 Cu24 2.553542 1_555
Br32 Cu18 2.470840 1_555
Br32 Cu11 2.512828 1_555
Br32 Cu4 2.555649 1_655
Br33 Cu17 2.460684 1_555
Br33 Cu30 2.516723 1_555
Br33 Cu13 2.546831 1_455
Br34 Cu24 2.487784 1_555
Br34 Cu25 2.512099 1_555
Br34 Cu32 2.559004 1_655
Br35 Cu30 2.481358 1_555
Br35 Cu16 2.531219 1_555
Br35 Cu1 2.572956 1_455
