# generated using pymatgen
data_Nd3Al3Si3(NO6)2
_symmetry_space_group_name_H-M   'P 1'
_cell_length_a   7.98593870
_cell_length_b   7.98593870
_cell_length_c   4.92310404
_cell_angle_alpha   89.31977918
_cell_angle_beta   89.31977918
_cell_angle_gamma   61.14836873
_symmetry_Int_Tables_number   1
_chemical_formula_structural   Nd3Al3Si3(NO6)2
_chemical_formula_sum   'Nd3 Al3 Si3 N2 O12'
_cell_volume   274.97322619
_cell_formula_units_Z   1
loop_
 _symmetry_equiv_pos_site_id
 _symmetry_equiv_pos_as_xyz
  1  'x, y, z'
loop_
 _atom_site_type_symbol
 _atom_site_label
 _atom_site_symmetry_multiplicity
 _atom_site_fract_x
 _atom_site_fract_y
 _atom_site_fract_z
 _atom_site_occupancy
  Nd  Nd0  1  0.58318500  0.01265500  0.00575500  1
  Nd  Nd1  1  0.98734500  0.41681500  0.99424500  1
  Nd  Nd2  1  0.41601200  0.58398800  0.00000000  1
  Al  Al0  1  0.23722300  0.99003700  0.52037800  1
  Al  Al1  1  0.00564200  0.99435800  0.00000000  1
  Al  Al2  1  0.00996300  0.76277700  0.47962200  1
  Si  Si0  1  0.66978300  0.66660200  0.54204300  1
  Si  Si1  1  0.33339800  0.33021700  0.45795700  1
  Si  Si2  1  0.73819000  0.26181000  0.50000000  1
  N  N0  1  0.69920500  0.46058200  0.68487900  1
  N  N1  1  0.53941800  0.30079500  0.31512100  1
  O  O0  1  0.21289100  0.85941000  0.24896400  1
  O  O1  1  0.47312800  0.84605500  0.67742300  1
  O  O2  1  0.87289200  0.89518200  0.19840500  1
  O  O3  1  0.65974400  0.67729800  0.20908000  1
  O  O4  1  0.84433200  0.70042500  0.66632300  1
  O  O5  1  0.14059000  0.78710900  0.75103600  1
  O  O6  1  0.15394500  0.52687200  0.32257700  1
  O  O7  1  0.90868400  0.21266800  0.26513600  1
  O  O8  1  0.10481800  0.12710800  0.80159500  1
  O  O9  1  0.32270200  0.34025600  0.79092000  1
  O  O10  1  0.29957500  0.15566800  0.33367700  1
  O  O11  1  0.78733200  0.09131600  0.73486400  1
loop_
_geom_bond_atom_site_label_1
_geom_bond_atom_site_label_2
_geom_bond_distance
_geom_bond_site_symmetry_2
Nd0 O2 2.251353 1_545
Nd0 O11 2.397482 1_554
Nd0 O1 2.523629 1_544
Nd0 O10 2.549693 1_555
Nd0 O3 2.630374 1_545
Nd0 O9 2.650416 1_554
Nd0 O4 2.890795 1_544
Nd1 O8 2.251353 1_655
Nd1 O7 2.397482 1_556
Nd1 O6 2.523629 1_656
Nd1 O4 2.549693 1_555
Nd1 O9 2.630374 1_655
Nd1 O3 2.650416 1_556
Nd1 O10 2.890795 1_656
Nd2 O0 2.354755 1_555
Nd2 O5 2.354755 1_554
Nd2 O9 2.620863 1_554
Nd2 O3 2.620863 1_555
Nd2 O6 2.816955 1_555
Nd2 O1 2.816955 1_554
Al0 O8 1.765561 1_565
Al0 O0 1.773781 1_555
Al0 O1 1.841724 1_555
Al0 O10 1.854257 1_565
Al0 O5 2.377751 1_555
Al1 O2 1.863495 1_455
Al1 O8 1.863495 1_564
Al1 O5 1.923121 1_554
Al1 O0 1.923121 1_555
Al1 O11 2.017437 1_464
Al1 O7 2.017437 1_465
Al2 O2 1.765561 1_455
Al2 O5 1.773781 1_555
Al2 O6 1.841724 1_555
Al2 O4 1.854257 1_455
Al2 O0 2.377751 1_555
N0 Si0 1.691141 1_555
N0 Si2 1.730826 1_555
N0 Nd2 2.508918 1_556
N0 Nd1 2.651625 1_555
N1 Si1 1.691141 1_555
N1 Si2 1.730826 1_555
N1 Nd2 2.508918 1_555
N1 Nd0 2.651625 1_555
O1 Si0 1.670369 1_555
O3 Si0 1.641318 1_555
O4 Si0 1.666708 1_555
O6 Si1 1.670369 1_555
O7 Si2 1.674066 1_555
O9 Si1 1.641318 1_555
O10 Si1 1.666708 1_555
O11 Si2 1.674066 1_555
