# generated using pymatgen
data_Ca28(Yb5S16)3
_symmetry_space_group_name_H-M   'P 1'
_cell_length_a   8.03523100
_cell_length_b   8.03901974
_cell_length_c   39.46273252
_cell_angle_alpha   89.90635731
_cell_angle_beta   89.92878594
_cell_angle_gamma   60.09945557
_symmetry_Int_Tables_number   1
_chemical_formula_structural   Ca28(Yb5S16)3
_chemical_formula_sum   'Ca28 Yb15 S48'
_cell_volume   2209.80007404
_cell_formula_units_Z   1
loop_
 _symmetry_equiv_pos_site_id
 _symmetry_equiv_pos_as_xyz
  1  'x, y, z'
loop_
 _atom_site_type_symbol
 _atom_site_label
 _atom_site_symmetry_multiplicity
 _atom_site_fract_x
 _atom_site_fract_y
 _atom_site_fract_z
 _atom_site_occupancy
  Yb  Yb0  1  0.49500300  0.00528700  0.12509800  1
  Yb  Yb1  1  0.16695000  0.66622900  0.29163700  1
  Yb  Yb2  1  0.83366000  0.83359100  0.20818200  1
  Yb  Yb3  1  0.00181000  0.00180600  0.12262400  1
  Yb  Yb4  1  0.50007600  0.50008400  0.37488500  1
  Yb  Yb5  1  0.83342900  0.33312600  0.45835500  1
  Yb  Yb6  1  0.66665500  0.66665700  0.29165000  1
  Yb  Yb7  1  0.50005300  0.99990400  0.62502400  1
  Yb  Yb8  1  0.16642900  0.16644400  0.54171500  1
  Yb  Yb9  1  0.33332800  0.33333000  0.45828600  1
  Yb  Yb10  1  0.83241000  0.83271800  0.70836300  1
  Yb  Yb11  1  0.00000800  0.99997800  0.62500000  1
  Yb  Yb12  1  0.49974700  0.49974000  0.87511400  1
  Yb  Yb13  1  0.66667200  0.66668200  0.79296600  1
  Yb  Yb14  1  0.33173200  0.33175700  0.95966800  1
  Ca  Ca0  1  0.66701300  0.66728000  0.04170000  1
  Ca  Ca1  1  0.66554300  0.16688800  0.04175100  1
  Ca  Ca2  1  0.00609400  0.49427200  0.12503000  1
  Ca  Ca3  1  0.16698600  0.66565600  0.04187300  1
  Ca  Ca4  1  0.49791200  0.49796500  0.12760400  1
  Ca  Ca5  1  0.33268400  0.83441100  0.20819000  1
  Ca  Ca6  1  0.66628500  0.16691500  0.29166400  1
  Ca  Ca7  1  0.16687100  0.16685300  0.29167800  1
  Ca  Ca8  1  0.83444300  0.33266700  0.20818900  1
  Ca  Ca9  1  0.99985000  0.50009500  0.37491700  1
  Ca  Ca10  1  0.33312100  0.83343600  0.45835100  1
  Ca  Ca11  1  0.50009600  0.99984300  0.37492200  1
  Ca  Ca12  1  0.83341800  0.83342700  0.45835000  1
  Ca  Ca13  1  0.66710300  0.16644000  0.54169300  1
  Ca  Ca14  1  0.99989500  0.50008100  0.62503900  1
  Ca  Ca15  1  0.16885000  0.66233900  0.79028100  1
  Ca  Ca16  1  0.50002200  0.50007800  0.62503700  1
  Ca  Ca17  1  0.16643600  0.66710100  0.54169200  1
  Ca  Ca18  1  0.33486800  0.83263700  0.70837100  1
  Ca  Ca19  1  0.66230400  0.16888200  0.79028600  1
  Ca  Ca20  1  0.00012000  0.00013500  0.87504600  1
  Ca  Ca21  1  0.83735300  0.33179000  0.95972900  1
  Ca  Ca22  1  0.83252600  0.33480800  0.70825100  1
  Ca  Ca23  1  0.16892700  0.16896500  0.79019500  1
  Ca  Ca24  1  0.00065300  0.49958500  0.87507200  1
  Ca  Ca25  1  0.33179700  0.83732000  0.95970600  1
  Ca  Ca26  1  0.49959200  0.00065000  0.87507200  1
  Ca  Ca27  1  0.83353600  0.83351200  0.95723400  1
  S  S0  1  0.99490500  0.99462300  0.99907500  1
  S  S1  1  0.66778100  0.66957900  0.16683300  1
  S  S2  1  0.33953000  0.33731200  0.08453200  1
  S  S3  1  0.33330600  0.33489900  0.33337100  1
  S  S4  1  0.83136600  0.83343900  0.08366300  1
  S  S5  1  0.15692200  0.68126900  0.16562100  1
  S  S6  1  0.34153100  0.82171700  0.08483700  1
  S  S7  1  0.99998000  0.99852900  0.25006100  1
  S  S8  1  0.00000100  0.00158200  0.50000800  1
  S  S9  1  0.68047100  0.15624400  0.16544600  1
  S  S10  1  0.82084600  0.34064900  0.08459500  1
  S  S11  1  0.16206600  0.16022300  0.16531300  1
  S  S12  1  0.50340700  0.50568100  0.25144200  1
  S  S13  1  0.82733900  0.34314500  0.33236400  1
  S  S14  1  0.99048000  0.50718600  0.25126000  1
  S  S15  1  0.66666200  0.66515500  0.41665200  1
  S  S16  1  0.66657100  0.66849100  0.66647400  1
  S  S17  1  0.34227100  0.82668200  0.33218400  1
  S  S18  1  0.50654400  0.98959200  0.25109800  1
  S  S19  1  0.83026600  0.82798000  0.33198700  1
  S  S20  1  0.16984200  0.17215900  0.41808600  1
  S  S21  1  0.49372800  0.01020500  0.49896400  1
  S  S22  1  0.33331300  0.33189800  0.58326500  1
  S  S23  1  0.65738900  0.17357300  0.41787600  1
  S  S24  1  0.33383000  0.33386400  0.83353500  1
  S  S25  1  0.00931500  0.49307000  0.49879200  1
  S  S26  1  0.17289800  0.65651000  0.41770000  1
  S  S27  1  0.49675500  0.49447000  0.49857600  1
  S  S28  1  0.83644200  0.83870500  0.58466800  1
  S  S29  1  0.16029300  0.67713000  0.66552200  1
  S  S30  1  0.32428800  0.84008900  0.58446300  1
  S  S31  1  0.99934400  0.99968100  0.74979700  1
  S  S32  1  0.67607000  0.15960300  0.66527900  1
  S  S33  1  0.83943500  0.32344000  0.58428900  1
  S  S34  1  0.16350800  0.16096600  0.66508100  1
  S  S35  1  0.50598100  0.50573800  0.75110600  1
  S  S36  1  0.83286900  0.33270800  0.83362000  1
  S  S37  1  0.98772000  0.50702900  0.75090300  1
  S  S38  1  0.66516200  0.66511600  0.91640800  1
  S  S39  1  0.33268000  0.83286900  0.83362000  1
  S  S40  1  0.50706700  0.98785900  0.75097100  1
  S  S41  1  0.83397900  0.83394100  0.83351900  1
  S  S42  1  0.16734900  0.16739500  0.91689200  1
  S  S43  1  0.51039300  0.99588700  0.99889500  1
  S  S44  1  0.66413900  0.17055300  0.91656600  1
  S  S45  1  0.99596900  0.51054200  0.99897200  1
  S  S46  1  0.49959900  0.49993900  0.99986900  1
  S  S47  1  0.17053500  0.66412000  0.91656000  1
loop_
_geom_bond_atom_site_label_1
_geom_bond_atom_site_label_2
_geom_bond_distance
_geom_bond_site_symmetry_2
Ca0 S6 2.835094 1_555
Ca0 S4 2.835824 1_555
Ca0 S10 2.835991 1_555
Ca0 S43 2.844616 1_554
Ca0 S45 2.844794 1_554
Ca0 S46 2.856803 1_554
Ca1 S2 2.829821 1_555
Ca1 S43 2.832946 1_544
Ca1 S0 2.846149 1_544
Ca1 S46 2.847775 1_554
Ca1 S10 2.849203 1_555
Ca1 S4 2.850720 1_545
Ca2 S11 2.818658 1_555
Ca2 S2 2.819578 1_555
Ca2 S5 2.850189 1_555
Ca2 S10 2.851685 1_455
Ca2 S4 2.871388 1_455
Ca2 S1 2.876497 1_455
Ca3 S45 2.833817 1_454
Ca3 S2 2.840101 1_555
Ca3 S0 2.846691 1_454
Ca3 S46 2.848110 1_554
Ca3 S4 2.860302 1_455
Ca3 S6 2.860554 1_555
Ca4 S2 2.797834 1_555
Ca4 S5 2.810886 1_555
Ca4 S9 2.811208 1_555
Ca4 S6 2.816280 1_555
Ca4 S10 2.817377 1_555
Ca4 S1 2.837707 1_555
Ca5 S11 2.830910 1_565
Ca5 S5 2.842241 1_555
Ca5 S7 2.845595 1_455
Ca5 S1 2.847533 1_555
Ca5 S18 2.850500 1_555
Ca5 S12 2.855802 1_555
Ca6 S18 2.842368 1_545
Ca6 S3 2.843452 1_555
Ca6 S12 2.843667 1_555
Ca6 S7 2.845154 1_545
Ca6 S13 2.846389 1_555
Ca6 S19 2.846743 1_545
Ca7 S3 2.852107 1_555
Ca7 S7 2.854547 1_445
Ca7 S18 2.857171 1_545
Ca7 S14 2.857191 1_455
Ca7 S17 2.858059 1_545
Ca7 S13 2.858543 1_455
Ca8 S11 2.841302 1_655
Ca8 S7 2.853727 1_545
Ca8 S9 2.854769 1_555
Ca8 S1 2.857859 1_555
Ca8 S14 2.862884 1_555
Ca8 S12 2.869017 1_555
Ca9 S3 2.842434 1_655
Ca9 S19 2.843398 1_555
Ca9 S13 2.844243 1_555
Ca9 S15 2.845217 1_555
Ca9 S20 2.849360 1_655
Ca9 S26 2.849730 1_655
Ca10 S8 2.843118 1_565
Ca10 S20 2.844311 1_565
Ca10 S26 2.844663 1_555
Ca10 S27 2.844808 1_555
Ca10 S21 2.845068 1_565
Ca10 S15 2.846464 1_555
Ca11 S3 2.851647 1_565
Ca11 S15 2.853613 1_555
Ca11 S19 2.856585 1_555
Ca11 S17 2.857186 1_555
Ca11 S20 2.862495 1_565
Ca11 S23 2.862547 1_565
Ca12 S8 2.852769 1_665
Ca12 S15 2.855329 1_555
Ca12 S23 2.857301 1_565
Ca12 S26 2.857561 1_655
Ca12 S25 2.857781 1_655
Ca12 S21 2.857931 1_565
Ca13 S8 2.842429 1_655
Ca13 S28 2.843592 1_545
Ca13 S33 2.844504 1_555
Ca13 S22 2.844925 1_555
Ca13 S27 2.848709 1_555
Ca13 S21 2.849336 1_555
Ca14 S16 2.839236 1_555
Ca14 S34 2.841666 1_655
Ca14 S29 2.842629 1_655
Ca14 S28 2.846047 1_555
Ca14 S33 2.846548 1_555
Ca14 S22 2.847474 1_655
Ca15 S35 2.812297 1_555
Ca15 S37 2.813460 1_455
Ca15 S31 2.840871 1_455
Ca15 S24 2.853887 1_555
Ca15 S39 2.889607 1_555
Ca15 S41 2.889672 1_455
Ca16 S16 2.849020 1_555
Ca16 S32 2.854085 1_555
Ca16 S29 2.855352 1_555
Ca16 S22 2.856227 1_555
Ca16 S30 2.858693 1_555
Ca16 S33 2.859302 1_555
Ca17 S8 2.851389 1_565
Ca17 S22 2.852984 1_555
Ca17 S28 2.856529 1_455
Ca17 S30 2.857120 1_555
Ca17 S27 2.861785 1_555
Ca17 S25 2.862052 1_555
Ca18 S35 2.833641 1_555
Ca18 S40 2.834036 1_555
Ca18 S16 2.840505 1_555
Ca18 S31 2.851494 1_455
Ca18 S34 2.854600 1_565
Ca18 S29 2.854984 1_555
Ca19 S35 2.810952 1_555
Ca19 S40 2.811175 1_545
Ca19 S31 2.839223 1_545
Ca19 S24 2.853833 1_555
Ca19 S36 2.889629 1_555
Ca19 S41 2.889882 1_545
Ca20 S39 2.834643 1_545
Ca20 S36 2.834695 1_455
Ca20 S41 2.836115 1_445
Ca20 S42 2.855637 1_555
Ca20 S44 2.856353 1_455
Ca20 S47 2.856389 1_545
Ca21 S45 2.815270 1_555
Ca21 S0 2.816093 1_545
Ca21 S46 2.835596 1_555
Ca21 S42 2.852649 1_655
Ca21 S38 2.883026 1_555
Ca21 S44 2.886229 1_555
Ca22 S35 2.834581 1_555
Ca22 S37 2.835319 1_555
Ca22 S16 2.848968 1_555
Ca22 S31 2.851939 1_545
Ca22 S32 2.866781 1_555
Ca22 S34 2.866939 1_655
Ca23 S40 2.819743 1_545
Ca23 S37 2.820795 1_455
Ca23 S31 2.848086 1_445
Ca23 S24 2.863990 1_555
Ca23 S36 2.900534 1_455
Ca23 S39 2.900722 1_545
Ca24 S24 2.840637 1_555
Ca24 S42 2.841490 1_555
Ca24 S47 2.847128 1_555
Ca24 S36 2.847632 1_455
Ca24 S41 2.847703 1_455
Ca24 S38 2.849291 1_455
Ca25 S43 2.812785 1_555
Ca25 S0 2.814921 1_455
Ca25 S46 2.833979 1_555
Ca25 S42 2.852506 1_565
Ca25 S38 2.882790 1_555
Ca25 S47 2.885956 1_555
Ca26 S24 2.840836 1_555
Ca26 S42 2.841820 1_555
Ca26 S44 2.847481 1_555
Ca26 S39 2.847818 1_545
Ca26 S41 2.847891 1_545
Ca26 S38 2.849542 1_545
Ca27 S43 2.786762 1_555
Ca27 S45 2.787535 1_555
Ca27 S0 2.787778 1_555
Ca27 S47 2.843108 1_655
Ca27 S44 2.843223 1_565
Ca27 S38 2.845561 1_555
S1 Yb2 2.818177 1_555
S1 Yb0 2.859889 1_565
S2 Yb0 2.813239 1_555
S3 Yb4 2.833663 1_555
S3 Yb1 2.834646 1_555
S4 Yb3 2.816337 1_665
S4 Yb0 2.856724 1_565
S5 Yb3 2.803817 1_565
S5 Yb2 2.809291 1_455
S6 Yb3 2.797839 1_565
S6 Yb0 2.837201 1_565
S7 Yb1 2.836550 1_655
S7 Yb2 2.838090 1_555
S8 Yb5 2.834011 1_455
S8 Yb8 2.834316 1_555
S9 Yb3 2.804273 1_655
S9 Yb2 2.809793 1_545
S9 Yb0 2.836222 1_555
S10 Yb3 2.798149 1_655
S11 Yb3 2.786635 1_555
S11 Yb0 2.810798 1_555
S12 Yb6 2.759941 1_555
S12 Yb1 2.829846 1_555
S13 Yb6 2.766935 1_555
S13 Yb4 2.830310 1_555
S14 Yb6 2.761362 1_555
S14 Yb1 2.829135 1_655
S14 Yb2 2.838528 1_555
S15 Yb4 2.837772 1_555
S15 Yb5 2.837906 1_555
S16 Yb7 2.828636 1_555
S16 Yb10 2.831585 1_555
S17 Yb6 2.767811 1_555
S17 Yb4 2.830631 1_555
S17 Yb1 2.834197 1_555
S18 Yb6 2.759960 1_555
S18 Yb2 2.838873 1_555
S19 Yb6 2.766916 1_555
S19 Yb1 2.834430 1_655
S20 Yb9 2.762224 1_555
S20 Yb5 2.831163 1_455
S21 Yb9 2.763917 1_555
S21 Yb8 2.835999 1_555
S22 Yb8 2.836659 1_555
S22 Yb7 2.838987 1_545
S23 Yb9 2.763154 1_555
S23 Yb5 2.831781 1_555
S23 Yb4 2.837013 1_555
S24 Yb12 2.834228 1_555
S25 Yb9 2.765067 1_555
S25 Yb5 2.832156 1_455
S25 Yb8 2.836086 1_555
S26 Yb9 2.762125 1_555
S26 Yb4 2.836788 1_555
S27 Yb9 2.763758 1_555
S27 Yb5 2.831571 1_555
S28 Yb11 2.766262 1_655
S28 Yb7 2.832918 1_555
S29 Yb11 2.758778 1_555
S29 Yb10 2.841529 1_455
S30 Yb11 2.767291 1_555
S30 Yb8 2.830355 1_565
S30 Yb7 2.833489 1_555
S31 Yb10 2.842873 1_555
S32 Yb11 2.759477 1_645
S32 Yb7 2.827484 1_545
S32 Yb10 2.841447 1_545
S33 Yb11 2.766583 1_645
S33 Yb8 2.830017 1_655
S34 Yb11 2.758563 1_545
S34 Yb7 2.827238 1_545
S35 Yb13 2.783491 1_555
S36 Yb13 2.825265 1_555
S36 Yb12 2.839368 1_555
S37 Yb13 2.784381 1_555
S37 Yb10 2.822038 1_555
S38 Yb12 2.822023 1_555
S39 Yb13 2.825359 1_555
S39 Yb12 2.839391 1_555
S40 Yb13 2.783453 1_555
S40 Yb10 2.821716 1_555
S41 Yb13 2.826808 1_555
S42 Yb14 2.844802 1_555
S43 Yb14 2.806230 1_565
S44 Yb12 2.816017 1_555
S44 Yb14 2.872556 1_555
S45 Yb14 2.807350 1_655
S46 Yb14 2.827483 1_555
S47 Yb12 2.816045 1_555
S47 Yb14 2.872422 1_555
