# generated using pymatgen
data_K5RbZn4Sn5S17
_symmetry_space_group_name_H-M   'P 1'
_cell_length_a   9.88388800
_cell_length_b   11.04091661
_cell_length_c   11.04459346
_cell_angle_alpha   78.42786943
_cell_angle_beta   63.45794554
_cell_angle_gamma   63.47516084
_symmetry_Int_Tables_number   1
_chemical_formula_structural   K5RbZn4Sn5S17
_chemical_formula_sum   'K5 Rb1 Zn4 Sn5 S17'
_cell_volume   964.74309307
_cell_formula_units_Z   1
loop_
 _symmetry_equiv_pos_site_id
 _symmetry_equiv_pos_as_xyz
  1  'x, y, z'
loop_
 _atom_site_type_symbol
 _atom_site_label
 _atom_site_symmetry_multiplicity
 _atom_site_fract_x
 _atom_site_fract_y
 _atom_site_fract_z
 _atom_site_occupancy
  K  K0  1  0.00422000  0.50504600  0.98157900  1
  K  K1  1  0.49196400  0.01689200  0.49982500  1
  K  K2  1  0.48897600  0.50936400  0.02041500  1
  K  K3  1  0.01100100  0.97951700  0.49826900  1
  K  K4  1  0.74985300  0.50089100  0.49970600  1
  Rb  Rb0  1  0.47779300  0.13463600  0.96347900  1
  Zn  Zn0  1  0.38562700  0.64097200  0.35955900  1
  Zn  Zn1  1  0.97455000  0.64004100  0.63989900  1
  Zn  Zn2  1  0.25245700  0.36101000  0.36197200  1
  Zn  Zn3  1  0.38524000  0.36243100  0.63675500  1
  Sn  Sn0  1  0.00161100  0.99657700  0.00190200  1
  Sn  Sn1  1  0.24956500  0.72336900  0.72261800  1
  Sn  Sn2  1  0.69685600  0.27835600  0.27594200  1
  Sn  Sn3  1  0.02486000  0.27846500  0.72232100  1
  Sn  Sn4  1  0.02947900  0.72162500  0.27746900  1
  S  S0  1  0.66395900  0.50864700  0.22066800  1
  S  S1  1  0.39416800  0.77791400  0.49232000  1
  S  S2  1  0.24937900  0.50117700  0.49929100  1
  S  S3  1  0.52384800  0.21871000  0.22102400  1
  S  S4  1  0.96309100  0.78003500  0.78206400  1
  S  S5  1  0.25665400  0.78172600  0.21800000  1
  S  S6  1  0.82765500  0.50769300  0.77966800  1
  S  S7  1  0.11521400  0.21992100  0.49285500  1
  S  S8  1  0.82945800  0.77737000  0.50733500  1
  S  S9  1  0.11701800  0.49058000  0.22017200  1
  S  S10  1  0.86143900  0.14154100  0.85668400  1
  S  S11  1  0.86016900  0.85415700  0.14571600  1
  S  S12  1  0.28480000  0.85588100  0.85536900  1
  S  S13  1  0.99689200  0.14401200  0.14334300  1
  S  S14  1  0.39266700  0.49111800  0.77934800  1
  S  S15  1  0.66312500  0.22085000  0.50687700  1
  S  S16  1  0.25551200  0.22007600  0.77895700  1
loop_
_geom_bond_atom_site_label_1
_geom_bond_atom_site_label_2
_geom_bond_distance
_geom_bond_site_symmetry_2
K0 S0 3.204826 1_456
K0 S9 3.241956 1_556
K0 S4 3.354556 1_455
K0 S6 3.380204 1_455
K0 S14 3.420479 1_555
K0 S16 3.457458 1_555
K1 S1 3.215647 1_545
K1 S8 3.226121 1_545
K1 S15 3.395550 1_555
K1 S3 3.399020 1_555
K1 S7 3.410070 1_555
K1 S16 3.413438 1_555
K2 S6 3.207138 1_554
K2 S14 3.269108 1_554
K2 S5 3.326374 1_555
K2 S0 3.358913 1_555
K2 S9 3.416857 1_555
K2 S3 3.488275 1_555
K3 S7 3.230006 1_565
K3 S15 3.249265 1_465
K3 S5 3.391951 1_555
K3 S8 3.396730 1_455
K3 S1 3.407142 1_555
K3 S4 3.425628 1_455
K4 S8 3.500296 1_555
K4 S1 3.503281 1_555
K4 S0 3.520430 1_555
K4 S6 3.525284 1_555
K4 S9 3.531753 1_655
K4 S14 3.532151 1_555
K4 S15 3.536854 1_555
K4 S7 3.537520 1_655
Rb0 S16 3.353970 1_555
Rb0 S3 3.428390 1_556
Rb0 S10 3.464187 1_555
S0 Zn0 2.365059 1_555
S0 Sn2 2.399911 1_555
S1 Zn0 2.357384 1_555
S1 Sn1 2.404229 1_555
S2 Zn3 2.346600 1_555
S2 Zn2 2.356789 1_555
S2 Zn1 2.367796 1_455
S2 Zn0 2.370851 1_555
S3 Zn2 2.360562 1_555
S3 Sn2 2.412191 1_555
S4 Zn1 2.350677 1_555
S4 Sn1 2.400184 1_655
S5 Zn0 2.349782 1_555
S5 Sn4 2.398192 1_555
S6 Zn1 2.369196 1_555
S6 Sn3 2.395718 1_655
S7 Zn2 2.363840 1_555
S7 Sn3 2.399423 1_555
S8 Zn1 2.354335 1_555
S8 Sn4 2.405646 1_655
S9 Zn2 2.357037 1_555
S9 Sn4 2.417309 1_555
S10 Sn0 2.455401 1_646
S10 Sn3 2.497068 1_655
S11 Sn0 2.434496 1_655
S11 Sn4 2.488767 1_655
S12 Sn0 2.437918 1_556
S12 Sn1 2.486674 1_555
S13 Sn0 2.445321 1_645
S13 Sn2 2.490089 1_555
S14 Zn3 2.366136 1_555
S14 Sn1 2.424156 1_555
S15 Zn3 2.364045 1_555
S15 Sn2 2.408139 1_555
S16 Zn3 2.364523 1_555
S16 Sn3 2.409165 1_555
