# generated using pymatgen
data_P(HO)3
_symmetry_space_group_name_H-M   'P 1'
_cell_length_a   6.98050300
_cell_length_b   7.48384600
_cell_length_c   12.80722200
_cell_angle_alpha   90.00000000
_cell_angle_beta   90.00000000
_cell_angle_gamma   90.00000000
_symmetry_Int_Tables_number   1
_chemical_formula_structural   P(HO)3
_chemical_formula_sum   'P8 H24 O24'
_cell_volume   669.06220559
_cell_formula_units_Z   8
loop_
 _symmetry_equiv_pos_site_id
 _symmetry_equiv_pos_as_xyz
  1  'x, y, z'
loop_
 _atom_site_type_symbol
 _atom_site_label
 _atom_site_symmetry_multiplicity
 _atom_site_fract_x
 _atom_site_fract_y
 _atom_site_fract_z
 _atom_site_occupancy
  P  P0  1  0.03259700  0.51468400  0.36793800  1
  P  P1  1  0.53259700  0.48531600  0.63206200  1
  P  P2  1  0.53259700  0.98531600  0.86793800  1
  P  P3  1  0.03259700  0.01468400  0.13206200  1
  P  P4  1  0.46379800  0.57780600  0.11716500  1
  P  P5  1  0.96379800  0.42219400  0.88283500  1
  P  P6  1  0.96379800  0.92219400  0.61716500  1
  P  P7  1  0.46379800  0.07780600  0.38283500  1
  H  H0  1  0.93398200  0.78470200  0.31277600  1
  H  H1  1  0.43398200  0.21529800  0.68722400  1
  H  H2  1  0.43398200  0.71529800  0.81277600  1
  H  H3  1  0.93398200  0.28470200  0.18722400  1
  H  H4  1  0.74411400  0.44856100  0.29102300  1
  H  H5  1  0.24411400  0.55143900  0.70897700  1
  H  H6  1  0.24411400  0.05143900  0.79102300  1
  H  H7  1  0.74411400  0.94856100  0.20897700  1
  H  H8  1  0.92177200  0.54864600  0.52867700  1
  H  H9  1  0.42177200  0.45135400  0.47132300  1
  H  H10  1  0.42177200  0.95135400  0.02867700  1
  H  H11  1  0.92177200  0.04864600  0.97132300  1
  H  H12  1  0.39499800  0.49671800  0.27969600  1
  H  H13  1  0.89499800  0.50328200  0.72030400  1
  H  H14  1  0.89499800  0.00328200  0.77969600  1
  H  H15  1  0.39499800  0.99671800  0.22030400  1
  H  H16  1  0.16144100  0.57389000  0.06198300  1
  H  H17  1  0.66144100  0.42611000  0.93801700  1
  H  H18  1  0.66144100  0.92611000  0.56198300  1
  H  H19  1  0.16144100  0.07389000  0.43801700  1
  H  H20  1  0.47544600  0.28636000  0.04968800  1
  H  H21  1  0.97544600  0.71364000  0.95031200  1
  H  H22  1  0.97544600  0.21364000  0.54968800  1
  H  H23  1  0.47544600  0.78636000  0.45031200  1
  O  O0  1  0.93843100  0.71113100  0.37833800  1
  O  O1  1  0.43843100  0.28886900  0.62166200  1
  O  O2  1  0.43843100  0.78886900  0.87833800  1
  O  O3  1  0.93843100  0.21113100  0.12166200  1
  O  O4  1  0.87978900  0.40541900  0.29444700  1
  O  O5  1  0.37978900  0.59458100  0.70555300  1
  O  O6  1  0.37978900  0.09458100  0.79444700  1
  O  O7  1  0.87978900  0.90541900  0.20555300  1
  O  O8  1  0.97270900  0.44887100  0.48807700  1
  O  O9  1  0.47270900  0.55112900  0.51192300  1
  O  O10  1  0.47270900  0.05112900  0.98807700  1
  O  O11  1  0.97270900  0.94887100  0.01192300  1
  O  O12  1  0.51295300  0.50345800  0.23739600  1
  O  O13  1  0.01295300  0.49654200  0.76260400  1
  O  O14  1  0.01295300  0.99654200  0.73739600  1
  O  O15  1  0.51295300  0.00345800  0.26260400  1
  O  O16  1  0.23383200  0.55255600  0.12867900  1
  O  O17  1  0.73383200  0.44744400  0.87132100  1
  O  O18  1  0.73383200  0.94744400  0.62867900  1
  O  O19  1  0.23383200  0.05255600  0.37132100  1
  O  O20  1  0.53025600  0.40803200  0.04384500  1
  O  O21  1  0.03025600  0.59196800  0.95615500  1
  O  O22  1  0.03025600  0.09196800  0.54384500  1
  O  O23  1  0.53025600  0.90803200  0.45615500  1
loop_
_geom_bond_atom_site_label_1
_geom_bond_atom_site_label_2
_geom_bond_distance
_geom_bond_site_symmetry_2
H0 O0 1.004569 1_555
H0 O7 1.686726 1_555
H1 O1 1.004569 1_555
H1 O6 1.686726 1_555
H2 O2 1.004569 1_555
H2 O5 1.686726 1_555
H3 O3 1.004569 1_555
H3 O4 1.686726 1_555
H4 O4 1.001562 1_555
H5 O5 1.001562 1_555
H6 O6 1.001562 1_555
H7 O7 1.001562 1_555
H8 O8 0.976914 1_555
H9 O9 0.976914 1_555
H10 O10 0.976914 1_564
H11 O11 0.976914 1_546
H12 O12 0.986912 1_555
H13 O13 0.986912 1_655
H14 O14 0.986912 1_645
H15 O15 0.986912 1_565
H16 O16 1.005230 1_555
H16 O21 1.641306 1_554
H17 O17 1.005230 1_555
H17 O20 1.641306 1_556
H18 O18 1.005230 1_555
H18 O23 1.641306 1_555
H19 O19 1.005230 1_555
H19 O22 1.641306 1_555
H20 O20 0.990520 1_555
H21 O21 0.990520 1_655
H22 O22 0.990520 1_655
H23 O23 0.990520 1_555
O0 P0 1.615935 1_655
O1 P1 1.615935 1_555
O2 P2 1.615935 1_555
O3 P3 1.615935 1_655
O4 P0 1.640840 1_655
O5 P1 1.640840 1_555
O6 P2 1.640840 1_545
O7 P3 1.640840 1_665
O8 P0 1.668769 1_655
O9 P1 1.668769 1_555
O10 P2 1.668769 1_545
O11 P3 1.668769 1_665
O12 P4 1.672838 1_555
O13 P5 1.672838 1_455
O14 P6 1.672838 1_455
O15 P7 1.672838 1_555
O16 P4 1.623075 1_555
O17 P5 1.623075 1_555
O18 P6 1.623075 1_555
O19 P7 1.623075 1_555
O20 P4 1.646606 1_555
O21 P5 1.646606 1_455
O22 P6 1.646606 1_445
O23 P7 1.646606 1_565
