# generated using pymatgen
data_NaCdPO4
_symmetry_space_group_name_H-M   'P 1'
_cell_length_a   5.11992800
_cell_length_b   6.61131600
_cell_length_c   11.03060100
_cell_angle_alpha   90.00000000
_cell_angle_beta   90.00000000
_cell_angle_gamma   90.00000000
_symmetry_Int_Tables_number   1
_chemical_formula_structural   NaCdPO4
_chemical_formula_sum   'Na4 Cd4 P4 O16'
_cell_volume   373.37990834
_cell_formula_units_Z   4
loop_
 _symmetry_equiv_pos_site_id
 _symmetry_equiv_pos_as_xyz
  1  'x, y, z'
loop_
 _atom_site_type_symbol
 _atom_site_label
 _atom_site_symmetry_multiplicity
 _atom_site_fract_x
 _atom_site_fract_y
 _atom_site_fract_z
 _atom_site_occupancy
  Na  Na0  1  0.00000000  0.00000000  0.00000000  1
  Na  Na1  1  0.00000000  0.50000000  0.00000000  1
  Na  Na2  1  0.50000000  0.50000000  0.50000000  1
  Na  Na3  1  0.50000000  0.00000000  0.50000000  1
  Cd  Cd0  1  0.51516200  0.25000000  0.21452300  1
  Cd  Cd1  1  0.48483800  0.75000000  0.78547700  1
  Cd  Cd2  1  0.98483800  0.25000000  0.71452300  1
  Cd  Cd3  1  0.01516200  0.75000000  0.28547700  1
  P  P0  1  0.06812700  0.25000000  0.39696800  1
  P  P1  1  0.43187300  0.25000000  0.89696800  1
  P  P2  1  0.93187300  0.75000000  0.60303200  1
  P  P3  1  0.56812700  0.75000000  0.10303200  1
  O  O0  1  0.19178400  0.06315300  0.33007400  1
  O  O1  1  0.80821600  0.56315300  0.66992600  1
  O  O2  1  0.30821600  0.06315300  0.83007400  1
  O  O3  1  0.69178400  0.56315300  0.16992600  1
  O  O4  1  0.32477600  0.25000000  0.02925500  1
  O  O5  1  0.67522400  0.75000000  0.97074500  1
  O  O6  1  0.17522400  0.25000000  0.52925500  1
  O  O7  1  0.82477600  0.75000000  0.47074500  1
  O  O8  1  0.80821600  0.93684700  0.66992600  1
  O  O9  1  0.19178400  0.43684700  0.33007400  1
  O  O10  1  0.69178400  0.93684700  0.16992600  1
  O  O11  1  0.30821600  0.43684700  0.83007400  1
  O  O12  1  0.26632400  0.75000000  0.10653600  1
  O  O13  1  0.73367600  0.25000000  0.89346400  1
  O  O14  1  0.23367600  0.75000000  0.60653600  1
  O  O15  1  0.76632400  0.25000000  0.39346400  1
loop_
_geom_bond_atom_site_label_1
_geom_bond_atom_site_label_2
_geom_bond_distance
_geom_bond_site_symmetry_2
Na0 O5 2.366639 1_444
Na0 O4 2.366639 1_555
Na0 O12 2.443794 1_545
Na0 O13 2.443794 1_454
Na0 O10 2.485532 1_445
Na0 O2 2.485532 1_554
Na1 O5 2.366639 1_454
Na1 O4 2.366639 1_555
Na1 O13 2.443794 1_454
Na1 O12 2.443794 1_555
Na1 O11 2.485532 1_554
Na1 O3 2.485532 1_455
Na2 O6 2.366639 1_555
Na2 O7 2.366639 1_555
Na2 O14 2.443794 1_555
Na2 O15 2.443794 1_555
Na2 O9 2.485532 1_555
Na2 O1 2.485532 1_555
Na3 O7 2.366639 1_545
Na3 O6 2.366639 1_555
Na3 O14 2.443794 1_545
Na3 O15 2.443794 1_555
Na3 O0 2.485532 1_555
Na3 O8 2.485532 1_545
Cd0 O4 2.264185 1_555
Cd0 O10 2.312164 1_545
Cd0 O3 2.312164 1_555
Cd0 O15 2.355761 1_555
Cd0 O9 2.427308 1_555
Cd0 O0 2.427308 1_555
Cd1 O5 2.264185 1_555
Cd1 O2 2.312164 1_565
Cd1 O11 2.312164 1_555
Cd1 O14 2.355761 1_555
Cd1 O1 2.427308 1_555
Cd1 O8 2.427308 1_555
Cd2 O6 2.264185 1_655
Cd2 O8 2.312164 1_545
Cd2 O1 2.312164 1_555
Cd2 O13 2.355761 1_555
Cd2 O2 2.427308 1_655
Cd2 O11 2.427308 1_655
Cd3 O7 2.264185 1_455
Cd3 O9 2.312164 1_555
Cd3 O0 2.312164 1_565
Cd3 O12 2.355761 1_555
Cd3 O10 2.427308 1_455
Cd3 O3 2.427308 1_455
O0 P0 1.572031 1_555
O1 P2 1.572031 1_555
O2 P1 1.572031 1_555
O3 P3 1.572031 1_555
O4 P1 1.558828 1_554
O5 P3 1.558828 1_556
O6 P0 1.558828 1_555
O7 P2 1.558828 1_555
O8 P2 1.572031 1_555
O9 P0 1.572031 1_555
O10 P3 1.572031 1_555
O11 P1 1.572031 1_555
O12 P3 1.545693 1_555
O13 P1 1.545693 1_555
O14 P2 1.545693 1_455
O15 P0 1.545693 1_655
