# generated using pymatgen
data_P3SN4Cl5O
_symmetry_space_group_name_H-M   'P 1'
_cell_length_a   8.08011700
_cell_length_b   9.17088500
_cell_length_c   17.56961400
_cell_angle_alpha   90.00000000
_cell_angle_beta   90.00000000
_cell_angle_gamma   90.00000000
_symmetry_Int_Tables_number   1
_chemical_formula_structural   P3SN4Cl5O
_chemical_formula_sum   'P12 S4 N16 Cl20 O4'
_cell_volume   1301.94044075
_cell_formula_units_Z   4
loop_
 _symmetry_equiv_pos_site_id
 _symmetry_equiv_pos_as_xyz
  1  'x, y, z'
loop_
 _atom_site_type_symbol
 _atom_site_label
 _atom_site_symmetry_multiplicity
 _atom_site_fract_x
 _atom_site_fract_y
 _atom_site_fract_z
 _atom_site_occupancy
  P  P0  1  0.28309100  0.90199200  0.85508000  1
  P  P1  1  0.21690900  0.59800800  0.35508000  1
  P  P2  1  0.52767300  0.75000000  0.93395500  1
  P  P3  1  0.71690900  0.09800800  0.14492000  1
  P  P4  1  0.28309100  0.59800800  0.85508000  1
  P  P5  1  0.71690900  0.40199200  0.14492000  1
  P  P6  1  0.02767300  0.25000000  0.56604500  1
  P  P7  1  0.97232700  0.75000000  0.43395500  1
  P  P8  1  0.47232700  0.25000000  0.06604500  1
  P  P9  1  0.21690900  0.90199200  0.35508000  1
  P  P10  1  0.78309100  0.40199200  0.64492000  1
  P  P11  1  0.78309100  0.09800800  0.64492000  1
  S  S0  1  0.60966100  0.25000000  0.91320800  1
  S  S1  1  0.39033900  0.75000000  0.08679200  1
  S  S2  1  0.89033900  0.25000000  0.41320800  1
  S  S3  1  0.10966100  0.75000000  0.58679200  1
  N  N0  1  0.69812100  0.25000000  0.66633500  1
  N  N1  1  0.04942000  0.89959600  0.40292900  1
  N  N2  1  0.30187900  0.75000000  0.33366500  1
  N  N3  1  0.45058000  0.60040400  0.90292900  1
  N  N4  1  0.03270600  0.25000000  0.47035800  1
  N  N5  1  0.96729400  0.75000000  0.52964200  1
  N  N6  1  0.95058000  0.39959600  0.59707100  1
  N  N7  1  0.53270600  0.75000000  0.02964200  1
  N  N8  1  0.45058000  0.89959600  0.90292900  1
  N  N9  1  0.46729400  0.25000000  0.97035800  1
  N  N10  1  0.54942000  0.10040400  0.09707100  1
  N  N11  1  0.80187900  0.25000000  0.16633500  1
  N  N12  1  0.54942000  0.39959600  0.09707100  1
  N  N13  1  0.19812100  0.75000000  0.83366500  1
  N  N14  1  0.04942000  0.60040400  0.40292900  1
  N  N15  1  0.95058000  0.10040400  0.59707100  1
  Cl  Cl0  1  0.38444800  0.47096700  0.40785000  1
  Cl  Cl1  1  0.88444800  0.97096700  0.09215000  1
  Cl  Cl2  1  0.32032600  0.01905900  0.75903500  1
  Cl  Cl3  1  0.77180900  0.75000000  0.91146000  1
  Cl  Cl4  1  0.72819100  0.75000000  0.41146000  1
  Cl  Cl5  1  0.88444800  0.52903300  0.09215000  1
  Cl  Cl6  1  0.11555200  0.02903300  0.90785000  1
  Cl  Cl7  1  0.38444800  0.02903300  0.40785000  1
  Cl  Cl8  1  0.11555200  0.47096700  0.90785000  1
  Cl  Cl9  1  0.17967400  0.48094100  0.25903500  1
  Cl  Cl10  1  0.27180900  0.25000000  0.58854000  1
  Cl  Cl11  1  0.17967400  0.01905900  0.25903500  1
  Cl  Cl12  1  0.67967400  0.51905900  0.24096500  1
  Cl  Cl13  1  0.67967400  0.98094100  0.24096500  1
  Cl  Cl14  1  0.32032600  0.48094100  0.75903500  1
  Cl  Cl15  1  0.22819100  0.25000000  0.08854000  1
  Cl  Cl16  1  0.82032600  0.51905900  0.74096500  1
  Cl  Cl17  1  0.82032600  0.98094100  0.74096500  1
  Cl  Cl18  1  0.61555200  0.97096700  0.59215000  1
  Cl  Cl19  1  0.61555200  0.52903300  0.59215000  1
  O  O0  1  0.21958100  0.75000000  0.05887500  1
  O  O1  1  0.78041900  0.25000000  0.94112500  1
  O  O2  1  0.71958100  0.25000000  0.44112500  1
  O  O3  1  0.28041900  0.75000000  0.55887500  1
loop_
_geom_bond_atom_site_label_1
_geom_bond_atom_site_label_2
_geom_bond_distance
_geom_bond_site_symmetry_2
N0 P11 1.598719 1_555
N0 P10 1.598719 1_555
N1 P9 1.593344 1_555
N1 P7 1.602300 1_455
N2 P9 1.598719 1_555
N2 P1 1.598719 1_555
N3 P4 1.593344 1_555
N3 P2 1.602300 1_555
N4 S2 1.526928 1_455
N4 P6 1.681675 1_555
N5 S3 1.526928 1_655
N5 P7 1.681675 1_555
N6 P10 1.593344 1_555
N6 P6 1.602300 1_655
N7 S1 1.526928 1_555
N7 P2 1.681675 1_554
N8 P0 1.593344 1_555
N8 P2 1.602300 1_555
N9 S0 1.526928 1_555
N9 P8 1.681675 1_556
N10 P3 1.593344 1_555
N10 P8 1.602300 1_555
N11 P3 1.598719 1_555
N11 P5 1.598719 1_555
N12 P5 1.593344 1_555
N12 P8 1.602300 1_555
N13 P4 1.598719 1_555
N13 P0 1.598719 1_555
N14 P1 1.593344 1_555
N14 P7 1.602300 1_455
N15 P11 1.593344 1_555
N15 P6 1.602300 1_655
Cl0 P1 2.012364 1_555
Cl1 P3 2.012364 1_565
Cl2 P0 2.022553 1_545
Cl3 P2 2.011851 1_555
Cl4 P7 2.011851 1_555
Cl5 P5 2.012364 1_555
Cl6 P0 2.012364 1_545
Cl7 P9 2.012364 1_545
Cl8 P4 2.012364 1_555
Cl9 P1 2.022553 1_555
Cl10 P6 2.011851 1_555
Cl11 P9 2.022553 1_545
Cl12 P5 2.022553 1_555
Cl13 P3 2.022553 1_565
Cl14 P4 2.022553 1_555
Cl15 P8 2.011851 1_555
Cl16 P10 2.022553 1_555
Cl17 P11 2.022553 1_565
Cl18 P11 2.012364 1_565
Cl19 P10 2.012364 1_555
O0 S1 1.464335 1_555
O1 S0 1.464335 1_555
O2 S2 1.464335 1_555
O3 S3 1.464335 1_555
