# generated using pymatgen
data_Na4Al3Si3NO13
_symmetry_space_group_name_H-M   'P 1'
_cell_length_a   9.29733400
_cell_length_b   9.25470200
_cell_length_c   9.29859200
_cell_angle_alpha   89.97336883
_cell_angle_beta   90.00000000
_cell_angle_gamma   90.00000000
_symmetry_Int_Tables_number   1
_chemical_formula_structural   Na4Al3Si3NO13
_chemical_formula_sum   'Na8 Al6 Si6 N2 O26'
_cell_volume   800.08848068
_cell_formula_units_Z   2
loop_
 _symmetry_equiv_pos_site_id
 _symmetry_equiv_pos_as_xyz
  1  'x, y, z'
loop_
 _atom_site_type_symbol
 _atom_site_label
 _atom_site_symmetry_multiplicity
 _atom_site_fract_x
 _atom_site_fract_y
 _atom_site_fract_z
 _atom_site_occupancy
  Na  Na0  1  0.78058900  0.78451800  0.78517500  1
  Na  Na1  1  0.21941100  0.78451800  0.78517500  1
  Na  Na2  1  0.28066600  0.28429100  0.71471800  1
  Na  Na3  1  0.71933400  0.28429100  0.71471800  1
  Na  Na4  1  0.28998200  0.70644500  0.28427100  1
  Na  Na5  1  0.71001800  0.70644500  0.28427100  1
  Na  Na6  1  0.20983600  0.20640600  0.21590200  1
  Na  Na7  1  0.79016400  0.20640600  0.21590200  1
  Al  Al0  1  0.24991200  0.49971200  0.00030900  1
  Al  Al1  1  0.75008800  0.49971200  0.00030900  1
  Al  Al2  1  0.50000000  0.00272800  0.74976800  1
  Al  Al3  1  0.00000000  0.75023100  0.50168800  1
  Al  Al4  1  0.00000000  0.24999600  0.49782200  1
  Al  Al5  1  0.50000000  0.99801800  0.25021600  1
  Si  Si0  1  0.50000000  0.25001300  0.99594300  1
  Si  Si1  1  0.50000000  0.75021600  0.00331700  1
  Si  Si2  1  0.00000000  0.50420500  0.75020300  1
  Si  Si3  1  0.25024600  0.99967900  0.50027500  1
  Si  Si4  1  0.74975400  0.99967900  0.50027500  1
  Si  Si5  1  0.00000000  0.49632500  0.24988900  1
  N  N0  1  0.50000000  0.48567600  0.50207000  1
  N  N1  1  0.00000000  0.98579100  0.99790800  1
  O  O0  1  0.35036100  0.34131200  0.99722500  1
  O  O1  1  0.35072700  0.65827500  0.99872700  1
  O  O2  1  0.64963900  0.34131200  0.99722500  1
  O  O3  1  0.64927300  0.65827500  0.99872700  1
  O  O4  1  0.14916000  0.50052500  0.84200500  1
  O  O5  1  0.85084000  0.50052500  0.84200500  1
  O  O6  1  0.50000000  0.16840400  0.83918700  1
  O  O7  1  0.50000000  0.85231000  0.86083600  1
  O  O8  1  0.34210000  0.00149800  0.64995600  1
  O  O9  1  0.65790000  0.00149800  0.64995600  1
  O  O10  1  0.00000000  0.36185800  0.64813700  1
  O  O11  1  0.00000000  0.66052300  0.66799600  1
  O  O12  1  0.15820500  0.14946100  0.50024000  1
  O  O13  1  0.15859500  0.84995800  0.50383300  1
  O  O14  1  0.84179500  0.14946100  0.50024000  1
  O  O15  1  0.84140500  0.84995800  0.50383300  1
  O  O16  1  0.50000000  0.53256000  0.37269400  1
  O  O17  1  0.00000000  0.34110900  0.33366500  1
  O  O18  1  0.00000000  0.63756000  0.35292900  1
  O  O19  1  0.34313000  0.99831900  0.35235200  1
  O  O20  1  0.65687000  0.99831900  0.35235200  1
  O  O21  1  0.50000000  0.14688000  0.13654300  1
  O  O22  1  0.50000000  0.83373100  0.15768100  1
  O  O23  1  0.14832000  0.49935400  0.15707200  1
  O  O24  1  0.85168000  0.49935400  0.15707200  1
  O  O25  1  0.00000000  0.03235600  0.12738800  1
loop_
_geom_bond_atom_site_label_1
_geom_bond_atom_site_label_2
_geom_bond_distance
_geom_bond_site_symmetry_2
Na0 O11 2.581971 1_655
Na0 O3 2.607023 1_555
Na0 O9 2.629093 1_565
Na0 O15 2.743887 1_555
Na0 O5 2.759051 1_555
Na0 O7 2.773892 1_555
Na1 O11 2.581971 1_555
Na1 O1 2.607023 1_555
Na1 O8 2.629093 1_565
Na1 O13 2.743887 1_555
Na1 O4 2.759051 1_555
Na1 O7 2.773892 1_555
Na2 O6 2.578191 1_555
Na2 O12 2.614015 1_555
Na2 O4 2.627299 1_555
Na2 O8 2.745887 1_555
Na2 O0 2.756871 1_555
Na2 O10 2.776223 1_555
Na3 O6 2.578191 1_555
Na3 O14 2.614015 1_555
Na3 O5 2.627299 1_555
Na3 O9 2.745887 1_555
Na3 O2 2.756871 1_555
Na3 O10 2.776223 1_655
Na4 O22 2.566056 1_555
Na4 O23 2.609401 1_555
Na4 O16 2.660296 1_555
Na4 O13 2.725241 1_555
Na4 O1 2.751119 1_554
Na4 O19 2.818340 1_555
Na4 O18 2.842949 1_555
Na5 O22 2.566056 1_555
Na5 O24 2.609401 1_555
Na5 O16 2.660296 1_555
Na5 O15 2.725241 1_555
Na5 O3 2.751119 1_554
Na5 O20 2.818340 1_555
Na5 O18 2.842949 1_655
Na6 O17 2.561354 1_555
Na6 O19 2.617636 1_545
Na6 O25 2.660703 1_555
Na6 O0 2.719937 1_554
Na6 O12 2.738121 1_555
Na6 O23 2.824056 1_555
Na6 O21 2.850660 1_555
Na7 O17 2.561354 1_655
Na7 O20 2.617636 1_545
Na7 O25 2.660703 1_655
Na7 O2 2.719937 1_554
Na7 O14 2.738121 1_555
Na7 O24 2.824056 1_555
Na7 O21 2.850660 1_555
Al0 O23 1.736943 1_555
Al0 O0 1.738401 1_554
Al0 O1 1.741312 1_554
Al0 O4 1.744791 1_554
Al1 O24 1.736943 1_555
Al1 O2 1.738401 1_554
Al1 O3 1.741312 1_554
Al1 O5 1.744791 1_554
Al2 O7 1.732963 1_545
Al2 O8 1.736864 1_555
Al2 O9 1.736864 1_555
Al2 O6 1.744558 1_555
Al3 O18 1.732633 1_555
Al3 O13 1.739661 1_555
Al3 O15 1.739661 1_455
Al3 O11 1.754856 1_555
Al4 O10 1.739742 1_555
Al4 O12 1.740595 1_555
Al4 O14 1.740595 1_455
Al4 O17 1.743507 1_555
Al5 O21 1.736052 1_565
Al5 O20 1.740438 1_555
Al5 O19 1.740438 1_555
Al5 O22 1.747364 1_555
N0 O16 1.278681 1_555
N1 O25 1.278971 1_566
O0 Si0 1.627772 1_555
O1 Si1 1.628486 1_556
O2 Si0 1.627772 1_555
O3 Si1 1.628486 1_556
O4 Si2 1.628804 1_555
O5 Si2 1.628804 1_655
O6 Si0 1.641974 1_555
O7 Si1 1.626919 1_556
O8 Si3 1.633030 1_545
O9 Si4 1.633030 1_545
O10 Si2 1.624002 1_555
O11 Si2 1.635899 1_555
O12 Si3 1.629049 1_545
O13 Si3 1.626990 1_555
O14 Si4 1.629049 1_545
O15 Si4 1.626990 1_555
O17 Si5 1.633789 1_555
O18 Si5 1.621003 1_555
O19 Si3 1.624151 1_555
O20 Si4 1.624151 1_555
O21 Si0 1.618361 1_554
O22 Si1 1.630551 1_555
O23 Si5 1.627033 1_555
O24 Si5 1.627033 1_655
