# generated using pymatgen
data_Pb2O3
_symmetry_space_group_name_H-M   'P 1'
_cell_length_a   8.43399900
_cell_length_b   5.71856100
_cell_length_c   6.96867873
_cell_angle_alpha   86.82485325
_cell_angle_beta   90.00000000
_cell_angle_gamma   90.00000000
_symmetry_Int_Tables_number   1
_chemical_formula_structural   Pb2O3
_chemical_formula_sum   'Pb8 O12'
_cell_volume   335.58577373
_cell_formula_units_Z   4
loop_
 _symmetry_equiv_pos_site_id
 _symmetry_equiv_pos_as_xyz
  1  'x, y, z'
loop_
 _atom_site_type_symbol
 _atom_site_label
 _atom_site_symmetry_multiplicity
 _atom_site_fract_x
 _atom_site_fract_y
 _atom_site_fract_z
 _atom_site_occupancy
  Pb  Pb0  1  0.24951200  0.00257200  0.00095700  1
  Pb  Pb1  1  0.75048800  0.00257200  0.00095700  1
  Pb  Pb2  1  0.24955300  0.99700000  0.49979900  1
  Pb  Pb3  1  0.75044700  0.99700000  0.49979900  1
  Pb  Pb4  1  0.00000000  0.50174300  0.24674100  1
  Pb  Pb5  1  0.00000000  0.50467700  0.75011400  1
  Pb  Pb6  1  0.50000000  0.50035600  0.75102300  1
  Pb  Pb7  1  0.50000000  0.49529400  0.24348600  1
  O  O0  1  0.00000000  0.11170900  0.00204800  1
  O  O1  1  0.50000000  0.90510100  0.99463400  1
  O  O2  1  0.00000000  0.87856100  0.49870700  1
  O  O3  1  0.50000000  0.10582400  0.50028600  1
  O  O4  1  0.24859300  0.25809800  0.24142500  1
  O  O5  1  0.24634100  0.25886100  0.73424900  1
  O  O6  1  0.75271800  0.73986700  0.76667700  1
  O  O7  1  0.74389100  0.74059500  0.26341500  1
  O  O8  1  0.25610900  0.74059500  0.26341500  1
  O  O9  1  0.24728200  0.73986700  0.76667700  1
  O  O10  1  0.75365900  0.25886100  0.73424900  1
  O  O11  1  0.75140700  0.25809800  0.24142500  1
loop_
_geom_bond_atom_site_label_1
_geom_bond_atom_site_label_2
_geom_bond_distance
_geom_bond_site_symmetry_2
O0 Pb0 2.195114 1_555
O0 Pb1 2.195114 1_455
O0 Pb5 2.774024 1_554
O1 Pb1 2.185977 1_566
O1 Pb0 2.185977 1_566
O2 Pb2 2.211165 1_555
O2 Pb3 2.211165 1_455
O2 Pb5 2.688092 1_555
O3 Pb2 2.202092 1_545
O3 Pb3 2.202092 1_545
O4 Pb2 2.274535 1_545
O4 Pb0 2.283563 1_555
O4 Pb7 2.517577 1_555
O4 Pb4 2.518778 1_555
O5 Pb2 2.276728 1_545
O5 Pb0 2.302468 1_556
O5 Pb5 2.514370 1_555
O5 Pb6 2.552563 1_555
O6 Pb1 2.279122 1_566
O6 Pb3 2.306166 1_555
O6 Pb5 2.487777 1_655
O6 Pb6 2.539169 1_555
O7 Pb3 2.265857 1_555
O7 Pb1 2.299814 1_565
O7 Pb7 2.497955 1_555
O7 Pb4 2.561725 1_655
O8 Pb2 2.265857 1_555
O8 Pb0 2.299814 1_565
O8 Pb7 2.497955 1_555
O8 Pb4 2.561725 1_555
O9 Pb0 2.279122 1_566
O9 Pb2 2.306166 1_555
O9 Pb5 2.487777 1_555
O9 Pb6 2.539169 1_555
O10 Pb3 2.276728 1_545
O10 Pb1 2.302468 1_556
O10 Pb5 2.514370 1_655
O10 Pb6 2.552563 1_555
O11 Pb3 2.274535 1_545
O11 Pb1 2.283563 1_555
O11 Pb7 2.517577 1_555
O11 Pb4 2.518778 1_655
