# generated using pymatgen
data_Li7IN2
_symmetry_space_group_name_H-M   'P 1'
_cell_length_a   7.30068498
_cell_length_b   7.30068498
_cell_length_c   7.27518474
_cell_angle_alpha   60.09242131
_cell_angle_beta   60.09242131
_cell_angle_gamma   59.84781767
_symmetry_Int_Tables_number   1
_chemical_formula_structural   Li7IN2
_chemical_formula_sum   'Li14 I2 N4'
_cell_volume   274.25727522
_cell_formula_units_Z   2
loop_
 _symmetry_equiv_pos_site_id
 _symmetry_equiv_pos_as_xyz
  1  'x, y, z'
loop_
 _atom_site_type_symbol
 _atom_site_label
 _atom_site_symmetry_multiplicity
 _atom_site_fract_x
 _atom_site_fract_y
 _atom_site_fract_z
 _atom_site_occupancy
  Li  Li0  1  0.99080033  0.99080033  0.99460100  1
  Li  Li1  1  0.57237565  0.93435127  0.92375769  1
  Li  Li2  1  0.93435127  0.57237565  0.92375769  1
  Li  Li3  1  0.93575279  0.93575279  0.56215345  1
  Li  Li4  1  0.57876705  0.57876705  0.92393397  1
  Li  Li5  1  0.92433595  0.57873163  0.57325148  1
  Li  Li6  1  0.57873163  0.92433595  0.57325148  1
  Li  Li7  1  0.21386364  0.78320417  0.78811869  1
  Li  Li8  1  0.78320417  0.21386364  0.78811869  1
  Li  Li9  1  0.78706725  0.78706725  0.20889007  1
  Li  Li10  1  0.20527983  0.20527983  0.71092595  1
  Li  Li11  1  0.72856606  0.21198092  0.20887032  1
  Li  Li12  1  0.21198092  0.72856606  0.20887032  1
  Li  Li13  1  0.11856043  0.11856043  0.08482711  1
  I  I0  1  0.50713561  0.50713561  0.50145440  1
  I  I1  1  0.26985111  0.26985111  0.25753241  1
  N  N0  1  0.88122646  0.88122646  0.87493822  1
  N  N1  1  0.89069656  0.35109819  0.88481407  1
  N  N2  1  0.35109819  0.89069656  0.88481407  1
  N  N3  1  0.88850308  0.88850308  0.34802794  1
loop_
_geom_bond_atom_site_label_1
_geom_bond_atom_site_label_2
_geom_bond_distance
_geom_bond_site_symmetry_2
Li0 N0 2.017329 1_555
Li0 N3 2.111231 1_556
Li0 N2 2.155680 1_655
Li0 N1 2.155680 1_565
Li1 N0 1.954740 1_555
Li1 N2 1.963495 1_555
Li2 N0 1.954740 1_555
Li2 N1 1.963495 1_555
Li3 N0 1.961552 1_555
Li3 N3 1.963675 1_555
Li4 N1 2.013112 1_555
Li4 N2 2.013112 1_555
Li5 N3 2.001415 1_555
Li5 N1 2.014563 1_555
Li6 N3 2.001415 1_555
Li6 N2 2.014563 1_555
Li7 N0 1.995959 1_455
Li7 N2 2.039070 1_555
Li8 N0 1.995959 1_545
Li8 N1 2.039070 1_555
Li9 N0 1.997912 1_554
Li9 N3 2.041442 1_555
Li10 N1 1.999468 1_455
Li10 N2 1.999468 1_545
Li11 N3 1.997489 1_545
Li11 N1 2.006966 1_554
Li12 N3 1.997489 1_455
Li12 N2 2.006966 1_554
Li13 N2 2.209136 1_544
Li13 N1 2.209136 1_454
Li13 N3 2.393376 1_445
I0 Li7 2.898194 1_555
I0 Li8 2.898194 1_555
I0 Li9 2.898976 1_555
I0 Li12 3.070931 1_555
I0 Li11 3.070931 1_555
I0 Li10 3.196295 1_555
I1 Li13 2.830560 1_555
I1 Li10 2.906323 1_555
I1 Li11 3.010755 1_555
I1 Li12 3.010755 1_555
I1 Li4 3.202530 1_554
I1 Li6 3.224426 1_545
I1 Li5 3.224426 1_455
