# generated using pymatgen
data_V5N4O
_symmetry_space_group_name_H-M   'P 1'
_cell_length_a   5.29991615
_cell_length_b   5.29991615
_cell_length_c   5.29991615
_cell_angle_alpha   99.40849330
_cell_angle_beta   99.40849330
_cell_angle_gamma   132.30333686
_symmetry_Int_Tables_number   1
_chemical_formula_structural   V5N4O
_chemical_formula_sum   'V5 N4 O1'
_cell_volume   100.70228601
_cell_formula_units_Z   1
loop_
 _symmetry_equiv_pos_site_id
 _symmetry_equiv_pos_as_xyz
  1  'x, y, z'
loop_
 _atom_site_type_symbol
 _atom_site_label
 _atom_site_symmetry_multiplicity
 _atom_site_fract_x
 _atom_site_fract_y
 _atom_site_fract_z
 _atom_site_occupancy
  V  V0  1  0.69320400  0.89048300  0.58368700  1
  V  V1  1  0.89048300  0.30679600  0.19727800  1
  V  V2  1  0.10951700  0.69320400  0.80272200  1
  V  V3  1  0.30679600  0.10951700  0.41631300  1
  V  V4  1  0.50000000  0.50000000  0.00000000  1
  N  N0  1  0.20144100  0.39754400  0.59898500  1
  N  N1  1  0.39754400  0.79855900  0.19610300  1
  N  N2  1  0.60245600  0.20144100  0.80389700  1
  N  N3  1  0.79855900  0.60245600  0.40101500  1
  O  O0  1  0.00000000  0.00000000  0.00000000  1
loop_
_geom_bond_atom_site_label_1
_geom_bond_atom_site_label_2
_geom_bond_distance
_geom_bond_site_symmetry_2
N0 V3 2.102446 1_555
N0 V2 2.122533 1_555
N0 V0 2.144136 1_445
N0 V0 2.144136 1_555
N0 V4 2.163862 1_556
N0 V1 2.220624 1_455
N1 V2 2.102442 1_554
N1 V0 2.122530 1_555
N1 V1 2.144134 1_455
N1 V1 2.144138 1_565
N1 V4 2.163862 1_555
N1 V3 2.220620 1_565
N2 V1 2.102442 1_556
N2 V3 2.122530 1_555
N2 V2 2.144134 1_655
N2 V2 2.144138 1_545
N2 V4 2.163862 1_556
N2 V0 2.220620 1_545
N3 V0 2.102446 1_555
N3 V1 2.122533 1_555
N3 V3 2.144136 1_555
N3 V3 2.144136 1_665
N3 V4 2.163862 1_555
N3 V2 2.220624 1_655
O0 V4 2.142846 1_445
O0 V4 2.142846 1_555
O0 V1 2.233150 1_455
O0 V2 2.233150 1_544
O0 V3 2.233152 1_555
O0 V0 2.233152 1_444
