# generated using pymatgen
data_GaH12C4NCl3
_symmetry_space_group_name_H-M   'P 1'
_cell_length_a   13.04707100
_cell_length_b   13.04707100
_cell_length_c   13.04707100
_cell_angle_alpha   90.00000000
_cell_angle_beta   90.00000000
_cell_angle_gamma   90.00000000
_symmetry_Int_Tables_number   1
_chemical_formula_structural   GaH12C4NCl3
_chemical_formula_sum   'Ga8 H96 C32 N8 Cl24'
_cell_volume   2220.95151278
_cell_formula_units_Z   8
loop_
 _symmetry_equiv_pos_site_id
 _symmetry_equiv_pos_as_xyz
  1  'x, y, z'
loop_
 _atom_site_type_symbol
 _atom_site_label
 _atom_site_symmetry_multiplicity
 _atom_site_fract_x
 _atom_site_fract_y
 _atom_site_fract_z
 _atom_site_occupancy
  Ga  Ga0  1  0.05399400  0.05399400  0.05399400  1
  Ga  Ga1  1  0.05399400  0.44600600  0.55399400  1
  Ga  Ga2  1  0.44600600  0.94600600  0.55399400  1
  Ga  Ga3  1  0.94600600  0.94600600  0.94600600  1
  Ga  Ga4  1  0.55399400  0.05399400  0.44600600  1
  Ga  Ga5  1  0.55399400  0.44600600  0.94600600  1
  Ga  Ga6  1  0.94600600  0.55399400  0.44600600  1
  Ga  Ga7  1  0.44600600  0.55399400  0.05399400  1
  H  H0  1  0.92464600  0.23604200  0.28317900  1
  H  H1  1  0.63601400  0.73101900  0.57767100  1
  H  H2  1  0.36398600  0.26898100  0.42232900  1
  H  H3  1  0.07535400  0.73604200  0.21682100  1
  H  H4  1  0.75829600  0.86406900  0.77988400  1
  H  H5  1  0.07535400  0.76395800  0.71682100  1
  H  H6  1  0.63593100  0.22011600  0.25829600  1
  H  H7  1  0.86398600  0.26898100  0.07767100  1
  H  H8  1  0.13593100  0.27988400  0.74170400  1
  H  H9  1  0.14092700  0.66185500  0.65053000  1
  H  H10  1  0.23101900  0.92232900  0.36398600  1
  H  H11  1  0.76395800  0.71682100  0.07535400  1
  H  H12  1  0.34947000  0.64092700  0.83814500  1
  H  H13  1  0.85907300  0.33814500  0.34947000  1
  H  H14  1  0.07767100  0.63601400  0.76898100  1
  H  H15  1  0.27988400  0.74170400  0.13593100  1
  H  H16  1  0.25829600  0.63593100  0.22011600  1
  H  H17  1  0.84947000  0.85907300  0.16185500  1
  H  H18  1  0.86406900  0.72011600  0.25829600  1
  H  H19  1  0.66185500  0.84947000  0.64092700  1
  H  H20  1  0.24170400  0.36406900  0.72011600  1
  H  H21  1  0.28317900  0.92464600  0.23604200  1
  H  H22  1  0.57535400  0.73604200  0.28317900  1
  H  H23  1  0.74170400  0.13593100  0.27988400  1
  H  H24  1  0.72011600  0.25829600  0.86406900  1
  H  H25  1  0.86398600  0.23101900  0.57767100  1
  H  H26  1  0.71682100  0.42464600  0.26395800  1
  H  H27  1  0.23101900  0.57767100  0.86398600  1
  H  H28  1  0.65053000  0.35907300  0.16185500  1
  H  H29  1  0.73101900  0.92232900  0.13601400  1
  H  H30  1  0.42232900  0.13601400  0.76898100  1
  H  H31  1  0.57535400  0.76395800  0.78317900  1
  H  H32  1  0.92232900  0.13601400  0.73101900  1
  H  H33  1  0.77988400  0.74170400  0.36406900  1
  H  H34  1  0.57767100  0.63601400  0.73101900  1
  H  H35  1  0.42464600  0.26395800  0.71682100  1
  H  H36  1  0.26395800  0.78317900  0.92464600  1
  H  H37  1  0.78317900  0.57535400  0.76395800  1
  H  H38  1  0.42232900  0.36398600  0.26898100  1
  H  H39  1  0.34947000  0.85907300  0.33814500  1
  H  H40  1  0.83814500  0.34947000  0.64092700  1
  H  H41  1  0.73101900  0.57767100  0.63601400  1
  H  H42  1  0.24170400  0.13593100  0.22011600  1
  H  H43  1  0.13593100  0.22011600  0.24170400  1
  H  H44  1  0.57767100  0.86398600  0.23101900  1
  H  H45  1  0.36406900  0.77988400  0.74170400  1
  H  H46  1  0.36406900  0.72011600  0.24170400  1
  H  H47  1  0.92464600  0.26395800  0.78317900  1
  H  H48  1  0.71682100  0.07535400  0.76395800  1
  H  H49  1  0.66185500  0.65053000  0.14092700  1
  H  H50  1  0.78317900  0.92464600  0.26395800  1
  H  H51  1  0.33814500  0.15053000  0.35907300  1
  H  H52  1  0.77988400  0.75829600  0.86406900  1
  H  H53  1  0.22011600  0.24170400  0.13593100  1
  H  H54  1  0.21682100  0.07535400  0.73604200  1
  H  H55  1  0.16185500  0.84947000  0.85907300  1
  H  H56  1  0.65053000  0.14092700  0.66185500  1
  H  H57  1  0.75829600  0.63593100  0.27988400  1
  H  H58  1  0.73604200  0.21682100  0.07535400  1
  H  H59  1  0.22011600  0.25829600  0.63593100  1
  H  H60  1  0.21682100  0.42464600  0.23604200  1
  H  H61  1  0.76898100  0.07767100  0.63601400  1
  H  H62  1  0.35907300  0.16185500  0.65053000  1
  H  H63  1  0.73604200  0.28317900  0.57535400  1
  H  H64  1  0.83814500  0.15053000  0.14092700  1
  H  H65  1  0.63601400  0.76898100  0.07767100  1
  H  H66  1  0.14092700  0.83814500  0.15053000  1
  H  H67  1  0.76898100  0.42232900  0.13601400  1
  H  H68  1  0.16185500  0.65053000  0.35907300  1
  H  H69  1  0.26898100  0.07767100  0.86398600  1
  H  H70  1  0.23604200  0.28317900  0.92464600  1
  H  H71  1  0.15053000  0.35907300  0.33814500  1
  H  H72  1  0.42464600  0.23604200  0.21682100  1
  H  H73  1  0.33814500  0.34947000  0.85907300  1
  H  H74  1  0.76395800  0.78317900  0.57535400  1
  H  H75  1  0.84947000  0.64092700  0.66185500  1
  H  H76  1  0.23604200  0.21682100  0.42464600  1
  H  H77  1  0.36398600  0.23101900  0.92232900  1
  H  H78  1  0.25829600  0.86406900  0.72011600  1
  H  H79  1  0.74170400  0.36406900  0.77988400  1
  H  H80  1  0.86406900  0.77988400  0.75829600  1
  H  H81  1  0.13601400  0.73101900  0.92232900  1
  H  H82  1  0.64092700  0.83814500  0.34947000  1
  H  H83  1  0.13601400  0.76898100  0.42232900  1
  H  H84  1  0.07767100  0.86398600  0.26898100  1
  H  H85  1  0.28317900  0.57535400  0.73604200  1
  H  H86  1  0.63593100  0.27988400  0.75829600  1
  H  H87  1  0.27988400  0.75829600  0.63593100  1
  H  H88  1  0.64092700  0.66185500  0.84947000  1
  H  H89  1  0.92232900  0.36398600  0.23101900  1
  H  H90  1  0.26898100  0.42232900  0.36398600  1
  H  H91  1  0.85907300  0.16185500  0.84947000  1
  H  H92  1  0.15053000  0.14092700  0.83814500  1
  H  H93  1  0.26395800  0.71682100  0.42464600  1
  H  H94  1  0.72011600  0.24170400  0.36406900  1
  H  H95  1  0.35907300  0.33814500  0.15053000  1
  C  C0  1  0.71542200  0.28457800  0.78457800  1
  C  C1  1  0.19370000  0.77468700  0.87931000  1
  C  C2  1  0.77468700  0.62069000  0.69370000  1
  C  C3  1  0.22531300  0.12069000  0.80630000  1
  C  C4  1  0.30630000  0.22531300  0.37931000  1
  C  C5  1  0.87931000  0.30630000  0.27468700  1
  C  C6  1  0.22531300  0.37931000  0.30630000  1
  C  C7  1  0.71542200  0.21542200  0.28457800  1
  C  C8  1  0.69370000  0.77468700  0.62069000  1
  C  C9  1  0.69370000  0.72531300  0.12069000  1
  C  C10  1  0.21542200  0.28457800  0.71542200  1
  C  C11  1  0.27468700  0.62069000  0.80630000  1
  C  C12  1  0.78457800  0.71542200  0.28457800  1
  C  C13  1  0.37931000  0.19370000  0.72531300  1
  C  C14  1  0.72531300  0.37931000  0.19370000  1
  C  C15  1  0.12069000  0.80630000  0.22531300  1
  C  C16  1  0.62069000  0.69370000  0.77468700  1
  C  C17  1  0.19370000  0.72531300  0.37931000  1
  C  C18  1  0.30630000  0.27468700  0.87931000  1
  C  C19  1  0.28457800  0.71542200  0.21542200  1
  C  C20  1  0.78457800  0.78457800  0.78457800  1
  C  C21  1  0.28457800  0.78457800  0.71542200  1
  C  C22  1  0.37931000  0.30630000  0.22531300  1
  C  C23  1  0.77468700  0.87931000  0.19370000  1
  C  C24  1  0.27468700  0.87931000  0.30630000  1
  C  C25  1  0.87931000  0.19370000  0.77468700  1
  C  C26  1  0.80630000  0.27468700  0.62069000  1
  C  C27  1  0.80630000  0.22531300  0.12069000  1
  C  C28  1  0.72531300  0.12069000  0.69370000  1
  C  C29  1  0.12069000  0.69370000  0.72531300  1
  C  C30  1  0.21542200  0.21542200  0.21542200  1
  C  C31  1  0.62069000  0.80630000  0.27468700  1
  N  N0  1  0.21808800  0.71808800  0.78191200  1
  N  N1  1  0.28191200  0.28191200  0.28191200  1
  N  N2  1  0.71808800  0.78191200  0.21808800  1
  N  N3  1  0.28191200  0.21808800  0.78191200  1
  N  N4  1  0.71808800  0.71808800  0.71808800  1
  N  N5  1  0.78191200  0.28191200  0.21808800  1
  N  N6  1  0.78191200  0.21808800  0.71808800  1
  N  N7  1  0.21808800  0.78191200  0.28191200  1
  Cl  Cl0  1  0.77762900  0.99249500  0.94702200  1
  Cl  Cl1  1  0.50750500  0.05297800  0.27762900  1
  Cl  Cl2  1  0.99249500  0.94702200  0.77762900  1
  Cl  Cl3  1  0.49249500  0.94702200  0.72237100  1
  Cl  Cl4  1  0.22237100  0.49249500  0.55297800  1
  Cl  Cl5  1  0.77762900  0.50750500  0.44702200  1
  Cl  Cl6  1  0.50750500  0.44702200  0.77762900  1
  Cl  Cl7  1  0.55297800  0.27762900  0.99249500  1
  Cl  Cl8  1  0.94702200  0.72237100  0.49249500  1
  Cl  Cl9  1  0.44702200  0.72237100  0.00750500  1
  Cl  Cl10  1  0.00750500  0.44702200  0.72237100  1
  Cl  Cl11  1  0.99249500  0.55297800  0.27762900  1
  Cl  Cl12  1  0.27762900  0.50750500  0.05297800  1
  Cl  Cl13  1  0.72237100  0.00750500  0.44702200  1
  Cl  Cl14  1  0.49249500  0.55297800  0.22237100  1
  Cl  Cl15  1  0.94702200  0.77762900  0.99249500  1
  Cl  Cl16  1  0.55297800  0.22237100  0.49249500  1
  Cl  Cl17  1  0.00750500  0.05297800  0.22237100  1
  Cl  Cl18  1  0.22237100  0.00750500  0.05297800  1
  Cl  Cl19  1  0.72237100  0.49249500  0.94702200  1
  Cl  Cl20  1  0.05297800  0.22237100  0.00750500  1
  Cl  Cl21  1  0.05297800  0.27762900  0.50750500  1
  Cl  Cl22  1  0.27762900  0.99249500  0.55297800  1
  Cl  Cl23  1  0.44702200  0.77762900  0.50750500  1
loop_
_geom_bond_atom_site_label_1
_geom_bond_atom_site_label_2
_geom_bond_distance
_geom_bond_site_symmetry_2
C0 H79 1.094057 1_555
C0 H86 1.094057 1_555
C0 H24 1.094057 1_555
C0 N6 1.502554 1_555
C1 H55 1.092854 1_555
C1 H36 1.096548 1_555
C1 H81 1.098220 1_555
C1 N0 1.503790 1_555
C2 H75 1.092854 1_555
C2 H37 1.096548 1_555
C2 H41 1.098220 1_555
C2 N4 1.503790 1_555
C3 H92 1.092854 1_555
C3 H54 1.096548 1_555
C3 H69 1.098220 1_555
C3 N3 1.503790 1_555
C4 H51 1.092854 1_555
C4 H76 1.096548 1_555
C4 H2 1.098220 1_555
C4 N1 1.503790 1_555
C5 H13 1.092854 1_555
C5 H0 1.096548 1_555
C5 H89 1.098220 1_555
C5 N5 1.503790 1_555
C6 H71 1.092854 1_555
C6 H60 1.096548 1_555
C6 H90 1.098220 1_555
C6 N1 1.503790 1_555
C7 H23 1.094057 1_555
C7 H94 1.094057 1_555
C7 H6 1.094057 1_555
C7 N5 1.502554 1_555
C8 H19 1.092854 1_555
C8 H74 1.096548 1_555
C8 H1 1.098220 1_555
C8 N4 1.503790 1_555
C9 H49 1.092854 1_555
C9 H11 1.096548 1_555
C9 H65 1.098220 1_555
C9 N2 1.503790 1_555
C10 H8 1.094057 1_555
C10 H20 1.094057 1_555
C10 H59 1.094057 1_555
C10 N3 1.502554 1_555
C11 H12 1.092854 1_555
C11 H85 1.096548 1_555
C11 H27 1.098220 1_555
C11 N0 1.503790 1_555
C12 H33 1.094057 1_555
C12 H57 1.094057 1_555
C12 H18 1.094057 1_555
C12 N2 1.502554 1_555
C13 H62 1.092854 1_555
C13 H35 1.096548 1_555
C13 H30 1.098220 1_555
C13 N3 1.503790 1_555
C14 H28 1.092854 1_555
C14 H26 1.096548 1_555
C14 H67 1.098220 1_555
C14 N5 1.503790 1_555
C15 H66 1.092854 1_555
C15 H3 1.096548 1_555
C15 H84 1.098220 1_555
C15 N7 1.503790 1_555
C16 H88 1.092854 1_555
C16 H31 1.096548 1_555
C16 H34 1.098220 1_555
C16 N4 1.503790 1_555
C17 H68 1.092854 1_555
C17 H93 1.096548 1_555
C17 H83 1.098220 1_555
C17 N7 1.503790 1_555
C18 H73 1.092854 1_555
C18 H70 1.096548 1_555
C18 H77 1.098220 1_555
C18 N3 1.503790 1_555
C19 H15 1.094057 1_555
C19 H46 1.094057 1_555
C19 H16 1.094057 1_555
C19 N7 1.502554 1_555
C20 H52 1.094057 1_555
C20 H80 1.094057 1_555
C20 H4 1.094057 1_555
C20 N4 1.502554 1_555
C21 H45 1.094057 1_555
C21 H87 1.094057 1_555
C21 H78 1.094057 1_555
C21 N0 1.502554 1_555
C22 H95 1.092854 1_555
C22 H72 1.096548 1_555
C22 H38 1.098220 1_555
C22 N1 1.503790 1_555
C23 H17 1.092854 1_555
C23 H50 1.096548 1_555
C23 H29 1.098220 1_555
C23 N2 1.503790 1_555
C24 H39 1.092854 1_555
C24 H21 1.096548 1_555
C24 H10 1.098220 1_555
C24 N7 1.503790 1_555
C25 H91 1.092854 1_555
C25 H47 1.096548 1_555
C25 H32 1.098220 1_555
C25 N6 1.503790 1_555
C26 H40 1.092854 1_555
C26 H63 1.096548 1_555
C26 H25 1.098220 1_555
C26 N6 1.503790 1_555
C27 H64 1.092854 1_555
C27 H58 1.096548 1_555
C27 H7 1.098220 1_555
C27 N5 1.503790 1_555
C28 H56 1.092854 1_555
C28 H48 1.096548 1_555
C28 H61 1.098220 1_555
C28 N6 1.503790 1_555
C29 H9 1.092854 1_555
C29 H5 1.096548 1_555
C29 H14 1.098220 1_555
C29 N0 1.503790 1_555
C30 H42 1.094057 1_555
C30 H53 1.094057 1_555
C30 H43 1.094057 1_555
C30 N1 1.502554 1_555
C31 H82 1.092854 1_555
C31 H22 1.096548 1_555
C31 H44 1.098220 1_555
C31 N2 1.503790 1_555
Cl0 Ga3 2.279061 1_555
Cl1 Ga4 2.279061 1_555
Cl2 Ga3 2.279061 1_555
Cl3 Ga2 2.279061 1_555
Cl4 Ga1 2.279061 1_555
Cl5 Ga6 2.279061 1_555
Cl6 Ga5 2.279061 1_555
Cl7 Ga5 2.279061 1_555
Cl8 Ga6 2.279061 1_555
Cl9 Ga7 2.279061 1_555
Cl10 Ga1 2.279061 1_555
Cl11 Ga6 2.279061 1_555
Cl12 Ga7 2.279061 1_555
Cl13 Ga4 2.279061 1_555
Cl14 Ga7 2.279061 1_555
Cl15 Ga3 2.279061 1_555
Cl16 Ga4 2.279061 1_555
Cl17 Ga0 2.279061 1_555
Cl18 Ga0 2.279061 1_555
Cl19 Ga5 2.279061 1_555
Cl20 Ga0 2.279061 1_555
Cl21 Ga1 2.279061 1_555
Cl22 Ga2 2.279061 1_555
Cl23 Ga2 2.279061 1_555
