# generated using pymatgen
data_SrZnP2(HO4)2
_symmetry_space_group_name_H-M   'P 1'
_cell_length_a   7.30299900
_cell_length_b   7.89662815
_cell_length_c   7.93753201
_cell_angle_alpha   97.49670883
_cell_angle_beta   107.37059269
_cell_angle_gamma   100.55901652
_symmetry_Int_Tables_number   1
_chemical_formula_structural   SrZnP2(HO4)2
_chemical_formula_sum   'Sr2 Zn2 P4 H4 O16'
_cell_volume   421.02793141
_cell_formula_units_Z   2
loop_
 _symmetry_equiv_pos_site_id
 _symmetry_equiv_pos_as_xyz
  1  'x, y, z'
loop_
 _atom_site_type_symbol
 _atom_site_label
 _atom_site_symmetry_multiplicity
 _atom_site_fract_x
 _atom_site_fract_y
 _atom_site_fract_z
 _atom_site_occupancy
  Sr  Sr0  1  0.59727200  0.02005400  0.27842800  1
  Sr  Sr1  1  0.40272800  0.97994600  0.72157200  1
  Zn  Zn0  1  0.59185100  0.52362200  0.28052300  1
  Zn  Zn1  1  0.40814900  0.47637800  0.71947700  1
  P  P0  1  0.25848000  0.21808600  0.34044500  1
  P  P1  1  0.74152000  0.78191400  0.65955500  1
  P  P2  1  0.27210400  0.67581800  0.02086000  1
  P  P3  1  0.72789600  0.32418200  0.97914000  1
  H  H0  1  0.08896600  0.17455400  0.18739000  1
  H  H1  1  0.91103400  0.82544600  0.81261000  1
  H  H2  1  0.08744900  0.64815100  0.04530400  1
  H  H3  1  0.91255100  0.35184900  0.95469600  1
  O  O0  1  0.42677800  0.68940700  0.20988300  1
  O  O1  1  0.57322200  0.31059300  0.79011700  1
  O  O2  1  0.26350100  0.51719600  0.88261100  1
  O  O3  1  0.73649900  0.48280400  0.11738900  1
  O  O4  1  0.22497500  0.35968600  0.47505400  1
  O  O5  1  0.77502500  0.64031400  0.52494600  1
  O  O6  1  0.43759700  0.28964200  0.28050000  1
  O  O7  1  0.56240300  0.71035800  0.71950000  1
  O  O8  1  0.29345100  0.04805800  0.40857800  1
  O  O9  1  0.70654900  0.95194200  0.59142200  1
  O  O10  1  0.68378200  0.14328100  0.03203900  1
  O  O11  1  0.31621800  0.85671900  0.96796100  1
  O  O12  1  0.88701600  0.85771700  0.21264500  1
  O  O13  1  0.11298400  0.14228300  0.78735500  1
  O  O14  1  0.90866100  0.28172100  0.53015900  1
  O  O15  1  0.09133900  0.71827900  0.46984100  1
loop_
_geom_bond_atom_site_label_1
_geom_bond_atom_site_label_2
_geom_bond_distance
_geom_bond_site_symmetry_2
H0 P0 1.401314 1_555
H1 P1 1.401314 1_555
H2 P2 1.401156 1_555
H3 P3 1.401156 1_555
O0 P2 1.562114 1_555
O0 Zn0 1.961602 1_555
O0 Sr0 2.587851 1_565
O1 P3 1.562114 1_555
O1 Zn1 1.961602 1_555
O1 Sr1 2.587851 1_545
O2 P2 1.532454 1_556
O2 Zn1 1.931101 1_555
O3 P3 1.532454 1_554
O3 Zn0 1.931101 1_555
O4 P0 1.548033 1_555
O4 Zn1 1.983611 1_555
O5 P1 1.548033 1_555
O5 Zn0 1.983611 1_555
O6 P0 1.558105 1_555
O6 Zn0 1.979854 1_555
O6 Sr0 2.608475 1_555
O7 P1 1.558105 1_555
O7 Zn1 1.979854 1_555
O7 Sr1 2.608475 1_555
O8 P0 1.546957 1_555
O8 Sr1 2.533880 1_545
O8 Sr0 2.743740 1_555
O9 P1 1.546957 1_555
O9 Sr0 2.533880 1_565
O9 Sr1 2.743740 1_555
O10 P3 1.545752 1_554
O10 Sr0 2.485944 1_555
O10 Sr1 2.670129 1_544
O11 P2 1.545752 1_556
O11 Sr1 2.485944 1_555
O11 Sr0 2.670129 1_566
O12 Sr0 2.805816 1_565
O13 Sr1 2.805816 1_545
O14 Sr0 2.814396 1_555
O15 Sr1 2.814396 1_555
