# generated using pymatgen
data_Ba3P4O13
_symmetry_space_group_name_H-M   'P 1'
_cell_length_a   6.91537600
_cell_length_b   7.32337093
_cell_length_c   7.64113766
_cell_angle_alpha   76.24647581
_cell_angle_beta   78.40630030
_cell_angle_gamma   63.29588998
_symmetry_Int_Tables_number   1
_chemical_formula_structural   Ba3P4O13
_chemical_formula_sum   'Ba3 P4 O13'
_cell_volume   333.80768495
_cell_formula_units_Z   1
loop_
 _symmetry_equiv_pos_site_id
 _symmetry_equiv_pos_as_xyz
  1  'x, y, z'
loop_
 _atom_site_type_symbol
 _atom_site_label
 _atom_site_symmetry_multiplicity
 _atom_site_fract_x
 _atom_site_fract_y
 _atom_site_fract_z
 _atom_site_occupancy
  Ba  Ba0  1  0.03936600  0.08187300  0.92636700  1
  Ba  Ba1  1  0.47334800  0.28409000  0.60102800  1
  Ba  Ba2  1  0.48710500  0.81237400  0.39671300  1
  P  P0  1  0.95180200  0.76055500  0.67407800  1
  P  P1  1  0.48430800  0.31958200  0.07979800  1
  P  P2  1  0.52247900  0.60576200  0.94931600  1
  P  P3  1  0.02415600  0.26481400  0.38236500  1
  O  O0  1  0.09139100  0.45388500  0.24580000  1
  O  O1  1  0.22437200  0.38145100  0.07449800  1
  O  O2  1  0.17432400  0.16369300  0.53794500  1
  O  O3  1  0.15200600  0.65388300  0.53823800  1
  O  O4  1  0.55430600  0.22110300  0.26521400  1
  O  O5  1  0.40996900  0.77393800  0.06697000  1
  O  O6  1  0.59658800  0.18253800  0.93389100  1
  O  O7  1  0.45080800  0.65504100  0.76388900  1
  O  O8  1  0.78811300  0.39619100  0.44778100  1
  O  O9  1  0.07167500  0.10748800  0.26338100  1
  O  O10  1  0.73521100  0.87673600  0.58338400  1
  O  O11  1  0.78597600  0.52154200  0.95601100  1
  O  O12  1  0.93229600  0.50706000  0.77923400  1
loop_
_geom_bond_atom_site_label_1
_geom_bond_atom_site_label_2
_geom_bond_distance
_geom_bond_site_symmetry_2
Ba0 O9 2.686120 1_556
Ba0 O5 2.751055 1_546
Ba0 O6 2.800550 1_455
Ba0 O12 2.847075 1_455
Ba0 O2 2.929612 1_555
Ba0 O11 2.933535 1_455
Ba1 O4 2.619896 1_555
Ba1 O3 2.627601 1_555
Ba1 O8 2.628260 1_555
Ba1 O6 2.674091 1_555
Ba1 O10 2.726673 1_545
Ba1 O2 2.743581 1_555
Ba2 O10 2.688997 1_555
Ba2 O7 2.775244 1_555
Ba2 O5 2.779318 1_555
Ba2 O8 2.798853 1_555
Ba2 O2 2.800534 1_565
Ba2 O9 2.917411 1_565
Ba2 O3 2.949580 1_555
Ba2 O4 3.133321 1_565
O0 P3 1.708477 1_555
O1 P1 1.651262 1_555
O2 P3 1.557727 1_555
O3 P0 1.562158 1_455
O4 P1 1.495920 1_555
O5 P2 1.521361 1_554
O6 P1 1.528677 1_556
O7 P2 1.503924 1_555
O8 P3 1.526182 1_655
O9 P3 1.516496 1_555
O10 P0 1.561753 1_555
O11 O12 1.510630 1_555
O11 P2 1.647949 1_555
O12 P0 1.892727 1_555
