# generated using pymatgen
data_TaAlO4
_symmetry_space_group_name_H-M   'P 1'
_cell_length_a   4.59943469
_cell_length_b   4.59943469
_cell_length_c   3.01394800
_cell_angle_alpha   90.00000000
_cell_angle_beta   90.00000000
_cell_angle_gamma   90.98010126
_symmetry_Int_Tables_number   1
_chemical_formula_structural   TaAlO4
_chemical_formula_sum   'Ta1 Al1 O4'
_cell_volume   63.75013725
_cell_formula_units_Z   1
loop_
 _symmetry_equiv_pos_site_id
 _symmetry_equiv_pos_as_xyz
  1  'x, y, z'
loop_
 _atom_site_type_symbol
 _atom_site_label
 _atom_site_symmetry_multiplicity
 _atom_site_fract_x
 _atom_site_fract_y
 _atom_site_fract_z
 _atom_site_occupancy
  Ta  Ta0  1  0.00000000  0.00000000  0.00000000  1
  Al  Al0  1  0.50000000  0.50000000  0.50000000  1
  O  O0  1  0.69180200  0.69180200  0.00000000  1
  O  O1  1  0.79843700  0.20156300  0.50000000  1
  O  O2  1  0.20156300  0.79843700  0.50000000  1
  O  O3  1  0.30819800  0.30819800  0.00000000  1
loop_
_geom_bond_atom_site_label_1
_geom_bond_atom_site_label_2
_geom_bond_distance
_geom_bond_site_symmetry_2
Al0 O0 1.949572 1_556
Al0 O0 1.949572 1_555
Al0 O3 1.949572 1_555
Al0 O3 1.949572 1_556
Al0 O2 1.957740 1_555
Al0 O1 1.957740 1_555
O0 Ta0 1.987480 1_665
O1 Ta0 2.004822 1_656
O1 Ta0 2.004822 1_655
O2 Ta0 2.004822 1_566
O2 Ta0 2.004822 1_565
O3 Ta0 1.987480 1_555
