# generated using pymatgen
data_U4Ga12Co
_symmetry_space_group_name_H-M   'P 1'
_cell_length_a   7.41170521
_cell_length_b   7.41170521
_cell_length_c   7.41170521
_cell_angle_alpha   109.47122063
_cell_angle_beta   109.47122063
_cell_angle_gamma   109.47122063
_symmetry_Int_Tables_number   1
_chemical_formula_structural   U4Ga12Co
_chemical_formula_sum   'U4 Ga12 Co1'
_cell_volume   313.42419743
_cell_formula_units_Z   1
loop_
 _symmetry_equiv_pos_site_id
 _symmetry_equiv_pos_as_xyz
  1  'x, y, z'
loop_
 _atom_site_type_symbol
 _atom_site_label
 _atom_site_symmetry_multiplicity
 _atom_site_fract_x
 _atom_site_fract_y
 _atom_site_fract_z
 _atom_site_occupancy
  U  U0  1  0.50000000  0.50000000  0.50000000  1
  U  U1  1  0.00000000  0.50000000  0.00000000  1
  U  U2  1  0.00000000  0.00000000  0.50000000  1
  U  U3  1  0.50000000  0.00000000  0.00000000  1
  Ga  Ga0  1  0.75000000  0.25000000  0.50000000  1
  Ga  Ga1  1  0.00000000  0.28158400  0.28158400  1
  Ga  Ga2  1  0.28158400  0.28158400  0.00000000  1
  Ga  Ga3  1  0.71841600  0.00000000  0.71841600  1
  Ga  Ga4  1  0.50000000  0.25000000  0.75000000  1
  Ga  Ga5  1  0.75000000  0.50000000  0.25000000  1
  Ga  Ga6  1  0.25000000  0.75000000  0.50000000  1
  Ga  Ga7  1  0.25000000  0.50000000  0.75000000  1
  Ga  Ga8  1  0.28158400  0.00000000  0.28158400  1
  Ga  Ga9  1  0.50000000  0.75000000  0.25000000  1
  Ga  Ga10  1  0.71841600  0.71841600  0.00000000  1
  Ga  Ga11  1  0.00000000  0.71841600  0.71841600  1
  Co  Co0  1  0.00000000  0.00000000  0.00000000  1
loop_
_geom_bond_atom_site_label_1
_geom_bond_atom_site_label_2
_geom_bond_distance
_geom_bond_site_symmetry_2
Ga0 Ga11 2.841118 1_655
Ga0 Ga3 2.841118 1_555
Ga0 Ga1 2.841118 1_655
Ga0 Ga8 2.841118 1_555
Ga0 Ga9 3.025816 1_545
Ga0 U0 3.025816 1_555
Ga0 Ga4 3.025816 1_555
Ga0 U3 3.025816 1_555
Ga0 Ga5 3.025816 1_555
Ga0 U1 3.025816 1_656
Ga0 Ga7 3.025816 1_655
Ga0 U2 3.025816 1_655
Ga1 Ga6 2.841118 1_555
Ga1 Ga5 2.841118 1_455
Ga1 Ga7 2.841118 1_555
Ga1 U3 3.037866 1_455
Ga1 U2 3.037866 1_555
Ga1 U0 3.037866 1_555
Ga1 U1 3.037866 1_555
Ga2 Ga9 2.841118 1_555
Ga2 Ga5 2.841118 1_555
Ga2 Ga7 2.841118 1_554
Ga2 Ga4 2.841118 1_554
Ga2 U3 3.037866 1_555
Ga2 U2 3.037866 1_554
Ga2 U0 3.037866 1_555
Ga2 U1 3.037866 1_555
Ga3 Ga4 2.841118 1_555
Ga3 Ga9 2.841118 1_545
Ga3 Ga6 2.841118 1_545
Ga3 U1 3.037866 1_656
Ga3 U3 3.037866 1_556
Ga3 U2 3.037866 1_655
Ga3 U0 3.037866 1_545
Ga4 Ga8 2.841118 1_555
Ga4 U3 3.025816 1_556
Ga4 U0 3.025816 1_555
Ga4 Ga5 3.025816 1_556
Ga4 Ga7 3.025816 1_555
Ga4 U1 3.025816 1_656
Ga4 U2 3.025816 1_555
Ga4 Ga6 3.025816 1_545
Ga5 U2 3.025816 1_665
Ga5 Ga9 3.025816 1_555
Ga5 U0 3.025816 1_555
Ga5 Ga6 3.025816 1_655
Ga5 U1 3.025816 1_655
Ga5 U3 3.025816 1_555
Ga6 Ga8 2.841118 1_565
Ga6 Ga9 3.025816 1_555
Ga6 U0 3.025816 1_555
Ga6 U3 3.025816 1_566
Ga6 U1 3.025816 1_555
Ga6 Ga7 3.025816 1_555
Ga6 U2 3.025816 1_565
Ga7 U0 3.025816 1_555
Ga7 U1 3.025816 1_556
Ga7 U3 3.025816 1_566
Ga7 Ga9 3.025816 1_556
Ga7 U2 3.025816 1_555
Ga8 Ga9 2.841118 1_545
Ga8 U2 3.037866 1_555
Ga8 U3 3.037866 1_555
Ga8 U0 3.037866 1_555
Ga8 U1 3.037866 1_545
Ga9 U2 3.025816 1_665
Ga9 U0 3.025816 1_555
Ga9 U1 3.025816 1_555
Ga9 U3 3.025816 1_565
Ga10 Ga7 2.841118 1_554
Ga10 Ga5 2.841118 1_555
Ga10 Ga4 2.841118 1_554
Ga10 Ga9 2.841118 1_555
Ga10 U2 3.037866 1_665
Ga10 U3 3.037866 1_565
Ga10 U0 3.037866 1_554
Ga10 U1 3.037866 1_655
Ga11 Ga6 2.841118 1_555
Ga11 Ga5 2.841118 1_455
Ga11 Ga7 2.841118 1_555
Ga11 U2 3.037866 1_565
Ga11 U3 3.037866 1_566
Ga11 U1 3.037866 1_556
Ga11 U0 3.037866 1_455
Co0 Ga1 2.409880 1_555
Co0 Ga2 2.409880 1_555
Co0 Ga8 2.409880 1_555
Co0 Ga10 2.409880 1_445
Co0 Ga11 2.409880 1_544
Co0 Ga3 2.409880 1_454
