# generated using pymatgen
data_NaCa3ScZn3(SiO3)8
_symmetry_space_group_name_H-M   'P 1'
_cell_length_a   18.13098900
_cell_length_b   5.33745800
_cell_length_c   9.92602137
_cell_angle_alpha   74.99568757
_cell_angle_beta   90.00000000
_cell_angle_gamma   90.00000000
_symmetry_Int_Tables_number   1
_chemical_formula_structural   NaCa3ScZn3(SiO3)8
_chemical_formula_sum   'Na2 Ca6 Sc2 Zn6 Si16 O48'
_cell_volume   927.82525329
_cell_formula_units_Z   2
loop_
 _symmetry_equiv_pos_site_id
 _symmetry_equiv_pos_as_xyz
  1  'x, y, z'
loop_
 _atom_site_type_symbol
 _atom_site_label
 _atom_site_symmetry_multiplicity
 _atom_site_fract_x
 _atom_site_fract_y
 _atom_site_fract_z
 _atom_site_occupancy
  Na  Na0  1  0.52802600  0.50000000  0.75000000  1
  Na  Na1  1  0.47197400  0.50000000  0.25000000  1
  Ca  Ca0  1  0.27490500  0.00000000  0.25000000  1
  Ca  Ca1  1  0.02363700  0.50000000  0.75000000  1
  Ca  Ca2  1  0.77605900  0.00000000  0.25000000  1
  Ca  Ca3  1  0.22394100  0.00000000  0.75000000  1
  Ca  Ca4  1  0.97636300  0.50000000  0.25000000  1
  Ca  Ca5  1  0.72509500  0.00000000  0.75000000  1
  Sc  Sc0  1  0.57360700  0.00000000  0.25000000  1
  Sc  Sc1  1  0.42639300  0.00000000  0.75000000  1
  Zn  Zn0  1  0.32570100  0.50000000  0.75000000  1
  Zn  Zn1  1  0.07788100  0.00000000  0.25000000  1
  Zn  Zn2  1  0.17335900  0.50000000  0.25000000  1
  Zn  Zn3  1  0.82664100  0.50000000  0.75000000  1
  Zn  Zn4  1  0.92211900  0.00000000  0.75000000  1
  Zn  Zn5  1  0.67429900  0.50000000  0.25000000  1
  Si  Si0  1  0.17030800  0.69661300  0.53631700  1
  Si  Si1  1  0.17030800  0.30338700  0.96368300  1
  Si  Si2  1  0.92186600  0.19741100  0.03539100  1
  Si  Si3  1  0.32919500  0.69975800  0.03757000  1
  Si  Si4  1  0.92186600  0.80258900  0.46460900  1
  Si  Si5  1  0.67080500  0.69975800  0.53757000  1
  Si  Si6  1  0.32919500  0.30024200  0.46243000  1
  Si  Si7  1  0.07813400  0.19741100  0.53539100  1
  Si  Si8  1  0.67080500  0.30024200  0.96243000  1
  Si  Si9  1  0.41997000  0.20128000  0.03645200  1
  Si  Si10  1  0.07813400  0.80258900  0.96460900  1
  Si  Si11  1  0.82969200  0.69661300  0.03631700  1
  Si  Si12  1  0.41997000  0.79872000  0.46354800  1
  Si  Si13  1  0.82969200  0.30338700  0.46368300  1
  Si  Si14  1  0.58003000  0.20128000  0.53645200  1
  Si  Si15  1  0.58003000  0.79872000  0.96354800  1
  O  O0  1  0.36626200  0.40567100  0.09629500  1
  O  O1  1  0.11577000  0.90235800  0.59809100  1
  O  O2  1  0.24729200  0.71028200  0.61501700  1
  O  O3  1  0.86734700  0.40168400  0.09813400  1
  O  O4  1  0.16994300  0.77936400  0.36711100  1
  O  O5  1  0.16994300  0.22063600  0.13288900  1
  O  O6  1  0.99951300  0.21316600  0.11163800  1
  O  O7  1  0.61910100  0.90931700  0.59891100  1
  O  O8  1  0.36626200  0.59432900  0.40370500  1
  O  O9  1  0.24729200  0.28971800  0.88498300  1
  O  O10  1  0.92007000  0.27913500  0.86636500  1
  O  O11  1  0.25091500  0.71193100  0.11156900  1
  O  O12  1  0.13265300  0.40168400  0.59813400  1
  O  O13  1  0.33158100  0.78463600  0.86741300  1
  O  O14  1  0.92007000  0.72086500  0.63363500  1
  O  O15  1  0.74908500  0.71193100  0.61156900  1
  O  O16  1  0.11577000  0.09764200  0.90190900  1
  O  O17  1  0.99951300  0.78683400  0.38836200  1
  O  O18  1  0.33158100  0.21536400  0.63258700  1
  O  O19  1  0.66841900  0.78463600  0.36741300  1
  O  O20  1  0.00048700  0.21316600  0.61163800  1
  O  O21  1  0.88423000  0.90235800  0.09809100  1
  O  O22  1  0.25091500  0.28806900  0.38843100  1
  O  O23  1  0.07993000  0.27913500  0.36636500  1
  O  O24  1  0.66841900  0.21536400  0.13258700  1
  O  O25  1  0.49870200  0.20186500  0.11123800  1
  O  O26  1  0.86734700  0.59831600  0.40186600  1
  O  O27  1  0.74908500  0.28806900  0.88843100  1
  O  O28  1  0.07993000  0.72086500  0.13363500  1
  O  O29  1  0.41730300  0.27711800  0.86740900  1
  O  O30  1  0.75270800  0.71028200  0.11501700  1
  O  O31  1  0.63373800  0.40567100  0.59629500  1
  O  O32  1  0.00048700  0.78683400  0.88836200  1
  O  O33  1  0.83005700  0.77936400  0.86711100  1
  O  O34  1  0.41730300  0.72288200  0.63259100  1
  O  O35  1  0.61910100  0.09068300  0.90108900  1
  O  O36  1  0.49870200  0.79813500  0.38876200  1
  O  O37  1  0.83005700  0.22063600  0.63288900  1
  O  O38  1  0.50129800  0.20186500  0.61123800  1
  O  O39  1  0.38089900  0.90931700  0.09891100  1
  O  O40  1  0.13265300  0.59831600  0.90186600  1
  O  O41  1  0.75270800  0.28971800  0.38498300  1
  O  O42  1  0.58269700  0.27711800  0.36740900  1
  O  O43  1  0.58269700  0.72288200  0.13259100  1
  O  O44  1  0.88423000  0.09764200  0.40190900  1
  O  O45  1  0.50129800  0.79813500  0.88876200  1
  O  O46  1  0.63373800  0.59432900  0.90370500  1
  O  O47  1  0.38089900  0.09068300  0.40108900  1
loop_
_geom_bond_atom_site_label_1
_geom_bond_atom_site_label_2
_geom_bond_distance
_geom_bond_site_symmetry_2
Na0 O45 2.408109 1_555
Na0 O38 2.408109 1_555
Na0 O34 2.466910 1_555
Na0 O29 2.466910 1_555
Na0 O46 2.579247 1_555
Na0 O31 2.579247 1_555
Na0 O35 2.837665 1_555
Na0 O7 2.837665 1_555
Na1 O36 2.408109 1_555
Na1 O25 2.408109 1_555
Na1 O43 2.466910 1_555
Na1 O42 2.466910 1_555
Na1 O8 2.579247 1_555
Na1 O0 2.579247 1_555
Na1 O39 2.837665 1_555
Na1 O47 2.837665 1_555
Ca0 O22 2.352714 1_555
Ca0 O11 2.352714 1_545
Ca0 O4 2.377172 1_545
Ca0 O5 2.377172 1_555
Ca0 O47 2.559782 1_555
Ca0 O39 2.559782 1_545
Ca0 O8 2.837105 1_545
Ca0 O0 2.837105 1_555
Ca1 O32 2.344121 1_555
Ca1 O20 2.344121 1_555
Ca1 O10 2.354745 1_455
Ca1 O14 2.354745 1_455
Ca1 O40 2.619944 1_555
Ca1 O12 2.619944 1_555
Ca1 O1 2.828325 1_555
Ca1 O16 2.828325 1_555
Ca2 O41 2.332046 1_555
Ca2 O30 2.332046 1_545
Ca2 O19 2.407231 1_545
Ca2 O24 2.407231 1_555
Ca2 O44 2.607414 1_555
Ca2 O21 2.607414 1_545
Ca2 O26 2.816918 1_545
Ca2 O3 2.816918 1_555
Ca3 O9 2.332046 1_555
Ca3 O2 2.332046 1_545
Ca3 O18 2.407231 1_555
Ca3 O13 2.407231 1_545
Ca3 O16 2.607414 1_555
Ca3 O1 2.607414 1_545
Ca3 O40 2.816918 1_545
Ca3 O12 2.816918 1_555
Ca4 O17 2.344121 1_555
Ca4 O6 2.344121 1_555
Ca4 O28 2.354745 1_655
Ca4 O23 2.354745 1_655
Ca4 O3 2.619944 1_555
Ca4 O26 2.619944 1_555
Ca4 O21 2.828325 1_555
Ca4 O44 2.828325 1_555
Ca5 O27 2.352714 1_555
Ca5 O15 2.352714 1_545
Ca5 O33 2.377172 1_545
Ca5 O37 2.377172 1_555
Ca5 O35 2.559782 1_555
Ca5 O7 2.559782 1_545
Ca5 O31 2.837105 1_555
Ca5 O46 2.837105 1_545
O0 Si3 1.667805 1_555
O0 Si9 1.681292 1_555
O1 Si7 1.680948 1_565
O1 Si0 1.705390 1_555
O2 Si0 1.610378 1_555
O2 Zn0 2.072992 1_555
O3 Si11 1.679433 1_555
O3 Si2 1.704495 1_555
O4 Si0 1.622309 1_555
O4 Zn2 2.115646 1_555
O4 Zn1 2.194411 1_565
O5 Si1 1.622309 1_554
O5 Zn2 2.115646 1_555
O5 Zn1 2.194411 1_555
O6 Si2 1.610827 1_555
O6 Zn1 2.095361 1_655
O7 Si14 1.677608 1_565
O7 Si5 1.689149 1_555
O8 Si6 1.667805 1_555
O8 Si12 1.681292 1_555
O9 Si1 1.610378 1_555
O9 Zn0 2.072992 1_555
O10 Si2 1.620883 1_556
O10 Zn4 2.108614 1_555
O10 Zn3 2.210950 1_555
O11 Si3 1.607122 1_555
O11 Zn2 2.083297 1_555
O12 Si0 1.679433 1_555
O12 Si7 1.704495 1_555
O13 Si3 1.632048 1_556
O13 Zn0 2.143472 1_555
O13 Sc1 2.222841 1_565
O14 Si4 1.620883 1_555
O14 Zn4 2.108614 1_565
O14 Zn3 2.210950 1_555
O15 Si5 1.607122 1_555
O15 Zn3 2.083297 1_555
O16 Si10 1.680948 1_545
O16 Si1 1.705390 1_555
O17 Si4 1.610827 1_555
O17 Zn1 2.095361 1_665
O18 Si6 1.632048 1_555
O18 Zn0 2.143472 1_555
O18 Sc1 2.222841 1_555
O19 Si5 1.632048 1_555
O19 Zn5 2.143472 1_555
O19 Sc0 2.222841 1_565
O20 Si7 1.610827 1_555
O20 Zn4 2.095361 1_455
O21 Si2 1.680948 1_565
O21 Si11 1.705390 1_555
O22 Si6 1.607122 1_555
O22 Zn2 2.083297 1_555
O23 Si7 1.620883 1_555
O23 Zn1 2.108614 1_555
O23 Zn2 2.210950 1_555
O24 Si8 1.632048 1_554
O24 Zn5 2.143472 1_555
O24 Sc0 2.222841 1_555
O25 Si9 1.609343 1_555
O25 Sc0 2.033232 1_555
O26 Si13 1.679433 1_555
O26 Si4 1.704495 1_555
O27 Si8 1.607122 1_555
O27 Zn3 2.083297 1_555
O28 Si10 1.620883 1_554
O28 Zn1 2.108614 1_565
O28 Zn2 2.210950 1_555
O29 Si9 1.621710 1_556
O29 Sc1 2.113200 1_555
O29 Zn0 2.194058 1_555
O30 Si11 1.610378 1_555
O30 Zn5 2.072992 1_555
O31 Si5 1.667805 1_555
O31 Si14 1.681292 1_555
O32 Si10 1.610827 1_555
O32 Zn4 2.095361 1_465
O33 Si11 1.622309 1_556
O33 Zn3 2.115646 1_555
O33 Zn4 2.194411 1_565
O34 Si12 1.621710 1_555
O34 Sc1 2.113200 1_565
O34 Zn0 2.194058 1_555
O35 Si15 1.677608 1_545
O35 Si8 1.689149 1_555
O36 Si12 1.609343 1_555
O36 Sc0 2.033232 1_565
O37 Si13 1.622309 1_555
O37 Zn3 2.115646 1_555
O37 Zn4 2.194411 1_555
O38 Si14 1.609343 1_555
O38 Sc1 2.033232 1_555
O39 Si9 1.677608 1_565
O39 Si3 1.689149 1_555
O40 Si1 1.679433 1_555
O40 Si10 1.704495 1_555
O41 Si13 1.610378 1_555
O41 Zn5 2.072992 1_555
O42 Si14 1.621710 1_555
O42 Sc0 2.113200 1_555
O42 Zn5 2.194058 1_555
O43 Si15 1.621710 1_554
O43 Sc0 2.113200 1_565
O43 Zn5 2.194058 1_555
O44 Si4 1.680948 1_545
O44 Si13 1.705390 1_555
O45 Si15 1.609343 1_555
O45 Sc1 2.033232 1_565
O46 Si8 1.667805 1_555
O46 Si15 1.681292 1_555
O47 Si12 1.677608 1_545
O47 Si6 1.689149 1_555
