# generated using pymatgen
data_SiO2
_symmetry_space_group_name_H-M   'P 1'
_cell_length_a   9.60865043
_cell_length_b   9.60865043
_cell_length_c   23.83141880
_cell_angle_alpha   74.64007011
_cell_angle_beta   74.64007011
_cell_angle_gamma   30.20607000
_symmetry_Int_Tables_number   1
_chemical_formula_structural   SiO2
_chemical_formula_sum   'Si24 O48'
_cell_volume   1064.50034486
_cell_formula_units_Z   24
loop_
 _symmetry_equiv_pos_site_id
 _symmetry_equiv_pos_as_xyz
  1  'x, y, z'
loop_
 _atom_site_type_symbol
 _atom_site_label
 _atom_site_symmetry_multiplicity
 _atom_site_fract_x
 _atom_site_fract_y
 _atom_site_fract_z
 _atom_site_occupancy
  Si  Si0  1  0.02368804  0.12143491  0.95840209  1
  Si  Si1  1  0.97726400  0.86755234  0.55874449  1
  Si  Si2  1  0.88766174  0.80955781  0.85322126  1
  Si  Si3  1  0.85860757  0.74180204  0.98976831  1
  Si  Si4  1  0.47423233  0.36210463  0.63348955  1
  Si  Si5  1  0.74180204  0.85860757  0.48976831  1
  Si  Si6  1  0.51621322  0.61365469  0.88469226  1
  Si  Si7  1  0.20079767  0.32530156  0.71655029  1
  Si  Si8  1  0.50583954  0.59246855  0.19134713  1
  Si  Si9  1  0.10233949  0.18622789  0.15187406  1
  Si  Si10  1  0.25959893  0.14200703  0.01766155  1
  Si  Si11  1  0.59246855  0.50583954  0.69134713  1
  Si  Si12  1  0.61365469  0.51621322  0.38469226  1
  Si  Si13  1  0.14200703  0.25959893  0.51766155  1
  Si  Si14  1  0.32530156  0.20079767  0.21655029  1
  Si  Si15  1  0.48416446  0.40462971  0.81876232  1
  Si  Si16  1  0.78325722  0.65773836  0.29448085  1
  Si  Si17  1  0.86755234  0.97726400  0.05874449  1
  Si  Si18  1  0.12143491  0.02368804  0.45840209  1
  Si  Si19  1  0.40462971  0.48416446  0.31876232  1
  Si  Si20  1  0.80955781  0.88766174  0.35322126  1
  Si  Si21  1  0.18622789  0.10233949  0.65187406  1
  Si  Si22  1  0.36210463  0.47423233  0.13348955  1
  Si  Si23  1  0.65773836  0.78325722  0.79448085  1
  O  O0  1  0.15394322  0.14996576  0.58349479  1
  O  O1  1  0.88351341  0.61472296  0.73940281  1
  O  O2  1  0.00413893  0.00511182  0.01602936  1
  O  O3  1  0.51083607  0.48423053  0.64728442  1
  O  O4  1  0.07356488  0.75346742  0.31750994  1
  O  O5  1  0.27540459  0.55300898  0.58050563  1
  O  O6  1  0.20788360  0.24050142  0.66426465  1
  O  O7  1  0.40785563  0.13828195  0.49929012  1
  O  O8  1  0.74494479  0.79447513  0.84016999  1
  O  O9  1  0.23592264  0.92504100  0.18984768  1
  O  O10  1  0.86308050  0.59387058  0.51322215  1
  O  O11  1  0.04817510  0.77155397  0.11483200  1
  O  O12  1  0.16110234  0.13944003  0.97353008  1
  O  O13  1  0.13944003  0.16110234  0.47353008  1
  O  O14  1  0.92504100  0.23592264  0.68984768  1
  O  O15  1  0.09351708  0.36180705  0.27075217  1
  O  O16  1  0.85616489  0.86435863  0.52533109  1
  O  O17  1  0.71767130  0.42559188  0.93694275  1
  O  O18  1  0.14996576  0.15394322  0.08349479  1
  O  O19  1  0.77526478  0.46443082  0.17088697  1
  O  O20  1  0.63324653  0.63484948  0.82742905  1
  O  O21  1  0.77155397  0.04817510  0.61483200  1
  O  O22  1  0.36180705  0.09351708  0.77075217  1
  O  O23  1  0.55300898  0.27540459  0.08050563  1
  O  O24  1  0.34259699  0.36098690  0.69158190  1
  O  O25  1  0.24050142  0.20788360  0.16426465  1
  O  O26  1  0.46443082  0.77526478  0.67088697  1
  O  O27  1  0.83789560  0.84063855  0.42180590  1
  O  O28  1  0.59387058  0.86308050  0.01322215  1
  O  O29  1  0.42559188  0.71767130  0.43694275  1
  O  O30  1  0.36098690  0.34259699  0.19158190  1
  O  O31  1  0.86435863  0.85616489  0.02533109  1
  O  O32  1  0.00511182  0.00413893  0.51602936  1
  O  O33  1  0.47142199  0.53100477  0.75647555  1
  O  O34  1  0.48423053  0.51083607  0.14728442  1
  O  O35  1  0.47696185  0.49818421  0.36870958  1
  O  O36  1  0.79447513  0.74494479  0.34016999  1
  O  O37  1  0.53266847  0.21380019  0.33301553  1
  O  O38  1  0.13828195  0.40785563  -0.00070988  1
  O  O39  1  0.21105130  0.91887376  0.90638971  1
  O  O40  1  0.91887376  0.21105130  0.40638971  1
  O  O41  1  0.84063855  0.83789560  0.92180590  1
  O  O42  1  0.75346742  0.07356488  0.81750994  1
  O  O43  1  0.21380019  0.53266847  0.83301553  1
  O  O44  1  0.63484948  0.63324653  0.32742905  1
  O  O45  1  0.61472296  0.88351341  0.23940281  1
  O  O46  1  0.49818421  0.47696185  0.86870958  1
  O  O47  1  0.53100477  0.47142199  0.25647555  1
loop_
_geom_bond_atom_site_label_1
_geom_bond_atom_site_label_2
_geom_bond_distance
_geom_bond_site_symmetry_2
O0 Si21 1.608893 1_555
O0 Si13 1.610979 1_555
O1 Si7 1.610388 1_655
O1 Si23 1.611504 1_555
O2 Si0 1.607376 1_554
O2 Si17 1.607857 1_445
O3 Si4 1.608662 1_555
O3 Si11 1.610705 1_555
O4 Si19 1.611762 1_555
O4 Si20 1.614310 1_455
O5 Si1 1.612970 1_455
O5 Si4 1.613302 1_555
O6 Si21 1.615724 1_555
O6 Si7 1.618088 1_555
O7 Si5 1.613183 1_545
O7 Si13 1.614568 1_555
O8 Si2 1.609843 1_555
O8 Si23 1.612747 1_555
O9 Si8 1.613365 1_555
O9 Si9 1.615311 1_565
O10 Si13 1.613015 1_655
O10 Si5 1.615342 1_555
O11 Si22 1.612734 1_555
O11 Si17 1.614187 1_455
O12 Si0 1.607271 1_555
O12 Si10 1.607427 1_556
O13 Si18 1.607271 1_555
O13 Si13 1.607427 1_555
O14 Si11 1.613365 1_555
O14 Si21 1.615311 1_655
O15 Si16 1.612288 1_455
O15 Si14 1.612851 1_555
O16 Si5 1.597495 1_555
O16 Si1 1.598281 1_555
O17 Si0 1.612548 1_655
O17 Si6 1.613039 1_555
O18 Si9 1.608893 1_555
O18 Si10 1.610979 1_555
O19 Si9 1.610734 1_655
O19 Si8 1.611631 1_555
O20 Si23 1.610704 1_555
O20 Si6 1.613686 1_555
O21 Si4 1.612734 1_555
O21 Si1 1.614187 1_545
O22 Si23 1.612288 1_545
O22 Si7 1.612851 1_555
O23 Si17 1.612970 1_545
O23 Si22 1.613302 1_555
O24 Si7 1.611819 1_555
O24 Si4 1.613848 1_555
O25 Si9 1.615724 1_555
O25 Si14 1.618088 1_555
O26 Si21 1.610734 1_565
O26 Si11 1.611631 1_555
O27 Si20 1.606758 1_555
O27 Si5 1.608086 1_555
O28 Si10 1.613015 1_565
O28 Si3 1.615342 1_554
O29 Si18 1.612548 1_565
O29 Si12 1.613039 1_555
O30 Si14 1.611819 1_555
O30 Si22 1.613848 1_555
O31 Si3 1.597495 1_554
O31 Si17 1.598281 1_555
O32 Si18 1.607376 1_555
O32 Si1 1.607857 1_445
O33 Si11 1.605192 1_555
O33 Si15 1.605400 1_555
O34 Si22 1.608662 1_555
O34 Si8 1.610705 1_555
O35 Si12 1.610420 1_555
O35 Si19 1.613406 1_555
O36 Si20 1.609843 1_555
O36 Si16 1.612747 1_555
O37 Si20 1.612198 1_545
O37 Si19 1.614749 1_555
O38 Si3 1.613183 1_454
O38 Si10 1.614568 1_555
O39 Si6 1.613302 1_555
O39 Si0 1.614059 1_565
O40 Si12 1.613302 1_555
O40 Si18 1.614059 1_655
O41 Si2 1.606758 1_555
O41 Si3 1.608086 1_555
O42 Si15 1.611762 1_555
O42 Si2 1.614310 1_545
O43 Si2 1.612198 1_455
O43 Si15 1.614749 1_555
O44 Si16 1.610704 1_555
O44 Si12 1.613686 1_555
O45 Si14 1.610388 1_565
O45 Si16 1.611504 1_555
O46 Si6 1.610420 1_555
O46 Si15 1.613406 1_555
O47 Si8 1.605192 1_555
O47 Si19 1.605400 1_555
