# generated using pymatgen
data_Gd2(FeB)7
_symmetry_space_group_name_H-M   'P 1'
_cell_length_a   7.00568453
_cell_length_b   6.98852794
_cell_length_c   27.03721212
_cell_angle_alpha   90.00000000
_cell_angle_beta   90.00000000
_cell_angle_gamma   90.00000000
_symmetry_Int_Tables_number   1
_chemical_formula_structural   Gd2(FeB)7
_chemical_formula_sum   'Gd16 Fe56 B56'
_cell_volume   1323.72627996
_cell_formula_units_Z   8
loop_
 _symmetry_equiv_pos_site_id
 _symmetry_equiv_pos_as_xyz
  1  'x, y, z'
loop_
 _atom_site_type_symbol
 _atom_site_label
 _atom_site_symmetry_multiplicity
 _atom_site_fract_x
 _atom_site_fract_y
 _atom_site_fract_z
 _atom_site_occupancy
  Gd  Gd0  1  0.75000000  0.25000000  0.15636275  1
  Gd  Gd1  1  0.75000000  0.25000000  0.40610890  1
  Gd  Gd2  1  0.75000000  0.25000000  0.65636275  1
  Gd  Gd3  1  0.25000000  0.75000000  0.84363725  1
  Gd  Gd4  1  0.75000000  0.25000000  0.03131059  1
  Gd  Gd5  1  0.75000000  0.25000000  0.28129642  1
  Gd  Gd6  1  0.25000000  0.75000000  0.71870358  1
  Gd  Gd7  1  0.25000000  0.75000000  0.59389110  1
  Gd  Gd8  1  0.25000000  0.75000000  0.34363725  1
  Gd  Gd9  1  0.25000000  0.75000000  0.21870358  1
  Gd  Gd10  1  0.75000000  0.25000000  0.53131059  1
  Gd  Gd11  1  0.25000000  0.75000000  0.46868941  1
  Gd  Gd12  1  0.25000000  0.75000000  0.96868941  1
  Gd  Gd13  1  0.25000000  0.75000000  0.09389110  1
  Gd  Gd14  1  0.75000000  0.25000000  0.78129642  1
  Gd  Gd15  1  0.75000000  0.25000000  0.90610890  1
  Fe  Fe0  1  0.88104050  0.86558486  0.26674442  1
  Fe  Fe1  1  0.37732307  0.36677555  0.44915004  1
  Fe  Fe2  1  0.61712957  0.86354391  0.90855113  1
  Fe  Fe3  1  0.13596305  0.38299873  0.66214978  1
  Fe  Fe4  1  0.11895950  0.36558486  0.23325558  1
  Fe  Fe5  1  0.86428762  0.88108809  0.97952034  1
  Fe  Fe6  1  0.12883383  0.12688886  0.87716940  1
  Fe  Fe7  1  0.12883383  0.37311114  0.37716940  1
  Fe  Fe8  1  0.37116617  0.12688886  0.37716940  1
  Fe  Fe9  1  0.36868988  0.37623812  0.30504826  1
  Fe  Fe10  1  0.36428762  0.11891191  0.52047966  1
  Fe  Fe11  1  0.86428762  0.61891191  0.47952034  1
  Fe  Fe12  1  0.62883383  0.62688886  0.12283060  1
  Fe  Fe13  1  0.12267693  0.36677555  0.94915004  1
  Fe  Fe14  1  0.36868988  0.12376188  0.80504826  1
  Fe  Fe15  1  0.63571238  0.88108809  0.47952034  1
  Fe  Fe16  1  0.61895950  0.86558486  0.76674442  1
  Fe  Fe17  1  0.38104050  0.36558486  0.73325558  1
  Fe  Fe18  1  0.86403695  0.61700127  0.33785022  1
  Fe  Fe19  1  0.11895950  0.13441514  0.73325558  1
  Fe  Fe20  1  0.88287043  0.86354391  0.40855113  1
  Fe  Fe21  1  0.37732307  0.13322445  0.94915004  1
  Fe  Fe22  1  0.36428762  0.38108809  0.02047966  1
  Fe  Fe23  1  0.12267693  0.13322445  0.44915004  1
  Fe  Fe24  1  0.38287043  0.13645609  0.09144887  1
  Fe  Fe25  1  0.38104050  0.13441514  0.23325558  1
  Fe  Fe26  1  0.88287043  0.63645609  0.90855113  1
  Fe  Fe27  1  0.13131012  0.12376188  0.30504826  1
  Fe  Fe28  1  0.36403695  0.11700127  0.66214978  1
  Fe  Fe29  1  0.87732307  0.86677555  0.55084996  1
  Fe  Fe30  1  0.63596305  0.61700127  0.83785022  1
  Fe  Fe31  1  0.13131012  0.37623812  0.80504826  1
  Fe  Fe32  1  0.13571238  0.38108809  0.52047966  1
  Fe  Fe33  1  0.61895950  0.63441514  0.26674442  1
  Fe  Fe34  1  0.37116617  0.37311114  0.87716940  1
  Fe  Fe35  1  0.36403695  0.38299873  0.16214978  1
  Fe  Fe36  1  0.13571238  0.11891191  0.02047966  1
  Fe  Fe37  1  0.63131012  0.62376188  0.69495174  1
  Fe  Fe38  1  0.87732307  0.63322445  0.05084996  1
  Fe  Fe39  1  0.63596305  0.88299873  0.33785022  1
  Fe  Fe40  1  0.13596305  0.11700127  0.16214978  1
  Fe  Fe41  1  0.11712957  0.36354391  0.09144887  1
  Fe  Fe42  1  0.87116617  0.62688886  0.62283060  1
  Fe  Fe43  1  0.62267693  0.86677555  0.05084996  1
  Fe  Fe44  1  0.38287043  0.36354391  0.59144887  1
  Fe  Fe45  1  0.62267693  0.63322445  0.55084996  1
  Fe  Fe46  1  0.62883383  0.87311114  0.62283060  1
  Fe  Fe47  1  0.61712957  0.63645609  0.40855113  1
  Fe  Fe48  1  0.86403695  0.88299873  0.83785022  1
  Fe  Fe49  1  0.86868988  0.87623812  0.69495174  1
  Fe  Fe50  1  0.63131012  0.87623812  0.19495174  1
  Fe  Fe51  1  0.88104050  0.63441514  0.76674442  1
  Fe  Fe52  1  0.11712957  0.13645609  0.59144887  1
  Fe  Fe53  1  0.86868988  0.62376188  0.19495174  1
  Fe  Fe54  1  0.87116617  0.87311114  0.12283060  1
  Fe  Fe55  1  0.63571238  0.61891191  0.97952034  1
  B  B0  1  0.92212223  0.93383988  0.62262748  1
  B  B1  1  0.43970945  0.42224562  0.23358229  1
  B  B2  1  0.91935624  0.94791882  0.33769123  1
  B  B3  1  0.58064376  0.94791882  0.83769123  1
  B  B4  1  0.42212223  0.06616012  0.87737252  1
  B  B5  1  0.05799334  0.08197215  0.94922632  1
  B  B6  1  0.07313840  0.06996803  0.80547352  1
  B  B7  1  0.42212223  0.43383988  0.37737252  1
  B  B8  1  0.55799334  0.91802785  0.55077368  1
  B  B9  1  0.58064376  0.55208118  0.33769123  1
  B  B10  1  0.93970945  0.92224562  0.76641771  1
  B  B11  1  0.42686160  0.43003197  0.80547352  1
  B  B12  1  0.07787777  0.06616012  0.37737252  1
  B  B13  1  0.45082817  0.41718909  0.09159170  1
  B  B14  1  0.04917183  0.08281091  0.09159170  1
  B  B15  1  0.91935624  0.55208118  0.83769123  1
  B  B16  1  0.04917183  0.41718909  0.59159170  1
  B  B17  1  0.06029055  0.07775438  0.23358229  1
  B  B18  1  0.43970945  0.07775438  0.73358229  1
  B  B19  1  0.08064376  0.44791882  0.16230877  1
  B  B20  1  0.92686160  0.93003197  0.19452648  1
  B  B21  1  0.55799334  0.58197215  0.05077368  1
  B  B22  1  0.41935624  0.05208118  0.16230877  1
  B  B23  1  0.07313840  0.43003197  0.30547352  1
  B  B24  1  0.56029055  0.57775438  0.76641771  1
  B  B25  1  0.91682559  0.55097943  0.97959656  1
  B  B26  1  0.54917183  0.58281091  0.90840830  1
  B  B27  1  0.92686160  0.56996803  0.69452648  1
  B  B28  1  0.92212223  0.56616012  0.12262748  1
  B  B29  1  0.54917183  0.91718909  0.40840830  1
  B  B30  1  0.58317441  0.94902057  0.97959656  1
  B  B31  1  0.57787777  0.56616012  0.62262748  1
  B  B32  1  0.57313840  0.56996803  0.19452648  1
  B  B33  1  0.45082817  0.08281091  0.59159170  1
  B  B34  1  0.41935624  0.44791882  0.66230877  1
  B  B35  1  0.44200666  0.08197215  0.44922632  1
  B  B36  1  0.44200666  0.41802785  0.94922632  1
  B  B37  1  0.42686160  0.06996803  0.30547352  1
  B  B38  1  0.95082817  0.91718909  0.90840830  1
  B  B39  1  0.57787777  0.93383988  0.12262748  1
  B  B40  1  0.06029055  0.42224562  0.73358229  1
  B  B41  1  0.94200666  0.58197215  0.55077368  1
  B  B42  1  0.91682559  0.94902057  0.47959656  1
  B  B43  1  0.08317441  0.05097943  0.52040344  1
  B  B44  1  0.07787777  0.43383988  0.87737252  1
  B  B45  1  0.58317441  0.55097943  0.47959656  1
  B  B46  1  0.57313840  0.93003197  0.69452648  1
  B  B47  1  0.08317441  0.44902057  0.02040344  1
  B  B48  1  0.41682559  0.05097943  0.02040344  1
  B  B49  1  0.08064376  0.05208118  0.66230877  1
  B  B50  1  0.56029055  0.92224562  0.26641771  1
  B  B51  1  0.41682559  0.44902057  0.52040344  1
  B  B52  1  0.94200666  0.91802785  0.05077368  1
  B  B53  1  0.95082817  0.58281091  0.40840830  1
  B  B54  1  0.93970945  0.57775438  0.26641771  1
  B  B55  1  0.05799334  0.41802785  0.44922632  1
loop_
_geom_bond_atom_site_label_1
_geom_bond_atom_site_label_2
_geom_bond_distance
_geom_bond_site_symmetry_2
Fe1 Gd11 2.871820 1_555
Fe1 Gd1 2.972676 1_555
Fe2 Gd15 2.857436 1_565
Fe3 Gd2 2.863504 1_455
Fe5 Gd12 2.868238 1_655
Fe6 Gd15 2.897604 1_455
Fe6 Gd3 2.912031 1_545
Fe7 Gd1 2.897604 1_455
Fe7 Gd8 2.912031 1_555
Fe8 Gd1 2.897604 1_555
Fe8 Gd8 2.912031 1_545
Fe9 Gd8 2.933042 1_555
Fe10 Gd10 2.868238 1_555
Fe11 Gd11 2.868238 1_655
Fe12 Gd13 2.897604 1_555
Fe12 Gd0 2.912031 1_555
Fe13 Gd12 2.871820 1_555
Fe13 Gd15 2.972676 1_455
Fe14 Gd3 2.933042 1_545
Fe15 Gd11 2.868238 1_555
Fe18 Gd8 2.863504 1_655
Fe20 Gd1 2.857436 1_565
Fe21 Gd12 2.871820 1_545
Fe21 Gd15 2.972676 1_555
Fe22 Gd4 2.868238 1_555
Fe23 Gd11 2.871820 1_545
Fe23 Gd1 2.972676 1_455
Fe24 Gd13 2.857436 1_545
Fe26 Gd15 2.857436 1_555
Fe27 Gd8 2.933042 1_545
Fe28 Gd2 2.863504 1_555
Fe29 Gd10 2.871820 1_565
Fe29 Gd7 2.972676 1_655
Fe30 Gd3 2.863504 1_555
Fe31 Gd3 2.933042 1_555
Fe32 Gd10 2.868238 1_455
Fe34 Gd15 2.897604 1_555
Fe34 Gd3 2.912031 1_555
Fe35 Gd0 2.863504 1_555
Fe36 Gd4 2.868238 1_455
Fe37 Gd2 2.933042 1_555
Fe38 Gd4 2.871820 1_555
Fe38 Gd13 2.972676 1_655
Fe39 Gd8 2.863504 1_555
Fe40 Gd0 2.863504 1_455
Fe41 Gd13 2.857436 1_555
Fe42 Gd7 2.897604 1_655
Fe42 Gd2 2.912031 1_555
Fe43 Gd4 2.871820 1_565
Fe43 Gd13 2.972676 1_555
Fe44 Gd7 2.857436 1_555
Fe45 Gd10 2.871820 1_555
Fe45 Gd7 2.972676 1_555
Fe46 Gd7 2.897604 1_555
Fe46 Gd2 2.912031 1_565
Fe47 Gd1 2.857436 1_555
Fe48 Gd3 2.863504 1_655
Fe49 Gd2 2.933042 1_565
Fe50 Gd0 2.933042 1_565
Fe52 Gd7 2.857436 1_545
Fe53 Gd0 2.933042 1_555
Fe54 Gd13 2.897604 1_655
Fe54 Gd0 2.912031 1_565
Fe55 Gd12 2.868238 1_555
B0 B49 1.751344 1_665
B0 Fe29 2.020975 1_555
B0 Fe49 2.031241 1_555
B0 Fe46 2.098067 1_555
B0 Fe52 2.140569 1_665
B0 Fe42 2.174643 1_555
B0 Gd2 2.677282 1_565
B0 Gd7 2.744182 1_655
B1 B32 1.747742 1_555
B1 Fe9 2.021009 1_555
B1 Fe35 2.021468 1_555
B1 Fe25 2.053093 1_555
B1 Fe33 2.139959 1_555
B1 Fe4 2.281712 1_555
B1 Gd9 2.678558 1_555
B1 Gd5 2.799757 1_555
B2 Fe0 2.020554 1_555
B2 Fe20 2.020774 1_555
B2 Fe39 2.036548 1_555
B2 Fe27 2.119898 1_665
B2 Fe18 2.344878 1_555
B2 Gd8 2.702707 1_655
B2 Gd5 2.861699 1_565
B2 Gd1 3.047340 1_565
B3 B4 1.751344 1_565
B3 Fe16 2.020554 1_555
B3 Fe2 2.020774 1_555
B3 Fe48 2.036548 1_555
B3 Fe14 2.119898 1_565
B3 Fe30 2.344878 1_555
B3 Gd3 2.702707 1_555
B3 Gd14 2.861699 1_565
B3 Gd15 3.047340 1_565
B4 Fe21 2.020975 1_555
B4 Fe14 2.031241 1_555
B4 Fe6 2.098067 1_555
B4 Fe2 2.140569 1_545
B4 Fe34 2.174643 1_555
B4 Gd3 2.677282 1_545
B4 Gd15 2.744182 1_555
B5 Fe36 2.018531 1_556
B5 Fe6 2.034794 1_555
B5 Fe13 2.041291 1_555
B5 Fe5 2.117385 1_445
B5 Fe21 2.265616 1_555
B5 Gd15 2.719122 1_455
B5 Gd12 2.732892 1_545
B6 Fe6 2.016953 1_555
B6 Fe19 2.029393 1_555
B6 Fe14 2.104424 1_555
B6 Fe48 2.149307 1_445
B6 Fe31 2.178860 1_555
B6 Gd14 2.671157 1_455
B6 Gd3 2.756823 1_545
B7 B9 1.751344 1_555
B7 Fe1 2.020975 1_555
B7 Fe9 2.031241 1_555
B7 Fe7 2.098067 1_555
B7 Fe47 2.140569 1_555
B7 Fe8 2.174643 1_555
B7 Gd8 2.677282 1_555
B7 Gd1 2.744182 1_555
B8 Fe15 2.018531 1_555
B8 Fe46 2.034794 1_555
B8 Fe45 2.041291 1_555
B8 Fe10 2.117385 1_565
B8 Fe29 2.265616 1_555
B8 Gd7 2.719122 1_555
B8 Gd10 2.732892 1_565
B9 Fe33 2.020554 1_555
B9 Fe47 2.020774 1_555
B9 Fe18 2.036548 1_555
B9 Fe9 2.119898 1_555
B9 Fe39 2.344878 1_555
B9 Gd8 2.702707 1_555
B9 Gd5 2.861699 1_555
B9 Gd1 3.047340 1_555
B10 B6 1.747742 1_665
B10 Fe49 2.021009 1_555
B10 Fe48 2.021468 1_555
B10 Fe51 2.053093 1_555
B10 Fe19 2.139959 1_665
B10 Fe16 2.281712 1_555
B10 Gd14 2.678558 1_565
B10 Gd6 2.799757 1_655
B11 B24 1.747742 1_555
B11 Fe34 2.016953 1_555
B11 Fe17 2.029393 1_555
B11 Fe31 2.104424 1_555
B11 Fe30 2.149307 1_555
B11 Fe14 2.178860 1_555
B11 Gd14 2.671157 1_555
B11 Gd3 2.756823 1_555
B12 B2 1.751344 1_445
B12 Fe23 2.020975 1_555
B12 Fe27 2.031241 1_555
B12 Fe8 2.098067 1_555
B12 Fe20 2.140569 1_445
B12 Fe7 2.174643 1_555
B12 Gd8 2.677282 1_545
B12 Gd1 2.744182 1_455
B13 B21 1.762883 1_555
B13 Fe35 2.016455 1_555
B13 Fe24 2.018854 1_555
B13 Fe22 2.031720 1_555
B13 Fe12 2.101470 1_555
B13 Fe41 2.367660 1_555
B13 Gd13 2.719000 1_555
B13 Gd4 2.900748 1_555
B13 Gd0 2.970654 1_555
B14 B52 1.762883 1_445
B14 Fe40 2.016455 1_555
B14 Fe41 2.018854 1_555
B14 Fe36 2.031720 1_555
B14 Fe54 2.101470 1_445
B14 Fe24 2.367660 1_555
B14 Gd13 2.719000 1_545
B14 Gd4 2.900748 1_455
B14 Gd0 2.970654 1_455
B15 B44 1.751344 1_655
B15 Fe51 2.020554 1_555
B15 Fe26 2.020774 1_555
B15 Fe30 2.036548 1_555
B15 Fe31 2.119898 1_655
B15 Fe48 2.344878 1_555
B15 Gd3 2.702707 1_655
B15 Gd14 2.861699 1_555
B15 Gd15 3.047340 1_555
B16 B41 1.762883 1_455
B16 Fe3 2.016455 1_555
B16 Fe52 2.018854 1_555
B16 Fe32 2.031720 1_555
B16 Fe42 2.101470 1_455
B16 Fe44 2.367660 1_555
B16 Gd7 2.719000 1_555
B16 Gd10 2.900748 1_455
B16 Gd2 2.970654 1_455
B17 B20 1.747742 1_445
B17 Fe27 2.021009 1_555
B17 Fe40 2.021468 1_555
B17 Fe4 2.053093 1_555
B17 Fe0 2.139959 1_445
B17 Fe25 2.281712 1_555
B17 Gd9 2.678558 1_545
B17 Gd5 2.799757 1_455
B18 B46 1.747742 1_545
B18 Fe14 2.021009 1_555
B18 Fe28 2.021468 1_555
B18 Fe17 2.053093 1_555
B18 Fe16 2.139959 1_545
B18 Fe19 2.281712 1_555
B18 Gd6 2.678558 1_545
B18 Gd14 2.799757 1_555
B19 B28 1.751344 1_455
B19 Fe4 2.020554 1_555
B19 Fe41 2.020774 1_555
B19 Fe35 2.036548 1_555
B19 Fe53 2.119898 1_455
B19 Fe40 2.344878 1_555
B19 Gd0 2.702707 1_455
B19 Gd9 2.861699 1_555
B19 Gd13 3.047340 1_555
B20 Fe54 2.016953 1_555
B20 Fe0 2.029393 1_555
B20 Fe50 2.104424 1_555
B20 Fe40 2.149307 1_665
B20 Fe53 2.178860 1_555
B20 Gd9 2.671157 1_655
B20 Gd0 2.756823 1_565
B21 Fe55 2.018531 1_554
B21 Fe12 2.034794 1_555
B21 Fe43 2.041291 1_555
B21 Fe22 2.117385 1_555
B21 Fe38 2.265616 1_555
B21 Gd13 2.719122 1_555
B21 Gd4 2.732892 1_555
B22 B39 1.751344 1_545
B22 Fe25 2.020554 1_555
B22 Fe24 2.020774 1_555
B22 Fe40 2.036548 1_555
B22 Fe50 2.119898 1_545
B22 Fe35 2.344878 1_555
B22 Gd0 2.702707 1_555
B22 Gd9 2.861699 1_545
B22 Gd13 3.047340 1_545
B23 B54 1.747742 1_455
B23 Fe7 2.016953 1_555
B23 Fe4 2.029393 1_555
B23 Fe9 2.104424 1_555
B23 Fe18 2.149307 1_455
B23 Fe27 2.178860 1_555
B23 Gd5 2.671157 1_455
B23 Gd8 2.756823 1_555
B24 Fe37 2.021009 1_555
B24 Fe30 2.021468 1_555
B24 Fe16 2.053093 1_555
B24 Fe17 2.139959 1_555
B24 Fe51 2.281712 1_555
B24 Gd14 2.678558 1_555
B24 Gd6 2.799757 1_555
B25 B47 1.755883 1_656
B25 Fe26 2.025627 1_555
B25 Fe55 2.025806 1_555
B25 Fe38 2.029366 1_556
B25 Fe13 2.101084 1_655
B25 Fe5 2.336151 1_555
B25 Gd12 2.733048 1_655
B25 Gd4 2.783020 1_556
B25 Gd15 3.120578 1_555
B26 B36 1.762883 1_555
B26 Fe30 2.016455 1_555
B26 Fe2 2.018854 1_555
B26 Fe55 2.031720 1_555
B26 Fe34 2.101470 1_555
B26 Fe26 2.367660 1_555
B26 Gd15 2.719000 1_555
B26 Gd12 2.900748 1_555
B26 Gd3 2.970654 1_555
B27 B40 1.747742 1_655
B27 Fe42 2.016953 1_555
B27 Fe51 2.029393 1_555
B27 Fe37 2.104424 1_555
B27 Fe3 2.149307 1_655
B27 Fe49 2.178860 1_555
B27 Gd6 2.671157 1_655
B27 Gd2 2.756823 1_555
B28 Fe38 2.020975 1_555
B28 Fe53 2.031241 1_555
B28 Fe12 2.098067 1_555
B28 Fe41 2.140569 1_655
B28 Fe54 2.174643 1_555
B28 Gd0 2.677282 1_555
B28 Gd13 2.744182 1_655
B29 B35 1.762883 1_565
B29 Fe39 2.016455 1_555
B29 Fe47 2.018854 1_555
B29 Fe15 2.031720 1_555
B29 Fe8 2.101470 1_565
B29 Fe20 2.367660 1_555
B29 Gd1 2.719000 1_565
B29 Gd11 2.900748 1_555
B29 Gd8 2.970654 1_555
B30 B48 1.755883 1_566
B30 Fe2 2.025627 1_555
B30 Fe5 2.025806 1_555
B30 Fe43 2.029366 1_556
B30 Fe21 2.101084 1_565
B30 Fe55 2.336151 1_555
B30 Gd12 2.733048 1_555
B30 Gd4 2.783020 1_566
B30 Gd15 3.120578 1_565
B31 B34 1.751344 1_555
B31 Fe45 2.020975 1_555
B31 Fe37 2.031241 1_555
B31 Fe42 2.098067 1_555
B31 Fe44 2.140569 1_555
B31 Fe46 2.174643 1_555
B31 Gd2 2.677282 1_555
B31 Gd7 2.744182 1_555
B32 Fe12 2.016953 1_555
B32 Fe33 2.029393 1_555
B32 Fe53 2.104424 1_555
B32 Fe35 2.149307 1_555
B32 Fe50 2.178860 1_555
B32 Gd9 2.671157 1_555
B32 Gd0 2.756823 1_555
B33 B8 1.762883 1_545
B33 Fe28 2.016455 1_555
B33 Fe44 2.018854 1_555
B33 Fe10 2.031720 1_555
B33 Fe46 2.101470 1_545
B33 Fe52 2.367660 1_555
B33 Gd7 2.719000 1_545
B33 Gd10 2.900748 1_555
B33 Gd2 2.970654 1_555
B34 Fe17 2.020554 1_555
B34 Fe44 2.020774 1_555
B34 Fe3 2.036548 1_555
B34 Fe37 2.119898 1_555
B34 Fe28 2.344878 1_555
B34 Gd2 2.702707 1_555
B34 Gd6 2.861699 1_555
B34 Gd7 3.047340 1_555
B35 Fe10 2.018531 1_555
B35 Fe8 2.034794 1_555
B35 Fe1 2.041291 1_555
B35 Fe15 2.117385 1_545
B35 Fe23 2.265616 1_555
B35 Gd1 2.719122 1_555
B35 Gd11 2.732892 1_545
B36 Fe22 2.018531 1_556
B36 Fe34 2.034794 1_555
B36 Fe21 2.041291 1_555
B36 Fe55 2.117385 1_555
B36 Fe13 2.265616 1_555
B36 Gd15 2.719122 1_555
B36 Gd12 2.732892 1_555
B37 B50 1.747742 1_545
B37 Fe8 2.016953 1_555
B37 Fe25 2.029393 1_555
B37 Fe27 2.104424 1_555
B37 Fe39 2.149307 1_545
B37 Fe9 2.178860 1_555
B37 Gd5 2.671157 1_555
B37 Gd8 2.756823 1_545
B38 B5 1.762883 1_665
B38 Fe48 2.016455 1_555
B38 Fe26 2.018854 1_555
B38 Fe5 2.031720 1_555
B38 Fe6 2.101470 1_665
B38 Fe2 2.367660 1_555
B38 Gd15 2.719000 1_565
B38 Gd12 2.900748 1_655
B38 Gd3 2.970654 1_655
B39 Fe43 2.020975 1_555
B39 Fe50 2.031241 1_555
B39 Fe54 2.098067 1_555
B39 Fe24 2.140569 1_565
B39 Fe12 2.174643 1_555
B39 Gd0 2.677282 1_565
B39 Gd13 2.744182 1_555
B40 Fe31 2.021009 1_555
B40 Fe3 2.021468 1_555
B40 Fe19 2.053093 1_555
B40 Fe51 2.139959 1_455
B40 Fe17 2.281712 1_555
B40 Gd6 2.678558 1_555
B40 Gd14 2.799757 1_455
B41 Fe11 2.018531 1_555
B41 Fe42 2.034794 1_555
B41 Fe29 2.041291 1_555
B41 Fe32 2.117385 1_655
B41 Fe45 2.265616 1_555
B41 Gd7 2.719122 1_655
B41 Gd10 2.732892 1_555
B42 B43 1.755883 1_665
B42 Fe20 2.025627 1_555
B42 Fe15 2.025806 1_555
B42 Fe29 2.029366 1_555
B42 Fe23 2.101084 1_665
B42 Fe11 2.336151 1_555
B42 Gd11 2.733048 1_655
B42 Gd10 2.783020 1_565
B42 Gd1 3.120578 1_565
B43 Fe52 2.025627 1_555
B43 Fe10 2.025806 1_555
B43 Fe23 2.029366 1_555
B43 Fe29 2.101084 1_445
B43 Fe32 2.336151 1_555
B43 Gd10 2.733048 1_455
B43 Gd11 2.783020 1_545
B43 Gd7 3.120578 1_545
B44 Fe13 2.020975 1_555
B44 Fe31 2.031241 1_555
B44 Fe34 2.098067 1_555
B44 Fe26 2.140569 1_455
B44 Fe6 2.174643 1_555
B44 Gd3 2.677282 1_555
B44 Gd15 2.744182 1_455
B45 B51 1.755883 1_555
B45 Fe47 2.025627 1_555
B45 Fe11 2.025806 1_555
B45 Fe45 2.029366 1_555
B45 Fe1 2.101084 1_555
B45 Fe15 2.336151 1_555
B45 Gd11 2.733048 1_555
B45 Gd10 2.783020 1_555
B45 Gd1 3.120578 1_555
B46 Fe46 2.016953 1_555
B46 Fe16 2.029393 1_555
B46 Fe49 2.104424 1_555
B46 Fe28 2.149307 1_565
B46 Fe37 2.178860 1_555
B46 Gd6 2.671157 1_555
B46 Gd2 2.756823 1_565
B47 Fe41 2.025627 1_555
B47 Fe22 2.025806 1_555
B47 Fe13 2.029366 1_554
B47 Fe38 2.101084 1_455
B47 Fe36 2.336151 1_555
B47 Gd4 2.733048 1_455
B47 Gd12 2.783020 1_554
B47 Gd13 3.120578 1_555
B48 Fe24 2.025627 1_555
B48 Fe36 2.025806 1_555
B48 Fe21 2.029366 1_554
B48 Fe43 2.101084 1_545
B48 Fe22 2.336151 1_555
B48 Gd4 2.733048 1_555
B48 Gd12 2.783020 1_544
B48 Gd13 3.120578 1_545
B49 Fe19 2.020554 1_555
B49 Fe52 2.020774 1_555
B49 Fe28 2.036548 1_555
B49 Fe49 2.119898 1_445
B49 Fe3 2.344878 1_555
B49 Gd2 2.702707 1_455
B49 Gd6 2.861699 1_545
B49 Gd7 3.047340 1_545
B50 Fe50 2.021009 1_555
B50 Fe39 2.021468 1_555
B50 Fe33 2.053093 1_555
B50 Fe25 2.139959 1_565
B50 Fe0 2.281712 1_555
B50 Gd5 2.678558 1_565
B50 Gd9 2.799757 1_555
B51 Fe44 2.025627 1_555
B51 Fe32 2.025806 1_555
B51 Fe1 2.029366 1_555
B51 Fe45 2.101084 1_555
B51 Fe10 2.336151 1_555
B51 Gd10 2.733048 1_555
B51 Gd11 2.783020 1_555
B51 Gd7 3.120578 1_555
B52 Fe5 2.018531 1_554
B52 Fe54 2.034794 1_555
B52 Fe38 2.041291 1_555
B52 Fe36 2.117385 1_665
B52 Fe43 2.265616 1_555
B52 Gd13 2.719122 1_655
B52 Gd4 2.732892 1_565
B53 B55 1.762883 1_655
B53 Fe18 2.016455 1_555
B53 Fe20 2.018854 1_555
B53 Fe11 2.031720 1_555
B53 Fe7 2.101470 1_655
B53 Fe47 2.367660 1_555
B53 Gd1 2.719000 1_555
B53 Gd11 2.900748 1_655
B53 Gd8 2.970654 1_655
B54 Fe53 2.021009 1_555
B54 Fe18 2.021468 1_555
B54 Fe0 2.053093 1_555
B54 Fe4 2.139959 1_655
B54 Fe33 2.281712 1_555
B54 Gd5 2.678558 1_555
B54 Gd9 2.799757 1_655
B55 Fe32 2.018531 1_555
B55 Fe7 2.034794 1_555
B55 Fe23 2.041291 1_555
B55 Fe11 2.117385 1_455
B55 Fe1 2.265616 1_555
B55 Gd1 2.719122 1_455
B55 Gd11 2.732892 1_555
