# generated using pymatgen
data_MgCoH16(ClO2)4
_symmetry_space_group_name_H-M   'P 1'
_cell_length_a   6.39808264
_cell_length_b   10.33927516
_cell_length_c   10.77529208
_cell_angle_alpha   70.68209299
_cell_angle_beta   79.98117072
_cell_angle_gamma   86.27755291
_symmetry_Int_Tables_number   1
_chemical_formula_structural   MgCoH16(ClO2)4
_chemical_formula_sum   'Mg2 Co2 H32 Cl8 O16'
_cell_volume   662.39103896
_cell_formula_units_Z   2
loop_
 _symmetry_equiv_pos_site_id
 _symmetry_equiv_pos_as_xyz
  1  'x, y, z'
loop_
 _atom_site_type_symbol
 _atom_site_label
 _atom_site_symmetry_multiplicity
 _atom_site_fract_x
 _atom_site_fract_y
 _atom_site_fract_z
 _atom_site_occupancy
  Mg  Mg0  1  0.50000600  0.00000000  0.49999600  1
  Mg  Mg1  1  0.50000000  0.50000400  0.99999600  1
  Co  Co0  1  0.00000000  0.49999800  0.50000000  1
  Co  Co1  1  0.99999800  0.99999800  0.99999900  1
  H  H0  1  0.38794100  0.08012500  0.86087700  1
  H  H1  1  0.38817700  0.58114800  0.36028600  1
  H  H2  1  0.61205800  0.91987300  0.13912400  1
  H  H3  1  0.61182300  0.41885000  0.63971500  1
  H  H4  1  0.22671300  0.19206500  0.79213500  1
  H  H5  1  0.22642500  0.69366100  0.29293000  1
  H  H6  1  0.77328600  0.80793300  0.20786600  1
  H  H7  1  0.77357400  0.30633700  0.70707000  1
  H  H8  1  0.10758000  0.08695600  0.57064800  1
  H  H9  1  0.10721200  0.58672300  0.07131400  1
  H  H10  1  0.89241700  0.91304700  0.42935200  1
  H  H11  1  0.89278700  0.41327500  0.92868600  1
  H  H12  1  0.15714900  0.96973900  0.70109300  1
  H  H13  1  0.15639900  0.46826700  0.20118100  1
  H  H14  1  0.84285200  0.03026400  0.29890600  1
  H  H15  1  0.84360100  0.53173000  0.79881800  1
  H  H16  1  0.46352600  0.25911400  0.53153700  1
  H  H17  1  0.46239700  0.75892700  0.03155600  1
  H  H18  1  0.53647400  0.74088500  0.46846500  1
  H  H19  1  0.53760600  0.24107200  0.96844500  1
  H  H20  1  0.70460900  0.23367500  0.47446600  1
  H  H21  1  0.70364600  0.73361000  0.97464200  1
  H  H22  1  0.29539300  0.76632500  0.52553400  1
  H  H23  1  0.29635700  0.26638900  0.02535900  1
  H  H24  1  0.67392100  0.96452300  0.72683700  1
  H  H25  1  0.67497600  0.46488200  0.22644700  1
  H  H26  1  0.32607900  0.03547500  0.27316300  1
  H  H27  1  0.32502300  0.53511800  0.77355200  1
  H  H28  1  0.72272300  0.83312900  0.68204300  1
  H  H29  1  0.72268500  0.33317000  0.18208600  1
  H  H30  1  0.27727600  0.16686900  0.31795800  1
  H  H31  1  0.27731300  0.66683100  0.81791300  1
  Cl  Cl0  1  0.03236600  0.29930500  0.42034200  1
  Cl  Cl1  1  0.03069900  0.79859900  0.92145200  1
  Cl  Cl2  1  0.96762400  0.70070100  0.57966200  1
  Cl  Cl3  1  0.96930400  0.20140700  0.07854900  1
  Cl  Cl4  1  0.72781300  0.10197700  0.85052200  1
  Cl  Cl5  1  0.72855700  0.60287900  0.35006600  1
  Cl  Cl6  1  0.27217800  0.89802200  0.14948400  1
  Cl  Cl7  1  0.27145400  0.39711600  0.64993300  1
  O  O0  1  0.23876100  0.09429900  0.84600600  1
  O  O1  1  0.23847500  0.59586400  0.34670400  1
  O  O2  1  0.76123800  0.90569900  0.15399700  1
  O  O3  1  0.76152400  0.40413500  0.65329800  1
  O  O4  1  0.19223200  0.00362900  0.60361500  1
  O  O5  1  0.19246900  0.50353500  0.10375300  1
  O  O6  1  0.80776800  0.99637300  0.39638400  1
  O  O7  1  0.80753300  0.49646400  0.89624600  1
  O  O8  1  0.56082800  0.19370500  0.50251800  1
  O  O9  1  0.55978100  0.69379800  0.00220800  1
  O  O10  1  0.43917300  0.80629600  0.49747900  1
  O  O11  1  0.44022100  0.30620300  0.99778900  1
  O  O12  1  0.62427700  0.91070300  0.67775700  1
  O  O13  1  0.62455200  0.41089200  0.17779500  1
  O  O14  1  0.37572300  0.08929600  0.32224300  1
  O  O15  1  0.37544900  0.58911200  0.82220100  1
loop_
_geom_bond_atom_site_label_1
_geom_bond_atom_site_label_2
_geom_bond_distance
_geom_bond_site_symmetry_2
Mg0 O10 2.074631 1_545
Mg0 O8 2.074643 1_555
Mg0 O6 2.092455 1_545
Mg0 O4 2.092551 1_555
Mg0 O14 2.101870 1_555
Mg0 O12 2.101904 1_545
Mg1 O9 2.072659 1_556
Mg1 O11 2.072707 1_555
Mg1 O7 2.091653 1_555
Mg1 O5 2.091659 1_556
Mg1 O15 2.102900 1_555
Mg1 O13 2.102944 1_556
Co0 O1 2.067643 1_555
Co0 O3 2.067650 1_455
Co1 O0 2.068488 1_665
Co1 O2 2.068499 1_556
H0 O0 0.988774 1_555
H1 O1 0.988473 1_555
H2 O2 0.988781 1_555
H3 O3 0.988469 1_555
H4 O0 0.990913 1_555
H5 O1 0.990905 1_555
H6 O2 0.990908 1_555
H7 O3 0.990908 1_555
H8 O4 0.982676 1_555
H9 O5 0.982862 1_555
H10 O6 0.982659 1_555
H11 O7 0.982861 1_555
H12 O4 0.980348 1_565
H13 O5 0.980659 1_555
H14 O6 0.980348 1_545
H15 O7 0.980657 1_555
H16 O8 0.979900 1_555
H17 O9 0.979553 1_555
H18 O10 0.979889 1_555
H19 O11 0.979553 1_555
H20 O8 0.989128 1_555
H21 O9 0.988982 1_556
H22 O10 0.989127 1_555
H23 O11 0.988984 1_554
H24 O12 0.983015 1_555
H25 O13 0.983037 1_555
H26 O14 0.983023 1_555
H27 O15 0.983050 1_555
H28 O12 0.980907 1_555
H29 O13 0.980872 1_555
H30 O14 0.980904 1_555
H31 O15 0.980864 1_555
Cl0 Co0 2.479130 1_555
Cl1 Co1 2.479125 1_455
Cl2 Co0 2.479252 1_655
Cl3 Co1 2.479244 1_544
Cl4 Co1 2.520431 1_545
Cl5 Co0 2.521341 1_655
Cl6 Co1 2.520455 1_454
Cl7 Co0 2.521390 1_555
