# generated using pymatgen
data_CsTaSe3
_symmetry_space_group_name_H-M   'P 1'
_cell_length_a   6.20693143
_cell_length_b   7.68985284
_cell_length_c   13.33275792
_cell_angle_alpha   90.00000000
_cell_angle_beta   90.00000000
_cell_angle_gamma   90.00000000
_symmetry_Int_Tables_number   1
_chemical_formula_structural   CsTaSe3
_chemical_formula_sum   'Cs4 Ta4 Se12'
_cell_volume   636.37772576
_cell_formula_units_Z   4
loop_
 _symmetry_equiv_pos_site_id
 _symmetry_equiv_pos_as_xyz
  1  'x, y, z'
loop_
 _atom_site_type_symbol
 _atom_site_label
 _atom_site_symmetry_multiplicity
 _atom_site_fract_x
 _atom_site_fract_y
 _atom_site_fract_z
 _atom_site_occupancy
  Cs  Cs0  1  0.75201503  0.25000000  0.91047584  1
  Cs  Cs1  1  0.24798497  0.75000000  0.08952416  1
  Cs  Cs2  1  0.74798497  0.75000000  0.41047584  1
  Cs  Cs3  1  0.25201503  0.25000000  0.58952416  1
  Ta  Ta0  1  0.46603751  0.75000000  0.77211966  1
  Ta  Ta1  1  0.03396249  0.25000000  0.27211966  1
  Ta  Ta2  1  0.53396249  0.25000000  0.22788034  1
  Ta  Ta3  1  0.96603751  0.75000000  0.72788034  1
  Se  Se0  1  0.24535059  0.98485537  0.83447624  1
  Se  Se1  1  0.23131782  0.25000000  0.10005290  1
  Se  Se2  1  0.25464941  0.48485537  0.33447624  1
  Se  Se3  1  0.75464941  0.48485537  0.16552376  1
  Se  Se4  1  0.24535059  0.51514463  0.83447624  1
  Se  Se5  1  0.26868218  0.75000000  0.60005290  1
  Se  Se6  1  0.76868218  0.75000000  0.89994710  1
  Se  Se7  1  0.74535059  0.98485537  0.66552376  1
  Se  Se8  1  0.25464941  0.01514463  0.33447624  1
  Se  Se9  1  0.75464941  0.01514463  0.16552376  1
  Se  Se10  1  0.73131782  0.25000000  0.39994710  1
  Se  Se11  1  0.74535059  0.51514463  0.66552376  1
loop_
_geom_bond_atom_site_label_1
_geom_bond_atom_site_label_2
_geom_bond_distance
_geom_bond_site_symmetry_2
Cs0 Se4 3.815810 1_655
Cs0 Se0 3.815810 1_645
Cs0 Se6 3.848879 1_545
Cs0 Se6 3.848879 1_555
Cs0 Se7 3.850316 1_545
Cs0 Se11 3.850316 1_555
Cs0 Se9 3.850359 1_556
Cs0 Se3 3.850359 1_556
Cs0 Se0 3.882514 1_545
Cs0 Se4 3.882514 1_555
Cs0 Se1 3.903756 1_656
Cs0 Se1 4.102934 1_556
Cs1 Se3 3.815810 1_455
Cs1 Se9 3.815810 1_465
Cs1 Se1 3.848879 1_555
Cs1 Se1 3.848879 1_565
Cs1 Se8 3.850316 1_565
Cs1 Se2 3.850316 1_555
Cs1 Se0 3.850359 1_554
Cs1 Se4 3.850359 1_554
Cs1 Se9 3.882514 1_565
Cs1 Se3 3.882514 1_555
Cs1 Se6 3.903756 1_454
Cs1 Se6 4.102934 1_554
Cs2 Se8 3.815810 1_565
Cs2 Se2 3.815810 1_555
Cs2 Se10 3.848879 1_565
Cs2 Se10 3.848879 1_555
Cs2 Se9 3.850316 1_565
Cs2 Se3 3.850316 1_555
Cs2 Se7 3.850359 1_555
Cs2 Se11 3.850359 1_555
Cs2 Se2 3.882514 1_655
Cs2 Se8 3.882514 1_665
Cs2 Se5 3.903756 1_555
Cs2 Se5 4.102934 1_655
Cs3 Se7 3.815810 1_545
Cs3 Se11 3.815810 1_555
Cs3 Se5 3.848879 1_545
Cs3 Se5 3.848879 1_555
Cs3 Se0 3.850316 1_545
Cs3 Se4 3.850316 1_555
Cs3 Se2 3.850359 1_555
Cs3 Se8 3.850359 1_555
Cs3 Se7 3.882514 1_445
Cs3 Se11 3.882514 1_455
Cs3 Se10 3.903756 1_555
Cs3 Se10 4.102934 1_455
Se0 Ta0 2.414367 1_555
Se0 Ta3 2.878740 1_455
Se1 Ta2 2.536406 1_555
Se1 Ta1 2.600685 1_555
Se2 Ta1 2.414367 1_555
Se2 Ta2 2.878740 1_555
Se3 Ta2 2.414367 1_555
Se3 Ta1 2.878740 1_655
Se4 Ta0 2.414367 1_555
Se4 Ta3 2.878740 1_455
Se5 Ta3 2.536406 1_455
Se5 Ta0 2.600685 1_555
Se6 Ta0 2.536406 1_555
Se6 Ta3 2.600685 1_555
Se7 Ta3 2.414367 1_555
Se7 Ta0 2.878740 1_555
Se8 Ta1 2.414367 1_555
Se8 Ta2 2.878740 1_555
Se9 Ta2 2.414367 1_555
Se9 Ta1 2.878740 1_655
Se10 Ta1 2.536406 1_655
Se10 Ta2 2.600685 1_555
Se11 Ta3 2.414367 1_555
Se11 Ta0 2.878740 1_555
