# generated using pymatgen
data_SrLaZr2
_symmetry_space_group_name_H-M   'P 1'
_cell_length_a   5.54714380
_cell_length_b   5.54714380
_cell_length_c   5.54714380
_cell_angle_alpha   60.00000000
_cell_angle_beta   60.00000000
_cell_angle_gamma   60.00000000
_symmetry_Int_Tables_number   1
_chemical_formula_structural   SrLaZr2
_chemical_formula_sum   'Sr1 La1 Zr2'
_cell_volume   120.69611084
_cell_formula_units_Z   1
loop_
 _symmetry_equiv_pos_site_id
 _symmetry_equiv_pos_as_xyz
  1  'x, y, z'
loop_
 _atom_site_type_symbol
 _atom_site_label
 _atom_site_symmetry_multiplicity
 _atom_site_fract_x
 _atom_site_fract_y
 _atom_site_fract_z
 _atom_site_occupancy
  Sr  Sr0  1  0.50000000  0.50000000  0.50000000  1
  La  La0  1  0.00000000  0.00000000  0.00000000  1
  Zr  Zr0  1  0.75000000  0.75000000  0.75000000  1
  Zr  Zr1  1  0.25000000  0.25000000  0.25000000  1
loop_
_geom_bond_atom_site_label_1
_geom_bond_atom_site_label_2
_geom_bond_distance
_geom_bond_site_symmetry_2
Sr0 Zr1 3.396918 1_655
Sr0 Zr0 3.396918 1_554
Sr0 Zr0 3.396918 1_555
Sr0 Zr0 3.396918 1_545
Sr0 Zr1 3.396918 1_555
Sr0 Zr1 3.396918 1_556
Sr0 Zr1 3.396918 1_565
Sr0 Zr0 3.396918 1_455
La0 Zr0 3.396918 1_454
La0 Zr1 3.396918 1_545
La0 Zr1 3.396918 1_455
La0 Zr0 3.396918 1_544
La0 Zr0 3.396918 1_445
La0 Zr1 3.396918 1_554
La0 Zr1 3.396918 1_555
La0 Zr0 3.396918 1_444
