# generated using pymatgen
data_Nb5As3
_symmetry_space_group_name_H-M   'P 1'
_cell_length_a   3.54066100
_cell_length_b   11.88626500
_cell_length_c   26.33092900
_cell_angle_alpha   90.00000000
_cell_angle_beta   90.00000000
_cell_angle_gamma   90.00000000
_symmetry_Int_Tables_number   1
_chemical_formula_structural   Nb5As3
_chemical_formula_sum   'Nb40 As24'
_cell_volume   1108.14333266
_cell_formula_units_Z   8
loop_
 _symmetry_equiv_pos_site_id
 _symmetry_equiv_pos_as_xyz
  1  'x, y, z'
loop_
 _atom_site_type_symbol
 _atom_site_label
 _atom_site_symmetry_multiplicity
 _atom_site_fract_x
 _atom_site_fract_y
 _atom_site_fract_z
 _atom_site_occupancy
  Nb  Nb0  1  0.25000000  0.41663200  0.53309500  1
  Nb  Nb1  1  0.25000000  0.93274000  0.39736900  1
  Nb  Nb2  1  0.25000000  0.28902000  0.87652700  1
  Nb  Nb3  1  0.75000000  0.78902000  0.62347300  1
  Nb  Nb4  1  0.75000000  0.05575000  0.84906000  1
  Nb  Nb5  1  0.25000000  0.55575000  0.65094000  1
  Nb  Nb6  1  0.75000000  0.38106900  0.22409100  1
  Nb  Nb7  1  0.75000000  0.14763700  0.13672500  1
  Nb  Nb8  1  0.75000000  0.30331000  0.45382400  1
  Nb  Nb9  1  0.75000000  0.44425000  0.34906000  1
  Nb  Nb10  1  0.25000000  0.94425000  0.15094000  1
  Nb  Nb11  1  0.75000000  0.89441100  0.49834500  1
  Nb  Nb12  1  0.75000000  0.03953800  0.32312400  1
  Nb  Nb13  1  0.25000000  0.34493700  0.73878600  1
  Nb  Nb14  1  0.75000000  0.19669000  0.95382400  1
  Nb  Nb15  1  0.75000000  0.43274000  0.10263100  1
  Nb  Nb16  1  0.25000000  0.88106900  0.27590900  1
  Nb  Nb17  1  0.25000000  0.15506300  0.23878600  1
  Nb  Nb18  1  0.75000000  0.91663200  0.96690500  1
  Nb  Nb19  1  0.25000000  0.80331000  0.04617600  1
  Nb  Nb20  1  0.25000000  0.85236300  0.86327500  1
  Nb  Nb21  1  0.25000000  0.96046200  0.67687600  1
  Nb  Nb22  1  0.75000000  0.35236300  0.63672500  1
  Nb  Nb23  1  0.25000000  0.08336800  0.03309500  1
  Nb  Nb24  1  0.75000000  0.71098000  0.12347300  1
  Nb  Nb25  1  0.75000000  0.11893100  0.72409100  1
  Nb  Nb26  1  0.75000000  0.46046200  0.82312400  1
  Nb  Nb27  1  0.75000000  0.84493700  0.76121400  1
  Nb  Nb28  1  0.75000000  0.65506300  0.26121400  1
  Nb  Nb29  1  0.25000000  0.61893100  0.77590900  1
  Nb  Nb30  1  0.75000000  0.60558900  0.99834500  1
  Nb  Nb31  1  0.75000000  0.58336800  0.46690500  1
  Nb  Nb32  1  0.75000000  0.06726000  0.60263100  1
  Nb  Nb33  1  0.25000000  0.53953800  0.17687600  1
  Nb  Nb34  1  0.25000000  0.39441100  0.00165500  1
  Nb  Nb35  1  0.25000000  0.56726000  0.89736900  1
  Nb  Nb36  1  0.25000000  0.64763700  0.36327500  1
  Nb  Nb37  1  0.25000000  0.10558900  0.50165500  1
  Nb  Nb38  1  0.25000000  0.69669000  0.54617600  1
  Nb  Nb39  1  0.25000000  0.21098000  0.37652700  1
  As  As0  1  0.25000000  0.05185100  0.92361600  1
  As  As1  1  0.75000000  0.80768500  0.34327500  1
  As  As2  1  0.75000000  0.69231500  0.84327500  1
  As  As3  1  0.75000000  0.24696000  0.80238800  1
  As  As4  1  0.75000000  0.50345800  0.72017700  1
  As  As5  1  0.75000000  0.08039900  0.42750800  1
  As  As6  1  0.25000000  0.00345800  0.77982300  1
  As  As7  1  0.25000000  0.74696000  0.69761200  1
  As  As8  1  0.25000000  0.91960100  0.57249200  1
  As  As9  1  0.75000000  0.94814900  0.07638400  1
  As  As10  1  0.75000000  0.41960100  0.92750800  1
  As  As11  1  0.75000000  0.24908700  0.54914400  1
  As  As12  1  0.75000000  0.25091300  0.04914400  1
  As  As13  1  0.75000000  0.99654200  0.22017700  1
  As  As14  1  0.25000000  0.74908700  0.95085600  1
  As  As15  1  0.75000000  0.55185100  0.57638400  1
  As  As16  1  0.25000000  0.75304000  0.19761200  1
  As  As17  1  0.25000000  0.58039900  0.07249200  1
  As  As18  1  0.25000000  0.44814900  0.42361600  1
  As  As19  1  0.25000000  0.75091300  0.45085600  1
  As  As20  1  0.25000000  0.19231500  0.65672500  1
  As  As21  1  0.25000000  0.30768500  0.15672500  1
  As  As22  1  0.75000000  0.25304000  0.30238800  1
  As  As23  1  0.25000000  0.49654200  0.27982300  1
loop_
_geom_bond_atom_site_label_1
_geom_bond_atom_site_label_2
_geom_bond_distance
_geom_bond_site_symmetry_2
As0 Nb14 2.594345 1_455
As0 Nb14 2.594345 1_555
As0 Nb4 2.643878 1_555
As0 Nb4 2.643878 1_455
As0 Nb18 2.648878 1_445
As0 Nb18 2.648878 1_545
As0 Nb20 2.854265 1_545
As0 Nb23 2.906924 1_556
As0 Nb2 3.079677 1_555
As1 Nb36 2.651494 1_555
As1 Nb36 2.651494 1_655
As1 Nb16 2.653547 1_555
As1 Nb16 2.653547 1_655
As1 Nb1 2.715202 1_655
As1 Nb1 2.715202 1_555
As1 Nb12 2.806480 1_565
As1 Nb28 2.821309 1_555
As2 Nb20 2.651494 1_555
As2 Nb20 2.651494 1_655
As2 Nb29 2.653547 1_555
As2 Nb29 2.653547 1_655
As2 Nb35 2.715202 1_555
As2 Nb35 2.715202 1_655
As2 Nb26 2.806480 1_555
As2 Nb27 2.821309 1_555
As3 Nb25 2.562453 1_555
As3 Nb4 2.583744 1_555
As3 Nb26 2.595813 1_555
As3 Nb2 2.682329 1_555
As3 Nb2 2.682329 1_655
As3 Nb13 2.700914 1_555
As3 Nb13 2.700914 1_655
As4 Nb5 2.616105 1_555
As4 Nb5 2.616105 1_655
As4 Nb13 2.631436 1_655
As4 Nb13 2.631436 1_555
As4 Nb29 2.677952 1_555
As4 Nb29 2.677952 1_655
As4 Nb26 2.758446 1_555
As4 Nb22 2.837937 1_555
As5 Nb1 2.616157 1_645
As5 Nb1 2.616157 1_545
As5 Nb37 2.652438 1_655
As5 Nb37 2.652438 1_555
As5 Nb39 2.710189 1_555
As5 Nb39 2.710189 1_655
As5 Nb8 2.738689 1_555
As5 Nb12 2.791110 1_555
As5 Nb11 2.892437 1_545
As6 Nb4 2.616105 1_555
As6 Nb4 2.616105 1_455
As6 Nb27 2.631436 1_445
As6 Nb27 2.631436 1_545
As6 Nb25 2.677952 1_555
As6 Nb25 2.677952 1_455
As6 Nb21 2.758446 1_545
As6 Nb20 2.837937 1_545
As7 Nb29 2.562453 1_555
As7 Nb5 2.583744 1_555
As7 Nb21 2.595813 1_555
As7 Nb3 2.682329 1_455
As7 Nb3 2.682329 1_555
As7 Nb27 2.700914 1_455
As7 Nb27 2.700914 1_555
As8 Nb32 2.616157 1_565
As8 Nb32 2.616157 1_465
As8 Nb11 2.652438 1_455
As8 Nb11 2.652438 1_555
As8 Nb3 2.710189 1_455
As8 Nb3 2.710189 1_555
As8 Nb38 2.738689 1_555
As8 Nb21 2.791110 1_555
As8 Nb37 2.892437 1_565
As9 Nb19 2.594345 1_555
As9 Nb19 2.594345 1_655
As9 Nb10 2.643878 1_655
As9 Nb10 2.643878 1_555
As9 Nb23 2.648878 1_665
As9 Nb23 2.648878 1_565
As9 Nb7 2.854265 1_565
As9 Nb18 2.906924 1_554
As9 Nb24 3.079677 1_555
As10 Nb35 2.616157 1_655
As10 Nb35 2.616157 1_555
As10 Nb34 2.652438 1_556
As10 Nb34 2.652438 1_656
As10 Nb2 2.710189 1_555
As10 Nb2 2.710189 1_655
As10 Nb14 2.738689 1_555
As10 Nb26 2.791110 1_555
As10 Nb30 2.892437 1_555
As11 Nb32 2.579624 1_555
As11 Nb8 2.591295 1_555
As11 Nb22 2.612463 1_555
As11 Nb0 2.697899 1_555
As11 Nb0 2.697899 1_655
As11 Nb37 2.758062 1_655
As11 Nb37 2.758062 1_555
As12 Nb15 2.579624 1_555
As12 Nb14 2.591295 1_554
As12 Nb7 2.612463 1_555
As12 Nb23 2.697899 1_555
As12 Nb23 2.697899 1_655
As12 Nb34 2.758062 1_555
As12 Nb34 2.758062 1_655
As13 Nb10 2.616105 1_555
As13 Nb10 2.616105 1_655
As13 Nb17 2.631436 1_665
As13 Nb17 2.631436 1_565
As13 Nb16 2.677952 1_655
As13 Nb16 2.677952 1_555
As13 Nb12 2.758446 1_565
As13 Nb7 2.837937 1_565
As14 Nb35 2.579624 1_555
As14 Nb19 2.591295 1_556
As14 Nb20 2.612463 1_555
As14 Nb18 2.697899 1_455
As14 Nb18 2.697899 1_555
As14 Nb30 2.758062 1_455
As14 Nb30 2.758062 1_555
As15 Nb38 2.594345 1_555
As15 Nb38 2.594345 1_655
As15 Nb5 2.643878 1_555
As15 Nb5 2.643878 1_655
As15 Nb0 2.648878 1_555
As15 Nb0 2.648878 1_655
As15 Nb22 2.854265 1_555
As15 Nb31 2.906924 1_555
As15 Nb3 3.079677 1_555
As16 Nb16 2.562453 1_555
As16 Nb10 2.583744 1_555
As16 Nb33 2.595813 1_555
As16 Nb24 2.682329 1_455
As16 Nb24 2.682329 1_555
As16 Nb28 2.700914 1_455
As16 Nb28 2.700914 1_555
As17 Nb15 2.616157 1_455
As17 Nb15 2.616157 1_555
As17 Nb30 2.652438 1_554
As17 Nb30 2.652438 1_454
As17 Nb24 2.710189 1_555
As17 Nb24 2.710189 1_455
As17 Nb19 2.738689 1_555
As17 Nb33 2.791110 1_555
As17 Nb34 2.892437 1_555
As18 Nb8 2.594345 1_455
As18 Nb8 2.594345 1_555
As18 Nb9 2.643878 1_555
As18 Nb9 2.643878 1_455
As18 Nb31 2.648878 1_555
As18 Nb31 2.648878 1_455
As18 Nb36 2.854265 1_555
As18 Nb0 2.906924 1_555
As18 Nb39 3.079677 1_555
As19 Nb1 2.579624 1_555
As19 Nb38 2.591295 1_555
As19 Nb36 2.612463 1_555
As19 Nb31 2.697899 1_455
As19 Nb31 2.697899 1_555
As19 Nb11 2.758062 1_455
As19 Nb11 2.758062 1_555
As20 Nb22 2.651494 1_555
As20 Nb22 2.651494 1_455
As20 Nb25 2.653547 1_455
As20 Nb25 2.653547 1_555
As20 Nb32 2.715202 1_555
As20 Nb32 2.715202 1_455
As20 Nb21 2.806480 1_545
As20 Nb13 2.821309 1_555
As21 Nb7 2.651494 1_455
As21 Nb7 2.651494 1_555
As21 Nb6 2.653547 1_455
As21 Nb6 2.653547 1_555
As21 Nb15 2.715202 1_455
As21 Nb15 2.715202 1_555
As21 Nb33 2.806480 1_555
As21 Nb17 2.821309 1_555
As22 Nb6 2.562453 1_555
As22 Nb9 2.583744 1_555
As22 Nb12 2.595813 1_555
As22 Nb39 2.682329 1_555
As22 Nb39 2.682329 1_655
As22 Nb17 2.700914 1_555
As22 Nb17 2.700914 1_655
As23 Nb9 2.616105 1_455
As23 Nb9 2.616105 1_555
As23 Nb28 2.631436 1_455
As23 Nb28 2.631436 1_555
As23 Nb6 2.677952 1_555
As23 Nb6 2.677952 1_455
As23 Nb33 2.758446 1_555
As23 Nb36 2.837937 1_555
