# generated using pymatgen
data_Sr(H2N)2
_symmetry_space_group_name_H-M   'P 1'
_cell_length_a   6.72106356
_cell_length_b   6.72106356
_cell_length_c   6.72106356
_cell_angle_alpha   131.99929509
_cell_angle_beta   131.99929509
_cell_angle_gamma   70.23014022
_symmetry_Int_Tables_number   1
_chemical_formula_structural   Sr(H2N)2
_chemical_formula_sum   'Sr2 H8 N4'
_cell_volume   164.34824834
_cell_formula_units_Z   2
loop_
 _symmetry_equiv_pos_site_id
 _symmetry_equiv_pos_as_xyz
  1  'x, y, z'
loop_
 _atom_site_type_symbol
 _atom_site_label
 _atom_site_symmetry_multiplicity
 _atom_site_fract_x
 _atom_site_fract_y
 _atom_site_fract_z
 _atom_site_occupancy
  Sr  Sr0  1  0.75000000  0.25000000  0.50000000  1
  Sr  Sr1  1  -0.00000000  -0.00000000  0.00000000  1
  H  H0  1  0.45411041  0.10120641  0.64709900  1
  H  H1  1  0.45411041  0.80701241  0.35290100  1
  H  H2  1  0.29588959  0.44298759  0.14709900  1
  H  H3  1  0.29588959  0.14879359  0.85290100  1
  H  H4  1  0.89879359  0.54588959  0.35290100  1
  H  H5  1  0.19298759  0.54588959  0.64709900  1
  H  H6  1  0.55701241  0.70411041  0.85290100  1
  H  H7  1  0.85120641  0.70411041  0.14709900  1
  N  N0  1  0.98814862  0.48814862  0.50000000  1
  N  N1  1  0.76185138  0.76185138  -0.00000000  1
  N  N2  1  0.51185138  0.01185138  0.50000000  1
  N  N3  1  0.23814862  0.23814862  0.00000000  1
loop_
_geom_bond_atom_site_label_1
_geom_bond_atom_site_label_2
_geom_bond_distance
_geom_bond_site_symmetry_2
H0 N2 1.024666 1_555
H1 N2 1.024657 1_565
H2 N3 1.024657 1_555
H3 N3 1.024666 1_556
H4 N0 1.024666 1_555
H5 N0 1.024657 1_455
H6 N1 1.024657 1_556
H7 N1 1.024666 1_555
N0 Sr0 2.618596 1_555
N0 Sr1 2.736845 1_655
N0 Sr1 2.736845 1_666
N1 Sr1 2.618596 1_665
N1 Sr0 2.736845 1_565
N1 Sr0 2.736845 1_554
N2 Sr0 2.618596 1_555
N2 Sr1 2.736845 1_555
N2 Sr1 2.736845 1_656
N3 Sr1 2.618596 1_555
N3 Sr0 2.736845 1_555
N3 Sr0 2.736845 1_454
