# generated using pymatgen
data_Gd10S19
_symmetry_space_group_name_H-M   'P 1'
_cell_length_a   8.75422124
_cell_length_b   8.75398508
_cell_length_c   15.88744486
_cell_angle_alpha   90.00001716
_cell_angle_beta   89.99995324
_cell_angle_gamma   90.00163396
_symmetry_Int_Tables_number   1
_chemical_formula_structural   Gd10S19
_chemical_formula_sum   'Gd20 S38'
_cell_volume   1217.52356685
_cell_formula_units_Z   2
loop_
 _symmetry_equiv_pos_site_id
 _symmetry_equiv_pos_as_xyz
  1  'x, y, z'
loop_
 _atom_site_type_symbol
 _atom_site_label
 _atom_site_symmetry_multiplicity
 _atom_site_fract_x
 _atom_site_fract_y
 _atom_site_fract_z
 _atom_site_occupancy
  Gd  Gd0  1  0.55468610  0.85428207  0.39686287  1
  Gd  Gd1  1  0.25000013  0.75000002  0.11462181  1
  Gd  Gd2  1  0.15172240  0.04124836  0.37819619  1
  Gd  Gd3  1  0.05468639  0.35428203  0.60313721  1
  Gd  Gd4  1  0.95868594  0.65175023  0.87819458  1
  Gd  Gd5  1  0.34827682  0.45875180  0.37819591  1
  Gd  Gd6  1  0.84827751  0.95875112  0.62180396  1
  Gd  Gd7  1  0.74999982  0.25000046  0.38530694  1
  Gd  Gd8  1  0.65172305  0.54124856  0.62180379  1
  Gd  Gd9  1  0.44531350  0.14571793  0.60313714  1
  Gd  Gd10  1  0.45868566  0.15175062  0.12180606  1
  Gd  Gd11  1  0.25000037  0.74999967  0.61469297  1
  Gd  Gd12  1  0.74999992  0.25000013  0.88537816  1
  Gd  Gd13  1  0.54131440  0.84824957  0.87819427  1
  Gd  Gd14  1  0.04131417  0.34824992  0.12180583  1
  Gd  Gd15  1  0.85417486  0.94537359  0.10312106  1
  Gd  Gd16  1  0.64582468  0.55462626  0.10312026  1
  Gd  Gd17  1  0.94531321  0.64571786  0.39686263  1
  Gd  Gd18  1  0.14582518  0.05462641  0.89687894  1
  Gd  Gd19  1  0.35417448  0.44537334  0.89687951  1
  S  S0  1  0.54840551  0.84845858  0.57276389  1
  S  S1  1  0.94627000  0.64879303  0.06209418  1
  S  S2  1  0.84847370  0.95161731  0.92720428  1
  S  S3  1  0.04840378  0.34846297  0.42723707  1
  S  S4  1  0.11370954  0.57515771  0.25000045  1
  S  S5  1  0.85122286  0.94627032  0.43793497  1
  S  S6  1  0.38629033  0.92484247  0.25000061  1
  S  S7  1  0.25000002  0.75000015  0.93485595  1
  S  S8  1  0.14877699  0.05372940  0.56206513  1
  S  S9  1  0.57517553  0.38632728  0.24997647  1
  S  S10  1  0.92482409  0.11367314  0.24997656  1
  S  S11  1  0.64877686  0.55372961  0.43793496  1
  S  S12  1  0.69556069  0.02955130  0.25054055  1
  S  S13  1  0.34847350  0.45161765  0.07279591  1
  S  S14  1  0.52957731  0.30443643  0.75055279  1
  S  S15  1  0.19556147  0.52955022  0.74945968  1
  S  S16  1  0.80443856  0.47044972  0.25054039  1
  S  S17  1  0.05372980  0.35120702  0.93790597  1
  S  S18  1  0.02957727  0.80443663  0.24944724  1
  S  S19  1  0.35122313  0.44627042  0.56206506  1
  S  S20  1  0.55372992  0.85120698  0.06209415  1
  S  S21  1  0.44627001  0.14879292  0.93790600  1
  S  S22  1  0.15152619  0.04838243  0.07279580  1
  S  S23  1  0.65152642  0.54838249  0.92720425  1
  S  S24  1  0.30443915  0.97044876  0.74945957  1
  S  S25  1  0.75000016  0.74999975  0.74999781  1
  S  S26  1  0.74999990  0.24999986  0.56504624  1
  S  S27  1  0.74999985  0.24999988  0.06514424  1
  S  S28  1  0.61370950  0.07515752  0.74999942  1
  S  S29  1  0.95159622  0.65153689  0.57276284  1
  S  S30  1  0.88629060  0.42484210  0.74999962  1
  S  S31  1  0.42482426  0.61367261  0.75002360  1
  S  S32  1  0.07517583  0.88632682  0.75002359  1
  S  S33  1  0.47042491  0.69556594  0.24944550  1
  S  S34  1  0.97042276  0.19556323  0.75055279  1
  S  S35  1  0.24999991  0.75000000  0.43495376  1
  S  S36  1  0.45159416  0.15154135  0.42723631  1
  S  S37  1  0.24999973  0.25000016  0.25000232  1
loop_
_geom_bond_atom_site_label_1
_geom_bond_atom_site_label_2
_geom_bond_distance
_geom_bond_site_symmetry_2
Gd0 S5 2.795188 1_555
Gd0 S0 2.795623 1_555
Gd0 S36 2.796237 1_565
Gd0 S33 2.821320 1_555
Gd0 S6 2.828235 1_555
Gd0 S11 2.833146 1_555
Gd0 S35 2.883380 1_555
Gd0 S12 3.046154 1_565
Gd1 S13 2.829764 1_555
Gd1 S22 2.829767 1_565
Gd1 S7 2.856020 1_554
Gd1 S4 2.896910 1_555
Gd1 S6 2.896912 1_555
Gd1 S33 2.922130 1_555
Gd1 S18 2.922141 1_555
Gd1 S20 2.924223 1_555
Gd1 S1 2.924227 1_455
Gd2 S35 2.837925 1_545
Gd2 S37 2.868373 1_555
Gd2 S36 2.903526 1_555
Gd2 S10 2.914997 1_455
Gd2 S5 2.917569 1_445
Gd2 S8 2.923364 1_555
Gd2 S3 2.942427 1_555
Gd2 S6 3.066488 1_545
Gd2 S18 3.102387 1_545
Gd3 S19 2.795188 1_555
Gd3 S3 2.795609 1_555
Gd3 S29 2.796199 1_455
Gd3 S34 2.821314 1_455
Gd3 S30 2.828234 1_455
Gd3 S8 2.833146 1_555
Gd3 S26 2.883384 1_455
Gd3 S15 3.046153 1_555
Gd4 S7 2.837894 1_655
Gd4 S25 2.868021 1_555
Gd4 S2 2.903118 1_555
Gd4 S30 2.914667 1_555
Gd4 S17 2.917922 1_655
Gd4 S1 2.923830 1_556
Gd4 S23 2.941998 1_555
Gd4 S32 3.066458 1_655
Gd4 S15 3.102845 1_655
Gd5 S35 2.837922 1_555
Gd5 S37 2.868368 1_555
Gd5 S3 2.903528 1_555
Gd5 S9 2.914994 1_555
Gd5 S11 2.917575 1_555
Gd5 S19 2.923367 1_555
Gd5 S36 2.942389 1_555
Gd5 S4 3.066485 1_555
Gd5 S33 3.102425 1_555
Gd6 S26 2.837929 1_565
Gd6 S25 2.868370 1_555
Gd6 S0 2.903527 1_555
Gd6 S32 2.914996 1_655
Gd6 S8 2.917569 1_665
Gd6 S5 2.923365 1_555
Gd6 S29 2.942425 1_555
Gd6 S28 3.066489 1_565
Gd6 S34 3.102388 1_565
Gd7 S3 2.830312 1_655
Gd7 S36 2.830313 1_555
Gd7 S26 2.855598 1_555
Gd7 S10 2.896434 1_555
Gd7 S9 2.896435 1_555
Gd7 S12 2.921560 1_555
Gd7 S16 2.921562 1_555
Gd7 S11 2.924704 1_555
Gd7 S5 2.924713 1_545
Gd8 S26 2.837925 1_555
Gd8 S25 2.868371 1_555
Gd8 S29 2.903527 1_555
Gd8 S31 2.914998 1_555
Gd8 S19 2.917573 1_555
Gd8 S11 2.923362 1_555
Gd8 S0 2.942384 1_555
Gd8 S30 3.066493 1_555
Gd8 S14 3.102391 1_555
Gd9 S8 2.795187 1_555
Gd9 S36 2.795620 1_555
Gd9 S0 2.796237 1_545
Gd9 S14 2.821314 1_555
Gd9 S28 2.828236 1_555
Gd9 S19 2.833145 1_555
Gd9 S26 2.883381 1_555
Gd9 S24 3.046154 1_545
Gd10 S27 2.837894 1_555
Gd10 S37 2.868014 1_555
Gd10 S13 2.903120 1_555
Gd10 S6 2.914662 1_545
Gd10 S20 2.917928 1_545
Gd10 S21 2.923838 1_554
Gd10 S22 2.942003 1_555
Gd10 S9 3.066452 1_555
Gd10 S12 3.102839 1_555
Gd11 S0 2.830307 1_555
Gd11 S29 2.830315 1_455
Gd11 S35 2.855597 1_555
Gd11 S31 2.896436 1_555
Gd11 S32 2.896437 1_555
Gd11 S24 2.921561 1_555
Gd11 S15 2.921565 1_555
Gd11 S19 2.924704 1_555
Gd11 S8 2.924710 1_565
Gd12 S23 2.829765 1_555
Gd12 S2 2.829770 1_545
Gd12 S27 2.856024 1_556
Gd12 S30 2.896908 1_555
Gd12 S28 2.896913 1_555
Gd12 S34 2.922140 1_555
Gd12 S14 2.922141 1_555
Gd12 S17 2.924225 1_655
Gd12 S21 2.924225 1_555
Gd13 S7 2.837896 1_555
Gd13 S25 2.868016 1_555
Gd13 S23 2.903120 1_555
Gd13 S28 2.914664 1_565
Gd13 S21 2.917925 1_565
Gd13 S20 2.923835 1_556
Gd13 S2 2.941999 1_555
Gd13 S31 3.066458 1_555
Gd13 S24 3.102842 1_555
Gd14 S27 2.837897 1_455
Gd14 S37 2.868018 1_555
Gd14 S22 2.903122 1_555
Gd14 S4 2.914661 1_555
Gd14 S1 2.917924 1_455
Gd14 S17 2.923834 1_554
Gd14 S13 2.941998 1_555
Gd14 S10 3.066457 1_455
Gd14 S16 3.102842 1_455
Gd15 S1 2.795630 1_555
Gd15 S2 2.795848 1_554
Gd15 S22 2.796630 1_665
Gd15 S12 2.820751 1_565
Gd15 S10 2.827841 1_565
Gd15 S20 2.832316 1_555
Gd15 S27 2.882208 1_565
Gd15 S18 3.047053 1_655
Gd16 S20 2.795628 1_555
Gd16 S23 2.795836 1_554
Gd16 S13 2.796626 1_555
Gd16 S16 2.820757 1_555
Gd16 S9 2.827847 1_555
Gd16 S1 2.832315 1_555
Gd16 S27 2.882206 1_555
Gd16 S33 3.047037 1_555
Gd17 S11 2.795185 1_555
Gd17 S29 2.795610 1_555
Gd17 S3 2.796201 1_655
Gd17 S18 2.821312 1_655
Gd17 S4 2.828233 1_655
Gd17 S5 2.833145 1_555
Gd17 S35 2.883386 1_655
Gd17 S16 3.046149 1_555
Gd18 S17 2.795631 1_555
Gd18 S22 2.795849 1_556
Gd18 S2 2.796632 1_445
Gd18 S24 2.820748 1_545
Gd18 S32 2.827839 1_545
Gd18 S21 2.832315 1_555
Gd18 S7 2.882208 1_545
Gd18 S34 3.047052 1_455
Gd19 S21 2.795629 1_555
Gd19 S13 2.795842 1_556
Gd19 S23 2.796635 1_555
Gd19 S15 2.820750 1_555
Gd19 S31 2.827846 1_555
Gd19 S17 2.832310 1_555
Gd19 S7 2.882209 1_555
Gd19 S14 3.047059 1_555
S10 S12 2.137855 1_555
S14 S28 2.138008 1_555
S15 S31 2.137851 1_555
S16 S9 2.137853 1_555
S18 S4 2.138008 1_555
S24 S32 2.137854 1_555
S30 S34 2.138008 1_555
S33 S6 2.137996 1_555
