# generated using pymatgen
data_Ba2ErCl7
_symmetry_space_group_name_H-M   'P 1'
_cell_length_a   15.58643578
_cell_length_b   6.84403398
_cell_length_c   10.56641524
_cell_angle_alpha   89.43198975
_cell_angle_beta   90.00000000
_cell_angle_gamma   90.00000000
_symmetry_Int_Tables_number   1
_chemical_formula_structural   Ba2ErCl7
_chemical_formula_sum   'Ba8 Er4 Cl28'
_cell_volume   1127.10740626
_cell_formula_units_Z   4
loop_
 _symmetry_equiv_pos_site_id
 _symmetry_equiv_pos_as_xyz
  1  'x, y, z'
loop_
 _atom_site_type_symbol
 _atom_site_label
 _atom_site_symmetry_multiplicity
 _atom_site_fract_x
 _atom_site_fract_y
 _atom_site_fract_z
 _atom_site_occupancy
  Ba  Ba0  1  0.43929740  0.26487806  0.82350754  1
  Ba  Ba1  1  0.27991141  0.73536330  0.54875974  1
  Ba  Ba2  1  0.56070260  0.73512194  0.17649246  1
  Ba  Ba3  1  0.72008859  0.26463670  0.45124026  1
  Ba  Ba4  1  0.93929740  0.73512194  0.67649246  1
  Ba  Ba5  1  0.77991141  0.26463670  0.95124026  1
  Ba  Ba6  1  0.22008859  0.73536330  0.04875974  1
  Ba  Ba7  1  0.06070260  0.26487806  0.32350754  1
  Er  Er0  1  0.37295235  0.21679114  0.28191410  1
  Er  Er1  1  0.12704765  0.21679114  0.78191410  1
  Er  Er2  1  0.87295235  0.78320886  0.21808590  1
  Er  Er3  1  0.62704765  0.78320886  0.71808590  1
  Cl  Cl0  1  0.27148248  0.00172466  0.79484089  1
  Cl  Cl1  1  0.60453052  -0.00046953  0.92774563  1
  Cl  Cl2  1  0.07060381  0.87384264  0.87653362  1
  Cl  Cl3  1  0.86083075  0.70886551  0.97316624  1
  Cl  Cl4  1  0.74309881  0.51277410  0.19858287  1
  Cl  Cl5  1  0.24309881  0.48722590  0.30141713  1
  Cl  Cl6  1  0.53923004  0.29408083  0.28750989  1
  Cl  Cl7  1  0.10509676  0.48581175  0.58674417  1
  Cl  Cl8  1  0.03923004  0.70591917  0.21249011  1
  Cl  Cl9  1  0.72851752  0.99827534  0.20515911  1
  Cl  Cl10  1  0.63916925  0.70886551  0.47316624  1
  Cl  Cl11  1  0.36083075  0.29113449  0.52683376  1
  Cl  Cl12  1  0.89490324  0.51418825  0.41325583  1
  Cl  Cl13  1  0.22851752  0.00172466  0.29484089  1
  Cl  Cl14  1  0.42939619  0.87384264  0.37653362  1
  Cl  Cl15  1  0.10453052  0.00046953  0.57225437  1
  Cl  Cl16  1  0.96076996  0.29408083  0.78750989  1
  Cl  Cl17  1  0.57060381  0.12615736  0.62346638  1
  Cl  Cl18  1  0.39546948  0.00046953  0.07225437  1
  Cl  Cl19  1  0.13916925  0.29113449  0.02683376  1
  Cl  Cl20  1  0.39490324  0.48581175  0.08674417  1
  Cl  Cl21  1  0.25690119  0.48722590  0.80141713  1
  Cl  Cl22  1  0.46076996  0.70591917  0.71249011  1
  Cl  Cl23  1  0.89546948  -0.00046953  0.42774563  1
  Cl  Cl24  1  0.60509676  0.51418825  0.91325583  1
  Cl  Cl25  1  0.92939619  0.12615736  0.12346638  1
  Cl  Cl26  1  0.77148248  0.99827534  0.70515911  1
  Cl  Cl27  1  0.75690119  0.51277410  0.69858287  1
loop_
_geom_bond_atom_site_label_1
_geom_bond_atom_site_label_2
_geom_bond_distance
_geom_bond_site_symmetry_2
Ba0 Cl17 3.097989 1_555
Ba0 Cl0 3.191839 1_555
Ba0 Cl21 3.231919 1_555
Ba0 Cl24 3.243610 1_555
Ba0 Cl22 3.244875 1_555
Ba0 Cl18 3.248902 1_556
Ba0 Cl20 3.253478 1_556
Ba0 Cl1 3.332291 1_555
Ba0 Cl11 3.368045 1_555
Ba1 Cl14 3.099091 1_555
Ba1 Cl21 3.170179 1_555
Ba1 Cl5 3.183052 1_555
Ba1 Cl0 3.193045 1_565
Ba1 Cl7 3.238634 1_555
Ba1 Cl15 3.291650 1_565
Ba1 Cl11 3.301803 1_555
Ba1 Cl22 3.312577 1_555
Ba1 Cl13 3.326640 1_565
Ba2 Cl14 3.097989 1_555
Ba2 Cl9 3.191839 1_555
Ba2 Cl4 3.231919 1_555
Ba2 Cl20 3.243610 1_555
Ba2 Cl6 3.244875 1_555
Ba2 Cl1 3.248902 1_564
Ba2 Cl24 3.253478 1_554
Ba2 Cl18 3.332291 1_565
Ba2 Cl10 3.368045 1_555
Ba3 Cl17 3.099091 1_555
Ba3 Cl4 3.170179 1_555
Ba3 Cl27 3.183052 1_555
Ba3 Cl9 3.193045 1_545
Ba3 Cl12 3.238634 1_555
Ba3 Cl23 3.291650 1_555
Ba3 Cl10 3.301803 1_555
Ba3 Cl6 3.312577 1_555
Ba3 Cl26 3.326640 1_545
Ba4 Cl2 3.097989 1_655
Ba4 Cl26 3.191839 1_555
Ba4 Cl27 3.231919 1_555
Ba4 Cl7 3.243610 1_655
Ba4 Cl16 3.244875 1_555
Ba4 Cl23 3.248902 1_565
Ba4 Cl12 3.253478 1_555
Ba4 Cl15 3.332291 1_665
Ba4 Cl3 3.368045 1_555
Ba5 Cl25 3.099091 1_556
Ba5 Cl27 3.170179 1_555
Ba5 Cl4 3.183052 1_556
Ba5 Cl26 3.193045 1_545
Ba5 Cl24 3.238634 1_555
Ba5 Cl1 3.291650 1_555
Ba5 Cl3 3.301803 1_555
Ba5 Cl16 3.312577 1_555
Ba5 Cl9 3.326640 1_546
Ba6 Cl2 3.099091 1_554
Ba6 Cl5 3.170179 1_555
Ba6 Cl21 3.183052 1_554
Ba6 Cl13 3.193045 1_565
Ba6 Cl20 3.238634 1_555
Ba6 Cl18 3.291650 1_565
Ba6 Cl19 3.301803 1_555
Ba6 Cl8 3.312577 1_555
Ba6 Cl0 3.326640 1_564
Ba7 Cl25 3.097989 1_455
Ba7 Cl13 3.191839 1_555
Ba7 Cl5 3.231919 1_555
Ba7 Cl12 3.243610 1_455
Ba7 Cl8 3.244875 1_555
Ba7 Cl15 3.248902 1_555
Ba7 Cl7 3.253478 1_555
Ba7 Cl23 3.332291 1_455
Ba7 Cl19 3.368045 1_555
Cl0 Er1 2.692441 1_555
Cl1 Er3 2.699612 1_545
Cl2 Er1 2.690008 1_565
Cl3 Er2 2.649157 1_556
Cl4 Er2 2.751748 1_555
Cl5 Er0 2.751748 1_555
Cl6 Er0 2.645887 1_555
Cl7 Er1 2.772111 1_555
Cl8 Er2 2.645887 1_455
Cl9 Er2 2.692441 1_555
Cl10 Er3 2.649157 1_555
Cl11 Er0 2.649157 1_555
Cl12 Er2 2.772111 1_555
Cl13 Er0 2.692441 1_555
Cl14 Er0 2.690008 1_565
Cl15 Er1 2.699612 1_555
Cl16 Er1 2.645887 1_655
Cl17 Er3 2.690008 1_545
Cl18 Er0 2.699612 1_555
Cl19 Er1 2.649157 1_554
Cl20 Er0 2.772111 1_555
Cl21 Er1 2.751748 1_555
Cl22 Er3 2.645887 1_555
Cl23 Er2 2.699612 1_545
Cl24 Er3 2.772111 1_555
Cl25 Er2 2.690008 1_545
Cl26 Er3 2.692441 1_555
Cl27 Er3 2.751748 1_555
