# generated using pymatgen
data_Ba2Na2B10H2O19
_symmetry_space_group_name_H-M   'P 1'
_cell_length_a   6.68982722
_cell_length_b   6.68982722
_cell_length_c   9.47919743
_cell_angle_alpha   87.06748970
_cell_angle_beta   87.06748970
_cell_angle_gamma   60.54650779
_symmetry_Int_Tables_number   1
_chemical_formula_structural   Ba2Na2B10H2O19
_chemical_formula_sum   'Ba2 Na2 B10 H2 O19'
_cell_volume   368.75173396
_cell_formula_units_Z   1
loop_
 _symmetry_equiv_pos_site_id
 _symmetry_equiv_pos_as_xyz
  1  'x, y, z'
loop_
 _atom_site_type_symbol
 _atom_site_label
 _atom_site_symmetry_multiplicity
 _atom_site_fract_x
 _atom_site_fract_y
 _atom_site_fract_z
 _atom_site_occupancy
  Ba  Ba0  1  0.66884600  0.66848700  0.10730900  1
  Ba  Ba1  1  0.33151300  0.33115400  0.89269100  1
  Na  Na0  1  0.69272900  0.30727100  0.50000000  1
  Na  Na1  1  0.21142800  0.78857200  0.50000000  1
  B  B0  1  0.69283600  0.80250500  0.53211600  1
  B  B1  1  0.19749500  0.30716400  0.46788400  1
  B  B2  1  0.64660500  0.68080700  0.77770600  1
  B  B3  1  0.31919300  0.35339500  0.22229400  1
  B  B4  1  0.82220600  0.94284800  0.73192000  1
  B  B5  1  0.05715200  0.17779400  0.26808000  1
  B  B6  1  0.20432300  0.86080300  0.82755900  1
  B  B7  1  0.13919700  0.79567700  0.17244100  1
  B  B8  1  0.85822200  0.24658100  0.86424100  1
  B  B9  1  0.75341900  0.14177800  0.13575900  1
  H  H0  1  0.05743000  0.35916800  0.66402400  1
  H  H1  1  0.64083200  0.94257000  0.33597600  1
  O  O0  1  0.07404800  0.78658900  0.76189500  1
  O  O1  1  0.21341100  0.92595200  0.23810500  1
  O  O2  1  0.92220800  0.88791700  0.12383000  1
  O  O3  1  0.11208300  0.07779200  0.87617000  1
  O  O4  1  0.80180300  0.91632600  0.57473600  1
  O  O5  1  0.08367400  0.19819700  0.42526400  1
  O  O6  1  0.66865300  0.88015500  0.81413700  1
  O  O7  1  0.11984500  0.33134700  0.18586300  1
  O  O8  1  0.61849100  0.68066800  0.61941700  1
  O  O9  1  0.31933200  0.38150900  0.38058300  1
  O  O10  1  0.19164400  0.35151800  0.61070100  1
  O  O11  1  0.64848200  0.80835600  0.38929900  1
  O  O12  1  0.75978400  0.18146500  0.74996800  1
  O  O13  1  0.81853500  0.24021600  0.25003200  1
  O  O14  1  0.84874200  0.46893700  0.82635500  1
  O  O15  1  0.53106300  0.15125800  0.17364500  1
  O  O16  1  0.43358100  0.69870100  0.84886500  1
  O  O17  1  0.30129900  0.56641900  0.15113500  1
  O  O18  1  0.73459700  0.26540300  0.00000000  1
loop_
_geom_bond_atom_site_label_1
_geom_bond_atom_site_label_2
_geom_bond_distance
_geom_bond_site_symmetry_2
Ba0 O2 2.747691 1_555
Ba0 O18 2.751007 1_555
Ba0 O13 2.821734 1_555
Ba0 O7 2.847845 1_655
Ba0 H1 2.850027 1_555
Ba0 O11 2.851758 1_555
Ba0 O17 2.863953 1_555
Ba0 O1 2.908245 1_555
Ba0 O16 2.924155 1_554
Ba0 O14 2.962945 1_554
Ba0 O15 2.982713 1_565
Ba0 O6 3.053536 1_554
Ba1 O3 2.747691 1_555
Ba1 O18 2.751007 1_556
Ba1 O12 2.821734 1_555
Ba1 O6 2.847845 1_545
Ba1 H0 2.850027 1_555
Ba1 O10 2.851758 1_555
Ba1 O16 2.863953 1_555
Ba1 O0 2.908245 1_555
Ba1 O17 2.924155 1_556
Ba1 O15 2.962945 1_556
Ba1 O14 2.982713 1_455
Ba1 O7 3.053536 1_556
Na0 O5 2.420939 1_655
Na0 O4 2.420939 1_545
Na0 O12 2.461197 1_555
Na0 O13 2.461197 1_555
Na0 O9 2.603766 1_555
Na0 O8 2.603766 1_555
Na1 O5 2.510331 1_565
Na1 O4 2.510331 1_455
Na1 O1 2.604433 1_555
Na1 O0 2.604433 1_555
Na1 O8 2.741675 1_555
Na1 O9 2.741675 1_555
B0 O4 1.371822 1_555
B0 O8 1.372611 1_555
B0 O11 1.395199 1_555
B1 O5 1.371822 1_555
B1 O9 1.372611 1_555
B1 O10 1.395199 1_555
B2 O14 1.470456 1_555
B2 O6 1.471492 1_555
B2 O16 1.497448 1_555
B2 O8 1.521815 1_555
B3 O15 1.470456 1_555
B3 O7 1.471492 1_555
B3 O17 1.497448 1_555
B3 O9 1.521815 1_555
B4 O12 1.454963 1_565
B4 O6 1.465214 1_555
B4 O0 1.516098 1_655
B4 O4 1.530301 1_555
B5 O13 1.454963 1_455
B5 O7 1.465214 1_555
B5 O1 1.516098 1_545
B5 O5 1.530301 1_555
B6 O3 1.363356 1_565
B6 O0 1.380621 1_555
B6 O16 1.393792 1_555
B7 O2 1.363356 1_455
B7 O1 1.380621 1_555
B7 O17 1.393792 1_555
B8 O18 1.470095 1_556
B8 O12 1.483296 1_555
B8 O14 1.483447 1_555
B8 O3 1.514162 1_655
B9 O18 1.470095 1_555
B9 O13 1.483296 1_555
B9 O15 1.483447 1_555
B9 O2 1.514162 1_545
H0 O10 0.987571 1_555
H1 O11 0.987571 1_555
