# generated using pymatgen
data_Hg2Pb(SBr)2
_symmetry_space_group_name_H-M   'P 1'
_cell_length_a   9.25281700
_cell_length_b   10.97416200
_cell_length_c   14.19477999
_cell_angle_alpha   65.76358916
_cell_angle_beta   90.00000000
_cell_angle_gamma   90.00000000
_symmetry_Int_Tables_number   1
_chemical_formula_structural   Hg2Pb(SBr)2
_chemical_formula_sum   'Hg8 Pb4 S8 Br8'
_cell_volume   1314.32236925
_cell_formula_units_Z   4
loop_
 _symmetry_equiv_pos_site_id
 _symmetry_equiv_pos_as_xyz
  1  'x, y, z'
loop_
 _atom_site_type_symbol
 _atom_site_label
 _atom_site_symmetry_multiplicity
 _atom_site_fract_x
 _atom_site_fract_y
 _atom_site_fract_z
 _atom_site_occupancy
  Hg  Hg0  1  0.82225600  0.45805700  0.61192900  1
  Hg  Hg1  1  0.06654800  0.67628000  0.67417500  1
  Hg  Hg2  1  0.93345200  0.32372000  0.32582500  1
  Hg  Hg3  1  0.67774400  0.45805700  0.11192900  1
  Hg  Hg4  1  0.32225600  0.54194300  0.88807100  1
  Hg  Hg5  1  0.43345200  0.67628000  0.17417500  1
  Hg  Hg6  1  0.17774400  0.54194300  0.38807100  1
  Hg  Hg7  1  0.56654800  0.32372000  0.82582500  1
  Pb  Pb0  1  0.91055700  0.13796400  0.05026800  1
  Pb  Pb1  1  0.41055700  0.86203600  0.44973200  1
  Pb  Pb2  1  0.08944300  0.86203600  0.94973200  1
  Pb  Pb3  1  0.58944300  0.13796400  0.55026800  1
  S  S0  1  0.96779600  0.65087700  0.52982700  1
  S  S1  1  0.82668700  0.26766000  0.19646100  1
  S  S2  1  0.03220400  0.34912300  0.47017300  1
  S  S3  1  0.46779600  0.34912300  0.97017300  1
  S  S4  1  0.32668700  0.73234000  0.30353900  1
  S  S5  1  0.17331300  0.73234000  0.80353900  1
  S  S6  1  0.53220400  0.65087700  0.02982700  1
  S  S7  1  0.67331300  0.26766000  0.69646100  1
  Br  Br0  1  0.69576300  0.95482600  0.45517100  1
  Br  Br1  1  0.92810700  0.37954300  0.88254400  1
  Br  Br2  1  0.57189300  0.37954300  0.38254400  1
  Br  Br3  1  0.30423700  0.04517400  0.54482900  1
  Br  Br4  1  0.19576300  0.04517400  0.04482900  1
  Br  Br5  1  0.80423700  0.95482600  0.95517100  1
  Br  Br6  1  0.07189300  0.62045700  0.11745600  1
  Br  Br7  1  0.42810700  0.62045700  0.61745600  1
loop_
_geom_bond_atom_site_label_1
_geom_bond_atom_site_label_2
_geom_bond_distance
_geom_bond_site_symmetry_2
Hg0 S0 2.371633 1_555
Hg0 S7 2.376230 1_555
Hg1 S0 2.362191 1_455
Hg1 S5 2.377784 1_555
Hg2 S2 2.362191 1_655
Hg2 S1 2.377784 1_555
Hg3 S6 2.371633 1_555
Hg3 S1 2.376230 1_555
Hg4 S3 2.371633 1_555
Hg4 S5 2.376230 1_555
Hg5 S6 2.362191 1_555
Hg5 S4 2.377784 1_555
Hg6 S2 2.371633 1_555
Hg6 S4 2.376230 1_555
Hg7 S3 2.362191 1_555
Hg7 S7 2.377784 1_555
Pb0 S1 3.059300 1_555
Pb1 S4 3.059300 1_555
Pb2 S5 3.059300 1_555
Pb3 S7 3.059300 1_555
Br0 Pb1 2.841044 1_555
Br0 Pb3 3.009413 1_565
Br1 Pb0 2.746096 1_556
Br2 Pb3 2.746096 1_555
Br3 Pb3 2.841044 1_555
Br3 Pb1 3.009413 1_545
Br4 Pb0 2.841044 1_455
Br4 Pb2 3.009413 1_544
Br5 Pb2 2.841044 1_655
Br5 Pb0 3.009413 1_566
Br6 Pb2 2.746096 1_554
Br7 Pb1 2.746096 1_555
