# generated using pymatgen
data_Gd2MnS4
_symmetry_space_group_name_H-M   'P 1'
_cell_length_a   7.22764769
_cell_length_b   7.22764769
_cell_length_c   7.22764769
_cell_angle_alpha   111.01794297
_cell_angle_beta   111.01794297
_cell_angle_gamma   106.42018549
_symmetry_Int_Tables_number   1
_chemical_formula_structural   Gd2MnS4
_chemical_formula_sum   'Gd4 Mn2 S8'
_cell_volume   290.03519284
_cell_formula_units_Z   2
loop_
 _symmetry_equiv_pos_site_id
 _symmetry_equiv_pos_as_xyz
  1  'x, y, z'
loop_
 _atom_site_type_symbol
 _atom_site_label
 _atom_site_symmetry_multiplicity
 _atom_site_fract_x
 _atom_site_fract_y
 _atom_site_fract_z
 _atom_site_occupancy
  Gd  Gd0  1  0.50669900  0.12500000  0.88169900  1
  Gd  Gd1  1  0.37500000  0.49330100  0.61830100  1
  Gd  Gd2  1  0.24330100  0.62500000  0.11830100  1
  Gd  Gd3  1  0.87500000  0.75669900  0.38169900  1
  Mn  Mn0  1  0.00000000  0.00000000  0.00000000  1
  Mn  Mn1  1  0.75000000  0.25000000  0.50000000  1
  S  S0  1  0.99271400  0.36107300  0.23253000  1
  S  S1  1  0.23981600  0.00728600  0.36835900  1
  S  S2  1  0.11107300  0.24271400  0.73253000  1
  S  S3  1  0.75728600  0.48981600  0.86835900  1
  S  S4  1  0.51018400  0.37854300  0.26747000  1
  S  S5  1  0.62145700  0.88892700  0.13164100  1
  S  S6  1  0.12854300  0.76018400  0.76747000  1
  S  S7  1  0.63892700  0.87145700  0.63164100  1
loop_
_geom_bond_atom_site_label_1
_geom_bond_atom_site_label_2
_geom_bond_distance
_geom_bond_site_symmetry_2
Gd0 S4 2.718698 1_556
Gd0 S7 2.718698 1_545
Gd0 S3 2.801749 1_555
Gd0 S6 2.801749 1_545
Gd0 S5 2.966309 1_546
Gd0 S0 2.966309 1_556
Gd0 S1 3.143985 1_555
Gd0 S2 3.143985 1_555
Gd1 S3 2.718698 1_555
Gd1 S0 2.718698 1_455
Gd1 S7 2.801749 1_555
Gd1 S2 2.801749 1_555
Gd1 S1 2.966309 1_555
Gd1 S4 2.966309 1_555
Gd1 S5 3.143985 1_556
Gd1 S6 3.143985 1_555
Gd2 S2 2.718698 1_554
Gd2 S1 2.718698 1_565
Gd2 S5 2.801749 1_555
Gd2 S0 2.801749 1_455
Gd2 S6 2.966309 1_554
Gd2 S3 2.966309 1_454
Gd2 S7 3.143985 1_555
Gd2 S4 3.143985 1_555
Gd3 S5 2.718698 1_555
Gd3 S6 2.718698 1_655
Gd3 S1 2.801749 1_665
Gd3 S4 2.801749 1_555
Gd3 S2 2.966309 1_665
Gd3 S7 2.966309 1_555
Gd3 S3 3.143985 1_554
Gd3 S0 3.143985 1_555
Mn0 S7 2.575449 1_444
Mn0 S6 2.575449 1_544
Mn0 S1 2.575449 1_555
Mn0 S0 2.575449 1_455
Mn0 S2 3.195112 1_554
Mn0 S4 3.195112 1_555
Mn0 S3 3.195112 1_444
Mn0 S5 3.195112 1_445
Mn1 S4 2.575449 1_555
Mn1 S2 2.575449 1_655
Mn1 S3 2.575449 1_555
Mn1 S5 2.575449 1_545
Mn1 S1 3.195112 1_555
Mn1 S0 3.195112 1_555
Mn1 S6 3.195112 1_655
Mn1 S7 3.195112 1_545
