# generated using pymatgen
data_ZrAgMo
_symmetry_space_group_name_H-M   'P 1'
_cell_length_a   4.50982806
_cell_length_b   4.50982806
_cell_length_c   4.50982806
_cell_angle_alpha   60.00000000
_cell_angle_beta   60.00000000
_cell_angle_gamma   60.00000000
_symmetry_Int_Tables_number   1
_chemical_formula_structural   ZrAgMo
_chemical_formula_sum   'Zr1 Ag1 Mo1'
_cell_volume   64.85820935
_cell_formula_units_Z   1
loop_
 _symmetry_equiv_pos_site_id
 _symmetry_equiv_pos_as_xyz
  1  'x, y, z'
loop_
 _atom_site_type_symbol
 _atom_site_label
 _atom_site_symmetry_multiplicity
 _atom_site_fract_x
 _atom_site_fract_y
 _atom_site_fract_z
 _atom_site_occupancy
  Zr  Zr0  1  0.50000000  0.50000000  0.50000000  1
  Ag  Ag0  1  0.75000000  0.75000000  0.75000000  1
  Mo  Mo0  1  0.00000000  0.00000000  0.00000000  1
loop_
_geom_bond_atom_site_label_1
_geom_bond_atom_site_label_2
_geom_bond_distance
_geom_bond_site_symmetry_2
Ag0 Zr0 2.761694 1_556
Ag0 Mo0 2.761694 1_665
Ag0 Mo0 2.761694 1_666
Ag0 Zr0 2.761694 1_555
Ag0 Mo0 2.761694 1_656
Ag0 Mo0 2.761694 1_566
Ag0 Zr0 2.761694 1_655
Ag0 Zr0 2.761694 1_565
Mo0 Zr0 3.188930 1_544
Mo0 Zr0 3.188930 1_454
Mo0 Zr0 3.188930 1_445
Mo0 Zr0 3.188930 1_545
Mo0 Zr0 3.188930 1_455
Mo0 Zr0 3.188930 1_554
