# generated using pymatgen
data_CsK5Ru2O9
_symmetry_space_group_name_H-M   'P 1'
_cell_length_a   8.36327800
_cell_length_b   9.17014700
_cell_length_c   17.21324900
_cell_angle_alpha   90.00000000
_cell_angle_beta   90.00000000
_cell_angle_gamma   90.00000000
_symmetry_Int_Tables_number   1
_chemical_formula_structural   CsK5Ru2O9
_chemical_formula_sum   'Cs4 K20 Ru8 O36'
_cell_volume   1320.12690377
_cell_formula_units_Z   4
loop_
 _symmetry_equiv_pos_site_id
 _symmetry_equiv_pos_as_xyz
  1  'x, y, z'
loop_
 _atom_site_type_symbol
 _atom_site_label
 _atom_site_symmetry_multiplicity
 _atom_site_fract_x
 _atom_site_fract_y
 _atom_site_fract_z
 _atom_site_occupancy
  Cs  Cs0  1  0.25000000  0.75316800  0.27226400  1
  Cs  Cs1  1  0.25000000  0.74683200  0.77226400  1
  Cs  Cs2  1  0.75000000  0.24683200  0.72773600  1
  Cs  Cs3  1  0.75000000  0.25316800  0.22773600  1
  K  K0  1  0.98948700  0.02239000  0.39647900  1
  K  K1  1  0.98948700  0.47761000  0.89647900  1
  K  K2  1  0.51051300  0.47761000  0.89647900  1
  K  K3  1  0.99614400  0.96524200  0.10231800  1
  K  K4  1  0.48948700  0.97761000  0.60352100  1
  K  K5  1  0.75000000  0.74752800  0.97702600  1
  K  K6  1  0.25000000  0.24752800  0.52297400  1
  K  K7  1  0.48948700  0.52239000  0.10352100  1
  K  K8  1  0.00385600  0.46524200  0.39768200  1
  K  K9  1  0.50385600  0.53475800  0.60231800  1
  K  K10  1  0.51051300  0.02239000  0.39647900  1
  K  K11  1  0.99614400  0.53475800  0.60231800  1
  K  K12  1  0.01051300  0.97761000  0.60352100  1
  K  K13  1  0.25000000  0.25247200  0.02297400  1
  K  K14  1  0.49614400  0.03475800  0.89768200  1
  K  K15  1  0.00385600  0.03475800  0.89768200  1
  K  K16  1  0.49614400  0.46524200  0.39768200  1
  K  K17  1  0.75000000  0.75247200  0.47702600  1
  K  K18  1  0.01051300  0.52239000  0.10352100  1
  K  K19  1  0.50385600  0.96524200  0.10231800  1
  Ru  Ru0  1  0.75000000  0.24880200  0.00569700  1
  Ru  Ru1  1  0.75000000  0.25119800  0.50569700  1
  Ru  Ru2  1  0.25000000  0.29514500  0.75521400  1
  Ru  Ru3  1  0.75000000  0.79514500  0.74478600  1
  Ru  Ru4  1  0.25000000  0.20485500  0.25521400  1
  Ru  Ru5  1  0.25000000  0.75119800  0.99430300  1
  Ru  Ru6  1  0.75000000  0.70485500  0.24478600  1
  Ru  Ru7  1  0.25000000  0.74880200  0.49430300  1
  O  O0  1  0.43985300  0.75382100  0.94204200  1
  O  O1  1  0.25000000  0.53811400  0.99137100  1
  O  O2  1  0.93985300  0.25382100  0.55795800  1
  O  O3  1  0.25000000  0.23475000  0.85623100  1
  O  O4  1  0.42222700  0.08546300  0.24375000  1
  O  O5  1  0.56014700  0.24617900  0.05795800  1
  O  O6  1  0.75000000  0.03529300  0.00219600  1
  O  O7  1  0.25000000  0.26525000  0.35623100  1
  O  O8  1  0.06014700  0.75382100  0.94204200  1
  O  O9  1  0.75000000  0.25376000  0.89913500  1
  O  O10  1  0.25000000  0.53529300  0.49780400  1
  O  O11  1  0.25000000  0.96470700  0.99780400  1
  O  O12  1  0.93985300  0.24617900  0.05795800  1
  O  O13  1  0.07777300  0.41453700  0.74375000  1
  O  O14  1  0.92222700  0.58546300  0.25625000  1
  O  O15  1  0.75000000  0.64624000  0.81232500  1
  O  O16  1  0.75000000  0.46470700  0.50219600  1
  O  O17  1  0.25000000  0.96188600  0.49137100  1
  O  O18  1  0.75000000  0.03811400  0.50862900  1
  O  O19  1  0.43985300  0.74617900  0.44204200  1
  O  O20  1  0.75000000  0.73475000  0.64376900  1
  O  O21  1  0.57777300  0.58546300  0.25625000  1
  O  O22  1  0.75000000  0.24624000  0.39913500  1
  O  O23  1  0.75000000  0.76525000  0.14376900  1
  O  O24  1  0.57777300  0.91453700  0.75625000  1
  O  O25  1  0.75000000  0.46188600  0.00862900  1
  O  O26  1  0.25000000  0.35376000  0.18767500  1
  O  O27  1  0.07777300  0.08546300  0.24375000  1
  O  O28  1  0.92222700  0.91453700  0.75625000  1
  O  O29  1  0.25000000  0.75376000  0.60086500  1
  O  O30  1  0.25000000  0.74624000  0.10086500  1
  O  O31  1  0.25000000  0.14624000  0.68767500  1
  O  O32  1  0.56014700  0.25382100  0.55795800  1
  O  O33  1  0.06014700  0.74617900  0.44204200  1
  O  O34  1  0.75000000  0.85376000  0.31232500  1
  O  O35  1  0.42222700  0.41453700  0.74375000  1
loop_
_geom_bond_atom_site_label_1
_geom_bond_atom_site_label_2
_geom_bond_distance
_geom_bond_site_symmetry_2
Cs0 O30 2.951018 1_555
Cs0 O21 3.155241 1_555
Cs0 O14 3.155241 1_455
Cs0 O33 3.326529 1_555
Cs0 O19 3.326529 1_555
Cs0 O4 3.406023 1_565
Cs0 O27 3.406023 1_565
Cs1 O29 2.951018 1_555
Cs1 O24 3.155241 1_555
Cs1 O28 3.155241 1_455
Cs1 O8 3.326529 1_555
Cs1 O0 3.326529 1_555
Cs1 O35 3.406023 1_555
Cs1 O13 3.406023 1_555
Cs2 O9 2.951018 1_555
Cs2 O13 3.155241 1_655
Cs2 O35 3.155241 1_555
Cs2 O2 3.326529 1_555
Cs2 O32 3.326529 1_555
Cs2 O28 3.406023 1_545
Cs2 O24 3.406023 1_545
Cs3 O22 2.951018 1_555
Cs3 O27 3.155241 1_655
Cs3 O4 3.155241 1_555
Cs3 O12 3.326529 1_555
Cs3 O5 3.326529 1_555
Cs3 O14 3.406023 1_555
Cs3 O21 3.406023 1_555
K0 O33 2.716595 1_645
K0 O17 2.778984 1_645
K0 O18 2.785513 1_555
K0 O27 2.791264 1_655
K0 O22 2.868347 1_555
K0 O34 2.915676 1_545
K0 O7 3.191660 1_655
K1 O8 2.716595 1_655
K1 O1 2.778984 1_655
K1 O25 2.785513 1_556
K1 O13 2.791264 1_655
K1 O9 2.868347 1_555
K1 O15 2.915676 1_555
K1 O3 3.191660 1_655
K2 O0 2.716595 1_555
K2 O1 2.778984 1_555
K2 O25 2.785513 1_556
K2 O35 2.791264 1_555
K2 O9 2.868347 1_555
K2 O15 2.915676 1_555
K2 O3 3.191660 1_555
K3 O12 2.727941 1_565
K3 O27 2.758306 1_665
K3 O6 2.760535 1_565
K3 O11 2.782793 1_654
K3 O23 2.847841 1_555
K3 O30 2.922539 1_655
K4 O32 2.716595 1_565
K4 O18 2.778984 1_565
K4 O17 2.785513 1_555
K4 O24 2.791264 1_555
K4 O29 2.868347 1_555
K4 O31 2.915676 1_565
K4 O20 3.191660 1_555
K5 O8 2.663456 1_655
K5 O0 2.663456 1_555
K5 O6 2.674178 1_566
K5 O25 2.675271 1_556
K5 O23 2.874786 1_556
K5 O15 2.983315 1_555
K6 O32 2.663456 1_555
K6 O2 2.663456 1_455
K6 O10 2.674178 1_555
K6 O17 2.675271 1_545
K6 O7 2.874786 1_555
K6 O31 2.983315 1_555
K7 O5 2.716595 1_555
K7 O25 2.778984 1_555
K7 O1 2.785513 1_554
K7 O21 2.791264 1_555
K7 O30 2.868347 1_555
K7 O26 2.915676 1_555
K7 O23 3.191660 1_555
K8 O33 2.727941 1_555
K8 O14 2.758306 1_455
K8 O10 2.760535 1_555
K8 O16 2.782793 1_455
K8 O7 2.847841 1_555
K8 O22 2.922539 1_455
K9 O32 2.727941 1_555
K9 O35 2.758306 1_555
K9 O16 2.760535 1_555
K9 O10 2.782793 1_555
K9 O20 2.847841 1_555
K9 O29 2.922539 1_555
K10 O19 2.716595 1_545
K10 O17 2.778984 1_545
K10 O18 2.785513 1_555
K10 O4 2.791264 1_555
K10 O22 2.868347 1_555
K10 O34 2.915676 1_545
K10 O7 3.191660 1_555
K11 O2 2.727941 1_555
K11 O13 2.758306 1_655
K11 O16 2.760535 1_555
K11 O10 2.782793 1_655
K11 O20 2.847841 1_555
K11 O29 2.922539 1_655
K12 O2 2.716595 1_465
K12 O18 2.778984 1_465
K12 O17 2.785513 1_555
K12 O28 2.791264 1_455
K12 O29 2.868347 1_555
K12 O31 2.915676 1_565
K12 O20 3.191660 1_455
K13 O5 2.663456 1_555
K13 O12 2.663456 1_455
K13 O11 2.674178 1_544
K13 O1 2.675271 1_554
K13 O3 2.874786 1_554
K13 O26 2.983315 1_555
K14 O0 2.727941 1_545
K14 O24 2.758306 1_545
K14 O11 2.760535 1_545
K14 O6 2.782793 1_556
K14 O3 2.847841 1_555
K14 O9 2.922539 1_555
K15 O8 2.727941 1_545
K15 O28 2.758306 1_445
K15 O11 2.760535 1_545
K15 O6 2.782793 1_456
K15 O3 2.847841 1_555
K15 O9 2.922539 1_455
K16 O19 2.727941 1_555
K16 O21 2.758306 1_555
K16 O10 2.760535 1_555
K16 O16 2.782793 1_555
K16 O7 2.847841 1_555
K16 O22 2.922539 1_555
K17 O33 2.663456 1_655
K17 O19 2.663456 1_555
K17 O16 2.674178 1_555
K17 O18 2.675271 1_565
K17 O20 2.874786 1_555
K17 O34 2.983315 1_555
K18 O12 2.716595 1_455
K18 O25 2.778984 1_455
K18 O1 2.785513 1_554
K18 O14 2.791264 1_455
K18 O30 2.868347 1_555
K18 O26 2.915676 1_555
K18 O23 3.191660 1_455
K19 O5 2.727941 1_565
K19 O4 2.758306 1_565
K19 O6 2.760535 1_565
K19 O11 2.782793 1_554
K19 O23 2.847841 1_555
K19 O30 2.922539 1_555
O0 Ru5 1.825079 1_555
O1 Ru5 1.954663 1_555
O2 Ru1 1.825079 1_555
O3 Ru2 1.824900 1_555
O4 Ru4 1.819978 1_555
O5 Ru0 1.825079 1_555
O6 Ru0 1.958836 1_555
O7 Ru4 1.824900 1_555
O8 Ru5 1.825079 1_555
O9 Ru0 1.834842 1_556
O10 Ru7 1.958836 1_555
O11 Ru5 1.958836 1_555
O12 Ru0 1.825079 1_555
O13 Ru2 1.819978 1_555
O14 Ru6 1.819978 1_555
O15 Ru3 1.793348 1_555
O16 Ru1 1.958836 1_555
O17 Ru7 1.954663 1_555
O18 Ru1 1.954663 1_555
O19 Ru7 1.825079 1_555
O20 Ru3 1.824900 1_555
O21 Ru6 1.819978 1_555
O22 Ru1 1.834842 1_555
O23 Ru6 1.824900 1_555
O24 Ru3 1.819978 1_555
O25 Ru0 1.954663 1_555
O26 Ru4 1.793348 1_555
O27 Ru4 1.819978 1_555
O28 Ru3 1.819978 1_555
O29 Ru7 1.834842 1_555
O30 Ru5 1.834842 1_554
O31 Ru2 1.793348 1_555
O32 Ru1 1.825079 1_555
O33 Ru7 1.825079 1_555
O34 Ru6 1.793348 1_555
O35 Ru2 1.819978 1_555
