# generated using pymatgen
data_Li4Mn5O12
_symmetry_space_group_name_H-M   'P 1'
_cell_length_a   5.71877519
_cell_length_b   5.71877519
_cell_length_c   12.77992531
_cell_angle_alpha   77.35870825
_cell_angle_beta   77.35870825
_cell_angle_gamma   89.93068344
_symmetry_Int_Tables_number   1
_chemical_formula_structural   Li4Mn5O12
_chemical_formula_sum   'Li8 Mn10 O24'
_cell_volume   397.46333648
_cell_formula_units_Z   2
loop_
 _symmetry_equiv_pos_site_id
 _symmetry_equiv_pos_as_xyz
  1  'x, y, z'
loop_
 _atom_site_type_symbol
 _atom_site_label
 _atom_site_symmetry_multiplicity
 _atom_site_fract_x
 _atom_site_fract_y
 _atom_site_fract_z
 _atom_site_occupancy
  Li  Li0  1  0.78435781  0.53939318  0.92150669  1
  Li  Li1  1  0.53939318  0.78435781  0.42150669  1
  Li  Li2  1  0.88186821  0.11813179  0.75000000  1
  Li  Li3  1  0.11813179  0.88186821  0.25000000  1
  Li  Li4  1  -0.00000000  0.00000000  0.50000000  1
  Li  Li5  1  0.21564219  0.46060682  0.07849331  1
  Li  Li6  1  0.46060682  0.21564219  0.57849331  1
  Li  Li7  1  -0.00000000  0.00000000  0.00000000  1
  Mn  Mn0  1  0.66758825  0.67116704  0.16442580  1
  Mn  Mn1  1  0.16594588  0.66801772  0.66398070  1
  Mn  Mn2  1  0.67116704  0.66758825  0.66442580  1
  Mn  Mn3  1  0.50000000  0.00000000  0.00000000  1
  Mn  Mn4  1  0.33198228  0.83405412  0.83601930  1
  Mn  Mn5  1  0.33241175  0.32883296  0.83557420  1
  Mn  Mn6  1  0.83405412  0.33198228  0.33601930  1
  Mn  Mn7  1  0.66801772  0.16594588  0.16398070  1
  Mn  Mn8  1  0.32883296  0.33241175  0.33557420  1
  Mn  Mn9  1  -0.00000000  0.50000000  0.50000000  1
  O  O0  1  0.58601241  0.56332317  0.32374479  1
  O  O1  1  0.22411246  0.72644573  0.51438792  1
  O  O2  1  0.91656243  0.87431386  0.66950864  1
  O  O3  1  0.07757836  0.55874800  0.34167925  1
  O  O4  1  0.76229430  0.72639944  0.51385761  1
  O  O5  1  0.56332317  0.58601241  0.82374479  1
  O  O6  1  0.55874800  0.07757836  0.84167925  1
  O  O7  1  0.27360056  0.23770570  0.98614239  1
  O  O8  1  0.41477570  0.88289113  0.67322464  1
  O  O9  1  0.27355427  0.77588754  0.98561208  1
  O  O10  1  0.12568614  0.08343757  0.83049136  1
  O  O11  1  0.11710887  0.58522430  0.82677536  1
  O  O12  1  0.87431386  0.91656243  0.16950864  1
  O  O13  1  0.88289113  0.41477570  0.17322464  1
  O  O14  1  0.72644573  0.22411246  0.01438792  1
  O  O15  1  0.58522430  0.11710887  0.32677536  1
  O  O16  1  0.72639944  0.76229430  0.01385761  1
  O  O17  1  0.44125200  0.92242164  0.15832075  1
  O  O18  1  0.43667683  0.41398759  0.17625521  1
  O  O19  1  0.23770570  0.27360056  0.48614239  1
  O  O20  1  0.92242164  0.44125200  0.65832075  1
  O  O21  1  0.08343757  0.12568614  0.33049136  1
  O  O22  1  0.77588754  0.27355427  0.48561208  1
  O  O23  1  0.41398759  0.43667683  0.67625521  1
loop_
_geom_bond_atom_site_label_1
_geom_bond_atom_site_label_2
_geom_bond_distance
_geom_bond_site_symmetry_2
Li0 O16 1.901050 1_556
Li0 O14 1.913685 1_556
Li0 O5 1.942808 1_555
Li0 O11 2.002372 1_655
Li1 O4 1.901050 1_555
Li1 O1 1.913685 1_555
Li1 O0 1.942808 1_555
Li1 O15 2.002372 1_565
Li2 O10 1.891959 1_655
Li2 O2 1.891959 1_545
Li2 O20 1.943089 1_555
Li2 O6 1.943089 1_555
Li3 O21 1.891959 1_565
Li3 O12 1.891959 1_455
Li3 O17 1.943089 1_555
Li3 O3 1.943089 1_555
Li4 O22 2.023897 1_455
Li4 O1 2.023897 1_545
Li4 O19 2.026313 1_555
Li4 O4 2.026313 1_445
Li4 O21 2.074627 1_555
Li4 O2 2.074627 1_445
Li5 O7 1.901050 1_554
Li5 O9 1.913685 1_554
Li5 O18 1.942808 1_555
Li5 O13 2.002372 1_455
Li6 O19 1.901050 1_555
Li6 O22 1.913685 1_555
Li6 O23 1.942808 1_555
Li6 O8 2.002372 1_545
Li7 O9 2.023897 1_544
Li7 O14 2.023897 1_455
Li7 O16 2.026313 1_445
Li7 O7 2.026313 1_554
Li7 O12 2.074627 1_445
Li7 O10 2.074627 1_554
Mn0 O16 1.834579 1_555
Mn0 O12 1.857096 1_555
Mn0 O13 1.913794 1_555
Mn0 O17 1.933054 1_555
Mn0 O18 1.936431 1_555
Mn0 O0 1.943956 1_555
Mn1 O1 1.821961 1_555
Mn1 O2 1.849079 1_455
Mn1 O8 1.920995 1_555
Mn1 O20 1.927693 1_455
Mn1 O23 1.946547 1_555
Mn1 O11 1.986332 1_555
Mn2 O4 1.834579 1_555
Mn2 O2 1.857096 1_555
Mn2 O8 1.913794 1_555
Mn2 O20 1.933054 1_555
Mn2 O23 1.936431 1_555
Mn2 O5 1.943956 1_555
Mn3 O7 1.883173 1_554
Mn3 O16 1.883173 1_545
Mn3 O9 1.888075 1_544
Mn3 O14 1.888075 1_555
Mn3 O6 1.927041 1_554
Mn3 O17 1.927041 1_545
Mn4 O9 1.821961 1_555
Mn4 O10 1.849079 1_565
Mn4 O11 1.920995 1_555
Mn4 O6 1.927693 1_565
Mn4 O5 1.946547 1_555
Mn4 O8 1.986332 1_555
Mn5 O7 1.834579 1_555
Mn5 O10 1.857096 1_555
Mn5 O11 1.913794 1_555
Mn5 O6 1.933054 1_555
Mn5 O5 1.936431 1_555
Mn5 O23 1.943956 1_555
Mn6 O22 1.821961 1_555
Mn6 O21 1.849079 1_655
Mn6 O15 1.920995 1_555
Mn6 O3 1.927693 1_655
Mn6 O0 1.946547 1_555
Mn6 O13 1.986332 1_555
Mn7 O14 1.821961 1_555
Mn7 O12 1.849079 1_545
Mn7 O13 1.920995 1_555
Mn7 O17 1.927693 1_545
Mn7 O18 1.946547 1_555
Mn7 O15 1.986332 1_555
Mn8 O19 1.834579 1_555
Mn8 O21 1.857096 1_555
Mn8 O15 1.913794 1_555
Mn8 O3 1.933054 1_555
Mn8 O0 1.936431 1_555
Mn8 O18 1.943956 1_555
Mn9 O19 1.883173 1_555
Mn9 O4 1.883173 1_455
Mn9 O22 1.888075 1_455
Mn9 O1 1.888075 1_555
Mn9 O3 1.927041 1_555
Mn9 O20 1.927041 1_455
