# generated using pymatgen
data_Bi(PO3)4
_symmetry_space_group_name_H-M   'P 1'
_cell_length_a   8.30680000
_cell_length_b   10.07002700
_cell_length_c   13.52105700
_cell_angle_alpha   90.00000000
_cell_angle_beta   90.00000000
_cell_angle_gamma   90.00000000
_symmetry_Int_Tables_number   1
_chemical_formula_structural   Bi(PO3)4
_chemical_formula_sum   'Bi4 P16 O48'
_cell_volume   1131.03236557
_cell_formula_units_Z   4
loop_
 _symmetry_equiv_pos_site_id
 _symmetry_equiv_pos_as_xyz
  1  'x, y, z'
loop_
 _atom_site_type_symbol
 _atom_site_label
 _atom_site_symmetry_multiplicity
 _atom_site_fract_x
 _atom_site_fract_y
 _atom_site_fract_z
 _atom_site_occupancy
  Bi  Bi0  1  0.13588300  0.25000000  0.50000000  1
  Bi  Bi1  1  0.36411700  0.75000000  0.00000000  1
  Bi  Bi2  1  0.86411700  0.75000000  0.50000000  1
  Bi  Bi3  1  0.63588300  0.25000000  0.00000000  1
  P  P0  1  0.46497500  0.00796800  0.16083200  1
  P  P1  1  0.16938400  0.50240600  0.13683500  1
  P  P2  1  0.66938400  0.50240600  0.36316500  1
  P  P3  1  0.16938400  0.99759400  0.86316500  1
  P  P4  1  0.33061600  0.00240600  0.36316500  1
  P  P5  1  0.83061600  0.49759400  0.86316500  1
  P  P6  1  0.96497500  0.49203200  0.66083200  1
  P  P7  1  0.83061600  0.00240600  0.13683500  1
  P  P8  1  0.03502500  0.99203200  0.66083200  1
  P  P9  1  0.96497500  0.00796800  0.33916800  1
  P  P10  1  0.03502500  0.50796800  0.33916800  1
  P  P11  1  0.53502500  0.99203200  0.83916800  1
  P  P12  1  0.33061600  0.49759400  0.63683500  1
  P  P13  1  0.46497500  0.49203200  0.83916800  1
  P  P14  1  0.53502500  0.50796800  0.16083200  1
  P  P15  1  0.66938400  0.99759400  0.63683500  1
  O  O0  1  0.15060400  0.52435300  0.67762200  1
  O  O1  1  0.12362500  0.12163800  0.64299200  1
  O  O2  1  0.94367800  0.38587000  0.58223200  1
  O  O3  1  0.59126900  0.37694200  0.39416600  1
  O  O4  1  0.59126900  0.12305800  0.60583400  1
  O  O5  1  0.41169900  0.43233700  0.73525400  1
  O  O6  1  0.84939600  0.47564700  0.32237800  1
  O  O7  1  0.91169900  0.06766300  0.23525400  1
  O  O8  1  0.58830100  0.56766300  0.26474600  1
  O  O9  1  0.17354200  0.61645300  0.06259400  1
  O  O10  1  0.67354200  0.61645300  0.43740600  1
  O  O11  1  0.32645800  0.38354700  0.56259400  1
  O  O12  1  0.40873100  0.87694200  0.39416600  1
  O  O13  1  0.82645800  0.11645300  0.06259400  1
  O  O14  1  0.62362500  0.37836200  0.14299200  1
  O  O15  1  0.12362500  0.37836200  0.35700800  1
  O  O16  1  0.37637500  0.62163800  0.85700800  1
  O  O17  1  0.91169900  0.43233700  0.76474600  1
  O  O18  1  0.65060400  0.52435300  0.82237800  1
  O  O19  1  0.41169900  0.06766300  0.26474600  1
  O  O20  1  0.90873100  0.87694200  0.10583400  1
  O  O21  1  0.84939600  0.02435300  0.67762200  1
  O  O22  1  0.44367800  0.38587000  0.91776800  1
  O  O23  1  0.05632200  0.88587000  0.58223200  1
  O  O24  1  0.15060400  0.97564700  0.32237800  1
  O  O25  1  0.87637500  0.62163800  0.64299200  1
  O  O26  1  0.55632200  0.88587000  0.91776800  1
  O  O27  1  0.87637500  0.87836200  0.35700800  1
  O  O28  1  0.05632200  0.61413000  0.41776800  1
  O  O29  1  0.55632200  0.61413000  0.08223200  1
  O  O30  1  0.58830100  0.93233700  0.73525400  1
  O  O31  1  0.17354200  0.88354700  0.93740600  1
  O  O32  1  0.82645800  0.38354700  0.93740600  1
  O  O33  1  0.34939600  0.02435300  0.82237800  1
  O  O34  1  0.62362500  0.12163800  0.85700800  1
  O  O35  1  0.08830100  0.56766300  0.23525400  1
  O  O36  1  0.90873100  0.62305800  0.89416600  1
  O  O37  1  0.09126900  0.37694200  0.10583400  1
  O  O38  1  0.34939600  0.47564700  0.17762200  1
  O  O39  1  0.65060400  0.97564700  0.17762200  1
  O  O40  1  0.32645800  0.11645300  0.43740600  1
  O  O41  1  0.94367800  0.11413000  0.41776800  1
  O  O42  1  0.09126900  0.12305800  0.89416600  1
  O  O43  1  0.37637500  0.87836200  0.14299200  1
  O  O44  1  0.44367800  0.11413000  0.08223200  1
  O  O45  1  0.67354200  0.88354700  0.56259400  1
  O  O46  1  0.40873100  0.62305800  0.60583400  1
  O  O47  1  0.08830100  0.93233700  0.76474600  1
loop_
_geom_bond_atom_site_label_1
_geom_bond_atom_site_label_2
_geom_bond_distance
_geom_bond_site_symmetry_2
Bi0 O11 2.242975 1_555
Bi0 O40 2.242975 1_555
Bi0 O1 2.327929 1_555
Bi0 O15 2.327929 1_555
Bi0 O41 2.378531 1_455
Bi0 O2 2.378531 1_455
Bi1 O31 2.242975 1_554
Bi1 O9 2.242975 1_555
Bi1 O43 2.327929 1_555
Bi1 O16 2.327929 1_554
Bi1 O29 2.378531 1_555
Bi1 O26 2.378531 1_554
Bi2 O45 2.242975 1_555
Bi2 O10 2.242975 1_555
Bi2 O27 2.327929 1_555
Bi2 O25 2.327929 1_555
Bi2 O28 2.378531 1_655
Bi2 O23 2.378531 1_655
Bi3 O32 2.242975 1_554
Bi3 O13 2.242975 1_555
Bi3 O14 2.327929 1_555
Bi3 O34 2.327929 1_554
Bi3 O44 2.378531 1_555
Bi3 O22 2.378531 1_554
O0 P6 1.592225 1_455
O0 P12 1.616396 1_555
O1 P8 1.517641 1_545
O2 P6 1.517769 1_555
O3 P2 1.480877 1_555
O4 P15 1.480877 1_545
O5 P13 1.591010 1_555
O5 P12 1.629825 1_555
O6 P10 1.592225 1_655
O6 P2 1.616396 1_555
O7 P9 1.591010 1_555
O7 P7 1.629825 1_555
O8 P14 1.591010 1_555
O8 P2 1.629825 1_555
O9 P1 1.525711 1_555
O10 P2 1.525711 1_555
O11 P12 1.525711 1_555
O12 P4 1.480877 1_565
O13 P7 1.525711 1_555
O14 P14 1.517641 1_555
O15 P10 1.517641 1_555
O16 P13 1.517641 1_555
O17 P6 1.591010 1_555
O17 P5 1.629825 1_555
O18 P13 1.592225 1_555
O18 P5 1.616396 1_555
O19 P0 1.591010 1_555
O19 P4 1.629825 1_555
O20 P7 1.480877 1_565
O21 P8 1.592225 1_645
O21 P15 1.616396 1_545
O22 P13 1.517769 1_555
O23 P8 1.517769 1_555
O24 P9 1.592225 1_465
O24 P4 1.616396 1_565
O25 P6 1.517641 1_555
O26 P11 1.517769 1_555
O27 P9 1.517641 1_565
O28 P10 1.517769 1_555
O29 P14 1.517769 1_555
O30 P11 1.591010 1_555
O30 P15 1.629825 1_555
O31 P3 1.525711 1_555
O32 P5 1.525711 1_555
O33 P11 1.592225 1_545
O33 P3 1.616396 1_545
O34 P11 1.517641 1_545
O35 P10 1.591010 1_555
O35 P1 1.629825 1_555
O36 P5 1.480877 1_555
O37 P1 1.480877 1_555
O38 P14 1.592225 1_555
O38 P1 1.616396 1_555
O39 P0 1.592225 1_565
O39 P7 1.616396 1_565
O40 P4 1.525711 1_555
O41 P9 1.517769 1_555
O42 P3 1.480877 1_545
O43 P0 1.517641 1_565
O44 P0 1.517769 1_555
O45 P15 1.525711 1_555
O46 P12 1.480877 1_555
O47 P8 1.591010 1_555
O47 P3 1.629825 1_555
