# generated using pymatgen
data_Rb4CeH12C3O17
_symmetry_space_group_name_H-M   'P 1'
_cell_length_a   9.53983500
_cell_length_b   11.66490953
_cell_length_c   12.29089014
_cell_angle_alpha   61.94977758
_cell_angle_beta   68.43327446
_cell_angle_gamma   74.92900940
_symmetry_Int_Tables_number   1
_chemical_formula_structural   Rb4CeH12C3O17
_chemical_formula_sum   'Rb8 Ce2 H24 C6 O34'
_cell_volume   1116.22918797
_cell_formula_units_Z   2
loop_
 _symmetry_equiv_pos_site_id
 _symmetry_equiv_pos_as_xyz
  1  'x, y, z'
loop_
 _atom_site_type_symbol
 _atom_site_label
 _atom_site_symmetry_multiplicity
 _atom_site_fract_x
 _atom_site_fract_y
 _atom_site_fract_z
 _atom_site_occupancy
  Rb  Rb0  1  0.29702800  0.63415900  0.07044300  1
  Rb  Rb1  1  0.70297200  0.36584100  0.92955700  1
  Rb  Rb2  1  0.29458100  0.94539300  0.53320600  1
  Rb  Rb3  1  0.70541900  0.05460700  0.46679400  1
  Rb  Rb4  1  0.19029700  0.88509200  0.24534800  1
  Rb  Rb5  1  0.80970300  0.11490800  0.75465200  1
  Rb  Rb6  1  0.77601900  0.51060300  0.17198500  1
  Rb  Rb7  1  0.22398100  0.48939700  0.82801500  1
  Ce  Ce0  1  0.85975000  0.67088600  0.51286500  1
  Ce  Ce1  1  0.14025000  0.32911400  0.48713500  1
  H  H0  1  0.49600100  0.75386800  0.09171800  1
  H  H1  1  0.48940300  0.98143100  0.23275800  1
  H  H2  1  0.55038400  0.86960500  0.80336800  1
  H  H3  1  0.71602700  0.62941600  0.91797600  1
  H  H4  1  0.28397300  0.37058400  0.08202400  1
  H  H5  1  0.97964100  0.71071400  0.99276300  1
  H  H6  1  0.51059700  0.01856900  0.76724200  1
  H  H7  1  0.19645400  0.99024500  0.93950400  1
  H  H8  1  0.99772900  0.45527800  0.66095900  1
  H  H9  1  0.52733700  0.73536600  0.14597000  1
  H  H10  1  0.06452100  0.91600500  0.96887500  1
  H  H11  1  0.05615700  0.67540100  0.96578300  1
  H  H12  1  0.40397200  0.69346300  0.44750900  1
  H  H13  1  0.59602800  0.30653700  0.55249100  1
  H  H14  1  0.91391200  0.88709100  0.71210100  1
  H  H15  1  0.93547900  0.08399500  0.03112500  1
  H  H16  1  0.02035900  0.28928600  0.00723700  1
  H  H17  1  0.94384300  0.32459900  0.03421700  1
  H  H18  1  0.50399900  0.24613200  0.90828200  1
  H  H19  1  0.08608800  0.11290900  0.28789900  1
  H  H20  1  0.80354600  0.00975500  0.06049600  1
  H  H21  1  0.00227100  0.54472200  0.33904100  1
  H  H22  1  0.47266300  0.26463400  0.85403000  1
  H  H23  1  0.44961600  0.13039500  0.19663200  1
  C  C0  1  0.04667100  0.25232800  0.33462300  1
  C  C1  1  0.44912100  0.31973500  0.33028400  1
  C  C2  1  0.95332900  0.74767200  0.66537700  1
  C  C3  1  0.29826100  0.23971000  0.70888300  1
  C  C4  1  0.70173900  0.76029000  0.29111700  1
  C  C5  1  0.55087900  0.68026500  0.66971600  1
  O  O0  1  0.68636900  0.86229000  0.20636300  1
  O  O1  1  0.95897100  0.62381500  0.70778400  1
  O  O2  1  0.95021100  0.79427000  0.74813200  1
  O  O3  1  0.04102900  0.37618500  0.29221600  1
  O  O4  1  0.94087800  0.38447500  0.68104400  1
  O  O5  1  0.04978900  0.20573000  0.25186800  1
  O  O6  1  0.62291100  0.56669300  0.69527200  1
  O  O7  1  0.34534400  0.77808300  0.42206700  1
  O  O8  1  0.64994700  0.32139000  0.16259300  1
  O  O9  1  0.65465600  0.22191700  0.57793300  1
  O  O10  1  0.18632500  0.17684800  0.02418100  1
  O  O11  1  0.84848400  0.82698000  0.36402800  1
  O  O12  1  0.31363100  0.13771000  0.79363700  1
  O  O13  1  0.41096600  0.04624000  0.25485100  1
  O  O14  1  0.29077200  0.35158500  0.63516700  1
  O  O15  1  0.61542800  0.78452600  0.60489500  1
  O  O16  1  0.94636200  0.82799800  0.55262600  1
  O  O17  1  0.15151600  0.17302000  0.63597200  1
  O  O18  1  0.05912200  0.61552500  0.31895600  1
  O  O19  1  0.84884500  0.09176700  0.00267700  1
  O  O20  1  0.38457200  0.21547400  0.39510500  1
  O  O21  1  0.11220700  0.57608600  0.43170200  1
  O  O22  1  0.88779300  0.42391400  0.56829800  1
  O  O23  1  0.60507700  0.30725400  0.29730700  1
  O  O24  1  0.70922800  0.64841500  0.36483300  1
  O  O25  1  0.15115500  0.90823300  0.99732300  1
  O  O26  1  0.35005300  0.67861000  0.83740700  1
  O  O27  1  0.43528400  0.99286900  0.00274600  1
  O  O28  1  0.56471600  0.00713100  0.99725400  1
  O  O29  1  0.58903400  0.95376000  0.74514900  1
  O  O30  1  0.39492300  0.69274600  0.70269300  1
  O  O31  1  0.37708900  0.43330700  0.30472800  1
  O  O32  1  0.05363800  0.17200200  0.44737400  1
  O  O33  1  0.81367500  0.82315200  0.97581900  1
loop_
_geom_bond_atom_site_label_1
_geom_bond_atom_site_label_2
_geom_bond_distance
_geom_bond_site_symmetry_2
Ce0 O11 1.893019 1_555
Ce0 O21 2.429942 1_655
Ce0 O22 2.592793 1_555
Ce1 O17 1.893019 1_555
Ce1 O22 2.429942 1_455
Ce1 O21 2.592793 1_555
H0 H9 0.747141 1_555
H0 Rb0 2.776337 1_555
H1 O13 0.977081 1_565
H2 O29 0.972245 1_555
H3 Rb6 2.971012 1_556
H3 Rb1 3.043568 1_555
H4 Rb7 2.971012 1_554
H4 Rb0 3.043568 1_555
H5 Rb6 2.907035 1_556
H6 O29 0.977081 1_545
H7 O25 0.978160 1_555
H8 O4 0.989934 1_555
H9 Rb6 3.023099 1_555
H10 O25 0.978368 1_555
H11 H5 0.778859 1_455
H11 Rb0 2.860518 1_556
H11 Rb7 3.129538 1_555
H12 O7 0.967534 1_555
H13 O9 0.967534 1_555
H14 O2 0.977330 1_555
H14 Rb5 2.806238 1_565
H15 O19 0.978368 1_555
H16 H17 0.778859 1_455
H16 Rb7 2.907035 1_554
H17 Rb1 2.860518 1_554
H17 Rb6 3.129538 1_555
H18 H22 0.747141 1_555
H18 Rb1 2.776337 1_555
H19 O5 0.977330 1_555
H19 Rb4 2.806238 1_545
H20 O19 0.978160 1_555
H21 O18 0.989934 1_555
H22 Rb7 3.023099 1_555
H23 O13 0.972245 1_555
C0 O32 1.271594 1_555
C0 O3 1.278244 1_555
C0 O5 1.349157 1_555
C1 O20 1.269079 1_555
C1 O31 1.272744 1_555
C1 O23 1.377875 1_555
C2 O16 1.271594 1_555
C2 O1 1.278244 1_555
C2 O2 1.349157 1_555
C3 O12 1.173969 1_555
C3 O14 1.190016 1_555
C4 O0 1.173969 1_555
C4 O24 1.190016 1_555
C5 O15 1.269079 1_555
C5 O6 1.272744 1_555
C5 O30 1.377875 1_555
O1 Rb7 3.088652 1_655
O3 Rb6 3.088652 1_455
O4 Rb1 3.010581 1_555
O4 Rb5 3.287954 1_555
O6 Rb1 2.950548 1_555
O7 Rb4 2.704719 1_555
O7 Rb2 2.727437 1_555
O8 Rb1 2.530409 1_554
O8 Rb6 2.837868 1_555
O9 Rb5 2.704719 1_555
O9 Rb3 2.727437 1_555
O10 Rb4 3.206426 1_545
O11 Rb4 3.153256 1_655
O11 Rb3 3.242033 1_565
O13 Rb2 2.902226 1_545
O13 Rb4 3.228617 1_545
O14 Rb7 3.247936 1_555
O15 Rb3 2.974810 1_565
O15 Rb2 3.332733 1_555
O16 Rb3 3.063337 1_565
O16 Rb4 3.478745 1_655
O17 Rb5 3.153256 1_455
O17 Rb2 3.242033 1_545
O18 O21 1.477700 1_555
O18 Rb0 3.010581 1_555
O18 Rb4 3.287954 1_555
O19 Rb1 2.978075 1_554
O19 Rb5 3.084777 1_554
O20 Rb2 2.974810 1_545
O20 Rb3 3.332733 1_555
O21 Rb4 3.342314 1_555
O22 O4 1.477700 1_555
O22 Rb5 3.342314 1_555
O23 O8 1.486883 1_555
O23 Rb6 2.717945 1_555
O23 Rb3 2.857667 1_555
O24 Rb6 3.247936 1_555
O25 Rb0 2.978075 1_556
O25 Rb4 3.084777 1_556
O26 O30 1.486883 1_555
O26 Rb0 2.530409 1_556
O26 Rb7 2.837868 1_555
O27 O28 1.261687 1_564
O27 Rb4 2.968657 1_555
O28 Rb5 2.968657 1_555
O29 Rb3 2.902226 1_565
O29 Rb5 3.228617 1_565
O30 Rb7 2.717945 1_555
O30 Rb2 2.857667 1_555
O31 Rb0 2.950548 1_555
O32 Rb2 3.063337 1_545
O32 Rb5 3.478745 1_455
O33 Rb5 3.206426 1_565
