# generated using pymatgen
data_Ba6Tb3Nb(SnO9)2
_symmetry_space_group_name_H-M   'P 1'
_cell_length_a   6.09580627
_cell_length_b   6.09117173
_cell_length_c   55.08277305
_cell_angle_alpha   60.18829155
_cell_angle_beta   60.09771492
_cell_angle_gamma   60.01249936
_symmetry_Int_Tables_number   1
_chemical_formula_structural   Ba6Tb3Nb(SnO9)2
_chemical_formula_sum   'Ba18 Tb9 Nb3 Sn6 O54'
_cell_volume   1449.46853173
_cell_formula_units_Z   3
loop_
 _symmetry_equiv_pos_site_id
 _symmetry_equiv_pos_as_xyz
  1  'x, y, z'
loop_
 _atom_site_type_symbol
 _atom_site_label
 _atom_site_symmetry_multiplicity
 _atom_site_fract_x
 _atom_site_fract_y
 _atom_site_fract_z
 _atom_site_occupancy
  Tb  Tb0  1  0.00661131  0.00883164  0.99747322  1
  Tb  Tb1  1  0.50448783  0.50583106  0.05386796  1
  Tb  Tb2  1  -0.00031219  0.99897317  0.11133951  1
  Tb  Tb3  1  0.49792493  0.49817515  0.16735167  1
  Tb  Tb4  1  0.99671156  0.99706716  0.22322384  1
  Tb  Tb5  1  0.49452215  0.49356106  0.27972013  1
  Tb  Tb6  1  0.98970226  0.98649597  0.33722951  1
  Tb  Tb7  1  0.99395413  0.99414902  0.44645591  1
  Tb  Tb8  1  0.00110573  0.00269944  0.88822047  1
  Ba  Ba0  1  0.23966455  0.24166046  0.03095976  1
  Ba  Ba1  1  0.24883225  0.24773134  0.13942130  1
  Ba  Ba2  1  0.74712623  0.74610894  0.08440384  1
  Ba  Ba3  1  0.24290971  0.24295478  0.25234604  1
  Ba  Ba4  1  0.24300972  0.24014353  0.36381036  1
  Ba  Ba5  1  0.74556881  0.74665740  0.19580549  1
  Ba  Ba6  1  0.74286146  0.73970570  0.30830623  1
  Ba  Ba7  1  0.25191783  0.25347853  0.47143586  1
  Ba  Ba8  1  0.74741282  0.74848829  0.41745602  1
  Ba  Ba9  1  0.25610905  0.25634555  0.58128421  1
  Ba  Ba10  1  0.24590250  0.24618482  0.69577773  1
  Ba  Ba11  1  0.75569177  0.75657599  0.52578987  1
  Ba  Ba12  1  0.75430216  0.75464783  0.63742956  1
  Ba  Ba13  1  0.25656069  0.25623758  0.80337822  1
  Ba  Ba14  1  0.24592412  0.24584820  0.91800104  1
  Ba  Ba15  1  0.74839858  0.74835860  0.75053042  1
  Ba  Ba16  1  0.74657054  0.74598142  0.86229163  1
  Ba  Ba17  1  0.74183196  0.74381395  0.97469840  1
  Nb  Nb0  1  0.00011770  0.00015781  0.66665427  1
  Nb  Nb1  1  0.50436032  0.50424118  0.83188988  1
  Nb  Nb2  1  0.50524312  0.50647792  0.94253332  1
  Sn  Sn0  1  0.49228292  0.49093823  0.39164118  1
  Sn  Sn1  1  0.49408508  0.49472896  0.50188130  1
  Sn  Sn2  1  0.99680605  0.99635661  0.55670302  1
  Sn  Sn3  1  0.49910415  0.49897274  0.61150366  1
  Sn  Sn4  1  0.50146958  0.50194083  0.72167078  1
  Sn  Sn5  1  0.00218690  0.00293069  0.77689471  1
  O  O0  1  0.25082501  0.25326796  0.08155078  1
  O  O1  1  0.26984395  0.76118259  0.02343505  1
  O  O2  1  0.75912907  0.27096144  0.02346428  1
  O  O3  1  0.25194006  0.76061946  0.08170706  1
  O  O4  1  0.76185198  0.25319037  0.08154948  1
  O  O5  1  0.75843848  0.76117955  0.02345343  1
  O  O6  1  0.24851255  0.24711357  0.19463461  1
  O  O7  1  0.25670441  0.74808224  0.13822788  1
  O  O8  1  0.74938536  0.25394052  0.13855200  1
  O  O9  1  0.24767565  0.75439580  0.19446558  1
  O  O10  1  0.75271226  0.24700715  0.19464254  1
  O  O11  1  0.75084461  0.74802617  0.13824219  1
  O  O12  1  0.24051384  0.24286351  0.30728866  1
  O  O13  1  0.25135683  0.74697649  0.25067676  1
  O  O14  1  0.74631533  0.25183358  0.25063927  1
  O  O15  1  0.24251333  0.74642205  0.30760537  1
  O  O16  1  0.75093265  0.24304560  0.30726452  1
  O  O17  1  0.74580692  0.74716942  0.25065844  1
  O  O18  1  0.25140105  0.25182021  0.41811912  1
  O  O19  1  0.25578038  0.73167819  0.36462699  1
  O  O20  1  0.73256463  0.24816065  0.36519483  1
  O  O21  1  0.25174456  0.73226092  0.41828672  1
  O  O22  1  0.73410875  0.25178079  0.41811971  1
  O  O23  1  0.73100896  0.73158786  0.36462510  1
  O  O24  1  0.23700239  0.23704654  0.53237362  1
  O  O25  1  0.24267596  0.73080634  0.47738025  1
  O  O26  1  0.73048457  0.24238281  0.47741528  1
  O  O27  1  0.23709456  0.73407491  0.53241353  1
  O  O28  1  0.73438897  0.23730991  0.53233904  1
  O  O29  1  0.73028063  0.73088822  0.47737628  1
  O  O30  1  0.23661116  0.23630877  0.64180291  1
  O  O31  1  0.23087061  0.73950954  0.58773862  1
  O  O32  1  0.73895296  0.23118768  0.58785988  1
  O  O33  1  0.23681137  0.74972721  0.64181301  1
  O  O34  1  0.75002320  0.23669137  0.64177454  1
  O  O35  1  0.73969803  0.73941510  0.58774464  1
  O  O36  1  0.24492614  0.75618756  0.69358309  1
  O  O37  1  0.25649016  0.25653028  0.74786306  1
  O  O38  1  0.75714906  0.24378610  0.69352017  1
  O  O39  1  0.25641127  0.75644640  0.74785949  1
  O  O40  1  0.75632528  0.25647565  0.74786184  1
  O  O41  1  0.75655511  0.75633166  0.69356355  1
  O  O42  1  0.28033902  0.28070977  0.85428467  1
  O  O43  1  0.26538967  0.75834301  0.80201655  1
  O  O44  1  0.75830486  0.26553060  0.80199073  1
  O  O45  1  0.28056581  0.75074423  0.85424790  1
  O  O46  1  0.75046174  0.28073554  0.85428162  1
  O  O47  1  0.75826884  0.75845563  0.80200630  1
  O  O48  1  0.28490623  0.75038457  0.91278703  1
  O  O49  1  0.27925682  0.28081751  0.96471322  1
  O  O50  1  0.75003193  0.28506158  0.91276641  1
  O  O51  1  0.27939476  0.75886648  0.96470665  1
  O  O52  1  0.74985578  0.75065467  0.91275321  1
  O  O53  1  0.75760417  0.28057270  0.96475221  1
loop_
_geom_bond_atom_site_label_1
_geom_bond_atom_site_label_2
_geom_bond_distance
_geom_bond_site_symmetry_2
Ba0 O4 2.855062 1_455
Ba0 O0 2.857451 1_555
Ba0 O3 2.872340 1_545
Ba0 O1 3.059896 1_545
Ba0 O5 3.063451 1_545
Ba0 O2 3.064765 1_455
Ba0 O2 3.068802 1_555
Ba0 O5 3.069049 1_455
Ba0 O1 3.069439 1_555
Ba0 O53 3.425308 1_554
Ba0 O49 3.427058 1_554
Ba0 O51 3.428074 1_554
Ba1 O9 3.027154 1_545
Ba1 O10 3.037514 1_455
Ba1 O6 3.038463 1_555
Ba1 O7 3.039586 1_555
Ba1 O11 3.042758 1_455
Ba1 O8 3.046619 1_555
Ba1 O8 3.049810 1_455
Ba1 O7 3.052703 1_545
Ba1 O11 3.053018 1_545
Ba1 O3 3.160815 1_555
Ba1 O4 3.162546 1_555
Ba1 O0 3.165032 1_555
Ba2 O7 2.981562 1_555
Ba2 O11 2.982775 1_555
Ba2 O8 2.998771 1_555
Ba2 O4 3.038648 1_555
Ba2 O0 3.039453 1_655
Ba2 O3 3.049983 1_655
Ba2 O3 3.051048 1_555
Ba2 O4 3.058299 1_565
Ba2 O0 3.060971 1_565
Ba2 O5 3.279303 1_555
Ba2 O1 3.279697 1_655
Ba2 O2 3.288204 1_565
Ba3 O16 3.016562 1_455
Ba3 O12 3.018862 1_555
Ba3 O13 3.042049 1_545
Ba3 O15 3.042825 1_545
Ba3 O17 3.044168 1_545
Ba3 O14 3.048016 1_455
Ba3 O14 3.049862 1_555
Ba3 O13 3.051088 1_555
Ba3 O17 3.052454 1_455
Ba3 O10 3.148187 1_555
Ba3 O6 3.149570 1_555
Ba3 O9 3.161178 1_555
Ba4 O19 3.037165 1_545
Ba4 O23 3.038153 1_545
Ba4 O20 3.047971 1_555
Ba4 O20 3.050462 1_455
Ba4 O22 3.052191 1_455
Ba4 O18 3.053583 1_555
Ba4 O21 3.056467 1_545
Ba4 O19 3.056574 1_555
Ba4 O23 3.059174 1_455
Ba4 O15 3.098689 1_555
Ba4 O16 3.110122 1_555
Ba4 O12 3.112761 1_555
Ba5 O13 3.022007 1_555
Ba5 O17 3.023729 1_555
Ba5 O14 3.025817 1_555
Ba5 O10 3.038147 1_565
Ba5 O6 3.040356 1_565
Ba5 O9 3.048173 1_655
Ba5 O9 3.048957 1_555
Ba5 O10 3.054048 1_555
Ba5 O6 3.055320 1_655
Ba5 O8 3.131061 1_565
Ba5 O7 3.148629 1_655
Ba5 O11 3.150722 1_555
Ba6 O16 3.029654 1_555
Ba6 O12 3.030926 1_655
Ba6 O19 3.041850 1_555
Ba6 O23 3.042841 1_555
Ba6 O15 3.047244 1_655
Ba6 O15 3.049084 1_555
Ba6 O16 3.062465 1_565
Ba6 O12 3.064662 1_565
Ba6 O20 3.074219 1_555
Ba6 O13 3.142243 1_655
Ba6 O17 3.144199 1_555
Ba6 O14 3.157205 1_565
Ba7 O21 2.930303 1_555
Ba7 O22 2.942397 1_555
Ba7 O18 2.943443 1_555
Ba7 O25 3.054229 1_555
Ba7 O29 3.056136 1_455
Ba7 O26 3.059766 1_555
Ba7 O26 3.060241 1_455
Ba7 O25 3.061149 1_545
Ba7 O29 3.062654 1_545
Ba7 O28 3.262873 1_455
Ba7 O24 3.264345 1_555
Ba7 O27 3.273602 1_545
Ba8 O20 2.971745 1_565
Ba8 O19 3.011585 1_655
Ba8 O23 3.014534 1_555
Ba8 O22 3.044014 1_565
Ba8 O18 3.045953 1_565
Ba8 O22 3.048621 1_555
Ba8 O21 3.048809 1_655
Ba8 O21 3.049182 1_555
Ba8 O18 3.050148 1_655
Ba8 O25 3.197714 1_555
Ba8 O29 3.198731 1_555
Ba8 O26 3.205741 1_555
Ba9 O27 2.812982 1_555
Ba9 O28 2.813901 1_555
Ba9 O24 2.815523 1_555
Ba9 O31 3.056917 1_555
Ba9 O35 3.059293 1_455
Ba9 O32 3.061815 1_555
Ba9 O31 3.062284 1_545
Ba9 O32 3.063017 1_455
Ba9 O35 3.063376 1_545
Ba9 O30 3.218140 1_555
Ba9 O34 3.218295 1_455
Ba9 O33 3.224060 1_545
Ba10 O40 2.931950 1_455
Ba10 O37 2.933900 1_555
Ba10 O39 2.935305 1_545
Ba10 O34 3.028958 1_555
Ba10 O33 3.029113 1_555
Ba10 O30 3.032355 1_555
Ba10 O36 3.045311 1_555
Ba10 O41 3.047789 1_455
Ba10 O38 3.049245 1_555
Ba10 O36 3.049599 1_545
Ba10 O41 3.050635 1_545
Ba10 O38 3.050721 1_455
Ba11 O26 2.827350 1_565
Ba11 O25 2.829384 1_655
Ba11 O29 2.830377 1_555
Ba11 O28 3.056970 1_565
Ba11 O24 3.058738 1_565
Ba11 O27 3.062504 1_555
Ba11 O27 3.062539 1_655
Ba11 O28 3.062766 1_555
Ba11 O24 3.064744 1_655
Ba11 O31 3.314349 1_555
Ba11 O35 3.315164 1_555
Ba11 O32 3.322761 1_555
Ba12 O32 2.827085 1_565
Ba12 O31 2.827524 1_655
Ba12 O35 2.830226 1_555
Ba12 O34 3.048809 1_565
Ba12 O30 3.051901 1_565
Ba12 O33 3.053376 1_655
Ba12 O34 3.055650 1_555
Ba12 O33 3.055833 1_555
Ba12 O30 3.056350 1_655
Ba12 O36 3.103639 1_555
Ba12 O41 3.104008 1_555
Ba12 O38 3.109530 1_555
Ba13 O46 2.955163 1_455
Ba13 O45 2.955223 1_545
Ba13 O42 2.957782 1_555
Ba13 O43 3.043871 1_545
Ba13 O47 3.046365 1_545
Ba13 O44 3.047842 1_455
Ba13 O43 3.048741 1_555
Ba13 O44 3.049489 1_555
Ba13 O47 3.049700 1_455
Ba13 O40 3.056757 1_555
Ba13 O37 3.057257 1_555
Ba13 O39 3.061191 1_555
Ba14 O51 2.791004 1_545
Ba14 O53 2.793990 1_455
Ba14 O49 2.795827 1_555
Ba14 O48 3.053506 1_545
Ba14 O52 3.055724 1_545
Ba14 O50 3.058870 1_455
Ba14 O50 3.060225 1_555
Ba14 O48 3.060714 1_555
Ba14 O52 3.061963 1_455
Ba14 O46 3.312419 1_555
Ba14 O42 3.313052 1_555
Ba14 O45 3.317559 1_555
Ba15 O43 2.895293 1_555
Ba15 O44 2.896905 1_555
Ba15 O47 2.897288 1_555
Ba15 O40 3.047445 1_555
Ba15 O40 3.048475 1_565
Ba15 O37 3.049266 1_655
Ba15 O37 3.050117 1_565
Ba15 O39 3.050157 1_555
Ba15 O39 3.050402 1_655
Ba15 O36 3.087445 1_655
Ba15 O38 3.089060 1_565
Ba15 O41 3.089747 1_555
Ba16 O50 2.801913 1_555
Ba16 O48 2.801997 1_555
Ba16 O52 2.803913 1_555
Ba16 O46 3.064601 1_555
Ba16 O42 3.067157 1_655
Ba16 O45 3.070232 1_555
Ba16 O45 3.071915 1_655
Ba16 O46 3.072935 1_565
Ba16 O42 3.073864 1_565
Ba16 O43 3.248270 1_655
Ba16 O47 3.249036 1_555
Ba16 O44 3.254316 1_565
Ba17 O1 2.788024 1_556
Ba17 O5 2.792471 1_556
Ba17 O2 2.794355 1_556
Ba17 O53 3.078902 1_565
Ba17 O53 3.079720 1_555
Ba17 O49 3.080665 1_565
Ba17 O51 3.081560 1_555
Ba17 O49 3.081983 1_655
Ba17 O51 3.082407 1_655
Ba17 O50 3.364696 1_565
Ba17 O48 3.366186 1_655
Ba17 O52 3.367628 1_555
Nb0 O30 2.041736 1_555
Nb0 O33 2.046419 1_545
Nb0 O34 2.049955 1_455
Nb0 O38 2.094504 1_455
Nb0 O41 2.104368 1_445
Nb0 O36 2.105714 1_545
Nb1 O45 1.936018 1_555
Nb1 O42 1.936350 1_555
Nb1 O46 1.938798 1_555
Nb1 O44 2.193630 1_555
Nb1 O47 2.196382 1_555
Nb1 O43 2.197521 1_555
Nb2 O49 1.955680 1_555
Nb2 O51 1.955832 1_555
Nb2 O53 1.960743 1_555
Nb2 O48 2.115430 1_555
Nb2 O52 2.116288 1_555
Nb2 O50 2.116983 1_555
O0 Tb2 2.184943 1_545
O0 Tb1 2.185725 1_555
O1 Tb0 2.149120 1_564
O1 Tb1 2.202146 1_555
O2 Tb0 2.141617 1_654
O2 Tb1 2.198037 1_555
O3 Tb1 2.180438 1_555
O3 Tb2 2.181449 1_555
O4 Tb1 2.189290 1_555
O4 Tb2 2.189453 1_645
O5 Tb0 2.142036 1_664
O5 Tb1 2.202829 1_555
O6 Tb3 2.160923 1_555
O6 Tb4 2.167431 1_445
O7 Tb2 2.157166 1_555
O7 Tb3 2.176978 1_555
O8 Tb2 2.156952 1_645
O8 Tb3 2.172997 1_555
O9 Tb3 2.158595 1_555
O9 Tb4 2.164748 1_455
O10 Tb3 2.162981 1_555
O10 Tb4 2.167161 1_545
O11 Tb2 2.158192 1_655
O11 Tb3 2.172206 1_555
O12 Tb5 2.179191 1_555
O12 Tb6 2.192676 1_445
O13 Tb4 2.168638 1_455
O13 Tb5 2.181968 1_555
O14 Tb4 2.163923 1_545
O14 Tb5 2.173570 1_555
O15 Tb5 2.173925 1_555
O15 Tb6 2.188302 1_455
O16 Tb5 2.179858 1_555
O16 Tb6 2.200415 1_545
O17 Tb4 2.162296 1_555
O17 Tb5 2.181052 1_555
O18 Sn0 2.072470 1_555
O18 Tb7 2.224091 1_445
O19 Sn0 2.073396 1_555
O19 Tb6 2.216368 1_455
O20 Sn0 2.074530 1_555
O20 Tb6 2.215079 1_545
O21 Sn0 2.076001 1_555
O21 Tb7 2.223924 1_455
O22 Sn0 2.075304 1_555
O22 Tb7 2.225450 1_545
O23 Sn0 2.070054 1_555
O23 Tb6 2.218112 1_555
O24 Sn2 2.079678 1_445
O24 Sn1 2.225699 1_555
O25 Sn1 2.041441 1_555
O25 Tb7 2.280445 1_455
O26 Sn1 2.040737 1_555
O26 Tb7 2.275825 1_545
O27 Sn2 2.078473 1_455
O27 Sn1 2.221727 1_555
O28 Sn2 2.085450 1_545
O28 Sn1 2.226593 1_555
O29 Sn1 2.041147 1_555
O29 Tb7 2.277515 1_555
O30 Sn3 2.268703 1_555
O31 Sn3 2.089527 1_555
O31 Sn2 2.224226 1_455
O32 Sn3 2.079459 1_555
O32 Sn2 2.228411 1_545
O33 Sn3 2.260411 1_555
O34 Sn3 2.263534 1_555
O35 Sn3 2.082386 1_555
O35 Sn2 2.224570 1_555
O36 Sn4 2.201511 1_555
O37 Sn4 2.117799 1_555
O37 Sn5 2.193715 1_555
O38 Sn4 2.207060 1_555
O39 Sn4 2.115605 1_555
O39 Sn5 2.191837 1_565
O40 Sn4 2.120923 1_555
O40 Sn5 2.192946 1_655
O41 Sn4 2.199733 1_555
O42 Tb8 2.412612 1_555
O43 Sn5 2.117307 1_565
O44 Sn5 2.109987 1_655
O45 Tb8 2.413050 1_565
O46 Tb8 2.410533 1_655
O47 Sn5 2.110995 1_665
O48 Tb8 2.189629 1_565
O49 Tb0 2.356447 1_555
O50 Tb8 2.178586 1_655
O51 Tb0 2.355858 1_565
O52 Tb8 2.180113 1_665
O53 Tb0 2.354186 1_655
