# generated using pymatgen
data_FeHO2
_symmetry_space_group_name_H-M   'P 1'
_cell_length_a   10.65328612
_cell_length_b   6.14172972
_cell_length_c   10.62161608
_cell_angle_alpha   89.89321025
_cell_angle_beta   88.95411277
_cell_angle_gamma   89.98619500
_symmetry_Int_Tables_number   1
_chemical_formula_structural   FeHO2
_chemical_formula_sum   'Fe16 H16 O32'
_cell_volume   694.85112849
_cell_formula_units_Z   16
loop_
 _symmetry_equiv_pos_site_id
 _symmetry_equiv_pos_as_xyz
  1  'x, y, z'
loop_
 _atom_site_type_symbol
 _atom_site_label
 _atom_site_symmetry_multiplicity
 _atom_site_fract_x
 _atom_site_fract_y
 _atom_site_fract_z
 _atom_site_occupancy
  Fe  Fe0  1  0.33001100  0.98477300  0.12851500  1
  Fe  Fe1  1  0.14281500  0.99057000  0.63462400  1
  Fe  Fe2  1  0.84739500  0.24646800  0.62775000  1
  Fe  Fe3  1  0.67388700  0.24244100  0.11955300  1
  Fe  Fe4  1  0.66054000  0.00712000  0.82076100  1
  Fe  Fe5  1  0.86816700  0.99351600  0.32568100  1
  Fe  Fe6  1  0.14893000  0.24461300  0.34926600  1
  Fe  Fe7  1  0.35115400  0.24133900  0.82719900  1
  Fe  Fe8  1  0.32422600  0.50631900  0.12705600  1
  Fe  Fe9  1  0.14369700  0.49591800  0.63454500  1
  Fe  Fe10  1  0.84972600  0.74523200  0.61352700  1
  Fe  Fe11  1  0.68228000  0.74183500  0.11943200  1
  Fe  Fe12  1  0.65815400  0.48728100  0.81881700  1
  Fe  Fe13  1  0.86861700  0.49295100  0.32564300  1
  Fe  Fe14  1  0.16463200  0.74554600  0.33425700  1
  Fe  Fe15  1  0.35994800  0.74198100  0.82447000  1
  H  H0  1  0.33341800  0.98868300  0.41324700  1
  H  H1  1  0.41256100  0.97817800  0.62925400  1
  H  H2  1  0.91753500  0.24607200  0.10413600  1
  H  H3  1  0.64902500  0.02881100  0.55695400  1
  H  H4  1  0.60378300  0.97208100  0.31596600  1
  H  H5  1  0.13683400  0.22177800  0.09327700  1
  H  H6  1  0.47134500  0.25484000  0.03591100  1
  H  H7  1  0.09197800  0.24191800  0.84109300  1
  H  H8  1  0.33607400  0.50615100  0.40867800  1
  H  H9  1  0.41396500  0.46425700  0.63171000  1
  H  H10  1  0.85931600  0.73302900  0.86238500  1
  H  H11  1  0.94425300  0.74023200  0.12925200  1
  H  H12  1  0.66277200  0.51069100  0.54068400  1
  H  H13  1  0.59696100  0.48363500  0.30967400  1
  H  H14  1  0.48221500  0.74517000  0.03238000  1
  H  H15  1  0.11794900  0.74056200  0.85628500  1
  O  O0  1  0.29388400  0.99350100  0.33137600  1
  O  O1  1  0.04741100  0.98958100  0.32157000  1
  O  O2  1  0.34180100  0.99075600  0.68835700  1
  O  O3  1  0.33214500  0.99115600  0.94584600  1
  O  O4  1  0.78576800  0.25002100  0.80603400  1
  O  O5  1  0.53330800  0.24538400  0.81365800  1
  O  O6  1  0.85932500  0.24293600  0.17587100  1
  O  O7  1  0.83529000  0.24338200  0.43328800  1
  O  O8  1  0.70531300  0.99419100  0.62507700  1
  O  O9  1  0.96172700  0.99259200  0.63967000  1
  O  O10  1  0.67266400  0.98956500  0.25597900  1
  O  O11  1  0.67844700  0.99146400  0.00906200  1
  O  O12  1  0.20683200  0.24119900  0.14990000  1
  O  O13  1  0.46462700  0.24659200  0.12889900  1
  O  O14  1  0.15789200  0.24126100  0.77670800  1
  O  O15  1  0.17427100  0.24349400  0.52607300  1
  O  O16  1  0.29265400  0.49662600  0.32908200  1
  O  O17  1  0.04772100  0.50015400  0.32143000  1
  O  O18  1  0.34249300  0.48933900  0.68867700  1
  O  O19  1  0.33152700  0.49363500  0.94544500  1
  O  O20  1  0.79084600  0.74450000  0.80369500  1
  O  O21  1  0.54063700  0.74632700  0.81355100  1
  O  O22  1  0.86533500  0.74103800  0.17801200  1
  O  O23  1  0.82898400  0.74307900  0.43050100  1
  O  O24  1  0.70602500  0.50053300  0.62014600  1
  O  O25  1  0.96262200  0.49796500  0.63984900  1
  O  O26  1  0.67133700  0.49069400  0.25590100  1
  O  O27  1  0.67720900  0.49393100  0.00867800  1
  O  O28  1  0.20775900  0.74791000  0.15189900  1
  O  O29  1  0.46872600  0.74358100  0.12495900  1
  O  O30  1  0.16422000  0.74124300  0.77636000  1
  O  O31  1  0.17353400  0.74380700  0.51864500  1
loop_
_geom_bond_atom_site_label_1
_geom_bond_atom_site_label_2
_geom_bond_distance
_geom_bond_site_symmetry_2
Fe0 O3 1.940281 1_554
Fe0 O28 1.965184 1_555
Fe0 O12 2.059948 1_565
Fe0 O29 2.092058 1_555
Fe0 O13 2.154936 1_565
Fe0 O0 2.182642 1_555
Fe1 O9 1.928986 1_455
Fe1 O15 1.958104 1_565
Fe1 O31 1.978266 1_555
Fe1 O30 2.160341 1_555
Fe1 O14 2.166010 1_565
Fe1 O2 2.205378 1_555
Fe2 O25 1.979058 1_555
Fe2 O9 1.983629 1_545
Fe2 O4 1.993046 1_555
Fe2 O7 2.071993 1_555
Fe2 O8 2.166903 1_545
Fe2 O24 2.170808 1_555
Fe3 O11 1.939155 1_545
Fe3 O27 1.940522 1_555
Fe3 O6 2.074532 1_555
Fe3 O26 2.104666 1_555
Fe3 O10 2.122027 1_545
Fe3 O13 2.229847 1_555
Fe4 O5 1.996666 1_555
Fe4 O4 2.005567 1_555
Fe4 O11 2.014717 1_546
Fe4 O21 2.051350 1_545
Fe4 O8 2.125629 1_545
Fe4 O20 2.133618 1_545
Fe5 O1 1.909388 1_655
Fe5 O23 1.938188 1_555
Fe5 O7 1.943122 1_565
Fe5 O22 2.208254 1_555
Fe5 O6 2.209934 1_565
Fe5 O10 2.223270 1_555
Fe6 O15 1.902152 1_555
Fe6 O17 1.929316 1_555
Fe6 O1 1.929707 1_545
Fe6 O16 2.184931 1_555
Fe6 O0 2.188282 1_545
Fe6 O12 2.194902 1_555
Fe7 O5 1.943403 1_555
Fe7 O3 1.993437 1_545
Fe7 O19 2.004927 1_555
Fe7 O18 2.118923 1_555
Fe7 O14 2.137029 1_555
Fe7 O2 2.137102 1_545
Fe8 O19 1.930867 1_554
Fe8 O28 1.949192 1_555
Fe8 O12 2.064638 1_555
Fe8 O29 2.119761 1_555
Fe8 O16 2.166679 1_555
Fe8 O13 2.186773 1_555
Fe9 O25 1.928877 1_455
Fe9 O15 1.956973 1_555
Fe9 O31 1.978226 1_555
Fe9 O30 2.146533 1_555
Fe9 O14 2.179127 1_555
Fe9 O18 2.204939 1_555
Fe10 O9 1.955338 1_555
Fe10 O25 1.959793 1_555
Fe10 O23 1.960623 1_555
Fe10 O20 2.104081 1_555
Fe10 O24 2.145689 1_555
Fe10 O8 2.170849 1_555
Fe11 O27 1.927181 1_555
Fe11 O11 1.929132 1_555
Fe11 O22 2.057788 1_555
Fe11 O10 2.105153 1_555
Fe11 O26 2.116461 1_555
Fe11 O29 2.274761 1_555
Fe12 O5 1.995765 1_555
Fe12 O4 1.995780 1_555
Fe12 O21 2.025587 1_555
Fe12 O27 2.030993 1_556
Fe12 O20 2.124051 1_555
Fe12 O24 2.163279 1_555
Fe13 O17 1.908276 1_655
Fe13 O7 1.939504 1_555
Fe13 O23 1.941031 1_555
Fe13 O22 2.185126 1_555
Fe13 O6 2.216590 1_555
Fe13 O26 2.241179 1_555
Fe14 O1 1.956659 1_555
Fe14 O17 1.961914 1_555
Fe14 O31 1.962531 1_555
Fe14 O28 1.982532 1_555
Fe14 O16 2.048639 1_555
Fe14 O0 2.053142 1_555
Fe15 O21 1.926496 1_555
Fe15 O19 2.011951 1_555
Fe15 O3 2.021140 1_555
Fe15 O2 2.112788 1_555
Fe15 O18 2.130926 1_555
Fe15 O30 2.155898 1_555
H0 O0 0.973516 1_555
H1 O2 0.975291 1_555
H2 O6 0.973749 1_555
H3 O8 0.971370 1_545
H4 O10 0.968861 1_555
H5 O12 0.974016 1_555
H6 O13 0.990172 1_555
H7 O14 0.971217 1_555
H8 O16 0.972949 1_555
H9 O18 0.976255 1_555
H10 O20 0.970592 1_555
H11 O22 0.979390 1_555
H12 O24 0.970858 1_555
H13 O26 0.969185 1_555
H14 O29 0.991215 1_555
H15 O30 0.973860 1_555
