# generated using pymatgen
data_Na2Zn2Si2O7
_symmetry_space_group_name_H-M   'P 1'
_cell_length_a   5.35358266
_cell_length_b   5.35358266
_cell_length_c   13.82079300
_cell_angle_alpha   90.00000000
_cell_angle_beta   90.00000000
_cell_angle_gamma   122.25992156
_symmetry_Int_Tables_number   1
_chemical_formula_structural   Na2Zn2Si2O7
_chemical_formula_sum   'Na4 Zn4 Si4 O14'
_cell_volume   334.96940789
_cell_formula_units_Z   2
loop_
 _symmetry_equiv_pos_site_id
 _symmetry_equiv_pos_as_xyz
  1  'x, y, z'
loop_
 _atom_site_type_symbol
 _atom_site_label
 _atom_site_symmetry_multiplicity
 _atom_site_fract_x
 _atom_site_fract_y
 _atom_site_fract_z
 _atom_site_occupancy
  Na  Na0  1  0.94255800  0.01472100  0.25000000  1
  Na  Na1  1  0.01472100  0.94255800  0.75000000  1
  Na  Na2  1  0.99223200  0.99223200  0.50000000  1
  Na  Na3  1  0.99223200  0.99223200  0.00000000  1
  Zn  Zn0  1  0.22819700  0.65721100  0.42000600  1
  Zn  Zn1  1  0.65721100  0.22819700  0.57999400  1
  Zn  Zn2  1  0.22819700  0.65721100  0.07999400  1
  Zn  Zn3  1  0.65721100  0.22819700  0.92000600  1
  Si  Si0  1  0.57104000  0.33165000  0.35967500  1
  Si  Si1  1  0.33165000  0.57104000  0.64032500  1
  Si  Si2  1  0.57104000  0.33165000  0.14032500  1
  Si  Si3  1  0.33165000  0.57104000  0.85967500  1
  O  O0  1  0.27851400  0.35173800  0.37098700  1
  O  O1  1  0.35173800  0.27851400  0.62901300  1
  O  O2  1  0.27851400  0.35173800  0.12901300  1
  O  O3  1  0.35173800  0.27851400  0.87098700  1
  O  O4  1  0.54985700  0.08226100  0.43664200  1
  O  O5  1  0.08226100  0.54985700  0.56335800  1
  O  O6  1  0.54985700  0.08226100  0.06335800  1
  O  O7  1  0.08226100  0.54985700  0.93664200  1
  O  O8  1  0.87583300  0.65144300  0.37401500  1
  O  O9  1  0.65144300  0.87583300  0.62598500  1
  O  O10  1  0.87583300  0.65144300  0.12598500  1
  O  O11  1  0.65144300  0.87583300  0.87401500  1
  O  O12  1  0.19218000  0.56278900  0.75000000  1
  O  O13  1  0.56278900  0.19218000  0.25000000  1
loop_
_geom_bond_atom_site_label_1
_geom_bond_atom_site_label_2
_geom_bond_distance
_geom_bond_site_symmetry_2
Na0 O0 2.412887 1_655
Na0 O2 2.412887 1_655
Na0 O8 2.471054 1_545
Na0 O10 2.471054 1_545
Na0 O13 2.664235 1_555
Na1 O3 2.412887 1_565
Na1 O1 2.412887 1_565
Na1 O9 2.471054 1_455
Na1 O11 2.471054 1_455
Na1 O12 2.664235 1_555
Na2 O8 2.352670 1_555
Na2 O9 2.352670 1_555
Na2 O1 2.466492 1_665
Na2 O0 2.466492 1_665
Na2 O4 2.797574 1_565
Na2 O5 2.797574 1_655
Na2 O5 2.893967 1_665
Na2 O4 2.893967 1_665
Na3 O10 2.352670 1_555
Na3 O11 2.352670 1_554
Na3 O2 2.466492 1_665
Na3 O3 2.466492 1_664
Na3 O6 2.797574 1_565
Na3 O7 2.797574 1_654
Na3 O6 2.893967 1_665
Na3 O7 2.893967 1_664
O0 Si0 1.633508 1_555
O0 Zn0 1.917361 1_555
O1 Si1 1.633508 1_555
O1 Zn1 1.917361 1_555
O2 Si2 1.633508 1_555
O2 Zn2 1.917361 1_555
O3 Si3 1.633508 1_555
O3 Zn3 1.917361 1_555
O4 Si0 1.662931 1_555
O4 Zn0 2.003298 1_545
O4 Zn1 2.094439 1_555
O5 Si1 1.662931 1_555
O5 Zn1 2.003298 1_455
O5 Zn0 2.094439 1_555
O6 Si2 1.662931 1_555
O6 Zn2 2.003298 1_545
O6 Zn3 2.094439 1_554
O7 Si3 1.662931 1_555
O7 Zn3 2.003298 1_455
O7 Zn2 2.094439 1_556
O8 Si0 1.628094 1_555
O8 Zn0 1.975181 1_655
O9 Si1 1.628094 1_555
O9 Zn1 1.975181 1_565
O10 Si2 1.628094 1_555
O10 Zn2 1.975181 1_655
O11 Si3 1.628094 1_555
O11 Zn3 1.975181 1_565
O12 Si3 1.679847 1_555
O12 Si1 1.679847 1_555
O13 Si0 1.679847 1_555
O13 Si2 1.679847 1_555
