# generated using pymatgen
data_VH6(OF)3
_symmetry_space_group_name_H-M   'P 1'
_cell_length_a   5.77876700
_cell_length_b   6.10623925
_cell_length_c   6.57371592
_cell_angle_alpha   111.02450742
_cell_angle_beta   108.12082008
_cell_angle_gamma   102.43637294
_symmetry_Int_Tables_number   1
_chemical_formula_structural   VH6(OF)3
_chemical_formula_sum   'V1 H6 O3 F3'
_cell_volume   191.29801775
_cell_formula_units_Z   1
loop_
 _symmetry_equiv_pos_site_id
 _symmetry_equiv_pos_as_xyz
  1  'x, y, z'
loop_
 _atom_site_type_symbol
 _atom_site_label
 _atom_site_symmetry_multiplicity
 _atom_site_fract_x
 _atom_site_fract_y
 _atom_site_fract_z
 _atom_site_occupancy
  V  V0  1  0.78527500  0.74082500  0.91487800  1
  H  H0  1  0.86514700  0.36252500  0.82463100  1
  H  H1  1  0.27719500  0.91289700  0.77144300  1
  H  H2  1  0.82896500  0.82287700  0.31805100  1
  H  H3  1  0.88381700  0.71972900  0.30548200  1
  H  H4  1  0.84796700  0.35990600  0.93365800  1
  H  H5  1  0.25161400  0.88451500  0.64454700  1
  O  O0  1  0.69871100  0.79001300  0.65190900  1
  O  O1  1  0.74632500  0.56193800  0.60198600  1
  O  O2  1  0.46179200  0.57373800  0.89209000  1
  F  F0  1  0.46091300  0.39900600  0.99075400  1
  F  F1  1  0.12586800  0.83502100  0.08689600  1
  F  F2  1  0.78061100  0.05120900  0.07787400  1
loop_
_geom_bond_atom_site_label_1
_geom_bond_atom_site_label_2
_geom_bond_distance
_geom_bond_site_symmetry_2
H0 H4 0.758677 1_555
H1 H5 0.745833 1_555
H2 H3 0.754286 1_555
O0 O1 1.419942 1_555
O0 V0 1.796706 1_555
O1 V0 1.862394 1_555
O2 V0 1.858085 1_555
F0 O2 1.433648 1_555
F1 V0 1.773313 1_454
F2 V0 1.823106 1_544
