# generated using pymatgen
data_Cu4H3C2N5
_symmetry_space_group_name_H-M   'P 1'
_cell_length_a   5.78607171
_cell_length_b   5.78607171
_cell_length_c   10.86263600
_cell_angle_alpha   90.00000000
_cell_angle_beta   90.00000000
_cell_angle_gamma   119.99999663
_symmetry_Int_Tables_number   1
_chemical_formula_structural   Cu4H3C2N5
_chemical_formula_sum   'Cu8 H6 C4 N10'
_cell_volume   314.94411398
_cell_formula_units_Z   2
loop_
 _symmetry_equiv_pos_site_id
 _symmetry_equiv_pos_as_xyz
  1  'x, y, z'
loop_
 _atom_site_type_symbol
 _atom_site_label
 _atom_site_symmetry_multiplicity
 _atom_site_fract_x
 _atom_site_fract_y
 _atom_site_fract_z
 _atom_site_occupancy
  Cu  Cu0  1  0.83509500  0.67019000  0.23229900  1
  Cu  Cu1  1  0.32981000  0.16490500  0.23229900  1
  Cu  Cu2  1  0.83509500  0.16490500  0.23229900  1
  Cu  Cu3  1  0.66666700  0.33333300  0.75125100  1
  Cu  Cu4  1  0.67019000  0.83509500  0.73229900  1
  Cu  Cu5  1  0.16490500  0.32981000  0.73229900  1
  Cu  Cu6  1  0.33333300  0.66666700  0.25125100  1
  Cu  Cu7  1  0.16490500  0.83509500  0.73229900  1
  H  H0  1  0.76287600  0.23712400  0.53889300  1
  H  H1  1  0.47424900  0.23712400  0.53889300  1
  H  H2  1  0.76287600  0.52575100  0.53889300  1
  H  H3  1  0.52575100  0.76287600  0.03889300  1
  H  H4  1  0.23712400  0.47424900  0.03889300  1
  H  H5  1  0.23712400  0.76287600  0.03889300  1
  C  C0  1  0.66666700  0.33333300  0.03131800  1
  C  C1  1  0.00000000  0.00000000  0.93909500  1
  C  C2  1  0.33333300  0.66666700  0.53131800  1
  C  C3  1  0.00000000  0.00000000  0.43909500  1
  N  N0  1  0.66666700  0.33333300  0.57190900  1
  N  N1  1  0.00000000  0.00000000  0.82036200  1
  N  N2  1  0.00000000  0.00000000  0.54933900  1
  N  N3  1  0.00000000  0.00000000  0.04933900  1
  N  N4  1  0.66666700  0.33333300  0.92182900  1
  N  N5  1  0.00000000  0.00000000  0.32036200  1
  N  N6  1  0.66666700  0.33333300  0.15052400  1
  N  N7  1  0.33333300  0.66666700  0.42182900  1
  N  N8  1  0.33333300  0.66666700  0.07190900  1
  N  N9  1  0.33333300  0.66666700  0.65052400  1
loop_
_geom_bond_atom_site_label_1
_geom_bond_atom_site_label_2
_geom_bond_distance
_geom_bond_site_symmetry_2
Cu0 N6 1.907418 1_555
Cu0 N5 1.909528 1_665
Cu1 N6 1.907418 1_555
Cu1 N5 1.909528 1_555
Cu2 N6 1.907414 1_555
Cu2 N5 1.909528 1_655
Cu3 N4 1.852927 1_555
Cu3 N0 1.948127 1_555
Cu4 N9 1.907418 1_555
Cu4 N1 1.909528 1_665
Cu5 N9 1.907418 1_555
Cu5 N1 1.909528 1_555
Cu6 N7 1.852927 1_555
Cu6 N8 1.948127 1_555
Cu7 N9 1.907414 1_555
Cu7 N1 1.909528 1_565
H0 N0 1.028725 1_555
H1 N0 1.028725 1_555
H2 N0 1.028725 1_555
H3 N8 1.028725 1_555
H4 N8 1.028725 1_555
H5 N8 1.028725 1_555
C0 N4 1.189339 1_554
C0 N6 1.294891 1_555
C1 N3 1.197540 1_556
C1 N1 1.289753 1_555
C2 N7 1.189339 1_555
C2 N9 1.294891 1_555
C3 N2 1.197540 1_555
C3 N5 1.289753 1_555
