# generated using pymatgen
data_Na2Zn(SiO3)2
_symmetry_space_group_name_H-M   'P 1'
_cell_length_a   11.46795887
_cell_length_b   11.41403756
_cell_length_c   5.22044967
_cell_angle_alpha   77.38890395
_cell_angle_beta   76.23649624
_cell_angle_gamma   26.37459981
_symmetry_Int_Tables_number   1
_chemical_formula_structural   Na2Zn(SiO3)2
_chemical_formula_sum   'Na4 Zn2 Si4 O12'
_cell_volume   294.82540707
_cell_formula_units_Z   2
loop_
 _symmetry_equiv_pos_site_id
 _symmetry_equiv_pos_as_xyz
  1  'x, y, z'
loop_
 _atom_site_type_symbol
 _atom_site_label
 _atom_site_symmetry_multiplicity
 _atom_site_fract_x
 _atom_site_fract_y
 _atom_site_fract_z
 _atom_site_occupancy
  Na  Na0  1  0.29782700  0.85884000  0.66419500  1
  Na  Na1  1  0.65698300  0.18471200  0.28942600  1
  Na  Na2  1  0.07087100  0.58044400  0.38933600  1
  Na  Na3  1  0.39248700  0.95257900  0.07012500  1
  Zn  Zn0  1  0.24662000  0.75346500  0.25798400  1
  Zn  Zn1  1  0.50021200  0.99607500  0.49577300  1
  Si  Si0  1  0.82932700  0.33838000  0.22878900  1
  Si  Si1  1  0.22176800  0.60728000  0.82302500  1
  Si  Si2  1  0.63980000  0.02908500  0.90956400  1
  Si  Si3  1  0.89939500  0.43120900  0.63758700  1
  O  O0  1  0.90104200  0.13226700  0.31336500  1
  O  O1  1  0.29794000  0.66357400  0.89764200  1
  O  O2  1  0.59941300  0.93702100  0.11305800  1
  O  O3  1  0.10871900  0.35181100  0.59314700  1
  O  O4  1  0.96074300  0.28454400  0.91848600  1
  O  O5  1  0.91242300  0.84397000  0.96308200  1
  O  O6  1  0.42048000  0.31871300  0.97055300  1
  O  O7  1  0.97064800  0.28770900  0.42218100  1
  O  O8  1  0.50162200  0.65673800  0.26002900  1
  O  O9  1  0.24801000  0.59143900  0.50885300  1
  O  O10  1  0.60683500  0.73691100  0.65490600  1
  O  O11  1  0.66124100  0.99099000  0.60266300  1
loop_
_geom_bond_atom_site_label_1
_geom_bond_atom_site_label_2
_geom_bond_distance
_geom_bond_site_symmetry_2
Na0 O1 2.293941 1_555
Na0 O8 2.313876 1_555
Na0 O10 2.368083 1_555
Na0 O7 2.506295 1_465
Na0 O4 2.652204 1_465
Na1 O0 2.310688 1_555
Na1 O9 2.369177 1_555
Na1 O11 2.414794 1_545
Na1 O6 2.463747 1_554
Na1 O5 2.591188 1_544
Na2 O3 2.260165 1_555
Na2 O11 2.369081 1_455
Na2 O9 2.371880 1_555
Na2 O5 2.551242 1_454
Na2 O6 2.645474 1_554
Na3 O2 2.278950 1_555
Na3 O8 2.346842 1_555
Na3 O10 2.398539 1_554
Na3 O4 2.537347 1_464
Na3 O7 2.663555 1_465
O0 Si0 1.630439 1_555
O0 Zn0 1.944598 1_645
O1 Si1 1.613874 1_555
O1 Zn0 2.042503 1_556
O2 Si2 1.611762 1_564
O2 Zn1 1.967960 1_555
O3 Si3 1.601988 1_455
O3 Zn1 2.013225 1_545
O4 Si3 1.660244 1_555
O4 Si0 1.699015 1_556
O5 Si2 1.624304 1_565
O5 Si1 1.695229 1_655
O6 Si2 1.592502 1_555
O6 Si1 1.706798 1_555
O7 Si3 1.607453 1_555
O7 Si0 1.680593 1_555
O8 Si0 1.688830 1_555
O8 Zn0 1.998870 1_555
O9 Si1 1.615668 1_555
O9 Zn0 2.008757 1_555
O10 Si3 1.567407 1_555
O10 Zn1 1.965930 1_555
O11 Si2 1.655785 1_565
O11 Zn1 2.002271 1_555
