# generated using pymatgen
data_Mo(PO3)4
_symmetry_space_group_name_H-M   'P 1'
_cell_length_a   7.30923601
_cell_length_b   7.30923601
_cell_length_c   10.37702339
_cell_angle_alpha   65.68211746
_cell_angle_beta   65.68211746
_cell_angle_gamma   69.80500409
_symmetry_Int_Tables_number   1
_chemical_formula_structural   Mo(PO3)4
_chemical_formula_sum   'Mo2 P8 O24'
_cell_volume   449.96382790
_cell_formula_units_Z   2
loop_
 _symmetry_equiv_pos_site_id
 _symmetry_equiv_pos_as_xyz
  1  'x, y, z'
loop_
 _atom_site_type_symbol
 _atom_site_label
 _atom_site_symmetry_multiplicity
 _atom_site_fract_x
 _atom_site_fract_y
 _atom_site_fract_z
 _atom_site_occupancy
  Mo  Mo0  1  0.94473800  0.05526200  0.25000000  1
  Mo  Mo1  1  0.05526200  0.94473800  0.75000000  1
  P  P0  1  0.74747800  0.27200000  0.51989400  1
  P  P1  1  0.68772000  0.71392600  0.80212500  1
  P  P2  1  0.31228000  0.28607400  0.19787500  1
  P  P3  1  0.25252200  0.72800000  0.48010600  1
  P  P4  1  0.72800000  0.25252200  0.98010600  1
  P  P5  1  0.71392600  0.68772000  0.30212500  1
  P  P6  1  0.28607400  0.31228000  0.69787500  1
  P  P7  1  0.27200000  0.74747800  0.01989400  1
  O  O0  1  0.80208500  0.26172300  0.09276600  1
  O  O1  1  0.71173700  0.46723800  0.85333600  1
  O  O2  1  0.28826300  0.53276200  0.14666400  1
  O  O3  1  0.25264200  0.12367400  0.68733800  1
  O  O4  1  0.77797800  0.50387400  0.44239900  1
  O  O5  1  0.35371600  0.19154500  0.34022800  1
  O  O6  1  0.50387400  0.77797800  0.94239900  1
  O  O7  1  0.19154500  0.35371600  0.84022800  1
  O  O8  1  0.84511400  0.08883500  0.90585700  1
  O  O9  1  0.49612600  0.22202200  0.05760100  1
  O  O10  1  0.91116500  0.15488600  0.59414300  1
  O  O11  1  0.19791500  0.73827700  0.90723400  1
  O  O12  1  0.74735800  0.87632600  0.31266200  1
  O  O13  1  0.53276200  0.28826300  0.64666400  1
  O  O14  1  0.87632600  0.74735800  0.81266200  1
  O  O15  1  0.12367400  0.25264200  0.18733800  1
  O  O16  1  0.80845500  0.64628400  0.15977200  1
  O  O17  1  0.64628400  0.80845500  0.65977200  1
  O  O18  1  0.26172300  0.80208500  0.59276600  1
  O  O19  1  0.46723800  0.71173700  0.35333600  1
  O  O20  1  0.08883500  0.84511400  0.40585700  1
  O  O21  1  0.22202200  0.49612600  0.55760100  1
  O  O22  1  0.73827700  0.19791500  0.40723400  1
  O  O23  1  0.15488600  0.91116500  0.09414300  1
loop_
_geom_bond_atom_site_label_1
_geom_bond_atom_site_label_2
_geom_bond_distance
_geom_bond_site_symmetry_2
Mo0 O15 2.011088 1_655
Mo0 O12 2.011088 1_545
Mo0 O22 2.076911 1_555
Mo0 O0 2.076911 1_555
Mo0 O20 2.079513 1_645
Mo0 O23 2.079513 1_645
Mo1 O3 2.011088 1_565
Mo1 O14 2.011088 1_455
Mo1 O11 2.076911 1_555
Mo1 O18 2.076911 1_555
Mo1 O8 2.079513 1_465
Mo1 O10 2.079513 1_465
O0 P4 1.508566 1_554
O1 P4 1.583455 1_555
O1 P1 1.622811 1_555
O2 P7 1.583455 1_555
O2 P2 1.622811 1_555
O3 P6 1.533248 1_555
O4 P0 1.599851 1_555
O4 P5 1.630853 1_555
O5 P2 1.461036 1_555
O6 P7 1.599851 1_556
O6 P1 1.630853 1_555
O7 P6 1.461036 1_555
O8 P4 1.505571 1_555
O9 P4 1.599851 1_554
O9 P2 1.630853 1_555
O10 P0 1.505571 1_555
O11 P7 1.508566 1_556
O12 P5 1.533248 1_555
O13 P0 1.583455 1_555
O13 P6 1.622811 1_555
O14 P1 1.533248 1_555
O15 P2 1.533248 1_555
O16 P5 1.461036 1_555
O17 P1 1.461036 1_555
O18 P3 1.508566 1_555
O19 P3 1.583455 1_555
O19 P5 1.622811 1_555
O20 P3 1.505571 1_555
O21 P3 1.599851 1_555
O21 P6 1.630853 1_555
O22 P0 1.508566 1_555
O23 P7 1.505571 1_555
