# generated using pymatgen
data_LiMnPO4
_symmetry_space_group_name_H-M   'P 1'
_cell_length_a   7.57982000
_cell_length_b   8.52424300
_cell_length_c   17.09840043
_cell_angle_alpha   60.77507495
_cell_angle_beta   90.00000000
_cell_angle_gamma   90.00000000
_symmetry_Int_Tables_number   1
_chemical_formula_structural   LiMnPO4
_chemical_formula_sum   'Li12 Mn12 P12 O48'
_cell_volume   964.13984777
_cell_formula_units_Z   12
loop_
 _symmetry_equiv_pos_site_id
 _symmetry_equiv_pos_as_xyz
  1  'x, y, z'
loop_
 _atom_site_type_symbol
 _atom_site_label
 _atom_site_symmetry_multiplicity
 _atom_site_fract_x
 _atom_site_fract_y
 _atom_site_fract_z
 _atom_site_occupancy
  Li  Li0  1  0.33113800  0.34327900  0.59251400  1
  Li  Li1  1  0.81861400  0.32055600  0.75899400  1
  Li  Li2  1  0.17291000  0.98488100  0.42006000  1
  Li  Li3  1  0.82709000  0.01511900  0.57994000  1
  Li  Li4  1  0.67291000  0.01511900  0.07994000  1
  Li  Li5  1  0.18138600  0.67944400  0.24100600  1
  Li  Li6  1  0.66886200  0.65672100  0.40748600  1
  Li  Li7  1  0.16886200  0.34327900  0.09251400  1
  Li  Li8  1  0.83113800  0.65672100  0.90748600  1
  Li  Li9  1  0.32709000  0.98488100  0.92006000  1
  Li  Li10  1  0.68138600  0.32055600  0.25899400  1
  Li  Li11  1  0.31861400  0.67944400  0.74100600  1
  Mn  Mn0  1  0.45700600  0.00057400  0.25595000  1
  Mn  Mn1  1  0.95700600  0.99942600  0.24405000  1
  Mn  Mn2  1  0.96819500  0.30573200  0.92686300  1
  Mn  Mn3  1  0.46819500  0.69426800  0.57313700  1
  Mn  Mn4  1  0.04299400  0.00057400  0.75595000  1
  Mn  Mn5  1  0.53180500  0.30573200  0.42686300  1
  Mn  Mn6  1  0.03180500  0.69426800  0.07313700  1
  Mn  Mn7  1  0.46461200  0.65077400  0.08733900  1
  Mn  Mn8  1  0.96461200  0.34922600  0.41266100  1
  Mn  Mn9  1  0.03538800  0.65077400  0.58733900  1
  Mn  Mn10  1  0.54299400  0.99942600  0.74405000  1
  Mn  Mn11  1  0.53538800  0.34922600  0.91266100  1
  P  P0  1  0.27045300  0.03182800  0.07726100  1
  P  P1  1  0.76409500  0.35383000  0.08926600  1
  P  P2  1  0.23077500  0.31231400  0.76917900  1
  P  P3  1  0.72954700  0.96817200  0.92273900  1
  P  P4  1  0.76922500  0.68768600  0.23082100  1
  P  P5  1  0.77045300  0.96817200  0.42273900  1
  P  P6  1  0.73590500  0.35383000  0.58926600  1
  P  P7  1  0.23590500  0.64617000  0.91073400  1
  P  P8  1  0.26922500  0.31231400  0.26917900  1
  P  P9  1  0.73077500  0.68768600  0.73082100  1
  P  P10  1  0.22954700  0.03182800  0.57726100  1
  P  P11  1  0.26409500  0.64617000  0.41073400  1
  O  O0  1  0.77753200  0.14482400  0.13912600  1
  O  O1  1  0.23557500  0.51668700  0.69937700  1
  O  O2  1  0.89014500  0.40777600  0.63056900  1
  O  O3  1  0.11865700  0.17114300  0.04741900  1
  O  O4  1  0.73557500  0.48331300  0.80062300  1
  O  O5  1  0.26387200  0.58277400  0.01256100  1
  O  O6  1  0.75178000  0.79753200  0.78191800  1
  O  O7  1  0.10985500  0.59222400  0.36943100  1
  O  O8  1  0.76442500  0.48331300  0.30062300  1
  O  O9  1  0.25178000  0.20246800  0.71808200  1
  O  O10  1  0.71940000  0.07453100  0.81820200  1
  O  O11  1  0.06288700  0.56582000  0.89686800  1
  O  O12  1  0.23769100  0.89355700  0.04340800  1
  O  O13  1  0.24822000  0.20246800  0.21808200  1
  O  O14  1  0.44597700  0.13284000  0.04015100  1
  O  O15  1  0.12366300  0.25382100  0.34096800  1
  O  O16  1  0.76230900  0.10644300  0.95659200  1
  O  O17  1  0.60985500  0.40777600  0.13056900  1
  O  O18  1  0.87633700  0.74617900  0.65903200  1
  O  O19  1  0.39014500  0.59222400  0.86943100  1
  O  O20  1  0.88134300  0.82885700  0.95258100  1
  O  O21  1  0.28060000  0.92546900  0.18179800  1
  O  O22  1  0.43711300  0.56582000  0.39686800  1
  O  O23  1  0.73769100  0.10644300  0.45659200  1
  O  O24  1  0.62366300  0.74617900  0.15903200  1
  O  O25  1  0.94597700  0.86716000  0.45984900  1
  O  O26  1  0.56288700  0.43418000  0.60313200  1
  O  O27  1  0.22246800  0.85517600  0.86087400  1
  O  O28  1  0.72246800  0.14482400  0.63912600  1
  O  O29  1  0.26442500  0.51668700  0.19937700  1
  O  O30  1  0.61865700  0.82885700  0.45258100  1
  O  O31  1  0.26230900  0.89355700  0.54340800  1
  O  O32  1  0.27753200  0.85517600  0.36087400  1
  O  O33  1  0.54985700  0.74104400  0.68118700  1
  O  O34  1  0.95014300  0.74104400  0.18118700  1
  O  O35  1  0.23612800  0.58277400  0.51256100  1
  O  O36  1  0.55402300  0.86716000  0.95984900  1
  O  O37  1  0.93711300  0.43418000  0.10313200  1
  O  O38  1  0.78060000  0.07453100  0.31820200  1
  O  O39  1  0.04985700  0.25895600  0.81881300  1
  O  O40  1  0.38134300  0.17114300  0.54741900  1
  O  O41  1  0.21940000  0.92546900  0.68179800  1
  O  O42  1  0.45014300  0.25895600  0.31881300  1
  O  O43  1  0.73612800  0.41722600  0.98743900  1
  O  O44  1  0.74822000  0.79753200  0.28191800  1
  O  O45  1  0.37633700  0.25382100  0.84096800  1
  O  O46  1  0.05402300  0.13284000  0.54015100  1
  O  O47  1  0.76387200  0.41722600  0.48743900  1
loop_
_geom_bond_atom_site_label_1
_geom_bond_atom_site_label_2
_geom_bond_distance
_geom_bond_site_symmetry_2
Li0 O35 1.957049 1_555
Li0 O26 1.963782 1_555
Li0 O9 1.973769 1_555
Li0 O40 1.999292 1_555
Li1 O4 1.947289 1_555
Li1 O39 1.967146 1_655
Li1 O10 1.978738 1_555
Li1 O2 2.018505 1_555
Li2 O25 1.939579 1_455
Li2 O31 1.977394 1_555
Li2 O32 1.991982 1_555
Li2 O15 2.048521 1_565
Li3 O46 1.939579 1_655
Li3 O23 1.977394 1_555
Li3 O28 1.991982 1_555
Li3 O18 2.048521 1_545
Li4 O14 1.939579 1_555
Li4 O16 1.977394 1_554
Li4 O0 1.991982 1_555
Li4 O24 2.048521 1_545
Li5 O29 1.947289 1_555
Li5 O34 1.967146 1_455
Li5 O21 1.978738 1_555
Li5 O7 2.018505 1_555
Li6 O47 1.957049 1_555
Li6 O22 1.963782 1_555
Li6 O44 1.973769 1_555
Li6 O30 1.999292 1_555
Li7 O5 1.957049 1_555
Li7 O37 1.963782 1_455
Li7 O13 1.973769 1_555
Li7 O3 1.999292 1_555
Li8 O43 1.957049 1_555
Li8 O11 1.963782 1_655
Li8 O6 1.973769 1_555
Li8 O20 1.999292 1_555
Li9 O36 1.939579 1_555
Li9 O12 1.977394 1_556
Li9 O27 1.991982 1_555
Li9 O45 2.048521 1_565
Li10 O8 1.947289 1_555
Li10 O42 1.967146 1_555
Li10 O38 1.978738 1_555
Li10 O17 2.018505 1_555
Li11 O1 1.947289 1_555
Li11 O33 1.967146 1_555
Li11 O41 1.978738 1_555
Li11 O19 2.018505 1_555
Mn0 O32 2.105726 1_545
Mn0 O21 2.144276 1_545
Mn0 O13 2.190307 1_555
Mn0 O44 2.704575 1_545
Mn1 O0 2.105726 1_565
Mn1 O38 2.144276 1_565
Mn1 O44 2.190307 1_555
Mn1 O13 2.704575 1_665
Mn2 O3 2.134636 1_656
Mn2 O11 2.140844 1_655
Mn2 O39 2.162091 1_655
Mn2 O16 2.176341 1_555
Mn2 O43 2.455901 1_555
Mn2 O4 2.620863 1_555
Mn3 O30 2.134636 1_555
Mn3 O26 2.140844 1_555
Mn3 O33 2.162091 1_555
Mn3 O31 2.176341 1_555
Mn3 O35 2.455901 1_555
Mn3 O1 2.620863 1_555
Mn4 O27 2.105726 1_545
Mn4 O41 2.144276 1_545
Mn4 O9 2.190307 1_555
Mn4 O6 2.704575 1_445
Mn5 O40 2.134636 1_555
Mn5 O22 2.140844 1_555
Mn5 O42 2.162091 1_555
Mn5 O23 2.176341 1_555
Mn5 O47 2.455901 1_555
Mn5 O8 2.620863 1_555
Mn6 O20 2.134636 1_454
Mn6 O37 2.140844 1_455
Mn6 O34 2.162091 1_455
Mn6 O12 2.176341 1_555
Mn6 O5 2.455901 1_555
Mn6 O29 2.620863 1_555
Mn7 O17 2.133986 1_555
Mn7 O24 2.142649 1_555
Mn7 O36 2.164989 1_554
Mn7 O5 2.238225 1_555
Mn7 O29 2.267284 1_555
Mn7 O12 2.507534 1_555
Mn8 O7 2.133986 1_655
Mn8 O15 2.142649 1_655
Mn8 O46 2.164989 1_655
Mn8 O47 2.238225 1_555
Mn8 O8 2.267284 1_555
Mn8 O23 2.507534 1_555
Mn9 O2 2.133986 1_455
Mn9 O18 2.142649 1_455
Mn9 O25 2.164989 1_455
Mn9 O35 2.238225 1_555
Mn9 O1 2.267284 1_555
Mn9 O31 2.507534 1_555
Mn10 O28 2.105726 1_565
Mn10 O10 2.144276 1_565
Mn10 O6 2.190307 1_555
Mn10 O9 2.704575 1_565
Mn11 O19 2.133986 1_555
Mn11 O45 2.142649 1_555
Mn11 O14 2.164989 1_556
Mn11 O43 2.238225 1_555
Mn11 O4 2.267284 1_555
Mn11 O16 2.507534 1_555
O0 P1 1.558264 1_555
O1 P2 1.558989 1_555
O2 P6 1.547300 1_555
O3 P0 1.550095 1_555
O4 P9 1.558989 1_555
O5 P7 1.565112 1_554
O6 P9 1.569792 1_555
O7 P11 1.547300 1_555
O8 P4 1.558989 1_555
O9 P2 1.569792 1_555
O10 P3 1.562159 1_545
O11 P7 1.550414 1_555
O12 P0 1.565931 1_565
O13 P8 1.569792 1_555
O14 P0 1.542917 1_555
O15 P8 1.541110 1_555
O16 P3 1.565931 1_545
O17 P1 1.547300 1_555
O18 P9 1.541110 1_555
O19 P7 1.547300 1_555
O20 P3 1.550095 1_555
O21 P0 1.562159 1_565
O22 P11 1.550414 1_555
O23 P5 1.565931 1_545
O24 P4 1.541110 1_555
O25 P5 1.542917 1_555
O26 P6 1.550414 1_555
O27 P7 1.558264 1_555
O28 P6 1.558264 1_555
O29 P8 1.558989 1_555
O30 P5 1.550095 1_555
O31 P10 1.565931 1_565
O32 P11 1.558264 1_555
O33 P9 1.559075 1_555
O34 P4 1.559075 1_555
O35 P11 1.565112 1_555
O36 P3 1.542917 1_555
O37 P1 1.550414 1_555
O38 P5 1.562159 1_545
O39 P2 1.559075 1_555
O40 P10 1.550095 1_555
O41 P10 1.562159 1_565
O42 P8 1.559075 1_555
O43 P1 1.565112 1_556
O44 P4 1.569792 1_555
O45 P2 1.541110 1_555
O46 P10 1.542917 1_555
O47 P6 1.565112 1_555
