# generated using pymatgen
data_CeRu2
_symmetry_space_group_name_H-M   'P 1'
_cell_length_a   5.32358607
_cell_length_b   5.32358777
_cell_length_c   5.32358236
_cell_angle_alpha   60.00003725
_cell_angle_beta   60.00003414
_cell_angle_gamma   60.00008295
_symmetry_Int_Tables_number   1
_chemical_formula_structural   CeRu2
_chemical_formula_sum   'Ce2 Ru4'
_cell_volume   106.68372818
_cell_formula_units_Z   2
loop_
 _symmetry_equiv_pos_site_id
 _symmetry_equiv_pos_as_xyz
  1  'x, y, z'
loop_
 _atom_site_type_symbol
 _atom_site_label
 _atom_site_symmetry_multiplicity
 _atom_site_fract_x
 _atom_site_fract_y
 _atom_site_fract_z
 _atom_site_occupancy
  Ce  Ce0  1  0.12500100  0.12500100  0.12499900  1
  Ce  Ce1  1  0.87499900  0.87499900  0.87500100  1
  Ru  Ru0  1  0.50000000  -0.00000000  0.50000000  1
  Ru  Ru1  1  -0.00000000  0.50000000  0.50000000  1
  Ru  Ru2  1  0.50000000  0.50000000  0.50000000  1
  Ru  Ru3  1  0.50000000  0.50000000  0.00000000  1
loop_
_geom_bond_atom_site_label_1
_geom_bond_atom_site_label_2
_geom_bond_distance
_geom_bond_site_symmetry_2
Ce0 Ru3 3.121222 1_555
Ce0 Ru2 3.121222 1_554
Ce0 Ru0 3.121226 1_555
Ce0 Ru0 3.121226 1_554
Ce0 Ru1 3.121226 1_554
Ce0 Ru1 3.121226 1_555
Ce0 Ru3 3.121234 1_455
Ce0 Ru2 3.121234 1_455
Ce0 Ru2 3.121234 1_545
Ce0 Ru3 3.121234 1_545
Ce0 Ru0 3.121236 1_455
Ce0 Ru1 3.121237 1_545
Ce0 Ce1 3.260011 1_544
Ce0 Ce1 3.260012 1_454
Ce0 Ce1 3.260024 1_444
Ce0 Ce1 3.260025 1_445
Ce1 Ru3 3.121222 1_556
Ce1 Ru2 3.121222 1_556
Ce1 Ru0 3.121226 1_565
Ce1 Ru0 3.121226 1_566
Ce1 Ru1 3.121226 1_656
Ce1 Ru1 3.121226 1_655
Ce1 Ru3 3.121234 1_656
Ce1 Ru2 3.121234 1_655
Ce1 Ru2 3.121234 1_565
Ce1 Ru3 3.121234 1_566
Ce1 Ru0 3.121236 1_665
Ce1 Ru1 3.121237 1_665
Ru0 Ru2 2.661794 1_545
Ru0 Ru2 2.661794 1_555
Ru0 Ru3 2.661794 1_546
Ru0 Ru3 2.661794 1_555
Ru0 Ru1 2.661797 1_555
Ru0 Ru1 2.661797 1_645
Ru1 Ru2 2.661793 1_455
Ru1 Ru2 2.661793 1_555
Ru1 Ru3 2.661793 1_456
Ru1 Ru3 2.661793 1_555
Ru2 Ru3 2.661791 1_555
Ru2 Ru3 2.661791 1_556
