# generated using pymatgen
data_CrHO2
_symmetry_space_group_name_H-M   'P 1'
_cell_length_a   4.78631681
_cell_length_b   19.14944130
_cell_length_c   9.09279480
_cell_angle_alpha   18.25654785
_cell_angle_beta   32.21077357
_cell_angle_gamma   36.53437901
_symmetry_Int_Tables_number   1
_chemical_formula_structural   CrHO2
_chemical_formula_sum   'Cr4 H4 O8'
_cell_volume   139.16596110
_cell_formula_units_Z   4
loop_
 _symmetry_equiv_pos_site_id
 _symmetry_equiv_pos_as_xyz
  1  'x, y, z'
loop_
 _atom_site_type_symbol
 _atom_site_label
 _atom_site_symmetry_multiplicity
 _atom_site_fract_x
 _atom_site_fract_y
 _atom_site_fract_z
 _atom_site_occupancy
  Cr  Cr0  1  0.01197786  0.00011929  0.99274938  1
  Cr  Cr1  1  0.01198191  0.24987460  0.99323117  1
  Cr  Cr2  1  0.98801809  0.50012540  0.00676883  1
  Cr  Cr3  1  0.98802214  0.74988071  0.00725062  1
  H  H0  1  0.48847303  0.25088984  0.48469758  1
  H  H1  1  0.51152697  0.49911016  0.51530242  1
  H  H2  1  0.51151383  0.75088953  0.51175190  1
  H  H3  1  0.48848617  0.99911047  0.48824810  1
  O  O0  1  0.59639369  0.00145066  0.59012146  1
  O  O1  1  0.41076054  0.25185921  0.40376267  1
  O  O2  1  0.59638775  0.24854577  0.59593297  1
  O  O3  1  0.40361225  0.50145423  0.40406703  1
  O  O4  1  0.58923946  0.49814079  0.59623733  1
  O  O5  1  0.40360631  0.74854934  0.40987854  1
  O  O6  1  0.58924022  0.75186080  0.58879628  1
  O  O7  1  0.41075978  0.99813920  0.41120372  1
loop_
_geom_bond_atom_site_label_1
_geom_bond_atom_site_label_2
_geom_bond_distance
_geom_bond_site_symmetry_2
Cr0 O0 1.958659 1_555
Cr0 O5 1.980458 1_546
Cr0 O2 1.985812 1_455
Cr0 O1 2.004242 1_555
Cr0 O6 2.008054 1_446
Cr0 O7 2.032962 1_446
Cr1 O2 1.958611 1_555
Cr1 O3 1.980483 1_555
Cr1 O0 1.985727 1_456
Cr1 O7 2.004287 1_546
Cr1 O4 2.008119 1_455
Cr1 O1 2.032999 1_456
Cr2 O3 1.958611 1_555
Cr2 O2 1.980483 1_555
Cr2 O5 1.985727 1_654
Cr2 O6 2.004287 1_554
Cr2 O1 2.008119 1_655
Cr2 O4 2.032999 1_654
Cr3 O5 1.958659 1_555
Cr3 O0 1.980458 1_564
Cr3 O3 1.985812 1_655
Cr3 O4 2.004242 1_555
Cr3 O7 2.008054 1_654
Cr3 O6 2.032962 1_654
H0 O1 1.051877 1_555
H0 O2 1.432606 1_555
H1 O4 1.051877 1_555
H1 O3 1.432606 1_555
H2 O6 1.051856 1_555
H2 O5 1.432631 1_555
H3 O7 1.051856 1_555
H3 O0 1.432631 1_565
