# generated using pymatgen
data_CsTi(PS4)2
_symmetry_space_group_name_H-M   'P 1'
_cell_length_a   11.75667459
_cell_length_b   11.75667459
_cell_length_c   17.58933670
_cell_angle_alpha   81.80153272
_cell_angle_beta   81.80153272
_cell_angle_gamma   35.31366089
_symmetry_Int_Tables_number   1
_chemical_formula_structural   CsTi(PS4)2
_chemical_formula_sum   'Cs4 Ti4 P8 S32'
_cell_volume   1389.52711175
_cell_formula_units_Z   4
loop_
 _symmetry_equiv_pos_site_id
 _symmetry_equiv_pos_as_xyz
  1  'x, y, z'
loop_
 _atom_site_type_symbol
 _atom_site_label
 _atom_site_symmetry_multiplicity
 _atom_site_fract_x
 _atom_site_fract_y
 _atom_site_fract_z
 _atom_site_occupancy
  Cs  Cs0  1  0.87757300  0.29817800  0.35085800  1
  Cs  Cs1  1  0.98182100  0.51234300  0.61809300  1
  Cs  Cs2  1  0.51234300  0.98182100  0.11809300  1
  Cs  Cs3  1  0.29817800  0.87757300  0.85085800  1
  Ti  Ti0  1  0.66003800  0.34653800  0.10191300  1
  Ti  Ti1  1  0.72825400  0.97641700  0.84581600  1
  Ti  Ti2  1  0.34653800  0.66003800  0.60191300  1
  Ti  Ti3  1  0.97641700  0.72825400  0.34581600  1
  P  P0  1  0.28405500  0.57792800  0.21018700  1
  P  P1  1  0.09963400  0.74737500  0.48441600  1
  P  P2  1  0.74737500  0.09963400  0.98441600  1
  P  P3  1  0.36842400  0.90923400  0.60147800  1
  P  P4  1  0.90923400  0.36842400  0.10147800  1
  P  P5  1  0.59863000  0.86943300  0.35891900  1
  P  P6  1  0.57792800  0.28405500  0.71018700  1
  P  P7  1  0.86943300  0.59863000  0.85891900  1
  S  S0  1  0.60771900  0.87804100  0.89826900  1
  S  S1  1  0.46636700  0.85568900  0.31436900  1
  S  S2  1  0.23012500  0.10111800  0.49736300  1
  S  S3  1  0.87804100  0.60771900  0.39826900  1
  S  S4  1  0.36581200  0.57091700  0.73870300  1
  S  S5  1  0.28847900  0.73295300  0.46401500  1
  S  S6  1  0.96146000  0.44748000  0.16355200  1
  S  S7  1  0.14219500  0.98325100  0.64438400  1
  S  S8  1  0.10111800  0.23012500  0.99736300  1
  S  S9  1  0.64756200  0.98963200  0.29511700  1
  S  S10  1  0.49749000  0.17990800  0.74304600  1
  S  S11  1  0.30462600  0.61379500  0.09376200  1
  S  S12  1  0.57091700  0.36581200  0.23870300  1
  S  S13  1  0.83704700  0.97605500  0.43021100  1
  S  S14  1  0.17990800  0.49749000  0.24304600  1
  S  S15  1  0.58628800  0.62180800  0.57124100  1
  S  S16  1  0.98325100  0.14219500  0.14438400  1
  S  S17  1  0.73295300  0.28847900  0.96401500  1
  S  S18  1  0.82362600  0.08599300  0.77382200  1
  S  S19  1  0.50425800  0.22656600  0.94382800  1
  S  S20  1  0.41208500  0.08316600  0.44929600  1
  S  S21  1  0.85568900  0.46636700  0.81436900  1
  S  S22  1  0.08316600  0.41208500  0.94929600  1
  S  S23  1  0.22656600  0.50425800  0.44382800  1
  S  S24  1  0.06511700  0.75798500  0.60192300  1
  S  S25  1  0.44748000  0.96146000  0.66355200  1
  S  S26  1  0.61379500  0.30462600  0.59376200  1
  S  S27  1  0.98963200  0.64756200  0.79511700  1
  S  S28  1  0.97605500  0.83704700  0.93021100  1
  S  S29  1  0.08599300  0.82362600  0.27382200  1
  S  S30  1  0.62180800  0.58628800  0.07124100  1
  S  S31  1  0.75798500  0.06511700  0.10192300  1
loop_
_geom_bond_atom_site_label_1
_geom_bond_atom_site_label_2
_geom_bond_distance
_geom_bond_site_symmetry_2
Cs0 S12 3.797942 1_555
Cs0 S1 3.836213 1_555
Cs0 S3 3.852087 1_555
Cs0 S2 3.854828 1_655
Cs0 S16 3.871738 1_555
Cs0 S6 3.893225 1_555
Cs0 S1 4.038284 1_645
Cs1 S25 3.690715 1_555
Cs1 S24 3.698894 1_655
Cs1 S21 3.704828 1_555
Cs1 S27 3.736652 1_555
Cs1 S25 3.802997 1_645
Cs1 S2 3.812101 1_655
Cs1 S23 3.847749 1_655
Cs1 S15 3.870798 1_555
Cs1 S3 3.946195 1_555
Cs2 S6 3.690715 1_555
Cs2 S31 3.698894 1_565
Cs2 S1 3.704828 1_555
Cs2 S9 3.736652 1_555
Cs2 S6 3.802997 1_465
Cs2 S8 3.812101 1_564
Cs2 S19 3.847749 1_564
Cs2 S30 3.870798 1_555
Cs2 S0 3.946195 1_554
Cs3 S4 3.797942 1_555
Cs3 S21 3.836213 1_555
Cs3 S0 3.852087 1_555
Cs3 S8 3.854828 1_565
Cs3 S7 3.871738 1_555
Cs3 S25 3.893225 1_555
Cs3 S21 4.038284 1_465
P0 S11 2.051547 1_555
P0 S29 2.054388 1_555
P0 S12 2.060228 1_555
P0 S14 2.063873 1_555
P1 S24 2.050340 1_555
P1 S23 2.055060 1_555
P1 S13 2.056863 1_455
P1 S5 2.064590 1_555
P2 S31 2.050340 1_556
P2 S19 2.055060 1_555
P2 S28 2.056863 1_545
P2 S17 2.064590 1_555
P3 S25 1.960851 1_555
P3 S7 2.058746 1_555
P3 S15 2.064191 1_555
P3 S2 2.184346 1_565
P4 S6 1.960851 1_555
P4 S16 2.058746 1_555
P4 S30 2.064191 1_555
P4 S8 2.184346 1_654
P5 S1 1.962593 1_555
P5 S9 2.068242 1_555
P5 S3 2.069528 1_555
P5 S20 2.191384 1_565
P6 S26 2.051547 1_555
P6 S18 2.054388 1_555
P6 S4 2.060228 1_555
P6 S10 2.063873 1_555
P7 S21 1.962593 1_555
P7 S27 2.068242 1_555
P7 S0 2.069528 1_555
P7 S22 2.191384 1_655
S0 Ti1 2.488897 1_555
S2 S20 2.033207 1_555
S3 Ti3 2.488897 1_555
S4 Ti2 2.446885 1_555
S5 Ti2 2.451169 1_555
S7 Ti2 2.483606 1_555
S9 Ti3 2.449172 1_555
S10 Ti1 2.433982 1_545
S11 Ti0 2.443060 1_555
S12 Ti0 2.446885 1_555
S13 Ti3 2.474886 1_555
S14 Ti3 2.433982 1_455
S15 Ti2 2.450685 1_555
S16 Ti0 2.483606 1_555
S17 Ti0 2.451169 1_556
S18 Ti1 2.451025 1_545
S19 Ti1 2.463301 1_545
S22 S8 2.033207 1_555
S23 Ti3 2.463301 1_455
S24 Ti2 2.460647 1_555
S26 Ti2 2.443060 1_555
S27 Ti1 2.449172 1_555
S28 Ti1 2.474886 1_555
S29 Ti3 2.451025 1_455
S30 Ti0 2.450685 1_555
S31 Ti0 2.460647 1_555
