# generated using pymatgen
data_SbP3C(NCl5)3
_symmetry_space_group_name_H-M   'P 1'
_cell_length_a   9.81586200
_cell_length_b   12.09649506
_cell_length_c   13.86164496
_cell_angle_alpha   84.28020149
_cell_angle_beta   87.90881865
_cell_angle_gamma   72.82558291
_symmetry_Int_Tables_number   1
_chemical_formula_structural   SbP3C(NCl5)3
_chemical_formula_sum   'Sb2 P6 C2 N6 Cl30'
_cell_volume   1564.63498600
_cell_formula_units_Z   2
loop_
 _symmetry_equiv_pos_site_id
 _symmetry_equiv_pos_as_xyz
  1  'x, y, z'
loop_
 _atom_site_type_symbol
 _atom_site_label
 _atom_site_symmetry_multiplicity
 _atom_site_fract_x
 _atom_site_fract_y
 _atom_site_fract_z
 _atom_site_occupancy
  Sb  Sb0  1  0.72624900  0.75518300  0.71154400  1
  Sb  Sb1  1  0.27375100  0.24481700  0.28845600  1
  P  P0  1  0.87035800  0.19619100  0.66629000  1
  P  P1  1  0.59172100  0.72105800  0.21024800  1
  P  P2  1  0.22116800  0.78829300  0.01399400  1
  P  P3  1  0.40827900  0.27894200  0.78975200  1
  P  P4  1  0.12964200  0.80380900  0.33371000  1
  P  P5  1  0.77883200  0.21170700  0.98600600  1
  C  C0  1  0.31191200  0.76565300  0.19047100  1
  C  C1  1  0.68808800  0.23434700  0.80952900  1
  N  N0  1  0.20262100  0.78946000  0.12858100  1
  N  N1  1  0.71300700  0.22825500  0.71154500  1
  N  N2  1  0.44694500  0.73699800  0.15674100  1
  N  N3  1  0.28699300  0.77174500  0.28845500  1
  N  N4  1  0.79737900  0.21054000  0.87141900  1
  N  N5  1  0.55305500  0.26300200  0.84325900  1
  Cl  Cl0  1  0.98324300  0.68843600  0.69969700  1
  Cl  Cl1  1  0.97149400  0.17116500  0.04313600  1
  Cl  Cl2  1  0.59679600  0.83863400  0.29996700  1
  Cl  Cl3  1  0.33043100  0.63761300  0.96656700  1
  Cl  Cl4  1  0.31620900  0.38338800  0.46433700  1
  Cl  Cl5  1  0.26428300  0.27484900  0.89300900  1
  Cl  Cl6  1  0.67437000  0.56819400  0.28734500  1
  Cl  Cl7  1  0.31133900  0.90559800  0.95049100  1
  Cl  Cl8  1  0.83541300  0.19105600  0.52512300  1
  Cl  Cl9  1  0.29621700  0.10479600  0.16671100  1
  Cl  Cl10  1  0.64326700  0.30873500  0.29384500  1
  Cl  Cl11  1  0.70378300  0.89520400  0.83328900  1
  Cl  Cl12  1  0.64711700  0.46734700  0.58843600  1
  Cl  Cl13  1  0.68866100  0.09440200  0.04950900  1
  Cl  Cl14  1  0.36766500  0.85410300  0.68216100  1
  Cl  Cl15  1  0.01675700  0.31156400  0.30030300  1
  Cl  Cl16  1  0.16458700  0.80894400  0.47487700  1
  Cl  Cl17  1  0.40320400  0.16136600  0.70003300  1
  Cl  Cl18  1  0.66956900  0.36238700  0.03343300  1
  Cl  Cl19  1  0.71396100  0.58121900  0.83546600  1
  Cl  Cl20  1  0.02850600  0.82883500  0.95686400  1
  Cl  Cl21  1  0.28603900  0.41878100  0.16453400  1
  Cl  Cl22  1  0.35288300  0.53265300  0.41156400  1
  Cl  Cl23  1  0.35673300  0.69126500  0.70615500  1
  Cl  Cl24  1  0.68379100  0.61661200  0.53566300  1
  Cl  Cl25  1  0.63233500  0.14589700  0.31783900  1
  Cl  Cl26  1  0.29640600  0.09327000  0.44154600  1
  Cl  Cl27  1  0.73571700  0.72515100  0.10699100  1
  Cl  Cl28  1  0.32563000  0.43180600  0.71265500  1
  Cl  Cl29  1  0.70359400  0.90673000  0.55845400  1
loop_
_geom_bond_atom_site_label_1
_geom_bond_atom_site_label_2
_geom_bond_distance
_geom_bond_site_symmetry_2
C0 N0 1.343600 1_555
C0 N2 1.345868 1_555
C0 N3 1.376619 1_555
C1 N4 1.343600 1_555
C1 N5 1.345868 1_555
C1 N1 1.376619 1_555
N0 P2 1.593139 1_555
N1 P0 1.597982 1_555
N2 P1 1.579054 1_555
N3 P4 1.597982 1_555
N4 P5 1.593139 1_555
N5 P3 1.579054 1_555
Cl0 Sb0 2.415745 1_555
Cl1 P5 1.981976 1_554
Cl2 P1 1.992712 1_555
Cl3 P2 1.984346 1_556
Cl4 Sb1 3.198210 1_555
Cl5 P3 1.982042 1_555
Cl6 P1 2.000738 1_555
Cl7 P2 2.001911 1_556
Cl8 P0 2.009081 1_555
Cl9 Sb1 2.467270 1_555
Cl10 Cl25 1.998440 1_555
Cl11 Sb0 2.467270 1_555
Cl12 Cl24 2.006541 1_555
Cl13 P5 2.001911 1_554
Cl14 Cl23 1.998440 1_555
Cl15 Sb1 2.415745 1_555
Cl16 P4 2.009081 1_555
Cl17 P3 1.992712 1_555
Cl18 P5 1.984346 1_554
Cl19 Sb0 2.609180 1_555
Cl20 P2 1.981976 1_556
Cl21 Sb1 2.609180 1_555
Cl22 Cl4 2.006541 1_555
Cl24 Sb0 3.198210 1_555
Cl26 Sb1 2.632778 1_555
Cl27 P1 1.982042 1_555
Cl28 P3 2.000738 1_555
Cl29 Sb0 2.632778 1_555
