# generated using pymatgen
data_FeC3SeO3
_symmetry_space_group_name_H-M   'P 1'
_cell_length_a   6.65361700
_cell_length_b   7.76099291
_cell_length_c   11.90140408
_cell_angle_alpha   84.13161286
_cell_angle_beta   75.02128095
_cell_angle_gamma   77.45161000
_symmetry_Int_Tables_number   1
_chemical_formula_structural   FeC3SeO3
_chemical_formula_sum   'Fe4 C12 Se4 O12'
_cell_volume   578.81647691
_cell_formula_units_Z   4
loop_
 _symmetry_equiv_pos_site_id
 _symmetry_equiv_pos_as_xyz
  1  'x, y, z'
loop_
 _atom_site_type_symbol
 _atom_site_label
 _atom_site_symmetry_multiplicity
 _atom_site_fract_x
 _atom_site_fract_y
 _atom_site_fract_z
 _atom_site_occupancy
  Fe  Fe0  1  0.36602200  0.49339400  0.27249800  1
  Fe  Fe1  1  0.63397800  0.50660600  0.72750200  1
  Fe  Fe2  1  0.79237800  0.17494100  0.76931900  1
  Fe  Fe3  1  0.20762200  0.82505900  0.23068100  1
  C  C0  1  0.40210800  0.28968800  0.35643900  1
  C  C1  1  0.15437000  0.79843600  0.09326200  1
  C  C2  1  0.84563000  0.20156400  0.90673800  1
  C  C3  1  0.54896900  0.09987200  0.83077400  1
  C  C4  1  0.36470500  0.48656200  0.79064000  1
  C  C5  1  0.03713500  0.03439200  0.26522300  1
  C  C6  1  0.96286500  0.96560800  0.73477700  1
  C  C7  1  0.66418700  0.59423600  0.85414100  1
  C  C8  1  0.33581300  0.40576400  0.14585900  1
  C  C9  1  0.59789200  0.71031200  0.64356100  1
  C  C10  1  0.63529500  0.51343800  0.20936000  1
  C  C11  1  0.45103100  0.90012800  0.16922600  1
  Se  Se0  1  0.00567200  0.62784100  0.35297100  1
  Se  Se1  1  0.99432800  0.37215900  0.64702900  1
  Se  Se2  1  0.27287400  0.71275600  0.41659400  1
  Se  Se3  1  0.72712600  0.28724400  0.58340600  1
  O  O0  1  0.19067900  0.47171400  0.83169500  1
  O  O1  1  0.39301200  0.04797300  0.86825200  1
  O  O2  1  0.92903800  0.17129800  0.28739600  1
  O  O3  1  0.42871500  0.15446800  0.40767500  1
  O  O4  1  0.60698800  0.95202700  0.13174800  1
  O  O5  1  0.07096200  0.82870200  0.71260400  1
  O  O6  1  0.68050700  0.65563200  0.93521200  1
  O  O7  1  0.80932100  0.52828600  0.16830500  1
  O  O8  1  0.87806000  0.21848200  0.99539800  1
  O  O9  1  0.12194000  0.78151800  0.00460200  1
  O  O10  1  0.57128500  0.84553200  0.59232500  1
  O  O11  1  0.31949300  0.34436800  0.06478800  1
loop_
_geom_bond_atom_site_label_1
_geom_bond_atom_site_label_2
_geom_bond_distance
_geom_bond_site_symmetry_2
Fe0 Se0 2.384307 1_555
Fe0 Se2 2.410947 1_555
Fe1 Se1 2.384307 1_555
Fe1 Se3 2.410947 1_555
Fe2 Se1 2.386163 1_555
Fe2 Se3 2.404508 1_555
Fe3 Se0 2.386163 1_555
Fe3 Se2 2.404508 1_555
C0 O3 1.161342 1_555
C0 Fe0 1.786393 1_555
C1 O9 1.155654 1_555
C1 Fe3 1.800967 1_555
C2 O8 1.155654 1_555
C2 Fe2 1.800967 1_555
C3 O1 1.159133 1_555
C3 Fe2 1.791056 1_555
C4 O0 1.160504 1_555
C4 Fe1 1.788881 1_555
C5 O2 1.158903 1_455
C5 Fe3 1.786033 1_545
C6 O5 1.158903 1_655
C6 Fe2 1.786033 1_565
C7 O6 1.157776 1_555
C7 Fe1 1.788891 1_555
C8 O11 1.157776 1_555
C8 Fe0 1.788891 1_555
C9 O10 1.161342 1_555
C9 Fe1 1.786393 1_555
C10 O7 1.160504 1_555
C10 Fe0 1.788881 1_555
C11 O4 1.159133 1_555
C11 Fe3 1.791056 1_555
Se0 Se2 2.339977 1_555
Se1 Se3 2.339977 1_555
