# generated using pymatgen
data_Ba2PtAu
_symmetry_space_group_name_H-M   'P 1'
_cell_length_a   4.84985700
_cell_length_b   12.07031900
_cell_length_c   13.47430700
_cell_angle_alpha   90.00000000
_cell_angle_beta   90.00000000
_cell_angle_gamma   90.00000000
_symmetry_Int_Tables_number   1
_chemical_formula_structural   Ba2PtAu
_chemical_formula_sum   'Ba12 Pt6 Au6'
_cell_volume   788.77678400
_cell_formula_units_Z   6
loop_
 _symmetry_equiv_pos_site_id
 _symmetry_equiv_pos_as_xyz
  1  'x, y, z'
loop_
 _atom_site_type_symbol
 _atom_site_label
 _atom_site_symmetry_multiplicity
 _atom_site_fract_x
 _atom_site_fract_y
 _atom_site_fract_z
 _atom_site_occupancy
  Ba  Ba0  1  0.00000000  0.13240300  0.57915100  1
  Ba  Ba1  1  0.50000000  0.35753100  0.41207800  1
  Ba  Ba2  1  0.00000000  0.63240300  0.42084900  1
  Ba  Ba3  1  0.00000000  0.14169600  0.25470000  1
  Ba  Ba4  1  0.50000000  0.86681100  0.24435700  1
  Ba  Ba5  1  0.50000000  0.36397700  0.08223100  1
  Ba  Ba6  1  0.00000000  0.63881500  0.08409600  1
  Ba  Ba7  1  0.00000000  0.13881500  0.91590400  1
  Ba  Ba8  1  0.50000000  0.86397700  0.91776900  1
  Ba  Ba9  1  0.50000000  0.36681100  0.75564300  1
  Ba  Ba10  1  0.00000000  0.64169600  0.74530000  1
  Ba  Ba11  1  0.50000000  0.85753100  0.58792200  1
  Pt  Pt0  1  0.50000000  0.57461900  0.58349000  1
  Pt  Pt1  1  0.50000000  0.07461900  0.41651000  1
  Pt  Pt2  1  0.00000000  0.42444200  0.25102200  1
  Pt  Pt3  1  0.00000000  0.92542100  0.08405500  1
  Pt  Pt4  1  0.00000000  0.42542100  0.91594500  1
  Pt  Pt5  1  0.00000000  0.92444200  0.74897800  1
  Au  Au0  1  0.00000000  0.92336800  0.41538900  1
  Au  Au1  1  0.50000000  0.57426000  0.24967900  1
  Au  Au2  1  0.50000000  0.07659700  0.08213400  1
  Au  Au3  1  0.50000000  0.57659700  0.91786600  1
  Au  Au4  1  0.50000000  0.07426000  0.75032100  1
  Au  Au5  1  0.00000000  0.42336800  0.58461100  1
loop_
_geom_bond_atom_site_label_1
_geom_bond_atom_site_label_2
_geom_bond_distance
_geom_bond_site_symmetry_2
Ba0 Pt1 3.342051 1_455
Ba0 Pt1 3.342051 1_555
Ba0 Pt5 3.396646 1_545
Ba1 Pt2 3.352904 1_555
Ba1 Pt2 3.352904 1_655
Ba1 Pt1 3.415360 1_555
Ba1 Pt0 3.492936 1_555
Ba2 Pt0 3.342051 1_455
Ba2 Pt0 3.342051 1_555
Ba2 Pt2 3.396646 1_555
Ba3 Pt1 3.359971 1_555
Ba3 Pt1 3.359971 1_455
Ba3 Pt2 3.413194 1_555
Ba3 Pt3 3.478741 1_545
Ba4 Pt3 3.323578 1_555
Ba4 Pt3 3.323578 1_655
Ba4 Pt1 3.416483 1_565
Ba5 Pt4 3.383867 1_654
Ba5 Pt4 3.383867 1_554
Ba5 Pt2 3.403757 1_555
Ba5 Pt2 3.403757 1_655
Ba6 Pt2 3.428465 1_555
Ba6 Pt4 3.430435 1_554
Ba6 Pt3 3.459426 1_555
Ba7 Pt5 3.428465 1_545
Ba7 Pt3 3.430435 1_546
Ba7 Pt4 3.459426 1_555
Ba8 Pt3 3.383867 1_656
Ba8 Pt3 3.383867 1_556
Ba8 Pt5 3.403757 1_655
Ba8 Pt5 3.403757 1_555
Ba9 Pt4 3.323578 1_655
Ba9 Pt4 3.323578 1_555
Ba9 Pt0 3.416483 1_555
Ba10 Pt0 3.359971 1_555
Ba10 Pt0 3.359971 1_455
Ba10 Pt5 3.413194 1_555
Ba10 Pt4 3.478741 1_555
Ba11 Pt5 3.352904 1_555
Ba11 Pt5 3.352904 1_655
Ba11 Pt0 3.415360 1_555
Ba11 Pt1 3.492936 1_565
Au0 Pt1 3.035374 1_565
Au0 Pt1 3.035374 1_465
Au0 Ba0 3.351884 1_565
Au0 Ba3 3.410677 1_565
Au0 Ba4 3.414264 1_555
Au0 Ba4 3.414264 1_455
Au0 Ba11 3.452000 1_455
Au0 Ba11 3.452000 1_555
Au0 Ba2 3.512811 1_555
Au1 Pt2 3.025019 1_555
Au1 Pt2 3.025019 1_655
Au1 Ba6 3.386046 1_555
Au1 Ba6 3.386046 1_655
Au1 Ba5 3.396030 1_555
Au1 Ba1 3.410524 1_555
Au1 Ba2 3.419397 1_555
Au1 Ba2 3.419397 1_655
Au1 Ba4 3.531912 1_555
Au2 Pt3 3.034903 1_545
Au2 Pt3 3.034903 1_645
Au2 Ba4 3.345125 1_545
Au2 Ba7 3.385428 1_654
Au2 Ba7 3.385428 1_554
Au2 Ba8 3.389879 1_544
Au2 Ba3 3.450260 1_655
Au2 Ba3 3.450260 1_555
Au2 Ba5 3.468769 1_555
Au3 Pt4 3.034903 1_655
Au3 Pt4 3.034903 1_555
Au3 Ba9 3.345125 1_555
Au3 Ba6 3.385428 1_656
Au3 Ba6 3.385428 1_556
Au3 Ba5 3.389879 1_556
Au3 Ba10 3.450260 1_555
Au3 Ba10 3.450260 1_655
Au3 Ba8 3.468769 1_555
Au4 Pt5 3.025019 1_545
Au4 Pt5 3.025019 1_645
Au4 Ba7 3.386046 1_555
Au4 Ba7 3.386046 1_655
Au4 Ba8 3.396030 1_545
Au4 Ba11 3.410524 1_545
Au4 Ba0 3.419397 1_655
Au4 Ba0 3.419397 1_555
Au4 Ba9 3.531912 1_555
Au5 Pt0 3.035374 1_455
Au5 Pt0 3.035374 1_555
Au5 Ba2 3.351884 1_555
Au5 Ba10 3.410677 1_555
Au5 Ba9 3.414264 1_455
Au5 Ba9 3.414264 1_555
Au5 Ba1 3.452000 1_555
Au5 Ba1 3.452000 1_455
Au5 Ba0 3.512811 1_555
