# generated using pymatgen
data_Rb2ZnCl3
_symmetry_space_group_name_H-M   'P 1'
_cell_length_a   9.51805200
_cell_length_b   9.12649900
_cell_length_c   11.76018459
_cell_angle_alpha   82.41531331
_cell_angle_beta   90.00000000
_cell_angle_gamma   90.00000000
_symmetry_Int_Tables_number   1
_chemical_formula_structural   Rb2ZnCl3
_chemical_formula_sum   'Rb8 Zn4 Cl12'
_cell_volume   1012.62814982
_cell_formula_units_Z   4
loop_
 _symmetry_equiv_pos_site_id
 _symmetry_equiv_pos_as_xyz
  1  'x, y, z'
loop_
 _atom_site_type_symbol
 _atom_site_label
 _atom_site_symmetry_multiplicity
 _atom_site_fract_x
 _atom_site_fract_y
 _atom_site_fract_z
 _atom_site_occupancy
  Rb  Rb0  1  0.47097500  0.64902200  0.54109000  1
  Rb  Rb1  1  0.09557600  0.74208900  0.81752500  1
  Rb  Rb2  1  0.52902500  0.64902200  0.04109000  1
  Rb  Rb3  1  0.90442400  0.74208900  0.31752500  1
  Rb  Rb4  1  0.47067300  0.19343600  0.22768000  1
  Rb  Rb5  1  0.52932700  0.19343600  0.72768000  1
  Rb  Rb6  1  0.86830500  0.23082000  0.96090500  1
  Rb  Rb7  1  0.13169500  0.23082000  0.46090500  1
  Zn  Zn0  1  0.73100300  0.86012800  0.80945600  1
  Zn  Zn1  1  0.26899700  0.86012800  0.30945600  1
  Zn  Zn2  1  0.02947800  0.43740800  0.17683800  1
  Zn  Zn3  1  0.97052200  0.43740800  0.67683800  1
  Cl  Cl0  1  0.89703800  0.58141200  0.04010200  1
  Cl  Cl1  1  0.22597100  0.57617500  0.19768600  1
  Cl  Cl2  1  0.10296200  0.58141200  0.54010200  1
  Cl  Cl3  1  0.77402900  0.57617500  0.69768600  1
  Cl  Cl4  1  0.55270400  0.31751500  0.97335600  1
  Cl  Cl5  1  0.87234700  0.39643700  0.32697500  1
  Cl  Cl6  1  0.44729600  0.31751500  0.47335600  1
  Cl  Cl7  1  0.12765300  0.39643700  0.82697500  1
  Cl  Cl8  1  0.41227900  0.84629800  0.76804600  1
  Cl  Cl9  1  0.58772100  0.84629800  0.26804600  1
  Cl  Cl10  1  0.89532800  0.19936000  0.66444000  1
  Cl  Cl11  1  0.10467200  0.19936000  0.16444000  1
loop_
_geom_bond_atom_site_label_1
_geom_bond_atom_site_label_2
_geom_bond_distance
_geom_bond_site_symmetry_2
Rb0 Zn1 3.666443 1_555
Rb2 Zn0 3.666443 1_554
Rb4 Zn1 3.618106 1_545
Rb5 Zn0 3.618106 1_545
Cl0 Zn2 2.311752 1_655
Cl0 Rb1 3.399942 1_654
Cl0 Rb6 3.459317 1_554
Cl0 Rb2 3.556985 1_555
Cl1 Zn2 2.289925 1_555
Cl1 Rb2 3.439553 1_555
Cl2 Zn3 2.311752 1_455
Cl2 Rb3 3.399942 1_455
Cl2 Rb7 3.459317 1_555
Cl2 Rb0 3.556985 1_555
Cl3 Zn3 2.289925 1_555
Cl3 Rb0 3.439553 1_555
Cl4 Rb6 3.114725 1_555
Cl4 Rb4 3.153305 1_556
Cl4 Rb2 3.236534 1_556
Cl4 Rb5 3.246996 1_555
Cl5 Zn2 2.306464 1_655
Cl5 Rb3 3.156655 1_555
Cl5 Rb7 3.198495 1_655
Cl6 Rb7 3.114725 1_555
Cl6 Rb5 3.153305 1_555
Cl6 Rb0 3.236534 1_555
Cl6 Rb4 3.246996 1_555
Cl7 Zn3 2.306464 1_455
Cl7 Rb1 3.156655 1_555
Cl7 Rb6 3.198495 1_455
Cl8 Rb1 3.191175 1_555
Cl8 Rb5 3.332669 1_565
Cl8 Rb0 3.456306 1_555
Cl8 Rb2 3.641565 1_556
Cl9 Rb3 3.191175 1_555
Cl9 Rb4 3.332669 1_565
Cl9 Rb2 3.456306 1_555
Cl9 Rb0 3.641565 1_555
Cl10 Zn3 2.310207 1_555
Cl10 Rb7 3.269827 1_655
Cl10 Rb6 3.545196 1_555
Cl10 Rb5 3.561040 1_555
Cl11 Zn2 2.310207 1_555
Cl11 Rb6 3.269827 1_454
Cl11 Rb7 3.545196 1_555
Cl11 Rb4 3.561040 1_555
