# generated using pymatgen
data_Ca31Sn20
_symmetry_space_group_name_H-M   'P 1'
_cell_length_a   21.98826869
_cell_length_b   21.98826869
_cell_length_c   21.98826869
_cell_angle_alpha   146.77776600
_cell_angle_beta   146.77776600
_cell_angle_gamma   47.69294899
_symmetry_Int_Tables_number   1
_chemical_formula_structural   Ca31Sn20
_chemical_formula_sum   'Ca62 Sn40'
_cell_volume   3178.55511548
_cell_formula_units_Z   2
loop_
 _symmetry_equiv_pos_site_id
 _symmetry_equiv_pos_as_xyz
  1  'x, y, z'
loop_
 _atom_site_type_symbol
 _atom_site_label
 _atom_site_symmetry_multiplicity
 _atom_site_fract_x
 _atom_site_fract_y
 _atom_site_fract_z
 _atom_site_occupancy
  Ca  Ca0  1  0.55889600  0.84980600  0.13458800  1
  Ca  Ca1  1  0.20232600  0.07458200  0.70134600  1
  Ca  Ca2  1  0.16400000  0.66400000  0.50000000  1
  Ca  Ca3  1  0.57351500  0.07351500  0.50000000  1
  Ca  Ca4  1  0.66400000  0.16400000  0.50000000  1
  Ca  Ca5  1  0.92648500  0.42648500  0.50000000  1
  Ca  Ca6  1  0.49902100  0.79767400  0.87225600  1
  Ca  Ca7  1  0.15768400  0.00115000  0.26451200  1
  Ca  Ca8  1  0.73663800  0.89317200  0.73548800  1
  Ca  Ca9  1  0.79767400  0.92541800  0.29865400  1
  Ca  Ca10  1  0.99885000  0.26336200  0.15653400  1
  Ca  Ca11  1  0.34231600  0.60682800  0.84346600  1
  Ca  Ca12  1  0.84231600  0.99885000  0.73548800  1
  Ca  Ca13  1  0.57458200  0.70232600  0.70134600  1
  Ca  Ca14  1  0.94110400  0.07569200  0.29091000  1
  Ca  Ca15  1  0.66316400  0.16316400  0.82632800  1
  Ca  Ca16  1  0.42541800  0.29767400  0.29865400  1
  Ca  Ca17  1  0.37323600  0.50098000  0.29865400  1
  Ca  Ca18  1  0.42430800  0.55889600  0.70909000  1
  Ca  Ca19  1  0.07569200  0.78478300  0.13458800  1
  Ca  Ca20  1  0.00098000  0.87323600  0.29865400  1
  Ca  Ca21  1  0.50098000  0.20232600  0.12774400  1
  Ca  Ca22  1  0.33600000  0.83600000  0.50000000  1
  Ca  Ca23  1  0.33683600  0.83683600  0.17367200  1
  Ca  Ca24  1  0.99902000  0.12676400  0.70134600  1
  Ca  Ca25  1  0.23663800  0.50115000  0.84346600  1
  Ca  Ca26  1  0.21521700  0.34980600  0.29091000  1
  Ca  Ca27  1  0.89317200  0.15768400  0.15653400  1
  Ca  Ca28  1  0.92541800  0.62676400  0.12774400  1
  Ca  Ca29  1  0.12676400  0.42541800  0.12774400  1
  Ca  Ca30  1  0.25000000  0.75000000  0.50000000  1
  Ca  Ca31  1  0.71521700  0.42430800  0.86541200  1
  Ca  Ca32  1  0.39317200  0.23663800  0.73548800  1
  Ca  Ca33  1  0.76336200  0.49885000  0.15653400  1
  Ca  Ca34  1  0.07351500  0.57351500  0.50000000  1
  Ca  Ca35  1  0.50115000  0.65768400  0.26451200  1
  Ca  Ca36  1  0.70232600  0.00098000  0.12774400  1
  Ca  Ca37  1  0.78478300  0.65019400  0.70909000  1
  Ca  Ca38  1  0.28478300  0.57569200  0.13458800  1
  Ca  Ca39  1  0.07458200  0.37323600  0.87225600  1
  Ca  Ca40  1  0.83600000  0.33600000  0.50000000  1
  Ca  Ca41  1  0.87323600  0.57458200  0.87225600  1
  Ca  Ca42  1  0.10682800  0.84231600  0.84346600  1
  Ca  Ca43  1  0.84980600  0.71521700  0.29091000  1
  Ca  Ca44  1  0.65768400  0.39317200  0.15653400  1
  Ca  Ca45  1  0.00115000  0.73663800  0.84346600  1
  Ca  Ca46  1  0.75000000  0.25000000  0.50000000  1
  Ca  Ca47  1  0.15019400  0.28478300  0.70909000  1
  Ca  Ca48  1  0.83683600  0.66316400  0.50000000  1
  Ca  Ca49  1  0.34980600  0.05889600  0.13458800  1
  Ca  Ca50  1  0.49885000  0.34231600  0.73548800  1
  Ca  Ca51  1  0.05889600  0.92430800  0.70909000  1
  Ca  Ca52  1  0.65019400  0.94110400  0.86541200  1
  Ca  Ca53  1  0.42648500  0.92648500  0.50000000  1
  Ca  Ca54  1  0.60682800  0.76336200  0.26451200  1
  Ca  Ca55  1  0.57569200  0.44110400  0.29091000  1
  Ca  Ca56  1  0.26336200  0.10682800  0.26451200  1
  Ca  Ca57  1  0.92430800  0.21521700  0.86541200  1
  Ca  Ca58  1  0.44110400  0.15019400  0.86541200  1
  Ca  Ca59  1  0.62676400  0.49902100  0.70134600  1
  Ca  Ca60  1  0.29767400  0.99902000  0.87225600  1
  Ca  Ca61  1  0.16316400  0.33683600  0.50000000  1
  Sn  Sn0  1  0.72688600  0.62419400  0.50000000  1
  Sn  Sn1  1  0.36274800  0.55543200  0.50000000  1
  Sn  Sn2  1  0.32701700  0.32701700  0.00000000  1
  Sn  Sn3  1  0.82701700  0.82701700  0.00000000  1
  Sn  Sn4  1  0.37580600  0.87580600  0.10269200  1
  Sn  Sn5  1  0.46299700  0.28395300  0.50000000  1
  Sn  Sn6  1  0.96299700  0.46299700  0.17904400  1
  Sn  Sn7  1  0.05543200  0.86274800  0.50000000  1
  Sn  Sn8  1  0.91192300  0.41192300  0.32384700  1
  Sn  Sn9  1  0.44456800  0.94456800  0.80731600  1
  Sn  Sn10  1  0.90491200  0.90491200  0.00000000  1
  Sn  Sn11  1  0.58807700  0.91192300  0.50000000  1
  Sn  Sn12  1  0.22688600  0.72688600  0.10269200  1
  Sn  Sn13  1  0.71604700  0.21604700  0.17904400  1
  Sn  Sn14  1  0.13725200  0.63725200  0.19268400  1
  Sn  Sn15  1  0.59508800  0.59508800  0.00000000  1
  Sn  Sn16  1  0.77311400  0.27311400  0.89730800  1
  Sn  Sn17  1  0.86274800  0.36274800  0.80731600  1
  Sn  Sn18  1  0.12419400  0.22688600  0.50000000  1
  Sn  Sn19  1  0.50000000  0.50000000  0.00000000  1
  Sn  Sn20  1  0.94456800  0.13725200  0.50000000  1
  Sn  Sn21  1  0.27311400  0.37580600  0.50000000  1
  Sn  Sn22  1  0.40491200  0.40491200  0.00000000  1
  Sn  Sn23  1  0.09508800  0.09508800  0.00000000  1
  Sn  Sn24  1  0.62419400  0.12419400  0.89730800  1
  Sn  Sn25  1  0.25000000  0.25000000  0.00000000  1
  Sn  Sn26  1  0.03700300  0.53700300  0.82095600  1
  Sn  Sn27  1  0.78395300  0.96299700  0.50000000  1
  Sn  Sn28  1  0.21604700  0.03700300  0.50000000  1
  Sn  Sn29  1  0.87580600  0.77311400  0.50000000  1
  Sn  Sn30  1  0.67298300  0.67298300  0.00000000  1
  Sn  Sn31  1  0.41192300  0.08807700  0.50000000  1
  Sn  Sn32  1  0.55543200  0.05543200  0.19268400  1
  Sn  Sn33  1  0.00000000  0.00000000  0.00000000  1
  Sn  Sn34  1  0.08807700  0.58807700  0.67615300  1
  Sn  Sn35  1  0.28395300  0.78395300  0.82095600  1
  Sn  Sn36  1  0.63725200  0.44456800  0.50000000  1
  Sn  Sn37  1  0.17298300  0.17298300  0.00000000  1
  Sn  Sn38  1  0.75000000  0.75000000  0.00000000  1
  Sn  Sn39  1  0.53700300  0.71604700  0.50000000  1
loop_
_geom_bond_atom_site_label_1
_geom_bond_atom_site_label_2
_geom_bond_distance
_geom_bond_site_symmetry_2
Ca0 Sn4 3.142380 1_555
Ca0 Sn30 3.194886 1_555
Ca0 Sn15 3.311924 1_555
Ca0 Sn35 3.395077 1_554
Ca0 Sn27 3.440813 1_555
Ca0 Sn32 3.480823 1_565
Ca1 Sn25 3.263037 1_556
Ca1 Sn2 3.290700 1_556
Ca1 Sn20 3.366496 1_455
Ca1 Sn9 3.442972 1_545
Ca1 Sn7 3.681715 1_545
Ca2 Sn7 3.279111 1_555
Ca2 Sn1 3.279111 1_555
Ca2 Sn6 3.285951 1_455
Ca2 Sn35 3.285951 1_555
Ca3 Sn11 3.345995 1_545
Ca3 Sn31 3.345995 1_555
Ca3 Sn27 3.489795 1_545
Ca3 Sn5 3.489795 1_555
Ca3 Sn16 3.532105 1_555
Ca3 Sn4 3.532105 1_545
Ca4 Sn17 3.279111 1_555
Ca4 Sn32 3.279111 1_555
Ca4 Sn5 3.285951 1_555
Ca4 Sn27 3.285951 1_545
Ca5 Sn8 3.345973 1_555
Ca5 Sn34 3.346008 1_655
Ca5 Sn13 3.489795 1_555
Ca5 Sn26 3.489795 1_655
Ca5 Sn18 3.532105 1_655
Ca5 Sn0 3.532105 1_555
Ca6 Sn38 3.263020 1_556
Ca6 Sn30 3.290702 1_556
Ca6 Sn32 3.366501 1_566
Ca6 Sn1 3.442970 1_555
Ca6 Sn9 3.681702 1_555
Ca7 Sn10 3.217642 1_445
Ca7 Sn18 3.232471 1_555
Ca7 Sn31 3.333373 1_555
Ca7 Sn33 3.461553 1_555
Ca7 Sn12 3.485405 1_545
Ca7 Sn28 3.534746 1_555
Ca8 Sn10 3.217642 1_556
Ca8 Sn0 3.232471 1_555
Ca8 Sn11 3.333373 1_555
Ca8 Sn33 3.461553 1_666
Ca8 Sn24 3.485405 1_565
Ca8 Sn39 3.534746 1_555
Ca9 Sn38 3.263037 1_555
Ca9 Sn30 3.290700 1_555
Ca9 Sn7 3.366496 1_655
Ca9 Sn32 3.442972 1_565
Ca9 Sn20 3.681715 1_565
Ca10 Sn23 3.217642 1_655
Ca10 Sn16 3.232471 1_554
Ca10 Sn8 3.333390 1_555
Ca10 Sn33 3.461553 1_655
Ca10 Sn21 3.485405 1_655
Ca10 Sn6 3.534746 1_555
Ca11 Sn15 3.217642 1_556
Ca11 Sn4 3.232471 1_556
Ca11 Sn34 3.333364 1_555
Ca11 Sn19 3.461553 1_556
Ca11 Sn21 3.485405 1_555
Ca11 Sn35 3.534746 1_555
Ca12 Sn23 3.217642 1_666
Ca12 Sn29 3.232471 1_555
Ca12 Sn11 3.333373 1_555
Ca12 Sn33 3.461553 1_666
Ca12 Sn16 3.485405 1_565
Ca12 Sn27 3.534746 1_555
Ca13 Sn38 3.263037 1_556
Ca13 Sn3 3.290700 1_556
Ca13 Sn36 3.366496 1_555
Ca13 Sn9 3.442972 1_555
Ca13 Sn1 3.681715 1_555
Ca14 Sn18 3.142380 1_655
Ca14 Sn3 3.194886 1_545
Ca14 Sn10 3.311924 1_545
Ca14 Sn28 3.395077 1_655
Ca14 Sn13 3.440813 1_555
Ca14 Sn20 3.480823 1_555
Ca15 Sn16 3.060703 1_555
Ca15 Sn24 3.060703 1_555
Ca15 Sn31 3.296586 1_555
Ca15 Sn11 3.296586 1_545
Ca16 Sn25 3.263037 1_555
Ca16 Sn37 3.290700 1_555
Ca16 Sn1 3.366496 1_555
Ca16 Sn32 3.442972 1_555
Ca16 Sn36 3.681715 1_555
Ca17 Sn25 3.263037 1_555
Ca17 Sn2 3.290700 1_555
Ca17 Sn36 3.366496 1_555
Ca17 Sn14 3.442972 1_555
Ca17 Sn1 3.681715 1_555
Ca18 Sn21 3.142380 1_555
Ca18 Sn30 3.194886 1_556
Ca18 Sn15 3.311924 1_556
Ca18 Sn5 3.395077 1_555
Ca18 Sn35 3.440813 1_555
Ca18 Sn1 3.480823 1_555
Ca19 Sn12 3.142369 1_555
Ca19 Sn3 3.194888 1_455
Ca19 Sn10 3.311907 1_455
Ca19 Sn26 3.395079 1_554
Ca19 Sn28 3.440807 1_565
Ca19 Sn14 3.480844 1_555
Ca20 Sn38 3.263037 1_455
Ca20 Sn3 3.290700 1_455
Ca20 Sn20 3.366496 1_465
Ca20 Sn14 3.442972 1_555
Ca20 Sn7 3.681715 1_555
Ca21 Sn25 3.263037 1_555
Ca21 Sn2 3.290700 1_555
Ca21 Sn9 3.366496 1_544
Ca21 Sn36 3.442972 1_555
Ca21 Sn32 3.681715 1_555
Ca22 Sn14 3.279111 1_555
Ca22 Sn9 3.279111 1_555
Ca22 Sn28 3.285951 1_565
Ca22 Sn39 3.285951 1_555
Ca23 Sn4 3.060703 1_555
Ca23 Sn12 3.060703 1_555
Ca23 Sn11 3.296586 1_555
Ca23 Sn31 3.296586 1_565
Ca24 Sn25 3.263037 1_656
Ca24 Sn37 3.290700 1_656
Ca24 Sn7 3.366496 1_645
Ca24 Sn17 3.442972 1_555
Ca24 Sn20 3.681715 1_555
Ca25 Sn22 3.217642 1_556
Ca25 Sn12 3.232471 1_556
Ca25 Sn34 3.333390 1_555
Ca25 Sn19 3.461553 1_556
Ca25 Sn18 3.485405 1_555
Ca25 Sn26 3.534746 1_555
Ca26 Sn21 3.142365 1_555
Ca26 Sn37 3.194898 1_555
Ca26 Sn23 3.311917 1_555
Ca26 Sn5 3.395081 1_555
Ca26 Sn6 3.440801 1_455
Ca26 Sn1 3.480838 1_555
Ca27 Sn10 3.217642 1_545
Ca27 Sn24 3.232471 1_554
Ca27 Sn8 3.333364 1_555
Ca27 Sn33 3.461553 1_655
Ca27 Sn18 3.485405 1_655
Ca27 Sn13 3.534746 1_555
Ca28 Sn38 3.263037 1_555
Ca28 Sn30 3.290700 1_555
Ca28 Sn17 3.366496 1_554
Ca28 Sn7 3.442972 1_655
Ca28 Sn14 3.681715 1_655
Ca29 Sn25 3.263037 1_555
Ca29 Sn37 3.290700 1_555
Ca29 Sn17 3.366496 1_454
Ca29 Sn1 3.442972 1_555
Ca29 Sn14 3.681715 1_555
Ca30 Sn1 3.189199 1_555
Ca30 Sn9 3.189199 1_555
Ca30 Sn7 3.189199 1_555
Ca30 Sn14 3.189199 1_555
Ca31 Sn16 3.142369 1_555
Ca31 Sn30 3.194888 1_556
Ca31 Sn15 3.311907 1_556
Ca31 Sn6 3.395079 1_556
Ca31 Sn5 3.440807 1_555
Ca31 Sn17 3.480844 1_555
Ca32 Sn22 3.217642 1_556
Ca32 Sn18 3.232471 1_555
Ca32 Sn31 3.333373 1_555
Ca32 Sn19 3.461553 1_556
Ca32 Sn24 3.485405 1_555
Ca32 Sn28 3.534746 1_555
Ca33 Sn15 3.217642 1_555
Ca33 Sn16 3.232471 1_554
Ca33 Sn8 3.333390 1_555
Ca33 Sn19 3.461553 1_555
Ca33 Sn29 3.485405 1_555
Ca33 Sn6 3.534746 1_555
Ca34 Sn34 3.345973 1_555
Ca34 Sn8 3.346008 1_455
Ca34 Sn35 3.489795 1_555
Ca34 Sn6 3.489795 1_455
Ca34 Sn29 3.532105 1_455
Ca34 Sn21 3.532105 1_555
Ca35 Sn22 3.217642 1_555
Ca35 Sn0 3.232471 1_555
Ca35 Sn11 3.333373 1_555
Ca35 Sn19 3.461553 1_555
Ca35 Sn12 3.485405 1_555
Ca35 Sn39 3.534746 1_555
Ca36 Sn38 3.263037 1_545
Ca36 Sn3 3.290700 1_545
Ca36 Sn9 3.366496 1_544
Ca36 Sn20 3.442972 1_555
Ca36 Sn32 3.681715 1_555
Ca37 Sn0 3.142365 1_555
Ca37 Sn3 3.194898 1_556
Ca37 Sn10 3.311917 1_556
Ca37 Sn39 3.395081 1_555
Ca37 Sn26 3.440801 1_655
Ca37 Sn36 3.480838 1_555
Ca38 Sn12 3.142369 1_555
Ca38 Sn2 3.194888 1_555
Ca38 Sn22 3.311907 1_555
Ca38 Sn26 3.395079 1_554
Ca38 Sn39 3.440807 1_555
Ca38 Sn14 3.480844 1_555
Ca39 Sn25 3.263037 1_556
Ca39 Sn2 3.290700 1_556
Ca39 Sn14 3.366496 1_556
Ca39 Sn20 3.442972 1_455
Ca39 Sn17 3.681715 1_455
Ca40 Sn36 3.279111 1_555
Ca40 Sn20 3.279111 1_555
Ca40 Sn26 3.285951 1_655
Ca40 Sn13 3.285951 1_555
Ca41 Sn38 3.263037 1_556
Ca41 Sn3 3.290700 1_556
Ca41 Sn14 3.366496 1_656
Ca41 Sn36 3.442972 1_555
Ca41 Sn17 3.681715 1_555
Ca42 Sn23 3.217642 1_566
Ca42 Sn4 3.232471 1_556
Ca42 Sn34 3.333364 1_555
Ca42 Sn33 3.461553 1_566
Ca42 Sn29 3.485405 1_455
Ca42 Sn35 3.534746 1_555
Ca43 Sn29 3.142365 1_555
Ca43 Sn30 3.194898 1_555
Ca43 Sn15 3.311917 1_555
Ca43 Sn27 3.395081 1_555
Ca43 Sn6 3.440801 1_555
Ca43 Sn7 3.480838 1_655
Ca44 Sn22 3.217642 1_555
Ca44 Sn24 3.232471 1_554
Ca44 Sn8 3.333364 1_555
Ca44 Sn19 3.461553 1_555
Ca44 Sn0 3.485405 1_555
Ca44 Sn13 3.534746 1_555
Ca45 Sn10 3.217642 1_456
Ca45 Sn12 3.232471 1_556
Ca45 Sn34 3.333390 1_555
Ca45 Sn33 3.461553 1_566
Ca45 Sn0 3.485405 1_455
Ca45 Sn26 3.534746 1_555
Ca46 Sn20 3.189199 1_555
Ca46 Sn32 3.189199 1_555
Ca46 Sn36 3.189199 1_555
Ca46 Sn17 3.189199 1_555
Ca47 Sn18 3.142365 1_555
Ca47 Sn2 3.194898 1_556
Ca47 Sn22 3.311917 1_556
Ca47 Sn28 3.395081 1_555
Ca47 Sn26 3.440801 1_555
Ca47 Sn20 3.480838 1_455
Ca48 Sn0 3.060703 1_555
Ca48 Sn29 3.060703 1_555
Ca48 Sn8 3.296582 1_555
Ca48 Sn34 3.296582 1_655
Ca49 Sn4 3.142380 1_545
Ca49 Sn37 3.194886 1_555
Ca49 Sn23 3.311924 1_555
Ca49 Sn35 3.395077 1_544
Ca49 Sn5 3.440813 1_555
Ca49 Sn32 3.480823 1_555
Ca50 Sn15 3.217642 1_556
Ca50 Sn21 3.232471 1_555
Ca50 Sn31 3.333373 1_555
Ca50 Sn19 3.461553 1_556
Ca50 Sn16 3.485405 1_555
Ca50 Sn5 3.534746 1_555
Ca51 Sn29 3.142380 1_455
Ca51 Sn37 3.194886 1_566
Ca51 Sn23 3.311924 1_566
Ca51 Sn27 3.395077 1_455
Ca51 Sn35 3.440813 1_555
Ca51 Sn7 3.480823 1_555
Ca52 Sn24 3.142380 1_565
Ca52 Sn3 3.194886 1_556
Ca52 Sn10 3.311924 1_556
Ca52 Sn13 3.395077 1_566
Ca52 Sn39 3.440813 1_555
Ca52 Sn9 3.480823 1_555
Ca53 Sn31 3.345995 1_565
Ca53 Sn11 3.345995 1_555
Ca53 Sn39 3.489795 1_555
Ca53 Sn28 3.489795 1_565
Ca53 Sn12 3.532105 1_555
Ca53 Sn24 3.532105 1_565
Ca54 Sn15 3.217642 1_555
Ca54 Sn29 3.232471 1_555
Ca54 Sn11 3.333373 1_555
Ca54 Sn19 3.461553 1_555
Ca54 Sn4 3.485405 1_555
Ca54 Sn27 3.534746 1_555
Ca55 Sn0 3.142380 1_555
Ca55 Sn2 3.194886 1_555
Ca55 Sn22 3.311924 1_555
Ca55 Sn39 3.395077 1_555
Ca55 Sn13 3.440813 1_555
Ca55 Sn36 3.480823 1_555
Ca56 Sn23 3.217642 1_555
Ca56 Sn21 3.232471 1_555
Ca56 Sn31 3.333373 1_555
Ca56 Sn33 3.461553 1_555
Ca56 Sn4 3.485405 1_545
Ca56 Sn5 3.534746 1_555
Ca57 Sn16 3.142369 1_555
Ca57 Sn37 3.194888 1_656
Ca57 Sn23 3.311907 1_656
Ca57 Sn6 3.395079 1_556
Ca57 Sn27 3.440807 1_545
Ca57 Sn17 3.480844 1_555
Ca58 Sn24 3.142380 1_555
Ca58 Sn2 3.194886 1_556
Ca58 Sn22 3.311924 1_556
Ca58 Sn13 3.395077 1_556
Ca58 Sn28 3.440813 1_555
Ca58 Sn9 3.480823 1_545
Ca59 Sn38 3.263024 1_556
Ca59 Sn30 3.290706 1_556
Ca59 Sn1 3.366489 1_555
Ca59 Sn17 3.442981 1_555
Ca59 Sn36 3.681700 1_555
Ca60 Sn25 3.263037 1_566
Ca60 Sn37 3.290700 1_566
Ca60 Sn32 3.366496 1_566
Ca60 Sn7 3.442972 1_555
Ca60 Sn9 3.681715 1_555
Ca61 Sn21 3.060703 1_555
Ca61 Sn18 3.060703 1_555
Ca61 Sn8 3.296582 1_455
Ca61 Sn34 3.296582 1_555
Sn0 Sn39 3.187381 1_555
Sn2 Sn25 3.097805 1_555
Sn3 Sn38 3.097805 1_555
Sn11 Sn31 3.131870 1_565
Sn12 Sn26 3.187381 1_554
Sn13 Sn24 3.187381 1_554
Sn16 Sn6 3.187381 1_556
Sn18 Sn28 3.187381 1_555
Sn21 Sn5 3.187381 1_555
Sn25 Sn37 3.097805 1_555
Sn27 Sn29 3.187381 1_555
Sn30 Sn38 3.097805 1_555
Sn34 Sn8 3.131852 1_455
Sn35 Sn4 3.187381 1_556
