# generated using pymatgen
data_CeCd11
_symmetry_space_group_name_H-M   'P 1'
_cell_length_a   9.36839263
_cell_length_b   9.36353249
_cell_length_c   9.36304288
_cell_angle_alpha   89.97980357
_cell_angle_beta   89.98881074
_cell_angle_gamma   89.98087682
_symmetry_Int_Tables_number   1
_chemical_formula_structural   CeCd11
_chemical_formula_sum   'Ce3 Cd33'
_cell_volume   821.33770103
_cell_formula_units_Z   3
loop_
 _symmetry_equiv_pos_site_id
 _symmetry_equiv_pos_as_xyz
  1  'x, y, z'
loop_
 _atom_site_type_symbol
 _atom_site_label
 _atom_site_symmetry_multiplicity
 _atom_site_fract_x
 _atom_site_fract_y
 _atom_site_fract_z
 _atom_site_occupancy
  Ce  Ce0  1  0.50000000  -0.00000000  -0.00000000  1
  Ce  Ce1  1  -0.00000000  -0.00000000  0.50000000  1
  Ce  Ce2  1  -0.00000000  0.50000000  -0.00000000  1
  Cd  Cd0  1  0.00006292  0.34513956  0.34520688  1
  Cd  Cd1  1  0.26616212  0.26621839  0.50001336  1
  Cd  Cd2  1  0.15739726  0.15741998  0.84257164  1
  Cd  Cd3  1  0.84254804  0.15745280  0.84263976  1
  Cd  Cd4  1  0.49998832  0.26664255  0.26661007  1
  Cd  Cd5  1  0.65478643  0.65474024  0.99995958  1
  Cd  Cd6  1  0.34521357  0.34525976  0.00004042  1
  Cd  Cd7  1  0.34518205  0.65465318  0.00000228  1
  Cd  Cd8  1  0.00005258  0.34513329  0.65478380  1
  Cd  Cd9  1  0.84251335  0.84262313  0.84251740  1
  Cd  Cd10  1  0.65481795  0.34534682  0.99999772  1
  Cd  Cd11  1  0.65480715  0.00002279  0.65482269  1
  Cd  Cd12  1  0.65486838  0.99999002  0.34528167  1
  Cd  Cd13  1  0.73399953  0.26610205  0.49994823  1
  Cd  Cd14  1  0.26621400  0.49998379  0.73374755  1
  Cd  Cd15  1  0.99993708  0.65486044  0.65479312  1
  Cd  Cd16  1  0.34519285  0.99997721  0.34517731  1
  Cd  Cd17  1  0.15745196  0.84254720  0.15736024  1
  Cd  Cd18  1  0.50001168  0.73335745  0.73338993  1
  Cd  Cd19  1  0.50000000  0.50000000  0.50000000  1
  Cd  Cd20  1  0.84260274  0.84258002  0.15742836  1
  Cd  Cd21  1  0.49996837  0.73344561  0.26652087  1
  Cd  Cd22  1  0.99994742  0.65486671  0.34521620  1
  Cd  Cd23  1  0.73379923  0.49995992  0.73373574  1
  Cd  Cd24  1  0.26620077  0.50004008  0.26626426  1
  Cd  Cd25  1  0.50003163  0.26655439  0.73347913  1
  Cd  Cd26  1  0.84271760  0.15743994  0.15763689  1
  Cd  Cd27  1  0.15728240  0.84256006  0.84236311  1
  Cd  Cd28  1  0.26600047  0.73389795  0.50005177  1
  Cd  Cd29  1  0.34513162  0.00000998  0.65471833  1
  Cd  Cd30  1  0.73383788  0.73378161  0.49998664  1
  Cd  Cd31  1  0.73378600  0.50001621  0.26625245  1
  Cd  Cd32  1  0.15748665  0.15737687  0.15748260  1
loop_
_geom_bond_atom_site_label_1
_geom_bond_atom_site_label_2
_geom_bond_distance
_geom_bond_site_symmetry_2
Cd0 Cd26 2.889819 1_455
Cd0 Cd32 2.890483 1_555
Cd0 Cd8 2.898582 1_555
Cd0 Cd22 2.900140 1_455
Cd0 Cd13 2.976394 1_455
Cd0 Cd1 2.976762 1_555
Cd0 Cd24 2.977825 1_555
Cd0 Cd31 2.978266 1_455
Cd0 Ce1 3.541373 1_555
Cd0 Ce2 3.542082 1_555
Cd1 Cd29 2.975813 1_555
Cd1 Cd8 2.976444 1_555
Cd1 Cd16 2.977524 1_545
Cd1 Cd4 3.093960 1_555
Cd1 Cd24 3.095168 1_555
Cd1 Cd25 3.095265 1_555
Cd1 Cd14 3.095788 1_555
Cd1 Cd19 3.097437 1_555
Cd1 Ce1 3.526404 1_555
Cd2 Cd8 2.889782 1_555
Cd2 Cd29 2.891061 1_555
Cd2 Cd6 2.892789 1_556
Cd2 Cd27 2.948203 1_545
Cd2 Cd32 2.948525 1_556
Cd2 Cd3 2.949631 1_455
Cd2 Ce2 3.825712 1_556
Cd2 Ce1 3.826460 1_555
Cd2 Ce0 3.826791 1_556
Cd3 Cd8 2.890996 1_655
Cd3 Cd9 2.947919 1_545
Cd3 Ce1 3.826448 1_655
Cd3 Ce2 3.826453 1_656
Cd3 Ce0 3.826576 1_556
Cd4 Cd6 2.978809 1_555
Cd4 Ce0 3.531205 1_555
Cd5 Cd9 2.891415 1_555
Cd5 Cd7 2.900496 1_556
Cd5 Ce0 3.542737 1_566
Cd5 Ce2 3.543389 1_656
Cd6 Cd7 2.897015 1_555
Cd6 Ce0 3.542737 1_555
Cd6 Ce2 3.543389 1_555
Cd7 Ce2 3.543669 1_555
Cd7 Ce0 3.544485 1_565
Cd8 Ce1 3.542216 1_555
Cd8 Ce2 3.543118 1_556
Cd9 Ce1 3.824847 1_665
Cd9 Ce2 3.825919 1_656
Cd9 Ce0 3.826046 1_566
Cd10 Cd3 2.891013 1_555
Cd10 Cd26 2.893113 1_556
Cd10 Cd5 2.897015 1_555
Cd10 Cd6 2.900496 1_556
Cd10 Cd23 2.975905 1_555
Cd10 Cd31 2.977171 1_556
Cd10 Cd4 2.979361 1_556
Cd10 Cd25 2.979542 1_555
Cd10 Ce2 3.543669 1_656
Cd10 Ce0 3.544485 1_556
Cd11 Cd9 2.889734 1_545
Cd11 Cd3 2.892004 1_555
Cd11 Cd12 2.898246 1_545
Cd11 Cd29 2.901162 1_555
Cd11 Cd13 2.976365 1_555
Cd11 Cd30 2.977524 1_545
Cd11 Cd25 2.978547 1_555
Cd11 Cd18 2.979857 1_545
Cd11 Ce0 3.542141 1_556
Cd11 Ce1 3.543680 1_655
Cd12 Cd26 2.890686 1_565
Cd12 Cd20 2.891061 1_555
Cd12 Cd16 2.901162 1_555
Cd12 Cd30 2.975813 1_555
Cd12 Cd13 2.976528 1_565
Cd12 Cd4 2.979712 1_565
Cd12 Cd21 2.980408 1_555
Cd12 Ce1 3.543273 1_665
Cd12 Ce0 3.543784 1_565
Cd13 Cd8 2.977456 1_655
Cd13 Cd4 3.095360 1_555
Cd13 Cd31 3.095428 1_555
Cd13 Cd25 3.095744 1_555
Cd13 Cd23 3.096753 1_555
Cd13 Cd19 3.098245 1_555
Cd13 Ce1 3.523386 1_655
Cd14 Cd6 2.976697 1_556
Cd14 Cd7 2.977171 1_556
Cd14 Cd15 2.978266 1_455
Cd14 Cd8 2.978326 1_555
Cd14 Cd25 3.093941 1_555
Cd14 Cd18 3.094472 1_555
Cd14 Cd28 3.095428 1_555
Cd14 Cd19 3.095968 1_555
Cd14 Ce2 3.525948 1_556
Cd15 Cd27 2.889819 1_655
Cd15 Cd9 2.890483 1_555
Cd15 Cd22 2.898582 1_555
Cd15 Cd8 2.900140 1_655
Cd15 Cd28 2.976394 1_655
Cd15 Cd30 2.976762 1_555
Cd15 Cd23 2.977825 1_555
Cd15 Ce1 3.541373 1_665
Cd15 Ce2 3.542082 1_656
Cd16 Cd32 2.889734 1_565
Cd16 Cd17 2.892004 1_555
Cd16 Cd29 2.898246 1_565
Cd16 Cd28 2.976365 1_555
Cd16 Cd21 2.978547 1_555
Cd16 Cd4 2.979857 1_565
Cd16 Ce0 3.542141 1_565
Cd16 Ce1 3.543680 1_565
Cd17 Cd22 2.890996 1_455
Cd17 Cd7 2.891013 1_555
Cd17 Cd32 2.947919 1_565
Cd17 Cd27 2.949332 1_554
Cd17 Cd20 2.949631 1_455
Cd17 Ce1 3.826448 1_565
Cd17 Ce2 3.826453 1_555
Cd17 Ce0 3.826576 1_565
Cd18 Cd5 2.978809 1_555
Cd18 Cd7 2.979361 1_556
Cd18 Cd29 2.979712 1_565
Cd18 Cd19 3.090806 1_555
Cd18 Cd23 3.093531 1_555
Cd18 Cd30 3.093960 1_555
Cd18 Cd28 3.095360 1_555
Cd18 Ce0 3.531205 1_566
Cd19 Cd4 3.090806 1_555
Cd19 Cd21 3.090891 1_555
Cd19 Cd25 3.090891 1_555
Cd19 Cd31 3.095968 1_555
Cd19 Cd24 3.096582 1_555
Cd19 Cd23 3.096582 1_555
Cd19 Cd30 3.097437 1_555
Cd19 Cd28 3.098245 1_555
Cd20 Cd22 2.889782 1_555
Cd20 Cd5 2.892789 1_554
Cd20 Cd26 2.948203 1_565
Cd20 Cd9 2.948525 1_554
Cd20 Ce2 3.825712 1_655
Cd20 Ce1 3.826460 1_665
Cd20 Ce0 3.826791 1_565
Cd21 Cd5 2.979106 1_554
Cd21 Cd7 2.979542 1_555
Cd21 Cd31 3.093941 1_555
Cd21 Cd24 3.094485 1_555
Cd21 Cd30 3.095265 1_555
Cd21 Cd28 3.095744 1_555
Cd21 Ce0 3.528786 1_565
Cd22 Cd30 2.976444 1_555
Cd22 Cd28 2.977456 1_655
Cd22 Cd24 2.977859 1_655
Cd22 Cd31 2.978326 1_555
Cd22 Ce1 3.542216 1_665
Cd22 Ce2 3.543118 1_655
Cd23 Cd5 2.977056 1_555
Cd23 Cd8 2.977859 1_655
Cd23 Cd25 3.094485 1_555
Cd23 Cd30 3.095168 1_555
Cd23 Ce2 3.526627 1_656
Cd24 Cd7 2.975905 1_555
Cd24 Cd6 2.977056 1_555
Cd24 Cd4 3.093531 1_555
Cd24 Cd28 3.096753 1_555
Cd24 Ce2 3.526627 1_555
Cd25 Cd6 2.979106 1_556
Cd25 Cd29 2.980408 1_555
Cd25 Ce0 3.528786 1_556
Cd26 Cd32 2.948880 1_655
Cd26 Cd3 2.949332 1_554
Cd26 Ce1 3.823229 1_655
Cd26 Ce2 3.825846 1_655
Cd26 Ce0 3.829743 1_555
Cd27 Cd29 2.890686 1_565
Cd27 Cd7 2.893113 1_556
Cd27 Cd9 2.948880 1_455
Cd27 Ce1 3.823229 1_565
Cd27 Ce2 3.825846 1_556
Cd27 Ce0 3.829743 1_566
Cd28 Cd29 2.976528 1_565
Cd28 Ce1 3.523386 1_565
Cd29 Ce1 3.543273 1_555
Cd29 Ce0 3.543784 1_556
Cd30 Cd31 3.095788 1_555
Cd30 Ce1 3.526404 1_665
Cd31 Cd5 2.976697 1_554
Cd31 Cd4 3.094472 1_555
Cd31 Ce2 3.525948 1_655
Cd32 Cd6 2.891415 1_555
Cd32 Ce1 3.824847 1_555
Cd32 Ce2 3.825919 1_555
Cd32 Ce0 3.826046 1_555
