# generated using pymatgen
data_Li2TiO3
_symmetry_space_group_name_H-M   'P 1'
_cell_length_a   5.91624652
_cell_length_b   5.91624652
_cell_length_c   13.22882006
_cell_angle_alpha   77.04219297
_cell_angle_beta   77.04219297
_cell_angle_gamma   89.28238362
_symmetry_Int_Tables_number   1
_chemical_formula_structural   Li2TiO3
_chemical_formula_sum   'Li16 Ti8 O24'
_cell_volume   439.40546657
_cell_formula_units_Z   8
loop_
 _symmetry_equiv_pos_site_id
 _symmetry_equiv_pos_as_xyz
  1  'x, y, z'
loop_
 _atom_site_type_symbol
 _atom_site_label
 _atom_site_symmetry_multiplicity
 _atom_site_fract_x
 _atom_site_fract_y
 _atom_site_fract_z
 _atom_site_occupancy
  Li  Li0  1  0.33118200  0.83536300  0.83127200  1
  Li  Li1  1  0.00000000  0.00000000  0.00000000  1
  Li  Li2  1  0.66881800  0.16463700  0.16872800  1
  Li  Li3  1  0.83532400  0.83645500  0.83268700  1
  Li  Li4  1  0.33053700  0.33473900  0.33048300  1
  Li  Li5  1  0.50000000  0.00000000  0.00000000  1
  Li  Li6  1  0.16467600  0.16354500  0.16731300  1
  Li  Li7  1  0.00000000  0.50000000  0.50000000  1
  Li  Li8  1  0.00000000  0.00000000  0.50000000  1
  Li  Li9  1  0.66946300  0.66526100  0.66951700  1
  Li  Li10  1  0.83536300  0.33118200  0.33127200  1
  Li  Li11  1  0.83645500  0.83532400  0.33268700  1
  Li  Li12  1  0.33473900  0.33053700  0.83048300  1
  Li  Li13  1  0.16463700  0.66881800  0.66872800  1
  Li  Li14  1  0.16354500  0.16467600  0.66731300  1
  Li  Li15  1  0.66526100  0.66946300  0.16951700  1
  Ti  Ti0  1  0.32873200  0.85645200  0.32530200  1
  Ti  Ti1  1  0.67126800  0.14354800  0.67469800  1
  Ti  Ti2  1  0.50000000  0.50000000  0.50000000  1
  Ti  Ti3  1  0.50000000  0.00000000  0.50000000  1
  Ti  Ti4  1  0.00000000  0.50000000  0.00000000  1
  Ti  Ti5  1  0.85645200  0.32873200  0.82530200  1
  Ti  Ti6  1  0.50000000  0.50000000  0.00000000  1
  Ti  Ti7  1  0.14354800  0.67126800  0.17469800  1
  O  O0  1  0.75204400  0.72233700  0.00057900  1
  O  O1  1  0.40287900  0.89978200  0.17512700  1
  O  O2  1  0.09895600  0.06405800  0.33579400  1
  O  O3  1  0.24558400  0.73296600  0.00264300  1
  O  O4  1  0.72233700  0.75204400  0.50057900  1
  O  O5  1  0.93594200  0.90104300  0.16420600  1
  O  O6  1  0.73296600  0.24558400  0.50264300  1
  O  O7  1  0.43165600  0.93445600  0.65845100  1
  O  O8  1  0.43339500  0.41489600  0.65345800  1
  O  O9  1  0.56834400  0.06554400  0.34154900  1
  O  O10  1  0.06405800  0.09895600  0.83579400  1
  O  O11  1  0.06554400  0.56834400  0.84154900  1
  O  O12  1  0.26703400  0.75441600  0.49735700  1
  O  O13  1  0.27766300  0.24795600  0.49942100  1
  O  O14  1  0.90104400  0.93594200  0.66420600  1
  O  O15  1  0.75441600  0.26703400  0.99735700  1
  O  O16  1  0.89978200  0.40287900  0.67512700  1
  O  O17  1  0.41489600  0.43339500  0.15345800  1
  O  O18  1  0.59712100  0.10021800  0.82487300  1
  O  O19  1  0.58510400  0.56660500  0.84654200  1
  O  O20  1  0.24795600  0.27766300  0.99942100  1
  O  O21  1  0.10021800  0.59712100  0.32487300  1
  O  O22  1  0.93445600  0.43165600  0.15845100  1
  O  O23  1  0.56660500  0.58510400  0.34654200  1
loop_
_geom_bond_atom_site_label_1
_geom_bond_atom_site_label_2
_geom_bond_distance
_geom_bond_site_symmetry_2
Li0 O3 2.154022 1_556
Li0 O7 2.173020 1_555
Li0 O19 2.181294 1_555
Li0 O11 2.203182 1_555
Li0 O10 2.206998 1_565
Li0 O18 2.209184 1_565
Li1 O10 2.066659 1_554
Li1 O5 2.066659 1_445
Li1 O15 2.132756 1_454
Li1 O3 2.132756 1_545
Li1 O20 2.213657 1_554
Li1 O0 2.213657 1_445
Li2 O15 2.154022 1_554
Li2 O9 2.173020 1_555
Li2 O17 2.181294 1_555
Li2 O22 2.203182 1_555
Li2 O5 2.207002 1_545
Li2 O1 2.209184 1_545
Li3 O11 2.078233 1_655
Li3 O10 2.085918 1_665
Li3 O18 2.090393 1_565
Li3 O0 2.115792 1_556
Li3 O14 2.119896 1_555
Li3 O19 2.140133 1_555
Li4 O21 2.052472 1_555
Li4 O2 2.099511 1_555
Li4 O9 2.114001 1_555
Li4 O23 2.125028 1_555
Li4 O13 2.128834 1_555
Li4 O17 2.223530 1_555
Li5 O15 2.184925 1_554
Li5 O3 2.184925 1_545
Li5 O1 2.201008 1_545
Li5 O18 2.201008 1_554
Li5 O0 2.204600 1_545
Li5 O20 2.204600 1_554
Li6 O22 2.078233 1_455
Li6 O5 2.085922 1_445
Li6 O1 2.090393 1_545
Li6 O20 2.115792 1_554
Li6 O2 2.119896 1_555
Li6 O17 2.140133 1_555
Li7 O6 2.184925 1_455
Li7 O12 2.184925 1_555
Li7 O16 2.201008 1_455
Li7 O21 2.201008 1_555
Li7 O4 2.204600 1_455
Li7 O13 2.204600 1_555
Li8 O14 2.066659 1_445
Li8 O2 2.066659 1_555
Li8 O12 2.132756 1_545
Li8 O6 2.132756 1_455
Li8 O13 2.213657 1_555
Li8 O4 2.213657 1_445
Li9 O16 2.052472 1_555
Li9 O14 2.099511 1_555
Li9 O7 2.114001 1_555
Li9 O8 2.125028 1_555
Li9 O4 2.128834 1_555
Li9 O19 2.223530 1_555
Li10 O6 2.154022 1_555
Li10 O22 2.173020 1_555
Li10 O23 2.181294 1_555
Li10 O9 2.203182 1_555
Li10 O2 2.206998 1_655
Li10 O21 2.209184 1_655
Li11 O9 2.078233 1_565
Li11 O2 2.085918 1_665
Li11 O21 2.090393 1_655
Li11 O4 2.115792 1_555
Li11 O5 2.119896 1_555
Li11 O23 2.140133 1_555
Li12 O18 2.052472 1_555
Li12 O10 2.099511 1_555
Li12 O11 2.114001 1_555
Li12 O19 2.125028 1_555
Li12 O20 2.128834 1_555
Li12 O8 2.223530 1_555
Li13 O12 2.154022 1_555
Li13 O11 2.173020 1_555
Li13 O8 2.181294 1_555
Li13 O7 2.203182 1_555
Li13 O14 2.206998 1_455
Li13 O16 2.209184 1_455
Li14 O7 2.078233 1_545
Li14 O14 2.085918 1_445
Li14 O16 2.090393 1_455
Li14 O13 2.115792 1_555
Li14 O10 2.119896 1_555
Li14 O8 2.140133 1_555
Li15 O1 2.052472 1_555
Li15 O5 2.099507 1_555
Li15 O22 2.114001 1_555
Li15 O17 2.125028 1_555
Li15 O0 2.128834 1_555
Li15 O23 2.223530 1_555
O0 Ti4 1.957927 1_655
O0 Ti6 2.003160 1_555
O1 Ti0 1.894326 1_555
O1 Ti7 2.059384 1_555
O2 Ti0 1.823697 1_545
O3 Ti4 2.026442 1_555
O3 Ti6 2.027936 1_555
O3 Ti7 2.166783 1_555
O4 Ti3 1.957927 1_565
O4 Ti2 2.003160 1_555
O5 Ti7 1.823692 1_655
O6 Ti3 2.026442 1_555
O6 Ti2 2.027936 1_555
O6 Ti1 2.166783 1_555
O7 Ti1 1.971260 1_565
O7 Ti3 1.991704 1_565
O8 Ti2 1.928157 1_555
O8 Ti1 2.134274 1_555
O9 Ti0 1.971260 1_545
O9 Ti3 1.991704 1_555
O10 Ti5 1.823697 1_455
O11 Ti5 1.971260 1_455
O11 Ti4 1.991704 1_556
O12 Ti3 2.026442 1_565
O12 Ti2 2.027936 1_555
O12 Ti0 2.166783 1_555
O13 Ti3 1.957927 1_555
O13 Ti2 2.003160 1_555
O14 Ti1 1.823697 1_565
O15 Ti4 2.026442 1_656
O15 Ti6 2.027936 1_556
O15 Ti5 2.166783 1_555
O16 Ti5 1.894326 1_555
O16 Ti1 2.059384 1_555
O17 Ti6 1.928157 1_555
O17 Ti7 2.134274 1_555
O18 Ti1 1.894326 1_555
O18 Ti5 2.059384 1_555
O19 Ti6 1.928157 1_556
O19 Ti5 2.134274 1_555
O20 Ti4 1.957927 1_556
O20 Ti6 2.003160 1_556
O21 Ti7 1.894326 1_555
O21 Ti0 2.059384 1_555
O22 Ti7 1.971260 1_655
O22 Ti4 1.991704 1_655
O23 Ti2 1.928157 1_555
O23 Ti0 2.134274 1_555
