# generated using pymatgen
data_LiSb(PO3)4
_symmetry_space_group_name_H-M   'P 1'
_cell_length_a   8.34477600
_cell_length_b   9.92278300
_cell_length_c   13.47690200
_cell_angle_alpha   90.00000000
_cell_angle_beta   90.00000000
_cell_angle_gamma   90.00000000
_symmetry_Int_Tables_number   1
_chemical_formula_structural   LiSb(PO3)4
_chemical_formula_sum   'Li4 Sb4 P16 O48'
_cell_volume   1115.93332636
_cell_formula_units_Z   4
loop_
 _symmetry_equiv_pos_site_id
 _symmetry_equiv_pos_as_xyz
  1  'x, y, z'
loop_
 _atom_site_type_symbol
 _atom_site_label
 _atom_site_symmetry_multiplicity
 _atom_site_fract_x
 _atom_site_fract_y
 _atom_site_fract_z
 _atom_site_occupancy
  Li  Li0  1  0.48621100  0.75000000  0.50000000  1
  Li  Li1  1  0.01378900  0.25000000  0.00000000  1
  Li  Li2  1  0.51378900  0.25000000  0.50000000  1
  Li  Li3  1  0.98621100  0.75000000  0.00000000  1
  Sb  Sb0  1  0.12519900  0.25000000  0.50000000  1
  Sb  Sb1  1  0.62519900  0.25000000  0.00000000  1
  Sb  Sb2  1  0.87480100  0.75000000  0.50000000  1
  Sb  Sb3  1  0.37480100  0.75000000  0.00000000  1
  P  P0  1  0.03707100  0.50891300  0.34205700  1
  P  P1  1  0.17224800  0.99679100  0.86151700  1
  P  P2  1  0.96292900  0.00891300  0.34205700  1
  P  P3  1  0.82775200  0.49679100  0.86151700  1
  P  P4  1  0.46292900  0.00891300  0.15794300  1
  P  P5  1  0.32775200  0.00320900  0.36151700  1
  P  P6  1  0.67224800  0.50320900  0.36151700  1
  P  P7  1  0.17224800  0.50320900  0.13848300  1
  P  P8  1  0.03707100  0.99108700  0.65794300  1
  P  P9  1  0.53707100  0.50891300  0.15794300  1
  P  P10  1  0.82775200  0.00320900  0.13848300  1
  P  P11  1  0.32775200  0.49679100  0.63848300  1
  P  P12  1  0.46292900  0.49108700  0.84205700  1
  P  P13  1  0.53707100  0.99108700  0.84205700  1
  P  P14  1  0.67224800  0.99679100  0.63848300  1
  P  P15  1  0.96292900  0.49108700  0.65794300  1
  O  O0  1  0.62804300  0.38047300  0.13796700  1
  O  O1  1  0.94730000  0.11873200  0.41924400  1
  O  O2  1  0.37195700  0.88047300  0.13796700  1
  O  O3  1  0.44730000  0.11873200  0.08075600  1
  O  O4  1  0.40561200  0.06858100  0.26205200  1
  O  O5  1  0.40365300  0.62523000  0.60697000  1
  O  O6  1  0.17177900  0.62258500  0.06705500  1
  O  O7  1  0.40561200  0.43141900  0.73794800  1
  O  O8  1  0.17177900  0.87741500  0.93294500  1
  O  O9  1  0.35253800  0.02661100  0.82272900  1
  O  O10  1  0.85253800  0.02661100  0.67727100  1
  O  O11  1  0.09438800  0.93141900  0.76205200  1
  O  O12  1  0.12804300  0.38047300  0.36203300  1
  O  O13  1  0.64746200  0.52661100  0.82272900  1
  O  O14  1  0.44730000  0.38126800  0.91924400  1
  O  O15  1  0.05270000  0.88126800  0.58075600  1
  O  O16  1  0.55270000  0.88126800  0.91924400  1
  O  O17  1  0.59634700  0.12523000  0.60697000  1
  O  O18  1  0.37195700  0.61952700  0.86203300  1
  O  O19  1  0.94730000  0.38126800  0.58075600  1
  O  O20  1  0.90561200  0.06858100  0.23794800  1
  O  O21  1  0.40365300  0.87477000  0.39303000  1
  O  O22  1  0.82822100  0.12258500  0.06705500  1
  O  O23  1  0.32822100  0.12258500  0.43294500  1
  O  O24  1  0.85253800  0.47338900  0.32272900  1
  O  O25  1  0.55270000  0.61873200  0.08075600  1
  O  O26  1  0.12804300  0.11952700  0.63796700  1
  O  O27  1  0.09438800  0.56858100  0.23794800  1
  O  O28  1  0.67177900  0.87741500  0.56705500  1
  O  O29  1  0.87195700  0.61952700  0.63796700  1
  O  O30  1  0.59438800  0.93141900  0.73794800  1
  O  O31  1  0.67177900  0.62258500  0.43294500  1
  O  O32  1  0.32822100  0.37741500  0.56705500  1
  O  O33  1  0.87195700  0.88047300  0.36203300  1
  O  O34  1  0.05270000  0.61873200  0.41924400  1
  O  O35  1  0.59438800  0.56858100  0.26205200  1
  O  O36  1  0.90561200  0.43141900  0.76205200  1
  O  O37  1  0.90365300  0.87477000  0.10697000  1
  O  O38  1  0.14746200  0.97338900  0.32272900  1
  O  O39  1  0.90365300  0.62523000  0.89303000  1
  O  O40  1  0.62804300  0.11952700  0.86203300  1
  O  O41  1  0.09634700  0.12523000  0.89303000  1
  O  O42  1  0.09634700  0.37477000  0.10697000  1
  O  O43  1  0.64746200  0.97338900  0.17727100  1
  O  O44  1  0.14746200  0.52661100  0.67727100  1
  O  O45  1  0.59634700  0.37477000  0.39303000  1
  O  O46  1  0.82822100  0.37741500  0.93294500  1
  O  O47  1  0.35253800  0.47338900  0.17727100  1
loop_
_geom_bond_atom_site_label_1
_geom_bond_atom_site_label_2
_geom_bond_distance
_geom_bond_site_symmetry_2
Li0 O21 2.021314 1_555
Li0 O5 2.021314 1_555
Li0 O28 2.193871 1_555
Li0 O31 2.193871 1_555
Li1 O41 2.021314 1_554
Li1 O42 2.021314 1_555
Li1 O46 2.193871 1_454
Li1 O22 2.193871 1_455
Li2 O45 2.021314 1_555
Li2 O17 2.021314 1_555
Li2 O23 2.193871 1_555
Li2 O32 2.193871 1_555
Li3 O39 2.021314 1_554
Li3 O37 2.021314 1_555
Li3 O8 2.193871 1_654
Li3 O6 2.193871 1_655
O0 P9 1.507673 1_555
O0 Sb1 2.265821 1_555
O1 P2 1.512144 1_555
O1 Sb0 2.254978 1_655
O2 P4 1.507673 1_565
O2 Sb3 2.265821 1_555
O3 P4 1.512144 1_555
O3 Sb1 2.254978 1_555
O4 P4 1.596219 1_555
O4 P5 1.624747 1_555
O5 P11 1.485198 1_555
O6 P7 1.526371 1_555
O6 Sb3 2.298993 1_555
O7 P12 1.596219 1_555
O7 P11 1.624747 1_555
O8 P1 1.526371 1_555
O8 Sb3 2.298993 1_556
O9 P13 1.601048 1_545
O9 P1 1.619961 1_545
O10 P8 1.601048 1_645
O10 P14 1.619961 1_545
O11 P8 1.596219 1_555
O11 P1 1.624747 1_555
O12 P0 1.507673 1_555
O12 Sb0 2.265821 1_555
O13 P12 1.601048 1_555
O13 P3 1.619961 1_555
O14 P12 1.512144 1_555
O14 Sb1 2.254978 1_556
O15 P8 1.512144 1_555
O15 Sb2 2.254978 1_455
O16 P13 1.512144 1_555
O16 Sb3 2.254978 1_556
O17 P14 1.485198 1_545
O18 P12 1.507673 1_555
O18 Sb3 2.265821 1_556
O19 P15 1.512144 1_555
O19 Sb0 2.254978 1_655
O20 P2 1.596219 1_555
O20 P10 1.624747 1_555
O21 P5 1.485198 1_565
O22 P10 1.526371 1_555
O22 Sb1 2.298993 1_555
O23 P5 1.526371 1_555
O23 Sb0 2.298993 1_555
O24 P0 1.601048 1_655
O24 P6 1.619961 1_555
O25 P9 1.512144 1_555
O25 Sb3 2.254978 1_555
O26 P8 1.507673 1_545
O26 Sb0 2.265821 1_555
O27 P0 1.596219 1_555
O27 P7 1.624747 1_555
O28 P14 1.526371 1_555
O28 Sb2 2.298993 1_555
O29 P15 1.507673 1_555
O29 Sb2 2.265821 1_555
O30 P13 1.596219 1_555
O30 P14 1.624747 1_555
O31 P6 1.526371 1_555
O31 Sb2 2.298993 1_555
O32 P11 1.526371 1_555
O32 Sb0 2.298993 1_555
O33 P2 1.507673 1_565
O33 Sb2 2.265821 1_555
O34 P0 1.512144 1_555
O34 Sb2 2.254978 1_455
O35 P9 1.596219 1_555
O35 P6 1.624747 1_555
O36 P15 1.596219 1_555
O36 P3 1.624747 1_555
O37 P10 1.485198 1_565
O38 P2 1.601048 1_465
O38 P5 1.619961 1_565
O39 P3 1.485198 1_555
O40 P13 1.507673 1_545
O40 Sb1 2.265821 1_556
O41 P1 1.485198 1_545
O42 P7 1.485198 1_555
O43 P4 1.601048 1_565
O43 P10 1.619961 1_565
O44 P15 1.601048 1_455
O44 P11 1.619961 1_555
O45 P6 1.485198 1_555
O46 P3 1.526371 1_555
O46 Sb1 2.298993 1_556
O47 P9 1.601048 1_555
O47 P7 1.619961 1_555
