# generated using pymatgen
data_LiMo6Cl13
_symmetry_space_group_name_H-M   'P 1'
_cell_length_a   8.90894700
_cell_length_b   9.07120508
_cell_length_c   13.98081311
_cell_angle_alpha   95.60385114
_cell_angle_beta   102.91572809
_cell_angle_gamma   113.72993577
_symmetry_Int_Tables_number   1
_chemical_formula_structural   LiMo6Cl13
_chemical_formula_sum   'Li2 Mo12 Cl26'
_cell_volume   985.62884987
_cell_formula_units_Z   2
loop_
 _symmetry_equiv_pos_site_id
 _symmetry_equiv_pos_as_xyz
  1  'x, y, z'
loop_
 _atom_site_type_symbol
 _atom_site_label
 _atom_site_symmetry_multiplicity
 _atom_site_fract_x
 _atom_site_fract_y
 _atom_site_fract_z
 _atom_site_occupancy
  Li  Li0  1  0.03035300  0.26758800  0.27364100  1
  Li  Li1  1  0.96964700  0.73241200  0.72635900  1
  Mo  Mo0  1  0.60705400  0.22943200  0.52904000  1
  Mo  Mo1  1  0.54796400  0.69266000  0.08700000  1
  Mo  Mo2  1  0.56159100  0.99588100  0.38096800  1
  Mo  Mo3  1  0.39294600  0.77056800  0.47096000  1
  Mo  Mo4  1  0.70346600  0.99724100  0.56817000  1
  Mo  Mo5  1  0.45203600  0.30734000  0.91300000  1
  Mo  Mo6  1  0.35577200  0.54537600  0.90089200  1
  Mo  Mo7  1  0.43840900  0.00411900  0.61903200  1
  Mo  Mo8  1  0.29653400  0.00275900  0.43183000  1
  Mo  Mo9  1  0.68453800  0.61632500  0.95301900  1
  Mo  Mo10  1  0.31546200  0.38367500  0.04698100  1
  Mo  Mo11  1  0.64422800  0.45462400  0.09910800  1
  Cl  Cl0  1  0.46897600  0.21537600  0.35059800  1
  Cl  Cl1  1  0.65364200  0.78320800  0.42736000  1
  Cl  Cl2  1  0.25204800  0.46816900  0.42504200  1
  Cl  Cl3  1  0.26370800  0.78285700  0.29645300  1
  Cl  Cl4  1  0.37872800  0.03679600  0.79266700  1
  Cl  Cl5  1  0.14919200  0.78677000  0.52045800  1
  Cl  Cl6  1  0.34635800  0.21679200  0.57264000  1
  Cl  Cl7  1  0.96628000  0.98169200  0.65493500  1
  Cl  Cl8  1  0.03372000  0.01830800  0.34506500  1
  Cl  Cl9  1  0.50339300  0.52770200  0.21830000  1
  Cl  Cl10  1  0.62127200  0.96320400  0.20733300  1
  Cl  Cl11  1  0.85447000  0.74823200  0.12868300  1
  Cl  Cl12  1  0.49660700  0.47229800  0.78170000  1
  Cl  Cl13  1  0.74795200  0.53183100  0.57495800  1
  Cl  Cl14  1  0.53102400  0.78462400  0.64940200  1
  Cl  Cl15  1  0.58353500  0.83506100  0.94479300  1
  Cl  Cl16  1  0.73629200  0.21714300  0.70354700  1
  Cl  Cl17  1  0.76441900  0.38302100  0.96716300  1
  Cl  Cl18  1  0.14553000  0.25176800  0.87131700  1
  Cl  Cl19  1  0.07116500  0.22356400  0.10821500  1
  Cl  Cl20  1  0.83698300  0.41114500  0.23829100  1
  Cl  Cl21  1  0.85080800  0.21323000  0.47954200  1
  Cl  Cl22  1  0.92883500  0.77643600  0.89178500  1
  Cl  Cl23  1  0.16301700  0.58885500  0.76170900  1
  Cl  Cl24  1  0.41646500  0.16493900  0.05520700  1
  Cl  Cl25  1  0.23558100  0.61697900  0.03283700  1
loop_
_geom_bond_atom_site_label_1
_geom_bond_atom_site_label_2
_geom_bond_distance
_geom_bond_site_symmetry_2
Cl0 Mo2 2.481177 1_545
Cl0 Mo8 2.488524 1_555
Cl0 Mo0 2.488586 1_555
Cl1 Mo4 2.451815 1_555
Cl1 Mo2 2.468799 1_555
Cl1 Mo3 2.492196 1_555
Cl2 Mo3 2.457029 1_555
Cl2 Li0 2.485667 1_555
Cl3 Mo3 2.488200 1_555
Cl3 Mo8 2.488492 1_565
Cl3 Mo2 2.489556 1_555
Cl4 Mo5 2.586930 1_555
Cl4 Mo7 2.612837 1_555
Cl5 Mo3 2.474898 1_555
Cl5 Mo7 2.493737 1_565
Cl5 Mo8 2.495691 1_565
Cl6 Mo8 2.451815 1_555
Cl6 Mo7 2.468799 1_555
Cl6 Mo0 2.492196 1_555
Cl7 Mo4 2.450112 1_555
Cl7 Li1 2.567795 1_555
Cl8 Mo8 2.450112 1_555
Cl8 Li0 2.567795 1_555
Cl9 Mo10 2.466292 1_555
Cl9 Mo1 2.480040 1_555
Cl9 Mo11 2.485749 1_555
Cl10 Mo1 2.586930 1_555
Cl10 Mo2 2.612837 1_555
Cl11 Mo9 2.461962 1_554
Cl11 Mo1 2.484654 1_555
Cl11 Mo11 2.489264 1_555
Cl12 Mo9 2.466292 1_555
Cl12 Mo5 2.480040 1_555
Cl12 Mo6 2.485749 1_555
Cl13 Mo0 2.457029 1_555
Cl13 Li1 2.485667 1_555
Cl14 Mo7 2.481177 1_565
Cl14 Mo4 2.488524 1_555
Cl14 Mo3 2.488586 1_555
Cl15 Mo1 2.485078 1_556
Cl15 Mo9 2.489034 1_555
Cl15 Mo6 2.497209 1_555
Cl16 Mo0 2.488200 1_555
Cl16 Mo4 2.488492 1_545
Cl16 Mo7 2.489556 1_555
Cl17 Mo11 2.485987 1_556
Cl17 Mo5 2.491682 1_555
Cl17 Mo9 2.501101 1_555
Cl18 Mo10 2.461962 1_556
Cl18 Mo5 2.484654 1_555
Cl18 Mo6 2.489264 1_555
Cl19 Li0 2.439893 1_555
Cl19 Mo10 2.472006 1_555
Cl20 Mo11 2.468235 1_555
Cl20 Li0 2.541363 1_655
Cl21 Mo0 2.474898 1_555
Cl21 Mo2 2.493737 1_545
Cl21 Mo4 2.495691 1_545
Cl22 Li1 2.439893 1_555
Cl22 Mo9 2.472006 1_555
Cl23 Mo6 2.468235 1_555
Cl23 Li1 2.541363 1_455
Cl24 Mo5 2.485078 1_554
Cl24 Mo10 2.489034 1_555
Cl24 Mo11 2.497209 1_555
Cl25 Mo6 2.485987 1_554
Cl25 Mo1 2.491682 1_555
Cl25 Mo10 2.501101 1_555
