# generated using pymatgen
data_Ba6Nb5S17
_symmetry_space_group_name_H-M   'P 1'
_cell_length_a   8.85385470
_cell_length_b   9.06356105
_cell_length_c   9.05340787
_cell_angle_alpha   83.14436434
_cell_angle_beta   84.92525087
_cell_angle_gamma   82.51693070
_symmetry_Int_Tables_number   1
_chemical_formula_structural   Ba6Nb5S17
_chemical_formula_sum   'Ba6 Nb5 S17'
_cell_volume   713.21089777
_cell_formula_units_Z   1
loop_
 _symmetry_equiv_pos_site_id
 _symmetry_equiv_pos_as_xyz
  1  'x, y, z'
loop_
 _atom_site_type_symbol
 _atom_site_label
 _atom_site_symmetry_multiplicity
 _atom_site_fract_x
 _atom_site_fract_y
 _atom_site_fract_z
 _atom_site_occupancy
  Ba  Ba0  1  0.24492408  0.90315337  0.59033973  1
  Ba  Ba1  1  0.08734361  0.41196832  0.74381450  1
  Ba  Ba2  1  0.57877255  0.25871067  0.89382174  1
  Ba  Ba3  1  0.41615377  0.72078337  0.08846306  1
  Ba  Ba4  1  0.91256440  0.59151377  0.26248620  1
  Ba  Ba5  1  0.76425844  0.09071762  0.41971708  1
  Nb  Nb0  1  0.00808824  0.99343026  0.00253651  1
  Nb  Nb1  1  0.13611329  0.20381722  0.16633719  1
  Nb  Nb2  1  0.66448805  0.68094024  0.65001501  1
  Nb  Nb3  1  0.47578280  0.46580204  0.48657576  1
  Nb  Nb4  1  0.82561287  0.83251587  0.84172310  1
  S  S0  1  0.07716391  0.25065010  0.41148734  1
  S  S1  1  0.10689543  0.93027921  0.25553138  1
  S  S2  1  0.24613288  0.58553736  0.41039588  1
  S  S3  1  0.08451750  0.73851249  0.93871677  1
  S  S4  1  0.41539399  0.58156837  0.73582276  1
  S  S5  1  0.26540991  0.40349123  0.07013805  1
  S  S6  1  0.41697275  0.23279441  0.57855257  1
  S  S7  1  0.26497617  0.07373443  0.94224660  1
  S  S8  1  0.56953307  0.91772206  0.76014996  1
  S  S9  1  0.74194500  0.93222978  0.08789283  1
  S  S10  1  0.57552801  0.78026526  0.41196581  1
  S  S11  1  0.75112031  0.58439996  0.91926761  1
  S  S12  1  0.60657015  0.42036733  0.25752477  1
  S  S13  1  0.90167582  0.25565245  0.06576545  1
  S  S14  1  0.75014597  0.42514038  0.58788710  1
  S  S15  1  0.92586534  0.07865523  0.74667246  1
  S  S16  1  0.92611570  0.74891319  0.59082179  1
loop_
_geom_bond_atom_site_label_1
_geom_bond_atom_site_label_2
_geom_bond_distance
_geom_bond_site_symmetry_2
Ba0 S4 3.285981 1_555
Ba0 S16 3.308479 1_455
Ba0 S1 3.337815 1_555
Ba0 S10 3.340724 1_555
Ba0 S15 3.342640 1_465
Ba0 S8 3.401471 1_555
Ba0 S2 3.471268 1_555
Ba0 S6 3.512670 1_565
Ba0 S0 3.568930 1_565
Ba0 S3 3.581540 1_555
Ba0 S7 3.730909 1_565
Ba1 S16 3.389265 1_455
Ba1 S14 3.395999 1_455
Ba1 S4 3.450149 1_555
Ba1 S5 3.458016 1_556
Ba1 S6 3.459257 1_555
Ba1 S13 3.460991 1_456
Ba1 S2 3.500681 1_555
Ba1 S15 3.502995 1_455
Ba1 S0 3.511504 1_555
Ba1 S11 3.517350 1_455
Ba1 S7 3.609435 1_555
Ba1 S3 3.618482 1_555
Ba2 S5 3.276576 1_556
Ba2 S4 3.311449 1_555
Ba2 S14 3.332327 1_555
Ba2 S6 3.350411 1_555
Ba2 S13 3.369559 1_556
Ba2 S7 3.397687 1_555
Ba2 S8 3.463979 1_545
Ba2 S9 3.467671 1_546
Ba2 S15 3.517170 1_555
Ba2 S11 3.534559 1_555
Ba2 S12 3.799820 1_556
Ba3 S12 3.296174 1_555
Ba3 S3 3.318845 1_554
Ba3 S2 3.333915 1_555
Ba3 S5 3.351397 1_555
Ba3 S11 3.370981 1_554
Ba3 S7 3.459001 1_564
Ba3 S1 3.462550 1_555
Ba3 S10 3.487965 1_555
Ba3 S8 3.537766 1_554
Ba3 S4 3.571070 1_554
Ba3 S9 3.664437 1_555
Ba4 S12 3.298626 1_555
Ba4 S2 3.340528 1_655
Ba4 S3 3.389909 1_654
Ba4 S0 3.415892 1_655
Ba4 S14 3.431534 1_555
Ba4 S16 3.464931 1_555
Ba4 S10 3.488754 1_555
Ba4 S9 3.515525 1_555
Ba4 S11 3.544044 1_554
Ba4 S1 3.701694 1_655
Ba4 S13 3.721411 1_555
Ba4 S5 3.749085 1_655
Ba5 S0 3.281112 1_655
Ba5 S12 3.355761 1_555
Ba5 S15 3.384155 1_555
Ba5 S6 3.436439 1_555
Ba5 S10 3.465139 1_545
Ba5 S1 3.477985 1_645
Ba5 S16 3.484448 1_545
Ba5 S9 3.512330 1_545
Ba5 S14 3.534177 1_555
Ba5 S13 3.553027 1_555
Ba5 S8 3.679736 1_545
Nb0 S3 2.443827 1_554
Nb0 S7 2.473361 1_564
Nb0 S15 2.493437 1_464
Nb0 S1 2.500048 1_555
Nb0 S9 2.524562 1_455
Nb0 S13 2.551479 1_465
Nb1 S5 2.308939 1_555
Nb1 S13 2.310069 1_455
Nb1 S0 2.311016 1_555
Nb1 S1 2.552981 1_545
Nb1 S7 2.572731 1_554
Nb2 S10 2.393311 1_555
Nb2 S14 2.458591 1_555
Nb2 S16 2.470989 1_555
Nb2 S8 2.489841 1_555
Nb2 S4 2.515136 1_555
Nb2 S11 2.634932 1_555
Nb3 S6 2.283513 1_555
Nb3 S2 2.298327 1_555
Nb3 S12 2.337847 1_555
Nb3 S4 2.585429 1_555
Nb3 S14 2.637852 1_555
Nb3 S10 3.074091 1_555
Nb4 S11 2.431569 1_555
Nb4 S8 2.446717 1_555
Nb4 S9 2.519315 1_556
Nb4 S16 2.530504 1_555
Nb4 S3 2.533863 1_655
Nb4 S15 2.535276 1_565
