# generated using pymatgen
data_Pb4SeBr6
_symmetry_space_group_name_H-M   'P 1'
_cell_length_a   9.65353821
_cell_length_b   9.65353821
_cell_length_c   10.17135553
_cell_angle_alpha   59.32996063
_cell_angle_beta   59.32996063
_cell_angle_gamma   26.42956967
_symmetry_Int_Tables_number   1
_chemical_formula_structural   Pb4SeBr6
_chemical_formula_sum   'Pb4 Se1 Br6'
_cell_volume   359.34610501
_cell_formula_units_Z   1
loop_
 _symmetry_equiv_pos_site_id
 _symmetry_equiv_pos_as_xyz
  1  'x, y, z'
loop_
 _atom_site_type_symbol
 _atom_site_label
 _atom_site_symmetry_multiplicity
 _atom_site_fract_x
 _atom_site_fract_y
 _atom_site_fract_z
 _atom_site_occupancy
  Pb  Pb0  1  0.99556000  0.99556000  0.99812800  1
  Pb  Pb1  1  0.75257900  0.75257900  0.01865700  1
  Pb  Pb2  1  0.49552700  0.49552700  0.53579300  1
  Pb  Pb3  1  0.23313900  0.23313900  0.54080900  1
  Se  Se0  1  0.00383700  0.00383700  0.70743100  1
  Br  Br0  1  0.63171300  0.63171300  0.83597900  1
  Br  Br1  1  0.36167000  0.36167000  0.09979100  1
  Br  Br2  1  0.87139600  0.87139600  0.41870600  1
  Br  Br3  1  0.11903100  0.11903100  0.16860500  1
  Br  Br4  1  0.68735500  0.68735500  0.38285900  1
  Br  Br5  1  0.30671900  0.30671900  0.76788300  1
loop_
_geom_bond_atom_site_label_1
_geom_bond_atom_site_label_2
_geom_bond_distance
_geom_bond_site_symmetry_2
Pb0 Se0 2.878319 1_665
Pb2 Se0 2.868446 1_655
Pb2 Se0 2.868446 1_565
Br0 Pb0 3.117081 1_455
Br0 Pb0 3.117081 1_545
Br0 Pb3 3.394138 1_655
Br0 Pb3 3.394138 1_565
Br1 Pb0 3.089570 1_544
Br1 Pb0 3.089570 1_454
Br1 Pb1 3.395391 1_545
Br1 Pb1 3.395391 1_455
Br2 Pb3 3.127841 1_655
Br2 Pb3 3.127841 1_565
Br3 Pb1 3.079790 1_545
Br3 Pb1 3.079790 1_455
Br4 Pb2 3.089069 1_555
Br4 Pb3 3.104907 1_655
Br4 Pb3 3.104907 1_565
Br4 Pb1 3.235215 1_555
Br5 Pb2 3.063923 1_555
Br5 Pb1 3.113143 1_456
Br5 Pb1 3.113143 1_546
Br5 Pb3 3.254923 1_555
