# generated using pymatgen
data_Pr2SbO2
_symmetry_space_group_name_H-M   'P 1'
_cell_length_a   4.04837585
_cell_length_b   4.04837585
_cell_length_c   7.18963902
_cell_angle_alpha   75.05983377
_cell_angle_beta   75.05983377
_cell_angle_gamma   90.01132852
_symmetry_Int_Tables_number   1
_chemical_formula_structural   Pr2SbO2
_chemical_formula_sum   'Pr2 Sb1 O2'
_cell_volume   109.72072666
_cell_formula_units_Z   1
loop_
 _symmetry_equiv_pos_site_id
 _symmetry_equiv_pos_as_xyz
  1  'x, y, z'
loop_
 _atom_site_type_symbol
 _atom_site_label
 _atom_site_symmetry_multiplicity
 _atom_site_fract_x
 _atom_site_fract_y
 _atom_site_fract_z
 _atom_site_occupancy
  Pr  Pr0  1  0.67062600  0.67062600  0.67704700  1
  Pr  Pr1  1  0.32937400  0.32937400  0.32295300  1
  Sb  Sb0  1  0.00000000  0.00000000  0.00000000  1
  O  O0  1  0.24981400  0.75018600  0.50000000  1
  O  O1  1  0.75018600  0.24981400  0.50000000  1
loop_
_geom_bond_atom_site_label_1
_geom_bond_atom_site_label_2
_geom_bond_distance
_geom_bond_site_symmetry_2
Pr0 Sb0 3.484178 1_666
Pr0 Sb0 3.589945 1_566
Pr0 Sb0 3.589945 1_656
Pr0 Sb0 3.691806 1_556
Pr1 Sb0 3.484178 1_555
Pr1 Sb0 3.589945 1_565
Pr1 Sb0 3.589945 1_655
Pr1 Sb0 3.691806 1_665
O0 Pr0 2.339086 1_455
O0 Pr1 2.339086 1_565
O0 Pr0 2.352286 1_555
O0 Pr1 2.352286 1_555
O1 Pr0 2.339086 1_545
O1 Pr1 2.339086 1_655
O1 Pr0 2.352286 1_555
O1 Pr1 2.352286 1_555
