# generated using pymatgen
data_Ge5(Te4As)2
_symmetry_space_group_name_H-M   'P 1'
_cell_length_a   7.23711057
_cell_length_b   7.23711057
_cell_length_c   11.84811293
_cell_angle_alpha   65.87285181
_cell_angle_beta   65.87285181
_cell_angle_gamma   48.52369303
_symmetry_Int_Tables_number   1
_chemical_formula_structural   Ge5(Te4As)2
_chemical_formula_sum   'Ge5 Te8 As2'
_cell_volume   415.58493288
_cell_formula_units_Z   1
loop_
 _symmetry_equiv_pos_site_id
 _symmetry_equiv_pos_as_xyz
  1  'x, y, z'
loop_
 _atom_site_type_symbol
 _atom_site_label
 _atom_site_symmetry_multiplicity
 _atom_site_fract_x
 _atom_site_fract_y
 _atom_site_fract_z
 _atom_site_occupancy
  Ge  Ge0  1  0.00000000  0.00000000  0.00000000  1
  Ge  Ge1  1  0.24960100  0.24960100  0.12563900  1
  Ge  Ge2  1  0.49689300  0.49689300  0.25313600  1
  Ge  Ge3  1  0.75039900  0.75039900  0.87436100  1
  Ge  Ge4  1  0.50310700  0.50310700  0.74686400  1
  Te  Te0  1  0.75070900  0.75070900  0.12527800  1
  Te  Te1  1  0.99920700  0.99920700  0.24991100  1
  Te  Te2  1  0.50000000  0.50000000  0.50000000  1
  Te  Te3  1  0.25081800  0.25081800  0.37541800  1
  Te  Te4  1  0.00079300  0.00079300  0.75008900  1
  Te  Te5  1  0.74918200  0.74918200  0.62458200  1
  Te  Te6  1  0.50000000  0.50000000  0.00000000  1
  Te  Te7  1  0.24929100  0.24929100  0.87472200  1
  As  As0  1  0.74991400  0.74991400  0.37539200  1
  As  As1  1  0.25008600  0.25008600  0.62460800  1
loop_
_geom_bond_atom_site_label_1
_geom_bond_atom_site_label_2
_geom_bond_distance
_geom_bond_site_symmetry_2
Ge0 Te7 2.940426 1_554
Ge0 Te0 2.940426 1_445
Ge0 Te1 2.956297 1_445
Ge0 Te4 2.956297 1_554
Ge0 Te6 2.973782 1_455
Ge0 Te6 2.973782 1_545
Ge1 Te1 2.953435 1_445
Ge1 Te6 2.953489 1_555
Ge1 Te3 2.966645 1_555
Ge1 Te0 2.973812 1_455
Ge1 Te0 2.973812 1_545
Ge1 Te7 2.974729 1_554
Ge2 Te3 2.902487 1_555
Ge2 Te2 2.943483 1_555
Ge2 Te1 2.974008 1_455
Ge2 Te1 2.974008 1_545
Ge2 Te6 2.981027 1_555
Ge2 Te0 2.993813 1_555
Ge3 Te4 2.953435 1_665
Ge3 Te6 2.953489 1_556
Ge3 Te5 2.966645 1_555
Ge3 Te7 2.973812 1_565
Ge3 Te7 2.973812 1_655
Ge3 Te0 2.974729 1_556
Ge4 Te5 2.902487 1_555
Ge4 Te2 2.943483 1_555
Ge4 Te4 2.974008 1_655
Ge4 Te4 2.974008 1_565
Ge4 Te6 2.981027 1_556
Ge4 Te7 2.993813 1_555
As0 Te1 2.940458 1_555
As0 Te2 2.947760 1_555
As0 Te5 2.948113 1_555
As0 Te0 2.958690 1_555
As0 Te3 2.973806 1_565
As0 Te3 2.973806 1_655
As1 Te4 2.940458 1_555
As1 Te2 2.947760 1_555
As1 Te3 2.948113 1_555
As1 Te7 2.958690 1_555
As1 Te5 2.973806 1_545
As1 Te5 2.973806 1_455
