# generated using pymatgen
data_Ba3LaZnReWO12
_symmetry_space_group_name_H-M   'P 1'
_cell_length_a   9.82892874
_cell_length_b   9.82892874
_cell_length_c   9.82892891
_cell_angle_alpha   33.95260673
_cell_angle_beta   33.95260673
_cell_angle_gamma   33.95260744
_symmetry_Int_Tables_number   1
_chemical_formula_structural   Ba3LaZnReWO12
_chemical_formula_sum   'Ba3 La1 Zn1 Re1 W1 O12'
_cell_volume   263.99914259
_cell_formula_units_Z   1
loop_
 _symmetry_equiv_pos_site_id
 _symmetry_equiv_pos_as_xyz
  1  'x, y, z'
loop_
 _atom_site_type_symbol
 _atom_site_label
 _atom_site_symmetry_multiplicity
 _atom_site_fract_x
 _atom_site_fract_y
 _atom_site_fract_z
 _atom_site_occupancy
  Ba  Ba0  1  0.70845400  0.70845400  0.70845400  1
  Ba  Ba1  1  0.29117000  0.29117000  0.29117000  1
  Ba  Ba2  1  0.13096500  0.13096500  0.13096500  1
  La  La0  1  0.87267200  0.87267200  0.87267200  1
  Zn  Zn0  1  0.99931600  0.99931600  0.99931600  1
  Re  Re0  1  0.42204900  0.42204900  0.42204900  1
  W  W0  1  0.57784900  0.57784900  0.57784900  1
  O  O0  1  0.28994700  0.78479900  0.78479900  1
  O  O1  1  0.78479900  0.28994700  0.78479900  1
  O  O2  1  0.78479900  0.78479900  0.28994700  1
  O  O3  1  0.37899000  0.37899000  0.86929600  1
  O  O4  1  0.37899000  0.86929600  0.37899000  1
  O  O5  1  0.86929600  0.37899000  0.37899000  1
  O  O6  1  0.14007600  0.61648500  0.61648500  1
  O  O7  1  0.61648500  0.14007600  0.61648500  1
  O  O8  1  0.61648500  0.61648500  0.14007600  1
  O  O9  1  0.22228200  0.22228200  0.69309400  1
  O  O10  1  0.22228200  0.69309400  0.22228200  1
  O  O11  1  0.69309400  0.22228200  0.22228200  1
loop_
_geom_bond_atom_site_label_1
_geom_bond_atom_site_label_2
_geom_bond_distance
_geom_bond_site_symmetry_2
Ba0 O11 2.873696 1_565
Ba0 O10 2.873696 1_655
Ba0 O11 2.873696 1_556
Ba0 O10 2.873696 1_556
Ba0 O9 2.873696 1_655
Ba0 O9 2.873696 1_565
Ba0 O7 2.874616 1_565
Ba0 O6 2.874616 1_655
Ba0 O8 2.874616 1_556
Ba0 O1 2.956232 1_555
Ba0 O0 2.956232 1_555
Ba0 O2 2.956232 1_555
Ba1 O5 2.836267 1_455
Ba1 O4 2.836267 1_545
Ba1 O3 2.836267 1_554
Ba1 O1 2.872772 1_455
Ba1 O0 2.872772 1_545
Ba1 O0 2.872772 1_554
Ba1 O1 2.872772 1_554
Ba1 O2 2.872772 1_545
Ba1 O2 2.872772 1_455
Ba1 O11 2.899767 1_555
Ba1 O10 2.899767 1_555
Ba1 O9 2.899767 1_555
Ba2 O3 2.748930 1_554
Ba2 O4 2.748930 1_545
Ba2 O5 2.748930 1_455
Ba2 O6 2.876747 1_545
Ba2 O7 2.876747 1_455
Ba2 O7 2.876747 1_554
Ba2 O6 2.876747 1_554
Ba2 O8 2.876747 1_455
Ba2 O8 2.876747 1_545
Ba2 O10 2.941663 1_545
Ba2 O11 2.941663 1_455
Ba2 O9 2.941663 1_554
La0 O0 2.792354 1_655
La0 O1 2.792354 1_565
La0 O2 2.792354 1_556
La0 O8 2.854633 1_556
La0 O7 2.854633 1_565
La0 O6 2.854633 1_655
La0 O4 2.871272 1_655
La0 O5 2.871272 1_565
La0 O5 2.871272 1_556
La0 O4 2.871272 1_556
La0 O3 2.871272 1_565
La0 O3 2.871272 1_655
O0 W0 2.012064 1_555
O0 Zn0 2.107679 1_455
O1 W0 2.012064 1_555
O1 Zn0 2.107679 1_545
O2 W0 2.012064 1_555
O2 Zn0 2.107679 1_554
O3 W0 1.899180 1_555
O4 W0 1.899180 1_555
O5 W0 1.899180 1_555
O6 Re0 1.863014 1_555
O7 Re0 1.863014 1_555
O8 Re0 1.863014 1_555
O9 Re0 1.961571 1_555
O9 Zn0 2.178643 1_445
O10 Re0 1.961571 1_555
O10 Zn0 2.178643 1_454
O11 Re0 1.961571 1_555
O11 Zn0 2.178643 1_544
