# generated using pymatgen
data_K5Sb4
_symmetry_space_group_name_H-M   'P 1'
_cell_length_a   6.51031723
_cell_length_b   10.57344872
_cell_length_c   6.82276455
_cell_angle_alpha   92.47130379
_cell_angle_beta   96.03394431
_cell_angle_gamma   51.96179391
_symmetry_Int_Tables_number   1
_chemical_formula_structural   K5Sb4
_chemical_formula_sum   'K5 Sb4'
_cell_volume   367.71058591
_cell_formula_units_Z   1
loop_
 _symmetry_equiv_pos_site_id
 _symmetry_equiv_pos_as_xyz
  1  'x, y, z'
loop_
 _atom_site_type_symbol
 _atom_site_label
 _atom_site_symmetry_multiplicity
 _atom_site_fract_x
 _atom_site_fract_y
 _atom_site_fract_z
 _atom_site_occupancy
  K  K0  1  0.72390010  0.02265274  0.29445835  1
  K  K1  1  0.06455112  0.64324362  0.97665373  1
  K  K2  1  0.50195697  0.49727585  0.49929365  1
  K  K3  1  0.94133971  0.34802348  0.02139142  1
  K  K4  1  0.28104083  0.97043163  0.70213148  1
  Sb  Sb0  1  0.84786823  0.66739640  0.47521108  1
  Sb  Sb1  1  0.56682507  0.21160486  0.82104044  1
  Sb  Sb2  1  0.43811084  0.78061033  0.17578491  1
  Sb  Sb3  1  0.15640713  0.32675910  0.52203694  1
loop_
_geom_bond_atom_site_label_1
_geom_bond_atom_site_label_2
_geom_bond_distance
_geom_bond_site_symmetry_2
K0 Sb3 3.540494 1_555
K0 Sb0 3.568766 1_545
K0 Sb1 3.579742 1_554
K0 Sb2 3.843588 1_645
K0 Sb1 3.947234 1_555
K0 Sb2 4.004955 1_545
K1 Sb0 3.518058 1_455
K1 Sb2 3.654907 1_556
K1 Sb0 3.757075 1_456
K1 Sb2 3.779273 1_456
K1 Sb1 3.816997 1_555
K2 Sb0 3.440151 1_455
K2 Sb3 3.441857 1_655
K2 Sb2 3.586409 1_555
K2 Sb1 3.595239 1_555
K2 Sb0 3.664612 1_555
K2 Sb3 3.664913 1_555
K3 Sb3 3.514453 1_655
K3 Sb1 3.654776 1_554
K3 Sb3 3.763955 1_654
K3 Sb1 3.780585 1_654
K3 Sb2 3.821877 1_555
K4 Sb0 3.533130 1_555
K4 Sb3 3.575649 1_565
K4 Sb2 3.585065 1_556
K4 Sb1 3.844938 1_465
K4 Sb2 3.948596 1_555
K4 Sb1 3.996708 1_565
Sb0 Sb2 2.802246 1_555
Sb0 Sb3 2.856163 1_655
Sb1 Sb3 2.800445 1_555
