# generated using pymatgen
data_Sm5(Mo3Se4)12
_symmetry_space_group_name_H-M   'P 1'
_cell_length_a   6.80680360
_cell_length_b   81.56737828
_cell_length_c   9.70325193
_cell_angle_alpha   44.45443178
_cell_angle_beta   88.56073263
_cell_angle_gamma   88.94602682
_symmetry_Int_Tables_number   1
_chemical_formula_structural   Sm5(Mo3Se4)12
_chemical_formula_sum   'Sm10 Mo72 Se96'
_cell_volume   3771.81111280
_cell_formula_units_Z   2
loop_
 _symmetry_equiv_pos_site_id
 _symmetry_equiv_pos_as_xyz
  1  'x, y, z'
loop_
 _atom_site_type_symbol
 _atom_site_label
 _atom_site_symmetry_multiplicity
 _atom_site_fract_x
 _atom_site_fract_y
 _atom_site_fract_z
 _atom_site_occupancy
  Sm  Sm0  1  0.00000005  0.08333303  0.00000403  1
  Sm  Sm1  1  0.99986404  0.24982100  0.00127845  1
  Sm  Sm2  1  0.99972215  0.33330667  0.00021551  1
  Sm  Sm3  1  0.00006405  0.41668150  0.99989010  1
  Sm  Sm4  1  -0.00000147  0.50000078  0.99998847  1
  Sm  Sm5  1  0.00001526  0.58333900  -0.00003893  1
  Sm  Sm6  1  0.99998872  0.66666078  0.00003528  1
  Sm  Sm7  1  0.99991791  0.74997788  0.00016023  1
  Sm  Sm8  1  0.00030357  0.83336645  0.99973681  1
  Sm  Sm9  1  0.00012509  0.91684537  0.99872292  1
  Mo  Mo0  1  0.23279938  0.07206011  0.55949391  1
  Mo  Mo1  1  0.23465923  0.15542385  0.55706587  1
  Mo  Mo2  1  0.23288568  0.23848355  0.55997633  1
  Mo  Mo3  1  0.23392609  0.32188008  0.55995745  1
  Mo  Mo4  1  0.23449176  0.40528358  0.55985180  1
  Mo  Mo5  1  0.23435373  0.48859602  0.55997441  1
  Mo  Mo6  1  0.23429738  0.57192665  0.56001285  1
  Mo  Mo7  1  0.23421412  0.65527688  0.55984790  1
  Mo  Mo8  1  0.23494632  0.73863021  0.55976277  1
  Mo  Mo9  1  0.23410698  0.82190902  0.56005490  1
  Mo  Mo10  1  0.42408801  0.02684070  0.23332338  1
  Mo  Mo11  1  0.23336022  0.90544275  0.55984873  1
  Mo  Mo12  1  0.42266186  0.11043538  0.23573329  1
  Mo  Mo13  1  0.44450797  0.01568083  0.57782766  1
  Mo  Mo14  1  0.23455880  0.98880916  0.55683837  1
  Mo  Mo15  1  0.42433714  0.19349326  0.23331500  1
  Mo  Mo16  1  0.43927238  0.09920862  0.57520655  1
  Mo  Mo17  1  0.42370436  0.27709426  0.23467736  1
  Mo  Mo18  1  0.44433572  0.18228857  0.57828747  1
  Mo  Mo19  1  0.42341348  0.36041154  0.23482616  1
  Mo  Mo20  1  0.44045595  0.26576687  0.57698238  1
  Mo  Mo21  1  0.42329166  0.44375302  0.23478563  1
  Mo  Mo22  1  0.44054908  0.34902780  0.57662579  1
  Mo  Mo23  1  0.42327776  0.52710293  0.23479626  1
  Mo  Mo24  1  0.44013918  0.43238784  0.57701358  1
  Mo  Mo25  1  0.42330453  0.61044462  0.23467207  1
  Mo  Mo26  1  0.44012007  0.51572487  0.57681566  1
  Mo  Mo27  1  0.42332427  0.69376551  0.23474180  1
  Mo  Mo28  1  0.56069406  0.06745058  0.42482279  1
  Mo  Mo29  1  0.44009907  0.59906574  0.57681443  1
  Mo  Mo30  1  0.42320686  0.77706770  0.23527727  1
  Mo  Mo31  1  0.55546616  0.15098535  0.42226916  1
  Mo  Mo32  1  0.44020208  0.68241837  0.57678306  1
  Mo  Mo33  1  0.57727668  0.05623333  0.76426290  1
  Mo  Mo34  1  0.42333594  0.86042496  0.23485957  1
  Mo  Mo35  1  0.56166537  0.23408808  0.42490722  1
  Mo  Mo36  1  0.44020013  0.76572343  0.57673504  1
  Mo  Mo37  1  0.57585692  0.13983224  0.76654391  1
  Mo  Mo38  1  0.42219433  0.94388654  0.23488198  1
  Mo  Mo39  1  0.55970368  0.31763013  0.42356529  1
  Mo  Mo40  1  0.44020055  0.84902479  0.57654733  1
  Mo  Mo41  1  0.57785207  0.22278065  0.76541087  1
  Mo  Mo42  1  0.55983575  0.40091737  0.42322390  1
  Mo  Mo43  1  0.43832083  0.93255868  0.57494320  1
  Mo  Mo44  1  0.57660544  0.30623349  0.76517760  1
  Mo  Mo45  1  0.55984459  0.48427139  0.42319228  1
  Mo  Mo46  1  0.57680433  0.38956123  0.76517412  1
  Mo  Mo47  1  0.55987492  0.56759613  0.42321804  1
  Mo  Mo48  1  0.57667169  0.47290517  0.76518518  1
  Mo  Mo49  1  0.55998685  0.65093489  0.42308538  1
  Mo  Mo50  1  0.57667612  0.55622278  0.76529122  1
  Mo  Mo51  1  0.55981263  0.73430729  0.42300238  1
  Mo  Mo52  1  0.57679163  0.63955091  0.76534911  1
  Mo  Mo53  1  0.55941707  0.81763339  0.42339121  1
  Mo  Mo54  1  0.57665535  0.72294380  0.76480985  1
  Mo  Mo55  1  0.55949750  0.90091666  0.42291595  1
  Mo  Mo56  1  0.57661872  0.80626649  0.76504530  1
  Mo  Mo57  1  0.76545868  0.01123726  0.44297158  1
  Mo  Mo58  1  0.55565717  0.98437224  0.42173334  1
  Mo  Mo59  1  0.57622164  0.88959050  0.76525194  1
  Mo  Mo60  1  0.76722722  0.09460372  0.44055325  1
  Mo  Mo61  1  0.57565158  0.97316375  0.76671839  1
  Mo  Mo62  1  0.76540848  0.17784888  0.44322779  1
  Mo  Mo63  1  0.76666319  0.26123919  0.44006624  1
  Mo  Mo64  1  0.76601226  0.34474713  0.44003239  1
  Mo  Mo65  1  0.76552716  0.42805185  0.44012037  1
  Mo  Mo66  1  0.76569199  0.51139810  0.44009026  1
  Mo  Mo67  1  0.76575545  0.59473432  0.44002455  1
  Mo  Mo68  1  0.76563061  0.67808055  0.43993663  1
  Mo  Mo69  1  0.76498146  0.76137375  0.44021190  1
  Mo  Mo70  1  0.76608019  0.84476961  0.44011847  1
  Mo  Mo71  1  0.76695862  0.92820811  0.44001645  1
  Se  Se0  1  0.12275655  0.03171878  0.37617762  1
  Se  Se1  1  0.12369702  0.11472609  0.37490760  1
  Se  Se2  1  0.12290010  0.19838117  0.37621896  1
  Se  Se3  1  0.12306243  0.28190714  0.37383764  1
  Se  Se4  1  0.12226225  0.36517936  0.37326018  1
  Se  Se5  1  0.12225445  0.44853124  0.37344647  1
  Se  Se6  1  0.23528258  0.00010206  0.23504009  1
  Se  Se7  1  0.12221916  0.53184989  0.37347644  1
  Se  Se8  1  0.24004362  0.08314774  0.24063174  1
  Se  Se9  1  0.12221043  0.61519647  0.37341753  1
  Se  Se10  1  0.23498736  0.16681659  0.23484218  1
  Se  Se11  1  0.12213933  0.69854419  0.37332625  1
  Se  Se12  1  0.24192588  0.06225273  0.87753622  1
  Se  Se13  1  0.23985313  0.24991153  0.24000550  1
  Se  Se14  1  0.12246335  0.78185457  0.37343585  1
  Se  Se15  1  0.24945316  0.14568806  0.87588426  1
  Se  Se16  1  0.23892112  0.33333612  0.23995894  1
  Se  Se17  1  0.12218617  0.86517557  0.37331959  1
  Se  Se18  1  0.24187175  0.22902675  0.87651917  1
  Se  Se19  1  0.23962238  0.41664068  0.23963397  1
  Se  Se20  1  0.12298727  0.94807740  0.37396710  1
  Se  Se21  1  0.24382043  0.31234294  0.87773552  1
  Se  Se22  1  0.23953501  0.49997868  0.23970106  1
  Se  Se23  1  0.24429417  0.39573926  0.87777834  1
  Se  Se24  1  0.23957647  0.58331403  0.23963455  1
  Se  Se25  1  0.24431215  0.47905772  0.87772320  1
  Se  Se26  1  0.23942902  0.66665253  0.23959109  1
  Se  Se27  1  0.24434801  0.56238138  0.87782813  1
  Se  Se28  1  0.37615462  0.03105318  0.75082901  1
  Se  Se29  1  0.23976558  0.74997479  0.23970881  1
  Se  Se30  1  0.24422915  0.64572592  0.87780700  1
  Se  Se31  1  0.37399909  0.11382838  0.75729980  1
  Se  Se32  1  0.23937162  0.83327317  0.24010350  1
  Se  Se33  1  0.24434863  0.72907707  0.87775409  1
  Se  Se34  1  0.37525506  0.19769259  0.75124386  1
  Se  Se35  1  0.23975570  0.91654936  0.24030133  1
  Se  Se36  1  0.24425501  0.81234966  0.87767233  1
  Se  Se37  1  0.37336187  0.28047205  0.75669327  1
  Se  Se38  1  0.24402061  0.89563504  0.87866769  1
  Se  Se39  1  0.37336985  0.36384473  0.75575852  1
  Se  Se40  1  0.24972971  0.97904089  0.87584714  1
  Se  Se41  1  0.37334193  0.44720064  0.75586482  1
  Se  Se42  1  0.37338676  0.53052107  0.75589456  1
  Se  Se43  1  0.37342989  0.61385116  0.75593218  1
  Se  Se44  1  0.37345238  0.69721300  0.75568194  1
  Se  Se45  1  0.37321599  0.78053354  0.75583619  1
  Se  Se46  1  0.37407451  0.86379007  0.75599345  1
  Se  Se47  1  0.37385460  0.94720232  0.75696411  1
  Se  Se48  1  0.62600260  0.05284051  0.24268622  1
  Se  Se49  1  0.62383207  0.13561368  0.24918548  1
  Se  Se50  1  0.62615142  0.21946544  0.24299320  1
  Se  Se51  1  0.62592156  0.30287802  0.24402769  1
  Se  Se52  1  0.62670066  0.38613413  0.24405734  1
  Se  Se53  1  0.62656790  0.46947481  0.24419386  1
  Se  Se54  1  0.62655600  0.55279927  0.24417701  1
  Se  Se55  1  0.75056280  0.02097565  0.12410542  1
  Se  Se56  1  0.62663334  0.63614544  0.24407125  1
  Se  Se57  1  0.75807593  0.10441545  0.12244397  1
  Se  Se58  1  0.62675829  0.71947668  0.24415328  1
  Se  Se59  1  0.75024006  0.18762712  0.12415983  1
  Se  Se60  1  0.75994605  0.08351575  0.75938514  1
  Se  Se61  1  0.62658885  0.80279765  0.24440233  1
  Se  Se62  1  0.75608857  0.27103937  0.12125090  1
  Se  Se63  1  0.76470428  0.16656705  0.76493561  1
  Se  Se64  1  0.62663945  0.88619754  0.24331810  1
  Se  Se65  1  0.75581515  0.35431518  0.12237107  1
  Se  Se66  1  0.76026390  0.25011739  0.75976666  1
  Se  Se67  1  0.62480223  0.96896807  0.24871405  1
  Se  Se68  1  0.75575876  0.43760043  0.12216444  1
  Se  Se69  1  0.76067147  0.33339021  0.75988095  1
  Se  Se70  1  0.75567859  0.52094315  0.12225909  1
  Se  Se71  1  0.76032173  0.41668813  0.76040398  1
  Se  Se72  1  0.75567144  0.60428022  0.12221304  1
  Se  Se73  1  0.76047989  0.50001801  0.76031643  1
  Se  Se74  1  0.75567905  0.68761280  0.12217704  1
  Se  Se75  1  0.87633690  0.05193658  0.62511079  1
  Se  Se76  1  0.76045940  0.58335249  0.76035002  1
  Se  Se77  1  0.75556192  0.77091190  0.12233225  1
  Se  Se78  1  0.87725814  0.13494753  0.62383660  1
  Se  Se79  1  0.76051143  0.66669054  0.76039856  1
  Se  Se80  1  0.75616017  0.85431300  0.12229460  1
  Se  Se81  1  0.87714731  0.21859670  0.62589100  1
  Se  Se82  1  0.76026739  0.75002494  0.76033979  1
  Se  Se83  1  0.75808515  0.93764883  0.12348576  1
  Se  Se84  1  0.87779520  0.30148830  0.62672050  1
  Se  Se85  1  0.76112196  0.83332379  0.76008196  1
  Se  Se86  1  0.87773194  0.38479351  0.62655567  1
  Se  Se87  1  0.76012962  0.91676507  0.75984671  1
  Se  Se88  1  0.87780825  0.46814014  0.62657744  1
  Se  Se89  1  0.76504271  0.99985226  0.76515786  1
  Se  Se90  1  0.87778256  0.55147072  0.62658028  1
  Se  Se91  1  0.87781467  0.63480886  0.62651599  1
  Se  Se92  1  0.87760371  0.71814822  0.62658091  1
  Se  Se93  1  0.87774399  0.80147694  0.62682982  1
  Se  Se94  1  0.87697797  0.88476393  0.62618552  1
  Se  Se95  1  0.87708473  0.96828991  0.62375850  1
loop_
_geom_bond_atom_site_label_1
_geom_bond_atom_site_label_2
_geom_bond_distance
_geom_bond_site_symmetry_2
Mo0 Se8 2.528327 1_555
Mo0 Se12 2.578932 1_555
Mo0 Se28 2.586980 1_555
Mo0 Se1 2.635149 1_555
Mo0 Se75 2.750246 1_455
Mo1 Se10 2.547764 1_555
Mo1 Se15 2.591620 1_555
Mo1 Se31 2.597917 1_555
Mo1 Se2 2.669551 1_555
Mo1 Se78 2.766426 1_455
Mo2 Se13 2.524528 1_555
Mo2 Se34 2.571001 1_555
Mo2 Se18 2.580340 1_555
Mo2 Se3 2.684017 1_555
Mo2 Se81 2.736656 1_455
Mo3 Se16 2.523731 1_555
Mo3 Se21 2.588751 1_555
Mo3 Se37 2.592514 1_555
Mo3 Se4 2.677598 1_555
Mo3 Se84 2.755673 1_455
Mo4 Se19 2.529885 1_555
Mo4 Se23 2.589805 1_555
Mo4 Se39 2.594587 1_555
Mo4 Se5 2.675914 1_555
Mo4 Se86 2.763216 1_455
Mo5 Se22 2.529339 1_555
Mo5 Se25 2.588443 1_555
Mo5 Se41 2.592146 1_555
Mo5 Se7 2.675908 1_555
Mo5 Se88 2.760876 1_455
Mo6 Se24 2.530120 1_555
Mo6 Se27 2.588793 1_555
Mo6 Se42 2.593052 1_555
Mo6 Se9 2.676655 1_555
Mo6 Se90 2.760769 1_455
Mo7 Se26 2.529473 1_555
Mo7 Se30 2.589889 1_555
Mo7 Se43 2.594262 1_555
Mo7 Se11 2.676646 1_555
Mo7 Se91 2.760308 1_455
Mo8 Se29 2.528892 1_555
Mo8 Se33 2.589889 1_555
Mo8 Se44 2.592292 1_555
Mo8 Se14 2.674997 1_555
Mo8 Se92 2.766182 1_455
Mo9 Se32 2.527084 1_555
Mo9 Se36 2.586319 1_555
Mo9 Se45 2.591386 1_555
Mo9 Se17 2.675770 1_555
Mo9 Se93 2.758533 1_455
Mo10 Se6 2.541428 1_555
Mo10 Se48 2.604475 1_555
Mo10 Se55 2.618538 1_555
Mo10 Se0 2.627032 1_555
Mo10 Se12 2.765204 1_554
Mo11 Se35 2.533999 1_555
Mo11 Se38 2.586798 1_555
Mo11 Se46 2.612138 1_555
Mo11 Se20 2.632239 1_555
Mo11 Se94 2.768768 1_455
Mo12 Se8 2.539549 1_555
Mo12 Se1 2.568632 1_555
Mo12 Se49 2.570026 1_555
Mo12 Se57 2.695427 1_555
Mo12 Se15 2.756587 1_554
Mo13 Se89 2.544905 1_545
Mo13 Se40 2.582075 1_545
Mo13 Se0 2.606155 1_555
Mo13 Se48 2.674475 1_555
Mo13 Se28 2.747887 1_555
Mo14 Se6 2.547882 1_565
Mo14 Se40 2.592139 1_555
Mo14 Se47 2.598703 1_555
Mo14 Se0 2.666864 1_565
Mo14 Se95 2.768134 1_455
Mo15 Se10 2.540142 1_555
Mo15 Se50 2.604118 1_555
Mo15 Se59 2.615015 1_555
Mo15 Se2 2.628291 1_555
Mo15 Se18 2.772626 1_554
Mo16 Se60 2.534591 1_555
Mo16 Se1 2.567368 1_555
Mo16 Se12 2.612197 1_555
Mo16 Se49 2.632545 1_555
Mo16 Se31 2.773167 1_555
Mo17 Se13 2.533779 1_555
Mo17 Se51 2.590583 1_555
Mo17 Se3 2.598778 1_555
Mo17 Se62 2.680271 1_555
Mo17 Se21 2.762021 1_554
Mo18 Se63 2.541618 1_555
Mo18 Se15 2.580102 1_555
Mo18 Se2 2.605790 1_555
Mo18 Se50 2.676435 1_555
Mo18 Se34 2.750502 1_555
Mo19 Se16 2.529571 1_555
Mo19 Se52 2.589634 1_555
Mo19 Se4 2.595325 1_555
Mo19 Se65 2.677030 1_555
Mo19 Se23 2.761085 1_554
Mo20 Se66 2.524575 1_555
Mo20 Se3 2.586642 1_555
Mo20 Se18 2.602407 1_555
Mo20 Se51 2.677430 1_555
Mo20 Se37 2.759328 1_555
Mo21 Se19 2.531028 1_555
Mo21 Se53 2.590614 1_555
Mo21 Se5 2.596485 1_555
Mo21 Se68 2.680356 1_555
Mo21 Se25 2.760465 1_554
Mo22 Se69 2.528114 1_555
Mo22 Se4 2.592634 1_555
Mo22 Se21 2.598692 1_555
Mo22 Se52 2.678031 1_555
Mo22 Se39 2.762200 1_555
Mo23 Se22 2.531789 1_555
Mo23 Se54 2.588701 1_555
Mo23 Se7 2.595423 1_555
Mo23 Se70 2.679829 1_555
Mo23 Se27 2.759536 1_554
Mo24 Se71 2.528884 1_555
Mo24 Se5 2.591176 1_555
Mo24 Se23 2.593609 1_555
Mo24 Se53 2.679411 1_555
Mo24 Se41 2.758975 1_555
Mo25 Se24 2.531842 1_555
Mo25 Se56 2.589311 1_555
Mo25 Se9 2.596195 1_555
Mo25 Se72 2.679417 1_555
Mo25 Se30 2.759497 1_554
Mo26 Se73 2.530317 1_555
Mo26 Se7 2.590416 1_555
Mo26 Se25 2.594426 1_555
Mo26 Se54 2.678468 1_555
Mo26 Se42 2.759788 1_555
Mo27 Se26 2.531851 1_555
Mo27 Se58 2.590493 1_555
Mo27 Se11 2.596833 1_555
Mo27 Se74 2.679441 1_555
Mo27 Se33 2.760153 1_554
Mo28 Se8 2.534493 1_555
Mo28 Se75 2.567729 1_555
Mo28 Se57 2.612720 1_555
Mo28 Se28 2.632251 1_555
Mo28 Se48 2.772898 1_555
Mo29 Se76 2.530437 1_555
Mo29 Se9 2.590557 1_555
Mo29 Se27 2.595032 1_555
Mo29 Se56 2.679292 1_555
Mo29 Se43 2.759303 1_555
Mo30 Se29 2.531358 1_555
Mo30 Se61 2.589851 1_555
Mo30 Se14 2.592345 1_555
Mo30 Se77 2.681480 1_555
Mo30 Se36 2.762874 1_554
Mo31 Se10 2.544922 1_555
Mo31 Se59 2.582360 1_555
Mo31 Se78 2.606059 1_555
Mo31 Se31 2.673905 1_555
Mo31 Se49 2.748595 1_555
Mo32 Se79 2.530403 1_555
Mo32 Se11 2.591823 1_555
Mo32 Se30 2.596063 1_555
Mo32 Se58 2.678451 1_555
Mo32 Se44 2.758052 1_555
Mo33 Se60 2.539478 1_555
Mo33 Se75 2.569251 1_555
Mo33 Se28 2.569861 1_555
Mo33 Se12 2.694968 1_555
Mo33 Se55 2.756839 1_556
Mo34 Se32 2.532481 1_555
Mo34 Se64 2.588449 1_555
Mo34 Se17 2.594762 1_555
Mo34 Se80 2.680562 1_555
Mo34 Se38 2.756026 1_554
Mo35 Se13 2.543757 1_555
Mo35 Se81 2.569807 1_555
Mo35 Se62 2.605758 1_555
Mo35 Se34 2.639420 1_555
Mo35 Se50 2.771014 1_555
Mo36 Se82 2.528960 1_555
Mo36 Se14 2.589283 1_555
Mo36 Se33 2.594282 1_555
Mo36 Se61 2.677167 1_555
Mo36 Se45 2.761234 1_555
Mo37 Se63 2.541958 1_555
Mo37 Se31 2.603821 1_555
Mo37 Se15 2.618401 1_555
Mo37 Se78 2.626795 1_555
Mo37 Se57 2.766002 1_556
Mo38 Se35 2.539329 1_555
Mo38 Se20 2.565357 1_555
Mo38 Se67 2.571089 1_555
Mo38 Se83 2.696809 1_555
Mo38 Se40 2.749097 1_554
Mo39 Se16 2.533195 1_555
Mo39 Se84 2.590694 1_555
Mo39 Se65 2.596803 1_555
Mo39 Se37 2.681906 1_555
Mo39 Se51 2.760293 1_555
Mo40 Se85 2.533769 1_555
Mo40 Se17 2.590508 1_555
Mo40 Se36 2.595745 1_555
Mo40 Se64 2.682926 1_555
Mo40 Se46 2.760322 1_555
Mo41 Se66 2.537857 1_555
Mo41 Se81 2.568083 1_555
Mo41 Se34 2.573558 1_555
Mo41 Se18 2.696196 1_555
Mo41 Se59 2.747380 1_556
Mo42 Se19 2.529749 1_555
Mo42 Se86 2.590363 1_555
Mo42 Se68 2.595715 1_555
Mo42 Se39 2.678132 1_555
Mo42 Se52 2.759777 1_555
Mo43 Se87 2.543773 1_555
Mo43 Se20 2.568776 1_555
Mo43 Se38 2.604724 1_555
Mo43 Se67 2.639562 1_555
Mo43 Se47 2.773482 1_555
Mo44 Se69 2.532868 1_555
Mo44 Se37 2.587613 1_555
Mo44 Se84 2.594732 1_555
Mo44 Se21 2.680210 1_555
Mo44 Se62 2.755766 1_556
Mo45 Se22 2.529985 1_555
Mo45 Se88 2.590938 1_555
Mo45 Se70 2.594723 1_555
Mo45 Se41 2.678724 1_555
Mo45 Se53 2.759073 1_555
Mo46 Se71 2.532003 1_555
Mo46 Se39 2.590887 1_555
Mo46 Se86 2.595226 1_555
Mo46 Se23 2.681474 1_555
Mo46 Se65 2.760583 1_556
Mo47 Se24 2.530235 1_555
Mo47 Se90 2.590547 1_555
Mo47 Se72 2.595156 1_555
Mo47 Se42 2.678791 1_555
Mo47 Se54 2.759441 1_555
Mo48 Se73 2.531423 1_555
Mo48 Se41 2.589091 1_555
Mo48 Se88 2.596152 1_555
Mo48 Se25 2.679326 1_555
Mo48 Se68 2.760377 1_556
Mo49 Se26 2.531457 1_555
Mo49 Se91 2.590364 1_555
Mo49 Se74 2.594344 1_555
Mo49 Se43 2.679844 1_555
Mo49 Se56 2.758629 1_555
Mo50 Se76 2.532099 1_555
Mo50 Se42 2.589209 1_555
Mo50 Se90 2.596066 1_555
Mo50 Se27 2.679372 1_555
Mo50 Se70 2.759773 1_556
Mo51 Se29 2.527772 1_555
Mo51 Se92 2.590618 1_555
Mo51 Se77 2.591727 1_555
Mo51 Se44 2.678834 1_555
Mo51 Se58 2.760382 1_555
Mo52 Se79 2.532526 1_555
Mo52 Se43 2.589469 1_555
Mo52 Se91 2.595932 1_555
Mo52 Se30 2.680918 1_555
Mo52 Se72 2.758767 1_556
Mo53 Se32 2.527771 1_555
Mo53 Se93 2.593141 1_555
Mo53 Se80 2.598552 1_555
Mo53 Se45 2.677577 1_555
Mo53 Se61 2.762241 1_555
Mo54 Se82 2.530884 1_555
Mo54 Se44 2.589257 1_555
Mo54 Se92 2.594196 1_555
Mo54 Se33 2.680352 1_555
Mo54 Se74 2.762442 1_556
Mo55 Se35 2.523601 1_555
Mo55 Se94 2.587599 1_555
Mo55 Se83 2.601892 1_555
Mo55 Se46 2.678109 1_555
Mo55 Se64 2.759349 1_555
Mo56 Se85 2.529338 1_555
Mo56 Se45 2.590646 1_555
Mo56 Se93 2.594801 1_555
Mo56 Se36 2.677185 1_555
Mo56 Se77 2.762056 1_556
Mo57 Se89 2.547722 1_545
Mo57 Se55 2.592000 1_555
Mo57 Se48 2.598600 1_555
Mo57 Se95 2.668777 1_545
Mo57 Se0 2.765947 1_655
Mo58 Se6 2.541804 1_565
Mo58 Se55 2.580353 1_565
Mo58 Se95 2.605610 1_555
Mo58 Se47 2.675995 1_555
Mo58 Se67 2.751146 1_555
Mo59 Se87 2.532936 1_555
Mo59 Se46 2.590914 1_555
Mo59 Se94 2.599392 1_555
Mo59 Se38 2.678791 1_555
Mo59 Se80 2.763025 1_556
Mo60 Se60 2.528028 1_555
Mo60 Se57 2.579381 1_555
Mo60 Se49 2.587210 1_555
Mo60 Se75 2.635313 1_555
Mo60 Se1 2.750187 1_655
Mo61 Se89 2.540921 1_555
Mo61 Se47 2.603774 1_555
Mo61 Se40 2.615400 1_555
Mo61 Se95 2.628015 1_555
Mo61 Se83 2.772164 1_556
Mo62 Se63 2.547499 1_555
Mo62 Se59 2.592255 1_555
Mo62 Se50 2.599030 1_555
Mo62 Se78 2.666526 1_555
Mo62 Se2 2.768533 1_655
Mo63 Se66 2.534797 1_555
Mo63 Se62 2.587068 1_555
Mo63 Se51 2.611528 1_555
Mo63 Se81 2.633117 1_555
Mo63 Se3 2.768698 1_655
Mo64 Se69 2.526416 1_555
Mo64 Se65 2.586363 1_555
Mo64 Se52 2.592256 1_555
Mo64 Se84 2.675105 1_555
Mo64 Se4 2.757864 1_655
Mo65 Se71 2.530221 1_555
Mo65 Se68 2.589881 1_555
Mo65 Se53 2.593747 1_555
Mo65 Se86 2.676501 1_555
Mo65 Se5 2.762689 1_655
Mo66 Se73 2.529001 1_555
Mo66 Se70 2.588941 1_555
Mo66 Se54 2.592831 1_555
Mo66 Se88 2.676177 1_555
Mo66 Se7 2.760592 1_655
Mo67 Se76 2.529854 1_555
Mo67 Se72 2.588740 1_555
Mo67 Se56 2.593351 1_555
Mo67 Se90 2.676220 1_555
Mo67 Se9 2.760555 1_655
Mo68 Se79 2.530806 1_555
Mo68 Se74 2.588815 1_555
Mo68 Se58 2.592104 1_555
Mo68 Se91 2.677005 1_555
Mo68 Se11 2.760926 1_655
Mo69 Se82 2.529418 1_555
Mo69 Se77 2.589508 1_555
Mo69 Se61 2.592637 1_555
Mo69 Se92 2.675236 1_555
Mo69 Se14 2.767067 1_655
Mo70 Se85 2.523829 1_555
Mo70 Se80 2.588914 1_555
Mo70 Se64 2.593661 1_555
Mo70 Se93 2.677115 1_555
Mo70 Se17 2.755970 1_655
Mo71 Se87 2.522591 1_555
Mo71 Se67 2.568446 1_555
Mo71 Se83 2.580911 1_555
Mo71 Se94 2.685703 1_555
Mo71 Se20 2.737506 1_655
Se0 Sm0 3.135507 1_555
Se2 Sm1 3.126274 1_455
Se3 Sm2 3.122472 1_455
Se4 Sm3 3.124121 1_554
Se5 Sm4 3.123044 1_554
Se7 Sm5 3.123880 1_555
Se8 Sm0 2.874359 1_555
Se9 Sm6 3.122611 1_455
Se11 Sm7 3.120898 1_455
Se12 Sm0 3.129703 1_556
Se13 Sm1 2.872170 1_455
Se14 Sm8 3.125118 1_554
Se16 Sm2 2.874195 1_455
Se17 Sm9 3.133331 1_554
Se18 Sm1 3.127984 1_456
Se19 Sm3 2.872264 1_554
Se21 Sm2 3.129623 1_456
Se22 Sm4 2.872824 1_554
Se23 Sm3 3.125966 1_555
Se24 Sm5 2.872473 1_555
Se25 Sm4 3.127437 1_555
Se26 Sm6 2.871851 1_455
Se27 Sm5 3.127492 1_556
Se29 Sm7 2.873671 1_455
Se30 Sm6 3.126370 1_456
Se31 Sm0 3.127794 1_556
Se32 Sm8 2.872769 1_554
Se33 Sm7 3.126097 1_456
Se35 Sm9 2.875020 1_554
Se36 Sm8 3.129560 1_555
Se37 Sm1 3.131530 1_456
Se38 Sm9 3.127411 1_555
Se39 Sm2 3.129647 1_456
Se41 Sm3 3.126487 1_555
Se42 Sm4 3.127232 1_555
Se43 Sm5 3.127091 1_556
Se44 Sm6 3.128776 1_456
Se45 Sm7 3.127893 1_456
Se46 Sm8 3.126638 1_555
Se47 Sm9 3.121722 1_555
Se48 Sm0 3.127687 1_655
Se50 Sm1 3.121527 1_555
Se51 Sm2 3.127025 1_555
Se52 Sm3 3.127813 1_654
Se53 Sm4 3.127773 1_654
Se54 Sm5 3.128251 1_655
Se56 Sm6 3.126847 1_555
Se57 Sm0 3.129632 1_655
Se58 Sm7 3.125388 1_555
Se60 Sm0 2.874453 1_656
Se61 Sm8 3.131035 1_654
Se62 Sm1 3.126919 1_555
Se64 Sm9 3.131408 1_654
Se65 Sm2 3.129528 1_555
Se66 Sm1 2.874348 1_556
Se68 Sm3 3.125886 1_654
Se69 Sm2 2.872909 1_556
Se70 Sm4 3.127453 1_654
Se71 Sm3 2.872581 1_655
Se72 Sm5 3.127323 1_655
Se73 Sm4 2.872662 1_655
Se74 Sm6 3.127107 1_555
Se76 Sm5 2.872503 1_656
Se77 Sm7 3.126306 1_555
Se78 Sm0 3.135478 1_656
Se79 Sm6 2.871614 1_556
Se80 Sm8 3.129220 1_654
Se82 Sm7 2.872946 1_556
Se83 Sm9 3.128729 1_654
Se84 Sm1 3.133163 1_556
Se85 Sm8 2.874052 1_655
Se86 Sm2 3.123683 1_556
Se87 Sm9 2.872895 1_655
Se88 Sm3 3.122297 1_655
Se90 Sm4 3.122887 1_655
Se91 Sm5 3.122929 1_656
Se92 Sm6 3.124021 1_556
Se93 Sm7 3.123869 1_556
Se94 Sm8 3.122216 1_655
Se95 Sm9 3.126526 1_655
