# generated using pymatgen
data_Al12Si12Ag16S5O48
_symmetry_space_group_name_H-M   'P 1'
_cell_length_a   8.98361100
_cell_length_b   9.03001855
_cell_length_c   17.95618855
_cell_angle_alpha   90.06357742
_cell_angle_beta   90.17567337
_cell_angle_gamma   90.08758689
_symmetry_Int_Tables_number   1
_chemical_formula_structural   Al12Si12Ag16S5O48
_chemical_formula_sum   'Al12 Si12 Ag16 S5 O48'
_cell_volume   1456.63559845
_cell_formula_units_Z   1
loop_
 _symmetry_equiv_pos_site_id
 _symmetry_equiv_pos_as_xyz
  1  'x, y, z'
loop_
 _atom_site_type_symbol
 _atom_site_label
 _atom_site_symmetry_multiplicity
 _atom_site_fract_x
 _atom_site_fract_y
 _atom_site_fract_z
 _atom_site_occupancy
  Al  Al0  1  0.75001800  0.00224400  0.24693200  1
  Al  Al1  1  0.25016900  0.00336500  0.75117400  1
  Al  Al2  1  0.75009100  0.00138500  0.75083100  1
  Al  Al3  1  0.49995400  0.75315400  0.99896900  1
  Al  Al4  1  0.50179400  0.74966100  0.50037900  1
  Al  Al5  1  0.99967800  0.50122400  0.37263300  1
  Al  Al6  1  0.99804100  0.50003400  0.12329300  1
  Al  Al7  1  0.00097200  0.50093700  0.62599800  1
  Al  Al8  1  0.00280900  0.50027900  0.87453600  1
  Al  Al9  1  0.49906900  0.25428000  0.99894200  1
  Al  Al10  1  0.49862400  0.25119700  0.50047500  1
  Al  Al11  1  0.25084500  0.00181000  0.24672800  1
  Si  Si0  1  0.50049300  0.00421800  0.12306500  1
  Si  Si1  1  0.99941900  0.75138800  0.24731600  1
  Si  Si2  1  0.00097000  0.75212700  0.75027800  1
  Si  Si3  1  0.74933600  0.50186700  0.99943800  1
  Si  Si4  1  0.74911900  0.50097700  0.50023700  1
  Si  Si5  1  0.25084300  0.50078600  0.99859100  1
  Si  Si6  1  0.25132400  0.49975000  0.50021600  1
  Si  Si7  1  0.99977800  0.25120800  0.24702400  1
  Si  Si8  1  0.00080400  0.25151500  0.75068500  1
  Si  Si9  1  0.50027100  0.00053800  0.37354700  1
  Si  Si10  1  0.49956300  0.00062100  0.62597100  1
  Si  Si11  1  0.49927600  0.00463900  0.87486200  1
  Ag  Ag0  1  0.16066200  0.83368600  0.07658100  1
  Ag  Ag1  1  0.18163000  0.82113200  0.59051000  1
  Ag  Ag2  1  0.81718200  0.81926700  0.40762500  1
  Ag  Ag3  1  0.83569400  0.83422100  0.91887300  1
  Ag  Ag4  1  0.33902100  0.66083400  0.32729100  1
  Ag  Ag5  1  0.64519800  0.65012500  0.17165800  1
  Ag  Ag6  1  0.34649800  0.65465600  0.82859600  1
  Ag  Ag7  1  0.65957700  0.65643500  0.67676800  1
  Ag  Ag8  1  0.35082400  0.35705600  0.17125100  1
  Ag  Ag9  1  0.66105100  0.34102700  0.32670600  1
  Ag  Ag10  1  0.34335100  0.34268300  0.67758900  1
  Ag  Ag11  1  0.65321100  0.34754100  0.82772800  1
  Ag  Ag12  1  0.18243200  0.18242800  0.40744500  1
  Ag  Ag13  1  0.83812400  0.15370500  0.06953300  1
  Ag  Ag14  1  0.15044200  0.15324800  0.92261600  1
  Ag  Ag15  1  0.81834100  0.18087300  0.59090500  1
  S  S0  1  0.00240900  0.89294400  0.49765300  1
  S  S1  1  0.49967100  0.50273100  0.75056200  1
  S  S2  1  0.49978100  0.50244100  0.25698100  1
  S  S3  1  0.00479700  0.99471700  0.00143000  1
  S  S4  1  0.99739600  0.11108400  0.49740900  1
  O  O0  1  0.63678500  0.93757400  0.17415200  1
  O  O1  1  0.36010000  0.94166100  0.32322500  1
  O  O2  1  0.63939700  0.93982200  0.67567600  1
  O  O3  1  0.36321200  0.93859400  0.82356400  1
  O  O4  1  0.43580300  0.86743000  0.07197500  1
  O  O5  1  0.43774200  0.86328000  0.57385900  1
  O  O6  1  0.56119500  0.86322000  0.42593700  1
  O  O7  1  0.56424700  0.86798500  0.92602200  1
  O  O8  1  0.13736500  0.85345700  0.21688100  1
  O  O9  1  0.13866600  0.85521200  0.71870500  1
  O  O10  1  0.86163900  0.85390100  0.27935600  1
  O  O11  1  0.86423500  0.85537300  0.78161600  1
  O  O12  1  0.06079000  0.65042100  0.31760700  1
  O  O13  1  0.93476800  0.64818000  0.17966300  1
  O  O14  1  0.06326300  0.64974900  0.81816700  1
  O  O15  1  0.93941000  0.65146100  0.68016900  1
  O  O16  1  0.35464400  0.63667400  0.47071500  1
  O  O17  1  0.64899600  0.64137900  0.02978400  1
  O  O18  1  0.35236700  0.63954900  0.96831900  1
  O  O19  1  0.65175400  0.64194800  0.53110700  1
  O  O20  1  0.14397900  0.56272900  0.06601000  1
  O  O21  1  0.14851700  0.56090800  0.56899800  1
  O  O22  1  0.85146900  0.55867800  0.43033500  1
  O  O23  1  0.85648700  0.56265600  0.93201700  1
  O  O24  1  0.14855300  0.44308400  0.42991900  1
  O  O25  1  0.15315600  0.43584300  0.92853100  1
  O  O26  1  0.84820100  0.43585400  0.06891500  1
  O  O27  1  0.85254900  0.44068300  0.56919000  1
  O  O28  1  0.35325200  0.36629800  0.03212200  1
  O  O29  1  0.64633200  0.36349200  0.47080100  1
  O  O30  1  0.64552300  0.36691700  0.96654000  1
  O  O31  1  0.34831700  0.35884500  0.53093600  1
  O  O32  1  0.06519400  0.35473900  0.17993100  1
  O  O33  1  0.93803000  0.35208700  0.31735500  1
  O  O34  1  0.06252000  0.35144900  0.68058700  1
  O  O35  1  0.93546500  0.35438800  0.81770100  1
  O  O36  1  0.13797300  0.14905800  0.27923500  1
  O  O37  1  0.13769800  0.15008200  0.78277100  1
  O  O38  1  0.86286700  0.14907000  0.21583400  1
  O  O39  1  0.86333000  0.14785600  0.71844500  1
  O  O40  1  0.43857200  0.13712100  0.42610500  1
  O  O41  1  0.43469300  0.14283700  0.92480600  1
  O  O42  1  0.56550000  0.14148500  0.07230400  1
  O  O43  1  0.56198800  0.13696700  0.57374700  1
  O  O44  1  0.36026800  0.06281100  0.67542900  1
  O  O45  1  0.36408300  0.06863100  0.17463500  1
  O  O46  1  0.64066900  0.06004500  0.32387400  1
  O  O47  1  0.63788400  0.06648400  0.82359600  1
loop_
_geom_bond_atom_site_label_1
_geom_bond_atom_site_label_2
_geom_bond_distance
_geom_bond_site_symmetry_2
Al0 O0 1.752712 1_545
Al0 O38 1.760240 1_555
Al0 O10 1.772321 1_545
Al0 O46 1.776092 1_555
Al1 O3 1.748832 1_545
Al1 O37 1.761813 1_555
Al1 O9 1.767393 1_545
Al1 O44 1.767637 1_555
Al2 O47 1.754142 1_555
Al2 O11 1.760045 1_545
Al2 O2 1.762809 1_545
Al2 O39 1.767386 1_555
Al3 O18 1.761619 1_555
Al3 O17 1.765924 1_556
Al3 O4 1.766044 1_556
Al3 O7 1.769279 1_555
Al4 O16 1.750015 1_555
Al4 O19 1.751007 1_555
Al4 O5 1.768636 1_555
Al4 O6 1.768838 1_555
Al5 O12 1.759765 1_655
Al5 O33 1.759815 1_555
Al5 O24 1.765607 1_655
Al5 O22 1.767718 1_555
Al6 O26 1.757717 1_555
Al6 O20 1.761999 1_655
Al6 O32 1.766704 1_655
Al6 O13 1.772028 1_555
Al7 O34 1.758012 1_555
Al7 O15 1.761306 1_455
Al7 O27 1.761434 1_455
Al7 O21 1.762127 1_555
Al8 O25 1.760250 1_555
Al8 O23 1.766291 1_455
Al8 O35 1.770268 1_455
Al8 O14 1.773511 1_555
Al9 O28 1.761149 1_556
Al9 O30 1.762378 1_555
Al9 O41 1.763459 1_555
Al9 O42 1.768865 1_556
Al10 O29 1.753391 1_555
Al10 O31 1.753496 1_555
Al10 O43 1.766144 1_555
Al10 O40 1.768133 1_555
Al11 O45 1.755750 1_555
Al11 O8 1.764092 1_545
Al11 O1 1.772044 1_545
Al11 O36 1.772824 1_555
Ag0 S3 2.427969 1_555
Ag0 O20 2.458198 1_555
Ag0 O4 2.491644 1_555
Ag0 O8 2.534692 1_555
Ag1 O5 2.351547 1_555
Ag1 O9 2.355129 1_555
Ag1 O21 2.398860 1_555
Ag1 S0 2.404576 1_555
Ag2 O6 2.358251 1_555
Ag2 O10 2.359875 1_555
Ag2 O22 2.408720 1_555
Ag2 S0 2.408848 1_655
Ag3 O7 2.461745 1_555
Ag3 O23 2.471129 1_555
Ag3 O11 2.486224 1_555
Ag3 S3 2.565244 1_656
Ag4 S2 2.395591 1_555
Ag4 O12 2.506642 1_555
Ag4 O1 2.543790 1_555
Ag4 O16 2.588211 1_555
Ag5 S2 2.417395 1_555
Ag5 O17 2.548987 1_555
Ag5 O0 2.597226 1_555
Ag5 O13 2.604999 1_555
Ag6 S1 2.398384 1_555
Ag6 O18 2.513146 1_555
Ag6 O14 2.551096 1_555
Ag6 O3 2.569834 1_555
Ag7 S1 2.399057 1_555
Ag7 O15 2.514936 1_555
Ag7 O2 2.565772 1_555
Ag7 O19 2.619363 1_555
Ag8 S2 2.421041 1_555
Ag8 O28 2.499874 1_555
Ag8 O32 2.571250 1_555
Ag8 O45 2.608154 1_555
Ag9 S2 2.406319 1_555
Ag9 O33 2.496298 1_555
Ag9 O46 2.544033 1_555
Ag9 O29 2.598899 1_555
Ag10 S1 2.399178 1_555
Ag10 O34 2.524976 1_555
Ag10 O44 2.532308 1_555
Ag10 O31 2.638042 1_555
Ag11 S1 2.405167 1_555
Ag11 O30 2.499647 1_555
Ag11 O47 2.542460 1_555
Ag11 O35 2.543257 1_555
Ag12 O36 2.354301 1_555
Ag12 O40 2.360718 1_555
Ag12 O24 2.407562 1_555
Ag12 S4 2.409006 1_455
Ag13 S3 2.410899 1_645
Ag13 O42 2.452124 1_555
Ag13 O26 2.549318 1_555
Ag13 O38 2.636100 1_555
Ag14 S3 2.402950 1_546
Ag14 O37 2.513470 1_555
Ag14 O25 2.554006 1_555
Ag14 O41 2.555658 1_555
Ag15 O39 2.343747 1_555
Ag15 O43 2.355503 1_555
Ag15 O27 2.398160 1_555
Ag15 S4 2.412551 1_555
S0 S4 1.970401 1_465
O0 Si0 1.642979 1_565
O1 Si9 1.635463 1_565
O2 Si10 1.634745 1_565
O3 Si11 1.639485 1_565
O4 Si0 1.642273 1_565
O5 Si10 1.647497 1_565
O6 Si9 1.650329 1_565
O7 Si11 1.645822 1_565
O8 Si1 1.638807 1_455
O9 Si2 1.649257 1_555
O10 Si1 1.651254 1_555
O11 Si2 1.643572 1_655
O12 Si1 1.651694 1_455
O13 Si1 1.634967 1_555
O14 Si2 1.629034 1_555
O15 Si2 1.645786 1_655
O16 Si6 1.634579 1_555
O17 Si3 1.643627 1_554
O18 Si5 1.642698 1_555
O19 Si4 1.642438 1_555
O20 Si5 1.645389 1_554
O21 Si6 1.640245 1_555
O22 Si4 1.642997 1_555
O23 Si3 1.643332 1_555
O24 Si6 1.642414 1_555
O25 Si5 1.639106 1_555
O26 Si3 1.642256 1_554
O27 Si4 1.639744 1_555
O28 Si5 1.638718 1_554
O29 Si4 1.632601 1_555
O30 Si3 1.641726 1_555
O31 Si6 1.638433 1_555
O32 Si7 1.635823 1_455
O33 Si7 1.653986 1_555
O34 Si8 1.646606 1_555
O35 Si8 1.630662 1_655
O36 Si7 1.651352 1_455
O37 Si8 1.638162 1_555
O38 Si7 1.633482 1_555
O39 Si8 1.651498 1_655
O40 Si9 1.649768 1_555
O41 Si11 1.643511 1_555
O42 Si0 1.646759 1_555
O43 Si10 1.647243 1_555
O44 Si10 1.636410 1_555
O45 Si0 1.644833 1_555
O46 Si9 1.637381 1_555
O47 Si11 1.647982 1_555
