# generated using pymatgen
data_V(PO3)4
_symmetry_space_group_name_H-M   'P 1'
_cell_length_a   8.37527228
_cell_length_b   8.37527228
_cell_length_c   9.64272226
_cell_angle_alpha   62.92761016
_cell_angle_beta   62.92761016
_cell_angle_gamma   52.05309212
_symmetry_Int_Tables_number   1
_chemical_formula_structural   V(PO3)4
_chemical_formula_sum   'V2 P8 O24'
_cell_volume   459.91613511
_cell_formula_units_Z   2
loop_
 _symmetry_equiv_pos_site_id
 _symmetry_equiv_pos_as_xyz
  1  'x, y, z'
loop_
 _atom_site_type_symbol
 _atom_site_label
 _atom_site_symmetry_multiplicity
 _atom_site_fract_x
 _atom_site_fract_y
 _atom_site_fract_z
 _atom_site_occupancy
  V  V0  1  0.14410900  0.85589100  0.25000000  1
  V  V1  1  0.85589100  0.14410900  0.75000000  1
  P  P0  1  0.96894600  0.29926100  0.33905900  1
  P  P1  1  0.70073900  0.03105400  0.16094100  1
  P  P2  1  0.55972200  0.69716500  0.35673700  1
  P  P3  1  0.03105400  0.70073900  0.66094100  1
  P  P4  1  0.30283500  0.44027800  0.14326300  1
  P  P5  1  0.69716500  0.55972200  0.85673700  1
  P  P6  1  0.44027800  0.30283500  0.64326300  1
  P  P7  1  0.29926100  0.96894600  0.83905900  1
  O  O0  1  0.87268300  0.98031700  0.21537700  1
  O  O1  1  0.50253700  0.76541400  0.78532700  1
  O  O2  1  0.36080800  0.13963100  0.72938300  1
  O  O3  1  0.63919200  0.86036900  0.27061700  1
  O  O4  1  0.04476600  0.74973300  0.48652400  1
  O  O5  1  0.25026700  0.95523400  0.01347600  1
  O  O6  1  0.66284800  0.49911400  0.03160700  1
  O  O7  1  0.22291200  0.60018400  0.23057700  1
  O  O8  1  0.50088600  0.33715200  0.46839300  1
  O  O9  1  0.95523400  0.25026700  0.51347600  1
  O  O10  1  0.49746300  0.23458600  0.21467300  1
  O  O11  1  0.49911400  0.66284800  0.53160700  1
  O  O12  1  0.33715200  0.50088600  0.96839300  1
  O  O13  1  0.39981600  0.77708800  0.26942300  1
  O  O14  1  0.98031700  0.87268300  0.71537700  1
  O  O15  1  0.76541400  0.50253700  0.28532700  1
  O  O16  1  0.86036900  0.63919200  0.77061700  1
  O  O17  1  0.74973300  0.04476600  0.98652400  1
  O  O18  1  0.23458600  0.49746300  0.71467300  1
  O  O19  1  0.77708800  0.39981600  0.76942300  1
  O  O20  1  0.01968300  0.12731700  0.28462300  1
  O  O21  1  0.12731700  0.01968300  0.78462300  1
  O  O22  1  0.13963100  0.36080800  0.22938300  1
  O  O23  1  0.60018400  0.22291200  0.73057700  1
loop_
_geom_bond_atom_site_label_1
_geom_bond_atom_site_label_2
_geom_bond_distance
_geom_bond_site_symmetry_2
O0 P1 1.504111 1_565
O0 V0 1.955967 1_655
O1 P7 1.582563 1_555
O1 P5 1.608516 1_555
O2 P7 1.568972 1_545
O2 P6 1.607345 1_555
O3 P1 1.568972 1_565
O3 P2 1.607345 1_555
O4 P3 1.504716 1_555
O4 V0 2.005309 1_555
O5 P7 1.504716 1_554
O5 V0 2.005309 1_555
O6 P5 1.463833 1_554
O7 P4 1.536680 1_555
O7 V0 1.889819 1_555
O8 P6 1.463833 1_555
O9 P0 1.504716 1_555
O9 V1 2.005309 1_555
O10 P1 1.582563 1_555
O10 P4 1.608516 1_555
O11 P2 1.463833 1_555
O12 P4 1.463833 1_556
O13 P2 1.536680 1_555
O13 V0 1.889819 1_555
O14 P3 1.504111 1_655
O14 V1 1.955967 1_565
O15 P0 1.582563 1_555
O15 P2 1.608516 1_555
O16 P3 1.568972 1_655
O16 P5 1.607345 1_555
O17 P1 1.504716 1_556
O17 V1 2.005309 1_555
O18 P3 1.582563 1_555
O18 P6 1.608516 1_555
O19 P5 1.536680 1_555
O19 V1 1.889819 1_555
O20 P0 1.504111 1_455
O20 V0 1.955967 1_545
O21 P7 1.504111 1_545
O21 V1 1.955967 1_455
O22 P0 1.568972 1_455
O22 P4 1.607345 1_555
O23 P6 1.536680 1_555
O23 V1 1.889819 1_555
