# generated using pymatgen
data_ErNiSn
_symmetry_space_group_name_H-M   'P 1'
_cell_length_a   4.42387193
_cell_length_b   7.02492202
_cell_length_c   7.59511325
_cell_angle_alpha   90.00027702
_cell_angle_beta   90.00033299
_cell_angle_gamma   90.00001900
_symmetry_Int_Tables_number   1
_chemical_formula_structural   ErNiSn
_chemical_formula_sum   'Er4 Ni4 Sn4'
_cell_volume   236.03603327
_cell_formula_units_Z   4
loop_
 _symmetry_equiv_pos_site_id
 _symmetry_equiv_pos_as_xyz
  1  'x, y, z'
loop_
 _atom_site_type_symbol
 _atom_site_label
 _atom_site_symmetry_multiplicity
 _atom_site_fract_x
 _atom_site_fract_y
 _atom_site_fract_z
 _atom_site_occupancy
  Er  Er0  1  0.24999934  0.01299045  0.79761004  1
  Er  Er1  1  0.24999777  0.51298722  0.70239258  1
  Er  Er2  1  0.75000096  0.48700870  0.29760823  1
  Er  Er3  1  0.75000016  0.98701252  0.20239043  1
  Ni  Ni0  1  0.25000160  0.29894233  0.08366130  1
  Ni  Ni1  1  0.74999713  0.70105663  0.91633597  1
  Ni  Ni2  1  0.24999278  0.79894159  0.41634066  1
  Ni  Ni3  1  0.75001010  0.20105984  0.58365993  1
  Sn  Sn0  1  0.24999870  0.69060516  0.08756993  1
  Sn  Sn1  1  0.25000495  0.19060396  0.41242933  1
  Sn  Sn2  1  0.75000024  0.30939711  0.91242940  1
  Sn  Sn3  1  0.74999628  0.80939348  0.58757121  1
loop_
_geom_bond_atom_site_label_1
_geom_bond_atom_site_label_2
_geom_bond_distance
_geom_bond_site_symmetry_2
Er0 Ni0 2.958944 1_556
Er0 Ni3 3.046059 1_455
Er0 Ni3 3.046141 1_555
Er0 Sn3 3.079469 1_545
Er0 Sn3 3.079474 1_445
Er0 Sn0 3.158969 1_546
Er0 Sn2 3.160511 1_555
Er0 Sn2 3.160514 1_455
Er0 Sn1 3.180462 1_555
Er0 Ni1 3.241541 1_545
Er0 Ni1 3.241561 1_445
Er0 Ni2 3.262908 1_545
Er0 Er1 3.586119 1_555
Er0 Er1 3.586156 1_545
Er0 Er3 3.791774 1_546
Er0 Er3 3.791791 1_446
Er1 Ni2 2.958974 1_555
Er1 Ni1 3.046057 1_555
Er1 Ni1 3.046075 1_455
Er1 Sn2 3.079447 1_455
Er1 Sn2 3.079450 1_555
Er1 Sn1 3.158961 1_555
Er1 Sn3 3.160519 1_555
Er1 Sn3 3.160522 1_455
Er1 Sn0 3.180440 1_556
Er1 Ni3 3.241487 1_455
Er1 Ni3 3.241570 1_555
Er1 Ni0 3.262903 1_556
Er1 Er2 3.791787 1_455
Er1 Er2 3.791824 1_555
Er2 Ni3 2.958946 1_555
Er2 Ni0 3.046062 1_555
Er2 Ni0 3.046080 1_655
Er2 Sn0 3.079474 1_655
Er2 Sn0 3.079476 1_555
Er2 Sn3 3.158968 1_555
Er2 Sn1 3.160504 1_555
Er2 Sn1 3.160522 1_655
Er2 Sn2 3.180433 1_554
Er2 Ni2 3.241526 1_655
Er2 Ni2 3.241583 1_555
Er2 Ni1 3.262937 1_554
Er2 Er3 3.586108 1_545
Er2 Er3 3.586168 1_555
Er3 Ni1 2.958981 1_554
Er3 Ni2 3.046075 1_655
Er3 Ni2 3.046135 1_555
Er3 Sn1 3.079445 1_565
Er3 Sn1 3.079462 1_665
Er3 Sn2 3.158972 1_564
Er3 Sn0 3.160518 1_655
Er3 Sn0 3.160519 1_555
Er3 Sn3 3.180478 1_555
Er3 Ni0 3.241531 1_565
Er3 Ni0 3.241546 1_665
Er3 Ni3 3.262904 1_565
Ni0 Sn2 2.566986 1_454
Ni0 Sn2 2.566988 1_554
Ni0 Sn1 2.610441 1_555
Ni0 Sn0 2.751561 1_555
Ni1 Sn0 2.566994 1_656
Ni1 Sn0 2.566995 1_556
Ni1 Sn3 2.610415 1_555
Ni1 Sn2 2.751537 1_555
Ni2 Sn3 2.566974 1_455
Ni2 Sn3 2.566988 1_555
Ni2 Sn0 2.610450 1_555
Ni2 Sn1 2.751558 1_565
Ni3 Sn1 2.566969 1_655
Ni3 Sn1 2.566995 1_555
Ni3 Sn2 2.610443 1_555
Ni3 Sn3 2.751586 1_545
