# generated using pymatgen
data_GaHO2
_symmetry_space_group_name_H-M   'P 1'
_cell_length_a   6.21303109
_cell_length_b   6.04993170
_cell_length_c   5.23515833
_cell_angle_alpha   66.35378615
_cell_angle_beta   63.12468844
_cell_angle_gamma   50.52152542
_symmetry_Int_Tables_number   1
_chemical_formula_structural   GaHO2
_chemical_formula_sum   'Ga4 H4 O8'
_cell_volume   133.62365629
_cell_formula_units_Z   4
loop_
 _symmetry_equiv_pos_site_id
 _symmetry_equiv_pos_as_xyz
  1  'x, y, z'
loop_
 _atom_site_type_symbol
 _atom_site_label
 _atom_site_symmetry_multiplicity
 _atom_site_fract_x
 _atom_site_fract_y
 _atom_site_fract_z
 _atom_site_occupancy
  Ga  Ga0  1  0.80866600  0.68630000  0.08343700  1
  Ga  Ga1  1  0.42159600  0.08343700  0.68630000  1
  Ga  Ga2  1  0.16656300  0.82840400  0.44133400  1
  Ga  Ga3  1  0.56370000  0.44133400  0.82840400  1
  H  H0  1  0.17662100  0.53507800  0.26000800  1
  H  H1  1  0.71492200  0.07337900  0.22170700  1
  H  H2  1  0.98999200  0.22170700  0.07337900  1
  H  H3  1  0.02829300  0.26000800  0.53507800  1
  O  O0  1  0.75725800  0.01185500  0.74644100  1
  O  O1  1  0.48444500  0.74644100  0.01185500  1
  O  O2  1  0.23814500  0.49274200  0.76555500  1
  O  O3  1  0.50355900  0.76555500  0.49274200  1
  O  O4  1  0.00873800  0.73701600  0.25604500  1
  O  O5  1  0.51298400  0.24126200  0.25179900  1
  O  O6  1  0.99395500  0.25179900  0.24126200  1
  O  O7  1  0.99820100  0.25604500  0.73701600  1
loop_
_geom_bond_atom_site_label_1
_geom_bond_atom_site_label_2
_geom_bond_distance
_geom_bond_site_symmetry_2
Ga0 O1 1.992921 1_555
Ga0 O0 2.003973 1_564
Ga0 O4 2.044214 1_655
Ga0 O6 2.046383 1_555
Ga0 O3 2.100204 1_555
Ga0 O2 2.199114 1_654
Ga1 O0 1.992921 1_555
Ga1 O1 2.003973 1_546
Ga1 O7 2.044208 1_455
Ga1 O5 2.046383 1_555
Ga1 O2 2.100207 1_555
Ga1 O3 2.199107 1_545
Ga2 O2 1.992921 1_555
Ga2 O3 2.003973 1_555
Ga2 O6 2.044209 1_465
Ga2 O4 2.046387 1_555
Ga2 O0 2.100203 1_465
Ga2 O1 2.199115 1_555
Ga3 O3 1.992921 1_555
Ga3 O2 2.003973 1_555
Ga3 O5 2.044210 1_556
Ga3 O7 2.046382 1_555
Ga3 O1 2.100196 1_556
Ga3 O0 2.199118 1_555
H0 O4 0.979706 1_555
H1 O5 0.979706 1_555
H2 O6 0.979706 1_555
H3 O7 0.979706 1_455
