# generated using pymatgen
data_Ca5Y3Ti5Mn3O24
_symmetry_space_group_name_H-M   'P 1'
_cell_length_a   5.38879400
_cell_length_b   5.61958070
_cell_length_c   15.28738043
_cell_angle_alpha   90.09851640
_cell_angle_beta   90.16211621
_cell_angle_gamma   90.48664849
_symmetry_Int_Tables_number   1
_chemical_formula_structural   Ca5Y3Ti5Mn3O24
_chemical_formula_sum   'Ca5 Y3 Ti5 Mn3 O24'
_cell_volume   462.92485955
_cell_formula_units_Z   1
loop_
 _symmetry_equiv_pos_site_id
 _symmetry_equiv_pos_as_xyz
  1  'x, y, z'
loop_
 _atom_site_type_symbol
 _atom_site_label
 _atom_site_symmetry_multiplicity
 _atom_site_fract_x
 _atom_site_fract_y
 _atom_site_fract_z
 _atom_site_occupancy
  Ca  Ca0  1  0.01288700  0.05099300  0.62385700  1
  Ca  Ca1  1  0.01279500  0.05728300  0.12800300  1
  Ca  Ca2  1  0.49082200  0.55289800  0.62369900  1
  Ca  Ca3  1  0.51066200  0.45352200  0.87253700  1
  Ca  Ca4  1  0.99116200  0.95381600  0.87237800  1
  Y  Y0  1  0.48524300  0.56834100  0.12880600  1
  Y  Y1  1  0.51670100  0.43033300  0.37415400  1
  Y  Y2  1  0.97995800  0.93005600  0.37452500  1
  Ti  Ti0  1  0.01261600  0.50292200  0.74818300  1
  Ti  Ti1  1  0.00756800  0.49656600  0.50105300  1
  Ti  Ti2  1  0.51401300  0.99694700  0.74925200  1
  Ti  Ti3  1  0.50515700  0.02218500  0.00098400  1
  Ti  Ti4  1  0.99170000  0.51644900  0.00072100  1
  Mn  Mn0  1  0.00238700  0.49608800  0.24990000  1
  Mn  Mn1  1  0.49685400  0.00055100  0.25033000  1
  Mn  Mn2  1  0.49348200  0.99505900  0.50008400  1
  O  O0  1  0.07848200  0.52087200  0.87600400  1
  O  O1  1  0.10807400  0.53204500  0.37487100  1
  O  O2  1  0.20269700  0.78793700  0.72886800  1
  O  O3  1  0.18730100  0.79944200  0.52097400  1
  O  O4  1  0.21229100  0.80699500  0.22523600  1
  O  O5  1  0.21003000  0.78112500  0.02605900  1
  O  O6  1  0.30172000  0.31778900  0.22681100  1
  O  O7  1  0.28505500  0.29280000  0.72921700  1
  O  O8  1  0.29402500  0.31677100  0.52050000  1
  O  O9  1  0.30431300  0.29426100  0.02717300  1
  O  O10  1  0.41590400  0.02176600  0.87651300  1
  O  O11  1  0.39139500  0.03018000  0.37805500  1
  O  O12  1  0.58037600  0.97443200  0.62491100  1
  O  O13  1  0.59209100  0.96626000  0.12225500  1
  O  O14  1  0.70729800  0.70043100  0.98013500  1
  O  O15  1  0.70484200  0.71462100  0.77179300  1
  O  O16  1  0.71248500  0.68828700  0.46771900  1
  O  O17  1  0.70876000  0.68495700  0.27536300  1
  O  O18  1  0.79596900  0.20210600  0.97779600  1
  O  O19  1  0.78388100  0.20980800  0.77174300  1
  O  O20  1  0.80022600  0.20231500  0.47095100  1
  O  O21  1  0.78945500  0.18684200  0.27988100  1
  O  O22  1  0.91243600  0.47365200  0.62519100  1
  O  O23  1  0.89688700  0.47029700  0.12351700  1
loop_
_geom_bond_atom_site_label_1
_geom_bond_atom_site_label_2
_geom_bond_distance
_geom_bond_site_symmetry_2
Ca0 O3 2.319202 1_545
Ca0 O12 2.366599 1_445
Ca0 O2 2.415194 1_545
Ca0 O22 2.440611 1_455
Ca0 O7 2.556776 1_555
Ca0 O8 2.646836 1_555
Ca0 O19 2.730963 1_455
Ca0 O20 2.740200 1_455
Ca1 O4 2.316749 1_545
Ca1 O13 2.321221 1_445
Ca1 O23 2.409698 1_455
Ca1 O5 2.448653 1_545
Ca1 O9 2.569536 1_555
Ca1 O6 2.605618 1_555
Ca1 O18 2.703300 1_454
Ca1 O21 2.719245 1_455
Ca2 O8 2.309501 1_555
Ca2 O22 2.318989 1_555
Ca2 O12 2.413511 1_555
Ca2 O7 2.441042 1_555
Ca2 O2 2.604194 1_555
Ca2 O3 2.663147 1_555
Ca2 O15 2.691091 1_555
Ca2 O16 2.774629 1_555
Ca3 O0 2.363381 1_555
Ca3 O15 2.368664 1_555
Ca3 O14 2.389775 1_555
Ca3 O10 2.476075 1_555
Ca3 O19 2.541178 1_555
Ca3 O18 2.641963 1_555
Ca3 O7 2.655879 1_555
Ca3 O9 2.762447 1_556
Ca4 O10 2.317947 1_665
Ca4 O18 2.382678 1_565
Ca4 O19 2.389383 1_565
Ca4 O0 2.482653 1_655
Ca4 O15 2.548746 1_555
Ca4 O2 2.647015 1_655
Ca4 O14 2.658284 1_555
Ca4 O5 2.804288 1_656
Mn0 O6 1.939045 1_555
Mn0 O17 1.952504 1_455
Mn0 O1 2.001419 1_555
Mn0 O23 2.017056 1_455
Mn0 O4 2.108393 1_555
Mn0 O21 2.125701 1_455
Mn1 O4 1.910141 1_545
Mn1 O21 1.937145 1_555
Mn1 O13 2.034720 1_545
Mn1 O11 2.042064 1_555
Mn1 O6 2.108338 1_555
Mn1 O17 2.151747 1_545
Mn2 O11 1.954226 1_565
Mn2 O12 1.967447 1_555
Mn2 O3 2.001529 1_555
Mn2 O20 2.064085 1_565
Mn2 O8 2.134033 1_565
Mn2 O16 2.155099 1_555
O0 Ti4 1.964544 1_456
O0 Ti0 1.987272 1_555
O1 Ti1 2.014820 1_555
O1 Y1 2.279726 1_555
O1 Y2 2.346389 1_455
O2 Ti0 1.917601 1_555
O2 Ti2 2.062373 1_555
O3 Ti1 1.973903 1_555
O3 Y2 2.608625 1_455
O4 Y0 2.484808 1_555
O4 Y2 2.698109 1_455
O5 Ti4 1.926721 1_455
O5 Ti3 2.116596 1_565
O5 Y0 2.473847 1_555
O6 Y0 2.279741 1_555
O6 Y1 2.604550 1_555
O7 Ti0 1.914261 1_555
O7 Ti2 2.101116 1_545
O8 Ti1 1.875379 1_555
O8 Y1 2.619069 1_555
O9 Ti3 1.922975 1_555
O9 Ti4 2.143373 1_455
O9 Y0 2.386327 1_555
O10 Ti3 1.961352 1_556
O10 Ti2 2.022381 1_545
O11 Y2 2.283259 1_445
O11 Y1 2.343294 1_555
O12 Ti2 1.939307 1_555
O13 Ti3 1.937737 1_565
O13 Y0 2.306749 1_555
O14 Ti4 1.882050 1_556
O14 Ti3 2.142639 1_566
O14 Y0 2.674798 1_556
O15 Ti2 1.928981 1_555
O15 Ti0 2.081277 1_655
O16 Ti1 1.993843 1_655
O16 Y1 2.284452 1_555
O16 Y2 2.436837 1_555
O17 Y1 2.321759 1_555
O17 Y2 2.505395 1_555
O17 Y0 2.620351 1_555
O18 Ti3 1.892429 1_556
O18 Ti4 2.078436 1_556
O19 Ti2 1.905302 1_545
O19 Ti0 2.081417 1_655
O20 Ti1 2.039007 1_655
O20 Y2 2.340380 1_545
O20 Y1 2.488565 1_555
O21 Y2 2.292061 1_545
O21 Y1 2.479726 1_555
O22 Ti0 1.960975 1_655
O22 Ti1 1.971306 1_655
O23 Ti4 1.963963 1_555
O23 Y0 2.291816 1_555
