# generated using pymatgen
data_NaPH5C2SN3O4
_symmetry_space_group_name_H-M   'P 1'
_cell_length_a   5.92577700
_cell_length_b   7.04360911
_cell_length_c   10.22096714
_cell_angle_alpha   90.14842579
_cell_angle_beta   98.80592096
_cell_angle_gamma   103.04234424
_symmetry_Int_Tables_number   1
_chemical_formula_structural   NaPH5C2SN3O4
_chemical_formula_sum   'Na2 P2 H10 C4 S2 N6 O8'
_cell_volume   410.40178467
_cell_formula_units_Z   2
loop_
 _symmetry_equiv_pos_site_id
 _symmetry_equiv_pos_as_xyz
  1  'x, y, z'
loop_
 _atom_site_type_symbol
 _atom_site_label
 _atom_site_symmetry_multiplicity
 _atom_site_fract_x
 _atom_site_fract_y
 _atom_site_fract_z
 _atom_site_occupancy
  Na  Na0  1  0.47942700  0.67230400  0.20066000  1
  Na  Na1  1  0.52057300  0.32769600  0.79934000  1
  P  P0  1  0.96725200  0.24485800  0.22373800  1
  P  P1  1  0.03274800  0.75514200  0.77626200  1
  H  H0  1  0.99623300  0.91849900  0.18255600  1
  H  H1  1  0.00376700  0.08150100  0.81744400  1
  H  H2  1  0.91128000  0.41837500  0.40844000  1
  H  H3  1  0.08872000  0.58162500  0.59156000  1
  H  H4  1  0.56082700  0.86407700  0.47584100  1
  H  H5  1  0.43917300  0.13592300  0.52415900  1
  H  H6  1  0.91596800  0.59240600  0.13580000  1
  H  H7  1  0.08403200  0.40759400  0.86420000  1
  H  H8  1  0.83294200  0.67782900  0.00387700  1
  H  H9  1  0.16705800  0.32217100  0.99612300  1
  C  C0  1  0.23645400  0.01221200  0.34805800  1
  C  C1  1  0.76354600  0.98778800  0.65194200  1
  C  C2  1  0.18125600  0.28901200  0.48083900  1
  C  C3  1  0.81874400  0.71098800  0.51916100  1
  S  S0  1  0.64023000  0.17929800  0.14022300  1
  S  S1  1  0.35977000  0.82070200  0.85977700  1
  N  N0  1  0.06925800  0.03771400  0.24811000  1
  N  N1  1  0.93074200  0.96228600  0.75189000  1
  N  N2  1  0.00083200  0.31374300  0.38801700  1
  N  N3  1  0.99916800  0.68625700  0.61198300  1
  N  N4  1  0.29929600  0.14921100  0.45202800  1
  N  N5  1  0.70070400  0.85078900  0.54797200  1
  O  O0  1  0.13940700  0.39809000  0.16076800  1
  O  O1  1  0.86059300  0.60191000  0.83923200  1
  O  O2  1  0.33021500  0.86836800  0.35087200  1
  O  O3  1  0.66978500  0.13163200  0.64912800  1
  O  O4  1  0.75886800  0.61792400  0.40983500  1
  O  O5  1  0.24113200  0.38207600  0.59016500  1
  O  O6  1  0.83404800  0.69298100  0.10081100  1
  O  O7  1  0.16595200  0.30701900  0.89918900  1
loop_
_geom_bond_atom_site_label_1
_geom_bond_atom_site_label_2
_geom_bond_distance
_geom_bond_site_symmetry_2
Na0 O0 2.438122 1_555
Na0 O6 2.449062 1_555
Na0 O2 2.449882 1_555
Na0 O4 2.581902 1_555
Na1 O1 2.438122 1_555
Na1 O7 2.449062 1_555
Na1 O3 2.449882 1_555
Na1 O5 2.581902 1_555
P0 S0 1.945452 1_555
P1 S1 1.945452 1_555
H0 N0 1.041922 1_665
H1 N1 1.041922 1_445
H2 N2 1.038251 1_655
H3 N3 1.038251 1_455
H4 N5 1.042885 1_555
H4 O2 1.727513 1_555
H5 N4 1.042885 1_555
H5 O3 1.727513 1_555
H6 O6 0.984257 1_555
H7 O7 0.984257 1_555
H8 O6 0.995081 1_555
H9 O7 0.995081 1_555
C0 O2 1.259124 1_545
C0 N0 1.352355 1_555
C0 N4 1.382190 1_555
C1 O3 1.259124 1_565
C1 N1 1.352355 1_555
C1 N5 1.382190 1_555
C2 O5 1.254609 1_555
C2 N2 1.359364 1_555
C2 N4 1.384943 1_555
C3 O4 1.254609 1_555
C3 N3 1.359364 1_555
C3 N5 1.384943 1_555
N0 P0 1.705893 1_455
N1 P1 1.705893 1_655
N2 P0 1.715885 1_455
N3 P1 1.715885 1_655
O0 P0 1.525624 1_455
O1 P1 1.525624 1_655
