# generated using pymatgen
data_Al2S3
_symmetry_space_group_name_H-M   'P 1'
_cell_length_a   7.73859583
_cell_length_b   7.34919072
_cell_length_c   20.94019171
_cell_angle_alpha   81.49163827
_cell_angle_beta   100.10349445
_cell_angle_gamma   129.24587715
_symmetry_Int_Tables_number   1
_chemical_formula_structural   Al2S3
_chemical_formula_sum   'Al12 S18'
_cell_volume   906.92279541
_cell_formula_units_Z   6
loop_
 _symmetry_equiv_pos_site_id
 _symmetry_equiv_pos_as_xyz
  1  'x, y, z'
loop_
 _atom_site_type_symbol
 _atom_site_label
 _atom_site_symmetry_multiplicity
 _atom_site_fract_x
 _atom_site_fract_y
 _atom_site_fract_z
 _atom_site_occupancy
  Al  Al0  1  0.43406900  0.33201800  0.80693200  1
  Al  Al1  1  0.36150800  0.03047300  0.25591500  1
  Al  Al2  1  0.68533900  0.65065700  0.64076800  1
  Al  Al3  1  0.02608300  0.71913900  0.89170600  1
  Al  Al4  1  0.51821500  0.83884400  0.57148600  1
  Al  Al5  1  0.47976900  0.79907400  0.81253600  1
  Al  Al6  1  0.39383700  0.51401200  0.48329300  1
  Al  Al7  1  0.67707300  0.01289500  0.37433100  1
  Al  Al8  1  0.23865100  0.39265700  0.87865600  1
  Al  Al9  1  0.08826200  0.44318400  0.98119200  1
  Al  Al10  1  0.31316500  0.99786600  0.67483200  1
  Al  Al11  1  0.52180200  0.63066300  0.32113600  1
  S  S0  1  0.99656900  0.37027000  0.34758600  1
  S  S1  1  0.37822800  0.00476200  0.36217700  1
  S  S2  1  0.74933300  0.71179400  0.83516400  1
  S  S3  1  0.06588500  0.70616100  0.00156900  1
  S  S4  1  0.58289200  0.96823900  0.71616000  1
  S  S5  1  0.23371700  0.31547300  0.38553500  1
  S  S6  1  0.31914200  0.36836900  0.98822800  1
  S  S7  1  0.17137000  0.51395100  0.53482000  1
  S  S8  1  0.97660600  0.68041600  0.69439900  1
  S  S9  1  0.37277000  0.99340700  0.85559900  1
  S  S10  1  0.71700400  0.90065300  0.48013500  1
  S  S11  1  0.60793100  0.41731300  0.54544100  1
  S  S12  1  0.07285400  0.78443400  0.18403300  1
  S  S13  1  0.58966400  0.45459700  0.25751800  1
  S  S14  1  0.37512100  0.33312900  0.69625600  1
  S  S15  1  0.91351300  0.34419800  0.87867800  1
  S  S16  1  0.37236800  0.05049300  0.56287000  1
  S  S17  1  0.76726300  0.72086100  0.18516600  1
loop_
_geom_bond_atom_site_label_1
_geom_bond_atom_site_label_2
_geom_bond_distance
_geom_bond_site_symmetry_2
Al0 S14 2.281996 1_555
Al0 S9 2.319876 1_545
Al0 S2 2.336229 1_555
Al1 S1 2.192995 1_555
Al1 S12 2.245002 1_545
Al1 S13 2.425032 1_555
Al2 S8 2.224943 1_555
Al2 S14 2.376294 1_555
Al2 S11 2.564756 1_555
Al3 S2 2.230343 1_455
Al3 S3 2.262772 1_556
Al3 S9 2.291429 1_555
Al3 S15 2.351162 1_455
Al4 S7 2.281521 1_555
Al4 S16 2.406792 1_565
Al4 S10 2.474516 1_555
Al5 S4 2.196043 1_555
Al5 S9 2.382827 1_555
Al5 S2 2.498775 1_555
Al6 S7 2.186016 1_555
Al6 S10 2.311655 1_555
Al6 S11 2.324483 1_555
Al6 S5 2.358201 1_555
Al7 S1 2.244938 1_555
Al7 S0 2.271308 1_555
Al7 S10 2.286075 1_545
Al8 S6 2.280887 1_555
Al8 S15 2.307424 1_455
Al9 S3 2.154223 1_556
Al9 S6 2.154747 1_555
Al9 S15 2.272652 1_455
Al10 S8 2.190296 1_455
Al10 S4 2.244710 1_555
Al10 S14 2.293226 1_565
Al10 S16 2.395940 1_565
Al11 S13 2.310864 1_555
Al11 S5 2.398048 1_555
S0 S5 2.119046 1_655
S11 S16 2.109025 1_555
S12 S17 2.104695 1_455
S13 S17 2.112786 1_555
