# generated using pymatgen
data_NaCa4TaTi4(SiO5)5
_symmetry_space_group_name_H-M   'P 1'
_cell_length_a   5.51585100
_cell_length_b   5.52132754
_cell_length_c   32.84719100
_cell_angle_alpha   91.57840551
_cell_angle_beta   91.62803107
_cell_angle_gamma   105.23068877
_symmetry_Int_Tables_number   1
_chemical_formula_structural   NaCa4TaTi4(SiO5)5
_chemical_formula_sum   'Na2 Ca8 Ta2 Ti8 Si10 O50'
_cell_volume   964.19330985
_cell_formula_units_Z   2
loop_
 _symmetry_equiv_pos_site_id
 _symmetry_equiv_pos_as_xyz
  1  'x, y, z'
loop_
 _atom_site_type_symbol
 _atom_site_label
 _atom_site_symmetry_multiplicity
 _atom_site_fract_x
 _atom_site_fract_y
 _atom_site_fract_z
 _atom_site_occupancy
  Na  Na0  1  0.67220300  0.33183900  0.25467700  1
  Na  Na1  1  0.27046500  0.93127200  0.45553800  1
  Ca  Ca0  1  0.07369600  0.72910300  0.04829000  1
  Ca  Ca1  1  0.87120500  0.52840000  0.64952100  1
  Ca  Ca2  1  0.53165600  0.87518200  0.14602200  1
  Ca  Ca3  1  0.47276000  0.12940300  0.84944100  1
  Ca  Ca4  1  0.13196700  0.47248600  0.34608400  1
  Ca  Ca5  1  0.72954200  0.07030300  0.54906900  1
  Ca  Ca6  1  0.32932300  0.67241200  0.74945600  1
  Ca  Ca7  1  0.92996800  0.27335700  0.94894000  1
  Ta  Ta0  1  0.10569500  0.10753500  0.19985500  1
  Ta  Ta1  1  0.70053500  0.70321500  0.40167400  1
  Ti  Ti0  1  0.50591800  0.50029000  0.99752000  1
  Ti  Ti1  1  0.30098900  0.30467300  0.09691400  1
  Ti  Ti2  1  0.89630900  0.89801000  0.29976600  1
  Ti  Ti3  1  0.49339900  0.49640400  0.50152600  1
  Ti  Ti4  1  0.29996700  0.29515100  0.59990900  1
  Ti  Ti5  1  0.09798500  0.10320400  0.69905400  1
  Ti  Ti6  1  0.90497900  0.89944300  0.79846300  1
  Ti  Ti7  1  0.70014000  0.70568600  0.89799800  1
  Si  Si0  1  0.88151000  0.52150100  0.14748000  1
  Si  Si1  1  0.48169600  0.11858200  0.34894700  1
  Si  Si2  1  0.08016500  0.71645600  0.55145100  1
  Si  Si3  1  0.72064200  0.08069300  0.04890100  1
  Si  Si4  1  0.67943000  0.31848900  0.75042400  1
  Si  Si5  1  0.32142900  0.68481700  0.25097100  1
  Si  Si6  1  0.28066500  0.91959300  0.94961700  1
  Si  Si7  1  0.91866600  0.28205100  0.45247400  1
  Si  Si8  1  0.51722800  0.87801800  0.65079400  1
  Si  Si9  1  0.11899500  0.47994700  0.85000900  1
  O  O0  1  0.71350500  0.83808800  0.01819200  1
  O  O1  1  0.14139100  0.57016500  0.12149500  1
  O  O2  1  0.30728800  0.44403900  0.21907300  1
  O  O3  1  0.33017600  0.46739000  0.04916000  1
  O  O4  1  0.64113900  0.51499000  0.11651000  1
  O  O5  1  0.84203500  0.26029000  0.17288600  1
  O  O6  1  0.74821900  0.16472100  0.32516800  1
  O  O7  1  0.90295400  0.03992800  0.42076900  1
  O  O8  1  0.92712700  0.06465900  0.24944900  1
  O  O9  1  0.76735500  0.33789900  0.02233100  1
  O  O10  1  0.96037500  0.08714900  0.08066900  1
  O  O11  1  0.24177900  0.11282800  0.31785800  1
  O  O12  1  0.43847900  0.85683700  0.37459100  1
  O  O13  1  0.28015500  0.13731300  0.14887300  1
  O  O14  1  0.34419400  0.75994100  0.52702800  1
  O  O15  1  0.46225600  0.03515200  0.07544400  1
  O  O16  1  0.50836100  0.63397700  0.62024900  1
  O  O17  1  0.52450100  0.66291000  0.45119700  1
  O  O18  1  0.35830800  0.93136100  0.22169900  1
  O  O19  1  0.56111100  0.69820100  0.28210800  1
  O  O20  1  0.83750600  0.70919300  0.52058800  1
  O  O21  1  0.03205500  0.45876500  0.57847500  1
  O  O22  1  0.87672700  0.73323800  0.35009800  1
  O  O23  1  0.88740100  0.76365100  0.17850800  1
  O  O24  1  0.93681700  0.36431200  0.72380600  1
  O  O25  1  0.06778000  0.64181000  0.27781500  1
  O  O26  1  0.11106200  0.23695900  0.81925800  1
  O  O27  1  0.12773100  0.26566400  0.65119500  1
  O  O28  1  0.95432400  0.52876900  0.42328300  1
  O  O29  1  0.16012900  0.29628100  0.48326100  1
  O  O30  1  0.43617600  0.30993000  0.71961400  1
  O  O31  1  0.63484500  0.06115500  0.77720800  1
  O  O32  1  0.46425400  0.32525400  0.55152300  1
  O  O33  1  0.48511300  0.36128300  0.37998000  1
  O  O34  1  0.53788200  0.96600200  0.92292700  1
  O  O35  1  0.66654500  0.24080600  0.47976400  1
  O  O36  1  0.72942200  0.86728100  0.85031900  1
  O  O37  1  0.56277100  0.13582000  0.62438500  1
  O  O38  1  0.75898500  0.88505900  0.68214600  1
  O  O39  1  0.03763600  0.91166900  0.91878400  1
  O  O40  1  0.23592000  0.66212700  0.97632400  1
  O  O41  1  0.06691700  0.92891400  0.75075500  1
  O  O42  1  0.08459200  0.95809100  0.58282900  1
  O  O43  1  0.25995000  0.83369800  0.67767100  1
  O  O44  1  0.16524300  0.73701600  0.82333800  1
  O  O45  1  0.36009800  0.48655200  0.88140600  1
  O  O46  1  0.66783400  0.52976600  0.94983300  1
  O  O47  1  0.68593800  0.55990700  0.78167900  1
  O  O48  1  0.86138800  0.43529800  0.87675200  1
  O  O49  1  0.28711700  0.16037200  0.98094700  1
loop_
_geom_bond_atom_site_label_1
_geom_bond_atom_site_label_2
_geom_bond_distance
_geom_bond_site_symmetry_2
Na0 O8 2.296187 1_555
Na0 O19 2.421011 1_555
Na0 O25 2.477831 1_655
Na0 O2 2.522740 1_555
Na0 O6 2.579581 1_555
Na0 O18 2.609673 1_545
Na0 O5 2.920687 1_555
Na1 O17 2.295609 1_555
Na1 O29 2.415785 1_565
Na1 O35 2.488285 1_565
Na1 O7 2.513696 1_465
Na1 O28 2.613680 1_455
Na1 O14 2.616248 1_555
Na1 O12 2.894362 1_555
Ca0 O3 2.272509 1_555
Ca0 O0 2.415784 1_455
Ca0 O10 2.449722 1_465
Ca0 O9 2.479263 1_455
Ca0 O15 2.479905 1_565
Ca0 O40 2.602161 1_554
Ca0 O1 2.632282 1_555
Ca1 O27 2.277710 1_655
Ca1 O16 2.409227 1_555
Ca1 O38 2.443626 1_555
Ca1 O37 2.481619 1_555
Ca1 O43 2.489303 1_655
Ca1 O21 2.574570 1_655
Ca1 O24 2.673859 1_555
Ca2 O13 2.254494 1_565
Ca2 O4 2.411958 1_555
Ca2 O23 2.433173 1_555
Ca2 O1 2.457860 1_555
Ca2 O5 2.475672 1_565
Ca2 O15 2.557567 1_565
Ca2 O18 2.727261 1_555
Ca3 O36 2.275110 1_545
Ca3 O26 2.420422 1_555
Ca3 O45 2.438029 1_555
Ca3 O48 2.481416 1_555
Ca3 O44 2.488018 1_545
Ca3 O31 2.611332 1_555
Ca3 O34 2.647720 1_545
Ca4 O22 2.266549 1_455
Ca4 O11 2.394220 1_555
Ca4 O6 2.408977 1_455
Ca4 O33 2.440030 1_555
Ca4 O12 2.480745 1_555
Ca4 O25 2.504441 1_555
Ca4 O28 2.782907 1_455
Ca5 O32 2.282970 1_555
Ca5 O20 2.399550 1_545
Ca5 O14 2.430835 1_545
Ca5 O42 2.449665 1_645
Ca5 O21 2.496283 1_655
Ca5 O35 2.536594 1_555
Ca5 O37 2.711487 1_555
Ca6 O41 2.275889 1_555
Ca6 O30 2.420386 1_555
Ca6 O47 2.436243 1_555
Ca6 O24 2.484603 1_455
Ca6 O31 2.486424 1_565
Ca6 O43 2.596679 1_555
Ca6 O44 2.661297 1_555
Ca7 O46 2.274060 1_555
Ca7 O39 2.422694 1_645
Ca7 O49 2.437097 1_655
Ca7 O40 2.483687 1_655
Ca7 O34 2.484743 1_545
Ca7 O48 2.609322 1_555
Ca7 O9 2.643180 1_556
O0 Si3 1.645874 1_565
O0 Ti0 2.003674 1_554
O1 Si0 1.653882 1_455
O1 Ti1 2.056416 1_555
O2 Si5 1.653894 1_555
O2 Ta0 1.974065 1_555
O3 Ti1 1.819207 1_555
O3 Ti0 1.966659 1_554
O4 Si0 1.640223 1_555
O4 Ti1 2.007096 1_555
O5 Si0 1.653932 1_555
O5 Ta0 2.055119 1_655
O6 Si1 1.647910 1_555
O6 Ti2 2.033475 1_545
O7 Si7 1.654240 1_555
O7 Ta1 1.975255 1_545
O8 Ti2 1.903875 1_545
O8 Ta0 1.915672 1_655
O9 Si3 1.653367 1_555
O9 Ti0 2.049490 1_554
O10 Si3 1.653325 1_555
O10 Ti1 1.994780 1_655
O11 Si1 1.641467 1_555
O11 Ti2 2.024950 1_445
O12 Si1 1.659024 1_565
O12 Ta1 2.052527 1_555
O13 Ta0 1.944476 1_555
O13 Ti1 1.955033 1_555
O14 Si2 1.647857 1_555
O14 Ti3 2.024219 1_555
O15 Si3 1.658014 1_555
O15 Ti1 2.043627 1_555
O16 Si8 1.647033 1_555
O16 Ti4 2.006265 1_555
O17 Ti3 1.903823 1_555
O17 Ta1 1.906464 1_555
O18 Si5 1.660301 1_555
O18 Ta0 2.023921 1_565
O19 Si5 1.633094 1_555
O19 Ti2 1.950397 1_555
O20 Si2 1.647206 1_655
O20 Ti3 2.023670 1_555
O21 Si2 1.663520 1_555
O21 Ti4 2.042758 1_555
O22 Ti2 1.901050 1_555
O22 Ta1 1.966320 1_555
O23 Si0 1.651531 1_555
O23 Ta0 2.055240 1_665
O24 Si4 1.654698 1_555
O24 Ti5 2.044399 1_655
O25 Si5 1.642681 1_555
O25 Ti2 2.025078 1_455
O26 Si9 1.647455 1_555
O26 Ti6 2.001059 1_445
O27 Ti5 1.821489 1_555
O27 Ti4 1.947234 1_555
O28 Si7 1.659995 1_555
O28 Ta1 2.020086 1_555
O29 Si7 1.633044 1_455
O29 Ti3 1.947737 1_555
O30 Si4 1.647306 1_555
O30 Ti5 2.001473 1_555
O31 Si4 1.658555 1_555
O31 Ti6 2.044268 1_545
O32 Ti4 1.841755 1_555
O32 Ti3 1.906966 1_555
O33 Si1 1.656954 1_555
O33 Ta1 2.045249 1_555
O34 Si6 1.655052 1_555
O34 Ti7 2.046948 1_555
O35 Si7 1.644694 1_555
O35 Ti3 2.026340 1_555
O36 Ti7 1.813977 1_555
O36 Ti6 1.972455 1_555
O37 Si8 1.653548 1_545
O37 Ti4 2.040671 1_555
O38 Si8 1.653114 1_555
O38 Ti5 1.994091 1_665
O39 Si6 1.647485 1_555
O39 Ti7 1.999425 1_455
O40 Si6 1.657697 1_555
O40 Ti0 2.043439 1_555
O41 Ti6 1.815838 1_455
O41 Ti5 1.964517 1_565
O42 Si2 1.657873 1_555
O42 Ti4 1.983038 1_565
O43 Si8 1.659450 1_555
O43 Ti5 2.045049 1_565
O44 Si9 1.654726 1_555
O44 Ti6 2.045219 1_455
O45 Si9 1.651676 1_555
O45 Ti7 1.998029 1_555
O46 Ti0 1.815171 1_555
O46 Ti7 1.972706 1_555
O47 Si4 1.652091 1_555
O47 Ti6 1.998325 1_555
O48 Si9 1.658386 1_655
O48 Ti7 2.045084 1_555
O49 Si6 1.650869 1_545
O49 Ti0 1.997888 1_555
