# generated using pymatgen
data_Na2TbO3
_symmetry_space_group_name_H-M   'P 1'
_cell_length_a   7.40681333
_cell_length_b   7.23449821
_cell_length_c   41.32207297
_cell_angle_alpha   100.01460549
_cell_angle_beta   100.60760053
_cell_angle_gamma   121.46143575
_symmetry_Int_Tables_number   1
_chemical_formula_structural   Na2TbO3
_chemical_formula_sum   'Na48 Tb24 O72'
_cell_volume   1757.56033012
_cell_formula_units_Z   24
loop_
 _symmetry_equiv_pos_site_id
 _symmetry_equiv_pos_as_xyz
  1  'x, y, z'
loop_
 _atom_site_type_symbol
 _atom_site_label
 _atom_site_symmetry_multiplicity
 _atom_site_fract_x
 _atom_site_fract_y
 _atom_site_fract_z
 _atom_site_occupancy
  Tb  Tb0  1  0.06497837  0.93448078  0.87424279  1
  Tb  Tb1  1  0.06732989  0.93427707  0.70789164  1
  Tb  Tb2  1  0.06798956  0.93321700  0.54188052  1
  Tb  Tb3  1  0.06802548  0.92939273  0.37508199  1
  Tb  Tb4  1  0.10042012  0.95395825  0.20807762  1
  Tb  Tb5  1  0.05059852  0.89431573  0.04197074  1
  Tb  Tb6  1  0.42469518  0.55556303  0.87526042  1
  Tb  Tb7  1  0.43074926  0.56283502  0.70757451  1
  Tb  Tb8  1  0.21144552  0.72956353  0.12317262  1
  Tb  Tb9  1  0.43611449  0.56821674  0.54207925  1
  Tb  Tb10  1  0.57695126  0.42077436  0.95795669  1
  Tb  Tb11  1  0.43373147  0.56945530  0.37571464  1
  Tb  Tb12  1  0.56626853  0.43054470  0.79095236  1
  Tb  Tb13  1  0.42304874  0.57922564  0.20870931  1
  Tb  Tb14  1  0.56388551  0.43178326  0.62458775  1
  Tb  Tb15  1  0.56925074  0.43716498  0.45909149  1
  Tb  Tb16  1  0.57530482  0.44443697  0.29140658  1
  Tb  Tb17  1  0.89957988  0.04604175  0.95858838  1
  Tb  Tb18  1  0.93197452  0.07060727  0.79158501  1
  Tb  Tb19  1  0.93201044  0.06678300  0.62478648  1
  Tb  Tb20  1  0.78855448  0.27043647  0.04349438  1
  Tb  Tb21  1  0.93267011  0.06572293  0.45877436  1
  Tb  Tb22  1  0.93502163  0.06551922  0.29242421  1
  Tb  Tb23  1  0.94940148  0.10568427  0.12469626  1
  Na  Na0  1  -0.00294697  0.49801634  0.83279948  1
  Na  Na1  1  0.27924690  0.79627392  0.95818422  1
  Na  Na2  1  0.99700717  0.49775308  0.66599809  1
  Na  Na3  1  0.25308242  0.74849395  0.79138632  1
  Na  Na4  1  0.00299283  0.50224692  0.50066891  1
  Na  Na5  1  0.13763343  0.36876667  0.91809698  1
  Na  Na6  1  0.49858448  0.99521756  0.91404000  1
  Na  Na7  1  0.24973574  0.74295237  0.62419446  1
  Na  Na8  1  0.00294697  0.50198366  0.33386652  1
  Na  Na9  1  0.13401759  0.36368772  0.74924579  1
  Na  Na10  1  0.25318669  0.74688311  0.45872868  1
  Na  Na11  1  0.94649389  0.46959590  0.16891787  1
  Na  Na12  1  0.13766541  0.36016096  0.58258868  1
  Na  Na13  1  0.24693261  0.74577271  0.29210406  1
  Na  Na14  1  0.60972724  0.80461661  0.00050672  1
  Na  Na15  1  0.05350611  0.53040410  0.99774913  1
  Na  Na16  1  0.13412388  0.36246623  0.41623986  1
  Na  Na17  1  0.36019811  0.12924505  0.83275279  1
  Na  Na18  1  0.63508636  0.86397832  0.83353710  1
  Na  Na19  1  0.13311636  0.36329814  0.24951521  1
  Na  Na20  1  0.35635773  0.12670008  0.66555471  1
  Na  Na21  1  0.63611143  0.86556850  0.66635564  1
  Na  Na22  1  0.23095612  0.36275092  0.08331093  1
  Na  Na23  1  0.36388857  0.13443150  0.50031136  1
  Na  Na24  1  0.64364227  0.87329992  0.50111129  1
  Na  Na25  1  0.86688364  0.63670186  0.91715179  1
  Na  Na26  1  0.36491364  0.13602168  0.33312990  1
  Na  Na27  1  0.63980189  0.87075495  0.33391421  1
  Na  Na28  1  0.40856159  0.58385283  0.04095809  1
  Na  Na29  1  0.50388564  0.00336911  0.75009737  1
  Na  Na30  1  0.86587612  0.63753377  0.75042614  1
  Na  Na31  1  0.39027276  0.19538339  0.16615928  1
  Na  Na32  1  0.66151017  0.82848853  0.16472909  1
  Na  Na33  1  0.75306739  0.25422729  0.87456294  1
  Na  Na34  1  0.50000000  0.00000000  0.58333300  1
  Na  Na35  1  0.86233459  0.63983904  0.58407832  1
  Na  Na36  1  0.33848983  0.17151147  0.00193791  1
  Na  Na37  1  0.74681331  0.25311689  0.70793732  1
  Na  Na38  1  0.49611436  -0.00336911  0.41656963  1
  Na  Na39  1  0.86598241  0.63631228  0.41742121  1
  Na  Na40  1  0.59143841  0.41614717  0.12570891  1
  Na  Na41  1  0.75026426  0.25704763  0.54247254  1
  Na  Na42  1  0.50141552  0.00478244  0.25262700  1
  Na  Na43  1  0.86236657  0.63123333  0.24856902  1
  Na  Na44  1  0.74691758  0.25150605  0.37528068  1
  Na  Na45  1  0.50000000  0.00000000  0.08333300  1
  Na  Na46  1  0.76904388  0.63724908  0.08335607  1
  Na  Na47  1  0.72075310  0.20372608  0.20848178  1
  O  O0  1  0.14231142  0.65221308  0.89420785  1
  O  O1  1  0.14824786  0.65262913  0.72643917  1
  O  O2  1  0.35323526  0.84707910  0.85490450  1
  O  O3  1  0.05385543  0.21112789  0.85384695  1
  O  O4  1  0.13550162  0.64180500  0.56123345  1
  O  O5  1  0.35143795  0.84669011  0.68975690  1
  O  O6  1  0.28204142  0.42280408  0.97698870  1
  O  O7  1  0.05497361  0.20774376  0.68718043  1
  O  O8  1  0.13903660  0.64581479  0.39496375  1
  O  O9  1  0.36102057  0.85524988  0.52222232  1
  O  O10  1  0.29390164  0.43937961  0.81175343  1
  O  O11  1  0.19828980  0.05219654  0.93848055  1
  O  O12  1  0.05818770  0.20729716  0.52075207  1
  O  O13  1  0.15717550  0.66281195  0.22670460  1
  O  O14  1  0.36153542  0.85561840  0.35544222  1
  O  O15  1  0.29524748  0.44082978  0.64519025  1
  O  O16  1  0.55194828  0.69732080  0.93720931  1
  O  O17  1  0.20119930  0.05586403  0.77092256  1
  O  O18  1  0.05723149  0.20644659  0.35394623  1
  O  O19  1  0.10989360  0.62836819  0.06170921  1
  O  O20  1  0.35574220  0.85902751  0.18838307  1
  O  O21  1  0.29471079  0.44328105  0.47812754  1
  O  O22  1  0.44086558  0.28109298  0.89581101  1
  O  O23  1  0.55530453  0.70576826  0.77056062  1
  O  O24  1  0.20161803  0.05269878  0.60427847  1
  O  O25  1  0.06207987  0.21846069  0.18693587  1
  O  O26  1  0.79108729  0.94148174  0.89557460  1
  O  O27  1  0.39282998  0.91564025  0.02126707  1
  O  O28  1  0.29749589  0.44723000  0.31194095  1
  O  O29  1  0.44184435  0.29056204  0.72904446  1
  O  O30  1  0.55352067  0.70591098  0.60387627  1
  O  O31  1  0.20650475  0.05659402  0.43836834  1
  O  O32  1  0.02254782  0.18648712  0.02068393  1
  O  O33  1  0.79349525  0.94340598  0.72829866  1
  O  O34  1  0.29015021  0.46590129  0.14542346  1
  O  O35  1  0.44647933  0.29408902  0.56278973  1
  O  O36  1  0.55815565  0.70943796  0.43762254  1
  O  O37  1  0.70250411  0.55277000  0.85472505  1
  O  O38  1  0.20891271  0.05851826  0.27109240  1
  O  O39  1  0.93792013  0.78153931  0.97973113  1
  O  O40  1  0.79838197  0.94730122  0.56238753  1
  O  O41  1  0.44469547  0.29423174  0.39610638  1
  O  O42  1  0.55913442  0.71890702  0.27085599  1
  O  O43  1  0.70528921  0.55671895  0.68853946  1
  O  O44  1  0.64425780  0.14097249  0.97828393  1
  O  O45  1  0.18738371  0.02534086  0.10427576  1
  O  O46  1  0.94276851  0.79355341  0.81271977  1
  O  O47  1  0.79880070  0.94413597  0.39574444  1
  O  O48  1  0.44805172  0.30267920  0.22945769  1
  O  O49  1  0.54945872  0.74109693  0.10519895  1
  O  O50  1  0.70475252  0.55917022  0.52147675  1
  O  O51  1  0.63846458  0.14438160  0.81122478  1
  O  O52  1  0.84282450  0.33718805  0.93996240  1
  O  O53  1  0.94181230  0.79270284  0.64591493  1
  O  O54  1  0.80171020  0.94780346  0.22818645  1
  O  O55  1  0.45054128  0.25890307  0.06146705  1
  O  O56  1  0.70609836  0.56062039  0.35491257  1
  O  O57  1  0.63897943  0.14475012  0.64444368  1
  O  O58  1  0.86096340  0.35418521  0.77170225  1
  O  O59  1  0.94502639  0.79225624  0.47948657  1
  O  O60  1  0.81261629  0.97465914  0.06239024  1
  O  O61  1  0.71795858  0.57719592  0.18967830  1
  O  O62  1  0.64856205  0.15330989  0.47691010  1
  O  O63  1  0.86449838  0.35819500  0.60543355  1
  O  O64  1  0.94614457  0.78887211  0.31281905  1
  O  O65  1  0.70984979  0.53409871  0.02124354  1
  O  O66  1  0.64676474  0.15292090  0.31176250  1
  O  O67  1  0.85175214  0.34737087  0.44022783  1
  O  O68  1  0.97745218  0.81351288  0.14598307  1
  O  O69  1  0.60717002  0.08435975  0.14539893  1
  O  O70  1  0.85768858  0.34778692  0.27245815  1
  O  O71  1  0.89010640  0.37163181  0.10495779  1
loop_
_geom_bond_atom_site_label_1
_geom_bond_atom_site_label_2
_geom_bond_distance
_geom_bond_site_symmetry_2
Na0 O58 2.351014 1_455
Na0 O2 2.351102 1_555
Na0 O0 2.366119 1_555
Na0 O51 2.374104 1_455
Na0 O3 2.577927 1_555
Na0 O46 2.610167 1_455
Na0 O37 2.691175 1_455
Na0 O10 2.705520 1_555
Na1 O44 2.373420 1_565
Na1 O27 2.428952 1_556
Na1 O11 2.440053 1_565
Na1 O0 2.460667 1_555
Na1 O16 2.698440 1_555
Na1 O39 2.788556 1_455
Na2 O63 2.329897 1_555
Na2 O1 2.331212 1_655
Na2 O5 2.345125 1_655
Na2 O57 2.370138 1_555
Na2 O7 2.606347 1_655
Na2 O53 2.609705 1_555
Na2 O43 2.698727 1_555
Na2 O15 2.704500 1_655
Na3 O2 2.455169 1_555
Na3 O1 2.511920 1_555
Na3 O51 2.609760 1_565
Na3 O58 2.628552 1_455
Na3 O10 2.658453 1_555
Na3 O23 2.680665 1_555
Na3 O17 2.689567 1_565
Na3 O46 2.755779 1_455
Na4 O4 2.329897 1_555
Na4 O67 2.331212 1_455
Na4 O62 2.345125 1_455
Na4 O9 2.370139 1_555
Na4 O59 2.606347 1_455
Na4 O12 2.609705 1_555
Na4 O21 2.698727 1_555
Na4 O50 2.704500 1_455
Na5 O6 2.343776 1_555
Na5 O0 2.413099 1_555
Na5 O52 2.431884 1_455
Na5 O3 2.517157 1_555
Na5 O16 2.555687 1_555
Na5 O26 2.616798 1_445
Na5 O11 2.786051 1_555
Na5 O22 2.887937 1_555
Na6 O2 2.279262 1_555
Na6 O52 2.292881 1_565
Na6 O0 2.335378 1_555
Na6 O44 2.471378 1_565
Na6 O22 2.524614 1_565
Na6 O26 2.609931 1_555
Na6 O16 2.680473 1_555
Na6 O11 2.788612 1_565
Na7 O4 2.429246 1_555
Na7 O5 2.534107 1_555
Na7 O63 2.575880 1_455
Na7 O15 2.639055 1_555
Na7 O57 2.641898 1_565
Na7 O30 2.662000 1_555
Na7 O24 2.681944 1_565
Na7 O53 2.763153 1_455
Na8 O8 2.351014 1_555
Na8 O66 2.351102 1_455
Na8 O70 2.366119 1_455
Na8 O14 2.374104 1_555
Na8 O64 2.577927 1_455
Na8 O18 2.610167 1_555
Na8 O28 2.691175 1_555
Na8 O56 2.705520 1_455
Na9 O58 2.350354 1_455
Na9 O1 2.400114 1_555
Na9 O7 2.438131 1_555
Na9 O10 2.465540 1_555
Na9 O33 2.575134 1_445
Na9 O23 2.608889 1_555
Na9 O17 2.774102 1_555
Na9 O29 2.825132 1_555
Na10 O9 2.448627 1_555
Na10 O8 2.461018 1_555
Na10 O21 2.605399 1_555
Na10 O67 2.683830 1_455
Na10 O31 2.684198 1_565
Na10 O36 2.686690 1_555
Na10 O62 2.686871 1_565
Na10 O59 2.730970 1_455
Na11 O13 2.298097 1_655
Na11 O69 2.423949 1_555
Na11 O61 2.425900 1_555
Na11 O71 2.509010 1_555
Na11 O25 2.539217 1_655
Na11 O20 2.678145 1_655
Na11 O68 2.728697 1_555
Na11 O34 2.897254 1_655
Na12 O4 2.363221 1_555
Na12 O63 2.379681 1_455
Na12 O12 2.425390 1_555
Na12 O15 2.459041 1_555
Na12 O40 2.541390 1_445
Na12 O30 2.590890 1_555
Na12 O24 2.759029 1_555
Na12 O35 2.797126 1_555
Na13 O14 2.440630 1_555
Na13 O13 2.542305 1_555
Na13 O28 2.612278 1_555
Na13 O70 2.630858 1_455
Na13 O64 2.669790 1_455
Na13 O38 2.685260 1_565
Na13 O66 2.698674 1_565
Na13 O42 2.704305 1_555
Na14 O27 2.361490 1_555
Na14 O6 2.380117 1_554
Na14 O60 2.423238 1_555
Na14 O16 2.482326 1_554
Na14 O65 2.641699 1_555
Na14 O44 2.654040 1_564
Na14 O32 2.668218 1_665
Na14 O39 2.795724 1_554
Na15 O52 2.298097 1_455
Na15 O27 2.423949 1_556
Na15 O6 2.425900 1_555
Na15 O19 2.509010 1_556
Na15 O39 2.539217 1_455
Na15 O44 2.678145 1_455
Na15 O32 2.728697 1_556
Na15 O65 2.897254 1_456
Na16 O8 2.353087 1_555
Na16 O21 2.435306 1_555
Na16 O67 2.435409 1_455
Na16 O18 2.450124 1_555
Na16 O47 2.555970 1_445
Na16 O36 2.631214 1_555
Na16 O31 2.789580 1_555
Na16 O41 2.823919 1_555
Na17 O51 2.350459 1_555
Na17 O2 2.359008 1_545
Na17 O17 2.442214 1_555
Na17 O22 2.469726 1_555
Na17 O46 2.581301 1_445
Na17 O37 2.591622 1_555
Na17 O10 2.774609 1_555
Na17 O3 2.865449 1_555
Na18 O51 2.360472 1_565
Na18 O2 2.366946 1_555
Na18 O26 2.440164 1_555
Na18 O23 2.474509 1_555
Na18 O10 2.594225 1_555
Na18 O3 2.609529 1_665
Na18 O37 2.789810 1_555
Na18 O46 2.823908 1_555
Na19 O70 2.362890 1_455
Na19 O13 2.446324 1_555
Na19 O28 2.456105 1_555
Na19 O25 2.458231 1_555
Na19 O54 2.533311 1_445
Na19 O42 2.658133 1_555
Na19 O38 2.786303 1_555
Na19 O48 2.823795 1_555
Na20 O57 2.363610 1_555
Na20 O5 2.397093 1_545
Na20 O24 2.414779 1_555
Na20 O29 2.492457 1_555
Na20 O53 2.565337 1_445
Na20 O43 2.633546 1_555
Na20 O15 2.770598 1_555
Na20 O7 2.836171 1_555
Na21 O57 2.344775 1_565
Na21 O5 2.428081 1_555
Na21 O33 2.437740 1_555
Na21 O30 2.453107 1_555
Na21 O15 2.595256 1_555
Na21 O7 2.598659 1_665
Na21 O43 2.798171 1_555
Na21 O53 2.813083 1_555
Na22 O49 2.342739 1_555
Na22 O55 2.367397 1_555
Na22 O34 2.432009 1_555
Na22 O32 2.456181 1_555
Na22 O45 2.613268 1_555
Na22 O60 2.705517 1_445
Na22 O19 2.719179 1_555
Na22 O71 2.856332 1_455
Na23 O9 2.344753 1_545
Na23 O62 2.428081 1_555
Na23 O31 2.437740 1_555
Na23 O35 2.453069 1_555
Na23 O50 2.595256 1_555
Na23 O59 2.598659 1_445
Na23 O21 2.798171 1_555
Na23 O12 2.813083 1_555
Na24 O9 2.363610 1_555
Na24 O62 2.397069 1_565
Na24 O40 2.414779 1_555
Na24 O36 2.492419 1_555
Na24 O12 2.565334 1_665
Na24 O21 2.633547 1_555
Na24 O50 2.770615 1_555
Na24 O59 2.836153 1_555
Na25 O0 2.362914 1_655
Na25 O52 2.446324 1_555
Na25 O37 2.456143 1_555
Na25 O39 2.458231 1_555
Na25 O11 2.533311 1_665
Na25 O22 2.658133 1_555
Na25 O26 2.786303 1_555
Na25 O16 2.823795 1_555
Na26 O14 2.360472 1_545
Na26 O66 2.366946 1_555
Na26 O38 2.440164 1_555
Na26 O41 2.474509 1_555
Na26 O56 2.594226 1_555
Na26 O64 2.609527 1_445
Na26 O28 2.789828 1_555
Na26 O18 2.823891 1_555
Na27 O14 2.350459 1_555
Na27 O66 2.359008 1_565
Na27 O47 2.442214 1_555
Na27 O42 2.469726 1_555
Na27 O18 2.581304 1_665
Na27 O28 2.591620 1_555
Na27 O56 2.774591 1_555
Na27 O64 2.865466 1_555
Na28 O6 2.469839 1_554
Na28 O49 2.473959 1_555
Na28 O32 2.615621 1_555
Na28 O60 2.656203 1_555
Na28 O19 2.660583 1_555
Na28 O65 2.679361 1_555
Na28 O27 2.715415 1_555
Na28 O55 2.774940 1_555
Na29 O5 2.328367 1_545
Na29 O51 2.351571 1_555
Na29 O1 2.354804 1_545
Na29 O58 2.359920 1_555
Na29 O29 2.600556 1_555
Na29 O23 2.620301 1_545
Na29 O33 2.673532 1_545
Na29 O17 2.719642 1_555
Na30 O58 2.353087 1_555
Na30 O43 2.435268 1_555
Na30 O1 2.435386 1_655
Na30 O46 2.450124 1_555
Na30 O17 2.555968 1_665
Na30 O29 2.631216 1_555
Na30 O33 2.789563 1_555
Na30 O23 2.823936 1_555
Na31 O69 2.361490 1_555
Na31 O61 2.380118 1_555
Na31 O45 2.423238 1_555
Na31 O48 2.482366 1_555
Na31 O34 2.641683 1_555
Na31 O20 2.654062 1_545
Na31 O68 2.668221 1_445
Na31 O25 2.795743 1_555
Na32 O49 2.302043 1_555
Na32 O69 2.323831 1_565
Na32 O61 2.414396 1_555
Na32 O54 2.444162 1_555
Na32 O34 2.452712 1_555
Na32 O25 2.638936 1_665
Na32 O68 2.644011 1_555
Na32 O20 2.719473 1_555
Na33 O51 2.440630 1_555
Na33 O52 2.542305 1_555
Na33 O37 2.612296 1_555
Na33 O0 2.630862 1_655
Na33 O3 2.669809 1_655
Na33 O26 2.685260 1_545
Na33 O2 2.698674 1_545
Na33 O22 2.704305 1_555
Na34 O9 2.351813 1_545
Na34 O57 2.351813 1_555
Na34 O63 2.409206 1_555
Na34 O4 2.409206 1_545
Na34 O35 2.605579 1_555
Na34 O30 2.605579 1_545
Na34 O40 2.692178 1_545
Na34 O24 2.692178 1_555
Na35 O63 2.363221 1_555
Na35 O4 2.379681 1_655
Na35 O53 2.425390 1_555
Na35 O50 2.459041 1_555
Na35 O24 2.541393 1_665
Na35 O35 2.590888 1_555
Na35 O40 2.759047 1_555
Na35 O30 2.797109 1_555
Na36 O55 2.302004 1_555
Na36 O27 2.323813 1_545
Na36 O6 2.414396 1_554
Na36 O11 2.444162 1_554
Na36 O65 2.452712 1_555
Na36 O39 2.638936 1_444
Na36 O32 2.644011 1_555
Na36 O44 2.719473 1_554
Na37 O57 2.448627 1_555
Na37 O58 2.461018 1_555
Na37 O43 2.605381 1_555
Na37 O1 2.683825 1_655
Na37 O33 2.684216 1_545
Na37 O29 2.686709 1_555
Na37 O5 2.686876 1_545
Na37 O7 2.730951 1_655
Na38 O62 2.328367 1_555
Na38 O14 2.351571 1_545
Na38 O67 2.354804 1_555
Na38 O8 2.359919 1_545
Na38 O36 2.600556 1_545
Na38 O41 2.620301 1_555
Na38 O31 2.673532 1_555
Na38 O47 2.719642 1_545
Na39 O8 2.350377 1_655
Na39 O67 2.400114 1_555
Na39 O59 2.438131 1_555
Na39 O56 2.465578 1_555
Na39 O31 2.575134 1_665
Na39 O41 2.608889 1_555
Na39 O47 2.774102 1_555
Na39 O36 2.825132 1_555
Na40 O61 2.469839 1_555
Na40 O55 2.473997 1_555
Na40 O68 2.615621 1_555
Na40 O45 2.656201 1_555
Na40 O71 2.660583 1_555
Na40 O34 2.679361 1_555
Na40 O69 2.715397 1_555
Na40 O49 2.774958 1_555
Na41 O63 2.429246 1_555
Na41 O62 2.534107 1_555
Na41 O4 2.575880 1_655
Na41 O50 2.639055 1_555
Na41 O9 2.641895 1_545
Na41 O35 2.661981 1_555
Na41 O40 2.681926 1_545
Na41 O12 2.763153 1_655
Na42 O66 2.279262 1_555
Na42 O13 2.292881 1_545
Na42 O70 2.335379 1_555
Na42 O20 2.471378 1_545
Na42 O42 2.524614 1_545
Na42 O38 2.609931 1_555
Na42 O48 2.680473 1_555
Na42 O54 2.788612 1_545
Na43 O61 2.343738 1_555
Na43 O70 2.413099 1_555
Na43 O13 2.431861 1_655
Na43 O64 2.517157 1_555
Na43 O48 2.555690 1_555
Na43 O38 2.616796 1_665
Na43 O54 2.786034 1_555
Na43 O42 2.887955 1_555
Na44 O66 2.455169 1_555
Na44 O67 2.511920 1_555
Na44 O14 2.609760 1_545
Na44 O8 2.628555 1_655
Na44 O56 2.658471 1_555
Na44 O41 2.680665 1_555
Na44 O47 2.689567 1_545
Na44 O18 2.755797 1_655
Na45 O55 2.375254 1_555
Na45 O49 2.375254 1_545
Na45 O27 2.404293 1_545
Na45 O69 2.404293 1_555
Na45 O71 2.545687 1_555
Na45 O19 2.545689 1_545
Na45 O60 2.696235 1_545
Na45 O45 2.696235 1_555
Na46 O55 2.342739 1_555
Na46 O49 2.367379 1_555
Na46 O65 2.432009 1_555
Na46 O68 2.456181 1_555
Na46 O60 2.613289 1_555
Na46 O45 2.705520 1_665
Na46 O71 2.719179 1_555
Na46 O19 2.856332 1_655
Na47 O20 2.373422 1_545
Na47 O69 2.428952 1_555
Na47 O54 2.440071 1_545
Na47 O70 2.460667 1_555
Na47 O48 2.698457 1_555
Na47 O25 2.788535 1_655
O0 Tb0 2.609917 1_555
O0 Tb6 2.723164 1_555
O1 Tb1 2.597526 1_555
O1 Tb7 2.692809 1_555
O2 Tb6 2.655884 1_555
O2 Tb0 2.731023 1_555
O3 Tb0 2.335792 1_545
O3 Tb6 2.393854 1_555
O3 Tb18 2.396864 1_455
O4 Tb2 2.621784 1_555
O4 Tb9 2.758111 1_555
O5 Tb7 2.594243 1_555
O5 Tb1 2.683016 1_555
O6 Tb10 2.460076 1_555
O6 Tb17 2.541381 1_455
O7 Tb1 2.324632 1_545
O7 Tb19 2.401736 1_455
O7 Tb7 2.444622 1_555
O8 Tb3 2.591119 1_555
O8 Tb11 2.728974 1_555
O9 Tb9 2.631514 1_555
O9 Tb2 2.730645 1_555
O10 Tb12 2.359359 1_555
O10 Tb18 2.436629 1_455
O10 Tb6 2.445102 1_555
O11 Tb0 2.473321 1_545
O11 Tb17 2.484819 1_455
O11 Tb10 2.498016 1_555
O12 Tb2 2.329844 1_545
O12 Tb21 2.385259 1_455
O12 Tb9 2.468203 1_555
O13 Tb13 2.534251 1_555
O13 Tb4 2.564108 1_555
O14 Tb11 2.620582 1_555
O14 Tb3 2.716563 1_555
O15 Tb14 2.329888 1_555
O15 Tb7 2.400639 1_555
O15 Tb19 2.458380 1_455
O16 Tb17 2.319822 1_565
O16 Tb6 2.383828 1_555
O16 Tb10 2.386809 1_555
O17 Tb18 2.352441 1_455
O17 Tb1 2.425412 1_545
O17 Tb12 2.467585 1_555
O18 Tb3 2.353078 1_545
O18 Tb22 2.368478 1_455
O18 Tb11 2.468365 1_555
O19 Tb20 2.272852 1_455
O19 Tb8 2.372228 1_555
O19 Tb5 2.419890 1_555
O20 Tb8 2.509494 1_555
O20 Tb4 2.537374 1_555
O20 Tb13 2.557741 1_555
O21 Tb15 2.329464 1_555
O21 Tb9 2.461594 1_555
O21 Tb21 2.469041 1_455
O22 Tb6 2.339991 1_555
O22 Tb10 2.390182 1_555
O22 Tb0 2.419760 1_545
O23 Tb12 2.325560 1_555
O23 Tb7 2.424591 1_555
O23 Tb18 2.475569 1_565
O24 Tb19 2.349822 1_455
O24 Tb2 2.401508 1_545
O24 Tb14 2.472726 1_555
O25 Tb4 2.358562 1_545
O25 Tb23 2.397058 1_455
O25 Tb13 2.404846 1_555
O26 Tb0 2.375943 1_655
O26 Tb17 2.430662 1_565
O26 Tb6 2.510267 1_555
O27 Tb20 2.521644 1_565
O27 Tb5 2.759937 1_555
O28 Tb16 2.373750 1_555
O28 Tb11 2.454358 1_555
O28 Tb22 2.484643 1_455
O29 Tb7 2.328887 1_555
O29 Tb12 2.382409 1_555
O29 Tb1 2.441888 1_545
O30 Tb14 2.323014 1_555
O30 Tb9 2.379664 1_555
O30 Tb19 2.470899 1_565
O31 Tb21 2.362045 1_455
O31 Tb3 2.434741 1_545
O31 Tb15 2.478643 1_555
O32 Tb17 2.390123 1_454
O32 Tb20 2.400454 1_455
O32 Tb5 2.514448 1_545
O33 Tb1 2.362066 1_655
O33 Tb18 2.434741 1_565
O33 Tb7 2.478641 1_555
O34 Tb23 2.336010 1_455
O34 Tb13 2.438045 1_555
O34 Tb8 2.529229 1_555
O35 Tb9 2.322993 1_555
O35 Tb14 2.379703 1_555
O35 Tb2 2.470901 1_545
O36 Tb15 2.328865 1_555
O36 Tb11 2.382409 1_555
O36 Tb21 2.441890 1_565
O37 Tb6 2.373771 1_555
O37 Tb12 2.454319 1_555
O37 Tb0 2.484640 1_655
O38 Tb22 2.375943 1_455
O38 Tb4 2.430702 1_545
O38 Tb16 2.510267 1_555
O39 Tb17 2.358583 1_565
O39 Tb5 2.397058 1_656
O39 Tb10 2.404845 1_555
O40 Tb2 2.349801 1_655
O40 Tb19 2.401546 1_565
O40 Tb9 2.472728 1_555
O41 Tb11 2.325560 1_555
O41 Tb15 2.424553 1_555
O41 Tb3 2.475569 1_545
O42 Tb16 2.339991 1_555
O42 Tb13 2.390220 1_555
O42 Tb22 2.419760 1_565
O43 Tb7 2.329444 1_555
O43 Tb14 2.461594 1_555
O43 Tb1 2.469044 1_655
O44 Tb20 2.509494 1_556
O44 Tb17 2.537391 1_555
O44 Tb10 2.557758 1_555
O45 Tb23 2.367160 1_455
O45 Tb5 2.396211 1_545
O45 Tb8 2.479561 1_545
O46 Tb18 2.353057 1_565
O46 Tb0 2.368516 1_655
O46 Tb12 2.468367 1_555
O47 Tb3 2.352441 1_655
O47 Tb21 2.425374 1_565
O47 Tb11 2.467585 1_555
O48 Tb4 2.319821 1_545
O48 Tb16 2.383828 1_555
O48 Tb13 2.386829 1_555
O49 Tb23 2.570515 1_565
O49 Tb8 2.704565 1_555
O50 Tb9 2.329888 1_555
O50 Tb15 2.400678 1_555
O50 Tb2 2.458380 1_655
O51 Tb12 2.620582 1_555
O51 Tb18 2.716563 1_555
O52 Tb10 2.534235 1_555
O52 Tb17 2.564091 1_555
O53 Tb19 2.329844 1_565
O53 Tb1 2.385221 1_655
O53 Tb14 2.468203 1_555
O54 Tb22 2.473321 1_565
O54 Tb4 2.484840 1_655
O54 Tb13 2.498013 1_555
O55 Tb5 2.570518 1_545
O55 Tb20 2.704547 1_555
O56 Tb11 2.359380 1_555
O56 Tb3 2.436627 1_655
O56 Tb16 2.445063 1_555
O57 Tb14 2.631497 1_555
O57 Tb19 2.730628 1_555
O58 Tb18 2.591136 1_555
O58 Tb12 2.728991 1_555
O59 Tb21 2.324653 1_565
O59 Tb2 2.401736 1_655
O59 Tb15 2.444620 1_555
O60 Tb5 2.367142 1_655
O60 Tb23 2.396249 1_565
O60 Tb20 2.479542 1_565
O61 Tb13 2.460056 1_555
O61 Tb4 2.541385 1_655
O62 Tb15 2.594258 1_555
O62 Tb21 2.683032 1_555
O63 Tb19 2.621784 1_555
O63 Tb14 2.758111 1_555
O64 Tb22 2.335771 1_565
O64 Tb16 2.393855 1_555
O64 Tb3 2.396902 1_655
O65 Tb5 2.336010 1_655
O65 Tb10 2.438083 1_554
O65 Tb20 2.529229 1_555
O66 Tb16 2.655884 1_555
O66 Tb22 2.731023 1_555
O67 Tb21 2.597510 1_555
O67 Tb15 2.692793 1_555
O68 Tb4 2.390085 1_655
O68 Tb8 2.400454 1_655
O68 Tb23 2.514448 1_565
O69 Tb8 2.521645 1_545
O69 Tb23 2.759916 1_555
O70 Tb22 2.609934 1_555
O70 Tb16 2.723180 1_555
O71 Tb8 2.272852 1_655
O71 Tb20 2.372228 1_555
O71 Tb23 2.419890 1_555
