# generated using pymatgen
data_Na2Zn(SiO3)2
_symmetry_space_group_name_H-M   'P 1'
_cell_length_a   5.11832068
_cell_length_b   5.11832064
_cell_length_c   11.21917329
_cell_angle_alpha   102.58833197
_cell_angle_beta   102.58833496
_cell_angle_gamma   92.55319757
_symmetry_Int_Tables_number   1
_chemical_formula_structural   Na2Zn(SiO3)2
_chemical_formula_sum   'Na4 Zn2 Si4 O12'
_cell_volume   278.64002647
_cell_formula_units_Z   2
loop_
 _symmetry_equiv_pos_site_id
 _symmetry_equiv_pos_as_xyz
  1  'x, y, z'
loop_
 _atom_site_type_symbol
 _atom_site_label
 _atom_site_symmetry_multiplicity
 _atom_site_fract_x
 _atom_site_fract_y
 _atom_site_fract_z
 _atom_site_occupancy
  Na  Na0  1  0.82173123  0.87148028  0.65584325  1
  Na  Na1  1  0.12851972  0.17826877  0.34415675  1
  Na  Na2  1  0.03436297  0.58411202  0.15584325  1
  Na  Na3  1  0.41588798  0.96563703  0.84415675  1
  Zn  Zn0  1  0.24890696  0.75109304  0.50000000  1
  Zn  Zn1  1  -0.00109304  0.00109304  -0.00000000  1
  Si  Si0  1  0.39383643  0.34656133  0.66604024  1
  Si  Si1  1  0.65343867  0.60616357  0.33395976  1
  Si  Si2  1  0.56947791  0.02220381  0.16604024  1
  Si  Si3  1  0.97779619  0.43052209  0.83395976  1
  O  O0  1  0.34480791  0.13415225  0.53416875  1
  O  O1  1  0.86584775  0.65519209  0.46583125  1
  O  O2  1  0.65001650  0.93936085  0.03416875  1
  O  O3  1  0.06063915  0.34998350  0.96583125  1
  O  O4  1  0.15884202  0.27610642  0.73858450  1
  O  O5  1  0.72389358  0.84115798  0.26141550  1
  O  O6  1  0.71247808  0.32974148  0.23858450  1
  O  O7  1  0.67025852  0.28752192  0.76141550  1
  O  O8  1  0.41142475  0.65544901  0.65733651  1
  O  O9  1  0.34455099  0.58857525  0.34266349  1
  O  O10  1  0.00408824  0.74811150  0.84266349  1
  O  O11  1  0.25188850  0.99591176  0.15733651  1
loop_
_geom_bond_atom_site_label_1
_geom_bond_atom_site_label_2
_geom_bond_distance
_geom_bond_site_symmetry_2
Na0 O1 2.241517 1_555
Na0 O10 2.332303 1_655
Na0 O8 2.334471 1_555
Na0 O7 2.446714 1_565
Na0 O4 2.504677 1_665
Na1 O0 2.241517 1_555
Na1 O11 2.332303 1_545
Na1 O9 2.334471 1_555
Na1 O6 2.446713 1_455
Na1 O5 2.504677 1_445
Na2 O3 2.241517 1_554
Na2 O9 2.332300 1_555
Na2 O11 2.334473 1_555
Na2 O5 2.446716 1_455
Na2 O6 2.504680 1_455
Na3 O2 2.241517 1_556
Na3 O8 2.332301 1_555
Na3 O10 2.334473 1_555
Na3 O4 2.446716 1_565
Na3 O7 2.504680 1_565
O0 Si0 1.595796 1_555
O0 Zn0 1.933015 1_545
O1 Si1 1.595796 1_555
O1 Zn0 1.933015 1_655
O2 Si2 1.595798 1_565
O2 Zn1 1.933015 1_665
O3 Si3 1.595798 1_455
O3 Zn1 1.933015 1_556
O4 Si0 1.659854 1_555
O4 Si3 1.660459 1_455
O5 Si1 1.659854 1_555
O5 Si2 1.660459 1_565
O6 Si2 1.659851 1_555
O6 Si1 1.660461 1_555
O7 Si3 1.659851 1_555
O7 Si0 1.660461 1_555
O8 Si0 1.604868 1_555
O8 Zn0 1.954576 1_555
O9 Si1 1.604868 1_555
O9 Zn0 1.954576 1_555
O10 Si3 1.604858 1_455
O10 Zn1 1.954578 1_566
O11 Si2 1.604858 1_565
O11 Zn1 1.954578 1_565
