# generated using pymatgen
data_W9C4
_symmetry_space_group_name_H-M   'P 1'
_cell_length_a   7.07694901
_cell_length_b   7.07694901
_cell_length_c   7.07694929
_cell_angle_alpha   79.36774082
_cell_angle_beta   79.36774082
_cell_angle_gamma   79.36773563
_symmetry_Int_Tables_number   1
_chemical_formula_structural   W9C4
_chemical_formula_sum   'W18 C8'
_cell_volume   338.19164801
_cell_formula_units_Z   2
loop_
 _symmetry_equiv_pos_site_id
 _symmetry_equiv_pos_as_xyz
  1  'x, y, z'
loop_
 _atom_site_type_symbol
 _atom_site_label
 _atom_site_symmetry_multiplicity
 _atom_site_fract_x
 _atom_site_fract_y
 _atom_site_fract_z
 _atom_site_occupancy
  W  W0  1  0.13673200  0.80469600  0.80328000  1
  W  W1  1  0.14370000  0.14275900  0.46392600  1
  W  W2  1  0.14275900  0.46392600  0.14370000  1
  W  W3  1  0.80593800  0.47326800  0.47496100  1
  W  W4  1  0.80469600  0.80328000  0.13673200  1
  W  W5  1  0.86326800  0.19672000  0.19530400  1
  W  W6  1  0.80328000  0.13673200  0.80469600  1
  W  W7  1  0.46392600  0.14370000  0.14275900  1
  W  W8  1  0.85630000  0.53607400  0.85724100  1
  W  W9  1  0.47326800  0.47496100  0.80593800  1
  W  W10  1  0.85724100  0.85630000  0.53607400  1
  W  W11  1  0.53607400  0.85724100  0.85630000  1
  W  W12  1  0.47496100  0.80593800  0.47326800  1
  W  W13  1  0.52673200  0.19406200  0.52503900  1
  W  W14  1  0.52503900  0.52673200  0.19406200  1
  W  W15  1  0.19406200  0.52503900  0.52673200  1
  W  W16  1  0.19530400  0.86326800  0.19672000  1
  W  W17  1  0.19672000  0.19530400  0.86326800  1
  C  C0  1  0.16567200  0.50000000  0.83432800  1
  C  C1  1  0.83432800  0.16567200  0.50000000  1
  C  C2  1  0.00000000  0.66771800  0.33228200  1
  C  C3  1  0.50000000  0.83432800  0.16567200  1
  C  C4  1  0.00000000  0.00000000  0.00000000  1
  C  C5  1  0.66771800  0.33228200  0.00000000  1
  C  C6  1  0.50000000  0.50000000  0.50000000  1
  C  C7  1  0.33228200  0.00000000  0.66771800  1
loop_
_geom_bond_atom_site_label_1
_geom_bond_atom_site_label_2
_geom_bond_distance
_geom_bond_site_symmetry_2
C0 W17 2.102079 1_555
C0 W0 2.102079 1_555
C0 W9 2.125985 1_555
C0 W15 2.125985 1_555
C0 W8 2.136118 1_455
C0 W2 2.136118 1_556
C1 W5 2.102079 1_555
C1 W6 2.102079 1_555
C1 W3 2.125985 1_555
C1 W13 2.125985 1_555
C1 W1 2.136118 1_655
C1 W10 2.136118 1_545
C2 W15 2.114785 1_555
C2 W3 2.114786 1_455
C2 W4 2.114832 1_455
C2 W16 2.114832 1_555
C2 W2 2.134683 1_555
C2 W10 2.134683 1_455
C3 W4 2.102079 1_555
C3 W16 2.102079 1_555
C3 W14 2.125985 1_555
C3 W12 2.125985 1_555
C3 W7 2.136118 1_565
C3 W11 2.136118 1_554
C4 W5 2.122327 1_455
C4 W6 2.122327 1_454
C4 W16 2.122327 1_545
C4 W0 2.122327 1_544
C4 W17 2.122327 1_554
C4 W4 2.122327 1_445
C5 W14 2.114785 1_555
C5 W9 2.114785 1_554
C5 W6 2.114832 1_554
C5 W5 2.114832 1_555
C5 W8 2.134683 1_554
C5 W7 2.134683 1_555
C6 W3 2.115309 1_555
C6 W13 2.115309 1_555
C6 W15 2.115309 1_555
C6 W12 2.115309 1_555
C6 W14 2.115309 1_555
C6 W9 2.115309 1_555
C7 W12 2.114785 1_545
C7 W13 2.114786 1_555
C7 W17 2.114832 1_555
C7 W0 2.114832 1_545
C7 W11 2.134683 1_545
C7 W1 2.134683 1_555
