# generated using pymatgen
data_Bi12Rh3Br2
_symmetry_space_group_name_H-M   'P 1'
_cell_length_a   18.31387563
_cell_length_b   16.61956622
_cell_length_c   9.28253237
_cell_angle_alpha   84.98396409
_cell_angle_beta   64.69020909
_cell_angle_gamma   30.32582683
_symmetry_Int_Tables_number   1
_chemical_formula_structural   Bi12Rh3Br2
_chemical_formula_sum   'Bi24 Rh6 Br4'
_cell_volume   1014.98580889
_cell_formula_units_Z   2
loop_
 _symmetry_equiv_pos_site_id
 _symmetry_equiv_pos_as_xyz
  1  'x, y, z'
loop_
 _atom_site_type_symbol
 _atom_site_label
 _atom_site_symmetry_multiplicity
 _atom_site_fract_x
 _atom_site_fract_y
 _atom_site_fract_z
 _atom_site_occupancy
  Bi  Bi0  1  0.44245600  0.45119800  0.30758600  1
  Bi  Bi1  1  0.36763100  0.85591600  0.05742700  1
  Bi  Bi2  1  0.30758600  0.79876000  0.44245600  1
  Bi  Bi3  1  0.94241400  0.45124000  0.80754400  1
  Bi  Bi4  1  0.71902600  0.05742700  0.85591600  1
  Bi  Bi5  1  0.79880200  0.80754400  0.45124000  1
  Bi  Bi6  1  0.10731100  0.78591700  0.78727200  1
  Bi  Bi7  1  0.14268900  0.46408300  0.46272800  1
  Bi  Bi8  1  0.78591700  0.10731100  0.31949900  1
  Bi  Bi9  1  0.19257300  0.53097400  0.88236900  1
  Bi  Bi10  1  0.93050100  0.46272800  0.46408300  1
  Bi  Bi11  1  0.53097400  0.19257300  0.39408400  1
  Bi  Bi12  1  0.79876000  0.30758600  0.45119800  1
  Bi  Bi13  1  0.39408400  0.88236900  0.53097400  1
  Bi  Bi14  1  0.78727200  0.31949900  0.10731100  1
  Bi  Bi15  1  0.45124000  0.94241400  0.79880200  1
  Bi  Bi16  1  0.45119800  0.44245600  0.79876000  1
  Bi  Bi17  1  0.05742700  0.71902600  0.36763100  1
  Bi  Bi18  1  0.85591600  0.36763100  0.71902600  1
  Bi  Bi19  1  0.80754400  0.79880200  0.94241400  1
  Bi  Bi20  1  0.46408300  0.14268900  0.93050100  1
  Bi  Bi21  1  0.88236900  0.39408400  0.19257300  1
  Bi  Bi22  1  0.31949900  0.78727200  0.78591700  1
  Bi  Bi23  1  0.46272800  0.93050100  0.14268900  1
  Rh  Rh0  1  0.62500000  0.62500000  0.12500000  1
  Rh  Rh1  1  0.75000000  0.75000000  0.75000000  1
  Rh  Rh2  1  0.62500000  0.12500000  0.62500000  1
  Rh  Rh3  1  0.62500000  0.62500000  0.62500000  1
  Rh  Rh4  1  0.12500000  0.62500000  0.62500000  1
  Rh  Rh5  1  0.50000000  0.50000000  0.50000000  1
  Br  Br0  1  0.79154900  0.20845100  0.79154900  1
  Br  Br1  1  0.20845100  0.79154900  0.20845100  1
  Br  Br2  1  0.04154900  0.45845100  0.04154900  1
  Br  Br3  1  0.45845100  0.04154900  0.45845100  1
loop_
_geom_bond_atom_site_label_1
_geom_bond_atom_site_label_2
_geom_bond_distance
_geom_bond_site_symmetry_2
Bi0 Rh5 2.880425 1_555
Bi0 Rh4 2.945567 1_555
Bi1 Rh0 2.866613 1_555
Bi1 Rh3 2.889011 1_554
Bi2 Rh5 2.880425 1_555
Bi2 Rh0 2.945567 1_555
Bi3 Rh1 2.880425 1_555
Bi3 Rh0 2.945567 1_556
Bi4 Rh2 2.866613 1_555
Bi4 Rh4 2.889011 1_645
Bi5 Rh1 2.880425 1_555
Bi5 Rh2 2.945567 1_565
Bi6 Rh5 2.869560 1_555
Bi6 Rh4 2.884041 1_555
Bi7 Rh1 2.869560 1_455
Bi7 Rh4 2.884041 1_555
Bi8 Rh5 2.869560 1_555
Bi8 Rh2 2.884046 1_555
Bi9 Rh4 2.866613 1_555
Bi9 Rh2 2.889011 1_555
Bi10 Rh1 2.869547 1_555
Bi10 Rh3 2.884058 1_555
Bi11 Rh2 2.866613 1_555
Bi11 Rh4 2.889011 1_555
Bi12 Rh5 2.880425 1_555
Bi12 Rh3 2.945567 1_555
Bi13 Rh3 2.866613 1_555
Bi13 Rh0 2.889011 1_555
Bi14 Rh5 2.869553 1_555
Bi14 Rh0 2.884056 1_555
Bi15 Rh1 2.880425 1_555
Bi15 Rh3 2.945567 1_555
Bi16 Rh5 2.880425 1_555
Bi16 Rh2 2.945567 1_555
Bi17 Rh4 2.866613 1_555
Bi17 Rh2 2.889011 1_465
Bi18 Rh3 2.866613 1_555
Bi18 Rh0 2.889011 1_556
Bi19 Rh1 2.880425 1_555
Bi19 Rh4 2.945567 1_655
Bi20 Rh1 2.869560 1_545
Bi20 Rh2 2.884046 1_555
Bi21 Rh0 2.866613 1_555
Bi21 Rh3 2.889011 1_555
Bi22 Rh5 2.869547 1_555
Bi22 Rh3 2.884058 1_555
Bi23 Rh1 2.869553 1_554
Bi23 Rh0 2.884056 1_555
