# generated using pymatgen
data_Fe5C2
_symmetry_space_group_name_H-M   'P 1'
_cell_length_a   4.52289400
_cell_length_b   5.00411700
_cell_length_c   11.98552642
_cell_angle_alpha   73.11361321
_cell_angle_beta   90.00000000
_cell_angle_gamma   90.00000000
_symmetry_Int_Tables_number   1
_chemical_formula_structural   Fe5C2
_chemical_formula_sum   'Fe20 C8'
_cell_volume   259.57307853
_cell_formula_units_Z   4
loop_
 _symmetry_equiv_pos_site_id
 _symmetry_equiv_pos_as_xyz
  1  'x, y, z'
loop_
 _atom_site_type_symbol
 _atom_site_label
 _atom_site_symmetry_multiplicity
 _atom_site_fract_x
 _atom_site_fract_y
 _atom_site_fract_z
 _atom_site_occupancy
  Fe  Fe0  1  0.16207200  0.42663300  0.65336600  1
  Fe  Fe1  1  0.83792800  0.57336700  0.34663400  1
  Fe  Fe2  1  0.83211500  0.15210400  0.53654200  1
  Fe  Fe3  1  0.16788500  0.15210400  0.03654200  1
  Fe  Fe4  1  0.32834500  0.06424700  0.84819900  1
  Fe  Fe5  1  0.83211500  0.84789600  0.96345800  1
  Fe  Fe6  1  0.83792800  0.42663300  0.15336600  1
  Fe  Fe7  1  0.18769800  0.00000000  0.25000000  1
  Fe  Fe8  1  0.16207200  0.57336700  0.84663400  1
  Fe  Fe9  1  0.32834500  0.93575300  0.65180100  1
  Fe  Fe10  1  0.67165500  0.06424700  0.34819900  1
  Fe  Fe11  1  0.66540700  0.65052600  0.53693700  1
  Fe  Fe12  1  0.16788500  0.84789600  0.46345800  1
  Fe  Fe13  1  0.33459300  0.65052600  0.03693700  1
  Fe  Fe14  1  0.33459300  0.34947400  0.46306300  1
  Fe  Fe15  1  0.66540700  0.34947400  0.96306300  1
  Fe  Fe16  1  0.81230200  0.00000000  0.75000000  1
  Fe  Fe17  1  0.67165500  0.93575300  0.15180100  1
  Fe  Fe18  1  0.67495000  0.50000000  0.75000000  1
  Fe  Fe19  1  0.32505000  0.50000000  0.25000000  1
  C  C0  1  0.44031900  0.28379500  0.13589100  1
  C  C1  1  0.44031900  0.71620500  0.36410900  1
  C  C2  1  0.93228700  0.78026300  0.63755900  1
  C  C3  1  0.06771300  0.78026300  0.13755900  1
  C  C4  1  0.93228700  0.21973700  0.86244100  1
  C  C5  1  0.55968100  0.71620500  0.86410900  1
  C  C6  1  0.06771300  0.21973700  0.36244100  1
  C  C7  1  0.55968100  0.28379500  0.63589100  1
loop_
_geom_bond_atom_site_label_1
_geom_bond_atom_site_label_2
_geom_bond_distance
_geom_bond_site_symmetry_2
C0 Fe13 1.933564 1_555
C0 Fe3 1.956100 1_555
C0 Fe6 1.968702 1_555
C0 Fe17 1.992863 1_545
C0 Fe7 2.016040 1_555
C0 Fe19 2.042659 1_555
C0 Fe15 2.244943 1_554
C1 Fe14 1.933564 1_555
C1 Fe12 1.956100 1_555
C1 Fe1 1.968702 1_555
C1 Fe10 1.992863 1_565
C1 Fe7 2.016040 1_565
C1 Fe19 2.042659 1_555
C1 Fe11 2.244943 1_555
C2 Fe11 1.946232 1_555
C2 Fe2 1.955684 1_565
C2 Fe9 1.980045 1_655
C2 Fe18 2.009918 1_555
C2 Fe0 2.013147 1_655
C2 Fe16 2.044675 1_565
C2 Fe12 2.279038 1_655
C3 Fe13 1.946232 1_555
C3 Fe3 1.955684 1_565
C3 Fe17 1.980045 1_455
C3 Fe19 2.009918 1_555
C3 Fe6 2.013147 1_455
C3 Fe7 2.044675 1_565
C3 Fe5 2.279038 1_454
C4 Fe15 1.946232 1_555
C4 Fe5 1.955684 1_545
C4 Fe4 1.980045 1_655
C4 Fe18 2.009918 1_555
C4 Fe8 2.013147 1_655
C4 Fe16 2.044675 1_555
C4 Fe3 2.279038 1_656
C5 Fe15 1.933564 1_555
C5 Fe5 1.956100 1_555
C5 Fe8 1.968702 1_555
C5 Fe4 1.992863 1_565
C5 Fe16 2.016040 1_565
C5 Fe18 2.042659 1_555
C5 Fe13 2.244943 1_556
C6 Fe14 1.946232 1_555
C6 Fe12 1.955684 1_545
C6 Fe10 1.980045 1_455
C6 Fe19 2.009918 1_555
C6 Fe1 2.013147 1_455
C6 Fe7 2.044675 1_555
C6 Fe2 2.279038 1_455
C7 Fe11 1.933564 1_555
C7 Fe2 1.956100 1_555
C7 Fe0 1.968702 1_555
C7 Fe9 1.992863 1_545
C7 Fe16 2.016040 1_555
C7 Fe18 2.042659 1_555
C7 Fe14 2.244943 1_555
