# generated using pymatgen
data_CaBe2(PO4)2
_symmetry_space_group_name_H-M   'P 1'
_cell_length_a   8.87417500
_cell_length_b   7.87145200
_cell_length_c   8.42389127
_cell_angle_alpha   89.54960146
_cell_angle_beta   90.00000000
_cell_angle_gamma   90.00000000
_symmetry_Int_Tables_number   1
_chemical_formula_structural   CaBe2(PO4)2
_chemical_formula_sum   'Ca4 Be8 P8 O32'
_cell_volume   588.41288523
_cell_formula_units_Z   4
loop_
 _symmetry_equiv_pos_site_id
 _symmetry_equiv_pos_as_xyz
  1  'x, y, z'
loop_
 _atom_site_type_symbol
 _atom_site_label
 _atom_site_symmetry_multiplicity
 _atom_site_fract_x
 _atom_site_fract_y
 _atom_site_fract_z
 _atom_site_occupancy
  Ca  Ca0  1  0.58510400  0.24403200  0.11277200  1
  Ca  Ca1  1  0.08510400  0.75596800  0.38722800  1
  Ca  Ca2  1  0.41489600  0.75596800  0.88722800  1
  Ca  Ca3  1  0.91489600  0.24403200  0.61277200  1
  Be  Be0  1  0.80531100  0.57036800  0.94326000  1
  Be  Be1  1  0.92076000  0.06945200  0.23053900  1
  Be  Be2  1  0.42076000  0.93054800  0.26946100  1
  Be  Be3  1  0.07924000  0.93054800  0.76946100  1
  Be  Be4  1  0.57924000  0.06945200  0.73053900  1
  Be  Be5  1  0.30531100  0.42963200  0.55674000  1
  Be  Be6  1  0.19468900  0.42963200  0.05674000  1
  Be  Be7  1  0.69468900  0.57036800  0.44326000  1
  P  P0  1  0.69787700  0.93893000  0.43978700  1
  P  P1  1  0.19787700  0.06107000  0.06021300  1
  P  P2  1  0.30212300  0.06107000  0.56021300  1
  P  P3  1  0.80212300  0.93893000  0.93978700  1
  P  P4  1  0.91708100  0.43918400  0.23615100  1
  P  P5  1  0.41708100  0.56081600  0.26384900  1
  P  P6  1  0.08291900  0.56081600  0.76384900  1
  P  P7  1  0.58291900  0.43918400  0.73615100  1
  O  O0  1  0.92018500  0.25834900  0.31276200  1
  O  O1  1  0.57981500  0.25834900  0.81276200  1
  O  O2  1  0.07981500  0.74165100  0.68723800  1
  O  O3  1  0.42018500  0.74165100  0.18723800  1
  O  O4  1  0.65625100  0.76034600  0.49570800  1
  O  O5  1  0.15625100  0.23965400  0.00429200  1
  O  O6  1  0.34374900  0.23965400  0.50429200  1
  O  O7  1  0.84374900  0.76034600  0.99570800  1
  O  O8  1  0.80747000  0.06688000  0.07923000  1
  O  O9  1  0.30747000  0.93312000  0.42077000  1
  O  O10  1  0.19253000  0.93312000  0.92077000  1
  O  O11  1  0.69253000  0.06688000  0.57923000  1
  O  O12  1  0.92627100  0.49463500  0.81312000  1
  O  O13  1  0.42627100  0.50536500  0.68688000  1
  O  O14  1  0.07372900  0.50536500  0.18688000  1
  O  O15  1  0.57372900  0.49463500  0.31312000  1
  O  O16  1  0.91273900  0.00416800  0.80914400  1
  O  O17  1  0.41273900  0.99583200  0.69085600  1
  O  O18  1  0.08726100  0.99583200  0.19085600  1
  O  O19  1  0.58726100  0.00416800  0.30914400  1
  O  O20  1  0.63333200  0.56204600  0.87007800  1
  O  O21  1  0.13333200  0.43795400  0.62992200  1
  O  O22  1  0.36666800  0.43795400  0.12992200  1
  O  O23  1  0.86666800  0.56204600  0.37007800  1
  O  O24  1  0.63719200  0.94404500  0.87498400  1
  O  O25  1  0.13719200  0.05595500  0.62501600  1
  O  O26  1  0.36280800  0.05595500  0.12501600  1
  O  O27  1  0.86280800  0.94404500  0.37498400  1
  O  O28  1  0.69402800  0.43696900  0.59523900  1
  O  O29  1  0.19402800  0.56303100  0.90476100  1
  O  O30  1  0.30597200  0.56303100  0.40476100  1
  O  O31  1  0.80597200  0.43696900  0.09523900  1
loop_
_geom_bond_atom_site_label_1
_geom_bond_atom_site_label_2
_geom_bond_distance
_geom_bond_site_symmetry_2
Ca0 O8 2.434024 1_555
Ca0 O26 2.468088 1_555
Ca0 O22 2.472231 1_555
Ca0 O31 2.483224 1_555
Ca0 O19 2.500507 1_555
Ca0 O1 2.529313 1_554
Ca0 O15 2.608080 1_555
Ca1 O9 2.434024 1_555
Ca1 O27 2.468088 1_455
Ca1 O23 2.472231 1_455
Ca1 O30 2.483224 1_555
Ca1 O18 2.500507 1_555
Ca1 O2 2.529313 1_555
Ca1 O14 2.608080 1_555
Ca2 O10 2.434024 1_555
Ca2 O24 2.468088 1_555
Ca2 O20 2.472231 1_555
Ca2 O29 2.483224 1_555
Ca2 O17 2.500507 1_555
Ca2 O3 2.529313 1_556
Ca2 O13 2.608080 1_555
Ca3 O11 2.434024 1_555
Ca3 O25 2.468088 1_655
Ca3 O21 2.472231 1_655
Ca3 O28 2.483224 1_555
Ca3 O16 2.500507 1_555
Ca3 O0 2.529313 1_555
Ca3 O12 2.608080 1_555
Be0 O7 1.599428 1_555
Be0 O20 1.647474 1_555
Be0 O12 1.649156 1_555
Be0 O31 1.649407 1_556
Be1 O18 1.622895 1_645
Be1 O8 1.623634 1_555
Be1 O27 1.643352 1_545
Be1 O0 1.645241 1_555
Be2 O19 1.622895 1_565
Be2 O9 1.623634 1_555
Be2 O26 1.643352 1_565
Be2 O3 1.645241 1_555
Be3 O16 1.622895 1_465
Be3 O10 1.623634 1_555
Be3 O25 1.643352 1_565
Be3 O2 1.645241 1_555
Be4 O17 1.622895 1_545
Be4 O11 1.623634 1_555
Be4 O24 1.643352 1_545
Be4 O1 1.645241 1_555
Be5 O6 1.599428 1_555
Be5 O21 1.647474 1_555
Be5 O13 1.649156 1_555
Be5 O30 1.649407 1_555
Be6 O5 1.599428 1_555
Be6 O22 1.647474 1_555
Be6 O14 1.649156 1_555
Be6 O29 1.649407 1_554
Be7 O4 1.599428 1_555
Be7 O23 1.647474 1_555
Be7 O15 1.649156 1_555
Be7 O28 1.649407 1_555
O0 P4 1.558517 1_555
O1 P7 1.558517 1_555
O2 P6 1.558517 1_555
O3 P5 1.558517 1_555
O4 P0 1.524463 1_555
O5 P1 1.524463 1_555
O6 P2 1.524463 1_555
O7 P3 1.524463 1_555
O8 P3 1.554032 1_544
O9 P2 1.554032 1_565
O10 P1 1.554032 1_566
O11 P0 1.554032 1_545
O12 P6 1.540353 1_655
O13 P7 1.540353 1_555
O14 P4 1.540353 1_455
O15 P5 1.540353 1_555
O16 P3 1.558703 1_545
O17 P2 1.558703 1_565
O18 P1 1.558703 1_565
O19 P0 1.558703 1_545
O20 P7 1.557366 1_555
O21 P6 1.557366 1_555
O22 P5 1.557366 1_555
O23 P4 1.557366 1_555
O24 P3 1.562523 1_555
O25 P2 1.562523 1_555
O26 P1 1.562523 1_555
O27 P0 1.562523 1_555
O28 P7 1.543328 1_555
O29 P6 1.543328 1_555
O30 P5 1.543328 1_555
O31 P4 1.543328 1_555
