# generated using pymatgen
data_Sb3Pd8
_symmetry_space_group_name_H-M   'P 1'
_cell_length_a   15.22748128
_cell_length_b   15.22748128
_cell_length_c   15.22748115
_cell_angle_alpha   29.38379255
_cell_angle_beta   29.38379255
_cell_angle_gamma   29.38379189
_symmetry_Int_Tables_number   1
_chemical_formula_structural   Sb3Pd8
_chemical_formula_sum   'Sb12 Pd32'
_cell_volume   752.27159450
_cell_formula_units_Z   4
loop_
 _symmetry_equiv_pos_site_id
 _symmetry_equiv_pos_as_xyz
  1  'x, y, z'
loop_
 _atom_site_type_symbol
 _atom_site_label
 _atom_site_symmetry_multiplicity
 _atom_site_fract_x
 _atom_site_fract_y
 _atom_site_fract_z
 _atom_site_occupancy
  Sb  Sb0  1  0.76646200  0.76646200  0.76646200  1
  Sb  Sb1  1  0.42701400  0.42701400  0.42701400  1
  Sb  Sb2  1  0.92469800  0.92469800  0.92469800  1
  Sb  Sb3  1  0.16708300  0.85707400  0.49426700  1
  Sb  Sb4  1  0.66780400  0.99286900  0.36051100  1
  Sb  Sb5  1  0.36051100  0.66780400  0.99286900  1
  Sb  Sb6  1  0.57928000  0.57928000  0.57928000  1
  Sb  Sb7  1  0.07931100  0.07931100  0.07931100  1
  Sb  Sb8  1  0.49426700  0.16708300  0.85707400  1
  Sb  Sb9  1  0.26499700  0.26499700  0.26499700  1
  Sb  Sb10  1  0.99286900  0.36051100  0.66780400  1
  Sb  Sb11  1  0.85707400  0.49426700  0.16708300  1
  Pd  Pd0  1  0.20754300  0.93799100  0.56925400  1
  Pd  Pd1  1  0.78470100  0.41349300  0.12124100  1
  Pd  Pd2  1  0.08175500  0.53785900  0.80277800  1
  Pd  Pd3  1  0.90799700  0.28505200  0.62579700  1
  Pd  Pd4  1  0.14068300  0.14068300  0.14068300  1
  Pd  Pd5  1  0.12124100  0.78470100  0.41349300  1
  Pd  Pd6  1  0.07343100  0.43286500  0.71006000  1
  Pd  Pd7  1  0.64167000  0.64167000  0.64167000  1
  Pd  Pd8  1  0.27387200  0.53681100  0.80284900  1
  Pd  Pd9  1  0.05814300  0.56466700  0.30270000  1
  Pd  Pd10  1  0.43286500  0.71006000  0.07343100  1
  Pd  Pd11  1  0.29808700  0.03696200  0.77682500  1
  Pd  Pd12  1  0.28505200  0.62579700  0.90799700  1
  Pd  Pd13  1  0.80284900  0.27387200  0.53681100  1
  Pd  Pd14  1  0.80277800  0.08175500  0.53785900  1
  Pd  Pd15  1  0.20405600  0.20405600  0.20405600  1
  Pd  Pd16  1  0.48826400  0.48826400  0.48826400  1
  Pd  Pd17  1  0.98570700  0.98570700  0.98570700  1
  Pd  Pd18  1  0.03696200  0.77682500  0.29808700  1
  Pd  Pd19  1  0.77682500  0.29808700  0.03696200  1
  Pd  Pd20  1  0.36437400  0.36437400  0.36437400  1
  Pd  Pd21  1  0.41349300  0.12124100  0.78470100  1
  Pd  Pd22  1  0.93799100  0.56925400  0.20754300  1
  Pd  Pd23  1  0.56466700  0.30270000  0.05814300  1
  Pd  Pd24  1  0.71006000  0.07343100  0.43286500  1
  Pd  Pd25  1  0.62579700  0.90799700  0.28505200  1
  Pd  Pd26  1  0.53785900  0.80277800  0.08175500  1
  Pd  Pd27  1  0.70589600  0.70589600  0.70589600  1
  Pd  Pd28  1  0.56925400  0.20754300  0.93799100  1
  Pd  Pd29  1  0.86124200  0.86124200  0.86124200  1
  Pd  Pd30  1  0.30270000  0.05814300  0.56466700  1
  Pd  Pd31  1  0.53681100  0.80284900  0.27387200  1
loop_
_geom_bond_atom_site_label_1
_geom_bond_atom_site_label_2
_geom_bond_distance
_geom_bond_site_symmetry_2
Pd0 Sb2 2.621285 1_455
Pd0 Sb9 2.710983 1_565
Pd0 Sb6 2.840938 1_555
Pd0 Sb3 2.864007 1_555
Pd0 Pd15 2.866746 1_565
Pd0 Pd31 2.907431 1_555
Pd0 Pd3 2.924523 1_465
Pd0 Pd8 2.937950 1_555
Pd0 Pd12 2.949121 1_555
Pd0 Pd30 3.110141 1_565
Pd0 Pd29 3.125207 1_455
Pd0 Pd25 3.137262 1_555
Pd0 Pd13 3.217729 1_465
Pd1 Sb1 2.628460 1_555
Pd1 Sb7 2.704633 1_655
Pd1 Sb0 2.749961 1_554
Pd1 Pd4 2.852903 1_655
Pd1 Sb11 2.900672 1_555
Pd2 Sb11 2.717513 1_456
Pd2 Sb0 2.760565 1_455
Pd2 Sb3 2.821232 1_555
Pd2 Pd4 2.866236 1_556
Pd2 Pd8 2.912505 1_555
Pd3 Sb2 2.636601 1_545
Pd3 Sb6 2.682551 1_555
Pd3 Sb9 2.794998 1_655
Pd3 Pd7 2.862569 1_555
Pd3 Pd9 2.901293 1_655
Pd3 Pd30 2.931442 1_655
Pd3 Sb10 2.951146 1_555
Pd4 Sb7 2.680702 1_555
Pd4 Sb11 2.833058 1_455
Pd4 Sb3 2.833058 1_545
Pd4 Sb8 2.833058 1_554
Pd4 Pd5 2.852903 1_545
Pd5 Sb1 2.628460 1_555
Pd5 Sb7 2.704633 1_565
Pd5 Sb0 2.749961 1_455
Pd5 Sb3 2.900672 1_555
Pd6 Sb1 2.639261 1_555
Pd6 Sb0 2.760148 1_455
Pd6 Sb7 2.809117 1_556
Pd6 Sb10 2.845943 1_455
Pd7 Sb6 2.725168 1_555
Pd7 Sb10 2.815415 1_555
Pd7 Sb5 2.815415 1_555
Pd7 Sb4 2.815416 1_555
Pd7 Pd9 2.962853 1_655
Pd8 Sb8 2.728014 1_555
Pd8 Sb6 2.729343 1_555
Pd8 Sb3 2.840415 1_555
Pd8 Sb11 3.319821 1_456
Pd9 Sb10 2.682582 1_455
Pd9 Sb9 2.727547 1_555
Pd9 Sb5 2.785243 1_554
Pd10 Sb1 2.639261 1_555
Pd10 Sb0 2.760148 1_554
Pd10 Sb7 2.809117 1_565
Pd10 Sb5 2.845943 1_554
Pd10 Pd27 2.867188 1_554
Pd10 Pd20 3.049275 1_555
Pd11 Sb5 2.689894 1_545
Pd11 Sb7 2.724216 1_556
Pd11 Sb10 2.813892 1_455
Pd11 Pd27 2.896110 1_545
Pd11 Pd20 2.911096 1_555
Pd12 Sb2 2.636601 1_455
Pd12 Sb6 2.682551 1_555
Pd12 Sb9 2.794998 1_556
Pd12 Pd7 2.862569 1_555
Pd12 Pd23 2.901293 1_556
Pd12 Pd22 2.924523 1_456
Pd12 Pd9 2.931442 1_556
Pd12 Sb5 2.951146 1_555
Pd12 Pd8 3.014425 1_555
Pd12 Pd28 3.137262 1_555
Pd12 Pd17 3.252743 1_455
Pd12 Pd30 3.376423 1_565
Pd13 Sb11 2.728014 1_555
Pd13 Sb6 2.729342 1_555
Pd13 Sb8 2.840415 1_555
Pd13 Pd15 2.872359 1_655
Pd13 Pd22 2.907432 1_555
Pd13 Pd14 2.912505 1_555
Pd13 Pd29 2.915478 1_545
Pd13 Pd28 2.937950 1_555
Pd13 Pd16 2.977165 1_555
Pd13 Pd3 3.014425 1_555
Pd13 Sb3 3.319820 1_645
Pd14 Sb3 2.717513 1_645
Pd14 Sb0 2.760565 1_545
Pd14 Sb8 2.821232 1_555
Pd14 Pd4 2.866236 1_655
Pd15 Sb9 2.661876 1_555
Pd15 Pd4 2.768105 1_555
Pd15 Sb11 2.814282 1_455
Pd15 Sb8 2.814282 1_554
Pd15 Sb3 2.814282 1_545
Pd15 Pd22 2.866746 1_455
Pd15 Pd28 2.866746 1_554
Pd15 Pd31 2.872359 1_545
Pd15 Pd8 2.872359 1_554
Pd16 Sb1 2.675373 1_555
Pd16 Sb3 2.777945 1_555
Pd16 Sb8 2.777946 1_555
Pd16 Sb11 2.777946 1_555
Pd16 Pd8 2.977165 1_555
Pd16 Pd31 2.977166 1_555
Pd17 Sb2 2.664846 1_555
Pd17 Sb5 2.834775 1_655
Pd17 Sb4 2.834775 1_556
Pd17 Sb10 2.834775 1_565
Pd17 Pd3 3.252743 1_565
Pd17 Pd25 3.252743 1_556
Pd18 Sb4 2.689894 1_455
Pd18 Sb7 2.724216 1_565
Pd18 Sb5 2.813892 1_554
Pd18 Pd27 2.896110 1_455
Pd18 Pd20 2.911096 1_555
Pd19 Sb10 2.689894 1_554
Pd19 Sb7 2.724216 1_655
Pd19 Sb4 2.813892 1_545
Pd19 Pd27 2.896110 1_554
Pd19 Pd20 2.911096 1_555
Pd20 Sb1 2.736088 1_555
Pd20 Sb4 2.812395 1_545
Pd20 Sb5 2.812395 1_554
Pd20 Sb10 2.812395 1_455
Pd20 Pd24 3.049275 1_555
Pd20 Pd6 3.049275 1_555
Pd20 Pd23 3.127909 1_555
Pd20 Pd9 3.127909 1_555
Pd20 Pd30 3.127909 1_555
Pd21 Sb1 2.628460 1_555
Pd21 Sb7 2.704633 1_556
Pd21 Sb0 2.749961 1_545
Pd21 Pd4 2.852903 1_556
Pd21 Sb8 2.900672 1_555
Pd22 Sb2 2.621285 1_554
Pd22 Sb9 2.710983 1_655
Pd22 Sb6 2.840938 1_555
Pd22 Sb11 2.864007 1_555
Pd22 Pd31 2.937950 1_555
Pd22 Pd25 2.949121 1_555
Pd22 Pd9 3.110141 1_655
Pd22 Pd29 3.125207 1_554
Pd22 Pd3 3.137262 1_555
Pd22 Pd8 3.217729 1_654
Pd23 Sb5 2.682582 1_554
Pd23 Sb9 2.727547 1_555
Pd23 Sb4 2.785243 1_545
Pd23 Pd25 2.931442 1_545
Pd23 Pd7 2.962853 1_554
Pd23 Pd28 3.110141 1_554
Pd23 Pd3 3.376423 1_554
Pd24 Sb1 2.639261 1_555
Pd24 Sb0 2.760148 1_545
Pd24 Sb7 2.809117 1_655
Pd24 Sb4 2.845943 1_545
Pd24 Pd27 2.867188 1_545
Pd25 Sb2 2.636601 1_554
Pd25 Sb6 2.682551 1_555
Pd25 Sb9 2.794998 1_565
Pd25 Pd7 2.862569 1_555
Pd25 Pd30 2.901293 1_565
Pd25 Pd28 2.924523 1_564
Pd25 Sb4 2.951146 1_555
Pd25 Pd31 3.014425 1_555
Pd25 Pd9 3.376422 1_655
Pd26 Sb8 2.717513 1_564
Pd26 Sb0 2.760565 1_554
Pd26 Sb11 2.821232 1_555
Pd26 Pd4 2.866236 1_565
Pd26 Pd31 2.912505 1_555
Pd27 Sb0 2.645496 1_555
Pd27 Pd7 2.805364 1_555
Pd27 Sb10 2.817808 1_555
Pd27 Sb4 2.817808 1_555
Pd27 Sb5 2.817808 1_555
Pd27 Pd6 2.867188 1_655
Pd28 Sb2 2.621285 1_545
Pd28 Sb9 2.710983 1_556
Pd28 Sb6 2.840938 1_555
Pd28 Sb8 2.864007 1_555
Pd28 Pd8 2.907431 1_555
Pd28 Pd3 2.949121 1_555
Pd28 Pd29 3.125207 1_545
Pd28 Pd31 3.217729 1_546
Pd29 Sb8 2.769415 1_565
Pd29 Sb3 2.769415 1_655
Pd29 Sb11 2.769415 1_556
Pd29 Sb2 2.771730 1_555
Pd29 Pd8 2.915478 1_655
Pd29 Pd31 2.915478 1_556
Pd30 Sb4 2.682582 1_545
Pd30 Sb9 2.727547 1_555
Pd30 Sb10 2.785243 1_455
Pd30 Pd7 2.962853 1_545
Pd31 Sb3 2.728014 1_555
Pd31 Sb6 2.729342 1_555
Pd31 Sb11 2.840415 1_555
Pd31 Sb8 3.319820 1_564
