# generated using pymatgen
data_K2YTi(PO4)3
_symmetry_space_group_name_H-M   'P 1'
_cell_length_a   10.29939200
_cell_length_b   10.35428246
_cell_length_c   20.60098900
_cell_angle_alpha   90.01096231
_cell_angle_beta   90.05537122
_cell_angle_gamma   90.05883808
_symmetry_Int_Tables_number   1
_chemical_formula_structural   K2YTi(PO4)3
_chemical_formula_sum   'K16 Y8 Ti8 P24 O96'
_cell_volume   2196.94521187
_cell_formula_units_Z   8
loop_
 _symmetry_equiv_pos_site_id
 _symmetry_equiv_pos_as_xyz
  1  'x, y, z'
loop_
 _atom_site_type_symbol
 _atom_site_label
 _atom_site_symmetry_multiplicity
 _atom_site_fract_x
 _atom_site_fract_y
 _atom_site_fract_z
 _atom_site_occupancy
  K  K0  1  0.07087500  0.92377600  0.03090500  1
  K  K1  1  0.07263000  0.93043100  0.53433300  1
  K  K2  1  0.70378400  0.79915500  0.39805200  1
  K  K3  1  0.70423000  0.79999200  0.89741900  1
  K  K4  1  0.30073900  0.69944900  0.14705500  1
  K  K5  1  0.29652100  0.70456200  0.64628700  1
  K  K6  1  0.92841600  0.57468100  0.28127900  1
  K  K7  1  0.93202900  0.57518100  0.78095500  1
  K  K8  1  0.42777600  0.43984200  0.46431800  1
  K  K9  1  0.43425300  0.43449900  0.96604200  1
  K  K10  1  0.80079800  0.29225000  0.10126000  1
  K  K11  1  0.79702900  0.29466000  0.60048800  1
  K  K12  1  0.19952600  0.20742000  0.35185100  1
  K  K13  1  0.19948800  0.20365500  0.85039400  1
  K  K14  1  0.56086200  0.06742900  0.71512300  1
  K  K15  1  0.56485700  0.06598900  0.21477400  1
  Y  Y0  1  0.91438800  0.91869100  0.20642400  1
  Y  Y1  1  0.91532100  0.91619000  0.70878600  1
  Y  Y2  1  0.34965700  0.85518500  0.32589800  1
  Y  Y3  1  0.34765500  0.85511500  0.82436900  1
  Y  Y4  1  0.65408800  0.64344300  0.07484600  1
  Y  Y5  1  0.08331000  0.58313900  0.45546900  1
  Y  Y6  1  0.08698200  0.58209400  0.95659600  1
  Y  Y7  1  0.42093000  0.08865400  0.53864500  1
  Ti  Ti0  1  0.64668000  0.64142200  0.57230700  1
  Ti  Ti1  1  0.58682200  0.41546300  0.29028100  1
  Ti  Ti2  1  0.58435700  0.41514200  0.79203100  1
  Ti  Ti3  1  0.14539500  0.35095600  0.17841300  1
  Ti  Ti4  1  0.13927600  0.35330000  0.67687500  1
  Ti  Ti5  1  0.85084200  0.14642200  0.42863300  1
  Ti  Ti6  1  0.85567900  0.14850500  0.92804600  1
  Ti  Ti7  1  0.41403900  0.08640200  0.04146000  1
  P  P0  1  0.72623000  0.97278200  0.05618900  1
  P  P1  1  0.73745000  0.95345300  0.55881200  1
  P  P2  1  0.03311200  0.89085600  0.37083800  1
  P  P3  1  0.03092700  0.88521800  0.87301900  1
  P  P4  1  0.38567300  0.75808400  0.48425100  1
  P  P5  1  0.37910400  0.77902500  0.98476400  1
  P  P6  1  0.62394100  0.72257200  0.23500800  1
  P  P7  1  0.62460200  0.71913200  0.72865500  1
  P  P8  1  0.97053900  0.61200000  0.12133500  1
  P  P9  1  0.95922400  0.61683100  0.61784800  1
  P  P10  1  0.27366500  0.52736300  0.30621700  1
  P  P11  1  0.27173600  0.52782400  0.80590100  1
  P  P12  1  0.76564400  0.45624700  0.93051900  1
  P  P13  1  0.75499700  0.45721000  0.43563400  1
  P  P14  1  0.45704800  0.36442800  0.13620600  1
  P  P15  1  0.46057100  0.38209900  0.63781400  1
  P  P16  1  0.12861600  0.25923300  0.02181500  1
  P  P17  1  0.11590500  0.26126100  0.52103000  1
  P  P18  1  0.87309300  0.24324900  0.27314500  1
  P  P19  1  0.86996500  0.24005100  0.77181900  1
  P  P20  1  0.54738500  0.14055300  0.37984600  1
  P  P21  1  0.54444000  0.13532200  0.88653300  1
  P  P22  1  0.23571800  0.04305400  0.18091500  1
  P  P23  1  0.23030900  0.04939000  0.68497400  1
  O  O0  1  0.10062700  0.99214700  0.16330200  1
  O  O1  1  0.09571300  0.99782600  0.66723300  1
  O  O2  1  0.94085600  0.99935700  0.39719200  1
  O  O3  1  0.93722200  0.99332700  0.89962200  1
  O  O4  1  0.79473800  0.99113500  0.12181300  1
  O  O5  1  0.83257100  0.97765800  0.61462400  1
  O  O6  1  0.29899200  0.96594000  0.23629700  1
  O  O7  1  0.28491900  0.98429400  0.74605500  1
  O  O8  1  0.17335100  0.94215600  0.37510200  1
  O  O9  1  0.17123000  0.93587300  0.87830300  1
  O  O10  1  0.36476900  0.92643200  0.00274600  1
  O  O11  1  0.35282900  0.89580500  0.50523300  1
  O  O12  1  0.99411300  0.85916800  0.30107200  1
  O  O13  1  0.99451400  0.85331400  0.80288000  1
  O  O14  1  0.75716400  0.78720100  0.24259900  1
  O  O15  1  0.73575700  0.83286800  0.03182600  1
  O  O16  1  0.75114400  0.79010100  0.74476600  1
  O  O17  1  0.73486300  0.80583200  0.54124500  1
  O  O18  1  0.53065600  0.78894200  0.28176800  1
  O  O19  1  0.51102900  0.78780800  0.76180900  1
  O  O20  1  0.43499300  0.75359800  0.41368300  1
  O  O21  1  0.43227700  0.76873700  0.91491100  1
  O  O22  1  0.01257400  0.77239600  0.41465300  1
  O  O23  1  0.00652800  0.76710700  0.91618200  1
  O  O24  1  0.98389900  0.72910300  0.66466600  1
  O  O25  1  0.99199800  0.73306600  0.16300900  1
  O  O26  1  0.57242100  0.73072800  0.16506800  1
  O  O27  1  0.59752400  0.72194900  0.65391000  1
  O  O28  1  0.47022900  0.71237900  0.03272000  1
  O  O29  1  0.49593500  0.70412900  0.52987200  1
  O  O30  1  0.26465100  0.66798800  0.28276000  1
  O  O31  1  0.26985700  0.66710200  0.49472300  1
  O  O32  1  0.26197400  0.66843700  0.78268400  1
  O  O33  1  0.24494200  0.71562800  0.99180800  1
  O  O34  1  0.01092900  0.64951300  0.55042700  1
  O  O35  1  0.00606600  0.64014800  0.05072800  1
  O  O36  1  0.63963200  0.57597200  0.25389300  1
  O  O37  1  0.63873000  0.57714400  0.75270300  1
  O  O38  1  0.83093500  0.55860600  0.12662300  1
  O  O39  1  0.81239900  0.57831200  0.61420600  1
  O  O40  1  0.69434100  0.53547200  0.49339000  1
  O  O41  1  0.70148900  0.53218400  0.98588100  1
  O  O42  1  0.20130400  0.50731000  0.37056100  1
  O  O43  1  0.20198700  0.50687000  0.87076700  1
  O  O44  1  0.06604900  0.50691500  0.14922800  1
  O  O45  1  0.03603400  0.49932600  0.64705700  1
  O  O46  1  0.90047700  0.50744000  0.91299500  1
  O  O47  1  0.88865500  0.51210600  0.41757000  1
  O  O48  1  0.41755000  0.48426200  0.31426000  1
  O  O49  1  0.41648000  0.48680800  0.81495800  1
  O  O50  1  0.53536400  0.46878500  0.10097800  1
  O  O51  1  0.54101300  0.49211100  0.60518200  1
  O  O52  1  0.67375300  0.47362000  0.87094900  1
  O  O53  1  0.66086000  0.47349300  0.37701200  1
  O  O54  1  0.20746700  0.43428000  0.25654700  1
  O  O55  1  0.20416400  0.43844400  0.75504000  1
  O  O56  1  0.31109200  0.40596200  0.13786600  1
  O  O57  1  0.31366400  0.41936100  0.63693400  1
  O  O58  1  0.14867300  0.39578400  0.49567600  1
  O  O59  1  0.16375400  0.39304500  0.99561200  1
  O  O60  1  0.51168000  0.34233400  0.20583600  1
  O  O61  1  0.51022900  0.35801000  0.70859700  1
  O  O62  1  0.75645100  0.33870400  0.26661800  1
  O  O63  1  0.75000500  0.33100900  0.76522300  1
  O  O64  1  0.76390300  0.31285600  0.45686100  1
  O  O65  1  0.77383900  0.31187500  0.95239300  1
  O  O66  1  0.98491200  0.30224400  0.23093000  1
  O  O67  1  0.98121000  0.30116400  0.73035800  1
  O  O68  1  0.08373000  0.26545800  0.09405000  1
  O  O69  1  0.08312400  0.26607800  0.59513900  1
  O  O70  1  0.47129200  0.23798200  0.09585000  1
  O  O71  1  0.48687400  0.25897100  0.59861900  1
  O  O72  1  0.53606700  0.25538000  0.33188000  1
  O  O73  1  0.52901000  0.26005000  0.84453400  1
  O  O74  1  0.91675800  0.23695200  0.34570700  1
  O  O75  1  0.91622000  0.23275500  0.84394100  1
  O  O76  1  0.99409900  0.20503000  0.48488000  1
  O  O77  1  0.01858200  0.19717300  0.97975100  1
  O  O78  1  0.25010600  0.17015700  0.01484900  1
  O  O79  1  0.22874500  0.16897100  0.50742600  1
  O  O80  1  0.22737000  0.18746800  0.20295900  1
  O  O81  1  0.22286400  0.19772300  0.70181400  1
  O  O82  1  0.49572700  0.18103200  0.44659700  1
  O  O83  1  0.49006900  0.16112100  0.95583800  1
  O  O84  1  0.83537800  0.11020700  0.24632100  1
  O  O85  1  0.83289800  0.10683100  0.74511200  1
  O  O86  1  0.69260000  0.09742500  0.38320200  1
  O  O87  1  0.69094200  0.09461700  0.88827500  1
  O  O88  1  0.79380900  0.06648700  0.00742400  1
  O  O89  1  0.78818200  0.03314500  0.49937300  1
  O  O90  1  0.32704800  0.02653800  0.12113400  1
  O  O91  1  0.32466400  0.02649300  0.62906900  1
  O  O92  1  0.46804300  0.02958500  0.35066900  1
  O  O93  1  0.47002800  0.02698400  0.85220400  1
  O  O94  1  0.58212100  0.01558100  0.06358300  1
  O  O95  1  0.60257600  0.00247600  0.57710700  1
loop_
_geom_bond_atom_site_label_1
_geom_bond_atom_site_label_2
_geom_bond_distance
_geom_bond_site_symmetry_2
K0 O0 2.834003 1_555
K0 O33 2.918536 1_554
K0 O23 2.941042 1_554
K0 O35 3.038727 1_555
K0 O77 3.068777 1_564
K0 O10 3.082662 1_555
K0 O3 3.118288 1_454
K0 O78 3.164956 1_565
K0 O88 3.250672 1_465
K0 O9 3.312605 1_554
K1 O1 2.834977 1_555
K1 O11 2.970120 1_555
K1 O34 2.995214 1_555
K1 O79 2.997852 1_565
K1 O5 3.016327 1_455
K1 O22 3.021994 1_555
K1 O76 3.127389 1_465
K1 O89 3.199252 1_465
K1 O2 3.213820 1_455
K2 O20 2.826526 1_555
K2 O17 2.967710 1_555
K2 O18 2.986749 1_555
K2 O86 3.105789 1_565
K2 O2 3.201408 1_555
K2 O22 3.210622 1_655
K2 O14 3.252212 1_555
K2 O89 3.312499 1_565
K2 O40 3.364983 1_555
K2 O53 3.427782 1_555
K3 O15 2.808183 1_556
K3 O21 2.842542 1_555
K3 O87 3.059671 1_565
K3 O3 3.123744 1_555
K3 O23 3.155795 1_655
K3 O16 3.183812 1_555
K3 O41 3.318604 1_555
K4 O30 2.839379 1_555
K4 O26 2.840489 1_555
K4 O28 2.936113 1_555
K4 O56 3.046684 1_555
K4 O44 3.131977 1_555
K4 O25 3.216340 1_455
K4 O33 3.253293 1_554
K4 O6 3.315478 1_555
K5 O32 2.857304 1_555
K5 O57 2.964748 1_555
K5 O27 3.109002 1_555
K5 O31 3.157959 1_555
K5 O29 3.159034 1_555
K5 O24 3.252560 1_455
K6 O47 2.910879 1_555
K6 O14 2.931555 1_555
K6 O25 3.009510 1_555
K6 O36 3.026843 1_555
K6 O62 3.031172 1_555
K6 O12 3.048922 1_555
K6 O66 3.061908 1_555
K6 O44 3.148172 1_655
K6 O54 3.262562 1_655
K6 O38 3.343651 1_555
K6 O42 3.429799 1_655
K7 O46 2.828213 1_555
K7 O24 2.926920 1_555
K7 O13 2.984451 1_555
K7 O16 2.997535 1_555
K7 O45 3.062660 1_655
K7 O67 3.065272 1_555
K7 O37 3.075895 1_555
K7 O63 3.162337 1_555
K7 O55 3.186869 1_655
K8 O82 2.794338 1_555
K8 O31 2.929874 1_555
K8 O40 2.977868 1_555
K8 O58 2.981563 1_555
K8 O53 3.020959 1_555
K8 O42 3.107166 1_555
K8 O48 3.127148 1_555
K8 O29 3.130150 1_555
K8 O51 3.172680 1_555
K9 O59 2.884078 1_555
K9 O83 2.896635 1_555
K9 O41 2.959319 1_555
K9 O50 2.988502 1_556
K9 O49 3.164513 1_555
K9 O52 3.177109 1_555
K9 O43 3.183038 1_555
K9 O28 3.209054 1_556
K9 O73 3.238472 1_555
K10 O38 2.823629 1_555
K10 O68 2.931392 1_655
K10 O88 3.033844 1_555
K10 O65 3.085839 1_554
K10 O4 3.147093 1_545
K10 O66 3.276007 1_555
K10 O50 3.290163 1_555
K11 O39 2.954591 1_555
K11 O69 2.963885 1_655
K11 O64 2.984147 1_555
K11 O71 3.215527 1_555
K12 O8 2.800939 1_545
K12 O74 2.931275 1_455
K12 O54 3.062811 1_555
K12 O80 3.087874 1_555
K12 O42 3.128937 1_555
K12 O79 3.243446 1_555
K12 O92 3.324166 1_555
K13 O9 2.846465 1_545
K13 O75 2.936200 1_455
K13 O81 3.071188 1_555
K13 O55 3.126182 1_555
K13 O43 3.167498 1_555
K13 O7 3.249509 1_545
K13 O77 3.253783 1_555
K13 O93 3.334972 1_555
K14 O85 2.896973 1_555
K14 O95 2.953520 1_555
K14 O93 3.005055 1_555
K14 O7 3.036931 1_545
K14 O91 3.038048 1_555
K14 O61 3.057105 1_555
K14 O19 3.093546 1_545
K14 O71 3.205612 1_555
K14 O73 3.345742 1_555
K15 O84 2.896322 1_555
K15 O60 2.919665 1_555
K15 O6 2.960483 1_545
K15 O92 2.996493 1_555
K15 O72 3.123203 1_555
K15 O90 3.142566 1_555
K15 O4 3.144191 1_545
K15 O94 3.163215 1_555
K15 O70 3.178525 1_555
K15 O18 3.202850 1_545
O0 P22 1.530624 1_565
O0 Y0 2.246667 1_455
O1 P23 1.528977 1_565
O1 Y1 2.213440 1_455
O2 P2 1.569299 1_655
O2 Ti5 1.897759 1_565
O3 P3 1.577284 1_655
O3 Ti6 1.906109 1_565
O4 P0 1.536047 1_555
O4 Y0 2.262259 1_555
O5 P1 1.530297 1_555
O5 Y1 2.211963 1_555
O6 P22 1.537504 1_565
O6 Y2 2.234911 1_555
O7 P23 1.534204 1_565
O7 Y3 2.193177 1_555
O8 P2 1.540859 1_555
O8 Y2 2.267661 1_555
O9 P3 1.540517 1_555
O9 Y3 2.289576 1_555
O10 P5 1.577642 1_554
O10 Ti7 1.906345 1_565
O11 P4 1.528329 1_555
O11 Y7 2.224561 1_565
O12 P2 1.527451 1_655
O12 Y0 2.203264 1_555
O13 P3 1.528438 1_655
O13 Y1 2.201168 1_555
O14 P6 1.533828 1_555
O14 Y0 2.242629 1_555
O15 P0 1.536359 1_555
O15 Y4 2.310544 1_555
O16 P7 1.531616 1_555
O16 Y1 2.260837 1_555
O17 P1 1.570894 1_555
O17 Ti0 2.032417 1_555
O18 P6 1.525189 1_555
O18 Y2 2.185815 1_555
O19 P7 1.530845 1_555
O19 Y3 2.232548 1_555
O20 P4 1.541131 1_555
O20 Y2 2.269133 1_555
O21 P5 1.543921 1_555
O21 Y3 2.244504 1_555
O22 P2 1.537602 1_555
O22 Y5 2.253949 1_555
O23 P3 1.532861 1_555
O23 Y6 2.247698 1_555
O24 P9 1.531250 1_555
O24 Y1 2.254094 1_555
O25 P8 1.534913 1_555
O25 Y0 2.266471 1_555
O26 P6 1.537321 1_555
O26 Y4 2.232231 1_555
O27 P7 1.564890 1_555
O27 Ti0 1.944124 1_555
O28 P5 1.527373 1_554
O28 Y4 2.201890 1_555
O29 P4 1.576230 1_555
O29 Ti0 1.896306 1_555
O30 P10 1.537121 1_555
O30 Y2 2.303823 1_555
O31 P4 1.534642 1_555
O31 Y5 2.257108 1_555
O32 P11 1.535945 1_555
O32 Y3 2.290580 1_555
O33 P5 1.536182 1_555
O33 Y6 2.253313 1_555
O34 P9 1.525940 1_455
O34 Y5 2.204143 1_555
O35 P8 1.528264 1_455
O35 Y6 2.195475 1_554
O36 P6 1.575506 1_555
O36 Ti1 1.902442 1_555
O37 P7 1.558405 1_555
O37 Ti2 1.945049 1_555
O38 P8 1.543886 1_555
O38 Y4 2.286228 1_555
O39 P9 1.565249 1_555
O39 Ti0 2.021113 1_555
O40 P13 1.569950 1_555
O40 Ti0 2.022261 1_555
O41 P12 1.535504 1_555
O41 Y4 2.219588 1_556
O42 P10 1.535358 1_555
O42 Y5 2.271243 1_555
O43 P11 1.533129 1_555
O43 Y6 2.267483 1_555
O44 P8 1.575789 1_455
O44 Ti3 1.907664 1_555
O45 P9 1.571485 1_455
O45 Ti4 1.948469 1_555
O46 P12 1.529481 1_555
O46 Y6 2.255544 1_655
O47 P13 1.534945 1_555
O47 Y5 2.272355 1_655
O48 P10 1.556805 1_555
O48 Ti1 1.948078 1_555
O49 P11 1.561531 1_555
O49 Ti2 1.940967 1_555
O50 P14 1.531180 1_555
O50 Y4 2.247808 1_555
O51 P15 1.560548 1_555
O51 Ti0 2.007884 1_555
O52 P12 1.559578 1_555
O52 Ti2 1.962941 1_555
O53 P13 1.557267 1_555
O53 Ti1 2.032481 1_555
O54 P10 1.561327 1_555
O54 Ti3 1.933997 1_555
O55 P11 1.560637 1_555
O55 Ti4 1.952695 1_555
O56 P14 1.564392 1_555
O56 Ti3 1.983803 1_555
O57 P15 1.561942 1_555
O57 Ti4 2.090790 1_555
O58 P17 1.525290 1_555
O58 Y5 2.214683 1_555
O59 P16 1.530256 1_556
O59 Y6 2.259532 1_555
O60 P14 1.557372 1_555
O60 Ti1 2.048016 1_555
O61 P15 1.564959 1_555
O61 Ti2 1.970618 1_555
O62 P18 1.562162 1_555
O62 Ti1 1.981399 1_555
O63 P19 1.560151 1_555
O63 Ti2 1.994808 1_555
O64 P13 1.560183 1_555
O64 Ti5 2.028181 1_555
O65 P12 1.563734 1_555
O65 Ti6 1.956251 1_555
O66 P18 1.567322 1_555
O66 Ti3 2.039330 1_655
O67 P19 1.563115 1_555
O67 Ti4 2.039021 1_655
O68 P16 1.560034 1_555
O68 Ti3 2.050293 1_555
O69 P17 1.564720 1_555
O69 Ti4 1.995466 1_555
O70 P14 1.557907 1_555
O70 Ti7 2.015612 1_555
O71 P15 1.533456 1_555
O71 Y7 2.256737 1_555
O72 P20 1.550529 1_555
O72 Ti1 1.937721 1_555
O73 P21 1.562798 1_555
O73 Ti2 2.018320 1_555
O74 P18 1.562009 1_555
O74 Ti5 2.063880 1_555
O75 P19 1.561719 1_555
O75 Ti6 2.037989 1_555
O76 P17 1.569706 1_655
O76 Ti5 1.970410 1_555
O77 P16 1.563511 1_556
O77 Ti6 2.048940 1_455
O78 P16 1.561927 1_555
O78 Ti7 1.976042 1_555
O79 P17 1.531400 1_555
O79 Y7 2.241503 1_555
O80 P22 1.565132 1_555
O80 Ti3 1.958711 1_555
O81 P23 1.576469 1_555
O81 Ti4 1.897996 1_555
O82 P20 1.533426 1_555
O82 Y7 2.259701 1_555
O83 P21 1.557282 1_555
O83 Ti7 2.079669 1_556
O84 P18 1.533658 1_555
O84 Y0 2.296532 1_545
O85 P19 1.532780 1_555
O85 Y1 2.276238 1_545
O86 P20 1.562779 1_555
O86 Ti5 1.945442 1_555
O87 P21 1.567436 1_555
O87 Ti6 1.963816 1_555
O88 P0 1.560577 1_545
O88 Ti6 1.950073 1_554
O89 P1 1.566537 1_545
O89 Ti5 1.979108 1_555
O90 P22 1.559889 1_555
O90 Ti7 1.970561 1_555
O91 P23 1.526284 1_555
O91 Y7 2.206837 1_555
O92 P20 1.531702 1_555
O92 Y2 2.236494 1_545
O93 P21 1.530604 1_555
O93 Y3 2.253410 1_545
O94 P0 1.557017 1_545
O94 Ti7 1.934815 1_555
O95 P1 1.527006 1_545
O95 Y7 2.219220 1_555
