# generated using pymatgen
data_ErPaO4
_symmetry_space_group_name_H-M   'P 1'
_cell_length_a   5.97463693
_cell_length_b   5.97463693
_cell_length_c   5.97463693
_cell_angle_alpha   133.38234864
_cell_angle_beta   133.38234864
_cell_angle_gamma   68.05432731
_symmetry_Int_Tables_number   1
_chemical_formula_structural   ErPaO4
_chemical_formula_sum   'Er2 Pa2 O8'
_cell_volume   110.69635374
_cell_formula_units_Z   2
loop_
 _symmetry_equiv_pos_site_id
 _symmetry_equiv_pos_as_xyz
  1  'x, y, z'
loop_
 _atom_site_type_symbol
 _atom_site_label
 _atom_site_symmetry_multiplicity
 _atom_site_fract_x
 _atom_site_fract_y
 _atom_site_fract_z
 _atom_site_occupancy
  Er  Er0  1  0.50000000  0.50000000  0.00000000  1
  Er  Er1  1  0.25000000  0.75000000  0.50000000  1
  Pa  Pa0  1  0.00000000  0.00000000  0.00000000  1
  Pa  Pa1  1  0.75000000  0.25000000  0.50000000  1
  O  O0  1  0.61999300  0.12500000  0.99499300  1
  O  O1  1  0.87500000  0.38000700  0.00500700  1
  O  O2  1  0.37500000  0.38000700  0.50500700  1
  O  O3  1  0.13000700  0.62500000  0.00500700  1
  O  O4  1  0.37500000  0.86999300  0.99499300  1
  O  O5  1  0.87500000  0.86999300  0.49499300  1
  O  O6  1  0.13000700  0.12500000  0.50500700  1
  O  O7  1  0.61999300  0.62500000  0.49499300  1
loop_
_geom_bond_atom_site_label_1
_geom_bond_atom_site_label_2
_geom_bond_distance
_geom_bond_site_symmetry_2
Er0 O1 2.066749 1_555
Er0 O5 2.066749 1_555
Er0 O2 2.066749 1_554
Er0 O6 2.066749 1_554
Er0 O3 2.066749 1_555
Er0 O0 2.066749 1_554
Er0 O4 2.066749 1_554
Er0 O7 2.066749 1_555
Er1 O0 2.066749 1_565
Er1 O1 2.066749 1_455
Er1 O3 2.066749 1_555
Er1 O2 2.066749 1_555
Er1 O4 2.066749 1_555
Er1 O7 2.066749 1_555
Er1 O5 2.066749 1_455
Er1 O6 2.066749 1_565
O0 Pa1 2.093653 1_556
O0 Pa0 2.093653 1_656
O1 Pa1 2.093653 1_554
O1 Pa0 2.093653 1_655
O2 Pa1 2.093653 1_555
O2 Pa0 2.093653 1_555
O3 Pa1 2.093653 1_454
O3 Pa0 2.093653 1_565
O4 Pa1 2.093653 1_566
O4 Pa0 2.093653 1_566
O5 Pa1 2.093653 1_565
O5 Pa0 2.093653 1_666
O6 Pa0 2.093653 1_555
O6 Pa1 2.093653 1_455
O7 Pa1 2.093653 1_555
O7 Pa0 2.093653 1_666
