# generated using pymatgen
data_RbClO4
_symmetry_space_group_name_H-M   'P 1'
_cell_length_a   5.02207700
_cell_length_b   5.03755770
_cell_length_c   5.56036722
_cell_angle_alpha   90.11614451
_cell_angle_beta   90.03057291
_cell_angle_gamma   90.03018586
_symmetry_Int_Tables_number   1
_chemical_formula_structural   RbClO4
_chemical_formula_sum   'Rb2 Cl2 O8'
_cell_volume   140.67141640
_cell_formula_units_Z   2
loop_
 _symmetry_equiv_pos_site_id
 _symmetry_equiv_pos_as_xyz
  1  'x, y, z'
loop_
 _atom_site_type_symbol
 _atom_site_label
 _atom_site_symmetry_multiplicity
 _atom_site_fract_x
 _atom_site_fract_y
 _atom_site_fract_z
 _atom_site_occupancy
  Rb  Rb0  1  0.00284900  0.00001800  0.49853200  1
  Rb  Rb1  1  0.49167400  0.50658100  0.00065900  1
  Cl  Cl0  1  0.99828200  0.00228200  0.99808700  1
  Cl  Cl1  1  0.50174600  0.50097500  0.50032400  1
  O  O0  1  0.74647400  0.00193900  0.86792400  1
  O  O1  1  0.25143600  0.00205300  0.87053400  1
  O  O2  1  0.99771900  0.75134600  0.12741100  1
  O  O3  1  0.99811100  0.25271300  0.12878600  1
  O  O4  1  0.50389300  0.25121600  0.36742700  1
  O  O5  1  0.24772200  0.49848500  0.62619700  1
  O  O6  1  0.75107400  0.49965000  0.63375100  1
  O  O7  1  0.50281400  0.75407400  0.37452200  1
loop_
_geom_bond_atom_site_label_1
_geom_bond_atom_site_label_2
_geom_bond_distance
_geom_bond_site_symmetry_2
Cl0 O3 1.454635 1_556
Cl0 O2 1.455590 1_546
Cl0 O1 1.456138 1_655
Cl0 O0 1.456726 1_555
Cl1 O6 1.455118 1_555
Cl1 O5 1.455497 1_555
Cl1 O7 1.455533 1_555
Cl1 O4 1.457886 1_555
O0 Rb0 2.424732 1_655
O0 Rb1 2.900736 1_546
O0 Rb1 2.939658 1_556
O1 Rb0 2.415444 1_555
O1 Rb1 2.866804 1_546
O1 Rb1 2.902964 1_556
O2 Rb0 2.411984 1_665
O2 Rb1 2.858741 1_655
O2 Rb1 2.909815 1_555
O3 Rb0 2.420417 1_655
O3 Rb1 2.879120 1_655
O3 Rb1 2.935469 1_555
O4 Rb1 2.414172 1_555
O4 Rb0 2.901184 1_655
O4 Rb0 2.909767 1_555
O5 Rb1 2.415545 1_556
O5 Rb0 2.882748 1_555
O5 Rb0 2.899839 1_565
O6 Rb1 2.421383 1_556
O6 Rb0 2.914739 1_655
O6 Rb0 2.919422 1_665
O7 Rb1 2.422460 1_555
O7 Rb0 2.882376 1_665
O7 Rb0 2.883847 1_565
