# generated using pymatgen
data_CsSbTe6(OF5)6
_symmetry_space_group_name_H-M   'P 1'
_cell_length_a   14.63561200
_cell_length_b   14.63561200
_cell_length_c   14.92393700
_cell_angle_alpha   90.00000000
_cell_angle_beta   90.00000000
_cell_angle_gamma   90.00000000
_symmetry_Int_Tables_number   1
_chemical_formula_structural   CsSbTe6(OF5)6
_chemical_formula_sum   'Cs4 Sb4 Te24 O24 F120'
_cell_volume   3196.72429801
_cell_formula_units_Z   4
loop_
 _symmetry_equiv_pos_site_id
 _symmetry_equiv_pos_as_xyz
  1  'x, y, z'
loop_
 _atom_site_type_symbol
 _atom_site_label
 _atom_site_symmetry_multiplicity
 _atom_site_fract_x
 _atom_site_fract_y
 _atom_site_fract_z
 _atom_site_occupancy
  Cs  Cs0  1  0.75000000  0.25000000  0.22845900  1
  Cs  Cs1  1  0.75000000  0.25000000  0.72845900  1
  Cs  Cs2  1  0.25000000  0.75000000  0.27154100  1
  Cs  Cs3  1  0.25000000  0.75000000  0.77154100  1
  Sb  Sb0  1  0.50000000  0.50000000  0.50000000  1
  Sb  Sb1  1  0.50000000  0.00000000  0.00000000  1
  Sb  Sb2  1  0.00000000  0.50000000  0.00000000  1
  Sb  Sb3  1  0.00000000  0.00000000  0.50000000  1
  Te  Te0  1  0.95336600  0.55184500  0.23629100  1
  Te  Te1  1  0.04663400  0.44815500  0.76370900  1
  Te  Te2  1  0.46026800  0.74675300  0.52917200  1
  Te  Te3  1  0.24675300  0.53973200  0.02917200  1
  Te  Te4  1  0.75324700  0.46026800  0.97082800  1
  Te  Te5  1  0.45967600  0.24061800  0.05418600  1
  Te  Te6  1  0.25938200  0.45967600  0.44581400  1
  Te  Te7  1  0.75938200  0.95967600  0.55418600  1
  Te  Te8  1  0.53973200  0.25324700  0.47082800  1
  Te  Te9  1  0.05184500  0.04663400  0.73629100  1
  Te  Te10  1  0.04032400  0.25938200  0.05418600  1
  Te  Te11  1  0.24061800  0.04032400  0.44581400  1
  Te  Te12  1  0.55184500  0.54663400  0.26370900  1
  Te  Te13  1  0.95967600  0.74061800  0.94581400  1
  Te  Te14  1  0.44815500  0.45336600  0.73629100  1
  Te  Te15  1  0.74061800  0.54032400  0.55418600  1
  Te  Te16  1  0.45336600  0.05184500  0.76370900  1
  Te  Te17  1  0.25324700  0.96026800  0.02917200  1
  Te  Te18  1  0.54663400  0.94815500  0.23629100  1
  Te  Te19  1  0.03973200  0.75324700  0.52917200  1
  Te  Te20  1  0.96026800  0.24675300  0.47082800  1
  Te  Te21  1  0.54032400  0.75938200  0.94581400  1
  Te  Te22  1  0.94815500  0.95336600  0.26370900  1
  Te  Te23  1  0.74675300  0.03973200  0.97082800  1
  O  O0  1  0.55282300  0.38034200  0.46207700  1
  O  O1  1  0.44615300  0.44492300  0.60982700  1
  O  O2  1  0.53040300  0.88715800  0.93220500  1
  O  O3  1  0.94717700  0.11965800  0.46207700  1
  O  O4  1  0.11284200  0.03040300  0.43220500  1
  O  O5  1  0.05384700  0.05507700  0.60982700  1
  O  O6  1  0.88715800  0.96959700  0.56779500  1
  O  O7  1  0.05507700  0.44615300  0.89017300  1
  O  O8  1  0.55384700  0.55507700  0.39017300  1
  O  O9  1  0.38034200  0.94717700  0.03792300  1
  O  O10  1  0.94492300  0.55384700  0.10982700  1
  O  O11  1  0.96959700  0.61284200  0.93220500  1
  O  O12  1  0.88034200  0.44717700  0.96207700  1
  O  O13  1  0.38715800  0.46959700  0.43220500  1
  O  O14  1  0.44492300  0.05384700  0.89017300  1
  O  O15  1  0.03040300  0.38715800  0.06779500  1
  O  O16  1  0.05282300  0.88034200  0.53792300  1
  O  O17  1  0.55507700  0.94615300  0.10982700  1
  O  O18  1  0.61965800  0.05282300  0.96207700  1
  O  O19  1  0.46959700  0.11284200  0.06779500  1
  O  O20  1  0.11965800  0.55282300  0.03792300  1
  O  O21  1  0.61284200  0.53040300  0.56779500  1
  O  O22  1  0.44717700  0.61965800  0.53792300  1
  O  O23  1  0.94615300  0.94492300  0.39017300  1
  F  F0  1  0.75003500  0.93490100  0.04231000  1
  F  F1  1  0.45254100  0.05744800  0.63859300  1
  F  F2  1  0.14803300  0.37038400  0.76315200  1
  F  F3  1  0.23538700  0.14480500  0.51815100  1
  F  F4  1  0.24476300  0.56605500  0.37480100  1
  F  F5  1  0.75019100  0.11157000  0.07640200  1
  F  F6  1  0.35269300  0.75402500  0.59881500  1
  F  F7  1  0.62961600  0.64803300  0.26315200  1
  F  F8  1  0.15356600  0.96703400  0.73627500  1
  F  F9  1  0.03296600  0.65356600  0.23627500  1
  F  F10  1  0.74980900  0.38843000  0.07640200  1
  F  F11  1  0.11227700  0.25871500  0.15775500  1
  F  F12  1  0.44458700  0.02544500  0.24431600  1
  F  F13  1  0.88772300  0.74128500  0.84224500  1
  F  F14  1  0.64480500  0.76461300  0.01815100  1
  F  F15  1  0.75402500  0.14730700  0.90118500  1
  F  F16  1  0.25230200  0.53436400  0.54830400  1
  F  F17  1  0.95044400  0.86815600  0.94721000  1
  F  F18  1  0.03204300  0.25379600  0.36694600  1
  F  F19  1  0.12961600  0.14803300  0.73684800  1
  F  F20  1  0.84643400  0.03296600  0.26372500  1
  F  F21  1  0.95552700  0.37426700  0.47233200  1
  F  F22  1  0.95254100  0.55744800  0.36140700  1
  F  F23  1  0.25871500  0.38772300  0.34224500  1
  F  F24  1  0.37426700  0.54447300  0.02766800  1
  F  F25  1  0.04447300  0.62573300  0.52766800  1
  F  F26  1  0.93394500  0.24476300  0.12519900  1
  F  F27  1  0.44255200  0.45254100  0.86140700  1
  F  F28  1  0.35519500  0.23538700  0.98184900  1
  F  F29  1  0.06509900  0.25003500  0.54231000  1
  F  F30  1  0.05160100  0.87652600  0.25385000  1
  F  F31  1  0.62347400  0.05160100  0.24615000  1
  F  F32  1  0.54955600  0.63184400  0.94721000  1
  F  F33  1  0.94458700  0.52544500  0.75568400  1
  F  F34  1  0.74476300  0.06605500  0.62519900  1
  F  F35  1  0.53436400  0.24769800  0.95169600  1
  F  F36  1  0.05541300  0.47455500  0.24431600  1
  F  F37  1  0.88843000  0.25019100  0.57640200  1
  F  F38  1  0.75523700  0.43394500  0.62519900  1
  F  F39  1  0.62573300  0.45552700  0.97233200  1
  F  F40  1  0.43394500  0.74476300  0.87480100  1
  F  F41  1  0.06605500  0.75523700  0.87480100  1
  F  F42  1  0.61157000  0.24980900  0.57640200  1
  F  F43  1  0.74769800  0.46563600  0.45169600  1
  F  F44  1  0.26461300  0.35519500  0.51815100  1
  F  F45  1  0.46703400  0.84643400  0.23627500  1
  F  F46  1  0.85196700  0.62961600  0.23684800  1
  F  F47  1  0.96563600  0.25230200  0.95169600  1
  F  F48  1  0.37652600  0.94839900  0.75385000  1
  F  F49  1  0.87652600  0.44839900  0.24615000  1
  F  F50  1  0.24980900  0.88843000  0.92359800  1
  F  F51  1  0.45044400  0.36815600  0.05279000  1
  F  F52  1  0.24996500  0.06509900  0.95769000  1
  F  F53  1  0.74620400  0.53204300  0.86694600  1
  F  F54  1  0.56509900  0.75003500  0.45769000  1
  F  F55  1  0.25402500  0.64730700  0.09881500  1
  F  F56  1  0.53204300  0.75379600  0.63305400  1
  F  F57  1  0.97455500  0.94458700  0.74431600  1
  F  F58  1  0.36815600  0.04955600  0.44721000  1
  F  F59  1  0.74128500  0.61227700  0.65775500  1
  F  F60  1  0.47455500  0.44458700  0.25568400  1
  F  F61  1  0.96795700  0.74620400  0.63305400  1
  F  F62  1  0.24769800  0.96563600  0.54830400  1
  F  F63  1  0.87426700  0.04447300  0.97233200  1
  F  F64  1  0.35196700  0.12961600  0.76315200  1
  F  F65  1  0.14730700  0.74597500  0.59881500  1
  F  F66  1  0.54447300  0.12573300  0.47233200  1
  F  F67  1  0.12573300  0.95552700  0.02766800  1
  F  F68  1  0.93490100  0.74996500  0.45769000  1
  F  F69  1  0.55160100  0.37652600  0.74615000  1
  F  F70  1  0.65356600  0.46703400  0.26372500  1
  F  F71  1  0.53296600  0.15356600  0.76372500  1
  F  F72  1  0.24128500  0.11227700  0.34224500  1
  F  F73  1  0.55744800  0.54745900  0.13859300  1
  F  F74  1  0.11157000  0.74980900  0.42359800  1
  F  F75  1  0.45552700  0.87426700  0.52766800  1
  F  F76  1  0.02544500  0.05541300  0.25568400  1
  F  F77  1  0.13184400  0.45044400  0.44721000  1
  F  F78  1  0.75230200  0.03436400  0.45169600  1
  F  F79  1  0.64803300  0.87038400  0.23684800  1
  F  F80  1  0.24620400  0.03204300  0.13305400  1
  F  F81  1  0.64730700  0.24597500  0.40118500  1
  F  F82  1  0.74597500  0.35269300  0.90118500  1
  F  F83  1  0.54745900  0.94255200  0.36140700  1
  F  F84  1  0.76461300  0.85519500  0.48184900  1
  F  F85  1  0.46795700  0.24620400  0.36694600  1
  F  F86  1  0.46563600  0.75230200  0.04830400  1
  F  F87  1  0.85269300  0.25402500  0.40118500  1
  F  F88  1  0.25523700  0.93394500  0.37480100  1
  F  F89  1  0.44839900  0.62347400  0.25385000  1
  F  F90  1  0.12347400  0.55160100  0.75385000  1
  F  F91  1  0.85519500  0.73538700  0.01815100  1
  F  F92  1  0.75871500  0.88772300  0.65775500  1
  F  F93  1  0.94839900  0.12347400  0.74615000  1
  F  F94  1  0.63184400  0.95044400  0.55279000  1
  F  F95  1  0.34643400  0.53296600  0.73627500  1
  F  F96  1  0.86815600  0.54955600  0.55279000  1
  F  F97  1  0.38772300  0.24128500  0.15775500  1
  F  F98  1  0.04955600  0.13184400  0.05279000  1
  F  F99  1  0.75379600  0.96795700  0.86694600  1
  F  F100  1  0.25003500  0.43490100  0.95769000  1
  F  F101  1  0.74996500  0.56509900  0.04231000  1
  F  F102  1  0.43490100  0.24996500  0.54231000  1
  F  F103  1  0.25379600  0.46795700  0.13305400  1
  F  F104  1  0.52544500  0.55541300  0.74431600  1
  F  F105  1  0.55541300  0.97455500  0.75568400  1
  F  F106  1  0.37038400  0.35196700  0.73684800  1
  F  F107  1  0.05744800  0.04745900  0.86140700  1
  F  F108  1  0.38843000  0.75019100  0.42359800  1
  F  F109  1  0.87038400  0.85196700  0.26315200  1
  F  F110  1  0.14480500  0.26461300  0.98184900  1
  F  F111  1  0.61227700  0.75871500  0.84224500  1
  F  F112  1  0.96703400  0.34643400  0.76372500  1
  F  F113  1  0.56605500  0.25523700  0.12519900  1
  F  F114  1  0.94255200  0.95254100  0.13859300  1
  F  F115  1  0.73538700  0.64480500  0.48184900  1
  F  F116  1  0.04745900  0.44255200  0.63859300  1
  F  F117  1  0.25019100  0.61157000  0.92359800  1
  F  F118  1  0.03436400  0.74769800  0.04830400  1
  F  F119  1  0.24597500  0.85269300  0.09881500  1
loop_
_geom_bond_atom_site_label_1
_geom_bond_atom_site_label_2
_geom_bond_distance
_geom_bond_site_symmetry_2
Cs0 F81 2.984495 1_555
Cs0 F87 2.984495 1_555
Cs0 F5 3.042103 1_555
Cs0 F10 3.042103 1_555
Cs0 F113 3.102959 1_555
Cs0 F26 3.102959 1_555
Cs0 F49 3.454017 1_555
Cs0 F31 3.454017 1_555
Cs0 F70 3.515486 1_555
Cs0 F20 3.515486 1_555
Cs1 F82 2.984495 1_555
Cs1 F15 2.984495 1_555
Cs1 F42 3.042103 1_555
Cs1 F37 3.042103 1_555
Cs1 F34 3.102959 1_555
Cs1 F38 3.102959 1_555
Cs1 F93 3.454017 1_555
Cs1 F69 3.454017 1_555
Cs1 F71 3.515486 1_555
Cs1 F112 3.515486 1_555
Cs2 F55 2.984495 1_555
Cs2 F119 2.984495 1_555
Cs2 F108 3.042103 1_555
Cs2 F74 3.042103 1_555
Cs2 F4 3.102959 1_555
Cs2 F88 3.102959 1_555
Cs2 F30 3.454017 1_555
Cs2 F89 3.454017 1_555
Cs2 F45 3.515486 1_555
Cs2 F9 3.515486 1_555
Cs3 F6 2.984495 1_555
Cs3 F65 2.984495 1_555
Cs3 F50 3.042103 1_555
Cs3 F117 3.042103 1_555
Cs3 F41 3.102959 1_555
Cs3 F40 3.102959 1_555
Cs3 F48 3.454017 1_555
Cs3 F90 3.454017 1_555
Cs3 F8 3.515486 1_555
Cs3 F95 3.515486 1_555
O0 Te8 1.874509 1_555
O0 Sb0 1.996229 1_555
O1 Te14 1.891609 1_555
O1 Sb0 1.989306 1_555
O2 Te21 1.886672 1_555
O2 Sb1 1.987250 1_566
O3 Te20 1.874509 1_555
O3 Sb3 1.996229 1_655
O4 Te11 1.886672 1_555
O4 Sb3 1.987250 1_555
O5 Te9 1.891609 1_555
O5 Sb3 1.989306 1_555
O6 Te7 1.886672 1_555
O6 Sb3 1.987250 1_665
O7 Te1 1.891609 1_555
O7 Sb2 1.989306 1_556
O8 Te12 1.891609 1_555
O8 Sb0 1.989306 1_555
O9 Te17 1.874509 1_555
O9 Sb1 1.996229 1_565
O10 Te0 1.891609 1_555
O10 Sb2 1.989306 1_655
O11 Te13 1.886672 1_555
O11 Sb2 1.987250 1_656
O12 Te4 1.874509 1_555
O12 Sb2 1.996229 1_656
O13 Te6 1.886672 1_555
O13 Sb0 1.987250 1_555
O14 Te16 1.891609 1_555
O14 Sb1 1.989306 1_556
O15 Te10 1.886672 1_555
O15 Sb2 1.987250 1_555
O16 Te19 1.874509 1_555
O16 Sb3 1.996229 1_565
O17 Te18 1.891609 1_555
O17 Sb1 1.989306 1_565
O18 Te23 1.874509 1_555
O18 Sb1 1.996229 1_556
O19 Te5 1.886672 1_555
O19 Sb1 1.987250 1_555
O20 Te3 1.874509 1_555
O20 Sb2 1.996229 1_555
O21 Te15 1.886672 1_555
O21 Sb0 1.987250 1_555
O22 Te2 1.874509 1_555
O22 Sb0 1.996229 1_555
O23 Te22 1.891609 1_555
O23 Sb3 1.989306 1_665
F0 Te23 1.869312 1_564
F1 Te16 1.869062 1_555
F2 Te1 1.870292 1_555
F3 Te11 1.873386 1_555
F4 Te6 1.895507 1_555
F5 Te23 1.894838 1_554
F6 Te2 1.889547 1_555
F7 Te12 1.870292 1_555
F8 Te9 1.890393 1_565
F9 Te0 1.890393 1_455
F10 Te4 1.894838 1_554
F11 Te10 1.870326 1_555
F12 Te18 1.877373 1_545
F13 Te13 1.870326 1_555
F14 Te21 1.873386 1_554
F15 Te23 1.889547 1_555
F16 Te6 1.882857 1_555
F17 Te13 1.871597 1_555
F18 Te20 1.875535 1_455
F19 Te9 1.870292 1_555
F20 Te22 1.890393 1_545
F21 Te20 1.867670 1_555
F22 Te0 1.869062 1_555
F23 Te6 1.870326 1_555
F24 Te3 1.867670 1_555
F25 Te19 1.867670 1_555
F26 Te10 1.895507 1_655
F27 Te14 1.869062 1_555
F28 Te5 1.873386 1_556
F29 Te20 1.869312 1_455
F30 Te22 1.891708 1_455
F31 Te18 1.891708 1_545
F32 Te21 1.871597 1_555
F33 Te1 1.877373 1_655
F34 Te7 1.895507 1_545
F35 Te5 1.882857 1_556
F36 Te0 1.877373 1_455
F37 Te20 1.894838 1_555
F38 Te15 1.895507 1_555
F39 Te4 1.867670 1_555
F40 Te21 1.895507 1_555
F41 Te13 1.895507 1_455
F42 Te8 1.894838 1_555
F43 Te15 1.882857 1_555
F44 Te6 1.873386 1_555
F45 Te18 1.890393 1_555
F46 Te0 1.870292 1_555
F47 Te10 1.882857 1_656
F48 Te16 1.891708 1_565
F49 Te0 1.891708 1_555
F50 Te17 1.894838 1_556
F51 Te5 1.871597 1_555
F52 Te17 1.869312 1_546
F53 Te4 1.875535 1_555
F54 Te2 1.869312 1_555
F55 Te3 1.889547 1_555
F56 Te2 1.875535 1_555
F57 Te9 1.877373 1_665
F58 Te11 1.871597 1_555
F59 Te15 1.870326 1_555
F60 Te12 1.877373 1_555
F61 Te19 1.875535 1_655
F62 Te11 1.882857 1_565
F63 Te23 1.867670 1_555
F64 Te16 1.870292 1_555
F65 Te19 1.889547 1_555
F66 Te8 1.867670 1_555
F67 Te17 1.867670 1_555
F68 Te19 1.869312 1_655
F69 Te14 1.891708 1_555
F70 Te12 1.890393 1_555
F71 Te16 1.890393 1_555
F72 Te11 1.870326 1_555
F73 Te12 1.869062 1_555
F74 Te19 1.894838 1_555
F75 Te2 1.867670 1_555
F76 Te22 1.877373 1_445
F77 Te6 1.871597 1_555
F78 Te7 1.882857 1_545
F79 Te18 1.870292 1_555
F80 Te17 1.875535 1_545
F81 Te8 1.889547 1_555
F82 Te4 1.889547 1_555
F83 Te18 1.869062 1_555
F84 Te7 1.873386 1_555
F85 Te8 1.875535 1_555
F86 Te21 1.882857 1_554
F87 Te20 1.889547 1_555
F88 Te11 1.895507 1_565
F89 Te12 1.891708 1_555
F90 Te1 1.891708 1_555
F91 Te13 1.873386 1_554
F92 Te7 1.870326 1_555
F93 Te9 1.891708 1_655
F94 Te7 1.871597 1_555
F95 Te14 1.890393 1_555
F96 Te15 1.871597 1_555
F97 Te5 1.870326 1_555
F98 Te10 1.871597 1_555
F99 Te23 1.875535 1_565
F100 Te3 1.869312 1_556
F101 Te4 1.869312 1_554
F102 Te8 1.869312 1_555
F103 Te3 1.875535 1_555
F104 Te14 1.877373 1_555
F105 Te16 1.877373 1_565
F106 Te14 1.870292 1_555
F107 Te9 1.869062 1_555
F108 Te2 1.894838 1_555
F109 Te22 1.870292 1_555
F110 Te10 1.873386 1_556
F111 Te21 1.870326 1_555
F112 Te1 1.890393 1_655
F113 Te5 1.895507 1_555
F114 Te22 1.869062 1_555
F115 Te15 1.873386 1_555
F116 Te1 1.869062 1_555
F117 Te3 1.894838 1_556
F118 Te13 1.882857 1_454
F119 Te17 1.889547 1_555
