# generated using pymatgen
data_CsFe2Se3
_symmetry_space_group_name_H-M   'P 1'
_cell_length_a   7.80175112
_cell_length_b   7.80175112
_cell_length_c   6.08571887
_cell_angle_alpha   90.00000000
_cell_angle_beta   90.00000000
_cell_angle_gamma   103.79076698
_symmetry_Int_Tables_number   1
_chemical_formula_structural   CsFe2Se3
_chemical_formula_sum   'Cs2 Fe4 Se6'
_cell_volume   359.74315432
_cell_formula_units_Z   2
loop_
 _symmetry_equiv_pos_site_id
 _symmetry_equiv_pos_as_xyz
  1  'x, y, z'
loop_
 _atom_site_type_symbol
 _atom_site_label
 _atom_site_symmetry_multiplicity
 _atom_site_fract_x
 _atom_site_fract_y
 _atom_site_fract_z
 _atom_site_occupancy
  Cs  Cs0  1  0.33799796  0.66200204  0.75000000  1
  Cs  Cs1  1  0.66200204  0.33799796  0.25000000  1
  Fe  Fe0  1  0.13639349  0.13639349  -0.00000000  1
  Fe  Fe1  1  0.13639349  0.13639349  0.50000000  1
  Fe  Fe2  1  0.86360651  0.86360651  0.00000000  1
  Fe  Fe3  1  0.86360651  0.86360651  0.50000000  1
  Se  Se0  1  0.87809975  0.12190025  0.75000000  1
  Se  Se1  1  0.12190025  0.87809975  0.25000000  1
  Se  Se2  1  0.37645274  0.15810290  0.75000000  1
  Se  Se3  1  0.15810290  0.37645274  0.25000000  1
  Se  Se4  1  0.62354726  0.84189710  0.25000000  1
  Se  Se5  1  0.84189710  0.62354726  0.75000000  1
loop_
_geom_bond_atom_site_label_1
_geom_bond_atom_site_label_2
_geom_bond_distance
_geom_bond_site_symmetry_2
Cs0 Se2 3.810096 1_565
Cs0 Se5 3.810096 1_455
Cs0 Se4 3.834209 1_556
Cs0 Se4 3.834209 1_555
Cs0 Se3 3.834209 1_555
Cs0 Se3 3.834209 1_556
Cs0 Se5 4.013403 1_555
Cs0 Se2 4.013403 1_555
Cs0 Se1 4.037191 1_555
Cs0 Se1 4.037191 1_556
Cs1 Se3 3.810096 1_655
Cs1 Se4 3.810096 1_545
Cs1 Se5 3.834209 1_554
Cs1 Se5 3.834209 1_555
Cs1 Se2 3.834209 1_555
Cs1 Se2 3.834209 1_554
Cs1 Se4 4.013403 1_555
Cs1 Se3 4.013403 1_555
Cs1 Se0 4.037191 1_554
Cs1 Se0 4.037191 1_555
Fe0 Se3 2.387445 1_555
Fe0 Se2 2.387445 1_554
Fe0 Se1 2.505934 1_545
Fe0 Se0 2.505934 1_454
Fe1 Se3 2.387445 1_555
Fe1 Se2 2.387445 1_555
Fe1 Se1 2.505934 1_545
Fe1 Se0 2.505934 1_455
Fe2 Se5 2.387445 1_554
Fe2 Se4 2.387445 1_555
Fe2 Se1 2.505934 1_655
Fe2 Se0 2.505934 1_564
Fe3 Se5 2.387445 1_555
Fe3 Se4 2.387445 1_555
Fe3 Se0 2.505934 1_565
Fe3 Se1 2.505934 1_655
