# generated using pymatgen
data_Eu2MgH6
_symmetry_space_group_name_H-M   'P 1'
_cell_length_a   4.21887100
_cell_length_b   5.65983981
_cell_length_c   5.65983981
_cell_angle_alpha   119.99999776
_cell_angle_beta   90.00000000
_cell_angle_gamma   90.00000000
_symmetry_Int_Tables_number   1
_chemical_formula_structural   Eu2MgH6
_chemical_formula_sum   'Eu2 Mg1 H6'
_cell_volume   117.04023000
_cell_formula_units_Z   1
loop_
 _symmetry_equiv_pos_site_id
 _symmetry_equiv_pos_as_xyz
  1  'x, y, z'
loop_
 _atom_site_type_symbol
 _atom_site_label
 _atom_site_symmetry_multiplicity
 _atom_site_fract_x
 _atom_site_fract_y
 _atom_site_fract_z
 _atom_site_occupancy
  Eu  Eu0  1  0.25919600  0.66666700  0.33333300  1
  Eu  Eu1  1  0.74080400  0.33333300  0.66666700  1
  Mg  Mg0  1  0.00000000  0.00000000  0.00000000  1
  H  H0  1  0.23960000  0.17869100  0.35738200  1
  H  H1  1  0.23960000  0.64261800  0.82130900  1
  H  H2  1  0.23960000  0.17869100  0.82130900  1
  H  H3  1  0.76040000  0.82130900  0.64261800  1
  H  H4  1  0.76040000  0.35738200  0.17869100  1
  H  H5  1  0.76040000  0.82130900  0.17869100  1
loop_
_geom_bond_atom_site_label_1
_geom_bond_atom_site_label_2
_geom_bond_distance
_geom_bond_site_symmetry_2
Eu0 H5 2.593549 1_455
Eu0 H4 2.593552 1_455
Eu0 H3 2.593552 1_455
Eu0 H5 2.601799 1_555
Eu0 H4 2.601801 1_555
Eu0 H3 2.601801 1_555
Eu0 H0 2.833577 1_565
Eu0 H1 2.833577 1_554
Eu0 H2 2.833580 1_554
Eu0 H2 2.833580 1_565
Eu0 H1 2.833583 1_555
Eu0 H0 2.833583 1_555
Eu1 H2 2.593549 1_655
Eu1 H1 2.593552 1_655
Eu1 H0 2.593552 1_655
Eu1 H2 2.601799 1_555
Eu1 H0 2.601801 1_555
Eu1 H1 2.601801 1_555
Eu1 H4 2.833577 1_556
Eu1 H3 2.833577 1_545
Eu1 H5 2.833580 1_556
Eu1 H5 2.833580 1_545
Eu1 H3 2.833583 1_555
Eu1 H4 2.833583 1_555
H0 Mg0 2.022464 1_555
H1 Mg0 2.022464 1_566
H2 Mg0 2.022464 1_556
H3 Mg0 2.022464 1_666
H4 Mg0 2.022464 1_655
H5 Mg0 2.022464 1_665
