# generated using pymatgen
data_Na2BeSiO4
_symmetry_space_group_name_H-M   'P 1'
_cell_length_a   4.88616329
_cell_length_b   9.81108386
_cell_length_c   13.75223058
_cell_angle_alpha   90.00000000
_cell_angle_beta   90.00000000
_cell_angle_gamma   90.00000000
_symmetry_Int_Tables_number   1
_chemical_formula_structural   Na2BeSiO4
_chemical_formula_sum   'Na16 Be8 Si8 O32'
_cell_volume   659.26210043
_cell_formula_units_Z   8
loop_
 _symmetry_equiv_pos_site_id
 _symmetry_equiv_pos_as_xyz
  1  'x, y, z'
loop_
 _atom_site_type_symbol
 _atom_site_label
 _atom_site_symmetry_multiplicity
 _atom_site_fract_x
 _atom_site_fract_y
 _atom_site_fract_z
 _atom_site_occupancy
  Na  Na0  1  0.96939120  0.72711855  0.30067048  1
  Na  Na1  1  0.03060880  0.27288145  0.80067048  1
  Na  Na2  1  0.03060880  0.22711855  0.30067048  1
  Na  Na3  1  0.96939120  0.77288145  0.80067048  1
  Na  Na4  1  0.46845926  0.73174915  0.16757402  1
  Na  Na5  1  0.53154074  0.26825085  0.66757402  1
  Na  Na6  1  0.53154074  0.23174915  0.16757402  1
  Na  Na7  1  0.46845926  0.76825085  0.66757402  1
  Na  Na8  1  0.47751431  0.99562619  0.04173133  1
  Na  Na9  1  0.00727381  0.01198849  0.92620797  1
  Na  Na10  1  0.99272619  0.98801151  0.42620797  1
  Na  Na11  1  0.99272619  0.51198849  0.92620797  1
  Na  Na12  1  0.52248569  0.00437381  0.54173133  1
  Na  Na13  1  0.47751431  0.50437381  0.54173133  1
  Na  Na14  1  0.52248569  0.49562619  0.04173133  1
  Na  Na15  1  0.00727381  0.48801151  0.42620797  1
  Be  Be0  1  0.99184978  0.76800866  0.55011004  1
  Be  Be1  1  0.00815022  0.23199134  0.05011004  1
  Be  Be2  1  0.00815022  0.26800866  0.55011004  1
  Be  Be3  1  0.99184978  0.73199134  0.05011004  1
  Be  Be4  1  0.47268543  0.98696509  0.29446738  1
  Be  Be5  1  0.52731457  0.01303491  0.79446738  1
  Be  Be6  1  0.52731457  0.48696509  0.29446738  1
  Be  Be7  1  0.47268543  0.51303491  0.79446738  1
  Si  Si0  1  0.97347093  0.98369483  0.17456530  1
  Si  Si1  1  0.48908579  0.76639455  0.91972433  1
  Si  Si2  1  0.51091421  0.23360545  0.41972433  1
  Si  Si3  1  0.51091421  0.26639455  0.91972433  1
  Si  Si4  1  0.48908579  0.73360545  0.41972433  1
  Si  Si5  1  0.97347093  0.51630517  0.67456530  1
  Si  Si6  1  0.02652907  0.48369483  0.17456530  1
  Si  Si7  1  0.02652907  0.01630517  0.67456530  1
  O  O0  1  0.12345501  0.91394048  0.58735875  1
  O  O1  1  0.70252295  0.51279425  0.19473223  1
  O  O2  1  0.29747705  0.48720575  0.69473223  1
  O  O3  1  0.29747705  0.01279425  0.19473223  1
  O  O4  1  0.70252295  0.98720575  0.69473223  1
  O  O5  1  0.20039964  0.51465756  0.27350912  1
  O  O6  1  0.79960036  0.48534244  0.77350912  1
  O  O7  1  0.79960036  0.01465756  0.27350912  1
  O  O8  1  0.20039964  0.98534244  0.77350912  1
  O  O9  1  0.62401499  0.59257991  0.38000837  1
  O  O10  1  0.37598501  0.40742009  0.88000837  1
  O  O11  1  0.37598501  0.09257991  0.38000837  1
  O  O12  1  0.62401499  0.90742009  0.88000837  1
  O  O13  1  0.12345501  0.58605952  0.08735875  1
  O  O14  1  0.87654499  0.41394048  0.58735875  1
  O  O15  1  0.87654499  0.08605952  0.08735875  1
  O  O16  1  0.22423559  0.69068578  0.48509988  1
  O  O17  1  0.77576441  0.30931422  0.98509988  1
  O  O18  1  0.77576441  0.19068578  0.48509988  1
  O  O19  1  0.22423559  0.80931422  0.98509988  1
  O  O20  1  0.72128018  0.69036029  0.98510234  1
  O  O21  1  0.27871982  0.30963971  0.48510234  1
  O  O22  1  0.27871982  0.19036029  0.98510234  1
  O  O23  1  0.72128018  0.80963971  0.48510234  1
  O  O24  1  0.91234754  0.82563923  0.14421902  1
  O  O25  1  0.08765246  0.17436077  0.64421902  1
  O  O26  1  0.08765246  0.32563923  0.14421902  1
  O  O27  1  0.91234754  0.67436077  0.64421902  1
  O  O28  1  0.39940842  0.67010661  0.82892044  1
  O  O29  1  0.60059158  0.17010661  0.82892044  1
  O  O30  1  0.60059158  0.32989339  0.32892044  1
  O  O31  1  0.39940842  0.82989339  0.32892044  1
loop_
_geom_bond_atom_site_label_1
_geom_bond_atom_site_label_2
_geom_bond_distance
_geom_bond_site_symmetry_2
Na0 O31 2.362717 1_655
Na0 O24 2.375119 1_555
Na0 O5 2.399712 1_655
Na0 O9 2.404295 1_555
Na1 O29 2.362717 1_455
Na1 O25 2.375119 1_555
Na1 O6 2.399712 1_455
Na1 O10 2.404295 1_555
Na2 O30 2.362717 1_455
Na2 O26 2.375119 1_555
Na2 O7 2.399712 1_455
Na2 O11 2.404295 1_555
Na3 O28 2.362717 1_655
Na3 O27 2.375119 1_555
Na3 O8 2.399712 1_655
Na3 O12 2.404295 1_555
Na4 O24 2.378208 1_555
Na4 O31 2.442215 1_555
Na4 O1 2.462149 1_555
Na4 O13 2.470175 1_555
Na5 O25 2.378208 1_555
Na5 O29 2.442215 1_555
Na5 O2 2.462149 1_555
Na5 O14 2.470175 1_555
Na6 O26 2.378208 1_555
Na6 O30 2.442215 1_555
Na6 O3 2.462149 1_555
Na6 O15 2.470175 1_555
Na7 O27 2.378208 1_555
Na7 O28 2.442215 1_555
Na7 O4 2.462149 1_555
Na7 O0 2.470175 1_555
Na8 O15 2.232125 1_565
Na8 O22 2.280396 1_564
Na8 O3 2.286806 1_565
Na8 O19 2.340812 1_554
Na8 O12 2.491531 1_554
Na9 O12 2.227795 1_445
Na9 O8 2.317023 1_545
Na9 O22 2.340450 1_555
Na9 O19 2.394518 1_545
Na9 O15 2.418181 1_456
Na10 O11 2.227795 1_665
Na10 O7 2.317023 1_565
Na10 O23 2.340450 1_555
Na10 O18 2.394518 1_565
Na10 O0 2.418181 1_655
Na11 O10 2.227795 1_655
Na11 O6 2.317023 1_555
Na11 O20 2.340450 1_555
Na11 O17 2.394518 1_555
Na11 O13 2.418181 1_656
Na12 O0 2.232125 1_545
Na12 O23 2.280396 1_545
Na12 O4 2.286806 1_545
Na12 O18 2.340812 1_555
Na12 O11 2.491531 1_555
Na13 O14 2.232125 1_555
Na13 O21 2.280396 1_555
Na13 O2 2.286806 1_555
Na13 O16 2.340812 1_555
Na13 O9 2.491531 1_555
Na14 O13 2.232125 1_555
Na14 O20 2.280396 1_554
Na14 O1 2.286806 1_555
Na14 O17 2.340812 1_554
Na14 O10 2.491531 1_554
Na15 O9 2.227795 1_455
Na15 O5 2.317023 1_555
Na15 O21 2.340450 1_555
Na15 O16 2.394518 1_555
Na15 O14 2.418181 1_455
Be0 O16 1.632209 1_655
Be0 O27 1.634028 1_555
Be0 O23 1.647384 1_555
Be0 O0 1.651004 1_655
Be1 O17 1.632209 1_454
Be1 O26 1.634028 1_555
Be1 O22 1.647384 1_554
Be1 O15 1.651004 1_455
Be2 O18 1.632209 1_455
Be2 O25 1.634028 1_555
Be2 O21 1.647384 1_555
Be2 O14 1.651004 1_455
Be3 O19 1.632209 1_654
Be3 O24 1.634028 1_555
Be3 O20 1.647384 1_554
Be3 O13 1.651004 1_655
Be4 O3 1.636567 1_565
Be4 O11 1.637321 1_565
Be4 O7 1.645736 1_565
Be4 O31 1.651515 1_555
Be5 O4 1.636567 1_545
Be5 O12 1.637321 1_545
Be5 O8 1.645736 1_545
Be5 O29 1.651515 1_555
Be6 O1 1.636567 1_555
Be6 O9 1.637321 1_555
Be6 O5 1.645736 1_555
Be6 O30 1.651515 1_555
Be7 O2 1.636567 1_555
Be7 O10 1.637321 1_555
Be7 O6 1.645736 1_555
Be7 O28 1.651515 1_555
O0 Si7 1.634384 1_565
O1 Si6 1.632415 1_655
O2 Si5 1.632415 1_455
O3 Si0 1.632415 1_445
O4 Si7 1.632415 1_665
O5 Si6 1.632646 1_555
O6 Si5 1.632646 1_555
O7 Si0 1.632646 1_545
O8 Si7 1.632646 1_565
O9 Si4 1.627071 1_555
O10 Si3 1.627071 1_555
O11 Si2 1.627071 1_555
O12 Si1 1.627071 1_555
O13 Si6 1.634384 1_555
O14 Si5 1.634384 1_555
O15 Si0 1.634384 1_545
O16 Si4 1.631049 1_555
O17 Si3 1.631049 1_555
O18 Si2 1.631049 1_555
O19 Si1 1.631049 1_555
O20 Si1 1.628506 1_555
O21 Si2 1.628506 1_555
O22 Si3 1.628506 1_555
O23 Si4 1.628506 1_555
O24 Si0 1.633408 1_555
O25 Si7 1.633408 1_555
O26 Si6 1.633408 1_555
O27 Si5 1.633408 1_555
O28 Si1 1.625986 1_555
O29 Si3 1.625986 1_555
O30 Si2 1.625986 1_555
O31 Si4 1.625986 1_555
