# generated using pymatgen
data_CsGeBr3
_symmetry_space_group_name_H-M   'P 1'
_cell_length_a   5.78863072
_cell_length_b   5.78863072
_cell_length_c   5.72807918
_cell_angle_alpha   88.19674636
_cell_angle_beta   88.19674636
_cell_angle_gamma   90.40477709
_symmetry_Int_Tables_number   1
_chemical_formula_structural   CsGeBr3
_chemical_formula_sum   'Cs1 Ge1 Br3'
_cell_volume   191.74159343
_cell_formula_units_Z   1
loop_
 _symmetry_equiv_pos_site_id
 _symmetry_equiv_pos_as_xyz
  1  'x, y, z'
loop_
 _atom_site_type_symbol
 _atom_site_label
 _atom_site_symmetry_multiplicity
 _atom_site_fract_x
 _atom_site_fract_y
 _atom_site_fract_z
 _atom_site_occupancy
  Cs  Cs0  1  0.10101700  0.10101700  0.59346100  1
  Ge  Ge0  1  0.63091800  0.63091800  0.12967400  1
  Br  Br0  1  0.59120700  0.59120700  0.57835500  1
  Br  Br1  1  0.61566600  0.07539200  0.10280500  1
  Br  Br2  1  0.07539200  0.61566600  0.10280500  1
loop_
_geom_bond_atom_site_label_1
_geom_bond_atom_site_label_2
_geom_bond_distance
_geom_bond_site_symmetry_2
Br0 Ge0 2.576021 1_555
Br0 Cs0 3.995743 1_555
Br0 Cs0 4.109379 1_565
Br0 Cs0 4.109379 1_655
Br0 Cs0 4.163482 1_665
Br1 Ge0 2.574960 1_545
Br1 Cs0 3.984792 1_654
Br1 Cs0 4.037531 1_555
Br1 Cs0 4.041249 1_655
Br1 Cs0 4.235010 1_554
Br2 Ge0 2.574960 1_455
Br2 Cs0 3.984792 1_564
Br2 Cs0 4.037531 1_555
Br2 Cs0 4.041249 1_565
Br2 Cs0 4.235010 1_554
