# generated using pymatgen
data_As3HO6
_symmetry_space_group_name_H-M   'P 1'
_cell_length_a   5.08848500
_cell_length_b   9.97622300
_cell_length_c   11.62866500
_cell_angle_alpha   72.72998975
_cell_angle_beta   90.00000000
_cell_angle_gamma   90.00000000
_symmetry_Int_Tables_number   1
_chemical_formula_structural   As3HO6
_chemical_formula_sum   'As12 H4 O24'
_cell_volume   563.70232064
_cell_formula_units_Z   4
loop_
 _symmetry_equiv_pos_site_id
 _symmetry_equiv_pos_as_xyz
  1  'x, y, z'
loop_
 _atom_site_type_symbol
 _atom_site_label
 _atom_site_symmetry_multiplicity
 _atom_site_fract_x
 _atom_site_fract_y
 _atom_site_fract_z
 _atom_site_occupancy
  As  As0  1  0.44670800  0.29853600  0.08300500  1
  As  As1  1  0.91850900  0.17373900  0.95049000  1
  As  As2  1  0.08149100  0.67373900  0.95049000  1
  As  As3  1  0.55329200  0.79853600  0.08300500  1
  As  As4  1  0.74730200  0.83225200  0.59729400  1
  As  As5  1  0.35994600  0.71028400  0.42891100  1
  As  As6  1  0.64005400  0.21028400  0.42891100  1
  As  As7  1  0.25269800  0.33225200  0.59729400  1
  As  As8  1  0.63016800  0.49013600  0.77630500  1
  As  As9  1  0.14283400  0.00466000  0.23599500  1
  As  As10  1  0.85716600  0.50466000  0.23599500  1
  As  As11  1  0.36983200  0.99013600  0.77630500  1
  H  H0  1  0.37934800  0.13823200  0.93695300  1
  H  H1  1  0.62065200  0.63823200  0.93695300  1
  H  H2  1  0.95826500  0.62685500  0.42488100  1
  H  H3  1  0.04173500  0.12685500  0.42488100  1
  O  O0  1  0.28609300  0.22587500  0.95597500  1
  O  O1  1  0.78315400  0.26575400  0.04890700  1
  O  O2  1  0.21684600  0.76575400  0.04890700  1
  O  O3  1  0.71390700  0.72587500  0.95597500  1
  O  O4  1  0.50188200  0.51703700  0.90478600  1
  O  O5  1  0.98043000  0.00533200  0.10572800  1
  O  O6  1  0.01957000  0.50533200  0.10572800  1
  O  O7  1  0.49811800  0.01703700  0.90478600  1
  O  O8  1  0.77799500  0.65562700  0.70787100  1
  O  O9  1  0.33180700  0.84695000  0.27694000  1
  O  O10  1  0.66819300  0.34695000  0.27694000  1
  O  O11  1  0.22200500  0.15562700  0.70787100  1
  O  O12  1  0.43456700  0.81977800  0.52605700  1
  O  O13  1  0.01512900  0.69751400  0.46796800  1
  O  O14  1  0.98487100  0.19751400  0.46796800  1
  O  O15  1  0.56543300  0.31977800  0.52605700  1
  O  O16  1  0.86289400  0.36064300  0.80375900  1
  O  O17  1  0.40372100  0.12622700  0.19916300  1
  O  O18  1  0.59627900  0.62622700  0.19916300  1
  O  O19  1  0.13710600  0.86064300  0.80375900  1
  O  O20  1  0.39535700  0.46257100  0.67603300  1
  O  O21  1  0.97047800  0.01967800  0.35322900  1
  O  O22  1  0.02952200  0.51967800  0.35322900  1
  O  O23  1  0.60464300  0.96257100  0.67603300  1
loop_
_geom_bond_atom_site_label_1
_geom_bond_atom_site_label_2
_geom_bond_distance
_geom_bond_site_symmetry_2
As0 O1 1.808900 1_555
As0 O17 1.857063 1_555
As0 O0 2.002818 1_554
As1 O1 1.802940 1_556
As1 O0 1.947526 1_655
As1 O5 2.092825 1_556
As1 O16 2.139902 1_555
As2 O2 1.802940 1_556
As2 O3 1.947526 1_455
As2 O6 2.092825 1_556
As2 O19 2.139902 1_555
As3 O2 1.808900 1_555
As3 O18 1.857063 1_555
As3 O3 2.002818 1_554
As4 O12 1.815300 1_555
As4 O8 1.854013 1_555
As4 O23 1.939684 1_555
As5 O13 1.807419 1_555
As5 O12 1.829271 1_555
As5 O9 1.889933 1_555
As6 O14 1.807419 1_555
As6 O15 1.829271 1_555
As6 O10 1.889933 1_555
As7 O15 1.815300 1_555
As7 O11 1.854013 1_555
As7 O20 1.939684 1_555
As8 O16 1.711229 1_555
As8 O4 1.722916 1_555
As8 O20 1.747357 1_555
As8 O8 1.773343 1_555
As9 O21 1.664759 1_455
As9 O5 1.723847 1_455
As9 O17 1.763000 1_555
As9 O9 1.783813 1_545
As10 O22 1.664759 1_655
As10 O6 1.723847 1_655
As10 O18 1.763000 1_555
As10 O10 1.783813 1_555
As11 O19 1.711229 1_555
As11 O7 1.722916 1_565
As11 O23 1.747357 1_555
As11 O11 1.773343 1_565
H0 O0 1.073974 1_555
H0 O7 1.495175 1_555
H1 O3 1.073974 1_555
H1 O4 1.495175 1_555
H2 O13 1.020478 1_655
H2 O22 1.580483 1_655
H3 O14 1.020478 1_455
H3 O21 1.580483 1_455
