# generated using pymatgen
data_KMoRu2
_symmetry_space_group_name_H-M   'P 1'
_cell_length_a   4.54360230
_cell_length_b   4.54360230
_cell_length_c   4.54360230
_cell_angle_alpha   60.00000000
_cell_angle_beta   60.00000000
_cell_angle_gamma   60.00000000
_symmetry_Int_Tables_number   1
_chemical_formula_structural   KMoRu2
_chemical_formula_sum   'K1 Mo1 Ru2'
_cell_volume   66.32632512
_cell_formula_units_Z   1
loop_
 _symmetry_equiv_pos_site_id
 _symmetry_equiv_pos_as_xyz
  1  'x, y, z'
loop_
 _atom_site_type_symbol
 _atom_site_label
 _atom_site_symmetry_multiplicity
 _atom_site_fract_x
 _atom_site_fract_y
 _atom_site_fract_z
 _atom_site_occupancy
  K  K0  1  0.50000000  0.50000000  0.50000000  1
  Mo  Mo0  1  0.25000000  0.25000000  0.25000000  1
  Ru  Ru0  1  0.00000000  0.00000000  0.00000000  1
  Ru  Ru1  1  0.75000000  0.75000000  0.75000000  1
loop_
_geom_bond_atom_site_label_1
_geom_bond_atom_site_label_2
_geom_bond_distance
_geom_bond_site_symmetry_2
K0 Mo0 2.782377 1_565
K0 Mo0 2.782377 1_555
K0 Ru1 2.782377 1_555
K0 Ru1 2.782377 1_545
K0 Mo0 2.782377 1_556
K0 Ru1 2.782377 1_554
K0 Mo0 2.782377 1_655
K0 Ru1 2.782377 1_455
K0 Ru0 3.212812 1_655
K0 Ru0 3.212812 1_565
K0 Ru0 3.212812 1_665
K0 Ru0 3.212812 1_656
K0 Ru0 3.212812 1_566
K0 Ru0 3.212812 1_556
Mo0 Ru0 2.782377 1_555
Mo0 Ru0 2.782377 1_565
Mo0 Ru0 2.782377 1_556
Mo0 Ru0 2.782377 1_655
Ru0 Ru1 2.782377 1_444
Ru0 Ru1 2.782377 1_454
Ru0 Ru1 2.782377 1_445
Ru0 Ru1 2.782377 1_544
