# generated using pymatgen
data_Cs4K2Cu(SiO4)2
_symmetry_space_group_name_H-M   'P 1'
_cell_length_a   10.59214900
_cell_length_b   10.59214900
_cell_length_c   6.17879400
_cell_angle_alpha   90.00000000
_cell_angle_beta   90.00000000
_cell_angle_gamma   90.00000000
_symmetry_Int_Tables_number   1
_chemical_formula_structural   Cs4K2Cu(SiO4)2
_chemical_formula_sum   'Cs8 K4 Cu2 Si4 O16'
_cell_volume   693.22126880
_cell_formula_units_Z   2
loop_
 _symmetry_equiv_pos_site_id
 _symmetry_equiv_pos_as_xyz
  1  'x, y, z'
loop_
 _atom_site_type_symbol
 _atom_site_label
 _atom_site_symmetry_multiplicity
 _atom_site_fract_x
 _atom_site_fract_y
 _atom_site_fract_z
 _atom_site_occupancy
  Cs  Cs0  1  0.38361400  0.86300200  0.00000000  1
  Cs  Cs1  1  0.61638600  0.13699800  0.00000000  1
  Cs  Cs2  1  0.86300200  0.38361400  0.00000000  1
  Cs  Cs3  1  0.88361400  0.63699800  0.50000000  1
  Cs  Cs4  1  0.13699800  0.61638600  0.00000000  1
  Cs  Cs5  1  0.36300200  0.11638600  0.50000000  1
  Cs  Cs6  1  0.11638600  0.36300200  0.50000000  1
  Cs  Cs7  1  0.63699800  0.88361400  0.50000000  1
  K  K0  1  0.89709900  0.10290100  0.50000000  1
  K  K1  1  0.39709900  0.39709900  0.00000000  1
  K  K2  1  0.60290100  0.60290100  0.00000000  1
  K  K3  1  0.10290100  0.89709900  0.50000000  1
  Cu  Cu0  1  0.50000000  0.50000000  0.50000000  1
  Cu  Cu1  1  0.00000000  0.00000000  0.00000000  1
  Si  Si0  1  0.82385400  0.82385400  0.00000000  1
  Si  Si1  1  0.32385400  0.67614600  0.50000000  1
  Si  Si2  1  0.17614600  0.17614600  0.00000000  1
  Si  Si3  1  0.67614600  0.32385400  0.50000000  1
  O  O0  1  0.89763600  0.89763600  0.20725200  1
  O  O1  1  0.10236400  0.10236400  0.79274800  1
  O  O2  1  0.85197800  0.67094100  0.00000000  1
  O  O3  1  0.60236400  0.39763600  0.29274800  1
  O  O4  1  0.82905900  0.35197800  0.50000000  1
  O  O5  1  0.60236400  0.39763600  0.70725200  1
  O  O6  1  0.39763600  0.60236400  0.29274800  1
  O  O7  1  0.64802200  0.17094100  0.50000000  1
  O  O8  1  0.67094100  0.85197800  0.00000000  1
  O  O9  1  0.89763600  0.89763600  0.79274800  1
  O  O10  1  0.14802200  0.32905900  0.00000000  1
  O  O11  1  0.10236400  0.10236400  0.20725200  1
  O  O12  1  0.35197800  0.82905900  0.50000000  1
  O  O13  1  0.39763600  0.60236400  0.70725200  1
  O  O14  1  0.32905900  0.14802200  0.00000000  1
  O  O15  1  0.17094100  0.64802200  0.50000000  1
loop_
_geom_bond_atom_site_label_1
_geom_bond_atom_site_label_2
_geom_bond_distance
_geom_bond_site_symmetry_2
Cs0 O8 3.045650 1_555
Cs0 O14 3.073780 1_565
Cs0 O12 3.128246 1_554
Cs0 O12 3.128246 1_555
Cs0 O6 3.303858 1_555
Cs0 O13 3.303858 1_554
Cs1 O14 3.045650 1_555
Cs1 O8 3.073780 1_545
Cs1 O7 3.128246 1_555
Cs1 O7 3.128246 1_554
Cs1 O3 3.303858 1_555
Cs1 O5 3.303858 1_554
Cs2 O2 3.045650 1_555
Cs2 O10 3.073780 1_655
Cs2 O4 3.128246 1_554
Cs2 O4 3.128246 1_555
Cs2 O3 3.303858 1_555
Cs2 O5 3.303858 1_554
Cs3 O15 3.045650 1_655
Cs3 O4 3.073780 1_555
Cs3 O2 3.128246 1_556
Cs3 O2 3.128246 1_555
Cs3 O9 3.303858 1_555
Cs3 O0 3.303858 1_555
Cs4 O10 3.045650 1_555
Cs4 O2 3.073780 1_455
Cs4 O15 3.128246 1_555
Cs4 O15 3.128246 1_554
Cs4 O6 3.303858 1_555
Cs4 O13 3.303858 1_554
Cs5 O12 3.045650 1_545
Cs5 O7 3.073780 1_555
Cs5 O14 3.128246 1_555
Cs5 O14 3.128246 1_556
Cs5 O1 3.303858 1_555
Cs5 O11 3.303858 1_555
Cs6 O4 3.045650 1_455
Cs6 O15 3.073780 1_555
Cs6 O10 3.128246 1_556
Cs6 O10 3.128246 1_555
Cs6 O1 3.303858 1_555
Cs6 O11 3.303858 1_555
Cs7 O7 3.045650 1_565
Cs7 O12 3.073780 1_555
Cs7 O8 3.128246 1_555
Cs7 O8 3.128246 1_556
Cs7 O9 3.303858 1_555
Cs7 O0 3.303858 1_555
K0 O4 2.734925 1_555
K0 O7 2.734925 1_555
K0 O0 2.828256 1_545
K0 O9 2.828256 1_545
K0 O1 2.828256 1_655
K0 O11 2.828256 1_655
K1 O10 2.734925 1_555
K1 O14 2.734925 1_555
K1 O13 2.828256 1_554
K1 O3 2.828256 1_555
K1 O5 2.828256 1_554
K1 O6 2.828256 1_555
K2 O2 2.734925 1_555
K2 O8 2.734925 1_555
K2 O13 2.828256 1_554
K2 O3 2.828256 1_555
K2 O5 2.828256 1_554
K2 O6 2.828256 1_555
K3 O15 2.734925 1_555
K3 O12 2.734925 1_555
K3 O9 2.828256 1_455
K3 O0 2.828256 1_455
K3 O1 2.828256 1_565
K3 O11 2.828256 1_565
Cu0 O5 1.997766 1_555
Cu0 O3 1.997766 1_555
Cu0 O13 1.997766 1_555
Cu0 O6 1.997766 1_555
Cu1 O11 1.997766 1_555
Cu1 O1 1.997766 1_554
Cu1 O9 1.997766 1_444
Cu1 O0 1.997766 1_445
O0 Si0 1.691558 1_555
O1 Si2 1.691558 1_556
O2 Si0 1.646844 1_555
O3 Si3 1.691558 1_555
O4 Si3 1.646844 1_555
O5 Si3 1.691558 1_555
O6 Si1 1.691558 1_555
O7 Si3 1.646844 1_555
O8 Si0 1.646844 1_555
O9 Si0 1.691558 1_556
O10 Si2 1.646844 1_555
O11 Si2 1.691558 1_555
O12 Si1 1.646844 1_555
O13 Si1 1.691558 1_555
O14 Si2 1.646844 1_555
O15 Si1 1.646844 1_555
