# generated using pymatgen
data_Fe4As5O13
_symmetry_space_group_name_H-M   'P 1'
_cell_length_a   9.07158700
_cell_length_b   9.22726152
_cell_length_c   9.29287555
_cell_angle_alpha   94.27196612
_cell_angle_beta   116.37721549
_cell_angle_gamma   111.76157021
_symmetry_Int_Tables_number   1
_chemical_formula_structural   Fe4As5O13
_chemical_formula_sum   'Fe8 As10 O26'
_cell_volume   619.89638459
_cell_formula_units_Z   2
loop_
 _symmetry_equiv_pos_site_id
 _symmetry_equiv_pos_as_xyz
  1  'x, y, z'
loop_
 _atom_site_type_symbol
 _atom_site_label
 _atom_site_symmetry_multiplicity
 _atom_site_fract_x
 _atom_site_fract_y
 _atom_site_fract_z
 _atom_site_occupancy
  Fe  Fe0  1  0.99741700  0.49967100  0.00065900  1
  Fe  Fe1  1  0.00008700  0.49985000  0.50018000  1
  Fe  Fe2  1  0.73971300  0.30615900  0.61810800  1
  Fe  Fe3  1  0.25717600  0.69320800  0.38149800  1
  Fe  Fe4  1  0.34961900  0.88189900  0.79957600  1
  Fe  Fe5  1  0.65115900  0.12079400  0.19681700  1
  Fe  Fe6  1  0.46870700  0.72347900  0.10813400  1
  Fe  Fe7  1  0.53095100  0.27799700  0.89381900  1
  As  As0  1  0.10016300  0.29281600  0.30403800  1
  As  As1  1  0.90126600  0.70636100  0.69574400  1
  As  As2  1  0.16203500  0.33760900  0.83510900  1
  As  As3  1  0.84292200  0.66794600  0.16633000  1
  As  As4  1  0.21077800  0.93161200  0.09584900  1
  As  As5  1  0.79018400  0.06805100  0.90511400  1
  As  As6  1  0.52560500  0.40776400  0.26031700  1
  As  As7  1  0.47270100  0.59205300  0.74318900  1
  As  As8  1  0.69662800  0.94583500  0.45572700  1
  As  As9  1  0.30191500  0.05232600  0.53965800  1
  O  O0  1  0.09799400  0.70987700  0.68926500  1
  O  O1  1  0.90384300  0.28898400  0.31205800  1
  O  O2  1  0.62504700  0.08629200  0.96095300  1
  O  O3  1  0.37549800  0.90325900  0.04154900  1
  O  O4  1  0.00854100  0.65722000  0.35600300  1
  O  O5  1  0.99241000  0.34551600  0.64743900  1
  O  O6  1  0.47754800  0.76060800  0.34446600  1
  O  O7  1  0.51570700  0.23571700  0.63659100  1
  O  O8  1  0.27379000  0.56696900  0.55363700  1
  O  O9  1  0.72843300  0.43784700  0.44913700  1
  O  O10  1  0.86646800  0.26200000  0.85773000  1
  O  O11  1  0.13278800  0.73941400  0.14490000  1
  O  O12  1  0.28525600  0.06216300  0.72852500  1
  O  O13  1  0.71053300  0.93200400  0.26439100  1
  O  O14  1  0.14031200  0.46665900  0.22171600  1
  O  O15  1  0.86099900  0.53396800  0.77932400  1
  O  O16  1  0.78093300  0.48057600  0.02904100  1
  O  O17  1  0.22817300  0.52877300  0.97913700  1
  O  O18  1  0.62135800  0.10375900  0.41537800  1
  O  O19  1  0.38222500  0.89426000  0.58360300  1
  O  O20  1  0.36557100  0.41167600  0.79965600  1
  O  O21  1  0.62494300  0.58958500  0.19213000  1
  O  O22  1  0.48018600  0.74073200  0.89068600  1
  O  O23  1  0.51891900  0.25633900  0.12199600  1
  O  O24  1  0.01865600  0.87557400  0.88816600  1
  O  O25  1  0.98484600  0.12479600  0.11265800  1
loop_
_geom_bond_atom_site_label_1
_geom_bond_atom_site_label_2
_geom_bond_distance
_geom_bond_site_symmetry_2
Fe0 O15 1.996961 1_554
Fe0 O14 2.003241 1_655
Fe0 O16 2.041550 1_555
Fe0 O10 2.053570 1_554
Fe0 O11 2.068752 1_655
Fe0 O17 2.111235 1_654
Fe1 O5 2.051101 1_455
Fe1 O4 2.051378 1_555
Fe1 O0 2.112298 1_555
Fe1 O1 2.116993 1_455
Fe1 O9 2.121496 1_455
Fe1 O8 2.124431 1_555
Fe2 O7 1.982110 1_555
Fe2 O9 2.046041 1_555
Fe2 O15 2.055461 1_555
Fe2 O5 2.067336 1_555
Fe2 O18 2.093230 1_555
Fe2 O10 2.157360 1_555
Fe3 O8 2.032746 1_555
Fe3 O14 2.047957 1_555
Fe3 O4 2.052274 1_555
Fe3 O6 2.054994 1_555
Fe3 O19 2.069592 1_555
Fe3 O11 2.140357 1_555
Fe4 O0 1.942320 1_555
Fe4 O12 2.021080 1_565
Fe4 O22 2.057604 1_555
Fe4 O3 2.140297 1_556
Fe4 O19 2.159901 1_555
Fe4 O2 2.191774 1_565
Fe5 O1 1.934714 1_555
Fe5 O23 1.996935 1_555
Fe5 O13 2.068143 1_545
Fe5 O2 2.083381 1_554
Fe5 O18 2.174153 1_555
Fe5 O3 2.237165 1_545
Fe6 O17 1.968284 1_554
Fe6 O13 2.060748 1_555
Fe6 O22 2.083769 1_554
Fe6 O3 2.139580 1_555
Fe6 O21 2.145574 1_555
Fe6 O6 2.158272 1_555
Fe7 O16 2.047095 1_556
Fe7 O12 2.122330 1_555
Fe7 O23 2.191037 1_556
Fe7 O20 2.214602 1_555
Fe7 O2 2.248939 1_555
Fe7 O7 2.326503 1_555
As0 O1 1.802823 1_455
As0 O14 1.813341 1_555
As0 O25 1.842396 1_455
As1 O0 1.800676 1_655
As1 O15 1.808973 1_555
As1 O24 1.851635 1_655
As2 O5 1.769834 1_455
As2 O17 1.847376 1_555
As2 O20 1.903467 1_555
As3 O4 1.776808 1_655
As3 O16 1.801679 1_555
As3 O21 1.969108 1_555
As4 O24 1.795548 1_554
As4 O11 1.824862 1_555
As4 O3 1.869788 1_555
As5 O25 1.802777 1_556
As5 O10 1.829038 1_555
As5 O2 1.845651 1_555
As6 O23 1.791234 1_555
As6 O9 1.794829 1_555
As6 O21 1.890246 1_555
As7 O8 1.793795 1_555
As7 O22 1.825799 1_555
As7 O20 1.836813 1_555
As8 O18 1.822629 1_565
As8 O6 1.825424 1_555
As8 O13 1.836062 1_555
As9 O7 1.795391 1_555
As9 O12 1.825824 1_555
As9 O19 1.853937 1_545
