# generated using pymatgen
data_BaRe2H2O9
_symmetry_space_group_name_H-M   'P 1'
_cell_length_a   7.40922300
_cell_length_b   7.63831145
_cell_length_c   15.77096237
_cell_angle_alpha   89.71317083
_cell_angle_beta   84.49445505
_cell_angle_gamma   89.75744353
_symmetry_Int_Tables_number   1
_chemical_formula_structural   BaRe2H2O9
_chemical_formula_sum   'Ba4 Re8 H8 O36'
_cell_volume   888.40628776
_cell_formula_units_Z   4
loop_
 _symmetry_equiv_pos_site_id
 _symmetry_equiv_pos_as_xyz
  1  'x, y, z'
loop_
 _atom_site_type_symbol
 _atom_site_label
 _atom_site_symmetry_multiplicity
 _atom_site_fract_x
 _atom_site_fract_y
 _atom_site_fract_z
 _atom_site_occupancy
  Ba  Ba0  1  0.72105300  0.32165600  0.13674600  1
  Ba  Ba1  1  0.27894700  0.67834400  0.86325400  1
  Ba  Ba2  1  0.28264800  0.31336500  0.36274400  1
  Ba  Ba3  1  0.71735200  0.68663500  0.63725600  1
  Re  Re0  1  0.21717700  0.63055600  0.14569100  1
  Re  Re1  1  0.78282300  0.36944400  0.85430900  1
  Re  Re2  1  0.79807200  0.63791900  0.35223400  1
  Re  Re3  1  0.20192800  0.36208100  0.64776600  1
  Re  Re4  1  0.73989300  0.80494900  0.01274900  1
  Re  Re5  1  0.26010700  0.19505100  0.98725100  1
  Re  Re6  1  0.26270800  0.80114100  0.49042500  1
  Re  Re7  1  0.73729200  0.19885900  0.50957500  1
  H  H0  1  0.42845100  0.00806400  0.21330100  1
  H  H1  1  0.57154900  0.99193600  0.78669900  1
  H  H2  1  0.57836700  0.00262500  0.27632700  1
  H  H3  1  0.42163300  0.99737500  0.72367300  1
  H  H4  1  0.92267400  0.07777700  0.29239700  1
  H  H5  1  0.07732600  0.92222300  0.70760300  1
  H  H6  1  0.08661000  0.04764400  0.22556900  1
  H  H7  1  0.91339000  0.95235600  0.77443100  1
  O  O0  1  0.28305400  0.62043200  0.03646200  1
  O  O1  1  0.71694600  0.37956800  0.96353800  1
  O  O2  1  0.98563500  0.58403300  0.16077300  1
  O  O3  1  0.01436500  0.41596700  0.83922700  1
  O  O4  1  0.25272500  0.84393000  0.18269000  1
  O  O5  1  0.74727500  0.15607000  0.81731000  1
  O  O6  1  0.33957200  0.47133700  0.19845500  1
  O  O7  1  0.66042800  0.52866300  0.80154500  1
  O  O8  1  0.73309700  0.64864900  0.46122400  1
  O  O9  1  0.26690300  0.35135100  0.53877600  1
  O  O10  1  0.03173100  0.59247000  0.33837300  1
  O  O11  1  0.96826900  0.40753000  0.66162700  1
  O  O12  1  0.76124100  0.84334400  0.30589800  1
  O  O13  1  0.23875900  0.15665600  0.69410200  1
  O  O14  1  0.67511900  0.47090500  0.30661700  1
  O  O15  1  0.32488100  0.52909500  0.69338300  1
  O  O16  1  0.58474200  0.83449200  0.93652000  1
  O  O17  1  0.41525800  0.16550800  0.06348000  1
  O  O18  1  0.93667500  0.71070700  0.96197800  1
  O  O19  1  0.06332500  0.28929300  0.03802200  1
  O  O20  1  0.79534000  0.00443100  0.05811400  1
  O  O21  1  0.20466000  0.99556900  0.94188600  1
  O  O22  1  0.64131200  0.66896400  0.09456400  1
  O  O23  1  0.35868800  0.33103600  0.90543600  1
  O  O24  1  0.41731100  0.85757300  0.56326800  1
  O  O25  1  0.58268900  0.14242700  0.43673200  1
  O  O26  1  0.07174600  0.71043300  0.54831800  1
  O  O27  1  0.92825400  0.28956700  0.45168200  1
  O  O28  1  0.19816500  0.98521200  0.43329900  1
  O  O29  1  0.80183500  0.01478800  0.56670100  1
  O  O30  1  0.36478100  0.64754800  0.41855500  1
  O  O31  1  0.63521900  0.35245200  0.58144500  1
  O  O32  1  0.50233000  0.08441100  0.24645100  1
  O  O33  1  0.49767000  0.91558900  0.75354900  1
  O  O34  1  0.01021800  0.14107800  0.25299800  1
  O  O35  1  0.98978200  0.85892200  0.74700200  1
loop_
_geom_bond_atom_site_label_1
_geom_bond_atom_site_label_2
_geom_bond_distance
_geom_bond_site_symmetry_2
Ba0 O20 2.756784 1_555
Ba0 O1 2.768084 1_554
Ba0 O22 2.806011 1_555
Ba0 O19 2.856102 1_655
Ba0 O2 2.861195 1_555
Ba0 O32 2.891198 1_555
Ba0 O17 2.903465 1_555
Ba0 O14 2.906026 1_555
Ba0 O6 3.114358 1_555
Ba0 O34 3.249234 1_655
Ba1 O21 2.756784 1_555
Ba1 O0 2.768084 1_556
Ba1 O23 2.806011 1_555
Ba1 O18 2.856102 1_455
Ba1 O3 2.861195 1_555
Ba1 O33 2.891198 1_555
Ba1 O16 2.903465 1_555
Ba1 O15 2.906026 1_555
Ba1 O7 3.114358 1_555
Ba1 O35 3.249234 1_455
Ba2 O9 2.784005 1_555
Ba2 O28 2.786466 1_545
Ba2 O30 2.792709 1_555
Ba2 O6 2.847883 1_555
Ba2 O27 2.861809 1_455
Ba2 O10 2.871287 1_555
Ba2 O25 2.909695 1_555
Ba2 O32 2.916614 1_555
Ba2 O34 3.085038 1_555
Ba2 O14 3.195704 1_555
Ba3 O8 2.784005 1_555
Ba3 O29 2.786466 1_565
Ba3 O31 2.792709 1_555
Ba3 O7 2.847883 1_555
Ba3 O26 2.861809 1_655
Ba3 O11 2.871287 1_555
Ba3 O24 2.909695 1_555
Ba3 O33 2.916614 1_555
Ba3 O35 3.085038 1_555
Ba3 O15 3.195704 1_555
H0 O32 0.986765 1_555
H1 O33 0.986765 1_555
H2 O32 0.987250 1_555
H3 O33 0.987250 1_555
H4 O34 0.981279 1_655
H5 O35 0.981279 1_455
H6 O34 0.984639 1_555
H7 O35 0.984639 1_555
O0 Re0 1.746827 1_555
O1 Re1 1.746827 1_555
O2 Re0 1.746989 1_655
O3 Re1 1.746989 1_455
O4 Re0 1.763180 1_555
O5 Re1 1.763180 1_555
O6 Re0 1.766132 1_555
O7 Re1 1.766132 1_555
O8 Re2 1.742214 1_555
O9 Re3 1.742214 1_555
O10 Re2 1.757418 1_455
O11 Re3 1.757418 1_655
O12 Re2 1.758897 1_555
O13 Re3 1.758897 1_555
O14 Re2 1.766261 1_555
O15 Re3 1.766261 1_555
O16 Re4 1.754409 1_556
O17 Re5 1.754409 1_554
O18 Re4 1.748702 1_556
O19 Re5 1.748702 1_554
O20 Re4 1.753549 1_545
O21 Re5 1.753549 1_565
O22 Re4 1.757677 1_555
O23 Re5 1.757677 1_555
O24 Re6 1.754805 1_555
O25 Re7 1.754805 1_555
O26 Re6 1.752039 1_555
O27 Re7 1.752039 1_555
O28 Re6 1.755413 1_555
O29 Re7 1.755413 1_555
O30 Re6 1.753392 1_555
O31 Re7 1.753392 1_555
