# generated using pymatgen
data_TlCr(MoO4)2
_symmetry_space_group_name_H-M   'P 1'
_cell_length_a   5.73648600
_cell_length_b   9.04914700
_cell_length_c   15.09714000
_cell_angle_alpha   90.00000000
_cell_angle_beta   90.00000000
_cell_angle_gamma   90.00000000
_symmetry_Int_Tables_number   1
_chemical_formula_structural   TlCr(MoO4)2
_chemical_formula_sum   'Tl4 Cr4 Mo8 O32'
_cell_volume   783.69714320
_cell_formula_units_Z   4
loop_
 _symmetry_equiv_pos_site_id
 _symmetry_equiv_pos_as_xyz
  1  'x, y, z'
loop_
 _atom_site_type_symbol
 _atom_site_label
 _atom_site_symmetry_multiplicity
 _atom_site_fract_x
 _atom_site_fract_y
 _atom_site_fract_z
 _atom_site_occupancy
  Tl  Tl0  1  0.75000000  0.55937400  0.88290300  1
  Tl  Tl1  1  0.75000000  0.94062600  0.38290300  1
  Tl  Tl2  1  0.25000000  0.44062600  0.11709700  1
  Tl  Tl3  1  0.25000000  0.05937400  0.61709700  1
  Cr  Cr0  1  0.75000000  0.82173200  0.12109400  1
  Cr  Cr1  1  0.25000000  0.32173200  0.37890600  1
  Cr  Cr2  1  0.25000000  0.17826800  0.87890600  1
  Cr  Cr3  1  0.75000000  0.67826800  0.62109400  1
  Mo  Mo0  1  0.25000000  0.70477300  0.47071100  1
  Mo  Mo1  1  0.75000000  0.98744000  0.77969000  1
  Mo  Mo2  1  0.75000000  0.20477300  0.02928900  1
  Mo  Mo3  1  0.25000000  0.01256000  0.22031000  1
  Mo  Mo4  1  0.25000000  0.79522700  0.97071100  1
  Mo  Mo5  1  0.75000000  0.29522700  0.52928900  1
  Mo  Mo6  1  0.75000000  0.51256000  0.27969000  1
  Mo  Mo7  1  0.25000000  0.48744000  0.72031000  1
  O  O0  1  0.98809200  0.90125300  0.20721800  1
  O  O1  1  0.98809200  0.59874700  0.70721800  1
  O  O2  1  0.00412800  0.24757200  0.46354900  1
  O  O3  1  0.25000000  0.12071800  0.32174300  1
  O  O4  1  0.49587200  0.24757200  0.46354900  1
  O  O5  1  0.75000000  0.64100000  0.36581200  1
  O  O6  1  0.51190800  0.90125300  0.20721800  1
  O  O7  1  0.75000000  0.48657500  0.55872000  1
  O  O8  1  0.48809200  0.40125300  0.29278200  1
  O  O9  1  0.75000000  0.62071800  0.17825700  1
  O  O10  1  0.50412800  0.74757200  0.03645100  1
  O  O11  1  0.49587200  0.25242800  0.96354900  1
  O  O12  1  0.25000000  0.98657500  0.94128000  1
  O  O13  1  0.75000000  0.31899300  0.12399500  1
  O  O14  1  0.25000000  0.35900000  0.63418800  1
  O  O15  1  0.25000000  0.14100000  0.13418800  1
  O  O16  1  0.25000000  0.37928200  0.82174300  1
  O  O17  1  0.25000000  0.68100700  0.87600500  1
  O  O18  1  0.75000000  0.18100700  0.62399500  1
  O  O19  1  0.75000000  0.01342500  0.05872000  1
  O  O20  1  0.01190800  0.40125300  0.29278200  1
  O  O21  1  0.75000000  0.85900000  0.86581200  1
  O  O22  1  0.25000000  0.81899300  0.37600500  1
  O  O23  1  0.99587200  0.75242800  0.53645100  1
  O  O24  1  0.25000000  0.51342500  0.44128000  1
  O  O25  1  0.48809200  0.09874700  0.79278200  1
  O  O26  1  0.75000000  0.87928200  0.67825700  1
  O  O27  1  0.50412800  0.75242800  0.53645100  1
  O  O28  1  0.51190800  0.59874700  0.70721800  1
  O  O29  1  0.01190800  0.09874700  0.79278200  1
  O  O30  1  0.00412800  0.25242800  0.96354900  1
  O  O31  1  0.99587200  0.74757200  0.03645100  1
loop_
_geom_bond_atom_site_label_1
_geom_bond_atom_site_label_2
_geom_bond_distance
_geom_bond_site_symmetry_2
Cr0 O19 1.973773 1_565
Cr0 O9 2.013342 1_555
Cr0 O31 2.018079 1_555
Cr0 O10 2.018079 1_555
Cr0 O6 2.018378 1_555
Cr0 O0 2.018378 1_555
Cr1 O24 1.973773 1_555
Cr1 O3 2.013342 1_555
Cr1 O2 2.018079 1_555
Cr1 O4 2.018079 1_555
Cr1 O20 2.018378 1_555
Cr1 O8 2.018378 1_555
Cr2 O12 1.973773 1_545
Cr2 O16 2.013342 1_555
Cr2 O11 2.018079 1_555
Cr2 O30 2.018079 1_555
Cr2 O25 2.018378 1_555
Cr2 O29 2.018378 1_555
Cr3 O7 1.973773 1_555
Cr3 O26 2.013342 1_555
Cr3 O23 2.018079 1_555
Cr3 O27 2.018079 1_555
Cr3 O28 2.018378 1_555
Cr3 O1 2.018378 1_555
Mo0 O22 1.764260 1_555
Mo0 O24 1.787636 1_555
Mo0 O23 1.815538 1_455
Mo0 O27 1.815538 1_555
Mo1 O21 1.743957 1_555
Mo1 O26 1.817403 1_555
Mo1 O25 1.819584 1_565
Mo1 O29 1.819584 1_665
Mo2 O13 1.764260 1_555
Mo2 O19 1.787636 1_555
Mo2 O30 1.815538 1_654
Mo2 O11 1.815538 1_554
Mo3 O15 1.743957 1_555
Mo3 O3 1.817403 1_555
Mo3 O0 1.819584 1_445
Mo3 O6 1.819584 1_545
Mo4 O17 1.764260 1_555
Mo4 O12 1.787636 1_555
Mo4 O31 1.815538 1_456
Mo4 O10 1.815538 1_556
Mo5 O18 1.764260 1_555
Mo5 O7 1.787636 1_555
Mo5 O2 1.815538 1_655
Mo5 O4 1.815538 1_555
Mo6 O5 1.743957 1_555
Mo6 O9 1.817403 1_555
Mo6 O8 1.819584 1_555
Mo6 O20 1.819584 1_655
Mo7 O14 1.743957 1_555
Mo7 O16 1.817403 1_555
Mo7 O28 1.819584 1_555
Mo7 O1 1.819584 1_455
O5 Tl1 2.723609 1_555
O14 Tl3 2.723609 1_555
O15 Tl2 2.723609 1_555
O21 Tl0 2.723609 1_555
