# generated using pymatgen
data_Zr5Sc2O13
_symmetry_space_group_name_H-M   'P 1'
_cell_length_a   8.09928310
_cell_length_b   8.09928310
_cell_length_c   8.09928343
_cell_angle_alpha   73.39388961
_cell_angle_beta   73.39388961
_cell_angle_gamma   73.39389004
_symmetry_Int_Tables_number   1
_chemical_formula_structural   Zr5Sc2O13
_chemical_formula_sum   'Zr10 Sc4 O26'
_cell_volume   475.70064655
_cell_formula_units_Z   2
loop_
 _symmetry_equiv_pos_site_id
 _symmetry_equiv_pos_as_xyz
  1  'x, y, z'
loop_
 _atom_site_type_symbol
 _atom_site_label
 _atom_site_symmetry_multiplicity
 _atom_site_fract_x
 _atom_site_fract_y
 _atom_site_fract_z
 _atom_site_occupancy
  Zr  Zr0  1  0.00440700  0.00440700  0.00440700  1
  Zr  Zr1  1  0.28600400  0.13494900  0.54754600  1
  Zr  Zr2  1  0.54754600  0.28600400  0.13494900  1
  Zr  Zr3  1  0.60235100  0.09797200  0.78919600  1
  Zr  Zr4  1  0.13494900  0.54754600  0.28600400  1
  Zr  Zr5  1  0.78919600  0.60235100  0.09797200  1
  Zr  Zr6  1  0.86706200  0.44956400  0.71053200  1
  Zr  Zr7  1  0.09797200  0.78919600  0.60235100  1
  Zr  Zr8  1  0.44956400  0.71053200  0.86706200  1
  Zr  Zr9  1  0.71053200  0.86706200  0.44956400  1
  Sc  Sc0  1  0.90448200  0.21131200  0.39490600  1
  Sc  Sc1  1  0.21131200  0.39490600  0.90448200  1
  Sc  Sc2  1  0.50027500  0.50027500  0.50027500  1
  Sc  Sc3  1  0.39490600  0.90448200  0.21131200  1
  O  O0  1  0.17330300  0.02194200  0.40216000  1
  O  O1  1  0.50773100  0.04703500  0.33374900  1
  O  O2  1  0.40216000  0.17330300  0.02194200  1
  O  O3  1  0.86863100  0.04758000  0.25791100  1
  O  O4  1  0.02194200  0.40216000  0.17330300  1
  O  O5  1  0.04703500  0.33374900  0.50773100  1
  O  O6  1  0.04758000  0.25791100  0.86863100  1
  O  O7  1  0.35675000  0.35675000  0.35675000  1
  O  O8  1  0.38716600  0.28221200  0.68315600  1
  O  O9  1  0.33374900  0.50773100  0.04703500  1
  O  O10  1  0.74618400  0.12785400  0.95246400  1
  O  O11  1  0.68315600  0.38716600  0.28221200  1
  O  O12  1  0.71655100  0.31442700  0.61794000  1
  O  O13  1  0.28221200  0.68315600  0.38716600  1
  O  O14  1  0.31442700  0.61794000  0.71655100  1
  O  O15  1  0.25791100  0.86863100  0.04758000  1
  O  O16  1  0.66762300  0.48859200  0.95303500  1
  O  O17  1  0.61794000  0.71655100  0.31442700  1
  O  O18  1  0.64354100  0.64354100  0.64354100  1
  O  O19  1  0.95246400  0.74618400  0.12785400  1
  O  O20  1  0.95303500  0.66762300  0.48859200  1
  O  O21  1  0.97186900  0.60385500  0.82617800  1
  O  O22  1  0.12785400  0.95246400  0.74618400  1
  O  O23  1  0.60385500  0.82617800  0.97186900  1
  O  O24  1  0.48859200  0.95303500  0.66762300  1
  O  O25  1  0.82617800  0.97186900  0.60385500  1
loop_
_geom_bond_atom_site_label_1
_geom_bond_atom_site_label_2
_geom_bond_distance
_geom_bond_site_symmetry_2
O0 Zr1 2.182981 1_555
O0 Sc3 2.189644 1_545
O0 Zr7 2.213515 1_545
O0 Sc0 2.282367 1_455
O1 Zr9 2.105515 1_545
O1 Zr2 2.172856 1_555
O1 Sc3 2.219658 1_545
O1 Zr1 2.219660 1_555
O2 Zr2 2.182981 1_555
O2 Sc1 2.189644 1_554
O2 Zr3 2.213515 1_554
O2 Sc3 2.282367 1_545
O3 Sc0 2.078288 1_555
O3 Zr0 2.108845 1_655
O3 Zr9 2.196262 1_545
O4 Zr4 2.182981 1_555
O4 Sc0 2.189644 1_455
O4 Zr5 2.213515 1_455
O4 Sc1 2.282367 1_554
O5 Zr6 2.105515 1_455
O5 Zr1 2.172856 1_555
O5 Sc0 2.219658 1_455
O5 Zr4 2.219660 1_555
O6 Sc1 2.078288 1_555
O6 Zr0 2.108845 1_556
O6 Zr6 2.196262 1_455
O7 Zr4 2.106887 1_555
O7 Zr1 2.106887 1_555
O7 Zr2 2.106887 1_555
O7 Sc2 2.524080 1_555
O8 Zr3 2.153683 1_555
O8 Sc2 2.192360 1_555
O8 Sc1 2.192682 1_555
O8 Zr1 2.263184 1_555
O9 Zr8 2.105515 1_554
O9 Zr4 2.172856 1_555
O9 Sc1 2.219658 1_554
O9 Zr2 2.219660 1_555
O10 Zr3 2.094964 1_555
O10 Zr0 2.148946 1_656
O10 Zr2 2.226790 1_556
O11 Zr5 2.153683 1_555
O11 Sc2 2.192360 1_555
O11 Sc0 2.192682 1_555
O11 Zr2 2.263184 1_555
O12 Zr3 2.157897 1_555
O12 Sc0 2.200354 1_555
O12 Sc2 2.206692 1_555
O12 Zr6 2.236226 1_555
O13 Zr7 2.153683 1_555
O13 Sc2 2.192360 1_555
O13 Sc3 2.192682 1_555
O13 Zr4 2.263184 1_555
O14 Zr7 2.157897 1_555
O14 Sc1 2.200354 1_555
O14 Sc2 2.206693 1_555
O14 Zr8 2.236226 1_555
O15 Sc3 2.078289 1_555
O15 Zr0 2.108845 1_565
O15 Zr8 2.196262 1_554
O16 Zr2 2.126077 1_556
O16 Zr6 2.194640 1_555
O16 Zr5 2.234705 1_556
O16 Zr8 2.237888 1_555
O17 Zr5 2.157898 1_555
O17 Sc3 2.200354 1_555
O17 Sc2 2.206692 1_555
O17 Zr9 2.236226 1_555
O18 Zr6 2.118627 1_555
O18 Zr9 2.118627 1_555
O18 Zr8 2.118628 1_555
O18 Sc2 2.519525 1_555
O19 Zr5 2.094964 1_555
O19 Zr0 2.148946 1_665
O19 Zr4 2.226790 1_655
O20 Zr4 2.126077 1_655
O20 Zr9 2.194640 1_555
O20 Zr7 2.234705 1_655
O20 Zr6 2.237888 1_555
O21 Zr7 2.201249 1_655
O21 Zr6 2.211175 1_555
O21 Zr5 2.273409 1_556
O21 Sc1 2.289276 1_655
O22 Zr7 2.094964 1_555
O22 Zr0 2.148946 1_566
O22 Zr1 2.226790 1_565
O23 Zr5 2.201249 1_556
O23 Zr8 2.211175 1_555
O23 Zr3 2.273409 1_565
O23 Sc3 2.289276 1_556
O24 Zr1 2.126077 1_565
O24 Zr8 2.194640 1_555
O24 Zr3 2.234705 1_565
O24 Zr9 2.237888 1_555
O25 Zr3 2.201249 1_565
O25 Zr9 2.211175 1_555
O25 Zr7 2.273409 1_655
O25 Sc0 2.289276 1_565
