# generated using pymatgen
data_HS3N
_symmetry_space_group_name_H-M   'P 1'
_cell_length_a   7.45466800
_cell_length_b   8.47377100
_cell_length_c   13.35059700
_cell_angle_alpha   90.00000000
_cell_angle_beta   90.00000000
_cell_angle_gamma   90.00000000
_symmetry_Int_Tables_number   1
_chemical_formula_structural   HS3N
_chemical_formula_sum   'H8 S24 N8'
_cell_volume   843.34585798
_cell_formula_units_Z   8
loop_
 _symmetry_equiv_pos_site_id
 _symmetry_equiv_pos_as_xyz
  1  'x, y, z'
loop_
 _atom_site_type_symbol
 _atom_site_label
 _atom_site_symmetry_multiplicity
 _atom_site_fract_x
 _atom_site_fract_y
 _atom_site_fract_z
 _atom_site_occupancy
  H  H0  1  0.35120500  0.82299700  0.25000000  1
  H  H1  1  0.14879500  0.32299700  0.25000000  1
  H  H2  1  0.64879500  0.17700300  0.75000000  1
  H  H3  1  0.85120500  0.67700300  0.75000000  1
  H  H4  1  0.63435200  0.64333300  0.25000000  1
  H  H5  1  0.86564800  0.14333300  0.25000000  1
  H  H6  1  0.36564800  0.35666700  0.75000000  1
  H  H7  1  0.13435200  0.85666700  0.75000000  1
  S  S0  1  0.27216800  0.62593800  0.13754400  1
  S  S1  1  0.22783200  0.12593800  0.36245600  1
  S  S2  1  0.72783200  0.37406200  0.63754400  1
  S  S3  1  0.77216800  0.87406200  0.86245600  1
  S  S4  1  0.72783200  0.37406200  0.86245600  1
  S  S5  1  0.77216800  0.87406200  0.63754400  1
  S  S6  1  0.27216800  0.62593800  0.36245600  1
  S  S7  1  0.22783200  0.12593800  0.13754400  1
  S  S8  1  0.01662600  0.69756600  0.09924300  1
  S  S9  1  0.48337400  0.19756600  0.40075700  1
  S  S10  1  0.98337400  0.30243400  0.59924300  1
  S  S11  1  0.51662600  0.80243400  0.90075700  1
  S  S12  1  0.98337400  0.30243400  0.90075700  1
  S  S13  1  0.51662600  0.80243400  0.59924300  1
  S  S14  1  0.01662600  0.69756600  0.40075700  1
  S  S15  1  0.48337400  0.19756600  0.09924300  1
  S  S16  1  0.83288200  0.52269100  0.13867800  1
  S  S17  1  0.66711800  0.02269100  0.36132200  1
  S  S18  1  0.16711800  0.47730900  0.63867800  1
  S  S19  1  0.33288200  0.97730900  0.86132200  1
  S  S20  1  0.16711800  0.47730900  0.86132200  1
  S  S21  1  0.33288200  0.97730900  0.63867800  1
  S  S22  1  0.83288200  0.52269100  0.36132200  1
  S  S23  1  0.66711800  0.02269100  0.13867800  1
  N  N0  1  0.33472100  0.70271100  0.25000000  1
  N  N1  1  0.16527900  0.20271100  0.25000000  1
  N  N2  1  0.66527900  0.29728900  0.75000000  1
  N  N3  1  0.83472100  0.79728900  0.75000000  1
  N  N4  1  0.74003400  0.56515400  0.25000000  1
  N  N5  1  0.75996600  0.06515400  0.25000000  1
  N  N6  1  0.25996600  0.43484600  0.75000000  1
  N  N7  1  0.24003400  0.93484600  0.75000000  1
loop_
_geom_bond_atom_site_label_1
_geom_bond_atom_site_label_2
_geom_bond_distance
_geom_bond_site_symmetry_2
H0 N0 1.026657 1_555
H1 N1 1.026657 1_555
H2 N2 1.026657 1_555
H3 N3 1.026657 1_555
H4 N4 1.029337 1_555
H5 N5 1.029337 1_555
H6 N6 1.029337 1_555
H7 N7 1.029337 1_555
S0 S8 2.063691 1_555
S1 S9 2.063691 1_555
S10 S2 2.063691 1_555
S10 S18 2.085493 1_655
S11 S3 2.063691 1_555
S11 S19 2.085493 1_555
S12 S4 2.063691 1_555
S12 S20 2.085493 1_655
S13 S5 2.063691 1_555
S13 S21 2.085493 1_555
S14 S6 2.063691 1_555
S14 S22 2.085493 1_455
S15 S7 2.063691 1_555
S15 S23 2.085493 1_555
S16 S8 2.085493 1_655
S17 S9 2.085493 1_555
N0 S0 1.701393 1_555
N0 S6 1.701393 1_555
N1 S1 1.701393 1_555
N1 S7 1.701393 1_555
N2 S2 1.701393 1_555
N2 S4 1.701393 1_555
N3 S5 1.701393 1_555
N3 S3 1.701393 1_555
N4 S22 1.678505 1_555
N4 S16 1.678505 1_555
N5 S17 1.678505 1_555
N5 S23 1.678505 1_555
N6 S18 1.678505 1_555
N6 S20 1.678505 1_555
N7 S21 1.678505 1_555
N7 S19 1.678505 1_555
