# generated using pymatgen
data_Os2Pt(CO)9
_symmetry_space_group_name_H-M   'P 1'
_cell_length_a   10.48763200
_cell_length_b   15.72458700
_cell_length_c   17.96373100
_cell_angle_alpha   90.00000000
_cell_angle_beta   90.00000000
_cell_angle_gamma   90.00000000
_symmetry_Int_Tables_number   1
_chemical_formula_structural   Os2Pt(CO)9
_chemical_formula_sum   'Os16 Pt8 C72 O72'
_cell_volume   2962.46501822
_cell_formula_units_Z   8
loop_
 _symmetry_equiv_pos_site_id
 _symmetry_equiv_pos_as_xyz
  1  'x, y, z'
loop_
 _atom_site_type_symbol
 _atom_site_label
 _atom_site_symmetry_multiplicity
 _atom_site_fract_x
 _atom_site_fract_y
 _atom_site_fract_z
 _atom_site_occupancy
  Os  Os0  1  0.23726100  0.31693600  0.28287800  1
  Os  Os1  1  0.17977800  0.81811000  0.27227300  1
  Os  Os2  1  0.76895400  0.96919700  0.12210500  1
  Os  Os3  1  0.17977800  0.68189000  0.77227300  1
  Os  Os4  1  0.63394200  0.38157000  0.07501900  1
  Os  Os5  1  0.73726100  0.81693600  0.21712200  1
  Os  Os6  1  0.63394200  0.11843000  0.57501900  1
  Os  Os7  1  0.67977800  0.31811000  0.22772700  1
  Os  Os8  1  0.13394200  0.61843000  0.92498100  1
  Os  Os9  1  0.26895400  0.46919700  0.37789500  1
  Os  Os10  1  0.67977800  0.18189000  0.72772700  1
  Os  Os11  1  0.26895400  0.03080300  0.87789500  1
  Os  Os12  1  0.23726100  0.18306400  0.78287800  1
  Os  Os13  1  0.76895400  0.53080300  0.62210500  1
  Os  Os14  1  0.13394200  0.88157000  0.42498100  1
  Os  Os15  1  0.73726100  0.68306400  0.71712200  1
  Pt  Pt0  1  0.97800200  0.59809300  0.68656000  1
  Pt  Pt1  1  0.97800200  0.90190700  0.18656000  1
  Pt  Pt2  1  0.43357800  0.36226000  0.16929500  1
  Pt  Pt3  1  0.43357800  0.13774000  0.66929500  1
  Pt  Pt4  1  0.47800200  0.09809300  0.81344000  1
  Pt  Pt5  1  0.93357800  0.63774000  0.83070500  1
  Pt  Pt6  1  0.47800200  0.40190700  0.31344000  1
  Pt  Pt7  1  0.93357800  0.86226000  0.33070500  1
  C  C0  1  0.13554400  0.10507400  0.72177000  1
  C  C1  1  0.72642600  0.77464300  0.78802600  1
  C  C2  1  0.09252800  0.00602600  0.89556900  1
  C  C3  1  0.75905400  0.07065000  0.74561800  1
  C  C4  1  0.30594300  0.88111900  0.46142800  1
  C  C5  1  0.13249900  0.50035600  0.88863600  1
  C  C6  1  0.83276500  0.26942700  0.18805100  1
  C  C7  1  0.25905400  0.57065000  0.75438200  1
  C  C8  1  0.07155800  0.71854800  0.28990800  1
  C  C9  1  0.27420700  0.38360900  0.45761700  1
  C  C10  1  0.63249900  0.00035600  0.61136400  1
  C  C11  1  0.05517900  0.57912000  0.01428300  1
  C  C12  1  0.28642700  0.96586200  0.78555900  1
  C  C13  1  0.13554400  0.39492600  0.22177000  1
  C  C14  1  0.33698000  0.56059600  0.43584100  1
  C  C15  1  0.19549900  0.71378500  0.66966100  1
  C  C16  1  0.57155800  0.21854800  0.21009200  1
  C  C17  1  0.80594300  0.11888100  0.53857200  1
  C  C18  1  0.85681200  0.74625800  0.65359800  1
  C  C19  1  0.33698000  0.93940400  0.93584100  1
  C  C20  1  0.30594300  0.61888100  0.96142800  1
  C  C21  1  0.57155800  0.28145200  0.71009200  1
  C  C22  1  0.69549900  0.21378500  0.83033900  1
  C  C23  1  0.63554400  0.89492600  0.27823000  1
  C  C24  1  0.10480400  0.73855200  0.94784800  1
  C  C25  1  0.25905400  0.92935000  0.25438200  1
  C  C26  1  0.07605100  0.53481100  0.62140300  1
  C  C27  1  0.60480400  0.26144800  0.05215200  1
  C  C28  1  0.09362000  0.21306000  0.84356400  1
  C  C29  1  0.09362000  0.28694000  0.34356400  1
  C  C30  1  0.33276500  0.73057300  0.81194900  1
  C  C31  1  0.57605100  0.03481100  0.87859700  1
  C  C32  1  0.28642700  0.53413800  0.28555900  1
  C  C33  1  0.07605100  0.96518900  0.12140300  1
  C  C34  1  0.07155800  0.78145200  0.78990800  1
  C  C35  1  0.33276500  0.76942700  0.31194900  1
  C  C36  1  0.32126500  0.38361600  0.09223800  1
  C  C37  1  0.32126500  0.11638400  0.59223800  1
  C  C38  1  0.83698000  0.43940400  0.56415900  1
  C  C39  1  0.59362000  0.71306000  0.65643600  1
  C  C40  1  0.77420700  0.61639100  0.54238300  1
  C  C41  1  0.63249900  0.49964400  0.11136400  1
  C  C42  1  0.59362000  0.78694000  0.15643600  1
  C  C43  1  0.55517900  0.42088000  0.98571700  1
  C  C44  1  0.63554400  0.60507400  0.77823000  1
  C  C45  1  0.83276500  0.23057300  0.68805100  1
  C  C46  1  0.72642600  0.72535700  0.28802600  1
  C  C47  1  0.10480400  0.76144800  0.44784800  1
  C  C48  1  0.78642700  0.03413800  0.21444100  1
  C  C49  1  0.55517900  0.07912000  0.48571700  1
  C  C50  1  0.13249900  0.99964400  0.38863600  1
  C  C51  1  0.80594300  0.38111900  0.03857200  1
  C  C52  1  0.09252800  0.49397400  0.39556900  1
  C  C53  1  0.59252800  0.99397400  0.10443100  1
  C  C54  1  0.22642600  0.27464300  0.71197400  1
  C  C55  1  0.05517900  0.92088000  0.51428300  1
  C  C56  1  0.75905400  0.42935000  0.24561800  1
  C  C57  1  0.78642700  0.46586200  0.71444100  1
  C  C58  1  0.35681200  0.24625800  0.84640200  1
  C  C59  1  0.35681200  0.25374200  0.34640200  1
  C  C60  1  0.60480400  0.23855200  0.55215200  1
  C  C61  1  0.22642600  0.22535700  0.21197400  1
  C  C62  1  0.83698000  0.06059600  0.06415900  1
  C  C63  1  0.19549900  0.78621500  0.16966100  1
  C  C64  1  0.82126500  0.88361600  0.40776200  1
  C  C65  1  0.77420700  0.88360900  0.04238300  1
  C  C66  1  0.59252800  0.50602600  0.60443100  1
  C  C67  1  0.27420700  0.11639100  0.95761700  1
  C  C68  1  0.82126500  0.61638400  0.90776200  1
  C  C69  1  0.69549900  0.28621500  0.33033900  1
  C  C70  1  0.57605100  0.46518900  0.37859700  1
  C  C71  1  0.85681200  0.75374200  0.15359800  1
  O  O0  1  0.12628000  0.42902800  0.87291200  1
  O  O1  1  0.21322700  0.33098100  0.67096100  1
  O  O2  1  0.48485900  0.49361900  0.59379000  1
  O  O3  1  0.91058000  0.12194800  0.51773900  1
  O  O4  1  0.71113200  0.23681900  0.89119000  1
  O  O5  1  0.56769200  0.93804900  0.31259400  1
  O  O6  1  0.75446700  0.60322700  0.95829500  1
  O  O7  1  0.63720000  0.50572700  0.41948300  1
  O  O8  1  0.63720000  0.99427300  0.91948300  1
  O  O9  1  0.79434800  0.42457400  0.76795700  1
  O  O10  1  0.25446700  0.39677300  0.04170500  1
  O  O11  1  0.98485900  0.99361900  0.90621000  1
  O  O12  1  0.29434800  0.92457400  0.73204300  1
  O  O13  1  0.06769200  0.43804900  0.18740600  1
  O  O14  1  0.06769200  0.06195100  0.68740600  1
  O  O15  1  0.41533300  0.29013000  0.88573900  1
  O  O16  1  0.91058000  0.37805200  0.01773900  1
  O  O17  1  0.37628400  0.88213200  0.96962800  1
  O  O18  1  0.42574500  0.73879200  0.33513000  1
  O  O19  1  0.71322700  0.66901900  0.32903900  1
  O  O20  1  0.21322700  0.16901900  0.17096100  1
  O  O21  1  0.81085100  0.00753700  0.75991300  1
  O  O22  1  0.56769200  0.56195100  0.81259400  1
  O  O23  1  0.87628400  0.11786800  0.03037200  1
  O  O24  1  0.42574500  0.76120800  0.83513000  1
  O  O25  1  0.12628000  0.07097200  0.37291200  1
  O  O26  1  0.51555000  0.34506100  0.70517900  1
  O  O27  1  0.41058000  0.87805200  0.48226100  1
  O  O28  1  0.27459400  0.16791200  0.00369300  1
  O  O29  1  0.25446700  0.10322700  0.54170500  1
  O  O30  1  0.81085100  0.49246300  0.25991300  1
  O  O31  1  0.01555000  0.84506100  0.79482100  1
  O  O32  1  0.37628400  0.61786800  0.46962800  1
  O  O33  1  0.08492300  0.69097000  0.46275000  1
  O  O34  1  0.98485900  0.50638100  0.40621000  1
  O  O35  1  0.41533300  0.20987000  0.38573900  1
  O  O36  1  0.71113200  0.26318100  0.39119000  1
  O  O37  1  0.50757400  0.76749600  0.11935400  1
  O  O38  1  0.21113200  0.76318100  0.10881000  1
  O  O39  1  0.91533300  0.70987000  0.11426100  1
  O  O40  1  0.92574500  0.23879200  0.16487000  1
  O  O41  1  0.58492300  0.30903000  0.53725000  1
  O  O42  1  0.50757400  0.73250400  0.61935400  1
  O  O43  1  0.00757400  0.26749600  0.38064600  1
  O  O44  1  0.48485900  0.00638100  0.09379000  1
  O  O45  1  0.77459400  0.66791200  0.49630700  1
  O  O46  1  0.13720000  0.00572700  0.08051700  1
  O  O47  1  0.91533300  0.79013000  0.61426100  1
  O  O48  1  0.71322700  0.83098100  0.82903900  1
  O  O49  1  0.77459400  0.83208800  0.99630700  1
  O  O50  1  0.50638300  0.05259600  0.43266300  1
  O  O51  1  0.51555000  0.15493900  0.20517900  1
  O  O52  1  0.50638300  0.44740400  0.93266300  1
  O  O53  1  0.01555000  0.65493900  0.29482100  1
  O  O54  1  0.00757400  0.23250400  0.88064600  1
  O  O55  1  0.92574500  0.26120800  0.66487000  1
  O  O56  1  0.29434800  0.57542600  0.23204300  1
  O  O57  1  0.62628000  0.57097200  0.12708800  1
  O  O58  1  0.31085100  0.50753700  0.74008700  1
  O  O59  1  0.87628400  0.38213200  0.53037200  1
  O  O60  1  0.31085100  0.99246300  0.24008700  1
  O  O61  1  0.21113200  0.73681900  0.60881000  1
  O  O62  1  0.00638300  0.94740400  0.56733700  1
  O  O63  1  0.75446700  0.89677300  0.45829500  1
  O  O64  1  0.79434800  0.07542600  0.26795700  1
  O  O65  1  0.62628000  0.92902800  0.62708800  1
  O  O66  1  0.08492300  0.80903000  0.96275000  1
  O  O67  1  0.13720000  0.49427300  0.58051700  1
  O  O68  1  0.00638300  0.55259600  0.06733700  1
  O  O69  1  0.27459400  0.33208800  0.50369300  1
  O  O70  1  0.41058000  0.62194800  0.98226100  1
  O  O71  1  0.58492300  0.19097000  0.03725000  1
loop_
_geom_bond_atom_site_label_1
_geom_bond_atom_site_label_2
_geom_bond_distance
_geom_bond_site_symmetry_2
C0 O14 1.160715 1_555
C0 Os12 1.961368 1_555
C1 O48 1.160501 1_555
C1 Os15 1.925862 1_555
C2 O11 1.161756 1_445
C2 Os11 1.917335 1_555
C3 O21 1.160150 1_555
C3 Os10 1.963226 1_555
C4 O27 1.160454 1_555
C4 Os14 1.919038 1_555
C5 O0 1.158461 1_555
C5 Os8 1.968172 1_555
C6 O40 1.164628 1_555
C6 Os7 1.915289 1_555
C7 O58 1.160150 1_555
C7 Os3 1.963226 1_555
C8 O53 1.163301 1_555
C8 Os1 1.959472 1_555
C9 O69 1.158204 1_555
C9 Os9 1.966020 1_555
C10 O65 1.158461 1_545
C10 Os6 1.968172 1_555
C11 O68 1.159374 1_555
C11 Os8 1.907321 1_554
C12 O12 1.163012 1_555
C12 Os11 1.956439 1_565
C13 O13 1.160715 1_555
C13 Os0 1.961368 1_555
C14 O32 1.161608 1_555
C14 Os9 1.912613 1_555
C15 O61 1.163169 1_555
C15 Os3 1.917409 1_555
C16 O51 1.163301 1_555
C16 Os7 1.959472 1_555
C17 O3 1.160454 1_555
C17 Os6 1.919038 1_555
C18 O47 1.162731 1_555
C18 Os15 1.965107 1_555
C19 O17 1.161608 1_555
C19 Os11 1.912613 1_565
C20 O70 1.160454 1_555
C20 Os8 1.919038 1_555
C21 O26 1.163301 1_555
C21 Os10 1.959472 1_555
C22 O4 1.163169 1_555
C22 Os10 1.917409 1_555
C23 O5 1.160715 1_555
C23 Os5 1.961368 1_555
C24 O66 1.159019 1_555
C24 Os8 1.957025 1_555
C25 O60 1.160150 1_555
C25 Os1 1.963226 1_555
C26 O67 1.164925 1_555
C26 Pt0 1.848669 1_455
C27 O71 1.159019 1_555
C27 Os4 1.957025 1_555
C28 O54 1.162572 1_555
C28 Os12 1.918411 1_555
C29 O43 1.162572 1_555
C29 Os0 1.918411 1_555
C30 O24 1.164628 1_555
C30 Os3 1.915289 1_555
C31 O8 1.164925 1_545
C31 Pt4 1.848669 1_555
C32 O56 1.163012 1_555
C32 Os9 1.956439 1_555
C33 O46 1.164925 1_565
C33 Pt1 1.848669 1_455
C34 O31 1.163301 1_555
C34 Os3 1.959472 1_555
C35 O18 1.164628 1_555
C35 Os1 1.915289 1_555
C36 O10 1.165164 1_555
C36 Pt2 1.848326 1_555
C37 O29 1.165164 1_555
C37 Pt3 1.848326 1_555
C38 O59 1.161608 1_555
C38 Os13 1.912613 1_555
C39 O42 1.162572 1_555
C39 Os15 1.918411 1_555
C40 O45 1.158204 1_555
C40 Os13 1.966020 1_555
C41 O57 1.158461 1_555
C41 Os4 1.968172 1_555
C42 O37 1.162572 1_555
C42 Os5 1.918411 1_555
C43 O52 1.159374 1_555
C43 Os4 1.907321 1_556
C44 O22 1.160715 1_555
C44 Os15 1.961368 1_555
C45 O55 1.164628 1_555
C45 Os10 1.915289 1_555
C46 O19 1.160501 1_555
C46 Os5 1.925862 1_555
C47 O33 1.159019 1_555
C47 Os14 1.957025 1_555
C48 O64 1.163012 1_555
C48 Os2 1.956439 1_545
C49 O50 1.159374 1_555
C49 Os6 1.907321 1_555
C50 O25 1.158461 1_565
C50 Os14 1.968172 1_555
C51 O16 1.160454 1_555
C51 Os4 1.919038 1_555
C52 O34 1.161756 1_455
C52 Os9 1.917335 1_555
C53 O44 1.161756 1_565
C53 Os2 1.917335 1_555
C54 O1 1.160501 1_555
C54 Os12 1.925862 1_555
C55 O62 1.159374 1_555
C55 Os14 1.907321 1_555
C56 O30 1.160150 1_555
C56 Os7 1.963226 1_555
C57 O9 1.163012 1_555
C57 Os13 1.956439 1_555
C58 O15 1.162731 1_555
C58 Os12 1.965107 1_555
C59 O35 1.162731 1_555
C59 Os0 1.965107 1_555
C60 O41 1.159019 1_555
C60 Os6 1.957025 1_555
C61 O20 1.160501 1_555
C61 Os0 1.925862 1_555
C62 O23 1.161608 1_555
C62 Os2 1.912613 1_545
C63 O38 1.163169 1_555
C63 Os1 1.917409 1_555
C64 O63 1.165164 1_555
C64 Pt7 1.848326 1_555
C65 O49 1.158204 1_554
C65 Os2 1.966020 1_555
C66 O2 1.161756 1_555
C66 Os13 1.917335 1_555
C67 O28 1.158204 1_556
C67 Os11 1.966020 1_555
C68 O6 1.165164 1_555
C68 Pt5 1.848326 1_555
C69 O36 1.163169 1_555
C69 Os7 1.917409 1_555
C70 O7 1.164925 1_555
C70 Pt6 1.848669 1_555
C71 O39 1.162731 1_555
C71 Os5 1.965107 1_555
