# generated using pymatgen
data_Y40Si13S27
_symmetry_space_group_name_H-M   'P 1'
_cell_length_a   4.02567713
_cell_length_b   4.02567713
_cell_length_c   158.35475566
_cell_angle_alpha   59.44017516
_cell_angle_beta   59.44017519
_cell_angle_gamma   60.00000097
_symmetry_Int_Tables_number   1
_chemical_formula_structural   Y40Si13S27
_chemical_formula_sum   'Y40 Si13 S27'
_cell_volume   1799.14764320
_cell_formula_units_Z   1
loop_
 _symmetry_equiv_pos_site_id
 _symmetry_equiv_pos_as_xyz
  1  'x, y, z'
loop_
 _atom_site_type_symbol
 _atom_site_label
 _atom_site_symmetry_multiplicity
 _atom_site_fract_x
 _atom_site_fract_y
 _atom_site_fract_z
 _atom_site_occupancy
  Y  Y0  1  0.50089382  0.50089382  0.01243296  1
  Y  Y1  1  0.50459160  0.50459160  0.03715563  1
  Y  Y2  1  0.50368784  0.50368784  0.06222341  1
  Y  Y3  1  0.49909666  0.49909666  0.08756775  1
  Y  Y4  1  0.50020816  0.50020816  0.11248439  1
  Y  Y5  1  0.50030524  0.50030524  0.13747711  1
  Y  Y6  1  0.50045433  0.50045433  0.16246593  1
  Y  Y7  1  0.50040776  0.50040776  0.18746942  1
  Y  Y8  1  0.49999774  0.49999774  0.21250017  1
  Y  Y9  1  0.50063988  0.50063988  0.23745201  1
  Y  Y10  1  0.49594760  0.49594760  0.26280393  1
  Y  Y11  1  0.49540026  0.49540026  0.28784498  1
  Y  Y12  1  0.49980597  0.49980597  0.31251455  1
  Y  Y13  1  0.50037797  0.50037797  0.33747165  1
  Y  Y14  1  0.49829951  0.49829951  0.36262754  1
  Y  Y15  1  0.49969577  0.49969577  0.38752282  1
  Y  Y16  1  0.49263618  0.49263618  0.41305229  1
  Y  Y17  1  0.50041325  0.50041325  0.43746901  1
  Y  Y18  1  0.49894589  0.49894589  0.46257906  1
  Y  Y19  1  0.50102661  0.50102661  0.48742300  1
  Y  Y20  1  0.49893214  0.49893214  0.51258009  1
  Y  Y21  1  0.50034860  0.50034860  0.53747386  1
  Y  Y22  1  0.50007395  0.50007395  0.56249445  1
  Y  Y23  1  0.50051089  0.50051089  0.58746168  1
  Y  Y24  1  0.50043053  0.50043053  0.61246771  1
  Y  Y25  1  0.49985543  0.49985543  0.63751084  1
  Y  Y26  1  0.49936795  0.49936795  0.66254740  1
  Y  Y27  1  0.49925978  0.49925978  0.68755552  1
  Y  Y28  1  0.49968430  0.49968430  0.71252368  1
  Y  Y29  1  0.49993693  0.49993693  0.73750473  1
  Y  Y30  1  0.50036713  0.50036713  0.76247247  1
  Y  Y31  1  0.50022768  0.50022768  0.78748292  1
  Y  Y32  1  0.50028349  0.50028349  0.81247874  1
  Y  Y33  1  0.49960046  0.49960046  0.83752997  1
  Y  Y34  1  0.50121305  0.50121305  0.86240902  1
  Y  Y35  1  0.49885571  0.49885571  0.88758582  1
  Y  Y36  1  0.50119777  0.50119777  0.91241017  1
  Y  Y37  1  0.49933473  0.49933473  0.93754990  1
  Y  Y38  1  0.50788966  0.50788966  0.96190828  1
  Y  Y39  1  0.49966895  0.49966895  0.98752483  1
  Si  Si0  1  0.00256141  0.00256141  0.99980789  1
  Si  Si1  1  0.99941414  0.99941414  0.07504394  1
  Si  Si2  1  0.00158024  0.00158024  0.04988148  1
  Si  Si3  1  0.99941528  0.99941528  0.10004385  1
  Si  Si4  1  0.00024385  0.00024385  0.14998171  1
  Si  Si5  1  0.00052489  0.00052489  0.17496063  1
  Si  Si6  1  0.99996070  0.99996070  0.12500295  1
  Si  Si7  1  0.00057470  0.00057470  0.19995690  1
  Si  Si8  1  0.99809650  0.99809650  0.27514276  1
  Si  Si9  1  0.00066503  0.00066503  0.22495012  1
  Si  Si10  1  0.00029217  0.00029217  0.24997809  1
  Si  Si11  1  0.99938046  0.99938046  0.32504647  1
  Si  Si12  1  0.99758340  0.99758340  0.37518124  1
  S  S0  1  0.00190260  0.00190260  0.02485730  1
  S  S1  1  0.99825429  0.99825429  0.30013093  1
  S  S2  1  0.99903682  0.99903682  0.35007224  1
  S  S3  1  0.99027290  0.99027290  0.40072953  1
  S  S4  1  0.99776983  0.99776983  0.42516726  1
  S  S5  1  0.99998550  0.99998550  0.47500109  1
  S  S6  1  0.99942634  0.99942634  0.45004302  1
  S  S7  1  0.99988877  0.99988877  0.52500834  1
  S  S8  1  0.99999653  0.99999653  0.55000026  1
  S  S9  1  0.99985266  0.99985266  0.50001105  1
  S  S10  1  0.00049925  0.00049925  0.59996256  1
  S  S11  1  0.00018140  0.00018140  0.62498640  1
  S  S12  1  0.00041608  0.00041608  0.57496879  1
  S  S13  1  0.99955549  0.99955549  0.65003334  1
  S  S14  1  0.99927210  0.99927210  0.67505459  1
  S  S15  1  0.99941108  0.99941108  0.70004417  1
  S  S16  1  0.99982427  0.99982427  0.72501318  1
  S  S17  1  0.00016654  0.00016654  0.74998751  1
  S  S18  1  0.00018408  0.00018408  0.79998619  1
  S  S19  1  0.00038948  0.00038948  0.77497079  1
  S  S20  1  0.00013000  0.00013000  0.82499025  1
  S  S21  1  0.00010544  0.00010544  0.84999209  1
  S  S22  1  0.00059522  0.00059522  0.92495536  1
  S  S23  1  0.00017976  0.00017976  0.87498652  1
  S  S24  1  0.00000481  0.00000481  0.89999964  1
  S  S25  1  0.00229764  0.00229764  0.94982768  1
  S  S26  1  0.01023716  0.01023716  0.97423221  1
loop_
_geom_bond_atom_site_label_1
_geom_bond_atom_site_label_2
_geom_bond_distance
_geom_bond_site_symmetry_2
Si0 Y39 2.807370 1_545
Si0 Y39 2.807370 1_455
Si0 Y39 2.807371 1_555
Si0 Y0 2.832193 1_456
Si0 Y0 2.832193 1_546
Si0 Y0 2.832193 1_446
Si1 Y3 2.824796 1_565
Si1 Y3 2.824796 1_655
Si1 Y3 2.824796 1_555
Si1 Y2 2.846586 1_665
Si1 Y2 2.846586 1_655
Si1 Y2 2.846586 1_565
Si2 Y2 2.811610 1_455
Si2 Y2 2.811610 1_545
Si2 Y2 2.811610 1_445
Si2 Y1 2.839595 1_545
Si2 Y1 2.839595 1_455
Si2 Y1 2.839596 1_555
Si3 Y4 2.818742 1_555
Si3 Y4 2.818743 1_565
Si3 Y4 2.818743 1_655
Si3 Y3 2.821324 1_655
Si3 Y3 2.821324 1_565
Si3 Y3 2.821325 1_665
Si4 Y6 2.821914 1_445
Si4 Y6 2.821915 1_455
Si4 Y6 2.821915 1_545
Si4 Y5 2.823397 1_545
Si4 Y5 2.823397 1_455
Si4 Y5 2.823397 1_555
Si5 Y6 2.822676 1_545
Si5 Y6 2.822676 1_455
Si5 Y6 2.822677 1_555
Si5 Y7 2.823702 1_445
Si5 Y7 2.823702 1_455
Si5 Y7 2.823702 1_545
Si6 Y5 2.821183 1_565
Si6 Y5 2.821183 1_655
Si6 Y5 2.821183 1_555
Si6 Y4 2.824413 1_655
Si6 Y4 2.824413 1_565
Si6 Y4 2.824413 1_665
Si7 Y7 2.822152 1_545
Si7 Y7 2.822152 1_455
Si7 Y7 2.822152 1_555
Si7 Y8 2.826214 1_455
Si7 Y8 2.826214 1_545
Si7 Y8 2.826215 1_445
Si8 Y10 2.811386 1_655
Si8 Y10 2.811386 1_565
Si8 Y10 2.811387 1_665
Si8 Y11 2.837856 1_555
Si8 Y11 2.837856 1_565
Si8 Y11 2.837856 1_655
Si9 Y8 2.819425 1_545
Si9 Y8 2.819425 1_455
Si9 Y8 2.819426 1_555
Si9 Y9 2.823199 1_445
Si9 Y9 2.823200 1_455
Si9 Y9 2.823200 1_545
Si10 Y9 2.824961 1_555
Si10 Y9 2.824961 1_545
Si10 Y9 2.824961 1_455
Si10 Y10 2.846979 1_455
Si10 Y10 2.846979 1_545
Si10 Y10 2.846979 1_445
Si11 Y13 2.817629 1_565
Si11 Y13 2.817629 1_655
Si11 Y13 2.817630 1_555
Si11 Y12 2.825386 1_665
Si11 Y12 2.825387 1_655
Si11 Y12 2.825387 1_565
Si12 Y15 2.811584 1_555
Si12 Y15 2.811585 1_565
Si12 Y15 2.811585 1_655
Si12 Y14 2.826975 1_655
Si12 Y14 2.826975 1_565
Si12 Y14 2.826976 1_665
S0 Y1 2.808469 1_445
S0 Y1 2.808469 1_455
S0 Y1 2.808469 1_545
S0 Y0 2.817568 1_545
S0 Y0 2.817568 1_455
S0 Y0 2.817568 1_555
S1 Y11 2.807578 1_665
S1 Y11 2.807578 1_655
S1 Y11 2.807578 1_565
S1 Y12 2.814621 1_565
S1 Y12 2.814621 1_655
S1 Y12 2.814621 1_555
S2 Y14 2.827092 1_555
S2 Y14 2.827092 1_565
S2 Y14 2.827092 1_655
S2 Y13 2.830401 1_665
S2 Y13 2.830401 1_655
S2 Y13 2.830401 1_565
S3 Y16 2.810228 1_555
S3 Y16 2.810228 1_565
S3 Y16 2.810228 1_655
S3 Y15 2.875451 1_655
S3 Y15 2.875451 1_565
S3 Y15 2.875452 1_665
S4 Y16 2.795342 1_655
S4 Y16 2.795342 1_565
S4 Y16 2.795342 1_665
S4 Y17 2.808715 1_555
S4 Y17 2.808715 1_565
S4 Y17 2.808715 1_655
S5 Y19 2.817392 1_565
S5 Y19 2.817392 1_655
S5 Y19 2.817393 1_555
S5 Y18 2.817401 1_655
S5 Y18 2.817401 1_565
S5 Y18 2.817401 1_665
S6 Y18 2.825687 1_555
S6 Y18 2.825687 1_565
S6 Y18 2.825687 1_655
S6 Y17 2.828458 1_655
S6 Y17 2.828458 1_565
S6 Y17 2.828459 1_665
S7 Y20 2.817852 1_655
S7 Y20 2.817852 1_565
S7 Y20 2.817852 1_665
S7 Y21 2.820555 1_555
S7 Y21 2.820556 1_565
S7 Y21 2.820556 1_655
S8 Y22 2.822639 1_565
S8 Y22 2.822639 1_655
S8 Y22 2.822640 1_555
S8 Y21 2.824984 1_655
S8 Y21 2.824984 1_565
S8 Y21 2.824985 1_665
S9 Y20 2.828095 1_555
S9 Y20 2.828095 1_565
S9 Y20 2.828095 1_655
S9 Y19 2.829484 1_665
S9 Y19 2.829484 1_655
S9 Y19 2.829484 1_565
S10 Y23 2.823126 1_555
S10 Y23 2.823126 1_545
S10 Y23 2.823126 1_455
S10 Y24 2.823437 1_455
S10 Y24 2.823437 1_545
S10 Y24 2.823437 1_445
S11 Y24 2.824422 1_555
S11 Y24 2.824423 1_545
S11 Y24 2.824423 1_455
S11 Y25 2.824841 1_455
S11 Y25 2.824841 1_545
S11 Y25 2.824842 1_445
S12 Y22 2.821196 1_545
S12 Y22 2.821196 1_455
S12 Y22 2.821196 1_555
S12 Y23 2.822545 1_455
S12 Y23 2.822545 1_545
S12 Y23 2.822545 1_445
S13 Y26 2.824085 1_565
S13 Y26 2.824085 1_655
S13 Y26 2.824086 1_555
S13 Y25 2.824700 1_665
S13 Y25 2.824700 1_655
S13 Y25 2.824700 1_565
S14 Y27 2.823129 1_555
S14 Y27 2.823130 1_565
S14 Y27 2.823130 1_655
S14 Y26 2.823585 1_665
S14 Y26 2.823585 1_655
S14 Y26 2.823585 1_565
S15 Y28 2.821572 1_555
S15 Y28 2.821572 1_565
S15 Y28 2.821572 1_655
S15 Y27 2.822236 1_655
S15 Y27 2.822236 1_565
S15 Y27 2.822237 1_665
S16 Y28 2.822298 1_655
S16 Y28 2.822298 1_565
S16 Y28 2.822299 1_665
S16 Y29 2.822447 1_565
S16 Y29 2.822447 1_655
S16 Y29 2.822448 1_555
S17 Y29 2.821810 1_545
S17 Y29 2.821810 1_455
S17 Y29 2.821810 1_555
S17 Y30 2.821968 1_445
S17 Y30 2.821968 1_455
S17 Y30 2.821968 1_545
S18 Y32 2.822520 1_445
S18 Y32 2.822520 1_455
S18 Y32 2.822520 1_545
S18 Y31 2.823300 1_545
S18 Y31 2.823300 1_455
S18 Y31 2.823300 1_555
S19 Y30 2.822940 1_545
S19 Y30 2.822940 1_455
S19 Y30 2.822940 1_555
S19 Y31 2.823945 1_455
S19 Y31 2.823945 1_545
S19 Y31 2.823946 1_445
S20 Y32 2.823900 1_545
S20 Y32 2.823900 1_455
S20 Y32 2.823900 1_555
S20 Y33 2.825955 1_445
S20 Y33 2.825956 1_455
S20 Y33 2.825956 1_545
S21 Y34 2.817031 1_455
S21 Y34 2.817031 1_545
S21 Y34 2.817031 1_445
S21 Y33 2.820309 1_545
S21 Y33 2.820309 1_455
S21 Y33 2.820309 1_555
S22 Y36 2.826354 1_545
S22 Y36 2.826354 1_455
S22 Y36 2.826354 1_555
S22 Y37 2.829959 1_445
S22 Y37 2.829959 1_455
S22 Y37 2.829959 1_545
S23 Y34 2.828713 1_555
S23 Y34 2.828713 1_545
S23 Y34 2.828713 1_455
S23 Y35 2.830307 1_455
S23 Y35 2.830307 1_545
S23 Y35 2.830307 1_445
S24 Y36 2.816568 1_445
S24 Y36 2.816568 1_455
S24 Y36 2.816568 1_545
S24 Y35 2.816806 1_555
S24 Y35 2.816806 1_545
S24 Y35 2.816806 1_455
S25 Y38 2.792896 1_445
S25 Y38 2.792897 1_455
S25 Y38 2.792897 1_545
S25 Y37 2.806991 1_545
S25 Y37 2.806991 1_455
S25 Y37 2.806991 1_555
S26 Y38 2.810312 1_545
S26 Y38 2.810312 1_455
S26 Y38 2.810313 1_555
S26 Y39 2.881949 1_445
S26 Y39 2.881949 1_455
S26 Y39 2.881949 1_545
