# generated using pymatgen
data_HgAsS2
_symmetry_space_group_name_H-M   'P 1'
_cell_length_a   46.21070100
_cell_length_b   9.48101500
_cell_length_c   9.53726760
_cell_angle_alpha   69.58788477
_cell_angle_beta   90.00000000
_cell_angle_gamma   90.00000000
_symmetry_Int_Tables_number   1
_chemical_formula_structural   HgAsS2
_chemical_formula_sum   'Hg36 As36 S72'
_cell_volume   3916.13331290
_cell_formula_units_Z   36
loop_
 _symmetry_equiv_pos_site_id
 _symmetry_equiv_pos_as_xyz
  1  'x, y, z'
loop_
 _atom_site_type_symbol
 _atom_site_label
 _atom_site_symmetry_multiplicity
 _atom_site_fract_x
 _atom_site_fract_y
 _atom_site_fract_z
 _atom_site_occupancy
  Hg  Hg0  1  0.83261800  0.00477000  0.49162600  1
  Hg  Hg1  1  0.87464900  0.37871800  0.37722800  1
  Hg  Hg2  1  0.79258000  0.87856100  0.86733000  1
  Hg  Hg3  1  0.87493700  0.62266900  0.61964300  1
  Hg  Hg4  1  0.70740900  0.87771400  0.86791900  1
  Hg  Hg5  1  0.66594700  0.50401200  0.99200500  1
  Hg  Hg6  1  0.83353000  0.50839700  0.99084000  1
  Hg  Hg7  1  0.62598300  0.37773500  0.36780600  1
  Hg  Hg8  1  0.49930400  0.00399100  0.49209500  1
  Hg  Hg9  1  0.70844700  0.12009000  0.11968800  1
  Hg  Hg10  1  0.54071500  0.37773400  0.36784300  1
  Hg  Hg11  1  0.79165500  0.12024500  0.12003900  1
  Hg  Hg12  1  0.62490300  0.62012200  0.61980100  1
  Hg  Hg13  1  0.45928500  0.87773400  0.86784300  1
  Hg  Hg14  1  0.66738900  0.00404800  0.49202100  1
  Hg  Hg15  1  0.37401700  0.87773500  0.86780600  1
  Hg  Hg16  1  0.33261100  0.50404800  0.99202100  1
  Hg  Hg17  1  0.54177500  0.62012500  0.61973000  1
  Hg  Hg18  1  0.50069600  0.50399100  0.99209500  1
  Hg  Hg19  1  0.20742000  0.37856100  0.36733000  1
  Hg  Hg20  1  0.29259100  0.37771400  0.36791900  1
  Hg  Hg21  1  0.37509700  0.12012200  0.11980100  1
  Hg  Hg22  1  0.45822500  0.12012500  0.11973000  1
  Hg  Hg23  1  0.16647000  0.00839700  0.49084000  1
  Hg  Hg24  1  0.04138300  0.87945600  0.87676900  1
  Hg  Hg25  1  0.99982700  0.50915000  0.99057700  1
  Hg  Hg26  1  0.20834500  0.62024500  0.62003900  1
  Hg  Hg27  1  0.12535100  0.87871800  0.87722800  1
  Hg  Hg28  1  0.33405300  0.00401200  0.49200500  1
  Hg  Hg29  1  0.29155300  0.62009000  0.61968800  1
  Hg  Hg30  1  0.95861700  0.37945600  0.37676900  1
  Hg  Hg31  1  0.12506300  0.12266900  0.11964300  1
  Hg  Hg32  1  0.16738200  0.50477000  0.99162600  1
  Hg  Hg33  1  0.04150200  0.12289000  0.11996200  1
  Hg  Hg34  1  0.00017300  0.00915000  0.49057700  1
  Hg  Hg35  1  0.95849800  0.62289000  0.61996200  1
  As  As0  1  0.74986500  0.49779600  0.38690200  1
  As  As1  1  0.83242500  0.74824300  0.25074300  1
  As  As2  1  0.75000900  0.00709400  0.49584900  1
  As  As3  1  0.74993600  0.50138900  0.97916700  1
  As  As4  1  0.83427400  0.24659100  0.75187100  1
  As  As5  1  0.58333800  0.50702300  0.99575700  1
  As  As6  1  0.66558000  0.24656200  0.75057400  1
  As  As7  1  0.58332600  0.99746600  0.88694600  1
  As  As8  1  0.41667400  0.49746600  0.38694600  1
  As  As9  1  0.66778700  0.74657300  0.25063400  1
  As  As10  1  0.49891800  0.74653600  0.25059900  1
  As  As11  1  0.41666200  0.00702300  0.49575700  1
  As  As12  1  0.75004200  0.50012600  0.61055300  1
  As  As13  1  0.58334900  0.00130000  0.47909300  1
  As  As14  1  0.41665100  0.50130000  0.97909300  1
  As  As15  1  0.24999100  0.50709400  0.99584900  1
  As  As16  1  0.50108200  0.24653600  0.75059900  1
  As  As17  1  0.33221300  0.24657300  0.75063400  1
  As  As18  1  0.25013500  0.99779600  0.88690200  1
  As  As19  1  0.08335900  0.59854300  0.53157200  1
  As  As20  1  0.33442000  0.74656200  0.25057400  1
  As  As21  1  0.16572600  0.74659100  0.25187100  1
  As  As22  1  0.08334400  0.01629900  0.49787300  1
  As  As23  1  0.58333400  0.00019000  0.11053600  1
  As  As24  1  0.41666600  0.50019000  0.61053600  1
  As  As25  1  0.91664100  0.09854300  0.03157200  1
  As  As26  1  0.25006400  0.00138900  0.47916700  1
  As  As27  1  0.16757500  0.24824300  0.75074300  1
  As  As28  1  0.99924000  0.24828400  0.75202000  1
  As  As29  1  0.91665600  0.51629900  0.99787300  1
  As  As30  1  0.08340900  0.50299000  0.98326400  1
  As  As31  1  0.00076000  0.74828400  0.25202000  1
  As  As32  1  0.24995800  0.00012600  0.11055300  1
  As  As33  1  0.91659100  0.00299000  0.48326400  1
  As  As34  1  0.08345000  0.45133000  0.40540200  1
  As  As35  1  0.91655000  0.95133000  0.90540200  1
  S  S0  1  0.87932800  0.35457300  0.11282100  1
  S  S1  1  0.87835700  0.66529100  0.33461800  1
  S  S2  1  0.78710900  0.84330200  0.60804800  1
  S  S3  1  0.67446500  0.49510400  0.72205700  1
  S  S4  1  0.71297400  0.84308000  0.60809100  1
  S  S5  1  0.82515300  0.27514400  0.50536100  1
  S  S6  1  0.50779700  0.99507000  0.22209300  1
  S  S7  1  0.82549800  0.49594400  0.72229400  1
  S  S8  1  0.71147900  0.16213200  0.83366700  1
  S  S9  1  0.78829900  0.16279300  0.83430100  1
  S  S10  1  0.54628800  0.34305900  0.10802200  1
  S  S11  1  0.62038400  0.34304400  0.10799400  1
  S  S12  1  0.84181400  0.77903600  0.00341900  1
  S  S13  1  0.65839000  0.77499600  0.00391300  1
  S  S14  1  0.87928600  0.88918200  0.64362800  1
  S  S15  1  0.75006000  0.72340900  0.02986600  1
  S  S16  1  0.84119400  0.99653900  0.22274000  1
  S  S17  1  0.65889000  0.99506900  0.22211400  1
  S  S18  1  0.54481500  0.66209100  0.33366800  1
  S  S19  1  0.62187100  0.66209400  0.33370900  1
  S  S20  1  0.45371200  0.84305900  0.60802200  1
  S  S21  1  0.34111000  0.49506900  0.72211400  1
  S  S22  1  0.37961600  0.84304400  0.60799400  1
  S  S23  1  0.49170000  0.27496100  0.50389200  1
  S  S24  1  0.75004300  0.95011500  0.27929100  1
  S  S25  1  0.67499000  0.27498700  0.50385800  1
  S  S26  1  0.78721300  0.38741700  0.14125300  1
  S  S27  1  0.58334900  0.22314600  0.52990500  1
  S  S28  1  0.71267000  0.38686700  0.14143100  1
  S  S29  1  0.49220300  0.49507000  0.72209300  1
  S  S30  1  0.37812900  0.16209400  0.83370900  1
  S  S31  1  0.45518500  0.16209100  0.83366800  1
  S  S32  1  0.21289100  0.34330200  0.10804800  1
  S  S33  1  0.28702600  0.34308000  0.10809100  1
  S  S34  1  0.17450200  0.99594400  0.22229400  1
  S  S35  1  0.50830000  0.77496100  0.00389200  1
  S  S36  1  0.32501000  0.77498700  0.00385800  1
  S  S37  1  0.58333600  0.44984400  0.77923500  1
  S  S38  1  0.62063800  0.88687200  0.64135200  1
  S  S39  1  0.54605800  0.88683800  0.64132600  1
  S  S40  1  0.41665100  0.72314600  0.02990500  1
  S  S41  1  0.28852100  0.66213200  0.33366700  1
  S  S42  1  0.21170100  0.66279300  0.33430100  1
  S  S43  1  0.32553500  0.99510400  0.22205700  1
  S  S44  1  0.00790700  0.49740600  0.72301900  1
  S  S45  1  0.12067200  0.85457300  0.61282100  1
  S  S46  1  0.04593200  0.85471200  0.61289900  1
  S  S47  1  0.15818600  0.27903600  0.50341900  1
  S  S48  1  0.34161000  0.27499600  0.50391300  1
  S  S49  1  0.41666400  0.94984400  0.27923500  1
  S  S50  1  0.45394200  0.38683800  0.14132600  1
  S  S51  1  0.37936200  0.38687200  0.14135200  1
  S  S52  1  0.24994000  0.22340900  0.52986600  1
  S  S53  1  0.21278700  0.88741700  0.64125300  1
  S  S54  1  0.12164300  0.16529100  0.83461800  1
  S  S55  1  0.04522900  0.16592100  0.83525700  1
  S  S56  1  0.15880600  0.49653900  0.72274000  1
  S  S57  1  0.95406800  0.35471200  0.11289900  1
  S  S58  1  0.99164900  0.77918300  0.00477900  1
  S  S59  1  0.24995700  0.45011500  0.77929100  1
  S  S60  1  0.28733000  0.88686700  0.64143100  1
  S  S61  1  0.08331000  0.71950100  0.04185200  1
  S  S62  1  0.99209300  0.99740600  0.22301900  1
  S  S63  1  0.95477100  0.66592100  0.33525700  1
  S  S64  1  0.08329700  0.95607300  0.28311000  1
  S  S65  1  0.17484700  0.77514400  0.00536100  1
  S  S66  1  0.12071400  0.38918200  0.14362800  1
  S  S67  1  0.04609600  0.38967300  0.14339900  1
  S  S68  1  0.91669000  0.21950100  0.54185200  1
  S  S69  1  0.00835100  0.27918300  0.50477900  1
  S  S70  1  0.91670300  0.45607300  0.78311000  1
  S  S71  1  0.95390400  0.88967300  0.64339900  1
loop_
_geom_bond_atom_site_label_1
_geom_bond_atom_site_label_2
_geom_bond_distance
_geom_bond_site_symmetry_2
Hg0 S2 2.610249 1_545
Hg0 S14 2.616321 1_545
Hg0 S16 2.622800 1_545
Hg0 S5 2.634675 1_555
Hg1 S1 2.608913 1_555
Hg1 S5 2.617651 1_555
Hg1 S0 2.619331 1_555
Hg1 S68 2.620084 1_555
Hg2 S9 2.609258 1_565
Hg2 S15 2.614760 1_556
Hg2 S2 2.620541 1_555
Hg2 S12 2.626201 1_556
Hg3 S7 2.607868 1_555
Hg3 S1 2.609887 1_555
Hg3 S14 2.623107 1_555
Hg3 S70 2.633011 1_555
Hg4 S8 2.607514 1_565
Hg4 S15 2.614243 1_556
Hg4 S13 2.623114 1_556
Hg4 S4 2.623409 1_555
Hg5 S11 2.609277 1_556
Hg5 S28 2.611926 1_556
Hg5 S13 2.634233 1_556
Hg5 S3 2.634793 1_555
Hg6 S0 2.603047 1_556
Hg6 S26 2.608989 1_556
Hg6 S7 2.631037 1_555
Hg6 S12 2.638119 1_556
Hg7 S19 2.607449 1_555
Hg7 S27 2.615177 1_555
Hg7 S25 2.622893 1_555
Hg7 S11 2.623659 1_555
Hg8 S20 2.610079 1_545
Hg8 S39 2.612390 1_545
Hg8 S23 2.633985 1_555
Hg8 S6 2.635176 1_545
Hg9 S17 2.606908 1_545
Hg9 S28 2.616178 1_555
Hg9 S8 2.619403 1_554
Hg9 S24 2.626357 1_545
Hg10 S18 2.607214 1_555
Hg10 S27 2.615035 1_555
Hg10 S23 2.623249 1_555
Hg10 S10 2.623556 1_555
Hg11 S16 2.602737 1_545
Hg11 S9 2.616573 1_554
Hg11 S26 2.618580 1_555
Hg11 S24 2.626282 1_545
Hg12 S3 2.606752 1_555
Hg12 S38 2.615307 1_555
Hg12 S19 2.620213 1_555
Hg12 S37 2.625972 1_555
Hg13 S31 2.607214 1_565
Hg13 S40 2.615035 1_556
Hg13 S35 2.623249 1_556
Hg13 S20 2.623556 1_555
Hg14 S4 2.610267 1_545
Hg14 S38 2.612705 1_545
Hg14 S25 2.633822 1_555
Hg14 S17 2.634527 1_545
Hg15 S30 2.607449 1_565
Hg15 S40 2.615177 1_556
Hg15 S36 2.622893 1_556
Hg15 S22 2.623659 1_555
Hg16 S33 2.610267 1_556
Hg16 S51 2.612705 1_556
Hg16 S36 2.633822 1_556
Hg16 S21 2.634527 1_555
Hg17 S29 2.607492 1_555
Hg17 S39 2.615200 1_555
Hg17 S18 2.619962 1_555
Hg17 S37 2.626028 1_555
Hg18 S10 2.610079 1_556
Hg18 S50 2.612390 1_556
Hg18 S35 2.633985 1_556
Hg18 S29 2.635176 1_555
Hg19 S42 2.609258 1_555
Hg19 S52 2.614760 1_555
Hg19 S32 2.620541 1_555
Hg19 S47 2.626201 1_555
Hg20 S41 2.607514 1_555
Hg20 S52 2.614243 1_555
Hg20 S48 2.623114 1_555
Hg20 S33 2.623409 1_555
Hg21 S43 2.606752 1_545
Hg21 S51 2.615307 1_555
Hg21 S30 2.620213 1_554
Hg21 S49 2.625972 1_545
Hg22 S6 2.607492 1_545
Hg22 S50 2.615200 1_555
Hg22 S31 2.619962 1_554
Hg22 S49 2.626028 1_545
Hg23 S45 2.603047 1_545
Hg23 S53 2.608989 1_545
Hg23 S34 2.631037 1_545
Hg23 S47 2.638119 1_555
Hg24 S55 2.610521 1_565
Hg24 S46 2.616164 1_555
Hg24 S58 2.620426 1_456
Hg24 S61 2.620504 1_556
Hg25 S57 2.604760 1_556
Hg25 S67 2.612929 1_656
Hg25 S44 2.619455 1_655
Hg25 S58 2.637728 1_556
Hg26 S56 2.602737 1_555
Hg26 S42 2.616573 1_555
Hg26 S53 2.618580 1_555
Hg26 S59 2.626282 1_555
Hg27 S54 2.608913 1_565
Hg27 S65 2.617651 1_556
Hg27 S45 2.619331 1_555
Hg27 S61 2.620084 1_556
Hg28 S22 2.609277 1_545
Hg28 S60 2.611926 1_545
Hg28 S48 2.634233 1_555
Hg28 S43 2.634793 1_545
Hg29 S21 2.606908 1_555
Hg29 S60 2.616178 1_555
Hg29 S41 2.619403 1_555
Hg29 S59 2.626357 1_555
Hg30 S63 2.610521 1_555
Hg30 S57 2.616164 1_555
Hg30 S69 2.620426 1_655
Hg30 S68 2.620504 1_555
Hg31 S34 2.607868 1_545
Hg31 S54 2.609887 1_554
Hg31 S66 2.623107 1_555
Hg31 S64 2.633011 1_545
Hg32 S32 2.610249 1_556
Hg32 S66 2.616321 1_556
Hg32 S56 2.622800 1_555
Hg32 S65 2.634675 1_556
Hg33 S62 2.603637 1_445
Hg33 S55 2.606968 1_554
Hg33 S67 2.624335 1_555
Hg33 S64 2.633656 1_545
Hg34 S46 2.604760 1_545
Hg34 S71 2.612929 1_445
Hg34 S62 2.619455 1_445
Hg34 S69 2.637728 1_555
Hg35 S44 2.603637 1_655
Hg35 S63 2.606968 1_555
Hg35 S71 2.624335 1_555
Hg35 S70 2.633656 1_555
As0 As12 2.140840 1_555
As1 S1 2.307555 1_555
As1 S16 2.310575 1_555
As1 S12 2.314527 1_555
As2 S4 2.309072 1_545
As2 S24 2.309953 1_545
As2 S2 2.310130 1_545
As3 S26 2.315053 1_556
As3 S28 2.316756 1_556
As3 S15 2.318345 1_556
As4 S9 2.308080 1_555
As4 S5 2.309618 1_555
As4 S7 2.316878 1_555
As5 S11 2.309268 1_556
As5 S10 2.309393 1_556
As5 S37 2.310652 1_555
As6 S8 2.307606 1_555
As6 S3 2.312632 1_555
As6 S25 2.314299 1_555
As9 S19 2.308396 1_555
As9 S17 2.312297 1_555
As9 S13 2.314237 1_555
As10 S18 2.307503 1_555
As10 S6 2.312533 1_555
As10 S35 2.313973 1_555
As11 S22 2.309268 1_545
As11 S20 2.309393 1_545
As11 S49 2.310652 1_545
As13 S27 2.317286 1_555
As13 S38 2.317312 1_545
As13 S39 2.317332 1_545
As14 S40 2.317286 1_556
As14 S51 2.317312 1_556
As14 S50 2.317332 1_556
As15 S33 2.309072 1_556
As15 S59 2.309953 1_555
As15 S32 2.310130 1_556
As16 S31 2.307503 1_555
As16 S29 2.312533 1_555
As16 S23 2.313973 1_555
As17 S30 2.308396 1_555
As17 S21 2.312297 1_555
As17 S48 2.314237 1_555
As18 As32 2.140840 1_566
As19 As34 2.137187 1_555
As20 S41 2.307606 1_555
As20 S43 2.312632 1_555
As20 S36 2.314299 1_555
As21 S42 2.308080 1_555
As21 S65 2.309618 1_555
As21 S34 2.316878 1_555
As22 S64 2.310238 1_545
As22 S45 2.314273 1_545
As22 S46 2.316694 1_545
As23 As7 2.141582 1_544
As24 As8 2.141582 1_555
As25 As35 2.137187 1_544
As26 S53 2.315053 1_545
As26 S60 2.316756 1_545
As26 S52 2.318345 1_555
As27 S54 2.307555 1_555
As27 S56 2.310575 1_555
As27 S47 2.314527 1_555
As28 S55 2.307375 1_655
As28 S69 2.311150 1_655
As28 S44 2.315151 1_655
As29 S70 2.310238 1_555
As29 S0 2.314273 1_556
As29 S57 2.316694 1_556
As30 S67 2.305489 1_556
As30 S66 2.307402 1_556
As30 S61 2.307832 1_556
As31 S63 2.307375 1_455
As31 S58 2.311150 1_455
As31 S62 2.315151 1_455
As33 S71 2.305489 1_545
As33 S14 2.307402 1_545
As33 S68 2.307832 1_555
