# generated using pymatgen
data_Yb3Sm3S8
_symmetry_space_group_name_H-M   'P 1'
_cell_length_a   7.30713704
_cell_length_b   7.30713704
_cell_length_c   8.38152677
_cell_angle_alpha   55.11635028
_cell_angle_beta   55.11635028
_cell_angle_gamma   70.40034687
_symmetry_Int_Tables_number   1
_chemical_formula_structural   Yb3Sm3S8
_chemical_formula_sum   'Yb3 Sm3 S8'
_cell_volume   301.12410806
_cell_formula_units_Z   1
loop_
 _symmetry_equiv_pos_site_id
 _symmetry_equiv_pos_as_xyz
  1  'x, y, z'
loop_
 _atom_site_type_symbol
 _atom_site_label
 _atom_site_symmetry_multiplicity
 _atom_site_fract_x
 _atom_site_fract_y
 _atom_site_fract_z
 _atom_site_occupancy
  Yb  Yb0  1  0.12462900  0.62242100  0.37747200  1
  Yb  Yb1  1  0.62474800  0.37525200  0.00000000  1
  Yb  Yb2  1  0.37757900  0.87537100  0.62252800  1
  Sm  Sm0  1  0.87594700  0.12405300  0.50000000  1
  Sm  Sm1  1  0.74789600  0.75114200  0.12602100  1
  Sm  Sm2  1  0.24885800  0.25210400  0.87397900  1
  S  S0  1  0.50446400  0.85880700  0.89243800  1
  S  S1  1  0.14119300  0.49553600  0.10756200  1
  S  S2  1  0.85994800  0.99716200  0.24769400  1
  S  S3  1  0.00283800  0.14005200  0.75230600  1
  S  S4  1  0.35349600  0.00813200  0.24556500  1
  S  S5  1  0.64375400  0.49721900  0.60308100  1
  S  S6  1  0.99186800  0.64650400  0.75443500  1
  S  S7  1  0.50278100  0.35624600  0.39691900  1
loop_
_geom_bond_atom_site_label_1
_geom_bond_atom_site_label_2
_geom_bond_distance
_geom_bond_site_symmetry_2
S0 Sm0 2.822933 1_565
S0 Sm2 2.827083 1_565
S0 Yb2 2.828917 1_555
S0 Sm1 2.983066 1_556
S0 Yb1 3.041283 1_556
S0 Yb0 3.080925 1_556
S1 Sm0 2.822933 1_455
S1 Sm1 2.827083 1_455
S1 Yb0 2.828917 1_555
S1 Sm2 2.983066 1_554
S1 Yb1 3.041283 1_555
S1 Yb2 3.080925 1_554
S2 Yb0 2.805052 1_655
S2 Sm0 2.818452 1_565
S2 Sm2 2.837831 1_664
S2 Sm1 2.996949 1_555
S2 Yb1 3.038358 1_565
S2 Yb2 3.053868 1_555
S3 Yb2 2.805052 1_545
S3 Sm0 2.818452 1_455
S3 Sm1 2.837831 1_446
S3 Sm2 2.996949 1_555
S3 Yb1 3.038358 1_456
S3 Yb0 3.053868 1_555
S4 Yb1 2.818984 1_555
S4 Yb2 2.823157 1_545
S4 Sm1 2.838013 1_545
S4 Sm2 2.986829 1_554
S4 Sm0 3.002217 1_455
S4 Yb0 3.073421 1_545
S5 Yb2 2.826968 1_555
S5 Sm2 2.830452 1_555
S5 Yb1 2.836247 1_556
S5 Sm0 2.995762 1_555
S5 Sm1 2.998427 1_555
S5 Yb0 3.055723 1_655
S6 Yb1 2.818984 1_556
S6 Yb0 2.823157 1_655
S6 Sm2 2.838013 1_655
S6 Sm1 2.986829 1_556
S6 Sm0 3.002217 1_565
S6 Yb2 3.073421 1_655
S7 Yb0 2.826968 1_555
S7 Sm1 2.830452 1_555
S7 Yb1 2.836247 1_555
S7 Sm0 2.995762 1_555
S7 Sm2 2.998427 1_555
S7 Yb2 3.055723 1_545
