# generated using pymatgen
data_H5IO6
_symmetry_space_group_name_H-M   'P 1'
_cell_length_a   4.94905300
_cell_length_b   5.52863474
_cell_length_c   18.69340859
_cell_angle_alpha   88.37224753
_cell_angle_beta   89.23364714
_cell_angle_gamma   68.15110480
_symmetry_Int_Tables_number   1
_chemical_formula_structural   H5IO6
_chemical_formula_sum   'H20 I4 O24'
_cell_volume   474.54575461
_cell_formula_units_Z   4
loop_
 _symmetry_equiv_pos_site_id
 _symmetry_equiv_pos_as_xyz
  1  'x, y, z'
loop_
 _atom_site_type_symbol
 _atom_site_label
 _atom_site_symmetry_multiplicity
 _atom_site_fract_x
 _atom_site_fract_y
 _atom_site_fract_z
 _atom_site_occupancy
  H  H0  1  0.26653600  0.03755900  0.48409500  1
  H  H1  1  0.86634500  0.75383900  0.04273500  1
  H  H2  1  0.62120600  0.71444600  0.55784900  1
  H  H3  1  0.32413800  0.37087300  0.99782700  1
  H  H4  1  0.84195600  0.86972600  0.47756500  1
  H  H5  1  0.46558400  0.24206300  0.11004800  1
  H  H6  1  0.05169000  0.23973100  0.61517900  1
  H  H7  1  0.65900000  0.63044600  0.96121100  1
  H  H8  1  0.58903400  0.37302600  0.47170500  1
  H  H9  1  0.94061100  0.15195200  0.95686500  1
  H  H10  1  0.67453200  0.11669100  0.27372500  1
  H  H11  1  0.95031800  0.85860800  0.16802900  1
  H  H12  1  0.45092100  0.85434900  0.69467900  1
  H  H13  1  0.92114900  0.38996000  0.80230400  1
  H  H14  1  0.23921000  0.40660900  0.32971100  1
  H  H15  1  0.52853400  0.90085600  0.86332000  1
  H  H16  1  0.17086400  0.89084500  0.26967100  1
  H  H17  1  0.81619300  0.53335300  0.20432700  1
  H  H18  1  0.74459700  0.08898900  0.70908700  1
  H  H19  1  0.25517600  0.64624600  0.77283300  1
  I  I0  1  0.96108900  0.16361300  0.37885900  1
  I  I1  1  0.43633200  0.71971200  0.11296400  1
  I  I2  1  0.06567600  0.76316800  0.62082500  1
  I  I3  1  0.51465800  0.34508700  0.87323300  1
  O  O0  1  0.27726200  0.13892100  0.44007100  1
  O  O1  1  0.73888600  0.65096400  0.03641600  1
  O  O2  1  0.77867800  0.79691400  0.54609100  1
  O  O3  1  0.23643200  0.37830600  0.94785200  1
  O  O4  1  0.90963300  0.87831600  0.42300000  1
  O  O5  1  0.39065600  0.40682700  0.07772300  1
  O  O6  1  0.05248300  0.09375500  0.58091400  1
  O  O7  1  0.61474000  0.62617900  0.90645300  1
  O  O8  1  0.68524400  0.43574700  0.43313700  1
  O  O9  1  0.14558700  0.91364000  0.05377900  1
  O  O10  1  0.38382700  0.60930100  0.56323600  1
  O  O11  1  0.81687800  0.08411600  0.92863100  1
  O  O12  1  0.63325200  0.23485000  0.31397100  1
  O  O13  1  0.14484800  0.75501200  0.19005900  1
  O  O14  1  0.27636700  0.80534600  0.70609600  1
  O  O15  1  0.75835700  0.33212100  0.79111200  1
  O  O16  1  0.02669700  0.44238100  0.32740200  1
  O  O17  1  0.56019400  0.96625200  0.15038800  1
  O  O18  1  0.04251900  0.46651300  0.65972400  1
  O  O19  1  0.44354300  0.06565700  0.83282200  1
  O  O20  1  0.24072300  0.91959000  0.31791300  1
  O  O21  1  0.70995000  0.45306800  0.17502300  1
  O  O22  1  0.71308300  0.95896600  0.67877300  1
  O  O23  1  0.19385300  0.57013300  0.81954000  1
loop_
_geom_bond_atom_site_label_1
_geom_bond_atom_site_label_2
_geom_bond_distance
_geom_bond_site_symmetry_2
H0 O0 0.994431 1_555
H1 O1 1.004093 1_555
H2 O2 1.057240 1_555
H2 O10 1.493332 1_555
H3 O3 1.028700 1_555
H3 O5 1.567558 1_556
H4 O4 1.074616 1_555
H4 O2 1.398159 1_555
H5 O5 1.027482 1_555
H5 O17 1.589268 1_545
H6 O6 1.043342 1_555
H6 O18 1.511090 1_555
H7 O7 1.052396 1_555
H7 O1 1.484206 1_556
H8 O8 0.982987 1_555
H9 O11 0.992489 1_555
H10 O12 0.979267 1_555
H11 O13 1.005624 1_655
H12 O14 1.015488 1_555
H12 O22 1.626285 1_555
H13 O15 0.997592 1_555
H14 O16 0.996513 1_555
H15 O19 1.011805 1_565
H15 O7 1.611105 1_555
H16 O20 1.007683 1_555
H17 O21 0.984273 1_555
H18 O22 0.985466 1_545
H19 O23 1.048142 1_555
H19 O14 1.530976 1_555
I0 O4 1.858228 1_545
I0 O0 1.912187 1_655
I0 O8 1.917728 1_555
I0 O16 1.919872 1_655
I0 O20 1.920619 1_645
I0 O12 1.951604 1_555
I1 O9 1.808576 1_555
I1 O17 1.846777 1_555
I1 O21 1.952370 1_555
I1 O5 1.958868 1_555
I1 O13 1.986675 1_555
I1 O1 1.996024 1_555
I2 O18 1.817066 1_555
I2 O10 1.836162 1_555
I2 O6 1.932968 1_565
I2 O2 1.960864 1_455
I2 O14 1.982185 1_555
I2 O22 2.000078 1_455
I3 O19 1.886599 1_555
I3 O23 1.891439 1_555
I3 O3 1.910597 1_555
I3 O7 1.918865 1_555
I3 O15 1.925808 1_555
I3 O11 1.934308 1_555
