# generated using pymatgen
data_Sn3(HO2)2
_symmetry_space_group_name_H-M   'P 1'
_cell_length_a   7.92396980
_cell_length_b   7.92396980
_cell_length_c   9.07826490
_cell_angle_alpha   90.00000000
_cell_angle_beta   90.00000000
_cell_angle_gamma   90.00000000
_symmetry_Int_Tables_number   1
_chemical_formula_structural   Sn3(HO2)2
_chemical_formula_sum   'Sn12 H8 O16'
_cell_volume   570.01787460
_cell_formula_units_Z   4
loop_
 _symmetry_equiv_pos_site_id
 _symmetry_equiv_pos_as_xyz
  1  'x, y, z'
loop_
 _atom_site_type_symbol
 _atom_site_label
 _atom_site_symmetry_multiplicity
 _atom_site_fract_x
 _atom_site_fract_y
 _atom_site_fract_z
 _atom_site_occupancy
  Sn  Sn0  1  0.79518148  0.61895110  0.50292877  1
  Sn  Sn1  1  0.29518148  0.88104890  0.99707123  1
  Sn  Sn2  1  0.20481852  0.38104890  0.50292877  1
  Sn  Sn3  1  0.70481852  0.11895110  0.99707123  1
  Sn  Sn4  1  0.61895110  0.20481852  0.49707123  1
  Sn  Sn5  1  0.88104890  0.70481852  0.00292877  1
  Sn  Sn6  1  0.38104890  0.79518148  0.49707123  1
  Sn  Sn7  1  0.11895110  0.29518148  0.00292877  1
  Sn  Sn8  1  0.50000000  0.50000000  0.77722733  1
  Sn  Sn9  1  -0.00000000  -0.00000000  0.72277267  1
  Sn  Sn10  1  0.50000000  0.50000000  0.22277267  1
  Sn  Sn11  1  -0.00000000  -0.00000000  0.27722733  1
  H  H0  1  0.66087011  0.82412987  0.73745358  1
  H  H1  1  0.16087011  0.67587013  0.76254642  1
  H  H2  1  0.33912989  0.17587013  0.73745358  1
  H  H3  1  0.83912989  0.32412987  0.76254642  1
  H  H4  1  0.82412987  0.33912989  0.26254642  1
  H  H5  1  0.67587013  0.83912989  0.23745358  1
  H  H6  1  0.17587013  0.66087011  0.26254642  1
  H  H7  1  0.32412987  0.16087011  0.23745358  1
  O  O0  1  0.60961192  0.74522987  0.66734997  1
  O  O1  1  0.10961192  0.75477013  0.83265003  1
  O  O2  1  0.39038808  0.25477013  0.66734997  1
  O  O3  1  0.89038808  0.24522987  0.83265003  1
  O  O4  1  0.74522987  0.39038808  0.33265003  1
  O  O5  1  0.75477013  0.89038808  0.16734997  1
  O  O6  1  0.25477013  0.60961192  0.33265003  1
  O  O7  1  0.24522987  0.10961192  0.16734997  1
  O  O8  1  0.68399186  0.41945583  0.62205216  1
  O  O9  1  0.18399186  0.08054417  0.87794784  1
  O  O10  1  0.31600814  0.58054417  0.62205216  1
  O  O11  1  0.81600814  0.91945583  0.87794784  1
  O  O12  1  0.41945583  0.31600814  0.37794784  1
  O  O13  1  0.08054417  0.81600814  0.12205216  1
  O  O14  1  0.58054417  0.68399186  0.37794784  1
  O  O15  1  0.91945583  0.18399186  0.12205216  1
loop_
_geom_bond_atom_site_label_1
_geom_bond_atom_site_label_2
_geom_bond_distance
_geom_bond_site_symmetry_2
H0 O0 0.980244 1_555
H1 O1 0.980244 1_555
H2 O2 0.980244 1_555
H3 O3 0.980244 1_555
H4 O4 0.980244 1_555
H5 O5 0.980244 1_555
H6 O6 0.980244 1_555
H7 O7 0.980244 1_555
O0 Sn0 2.321962 1_555
O0 Sn8 2.350617 1_555
O0 Sn6 2.413805 1_555
O1 Sn1 2.321962 1_555
O1 Sn9 2.350617 1_565
O1 Sn5 2.413805 1_456
O2 Sn2 2.321962 1_555
O2 Sn8 2.350617 1_555
O2 Sn4 2.413805 1_555
O3 Sn3 2.321962 1_555
O3 Sn9 2.350617 1_655
O3 Sn7 2.413805 1_656
O4 Sn4 2.321962 1_555
O4 Sn10 2.350617 1_555
O4 Sn0 2.413805 1_555
O5 Sn5 2.321962 1_555
O5 Sn11 2.350617 1_665
O5 Sn3 2.413805 1_564
O6 Sn6 2.321962 1_555
O6 Sn10 2.350617 1_555
O6 Sn2 2.413805 1_555
O7 Sn7 2.321962 1_555
O7 Sn11 2.350617 1_555
O7 Sn1 2.413805 1_544
O8 Sn0 2.108242 1_555
O8 Sn4 2.108461 1_555
O8 Sn8 2.125427 1_555
O9 Sn1 2.108242 1_545
O9 Sn7 2.108461 1_556
O9 Sn9 2.125427 1_555
O10 Sn2 2.108242 1_555
O10 Sn6 2.108461 1_555
O10 Sn8 2.125427 1_555
O11 Sn3 2.108242 1_565
O11 Sn5 2.108461 1_556
O11 Sn9 2.125427 1_665
O12 Sn4 2.108242 1_555
O12 Sn2 2.108461 1_555
O12 Sn10 2.125427 1_555
O13 Sn5 2.108242 1_455
O13 Sn1 2.108461 1_554
O13 Sn11 2.125427 1_565
O14 Sn6 2.108242 1_555
O14 Sn0 2.108461 1_555
O14 Sn10 2.125427 1_555
O15 Sn7 2.108242 1_655
O15 Sn3 2.108461 1_554
O15 Sn11 2.125427 1_655
