# generated using pymatgen
data_KH3C2O3
_symmetry_space_group_name_H-M   'P 1'
_cell_length_a   3.87149000
_cell_length_b   5.70277527
_cell_length_c   10.03190859
_cell_angle_alpha   101.04271098
_cell_angle_beta   90.25248264
_cell_angle_gamma   92.48995791
_symmetry_Int_Tables_number   1
_chemical_formula_structural   KH3C2O3
_chemical_formula_sum   'K2 H6 C4 O6'
_cell_volume   217.16241625
_cell_formula_units_Z   2
loop_
 _symmetry_equiv_pos_site_id
 _symmetry_equiv_pos_as_xyz
  1  'x, y, z'
loop_
 _atom_site_type_symbol
 _atom_site_label
 _atom_site_symmetry_multiplicity
 _atom_site_fract_x
 _atom_site_fract_y
 _atom_site_fract_z
 _atom_site_occupancy
  K  K0  1  0.87560200  0.71075700  0.87552300  1
  K  K1  1  0.12439800  0.28924300  0.12447700  1
  H  H0  1  0.00917500  0.17452100  0.61085000  1
  H  H1  1  0.99082500  0.82547900  0.38915000  1
  H  H2  1  0.16903800  0.46312100  0.58633400  1
  H  H3  1  0.83096200  0.53687900  0.41366600  1
  H  H4  1  0.41960800  0.20456400  0.53300900  1
  H  H5  1  0.58039200  0.79543600  0.46699100  1
  C  C0  1  0.48913900  0.15640500  0.80371300  1
  C  C1  1  0.51086100  0.84359500  0.19628700  1
  C  C2  1  0.24117300  0.29151700  0.61002700  1
  C  C3  1  0.75882700  0.70848300  0.38997300  1
  O  O0  1  0.40575400  0.34983500  0.74233200  1
  O  O1  1  0.59424600  0.65016500  0.25766800  1
  O  O2  1  0.39304500  0.94859700  0.74602500  1
  O  O3  1  0.60695500  0.05140300  0.25397500  1
  O  O4  1  0.65812200  0.22410800  0.91421400  1
  O  O5  1  0.34187800  0.77589200  0.08578600  1
loop_
_geom_bond_atom_site_label_1
_geom_bond_atom_site_label_2
_geom_bond_distance
_geom_bond_site_symmetry_2
K0 O5 2.730202 1_656
K0 O2 2.809161 1_555
K0 O0 2.816076 1_555
K0 O2 2.828841 1_655
K0 O5 2.943105 1_556
K0 O4 2.962109 1_555
K0 O4 3.035084 1_565
K0 O0 3.093883 1_655
K1 O4 2.730202 1_454
K1 O3 2.809161 1_555
K1 O1 2.816076 1_555
K1 O3 2.828841 1_455
K1 O4 2.943105 1_554
K1 O5 2.962109 1_555
K1 O5 3.035084 1_545
K1 O1 3.093883 1_455
C0 O2 1.254913 1_545
C0 O4 1.270284 1_555
C0 O0 1.410527 1_555
C1 O3 1.254913 1_565
C1 O5 1.270284 1_555
C1 O1 1.410527 1_555
C2 H0 1.096383 1_555
C2 H2 1.097474 1_555
C2 H4 1.098988 1_555
C2 O0 1.443358 1_555
C3 H1 1.096383 1_555
C3 H3 1.097474 1_555
C3 H5 1.098988 1_555
C3 O1 1.443358 1_555
