# generated using pymatgen
data_BaEuFe2O5
_symmetry_space_group_name_H-M   'P 1'
_cell_length_a   3.97308729
_cell_length_b   3.99225787
_cell_length_c   7.74381045
_cell_angle_alpha   89.85973217
_cell_angle_beta   89.82824116
_cell_angle_gamma   89.67442042
_symmetry_Int_Tables_number   1
_chemical_formula_structural   BaEuFe2O5
_chemical_formula_sum   'Ba1 Eu1 Fe2 O5'
_cell_volume   122.82624069
_cell_formula_units_Z   1
loop_
 _symmetry_equiv_pos_site_id
 _symmetry_equiv_pos_as_xyz
  1  'x, y, z'
loop_
 _atom_site_type_symbol
 _atom_site_label
 _atom_site_symmetry_multiplicity
 _atom_site_fract_x
 _atom_site_fract_y
 _atom_site_fract_z
 _atom_site_occupancy
  Ba  Ba0  1  0.00065500  0.00081900  0.98901900  1
  Eu  Eu0  1  0.99954100  0.99942700  0.50324200  1
  Fe  Fe0  1  0.50067800  0.50048600  0.24982400  1
  Fe  Fe1  1  0.50018500  0.49999300  0.73807100  1
  O  O0  1  0.50000800  0.00099900  0.70160700  1
  O  O1  1  0.49978800  0.99927100  0.30466900  1
  O  O2  1  0.00131900  0.50009300  0.70202900  1
  O  O3  1  0.99915600  0.49975600  0.30483500  1
  O  O4  1  0.49866900  0.49915600  0.00670400  1
loop_
_geom_bond_atom_site_label_1
_geom_bond_atom_site_label_2
_geom_bond_distance
_geom_bond_site_symmetry_2
Ba0 O4 2.810720 1_546
Ba0 O4 2.812329 1_456
Ba0 O4 2.817728 1_556
Ba0 O4 2.837255 1_446
Ba0 O0 2.977123 1_555
Ba0 O2 2.981670 1_555
Ba0 O0 2.989427 1_455
Ba0 O2 2.992795 1_545
Ba0 O1 3.147342 1_446
Ba0 O1 3.152195 1_546
Ba0 O3 3.155737 1_446
Ba0 O3 3.157899 1_456
Eu0 O0 2.506045 1_565
Eu0 O1 2.509279 1_655
Eu0 O1 2.515023 1_555
Eu0 O2 2.515653 1_655
Eu0 O0 2.516322 1_665
Eu0 O3 2.517010 1_565
Eu0 O3 2.520903 1_555
Eu0 O2 2.525896 1_665
Fe0 O4 1.882737 1_555
Fe0 O3 2.027026 1_555
Fe0 O3 2.036386 1_455
Fe0 O1 2.037064 1_555
Fe0 O1 2.044559 1_545
Fe1 O2 2.002419 1_555
Fe1 O2 2.009689 1_655
Fe1 O0 2.012714 1_555
Fe1 O0 2.019290 1_565
Fe1 O4 2.080228 1_556
