# generated using pymatgen
data_VCo3
_symmetry_space_group_name_H-M   'P 1'
_cell_length_a   7.94058943
_cell_length_b   7.94058943
_cell_length_c   9.48483300
_cell_angle_alpha   90.00000000
_cell_angle_beta   90.00000000
_cell_angle_gamma   119.99999523
_symmetry_Int_Tables_number   1
_chemical_formula_structural   VCo3
_chemical_formula_sum   'V6 Co18'
_cell_volume   517.92374642
_cell_formula_units_Z   6
loop_
 _symmetry_equiv_pos_site_id
 _symmetry_equiv_pos_as_xyz
  1  'x, y, z'
loop_
 _atom_site_type_symbol
 _atom_site_label
 _atom_site_symmetry_multiplicity
 _atom_site_fract_x
 _atom_site_fract_y
 _atom_site_fract_z
 _atom_site_occupancy
  V  V0  1  0.66666700  0.33333300  0.36687300  1
  V  V1  1  0.33333300  0.66666700  0.63312700  1
  V  V2  1  0.00000000  0.00000000  0.69996200  1
  V  V3  1  0.66666700  0.33333300  0.63312700  1
  V  V4  1  0.00000000  0.00000000  0.30003800  1
  V  V5  1  0.33333300  0.66666700  0.36687300  1
  Co  Co0  1  0.50000000  0.50000000  0.70979300  1
  Co  Co1  1  0.33621800  0.16810900  0.38056000  1
  Co  Co2  1  0.83189100  0.16810900  0.38056000  1
  Co  Co3  1  0.50000000  0.00000000  0.29020700  1
  Co  Co4  1  0.83189100  0.16810900  0.61944000  1
  Co  Co5  1  0.33621800  0.16810900  0.61944000  1
  Co  Co6  1  0.16810900  0.33621800  0.38056000  1
  Co  Co7  1  0.83189100  0.66378200  0.38056000  1
  Co  Co8  1  0.50000000  0.50000000  0.29020700  1
  Co  Co9  1  0.66378200  0.83189100  0.61944000  1
  Co  Co10  1  0.66378200  0.83189100  0.38056000  1
  Co  Co11  1  0.50000000  0.00000000  0.70979300  1
  Co  Co12  1  0.16810900  0.83189100  0.61944000  1
  Co  Co13  1  0.16810900  0.83189100  0.38056000  1
  Co  Co14  1  0.16810900  0.33621800  0.61944000  1
  Co  Co15  1  0.83189100  0.66378200  0.61944000  1
  Co  Co16  1  0.00000000  0.50000000  0.70979300  1
  Co  Co17  1  0.00000000  0.50000000  0.29020700  1
loop_
_geom_bond_atom_site_label_1
_geom_bond_atom_site_label_2
_geom_bond_distance
_geom_bond_site_symmetry_2
V0 V3 2.525375 1_555
V1 V5 2.525375 1_555
Co0 V3 2.404829 1_555
Co0 V1 2.404829 1_555
Co0 Co5 2.437982 1_555
Co0 Co14 2.437982 1_555
Co0 Co9 2.437982 1_555
Co0 Co15 2.437982 1_555
Co1 Co5 2.265737 1_555
Co1 V0 2.276121 1_555
Co1 Co6 2.312088 1_555
Co1 Co13 2.312088 1_545
Co1 V4 2.434963 1_555
Co1 Co3 2.437982 1_555
Co1 Co8 2.437982 1_555
Co2 Co4 2.265737 1_555
Co2 V0 2.276114 1_555
Co2 Co6 2.312088 1_655
Co2 V4 2.434963 1_655
Co2 Co3 2.437982 1_555
Co3 V5 2.404822 1_545
Co3 V0 2.404822 1_555
Co4 V3 2.276114 1_555
Co4 Co9 2.312088 1_545
Co4 V2 2.434963 1_655
Co5 V3 2.276121 1_555
Co5 V2 2.434963 1_555
Co6 V5 2.276121 1_555
Co6 V4 2.434963 1_555
Co6 Co8 2.437982 1_555
Co7 V0 2.276121 1_555
Co7 V4 2.434963 1_665
Co7 Co8 2.437982 1_555
Co8 V0 2.404829 1_555
Co8 V5 2.404829 1_555
Co9 V1 2.276121 1_555
Co9 V2 2.434963 1_665
Co10 Co9 2.265737 1_555
Co10 V5 2.276121 1_555
Co10 Co7 2.312088 1_555
Co10 Co2 2.312088 1_565
Co10 V4 2.434963 1_665
Co10 Co3 2.437982 1_565
Co10 Co8 2.437982 1_555
Co11 V3 2.404822 1_555
Co11 V1 2.404822 1_545
Co11 Co9 2.437982 1_545
Co11 Co5 2.437982 1_555
Co11 Co12 2.437982 1_545
Co11 Co4 2.437982 1_555
Co12 Co13 2.265737 1_555
Co12 V1 2.276114 1_555
Co12 Co5 2.312088 1_565
Co12 Co15 2.312088 1_455
Co12 V2 2.434963 1_565
Co12 Co16 2.437982 1_555
Co13 V5 2.276114 1_555
Co13 Co7 2.312088 1_455
Co13 V4 2.434963 1_565
Co13 Co3 2.437982 1_565
Co13 Co17 2.437982 1_555
Co14 Co6 2.265737 1_555
Co14 V1 2.276121 1_555
Co14 Co5 2.312088 1_555
Co14 Co4 2.312088 1_455
Co14 V2 2.434963 1_555
Co14 Co16 2.437982 1_555
Co15 Co7 2.265737 1_555
Co15 V3 2.276121 1_555
Co15 Co9 2.312088 1_555
Co15 V2 2.434963 1_665
Co15 Co16 2.437982 1_655
Co16 V3 2.404822 1_455
Co16 V1 2.404822 1_555
Co16 Co4 2.437982 1_455
Co17 V0 2.404822 1_455
Co17 V5 2.404822 1_555
Co17 Co7 2.437982 1_455
Co17 Co6 2.437982 1_555
Co17 Co2 2.437982 1_455
