# generated using pymatgen
data_PbWO4
_symmetry_space_group_name_H-M   'P 1'
_cell_length_a   6.95760485
_cell_length_b   6.95760485
_cell_length_c   5.13355073
_cell_angle_alpha   71.14117746
_cell_angle_beta   71.14117746
_cell_angle_gamma   115.27251308
_symmetry_Int_Tables_number   1
_chemical_formula_structural   PbWO4
_chemical_formula_sum   'Pb2 W2 O8'
_cell_volume   179.12440325
_cell_formula_units_Z   2
loop_
 _symmetry_equiv_pos_site_id
 _symmetry_equiv_pos_as_xyz
  1  'x, y, z'
loop_
 _atom_site_type_symbol
 _atom_site_label
 _atom_site_symmetry_multiplicity
 _atom_site_fract_x
 _atom_site_fract_y
 _atom_site_fract_z
 _atom_site_occupancy
  Pb  Pb0  1  0.86291400  0.13708600  0.25000000  1
  Pb  Pb1  1  0.13708600  0.86291400  0.75000000  1
  W  W0  1  0.40349400  0.59650600  0.25000000  1
  W  W1  1  0.59650600  0.40349400  0.75000000  1
  O  O0  1  0.44890300  0.84862900  0.32276800  1
  O  O1  1  0.32448500  0.25932300  0.17906900  1
  O  O2  1  0.67551500  0.74067700  0.82093100  1
  O  O3  1  0.15137100  0.55109700  0.17723200  1
  O  O4  1  0.25932300  0.32448500  0.67906900  1
  O  O5  1  0.55109700  0.15137100  0.67723200  1
  O  O6  1  0.84862900  0.44890300  0.82276800  1
  O  O7  1  0.74067700  0.67551500  0.32093100  1
loop_
_geom_bond_atom_site_label_1
_geom_bond_atom_site_label_2
_geom_bond_distance
_geom_bond_site_symmetry_2
O0 W0 1.828441 1_555
O0 Pb0 2.519600 1_565
O0 Pb1 2.603035 1_555
O1 W1 1.922365 1_554
O1 W0 2.349241 1_555
O1 Pb1 2.670255 1_545
O1 Pb0 2.807300 1_455
O2 W0 1.922365 1_556
O2 W1 2.349241 1_555
O2 Pb0 2.670255 1_565
O2 Pb1 2.807300 1_655
O3 W0 1.828441 1_555
O3 Pb0 2.519600 1_455
O3 Pb1 2.603035 1_554
O4 W0 1.922365 1_555
O4 W1 2.349241 1_555
O4 Pb0 2.670255 1_456
O4 Pb1 2.807300 1_545
O5 W1 1.828441 1_555
O5 Pb1 2.519600 1_545
O5 Pb0 2.603035 1_555
O6 W1 1.828441 1_555
O6 Pb1 2.519600 1_655
O6 Pb0 2.603035 1_556
O7 W1 1.922365 1_555
O7 W0 2.349241 1_555
O7 Pb1 2.670255 1_654
O7 Pb0 2.807300 1_565
