# generated using pymatgen
data_LiH2SNO3
_symmetry_space_group_name_H-M   'P 1'
_cell_length_a   5.18418400
_cell_length_b   8.60245200
_cell_length_c   16.95780000
_cell_angle_alpha   90.00000000
_cell_angle_beta   90.00000000
_cell_angle_gamma   90.00000000
_symmetry_Int_Tables_number   1
_chemical_formula_structural   LiH2SNO3
_chemical_formula_sum   'Li8 H16 S8 N8 O24'
_cell_volume   756.26181784
_cell_formula_units_Z   8
loop_
 _symmetry_equiv_pos_site_id
 _symmetry_equiv_pos_as_xyz
  1  'x, y, z'
loop_
 _atom_site_type_symbol
 _atom_site_label
 _atom_site_symmetry_multiplicity
 _atom_site_fract_x
 _atom_site_fract_y
 _atom_site_fract_z
 _atom_site_occupancy
  Li  Li0  1  0.44953300  0.27522600  0.40290400  1
  Li  Li1  1  0.55046700  0.77522600  0.59709600  1
  Li  Li2  1  0.44953300  0.77522600  0.09709600  1
  Li  Li3  1  0.55046700  0.27522600  0.90290400  1
  Li  Li4  1  0.95863500  0.47164200  0.34770300  1
  Li  Li5  1  0.04136500  0.97164200  0.65229700  1
  Li  Li6  1  0.95863500  0.97164200  0.15229700  1
  Li  Li7  1  0.04136500  0.47164200  0.84770300  1
  H  H0  1  0.20079000  0.93611100  0.38398500  1
  H  H1  1  0.79921000  0.43611100  0.61601500  1
  H  H2  1  0.20079000  0.43611100  0.11601500  1
  H  H3  1  0.79921000  0.93611100  0.88398500  1
  H  H4  1  0.48581200  0.72365300  0.29784900  1
  H  H5  1  0.51418800  0.22365300  0.70215100  1
  H  H6  1  0.48581200  0.22365300  0.20215100  1
  H  H7  1  0.51418800  0.72365300  0.79784900  1
  H  H8  1  0.86077800  0.06510500  0.51447000  1
  H  H9  1  0.13922200  0.56510500  0.48553000  1
  H  H10  1  0.86077800  0.56510500  0.98553000  1
  H  H11  1  0.13922200  0.06510500  0.01447000  1
  H  H12  1  0.88701900  0.89328300  0.38536600  1
  H  H13  1  0.11298100  0.39328300  0.61463400  1
  H  H14  1  0.88701900  0.39328300  0.11463400  1
  H  H15  1  0.11298100  0.89328300  0.88536600  1
  S  S0  1  0.48515100  0.63758000  0.41543100  1
  S  S1  1  0.51484900  0.13758000  0.58456900  1
  S  S2  1  0.48515100  0.13758000  0.08456900  1
  S  S3  1  0.51484900  0.63758000  0.91543100  1
  S  S4  1  0.95014800  0.12138000  0.33006200  1
  S  S5  1  0.04985200  0.62138000  0.66993800  1
  S  S6  1  0.95014800  0.62138000  0.16993800  1
  S  S7  1  0.04985200  0.12138000  0.83006200  1
  N  N0  1  0.49768700  0.76649000  0.35439500  1
  N  N1  1  0.50231300  0.26649000  0.64560500  1
  N  N2  1  0.49768700  0.26649000  0.14560500  1
  N  N3  1  0.50231300  0.76649000  0.85439500  1
  N  N4  1  0.01821100  0.98150800  0.39460100  1
  N  N5  1  0.98178900  0.48150800  0.60539900  1
  N  N6  1  0.01821100  0.48150800  0.10539900  1
  N  N7  1  0.98178900  0.98150800  0.89460100  1
  O  O0  1  0.17597200  0.58657000  0.42927300  1
  O  O1  1  0.82402800  0.08657000  0.57072700  1
  O  O2  1  0.17597200  0.08657000  0.07072700  1
  O  O3  1  0.82402800  0.58657000  0.92927300  1
  O  O4  1  0.56447500  0.69240100  0.49278900  1
  O  O5  1  0.43552500  0.19240100  0.50721100  1
  O  O6  1  0.56447500  0.19240100  0.00721100  1
  O  O7  1  0.43552500  0.69240100  0.99278900  1
  O  O8  1  0.60326700  0.48643300  0.39238800  1
  O  O9  1  0.39673300  0.98643300  0.60761200  1
  O  O10  1  0.60326700  0.98643300  0.10761200  1
  O  O11  1  0.39673300  0.48643300  0.89238800  1
  O  O12  1  0.67418000  0.15018300  0.33957800  1
  O  O13  1  0.32582000  0.65018300  0.66042200  1
  O  O14  1  0.67418000  0.65018300  0.16042200  1
  O  O15  1  0.32582000  0.15018300  0.83957800  1
  O  O16  1  0.10596700  0.25715500  0.35536300  1
  O  O17  1  0.89403300  0.75715500  0.64463700  1
  O  O18  1  0.10596700  0.75715500  0.14463700  1
  O  O19  1  0.89403300  0.25715500  0.85536300  1
  O  O20  1  0.01982600  0.07237900  0.25020100  1
  O  O21  1  0.98017400  0.57237900  0.74979900  1
  O  O22  1  0.01982600  0.57237900  0.24979900  1
  O  O23  1  0.98017400  0.07237900  0.75020100  1
loop_
_geom_bond_atom_site_label_1
_geom_bond_atom_site_label_2
_geom_bond_distance
_geom_bond_site_symmetry_2
Li0 O5 1.908309 1_555
Li0 O12 1.914836 1_555
Li0 O16 1.961239 1_555
Li0 O8 1.992010 1_555
Li1 O4 1.908309 1_555
Li1 O13 1.914836 1_555
Li1 O17 1.961239 1_555
Li1 O9 1.992010 1_555
Li2 O7 1.908309 1_554
Li2 O14 1.914836 1_555
Li2 O18 1.961239 1_555
Li2 O10 1.992010 1_555
Li3 O6 1.908309 1_556
Li3 O15 1.914836 1_555
Li3 O19 1.961239 1_555
Li3 O11 1.992010 1_555
Li4 O22 1.899470 1_655
Li4 O8 1.996104 1_555
Li4 O16 2.001176 1_655
Li4 O0 2.039685 1_655
Li5 O23 1.899470 1_465
Li5 O9 1.996104 1_555
Li5 O17 2.001176 1_455
Li5 O1 2.039685 1_465
Li6 O20 1.899470 1_665
Li6 O10 1.996104 1_555
Li6 O18 2.001176 1_655
Li6 O2 2.039685 1_665
Li7 O21 1.899470 1_455
Li7 O11 1.996104 1_555
Li7 O19 2.001176 1_455
Li7 O3 2.039685 1_455
H0 N4 1.039627 1_555
H1 N5 1.039627 1_555
H2 N6 1.039627 1_555
H3 N7 1.039627 1_555
H4 N0 1.029109 1_555
H5 N1 1.029109 1_555
H6 N2 1.029109 1_555
H7 N3 1.029109 1_555
H8 O1 0.990202 1_555
H9 O0 0.990202 1_555
H10 O3 0.990202 1_555
H11 O2 0.990202 1_555
H12 N4 1.031068 1_655
H13 N5 1.031068 1_455
H14 N6 1.031068 1_655
H15 N7 1.031068 1_455
N0 S0 1.518314 1_555
N1 S1 1.518314 1_555
N2 S2 1.518314 1_555
N3 S3 1.518314 1_555
N4 S4 1.664360 1_465
N5 S5 1.664360 1_655
N6 S6 1.664360 1_455
N7 S7 1.664360 1_665
O0 S0 1.678318 1_555
O1 S1 1.678318 1_555
O2 S2 1.678318 1_555
O3 S3 1.678318 1_555
O4 S0 1.453406 1_555
O5 S1 1.453406 1_555
O6 S2 1.453406 1_555
O7 S3 1.453406 1_555
O8 S0 1.489381 1_555
O9 S1 1.489381 1_565
O10 S2 1.489381 1_565
O11 S3 1.489381 1_555
O12 S4 1.460906 1_555
O13 S5 1.460906 1_555
O14 S6 1.460906 1_555
O15 S7 1.460906 1_555
O16 S4 1.483521 1_455
O17 S5 1.483521 1_655
O18 S6 1.483521 1_455
O19 S7 1.483521 1_655
O20 S4 1.463628 1_455
O21 S5 1.463628 1_655
O22 S6 1.463628 1_455
O23 S7 1.463628 1_655
