# generated using pymatgen
data_BaV6O11
_symmetry_space_group_name_H-M   'P 1'
_cell_length_a   5.95874800
_cell_length_b   5.95874800
_cell_length_c   13.54160700
_cell_angle_alpha   90.00000000
_cell_angle_beta   90.00000000
_cell_angle_gamma   120.33963673
_symmetry_Int_Tables_number   1
_chemical_formula_structural   BaV6O11
_chemical_formula_sum   'Ba2 V12 O22'
_cell_volume   414.96775121
_cell_formula_units_Z   2
loop_
 _symmetry_equiv_pos_site_id
 _symmetry_equiv_pos_as_xyz
  1  'x, y, z'
loop_
 _atom_site_type_symbol
 _atom_site_label
 _atom_site_symmetry_multiplicity
 _atom_site_fract_x
 _atom_site_fract_y
 _atom_site_fract_z
 _atom_site_occupancy
  Ba  Ba0  1  0.67011100  0.32988900  0.75000000  1
  Ba  Ba1  1  0.32988900  0.67011100  0.25000000  1
  V  V0  1  0.66552900  0.33447100  0.25000000  1
  V  V1  1  0.33447100  0.66552900  0.75000000  1
  V  V2  1  0.00369700  0.99630300  0.64665100  1
  V  V3  1  0.99630300  0.00369700  0.14665100  1
  V  V4  1  0.00369700  0.99630300  0.85334900  1
  V  V5  1  0.99630300  0.00369700  0.35334900  1
  V  V6  1  0.50000000  0.00000000  0.00000000  1
  V  V7  1  0.50000000  0.50000000  0.50000000  1
  V  V8  1  0.00000000  0.50000000  0.50000000  1
  V  V9  1  0.00000000  0.50000000  0.00000000  1
  V  V10  1  0.50000000  0.50000000  0.00000000  1
  V  V11  1  0.50000000  0.00000000  0.50000000  1
  O  O0  1  0.67274700  0.32725300  0.08385600  1
  O  O1  1  0.32725300  0.67274700  0.58385600  1
  O  O2  1  0.67274700  0.32725300  0.41614400  1
  O  O3  1  0.32725300  0.67274700  0.91614400  1
  O  O4  1  0.85034700  0.70726200  0.25000000  1
  O  O5  1  0.15238200  0.84761800  0.75000000  1
  O  O6  1  0.70726200  0.85034700  0.75000000  1
  O  O7  1  0.29273800  0.14965300  0.25000000  1
  O  O8  1  0.84761800  0.15238200  0.25000000  1
  O  O9  1  0.14965300  0.29273800  0.75000000  1
  O  O10  1  0.83340800  0.65131700  0.57716000  1
  O  O11  1  0.17474000  0.82526000  0.07588800  1
  O  O12  1  0.65131700  0.83340800  0.07716000  1
  O  O13  1  0.34868300  0.16659200  0.57716000  1
  O  O14  1  0.16659200  0.34868300  0.42284000  1
  O  O15  1  0.82526000  0.17474000  0.92411200  1
  O  O16  1  0.34868300  0.16659200  0.92284000  1
  O  O17  1  0.65131700  0.83340800  0.42284000  1
  O  O18  1  0.17474000  0.82526000  0.42411200  1
  O  O19  1  0.83340800  0.65131700  0.92284000  1
  O  O20  1  0.16659200  0.34868300  0.07716000  1
  O  O21  1  0.82526000  0.17474000  0.57588800  1
loop_
_geom_bond_atom_site_label_1
_geom_bond_atom_site_label_2
_geom_bond_distance
_geom_bond_site_symmetry_2
Ba0 O15 2.851638 1_555
Ba0 O21 2.851638 1_555
Ba0 O16 2.865402 1_555
Ba0 O13 2.865402 1_555
Ba0 O19 2.865402 1_555
Ba0 O10 2.865402 1_555
Ba0 O5 2.969728 1_545
Ba0 O5 2.969728 1_655
Ba0 O9 2.975431 1_655
Ba0 O6 2.975431 1_545
Ba0 O9 2.995556 1_555
Ba0 O6 2.995556 1_555
Ba1 O18 2.851638 1_555
Ba1 O11 2.851638 1_555
Ba1 O20 2.865402 1_555
Ba1 O14 2.865402 1_555
Ba1 O12 2.865402 1_555
Ba1 O17 2.865402 1_555
Ba1 O8 2.969728 1_565
Ba1 O8 2.969728 1_455
Ba1 O7 2.975431 1_565
Ba1 O4 2.975431 1_455
Ba1 O7 2.995556 1_555
Ba1 O4 2.995556 1_555
O0 V9 2.030707 1_655
O0 V6 2.030707 1_555
O0 V10 2.116375 1_555
O0 V0 2.251094 1_555
O1 V8 2.030707 1_555
O1 V11 2.030707 1_565
O1 V7 2.116375 1_555
O1 V1 2.251094 1_555
O2 V11 2.030707 1_555
O2 V8 2.030707 1_655
O2 V7 2.116375 1_555
O2 V0 2.251094 1_555
O3 V6 2.030707 1_566
O3 V9 2.030707 1_556
O3 V10 2.116375 1_556
O3 V1 2.251094 1_555
O4 V0 1.917256 1_555
O4 V3 2.069576 1_565
O4 V5 2.069576 1_565
O5 V1 1.882522 1_555
O5 V4 2.078832 1_555
O5 V2 2.078832 1_555
O6 V1 1.917256 1_555
O6 V4 2.069576 1_655
O6 V2 2.069576 1_655
O7 V0 1.917256 1_555
O7 V3 2.069576 1_455
O7 V5 2.069576 1_455
O8 V0 1.882522 1_555
O8 V5 2.078832 1_555
O8 V3 2.078832 1_555
O9 V1 1.917256 1_555
O9 V2 2.069576 1_545
O9 V4 2.069576 1_545
O10 V8 1.947920 1_655
O10 V2 2.008405 1_655
O10 V7 2.010477 1_555
O11 V9 1.964147 1_555
O11 V6 1.964147 1_565
O11 V3 2.078796 1_465
O12 V6 1.947920 1_565
O12 V3 2.008405 1_565
O12 V10 2.010477 1_555
O13 V11 1.947920 1_555
O13 V2 2.008405 1_545
O13 V7 2.010477 1_555
O14 V8 1.947920 1_555
O14 V5 2.008405 1_455
O14 V7 2.010477 1_555
O15 V9 1.964147 1_656
O15 V6 1.964147 1_556
O15 V4 2.078796 1_645
O16 V6 1.947920 1_556
O16 V4 2.008405 1_545
O16 V10 2.010477 1_556
O17 V11 1.947920 1_565
O17 V5 2.008405 1_565
O17 V7 2.010477 1_555
O18 V11 1.964147 1_565
O18 V8 1.964147 1_555
O18 V5 2.078796 1_465
O19 V9 1.947920 1_656
O19 V4 2.008405 1_655
O19 V10 2.010477 1_556
O20 V9 1.947920 1_555
O20 V3 2.008405 1_455
O20 V10 2.010477 1_555
O21 V11 1.964147 1_555
O21 V8 1.964147 1_655
O21 V2 2.078796 1_645
