# generated using pymatgen
data_Te3WICl6
_symmetry_space_group_name_H-M   'P 1'
_cell_length_a   11.00615500
_cell_length_b   11.85258700
_cell_length_c   12.04067111
_cell_angle_alpha   68.32236933
_cell_angle_beta   90.00000000
_cell_angle_gamma   90.00000000
_symmetry_Int_Tables_number   1
_chemical_formula_structural   Te3WICl6
_chemical_formula_sum   'Te12 W4 I4 Cl24'
_cell_volume   1459.63608565
_cell_formula_units_Z   4
loop_
 _symmetry_equiv_pos_site_id
 _symmetry_equiv_pos_as_xyz
  1  'x, y, z'
loop_
 _atom_site_type_symbol
 _atom_site_label
 _atom_site_symmetry_multiplicity
 _atom_site_fract_x
 _atom_site_fract_y
 _atom_site_fract_z
 _atom_site_occupancy
  Te  Te0  1  0.18843200  0.11190900  0.04375600  1
  Te  Te1  1  0.20971600  0.93974000  0.95193100  1
  Te  Te2  1  0.70971600  0.06026000  0.54806900  1
  Te  Te3  1  0.81156800  0.88809100  0.95624400  1
  Te  Te4  1  0.50992200  0.01121900  0.71809400  1
  Te  Te5  1  0.99007800  0.01121900  0.21809400  1
  Te  Te6  1  0.79028400  0.06026000  0.04806900  1
  Te  Te7  1  0.29028400  0.93974000  0.45193100  1
  Te  Te8  1  0.00992200  0.98878100  0.78190600  1
  Te  Te9  1  0.31156800  0.11190900  0.54375600  1
  Te  Te10  1  0.68843200  0.88809100  0.45624400  1
  Te  Te11  1  0.49007800  0.98878100  0.28190600  1
  W  W0  1  0.00533900  0.63900200  0.71439900  1
  W  W1  1  0.49466100  0.63900200  0.21439900  1
  W  W2  1  0.99466100  0.36099800  0.28560100  1
  W  W3  1  0.50533900  0.36099800  0.78560100  1
  I  I0  1  0.97048400  0.22679800  0.74023600  1
  I  I1  1  0.52951600  0.22679800  0.24023600  1
  I  I2  1  0.02951600  0.77320200  0.25976400  1
  I  I3  1  0.47048400  0.77320200  0.75976400  1
  Cl  Cl0  1  0.61443200  0.55833900  0.10360600  1
  Cl  Cl1  1  0.66991100  0.69079100  0.29640000  1
  Cl  Cl2  1  0.48201300  0.45392300  0.36852400  1
  Cl  Cl3  1  0.00543300  0.16284100  0.43724500  1
  Cl  Cl4  1  0.50543300  0.83715900  0.06275500  1
  Cl  Cl5  1  0.01798700  0.45392300  0.86852400  1
  Cl  Cl6  1  0.33008900  0.30920900  0.70360000  1
  Cl  Cl7  1  0.38556800  0.44166100  0.89639400  1
  Cl  Cl8  1  0.67957700  0.39067400  0.87625400  1
  Cl  Cl9  1  0.83008900  0.69079100  0.79640000  1
  Cl  Cl10  1  0.32042300  0.60932600  0.12374600  1
  Cl  Cl11  1  0.11443200  0.44166100  0.39639400  1
  Cl  Cl12  1  0.17957700  0.60932600  0.62374600  1
  Cl  Cl13  1  0.87850000  0.27427600  0.16788800  1
  Cl  Cl14  1  0.49456700  0.16284100  0.93724500  1
  Cl  Cl15  1  0.88556800  0.55833900  0.60360600  1
  Cl  Cl16  1  0.82042300  0.39067400  0.37625400  1
  Cl  Cl17  1  0.12150000  0.72572400  0.83211200  1
  Cl  Cl18  1  0.51798700  0.54607700  0.63147600  1
  Cl  Cl19  1  0.99456700  0.83715900  0.56275500  1
  Cl  Cl20  1  0.37850000  0.72572400  0.33211200  1
  Cl  Cl21  1  0.62150000  0.27427600  0.66788800  1
  Cl  Cl22  1  0.16991100  0.30920900  0.20360000  1
  Cl  Cl23  1  0.98201300  0.54607700  0.13147600  1
loop_
_geom_bond_atom_site_label_1
_geom_bond_atom_site_label_2
_geom_bond_distance
_geom_bond_site_symmetry_2
Te0 Te1 2.666152 1_544
Te0 Te5 2.957353 1_455
Te1 Te8 2.912951 1_555
Te2 Te4 2.912951 1_555
Te3 Te6 2.666152 1_566
Te3 Te8 2.957353 1_655
Te4 Te9 2.957353 1_555
Te5 Te6 2.912951 1_555
Te7 Te9 2.666152 1_565
Te10 Te2 2.666152 1_565
Te10 Te11 2.957353 1_555
Te11 Te7 2.912951 1_555
I0 Te8 2.711671 1_645
I1 Te11 2.711671 1_545
I2 Te5 2.711671 1_465
I3 Te4 2.711671 1_565
Cl0 W1 2.318104 1_555
Cl1 W1 2.349419 1_555
Cl2 W1 2.295200 1_555
Cl3 W2 2.386642 1_455
Cl4 W1 2.386642 1_555
Cl5 W0 2.295200 1_555
Cl6 W3 2.349419 1_555
Cl7 W3 2.318104 1_555
Cl8 W3 2.297023 1_555
Cl9 W0 2.349419 1_655
Cl10 W1 2.297023 1_555
Cl11 W2 2.318104 1_455
Cl12 W0 2.297023 1_555
Cl13 W2 2.403374 1_555
Cl14 W3 2.386642 1_555
Cl15 W0 2.318104 1_655
Cl16 W2 2.297023 1_555
Cl17 W0 2.403374 1_555
Cl18 W3 2.295200 1_555
Cl19 W0 2.386642 1_655
Cl20 W1 2.403374 1_555
Cl21 W3 2.403374 1_555
Cl22 W2 2.349419 1_455
Cl23 W2 2.295200 1_555
