# generated using pymatgen
data_SrLa7Cu4(SnO6)4
_symmetry_space_group_name_H-M   'P 1'
_cell_length_a   7.89655300
_cell_length_b   7.90199700
_cell_length_c   8.51734146
_cell_angle_alpha   88.72087073
_cell_angle_beta   90.00000000
_cell_angle_gamma   90.00000000
_symmetry_Int_Tables_number   1
_chemical_formula_structural   SrLa7Cu4(SnO6)4
_chemical_formula_sum   'Sr1 La7 Cu4 Sn4 O24'
_cell_volume   531.33721734
_cell_formula_units_Z   1
loop_
 _symmetry_equiv_pos_site_id
 _symmetry_equiv_pos_as_xyz
  1  'x, y, z'
loop_
 _atom_site_type_symbol
 _atom_site_label
 _atom_site_symmetry_multiplicity
 _atom_site_fract_x
 _atom_site_fract_y
 _atom_site_fract_z
 _atom_site_occupancy
  Sr  Sr0  1  0.50000000  0.72420800  0.76662500  1
  La  La0  1  0.50000000  0.71807600  0.20634700  1
  La  La1  1  0.50000000  0.23383800  0.19707100  1
  La  La2  1  0.50000000  0.21175200  0.75629900  1
  La  La3  1  0.00000000  0.78663700  0.24479800  1
  La  La4  1  0.00000000  0.76906100  0.80194100  1
  La  La5  1  0.00000000  0.28210100  0.78749000  1
  La  La6  1  0.00000000  0.27631000  0.23326700  1
  Cu  Cu0  1  0.25019100  0.99987300  0.99830000  1
  Cu  Cu1  1  0.25092200  0.50043600  0.99839800  1
  Cu  Cu2  1  0.74980900  0.99987300  0.99830000  1
  Cu  Cu3  1  0.74907800  0.50043600  0.99839800  1
  Sn  Sn0  1  0.25086700  0.50078800  0.50077000  1
  Sn  Sn1  1  0.25021000  0.99983200  0.50092200  1
  Sn  Sn2  1  0.74979000  0.99983200  0.50092200  1
  Sn  Sn3  1  0.74913300  0.50078800  0.50077000  1
  O  O0  1  0.27954900  0.24959700  0.96290700  1
  O  O1  1  0.29515800  0.75148400  0.42620200  1
  O  O2  1  0.29411700  0.95960900  0.73760800  1
  O  O3  1  0.29982900  0.44468500  0.26805500  1
  O  O4  1  0.50000000  0.97359500  0.03439700  1
  O  O5  1  0.50000000  0.46737900  0.58125100  1
  O  O6  1  0.50000000  0.51903600  0.99034300  1
  O  O7  1  0.50000000  0.07654000  0.46111600  1
  O  O8  1  0.70017100  0.44468500  0.26805500  1
  O  O9  1  0.70588300  0.95960900  0.73760800  1
  O  O10  1  0.70484200  0.75148400  0.42620200  1
  O  O11  1  0.72045100  0.24959700  0.96290700  1
  O  O12  1  0.78247200  0.75040100  0.03897400  1
  O  O13  1  0.79860100  0.24957700  0.56810000  1
  O  O14  1  0.80093600  0.04934900  0.26517300  1
  O  O15  1  0.80767800  0.55070700  0.73264200  1
  O  O16  1  0.00000000  0.92133700  0.53670500  1
  O  O17  1  0.00000000  0.52619400  0.41548100  1
  O  O18  1  0.00000000  0.47169200  0.01835700  1
  O  O19  1  0.00000000  0.02957100  0.97241200  1
  O  O20  1  0.19232200  0.55070700  0.73264200  1
  O  O21  1  0.19906400  0.04934900  0.26517300  1
  O  O22  1  0.20139900  0.24957700  0.56810000  1
  O  O23  1  0.21752800  0.75040100  0.03897400  1
loop_
_geom_bond_atom_site_label_1
_geom_bond_atom_site_label_2
_geom_bond_distance
_geom_bond_site_symmetry_2
La0 O6 2.446982 1_554
La0 O4 2.467734 1_555
La0 O10 2.492944 1_555
La0 O1 2.492944 1_555
La0 O12 2.656430 1_555
La0 O23 2.656430 1_555
La0 O8 2.718655 1_555
La0 O3 2.718655 1_555
La1 O8 2.384309 1_555
La1 O3 2.384309 1_555
La1 O4 2.505175 1_545
La1 O7 2.545190 1_555
La1 O11 2.648143 1_554
La1 O0 2.648143 1_554
La1 O6 2.828785 1_554
La1 O21 2.840959 1_555
La1 O14 2.840959 1_555
La2 O5 2.483688 1_555
La2 O0 2.498008 1_555
La2 O11 2.498008 1_555
La2 O2 2.579227 1_545
La2 O9 2.579227 1_545
La2 O7 2.753648 1_555
La2 O13 2.863074 1_555
La2 O22 2.863074 1_555
La2 O4 2.992177 1_546
La2 O6 3.175819 1_555
La3 O23 2.475527 1_555
La3 O12 2.475527 1_455
La3 O17 2.493051 1_555
La3 O14 2.612795 1_465
La3 O21 2.612795 1_565
La3 O16 2.726287 1_555
La3 O1 2.806702 1_555
La3 O10 2.806702 1_455
La3 O19 2.978035 1_564
La3 O18 3.182403 1_555
La4 O20 2.382722 1_555
La4 O15 2.382722 1_455
La4 O16 2.535762 1_555
La4 O19 2.545438 1_565
La4 O23 2.652346 1_556
La4 O12 2.652346 1_456
La4 O9 2.815071 1_455
La4 O2 2.815071 1_555
La4 O18 2.953970 1_556
La5 O13 2.471532 1_455
La5 O22 2.471532 1_555
La5 O18 2.498518 1_556
La5 O19 2.514443 1_555
La5 O20 2.643003 1_555
La5 O15 2.643003 1_455
La5 O0 2.674709 1_555
La5 O11 2.674709 1_455
La6 O18 2.368136 1_555
La6 O14 2.395718 1_455
La6 O21 2.395718 1_555
La6 O17 2.538589 1_555
La6 O3 2.735183 1_555
La6 O8 2.735183 1_455
La6 O19 2.988513 1_554
La6 O0 3.200289 1_554
La6 O11 3.200289 1_454
La6 O13 3.268061 1_455
La6 O22 3.268061 1_555
Cu0 O19 2.001140 1_565
Cu0 O0 2.003009 1_565
Cu0 O4 2.006505 1_556
Cu0 O23 2.010518 1_556
Cu0 O2 2.276680 1_555
Cu0 O21 2.349951 1_566
Cu1 O6 1.973420 1_555
Cu1 O18 2.001196 1_556
Cu1 O0 2.024368 1_555
Cu1 O23 2.030014 1_556
Cu1 O20 2.335674 1_555
Cu1 O3 2.360755 1_556
Cu2 O19 2.001140 1_665
Cu2 O11 2.003009 1_565
Cu2 O4 2.006505 1_556
Cu2 O12 2.010518 1_556
Cu2 O9 2.276680 1_555
Cu2 O14 2.349951 1_566
Cu3 O6 1.973420 1_555
Cu3 O18 2.001196 1_656
Cu3 O11 2.024368 1_555
Cu3 O12 2.030014 1_556
Cu3 O15 2.335674 1_555
Cu3 O8 2.360755 1_556
O1 Sn0 2.096160 1_555
O1 Sn1 2.106645 1_555
O2 Sn1 2.063158 1_555
O2 Sr0 2.478666 1_555
O3 Sn0 2.077023 1_555
O5 Sn0 2.098033 1_555
O5 Sn3 2.098033 1_555
O5 Sr0 2.598977 1_555
O6 Sr0 2.474156 1_555
O7 Sn2 2.088986 1_545
O7 Sn1 2.088986 1_545
O8 Sn3 2.077023 1_555
O9 Sn2 2.063158 1_555
O9 Sr0 2.478666 1_555
O10 Sn3 2.096160 1_555
O10 Sn2 2.106645 1_555
O13 Sn3 2.090725 1_555
O13 Sn2 2.102618 1_545
O14 Sn2 2.076782 1_545
O15 Sn3 2.074720 1_555
O15 Sr0 2.807861 1_555
O16 Sn1 2.091160 1_555
O16 Sn2 2.091160 1_455
O17 Sn3 2.117971 1_455
O17 Sn0 2.117971 1_555
O20 Sn0 2.074720 1_555
O20 Sr0 2.807861 1_555
O21 Sn1 2.076782 1_545
O22 Sn0 2.090725 1_555
O22 Sn1 2.102618 1_545
