# generated using pymatgen
data_Na3Li3V2F12
_symmetry_space_group_name_H-M   'P 1'
_cell_length_a   10.93392753
_cell_length_b   10.93392753
_cell_length_c   10.93392753
_cell_angle_alpha   109.47122063
_cell_angle_beta   109.47122063
_cell_angle_gamma   109.47122063
_symmetry_Int_Tables_number   1
_chemical_formula_structural   Na3Li3V2F12
_chemical_formula_sum   'Na12 Li12 V8 F48'
_cell_volume   1006.25182693
_cell_formula_units_Z   4
loop_
 _symmetry_equiv_pos_site_id
 _symmetry_equiv_pos_as_xyz
  1  'x, y, z'
loop_
 _atom_site_type_symbol
 _atom_site_label
 _atom_site_symmetry_multiplicity
 _atom_site_fract_x
 _atom_site_fract_y
 _atom_site_fract_z
 _atom_site_occupancy
  Na  Na0  1  0.37500000  0.12500000  0.25000000  1
  Na  Na1  1  0.75000000  0.12500000  0.37500000  1
  Na  Na2  1  0.25000000  0.37500000  0.12500000  1
  Na  Na3  1  0.12500000  0.25000000  0.37500000  1
  Na  Na4  1  0.37500000  0.75000000  0.12500000  1
  Na  Na5  1  0.12500000  0.37500000  0.75000000  1
  Na  Na6  1  0.62500000  0.87500000  0.75000000  1
  Na  Na7  1  0.25000000  0.87500000  0.62500000  1
  Na  Na8  1  0.87500000  0.62500000  0.25000000  1
  Na  Na9  1  0.62500000  0.25000000  0.87500000  1
  Na  Na10  1  0.75000000  0.62500000  0.87500000  1
  Na  Na11  1  0.87500000  0.75000000  0.62500000  1
  Li  Li0  1  0.62500000  0.37500000  0.25000000  1
  Li  Li1  1  0.12500000  0.87500000  0.25000000  1
  Li  Li2  1  0.87500000  0.12500000  0.75000000  1
  Li  Li3  1  0.25000000  0.62500000  0.37500000  1
  Li  Li4  1  0.37500000  0.25000000  0.62500000  1
  Li  Li5  1  0.75000000  0.87500000  0.12500000  1
  Li  Li6  1  0.12500000  0.75000000  0.87500000  1
  Li  Li7  1  0.37500000  0.62500000  0.75000000  1
  Li  Li8  1  0.62500000  0.75000000  0.37500000  1
  Li  Li9  1  0.87500000  0.25000000  0.12500000  1
  Li  Li10  1  0.25000000  0.12500000  0.87500000  1
  Li  Li11  1  0.75000000  0.37500000  0.62500000  1
  V  V0  1  0.00000000  0.00000000  0.00000000  1
  V  V1  1  0.50000000  0.00000000  0.00000000  1
  V  V2  1  0.00000000  0.50000000  0.00000000  1
  V  V3  1  0.00000000  0.00000000  0.50000000  1
  V  V4  1  0.50000000  0.50000000  0.00000000  1
  V  V5  1  0.00000000  0.50000000  0.50000000  1
  V  V6  1  0.50000000  0.00000000  0.50000000  1
  V  V7  1  0.50000000  0.50000000  0.50000000  1
  F  F0  1  0.07764900  0.88282700  0.40224100  1
  F  F1  1  0.69482200  0.67540700  0.07764900  1
  F  F2  1  0.80517800  0.88282700  0.98058500  1
  F  F3  1  0.98058500  0.80517800  0.88282700  1
  F  F4  1  0.82459300  0.51941500  0.40224100  1
  F  F5  1  0.69482200  0.51941500  0.61717300  1
  F  F6  1  0.61717300  0.42235100  0.09775900  1
  F  F7  1  0.61717300  0.69482200  0.51941500  1
  F  F8  1  0.67540700  0.07764900  0.69482200  1
  F  F9  1  0.51941500  0.61717300  0.69482200  1
  F  F10  1  0.09775900  0.98058500  0.67540700  1
  F  F11  1  0.88282700  0.40224100  0.07764900  1
  F  F12  1  0.42235100  0.09775900  0.61717300  1
  F  F13  1  0.40224100  0.82459300  0.51941500  1
  F  F14  1  0.07764900  0.69482200  0.67540700  1
  F  F15  1  0.09775900  0.61717300  0.42235100  1
  F  F16  1  0.51941500  0.40224100  0.82459300  1
  F  F17  1  0.42235100  0.82459300  0.80517800  1
  F  F18  1  0.98058500  0.67540700  0.09775900  1
  F  F19  1  0.82459300  0.80517800  0.42235100  1
  F  F20  1  0.11717300  0.01941500  0.19482200  1
  F  F21  1  0.59775900  0.92235100  0.11717300  1
  F  F22  1  0.19482200  0.57764900  0.17540700  1
  F  F23  1  0.17540700  0.19482200  0.57764900  1
  F  F24  1  0.32459300  0.90224100  0.01941500  1
  F  F25  1  0.01941500  0.32459300  0.90224100  1
  F  F26  1  0.92235100  0.11717300  0.59775900  1
  F  F27  1  0.48058500  0.59775900  0.17540700  1
  F  F28  1  0.90224100  0.38282700  0.57764900  1
  F  F29  1  0.92235100  0.30517800  0.32459300  1
  F  F30  1  0.59775900  0.17540700  0.48058500  1
  F  F31  1  0.57764900  0.90224100  0.38282700  1
  F  F32  1  0.30517800  0.32459300  0.92235100  1
  F  F33  1  0.19482200  0.11717300  0.01941500  1
  F  F34  1  0.01941500  0.19482200  0.11717300  1
  F  F35  1  0.17540700  0.48058500  0.59775900  1
  F  F36  1  0.30517800  0.48058500  0.38282700  1
  F  F37  1  0.38282700  0.57764900  0.90224100  1
  F  F38  1  0.38282700  0.30517800  0.48058500  1
  F  F39  1  0.32459300  0.92235100  0.30517800  1
  F  F40  1  0.48058500  0.38282700  0.30517800  1
  F  F41  1  0.90224100  0.01941500  0.32459300  1
  F  F42  1  0.11717300  0.59775900  0.92235100  1
  F  F43  1  0.57764900  0.17540700  0.19482200  1
  F  F44  1  0.88282700  0.98058500  0.80517800  1
  F  F45  1  0.40224100  0.07764900  0.88282700  1
  F  F46  1  0.80517800  0.42235100  0.82459300  1
  F  F47  1  0.67540700  0.09775900  0.98058500  1
loop_
_geom_bond_atom_site_label_1
_geom_bond_atom_site_label_2
_geom_bond_distance
_geom_bond_site_symmetry_2
F0 Li1 1.885563 1_555
F0 V3 1.980381 1_565
F0 Na8 2.424052 1_455
F0 Na7 2.584070 1_555
F1 Li5 1.885573 1_555
F1 V4 1.980376 1_555
F1 Na10 2.424052 1_554
F1 Na8 2.584062 1_555
F2 Li5 1.885573 1_556
F2 V0 1.980376 1_666
F2 Na10 2.424052 1_555
F2 Na6 2.584062 1_555
F3 Li6 1.885573 1_655
F3 V0 1.980376 1_666
F3 Na11 2.424052 1_555
F3 Na10 2.584062 1_555
F4 Li0 1.885571 1_555
F4 V5 1.980379 1_655
F4 Na8 2.424042 1_555
F4 Na11 2.584068 1_555
F5 Li11 1.885573 1_555
F5 V7 1.980376 1_555
F5 Na10 2.424052 1_555
F5 Na11 2.584062 1_555
F6 Li0 1.885563 1_555
F6 V4 1.980381 1_555
F6 Na8 2.424052 1_555
F6 Na9 2.584070 1_554
F7 Li8 1.885573 1_555
F7 V7 1.980376 1_555
F7 Na11 2.424052 1_555
F7 Na6 2.584062 1_555
F8 Li2 1.885573 1_555
F8 V6 1.980376 1_555
F8 Na6 2.424052 1_545
F8 Na9 2.584062 1_555
F9 Li7 1.885573 1_555
F9 V7 1.980376 1_555
F9 Na6 2.424052 1_555
F9 Na10 2.584062 1_555
F10 Li10 1.885571 1_565
F10 V3 1.980379 1_565
F10 Na7 2.424042 1_555
F10 Na11 2.584068 1_455
F11 Li9 1.885563 1_555
F11 V2 1.980381 1_655
F11 Na9 2.424052 1_554
F11 Na8 2.584070 1_555
F12 Li4 1.885563 1_555
F12 V6 1.980381 1_555
F12 Na9 2.424052 1_555
F12 Na7 2.584070 1_545
F13 Li3 1.885571 1_555
F13 V6 1.980379 1_565
F13 Na7 2.424042 1_555
F13 Na6 2.584068 1_555
F14 Li6 1.885573 1_555
F14 V5 1.980376 1_555
F14 Na11 2.424052 1_455
F14 Na7 2.584062 1_555
F15 Li3 1.885563 1_555
F15 V5 1.980381 1_555
F15 Na7 2.424052 1_555
F15 Na8 2.584070 1_455
F16 Li4 1.885571 1_555
F16 V4 1.980379 1_556
F16 Na9 2.424042 1_555
F16 Na10 2.584068 1_555
F17 Li7 1.885573 1_555
F17 V1 1.980376 1_566
F17 Na6 2.424052 1_555
F17 Na7 2.584062 1_555
F18 Li1 1.885571 1_655
F18 V2 1.980379 1_655
F18 Na8 2.424042 1_555
F18 Na10 2.584068 1_554
F19 Li8 1.885573 1_555
F19 V3 1.980376 1_665
F19 Na11 2.424052 1_555
F19 Na8 2.584062 1_555
F20 Li1 1.885573 1_545
F20 V0 1.980376 1_555
F20 Na0 2.424052 1_555
F20 Na3 2.584062 1_555
F21 Li5 1.885563 1_555
F21 V1 1.980381 1_565
F21 Na1 2.424052 1_565
F21 Na4 2.584070 1_555
F22 Li3 1.885573 1_555
F22 V2 1.980376 1_555
F22 Na2 2.424052 1_555
F22 Na4 2.584062 1_555
F23 Li4 1.885573 1_555
F23 V3 1.980376 1_555
F23 Na3 2.424052 1_555
F23 Na5 2.584062 1_555
F24 Li6 1.885571 1_554
F24 V1 1.980379 1_565
F24 Na4 2.424042 1_555
F24 Na0 2.584068 1_565
F25 Li2 1.885571 1_455
F25 V2 1.980379 1_556
F25 Na5 2.424042 1_555
F25 Na2 2.584068 1_556
F26 Li2 1.885563 1_555
F26 V3 1.980381 1_655
F26 Na5 2.424052 1_655
F26 Na1 2.584070 1_555
F27 Li8 1.885571 1_555
F27 V4 1.980379 1_555
F27 Na4 2.424042 1_555
F27 Na2 2.584068 1_555
F28 Li11 1.885563 1_555
F28 V5 1.980381 1_655
F28 Na1 2.424052 1_555
F28 Na5 2.584070 1_655
F29 Li9 1.885573 1_555
F29 V5 1.980376 1_655
F29 Na3 2.424052 1_655
F29 Na1 2.584062 1_555
F30 Li11 1.885571 1_555
F30 V6 1.980379 1_555
F30 Na1 2.424042 1_555
F30 Na0 2.584068 1_555
F31 Li8 1.885563 1_555
F31 V6 1.980381 1_565
F31 Na4 2.424052 1_555
F31 Na1 2.584070 1_565
F32 Li10 1.885573 1_555
F32 V4 1.980376 1_556
F32 Na2 2.424052 1_556
F32 Na5 2.584062 1_555
F33 Li10 1.885573 1_554
F33 V0 1.980376 1_555
F33 Na2 2.424052 1_555
F33 Na0 2.584062 1_555
F34 Li9 1.885573 1_455
F34 V0 1.980376 1_555
F34 Na3 2.424052 1_555
F34 Na2 2.584062 1_555
F35 Li7 1.885571 1_555
F35 V5 1.980379 1_555
F35 Na5 2.424042 1_555
F35 Na3 2.584068 1_555
F36 Li3 1.885573 1_555
F36 V7 1.980376 1_555
F36 Na2 2.424052 1_555
F36 Na3 2.584062 1_555
F37 Li7 1.885563 1_555
F37 V4 1.980381 1_556
F37 Na5 2.424052 1_555
F37 Na4 2.584070 1_556
F38 Li4 1.885573 1_555
F38 V7 1.980376 1_555
F38 Na3 2.424052 1_555
F38 Na0 2.584062 1_555
F39 Li1 1.885573 1_555
F39 V6 1.980376 1_565
F39 Na0 2.424052 1_565
F39 Na4 2.584062 1_555
F40 Li0 1.885573 1_555
F40 V7 1.980376 1_555
F40 Na0 2.424052 1_555
F40 Na2 2.584062 1_555
F41 Li5 1.885571 1_545
F41 V3 1.980379 1_655
F41 Na1 2.424042 1_555
F41 Na3 2.584068 1_655
F42 Li6 1.885563 1_555
F42 V2 1.980381 1_556
F42 Na4 2.424052 1_556
F42 Na5 2.584070 1_555
F43 Li0 1.885573 1_555
F43 V1 1.980376 1_555
F43 Na0 2.424052 1_555
F43 Na1 2.584062 1_555
F44 Li2 1.885573 1_565
F44 V0 1.980376 1_666
F44 Na6 2.424052 1_555
F44 Na11 2.584062 1_555
F45 Li10 1.885563 1_555
F45 V1 1.980381 1_556
F45 Na7 2.424052 1_545
F45 Na9 2.584070 1_555
F46 Li11 1.885573 1_555
F46 V2 1.980376 1_656
F46 Na10 2.424052 1_555
F46 Na9 2.584062 1_555
F47 Li9 1.885571 1_556
F47 V1 1.980379 1_556
F47 Na9 2.424042 1_555
F47 Na6 2.584068 1_545
