# generated using pymatgen
data_Na3CaAl4Si8ClO24
_symmetry_space_group_name_H-M   'P 1'
_cell_length_a   7.69428000
_cell_length_b   9.41762526
_cell_length_c   9.43722524
_cell_angle_alpha   80.48496334
_cell_angle_beta   65.95014883
_cell_angle_gamma   66.27725831
_symmetry_Int_Tables_number   1
_chemical_formula_structural   Na3CaAl4Si8ClO24
_chemical_formula_sum   'Na3 Ca1 Al4 Si8 Cl1 O24'
_cell_volume   571.70848321
_cell_formula_units_Z   1
loop_
 _symmetry_equiv_pos_site_id
 _symmetry_equiv_pos_as_xyz
  1  'x, y, z'
loop_
 _atom_site_type_symbol
 _atom_site_label
 _atom_site_symmetry_multiplicity
 _atom_site_fract_x
 _atom_site_fract_y
 _atom_site_fract_z
 _atom_site_occupancy
  Na  Na0  1  0.85888400  0.34783800  0.91899800  1
  Na  Na1  1  0.77139800  0.08566600  0.34732400  1
  Na  Na2  1  0.13484800  0.64885100  0.08140500  1
  Ca  Ca0  1  0.21751900  0.91831700  0.64628200  1
  Al  Al0  1  0.86613000  0.42243100  0.25430700  1
  Al  Al1  1  0.54609000  0.57661400  0.74423600  1
  Al  Al2  1  0.28508200  0.25846000  0.57889500  1
  Al  Al3  1  0.12254100  0.74322200  0.42550200  1
  Si  Si0  1  0.66252100  0.74774400  0.93105500  1
  Si  Si1  1  0.87598400  0.24834400  0.57691900  1
  Si  Si2  1  0.71048300  0.75245900  0.42007100  1
  Si  Si3  1  0.58618400  0.07102700  0.75068200  1
  Si  Si4  1  0.41553100  0.92839600  0.25189100  1
  Si  Si5  1  0.45809000  0.41996100  0.24992600  1
  Si  Si6  1  0.12408300  0.58157400  0.75552500  1
  Si  Si7  1  0.33811200  0.25206300  0.07152000  1
  Cl  Cl0  1  0.02847200  0.98713500  0.95928700  1
  O  O0  1  0.90445700  0.64739600  0.90524700  1
  O  O1  1  0.87439700  0.81748000  0.42467600  1
  O  O2  1  0.65063900  0.89419400  0.81233300  1
  O  O3  1  0.82834900  0.60689700  0.30328900  1
  O  O4  1  0.56698200  0.63791400  0.89951500  1
  O  O5  1  0.73871700  0.39389300  0.69456800  1
  O  O6  1  0.86551700  0.28676200  0.40660900  1
  O  O7  1  0.80276900  0.09798700  0.64396600  1
  O  O8  1  0.55642500  0.71648900  0.59097400  1
  O  O9  1  0.55518700  0.90492200  0.35497300  1
  O  O10  1  0.68748800  0.42283700  0.18401200  1
  O  O11  1  0.54443900  0.80659700  0.10965300  1
  O  O12  1  0.46239700  0.19274000  0.89343500  1
  O  O13  1  0.29654700  0.57797000  0.81499200  1
  O  O14  1  0.45116300  0.09736900  0.64690500  1
  O  O15  1  0.43707700  0.29786900  0.39377100  1
  O  O16  1  0.21273000  0.89715200  0.37348400  1
  O  O17  1  0.12505900  0.70920100  0.61422300  1
  O  O18  1  0.27283000  0.58868800  0.29570300  1
  O  O19  1  0.44911300  0.35534200  0.10073200  1
  O  O20  1  0.14784700  0.41555200  0.70702000  1
  O  O21  1  0.35526600  0.10464100  0.18992100  1
  O  O22  1  0.10951500  0.18108500  0.57730400  1
  O  O23  1  0.10314000  0.35891900  0.09886800  1
loop_
_geom_bond_atom_site_label_1
_geom_bond_atom_site_label_2
_geom_bond_distance
_geom_bond_site_symmetry_2
Na0 O10 2.374719 1_556
Na0 O20 2.538852 1_655
Na0 O5 2.549247 1_555
Na0 O4 2.788326 1_555
Na0 O19 2.888007 1_556
Na0 O0 2.955736 1_555
Na0 O23 3.039890 1_656
Na1 O1 2.406536 1_545
Na1 O15 2.457073 1_555
Na1 O6 2.491623 1_555
Na2 O13 2.377347 1_554
Na2 O18 2.534831 1_555
Na2 O3 2.560002 1_455
Na2 O23 2.810091 1_555
Na2 O0 2.887111 1_454
Na2 O19 2.887140 1_555
Na2 O4 3.023815 1_554
Ca0 O22 2.343476 1_565
Ca0 O8 2.432202 1_555
Ca0 O17 2.444548 1_555
Ca0 O16 2.630931 1_555
Ca0 Cl0 2.762914 1_555
Ca0 O9 2.890190 1_555
Ca0 O14 2.919980 1_565
Ca0 O7 2.957570 1_465
Al0 O3 1.750939 1_555
Al0 O23 1.751356 1_655
Al0 O10 1.751443 1_555
Al0 O6 1.757988 1_555
Al1 O5 1.739494 1_555
Al1 O4 1.747249 1_555
Al1 O13 1.752355 1_555
Al1 O8 1.787229 1_555
Al2 O15 1.739892 1_555
Al2 O20 1.749156 1_555
Al2 O14 1.770074 1_555
Al2 O22 1.779951 1_555
Al3 O18 1.742541 1_555
Al3 O1 1.752280 1_455
Al3 O17 1.763370 1_555
Al3 O16 1.766503 1_555
Cl0 Na2 3.099107 1_556
Cl0 Na0 3.130083 1_465
O0 Si0 1.645827 1_555
O0 Si6 1.654369 1_655
O1 Si2 1.625531 1_555
O2 Si3 1.614974 1_565
O2 Si0 1.623895 1_555
O3 Si2 1.612710 1_555
O4 Si0 1.609579 1_555
O5 Si1 1.615431 1_555
O6 Si1 1.615691 1_555
O7 Si3 1.656447 1_555
O7 Si1 1.666696 1_555
O8 Si2 1.644791 1_555
O9 Si4 1.655193 1_555
O9 Si2 1.671237 1_555
O10 Si5 1.625142 1_555
O11 Si4 1.615495 1_555
O11 Si0 1.621421 1_554
O12 Si7 1.619176 1_556
O12 Si3 1.619331 1_555
O13 Si6 1.625251 1_555
O14 Si3 1.625295 1_555
O15 Si5 1.626550 1_555
O16 Si4 1.623758 1_555
O17 Si6 1.640774 1_555
O18 Si5 1.626652 1_555
O19 Si7 1.643301 1_555
O19 Si5 1.659482 1_555
O20 Si6 1.620487 1_555
O21 Si4 1.610227 1_545
O21 Si7 1.628920 1_555
O22 Si1 1.648843 1_455
O23 Si7 1.609221 1_555
