# generated using pymatgen
data_LiMn2(PO4)3
_symmetry_space_group_name_H-M   'P 1'
_cell_length_a   8.43001970
_cell_length_b   8.43001970
_cell_length_c   8.58325555
_cell_angle_alpha   60.76732856
_cell_angle_beta   60.76732856
_cell_angle_gamma   59.87779824
_symmetry_Int_Tables_number   1
_chemical_formula_structural   LiMn2(PO4)3
_chemical_formula_sum   'Li2 Mn4 P6 O24'
_cell_volume   435.83626468
_cell_formula_units_Z   2
loop_
 _symmetry_equiv_pos_site_id
 _symmetry_equiv_pos_as_xyz
  1  'x, y, z'
loop_
 _atom_site_type_symbol
 _atom_site_label
 _atom_site_symmetry_multiplicity
 _atom_site_fract_x
 _atom_site_fract_y
 _atom_site_fract_z
 _atom_site_occupancy
  Li  Li0  1  0.02864900  0.36608100  0.95143900  1
  Li  Li1  1  0.36608100  0.02864900  0.45143900  1
  Mn  Mn0  1  0.85086300  0.35750800  0.42769800  1
  Mn  Mn1  1  0.14943600  0.64590300  0.56789600  1
  Mn  Mn2  1  0.35750800  0.85086300  0.92769800  1
  Mn  Mn3  1  0.64590300  0.14943600  0.06789600  1
  P  P0  1  0.74865300  0.52823700  0.75574100  1
  P  P1  1  0.52823700  0.74865300  0.25574100  1
  P  P2  1  0.03725600  0.95977000  0.74664300  1
  P  P3  1  0.47438200  0.24841700  0.74452700  1
  P  P4  1  0.95977000  0.03725600  0.24664300  1
  P  P5  1  0.24841700  0.47438200  0.24452700  1
  O  O0  1  0.36750800  0.72492700  0.45281200  1
  O  O1  1  0.63194400  0.27924200  0.54928100  1
  O  O2  1  0.27924200  0.63194400  0.04928100  1
  O  O3  1  0.04361400  0.77022900  0.75312400  1
  O  O4  1  0.40848700  0.27211000  0.24262000  1
  O  O5  1  0.00012200  0.87419000  0.42432100  1
  O  O6  1  0.12430800  0.01809400  0.05772800  1
  O  O7  1  0.23596100  0.94192600  0.73682700  1
  O  O8  1  0.72584600  0.58995700  0.26049200  1
  O  O9  1  0.87419000  0.00012200  0.92432100  1
  O  O10  1  0.58995700  0.72584600  0.76049200  1
  O  O11  1  0.05478900  0.46336000  0.28985100  1
  O  O12  1  0.94192600  0.23596100  0.23682700  1
  O  O13  1  0.53206200  0.94590900  0.21776800  1
  O  O14  1  0.01809400  0.12430800  0.55772800  1
  O  O15  1  0.25905200  0.51148500  0.39684500  1
  O  O16  1  0.48649300  0.74294200  0.10456200  1
  O  O17  1  0.74294200  0.48649300  0.60456200  1
  O  O18  1  0.51148500  0.25905200  0.89684500  1
  O  O19  1  0.27211000  0.40848700  0.74262000  1
  O  O20  1  0.94590900  0.53206200  0.71776800  1
  O  O21  1  0.72492700  0.36750800  0.95281200  1
  O  O22  1  0.46336000  0.05478900  0.78985100  1
  O  O23  1  0.77022900  0.04361400  0.25312400  1
loop_
_geom_bond_atom_site_label_1
_geom_bond_atom_site_label_2
_geom_bond_distance
_geom_bond_site_symmetry_2
Li0 O19 2.017482 1_555
Li0 O20 2.028001 1_455
Li0 O12 2.041914 1_456
Li0 O6 2.412151 1_556
Li0 O21 2.548646 1_455
Li1 O4 2.017482 1_555
Li1 O13 2.028001 1_545
Li1 O7 2.041914 1_545
Li1 O14 2.412151 1_555
Li1 O0 2.548646 1_545
Mn0 O17 1.893394 1_555
Mn0 O1 1.897039 1_555
Mn0 O8 1.915192 1_555
Mn0 O11 1.916587 1_655
Mn0 O14 1.926103 1_655
Mn0 O12 1.986185 1_555
Mn1 O15 1.882102 1_555
Mn1 O5 1.890497 1_555
Mn1 O0 1.900498 1_555
Mn1 O3 1.930213 1_555
Mn1 O20 1.952099 1_455
Mn1 O19 1.957038 1_555
Mn2 O16 1.893394 1_556
Mn2 O2 1.897039 1_556
Mn2 O10 1.915192 1_555
Mn2 O22 1.916587 1_565
Mn2 O6 1.926103 1_566
Mn2 O7 1.986185 1_555
Mn3 O18 1.882102 1_554
Mn3 O9 1.890497 1_554
Mn3 O21 1.900498 1_554
Mn3 O23 1.930213 1_555
Mn3 O13 1.952099 1_545
Mn3 O4 1.957038 1_555
O0 P1 1.562088 1_555
O1 P3 1.545061 1_555
O2 P5 1.545061 1_555
O3 P2 1.545698 1_555
O4 P5 1.557227 1_555
O5 P4 1.523459 1_465
O6 P4 1.553544 1_455
O7 P2 1.567568 1_555
O8 P1 1.530587 1_555
O9 P2 1.523459 1_645
O10 P0 1.530587 1_555
O11 P5 1.523496 1_555
O12 P4 1.567568 1_555
O13 P1 1.544864 1_555
O14 P2 1.553544 1_545
O15 P5 1.535301 1_555
O16 P1 1.527731 1_555
O17 P0 1.527731 1_555
O18 P3 1.535301 1_555
O19 P3 1.557227 1_555
O20 P0 1.544864 1_555
O21 P0 1.562088 1_555
O22 P3 1.523496 1_555
O23 P4 1.545698 1_555
