# generated using pymatgen
data_AlFe2Mo
_symmetry_space_group_name_H-M   'P 1'
_cell_length_a   4.14415485
_cell_length_b   4.14415485
_cell_length_c   4.14415485
_cell_angle_alpha   60.00000000
_cell_angle_beta   60.00000000
_cell_angle_gamma   60.00000000
_symmetry_Int_Tables_number   1
_chemical_formula_structural   AlFe2Mo
_chemical_formula_sum   'Al1 Fe2 Mo1'
_cell_volume   50.32605966
_cell_formula_units_Z   1
loop_
 _symmetry_equiv_pos_site_id
 _symmetry_equiv_pos_as_xyz
  1  'x, y, z'
loop_
 _atom_site_type_symbol
 _atom_site_label
 _atom_site_symmetry_multiplicity
 _atom_site_fract_x
 _atom_site_fract_y
 _atom_site_fract_z
 _atom_site_occupancy
  Al  Al0  1  0.50000000  0.50000000  0.50000000  1
  Fe  Fe0  1  0.75000000  0.75000000  0.75000000  1
  Fe  Fe1  1  0.25000000  0.25000000  0.25000000  1
  Mo  Mo0  1  0.00000000  0.00000000  0.00000000  1
loop_
_geom_bond_atom_site_label_1
_geom_bond_atom_site_label_2
_geom_bond_distance
_geom_bond_site_symmetry_2
Al0 Fe0 2.537766 1_555
Al0 Fe1 2.537766 1_555
Al0 Fe1 2.537766 1_556
Al0 Fe0 2.537766 1_455
Al0 Fe1 2.537766 1_565
Al0 Fe0 2.537766 1_545
Al0 Fe1 2.537766 1_655
Al0 Fe0 2.537766 1_554
Al0 Mo0 2.930360 1_556
Al0 Mo0 2.930360 1_565
Al0 Mo0 2.930360 1_656
Al0 Mo0 2.930360 1_665
Al0 Mo0 2.930360 1_655
Al0 Mo0 2.930360 1_566
Fe0 Mo0 2.537766 1_566
Fe0 Mo0 2.537766 1_666
Fe0 Mo0 2.537766 1_665
Fe0 Mo0 2.537766 1_656
Fe1 Mo0 2.537766 1_556
Fe1 Mo0 2.537766 1_565
Fe1 Mo0 2.537766 1_655
Fe1 Mo0 2.537766 1_555
