# generated using pymatgen
data_Fe3(GeO4)2
_symmetry_space_group_name_H-M   'P 1'
_cell_length_a   8.47158900
_cell_length_b   8.62723700
_cell_length_c   9.34101120
_cell_angle_alpha   62.33298327
_cell_angle_beta   90.00000000
_cell_angle_gamma   90.00000000
_symmetry_Int_Tables_number   1
_chemical_formula_structural   Fe3(GeO4)2
_chemical_formula_sum   'Fe12 Ge8 O32'
_cell_volume   604.64164482
_cell_formula_units_Z   4
loop_
 _symmetry_equiv_pos_site_id
 _symmetry_equiv_pos_as_xyz
  1  'x, y, z'
loop_
 _atom_site_type_symbol
 _atom_site_label
 _atom_site_symmetry_multiplicity
 _atom_site_fract_x
 _atom_site_fract_y
 _atom_site_fract_z
 _atom_site_occupancy
  Fe  Fe0  1  0.88344200  0.65740000  0.63690500  1
  Fe  Fe1  1  0.35929700  0.92815100  0.10988400  1
  Fe  Fe2  1  0.11486000  0.19489200  0.12705600  1
  Fe  Fe3  1  0.38344200  0.34260000  0.86309500  1
  Fe  Fe4  1  0.11655800  0.34260000  0.36309500  1
  Fe  Fe5  1  0.64070300  0.07184900  0.89011600  1
  Fe  Fe6  1  0.61486000  0.80510800  0.37294400  1
  Fe  Fe7  1  0.14070300  0.92815100  0.60988400  1
  Fe  Fe8  1  0.61655800  0.65740000  0.13690500  1
  Fe  Fe9  1  0.88514000  0.80510800  0.87294400  1
  Fe  Fe10  1  0.38514000  0.19489200  0.62705600  1
  Fe  Fe11  1  0.85929700  0.07184900  0.39011600  1
  Ge  Ge0  1  0.24834700  0.62933000  0.98828600  1
  Ge  Ge1  1  0.74834700  0.37067000  0.51171400  1
  Ge  Ge2  1  0.75165300  0.37067000  0.01171400  1
  Ge  Ge3  1  0.25165300  0.62933000  0.48828600  1
  Ge  Ge4  1  0.48028800  0.21998800  0.26660100  1
  Ge  Ge5  1  0.51971200  0.78001200  0.73339900  1
  Ge  Ge6  1  0.98028800  0.78001200  0.23339900  1
  Ge  Ge7  1  0.01971200  0.21998800  0.76660100  1
  O  O0  1  0.62190700  0.05185600  0.36455100  1
  O  O1  1  0.65089400  0.56599600  0.38508200  1
  O  O2  1  0.84910600  0.56599600  0.88508200  1
  O  O3  1  0.87809300  0.05185600  0.86455100  1
  O  O4  1  0.10873100  0.59160000  0.36017000  1
  O  O5  1  0.62707500  0.70716900  0.61528800  1
  O  O6  1  0.90276900  0.91297000  0.62714500  1
  O  O7  1  0.09723100  0.08703000  0.37285500  1
  O  O8  1  0.11929300  0.79690200  0.86012700  1
  O  O9  1  0.34910600  0.43400400  0.61491800  1
  O  O10  1  0.88070700  0.20309800  0.13987300  1
  O  O11  1  0.60873100  0.40840000  0.13983000  1
  O  O12  1  0.37292500  0.29283100  0.38471200  1
  O  O13  1  0.87292500  0.70716900  0.11528800  1
  O  O14  1  0.36873000  0.70297600  0.09848300  1
  O  O15  1  0.13127000  0.70297600  0.59848300  1
  O  O16  1  0.40276900  0.08703000  0.87285500  1
  O  O17  1  0.63127000  0.29702400  0.90151700  1
  O  O18  1  0.38070700  0.79690200  0.36012700  1
  O  O19  1  0.37809300  0.94814400  0.63544900  1
  O  O20  1  0.13964300  0.17294000  0.63184100  1
  O  O21  1  0.63964300  0.82706000  0.86815900  1
  O  O22  1  0.86873000  0.29702400  0.40151700  1
  O  O23  1  0.86035700  0.82706000  0.36815900  1
  O  O24  1  0.12190700  0.94814400  0.13544900  1
  O  O25  1  0.15089400  0.43400400  0.11491800  1
  O  O26  1  0.61929300  0.20309800  0.63987300  1
  O  O27  1  0.89126900  0.40840000  0.63983000  1
  O  O28  1  0.12707500  0.29283100  0.88471200  1
  O  O29  1  0.36035700  0.17294000  0.13184100  1
  O  O30  1  0.59723100  0.91297000  0.12714500  1
  O  O31  1  0.39126900  0.59160000  0.86017000  1
loop_
_geom_bond_atom_site_label_1
_geom_bond_atom_site_label_2
_geom_bond_distance
_geom_bond_site_symmetry_2
Fe0 O2 2.093549 1_555
Fe0 O15 2.135474 1_655
Fe0 O27 2.136662 1_555
Fe0 O6 2.170223 1_555
Fe0 O5 2.204878 1_555
Fe0 O23 2.251726 1_555
Fe1 O14 1.995920 1_555
Fe1 O30 2.021510 1_555
Fe1 O16 2.024419 1_564
Fe1 O24 2.041919 1_555
Fe1 O18 2.078713 1_555
Fe1 O29 2.214568 1_565
Fe2 O10 1.990496 1_455
Fe2 O28 2.018133 1_554
Fe2 O25 2.035754 1_555
Fe2 O7 2.043466 1_555
Fe2 O29 2.086950 1_555
Fe2 O24 2.094353 1_545
Fe3 O9 2.093549 1_555
Fe3 O17 2.135474 1_555
Fe3 O31 2.136662 1_555
Fe3 O16 2.170223 1_555
Fe3 O28 2.204878 1_555
Fe3 O29 2.251726 1_556
Fe4 O25 2.093549 1_555
Fe4 O22 2.135474 1_455
Fe4 O4 2.136662 1_555
Fe4 O7 2.170223 1_555
Fe4 O12 2.204878 1_555
Fe4 O20 2.251726 1_555
Fe5 O17 1.995920 1_555
Fe5 O16 2.021510 1_555
Fe5 O30 2.024419 1_546
Fe5 O3 2.041919 1_555
Fe5 O26 2.078713 1_555
Fe5 O21 2.214568 1_545
Fe6 O18 1.990496 1_555
Fe6 O5 2.018133 1_555
Fe6 O1 2.035754 1_555
Fe6 O30 2.043466 1_555
Fe6 O23 2.086950 1_555
Fe6 O0 2.094353 1_565
Fe7 O15 1.995920 1_555
Fe7 O6 2.021510 1_455
Fe7 O7 2.024419 1_565
Fe7 O19 2.041919 1_555
Fe7 O8 2.078713 1_555
Fe7 O20 2.214568 1_565
Fe8 O1 2.093549 1_555
Fe8 O14 2.135474 1_555
Fe8 O11 2.136662 1_555
Fe8 O30 2.170223 1_555
Fe8 O13 2.204878 1_555
Fe8 O21 2.251726 1_554
Fe9 O8 1.990496 1_655
Fe9 O13 2.018133 1_556
Fe9 O2 2.035754 1_555
Fe9 O6 2.043466 1_555
Fe9 O21 2.086950 1_555
Fe9 O3 2.094353 1_565
Fe10 O26 1.990496 1_555
Fe10 O12 2.018133 1_555
Fe10 O9 2.035754 1_555
Fe10 O16 2.043466 1_555
Fe10 O20 2.086950 1_555
Fe10 O19 2.094353 1_545
Fe11 O22 1.995920 1_555
Fe11 O7 2.021510 1_655
Fe11 O6 2.024419 1_545
Fe11 O0 2.041919 1_555
Fe11 O10 2.078713 1_555
Fe11 O23 2.214568 1_545
Ge0 O25 1.751947 1_556
Ge0 O14 1.763709 1_556
Ge0 O8 1.763860 1_555
Ge0 O31 1.834628 1_555
Ge1 O1 1.751947 1_555
Ge1 O22 1.763709 1_555
Ge1 O26 1.763860 1_555
Ge1 O27 1.834628 1_555
Ge2 O2 1.751947 1_554
Ge2 O17 1.763709 1_554
Ge2 O10 1.763860 1_555
Ge2 O11 1.834628 1_555
Ge3 O9 1.751947 1_555
Ge3 O15 1.763709 1_555
Ge3 O18 1.763860 1_555
Ge3 O4 1.834628 1_555
Ge4 O12 1.755927 1_555
Ge4 O0 1.774267 1_555
Ge4 O29 1.804459 1_555
Ge4 O11 1.854965 1_555
Ge5 O5 1.755927 1_555
Ge5 O19 1.774267 1_555
Ge5 O21 1.804459 1_555
Ge5 O31 1.854965 1_555
Ge6 O13 1.755927 1_555
Ge6 O24 1.774267 1_655
Ge6 O23 1.804459 1_555
Ge6 O4 1.854965 1_655
Ge7 O28 1.755927 1_555
Ge7 O3 1.774267 1_455
Ge7 O20 1.804459 1_555
Ge7 O27 1.854965 1_455
