# generated using pymatgen
data_Sr3As4
_symmetry_space_group_name_H-M   'P 1'
_cell_length_a   11.74422802
_cell_length_b   9.52536711
_cell_length_c   8.09023140
_cell_angle_alpha   83.19678882
_cell_angle_beta   53.64475936
_cell_angle_gamma   43.15845183
_symmetry_Int_Tables_number   1
_chemical_formula_structural   Sr3As4
_chemical_formula_sum   'Sr6 As8'
_cell_volume   409.67068800
_cell_formula_units_Z   2
loop_
 _symmetry_equiv_pos_site_id
 _symmetry_equiv_pos_as_xyz
  1  'x, y, z'
loop_
 _atom_site_type_symbol
 _atom_site_label
 _atom_site_symmetry_multiplicity
 _atom_site_fract_x
 _atom_site_fract_y
 _atom_site_fract_z
 _atom_site_occupancy
  Sr  Sr0  1  0.89378900  0.44491400  0.10073500  1
  Sr  Sr1  1  0.55505100  0.11400600  0.45284300  1
  Sr  Sr2  1  0.13632700  0.69266400  0.36778700  1
  Sr  Sr3  1  0.80712900  0.35697600  0.68404100  1
  Sr  Sr4  1  0.51272600  0.98804700  0.99130700  1
  Sr  Sr5  1  0.25211400  0.74260700  0.74639400  1
  As  As0  1  0.92445700  0.58442000  0.40019700  1
  As  As1  1  0.08765000  0.40514000  0.59077000  1
  As  As2  1  0.84619400  0.15533800  0.32614100  1
  As  As3  1  0.66632400  0.33386100  0.16296500  1
  As  As4  1  0.96888100  0.68691900  0.86171400  1
  As  As5  1  0.48783400  0.85104500  0.67715500  1
  As  As6  1  0.56606500  0.27865700  0.76630100  1
  As  As7  1  0.38778400  0.77130100  0.28096400  1
loop_
_geom_bond_atom_site_label_1
_geom_bond_atom_site_label_2
_geom_bond_distance
_geom_bond_site_symmetry_2
As0 As5 2.547848 1_555
As0 As1 2.659161 1_655
As0 Sr2 3.198221 1_655
As0 Sr0 3.203225 1_555
As0 Sr1 3.292362 1_565
As0 Sr4 3.294026 1_555
As0 Sr4 3.323069 1_644
As0 Sr3 3.360179 1_555
As1 As4 2.502310 1_455
As1 Sr0 3.213135 1_456
As1 Sr1 3.214036 1_555
As1 Sr4 3.247622 1_455
As1 Sr3 3.287762 1_455
As1 Sr2 3.312558 1_555
As1 Sr4 3.339400 1_544
As2 As6 2.519421 1_555
As2 As3 2.574962 1_555
As2 Sr2 3.201168 1_645
As2 Sr1 3.257301 1_555
As2 Sr5 3.270719 1_644
As2 Sr3 3.277257 1_555
As2 Sr5 3.312442 1_555
As2 Sr0 3.330978 1_555
As3 As7 2.515634 1_555
As3 Sr3 3.244748 1_554
As3 Sr5 3.256030 1_555
As3 Sr1 3.284656 1_555
As3 Sr5 3.299615 1_644
As3 Sr0 3.303161 1_555
As3 Sr2 3.353669 1_555
As4 Sr4 3.108253 1_555
As4 Sr0 3.117522 1_556
As4 Sr1 3.253320 1_655
As4 Sr2 3.259873 1_655
As4 Sr5 3.315735 1_655
As4 Sr1 3.353990 1_566
As5 Sr1 3.209341 1_565
As5 Sr0 3.232591 1_555
As5 Sr4 3.235933 1_555
As5 Sr3 3.263709 1_555
As5 Sr0 3.329684 1_466
As5 Sr5 3.352703 1_555
As6 Sr3 3.121630 1_555
As6 Sr5 3.148628 1_555
As6 Sr2 3.244948 1_645
As6 Sr1 3.245718 1_555
As6 Sr2 3.330978 1_556
As6 Sr4 3.369408 1_545
As7 Sr5 3.173396 1_555
As7 Sr2 3.227837 1_555
As7 Sr3 3.271502 1_465
As7 Sr0 3.309579 1_555
As7 Sr4 3.332257 1_554
As7 Sr3 3.333684 1_554
