# generated using pymatgen
data_Nd5Si4
_symmetry_space_group_name_H-M   'P 1'
_cell_length_a   7.80102335
_cell_length_b   7.95758222
_cell_length_c   15.19293123
_cell_angle_alpha   89.99983348
_cell_angle_beta   90.00056848
_cell_angle_gamma   89.99989718
_symmetry_Int_Tables_number   1
_chemical_formula_structural   Nd5Si4
_chemical_formula_sum   'Nd20 Si16'
_cell_volume   943.13591749
_cell_formula_units_Z   4
loop_
 _symmetry_equiv_pos_site_id
 _symmetry_equiv_pos_as_xyz
  1  'x, y, z'
loop_
 _atom_site_type_symbol
 _atom_site_label
 _atom_site_symmetry_multiplicity
 _atom_site_fract_x
 _atom_site_fract_y
 _atom_site_fract_z
 _atom_site_occupancy
  Nd  Nd0  1  0.13655241  0.50905675  0.75001482  1
  Nd  Nd1  1  0.81030857  0.31854825  0.87860477  1
  Nd  Nd2  1  0.45934573  0.68720403  0.60089476  1
  Nd  Nd3  1  0.95935596  0.81277571  0.60089688  1
  Nd  Nd4  1  0.18967670  0.68148904  0.37864028  1
  Nd  Nd5  1  0.68969692  0.81849833  0.37863886  1
  Nd  Nd6  1  0.31030154  0.18146916  0.62140525  1
  Nd  Nd7  1  0.18968867  0.68148272  0.12135112  1
  Nd  Nd8  1  0.04062858  0.18717470  0.39916872  1
  Nd  Nd9  1  0.31029384  0.18146224  0.87860440  1
  Nd  Nd10  1  0.86346303  0.49104076  0.24998366  1
  Nd  Nd11  1  0.36345105  0.00895526  0.24998368  1
  Nd  Nd12  1  0.54063519  0.31284334  0.10081896  1
  Nd  Nd13  1  0.81032088  0.31854323  0.62140590  1
  Nd  Nd14  1  0.95935351  0.81277666  0.89911310  1
  Nd  Nd15  1  0.45934345  0.68720309  0.89911438  1
  Nd  Nd16  1  0.04062763  0.18717323  0.10081946  1
  Nd  Nd17  1  0.68970975  0.81850720  0.12135103  1
  Nd  Nd18  1  0.63656301  0.99095252  0.75001465  1
  Nd  Nd19  1  0.54063618  0.31284036  0.39917070  1
  Si  Si0  1  0.48244982  0.59602602  0.24998378  1
  Si  Si1  1  0.25523075  0.37949227  0.24998943  1
  Si  Si2  1  0.86740301  0.52431317  0.04081745  1
  Si  Si3  1  0.51753800  0.40404859  0.75001558  1
  Si  Si4  1  0.63262020  0.02431127  0.54087953  1
  Si  Si5  1  0.01753955  0.09595706  0.75001586  1
  Si  Si6  1  0.74476486  0.62054693  0.75001297  1
  Si  Si7  1  0.75524437  0.12051593  0.24998713  1
  Si  Si8  1  0.36740112  0.97568532  0.04081767  1
  Si  Si9  1  0.98245252  0.90397079  0.24998372  1
  Si  Si10  1  0.36739700  0.97568812  0.45918098  1
  Si  Si11  1  0.63261731  0.02431084  0.95912400  1
  Si  Si12  1  0.13261438  0.47568984  0.54088108  1
  Si  Si13  1  0.13261298  0.47568919  0.95911957  1
  Si  Si14  1  0.86740444  0.52431247  0.45918042  1
  Si  Si15  1  0.24475207  0.87944562  0.75001543  1
loop_
_geom_bond_atom_site_label_1
_geom_bond_atom_site_label_2
_geom_bond_distance
_geom_bond_site_symmetry_2
Nd0 Si15 3.065881 1_555
Nd0 Si3 3.087310 1_555
Nd0 Si6 3.182505 1_455
Nd0 Si13 3.188139 1_555
Nd0 Si12 3.188578 1_555
Nd0 Si5 3.415868 1_555
Nd1 Si11 2.983331 1_555
Nd1 Si2 2.992177 1_556
Nd1 Si13 3.062955 1_655
Nd1 Si3 3.081524 1_555
Nd1 Si5 3.093169 1_655
Nd1 Si6 3.139036 1_555
Nd2 Si4 3.139216 1_565
Nd2 Si12 3.187612 1_555
Nd2 Si15 3.205558 1_555
Nd2 Si6 3.220482 1_555
Nd2 Si3 3.227375 1_555
Nd2 Si10 3.228003 1_555
Nd3 Si12 3.139020 1_655
Nd3 Si4 3.187738 1_565
Nd3 Si6 3.205447 1_555
Nd3 Si15 3.220382 1_655
Nd3 Si5 3.227500 1_665
Nd3 Si14 3.227928 1_555
Nd4 Si10 2.983325 1_555
Nd4 Si12 2.992640 1_555
Nd4 Si14 3.063036 1_455
Nd4 Si0 3.082153 1_555
Nd4 Si9 3.093265 1_455
Nd4 Si1 3.139611 1_555
Nd5 Si14 2.983192 1_555
Nd5 Si4 2.992722 1_565
Nd5 Si10 3.063267 1_555
Nd5 Si9 3.082054 1_555
Nd5 Si0 3.093311 1_555
Nd5 Si7 3.139730 1_565
Nd6 Si12 2.983228 1_555
Nd6 Si10 2.992400 1_545
Nd6 Si4 3.063184 1_555
Nd6 Si5 3.081732 1_555
Nd6 Si3 3.093326 1_555
Nd6 Si15 3.139376 1_545
Nd7 Si8 2.983279 1_555
Nd7 Si13 2.992516 1_554
Nd7 Si2 3.063043 1_455
Nd7 Si0 3.081812 1_555
Nd7 Si9 3.093139 1_455
Nd7 Si1 3.139423 1_555
Nd8 Si14 3.139240 1_455
Nd8 Si10 3.187714 1_545
Nd8 Si1 3.206508 1_555
Nd8 Si7 3.220977 1_455
Nd8 Si12 3.228239 1_555
Nd8 Si9 3.228321 1_445
Nd9 Si13 2.983205 1_555
Nd9 Si8 2.992243 1_546
Nd9 Si11 3.063134 1_555
Nd9 Si5 3.081436 1_555
Nd9 Si3 3.093196 1_555
Nd9 Si15 3.139126 1_545
Nd10 Si7 3.066962 1_555
Nd10 Si0 3.087468 1_555
Nd10 Si1 3.182486 1_655
Nd10 Si2 3.189006 1_555
Nd10 Si14 3.189469 1_555
Nd10 Si9 3.414519 1_555
Nd11 Si1 3.067056 1_555
Nd11 Si9 3.087359 1_445
Nd11 Si7 3.182708 1_555
Nd11 Si8 3.189004 1_545
Nd11 Si10 3.189473 1_545
Nd11 Si0 3.414530 1_545
Nd12 Si8 3.139361 1_545
Nd12 Si2 3.187612 1_555
Nd12 Si7 3.206428 1_555
Nd12 Si1 3.220984 1_555
Nd12 Si0 3.228003 1_555
Nd12 Si11 3.228163 1_554
Nd13 Si4 2.983370 1_555
Nd13 Si14 2.992343 1_555
Nd13 Si12 3.062982 1_655
Nd13 Si3 3.081833 1_555
Nd13 Si5 3.093271 1_655
Nd13 Si6 3.139241 1_555
Nd14 Si13 3.138981 1_655
Nd14 Si11 3.187724 1_565
Nd14 Si6 3.205252 1_555
Nd14 Si15 3.220199 1_655
Nd14 Si5 3.227262 1_665
Nd14 Si2 3.227805 1_556
Nd15 Si11 3.139190 1_565
Nd15 Si13 3.187580 1_555
Nd15 Si15 3.205290 1_555
Nd15 Si6 3.220347 1_555
Nd15 Si3 3.227152 1_555
Nd15 Si8 3.227894 1_556
Nd16 Si2 3.139201 1_455
Nd16 Si8 3.187723 1_545
Nd16 Si1 3.206400 1_555
Nd16 Si7 3.220850 1_455
Nd16 Si9 3.228088 1_445
Nd16 Si13 3.228118 1_554
Nd17 Si2 2.983159 1_555
Nd17 Si11 2.992514 1_564
Nd17 Si8 3.063209 1_555
Nd17 Si9 3.081722 1_555
Nd17 Si0 3.093203 1_555
Nd17 Si7 3.139514 1_565
Nd18 Si6 3.066011 1_555
Nd18 Si5 3.087237 1_665
Nd18 Si15 3.182720 1_555
Nd18 Si11 3.188204 1_565
Nd18 Si4 3.188592 1_565
Nd18 Si3 3.415863 1_565
Nd19 Si10 3.139382 1_545
Nd19 Si14 3.187649 1_555
Nd19 Si7 3.206608 1_555
Nd19 Si1 3.221075 1_555
Nd19 Si0 3.228241 1_555
Nd19 Si4 3.228269 1_555
Si0 Si1 2.472031 1_555
Si3 Si6 2.471878 1_555
Si7 Si9 2.472028 1_545
Si10 Si4 2.443594 1_565
Si11 Si8 2.443533 1_546
Si12 Si14 2.443520 1_455
Si13 Si2 2.443523 1_456
Si15 Si5 2.471866 1_565
