# generated using pymatgen
data_RbCdH2I3O
_symmetry_space_group_name_H-M   'P 1'
_cell_length_a   7.55004241
_cell_length_b   7.55004241
_cell_length_c   8.98693949
_cell_angle_alpha   89.63033722
_cell_angle_beta   89.63033722
_cell_angle_gamma   85.42988186
_symmetry_Int_Tables_number   1
_chemical_formula_structural   RbCdH2I3O
_chemical_formula_sum   'Rb2 Cd2 H4 I6 O2'
_cell_volume   510.63531400
_cell_formula_units_Z   2
loop_
 _symmetry_equiv_pos_site_id
 _symmetry_equiv_pos_as_xyz
  1  'x, y, z'
loop_
 _atom_site_type_symbol
 _atom_site_label
 _atom_site_symmetry_multiplicity
 _atom_site_fract_x
 _atom_site_fract_y
 _atom_site_fract_z
 _atom_site_occupancy
  Rb  Rb0  1  0.49186500  0.71285200  0.82601300  1
  Rb  Rb1  1  0.71285200  0.49186500  0.32601300  1
  Cd  Cd0  1  0.03350500  0.96586700  0.50005000  1
  Cd  Cd1  1  0.96586700  0.03350500  0.00005000  1
  H  H0  1  0.87034500  0.48759400  0.67802500  1
  H  H1  1  0.48759400  0.87034500  0.17802500  1
  H  H2  1  0.73062200  0.34749600  0.67919300  1
  H  H3  1  0.34749600  0.73062200  0.17919300  1
  I  I0  1  0.19719000  0.62103600  0.49455500  1
  I  I1  1  0.62103600  0.19719000  0.99455500  1
  I  I2  1  0.15375300  0.16795900  0.24868000  1
  I  I3  1  0.16795900  0.15375300  0.74868000  1
  I  I4  1  0.66205000  0.99087500  0.49424800  1
  I  I5  1  0.99087500  0.66205000  0.99424800  1
  O  O0  1  0.74602900  0.47076200  0.65173600  1
  O  O1  1  0.47076200  0.74602900  0.15173600  1
loop_
_geom_bond_atom_site_label_1
_geom_bond_atom_site_label_2
_geom_bond_distance
_geom_bond_site_symmetry_2
Cd0 I0 2.792133 1_555
Cd0 I4 2.796600 1_455
Cd0 I3 2.887051 1_565
Cd0 I2 2.899210 1_565
Cd1 I1 2.792133 1_554
Cd1 I5 2.796600 1_544
Cd1 I2 2.887051 1_655
Cd1 I3 2.899210 1_654
H0 O0 0.987511 1_555
H1 O1 0.987511 1_555
H2 O0 0.976971 1_555
H3 O1 0.976971 1_555
I0 Rb0 3.829029 1_555
I1 Rb1 3.829029 1_556
I2 Rb1 4.029807 1_455
I3 Rb0 4.029807 1_545
I4 Rb0 3.904665 1_555
I4 Rb1 4.057481 1_555
I4 Rb1 4.109770 1_565
I5 Rb1 3.904665 1_556
I5 Rb0 4.057481 1_555
I5 Rb0 4.109770 1_655
O0 Rb1 2.941772 1_555
O0 Rb0 2.985873 1_555
O1 Rb0 2.941772 1_554
O1 Rb1 2.985873 1_555
