# generated using pymatgen
data_Sm
_symmetry_space_group_name_H-M   'P 1'
_cell_length_a   7.29937802
_cell_length_b   7.29937745
_cell_length_c   23.44171264
_cell_angle_alpha   90.00000000
_cell_angle_beta   90.00000000
_cell_angle_gamma   120.00000251
_symmetry_Int_Tables_number   1
_chemical_formula_structural   Sm
_chemical_formula_sum   Sm32
_cell_volume   1081.66215591
_cell_formula_units_Z   32
loop_
 _symmetry_equiv_pos_site_id
 _symmetry_equiv_pos_as_xyz
  1  'x, y, z'
loop_
 _atom_site_type_symbol
 _atom_site_label
 _atom_site_symmetry_multiplicity
 _atom_site_fract_x
 _atom_site_fract_y
 _atom_site_fract_z
 _atom_site_occupancy
  Sm  Sm0_0  1  0.00000000  0.00000000  0.00000000  1
  Sm  Sm0_1  1  0.00000000  0.00000000  0.50000000  1
  Sm  Sm0_2  1  0.00000000  0.50000000  0.00000000  1
  Sm  Sm0_3  1  0.00000000  0.50000000  0.50000000  1
  Sm  Sm0_4  1  0.50000000  0.00000000  0.00000000  1
  Sm  Sm0_5  1  0.50000000  0.00000000  0.50000000  1
  Sm  Sm0_6  1  0.50000000  0.50000000  0.00000000  1
  Sm  Sm0_7  1  0.50000000  0.50000000  0.50000000  1
  Sm  Sm1_0  1  0.00000000  0.00000000  0.25000000  1
  Sm  Sm1_1  1  0.00000000  0.00000000  0.75000000  1
  Sm  Sm1_2  1  0.00000000  0.50000000  0.25000000  1
  Sm  Sm1_3  1  0.00000000  0.50000000  0.75000000  1
  Sm  Sm1_4  1  0.50000000  0.00000000  0.25000000  1
  Sm  Sm1_5  1  0.50000000  0.00000000  0.75000000  1
  Sm  Sm1_6  1  0.50000000  0.50000000  0.25000000  1
  Sm  Sm1_7  1  0.50000000  0.50000000  0.75000000  1
  Sm  Sm2_0  1  0.16666650  0.33333350  0.12500000  1
  Sm  Sm2_1  1  0.16666650  0.33333350  0.62500000  1
  Sm  Sm2_2  1  0.16666650  0.83333350  0.12500000  1
  Sm  Sm2_3  1  0.16666650  0.83333350  0.62500000  1
  Sm  Sm2_4  1  0.66666650  0.33333350  0.12500000  1
  Sm  Sm2_5  1  0.66666650  0.33333350  0.62500000  1
  Sm  Sm2_6  1  0.66666650  0.83333350  0.12500000  1
  Sm  Sm2_7  1  0.66666650  0.83333350  0.62500000  1
  Sm  Sm3_0  1  0.33333350  0.16666650  0.37500000  1
  Sm  Sm3_1  1  0.33333350  0.16666650  0.87500000  1
  Sm  Sm3_2  1  0.33333350  0.66666650  0.37500000  1
  Sm  Sm3_3  1  0.33333350  0.66666650  0.87500000  1
  Sm  Sm3_4  1  0.83333350  0.16666650  0.37500000  1
  Sm  Sm3_5  1  0.83333350  0.16666650  0.87500000  1
  Sm  Sm3_6  1  0.83333350  0.66666650  0.37500000  1
  Sm  Sm3_7  1  0.83333350  0.66666650  0.87500000  1
loop_
_geom_bond_atom_site_label_1
_geom_bond_atom_site_label_2
_geom_bond_distance
_geom_bond_site_symmetry_2
Sm0_0 Sm2_2 3.609186 1_545
Sm0_0 Sm3_5 3.609186 1_454
Sm0_0 Sm2_0 3.609188 1_555
Sm0_0 Sm3_7 3.609188 1_444
Sm0_0 Sm2_6 3.609188 1_445
Sm0_0 Sm3_1 3.609188 1_554
Sm0_0 Sm0_2 3.649689 1_555
Sm0_0 Sm0_2 3.649689 1_545
Sm0_0 Sm0_6 3.649689 1_555
Sm0_0 Sm0_6 3.649689 1_445
Sm0_0 Sm0_4 3.649689 1_555
Sm0_0 Sm0_4 3.649689 1_455
Sm0_1 Sm3_4 3.609186 1_455
Sm0_1 Sm2_3 3.609186 1_545
Sm0_1 Sm3_6 3.609188 1_445
Sm0_1 Sm2_1 3.609188 1_555
Sm0_1 Sm2_7 3.609188 1_445
Sm0_1 Sm3_0 3.609188 1_555
Sm0_1 Sm0_3 3.649689 1_555
Sm0_1 Sm0_3 3.649689 1_545
Sm0_1 Sm0_7 3.649689 1_445
Sm0_1 Sm0_7 3.649689 1_555
Sm0_1 Sm0_5 3.649689 1_455
Sm0_1 Sm0_5 3.649689 1_555
Sm0_2 Sm2_0 3.609186 1_555
Sm0_2 Sm3_7 3.609186 1_454
Sm0_2 Sm2_2 3.609188 1_555
Sm0_2 Sm3_5 3.609188 1_454
Sm0_2 Sm2_4 3.609188 1_455
Sm0_2 Sm3_3 3.609188 1_554
Sm0_2 Sm0_4 3.649689 1_455
Sm0_2 Sm0_4 3.649689 1_565
Sm0_2 Sm0_6 3.649689 1_455
Sm0_2 Sm0_6 3.649689 1_555
Sm0_3 Sm3_6 3.609186 1_455
Sm0_3 Sm2_1 3.609186 1_555
Sm0_3 Sm3_4 3.609188 1_455
Sm0_3 Sm2_3 3.609188 1_555
Sm0_3 Sm2_5 3.609188 1_455
Sm0_3 Sm3_2 3.609188 1_555
Sm0_3 Sm0_5 3.649689 1_455
Sm0_3 Sm0_5 3.649689 1_565
Sm0_3 Sm0_7 3.649689 1_555
Sm0_3 Sm0_7 3.649689 1_455
Sm0_4 Sm2_6 3.609186 1_545
Sm0_4 Sm3_1 3.609186 1_554
Sm0_4 Sm3_3 3.609188 1_544
Sm0_4 Sm2_4 3.609188 1_555
Sm0_4 Sm2_2 3.609188 1_545
Sm0_4 Sm3_5 3.609188 1_554
Sm0_4 Sm0_6 3.649689 1_555
Sm0_4 Sm0_6 3.649689 1_545
Sm0_5 Sm2_7 3.609186 1_545
Sm0_5 Sm3_0 3.609186 1_555
Sm0_5 Sm3_2 3.609188 1_545
Sm0_5 Sm2_5 3.609188 1_555
Sm0_5 Sm2_3 3.609188 1_545
Sm0_5 Sm3_4 3.609188 1_555
Sm0_5 Sm0_7 3.649689 1_545
Sm0_5 Sm0_7 3.649689 1_555
Sm0_6 Sm2_4 3.609186 1_555
Sm0_6 Sm3_3 3.609186 1_554
Sm0_6 Sm3_1 3.609188 1_554
Sm0_6 Sm2_6 3.609188 1_555
Sm0_6 Sm2_0 3.609188 1_555
Sm0_6 Sm3_7 3.609188 1_554
Sm0_7 Sm3_2 3.609186 1_555
Sm0_7 Sm2_5 3.609186 1_555
Sm0_7 Sm3_0 3.609188 1_555
Sm0_7 Sm2_7 3.609188 1_555
Sm0_7 Sm2_1 3.609188 1_555
Sm0_7 Sm3_6 3.609188 1_555
Sm1_0 Sm2_2 3.609186 1_545
Sm1_0 Sm3_4 3.609186 1_455
Sm1_0 Sm2_0 3.609188 1_555
Sm1_0 Sm3_6 3.609188 1_445
Sm1_0 Sm2_6 3.609188 1_445
Sm1_0 Sm3_0 3.609188 1_555
Sm1_0 Sm1_2 3.649689 1_555
Sm1_0 Sm1_2 3.649689 1_545
Sm1_0 Sm1_6 3.649689 1_555
Sm1_0 Sm1_6 3.649689 1_445
Sm1_0 Sm1_4 3.649689 1_555
Sm1_0 Sm1_4 3.649689 1_455
Sm1_1 Sm3_5 3.609186 1_455
Sm1_1 Sm2_3 3.609186 1_545
Sm1_1 Sm3_7 3.609188 1_445
Sm1_1 Sm2_1 3.609188 1_555
Sm1_1 Sm3_1 3.609188 1_555
Sm1_1 Sm2_7 3.609188 1_445
Sm1_1 Sm1_3 3.649689 1_555
Sm1_1 Sm1_3 3.649689 1_545
Sm1_1 Sm1_7 3.649689 1_445
Sm1_1 Sm1_7 3.649689 1_555
Sm1_1 Sm1_5 3.649689 1_555
Sm1_1 Sm1_5 3.649689 1_455
Sm1_2 Sm2_0 3.609186 1_555
Sm1_2 Sm3_6 3.609186 1_455
Sm1_2 Sm2_2 3.609188 1_555
Sm1_2 Sm3_4 3.609188 1_455
Sm1_2 Sm2_4 3.609188 1_455
Sm1_2 Sm3_2 3.609188 1_555
Sm1_2 Sm1_4 3.649689 1_455
Sm1_2 Sm1_4 3.649689 1_565
Sm1_2 Sm1_6 3.649689 1_455
Sm1_2 Sm1_6 3.649689 1_555
Sm1_3 Sm3_7 3.609186 1_455
Sm1_3 Sm2_1 3.609186 1_555
Sm1_3 Sm3_5 3.609188 1_455
Sm1_3 Sm2_3 3.609188 1_555
Sm1_3 Sm3_3 3.609188 1_555
Sm1_3 Sm2_5 3.609188 1_455
Sm1_3 Sm1_5 3.649689 1_565
Sm1_3 Sm1_5 3.649689 1_455
Sm1_3 Sm1_7 3.649689 1_455
Sm1_3 Sm1_7 3.649689 1_555
Sm1_4 Sm2_6 3.609186 1_545
Sm1_4 Sm3_0 3.609186 1_555
Sm1_4 Sm2_4 3.609188 1_555
Sm1_4 Sm3_2 3.609188 1_545
Sm1_4 Sm2_2 3.609188 1_545
Sm1_4 Sm3_4 3.609188 1_555
Sm1_4 Sm1_6 3.649689 1_545
Sm1_4 Sm1_6 3.649689 1_555
Sm1_5 Sm3_1 3.609186 1_555
Sm1_5 Sm2_7 3.609186 1_545
Sm1_5 Sm3_3 3.609188 1_545
Sm1_5 Sm2_5 3.609188 1_555
Sm1_5 Sm3_5 3.609188 1_555
Sm1_5 Sm2_3 3.609188 1_545
Sm1_5 Sm1_7 3.649689 1_545
Sm1_5 Sm1_7 3.649689 1_555
Sm1_6 Sm2_4 3.609186 1_555
Sm1_6 Sm3_2 3.609186 1_555
Sm1_6 Sm2_6 3.609188 1_555
Sm1_6 Sm3_0 3.609188 1_555
Sm1_6 Sm2_0 3.609188 1_555
Sm1_6 Sm3_6 3.609188 1_555
Sm1_7 Sm3_3 3.609186 1_555
Sm1_7 Sm2_5 3.609186 1_555
Sm1_7 Sm3_1 3.609188 1_555
Sm1_7 Sm2_7 3.609188 1_555
Sm1_7 Sm3_7 3.609188 1_555
Sm1_7 Sm2_1 3.609188 1_555
Sm2_0 Sm2_2 3.649689 1_555
Sm2_0 Sm2_2 3.649689 1_545
Sm2_0 Sm2_6 3.649689 1_555
Sm2_0 Sm2_6 3.649689 1_445
Sm2_0 Sm2_4 3.649689 1_455
Sm2_0 Sm2_4 3.649689 1_555
Sm2_1 Sm2_3 3.649689 1_555
Sm2_1 Sm2_3 3.649689 1_545
Sm2_1 Sm2_7 3.649689 1_555
Sm2_1 Sm2_7 3.649689 1_445
Sm2_1 Sm2_5 3.649689 1_455
Sm2_1 Sm2_5 3.649689 1_555
Sm2_2 Sm2_4 3.649689 1_565
Sm2_2 Sm2_4 3.649689 1_455
Sm2_2 Sm2_6 3.649689 1_455
Sm2_2 Sm2_6 3.649689 1_555
Sm2_3 Sm2_5 3.649689 1_565
Sm2_3 Sm2_5 3.649689 1_455
Sm2_3 Sm2_7 3.649689 1_555
Sm2_3 Sm2_7 3.649689 1_455
Sm2_4 Sm2_6 3.649689 1_545
Sm2_4 Sm2_6 3.649689 1_555
Sm2_5 Sm2_7 3.649689 1_545
Sm2_5 Sm2_7 3.649689 1_555
Sm3_0 Sm3_2 3.649689 1_555
Sm3_0 Sm3_2 3.649689 1_545
Sm3_0 Sm3_6 3.649689 1_445
Sm3_0 Sm3_6 3.649689 1_555
Sm3_0 Sm3_4 3.649689 1_455
Sm3_0 Sm3_4 3.649689 1_555
Sm3_1 Sm3_3 3.649689 1_555
Sm3_1 Sm3_3 3.649689 1_545
Sm3_1 Sm3_7 3.649689 1_555
Sm3_1 Sm3_7 3.649689 1_445
Sm3_1 Sm3_5 3.649689 1_455
Sm3_1 Sm3_5 3.649689 1_555
Sm3_2 Sm3_4 3.649689 1_455
Sm3_2 Sm3_4 3.649689 1_565
Sm3_2 Sm3_6 3.649689 1_455
Sm3_2 Sm3_6 3.649689 1_555
Sm3_3 Sm3_5 3.649689 1_455
Sm3_3 Sm3_5 3.649689 1_565
Sm3_3 Sm3_7 3.649689 1_455
Sm3_3 Sm3_7 3.649689 1_555
Sm3_4 Sm3_6 3.649689 1_545
Sm3_4 Sm3_6 3.649689 1_555
Sm3_5 Sm3_7 3.649689 1_555
Sm3_5 Sm3_7 3.649689 1_545
