# generated using pymatgen
data_Cs4Th2P5Se17
_symmetry_space_group_name_H-M   'P 1'
_cell_length_a   32.76523038
_cell_length_b   10.34604812
_cell_length_c   10.95891124
_cell_angle_alpha   83.99019417
_cell_angle_beta   90.00000000
_cell_angle_gamma   90.00000000
_symmetry_Int_Tables_number   1
_chemical_formula_structural   Cs4Th2P5Se17
_chemical_formula_sum   'Cs16 Th8 P20 Se68'
_cell_volume   3694.55094714
_cell_formula_units_Z   4
loop_
 _symmetry_equiv_pos_site_id
 _symmetry_equiv_pos_as_xyz
  1  'x, y, z'
loop_
 _atom_site_type_symbol
 _atom_site_label
 _atom_site_symmetry_multiplicity
 _atom_site_fract_x
 _atom_site_fract_y
 _atom_site_fract_z
 _atom_site_occupancy
  Cs  Cs0  1  0.73304943  0.68875935  0.79914654  1
  Cs  Cs1  1  0.27283441  0.80134131  0.16469108  1
  Cs  Cs2  1  0.26695057  0.31124065  0.20085346  1
  Cs  Cs3  1  0.76695057  0.68875935  0.29914654  1
  Cs  Cs4  1  0.72716559  0.19865869  0.83530892  1
  Cs  Cs5  1  0.05439423  0.82253728  0.64963963  1
  Cs  Cs6  1  0.44560577  0.82253728  0.14963963  1
  Cs  Cs7  1  0.55439423  0.17746272  0.85036037  1
  Cs  Cs8  1  0.23304943  0.31124065  0.70085346  1
  Cs  Cs9  1  0.06504930  0.30255191  0.73601099  1
  Cs  Cs10  1  0.77283441  0.19865869  0.33530892  1
  Cs  Cs11  1  0.43495070  0.30255191  0.23601099  1
  Cs  Cs12  1  0.94560577  0.17746272  0.35036037  1
  Cs  Cs13  1  0.56504930  0.69744809  0.76398901  1
  Cs  Cs14  1  0.22716559  0.80134131  0.66469108  1
  Cs  Cs15  1  0.93495070  0.69744809  0.26398901  1
  Th  Th0  1  0.59914794  0.64864743  0.29087457  1
  Th  Th1  1  0.90085206  0.64864743  0.79087457  1
  Th  Th2  1  0.60832725  0.20968991  0.33985986  1
  Th  Th3  1  0.10832725  0.79031009  0.16014014  1
  Th  Th4  1  0.89167275  0.20968991  0.83985986  1
  Th  Th5  1  0.09914794  0.35135257  0.20912543  1
  Th  Th6  1  0.39167275  0.79031009  0.66014014  1
  Th  Th7  1  0.40085206  0.35135257  0.70912543  1
  P  P0  1  0.52877558  0.97633505  0.44794005  1
  P  P1  1  0.81319770  0.38074940  0.00241905  1
  P  P2  1  0.31319770  0.61925060  0.49758095  1
  P  P3  1  0.47122442  0.02366495  0.55205995  1
  P  P4  1  0.68680230  0.38074940  0.50241905  1
  P  P5  1  0.66495797  0.99850899  0.13678702  1
  P  P6  1  0.13528829  0.14011084  0.48193907  1
  P  P7  1  0.83504203  0.99850899  0.63678702  1
  P  P8  1  0.33504203  0.00149101  0.86321298  1
  P  P9  1  0.13723091  0.51806976  0.90506048  1
  P  P10  1  0.02877558  0.02366495  0.05205995  1
  P  P11  1  0.86276909  0.48193024  0.09493952  1
  P  P12  1  0.36276909  0.51806976  0.40506048  1
  P  P13  1  0.63528829  0.85988916  0.01806093  1
  P  P14  1  0.36471171  0.14011084  0.98193907  1
  P  P15  1  0.63723091  0.48193024  0.59493952  1
  P  P16  1  0.97122442  0.97633505  0.94794005  1
  P  P17  1  0.86471171  0.85988916  0.51806093  1
  P  P18  1  0.16495797  0.00149101  0.36321298  1
  P  P19  1  0.18680230  0.61925060  0.99758095  1
  Se  Se0  1  0.35299574  0.31377893  0.47468962  1
  Se  Se1  1  0.72950748  0.98712850  0.11646229  1
  Se  Se2  1  0.35965103  0.06421692  0.67742239  1
  Se  Se3  1  0.63902238  0.19381411  0.08437674  1
  Se  Se4  1  0.64034897  0.93578308  0.32257761  1
  Se  Se5  1  0.82727748  0.17311382  0.03577520  1
  Se  Se6  1  0.24526267  0.56117924  0.93910657  1
  Se  Se7  1  0.64004675  0.43318942  0.78875909  1
  Se  Se8  1  0.47287884  0.89192375  0.72284978  1
  Se  Se9  1  0.74526267  0.43882076  0.56089343  1
  Se  Se10  1  0.14004675  0.56681058  0.71124091  1
  Se  Se11  1  0.57951598  0.03131803  0.56078697  1
  Se  Se12  1  0.35995325  0.56681058  0.21124091  1
  Se  Se13  1  0.02470991  0.22944114  0.07758444  1
  Se  Se14  1  0.85375135  0.93130720  0.33082590  1
  Se  Se15  1  0.02013560  0.46387306  0.25419833  1
  Se  Se16  1  0.02712116  0.89192375  0.22284978  1
  Se  Se17  1  0.14034897  0.06421692  0.17742239  1
  Se  Se18  1  0.52470991  0.77055886  0.42241556  1
  Se  Se19  1  0.27049252  0.01287150  0.88353771  1
  Se  Se20  1  0.85995325  0.43318942  0.28875909  1
  Se  Se21  1  0.92905531  0.83903412  0.57321656  1
  Se  Se22  1  0.42905531  0.16096588  0.92678344  1
  Se  Se23  1  0.14624865  0.06869280  0.66917410  1
  Se  Se24  1  0.97529009  0.77055886  0.92241556  1
  Se  Se25  1  0.16485143  0.32168216  0.40527507  1
  Se  Se26  1  0.52013560  0.53612694  0.24580167  1
  Se  Se27  1  0.22950748  0.01287150  0.38353771  1
  Se  Se28  1  0.57993654  0.42681153  0.50096485  1
  Se  Se29  1  0.83514857  0.67831784  0.59472493  1
  Se  Se30  1  0.47986440  0.46387306  0.75419833  1
  Se  Se31  1  0.07279952  0.57434897  0.34856527  1
  Se  Se32  1  0.32727748  0.82688618  0.46422480  1
  Se  Se33  1  0.17272252  0.82688618  0.96422480  1
  Se  Se34  1  0.86097762  0.19381411  0.58437674  1
  Se  Se35  1  0.77049252  0.98712850  0.61646229  1
  Se  Se36  1  0.75473733  0.43882076  0.06089343  1
  Se  Se37  1  0.07993654  0.57318847  -0.00096485  1
  Se  Se38  1  0.85965103  0.93578308  0.82257761  1
  Se  Se39  1  0.36097762  0.80618589  0.91562326  1
  Se  Se40  1  0.67135055  0.43214537  0.30499326  1
  Se  Se41  1  0.57279952  0.42565103  0.15143473  1
  Se  Se42  1  0.57094469  0.83903412  0.07321656  1
  Se  Se43  1  0.13902238  0.80618589  0.41562326  1
  Se  Se44  1  0.25473733  0.56117924  0.43910657  1
  Se  Se45  1  0.52712116  0.10807625  0.27715022  1
  Se  Se46  1  0.47529009  0.22944114  0.57758444  1
  Se  Se47  1  0.67272252  0.17311382  0.53577520  1
  Se  Se48  1  0.97986440  0.53612694  0.74580167  1
  Se  Se49  1  0.82864945  0.43214537  0.80499326  1
  Se  Se50  1  0.07094469  0.16096588  0.42678344  1
  Se  Se51  1  0.42048402  0.96868197  0.43921303  1
  Se  Se52  1  0.33514857  0.32168216  0.90527507  1
  Se  Se53  1  0.32864945  0.56785463  0.69500674  1
  Se  Se54  1  0.17135055  0.56785463  0.19500674  1
  Se  Se55  1  0.85299574  0.68622107  0.02531038  1
  Se  Se56  1  0.92720048  0.42565103  0.65143473  1
  Se  Se57  1  0.92006346  0.42681153  0.00096485  1
  Se  Se58  1  0.64700426  0.68622107  0.52531038  1
  Se  Se59  1  0.42006346  0.57318847  0.49903515  1
  Se  Se60  1  0.66485143  0.67831784  0.09472493  1
  Se  Se61  1  0.14700426  0.31377893  0.97468962  1
  Se  Se62  1  0.64624865  0.93130720  0.83082590  1
  Se  Se63  1  0.42720048  0.57434897  0.84856527  1
  Se  Se64  1  0.07951598  0.96868197  0.93921303  1
  Se  Se65  1  0.92048402  0.03131803  0.06078697  1
  Se  Se66  1  0.97287884  0.10807625  0.77715022  1
  Se  Se67  1  0.35375135  0.06869280  0.16917410  1
loop_
_geom_bond_atom_site_label_1
_geom_bond_atom_site_label_2
_geom_bond_distance
_geom_bond_site_symmetry_2
Cs0 Se35 3.707871 1_555
Cs0 Se36 3.723787 1_556
Cs0 Se62 3.832585 1_555
Cs0 Se9 3.883037 1_555
Cs0 Se60 3.927342 1_556
Cs0 Se29 4.033864 1_555
Cs0 Se7 4.043911 1_555
Cs0 Se49 4.102298 1_555
Cs0 Se58 4.119620 1_555
Cs1 Se19 3.588431 1_564
Cs1 Se27 3.695384 1_565
Cs1 Se44 3.742274 1_555
Cs1 Se12 3.746568 1_555
Cs1 Se32 3.769458 1_555
Cs1 Se6 3.793129 1_554
Cs1 Se67 3.835491 1_565
Cs1 Se33 3.941351 1_554
Cs1 P19 3.946062 1_554
Cs1 Se39 3.970495 1_554
Cs1 Se54 4.102966 1_555
Cs2 Se27 3.707871 1_555
Cs2 Se6 3.723787 1_554
Cs2 Se67 3.832585 1_555
Cs2 Se44 3.883037 1_555
Cs2 Se52 3.927342 1_554
Cs2 Se25 4.033864 1_555
Cs2 Se12 4.043911 1_555
Cs2 Se54 4.102298 1_555
Cs2 Se0 4.119620 1_555
Cs3 Se1 3.707871 1_555
Cs3 Se9 3.723787 1_555
Cs3 Se14 3.832585 1_555
Cs3 Se36 3.883037 1_555
Cs3 Se29 3.927342 1_555
Cs3 Se60 4.033864 1_555
Cs3 Se20 4.043911 1_555
Cs3 Se40 4.102298 1_555
Cs3 Se55 4.119620 1_555
Cs4 Se1 3.588431 1_546
Cs4 Se35 3.695384 1_545
Cs4 Se9 3.742274 1_555
Cs4 Se7 3.746568 1_555
Cs4 Se47 3.769458 1_555
Cs4 Se36 3.793129 1_556
Cs4 Se62 3.835491 1_545
Cs4 Se5 3.941351 1_556
Cs4 P1 3.946062 1_556
Cs4 Se3 3.970495 1_556
Cs4 Se49 4.102966 1_555
Cs5 Se64 3.746865 1_555
Cs5 Se43 3.792785 1_555
Cs5 Se10 3.867531 1_555
Cs5 Se48 3.898796 1_455
Cs5 Se24 3.950496 1_455
Cs5 Se23 3.962794 1_565
Cs5 Se50 4.089972 1_565
Cs5 Se21 4.191192 1_455
Cs6 Se51 3.746865 1_555
Cs6 Se39 3.792785 1_554
Cs6 Se12 3.867531 1_555
Cs6 Se26 3.898796 1_555
Cs6 Se18 3.950496 1_555
Cs6 Se67 3.962794 1_565
Cs6 Se22 4.089972 1_564
Cs6 Se42 4.191192 1_555
Cs7 Se11 3.746865 1_555
Cs7 Se3 3.792785 1_556
Cs7 Se7 3.867531 1_555
Cs7 Se30 3.898796 1_555
Cs7 Se46 3.950496 1_555
Cs7 Se62 3.962794 1_545
Cs7 Se42 4.089972 1_546
Cs7 Se22 4.191192 1_555
Cs8 Se19 3.707871 1_555
Cs8 Se44 3.723787 1_555
Cs8 Se23 3.832585 1_555
Cs8 Se6 3.883037 1_555
Cs8 Se25 3.927342 1_555
Cs8 Se52 4.033864 1_555
Cs8 Se10 4.043911 1_555
Cs8 Se53 4.102298 1_555
Cs8 Se61 4.119620 1_555
Cs9 Se66 3.630701 1_455
Cs9 Se10 3.664912 1_555
Cs9 Se48 3.700799 1_455
Cs9 Se23 3.720215 1_555
Cs9 Se61 3.758919 1_555
Cs9 Se50 3.834910 1_555
Cs9 Se64 3.937596 1_545
Cs9 Se13 3.967155 1_556
Cs10 Se35 3.588431 1_545
Cs10 Se1 3.695384 1_545
Cs10 Se36 3.742274 1_555
Cs10 Se20 3.746568 1_555
Cs10 Se5 3.769458 1_555
Cs10 Se9 3.793129 1_555
Cs10 Se14 3.835491 1_545
Cs10 Se47 3.941351 1_555
Cs10 P4 3.946062 1_555
Cs10 Se34 3.970495 1_555
Cs10 Se40 4.102966 1_555
Cs11 Se45 3.630701 1_555
Cs11 Se12 3.664912 1_555
Cs11 Se26 3.700799 1_555
Cs11 Se67 3.720215 1_555
Cs11 Se0 3.758919 1_555
Cs11 Se22 3.834910 1_554
Cs11 Se51 3.937596 1_545
Cs11 Se46 3.967155 1_555
Cs12 Se65 3.746865 1_555
Cs12 Se34 3.792785 1_555
Cs12 Se20 3.867531 1_555
Cs12 Se15 3.898796 1_655
Cs12 Se13 3.950496 1_655
Cs12 Se14 3.962794 1_545
Cs12 Se21 4.089972 1_545
Cs12 Se50 4.191192 1_655
Cs13 Se8 3.630701 1_555
Cs13 Se7 3.664912 1_555
Cs13 Se30 3.700799 1_555
Cs13 Se62 3.720215 1_555
Cs13 Se58 3.758919 1_555
Cs13 Se42 3.834910 1_556
Cs13 Se11 3.937596 1_565
Cs13 Se18 3.967155 1_555
Cs14 Se27 3.588431 1_565
Cs14 Se19 3.695384 1_565
Cs14 Se6 3.742274 1_555
Cs14 Se10 3.746568 1_555
Cs14 Se33 3.769458 1_555
Cs14 Se44 3.793129 1_555
Cs14 Se23 3.835491 1_565
Cs14 Se32 3.941351 1_555
Cs14 P2 3.946062 1_555
Cs14 Se43 3.970495 1_555
Cs14 Se53 4.102966 1_555
Cs15 Se16 3.630701 1_655
Cs15 Se20 3.664912 1_555
Cs15 Se15 3.700799 1_655
Cs15 Se14 3.720215 1_555
Cs15 Se55 3.758919 1_555
Cs15 Se21 3.834910 1_555
Cs15 Se65 3.937596 1_565
Cs15 Se24 3.967155 1_554
P0 Se18 2.180184 1_555
P0 Se11 2.182718 1_565
P0 Se45 2.197651 1_565
P0 P3 2.283536 1_565
P1 Se36 2.126323 1_555
P1 Se5 2.190162 1_555
P1 Se49 2.231414 1_554
P1 P11 2.232536 1_555
P2 Se44 2.126323 1_555
P2 Se32 2.190162 1_555
P2 Se53 2.231414 1_555
P3 Se46 2.180184 1_555
P3 Se51 2.182718 1_545
P3 Se8 2.197651 1_545
P4 Se9 2.126323 1_555
P4 Se47 2.190162 1_555
P4 Se40 2.231414 1_555
P5 Se1 2.131222 1_555
P5 Se3 2.211781 1_565
P5 Se4 2.222650 1_555
P6 Se23 2.137222 1_555
P6 Se50 2.197555 1_555
P6 Se25 2.200586 1_555
P7 Se35 2.131222 1_555
P7 Se34 2.211781 1_565
P7 Se38 2.222650 1_555
P8 Se19 2.131222 1_555
P8 Se39 2.211781 1_545
P8 Se2 2.222650 1_555
P9 Se10 2.133099 1_555
P9 Se61 2.194175 1_555
P9 Se37 2.243413 1_556
P10 Se13 2.180184 1_555
P10 Se64 2.182718 1_544
P10 Se16 2.197651 1_545
P10 P16 2.283536 1_444
P11 Se20 2.133099 1_555
P11 Se55 2.194175 1_555
P11 Se57 2.243413 1_555
P12 Se12 2.133099 1_555
P12 Se0 2.194175 1_555
P12 P2 2.232536 1_555
P12 Se59 2.243413 1_555
P13 Se62 2.137222 1_554
P13 Se42 2.197555 1_555
P13 Se60 2.200586 1_555
P13 P5 2.255106 1_555
P14 Se67 2.137222 1_556
P14 Se22 2.197555 1_555
P14 Se52 2.200586 1_555
P14 P8 2.255106 1_555
P15 Se7 2.133099 1_555
P15 Se58 2.194175 1_555
P15 P4 2.232536 1_555
P15 Se28 2.243413 1_555
P16 Se24 2.180184 1_555
P16 Se65 2.182718 1_566
P16 Se66 2.197651 1_565
P17 Se14 2.137222 1_555
P17 Se21 2.197555 1_555
P17 Se29 2.200586 1_555
P17 P7 2.255106 1_555
P18 Se27 2.131222 1_555
P18 Se43 2.211781 1_545
P18 Se17 2.222650 1_555
P18 P6 2.255106 1_555
P19 Se6 2.126323 1_555
P19 Se33 2.190162 1_555
P19 Se54 2.231414 1_556
P19 P9 2.232536 1_555
Se0 Th7 3.069126 1_555
Se2 Th6 3.046276 1_545
Se2 Th7 3.314272 1_555
Se3 Th2 2.995622 1_555
Se4 Th2 3.046276 1_565
Se4 Th0 3.314272 1_555
Se5 Th4 3.005752 1_554
Se8 Th6 2.967881 1_555
Se11 Th2 3.036946 1_555
Se13 Th5 3.162007 1_555
Se15 Se31 2.366628 1_555
Se15 Th5 2.902035 1_555
Se16 Th3 2.967881 1_555
Se17 Th3 3.046276 1_545
Se17 Th5 3.314272 1_555
Se18 Th0 3.162007 1_555
Se21 Th1 3.072400 1_555
Se22 Th7 3.072400 1_555
Se24 Th1 3.162007 1_555
Se25 Th5 3.035010 1_555
Se26 Se41 2.366628 1_555
Se26 Th0 2.902035 1_555
Se28 Th0 3.139776 1_555
Se28 Th2 3.139905 1_555
Se29 Th1 3.035010 1_555
Se30 Se63 2.366628 1_555
Se30 Th7 2.902035 1_555
Se31 Th5 3.023495 1_555
Se31 Th3 3.105673 1_555
Se32 Th6 3.005752 1_555
Se33 Th3 3.005752 1_556
Se34 Th4 2.995622 1_555
Se37 Th5 3.139776 1_555
Se37 Th3 3.139905 1_555
Se38 Th4 3.046276 1_565
Se38 Th1 3.314272 1_555
Se39 Th6 2.995622 1_555
Se40 Th2 3.085941 1_555
Se40 Th0 3.250447 1_555
Se41 Th0 3.023495 1_555
Se41 Th2 3.105673 1_555
Se42 Th0 3.072400 1_555
Se43 Th3 2.995622 1_555
Se45 Th2 2.967881 1_555
Se46 Th7 3.162007 1_555
Se47 Th2 3.005752 1_555
Se48 Se56 2.366628 1_555
Se48 Th1 2.902035 1_555
Se49 Th4 3.085941 1_555
Se49 Th1 3.250447 1_555
Se50 Th5 3.072400 1_555
Se51 Th6 3.036946 1_555
Se52 Th7 3.035010 1_555
Se53 Th6 3.085941 1_555
Se53 Th7 3.250447 1_555
Se54 Th3 3.085941 1_555
Se54 Th5 3.250447 1_555
Se55 Th1 3.069126 1_554
Se56 Th1 3.023495 1_555
Se56 Th4 3.105673 1_555
Se57 Th1 3.139776 1_554
Se57 Th4 3.139905 1_554
Se58 Th0 3.069126 1_555
Se59 Th7 3.139776 1_555
Se59 Th6 3.139905 1_555
Se60 Th0 3.035010 1_555
Se61 Th5 3.069126 1_556
Se63 Th7 3.023495 1_555
Se63 Th6 3.105673 1_555
Se64 Th3 3.036946 1_556
Se65 Th4 3.036946 1_554
Se66 Th4 2.967881 1_555
