# generated using pymatgen
data_LiScSiO4
_symmetry_space_group_name_H-M   'P 1'
_cell_length_a   4.86424600
_cell_length_b   6.03278800
_cell_length_c   10.52991500
_cell_angle_alpha   90.00000000
_cell_angle_beta   90.00000000
_cell_angle_gamma   90.00000000
_symmetry_Int_Tables_number   1
_chemical_formula_structural   LiScSiO4
_chemical_formula_sum   'Li4 Sc4 Si4 O16'
_cell_volume   308.99998605
_cell_formula_units_Z   4
loop_
 _symmetry_equiv_pos_site_id
 _symmetry_equiv_pos_as_xyz
  1  'x, y, z'
loop_
 _atom_site_type_symbol
 _atom_site_label
 _atom_site_symmetry_multiplicity
 _atom_site_fract_x
 _atom_site_fract_y
 _atom_site_fract_z
 _atom_site_occupancy
  Li  Li0  1  0.00000000  0.00000000  0.00000000  1
  Li  Li1  1  0.50000000  0.00000000  0.50000000  1
  Li  Li2  1  0.00000000  0.50000000  0.00000000  1
  Li  Li3  1  0.50000000  0.50000000  0.50000000  1
  Sc  Sc0  1  0.50543500  0.25000000  0.22531200  1
  Sc  Sc1  1  0.99456500  0.25000000  0.72531200  1
  Sc  Sc2  1  0.49456500  0.75000000  0.77468800  1
  Sc  Sc3  1  0.00543500  0.75000000  0.27468800  1
  Si  Si0  1  0.56625700  0.75000000  0.09154200  1
  Si  Si1  1  0.43374300  0.25000000  0.90845800  1
  Si  Si2  1  0.93374300  0.75000000  0.59154200  1
  Si  Si3  1  0.06625700  0.25000000  0.40845800  1
  O  O0  1  0.78438700  0.53958300  0.66877700  1
  O  O1  1  0.21561300  0.46041700  0.33122300  1
  O  O2  1  0.71561300  0.53958300  0.16877700  1
  O  O3  1  0.78438700  0.96041700  0.66877700  1
  O  O4  1  0.28438700  0.03958300  0.83122300  1
  O  O5  1  0.76644800  0.25000000  0.89915200  1
  O  O6  1  0.28438700  0.46041700  0.83122300  1
  O  O7  1  0.21561300  0.03958300  0.33122300  1
  O  O8  1  0.23355200  0.75000000  0.10084800  1
  O  O9  1  0.73355200  0.25000000  0.39915200  1
  O  O10  1  0.80448100  0.75000000  0.44809700  1
  O  O11  1  0.26644800  0.75000000  0.60084800  1
  O  O12  1  0.69551900  0.75000000  0.94809700  1
  O  O13  1  0.30448100  0.25000000  0.05190300  1
  O  O14  1  0.19551900  0.25000000  0.55190300  1
  O  O15  1  0.71561300  0.96041700  0.16877700  1
loop_
_geom_bond_atom_site_label_1
_geom_bond_atom_site_label_2
_geom_bond_distance
_geom_bond_site_symmetry_2
Li0 O5 2.166323 1_454
Li0 O8 2.166323 1_545
Li0 O12 2.183329 1_444
Li0 O13 2.183329 1_555
Li0 O4 2.264749 1_554
Li0 O15 2.264749 1_445
Li1 O9 2.166323 1_555
Li1 O11 2.166323 1_545
Li1 O10 2.183329 1_545
Li1 O14 2.183329 1_555
Li1 O3 2.264749 1_545
Li1 O7 2.264749 1_555
Li2 O8 2.166323 1_555
Li2 O5 2.166323 1_454
Li2 O13 2.183329 1_555
Li2 O12 2.183329 1_454
Li2 O6 2.264749 1_554
Li2 O2 2.264749 1_455
Li3 O9 2.166323 1_555
Li3 O11 2.166323 1_555
Li3 O10 2.183329 1_555
Li3 O14 2.183329 1_555
Li3 O0 2.264749 1_555
Li3 O1 2.264749 1_555
O0 Si2 1.673502 1_555
O0 Sc1 2.109879 1_555
O0 Sc2 2.200583 1_555
O1 Si3 1.673502 1_555
O1 Sc3 2.109879 1_555
O1 Sc0 2.200583 1_555
O2 Si0 1.673502 1_555
O2 Sc0 2.109879 1_555
O2 Sc3 2.200583 1_655
O3 Si2 1.673502 1_555
O3 Sc1 2.109879 1_565
O3 Sc2 2.200583 1_555
O4 Si1 1.673502 1_555
O4 Sc2 2.109879 1_545
O4 Sc1 2.200583 1_455
O5 Si1 1.621323 1_555
O5 Sc1 2.140574 1_555
O6 Si1 1.673502 1_555
O6 Sc2 2.109879 1_555
O6 Sc1 2.200583 1_455
O7 Si3 1.673502 1_555
O7 Sc3 2.109879 1_545
O7 Sc0 2.200583 1_555
O8 Si0 1.621323 1_555
O8 Sc3 2.140574 1_555
O9 Si3 1.621323 1_655
O9 Sc0 2.140574 1_555
O10 Si2 1.636106 1_555
O10 Sc3 2.071158 1_655
O11 Si2 1.621323 1_455
O11 Sc2 2.140574 1_555
O12 Si0 1.636106 1_556
O12 Sc2 2.071158 1_555
O13 Si1 1.636106 1_554
O13 Sc0 2.071158 1_555
O14 Si3 1.636106 1_555
O14 Sc1 2.071158 1_455
O15 Si0 1.673502 1_555
O15 Sc0 2.109879 1_565
O15 Sc3 2.200583 1_655
