# generated using pymatgen
data_Os4C13SO13
_symmetry_space_group_name_H-M   'P 1'
_cell_length_a   9.70661400
_cell_length_b   15.57688467
_cell_length_c   15.85994455
_cell_angle_alpha   113.26233731
_cell_angle_beta   99.37368122
_cell_angle_gamma   95.54733742
_symmetry_Int_Tables_number   1
_chemical_formula_structural   Os4C13SO13
_chemical_formula_sum   'Os16 C52 S4 O52'
_cell_volume   2139.08524625
_cell_formula_units_Z   4
loop_
 _symmetry_equiv_pos_site_id
 _symmetry_equiv_pos_as_xyz
  1  'x, y, z'
loop_
 _atom_site_type_symbol
 _atom_site_label
 _atom_site_symmetry_multiplicity
 _atom_site_fract_x
 _atom_site_fract_y
 _atom_site_fract_z
 _atom_site_occupancy
  Os  Os0  1  0.82601400  0.87981200  0.82980300  1
  Os  Os1  1  0.17398600  0.12018800  0.17019700  1
  Os  Os2  1  0.57555300  0.17732300  0.69092800  1
  Os  Os3  1  0.43109300  0.31594500  0.66249900  1
  Os  Os4  1  0.06140100  0.80302000  0.76177000  1
  Os  Os5  1  0.67271300  0.27126600  0.58482500  1
  Os  Os6  1  0.31595600  0.21325700  0.76360000  1
  Os  Os7  1  0.82497100  0.34514400  0.19229700  1
  Os  Os8  1  0.42444700  0.82267700  0.30907200  1
  Os  Os9  1  0.93859900  0.19698000  0.23823000  1
  Os  Os10  1  0.56890700  0.68405500  0.33750100  1
  Os  Os11  1  0.32728700  0.72873400  0.41517500  1
  Os  Os12  1  0.17502900  0.65485600  0.80770300  1
  Os  Os13  1  0.09478100  0.28541200  0.15117300  1
  Os  Os14  1  0.90521900  0.71458800  0.84882700  1
  Os  Os15  1  0.68404400  0.78674300  0.23640000  1
  C  C0  1  0.79250100  0.61286200  0.73827500  1
  C  C1  1  0.72630200  0.24101300  0.07051400  1
  C  C2  1  0.31215900  0.19422100  0.28490600  1
  C  C3  1  0.26057200  0.82761700  0.76677400  1
  C  C4  1  0.93582900  0.43717300  0.31578000  1
  C  C5  1  0.32073700  0.66467200  0.49463200  1
  C  C6  1  0.30219300  0.08023700  0.09020700  1
  C  C7  1  0.14272700  0.25238900  0.79383900  1
  C  C8  1  0.78492600  0.88392300  0.36196100  1
  C  C9  1  0.68638200  0.87289600  0.17822000  1
  C  C10  1  0.06417100  0.56282700  0.68422000  1
  C  C11  1  0.57205000  0.68159100  0.12130800  1
  C  C12  1  0.79814700  0.19800700  0.52037700  1
  C  C13  1  0.43333800  0.38641500  0.58645500  1
  C  C14  1  0.21507400  0.11607700  0.63803900  1
  C  C15  1  0.34557200  0.64596100  0.76250000  1
  C  C16  1  0.25722600  0.87010900  0.34324800  1
  C  C17  1  0.19764300  0.55877700  0.85312600  1
  C  C18  1  0.74399900  0.73605400  0.90433600  1
  C  C19  1  0.20185300  0.80199300  0.47962300  1
  C  C20  1  0.96163600  0.09378200  0.27276600  1
  C  C21  1  0.81037500  0.36628300  0.68740900  1
  C  C22  1  0.68328300  0.24820800  0.81692500  1
  C  C23  1  0.49085700  0.94293400  0.30992100  1
  C  C24  1  0.85727300  0.74761100  0.20616100  1
  C  C25  1  0.31671700  0.75179200  0.18307500  1
  C  C26  1  0.50914300  0.05706600  0.69007900  1
  C  C27  1  0.84571500  0.00282000  0.83199300  1
  C  C28  1  0.65442800  0.35403900  0.23750000  1
  C  C29  1  0.67926300  0.33532800  0.50536800  1
  C  C30  1  0.95544100  0.64468100  0.92275900  1
  C  C31  1  0.18962500  0.63371700  0.31259100  1
  C  C32  1  0.76610700  0.67758600  0.34353000  1
  C  C33  1  0.00892000  0.28217800  0.36756000  1
  C  C34  1  0.04455900  0.35531900  0.07724100  1
  C  C35  1  0.20749900  0.38713800  0.26172500  1
  C  C36  1  0.48615200  0.57204800  0.22643700  1
  C  C37  1  0.80235700  0.44122300  0.14687400  1
  C  C38  1  0.03836400  0.90621800  0.72723400  1
  C  C39  1  0.31361800  0.12710400  0.82178000  1
  C  C40  1  0.73942800  0.17238300  0.23322600  1
  C  C41  1  0.51384800  0.42795200  0.77356300  1
  C  C42  1  0.69780700  0.91976300  0.90979300  1
  C  C43  1  0.42795000  0.31840900  0.87869200  1
  C  C44  1  0.15428500  0.99718000  0.16800700  1
  C  C45  1  0.56666200  0.61358500  0.41354500  1
  C  C46  1  0.68784100  0.80577900  0.71509400  1
  C  C47  1  0.23389300  0.32241400  0.65647000  1
  C  C48  1  0.27369800  0.75898700  0.92948600  1
  C  C49  1  0.25600100  0.26394600  0.09566400  1
  C  C50  1  0.99108000  0.71782200  0.63244000  1
  C  C51  1  0.74277400  0.12989100  0.65675200  1
  S  S0  1  0.44998700  0.16498400  0.53967400  1
  S  S1  1  0.03842000  0.87549300  0.92427300  1
  S  S2  1  0.55001300  0.83501600  0.46032600  1
  S  S3  1  0.96158000  0.12450700  0.07572700  1
  O  O0  1  0.43024100  0.50208700  0.16141800  1
  O  O1  1  0.15706600  0.90495300  0.35585700  1
  O  O2  1  0.30866500  0.62501900  0.54233400  1
  O  O3  1  0.85954000  0.07949900  0.83587700  1
  O  O4  1  0.87723200  0.15505800  0.48062100  1
  O  O5  1  0.96761300  0.60214300  0.96895100  1
  O  O6  1  0.28172900  0.44497000  0.33029600  1
  O  O7  1  0.15096000  0.05979000  0.56622600  1
  O  O8  1  0.64696300  0.73912200  0.93958800  1
  O  O9  1  0.62067200  0.15160900  0.23304200  1
  O  O10  1  0.69133500  0.37498100  0.45766600  1
  O  O11  1  0.88943100  0.42407400  0.75322100  1
  O  O12  1  0.12276800  0.84494200  0.51937900  1
  O  O13  1  0.31155500  0.07467300  0.85711400  1
  O  O14  1  0.96075600  0.03494600  0.30093000  1
  O  O15  1  0.44954700  0.63987800  0.73517900  1
  O  O16  1  0.48843900  0.38037700  0.94856200  1
  O  O17  1  0.37989700  0.05390100  0.04058900  1
  O  O18  1  0.11056900  0.57592600  0.24677900  1
  O  O19  1  0.37932800  0.84839100  0.76695800  1
  O  O20  1  0.84293400  0.09504700  0.64414300  1
  O  O21  1  0.51156100  0.61962300  0.05143800  1
  O  O22  1  0.42169300  0.43242100  0.54421200  1
  O  O23  1  0.52083000  0.01874900  0.31341900  1
  O  O24  1  0.14046000  0.92050100  0.16412300  1
  O  O25  1  0.75417800  0.29374900  0.89154000  1
  O  O26  1  0.61313000  0.74877400  0.64639400  1
  O  O27  1  0.47917000  0.98125100  0.68658100  1
  O  O28  1  0.96361900  0.72497900  0.18969900  1
  O  O29  1  0.34083500  0.81803700  0.99899100  1
  O  O30  1  0.62010300  0.94609900  0.95941100  1
  O  O31  1  0.03238700  0.39785700  0.03104900  1
  O  O32  1  0.21454700  0.50087800  0.88042300  1
  O  O33  1  0.68844500  0.92532700  0.14288600  1
  O  O34  1  0.84904000  0.94021000  0.43377400  1
  O  O35  1  0.65916500  0.18196300  0.00100900  1
  O  O36  1  0.78545300  0.49912200  0.11957700  1
  O  O37  1  0.55045300  0.36012200  0.26482100  1
  O  O38  1  0.03924400  0.96505400  0.69907000  1
  O  O39  1  0.03638100  0.27502100  0.81030100  1
  O  O40  1  0.11653800  0.33522200  0.64733900  1
  O  O41  1  0.05777600  0.33062600  0.44654400  1
  O  O42  1  0.56975900  0.49791300  0.83858200  1
  O  O43  1  0.94222400  0.66937400  0.55345600  1
  O  O44  1  0.35303700  0.26087800  0.06041200  1
  O  O45  1  0.99459800  0.49383800  0.38914700  1
  O  O46  1  0.00540200  0.50616200  0.61085300  1
  O  O47  1  0.24582200  0.70625100  0.10846000  1
  O  O48  1  0.38687000  0.25122600  0.35360600  1
  O  O49  1  0.71827100  0.55503000  0.66970400  1
  O  O50  1  0.57830700  0.56757900  0.45578800  1
  O  O51  1  0.88346200  0.66477800  0.35266100  1
loop_
_geom_bond_atom_site_label_1
_geom_bond_atom_site_label_2
_geom_bond_distance
_geom_bond_site_symmetry_2
Os0 S1 2.366508 1_655
Os1 S3 2.366508 1_455
Os2 S0 2.432116 1_555
Os3 S0 2.437090 1_555
Os4 S1 2.429894 1_555
Os5 S0 2.407237 1_555
Os8 S2 2.432116 1_555
Os9 S3 2.429894 1_555
Os10 S2 2.437090 1_555
Os11 S2 2.407237 1_555
Os13 S3 2.426124 1_455
Os14 S1 2.426124 1_655
C0 O49 1.165680 1_555
C0 Os14 1.904615 1_555
C1 O35 1.155466 1_555
C1 Os7 1.975168 1_555
C2 O48 1.164241 1_555
C2 Os1 1.920268 1_555
C3 O19 1.165986 1_555
C3 Os4 1.916624 1_555
C4 O45 1.154831 1_555
C4 Os7 1.961143 1_555
C5 O2 1.162589 1_555
C5 Os11 1.896051 1_555
C6 O17 1.163879 1_555
C6 Os1 1.893616 1_555
C7 O39 1.159074 1_555
C7 Os6 1.912806 1_555
C8 O34 1.152422 1_555
C8 Os15 1.978155 1_555
C9 O33 1.159082 1_555
C9 Os15 1.905767 1_555
C10 O46 1.154831 1_555
C10 Os12 1.961143 1_555
C11 O21 1.156733 1_555
C11 Os15 1.960682 1_555
C12 O4 1.165413 1_555
C12 Os5 1.892636 1_555
C13 O22 1.159927 1_555
C13 Os3 1.926044 1_555
C14 O7 1.152422 1_555
C14 Os6 1.978155 1_555
C15 O15 1.159234 1_555
C15 Os12 1.904199 1_555
C16 O1 1.165933 1_555
C16 Os8 1.917399 1_555
C17 O32 1.158288 1_555
C17 Os12 1.915892 1_555
C18 O8 1.166691 1_555
C18 Os14 1.911332 1_555
C19 O12 1.165413 1_555
C19 Os11 1.892636 1_555
C20 O14 1.167313 1_555
C20 Os9 1.912896 1_555
C21 O11 1.162772 1_555
C21 Os5 1.905404 1_555
C22 O25 1.163808 1_555
C22 Os2 1.912884 1_555
C23 O23 1.165743 1_565
C23 Os8 1.915331 1_555
C24 O28 1.159074 1_555
C24 Os15 1.912806 1_555
C25 O47 1.163808 1_555
C25 Os8 1.912884 1_555
C26 O27 1.165743 1_545
C26 Os2 1.915331 1_555
C27 O3 1.164750 1_555
C27 Os0 1.893032 1_545
C28 O37 1.159234 1_555
C28 Os7 1.904199 1_555
C29 O10 1.162589 1_555
C29 Os5 1.896051 1_555
C30 O5 1.166229 1_555
C30 Os14 1.929584 1_555
C31 O18 1.162772 1_555
C31 Os11 1.905404 1_555
C32 O51 1.171065 1_555
C32 Os10 1.915340 1_555
C33 O41 1.163701 1_555
C33 Os9 1.911298 1_455
C34 O31 1.166229 1_555
C34 Os13 1.929584 1_555
C35 O6 1.165680 1_555
C35 Os13 1.904615 1_555
C36 O0 1.166711 1_555
C36 Os10 1.905957 1_555
C37 O36 1.158288 1_555
C37 Os7 1.915892 1_555
C38 O38 1.167313 1_555
C38 Os4 1.912896 1_555
C39 O13 1.159082 1_555
C39 Os6 1.905767 1_555
C40 O9 1.165986 1_555
C40 Os9 1.916624 1_555
C41 O42 1.166711 1_555
C41 Os3 1.905957 1_555
C42 O30 1.163879 1_555
C42 Os0 1.893616 1_555
C43 O16 1.156733 1_555
C43 Os6 1.960682 1_555
C44 O24 1.164750 1_555
C44 Os1 1.893032 1_565
C45 O50 1.159927 1_555
C45 Os10 1.926044 1_555
C46 O26 1.164241 1_555
C46 Os0 1.920268 1_555
C47 O40 1.171065 1_555
C47 Os3 1.915340 1_555
C48 O29 1.155466 1_555
C48 Os12 1.975168 1_555
C49 O44 1.166691 1_555
C49 Os13 1.911332 1_555
C50 O43 1.163701 1_555
C50 Os4 1.911298 1_655
C51 O20 1.165933 1_555
C51 Os2 1.917399 1_555
