# generated using pymatgen
data_Ca4Te5O14
_symmetry_space_group_name_H-M   'P 1'
_cell_length_a   11.06937300
_cell_length_b   15.97904500
_cell_length_c   16.75691000
_cell_angle_alpha   90.00000000
_cell_angle_beta   90.00000000
_cell_angle_gamma   90.00000000
_symmetry_Int_Tables_number   1
_chemical_formula_structural   Ca4Te5O14
_chemical_formula_sum   'Ca32 Te40 O112'
_cell_volume   2963.92888263
_cell_formula_units_Z   8
loop_
 _symmetry_equiv_pos_site_id
 _symmetry_equiv_pos_as_xyz
  1  'x, y, z'
loop_
 _atom_site_type_symbol
 _atom_site_label
 _atom_site_symmetry_multiplicity
 _atom_site_fract_x
 _atom_site_fract_y
 _atom_site_fract_z
 _atom_site_occupancy
  Ca  Ca0  1  0.38107400  0.73769200  0.31860000  1
  Ca  Ca1  1  0.88566300  0.08960800  0.01245700  1
  Ca  Ca2  1  0.38566300  0.91039200  0.48754300  1
  Ca  Ca3  1  0.61433700  0.08960800  0.51245700  1
  Ca  Ca4  1  0.11892600  0.73769200  0.81860000  1
  Ca  Ca5  1  0.12302900  0.26447200  0.00974400  1
  Ca  Ca6  1  0.87697100  0.73552800  0.99025600  1
  Ca  Ca7  1  0.88403900  0.25617800  0.85463200  1
  Ca  Ca8  1  0.61892600  0.76230800  0.81860000  1
  Ca  Ca9  1  0.11433700  0.41039200  0.51245700  1
  Ca  Ca10  1  0.62302900  0.73552800  0.49025600  1
  Ca  Ca11  1  0.11596100  0.74382200  0.14536800  1
  Ca  Ca12  1  0.11892600  0.23769200  0.68140000  1
  Ca  Ca13  1  0.38403900  0.74382200  0.64536800  1
  Ca  Ca14  1  0.88403900  0.75617800  0.64536800  1
  Ca  Ca15  1  0.37697100  0.76447200  0.99025600  1
  Ca  Ca16  1  0.11596100  0.24382200  0.35463200  1
  Ca  Ca17  1  0.38403900  0.24382200  0.85463200  1
  Ca  Ca18  1  0.38566300  0.41039200  0.01245700  1
  Ca  Ca19  1  0.61433700  0.58960800  0.98754300  1
  Ca  Ca20  1  0.12302900  0.76447200  0.49025600  1
  Ca  Ca21  1  0.61596100  0.25617800  0.35463200  1
  Ca  Ca22  1  0.37697100  0.26447200  0.50974400  1
  Ca  Ca23  1  0.38107400  0.23769200  0.18140000  1
  Ca  Ca24  1  0.87697100  0.23552800  0.50974400  1
  Ca  Ca25  1  0.88566300  0.58960800  0.48754300  1
  Ca  Ca26  1  0.88107400  0.76230800  0.31860000  1
  Ca  Ca27  1  0.61892600  0.26230800  0.68140000  1
  Ca  Ca28  1  0.11433700  0.91039200  0.98754300  1
  Ca  Ca29  1  0.62302900  0.23552800  0.00974400  1
  Ca  Ca30  1  0.61596100  0.75617800  0.14536800  1
  Ca  Ca31  1  0.88107400  0.26230800  0.18140000  1
  Te  Te0  1  0.11249100  0.59224300  0.65357300  1
  Te  Te1  1  0.87248900  0.08537700  0.34657800  1
  Te  Te2  1  0.60230300  0.40973300  0.15928000  1
  Te  Te3  1  0.89769700  0.90973300  0.84072000  1
  Te  Te4  1  0.13569900  0.40739100  0.17544500  1
  Te  Te5  1  0.62751100  0.08537700  0.84657800  1
  Te  Te6  1  0.13569900  0.90739100  0.32455500  1
  Te  Te7  1  0.62612500  0.39785500  0.51297600  1
  Te  Te8  1  0.39769700  0.09026700  0.65928000  1
  Te  Te9  1  0.12751100  0.41462300  0.84657800  1
  Te  Te10  1  0.37387500  0.60214500  0.48702400  1
  Te  Te11  1  0.86430100  0.09260900  0.67544500  1
  Te  Te12  1  0.62612500  0.89785500  0.98702400  1
  Te  Te13  1  0.12751100  0.91462300  0.65342200  1
  Te  Te14  1  0.88750900  0.90775700  0.15357300  1
  Te  Te15  1  0.63569900  0.59260900  0.32455500  1
  Te  Te16  1  0.12612500  0.10214500  0.51297600  1
  Te  Te17  1  0.89769700  0.40973300  0.65928000  1
  Te  Te18  1  0.88750900  0.40775700  0.34642700  1
  Te  Te19  1  0.61249100  0.40775700  0.84642700  1
  Te  Te20  1  0.11249100  0.09224300  0.84642700  1
  Te  Te21  1  0.37248900  0.41462300  0.34657800  1
  Te  Te22  1  0.87248900  0.58537700  0.15342200  1
  Te  Te23  1  0.63569900  0.09260900  0.17544500  1
  Te  Te24  1  0.37387500  0.10214500  0.01297600  1
  Te  Te25  1  0.62751100  0.58537700  0.65342200  1
  Te  Te26  1  0.87387500  0.39785500  0.01297600  1
  Te  Te27  1  0.39769700  0.59026700  0.84072000  1
  Te  Te28  1  0.12612500  0.60214500  0.98702400  1
  Te  Te29  1  0.36430100  0.90739100  0.82455500  1
  Te  Te30  1  0.38750900  0.59224300  0.15357300  1
  Te  Te31  1  0.10230300  0.09026700  0.15928000  1
  Te  Te32  1  0.37248900  0.91462300  0.15342200  1
  Te  Te33  1  0.60230300  0.90973300  0.34072000  1
  Te  Te34  1  0.38750900  0.09224300  0.34642700  1
  Te  Te35  1  0.61249100  0.90775700  0.65357300  1
  Te  Te36  1  0.10230300  0.59026700  0.34072000  1
  Te  Te37  1  0.36430100  0.40739100  0.67544500  1
  Te  Te38  1  0.86430100  0.59260900  0.82455500  1
  Te  Te39  1  0.87387500  0.89785500  0.48702400  1
  O  O0  1  0.03085300  0.16580100  0.92014900  1
  O  O1  1  0.25528800  0.84137300  0.88641600  1
  O  O2  1  0.27792900  0.16971600  0.29905200  1
  O  O3  1  0.55739600  0.98894000  0.41943100  1
  O  O4  1  0.72207100  0.33028400  0.79905200  1
  O  O5  1  0.93938500  0.17009600  0.28215200  1
  O  O6  1  0.25528800  0.34137300  0.61358400  1
  O  O7  1  0.96914700  0.33419900  0.42014900  1
  O  O8  1  0.74152100  0.87744100  0.87647900  1
  O  O9  1  0.49475500  0.63073300  0.57171000  1
  O  O10  1  0.93060400  0.17855800  0.74000800  1
  O  O11  1  0.75528800  0.15862700  0.61358400  1
  O  O12  1  0.43060400  0.32144200  0.74000800  1
  O  O13  1  0.46914700  0.66580100  0.07985100  1
  O  O14  1  0.75076700  0.05197400  0.75922500  1
  O  O15  1  0.21550400  0.53362800  0.58112200  1
  O  O16  1  0.06061500  0.82990400  0.71784800  1
  O  O17  1  0.51487100  0.32453300  0.10485200  1
  O  O18  1  0.00524500  0.13073300  0.42829000  1
  O  O19  1  0.22207100  0.16971600  0.79905200  1
  O  O20  1  0.19095900  0.70710200  0.01448800  1
  O  O21  1  0.44260400  0.51106000  0.91943100  1
  O  O22  1  0.43938500  0.82990400  0.21784800  1
  O  O23  1  0.48512900  0.17546700  0.60485200  1
  O  O24  1  0.99475500  0.86926700  0.57171000  1
  O  O25  1  0.93938500  0.67009600  0.21784800  1
  O  O26  1  0.27792900  0.66971600  0.20094800  1
  O  O27  1  0.28449600  0.53362800  0.08112200  1
  O  O28  1  0.24160900  0.85627500  0.58845900  1
  O  O29  1  0.25839100  0.85627500  0.08845900  1
  O  O30  1  0.30904100  0.20710200  0.98551200  1
  O  O31  1  0.06061500  0.32990400  0.78215200  1
  O  O32  1  0.24160900  0.35627500  0.91154100  1
  O  O33  1  0.78449600  0.46637200  0.41887800  1
  O  O34  1  0.25076700  0.94802600  0.74077500  1
  O  O35  1  0.25847900  0.12255900  0.12352100  1
  O  O36  1  0.48512900  0.67546700  0.89514800  1
  O  O37  1  0.05739600  0.51106000  0.41943100  1
  O  O38  1  0.25847900  0.62255900  0.37647900  1
  O  O39  1  0.25076700  0.44802600  0.75922500  1
  O  O40  1  0.24471200  0.34137300  0.11358400  1
  O  O41  1  0.56061500  0.67009600  0.71784800  1
  O  O42  1  0.80904100  0.79289800  0.51448800  1
  O  O43  1  0.75528800  0.65862700  0.88641600  1
  O  O44  1  0.94260400  0.48894000  0.58056900  1
  O  O45  1  0.00905400  0.64722200  0.91214100  1
  O  O46  1  0.24471200  0.84137300  0.38641600  1
  O  O47  1  0.24152100  0.62255900  0.87647900  1
  O  O48  1  0.78449600  0.96637200  0.08112200  1
  O  O49  1  0.49094600  0.64722200  0.41214100  1
  O  O50  1  0.77792900  0.83028400  0.20094800  1
  O  O51  1  0.01487100  0.67546700  0.39514800  1
  O  O52  1  0.24923300  0.94802600  0.24077500  1
  O  O53  1  0.43060400  0.82144200  0.75999200  1
  O  O54  1  0.44260400  0.01106000  0.58056900  1
  O  O55  1  0.06939600  0.82144200  0.25999200  1
  O  O56  1  0.71550400  0.96637200  0.58112200  1
  O  O57  1  0.49475500  0.13073300  0.92829000  1
  O  O58  1  0.46914700  0.16580100  0.42014900  1
  O  O59  1  0.99475500  0.36926700  0.92829000  1
  O  O60  1  0.94260400  0.98894000  0.91943100  1
  O  O61  1  0.24152100  0.12255900  0.62352100  1
  O  O62  1  0.75839100  0.14372500  0.41154100  1
  O  O63  1  0.50905400  0.35277800  0.58785900  1
  O  O64  1  0.50905400  0.85277800  0.91214100  1
  O  O65  1  0.01487100  0.17546700  0.10485200  1
  O  O66  1  0.69095900  0.29289800  0.48551200  1
  O  O67  1  0.74471200  0.65862700  0.38641600  1
  O  O68  1  0.28449600  0.03362800  0.41887800  1
  O  O69  1  0.56939600  0.67855800  0.25999200  1
  O  O70  1  0.75847900  0.87744100  0.37647900  1
  O  O71  1  0.99094600  0.35277800  0.08785900  1
  O  O72  1  0.25839100  0.35627500  0.41154100  1
  O  O73  1  0.03085300  0.66580100  0.57985100  1
  O  O74  1  0.49094600  0.14722200  0.08785900  1
  O  O75  1  0.24923300  0.44802600  0.25922500  1
  O  O76  1  0.30904100  0.70710200  0.51448800  1
  O  O77  1  0.74923300  0.05197400  0.25922500  1
  O  O78  1  0.00524500  0.63073300  0.07171000  1
  O  O79  1  0.21550400  0.03362800  0.91887800  1
  O  O80  1  0.96914700  0.83419900  0.07985100  1
  O  O81  1  0.56939600  0.17855800  0.24000800  1
  O  O82  1  0.50524500  0.86926700  0.07171000  1
  O  O83  1  0.93060400  0.67855800  0.75999200  1
  O  O84  1  0.74152100  0.37744100  0.62352100  1
  O  O85  1  0.50524500  0.36926700  0.42829000  1
  O  O86  1  0.77792900  0.33028400  0.29905200  1
  O  O87  1  0.51487100  0.82453300  0.39514800  1
  O  O88  1  0.98512900  0.82453300  0.89514800  1
  O  O89  1  0.56061500  0.17009600  0.78215200  1
  O  O90  1  0.99094600  0.85277800  0.41214100  1
  O  O91  1  0.75839100  0.64372500  0.08845900  1
  O  O92  1  0.75076700  0.55197400  0.74077500  1
  O  O93  1  0.55739600  0.48894000  0.08056900  1
  O  O94  1  0.05739600  0.01106000  0.08056900  1
  O  O95  1  0.69095900  0.79289800  0.01448800  1
  O  O96  1  0.19095900  0.20710200  0.48551200  1
  O  O97  1  0.53085300  0.33419900  0.92014900  1
  O  O98  1  0.72207100  0.83028400  0.70094800  1
  O  O99  1  0.74160900  0.64372500  0.58845900  1
  O  O100  1  0.74471200  0.15862700  0.11358400  1
  O  O101  1  0.22207100  0.66971600  0.70094800  1
  O  O102  1  0.75847900  0.37744100  0.12352100  1
  O  O103  1  0.74923300  0.55197400  0.24077500  1
  O  O104  1  0.71550400  0.46637200  0.91887800  1
  O  O105  1  0.53085300  0.83419900  0.57985100  1
  O  O106  1  0.80904100  0.29289800  0.98551200  1
  O  O107  1  0.98512900  0.32453300  0.60485200  1
  O  O108  1  0.43938500  0.32990400  0.28215200  1
  O  O109  1  0.00905400  0.14722200  0.58785900  1
  O  O110  1  0.06939600  0.32144200  0.24000800  1
  O  O111  1  0.74160900  0.14372500  0.91154100  1
loop_
_geom_bond_atom_site_label_1
_geom_bond_atom_site_label_2
_geom_bond_distance
_geom_bond_site_symmetry_2
Ca0 O22 2.331961 1_555
Ca0 O87 2.400912 1_555
Ca0 O49 2.454777 1_555
Ca0 O38 2.483302 1_555
Ca0 O69 2.490568 1_555
Ca0 O46 2.512871 1_555
Ca0 O26 2.523917 1_555
Ca1 O60 2.326962 1_544
Ca1 O111 2.479939 1_554
Ca1 O65 2.514944 1_655
Ca1 O48 2.540809 1_545
Ca1 O0 2.541227 1_654
Ca1 O94 2.547885 1_655
Ca1 O100 2.553866 1_555
Ca2 O54 2.326962 1_565
Ca2 O28 2.479939 1_555
Ca2 O87 2.514944 1_555
Ca2 O68 2.540809 1_565
Ca2 O105 2.541227 1_555
Ca2 O3 2.547885 1_555
Ca2 O46 2.553866 1_555
Ca3 O3 2.326962 1_545
Ca3 O62 2.479939 1_555
Ca3 O23 2.514944 1_555
Ca3 O56 2.540809 1_545
Ca3 O58 2.541227 1_555
Ca3 O54 2.547885 1_555
Ca3 O11 2.553866 1_555
Ca4 O16 2.331961 1_555
Ca4 O88 2.400912 1_455
Ca4 O45 2.454777 1_555
Ca4 O47 2.483302 1_555
Ca4 O83 2.490568 1_455
Ca4 O1 2.512871 1_555
Ca4 O101 2.523917 1_555
Ca5 O30 2.290171 1_554
Ca5 O0 2.404364 1_554
Ca5 O71 2.417045 1_455
Ca5 O65 2.448676 1_555
Ca5 O40 2.520313 1_555
Ca5 O32 2.565683 1_554
Ca5 O59 2.585185 1_454
Ca6 O95 2.290171 1_556
Ca6 O80 2.404364 1_556
Ca6 O45 2.417045 1_655
Ca6 O88 2.448676 1_555
Ca6 O43 2.520313 1_555
Ca6 O91 2.565683 1_556
Ca6 O78 2.585185 1_656
Ca7 O4 2.341803 1_555
Ca7 O10 2.343772 1_555
Ca7 O106 2.417304 1_555
Ca7 O0 2.435552 1_655
Ca7 O59 2.508163 1_555
Ca7 O111 2.573696 1_555
Ca7 O31 2.585221 1_655
Ca8 O41 2.331961 1_555
Ca8 O36 2.400912 1_555
Ca8 O64 2.454777 1_555
Ca8 O8 2.483302 1_555
Ca8 O53 2.490568 1_555
Ca8 O43 2.512871 1_555
Ca8 O98 2.523917 1_555
Ca9 O37 2.326962 1_555
Ca9 O72 2.479939 1_555
Ca9 O107 2.514944 1_455
Ca9 O15 2.540809 1_555
Ca9 O7 2.541227 1_455
Ca9 O44 2.547885 1_455
Ca9 O6 2.553866 1_555
Ca10 O42 2.290171 1_555
Ca10 O105 2.404364 1_555
Ca10 O49 2.417045 1_555
Ca10 O87 2.448676 1_555
Ca10 O67 2.520313 1_555
Ca10 O99 2.565683 1_555
Ca10 O9 2.585185 1_555
Ca11 O26 2.341803 1_555
Ca11 O55 2.343772 1_555
Ca11 O20 2.417304 1_555
Ca11 O80 2.435552 1_455
Ca11 O78 2.508163 1_555
Ca11 O29 2.573696 1_555
Ca11 O25 2.585221 1_455
Ca12 O31 2.331961 1_555
Ca12 O107 2.400912 1_455
Ca12 O109 2.454777 1_555
Ca12 O61 2.483302 1_555
Ca12 O10 2.490568 1_455
Ca12 O6 2.512871 1_555
Ca12 O19 2.523917 1_555
Ca13 O101 2.341803 1_555
Ca13 O53 2.343772 1_555
Ca13 O76 2.417304 1_555
Ca13 O105 2.435552 1_555
Ca13 O9 2.508163 1_555
Ca13 O28 2.573696 1_555
Ca13 O41 2.585221 1_555
Ca14 O98 2.341803 1_555
Ca14 O83 2.343772 1_555
Ca14 O42 2.417304 1_555
Ca14 O73 2.435552 1_655
Ca14 O24 2.508163 1_555
Ca14 O99 2.573696 1_555
Ca14 O16 2.585221 1_655
Ca15 O20 2.290171 1_556
Ca15 O13 2.404364 1_556
Ca15 O64 2.417045 1_555
Ca15 O36 2.448676 1_555
Ca15 O1 2.520313 1_555
Ca15 O29 2.565683 1_556
Ca15 O82 2.585185 1_556
Ca16 O2 2.341803 1_555
Ca16 O110 2.343772 1_555
Ca16 O96 2.417304 1_555
Ca16 O7 2.435552 1_455
Ca16 O18 2.508163 1_555
Ca16 O72 2.573696 1_555
Ca16 O5 2.585221 1_455
Ca17 O19 2.341803 1_555
Ca17 O12 2.343772 1_555
Ca17 O30 2.417304 1_555
Ca17 O97 2.435552 1_555
Ca17 O57 2.508163 1_555
Ca17 O32 2.573696 1_555
Ca17 O89 2.585221 1_555
Ca18 O21 2.326962 1_554
Ca18 O32 2.479939 1_554
Ca18 O17 2.514944 1_555
Ca18 O27 2.540809 1_555
Ca18 O97 2.541227 1_554
Ca18 O93 2.547885 1_555
Ca18 O40 2.553866 1_555
Ca19 O93 2.326962 1_556
Ca19 O91 2.479939 1_556
Ca19 O36 2.514944 1_555
Ca19 O104 2.540809 1_555
Ca19 O13 2.541227 1_556
Ca19 O21 2.547885 1_555
Ca19 O43 2.553866 1_555
Ca20 O76 2.290171 1_555
Ca20 O73 2.404364 1_555
Ca20 O90 2.417045 1_455
Ca20 O51 2.448676 1_555
Ca20 O46 2.520313 1_555
Ca20 O28 2.565683 1_555
Ca20 O24 2.585185 1_455
Ca21 O86 2.341803 1_555
Ca21 O81 2.343772 1_555
Ca21 O66 2.417304 1_555
Ca21 O58 2.435552 1_555
Ca21 O85 2.508163 1_555
Ca21 O62 2.573696 1_555
Ca21 O108 2.585221 1_555
Ca22 O96 2.290171 1_555
Ca22 O58 2.404364 1_555
Ca22 O63 2.417045 1_555
Ca22 O23 2.448676 1_555
Ca22 O6 2.520313 1_555
Ca22 O72 2.565683 1_555
Ca22 O85 2.585185 1_555
Ca23 O108 2.331961 1_555
Ca23 O17 2.400912 1_555
Ca23 O74 2.454777 1_555
Ca23 O35 2.483302 1_555
Ca23 O81 2.490568 1_555
Ca23 O40 2.512871 1_555
Ca23 O2 2.523917 1_555
Ca24 O66 2.290171 1_555
Ca24 O7 2.404364 1_555
Ca24 O109 2.417045 1_655
Ca24 O107 2.448676 1_555
Ca24 O11 2.520313 1_555
Ca24 O62 2.565683 1_555
Ca24 O18 2.585185 1_655
Ca25 O44 2.326962 1_555
Ca25 O99 2.479939 1_555
Ca25 O51 2.514944 1_655
Ca25 O33 2.540809 1_555
Ca25 O73 2.541227 1_655
Ca25 O37 2.547885 1_655
Ca25 O67 2.553866 1_555
Ca26 O25 2.331961 1_555
Ca26 O51 2.400912 1_655
Ca26 O90 2.454777 1_555
Ca26 O70 2.483302 1_555
Ca26 O55 2.490568 1_655
Ca26 O67 2.512871 1_555
Ca26 O50 2.523917 1_555
Ca27 O89 2.331961 1_555
Ca27 O23 2.400912 1_555
Ca27 O63 2.454777 1_555
Ca27 O84 2.483302 1_555
Ca27 O12 2.490568 1_555
Ca27 O11 2.512871 1_555
Ca27 O4 2.523917 1_555
Ca28 O94 2.326962 1_566
Ca28 O29 2.479939 1_556
Ca28 O88 2.514944 1_455
Ca28 O79 2.540809 1_565
Ca28 O80 2.541227 1_456
Ca28 O60 2.547885 1_455
Ca28 O1 2.553866 1_555
Ca29 O106 2.290171 1_554
Ca29 O97 2.404364 1_554
Ca29 O74 2.417045 1_555
Ca29 O17 2.448676 1_555
Ca29 O100 2.520313 1_555
Ca29 O111 2.565683 1_554
Ca29 O57 2.585185 1_554
Ca30 O50 2.341803 1_555
Ca30 O69 2.343772 1_555
Ca30 O95 2.417304 1_555
Ca30 O13 2.435552 1_555
Ca30 O82 2.508163 1_555
Ca30 O91 2.573696 1_555
Ca30 O22 2.585221 1_555
Ca31 O5 2.331961 1_555
Ca31 O65 2.400912 1_655
Ca31 O71 2.454777 1_555
Ca31 O102 2.483302 1_555
Ca31 O110 2.490568 1_655
Ca31 O100 2.512871 1_555
Ca31 O86 2.523917 1_555
O0 Te20 1.929837 1_555
O1 Te29 1.908795 1_555
O2 Te34 1.906317 1_555
O3 Te33 1.894364 1_555
O4 Te19 1.906317 1_555
O5 Te1 1.883192 1_555
O6 Te37 1.908795 1_555
O7 Te18 1.929837 1_555
O8 Te3 1.901040 1_555
O8 Te12 2.273635 1_555
O9 Te10 2.003215 1_555
O9 Te25 2.135318 1_555
O10 Te11 1.896126 1_555
O11 Te11 1.908795 1_555
O12 Te37 1.896126 1_555
O13 Te30 1.929837 1_555
O14 Te11 1.992973 1_555
O14 Te5 2.070989 1_555
O15 Te0 1.910872 1_555
O15 Te10 2.599651 1_555
O16 Te13 1.883192 1_555
O17 Te2 1.903141 1_555
O18 Te16 2.003215 1_555
O18 Te1 2.135318 1_455
O19 Te20 1.906317 1_555
O20 Te28 1.881370 1_554
O21 Te27 1.894364 1_555
O22 Te32 1.883192 1_555
O23 Te8 1.903141 1_555
O24 Te39 2.003215 1_555
O24 Te13 2.135318 1_655
O25 Te22 1.883192 1_555
O26 Te30 1.906317 1_555
O27 Te30 1.910872 1_555
O27 Te28 2.599651 1_554
O28 Te13 1.910347 1_555
O29 Te32 1.910347 1_555
O30 Te24 1.881370 1_556
O31 Te9 1.883192 1_555
O32 Te9 1.910347 1_555
O33 Te18 1.910872 1_555
O33 Te7 2.599651 1_555
O34 Te29 1.992973 1_555
O34 Te13 2.070989 1_555
O35 Te31 1.901040 1_555
O35 Te24 2.273635 1_555
O36 Te27 1.903141 1_555
O37 Te36 1.894364 1_555
O38 Te36 1.901040 1_555
O38 Te10 2.273635 1_555
O39 Te37 1.992973 1_555
O39 Te9 2.070989 1_555
O40 Te4 1.908795 1_555
O41 Te25 1.883192 1_555
O42 Te39 1.881370 1_555
O43 Te38 1.908795 1_555
O44 Te17 1.894364 1_555
O45 Te28 1.942349 1_555
O45 Te38 2.341590 1_455
O46 Te6 1.908795 1_555
O47 Te27 1.901040 1_555
O47 Te28 2.273635 1_555
O48 Te14 1.910872 1_555
O48 Te12 2.599651 1_554
O49 Te10 1.942349 1_555
O49 Te15 2.341590 1_555
O50 Te14 1.906317 1_555
O51 Te36 1.903141 1_555
O52 Te6 1.992973 1_555
O52 Te32 2.070989 1_555
O53 Te29 1.896126 1_555
O54 Te8 1.894364 1_555
O55 Te6 1.896126 1_555
O56 Te35 1.910872 1_555
O56 Te39 2.599651 1_555
O57 Te24 2.003215 1_556
O57 Te5 2.135318 1_555
O58 Te34 1.929837 1_555
O59 Te26 2.003215 1_556
O59 Te9 2.135318 1_655
O60 Te3 1.894364 1_555
O61 Te8 1.901040 1_555
O61 Te16 2.273635 1_555
O62 Te1 1.910347 1_555
O63 Te7 1.942349 1_555
O63 Te37 2.341590 1_555
O64 Te12 1.942349 1_555
O64 Te29 2.341590 1_555
O65 Te31 1.903141 1_555
O66 Te7 1.881370 1_555
O67 Te15 1.908795 1_555
O68 Te34 1.910872 1_555
O68 Te16 2.599651 1_555
O69 Te15 1.896126 1_555
O70 Te33 1.901040 1_555
O70 Te39 2.273635 1_555
O71 Te26 1.942349 1_555
O71 Te4 2.341590 1_655
O72 Te21 1.910347 1_555
O73 Te0 1.929837 1_555
O74 Te24 1.942349 1_555
O74 Te23 2.341590 1_555
O75 Te4 1.992973 1_555
O75 Te21 2.070989 1_555
O76 Te10 1.881370 1_555
O77 Te23 1.992973 1_555
O77 Te1 2.070989 1_555
O78 Te28 2.003215 1_554
O78 Te22 2.135318 1_455
O79 Te20 1.910872 1_555
O79 Te24 2.599651 1_556
O80 Te14 1.929837 1_555
O81 Te23 1.896126 1_555
O82 Te12 2.003215 1_554
O82 Te32 2.135318 1_555
O83 Te38 1.896126 1_555
O84 Te17 1.901040 1_555
O84 Te7 2.273635 1_555
O85 Te7 2.003215 1_555
O85 Te21 2.135318 1_555
O86 Te18 1.906317 1_555
O87 Te33 1.903141 1_555
O88 Te3 1.903141 1_555
O89 Te5 1.883192 1_555
O90 Te39 1.942349 1_555
O90 Te6 2.341590 1_655
O91 Te22 1.910347 1_555
O92 Te38 1.992973 1_555
O92 Te25 2.070989 1_555
O93 Te2 1.894364 1_555
O94 Te31 1.894364 1_555
O95 Te12 1.881370 1_554
O96 Te16 1.881370 1_555
O97 Te19 1.929837 1_555
O98 Te35 1.906317 1_555
O99 Te25 1.910347 1_555
O100 Te23 1.908795 1_555
O101 Te0 1.906317 1_555
O102 Te2 1.901040 1_555
O102 Te26 2.273635 1_555
O103 Te15 1.992973 1_555
O103 Te22 2.070989 1_555
O104 Te19 1.910872 1_555
O104 Te26 2.599651 1_556
O105 Te35 1.929837 1_555
O106 Te26 1.881370 1_556
O107 Te17 1.903141 1_555
O108 Te21 1.883192 1_555
O109 Te16 1.942349 1_555
O109 Te11 2.341590 1_455
O110 Te4 1.896126 1_555
O111 Te5 1.910347 1_555
