# generated using pymatgen
data_Cs5GeAs3
_symmetry_space_group_name_H-M   'P 1'
_cell_length_a   6.06456976
_cell_length_b   14.74317261
_cell_length_c   16.15651780
_cell_angle_alpha   90.00000000
_cell_angle_beta   90.00000000
_cell_angle_gamma   90.00000000
_symmetry_Int_Tables_number   1
_chemical_formula_structural   Cs5GeAs3
_chemical_formula_sum   'Cs20 Ge4 As12'
_cell_volume   1444.57039326
_cell_formula_units_Z   4
loop_
 _symmetry_equiv_pos_site_id
 _symmetry_equiv_pos_as_xyz
  1  'x, y, z'
loop_
 _atom_site_type_symbol
 _atom_site_label
 _atom_site_symmetry_multiplicity
 _atom_site_fract_x
 _atom_site_fract_y
 _atom_site_fract_z
 _atom_site_occupancy
  Cs  Cs0  1  0.75000000  0.14577242  0.54733188  1
  Cs  Cs1  1  0.25000000  0.77812946  0.70660450  1
  Cs  Cs2  1  0.25000000  0.05080269  0.65388046  1
  Cs  Cs3  1  0.25000000  0.06497144  0.95020530  1
  Cs  Cs4  1  0.75000000  0.94919731  0.34611954  1
  Cs  Cs5  1  0.25000000  0.61960713  0.31436211  1
  Cs  Cs6  1  0.75000000  0.43502856  0.45020530  1
  Cs  Cs7  1  0.75000000  0.64577242  0.95266812  1
  Cs  Cs8  1  0.25000000  0.56497144  0.54979470  1
  Cs  Cs9  1  0.25000000  0.35422758  0.04733188  1
  Cs  Cs10  1  0.25000000  0.55080269  0.84611954  1
  Cs  Cs11  1  0.75000000  0.22187054  0.29339550  1
  Cs  Cs12  1  0.75000000  0.88039287  0.81436211  1
  Cs  Cs13  1  0.75000000  0.44919731  0.15388046  1
  Cs  Cs14  1  0.25000000  0.85422758  0.45266812  1
  Cs  Cs15  1  0.25000000  0.27812946  0.79339550  1
  Cs  Cs16  1  0.75000000  0.38039287  0.68563789  1
  Cs  Cs17  1  0.25000000  0.11960713  0.18563789  1
  Cs  Cs18  1  0.75000000  0.93502856  0.04979470  1
  Cs  Cs19  1  0.75000000  0.72187054  0.20660450  1
  Ge  Ge0  1  0.25000000  0.76053400  0.06833199  1
  Ge  Ge1  1  0.75000000  0.23946600  0.93166801  1
  Ge  Ge2  1  0.75000000  0.73946600  0.56833199  1
  Ge  Ge3  1  0.25000000  0.26053400  0.43166801  1
  As  As0  1  0.75000000  0.39875152  0.91112353  1
  As  As1  1  0.75000000  0.63424924  0.68038045  1
  As  As2  1  0.25000000  0.60124848  0.08887647  1
  As  As3  1  0.25000000  0.10124848  0.41112353  1
  As  As4  1  0.25000000  0.80963242  0.92898368  1
  As  As5  1  0.25000000  0.86575076  0.18038045  1
  As  As6  1  0.75000000  0.19036758  0.07101632  1
  As  As7  1  0.75000000  0.89875152  0.58887647  1
  As  As8  1  0.75000000  0.13424924  0.81961955  1
  As  As9  1  0.25000000  0.30963242  0.57101632  1
  As  As10  1  0.25000000  0.36575076  0.31961955  1
  As  As11  1  0.75000000  0.69036758  0.42898368  1
loop_
_geom_bond_atom_site_label_1
_geom_bond_atom_site_label_2
_geom_bond_distance
_geom_bond_site_symmetry_2
Cs1 Ge2 3.809258 1_555
Cs1 Ge2 3.809258 1_455
Cs11 Ge3 3.809258 1_555
Cs11 Ge3 3.809258 1_655
Cs15 Ge1 3.809258 1_455
Cs15 Ge1 3.809258 1_555
Cs19 Ge0 3.809258 1_655
Cs19 Ge0 3.809258 1_555
As0 Ge1 2.371716 1_555
As0 Cs16 3.653104 1_555
As0 Cs7 3.703210 1_555
As0 Cs9 3.803750 1_656
As0 Cs9 3.803750 1_556
As0 Cs10 3.914466 1_555
As0 Cs10 3.914466 1_655
As0 Cs13 3.991999 1_556
As0 Cs15 3.996896 1_655
As0 Cs15 3.996896 1_555
As1 Ge2 2.384018 1_555
As1 Cs1 3.724778 1_555
As1 Cs1 3.724778 1_655
As1 Cs16 3.743612 1_555
As1 Cs8 3.832657 1_655
As1 Cs8 3.832657 1_555
As1 Cs10 4.228326 1_655
As1 Cs10 4.228326 1_555
As2 Ge0 2.371716 1_555
As2 Cs5 3.653104 1_555
As2 Cs9 3.703210 1_555
As2 Cs7 3.803750 1_554
As2 Cs7 3.803750 1_454
As2 Cs13 3.914466 1_555
As2 Cs13 3.914466 1_455
As2 Cs10 3.991999 1_554
As2 Cs19 3.996896 1_455
As2 Cs19 3.996896 1_555
As3 Ge3 2.371716 1_555
As3 Cs17 3.653104 1_555
As3 Cs14 3.703210 1_545
As3 Cs0 3.803750 1_455
As3 Cs0 3.803750 1_555
As3 Cs4 3.914466 1_445
As3 Cs4 3.914466 1_545
As3 Cs2 3.991999 1_555
As3 Cs11 3.996896 1_555
As3 Cs11 3.996896 1_455
As4 Ge0 2.364891 1_556
As4 Cs1 3.622769 1_555
As4 Cs12 3.703048 1_555
As4 Cs12 3.703048 1_455
As4 Cs3 3.780089 1_565
As4 Cs7 3.895811 1_555
As4 Cs7 3.895811 1_455
As4 Cs10 4.044009 1_555
As4 Cs18 4.052461 1_556
As4 Cs18 4.052461 1_456
As5 Ge0 2.384018 1_555
As5 Cs19 3.724778 1_555
As5 Cs19 3.724778 1_455
As5 Cs17 3.743612 1_565
As5 Cs18 3.832657 1_555
As5 Cs18 3.832657 1_455
As5 Cs4 4.228326 1_455
As5 Cs4 4.228326 1_555
As6 Ge1 2.364891 1_554
As6 Cs11 3.622769 1_555
As6 Cs17 3.703048 1_555
As6 Cs17 3.703048 1_655
As6 Cs18 3.780089 1_545
As6 Cs9 3.895811 1_655
As6 Cs9 3.895811 1_555
As6 Cs13 4.044009 1_555
As6 Cs3 4.052461 1_554
As6 Cs3 4.052461 1_654
As7 Ge2 2.371716 1_555
As7 Cs12 3.653104 1_555
As7 Cs0 3.703210 1_565
As7 Cs14 3.803750 1_655
As7 Cs14 3.803750 1_555
As7 Cs2 3.914466 1_565
As7 Cs2 3.914466 1_665
As7 Cs4 3.991999 1_555
As7 Cs1 3.996896 1_555
As7 Cs1 3.996896 1_655
As8 Ge1 2.384018 1_555
As8 Cs15 3.724778 1_555
As8 Cs15 3.724778 1_655
As8 Cs12 3.743612 1_545
As8 Cs3 3.832657 1_555
As8 Cs3 3.832657 1_655
As8 Cs2 4.228326 1_655
As8 Cs2 4.228326 1_555
As9 Ge3 2.364891 1_555
As9 Cs15 3.622769 1_555
As9 Cs16 3.703048 1_455
As9 Cs16 3.703048 1_555
As9 Cs8 3.780089 1_555
As9 Cs0 3.895811 1_555
As9 Cs0 3.895811 1_455
As9 Cs2 4.044009 1_555
As9 Cs6 4.052461 1_555
As9 Cs6 4.052461 1_455
As10 Ge3 2.384018 1_555
As10 Cs11 3.724778 1_555
As10 Cs11 3.724778 1_455
As10 Cs5 3.743612 1_555
As10 Cs6 3.832657 1_555
As10 Cs6 3.832657 1_455
As10 Cs13 4.228326 1_455
As10 Cs13 4.228326 1_555
As11 Ge2 2.364891 1_555
As11 Cs19 3.622769 1_555
As11 Cs5 3.703048 1_655
As11 Cs5 3.703048 1_555
As11 Cs6 3.780089 1_555
As11 Cs14 3.895811 1_655
As11 Cs14 3.895811 1_555
As11 Cs4 4.044009 1_555
As11 Cs8 4.052461 1_655
As11 Cs8 4.052461 1_555
