# generated using pymatgen
data_CsAs2Se3
_symmetry_space_group_name_H-M   'P 1'
_cell_length_a   7.55417968
_cell_length_b   13.61046091
_cell_length_c   15.04786126
_cell_angle_alpha   90.00000000
_cell_angle_beta   90.00000000
_cell_angle_gamma   90.00000000
_symmetry_Int_Tables_number   1
_chemical_formula_structural   CsAs2Se3
_chemical_formula_sum   'Cs8 As16 Se24'
_cell_volume   1547.15890558
_cell_formula_units_Z   8
loop_
 _symmetry_equiv_pos_site_id
 _symmetry_equiv_pos_as_xyz
  1  'x, y, z'
loop_
 _atom_site_type_symbol
 _atom_site_label
 _atom_site_symmetry_multiplicity
 _atom_site_fract_x
 _atom_site_fract_y
 _atom_site_fract_z
 _atom_site_occupancy
  Cs  Cs0  1  0.25000000  0.91531539  0.09240754  1
  Cs  Cs1  1  0.25000000  0.58468461  0.59240754  1
  Cs  Cs2  1  0.75000000  0.08468461  0.90759246  1
  Cs  Cs3  1  0.25000000  0.59441961  0.92171217  1
  Cs  Cs4  1  0.25000000  0.90558039  0.42171217  1
  Cs  Cs5  1  0.75000000  0.09441961  0.57828783  1
  Cs  Cs6  1  0.75000000  0.40558039  0.07828783  1
  Cs  Cs7  1  0.75000000  0.41531539  0.40759246  1
  As  As0  1  0.41829346  0.22983320  0.74301539  1
  As  As1  1  0.75000000  0.72519743  0.48385319  1
  As  As2  1  0.25000000  0.56490838  0.21298325  1
  As  As3  1  0.75000000  0.77480257  0.98385319  1
  As  As4  1  0.91829346  0.72983320  0.75698461  1
  As  As5  1  0.58170654  0.77016680  0.25698461  1
  As  As6  1  0.41829346  0.27016680  0.24301539  1
  As  As7  1  0.25000000  0.27480257  0.51614681  1
  As  As8  1  0.58170654  0.72983320  0.75698461  1
  As  As9  1  0.08170654  0.27016680  0.24301539  1
  As  As10  1  0.25000000  0.93509162  0.71298325  1
  As  As11  1  0.25000000  0.22519743  0.01614681  1
  As  As12  1  0.75000000  0.43509162  0.78701675  1
  As  As13  1  0.91829346  0.77016680  0.25698461  1
  As  As14  1  0.75000000  0.06490838  0.28701675  1
  As  As15  1  0.08170654  0.22983320  0.74301539  1
  Se  Se0  1  0.25000000  0.43299224  0.11170416  1
  Se  Se1  1  0.99306155  0.64417899  0.14494789  1
  Se  Se2  1  0.01354921  0.16670877  0.11418724  1
  Se  Se3  1  0.48645079  0.33329123  0.61418724  1
  Se  Se4  1  0.51354921  0.83329123  0.88581276  1
  Se  Se5  1  0.49306155  0.35582101  0.85505211  1
  Se  Se6  1  0.51354921  0.66670877  0.38581276  1
  Se  Se7  1  0.50693845  0.85582101  0.64494789  1
  Se  Se8  1  0.25000000  0.10080495  0.90843842  1
  Se  Se9  1  0.00693845  0.14417899  0.35505211  1
  Se  Se10  1  0.75000000  0.93299224  0.38829584  1
  Se  Se11  1  0.01354921  0.33329123  0.61418724  1
  Se  Se12  1  0.25000000  0.06700776  0.61170416  1
  Se  Se13  1  0.00693845  0.35582101  0.85505211  1
  Se  Se14  1  0.99306155  0.85582101  0.64494789  1
  Se  Se15  1  0.75000000  0.60080495  0.59156158  1
  Se  Se16  1  0.25000000  0.39919505  0.40843842  1
  Se  Se17  1  0.75000000  0.89919505  0.09156158  1
  Se  Se18  1  0.48645079  0.16670877  0.11418724  1
  Se  Se19  1  0.98645079  0.66670877  0.38581276  1
  Se  Se20  1  0.50693845  0.64417899  0.14494789  1
  Se  Se21  1  0.75000000  0.56700776  0.88829584  1
  Se  Se22  1  0.49306155  0.14417899  0.35505211  1
  Se  Se23  1  0.98645079  0.83329123  0.88581276  1
loop_
_geom_bond_atom_site_label_1
_geom_bond_atom_site_label_2
_geom_bond_distance
_geom_bond_site_symmetry_2
Cs0 Se8 3.746640 1_564
Cs0 Se17 3.783478 1_555
Cs0 Se17 3.783478 1_455
Cs0 Se23 3.856772 1_454
Cs0 Se4 3.856772 1_554
Cs0 Se18 3.873642 1_565
Cs0 Se2 3.873642 1_565
Cs0 Se1 4.243896 1_455
Cs0 Se20 4.243896 1_555
Cs1 Se16 3.746640 1_555
Cs1 Se15 3.783478 1_555
Cs1 Se15 3.783478 1_455
Cs1 Se6 3.856772 1_555
Cs1 Se19 3.856772 1_455
Cs1 Se11 3.873642 1_555
Cs1 Se3 3.873642 1_555
Cs1 Se7 4.243896 1_555
Cs1 Se14 4.243896 1_455
Cs2 Se17 3.746640 1_546
Cs2 Se8 3.783478 1_655
Cs2 Se8 3.783478 1_555
Cs2 Se18 3.856772 1_556
Cs2 Se2 3.856772 1_656
Cs2 Se4 3.873642 1_545
Cs2 Se23 3.873642 1_545
Cs2 Se13 4.243896 1_655
Cs2 Se5 4.243896 1_555
Cs3 Se0 3.605687 1_556
Cs3 Se21 3.828636 1_555
Cs3 Se21 3.828636 1_455
Cs3 Se23 3.850389 1_455
Cs3 Se4 3.850389 1_555
Cs3 Se13 3.863084 1_555
Cs3 Se5 3.863084 1_555
Cs3 Se1 3.938318 1_456
Cs3 Se20 3.938318 1_556
Cs4 Se12 3.605687 1_565
Cs4 Se10 3.828636 1_455
Cs4 Se10 3.828636 1_555
Cs4 Se6 3.850389 1_555
Cs4 Se19 3.850389 1_455
Cs4 Se9 3.863084 1_565
Cs4 Se22 3.863084 1_565
Cs4 Se14 3.938318 1_455
Cs4 Se7 3.938318 1_555
Cs5 Se10 3.605687 1_545
Cs5 Se12 3.828636 1_655
Cs5 Se12 3.828636 1_555
Cs5 Se3 3.850389 1_555
Cs5 Se11 3.850389 1_655
Cs5 Se7 3.863084 1_545
Cs5 Se14 3.863084 1_545
Cs5 Se22 3.938318 1_555
Cs5 Se9 3.938318 1_655
Cs6 Se21 3.605687 1_554
Cs6 Se0 3.828636 1_555
Cs6 Se0 3.828636 1_655
Cs6 Se18 3.850389 1_555
Cs6 Se2 3.850389 1_655
Cs6 Se20 3.863084 1_555
Cs6 Se1 3.863084 1_555
Cs6 Se5 3.938318 1_554
Cs6 Se13 3.938318 1_654
Cs7 Se15 3.746640 1_555
Cs7 Se16 3.783478 1_555
Cs7 Se16 3.783478 1_655
Cs7 Se3 3.856772 1_555
Cs7 Se11 3.856772 1_655
Cs7 Se6 3.873642 1_555
Cs7 Se19 3.873642 1_555
Cs7 Se22 4.243896 1_555
Cs7 Se9 4.243896 1_655
As0 Se3 2.450713 1_555
As0 Se5 2.470160 1_555
As0 Cs5 3.977452 1_555
As0 Cs2 4.039165 1_555
As1 Se15 2.343782 1_555
As1 Se19 2.449632 1_555
As1 Se6 2.449632 1_555
As2 Se0 2.355054 1_555
As2 Se1 2.445303 1_455
As2 Se20 2.445303 1_555
As3 Se17 2.343782 1_556
As3 Se4 2.449632 1_555
As3 Se23 2.449632 1_555
As4 Se23 2.450713 1_555
As4 Se14 2.470160 1_555
As4 Cs3 3.977452 1_655
As4 Cs1 4.039165 1_655
As5 Se6 2.450713 1_555
As5 Se20 2.470160 1_555
As5 Cs4 3.977452 1_555
As5 Cs0 4.039165 1_555
As6 Se18 2.450713 1_555
As6 Se22 2.470160 1_555
As6 Cs6 3.977452 1_555
As6 Cs7 4.039165 1_555
As7 Se16 2.343782 1_555
As7 Se3 2.449632 1_555
As7 Se11 2.449632 1_555
As8 Se4 2.450713 1_555
As8 Se7 2.470160 1_555
As8 Cs3 3.977452 1_555
As8 Cs1 4.039165 1_555
As9 Se2 2.450713 1_555
As9 Se9 2.470160 1_555
As9 Cs6 3.977452 1_455
As9 Cs7 4.039165 1_455
As10 Se12 2.355054 1_565
As10 Se14 2.445303 1_455
As10 Se7 2.445303 1_555
As11 Se8 2.343782 1_554
As11 Se2 2.449632 1_555
As11 Se18 2.449632 1_555
As12 Se21 2.355054 1_555
As12 Se5 2.445303 1_555
As12 Se13 2.445303 1_655
As13 Se19 2.450713 1_555
As13 Se1 2.470160 1_555
As13 Cs4 3.977452 1_655
As13 Cs0 4.039165 1_655
As14 Se10 2.355054 1_545
As14 Se22 2.445303 1_555
As14 Se9 2.445303 1_655
As15 Se11 2.450713 1_555
As15 Se13 2.470160 1_555
As15 Cs5 3.977452 1_455
As15 Cs2 4.039165 1_455
