# generated using pymatgen
data_NdAsSe
_symmetry_space_group_name_H-M   'P 1'
_cell_length_a   4.03437433
_cell_length_b   4.03437433
_cell_length_c   18.13704400
_cell_angle_alpha   90.00000000
_cell_angle_beta   90.00000000
_cell_angle_gamma   90.27047847
_symmetry_Int_Tables_number   1
_chemical_formula_structural   NdAsSe
_chemical_formula_sum   'Nd4 As4 Se4'
_cell_volume   295.19843522
_cell_formula_units_Z   4
loop_
 _symmetry_equiv_pos_site_id
 _symmetry_equiv_pos_as_xyz
  1  'x, y, z'
loop_
 _atom_site_type_symbol
 _atom_site_label
 _atom_site_symmetry_multiplicity
 _atom_site_fract_x
 _atom_site_fract_y
 _atom_site_fract_z
 _atom_site_occupancy
  Nd  Nd0  1  0.24399200  0.24399200  0.13957600  1
  Nd  Nd1  1  0.25600800  0.25600800  0.63957600  1
  Nd  Nd2  1  0.75600800  0.75600800  0.86042400  1
  Nd  Nd3  1  0.74399200  0.74399200  0.36042400  1
  As  As0  1  0.78049500  0.21950500  0.50000000  1
  As  As1  1  0.71950500  0.28049500  0.00000000  1
  As  As2  1  0.21950500  0.78049500  0.50000000  1
  As  As3  1  0.28049500  0.71950500  0.00000000  1
  Se  Se0  1  0.24606400  0.24606400  0.31267100  1
  Se  Se1  1  0.25393600  0.25393600  0.81267100  1
  Se  Se2  1  0.75393600  0.75393600  0.68732900  1
  Se  Se3  1  0.74606400  0.74606400  0.18732900  1
loop_
_geom_bond_atom_site_label_1
_geom_bond_atom_site_label_2
_geom_bond_distance
_geom_bond_site_symmetry_2
Nd0 Se3 2.963580 1_445
Nd0 Se3 2.986146 1_555
Nd0 Se3 2.987770 1_455
Nd0 Se3 2.987770 1_545
Nd0 Se0 3.139454 1_555
Nd1 Se2 2.963580 1_555
Nd1 Se2 2.986146 1_445
Nd1 Se2 2.987770 1_455
Nd1 Se2 2.987770 1_545
Nd1 Se1 3.139454 1_555
Nd2 Se1 2.963580 1_665
Nd2 Se1 2.986146 1_555
Nd2 Se1 2.987770 1_565
Nd2 Se1 2.987770 1_655
Nd2 Se2 3.139454 1_555
Nd3 Se0 2.963580 1_555
Nd3 Se0 2.986146 1_665
Nd3 Se0 2.987770 1_565
Nd3 Se0 2.987770 1_655
Nd3 Se3 3.139454 1_555
As0 As2 2.510662 1_645
As0 As2 2.867286 1_655
As0 As2 2.867286 1_545
As0 Nd1 3.179267 1_655
As0 Nd3 3.179267 1_545
As0 Nd1 3.303099 1_555
As0 Nd3 3.303099 1_555
As1 As3 2.510662 1_555
As1 As3 2.867286 1_545
As1 As3 2.867286 1_655
As1 Nd0 3.179267 1_555
As1 Nd2 3.179267 1_554
As1 Nd2 3.303099 1_544
As1 Nd0 3.303099 1_655
As2 Nd1 3.179267 1_565
As2 Nd3 3.179267 1_455
As2 Nd1 3.303099 1_555
As2 Nd3 3.303099 1_555
As3 Nd0 3.179267 1_555
As3 Nd2 3.179267 1_554
As3 Nd0 3.303099 1_565
As3 Nd2 3.303099 1_454
