# generated using pymatgen
data_K3Nb2S11
_symmetry_space_group_name_H-M   'P 1'
_cell_length_a   18.56415701
_cell_length_b   18.56415701
_cell_length_c   12.58254465
_cell_angle_alpha   79.66070231
_cell_angle_beta   79.66070231
_cell_angle_gamma   25.14853314
_symmetry_Int_Tables_number   1
_chemical_formula_structural   K3Nb2S11
_chemical_formula_sum   'K12 Nb8 S44'
_cell_volume   1811.35555350
_cell_formula_units_Z   4
loop_
 _symmetry_equiv_pos_site_id
 _symmetry_equiv_pos_as_xyz
  1  'x, y, z'
loop_
 _atom_site_type_symbol
 _atom_site_label
 _atom_site_symmetry_multiplicity
 _atom_site_fract_x
 _atom_site_fract_y
 _atom_site_fract_z
 _atom_site_occupancy
  K  K0  1  0.84482200  0.39129600  0.67162200  1
  K  K1  1  0.15517800  0.60870400  0.32837800  1
  K  K2  1  0.60870400  0.15517800  0.82837800  1
  K  K3  1  0.55749500  0.86098200  0.74366200  1
  K  K4  1  0.13901800  0.44250500  0.75633800  1
  K  K5  1  0.78582100  0.14959400  0.09295900  1
  K  K6  1  0.44250500  0.13901800  0.25633800  1
  K  K7  1  0.21417900  0.85040600  0.90704100  1
  K  K8  1  0.86098200  0.55749500  0.24366200  1
  K  K9  1  0.14959400  0.78582100  0.59295900  1
  K  K10  1  0.85040600  0.21417900  0.40704100  1
  K  K11  1  0.39129600  0.84482200  0.17162200  1
  Nb  Nb0  1  0.11869600  0.71738200  0.92652800  1
  Nb  Nb1  1  0.03854500  0.60624300  0.08208200  1
  Nb  Nb2  1  0.28261800  0.88130400  0.57347200  1
  Nb  Nb3  1  0.71738200  0.11869600  0.42652800  1
  Nb  Nb4  1  0.60624300  0.03854500  0.58208200  1
  Nb  Nb5  1  0.96145500  0.39375700  0.91791800  1
  Nb  Nb6  1  0.88130400  0.28261800  0.07347200  1
  Nb  Nb7  1  0.39375700  0.96145500  0.41791800  1
  S  S0  1  0.25195200  0.07621000  0.94722400  1
  S  S1  1  0.25715300  0.64241800  0.07207100  1
  S  S2  1  0.57970600  0.68571000  0.44778200  1
  S  S3  1  0.96589800  0.94399400  0.35386800  1
  S  S4  1  0.74804800  0.92379000  0.05277600  1
  S  S5  1  0.09450700  0.37471200  0.99455400  1
  S  S6  1  0.68571000  0.57970600  0.94778200  1
  S  S7  1  0.69743600  0.66983900  0.99913300  1
  S  S8  1  0.60205300  0.47640200  0.07138700  1
  S  S9  1  0.07328100  0.16574700  0.90709600  1
  S  S10  1  0.92379000  0.74804800  0.55277600  1
  S  S11  1  0.00071500  0.27826400  0.14320300  1
  S  S12  1  0.78322300  0.42755500  0.22628400  1
  S  S13  1  0.44169900  0.96330100  0.24091900  1
  S  S14  1  0.39794700  0.52359800  0.92861300  1
  S  S15  1  0.27826400  0.00071500  0.64320300  1
  S  S16  1  0.16574700  0.07328100  0.40709600  1
  S  S17  1  0.64241800  0.25715300  0.57207100  1
  S  S18  1  0.21677700  0.57244500  0.77371600  1
  S  S19  1  0.57244500  0.21677700  0.27371600  1
  S  S20  1  0.42029400  0.31429000  0.55221800  1
  S  S21  1  0.07621000  0.25195200  0.44722400  1
  S  S22  1  0.83425300  0.92671900  0.59290400  1
  S  S23  1  0.90549300  0.62528800  0.00544600  1
  S  S24  1  0.72173600  0.99928500  0.35679700  1
  S  S25  1  0.05600600  0.03410200  0.14613200  1
  S  S26  1  0.74284700  0.35758200  0.92792900  1
  S  S27  1  0.42755500  0.78322300  0.72628400  1
  S  S28  1  0.47640200  0.60205300  0.57138700  1
  S  S29  1  0.35758200  0.74284700  0.42792900  1
  S  S30  1  0.94399400  0.96589800  0.85386800  1
  S  S31  1  0.37471200  0.09450700  0.49455400  1
  S  S32  1  0.31429000  0.42029400  0.05221800  1
  S  S33  1  0.30256400  0.33016100  0.00086700  1
  S  S34  1  0.99928500  0.72173600  0.85679700  1
  S  S35  1  0.66983900  0.69743600  0.49913300  1
  S  S36  1  0.03410200  0.05600600  0.64613200  1
  S  S37  1  0.55830100  0.03669900  0.75908100  1
  S  S38  1  0.62528800  0.90549300  0.50544600  1
  S  S39  1  0.52359800  0.39794700  0.42861300  1
  S  S40  1  0.92671900  0.83425300  0.09290400  1
  S  S41  1  0.33016100  0.30256400  0.50086700  1
  S  S42  1  0.96330100  0.44169900  0.74091900  1
  S  S43  1  0.03669900  0.55830100  0.25908100  1
loop_
_geom_bond_atom_site_label_1
_geom_bond_atom_site_label_2
_geom_bond_distance
_geom_bond_site_symmetry_2
K0 S42 3.343731 1_555
K0 S27 3.356039 1_555
K0 S21 3.356581 1_655
K0 S15 3.423405 1_655
K0 S36 3.450859 1_655
K0 S9 3.493646 1_655
K0 S35 3.498837 1_555
K0 S2 3.574654 1_555
K0 S26 3.688507 1_555
K1 S43 3.343731 1_555
K1 S19 3.356039 1_555
K1 S10 3.356581 1_455
K1 S24 3.423405 1_455
K1 S3 3.450859 1_455
K1 S40 3.493646 1_455
K1 S41 3.498837 1_555
K1 S20 3.574654 1_555
K1 S1 3.688507 1_555
K2 S37 3.343731 1_555
K2 S18 3.356039 1_555
K2 S4 3.356581 1_546
K2 S34 3.423405 1_545
K2 S30 3.450859 1_545
K2 S22 3.493646 1_545
K2 S33 3.498837 1_556
K2 S32 3.574654 1_556
K2 S17 3.688507 1_555
K3 S38 3.300068 1_555
K3 S37 3.315921 1_565
K3 S42 3.344174 1_555
K3 S7 3.447784 1_555
K3 S15 3.468193 1_565
K3 S0 3.482314 1_565
K3 S31 3.527156 1_565
K3 S35 3.552518 1_555
K4 S5 3.300068 1_555
K4 S42 3.315921 1_455
K4 S37 3.344174 1_555
K4 S41 3.447784 1_555
K4 S34 3.468193 1_455
K4 S10 3.482314 1_455
K4 S23 3.527156 1_456
K4 S33 3.552518 1_556
K5 S8 3.284816 1_555
K5 S19 3.355484 1_555
K5 S25 3.379786 1_655
K5 S30 3.418307 1_544
K5 S26 3.463608 1_554
K5 S3 3.586438 1_545
K5 S40 3.659352 1_545
K5 S14 3.743198 1_554
K6 S31 3.300068 1_555
K6 S13 3.315921 1_545
K6 S43 3.344174 1_555
K6 S33 3.447784 1_555
K6 S24 3.468193 1_545
K6 S4 3.482314 1_545
K6 S38 3.527156 1_545
K6 S41 3.552518 1_555
K7 S14 3.284816 1_555
K7 S27 3.355484 1_555
K7 S30 3.379786 1_455
K7 S25 3.418307 1_566
K7 S1 3.463608 1_556
K7 S36 3.586438 1_565
K7 S9 3.659352 1_565
K7 S8 3.743198 1_556
K8 S23 3.300068 1_555
K8 S43 3.315921 1_655
K8 S13 3.344174 1_555
K8 S35 3.447784 1_555
K8 S11 3.468193 1_655
K8 S21 3.482314 1_655
K8 S5 3.527156 1_654
K8 S7 3.552518 1_554
K9 S28 3.284816 1_555
K9 S18 3.355484 1_555
K9 S36 3.379786 1_565
K9 S3 3.418307 1_455
K9 S29 3.463608 1_555
K9 S30 3.586438 1_455
K9 S22 3.659352 1_455
K9 S39 3.743198 1_555
K10 S39 3.284816 1_555
K10 S12 3.355484 1_555
K10 S3 3.379786 1_545
K10 S36 3.418307 1_655
K10 S17 3.463608 1_555
K10 S25 3.586438 1_655
K10 S16 3.659352 1_655
K10 S28 3.743198 1_555
K11 S13 3.343731 1_555
K11 S12 3.356039 1_555
K11 S0 3.356581 1_564
K11 S11 3.423405 1_565
K11 S25 3.450859 1_565
K11 S16 3.493646 1_565
K11 S7 3.498837 1_554
K11 S6 3.574654 1_554
K11 S29 3.688507 1_555
Nb0 S30 2.258422 1_455
Nb0 S18 2.445971 1_555
Nb0 S34 2.457379 1_455
Nb0 S14 2.463447 1_555
Nb0 S1 2.489163 1_556
Nb0 S40 2.597046 1_456
Nb0 S32 2.962785 1_556
Nb1 S43 2.251572 1_555
Nb1 S33 2.436984 1_555
Nb1 S32 2.458704 1_555
Nb1 S23 2.511431 1_455
Nb1 S4 2.519644 1_455
Nb1 S40 2.538086 1_455
Nb1 S34 2.982339 1_454
Nb2 S36 2.258422 1_565
Nb2 S27 2.445971 1_555
Nb2 S15 2.457379 1_565
Nb2 S28 2.463447 1_555
Nb2 S29 2.489163 1_555
Nb2 S16 2.597046 1_565
Nb2 S2 2.962785 1_555
Nb3 S3 2.258422 1_545
Nb3 S19 2.445971 1_555
Nb3 S24 2.457379 1_545
Nb3 S39 2.463447 1_555
Nb3 S17 2.489163 1_555
Nb3 S22 2.597046 1_545
Nb3 S20 2.962785 1_555
Nb4 S37 2.251572 1_555
Nb4 S41 2.436984 1_555
Nb4 S20 2.458704 1_555
Nb4 S38 2.511431 1_545
Nb4 S10 2.519644 1_545
Nb4 S22 2.538086 1_545
Nb4 S24 2.982339 1_545
Nb5 S42 2.251572 1_555
Nb5 S7 2.436984 1_555
Nb5 S6 2.458704 1_555
Nb5 S5 2.511431 1_655
Nb5 S0 2.519644 1_655
Nb5 S9 2.538086 1_655
Nb5 S11 2.982339 1_656
Nb6 S25 2.258422 1_655
Nb6 S12 2.445971 1_555
Nb6 S11 2.457379 1_655
Nb6 S8 2.463447 1_555
Nb6 S26 2.489163 1_554
Nb6 S9 2.597046 1_654
Nb6 S6 2.962785 1_554
Nb7 S13 2.251572 1_555
Nb7 S35 2.436984 1_555
Nb7 S2 2.458704 1_555
Nb7 S31 2.511431 1_565
Nb7 S21 2.519644 1_565
Nb7 S16 2.538086 1_565
Nb7 S15 2.982339 1_565
S0 S9 2.082803 1_555
S1 S14 2.062368 1_554
S2 S35 2.088682 1_555
S4 S40 2.082803 1_555
S6 S7 2.088682 1_555
S10 S22 2.082803 1_555
S11 S12 2.083773 1_455
S15 S27 2.083773 1_545
S16 S21 2.082803 1_555
S17 S39 2.062368 1_555
S18 S34 2.083773 1_455
S19 S24 2.083773 1_545
S20 S41 2.088682 1_555
S23 S5 2.115545 1_654
S26 S8 2.062368 1_556
S28 S29 2.062368 1_555
S31 S38 2.115545 1_545
S32 S33 2.088682 1_555
