# generated using pymatgen
data_Ca2Bi10O17
_symmetry_space_group_name_H-M   'P 1'
_cell_length_a   7.76493100
_cell_length_b   7.88316222
_cell_length_c   9.78749559
_cell_angle_alpha   89.99442994
_cell_angle_beta   100.90164054
_cell_angle_gamma   117.86311626
_symmetry_Int_Tables_number   1
_chemical_formula_structural   Ca2Bi10O17
_chemical_formula_sum   'Ca2 Bi10 O17'
_cell_volume   517.40143446
_cell_formula_units_Z   1
loop_
 _symmetry_equiv_pos_site_id
 _symmetry_equiv_pos_as_xyz
  1  'x, y, z'
loop_
 _atom_site_type_symbol
 _atom_site_label
 _atom_site_symmetry_multiplicity
 _atom_site_fract_x
 _atom_site_fract_y
 _atom_site_fract_z
 _atom_site_occupancy
  Ca  Ca0  1  0.52062400  0.01185100  0.01941900  1
  Ca  Ca1  1  0.01681300  0.50842700  0.01932400  1
  Bi  Bi0  1  0.70513700  0.61640400  0.66871100  1
  Bi  Bi1  1  0.01846500  0.01123900  0.98235600  1
  Bi  Bi2  1  0.24054900  0.14367100  0.67340800  1
  Bi  Bi3  1  0.77885700  0.38851700  0.33819200  1
  Bi  Bi4  1  0.28328200  0.88673100  0.32986400  1
  Bi  Bi5  1  0.74888100  0.10836700  0.66446100  1
  Bi  Bi6  1  0.22701700  0.60819800  0.67608000  1
  Bi  Bi7  1  0.77400500  0.88603600  0.32789000  1
  Bi  Bi8  1  0.52431600  0.49773200  0.99508400  1
  Bi  Bi9  1  0.27338400  0.38019300  0.33158600  1
  O  O0  1  0.60399200  0.55388300  0.32302200  1
  O  O1  1  0.79828300  0.62625000  0.89530400  1
  O  O2  1  0.10736100  0.04528600  0.34783900  1
  O  O3  1  0.33254200  0.16758500  0.90285100  1
  O  O4  1  0.70947000  0.36133100  0.11448800  1
  O  O5  1  0.63346400  0.31762000  0.58986600  1
  O  O6  1  0.20986400  0.86488400  0.11128300  1
  O  O7  1  0.81230400  0.16795100  0.88986800  1
  O  O8  1  0.60776200  0.06297100  0.30274800  1
  O  O9  1  0.11135500  0.55624000  0.30317600  1
  O  O10  1  0.29661900  0.66999900  0.89620400  1
  O  O11  1  0.49564400  0.77331900  0.59420700  1
  O  O12  1  0.72137600  0.85837400  0.10999000  1
  O  O13  1  0.95787700  0.95556300  0.73706400  1
  O  O14  1  0.04991800  0.28313400  0.58755600  1
  O  O15  1  0.19542000  0.32583800  0.11205300  1
  O  O16  1  0.41541600  0.46240500  0.73910500  1
loop_
_geom_bond_atom_site_label_1
_geom_bond_atom_site_label_2
_geom_bond_distance
_geom_bond_site_symmetry_2
Ca0 O12 2.433017 1_545
Ca0 O3 2.446865 1_554
Ca0 O6 2.486099 1_545
Ca0 O4 2.512842 1_555
Ca0 O10 2.562798 1_544
Ca0 O7 2.594713 1_554
Ca0 O8 2.710319 1_555
Ca1 O1 2.430922 1_454
Ca1 O4 2.482219 1_455
Ca1 O10 2.489630 1_554
Ca1 O15 2.491686 1_555
Ca1 O6 2.550720 1_555
Ca1 O7 2.566468 1_454
Ca1 O9 2.714684 1_555
Bi0 O1 2.188268 1_555
Bi0 O16 2.245613 1_555
Bi0 O5 2.250691 1_555
Bi0 O13 2.458982 1_555
Bi0 O11 2.477908 1_555
Bi1 O13 2.357490 1_445
Bi1 O15 2.409482 1_556
Bi1 O3 2.445466 1_555
Bi1 O6 2.454657 1_546
Bi1 O7 2.491678 1_455
Bi1 O12 2.612598 1_446
Bi1 O1 2.731158 1_445
Bi2 O3 2.203699 1_555
Bi2 O13 2.208971 1_445
Bi2 O16 2.247562 1_555
Bi2 O14 2.270765 1_555
Bi3 O4 2.139180 1_555
Bi3 O8 2.260611 1_555
Bi3 O0 2.267888 1_555
Bi3 O9 2.382275 1_655
Bi4 O6 2.092487 1_555
Bi4 O2 2.268507 1_565
Bi4 O9 2.292444 1_555
Bi4 O8 2.308622 1_565
Bi5 O7 2.168725 1_555
Bi5 O5 2.278476 1_555
Bi5 O14 2.363009 1_655
Bi5 O11 2.439234 1_545
Bi5 O13 2.445495 1_545
Bi6 O10 2.117738 1_555
Bi6 O11 2.186661 1_555
Bi6 O16 2.252027 1_555
Bi6 O14 2.337570 1_555
Bi7 O12 2.085684 1_555
Bi7 O2 2.255180 1_665
Bi7 O8 2.288041 1_565
Bi7 O0 2.312217 1_555
Bi8 O1 2.297126 1_555
Bi8 O4 2.323409 1_556
Bi8 O3 2.382295 1_555
Bi8 O16 2.459323 1_555
Bi8 O12 2.640510 1_556
Bi8 O10 2.739275 1_555
Bi8 O15 2.745884 1_556
Bi9 O15 2.105376 1_555
Bi9 O9 2.255201 1_555
Bi9 O0 2.295185 1_555
Bi9 O2 2.356613 1_555
