# generated using pymatgen
data_BaLa4TiCr4O15
_symmetry_space_group_name_H-M   'P 1'
_cell_length_a   5.58076100
_cell_length_b   7.91895736
_cell_length_c   14.80623165
_cell_angle_alpha   105.31937896
_cell_angle_beta   100.59767603
_cell_angle_gamma   90.85967616
_symmetry_Int_Tables_number   1
_chemical_formula_structural   BaLa4TiCr4O15
_chemical_formula_sum   'Ba2 La8 Ti2 Cr8 O30'
_cell_volume   618.93178619
_cell_formula_units_Z   2
loop_
 _symmetry_equiv_pos_site_id
 _symmetry_equiv_pos_as_xyz
  1  'x, y, z'
loop_
 _atom_site_type_symbol
 _atom_site_label
 _atom_site_symmetry_multiplicity
 _atom_site_fract_x
 _atom_site_fract_y
 _atom_site_fract_z
 _atom_site_occupancy
  Ba  Ba0  1  0.50116300  0.25130200  0.00265200  1
  Ba  Ba1  1  0.49915800  0.74877600  0.99783700  1
  La  La0  1  0.90106900  0.64900500  0.79817900  1
  La  La1  1  0.29940300  0.05018300  0.60015800  1
  La  La2  1  0.69999100  0.44784300  0.39707300  1
  La  La3  1  0.89923000  0.14892800  0.79801600  1
  La  La4  1  0.10169400  0.85053400  0.20253400  1
  La  La5  1  0.30233400  0.55167600  0.60284300  1
  La  La6  1  0.69925700  0.95086100  0.40042100  1
  La  La7  1  0.09779300  0.35122900  0.20271700  1
  Ti  Ti0  1  0.99970800  0.00002800  0.00028300  1
  Ti  Ti1  1  0.00038300  0.49999600  0.00019700  1
  Cr  Cr0  1  0.39515500  0.39935100  0.79730600  1
  Cr  Cr1  1  0.79977900  0.80023400  0.59840300  1
  Cr  Cr2  1  0.40323800  0.89845700  0.79726200  1
  Cr  Cr3  1  0.60508000  0.60065300  0.20317600  1
  Cr  Cr4  1  0.79871100  0.29835200  0.59848000  1
  Cr  Cr5  1  0.20092800  0.70185200  0.40208700  1
  Cr  Cr6  1  0.20071400  0.19985100  0.40202000  1
  Cr  Cr7  1  0.59736600  0.10137500  0.20306000  1
  O  O0  1  0.72281400  0.42396900  0.88820500  1
  O  O1  1  0.99196500  0.74046700  0.98165500  1
  O  O2  1  0.16482000  0.96444400  0.88791100  1
  O  O3  1  0.13019300  0.81460400  0.68315700  1
  O  O4  1  0.20454800  0.43102800  0.90459500  1
  O  O5  1  0.38723100  0.13731700  0.77401600  1
  O  O6  1  0.40258700  0.65455500  0.80832200  1
  O  O7  1  0.55640100  0.37060600  0.68425700  1
  O  O8  1  0.70000400  0.97322700  0.90485700  1
  O  O9  1  0.52813500  0.20564100  0.48580400  1
  O  O10  1  0.64904400  0.82513900  0.71308300  1
  O  O11  1  0.78526000  0.53560700  0.57094700  1
  O  O12  1  0.81404800  0.06434600  0.62860100  1
  O  O13  1  0.95431600  0.78059200  0.48466900  1
  O  O14  1  0.06713500  0.38800200  0.71175600  1
  O  O15  1  0.93338500  0.61394000  0.28838800  1
  O  O16  1  0.04145600  0.21819500  0.51435300  1
  O  O17  1  0.19021600  0.93573100  0.37180700  1
  O  O18  1  0.20900000  0.46435700  0.42919100  1
  O  O19  1  0.35698900  0.17915500  0.28910700  1
  O  O20  1  0.46947000  0.79368300  0.51602000  1
  O  O21  1  0.29946100  0.02728200  0.09621900  1
  O  O22  1  0.44262600  0.62694800  0.31606400  1
  O  O23  1  0.60567500  0.34531100  0.19199200  1
  O  O24  1  0.60910200  0.86279200  0.22674400  1
  O  O25  1  0.79604800  0.56960900  0.09594400  1
  O  O26  1  0.87328900  0.18367300  0.31582500  1
  O  O27  1  0.83439600  0.03368600  0.11199600  1
  O  O28  1  0.00861400  0.25907300  0.01857600  1
  O  O29  1  0.27761700  0.57523400  0.11229200  1
loop_
_geom_bond_atom_site_label_1
_geom_bond_atom_site_label_2
_geom_bond_distance
_geom_bond_site_symmetry_2
Ba0 O23 2.652600 1_555
Ba0 O4 2.674359 1_554
Ba0 O8 2.675190 1_544
Ba0 O28 2.796587 1_655
Ba0 O28 2.801975 1_555
Ba0 O21 2.854076 1_555
Ba0 O25 2.858253 1_555
Ba0 O0 2.866307 1_554
Ba0 O2 2.868739 1_544
Ba0 O29 3.067985 1_555
Ba0 O27 3.084187 1_555
Ba0 O5 3.202395 1_554
Ba1 O6 2.654473 1_555
Ba1 O25 2.672561 1_556
Ba1 O21 2.683534 1_566
Ba1 O1 2.794678 1_455
Ba1 O1 2.804464 1_555
Ba1 O8 2.848085 1_555
Ba1 O27 2.853540 1_566
Ba1 O4 2.854120 1_555
Ba1 O29 2.870423 1_556
Ba1 O0 3.073127 1_555
Ba1 O2 3.081344 1_555
Ba1 O24 3.206276 1_556
La0 O10 2.418015 1_555
La0 O14 2.421659 1_655
La0 O1 2.569863 1_555
La0 O2 2.754671 1_655
La0 O0 2.762564 1_555
La0 O6 2.774216 1_655
La0 O6 2.813780 1_555
La0 O7 2.849533 1_555
La0 O3 2.861092 1_655
La0 O4 2.978908 1_655
La0 O8 2.990232 1_555
La0 O11 3.182761 1_555
La1 O20 2.394626 1_545
La1 O16 2.394666 1_555
La1 O5 2.435155 1_555
La1 O3 2.732683 1_545
La1 O7 2.758700 1_555
La1 O9 2.803737 1_555
La1 O13 2.815484 1_445
La1 O12 2.816106 1_455
La1 O12 2.821246 1_555
La2 O22 2.416527 1_555
La2 O26 2.432624 1_555
La2 O11 2.435395 1_555
La2 O23 2.872812 1_555
La3 O12 2.372918 1_555
La3 O2 2.543534 1_645
La3 O0 2.550969 1_555
La3 O4 2.723602 1_655
La3 O8 2.727281 1_545
La3 O10 2.765553 1_545
La3 O14 2.785344 1_655
La3 O5 2.810328 1_655
La3 O5 2.810787 1_555
La4 O17 2.371043 1_555
La4 O27 2.546090 1_465
La4 O29 2.551378 1_555
La4 O25 2.718462 1_455
La4 O21 2.722484 1_565
La4 O15 2.766456 1_455
La4 O24 2.785063 1_555
La4 O19 2.810606 1_565
La4 O24 2.836760 1_455
La5 O3 2.417460 1_555
La5 O7 2.421808 1_555
La5 O18 2.432556 1_555
La5 O6 2.878073 1_555
La6 O13 2.386087 1_555
La6 O9 2.394791 1_565
La6 O24 2.432714 1_555
La6 O26 2.743184 1_565
La6 O22 2.780221 1_555
La6 O16 2.789472 1_665
La6 O17 2.790065 1_555
La6 O20 2.829915 1_555
La6 O17 2.847988 1_655
La7 O15 2.422782 1_455
La7 O19 2.425880 1_555
La7 O28 2.579217 1_555
La7 O23 2.720639 1_455
La7 O29 2.764425 1_555
La7 O27 2.768818 1_455
La7 O26 2.833908 1_455
La7 O22 2.834954 1_555
La7 O23 2.868216 1_555
La7 O25 2.979665 1_455
La7 O21 2.989302 1_555
La7 O18 3.172127 1_555
Cr0 O6 1.983276 1_555
Cr0 O7 2.005529 1_555
Cr0 O5 2.010021 1_555
Cr0 O14 2.011381 1_555
Cr0 O4 2.033942 1_555
Cr0 O0 2.034340 1_555
Cr1 O10 1.995767 1_555
Cr1 O13 2.000891 1_555
Cr1 O20 2.006298 1_555
Cr1 O3 2.013704 1_655
Cr1 O12 2.017020 1_565
Cr1 O11 2.023830 1_555
Cr2 O6 1.981025 1_555
Cr2 O5 2.010489 1_565
Cr2 O10 2.010660 1_555
Cr2 O3 2.011744 1_555
Cr2 O8 2.033001 1_555
Cr2 O2 2.037644 1_555
Cr3 O23 1.984834 1_555
Cr3 O15 2.008384 1_555
Cr3 O22 2.009525 1_555
Cr3 O24 2.011084 1_555
Cr3 O29 2.032811 1_555
Cr3 O25 2.034959 1_555
Cr4 O14 1.993941 1_655
Cr4 O9 1.998836 1_555
Cr4 O16 2.004584 1_655
Cr4 O7 2.009967 1_555
Cr4 O12 2.016816 1_555
Cr4 O11 2.024708 1_555
Cr5 O15 1.993238 1_455
Cr5 O20 2.002427 1_555
Cr5 O13 2.004966 1_455
Cr5 O22 2.012521 1_555
Cr5 O17 2.016677 1_555
Cr5 O18 2.023575 1_555
Cr6 O19 1.994557 1_555
Cr6 O16 1.999326 1_555
Cr6 O9 2.003383 1_555
Cr6 O26 2.008214 1_455
Cr6 O17 2.017534 1_545
Cr6 O18 2.023949 1_555
Cr7 O23 1.981898 1_555
Cr7 O26 2.008185 1_555
Cr7 O19 2.010202 1_555
Cr7 O24 2.010515 1_545
Cr7 O21 2.030678 1_555
Cr7 O27 2.037282 1_555
O0 Ti1 2.002821 1_656
O1 Ti1 1.994503 1_656
O1 Ti0 1.999054 1_566
O2 Ti0 2.005168 1_466
O4 Ti1 1.950275 1_556
O8 Ti0 1.949489 1_566
O21 Ti0 1.953418 1_455
O25 Ti1 1.953090 1_655
O27 Ti0 1.998440 1_555
O28 Ti0 1.995580 1_455
O28 Ti1 1.997110 1_555
O29 Ti1 2.002166 1_555
