# generated using pymatgen
data_CoReGe2
_symmetry_space_group_name_H-M   'P 1'
_cell_length_a   4.33891328
_cell_length_b   4.33891328
_cell_length_c   4.33891328
_cell_angle_alpha   60.00000000
_cell_angle_beta   60.00000000
_cell_angle_gamma   60.00000000
_symmetry_Int_Tables_number   1
_chemical_formula_structural   CoReGe2
_chemical_formula_sum   'Co1 Re1 Ge2'
_cell_volume   57.76009665
_cell_formula_units_Z   1
loop_
 _symmetry_equiv_pos_site_id
 _symmetry_equiv_pos_as_xyz
  1  'x, y, z'
loop_
 _atom_site_type_symbol
 _atom_site_label
 _atom_site_symmetry_multiplicity
 _atom_site_fract_x
 _atom_site_fract_y
 _atom_site_fract_z
 _atom_site_occupancy
  Co  Co0  1  0.50000000  0.50000000  0.50000000  1
  Re  Re0  1  0.25000000  0.25000000  0.25000000  1
  Ge  Ge0  1  0.00000000  0.00000000  0.00000000  1
  Ge  Ge1  1  0.75000000  0.75000000  0.75000000  1
loop_
_geom_bond_atom_site_label_1
_geom_bond_atom_site_label_2
_geom_bond_distance
_geom_bond_site_symmetry_2
Co0 Re0 2.657031 1_565
Co0 Re0 2.657031 1_655
Co0 Ge1 2.657031 1_545
Co0 Ge1 2.657031 1_455
Co0 Ge1 2.657031 1_554
Co0 Ge1 2.657031 1_555
Co0 Re0 2.657031 1_556
Co0 Re0 2.657031 1_555
Co0 Ge0 3.068075 1_655
Co0 Ge0 3.068075 1_656
Co0 Ge0 3.068075 1_665
Co0 Ge0 3.068075 1_566
Co0 Ge0 3.068075 1_556
Co0 Ge0 3.068075 1_565
Ge0 Ge1 2.657031 1_454
Ge0 Ge1 2.657031 1_544
Ge0 Re0 2.657031 1_545
Ge0 Re0 2.657031 1_455
Ge0 Re0 2.657031 1_554
Ge0 Re0 2.657031 1_555
Ge0 Ge1 2.657031 1_445
Ge0 Ge1 2.657031 1_444
Ge1 Re0 3.068075 1_556
Ge1 Re0 3.068075 1_566
Ge1 Re0 3.068075 1_565
Ge1 Re0 3.068075 1_655
Ge1 Re0 3.068075 1_665
Ge1 Re0 3.068075 1_656
