# generated using pymatgen
data_AlPO4
_symmetry_space_group_name_H-M   'P 1'
_cell_length_a   18.32587707
_cell_length_b   18.32587707
_cell_length_c   8.57018800
_cell_angle_alpha   90.00000000
_cell_angle_beta   90.00000000
_cell_angle_gamma   131.81257522
_symmetry_Int_Tables_number   1
_chemical_formula_structural   AlPO4
_chemical_formula_sum   'Al18 P18 O72'
_cell_volume   2145.20257499
_cell_formula_units_Z   18
loop_
 _symmetry_equiv_pos_site_id
 _symmetry_equiv_pos_as_xyz
  1  'x, y, z'
loop_
 _atom_site_type_symbol
 _atom_site_label
 _atom_site_symmetry_multiplicity
 _atom_site_fract_x
 _atom_site_fract_y
 _atom_site_fract_z
 _atom_site_occupancy
  Al  Al0  1  0.07452400  0.07452400  0.05148300  1
  Al  Al1  1  0.80248800  0.96592000  0.02357800  1
  Al  Al2  1  0.96592000  0.80248800  0.02357800  1
  Al  Al3  1  0.40979900  0.77549100  0.03003500  1
  Al  Al4  1  0.22450900  0.59020100  0.53003500  1
  Al  Al5  1  0.67085600  0.12397700  0.02703200  1
  Al  Al6  1  0.36214900  0.05776100  0.03181800  1
  Al  Al7  1  0.94223900  0.63785100  0.53181800  1
  Al  Al8  1  0.12397700  0.67085600  0.02703200  1
  Al  Al9  1  0.87602300  0.32914400  0.52703200  1
  Al  Al10  1  0.05776100  0.36214900  0.03181800  1
  Al  Al11  1  0.32914400  0.87602300  0.52703200  1
  Al  Al12  1  0.77549100  0.40979900  0.03003500  1
  Al  Al13  1  0.92547600  0.92547600  0.55148300  1
  Al  Al14  1  0.63785100  0.94223900  0.53181800  1
  Al  Al15  1  0.19751200  0.03408000  0.52357800  1
  Al  Al16  1  0.03408000  0.19751200  0.52357800  1
  Al  Al17  1  0.59020100  0.22450900  0.53003500  1
  P  P0  1  0.57788700  0.21699500  0.91201600  1
  P  P1  1  0.62049700  0.93201300  0.90376400  1
  P  P2  1  0.12435900  0.12435900  0.41849800  1
  P  P3  1  0.00211200  0.16598600  0.89038300  1
  P  P4  1  0.37950300  0.06798700  0.40376400  1
  P  P5  1  0.42211300  0.78300500  0.41201600  1
  P  P6  1  0.31746900  0.86845100  0.90907800  1
  P  P7  1  0.16598600  0.00211200  0.89038300  1
  P  P8  1  0.06798700  0.37950300  0.40376400  1
  P  P9  1  0.13154900  0.68253100  0.40907800  1
  P  P10  1  0.86845100  0.31746900  0.90907800  1
  P  P11  1  0.78300500  0.42211300  0.41201600  1
  P  P12  1  0.87564100  0.87564100  0.91849800  1
  P  P13  1  0.83401400  0.99788800  0.39038300  1
  P  P14  1  0.68253100  0.13154900  0.40907800  1
  P  P15  1  0.21699500  0.57788700  0.91201600  1
  P  P16  1  0.99788800  0.83401400  0.39038300  1
  P  P17  1  0.93201300  0.62049700  0.90376400  1
  O  O0  1  0.16957000  0.48046700  0.43245700  1
  O  O1  1  0.67634700  0.34759400  0.47016100  1
  O  O2  1  0.92213700  0.10558800  0.42956700  1
  O  O3  1  0.69459100  0.94399800  0.01243200  1
  O  O4  1  0.97147400  0.73747900  0.43154800  1
  O  O5  1  0.98522500  0.83879900  0.21638100  1
  O  O6  1  0.21497800  0.13691800  0.45265300  1
  O  O7  1  0.89441200  0.07786300  0.92956700  1
  O  O8  1  0.16120100  0.01477500  0.71638100  1
  O  O9  1  0.51953300  0.83043000  0.93245700  1
  O  O10  1  0.34759400  0.67634700  0.47016100  1
  O  O11  1  0.65240600  0.32365300  0.97016100  1
  O  O12  1  0.48046700  0.16957000  0.43245700  1
  O  O13  1  0.88233900  0.32777600  0.73097400  1
  O  O14  1  0.09509600  0.09509600  0.24850200  1
  O  O15  1  0.11766100  0.67222400  0.23097400  1
  O  O16  1  0.63514600  0.03360900  0.48768100  1
  O  O17  1  0.01477500  0.16120100  0.71638100  1
  O  O18  1  0.83043000  0.51953300  0.93245700  1
  O  O19  1  0.90490400  0.90490400  0.74850200  1
  O  O20  1  0.62932500  0.16458600  0.46678600  1
  O  O21  1  0.07786300  0.89441200  0.92956700  1
  O  O22  1  0.07288100  0.16201100  0.97820900  1
  O  O23  1  0.83021900  0.52406000  0.47474700  1
  O  O24  1  0.79146500  0.20804500  0.95370700  1
  O  O25  1  0.02852600  0.26252100  0.93154800  1
  O  O26  1  0.65127500  0.93985100  0.73331100  1
  O  O27  1  0.67222400  0.11766100  0.23097400  1
  O  O28  1  0.34872500  0.06014900  0.23331100  1
  O  O29  1  0.16201100  0.07288100  0.97820900  1
  O  O30  1  0.78496100  0.42532600  0.23267100  1
  O  O31  1  0.37067500  0.83541400  0.96678600  1
  O  O32  1  0.93985100  0.65127500  0.73331100  1
  O  O33  1  0.42532600  0.78496100  0.23267100  1
  O  O34  1  0.73747900  0.97147400  0.43154800  1
  O  O35  1  0.01114000  0.61590600  0.94057300  1
  O  O36  1  0.32777600  0.88233900  0.73097400  1
  O  O37  1  0.04109200  0.04109200  0.52572800  1
  O  O38  1  0.30540900  0.05600200  0.51243200  1
  O  O39  1  0.10558800  0.92213700  0.42956700  1
  O  O40  1  0.32365300  0.65240600  0.97016100  1
  O  O41  1  0.03360900  0.63514600  0.48768100  1
  O  O42  1  0.52406000  0.83021900  0.47474700  1
  O  O43  1  0.16458600  0.62932500  0.46678600  1
  O  O44  1  0.86308200  0.78502200  0.95265300  1
  O  O45  1  0.15974000  0.60671400  0.97103200  1
  O  O46  1  0.05600200  0.30540900  0.51243200  1
  O  O47  1  0.83541400  0.37067500  0.96678600  1
  O  O48  1  0.36485400  0.96639100  0.98768100  1
  O  O49  1  0.57467400  0.21503900  0.73267100  1
  O  O50  1  0.83798900  0.92711900  0.47820900  1
  O  O51  1  0.95890800  0.95890800  0.02572800  1
  O  O52  1  0.78502200  0.86308200  0.95265300  1
  O  O53  1  0.21503900  0.57467400  0.73267100  1
  O  O54  1  0.61590600  0.01114000  0.94057300  1
  O  O55  1  0.13691800  0.21497800  0.45265300  1
  O  O56  1  0.60671400  0.15974000  0.97103200  1
  O  O57  1  0.26252100  0.02852600  0.93154800  1
  O  O58  1  0.98886000  0.38409400  0.44057300  1
  O  O59  1  0.96639100  0.36485400  0.98768100  1
  O  O60  1  0.79195500  0.20853500  0.45370700  1
  O  O61  1  0.83879900  0.98522500  0.21638100  1
  O  O62  1  0.16978100  0.47594000  0.97474700  1
  O  O63  1  0.47594000  0.16978100  0.97474700  1
  O  O64  1  0.38409400  0.98886000  0.44057300  1
  O  O65  1  0.39328600  0.84026000  0.47103200  1
  O  O66  1  0.92711900  0.83798900  0.47820900  1
  O  O67  1  0.20853500  0.79195500  0.45370700  1
  O  O68  1  0.20804500  0.79146500  0.95370700  1
  O  O69  1  0.94399800  0.69459100  0.01243200  1
  O  O70  1  0.84026000  0.39328600  0.47103200  1
  O  O71  1  0.06014900  0.34872500  0.23331100  1
loop_
_geom_bond_atom_site_label_1
_geom_bond_atom_site_label_2
_geom_bond_distance
_geom_bond_site_symmetry_2
Al0 O14 1.716316 1_555
Al0 O22 1.740723 1_554
Al0 O29 1.740723 1_554
Al0 O51 1.743913 1_445
Al1 O61 1.727525 1_555
Al1 O3 1.738121 1_555
Al1 O7 1.757108 1_564
Al1 O52 1.794239 1_554
Al2 O5 1.727525 1_555
Al2 O69 1.738121 1_555
Al2 O21 1.757108 1_654
Al2 O44 1.794239 1_554
Al3 O9 1.748524 1_554
Al3 O33 1.749605 1_555
Al3 O31 1.750327 1_554
Al3 O40 1.759355 1_554
Al4 O0 1.748524 1_555
Al4 O53 1.749605 1_555
Al4 O43 1.750327 1_555
Al4 O10 1.759355 1_555
Al5 O54 1.749998 1_554
Al5 O56 1.751796 1_554
Al5 O27 1.752933 1_555
Al5 O24 1.764438 1_554
Al6 O57 1.747754 1_554
Al6 O28 1.748926 1_555
Al6 O48 1.749272 1_544
Al6 O63 1.758963 1_554
Al7 O4 1.747754 1_555
Al7 O32 1.748926 1_555
Al7 O41 1.749272 1_655
Al7 O23 1.758963 1_555
Al8 O35 1.749998 1_554
Al8 O45 1.751796 1_554
Al8 O15 1.752933 1_555
Al8 O68 1.764438 1_554
Al9 O58 1.749998 1_555
Al9 O70 1.751796 1_555
Al9 O13 1.752933 1_555
Al9 O60 1.764438 1_555
Al10 O25 1.747754 1_554
Al10 O71 1.748926 1_555
Al10 O59 1.749272 1_454
Al10 O62 1.758963 1_554
Al11 O64 1.749998 1_555
Al11 O65 1.751796 1_555
Al11 O36 1.752933 1_555
Al11 O67 1.764438 1_555
Al12 O18 1.748524 1_554
Al12 O30 1.749605 1_555
Al12 O47 1.750327 1_554
Al12 O11 1.759355 1_554
Al13 O19 1.716316 1_555
Al13 O50 1.740723 1_555
Al13 O66 1.740723 1_555
Al13 O37 1.743913 1_665
Al14 O34 1.747754 1_555
Al14 O26 1.748926 1_555
Al14 O16 1.749272 1_565
Al14 O42 1.758963 1_555
Al15 O8 1.727525 1_555
Al15 O38 1.738121 1_555
Al15 O39 1.757108 1_545
Al15 O6 1.794239 1_555
Al16 O17 1.727525 1_555
Al16 O46 1.738121 1_555
Al16 O2 1.757108 1_455
Al16 O55 1.794239 1_555
Al17 O12 1.748524 1_555
Al17 O49 1.749605 1_555
Al17 O20 1.750327 1_555
Al17 O1 1.759355 1_555
O0 P8 1.535148 1_555
O1 P11 1.540959 1_555
O2 P13 1.538252 1_545
O3 P1 1.536761 1_554
O4 P16 1.531864 1_555
O5 P16 1.520671 1_555
O6 P2 1.544943 1_555
O7 P3 1.538252 1_655
O8 P7 1.520671 1_555
O9 P1 1.535148 1_555
O10 P5 1.540959 1_555
O11 P0 1.540959 1_555
O12 P4 1.535148 1_555
O13 P10 1.538247 1_555
O14 P2 1.521268 1_555
O15 P9 1.538247 1_555
O16 P14 1.533328 1_555
O17 P3 1.520671 1_555
O18 P17 1.535148 1_555
O19 P12 1.521268 1_555
O20 P14 1.532643 1_555
O21 P7 1.538252 1_565
O22 P3 1.542651 1_555
O23 P11 1.540347 1_555
O24 P10 1.544536 1_555
O25 P3 1.531864 1_555
O26 P1 1.537764 1_555
O27 P14 1.538247 1_555
O28 P4 1.537764 1_555
O29 P7 1.542651 1_555
O30 P11 1.537651 1_555
O31 P6 1.532643 1_555
O32 P17 1.537764 1_555
O33 P5 1.537651 1_555
O34 P13 1.531864 1_555
O35 P17 1.540122 1_455
O36 P6 1.538247 1_555
O37 P2 1.548134 1_555
O38 P4 1.536761 1_555
O39 P16 1.538252 1_455
O40 P15 1.540959 1_555
O41 P9 1.533328 1_555
O42 P5 1.540347 1_555
O43 P9 1.532643 1_555
O44 P12 1.544943 1_555
O45 P15 1.541074 1_555
O46 P8 1.536761 1_555
O47 P10 1.532643 1_555
O48 P6 1.533328 1_555
O49 P0 1.537651 1_555
O50 P13 1.542651 1_555
O51 P12 1.548134 1_554
O52 P12 1.544943 1_555
O53 P15 1.537651 1_555
O54 P1 1.540122 1_545
O55 P2 1.544943 1_555
O56 P0 1.541074 1_555
O57 P7 1.531864 1_555
O58 P8 1.540122 1_655
O59 P10 1.533328 1_555
O60 P14 1.544536 1_555
O61 P13 1.520671 1_555
O62 P15 1.540347 1_555
O63 P0 1.540347 1_555
O64 P4 1.540122 1_565
O65 P5 1.541074 1_555
O66 P16 1.542651 1_555
O67 P9 1.544536 1_555
O68 P6 1.544536 1_555
O69 P17 1.536761 1_554
O70 P11 1.541074 1_555
O71 P8 1.537764 1_555
