# generated using pymatgen
data_Bi16Ru16O55
_symmetry_space_group_name_H-M   'P 1'
_cell_length_a   7.32720135
_cell_length_b   7.32720112
_cell_length_c   58.57632230
_cell_angle_alpha   59.97543524
_cell_angle_beta   59.97543627
_cell_angle_gamma   59.99921564
_symmetry_Int_Tables_number   1
_chemical_formula_structural   Bi16Ru16O55
_chemical_formula_sum   'Bi32 Ru32 O110'
_cell_volume   2222.89741623
_cell_formula_units_Z   2
loop_
 _symmetry_equiv_pos_site_id
 _symmetry_equiv_pos_as_xyz
  1  'x, y, z'
loop_
 _atom_site_type_symbol
 _atom_site_label
 _atom_site_symmetry_multiplicity
 _atom_site_fract_x
 _atom_site_fract_y
 _atom_site_fract_z
 _atom_site_occupancy
  Bi  Bi0  1  0.50314984  0.98626786  0.06343383  1
  Bi  Bi1  1  0.50311857  0.50311857  0.06344241  1
  Bi  Bi2  1  -0.00003225  0.49995290  0.18750553  1
  Bi  Bi3  1  0.50687991  0.50687991  0.12242003  1
  Bi  Bi4  1  0.49995290  -0.00003225  0.18750553  1
  Bi  Bi5  1  0.98626786  0.50314984  0.06343383  1
  Bi  Bi6  1  0.50003654  0.50003654  0.18749329  1
  Bi  Bi7  1  0.01354068  0.49689593  0.31158514  1
  Bi  Bi8  1  0.49318750  0.49318750  0.25255502  1
  Bi  Bi9  1  0.49689593  0.01354068  0.31158514  1
  Bi  Bi10  1  0.49688626  0.49688626  0.31158785  1
  Bi  Bi11  1  0.00082968  0.50000705  0.43739665  1
  Bi  Bi12  1  0.50307757  0.50307757  0.37384578  1
  Bi  Bi13  1  0.50000705  0.00082968  0.43739665  1
  Bi  Bi14  1  0.49998962  0.49998962  0.43739914  1
  Bi  Bi15  1  0.50018444  0.50018444  0.49993075  1
  Bi  Bi16  1  0.49990045  0.49990045  0.56251557  1
  Bi  Bi17  1  0.49997915  -0.00004243  0.68750741  1
  Bi  Bi18  1  0.49989737  0.00007424  0.56251598  1
  Bi  Bi19  1  0.49994364  0.49994364  0.62502135  1
  Bi  Bi20  1  0.00007424  0.49989737  0.56251598  1
  Bi  Bi21  1  0.50000578  0.50000578  0.68750363  1
  Bi  Bi22  1  -0.00005759  0.50015058  0.81247192  1
  Bi  Bi23  1  0.50015058  -0.00005759  0.81247192  1
  Bi  Bi24  1  0.50000331  0.50000331  0.74999888  1
  Bi  Bi25  1  -0.00004243  0.49997915  0.68750741  1
  Bi  Bi26  1  0.50013117  0.50013117  0.81247464  1
  Bi  Bi27  1  0.99919321  0.50003392  0.93759563  1
  Bi  Bi28  1  0.49984586  0.49984586  0.87505749  1
  Bi  Bi29  1  0.50003392  0.99919321  0.93759563  1
  Bi  Bi30  1  0.50001036  0.50001036  0.93759848  1
  Bi  Bi31  1  0.49698343  0.49698343  0.00113079  1
  Ru  Ru0  1  0.00007917  0.00007917  0.00003885  1
  Ru  Ru1  1  0.00005273  0.49953948  0.00004068  1
  Ru  Ru2  1  0.49953948  0.00005273  0.00004068  1
  Ru  Ru3  1  0.99945635  0.99945635  0.12510565  1
  Ru  Ru4  1  0.99951312  0.50027478  0.12509117  1
  Ru  Ru5  1  0.50027478  0.99951312  0.12509117  1
  Ru  Ru6  1  0.00041948  0.00041948  0.24992491  1
  Ru  Ru7  1  0.00047571  0.49976770  0.24991921  1
  Ru  Ru8  1  0.49976770  0.00047571  0.24991921  1
  Ru  Ru9  1  0.99987836  0.99987836  0.37497277  1
  Ru  Ru10  1  0.99994916  0.99994916  0.06252929  1
  Ru  Ru11  1  0.99986076  0.50046227  0.37497448  1
  Ru  Ru12  1  0.50046227  0.99986076  0.37497448  1
  Ru  Ru13  1  0.99988421  0.99988421  0.50004332  1
  Ru  Ru14  1  -0.00004716  -0.00004716  0.18750529  1
  Ru  Ru15  1  0.99987521  0.49988473  0.50004356  1
  Ru  Ru16  1  0.49988473  0.99987521  0.50004356  1
  Ru  Ru17  1  -0.00015381  -0.00015381  0.62505225  1
  Ru  Ru18  1  0.00002560  0.00002560  0.31249245  1
  Ru  Ru19  1  -0.00012885  0.49988875  0.62505003  1
  Ru  Ru20  1  0.00025976  0.00025976  0.74991696  1
  Ru  Ru21  1  0.49988875  -0.00012885  0.62505003  1
  Ru  Ru22  1  0.99976809  0.99976809  0.43758805  1
  Ru  Ru23  1  0.00027055  0.50014185  0.74991560  1
  Ru  Ru24  1  0.50014185  0.00027055  0.74991560  1
  Ru  Ru25  1  0.99999516  0.99999516  0.56250108  1
  Ru  Ru26  1  0.00014586  0.50003884  0.87495458  1
  Ru  Ru27  1  0.00017568  0.00017568  0.87495044  1
  Ru  Ru28  1  0.00004298  0.00004298  0.81248448  1
  Ru  Ru29  1  -0.00000987  -0.00000987  0.68750020  1
  Ru  Ru30  1  0.50003884  0.00014586  0.87495458  1
  Ru  Ru31  1  0.00024954  0.00024954  0.93740600  1
  O  O0  1  0.07841322  0.66959656  0.01033730  1
  O  O1  1  0.08030945  0.08030945  0.08375151  1
  O  O2  1  0.66959656  0.07841322  0.01033730  1
  O  O3  1  0.36466126  0.36466126  0.05074921  1
  O  O4  1  0.08050814  0.66958422  0.08367099  1
  O  O5  1  0.08096445  0.67171037  0.13456197  1
  O  O6  1  0.32765807  0.92187248  0.04107767  1
  O  O7  1  0.32874005  0.32874005  0.11525828  1
  O  O8  1  0.08048360  0.08048360  0.20872535  1
  O  O9  1  0.66939152  0.66939152  0.01034023  1
  O  O10  1  0.66958422  0.08050814  0.08367099  1
  O  O11  1  0.92187248  0.32765807  0.04107767  1
  O  O12  1  0.67171037  0.08096445  0.13456197  1
  O  O13  1  0.38398029  0.38398029  0.16850768  1
  O  O14  1  0.08039248  0.66924835  0.20874523  1
  O  O15  1  0.32810285  0.92065534  0.11528192  1
  O  O16  1  0.07931736  0.67144028  0.25970809  1
  O  O17  1  0.32861507  0.32861507  0.24046528  1
  O  O18  1  0.33074794  0.91943782  0.16630154  1
  O  O19  1  0.07819777  0.07819777  0.33390143  1
  O  O20  1  0.67103049  0.67103049  0.13459338  1
  O  O21  1  0.92065534  0.32810285  0.11528192  1
  O  O22  1  0.66924835  0.08039248  0.20874523  1
  O  O23  1  0.92190367  0.92190367  0.04105060  1
  O  O24  1  0.67144028  0.07931736  0.25970809  1
  O  O25  1  0.61600192  0.61600192  0.20649997  1
  O  O26  1  0.91943782  0.33074794  0.16630154  1
  O  O27  1  0.32875953  0.91900045  0.24044967  1
  O  O28  1  0.07818349  0.67236219  0.33390936  1
  O  O29  1  0.07898467  0.67072110  0.38493610  1
  O  O30  1  0.33072437  0.33072437  0.36463641  1
  O  O31  1  0.07924139  0.07924139  0.45887766  1
  O  O32  1  0.33027245  0.91971826  0.29128358  1
  O  O33  1  0.67236219  0.07818349  0.33390936  1
  O  O34  1  0.67153879  0.67153879  0.25970580  1
  O  O35  1  0.91967135  0.91967135  0.16620920  1
  O  O36  1  0.91900045  0.32875953  0.24044967  1
  O  O37  1  0.67072110  0.07898467  0.38493610  1
  O  O38  1  0.37851760  0.37851760  0.42055557  1
  O  O39  1  0.63531571  0.63531571  0.32425703  1
  O  O40  1  0.91971826  0.33027245  0.29128358  1
  O  O41  1  0.07928859  0.67055839  0.45885810  1
  O  O42  1  0.33078260  0.92143484  0.36463550  1
  O  O43  1  0.32871363  0.92079396  0.41621248  1
  O  O44  1  0.07895570  0.67132218  0.50982714  1
  O  O45  1  0.07960651  0.07960651  0.58378603  1
  O  O46  1  0.32905620  0.32905620  0.49012385  1
  O  O47  1  0.92143484  0.33078260  0.36463550  1
  O  O48  1  0.67055839  0.07928859  0.45885810  1
  O  O49  1  0.67079664  0.67079664  0.38493105  1
  O  O50  1  0.91968293  0.91968293  0.29129769  1
  O  O51  1  0.92079396  0.32871363  0.41621248  1
  O  O52  1  0.67132218  0.07895570  0.50982714  1
  O  O53  1  0.07962787  0.67055354  0.58377259  1
  O  O54  1  0.62528924  0.62528924  0.45301657  1
  O  O55  1  0.37487917  0.37487917  0.54692054  1
  O  O56  1  0.32890176  0.92094031  0.49013078  1
  O  O57  1  0.07914089  0.67076094  0.63493525  1
  O  O58  1  0.32954975  0.32954975  0.61501725  1
  O  O59  1  0.07929586  0.07929586  0.70882889  1
  O  O60  1  0.32893757  0.92084613  0.54117243  1
  O  O61  1  0.67055354  0.07962787  0.58377259  1
  O  O62  1  0.92094031  0.32890176  0.49013078  1
  O  O63  1  0.92076034  0.92076034  0.41622227  1
  O  O64  1  0.67117496  0.67117496  0.50983135  1
  O  O65  1  0.67076094  0.07914089  0.63493525  1
  O  O66  1  0.92084613  0.32893757  0.54117243  1
  O  O67  1  0.07922140  0.67070870  0.70885722  1
  O  O68  1  0.32945093  0.92079366  0.61501905  1
  O  O69  1  0.37491073  0.37491073  0.67190847  1
  O  O70  1  0.62495568  0.62495568  0.57814157  1
  O  O71  1  0.32920955  0.32920955  0.74007522  1
  O  O72  1  0.07904661  0.07904661  0.83384588  1
  O  O73  1  0.32935384  0.92069883  0.66615540  1
  O  O74  1  0.07924448  0.67035581  0.75997104  1
  O  O75  1  0.67064411  0.67064411  0.63494262  1
  O  O76  1  0.92088460  0.92088460  0.54115317  1
  O  O77  1  0.92079366  0.32945093  0.61501905  1
  O  O78  1  0.67070870  0.07922140  0.70885722  1
  O  O79  1  0.67035581  0.07924448  0.75997104  1
  O  O80  1  0.62517195  0.62517195  0.70306090  1
  O  O81  1  0.37508249  0.37508249  0.79684371  1
  O  O82  1  0.32941990  0.92091322  0.74006550  1
  O  O83  1  0.92069883  0.32935384  0.66615540  1
  O  O84  1  0.07905824  0.67112635  0.83384578  1
  O  O85  1  0.32934618  0.92045936  0.79121550  1
  O  O86  1  0.32874871  0.32874871  0.86518149  1
  O  O87  1  0.07908670  0.07908670  0.95883647  1
  O  O88  1  0.07905315  0.67098044  0.88487218  1
  O  O89  1  0.92091322  0.32941990  0.74006550  1
  O  O90  1  0.67112635  0.07905824  0.83384578  1
  O  O91  1  0.67055773  0.67055773  0.75996337  1
  O  O92  1  0.92074940  0.92074940  0.66614012  1
  O  O93  1  0.67098044  0.07905315  0.88487218  1
  O  O94  1  0.37470683  0.37470683  0.92198512  1
  O  O95  1  0.62510872  0.62510872  0.82808458  1
  O  O96  1  0.92045936  0.32934618  0.79121550  1
  O  O97  1  0.32874732  0.92104784  0.86518439  1
  O  O98  1  0.07916028  0.67122663  0.95880607  1
  O  O99  1  0.32916591  0.32916591  0.99007992  1
  O  O100  1  0.32954542  0.92074499  0.91612159  1
  O  O101  1  0.92039541  0.92039541  0.79124268  1
  O  O102  1  0.92104784  0.32874732  0.86518439  1
  O  O103  1  0.67122663  0.07916028  0.95880607  1
  O  O104  1  0.67100073  0.67100073  0.88486871  1
  O  O105  1  0.92074499  0.32954542  0.91612159  1
  O  O106  1  0.62147047  0.62147047  0.95444807  1
  O  O107  1  0.32892721  0.92110802  0.99009021  1
  O  O108  1  0.92110802  0.32892721  0.99009021  1
  O  O109  1  0.92072387  0.92072387  0.91612477  1
loop_
_geom_bond_atom_site_label_1
_geom_bond_atom_site_label_2
_geom_bond_distance
_geom_bond_site_symmetry_2
Bi0 O3 2.268992 1_565
Bi0 O15 2.521350 1_555
Bi0 O10 2.545027 1_565
Bi0 O1 2.546762 1_565
Bi0 O6 2.549745 1_555
Bi0 O23 2.549846 1_555
Bi0 O2 2.557849 1_565
Bi1 O3 2.269413 1_555
Bi1 O7 2.519538 1_555
Bi1 O10 2.545157 1_555
Bi1 O4 2.545157 1_555
Bi1 O6 2.549825 1_555
Bi1 O11 2.549825 1_555
Bi1 O9 2.558021 1_555
Bi2 O25 2.301747 1_455
Bi2 O13 2.302031 1_555
Bi2 O26 2.536533 1_455
Bi2 O8 2.537133 1_555
Bi2 O14 2.538320 1_555
Bi2 O35 2.538893 1_455
Bi2 O5 2.559871 1_555
Bi2 O36 2.559926 1_455
Bi3 O13 2.203437 1_555
Bi3 O7 2.526489 1_555
Bi3 O15 2.527962 1_555
Bi3 O21 2.527963 1_555
Bi3 O20 2.562228 1_555
Bi3 O12 2.563767 1_555
Bi3 O5 2.563767 1_555
Bi4 O25 2.301747 1_545
Bi4 O13 2.302030 1_555
Bi4 O18 2.536533 1_545
Bi4 O8 2.537133 1_555
Bi4 O22 2.538320 1_555
Bi4 O35 2.538893 1_545
Bi4 O12 2.559871 1_555
Bi4 O27 2.559926 1_545
Bi5 O3 2.268992 1_655
Bi5 O21 2.521350 1_555
Bi5 O4 2.545027 1_655
Bi5 O1 2.546762 1_655
Bi5 O11 2.549745 1_555
Bi5 O23 2.549846 1_555
Bi5 O0 2.557849 1_655
Bi6 O25 2.301944 1_555
Bi6 O13 2.301951 1_555
Bi6 O18 2.536647 1_555
Bi6 O26 2.536647 1_555
Bi6 O22 2.538312 1_555
Bi6 O14 2.538312 1_555
Bi6 O20 2.557481 1_555
Bi6 O17 2.561334 1_555
Bi7 O39 2.268007 1_455
Bi7 O16 2.522608 1_555
Bi7 O50 2.546583 1_455
Bi7 O40 2.547099 1_455
Bi7 O19 2.549139 1_555
Bi7 O28 2.549239 1_555
Bi7 O47 2.555593 1_455
Bi8 O25 2.201878 1_555
Bi8 O24 2.528402 1_555
Bi8 O16 2.528402 1_555
Bi8 O34 2.528709 1_555
Bi8 O27 2.563339 1_555
Bi8 O36 2.563339 1_555
Bi8 O17 2.563782 1_555
Bi9 O39 2.268007 1_545
Bi9 O24 2.522608 1_555
Bi9 O50 2.546583 1_545
Bi9 O32 2.547099 1_545
Bi9 O19 2.549139 1_555
Bi9 O33 2.549239 1_555
Bi9 O42 2.555593 1_545
Bi10 O39 2.267982 1_555
Bi10 O34 2.522875 1_555
Bi10 O32 2.546909 1_555
Bi10 O40 2.546909 1_555
Bi10 O33 2.549168 1_555
Bi10 O28 2.549168 1_555
Bi10 O30 2.555526 1_555
Bi11 O54 2.246432 1_455
Bi11 O38 2.259932 1_555
Bi11 O29 2.538540 1_555
Bi11 O63 2.545568 1_455
Bi11 O51 2.545958 1_455
Bi11 O41 2.546835 1_555
Bi11 O31 2.547227 1_555
Bi11 O62 2.550493 1_455
Bi12 O38 2.233181 1_555
Bi12 O39 2.370823 1_555
Bi12 O42 2.537330 1_555
Bi12 O47 2.537330 1_555
Bi12 O30 2.537531 1_555
Bi12 O37 2.558945 1_555
Bi12 O29 2.558945 1_555
Bi12 O49 2.559194 1_555
Bi13 O54 2.246432 1_545
Bi13 O38 2.259932 1_555
Bi13 O37 2.538540 1_555
Bi13 O63 2.545569 1_545
Bi13 O43 2.545958 1_545
Bi13 O48 2.546835 1_555
Bi13 O31 2.547227 1_555
Bi13 O56 2.550493 1_545
Bi14 O54 2.246467 1_555
Bi14 O38 2.260010 1_555
Bi14 O49 2.538928 1_555
Bi14 O43 2.545914 1_555
Bi14 O51 2.545914 1_555
Bi14 O48 2.546772 1_555
Bi14 O41 2.546773 1_555
Bi14 O46 2.549972 1_555
Bi15 O54 2.242953 1_555
Bi15 O55 2.246568 1_555
Bi15 O46 2.547240 1_555
Bi15 O56 2.547526 1_555
Bi15 O62 2.547526 1_555
Bi15 O64 2.549467 1_555
Bi15 O52 2.549723 1_555
Bi15 O44 2.549723 1_555
Bi16 O55 2.242065 1_555
Bi16 O70 2.243952 1_555
Bi16 O58 2.539455 1_555
Bi16 O61 2.543040 1_555
Bi16 O53 2.543040 1_555
Bi16 O60 2.547545 1_555
Bi16 O66 2.547546 1_555
Bi16 O64 2.548926 1_555
Bi17 O80 2.241919 1_545
Bi17 O69 2.242918 1_555
Bi17 O82 2.542536 1_545
Bi17 O65 2.543102 1_555
Bi17 O59 2.545817 1_555
Bi17 O73 2.546049 1_545
Bi17 O92 2.546483 1_545
Bi17 O78 2.546616 1_555
Bi18 O55 2.242031 1_555
Bi18 O70 2.243907 1_545
Bi18 O68 2.539566 1_545
Bi18 O61 2.543042 1_555
Bi18 O45 2.543186 1_555
Bi18 O60 2.547551 1_545
Bi18 O76 2.547854 1_545
Bi18 O52 2.549210 1_555
Bi19 O70 2.241308 1_555
Bi19 O69 2.241659 1_555
Bi19 O58 2.546394 1_555
Bi19 O68 2.546547 1_555
Bi19 O77 2.546547 1_555
Bi19 O75 2.546721 1_555
Bi19 O65 2.546932 1_555
Bi19 O57 2.546932 1_555
Bi20 O55 2.242032 1_555
Bi20 O70 2.243907 1_455
Bi20 O77 2.539566 1_455
Bi20 O53 2.543042 1_555
Bi20 O45 2.543186 1_555
Bi20 O66 2.547551 1_455
Bi20 O76 2.547853 1_455
Bi20 O44 2.549210 1_555
Bi21 O80 2.241994 1_555
Bi21 O69 2.242954 1_555
Bi21 O75 2.542508 1_555
Bi21 O71 2.543259 1_555
Bi21 O73 2.545953 1_555
Bi21 O83 2.545953 1_555
Bi21 O78 2.546525 1_555
Bi21 O67 2.546525 1_555
Bi22 O95 2.242203 1_455
Bi22 O81 2.244035 1_555
Bi22 O74 2.539436 1_555
Bi22 O101 2.542889 1_455
Bi22 O96 2.543585 1_455
Bi22 O84 2.548570 1_555
Bi22 O72 2.548664 1_555
Bi22 O102 2.550374 1_455
Bi23 O95 2.242203 1_545
Bi23 O81 2.244035 1_555
Bi23 O79 2.539436 1_555
Bi23 O101 2.542889 1_545
Bi23 O85 2.543585 1_545
Bi23 O90 2.548570 1_555
Bi23 O72 2.548664 1_555
Bi23 O97 2.550374 1_545
Bi24 O81 2.239637 1_555
Bi24 O80 2.244091 1_555
Bi24 O79 2.546209 1_555
Bi24 O74 2.546209 1_555
Bi24 O91 2.546723 1_555
Bi24 O82 2.547449 1_555
Bi24 O89 2.547450 1_555
Bi24 O71 2.547985 1_555
Bi25 O80 2.241919 1_455
Bi25 O69 2.242918 1_555
Bi25 O89 2.542536 1_455
Bi25 O57 2.543102 1_555
Bi25 O59 2.545817 1_555
Bi25 O83 2.546049 1_455
Bi25 O92 2.546483 1_455
Bi25 O67 2.546616 1_555
Bi26 O95 2.242254 1_555
Bi26 O81 2.244109 1_555
Bi26 O91 2.540005 1_555
Bi26 O85 2.543476 1_555
Bi26 O96 2.543476 1_555
Bi26 O90 2.548462 1_555
Bi26 O84 2.548462 1_555
Bi26 O86 2.550087 1_555
Bi27 O94 2.246272 1_655
Bi27 O106 2.260152 1_555
Bi27 O108 2.540305 1_555
Bi27 O98 2.546274 1_655
Bi27 O109 2.546699 1_555
Bi27 O87 2.546937 1_655
Bi27 O105 2.547015 1_555
Bi27 O88 2.549989 1_655
Bi28 O94 2.243596 1_555
Bi28 O95 2.245761 1_555
Bi28 O93 2.547641 1_555
Bi28 O88 2.547641 1_555
Bi28 O104 2.547754 1_555
Bi28 O97 2.549737 1_555
Bi28 O102 2.549737 1_555
Bi28 O86 2.549760 1_555
Bi29 O94 2.246272 1_565
Bi29 O106 2.260152 1_555
Bi29 O107 2.540305 1_555
Bi29 O103 2.546274 1_565
Bi29 O109 2.546699 1_555
Bi29 O87 2.546937 1_565
Bi29 O100 2.547015 1_555
Bi29 O93 2.549989 1_565
Bi30 O94 2.246319 1_555
Bi30 O106 2.260162 1_555
Bi30 O99 2.539562 1_555
Bi30 O103 2.546256 1_555
Bi30 O98 2.546256 1_555
Bi30 O100 2.546989 1_555
Bi30 O105 2.546989 1_555
Bi30 O104 2.550295 1_555
Bi31 O106 2.231887 1_554
Bi31 O3 2.372242 1_555
Bi31 O9 2.538220 1_555
Bi31 O2 2.538692 1_555
Bi31 O0 2.538692 1_555
Bi31 O99 2.558937 1_554
Bi31 O107 2.559474 1_554
Bi31 O108 2.559474 1_554
O0 Ru0 2.012911 1_565
O0 Ru1 2.014984 1_555
O1 Ru3 2.012094 1_445
O1 Ru10 2.012583 1_445
O2 Ru0 2.012912 1_655
O2 Ru2 2.014984 1_555
O4 Ru10 2.011046 1_455
O4 Ru4 2.015191 1_455
O5 Ru3 1.999032 1_455
O5 Ru4 2.005057 1_455
O6 Ru10 1.999532 1_455
O6 Ru2 2.001581 1_565
O7 Ru5 2.008154 1_545
O7 Ru4 2.008154 1_455
O8 Ru6 2.005728 1_555
O8 Ru14 2.014337 1_555
O9 Ru2 2.013991 1_565
O9 Ru1 2.013991 1_655
O10 Ru10 2.011046 1_545
O10 Ru5 2.015191 1_545
O11 Ru10 1.999532 1_545
O11 Ru1 2.001581 1_655
O12 Ru3 1.999032 1_545
O12 Ru5 2.005057 1_545
O14 Ru7 2.004611 1_555
O14 Ru14 2.013836 1_565
O15 Ru3 2.004648 1_455
O15 Ru5 2.010495 1_555
O16 Ru7 2.006175 1_555
O16 Ru6 2.007161 1_565
O17 Ru8 2.001867 1_555
O17 Ru7 2.001867 1_555
O18 Ru5 2.006259 1_555
O18 Ru14 2.013990 1_565
O19 Ru18 1.998647 1_555
O19 Ru9 2.003152 1_445
O20 Ru5 2.003247 1_555
O20 Ru4 2.003247 1_555
O21 Ru3 2.004648 1_545
O21 Ru4 2.010495 1_555
O22 Ru8 2.004611 1_555
O22 Ru14 2.013836 1_655
O23 Ru0 2.000322 1_665
O23 Ru10 2.001001 1_555
O24 Ru8 2.006175 1_555
O24 Ru6 2.007161 1_655
O26 Ru4 2.006259 1_555
O26 Ru14 2.013990 1_655
O27 Ru8 2.002273 1_565
O27 Ru6 2.002921 1_565
O28 Ru18 1.998938 1_565
O28 Ru11 2.002828 1_455
O29 Ru11 2.005798 1_455
O29 Ru9 2.006316 1_455
O30 Ru12 2.014971 1_545
O30 Ru11 2.014972 1_455
O31 Ru13 2.005628 1_445
O31 Ru22 2.006469 1_445
O32 Ru18 2.011033 1_565
O32 Ru8 2.012965 1_565
O33 Ru18 1.998938 1_655
O33 Ru12 2.002828 1_545
O34 Ru8 2.006868 1_565
O34 Ru7 2.006869 1_655
O35 Ru3 2.001276 1_555
O35 Ru14 2.015661 1_665
O36 Ru7 2.002273 1_655
O36 Ru6 2.002921 1_655
O37 Ru12 2.005798 1_545
O37 Ru9 2.006316 1_545
O40 Ru18 2.011033 1_655
O40 Ru7 2.012965 1_655
O41 Ru22 2.005941 1_455
O41 Ru15 2.006556 1_455
O42 Ru12 2.014688 1_555
O42 Ru9 2.015229 1_455
O43 Ru22 2.005523 1_455
O43 Ru12 2.010170 1_555
O44 Ru13 2.004146 1_455
O44 Ru15 2.005673 1_455
O45 Ru25 2.007730 1_445
O45 Ru17 2.010018 1_555
O46 Ru16 2.007031 1_545
O46 Ru15 2.007031 1_455
O47 Ru11 2.014688 1_555
O47 Ru9 2.015228 1_545
O48 Ru22 2.005941 1_545
O48 Ru16 2.006556 1_545
O49 Ru12 2.005789 1_555
O49 Ru11 2.005789 1_555
O50 Ru18 2.010926 1_665
O50 Ru6 2.013362 1_665
O51 Ru22 2.005523 1_545
O51 Ru11 2.010170 1_555
O52 Ru13 2.004146 1_545
O52 Ru16 2.005673 1_545
O53 Ru25 2.007223 1_455
O53 Ru19 2.010563 1_555
O56 Ru13 2.006077 1_455
O56 Ru16 2.007473 1_555
O57 Ru17 2.006390 1_565
O57 Ru19 2.007357 1_555
O58 Ru21 2.009156 1_555
O58 Ru19 2.009156 1_555
O59 Ru20 2.002268 1_555
O59 Ru29 2.006725 1_555
O60 Ru16 2.004422 1_555
O60 Ru25 2.005048 1_455
O61 Ru25 2.007223 1_545
O61 Ru21 2.010563 1_555
O62 Ru13 2.006077 1_545
O62 Ru15 2.007473 1_555
O63 Ru22 2.005452 1_555
O63 Ru9 2.010698 1_555
O64 Ru16 2.004981 1_555
O64 Ru15 2.004981 1_555
O65 Ru17 2.006390 1_655
O65 Ru21 2.007357 1_555
O66 Ru15 2.004422 1_555
O66 Ru25 2.005048 1_545
O67 Ru23 2.000879 1_555
O67 Ru29 2.007176 1_565
O68 Ru17 2.008694 1_565
O68 Ru21 2.009776 1_565
O71 Ru24 2.005840 1_555
O71 Ru23 2.005840 1_555
O72 Ru27 2.003557 1_555
O72 Ru28 2.005173 1_555
O73 Ru21 2.002891 1_565
O73 Ru29 2.007507 1_565
O74 Ru23 2.008787 1_555
O74 Ru20 2.010575 1_565
O75 Ru21 2.007193 1_565
O75 Ru19 2.007193 1_655
O76 Ru13 2.003522 1_555
O76 Ru25 2.005620 1_555
O77 Ru17 2.008694 1_655
O77 Ru19 2.009776 1_655
O78 Ru24 2.000879 1_555
O78 Ru29 2.007176 1_655
O79 Ru24 2.008787 1_555
O79 Ru20 2.010575 1_655
O82 Ru24 2.005298 1_565
O82 Ru20 2.007138 1_565
O83 Ru19 2.002891 1_655
O83 Ru29 2.007507 1_655
O84 Ru26 2.003720 1_555
O84 Ru28 2.005226 1_565
O85 Ru28 2.006442 1_565
O85 Ru24 2.011703 1_565
O86 Ru30 2.004451 1_555
O86 Ru26 2.004451 1_555
O87 Ru31 2.007050 1_555
O87 Ru0 2.008451 1_556
O88 Ru26 2.007256 1_555
O88 Ru27 2.007257 1_565
O89 Ru23 2.005298 1_655
O89 Ru20 2.007138 1_655
O90 Ru30 2.003720 1_555
O90 Ru28 2.005226 1_655
O91 Ru24 2.009438 1_565
O91 Ru23 2.009438 1_655
O92 Ru17 2.002108 1_665
O92 Ru29 2.007692 1_665
O93 Ru30 2.007256 1_555
O93 Ru27 2.007257 1_655
O96 Ru28 2.006442 1_655
O96 Ru23 2.011703 1_655
O97 Ru30 2.004209 1_565
O97 Ru27 2.004319 1_565
O98 Ru31 2.006186 1_565
O98 Ru1 2.009946 1_556
O99 Ru2 2.006105 1_556
O99 Ru1 2.006105 1_556
O100 Ru30 2.005531 1_565
O100 Ru31 2.006551 1_565
O101 Ru28 2.005822 1_665
O101 Ru20 2.012943 1_665
O102 Ru26 2.004209 1_655
O102 Ru27 2.004319 1_655
O103 Ru31 2.006186 1_655
O103 Ru2 2.009946 1_556
O104 Ru30 2.006999 1_565
O104 Ru26 2.006999 1_655
O105 Ru26 2.005531 1_655
O105 Ru31 2.006551 1_655
O107 Ru0 2.004557 1_566
O107 Ru2 2.006695 1_566
O108 Ru0 2.004557 1_656
O108 Ru1 2.006695 1_656
O109 Ru27 2.005860 1_665
O109 Ru31 2.006594 1_665
