# generated using pymatgen
data_EuZn13
_symmetry_space_group_name_H-M   'P 1'
_cell_length_a   8.63504235
_cell_length_b   8.63504235
_cell_length_c   8.63504235
_cell_angle_alpha   60.00000000
_cell_angle_beta   60.00000000
_cell_angle_gamma   60.00000000
_symmetry_Int_Tables_number   1
_chemical_formula_structural   EuZn13
_chemical_formula_sum   'Eu2 Zn26'
_cell_volume   455.27983738
_cell_formula_units_Z   2
loop_
 _symmetry_equiv_pos_site_id
 _symmetry_equiv_pos_as_xyz
  1  'x, y, z'
loop_
 _atom_site_type_symbol
 _atom_site_label
 _atom_site_symmetry_multiplicity
 _atom_site_fract_x
 _atom_site_fract_y
 _atom_site_fract_z
 _atom_site_occupancy
  Eu  Eu0  1  0.25000000  0.25000000  0.25000000  1
  Eu  Eu1  1  0.75000000  0.75000000  0.75000000  1
  Zn  Zn0  1  0.05613900  0.30012700  0.69987300  1
  Zn  Zn1  1  0.94386100  0.69987300  0.30012700  1
  Zn  Zn2  1  0.55613900  0.80012700  0.44386100  1
  Zn  Zn3  1  0.19987300  0.44386100  0.80012700  1
  Zn  Zn4  1  0.05613900  0.94386100  0.30012700  1
  Zn  Zn5  1  0.44386100  0.55613900  0.80012700  1
  Zn  Zn6  1  0.94386100  0.30012700  0.05613900  1
  Zn  Zn7  1  0.44386100  0.80012700  0.19987300  1
  Zn  Zn8  1  0.19987300  0.80012700  0.55613900  1
  Zn  Zn9  1  0.30012700  0.05613900  0.94386100  1
  Zn  Zn10  1  0.30012700  0.69987300  0.05613900  1
  Zn  Zn11  1  0.69987300  0.94386100  0.05613900  1
  Zn  Zn12  1  0.80012700  0.55613900  0.19987300  1
  Zn  Zn13  1  0.55613900  0.19987300  0.80012700  1
  Zn  Zn14  1  0.94386100  0.05613900  0.69987300  1
  Zn  Zn15  1  0.80012700  0.19987300  0.44386100  1
  Zn  Zn16  1  0.69987300  0.30012700  0.94386100  1
  Zn  Zn17  1  0.69987300  0.05613900  0.30012700  1
  Zn  Zn18  1  0.30012700  0.94386100  0.69987300  1
  Zn  Zn19  1  0.55613900  0.44386100  0.19987300  1
  Zn  Zn20  1  0.05613900  0.69987300  0.94386100  1
  Zn  Zn21  1  0.44386100  0.19987300  0.55613900  1
  Zn  Zn22  1  0.80012700  0.44386100  0.55613900  1
  Zn  Zn23  1  0.19987300  0.55613900  0.44386100  1
  Zn  Zn24  1  0.50000000  0.50000000  0.50000000  1
  Zn  Zn25  1  0.00000000  0.00000000  0.00000000  1
loop_
_geom_bond_atom_site_label_1
_geom_bond_atom_site_label_2
_geom_bond_distance
_geom_bond_site_symmetry_2
Eu0 Zn7 3.540376 1_545
Eu0 Zn10 3.540376 1_555
Eu0 Zn0 3.540376 1_555
Eu0 Zn16 3.540376 1_554
Eu0 Zn15 3.540376 1_455
Eu0 Zn12 3.540376 1_455
Eu0 Zn17 3.540376 1_555
Eu0 Zn8 3.540376 1_545
Eu0 Zn18 3.540376 1_545
Eu0 Zn13 3.540376 1_554
Eu0 Zn20 3.540376 1_554
Eu0 Zn22 3.540376 1_455
Eu0 Zn1 3.540376 1_455
Eu0 Zn11 3.540376 1_545
Eu0 Zn3 3.540376 1_554
Eu0 Zn14 3.540376 1_455
Eu0 Zn2 3.540376 1_545
Eu0 Zn5 3.540376 1_554
Eu0 Zn4 3.540376 1_545
Eu0 Zn23 3.540376 1_555
Eu0 Zn9 3.540376 1_554
Eu0 Zn6 3.540376 1_455
Eu0 Zn19 3.540376 1_555
Eu0 Zn21 3.540376 1_555
Eu1 Zn20 3.540376 1_655
Eu1 Zn19 3.540376 1_556
Eu1 Zn4 3.540376 1_655
Eu1 Zn21 3.540376 1_565
Eu1 Zn5 3.540376 1_555
Eu1 Zn14 3.540376 1_565
Eu1 Zn22 3.540376 1_555
Eu1 Zn2 3.540376 1_555
Eu1 Zn9 3.540376 1_565
Eu1 Zn11 3.540376 1_556
Eu1 Zn13 3.540376 1_565
Eu1 Zn15 3.540376 1_565
Eu1 Zn8 3.540376 1_655
Eu1 Zn23 3.540376 1_655
Eu1 Zn7 3.540376 1_556
Eu1 Zn6 3.540376 1_556
Eu1 Zn3 3.540376 1_655
Eu1 Zn12 3.540376 1_556
Eu1 Zn17 3.540376 1_565
Eu1 Zn0 3.540376 1_655
Eu1 Zn10 3.540376 1_556
Eu1 Zn16 3.540376 1_555
Eu1 Zn1 3.540376 1_555
Eu1 Zn18 3.540376 1_555
Zn0 Zn22 2.535258 1_455
Zn0 Zn23 2.535258 1_555
Zn0 Zn25 2.636557 1_556
Zn0 Zn6 2.724229 1_456
Zn0 Zn16 2.724229 1_455
Zn0 Zn14 2.724229 1_455
Zn0 Zn18 2.724229 1_545
Zn0 Zn21 2.742208 1_555
Zn0 Zn3 2.742208 1_555
Zn0 Zn9 2.979531 1_555
Zn1 Zn22 2.535258 1_555
Zn1 Zn23 2.535258 1_655
Zn1 Zn25 2.636557 1_665
Zn1 Zn17 2.724229 1_565
Zn1 Zn4 2.724229 1_655
Zn1 Zn20 2.724229 1_654
Zn1 Zn10 2.724229 1_655
Zn1 Zn12 2.742208 1_555
Zn1 Zn2 2.742208 1_555
Zn1 Zn11 2.979531 1_555
Zn2 Zn24 2.636557 1_555
Zn2 Zn5 2.724229 1_555
Zn2 Zn7 2.724229 1_555
Zn2 Zn22 2.724229 1_555
Zn2 Zn8 2.724229 1_555
Zn3 Zn6 2.535258 1_456
Zn3 Zn8 2.724229 1_555
Zn3 Zn5 2.724229 1_555
Zn3 Zn9 2.742208 1_555
Zn4 Zn8 2.535258 1_555
Zn4 Zn9 2.724229 1_564
Zn4 Zn6 2.724229 1_465
Zn4 Zn7 2.742208 1_555
Zn5 Zn8 2.979531 1_555
Zn6 Zn9 2.724229 1_654
Zn7 Zn9 2.535258 1_564
Zn7 Zn8 2.724229 1_555
Zn10 Zn5 2.535258 1_554
Zn10 Zn19 2.535258 1_555
Zn10 Zn25 2.636557 1_565
Zn10 Zn9 2.724229 1_564
Zn10 Zn20 2.724229 1_554
Zn10 Zn18 2.724229 1_554
Zn10 Zn23 2.742208 1_555
Zn10 Zn7 2.742208 1_555
Zn10 Zn4 2.979531 1_555
Zn11 Zn7 2.535258 1_555
Zn11 Zn13 2.535258 1_564
Zn11 Zn25 2.636557 1_665
Zn11 Zn17 2.724229 1_565
Zn11 Zn20 2.724229 1_654
Zn11 Zn14 2.724229 1_564
Zn11 Zn16 2.724229 1_564
Zn11 Zn12 2.742208 1_555
Zn11 Zn2 2.742208 1_555
Zn12 Zn20 2.535258 1_654
Zn12 Zn6 2.535258 1_555
Zn12 Zn24 2.636557 1_555
Zn12 Zn19 2.724229 1_555
Zn12 Zn15 2.724229 1_555
Zn12 Zn7 2.724229 1_555
Zn12 Zn22 2.724229 1_555
Zn12 Zn2 2.979531 1_555
Zn13 Zn9 2.535258 1_555
Zn13 Zn24 2.636557 1_555
Zn13 Zn15 2.724229 1_555
Zn13 Zn3 2.724229 1_555
Zn13 Zn21 2.724229 1_555
Zn13 Zn5 2.724229 1_555
Zn13 Zn16 2.742208 1_555
Zn13 Zn14 2.742208 1_555
Zn13 Zn22 2.979531 1_555
Zn14 Zn15 2.535258 1_555
Zn14 Zn8 2.535258 1_645
Zn14 Zn25 2.636557 1_656
Zn14 Zn20 2.724229 1_645
Zn14 Zn18 2.724229 1_645
Zn14 Zn22 2.742208 1_555
Zn14 Zn16 2.979531 1_555
Zn15 Zn4 2.535258 1_645
Zn15 Zn24 2.636557 1_555
Zn15 Zn21 2.724229 1_555
Zn15 Zn22 2.724229 1_555
Zn15 Zn6 2.742208 1_555
Zn15 Zn17 2.742208 1_555
Zn15 Zn19 2.979531 1_555
Zn16 Zn5 2.535258 1_555
Zn16 Zn19 2.535258 1_556
Zn16 Zn25 2.636557 1_656
Zn16 Zn6 2.724229 1_556
Zn16 Zn17 2.724229 1_556
Zn16 Zn22 2.742208 1_555
Zn17 Zn2 2.535258 1_545
Zn17 Zn21 2.535258 1_555
Zn17 Zn25 2.636557 1_655
Zn17 Zn4 2.724229 1_645
Zn17 Zn19 2.742208 1_555
Zn17 Zn6 2.979531 1_555
Zn18 Zn2 2.535258 1_555
Zn18 Zn21 2.535258 1_565
Zn18 Zn25 2.636557 1_566
Zn18 Zn9 2.724229 1_565
Zn18 Zn8 2.742208 1_555
Zn18 Zn5 2.742208 1_555
Zn18 Zn20 2.979531 1_555
Zn19 Zn24 2.636557 1_555
Zn19 Zn7 2.724229 1_555
Zn19 Zn23 2.724229 1_555
Zn19 Zn21 2.724229 1_555
Zn19 Zn6 2.742208 1_555
Zn20 Zn3 2.535258 1_555
Zn20 Zn25 2.636557 1_566
Zn20 Zn8 2.742208 1_555
Zn20 Zn5 2.742208 1_555
Zn21 Zn24 2.636557 1_555
Zn21 Zn23 2.724229 1_555
Zn21 Zn9 2.742208 1_555
Zn21 Zn3 2.979531 1_555
Zn22 Zn24 2.636557 1_555
Zn22 Zn5 2.724229 1_555
Zn23 Zn24 2.636557 1_555
Zn23 Zn3 2.724229 1_555
Zn23 Zn8 2.724229 1_555
Zn23 Zn4 2.742208 1_555
Zn23 Zn7 2.979531 1_555
Zn24 Zn8 2.636557 1_555
Zn24 Zn5 2.636557 1_555
Zn24 Zn7 2.636557 1_555
Zn24 Zn3 2.636557 1_555
Zn25 Zn6 2.636557 1_455
Zn25 Zn4 2.636557 1_545
Zn25 Zn9 2.636557 1_554
