# generated using pymatgen
data_Hf2N2O
_symmetry_space_group_name_H-M   'P 1'
_cell_length_a   8.65812088
_cell_length_b   8.67458483
_cell_length_c   8.67477067
_cell_angle_alpha   109.58925934
_cell_angle_beta   109.45328378
_cell_angle_gamma   109.25197273
_symmetry_Int_Tables_number   1
_chemical_formula_structural   Hf2N2O
_chemical_formula_sum   'Hf16 N16 O8'
_cell_volume   502.27614683
_cell_formula_units_Z   8
loop_
 _symmetry_equiv_pos_site_id
 _symmetry_equiv_pos_as_xyz
  1  'x, y, z'
loop_
 _atom_site_type_symbol
 _atom_site_label
 _atom_site_symmetry_multiplicity
 _atom_site_fract_x
 _atom_site_fract_y
 _atom_site_fract_z
 _atom_site_occupancy
  Hf  Hf0  1  0.54054582  0.75890574  0.78850132  1
  Hf  Hf1  1  0.50172421  0.48996876  0.00800344  1
  Hf  Hf2  1  0.74754980  0.77791246  0.52619176  1
  Hf  Hf3  1  0.25018268  0.71474018  0.95879107  1
  Hf  Hf4  1  0.28069864  0.53272369  0.24113403  1
  Hf  Hf5  1  0.79585928  0.03978028  0.25851958  1
  Hf  Hf6  1  0.99040739  0.98792043  0.99737799  1
  Hf  Hf7  1  0.96624482  0.24856312  0.71378387  1
  Hf  Hf8  1  0.03193546  0.74920523  0.28924461  1
  Hf  Hf9  1  0.51066498  0.01787349  0.50818146  1
  Hf  Hf10  1  0.00862614  0.50515344  0.49545367  1
  Hf  Hf11  1  0.21874349  0.96152834  0.75078818  1
  Hf  Hf12  1  0.71342202  0.46906495  0.75214738  1
  Hf  Hf13  1  0.75097189  0.28672851  0.02834999  1
  Hf  Hf14  1  0.24528706  0.20465125  0.46448765  1
  Hf  Hf15  1  0.46122466  0.24586171  0.21337297  1
  N  N0  1  0.72322946  0.98092875  0.44881741  1
  N  N1  1  0.04615583  0.27602449  0.51271384  1
  N  N2  1  0.22502886  0.45636590  0.96552820  1
  N  N3  1  0.23534640  0.96221908  0.01422212  1
  N  N4  1  0.27235155  0.73390718  0.72712005  1
  N  N5  1  0.03624191  0.48782475  0.26213508  1
  N  N6  1  0.75657180  0.03214330  0.98892170  1
  N  N7  1  0.74295751  0.23002905  0.77192221  1
  N  N8  1  0.77083759  0.72729092  0.75771550  1
  N  N9  1  0.51077279  0.24209965  0.46666642  1
  N  N10  1  0.99187496  0.95787634  0.22756596  1
  N  N11  1  0.77059395  0.55056386  0.03359588  1
  N  N12  1  0.95420115  0.72790120  0.49034398  1
  N  N13  1  0.27520639  0.01192380  0.54634954  1
  N  N14  1  0.46731306  0.22729399  0.95617406  1
  N  N15  1  0.53970336  0.53103045  0.27378563  1
  O  O0  1  0.45405125  0.46875153  0.72935590  1
  O  O1  1  0.53166004  0.77124589  0.04187085  1
  O  O2  1  0.01432380  0.04995195  0.77626272  1
  O  O3  1  0.48301975  0.76172464  0.53448368  1
  O  O4  1  0.22449720  0.27201097  0.23298587  1
  O  O5  1  0.26747214  0.77221679  0.23014216  1
  O  O6  1  0.96532237  0.51388345  0.74002127  1
  O  O7  1  0.72718052  0.26420849  0.27697300  1
loop_
_geom_bond_atom_site_label_1
_geom_bond_atom_site_label_2
_geom_bond_distance
_geom_bond_site_symmetry_2
Hf0 N6 2.070341 1_565
Hf0 O3 2.101764 1_555
Hf0 N4 2.118836 1_555
Hf0 N8 2.188220 1_555
Hf0 O0 2.189595 1_555
Hf0 O1 2.192838 1_556
Hf1 N14 2.063744 1_554
Hf1 N15 2.101877 1_555
Hf1 N11 2.124929 1_555
Hf1 N2 2.199876 1_554
Hf1 O0 2.243689 1_554
Hf1 O1 2.271227 1_555
Hf2 N12 2.068380 1_555
Hf2 N15 2.075756 1_555
Hf2 N0 2.130560 1_555
Hf2 N8 2.155749 1_555
Hf2 O3 2.274849 1_555
Hf2 O2 2.290235 1_665
Hf3 N3 2.094556 1_556
Hf3 O1 2.122366 1_556
Hf3 O6 2.133442 1_455
Hf3 N4 2.136188 1_555
Hf3 O5 2.177381 1_556
Hf3 N2 2.201965 1_555
Hf4 N2 2.084964 1_554
Hf4 N5 2.103665 1_555
Hf4 O4 2.121482 1_555
Hf4 O5 2.149575 1_555
Hf4 N15 2.170405 1_555
Hf4 O3 2.199272 1_555
Hf5 N0 2.103809 1_545
Hf5 N10 2.104254 1_545
Hf5 N1 2.148642 1_655
Hf5 O7 2.187956 1_555
Hf5 O1 2.208594 1_545
Hf5 N6 2.222832 1_554
Hf6 N10 2.095150 1_556
Hf6 N8 2.104545 1_555
Hf6 N6 2.164154 1_565
Hf6 N3 2.166959 1_656
Hf6 O2 2.212421 1_665
Hf6 O4 2.219887 1_666
Hf7 O2 2.093831 1_655
Hf7 N2 2.115762 1_655
Hf7 N7 2.125203 1_555
Hf7 N1 2.133437 1_655
Hf7 O6 2.238536 1_555
Hf7 N0 2.253742 1_545
Hf8 N12 2.108689 1_455
Hf8 N11 2.128684 1_455
Hf8 N10 2.150121 1_455
Hf8 N5 2.213977 1_555
Hf8 N13 2.213979 1_565
Hf8 O5 2.226673 1_555
Hf9 N7 2.082599 1_555
Hf9 N9 2.093257 1_555
Hf9 N13 2.158696 1_555
Hf9 N0 2.159761 1_545
Hf9 O5 2.236938 1_545
Hf9 O3 2.252149 1_545
Hf10 N5 2.078055 1_555
Hf10 N4 2.114622 1_555
Hf10 N12 2.145118 1_455
Hf10 N1 2.161388 1_555
Hf10 O7 2.192582 1_455
Hf10 O6 2.255697 1_455
Hf11 N13 2.128769 1_565
Hf11 N14 2.130918 1_565
Hf11 N4 2.133613 1_555
Hf11 O2 2.193581 1_565
Hf11 N12 2.208980 1_455
Hf11 N3 2.239289 1_556
Hf12 N8 2.108129 1_555
Hf12 N11 2.124285 1_556
Hf12 O6 2.130723 1_555
Hf12 N9 2.155478 1_555
Hf12 O0 2.186774 1_555
Hf12 N7 2.225611 1_555
Hf13 N7 2.082296 1_554
Hf13 N6 2.138134 1_554
Hf13 N14 2.147987 1_554
Hf13 N5 2.169434 1_655
Hf13 N11 2.222052 1_555
Hf13 O7 2.298706 1_555
Hf14 N13 2.079800 1_555
Hf14 N1 2.131090 1_555
Hf14 N10 2.137626 1_445
Hf14 O0 2.183623 1_555
Hf14 N9 2.205452 1_555
Hf14 O4 2.241033 1_555
Hf15 N9 2.107730 1_555
Hf15 O7 2.117852 1_555
Hf15 N3 2.142265 1_545
Hf15 N15 2.154234 1_555
Hf15 O4 2.189590 1_555
Hf15 N14 2.202199 1_554
