# generated using pymatgen
data_AlPO4
_symmetry_space_group_name_H-M   'P 1'
_cell_length_a   14.18972400
_cell_length_b   15.36385100
_cell_length_c   17.65133700
_cell_angle_alpha   90.00000000
_cell_angle_beta   90.00000000
_cell_angle_gamma   90.00000000
_symmetry_Int_Tables_number   1
_chemical_formula_structural   AlPO4
_chemical_formula_sum   'Al32 P32 O128'
_cell_volume   3848.14689074
_cell_formula_units_Z   32
loop_
 _symmetry_equiv_pos_site_id
 _symmetry_equiv_pos_as_xyz
  1  'x, y, z'
loop_
 _atom_site_type_symbol
 _atom_site_label
 _atom_site_symmetry_multiplicity
 _atom_site_fract_x
 _atom_site_fract_y
 _atom_site_fract_z
 _atom_site_occupancy
  Al  Al0  1  0.07795500  0.59944100  0.42653500  1
  Al  Al1  1  0.42204500  0.09944100  0.42653500  1
  Al  Al2  1  0.07795500  0.90055900  0.92653500  1
  Al  Al3  1  0.21428500  0.33963600  0.53947500  1
  Al  Al4  1  0.92204500  0.40055900  0.57346500  1
  Al  Al5  1  0.55461300  0.09752800  0.93407800  1
  Al  Al6  1  0.78571500  0.83963600  0.96052500  1
  Al  Al7  1  0.57795500  0.90055900  0.57346500  1
  Al  Al8  1  0.78571500  0.66036400  0.46052500  1
  Al  Al9  1  0.44538700  0.90247200  0.06592200  1
  Al  Al10  1  0.92204500  0.09944100  0.07346500  1
  Al  Al11  1  0.28571500  0.66036400  0.03947500  1
  Al  Al12  1  0.05461300  0.40247200  0.06592200  1
  Al  Al13  1  0.55536500  0.22673200  0.15990400  1
  Al  Al14  1  0.94463500  0.77326800  0.65990400  1
  Al  Al15  1  0.94463500  0.72673200  0.15990400  1
  Al  Al16  1  0.21428500  0.16036400  0.03947500  1
  Al  Al17  1  0.44463500  0.77326800  0.84009600  1
  Al  Al18  1  0.44538700  0.59752800  0.56592200  1
  Al  Al19  1  0.44463500  0.72673200  0.34009600  1
  Al  Al20  1  0.71428500  0.16036400  0.46052500  1
  Al  Al21  1  0.57795500  0.59944100  0.07346500  1
  Al  Al22  1  0.55461300  0.40247200  0.43407800  1
  Al  Al23  1  0.94538700  0.90247200  0.43407800  1
  Al  Al24  1  0.05536500  0.27326800  0.84009600  1
  Al  Al25  1  0.55536500  0.27326800  0.65990400  1
  Al  Al26  1  0.94538700  0.59752800  0.93407800  1
  Al  Al27  1  0.05536500  0.22673200  0.34009600  1
  Al  Al28  1  0.42204500  0.40055900  0.92653500  1
  Al  Al29  1  0.71428500  0.33963600  0.96052500  1
  Al  Al30  1  0.05461300  0.09752800  0.56592200  1
  Al  Al31  1  0.28571500  0.83963600  0.53947500  1
  P  P0  1  0.05990700  0.22671400  0.15780200  1
  P  P1  1  0.05990700  0.27328600  0.65780200  1
  P  P2  1  0.08044500  0.90039600  0.57580200  1
  P  P3  1  0.91955500  0.09960400  0.42419800  1
  P  P4  1  0.91955500  0.40039600  0.92419800  1
  P  P5  1  0.94740500  0.59633700  0.57127200  1
  P  P6  1  0.05259500  0.40366300  0.42872800  1
  P  P7  1  0.44009300  0.72671400  0.15780200  1
  P  P8  1  0.55259500  0.09633700  0.57127200  1
  P  P9  1  0.55990700  0.22671400  0.34219800  1
  P  P10  1  0.05259500  0.09633700  0.92872800  1
  P  P11  1  0.21526300  0.33870700  0.95582600  1
  P  P12  1  0.58044500  0.59960400  0.42419800  1
  P  P13  1  0.71526300  0.33870700  0.54417400  1
  P  P14  1  0.71526300  0.16129300  0.04417400  1
  P  P15  1  0.78473700  0.66129300  0.04417400  1
  P  P16  1  0.28473700  0.83870700  0.95582600  1
  P  P17  1  0.44740500  0.59633700  0.92872800  1
  P  P18  1  0.08044500  0.59960400  0.07580200  1
  P  P19  1  0.44740500  0.90366300  0.42872800  1
  P  P20  1  0.28473700  0.66129300  0.45582600  1
  P  P21  1  0.94740500  0.90366300  0.07127200  1
  P  P22  1  0.21526300  0.16129300  0.45582600  1
  P  P23  1  0.94009300  0.77328600  0.84219800  1
  P  P24  1  0.55259500  0.40366300  0.07127200  1
  P  P25  1  0.58044500  0.90039600  0.92419800  1
  P  P26  1  0.78473700  0.83870700  0.54417400  1
  P  P27  1  0.41955500  0.09960400  0.07580200  1
  P  P28  1  0.44009300  0.77328600  0.65780200  1
  P  P29  1  0.55990700  0.27328600  0.84219800  1
  P  P30  1  0.41955500  0.40039600  0.57580200  1
  P  P31  1  0.94009300  0.72671400  0.34219800  1
  O  O0  1  0.95083900  0.00851300  0.39662600  1
  O  O1  1  0.47019900  0.17771100  0.36625800  1
  O  O2  1  0.14624300  0.10229300  0.97348900  1
  O  O3  1  0.64624300  0.39770700  0.02651100  1
  O  O4  1  0.34673200  0.68442000  0.38762300  1
  O  O5  1  0.45441900  0.99532800  0.39390400  1
  O  O6  1  0.54916100  0.99148700  0.89662600  1
  O  O7  1  0.04558100  0.00467200  0.89390400  1
  O  O8  1  0.64662500  0.31310000  0.88121800  1
  O  O9  1  0.03168800  0.61354100  0.51805300  1
  O  O10  1  0.03168800  0.88645900  0.01805300  1
  O  O11  1  0.84104400  0.89393000  0.48717000  1
  O  O12  1  0.47019900  0.32228900  0.86625800  1
  O  O13  1  0.29958100  0.39138300  0.92706300  1
  O  O14  1  0.07361800  0.21861200  0.24317400  1
  O  O15  1  0.34673200  0.81558000  0.88762300  1
  O  O16  1  0.54907000  0.33711800  0.13555000  1
  O  O17  1  0.04932800  0.17628300  0.63709400  1
  O  O18  1  0.54932800  0.17628300  0.86290600  1
  O  O19  1  0.95067200  0.67628300  0.86290600  1
  O  O20  1  0.15326800  0.31558000  0.88762300  1
  O  O21  1  0.35375700  0.60229300  0.97348900  1
  O  O22  1  0.45093000  0.83711800  0.36445000  1
  O  O23  1  0.95093000  0.66288200  0.63555000  1
  O  O24  1  0.53898500  0.61824100  0.50331500  1
  O  O25  1  0.65326800  0.18442000  0.11237700  1
  O  O26  1  0.54916100  0.50851300  0.39662600  1
  O  O27  1  0.96101500  0.38175900  0.00331500  1
  O  O28  1  0.74729400  0.75617000  0.50463700  1
  O  O29  1  0.53898500  0.88175900  0.00331500  1
  O  O30  1  0.96831200  0.38645900  0.48194700  1
  O  O31  1  0.45067200  0.67628300  0.63709400  1
  O  O32  1  0.70041900  0.60861700  0.07293700  1
  O  O33  1  0.15895600  0.39393000  0.01283000  1
  O  O34  1  0.42638200  0.78138800  0.74317400  1
  O  O35  1  0.04907000  0.33711800  0.36445000  1
  O  O36  1  0.34104400  0.60607000  0.51283000  1
  O  O37  1  0.46101500  0.11824100  0.99668500  1
  O  O38  1  0.79958100  0.10861700  0.07293700  1
  O  O39  1  0.45300800  0.33108100  0.63285600  1
  O  O40  1  0.07361800  0.28138800  0.74317400  1
  O  O41  1  0.95441900  0.50467200  0.60609600  1
  O  O42  1  0.20041900  0.89138300  0.92706300  1
  O  O43  1  0.97019900  0.17771100  0.13374200  1
  O  O44  1  0.95300800  0.33108100  0.86714400  1
  O  O45  1  0.24729400  0.75617000  0.99536300  1
  O  O46  1  0.65326800  0.31558000  0.61237700  1
  O  O47  1  0.95441900  0.99532800  0.10609600  1
  O  O48  1  0.95067200  0.82371700  0.36290600  1
  O  O49  1  0.45083900  0.49148700  0.60337400  1
  O  O50  1  0.75270600  0.25617000  0.50463700  1
  O  O51  1  0.20041900  0.60861700  0.42706300  1
  O  O52  1  0.45067200  0.82371700  0.13709400  1
  O  O53  1  0.18843000  0.60110100  0.06994100  1
  O  O54  1  0.75270600  0.24383000  0.00463700  1
  O  O55  1  0.04558100  0.49532800  0.39390400  1
  O  O56  1  0.84104400  0.60607000  0.98717000  1
  O  O57  1  0.95300800  0.16891900  0.36714400  1
  O  O58  1  0.70041900  0.89138300  0.57293700  1
  O  O59  1  0.25270600  0.24383000  0.49536300  1
  O  O60  1  0.57361800  0.28138800  0.75682600  1
  O  O61  1  0.04699200  0.66891900  0.13285600  1
  O  O62  1  0.15326800  0.18442000  0.38762300  1
  O  O63  1  0.04932800  0.32371700  0.13709400  1
  O  O64  1  0.02980100  0.67771100  0.36625800  1
  O  O65  1  0.57361800  0.21861200  0.25682600  1
  O  O66  1  0.14624300  0.39770700  0.47348900  1
  O  O67  1  0.64624300  0.10229300  0.52651100  1
  O  O68  1  0.45441900  0.50467200  0.89390400  1
  O  O69  1  0.45300800  0.16891900  0.13285600  1
  O  O70  1  0.04916100  0.99148700  0.60337400  1
  O  O71  1  0.25270600  0.25617000  0.99536300  1
  O  O72  1  0.42638200  0.71861200  0.24317400  1
  O  O73  1  0.68843000  0.89889900  0.93005900  1
  O  O74  1  0.81157000  0.10110100  0.43005900  1
  O  O75  1  0.52980100  0.67771100  0.13374200  1
  O  O76  1  0.45083900  0.00851300  0.10337400  1
  O  O77  1  0.15895600  0.10607000  0.51283000  1
  O  O78  1  0.54699200  0.83108100  0.86714400  1
  O  O79  1  0.85337500  0.81310000  0.88121800  1
  O  O80  1  0.64662500  0.18690000  0.38121800  1
  O  O81  1  0.14662500  0.31310000  0.61878200  1
  O  O82  1  0.65895600  0.10607000  0.98717000  1
  O  O83  1  0.95093000  0.83711800  0.13555000  1
  O  O84  1  0.04916100  0.50851300  0.10337400  1
  O  O85  1  0.46831200  0.38645900  0.01805300  1
  O  O86  1  0.96101500  0.11824100  0.50331500  1
  O  O87  1  0.92638200  0.78138800  0.75682600  1
  O  O88  1  0.31157000  0.39889900  0.56994100  1
  O  O89  1  0.46831200  0.11354100  0.51805300  1
  O  O90  1  0.53168800  0.61354100  0.98194700  1
  O  O91  1  0.54558100  0.00467200  0.60609600  1
  O  O92  1  0.54932800  0.32371700  0.36290600  1
  O  O93  1  0.85375700  0.89770700  0.02651100  1
  O  O94  1  0.31157000  0.10110100  0.06994100  1
  O  O95  1  0.74729400  0.74383000  0.00463700  1
  O  O96  1  0.54907000  0.16288200  0.63555000  1
  O  O97  1  0.03898500  0.88175900  0.49668500  1
  O  O98  1  0.03898500  0.61824100  0.99668500  1
  O  O99  1  0.65895600  0.39393000  0.48717000  1
  O  O100  1  0.14662500  0.18690000  0.11878200  1
  O  O101  1  0.29958100  0.10861700  0.42706300  1
  O  O102  1  0.52980100  0.82228900  0.63374200  1
  O  O103  1  0.85337500  0.68690000  0.38121800  1
  O  O104  1  0.18843000  0.89889900  0.56994100  1
  O  O105  1  0.79958100  0.39138300  0.57293700  1
  O  O106  1  0.34104400  0.89393000  0.01283000  1
  O  O107  1  0.35337500  0.68690000  0.11878200  1
  O  O108  1  0.53168800  0.88645900  0.48194700  1
  O  O109  1  0.84673200  0.81558000  0.61237700  1
  O  O110  1  0.54558100  0.49532800  0.10609600  1
  O  O111  1  0.68843000  0.60110100  0.43005900  1
  O  O112  1  0.81157000  0.39889900  0.93005900  1
  O  O113  1  0.45093000  0.66288200  0.86445000  1
  O  O114  1  0.04699200  0.83108100  0.63285600  1
  O  O115  1  0.46101500  0.38175900  0.49668500  1
  O  O116  1  0.95083900  0.49148700  0.89662600  1
  O  O117  1  0.85375700  0.60229300  0.52651100  1
  O  O118  1  0.35337500  0.81310000  0.61878200  1
  O  O119  1  0.92638200  0.71861200  0.25682600  1
  O  O120  1  0.35375700  0.89770700  0.47348900  1
  O  O121  1  0.02980100  0.82228900  0.86625800  1
  O  O122  1  0.54699200  0.66891900  0.36714400  1
  O  O123  1  0.24729400  0.74383000  0.49536300  1
  O  O124  1  0.84673200  0.68442000  0.11237700  1
  O  O125  1  0.97019900  0.32228900  0.63374200  1
  O  O126  1  0.04907000  0.16288200  0.86445000  1
  O  O127  1  0.96831200  0.11354100  0.98194700  1
loop_
_geom_bond_atom_site_label_1
_geom_bond_atom_site_label_2
_geom_bond_distance
_geom_bond_site_symmetry_2
Al0 O51 1.743465 1_555
Al0 O64 1.744991 1_555
Al0 O9 1.757131 1_555
Al0 O55 1.761087 1_555
Al1 O101 1.743465 1_555
Al1 O1 1.744991 1_555
Al1 O89 1.757131 1_555
Al1 O5 1.761087 1_545
Al2 O42 1.743465 1_555
Al2 O121 1.744991 1_555
Al2 O10 1.757131 1_556
Al2 O7 1.761087 1_565
Al3 O88 1.738922 1_555
Al3 O81 1.745741 1_555
Al3 O59 1.752179 1_555
Al3 O66 1.756365 1_555
Al4 O105 1.743465 1_555
Al4 O125 1.744991 1_555
Al4 O30 1.757131 1_555
Al4 O41 1.761087 1_555
Al5 O18 1.745829 1_555
Al5 O37 1.756827 1_555
Al5 O82 1.757167 1_555
Al5 O6 1.759913 1_545
Al6 O73 1.738922 1_555
Al6 O79 1.745741 1_555
Al6 O95 1.752179 1_556
Al6 O93 1.756365 1_556
Al7 O58 1.743465 1_555
Al7 O102 1.744991 1_555
Al7 O108 1.757131 1_555
Al7 O91 1.761087 1_565
Al8 O111 1.738922 1_555
Al8 O103 1.745741 1_555
Al8 O28 1.752179 1_555
Al8 O117 1.756365 1_555
Al9 O52 1.745829 1_555
Al9 O29 1.756827 1_555
Al9 O106 1.757167 1_555
Al9 O76 1.759913 1_565
Al10 O38 1.743465 1_555
Al10 O43 1.744991 1_555
Al10 O127 1.757131 1_554
Al10 O47 1.761087 1_545
Al11 O53 1.738922 1_555
Al11 O107 1.745741 1_555
Al11 O45 1.752179 1_554
Al11 O21 1.756365 1_554
Al12 O63 1.745829 1_555
Al12 O27 1.756827 1_455
Al12 O33 1.757167 1_555
Al12 O84 1.759913 1_555
Al13 O65 1.734789 1_555
Al13 O25 1.748227 1_555
Al13 O16 1.751867 1_555
Al13 O69 1.768166 1_555
Al14 O87 1.734789 1_555
Al14 O109 1.748227 1_555
Al14 O23 1.751867 1_555
Al14 O114 1.768166 1_655
Al15 O119 1.734789 1_555
Al15 O124 1.748227 1_555
Al15 O83 1.751867 1_555
Al15 O61 1.768166 1_655
Al16 O94 1.738922 1_555
Al16 O100 1.745741 1_555
Al16 O71 1.752179 1_554
Al16 O2 1.756365 1_554
Al17 O34 1.734789 1_555
Al17 O15 1.748227 1_555
Al17 O113 1.751867 1_555
Al17 O78 1.768166 1_555
Al18 O31 1.745829 1_555
Al18 O24 1.756827 1_555
Al18 O36 1.757167 1_555
Al18 O49 1.759913 1_555
Al19 O72 1.734789 1_555
Al19 O4 1.748227 1_555
Al19 O22 1.751867 1_555
Al19 O122 1.768166 1_555
Al20 O74 1.738922 1_555
Al20 O80 1.745741 1_555
Al20 O50 1.752179 1_555
Al20 O67 1.756365 1_555
Al21 O32 1.743465 1_555
Al21 O75 1.744991 1_555
Al21 O90 1.757131 1_554
Al21 O110 1.761087 1_555
Al22 O92 1.745829 1_555
Al22 O115 1.756827 1_555
Al22 O99 1.757167 1_555
Al22 O26 1.759913 1_555
Al23 O48 1.745829 1_555
Al23 O97 1.756827 1_655
Al23 O11 1.757167 1_555
Al23 O0 1.759913 1_565
Al24 O40 1.734789 1_555
Al24 O20 1.748227 1_555
Al24 O126 1.751867 1_555
Al24 O44 1.768166 1_455
Al25 O60 1.734789 1_555
Al25 O46 1.748227 1_555
Al25 O96 1.751867 1_555
Al25 O39 1.768166 1_555
Al26 O19 1.745829 1_555
Al26 O98 1.756827 1_655
Al26 O56 1.757167 1_555
Al26 O116 1.759913 1_555
Al27 O14 1.734789 1_555
Al27 O62 1.748227 1_555
Al27 O35 1.751867 1_555
Al27 O57 1.768166 1_455
Al28 O13 1.743465 1_555
Al28 O12 1.744991 1_555
Al28 O85 1.757131 1_556
Al28 O68 1.761087 1_555
Al29 O112 1.738922 1_555
Al29 O8 1.745741 1_555
Al29 O54 1.752179 1_556
Al29 O3 1.756365 1_556
Al30 O17 1.745829 1_555
Al30 O86 1.756827 1_455
Al30 O77 1.757167 1_555
Al30 O70 1.759913 1_545
Al31 O104 1.738922 1_555
Al31 O118 1.745741 1_555
Al31 O123 1.752179 1_555
Al31 O120 1.756365 1_555
O0 P3 1.546784 1_555
O1 P9 1.538681 1_555
O2 P10 1.548687 1_555
O3 P24 1.548687 1_555
O4 P20 1.532783 1_555
O5 P19 1.539849 1_555
O6 P25 1.546784 1_555
O7 P10 1.539849 1_555
O8 P29 1.537107 1_555
O9 P5 1.543572 1_455
O10 P21 1.543572 1_455
O11 P26 1.539691 1_555
O12 P29 1.538681 1_555
O13 P11 1.531088 1_555
O14 P0 1.524528 1_555
O15 P16 1.532783 1_555
O16 P24 1.528096 1_555
O17 P1 1.541835 1_555
O18 P29 1.541835 1_555
O19 P23 1.541835 1_555
O20 P11 1.532783 1_555
O21 P17 1.548687 1_555
O22 P19 1.528096 1_555
O23 P5 1.528096 1_555
O24 P12 1.542194 1_555
O25 P14 1.532783 1_555
O26 P12 1.546784 1_555
O27 P4 1.542194 1_554
O28 P26 1.541871 1_555
O29 P25 1.542194 1_554
O30 P6 1.543572 1_655
O31 P28 1.541835 1_555
O32 P15 1.531088 1_555
O33 P11 1.539691 1_554
O34 P28 1.524528 1_555
O35 P6 1.528096 1_555
O36 P20 1.539691 1_555
O37 P27 1.542194 1_556
O38 P14 1.531088 1_555
O39 P30 1.540664 1_555
O40 P1 1.524528 1_555
O41 P5 1.539849 1_555
O42 P16 1.531088 1_555
O43 P0 1.538681 1_655
O44 P4 1.540664 1_555
O45 P16 1.541871 1_555
O46 P13 1.532783 1_555
O47 P21 1.539849 1_555
O48 P31 1.541835 1_555
O49 P30 1.546784 1_555
O50 P13 1.541871 1_555
O51 P20 1.531088 1_555
O52 P7 1.541835 1_555
O53 P18 1.535938 1_555
O54 P14 1.541871 1_555
O55 P6 1.539849 1_555
O56 P15 1.539691 1_556
O57 P3 1.540664 1_555
O58 P26 1.531088 1_555
O59 P22 1.541871 1_555
O60 P29 1.524528 1_555
O61 P18 1.540664 1_555
O62 P22 1.532783 1_555
O63 P0 1.541835 1_555
O64 P31 1.538681 1_455
O65 P9 1.524528 1_555
O66 P6 1.548687 1_555
O67 P8 1.548687 1_555
O68 P17 1.539849 1_555
O69 P27 1.540664 1_555
O70 P2 1.546784 1_555
O71 P11 1.541871 1_555
O72 P7 1.524528 1_555
O73 P25 1.535938 1_555
O74 P3 1.535938 1_555
O75 P7 1.538681 1_555
O76 P27 1.546784 1_555
O77 P22 1.539691 1_555
O78 P25 1.540664 1_555
O79 P23 1.537107 1_555
O80 P9 1.537107 1_555
O81 P1 1.537107 1_555
O82 P14 1.539691 1_556
O83 P21 1.528096 1_555
O84 P18 1.546784 1_555
O85 P24 1.543572 1_555
O86 P3 1.542194 1_555
O87 P23 1.524528 1_555
O88 P30 1.535938 1_555
O89 P8 1.543572 1_555
O90 P17 1.543572 1_555
O91 P8 1.539849 1_555
O92 P9 1.541835 1_555
O93 P21 1.548687 1_555
O94 P27 1.535938 1_555
O95 P15 1.541871 1_555
O96 P8 1.528096 1_555
O97 P2 1.542194 1_555
O98 P18 1.542194 1_556
O99 P13 1.539691 1_555
O100 P0 1.537107 1_555
O101 P22 1.531088 1_555
O102 P28 1.538681 1_555
O103 P31 1.537107 1_555
O104 P2 1.535938 1_555
O105 P13 1.531088 1_555
O106 P16 1.539691 1_554
O107 P7 1.537107 1_555
O108 P19 1.543572 1_555
O109 P26 1.532783 1_555
O110 P24 1.539849 1_555
O111 P12 1.535938 1_555
O112 P4 1.535938 1_555
O113 P17 1.528096 1_555
O114 P2 1.540664 1_555
O115 P30 1.542194 1_555
O116 P4 1.546784 1_555
O117 P5 1.548687 1_555
O118 P28 1.537107 1_555
O119 P31 1.524528 1_555
O120 P19 1.548687 1_555
O121 P23 1.538681 1_455
O122 P12 1.540664 1_555
O123 P20 1.541871 1_555
O124 P15 1.532783 1_555
O125 P1 1.538681 1_655
O126 P10 1.528096 1_555
O127 P10 1.543572 1_655
