# generated using pymatgen
data_CdI2
_symmetry_space_group_name_H-M   'P 1'
_cell_length_a   4.34169237
_cell_length_b   4.34169237
_cell_length_c   103.15835900
_cell_angle_alpha   90.00000000
_cell_angle_beta   90.00000000
_cell_angle_gamma   120.00000571
_symmetry_Int_Tables_number   1
_chemical_formula_structural   CdI2
_chemical_formula_sum   'Cd14 I28'
_cell_volume   1684.04281684
_cell_formula_units_Z   14
loop_
 _symmetry_equiv_pos_site_id
 _symmetry_equiv_pos_as_xyz
  1  'x, y, z'
loop_
 _atom_site_type_symbol
 _atom_site_label
 _atom_site_symmetry_multiplicity
 _atom_site_fract_x
 _atom_site_fract_y
 _atom_site_fract_z
 _atom_site_occupancy
  Cd  Cd0  1  0.00000000  0.00000000  0.51784700  1
  Cd  Cd1  1  0.66666700  0.33333300  0.30357600  1
  Cd  Cd2  1  0.66666700  0.33333300  0.94644400  1
  Cd  Cd3  1  0.66666700  0.33333300  0.16071300  1
  Cd  Cd4  1  0.00000000  0.00000000  0.23214800  1
  Cd  Cd5  1  0.00000000  0.00000000  0.66071000  1
  Cd  Cd6  1  0.66666700  0.33333300  0.73214600  1
  Cd  Cd7  1  0.66666700  0.33333300  0.01785100  1
  Cd  Cd8  1  0.66666700  0.33333300  0.80357500  1
  Cd  Cd9  1  0.66666700  0.33333300  0.58928400  1
  Cd  Cd10  1  0.66666700  0.33333300  0.44644100  1
  Cd  Cd11  1  0.00000000  0.00000000  0.08928600  1
  Cd  Cd12  1  0.00000000  0.00000000  0.37499700  1
  Cd  Cd13  1  0.00000000  0.00000000  0.87499600  1
  I  I0  1  0.66666700  0.33333300  0.07253800  1
  I  I1  1  0.00000000  0.00000000  0.92968500  1
  I  I2  1  0.33333300  0.66666700  0.53459300  1
  I  I3  1  0.33333300  0.66666700  0.17746100  1
  I  I4  1  0.33333300  0.66666700  0.10604500  1
  I  I5  1  0.33333300  0.66666700  0.46317800  1
  I  I6  1  0.00000000  0.00000000  0.71538600  1
  I  I7  1  0.00000000  0.00000000  0.28680800  1
  I  I8  1  0.66666700  0.33333300  0.64395200  1
  I  I9  1  0.00000000  0.00000000  0.78680800  1
  I  I10  1  0.33333300  0.66666700  0.32032500  1
  I  I11  1  0.33333300  0.66666700  0.60604400  1
  I  I12  1  0.00000000  0.00000000  0.14395600  1
  I  I13  1  0.33333300  0.66666700  0.82032200  1
  I  I14  1  0.33333300  0.66666700  0.96318000  1
  I  I15  1  0.00000000  0.00000000  0.00112500  1
  I  I16  1  0.66666700  0.33333300  0.85825800  1
  I  I17  1  0.33333300  0.66666700  0.67745700  1
  I  I18  1  0.66666700  0.33333300  0.21540200  1
  I  I19  1  0.33333300  0.66666700  0.03460400  1
  I  I20  1  0.33333300  0.66666700  0.89173800  1
  I  I21  1  0.33333300  0.66666700  0.24890400  1
  I  I22  1  0.66666700  0.33333300  0.35825800  1
  I  I23  1  0.33333300  0.66666700  0.39173800  1
  I  I24  1  0.66666700  0.33333300  0.50109400  1
  I  I25  1  0.00000000  0.00000000  0.57254600  1
  I  I26  1  0.00000000  0.00000000  0.42968200  1
  I  I27  1  0.33333300  0.66666700  0.74889800  1
loop_
_geom_bond_atom_site_label_1
_geom_bond_atom_site_label_2
_geom_bond_distance
_geom_bond_site_symmetry_2
Cd0 I2 3.044280 1_545
Cd0 I2 3.044283 1_445
Cd0 I2 3.044283 1_555
Cd0 I24 3.044690 1_455
Cd0 I24 3.044693 1_555
Cd0 I24 3.044693 1_445
Cd1 I10 3.044455 1_545
Cd1 I10 3.044455 1_655
Cd1 I10 3.044462 1_555
Cd1 I7 3.045568 1_655
Cd1 I7 3.045571 1_665
Cd1 I7 3.045571 1_555
Cd2 I14 3.043694 1_545
Cd2 I14 3.043694 1_655
Cd2 I14 3.043701 1_555
Cd2 I1 3.045041 1_655
Cd2 I1 3.045044 1_555
Cd2 I1 3.045044 1_665
Cd3 I3 3.044397 1_545
Cd3 I3 3.044397 1_655
Cd3 I3 3.044403 1_555
Cd3 I12 3.044924 1_655
Cd3 I12 3.044927 1_665
Cd3 I12 3.044927 1_555
Cd4 I18 3.044280 1_455
Cd4 I18 3.044283 1_445
Cd4 I18 3.044283 1_555
Cd4 I21 3.044865 1_545
Cd4 I21 3.044868 1_555
Cd4 I21 3.044868 1_445
Cd5 I17 3.044338 1_545
Cd5 I17 3.044341 1_555
Cd5 I17 3.044341 1_445
Cd5 I8 3.044982 1_455
Cd5 I8 3.044985 1_445
Cd5 I8 3.044985 1_555
Cd6 I27 3.044631 1_545
Cd6 I27 3.044631 1_655
Cd6 I27 3.044637 1_555
Cd6 I6 3.045100 1_655
Cd6 I6 3.045103 1_555
Cd6 I6 3.045103 1_665
Cd7 I15 3.043110 1_655
Cd7 I15 3.043113 1_665
Cd7 I15 3.043113 1_555
Cd7 I19 3.044690 1_655
Cd7 I19 3.044690 1_545
Cd7 I19 3.044696 1_555
Cd8 I13 3.044338 1_545
Cd8 I13 3.044338 1_655
Cd8 I13 3.044345 1_555
Cd8 I9 3.045510 1_655
Cd8 I9 3.045513 1_555
Cd8 I9 3.045513 1_665
Cd9 I25 3.043812 1_655
Cd9 I25 3.043815 1_555
Cd9 I25 3.043815 1_665
Cd9 I11 3.045099 1_545
Cd9 I11 3.045099 1_655
Cd9 I11 3.045106 1_555
Cd10 I5 3.043753 1_545
Cd10 I5 3.043753 1_655
Cd10 I5 3.043759 1_555
Cd10 I26 3.045041 1_655
Cd10 I26 3.045044 1_665
Cd10 I26 3.045044 1_555
Cd11 I0 3.044397 1_455
Cd11 I0 3.044400 1_445
Cd11 I0 3.044400 1_555
Cd11 I4 3.045041 1_545
Cd11 I4 3.045044 1_555
Cd11 I4 3.045044 1_445
Cd12 I22 3.043870 1_455
Cd12 I22 3.043873 1_555
Cd12 I22 3.043873 1_445
Cd12 I23 3.043987 1_545
Cd12 I23 3.043990 1_445
Cd12 I23 3.043990 1_555
Cd13 I16 3.043812 1_455
Cd13 I16 3.043815 1_555
Cd13 I16 3.043815 1_445
Cd13 I20 3.044046 1_545
Cd13 I20 3.044049 1_555
Cd13 I20 3.044049 1_445
