# generated using pymatgen
data_Ce21Fe8Bi7C12
_symmetry_space_group_name_H-M   'P 1'
_cell_length_a   11.39685382
_cell_length_b   11.39814892
_cell_length_c   11.39651752
_cell_angle_alpha   59.98475127
_cell_angle_beta   60.02115610
_cell_angle_gamma   60.02184522
_symmetry_Int_Tables_number   1
_chemical_formula_structural   Ce21Fe8Bi7C12
_chemical_formula_sum   'Ce21 Fe8 Bi7 C12'
_cell_volume   1047.05000857
_cell_formula_units_Z   1
loop_
 _symmetry_equiv_pos_site_id
 _symmetry_equiv_pos_as_xyz
  1  'x, y, z'
loop_
 _atom_site_type_symbol
 _atom_site_label
 _atom_site_symmetry_multiplicity
 _atom_site_fract_x
 _atom_site_fract_y
 _atom_site_fract_z
 _atom_site_occupancy
  Ce  Ce0  1  0.00001400  0.34285100  0.65714200  1
  Ce  Ce1  1  0.34284600  0.00000300  0.99999900  1
  Ce  Ce2  1  0.00000300  0.99998800  0.65718100  1
  Ce  Ce3  1  0.08373300  0.63875700  0.63878200  1
  Ce  Ce4  1  0.34278600  0.65719800  0.00000200  1
  Ce  Ce5  1  0.00000800  0.34280000  0.00002500  1
  Ce  Ce6  1  0.36132900  0.36116000  0.36110100  1
  Ce  Ce7  1  0.36136100  0.36124000  0.91624200  1
  Ce  Ce8  1  0.00001300  0.65713300  0.00001200  1
  Ce  Ce9  1  0.99999800  0.65722200  0.34274500  1
  Ce  Ce10  1  0.65714100  0.34268400  0.00011300  1
  Ce  Ce11  1  0.65722300  0.00006700  0.34261700  1
  Ce  Ce12  1  0.65719600  0.00005700  0.00009900  1
  Ce  Ce13  1  0.99998600  0.00003800  0.34280600  1
  Ce  Ce14  1  0.36137200  0.91629300  0.36119900  1
  Ce  Ce15  1  0.63869100  0.08369400  0.63880400  1
  Ce  Ce16  1  0.91634200  0.36122900  0.36120100  1
  Ce  Ce17  1  0.34284900  0.99996200  0.65717400  1
  Ce  Ce18  1  0.63864800  0.63883900  0.63883300  1
  Ce  Ce19  1  0.63857400  0.63868000  0.08402700  1
  Ce  Ce20  1  0.49997100  0.50013400  0.49978400  1
  Fe  Fe0  1  0.19373200  0.41880700  0.19374200  1
  Fe  Fe1  1  0.80620000  0.80626300  0.58127600  1
  Fe  Fe2  1  0.58116400  0.80626500  0.80629000  1
  Fe  Fe3  1  0.41886100  0.19369000  0.19375100  1
  Fe  Fe4  1  0.80624700  0.80627200  0.80626000  1
  Fe  Fe5  1  0.19375400  0.19374000  0.19378300  1
  Fe  Fe6  1  0.19375400  0.19371000  0.41874600  1
  Fe  Fe7  1  0.80621200  0.58124600  0.80629200  1
  Bi  Bi0  1  0.70791000  0.70806300  0.29201700  1
  Bi  Bi1  1  0.70791700  0.29200500  0.70806400  1
  Bi  Bi2  1  0.29205400  0.29200800  0.70798100  1
  Bi  Bi3  1  0.29206000  0.70796300  0.29196000  1
  Bi  Bi4  1  0.29205800  0.70797900  0.70799300  1
  Bi  Bi5  1  0.70792100  0.29202200  0.29199400  1
  Bi  Bi6  1  0.99998200  0.99998000  0.00003700  1
  C  C0  1  0.60410700  0.60415300  0.89592200  1
  C  C1  1  0.89578300  0.60418400  0.89582100  1
  C  C2  1  0.39582000  0.10417000  0.39576300  1
  C  C3  1  0.10420600  0.39577200  0.10421000  1
  C  C4  1  0.10426800  0.10425300  0.39574200  1
  C  C5  1  0.60420000  0.89584900  0.60413900  1
  C  C6  1  0.89577200  0.60429600  0.60422600  1
  C  C7  1  0.60418300  0.89580900  0.89587200  1
  C  C8  1  0.89577500  0.89575000  0.60422100  1
  C  C9  1  0.39584800  0.39583900  0.10413000  1
  C  C10  1  0.10425700  0.39571400  0.39569600  1
  C  C11  1  0.39586800  0.10416700  0.10418200  1
loop_
_geom_bond_atom_site_label_1
_geom_bond_atom_site_label_2
_geom_bond_distance
_geom_bond_site_symmetry_2
Bi0 Ce20 3.351181 1_555
Bi0 Ce19 3.352658 1_555
Bi0 Ce14 3.353453 1_555
Bi0 Ce18 3.354439 1_555
Bi0 Ce16 3.355817 1_555
Bi0 Ce12 3.376479 1_565
Bi0 Ce11 3.377832 1_565
Bi0 Ce9 3.378138 1_555
Bi0 Ce8 3.379956 1_655
Bi1 Ce7 3.353358 1_555
Bi1 Ce20 3.353860 1_555
Bi1 Ce15 3.354467 1_555
Bi1 Ce18 3.355167 1_555
Bi1 Ce16 3.355597 1_555
Bi1 Ce12 3.376950 1_556
Bi1 Ce10 3.378019 1_556
Bi1 Ce0 3.378711 1_655
Bi1 Ce2 3.380153 1_645
Bi2 Ce20 3.352591 1_555
Bi2 Ce7 3.354120 1_555
Bi2 Ce15 3.354477 1_555
Bi2 Ce3 3.354833 1_555
Bi2 Ce6 3.355286 1_555
Bi2 Ce1 3.377341 1_555
Bi2 Ce0 3.378321 1_555
Bi2 Ce17 3.379168 1_545
Bi2 Ce5 3.379678 1_556
Bi3 Ce20 3.349904 1_555
Bi3 Ce19 3.352360 1_555
Bi3 Ce3 3.355002 1_555
Bi3 Ce6 3.355076 1_555
Bi3 Ce14 3.355195 1_555
Bi3 Ce1 3.377340 1_564
Bi3 Ce4 3.377796 1_555
Bi3 Ce9 3.378261 1_455
Bi3 Ce13 3.380408 1_465
Bi4 Ce18 3.353251 1_555
Bi4 Ce7 3.353495 1_555
Bi4 Ce14 3.353778 1_555
Bi4 Ce3 3.353794 1_555
Bi4 Ce20 3.354510 1_555
Bi4 Ce4 3.377178 1_556
Bi4 Ce17 3.377621 1_555
Bi4 Ce8 3.379042 1_556
Bi4 Ce2 3.379215 1_555
Bi5 Ce19 3.352085 1_555
Bi5 Ce20 3.353285 1_555
Bi5 Ce6 3.353420 1_555
Bi5 Ce15 3.353944 1_555
Bi5 Ce16 3.354673 1_555
Bi5 Ce10 3.376636 1_555
Bi5 Ce11 3.377603 1_555
Bi5 Ce5 3.378954 1_655
Bi5 Ce13 3.379165 1_555
Bi6 Ce9 3.905342 1_555
Bi6 Ce12 3.905890 1_565
Bi6 Ce11 3.906546 1_565
Bi6 Ce13 3.906726 1_565
Bi6 Ce0 3.907051 1_664
Bi6 Ce2 3.907199 1_654
Bi6 Ce1 3.907486 1_664
Bi6 Ce5 3.907593 1_665
Bi6 Ce8 3.907787 1_655
Bi6 Ce10 3.908040 1_565
Bi6 Ce4 3.908274 1_655
Bi6 Ce17 3.908774 1_654
C0 Fe2 1.931197 1_555
C0 Fe7 1.931724 1_555
C0 Ce4 2.455612 1_556
C0 Ce10 2.456400 1_556
C0 Ce18 2.596091 1_555
C0 Ce19 2.597094 1_556
C1 Fe7 1.930286 1_555
C1 Fe4 1.930967 1_555
C1 Ce8 2.455261 1_656
C1 Ce5 2.455784 1_656
C1 Ce3 2.596651 1_655
C1 Ce19 2.599340 1_556
C2 Fe3 1.929709 1_555
C2 Fe6 1.931188 1_555
C2 Ce17 2.455552 1_545
C2 Ce11 2.456286 1_555
C2 Ce14 2.594948 1_545
C2 Ce6 2.595706 1_555
C3 Fe5 1.930597 1_555
C3 Fe0 1.930609 1_555
C3 Ce5 2.455085 1_555
C3 Ce8 2.455541 1_555
C3 Ce16 2.595971 1_455
C3 Ce7 2.598032 1_554
C4 Fe6 1.929343 1_555
C4 Fe5 1.929505 1_555
C4 Ce13 2.455966 1_455
C4 Ce2 2.456066 1_545
C4 Ce16 2.596397 1_455
C4 Ce14 2.597753 1_545
C5 Fe1 1.930809 1_555
C5 Fe2 1.931083 1_555
C5 Ce17 2.455933 1_555
C5 Ce11 2.456554 1_565
C5 Ce15 2.595643 1_565
C5 Ce18 2.595971 1_555
C6 Fe1 1.930268 1_555
C6 Fe7 1.930710 1_555
C6 Ce9 2.456671 1_555
C6 Ce0 2.456727 1_655
C6 Ce3 2.595565 1_655
C6 Ce18 2.597147 1_555
C7 Fe2 1.931455 1_555
C7 Fe4 1.931718 1_555
C7 Ce1 2.456124 1_565
C7 Ce12 2.456535 1_566
C7 Ce15 2.595610 1_565
C7 Ce19 2.597264 1_556
C8 Fe1 1.930063 1_555
C8 Fe4 1.930184 1_555
C8 Ce13 2.455824 1_565
C8 Ce2 2.455866 1_655
C8 Ce3 2.596643 1_655
C8 Ce15 2.597546 1_565
C9 Fe3 1.931403 1_555
C9 Fe0 1.931696 1_555
C9 Ce10 2.455193 1_555
C9 Ce4 2.455299 1_555
C9 Ce6 2.594889 1_555
C9 Ce7 2.595350 1_554
C10 Fe0 1.929515 1_555
C10 Fe6 1.930407 1_555
C10 Ce0 2.456419 1_555
C10 Ce9 2.457289 1_455
C10 Ce16 2.594783 1_455
C10 Ce6 2.596572 1_555
C11 Fe3 1.930925 1_555
C11 Fe5 1.932153 1_555
C11 Ce1 2.455372 1_554
C11 Ce12 2.455876 1_555
C11 Ce14 2.595196 1_545
C11 Ce7 2.596031 1_554
