# generated using pymatgen
data_Rb2CeO3
_symmetry_space_group_name_H-M   'P 1'
_cell_length_a   6.35643129
_cell_length_b   6.35643129
_cell_length_c   6.90843792
_cell_angle_alpha   80.98517177
_cell_angle_beta   80.98517177
_cell_angle_gamma   119.81976386
_symmetry_Int_Tables_number   1
_chemical_formula_structural   Rb2CeO3
_chemical_formula_sum   'Rb4 Ce2 O6'
_cell_volume   230.04072430
_cell_formula_units_Z   2
loop_
 _symmetry_equiv_pos_site_id
 _symmetry_equiv_pos_as_xyz
  1  'x, y, z'
loop_
 _atom_site_type_symbol
 _atom_site_label
 _atom_site_symmetry_multiplicity
 _atom_site_fract_x
 _atom_site_fract_y
 _atom_site_fract_z
 _atom_site_occupancy
  Rb  Rb0  1  -0.00000000  -0.00000000  0.00000000  1
  Rb  Rb1  1  0.50000000  0.50000000  0.50000000  1
  Rb  Rb2  1  0.65561096  0.34438904  0.00000000  1
  Rb  Rb3  1  0.34438904  0.65561096  0.00000000  1
  Ce  Ce0  1  0.16711717  0.83288283  0.50000000  1
  Ce  Ce1  1  0.83288283  0.16711717  0.50000000  1
  O  O0  1  0.16612574  0.16612574  0.31634986  1
  O  O1  1  0.96284725  0.56426255  0.31285103  1
  O  O2  1  0.56426255  0.96284725  0.31285103  1
  O  O3  1  0.43573745  0.03715275  0.68714897  1
  O  O4  1  0.03715275  0.43573745  0.68714897  1
  O  O5  1  0.83387426  0.83387426  0.68365014  1
loop_
_geom_bond_atom_site_label_1
_geom_bond_atom_site_label_2
_geom_bond_distance
_geom_bond_site_symmetry_2
Ce0 O5 2.295698 1_455
Ce0 O0 2.295698 1_565
Ce0 O1 2.299116 1_455
Ce0 O3 2.299116 1_565
Ce0 O4 2.301125 1_555
Ce0 O2 2.301125 1_555
Ce1 O0 2.295698 1_655
Ce1 O5 2.295698 1_545
Ce1 O2 2.299116 1_545
Ce1 O4 2.299116 1_655
Ce1 O3 2.301125 1_555
Ce1 O1 2.301125 1_555
O0 Rb0 2.709967 1_555
O0 Rb1 2.797461 1_555
O0 Rb3 3.054118 1_555
O0 Rb2 3.054118 1_555
O1 Rb3 2.730159 1_655
O1 Rb1 2.818049 1_555
O1 Rb0 3.116410 1_665
O1 Rb2 3.161221 1_555
O2 Rb2 2.730159 1_565
O2 Rb1 2.818049 1_555
O2 Rb0 3.116410 1_665
O2 Rb3 3.161221 1_555
O3 Rb3 2.730159 1_546
O3 Rb1 2.818049 1_555
O3 Rb0 3.116410 1_556
O3 Rb2 3.161221 1_556
O4 Rb2 2.730159 1_456
O4 Rb1 2.818049 1_555
O4 Rb0 3.116410 1_556
O4 Rb3 3.161221 1_556
O5 Rb0 2.709967 1_666
O5 Rb1 2.797461 1_555
O5 Rb3 3.054118 1_556
O5 Rb2 3.054118 1_556
