# generated using pymatgen
data_K2HS2NO6
_symmetry_space_group_name_H-M   'P 1'
_cell_length_a   7.28558300
_cell_length_b   7.38778000
_cell_length_c   7.91878914
_cell_angle_alpha   85.53776885
_cell_angle_beta   90.00000000
_cell_angle_gamma   90.00000000
_symmetry_Int_Tables_number   1
_chemical_formula_structural   K2HS2NO6
_chemical_formula_sum   'K4 H2 S4 N2 O12'
_cell_volume   424.93120675
_cell_formula_units_Z   2
loop_
 _symmetry_equiv_pos_site_id
 _symmetry_equiv_pos_as_xyz
  1  'x, y, z'
loop_
 _atom_site_type_symbol
 _atom_site_label
 _atom_site_symmetry_multiplicity
 _atom_site_fract_x
 _atom_site_fract_y
 _atom_site_fract_z
 _atom_site_occupancy
  K  K0  1  0.33846400  0.11501900  0.72395700  1
  K  K1  1  0.33127400  0.37414700  0.27186800  1
  K  K2  1  0.66153600  0.61501900  0.72395700  1
  K  K3  1  0.66872600  0.87414700  0.27186800  1
  H  H0  1  0.02426500  0.33710800  0.54345800  1
  H  H1  1  0.97573500  0.83710800  0.54345800  1
  S  S0  1  0.82000300  0.13411500  0.66325800  1
  S  S1  1  0.81265500  0.36904400  0.33288900  1
  S  S2  1  0.17999700  0.63411500  0.66325800  1
  S  S3  1  0.18734500  0.86904400  0.33288900  1
  N  N0  1  0.92475000  0.25338000  0.49817200  1
  N  N1  1  0.07525000  0.75338000  0.49817200  1
  O  O0  1  0.29959100  0.01390100  0.40015100  1
  O  O1  1  0.97494600  0.07302600  0.76922800  1
  O  O2  1  0.69595700  0.23366900  0.26063200  1
  O  O3  1  0.68890200  0.25140100  0.74374800  1
  O  O4  1  0.96538600  0.43812900  0.22794200  1
  O  O5  1  0.27569400  0.48306200  0.58769700  1
  O  O6  1  0.70040900  0.51390100  0.40015100  1
  O  O7  1  0.02505400  0.57302600  0.76922800  1
  O  O8  1  0.30404300  0.73366900  0.26063200  1
  O  O9  1  0.31109800  0.75140100  0.74374800  1
  O  O10  1  0.03461400  0.93812900  0.22794200  1
  O  O11  1  0.72430600  0.98306200  0.58769700  1
loop_
_geom_bond_atom_site_label_1
_geom_bond_atom_site_label_2
_geom_bond_distance
_geom_bond_site_symmetry_2
K0 O9 2.686107 1_545
K0 O1 2.687321 1_455
K0 O0 2.740658 1_555
K0 O3 2.753699 1_555
K0 O5 2.882701 1_555
K0 O11 3.190692 1_545
K1 O8 2.658046 1_555
K1 O5 2.716518 1_555
K1 O4 2.724855 1_455
K1 O0 2.783466 1_555
K1 O2 2.856331 1_555
K1 O6 3.081204 1_555
K2 O3 2.686107 1_555
K2 O7 2.687321 1_655
K2 O6 2.740658 1_555
K2 O9 2.753699 1_555
K2 O11 2.882701 1_555
K2 O5 3.190692 1_555
K3 O2 2.658046 1_565
K3 O11 2.716518 1_555
K3 O10 2.724855 1_655
K3 O6 2.783466 1_555
K3 O8 2.856331 1_555
K3 O0 3.081204 1_565
H0 N0 1.035085 1_455
H1 N1 1.035085 1_655
N0 S0 1.699554 1_555
N0 S1 1.713526 1_555
N1 S2 1.699554 1_555
N1 S3 1.713526 1_555
O0 S3 1.478655 1_545
O1 S0 1.457132 1_555
O2 S1 1.462719 1_555
O3 S0 1.468092 1_555
O4 S1 1.457161 1_555
O5 S2 1.481000 1_555
O6 S1 1.478655 1_555
O7 S2 1.457132 1_555
O8 S3 1.462719 1_555
O9 S2 1.468092 1_555
O10 S3 1.457161 1_555
O11 S0 1.481000 1_565
