# generated using pymatgen
data_BaV2Cu3(HO5)2
_symmetry_space_group_name_H-M   'P 1'
_cell_length_a   5.96573402
_cell_length_b   5.96573402
_cell_length_c   7.84575791
_cell_angle_alpha   65.94950553
_cell_angle_beta   114.05049447
_cell_angle_gamma   119.74960934
_symmetry_Int_Tables_number   1
_chemical_formula_structural   BaV2Cu3(HO5)2
_chemical_formula_sum   'Ba1 V2 Cu3 H2 O10'
_cell_volume   213.83034556
_cell_formula_units_Z   1
loop_
 _symmetry_equiv_pos_site_id
 _symmetry_equiv_pos_as_xyz
  1  'x, y, z'
loop_
 _atom_site_type_symbol
 _atom_site_label
 _atom_site_symmetry_multiplicity
 _atom_site_fract_x
 _atom_site_fract_y
 _atom_site_fract_z
 _atom_site_occupancy
  Ba  Ba0  1  0.00000000  0.00000000  0.50000000  1
  V  V0  1  0.41440800  0.58559200  0.73037000  1
  V  V1  1  0.58559200  0.41440800  0.26963000  1
  Cu  Cu0  1  0.00000000  0.00000000  0.00000000  1
  Cu  Cu1  1  0.00000000  0.50000000  0.00000000  1
  Cu  Cu2  1  0.50000000  0.00000000  0.00000000  1
  H  H0  1  0.73865500  0.26134500  0.72648800  1
  H  H1  1  0.26134500  0.73865500  0.27351200  1
  O  O0  1  0.79109700  0.20890300  0.87597500  1
  O  O1  1  0.20890300  0.79109700  0.12402500  1
  O  O2  1  0.76680500  0.71885000  0.81603000  1
  O  O3  1  0.28115000  0.23319500  0.81603000  1
  O  O4  1  0.23319500  0.28115000  0.18397000  1
  O  O5  1  0.71885000  0.76680500  0.18397000  1
  O  O6  1  0.27878500  0.72121500  0.79787300  1
  O  O7  1  0.72121500  0.27878500  0.20212700  1
  O  O8  1  0.66844000  0.33156000  0.51582700  1
  O  O9  1  0.33156000  0.66844000  0.48417300  1
loop_
_geom_bond_atom_site_label_1
_geom_bond_atom_site_label_2
_geom_bond_distance
_geom_bond_site_symmetry_2
Ba0 O7 2.720814 1_455
Ba0 O6 2.720814 1_545
Ba0 O2 2.828891 1_445
Ba0 O4 2.828891 1_555
Ba0 O3 2.828891 1_555
Ba0 O5 2.828891 1_445
Cu0 O0 1.902021 1_454
Cu0 O1 1.902021 1_545
Cu0 O3 2.202916 1_554
Cu0 O4 2.202916 1_555
Cu0 O5 2.202916 1_445
Cu0 O2 2.202916 1_444
Cu1 O1 1.938268 1_555
Cu1 O0 1.938268 1_454
Cu1 O4 2.086429 1_555
Cu1 O2 2.086429 1_454
Cu1 O7 2.299630 1_455
Cu1 O6 2.299630 1_554
Cu2 O1 1.938268 1_545
Cu2 O0 1.938268 1_554
Cu2 O3 2.086429 1_554
Cu2 O5 2.086429 1_545
Cu2 O6 2.299630 1_544
Cu2 O7 2.299630 1_555
H0 O0 1.034548 1_555
H0 O8 1.458829 1_555
H1 O1 1.034548 1_555
H1 O9 1.458829 1_555
O2 V0 1.768783 1_555
O3 V0 1.768783 1_555
O4 V1 1.768783 1_555
O5 V1 1.768783 1_555
O6 V0 1.714043 1_555
O7 V1 1.714043 1_555
O8 V1 1.704633 1_555
O9 V0 1.704633 1_555
