# generated using pymatgen
data_SnH8(CI)4
_symmetry_space_group_name_H-M   'P 1'
_cell_length_a   9.68271900
_cell_length_b   9.68271900
_cell_length_c   7.63899800
_cell_angle_alpha   90.00000000
_cell_angle_beta   90.00000000
_cell_angle_gamma   90.00000000
_symmetry_Int_Tables_number   1
_chemical_formula_structural   SnH8(CI)4
_chemical_formula_sum   'Sn2 H16 C8 I8'
_cell_volume   716.19461830
_cell_formula_units_Z   2
loop_
 _symmetry_equiv_pos_site_id
 _symmetry_equiv_pos_as_xyz
  1  'x, y, z'
loop_
 _atom_site_type_symbol
 _atom_site_label
 _atom_site_symmetry_multiplicity
 _atom_site_fract_x
 _atom_site_fract_y
 _atom_site_fract_z
 _atom_site_occupancy
  Sn  Sn0  1  0.00000000  0.00000000  0.50000000  1
  Sn  Sn1  1  0.50000000  0.50000000  0.00000000  1
  H  H0  1  0.76928700  0.15263400  0.41372200  1
  H  H1  1  0.73071300  0.65263400  0.08627800  1
  H  H2  1  0.23071300  0.84736600  0.41372200  1
  H  H3  1  0.26928700  0.34736600  0.08627800  1
  H  H4  1  0.84736600  0.76928700  0.58627800  1
  H  H5  1  0.34736600  0.73071300  0.91372200  1
  H  H6  1  0.15263400  0.23071300  0.58627800  1
  H  H7  1  0.65263400  0.26928700  0.91372200  1
  H  H8  1  0.80874600  0.03517900  0.23706100  1
  H  H9  1  0.69125400  0.53517900  0.26293900  1
  H  H10  1  0.19125400  0.96482100  0.23706100  1
  H  H11  1  0.30874600  0.46482100  0.26293900  1
  H  H12  1  0.96482100  0.80874600  0.76293900  1
  H  H13  1  0.46482100  0.69125400  0.73706100  1
  H  H14  1  0.03517900  0.19125400  0.76293900  1
  H  H15  1  0.53517900  0.30874600  0.73706100  1
  C  C0  1  0.85139200  0.10627600  0.33484000  1
  C  C1  1  0.64860800  0.60627600  0.16516000  1
  C  C2  1  0.14860800  0.89372400  0.33484000  1
  C  C3  1  0.35139200  0.39372400  0.16516000  1
  C  C4  1  0.89372400  0.85139200  0.66516000  1
  C  C5  1  0.39372400  0.64860800  0.83484000  1
  C  C6  1  0.10627600  0.14860800  0.66516000  1
  C  C7  1  0.60627600  0.35139200  0.83484000  1
  I  I0  1  0.94129500  0.27469000  0.18852800  1
  I  I1  1  0.55870500  0.77469000  0.31147200  1
  I  I2  1  0.05870500  0.72531000  0.18852800  1
  I  I3  1  0.44129500  0.22531000  0.31147200  1
  I  I4  1  0.72531000  0.94129500  0.81147200  1
  I  I5  1  0.22531000  0.55870500  0.68852800  1
  I  I6  1  0.27469000  0.05870500  0.81147200  1
  I  I7  1  0.77469000  0.44129500  0.68852800  1
loop_
_geom_bond_atom_site_label_1
_geom_bond_atom_site_label_2
_geom_bond_distance
_geom_bond_site_symmetry_2
C0 H0 1.093898 1_555
C0 H8 1.096509 1_555
C0 I0 2.160135 1_555
C0 Sn0 2.172837 1_655
C1 H1 1.093898 1_555
C1 H9 1.096509 1_555
C1 I1 2.160135 1_555
C1 Sn1 2.172837 1_555
C2 H2 1.093898 1_555
C2 H10 1.096509 1_555
C2 I2 2.160135 1_555
C2 Sn0 2.172837 1_565
C3 H3 1.093898 1_555
C3 H11 1.096509 1_555
C3 I3 2.160135 1_555
C3 Sn1 2.172837 1_555
C4 H4 1.093898 1_555
C4 H12 1.096509 1_555
C4 I4 2.160135 1_555
C4 Sn0 2.172837 1_665
C5 H5 1.093898 1_555
C5 H13 1.096509 1_555
C5 I5 2.160135 1_555
C5 Sn1 2.172837 1_556
C6 H6 1.093898 1_555
C6 H14 1.096509 1_555
C6 I6 2.160135 1_555
C6 Sn0 2.172837 1_555
C7 H7 1.093898 1_555
C7 H15 1.096509 1_555
C7 I7 2.160135 1_555
C7 Sn1 2.172837 1_556
