# generated using pymatgen
data_Ba2Al4Si6H14O27
_symmetry_space_group_name_H-M   'P 1'
_cell_length_a   8.30023800
_cell_length_b   8.36894484
_cell_length_c   8.77625138
_cell_angle_alpha   90.59548869
_cell_angle_beta   98.45771924
_cell_angle_gamma   91.91761926
_symmetry_Int_Tables_number   1
_chemical_formula_structural   Ba2Al4Si6H14O27
_chemical_formula_sum   'Ba2 Al4 Si6 H14 O27'
_cell_volume   602.59556762
_cell_formula_units_Z   1
loop_
 _symmetry_equiv_pos_site_id
 _symmetry_equiv_pos_as_xyz
  1  'x, y, z'
loop_
 _atom_site_type_symbol
 _atom_site_label
 _atom_site_symmetry_multiplicity
 _atom_site_fract_x
 _atom_site_fract_y
 _atom_site_fract_z
 _atom_site_occupancy
  Ba  Ba0  1  0.54318900  0.03991200  0.01449200  1
  Ba  Ba1  1  0.02300000  0.49099700  0.03749600  1
  Al  Al0  1  0.50510800  0.71935400  0.32642000  1
  Al  Al1  1  0.53171300  0.35688500  0.31703600  1
  Al  Al2  1  0.97953000  0.84912400  0.67443200  1
  Al  Al3  1  0.97737600  0.19123200  0.72786600  1
  Si  Si0  1  0.05257500  0.95220400  0.04361500  1
  Si  Si1  1  0.75149900  0.90406500  0.38183000  1
  Si  Si2  1  0.29398100  0.02533500  0.30255400  1
  Si  Si3  1  0.09767000  0.47701900  0.64851500  1
  Si  Si4  1  0.65896700  0.40180800  0.67110500  1
  Si  Si5  1  0.55718500  0.45928100  0.99413900  1
  H  H0  1  0.76236300  0.56352300  0.32057400  1
  H  H1  1  0.27903100  0.50793400  0.36992500  1
  H  H2  1  0.90599100  0.11376900  0.33803500  1
  H  H3  1  0.02572800  0.78770900  0.24537700  1
  H  H4  1  0.21581800  0.96504100  0.99198500  1
  H  H5  1  0.56345600  0.73984900  0.03722300  1
  H  H6  1  0.94589700  0.08971200  0.97829800  1
  H  H7  1  0.97562200  0.84873800  0.89060900  1
  H  H8  1  0.38912900  0.49829200  0.01631500  1
  H  H9  1  0.70513600  0.55235600  0.96635300  1
  H  H10  1  0.39572100  0.34357200  0.76686100  1
  H  H11  1  0.63870000  0.68466500  0.73333200  1
  H  H12  1  0.22923300  0.04041400  0.70529100  1
  H  H13  1  0.71604700  0.00177600  0.65987200  1
  O  O0  1  0.66086800  0.82832000  0.21091400  1
  O  O1  1  0.41167800  0.17175600  0.26628000  1
  O  O2  1  0.64416000  0.55098300  0.31605000  1
  O  O3  1  0.36924700  0.52121000  0.30944200  1
  O  O4  1  0.34092800  0.84865300  0.25025500  1
  O  O5  1  0.10716100  0.05862700  0.21907700  1
  O  O6  1  0.99977600  0.78244500  0.13268100  1
  O  O7  1  0.97331800  0.51707900  0.33283100  1
  O  O8  1  0.61330300  0.32528600  0.12069400  1
  O  O9  1  0.58872000  0.31186800  0.51468300  1
  O  O10  1  0.60108700  0.85772800  0.47725100  1
  O  O11  1  0.26712100  0.01083100  0.49275800  1
  O  O12  1  0.78923200  0.09519400  0.34397400  1
  O  O13  1  0.20700300  0.34455700  0.54964400  1
  O  O14  1  0.91942700  0.83149400  0.47070500  1
  O  O15  1  0.02045700  0.30227000  0.54006000  1
  O  O16  1  0.08348300  0.57795300  0.44753600  1
  O  O17  1  0.60320300  0.80662100  0.83505500  1
  O  O18  1  0.38495600  0.05460400  0.60961900  1
  O  O19  1  0.51310600  0.36198300  0.80847300  1
  O  O20  1  0.49522300  0.72345600  0.93211500  1
  O  O21  1  0.12974400  0.36106200  0.80791100  1
  O  O22  1  0.67248700  0.59213200  0.66204600  1
  O  O23  1  0.83285400  0.01399000  0.69745500  1
  O  O24  1  0.11639400  0.02593400  0.72872000  1
  O  O25  1  0.81789300  0.32353000  0.77115600  1
  O  O26  1  0.06983500  0.65140900  0.72341900  1
loop_
_geom_bond_atom_site_label_1
_geom_bond_atom_site_label_2
_geom_bond_distance
_geom_bond_site_symmetry_2
Ba0 H5 2.530432 1_545
Ba0 O8 2.571466 1_555
Ba0 O0 2.597184 1_545
Ba0 O17 2.602283 1_544
Ba0 H4 2.746036 1_544
Ba0 O1 2.833990 1_555
Ba1 O21 2.563464 1_554
Ba1 O6 2.592440 1_455
Ba1 H9 2.688340 1_454
Ba1 O7 2.691560 1_455
Ba1 O25 2.987968 1_454
Ba1 H8 3.070430 1_555
Ba1 O26 3.147762 1_554
Al0 O4 1.822241 1_555
Al0 O10 1.823230 1_555
Al0 O2 1.860909 1_555
Al0 O0 1.963797 1_555
Al0 O3 1.965697 1_555
Al1 O9 1.777285 1_555
Al1 O1 1.828472 1_555
Al1 O2 1.846904 1_555
Al1 O3 1.952880 1_555
Al1 O8 1.960503 1_555
Al2 O14 1.787359 1_555
Al2 O24 1.849511 1_665
Al2 O26 1.867507 1_655
Al2 O23 1.898870 1_565
Al2 H7 1.902300 1_555
Al3 O24 1.830222 1_655
Al3 O25 1.832979 1_555
Al3 O23 1.867878 1_555
Al3 O21 1.926301 1_655
Al3 O15 1.972575 1_655
H0 O2 0.978129 1_555
H0 O7 1.794319 1_555
H1 O3 0.983571 1_555
H2 O12 0.985411 1_555
H3 O6 0.980993 1_455
H4 Si0 1.491520 1_556
H5 O20 1.014390 1_554
H5 O0 1.760548 1_555
H6 Si0 1.539338 1_646
H7 Si0 1.627095 1_656
H8 Si5 1.482984 1_554
H9 Si5 1.484011 1_555
H10 O19 0.995255 1_555
H11 O22 1.061050 1_555
H11 O17 1.415654 1_555
H12 O24 0.991835 1_555
H12 O18 1.643410 1_555
H13 O23 0.978683 1_555
O0 Si1 1.683488 1_555
O1 Si2 1.605229 1_555
O4 Si2 1.620482 1_565
O5 Si2 1.648592 1_555
O5 Si0 1.763256 1_545
O6 Si0 1.704007 1_655
O8 Si5 1.617642 1_554
O9 Si4 1.582656 1_555
O10 Si1 1.640799 1_555
O11 O18 1.347516 1_555
O11 Si2 1.721279 1_555
O12 Si1 1.665878 1_545
O13 O15 1.566584 1_555
O13 Si3 1.756234 1_555
O14 Si1 1.633016 1_555
O15 Si3 1.784492 1_555
O16 O7 1.340318 1_455
O16 Si3 1.953221 1_555
O19 Si5 1.796981 1_555
O19 Si4 1.854977 1_555
O21 Si3 1.704553 1_555
O22 Si4 1.596639 1_555
O25 Si4 1.633809 1_555
O26 Si3 1.631823 1_555
