# generated using pymatgen
data_Na3CrH10C6O17
_symmetry_space_group_name_H-M   'P 1'
_cell_length_a   10.86942706
_cell_length_b   10.86942706
_cell_length_c   15.31092701
_cell_angle_alpha   81.71951235
_cell_angle_beta   81.71951235
_cell_angle_gamma   71.69771613
_symmetry_Int_Tables_number   1
_chemical_formula_structural   Na3CrH10C6O17
_chemical_formula_sum   'Na12 Cr4 H40 C24 O68'
_cell_volume   1690.06813511
_cell_formula_units_Z   4
loop_
 _symmetry_equiv_pos_site_id
 _symmetry_equiv_pos_as_xyz
  1  'x, y, z'
loop_
 _atom_site_type_symbol
 _atom_site_label
 _atom_site_symmetry_multiplicity
 _atom_site_fract_x
 _atom_site_fract_y
 _atom_site_fract_z
 _atom_site_occupancy
  Na  Na0  1  0.50261700  0.49738300  0.25000000  1
  Na  Na1  1  0.49738300  0.50261700  0.75000000  1
  Na  Na2  1  0.22950700  0.77049300  0.25000000  1
  Na  Na3  1  0.77049300  0.22950700  0.75000000  1
  Na  Na4  1  0.84214900  0.07195400  0.99985400  1
  Na  Na5  1  0.92804600  0.15785100  0.50014600  1
  Na  Na6  1  0.15785100  0.92804600  0.00014600  1
  Na  Na7  1  0.07195400  0.84214900  0.49985400  1
  Na  Na8  1  0.50898900  0.25384800  0.01418100  1
  Na  Na9  1  0.74615200  0.49101100  0.48581900  1
  Na  Na10  1  0.49101100  0.74615200  0.98581900  1
  Na  Na11  1  0.25384800  0.50898900  0.51418100  1
  Cr  Cr0  1  0.67373300  0.94179700  0.23172600  1
  Cr  Cr1  1  0.05820300  0.32626700  0.26827400  1
  Cr  Cr2  1  0.32626700  0.05820300  0.76827400  1
  Cr  Cr3  1  0.94179700  0.67373300  0.73172600  1
  H  H0  1  0.27292900  0.64598700  0.05499200  1
  H  H1  1  0.35401300  0.72707100  0.44500800  1
  H  H2  1  0.72707100  0.35401300  0.94500800  1
  H  H3  1  0.64598700  0.27292900  0.55499200  1
  H  H4  1  0.28191000  0.65116200  0.94978600  1
  H  H5  1  0.34883800  0.71809000  0.55021400  1
  H  H6  1  0.71809000  0.34883800  0.05021400  1
  H  H7  1  0.65116200  0.28191000  0.44978600  1
  H  H8  1  0.00933100  0.81172500  0.90753700  1
  H  H9  1  0.18827500  0.99066900  0.59246300  1
  H  H10  1  0.99066900  0.18827500  0.09246300  1
  H  H11  1  0.81172500  0.00933100  0.40753700  1
  H  H12  1  0.96847100  0.77559500  0.00630100  1
  H  H13  1  0.22440500  0.03152900  0.49369900  1
  H  H14  1  0.03152900  0.22440500  0.99369900  1
  H  H15  1  0.77559500  0.96847100  0.50630100  1
  H  H16  1  0.65735800  0.01475600  0.91748100  1
  H  H17  1  0.98524400  0.34264200  0.58251900  1
  H  H18  1  0.34264200  0.98524400  0.08251900  1
  H  H19  1  0.01475600  0.65735800  0.41748100  1
  H  H20  1  0.61896300  0.95531700  0.01322300  1
  H  H21  1  0.04468300  0.38103700  0.48677700  1
  H  H22  1  0.38103700  0.04468300  0.98677700  1
  H  H23  1  0.95531700  0.61896300  0.51322300  1
  H  H24  1  0.78113900  0.67897900  0.00322500  1
  H  H25  1  0.32102100  0.21886100  0.49677500  1
  H  H26  1  0.21886100  0.32102100  0.99677500  1
  H  H27  1  0.67897900  0.78113900  0.50322500  1
  H  H28  1  0.74462100  0.73422700  0.90650200  1
  H  H29  1  0.26577300  0.25537900  0.59349800  1
  H  H30  1  0.25537900  0.26577300  0.09349800  1
  H  H31  1  0.73422700  0.74462100  0.40650200  1
  H  H32  1  0.98172900  0.57715400  0.10955000  1
  H  H33  1  0.42284600  0.01827100  0.39045000  1
  H  H34  1  0.01827100  0.42284600  0.89045000  1
  H  H35  1  0.57715400  0.98172900  0.60955000  1
  H  H36  1  0.85850000  0.69721800  0.12754000  1
  H  H37  1  0.30278200  0.14150000  0.37246000  1
  H  H38  1  0.14150000  0.30278200  0.87246000  1
  H  H39  1  0.69721800  0.85850000  0.62754000  1
  C  C0  1  0.54683200  0.77364000  0.18810100  1
  C  C1  1  0.22636000  0.45316800  0.31189900  1
  C  C2  1  0.45316800  0.22636000  0.81189900  1
  C  C3  1  0.77364000  0.54683200  0.68810100  1
  C  C4  1  0.49163300  0.80350300  0.28518200  1
  C  C5  1  0.19649700  0.50836700  0.21481800  1
  C  C6  1  0.50836700  0.19649700  0.71481800  1
  C  C7  1  0.80350300  0.49163300  0.78518200  1
  C  C8  1  0.60918100  0.18539100  0.29706500  1
  C  C9  1  0.81460900  0.39081900  0.20293500  1
  C  C10  1  0.39081900  0.81460900  0.70293500  1
  C  C11  1  0.18539100  0.60918100  0.79706500  1
  C  C12  1  0.53963000  0.20799700  0.21111000  1
  C  C13  1  0.79200300  0.46037000  0.28889000  1
  C  C14  1  0.46037000  0.79200300  0.78889000  1
  C  C15  1  0.20799700  0.53963000  0.71111000  1
  C  C16  1  0.92655500  0.79261600  0.26927000  1
  C  C17  1  0.20738400  0.07344500  0.23073000  1
  C  C18  1  0.07344500  0.20738400  0.73073000  1
  C  C19  1  0.79261600  0.92655500  0.76927000  1
  C  C20  1  0.94546000  0.88519000  0.18406800  1
  C  C21  1  0.11481000  0.05454000  0.31593200  1
  C  C22  1  0.05454000  0.11481000  0.81593200  1
  C  C23  1  0.88519000  0.94546000  0.68406800  1
  O  O0  1  0.63702300  0.82625300  0.15369400  1
  O  O1  1  0.17374700  0.36297700  0.34630600  1
  O  O2  1  0.36297700  0.17374700  0.84630600  1
  O  O3  1  0.82625300  0.63702300  0.65369400  1
  O  O4  1  0.52902400  0.89206900  0.31275800  1
  O  O5  1  0.10793100  0.47097600  0.18724200  1
  O  O6  1  0.47097600  0.10793100  0.68724200  1
  O  O7  1  0.89206900  0.52902400  0.81275800  1
  O  O8  1  0.50152300  0.70669200  0.14987400  1
  O  O9  1  0.29330800  0.49847700  0.35012600  1
  O  O10  1  0.49847700  0.29330800  0.85012600  1
  O  O11  1  0.70669200  0.50152300  0.64987400  1
  O  O12  1  0.41611000  0.74619000  0.32807300  1
  O  O13  1  0.25381000  0.58389000  0.17192700  1
  O  O14  1  0.58389000  0.25381000  0.67192700  1
  O  O15  1  0.74619000  0.41611000  0.82807300  1
  O  O16  1  0.68315900  0.06679300  0.31413100  1
  O  O17  1  0.93320700  0.31684100  0.18586900  1
  O  O18  1  0.31684100  0.93320700  0.68586900  1
  O  O19  1  0.06679300  0.68315900  0.81413100  1
  O  O20  1  0.55779500  0.10362600  0.17289700  1
  O  O21  1  0.89637400  0.44220500  0.32710300  1
  O  O22  1  0.44220500  0.89637400  0.82710300  1
  O  O23  1  0.10362600  0.55779500  0.67289700  1
  O  O24  1  0.59321900  0.27706000  0.34144000  1
  O  O25  1  0.72294000  0.40678100  0.15856000  1
  O  O26  1  0.40678100  0.72294000  0.65856000  1
  O  O27  1  0.27706000  0.59321900  0.84144000  1
  O  O28  1  0.47557400  0.31843300  0.18208400  1
  O  O29  1  0.68156700  0.52442600  0.31791600  1
  O  O30  1  0.52442600  0.68156700  0.81791600  1
  O  O31  1  0.31843300  0.47557400  0.68208400  1
  O  O32  1  0.80701700  0.79496100  0.29372200  1
  O  O33  1  0.20503900  0.19298300  0.20627800  1
  O  O34  1  0.19298300  0.20503900  0.70627800  1
  O  O35  1  0.79496100  0.80701700  0.79372200  1
  O  O36  1  0.83750100  0.95850100  0.15397700  1
  O  O37  1  0.04149900  0.16249900  0.34602300  1
  O  O38  1  0.16249900  0.04149900  0.84602300  1
  O  O39  1  0.95850100  0.83750100  0.65397700  1
  O  O40  1  0.02250200  0.72281400  0.30662500  1
  O  O41  1  0.27718600  0.97749800  0.19337500  1
  O  O42  1  0.97749800  0.27718600  0.69337500  1
  O  O43  1  0.72281400  0.02250200  0.80662500  1
  O  O44  1  0.05693700  0.88224100  0.15027700  1
  O  O45  1  0.11775900  0.94306300  0.34972300  1
  O  O46  1  0.94306300  0.11775900  0.84972300  1
  O  O47  1  0.88224100  0.05693700  0.65027700  1
  O  O48  1  0.29538500  0.69458800  0.99846900  1
  O  O49  1  0.30541200  0.70461500  0.50153100  1
  O  O50  1  0.70461500  0.30541200  0.00153100  1
  O  O51  1  0.69458800  0.29538500  0.49846900  1
  O  O52  1  0.98154400  0.84954700  0.96419600  1
  O  O53  1  0.15045300  0.01845600  0.53580400  1
  O  O54  1  0.01845600  0.15045300  0.03580400  1
  O  O55  1  0.84954700  0.98154400  0.46419600  1
  O  O56  1  0.63227800  0.03470500  0.97992600  1
  O  O57  1  0.96529500  0.36772200  0.52007400  1
  O  O58  1  0.36772200  0.96529500  0.02007400  1
  O  O59  1  0.03470500  0.63227800  0.47992600  1
  O  O60  1  0.70840100  0.71072300  0.96656300  1
  O  O61  1  0.28927700  0.29159900  0.53343700  1
  O  O62  1  0.29159900  0.28927700  0.03343700  1
  O  O63  1  0.71072300  0.70840100  0.46656300  1
  O  O64  1  0.91512500  0.64935100  0.08036500  1
  O  O65  1  0.35064900  0.08487500  0.41963500  1
  O  O66  1  0.08487500  0.35064900  0.91963500  1
  O  O67  1  0.64935100  0.91512500  0.58036500  1
loop_
_geom_bond_atom_site_label_1
_geom_bond_atom_site_label_2
_geom_bond_distance
_geom_bond_site_symmetry_2
Na0 O28 2.445562 1_555
Na0 O29 2.445562 1_555
Na0 O8 2.551450 1_555
Na0 O9 2.551450 1_555
Na0 O25 2.571984 1_555
Na0 O24 2.571984 1_555
Na0 O13 2.938891 1_555
Na0 O12 2.938891 1_555
Na1 O31 2.445562 1_555
Na1 O30 2.445562 1_555
Na1 O11 2.551450 1_555
Na1 O10 2.551450 1_555
Na1 O27 2.571984 1_555
Na1 O26 2.571984 1_555
Na1 O14 2.938891 1_555
Na1 O15 2.938891 1_555
Na2 O13 2.425584 1_555
Na2 O12 2.425584 1_555
Na2 O40 2.474652 1_555
Na2 O41 2.474652 1_555
Na2 O45 2.486930 1_555
Na2 O44 2.486930 1_555
Na3 O14 2.425584 1_555
Na3 O15 2.425584 1_555
Na3 O42 2.474652 1_555
Na3 O43 2.474652 1_555
Na3 O46 2.486930 1_555
Na3 O47 2.486930 1_555
Na4 O46 2.453955 1_555
Na4 O54 2.483840 1_656
Na4 O36 2.501670 1_546
Na4 O56 2.505380 1_555
Na4 O52 2.505830 1_545
Na4 O50 2.509945 1_556
Na5 O47 2.453955 1_555
Na5 O55 2.483840 1_545
Na5 O37 2.501670 1_655
Na5 O57 2.505380 1_555
Na5 O53 2.505830 1_655
Na5 O51 2.509945 1_555
Na6 O44 2.453955 1_555
Na6 O52 2.483840 1_454
Na6 O38 2.501670 1_564
Na6 O58 2.505380 1_555
Na6 O54 2.505830 1_565
Na6 O48 2.509945 1_554
Na7 O45 2.453955 1_555
Na7 O53 2.483840 1_565
Na7 O39 2.501670 1_455
Na7 O59 2.505380 1_555
Na7 O55 2.505830 1_455
Na7 O49 2.509945 1_555
Na8 O62 2.253682 1_555
Na8 O50 2.339140 1_555
Na8 O56 2.428422 1_554
Na8 O10 2.499580 1_554
Na8 O28 2.706329 1_555
Na8 O20 2.745408 1_555
Na9 O63 2.253682 1_555
Na9 O51 2.339140 1_555
Na9 O57 2.428422 1_555
Na9 O11 2.499580 1_555
Na9 O29 2.706329 1_555
Na9 O21 2.745408 1_555
Na10 O60 2.253682 1_555
Na10 O48 2.339140 1_555
Na10 O58 2.428422 1_556
Na10 O8 2.499580 1_556
Na10 O30 2.706329 1_555
Na10 O22 2.745408 1_555
Na11 O61 2.253682 1_555
Na11 O49 2.339140 1_555
Na11 O59 2.428422 1_555
Na11 O9 2.499580 1_555
Na11 O31 2.706329 1_555
Na11 O23 2.745408 1_555
Cr0 O20 1.992938 1_565
Cr0 O0 2.012000 1_555
Cr0 O32 2.013609 1_555
Cr0 O16 2.016600 1_565
Cr0 O4 2.020932 1_555
Cr0 O36 2.036920 1_555
Cr1 O21 1.992938 1_455
Cr1 O1 2.012000 1_555
Cr1 O33 2.013609 1_555
Cr1 O17 2.016600 1_455
Cr1 O5 2.020932 1_555
Cr1 O37 2.036920 1_555
Cr2 O22 1.992938 1_545
Cr2 O2 2.012000 1_555
Cr2 O34 2.013609 1_555
Cr2 O18 2.016600 1_545
Cr2 O6 2.020932 1_555
Cr2 O38 2.036920 1_555
Cr3 O23 1.992938 1_655
Cr3 O3 2.012000 1_555
Cr3 O35 2.013609 1_555
Cr3 O19 2.016600 1_655
Cr3 O7 2.020932 1_555
Cr3 O39 2.036920 1_555
H0 O48 0.987951 1_554
H1 O49 0.987951 1_555
H2 O50 0.987951 1_556
H3 O51 0.987951 1_555
H4 O48 0.987954 1_555
H5 O49 0.987954 1_555
H6 O50 0.987954 1_555
H7 O51 0.987954 1_555
H8 O52 0.980846 1_455
H9 O53 0.980846 1_565
H10 O54 0.980846 1_655
H11 O55 0.980846 1_545
H12 O52 0.988938 1_554
H13 O53 0.988938 1_555
H14 O54 0.988938 1_556
H15 O55 0.988938 1_555
H16 O56 0.991442 1_555
H17 O57 0.991442 1_555
H18 O58 0.991442 1_555
H19 O59 0.991442 1_555
H20 O56 0.977712 1_564
H21 O57 0.977712 1_455
H22 O58 0.977712 1_546
H23 O59 0.977712 1_655
H24 O60 0.979763 1_554
H25 O61 0.979763 1_555
H26 O62 0.979763 1_556
H27 O63 0.979763 1_555
H28 O60 0.978328 1_555
H29 O61 0.978328 1_555
H30 O62 0.978328 1_555
H31 O63 0.978328 1_555
H32 O64 0.987400 1_555
H33 O65 0.987400 1_555
H34 O66 0.987400 1_555
H35 O67 0.987400 1_555
H36 O64 0.974831 1_555
H37 O65 0.974831 1_555
H38 O66 0.974831 1_555
H39 O67 0.974831 1_555
C0 O8 1.243148 1_555
C0 O0 1.296985 1_555
C1 O9 1.243148 1_555
C1 O1 1.296985 1_555
C2 O10 1.243148 1_555
C2 O2 1.296985 1_555
C3 O11 1.243148 1_555
C3 O3 1.296985 1_555
C4 O12 1.241477 1_555
C4 O4 1.297067 1_555
C5 O13 1.241477 1_555
C5 O5 1.297067 1_555
C6 O14 1.241477 1_555
C6 O6 1.297067 1_555
C7 O15 1.241477 1_555
C7 O7 1.297067 1_555
C8 O24 1.239748 1_555
C8 O16 1.299648 1_555
C9 O25 1.239748 1_555
C9 O17 1.299648 1_555
C10 O26 1.239748 1_555
C10 O18 1.299648 1_555
C11 O27 1.239748 1_555
C11 O19 1.299648 1_555
C12 O28 1.238439 1_555
C12 O20 1.298273 1_555
C13 O29 1.238439 1_555
C13 O21 1.298273 1_555
C14 O30 1.238439 1_555
C14 O22 1.298273 1_555
C15 O31 1.238439 1_555
C15 O23 1.298273 1_555
C16 O40 1.241062 1_655
C16 O32 1.292615 1_555
C17 O41 1.241062 1_545
C17 O33 1.292615 1_555
C18 O42 1.241062 1_455
C18 O34 1.292615 1_555
C19 O43 1.241062 1_565
C19 O35 1.292615 1_555
C20 O44 1.239641 1_655
C20 O36 1.298816 1_555
C21 O45 1.239641 1_545
C21 O37 1.298816 1_555
C22 O46 1.239641 1_455
C22 O38 1.298816 1_555
C23 O47 1.239641 1_565
C23 O39 1.298816 1_555
