# generated using pymatgen
data_Ru4Pb4O13
_symmetry_space_group_name_H-M   'P 1'
_cell_length_a   7.24889185
_cell_length_b   7.24897393
_cell_length_c   7.24898588
_cell_angle_alpha   60.00101202
_cell_angle_beta   60.00064810
_cell_angle_gamma   60.00059631
_symmetry_Int_Tables_number   1
_chemical_formula_structural   Ru4Pb4O13
_chemical_formula_sum   'Ru4 Pb4 O13'
_cell_volume   269.35052121
_cell_formula_units_Z   1
loop_
 _symmetry_equiv_pos_site_id
 _symmetry_equiv_pos_as_xyz
  1  'x, y, z'
loop_
 _atom_site_type_symbol
 _atom_site_label
 _atom_site_symmetry_multiplicity
 _atom_site_fract_x
 _atom_site_fract_y
 _atom_site_fract_z
 _atom_site_occupancy
  Ru  Ru0  1  0.87503207  0.37490612  0.87503114  1
  Ru  Ru1  1  0.87503054  0.87503171  0.37490714  1
  Ru  Ru2  1  0.87503039  0.87503129  0.87503062  1
  Ru  Ru3  1  0.37490706  0.87503144  0.87503081  1
  Pb  Pb0  1  0.88097884  0.37300645  0.37300610  1
  Pb  Pb1  1  0.37300789  0.37300580  0.37300721  1
  Pb  Pb2  1  0.37300701  0.37300557  0.88097846  1
  Pb  Pb3  1  0.37300770  0.88097855  0.37300580  1
  O  O0  1  0.19912929  0.80087338  0.80087490  1
  O  O1  1  0.19912839  0.80087153  0.19913182  1
  O  O2  1  0.55429318  0.94570308  0.94570269  1
  O  O3  1  0.55430074  0.94570104  0.55429078  1
  O  O4  1  0.94570642  0.94570192  0.55428696  1
  O  O5  1  0.80086875  0.80087160  0.19913515  1
  O  O6  1  0.55429904  0.55429273  0.94570124  1
  O  O7  1  0.80086842  0.19913437  0.80087222  1
  O  O8  1  0.80086646  0.19913335  0.19913468  1
  O  O9  1  0.94570638  0.55428780  0.94570234  1
  O  O10  1  0.94570462  0.55429562  0.55429366  1
  O  O11  1  0.19912776  0.19913164  0.80087260  1
  O  O12  1  0.49999803  0.50000201  0.50000168  1
loop_
_geom_bond_atom_site_label_1
_geom_bond_atom_site_label_2
_geom_bond_distance
_geom_bond_site_symmetry_2
O0 Ru3 1.964783 1_555
O0 Ru2 1.964838 1_455
O0 Pb2 2.562703 1_555
O0 Pb3 2.562715 1_555
O1 Ru1 1.964830 1_455
O1 Ru3 1.964877 1_554
O1 Pb3 2.562608 1_555
O1 Pb1 2.562691 1_555
O2 Ru3 1.952066 1_555
O2 Ru2 1.952123 1_555
O2 Pb2 2.575744 1_565
O2 Pb3 2.575753 1_556
O3 Ru1 1.952081 1_555
O3 Ru3 1.952174 1_555
O3 Pb3 2.575690 1_555
O3 Pb1 2.575762 1_565
O4 Ru1 1.952047 1_555
O4 Ru2 1.952196 1_555
O4 Pb3 2.575704 1_655
O4 Pb0 2.575760 1_565
O5 Ru1 1.964796 1_555
O5 Ru2 1.964900 1_554
O5 Pb3 2.562623 1_555
O5 Pb0 2.562686 1_555
O6 Ru0 1.952102 1_555
O6 Ru3 1.952161 1_555
O6 Pb2 2.575698 1_555
O6 Pb1 2.575775 1_556
O7 Ru0 1.964797 1_555
O7 Ru2 1.964887 1_545
O7 Pb2 2.562625 1_555
O7 Pb0 2.562697 1_555
O8 Ru1 1.964876 1_545
O8 Ru0 1.964890 1_554
O8 Pb0 2.562587 1_555
O8 Pb1 2.562609 1_555
O9 Ru0 1.952055 1_555
O9 Ru2 1.952189 1_555
O9 Pb2 2.575698 1_655
O9 Pb0 2.575760 1_556
O10 Ru1 1.952148 1_555
O10 Ru0 1.952163 1_555
O10 Pb0 2.575705 1_555
O10 Pb1 2.575721 1_655
O11 Ru0 1.964817 1_455
O11 Ru3 1.964869 1_545
O11 Pb2 2.562601 1_555
O11 Pb1 2.562693 1_555
O12 Pb1 2.254915 1_555
O12 Pb0 2.254925 1_555
O12 Pb3 2.254933 1_555
O12 Pb2 2.254940 1_555
