# generated using pymatgen
data_LiB13C2
_symmetry_space_group_name_H-M   'P 1'
_cell_length_a   7.31724719
_cell_length_b   7.31724719
_cell_length_c   7.31724719
_cell_angle_alpha   134.34749122
_cell_angle_beta   113.32474882
_cell_angle_gamma   84.55153182
_symmetry_Int_Tables_number   1
_chemical_formula_structural   LiB13C2
_chemical_formula_sum   'Li2 B26 C4'
_cell_volume   247.21336621
_cell_formula_units_Z   2
loop_
 _symmetry_equiv_pos_site_id
 _symmetry_equiv_pos_as_xyz
  1  'x, y, z'
loop_
 _atom_site_type_symbol
 _atom_site_label
 _atom_site_symmetry_multiplicity
 _atom_site_fract_x
 _atom_site_fract_y
 _atom_site_fract_z
 _atom_site_occupancy
  Li  Li0  1  0.19448900  0.50000000  0.69448900  1
  Li  Li1  1  0.32451300  0.00000000  0.32451300  1
  B  B0  1  0.40802000  0.41590800  0.99211200  1
  B  B1  1  0.37589100  0.56777800  0.30372000  1
  B  B2  1  0.73594200  0.92782900  0.30372000  1
  B  B3  1  0.13002600  0.92070000  0.69490700  1
  B  B4  1  0.98212700  0.65411200  0.99992500  1
  B  B5  1  0.34581300  0.01779800  0.99992500  1
  B  B6  1  0.13002600  0.43511900  0.20932500  1
  B  B7  1  0.73594200  0.43222200  0.80811300  1
  B  B8  1  0.16353100  0.15337400  0.67987600  1
  B  B9  1  0.09777300  0.08242200  0.01535100  1
  B  B10  1  0.00174900  0.17565700  0.82609100  1
  B  B11  1  0.34581300  0.34588800  0.32801500  1
  B  B12  1  0.77420700  0.56488100  0.69490700  1
  B  B13  1  0.57620500  0.58409200  0.99211200  1
  B  B14  1  0.37589100  0.07217100  0.80811300  1
  B  B15  1  0.86788100  0.50000000  0.36788100  1
  B  B16  1  0.52650200  0.51634500  0.67987600  1
  B  B17  1  0.93292900  0.91757800  0.01535100  1
  B  B18  1  0.85647800  0.67541500  0.18106400  1
  B  B19  1  0.16353100  0.48365500  0.01015700  1
  B  B20  1  0.98212700  0.98220200  0.32801500  1
  B  B21  1  0.65043400  0.82434300  0.82609100  1
  B  B22  1  0.77420700  0.07930000  0.20932500  1
  B  B23  1  0.50564900  0.32458500  0.18106400  1
  B  B24  1  0.64263500  0.00000000  0.64263500  1
  B  B25  1  0.52650200  0.84662600  0.01015700  1
  C  C0  1  0.50381700  0.86849500  0.63532300  1
  C  C1  1  0.76682800  0.13150500  0.63532300  1
  C  C2  1  0.74304500  0.36758000  0.37546500  1
  C  C3  1  0.00788500  0.63242000  0.37546500  1
loop_
_geom_bond_atom_site_label_1
_geom_bond_atom_site_label_2
_geom_bond_distance
_geom_bond_site_symmetry_2
B0 B23 1.813094 1_556
B0 B13 1.821151 1_555
B0 B1 1.822541 1_556
B0 B14 1.822541 1_555
B0 B8 1.841408 1_555
B0 B19 1.841408 1_556
B0 Li0 2.561037 1_555
B1 C0 1.653457 1_555
B1 B19 1.760002 1_555
B1 B11 1.794034 1_555
B2 C1 1.653458 1_565
B2 B25 1.760002 1_555
B2 B20 1.794034 1_555
B3 C3 1.588281 1_555
B3 B5 1.784590 1_565
B3 B8 1.825712 1_565
B3 B9 1.860125 1_566
B4 B7 1.794034 1_555
B4 Li1 2.532138 1_666
B4 Li0 2.752314 1_655
B5 B9 1.858788 1_556
B5 Li1 2.532138 1_556
B5 Li0 2.752314 1_545
B6 C3 1.588284 1_555
B6 B9 1.860127 1_555
B7 C1 1.653458 1_555
B8 Li0 2.491303 1_555
B8 Li1 2.739208 1_555
B9 Li1 2.641819 1_555
B10 C1 1.607058 1_455
B10 B8 1.815227 1_555
B10 B19 1.815230 1_556
B10 B9 1.826532 1_556
B11 B16 1.749482 1_555
B11 B6 1.784592 1_555
B11 B23 1.809783 1_555
B11 B9 1.858788 1_555
B11 B5 1.862657 1_554
B11 Li1 2.532138 1_555
B11 Li0 2.752314 1_555
B12 C2 1.588281 1_555
B12 B4 1.784590 1_555
B12 B16 1.825712 1_555
B12 B17 1.860125 1_556
B13 B18 1.813081 1_556
B13 B7 1.822534 1_555
B13 B2 1.822539 1_556
B13 B16 1.841406 1_555
B13 B25 1.841409 1_556
B13 Li0 2.561042 1_555
B14 C0 1.653452 1_545
B14 B8 1.760002 1_555
B14 B5 1.794034 1_555
B15 C3 1.435179 1_655
B15 C2 1.435179 1_555
B15 Li0 2.626811 1_655
B16 B7 1.760002 1_555
B16 B21 1.815234 1_555
B16 B25 1.875096 1_556
B16 Li0 2.491303 1_555
B16 Li1 2.739208 1_555
B17 B9 1.784979 1_665
B17 B21 1.826532 1_554
B17 B4 1.858788 1_554
B17 B20 1.858788 1_555
B17 B22 1.860121 1_565
B17 Li1 2.641819 1_665
B18 C3 1.631354 1_655
B18 B20 1.809786 1_555
B18 B4 1.809789 1_554
B19 B4 1.749482 1_454
B19 B6 1.825705 1_555
B19 B8 1.875096 1_554
B19 Li0 2.491303 1_554
B19 Li1 2.739208 1_565
B20 B8 1.749482 1_665
B20 B22 1.784593 1_565
B20 B4 1.862657 1_554
B20 Li1 2.532138 1_665
B20 Li0 2.752314 1_665
B21 C0 1.607055 1_555
B21 B25 1.815234 1_556
B22 C2 1.588281 1_555
B22 B25 1.825714 1_545
B23 C2 1.631352 1_555
B23 B5 1.809783 1_554
B24 C1 1.425188 1_555
B24 C0 1.425194 1_545
B24 Li1 2.558560 1_555
B25 B5 1.749482 1_564
B25 Li0 2.491303 1_554
B25 Li1 2.739208 1_565
