# generated using pymatgen
data_Cu27Se20
_symmetry_space_group_name_H-M   'P 1'
_cell_length_a   4.02215130
_cell_length_b   4.02215163
_cell_length_c   79.83886727
_cell_angle_alpha   59.74936109
_cell_angle_beta   59.74935841
_cell_angle_gamma   59.99999889
_symmetry_Int_Tables_number   1
_chemical_formula_structural   Cu27Se20
_chemical_formula_sum   'Cu27 Se20'
_cell_volume   909.83048485
_cell_formula_units_Z   1
loop_
 _symmetry_equiv_pos_site_id
 _symmetry_equiv_pos_as_xyz
  1  'x, y, z'
loop_
 _atom_site_type_symbol
 _atom_site_label
 _atom_site_symmetry_multiplicity
 _atom_site_fract_x
 _atom_site_fract_y
 _atom_site_fract_z
 _atom_site_occupancy
  Cu  Cu0  1  0.24603300  0.24603300  0.06309500  1
  Cu  Cu1  1  0.75459900  0.75459900  0.03681000  1
  Cu  Cu2  1  0.24456900  0.24456900  0.16331500  1
  Cu  Cu3  1  0.74455700  0.74455700  0.08831600  1
  Cu  Cu4  1  0.75515100  0.75515100  0.13672700  1
  Cu  Cu5  1  0.74424600  0.74424600  0.18836300  1
  Cu  Cu6  1  0.74186600  0.74186600  0.23872000  1
  Cu  Cu7  1  0.74988000  0.74988000  0.28751800  1
  Cu  Cu8  1  0.74957200  0.74957200  0.33756400  1
  Cu  Cu9  1  0.74943000  0.74943000  0.38758500  1
  Cu  Cu10  1  0.74953300  0.74953300  0.43757000  1
  Cu  Cu11  1  0.74958900  0.74958900  0.48756200  1
  Cu  Cu12  1  0.74931600  0.74931600  0.53760300  1
  Cu  Cu13  1  0.24603600  0.24603600  0.66309500  1
  Cu  Cu14  1  0.74977700  0.74977700  0.58753300  1
  Cu  Cu15  1  0.76308800  0.76308800  0.63553700  1
  Cu  Cu16  1  0.74413400  0.74413400  0.68838000  1
  Cu  Cu17  1  0.24553500  0.24553500  0.76317000  1
  Cu  Cu18  1  0.75465200  0.75465200  0.73680200  1
  Cu  Cu19  1  0.74381400  0.74381400  0.78842800  1
  Cu  Cu20  1  0.25394100  0.25394100  0.86190900  1
  Cu  Cu21  1  0.75432000  0.75432000  0.83685200  1
  Cu  Cu22  1  0.24998500  0.24998500  0.91250200  1
  Cu  Cu23  1  0.24368500  0.24368500  0.96344700  1
  Cu  Cu24  1  0.75811300  0.75811300  0.88628300  1
  Cu  Cu25  1  0.74935700  0.74935700  0.93759700  1
  Cu  Cu26  1  0.73521300  0.73521300  0.98971800  1
  Se  Se0  1  0.99767400  0.99767400  0.00034900  1
  Se  Se1  1  0.00797900  0.00797900  0.04880300  1
  Se  Se2  1  0.99742600  0.99742600  0.10038600  1
  Se  Se3  1  0.00741000  0.00741000  0.14888800  1
  Se  Se4  1  0.99429700  0.99429700  0.20085500  1
  Se  Se5  1  0.00083000  0.00083000  0.24987500  1
  Se  Se6  1  0.99990100  0.99990100  0.30001500  1
  Se  Se7  1  0.00031600  0.00031600  0.34995300  1
  Se  Se8  1  0.00050600  0.00050600  0.39992400  1
  Se  Se9  1  0.00017600  0.00017600  0.44997400  1
  Se  Se10  1  0.00045000  0.00045000  0.49993200  1
  Se  Se11  1  0.00090300  0.00090300  0.54986500  1
  Se  Se12  1  0.00514700  0.00514700  0.59922800  1
  Se  Se13  1  0.00658700  0.00658700  0.64901200  1
  Se  Se14  1  0.99741000  0.99741000  0.70038800  1
  Se  Se15  1  0.00777500  0.00777500  0.74883400  1
  Se  Se16  1  0.99702700  0.99702700  0.80044600  1
  Se  Se17  1  0.00906800  0.00906800  0.84864000  1
  Se  Se18  1  0.00020000  0.00020000  0.89997000  1
  Se  Se19  1  0.99892500  0.99892500  0.95016100  1
loop_
_geom_bond_atom_site_label_1
_geom_bond_atom_site_label_2
_geom_bond_distance
_geom_bond_site_symmetry_2
Cu0 Se2 2.421682 1_445
Cu0 Se1 2.500794 1_655
Cu0 Se1 2.500794 1_565
Cu0 Se1 2.500801 1_555
Cu1 Se0 2.367781 1_555
Cu1 Se1 2.449314 1_565
Cu1 Se1 2.449314 1_665
Cu1 Se1 2.449314 1_655
Cu2 Se4 2.437852 1_445
Cu2 Se3 2.504045 1_655
Cu2 Se3 2.504045 1_565
Cu2 Se3 2.504100 1_555
Cu3 Se2 2.450901 1_455
Cu3 Se2 2.450901 1_545
Cu3 Se2 2.450924 1_555
Cu3 Se1 2.565979 1_665
Cu4 Se2 2.359989 1_555
Cu4 Se3 2.452798 1_665
Cu4 Se3 2.452808 1_565
Cu4 Se3 2.452808 1_655
Cu5 Se4 2.459795 1_555
Cu5 Se4 2.459817 1_455
Cu5 Se4 2.459818 1_545
Cu5 Se3 2.563511 1_665
Cu6 Se5 2.432539 1_665
Cu6 Se5 2.432566 1_565
Cu6 Se5 2.432566 1_655
Cu6 Se4 2.458957 1_555
Cu7 Se5 2.444541 1_665
Cu7 Se6 2.459914 1_455
Cu7 Se6 2.459914 1_545
Cu7 Se6 2.459924 1_555
Cu8 Se6 2.438436 1_555
Cu8 Se7 2.457599 1_565
Cu8 Se7 2.457599 1_655
Cu8 Se7 2.457638 1_665
Cu9 Se7 2.443826 1_665
Cu9 Se8 2.456542 1_565
Cu9 Se8 2.456542 1_655
Cu9 Se8 2.456569 1_665
Cu10 Se8 2.444735 1_665
Cu10 Se9 2.457921 1_565
Cu10 Se9 2.457921 1_655
Cu10 Se9 2.457951 1_665
Cu11 Se9 2.440969 1_665
Cu11 Se10 2.457171 1_665
Cu11 Se10 2.457227 1_565
Cu11 Se10 2.457227 1_655
Cu12 Se10 2.446359 1_665
Cu12 Se11 2.454923 1_565
Cu12 Se11 2.454923 1_655
Cu12 Se11 2.454927 1_665
Cu13 Se14 2.421811 1_445
Cu13 Se13 2.495783 1_655
Cu13 Se13 2.495783 1_565
Cu13 Se13 2.495806 1_555
Cu14 Se12 2.443218 1_565
Cu14 Se12 2.443218 1_655
Cu14 Se12 2.443251 1_665
Cu14 Se11 2.446164 1_665
Cu15 Se12 2.357910 1_665
Cu15 Se13 2.481588 1_665
Cu15 Se13 2.481598 1_565
Cu15 Se13 2.481598 1_655
Cu16 Se14 2.449597 1_555
Cu16 Se14 2.449637 1_455
Cu16 Se14 2.449637 1_545
Cu16 Se13 2.556562 1_665
Cu17 Se16 2.420708 1_445
Cu17 Se15 2.501858 1_655
Cu17 Se15 2.501858 1_555
Cu17 Se15 2.501858 1_565
Cu18 Se14 2.364729 1_555
Cu18 Se15 2.450110 1_565
Cu18 Se15 2.450111 1_655
Cu18 Se15 2.450140 1_665
Cu19 Se16 2.449828 1_555
Cu19 Se16 2.449832 1_455
Cu19 Se16 2.449832 1_545
Cu19 Se15 2.571239 1_665
Cu20 Se18 2.471685 1_555
Cu20 Se17 2.476907 1_555
Cu20 Se17 2.476910 1_655
Cu20 Se17 2.476910 1_565
Cu21 Se16 2.364210 1_555
Cu21 Se17 2.445109 1_565
Cu21 Se17 2.445109 1_655
Cu21 Se17 2.445122 1_665
Cu22 Se19 2.445580 1_445
Cu22 Se18 2.460657 1_555
Cu22 Se18 2.460673 1_655
Cu22 Se18 2.460673 1_565
Cu23 Se0 2.396420 1_446
Cu23 Se19 2.477293 1_545
Cu23 Se19 2.477293 1_445
Cu23 Se19 2.477293 1_455
Cu24 Se17 2.444541 1_665
Cu24 Se18 2.486481 1_565
Cu24 Se18 2.486482 1_655
Cu24 Se18 2.486485 1_665
Cu25 Se18 2.443501 1_665
Cu25 Se19 2.461321 1_555
Cu25 Se19 2.461373 1_455
Cu25 Se19 2.461373 1_545
Cu26 Se0 2.422638 1_456
Cu26 Se0 2.422638 1_546
Cu26 Se0 2.422648 1_556
Cu26 Se19 2.568836 1_555
