# generated using pymatgen
data_Eu3Sb4S9
_symmetry_space_group_name_H-M   'P 1'
_cell_length_a   4.02217890
_cell_length_b   16.47576436
_cell_length_c   23.75153946
_cell_angle_alpha   90.00000000
_cell_angle_beta   90.00000000
_cell_angle_gamma   90.00000000
_symmetry_Int_Tables_number   1
_chemical_formula_structural   Eu3Sb4S9
_chemical_formula_sum   'Eu12 Sb16 S36'
_cell_volume   1573.97822220
_cell_formula_units_Z   4
loop_
 _symmetry_equiv_pos_site_id
 _symmetry_equiv_pos_as_xyz
  1  'x, y, z'
loop_
 _atom_site_type_symbol
 _atom_site_label
 _atom_site_symmetry_multiplicity
 _atom_site_fract_x
 _atom_site_fract_y
 _atom_site_fract_z
 _atom_site_occupancy
  Eu  Eu0  1  0.25000000  0.82243251  0.17780743  1
  Eu  Eu1  1  0.75000000  0.17756749  0.82219257  1
  Eu  Eu2  1  0.75000000  0.44727353  0.76646899  1
  Eu  Eu3  1  0.25000000  0.62290522  0.05369001  1
  Eu  Eu4  1  0.75000000  0.37709478  0.94630999  1
  Eu  Eu5  1  0.25000000  0.32243251  0.32219257  1
  Eu  Eu6  1  0.25000000  0.12290522  0.44630999  1
  Eu  Eu7  1  0.75000000  0.67756749  0.67780743  1
  Eu  Eu8  1  0.25000000  0.55272647  0.23353101  1
  Eu  Eu9  1  0.25000000  0.05272647  0.26646899  1
  Eu  Eu10  1  0.75000000  0.94727353  0.73353101  1
  Eu  Eu11  1  0.75000000  0.87709478  0.55369001  1
  Sb  Sb0  1  0.25000000  0.97294933  0.89562479  1
  Sb  Sb1  1  0.75000000  0.52705067  0.39562479  1
  Sb  Sb2  1  0.25000000  0.09063452  0.60711261  1
  Sb  Sb3  1  0.75000000  0.83444284  0.00598212  1
  Sb  Sb4  1  0.75000000  0.40936548  0.10711261  1
  Sb  Sb5  1  0.75000000  0.24136840  0.17426949  1
  Sb  Sb6  1  0.25000000  0.16555716  0.99401788  1
  Sb  Sb7  1  0.25000000  0.59063452  0.89288739  1
  Sb  Sb8  1  0.75000000  0.90936548  0.39288739  1
  Sb  Sb9  1  0.25000000  0.47294933  0.60437521  1
  Sb  Sb10  1  0.25000000  0.75863160  0.82573051  1
  Sb  Sb11  1  0.25000000  0.66555716  0.50598212  1
  Sb  Sb12  1  0.25000000  0.25863160  0.67426949  1
  Sb  Sb13  1  0.75000000  0.74136840  0.32573051  1
  Sb  Sb14  1  0.75000000  0.33444284  0.49401788  1
  Sb  Sb15  1  0.75000000  0.02705067  0.10437521  1
  S  S0  1  0.75000000  0.06095038  0.93313884  1
  S  S1  1  0.75000000  0.95731583  0.19693875  1
  S  S2  1  0.25000000  0.75557514  0.96468383  1
  S  S3  1  0.25000000  0.24947355  0.90760550  1
  S  S4  1  0.25000000  0.13614490  0.15309493  1
  S  S5  1  0.75000000  0.63385159  0.80460583  1
  S  S6  1  0.25000000  0.63614490  0.34690507  1
  S  S7  1  0.25000000  0.43904962  0.43313884  1
  S  S8  1  0.25000000  0.79983733  0.72595240  1
  S  S9  1  0.25000000  0.25557514  0.53531617  1
  S  S10  1  0.75000000  0.20016267  0.27404760  1
  S  S11  1  0.25000000  0.04268417  0.80306125  1
  S  S12  1  0.25000000  0.36614841  0.19539417  1
  S  S13  1  0.75000000  0.86385510  0.84690507  1
  S  S14  1  0.75000000  0.55308480  0.13730622  1
  S  S15  1  0.75000000  0.70016267  0.22595240  1
  S  S16  1  0.75000000  0.24442486  0.03531617  1
  S  S17  1  0.25000000  0.74947355  0.59239450  1
  S  S18  1  0.25000000  0.93904962  0.06686116  1
  S  S19  1  0.75000000  0.25052645  0.40760550  1
  S  S20  1  0.75000000  0.56095038  0.56686116  1
  S  S21  1  0.75000000  0.36385510  0.65309493  1
  S  S22  1  0.25000000  0.94691520  0.63730622  1
  S  S23  1  0.75000000  0.75052645  0.09239450  1
  S  S24  1  0.75000000  0.13385159  0.69539417  1
  S  S25  1  0.75000000  0.56096426  0.96479625  1
  S  S26  1  0.25000000  0.54268417  0.69693875  1
  S  S27  1  0.75000000  0.06096426  0.53520375  1
  S  S28  1  0.25000000  0.86614841  0.30460583  1
  S  S29  1  0.25000000  0.93903574  0.46479625  1
  S  S30  1  0.25000000  0.43903574  0.03520375  1
  S  S31  1  0.25000000  0.29983733  0.77404760  1
  S  S32  1  0.25000000  0.44691520  0.86269378  1
  S  S33  1  0.75000000  0.45731583  0.30306125  1
  S  S34  1  0.75000000  0.74442486  0.46468383  1
  S  S35  1  0.75000000  0.05308480  0.36269378  1
loop_
_geom_bond_atom_site_label_1
_geom_bond_atom_site_label_2
_geom_bond_distance
_geom_bond_site_symmetry_2
Eu0 S1 3.031436 1_555
Eu0 S1 3.031436 1_455
Eu0 S15 3.067618 1_455
Eu0 S15 3.067618 1_555
Eu0 S23 3.092505 1_555
Eu0 S23 3.092505 1_455
Eu0 S28 3.096586 1_555
Eu0 S18 3.261226 1_555
Eu1 S11 3.031436 1_555
Eu1 S11 3.031436 1_655
Eu1 S31 3.067618 1_555
Eu1 S31 3.067618 1_655
Eu1 S3 3.092505 1_555
Eu1 S3 3.092505 1_655
Eu1 S24 3.096586 1_555
Eu1 S0 3.261226 1_555
Eu2 S21 3.023267 1_555
Eu2 S26 3.040203 1_555
Eu2 S26 3.040203 1_655
Eu2 S32 3.044333 1_655
Eu2 S32 3.044333 1_555
Eu2 S31 3.158722 1_555
Eu2 S31 3.158722 1_655
Eu2 S5 3.204694 1_555
Eu3 S2 3.040893 1_554
Eu3 S23 3.051351 1_455
Eu3 S23 3.051351 1_555
Eu3 S14 3.051561 1_555
Eu3 S14 3.051561 1_455
Eu3 S30 3.061045 1_555
Eu3 S25 3.089305 1_454
Eu3 S25 3.089305 1_554
Eu4 S16 3.040893 1_556
Eu4 S3 3.051351 1_655
Eu4 S3 3.051351 1_555
Eu4 S32 3.051561 1_555
Eu4 S32 3.051561 1_655
Eu4 S25 3.061045 1_555
Eu4 S30 3.089305 1_556
Eu4 S30 3.089305 1_656
Eu5 S33 3.031436 1_455
Eu5 S33 3.031436 1_555
Eu5 S10 3.067618 1_455
Eu5 S10 3.067618 1_555
Eu5 S19 3.092505 1_455
Eu5 S19 3.092505 1_555
Eu5 S12 3.096586 1_555
Eu5 S7 3.261226 1_555
Eu6 S9 3.040893 1_555
Eu6 S19 3.051351 1_455
Eu6 S19 3.051351 1_555
Eu6 S35 3.051561 1_455
Eu6 S35 3.051561 1_555
Eu6 S29 3.061045 1_545
Eu6 S27 3.089305 1_555
Eu6 S27 3.089305 1_455
Eu7 S26 3.031436 1_555
Eu7 S26 3.031436 1_655
Eu7 S8 3.067618 1_655
Eu7 S8 3.067618 1_555
Eu7 S17 3.092505 1_555
Eu7 S17 3.092505 1_655
Eu7 S5 3.096586 1_555
Eu7 S20 3.261226 1_555
Eu8 S6 3.023267 1_555
Eu8 S33 3.040203 1_455
Eu8 S33 3.040203 1_555
Eu8 S14 3.044333 1_555
Eu8 S14 3.044333 1_455
Eu8 S15 3.158722 1_455
Eu8 S15 3.158722 1_555
Eu8 S12 3.204694 1_555
Eu9 S4 3.023267 1_555
Eu9 S1 3.040203 1_545
Eu9 S1 3.040203 1_445
Eu9 S35 3.044333 1_555
Eu9 S35 3.044333 1_455
Eu9 S10 3.158722 1_555
Eu9 S10 3.158722 1_455
Eu9 S28 3.204694 1_545
Eu10 S13 3.023267 1_555
Eu10 S11 3.040203 1_565
Eu10 S11 3.040203 1_665
Eu10 S22 3.044333 1_555
Eu10 S22 3.044333 1_655
Eu10 S8 3.158722 1_555
Eu10 S8 3.158722 1_655
Eu10 S24 3.204694 1_565
Eu11 S34 3.040893 1_555
Eu11 S17 3.051351 1_555
Eu11 S17 3.051351 1_655
Eu11 S22 3.051561 1_555
Eu11 S22 3.051561 1_655
Eu11 S27 3.061045 1_565
Eu11 S29 3.089305 1_555
Eu11 S29 3.089305 1_655
S0 Sb0 2.634494 1_645
S0 Sb0 2.634494 1_545
S0 Sb6 3.017563 1_555
S0 Sb6 3.017563 1_655
S1 Sb15 2.480639 1_565
S2 Sb3 2.587488 1_456
S2 Sb3 2.587488 1_556
S3 Sb6 2.474672 1_555
S4 Sb5 2.702391 1_455
S4 Sb5 2.702391 1_555
S4 Sb15 2.934997 1_455
S4 Sb15 2.934997 1_555
S5 Sb10 2.919372 1_555
S5 Sb10 2.919372 1_655
S5 Sb7 2.991344 1_655
S5 Sb7 2.991344 1_555
S6 Sb13 2.702391 1_455
S6 Sb13 2.702391 1_555
S6 Sb1 2.934997 1_455
S6 Sb1 2.934997 1_555
S7 Sb1 2.634494 1_455
S7 Sb1 2.634494 1_555
S7 Sb14 3.017563 1_455
S7 Sb14 3.017563 1_555
S8 Sb10 2.465208 1_555
S9 Sb14 2.587488 1_455
S9 Sb14 2.587488 1_555
S10 Sb5 2.465208 1_555
S11 Sb0 2.480639 1_545
S12 Sb5 2.919372 1_455
S12 Sb5 2.919372 1_555
S12 Sb4 2.991344 1_455
S12 Sb4 2.991344 1_555
S13 Sb10 2.702391 1_555
S13 Sb10 2.702391 1_655
S13 Sb0 2.934997 1_555
S13 Sb0 2.934997 1_655
S14 Sb4 2.474102 1_555
S15 Sb13 2.465208 1_555
S16 Sb6 2.587488 1_654
S16 Sb6 2.587488 1_554
S17 Sb11 2.474672 1_555
S18 Sb15 2.634494 1_565
S18 Sb15 2.634494 1_465
S18 Sb3 3.017563 1_455
S18 Sb3 3.017563 1_555
S19 Sb14 2.474672 1_555
S20 Sb9 2.634494 1_655
S20 Sb9 2.634494 1_555
S20 Sb11 3.017563 1_655
S20 Sb11 3.017563 1_555
S21 Sb12 2.702391 1_555
S21 Sb12 2.702391 1_655
S21 Sb9 2.934997 1_555
S21 Sb9 2.934997 1_655
S22 Sb2 2.474102 1_565
S23 Sb3 2.474672 1_555
S24 Sb12 2.919372 1_555
S24 Sb12 2.919372 1_655
S24 Sb2 2.991344 1_655
S24 Sb2 2.991344 1_555
S25 Sb7 2.683379 1_555
S25 Sb7 2.683379 1_655
S26 Sb9 2.480639 1_555
S27 Sb2 2.683379 1_655
S27 Sb2 2.683379 1_555
S28 Sb13 2.919372 1_555
S28 Sb13 2.919372 1_455
S28 Sb8 2.991344 1_455
S28 Sb8 2.991344 1_555
S29 Sb8 2.683379 1_455
S29 Sb8 2.683379 1_555
S30 Sb4 2.683379 1_455
S30 Sb4 2.683379 1_555
S31 Sb12 2.465208 1_555
S32 Sb7 2.474102 1_555
S33 Sb1 2.480639 1_555
S34 Sb11 2.587488 1_655
S34 Sb11 2.587488 1_555
S35 Sb8 2.474102 1_545
