# generated using pymatgen
data_K2Pb(SO4)2
_symmetry_space_group_name_H-M   'P 1'
_cell_length_a   8.12842372
_cell_length_b   8.12842372
_cell_length_c   8.12842421
_cell_angle_alpha   50.08737643
_cell_angle_beta   50.08737643
_cell_angle_gamma   50.08738336
_symmetry_Int_Tables_number   1
_chemical_formula_structural   K2Pb(SO4)2
_chemical_formula_sum   'K2 Pb1 S2 O8'
_cell_volume   290.83053227
_cell_formula_units_Z   1
loop_
 _symmetry_equiv_pos_site_id
 _symmetry_equiv_pos_as_xyz
  1  'x, y, z'
loop_
 _atom_site_type_symbol
 _atom_site_label
 _atom_site_symmetry_multiplicity
 _atom_site_fract_x
 _atom_site_fract_y
 _atom_site_fract_z
 _atom_site_occupancy
  K  K0  1  0.81027600  0.81027600  0.81027600  1
  K  K1  1  0.18972400  0.18972400  0.18972400  1
  Pb  Pb0  1  0.50000000  0.50000000  0.50000000  1
  S  S0  1  0.62689100  0.62689100  0.62689100  1
  S  S1  1  0.37310900  0.37310900  0.37310900  1
  O  O0  1  0.71663000  0.71663000  0.36275800  1
  O  O1  1  0.63724200  0.28337000  0.28337000  1
  O  O2  1  0.36275800  0.71663000  0.71663000  1
  O  O3  1  0.28337000  0.63724200  0.28337000  1
  O  O4  1  0.28337000  0.28337000  0.63724200  1
  O  O5  1  0.30498600  0.30498600  0.30498600  1
  O  O6  1  0.71663000  0.36275800  0.71663000  1
  O  O7  1  0.69501400  0.69501400  0.69501400  1
loop_
_geom_bond_atom_site_label_1
_geom_bond_atom_site_label_2
_geom_bond_distance
_geom_bond_site_symmetry_2
K0 O7 2.452046 1_555
K1 O5 2.452046 1_555
O0 S0 1.528775 1_555
O0 Pb0 2.526486 1_555
O1 S1 1.528775 1_555
O1 Pb0 2.526486 1_555
O2 S0 1.528775 1_555
O2 Pb0 2.526486 1_555
O3 S1 1.528775 1_555
O3 Pb0 2.526486 1_555
O4 S1 1.528775 1_555
O4 Pb0 2.526486 1_555
O5 S1 1.449226 1_555
O6 S0 1.528775 1_555
O6 Pb0 2.526486 1_555
O7 S0 1.449226 1_555
