# generated using pymatgen
data_Fe5SnO8
_symmetry_space_group_name_H-M   'P 1'
_cell_length_a   6.22444855
_cell_length_b   6.22444855
_cell_length_c   6.22444849
_cell_angle_alpha   58.82611268
_cell_angle_beta   58.82611268
_cell_angle_gamma   58.82611665
_symmetry_Int_Tables_number   1
_chemical_formula_structural   Fe5SnO8
_chemical_formula_sum   'Fe5 Sn1 O8'
_cell_volume   165.95410545
_cell_formula_units_Z   1
loop_
 _symmetry_equiv_pos_site_id
 _symmetry_equiv_pos_as_xyz
  1  'x, y, z'
loop_
 _atom_site_type_symbol
 _atom_site_label
 _atom_site_symmetry_multiplicity
 _atom_site_fract_x
 _atom_site_fract_y
 _atom_site_fract_z
 _atom_site_occupancy
  Fe  Fe0  1  0.87055700  0.87055700  0.87055700  1
  Fe  Fe1  1  0.12944300  0.12944300  0.12944300  1
  Fe  Fe2  1  0.00000000  0.50000000  0.50000000  1
  Fe  Fe3  1  0.50000000  0.00000000  0.50000000  1
  Fe  Fe4  1  0.50000000  0.50000000  0.00000000  1
  Sn  Sn0  1  0.50000000  0.50000000  0.50000000  1
  O  O0  1  0.25870300  0.25870300  0.73908000  1
  O  O1  1  0.25870300  0.73908000  0.25870300  1
  O  O2  1  0.73908000  0.25870300  0.25870300  1
  O  O3  1  0.25342800  0.25342800  0.25342800  1
  O  O4  1  0.74657200  0.74657200  0.74657200  1
  O  O5  1  0.26092000  0.74129700  0.74129700  1
  O  O6  1  0.74129700  0.26092000  0.74129700  1
  O  O7  1  0.74129700  0.74129700  0.26092000  1
loop_
_geom_bond_atom_site_label_1
_geom_bond_atom_site_label_2
_geom_bond_distance
_geom_bond_site_symmetry_2
Fe0 O4 1.906962 1_555
Fe0 O7 1.954721 1_556
Fe0 O5 1.954722 1_655
Fe0 O6 1.954722 1_565
Fe1 O3 1.906962 1_555
Fe1 O0 1.954721 1_554
Fe1 O2 1.954722 1_455
Fe1 O1 1.954722 1_545
Fe2 O3 2.150623 1_555
Fe2 O4 2.150623 1_455
Fe2 O1 2.174042 1_555
Fe2 O6 2.174042 1_455
Fe2 O0 2.174042 1_555
Fe2 O7 2.174042 1_455
Fe3 O4 2.150623 1_545
Fe3 O3 2.150623 1_555
Fe3 O2 2.174042 1_555
Fe3 O5 2.174042 1_545
Fe3 O0 2.174042 1_555
Fe3 O7 2.174042 1_545
Fe4 O4 2.150623 1_554
Fe4 O3 2.150623 1_555
Fe4 O1 2.174042 1_555
Fe4 O2 2.174042 1_555
Fe4 O5 2.174042 1_554
Fe4 O6 2.174042 1_554
O0 Sn0 2.105643 1_555
O1 Sn0 2.105643 1_555
O2 Sn0 2.105643 1_555
O5 Sn0 2.105643 1_555
O6 Sn0 2.105643 1_555
O7 Sn0 2.105643 1_555
