# generated using pymatgen
data_Sr4GaCN5
_symmetry_space_group_name_H-M   'P 1'
_cell_length_a   7.47601000
_cell_length_b   7.50334800
_cell_length_c   13.59038560
_cell_angle_alpha   81.88456762
_cell_angle_beta   90.00000000
_cell_angle_gamma   90.00000000
_symmetry_Int_Tables_number   1
_chemical_formula_structural   Sr4GaCN5
_chemical_formula_sum   'Sr16 Ga4 C4 N20'
_cell_volume   754.71963768
_cell_formula_units_Z   4
loop_
 _symmetry_equiv_pos_site_id
 _symmetry_equiv_pos_as_xyz
  1  'x, y, z'
loop_
 _atom_site_type_symbol
 _atom_site_label
 _atom_site_symmetry_multiplicity
 _atom_site_fract_x
 _atom_site_fract_y
 _atom_site_fract_z
 _atom_site_occupancy
  Sr  Sr0  1  0.75208300  0.99350300  0.98722000  1
  Sr  Sr1  1  0.84484200  0.16709800  0.66819300  1
  Sr  Sr2  1  0.02063800  0.78475100  0.81919600  1
  Sr  Sr3  1  0.32140700  0.01507500  0.64660600  1
  Sr  Sr4  1  0.17859300  0.51507500  0.64660600  1
  Sr  Sr5  1  0.74791700  0.49350300  0.98722000  1
  Sr  Sr6  1  0.15515800  0.83290200  0.33180700  1
  Sr  Sr7  1  0.24791700  0.00649700  0.01278000  1
  Sr  Sr8  1  0.82140700  0.48492500  0.35339400  1
  Sr  Sr9  1  0.65515800  0.66709800  0.66819300  1
  Sr  Sr10  1  0.47936200  0.28475100  0.81919600  1
  Sr  Sr11  1  0.52063800  0.71524900  0.18080400  1
  Sr  Sr12  1  0.97936200  0.21524900  0.18080400  1
  Sr  Sr13  1  0.34484200  0.33290200  0.33180700  1
  Sr  Sr14  1  0.67859300  0.98492500  0.35339400  1
  Sr  Sr15  1  0.25208300  0.50649700  0.01278000  1
  Ga  Ga0  1  0.51363800  0.20918800  0.14539100  1
  Ga  Ga1  1  0.01363800  0.29081200  0.85460900  1
  Ga  Ga2  1  0.48636200  0.79081200  0.85460900  1
  Ga  Ga3  1  0.98636200  0.70918800  0.14539100  1
  C  C0  1  0.55224000  0.29482900  0.54595700  1
  C  C1  1  0.44776000  0.70517100  0.45404300  1
  C  C2  1  0.94776000  0.79482900  0.54595700  1
  C  C3  1  0.05224000  0.20517100  0.45404300  1
  N  N0  1  0.65539200  0.35907900  0.21831000  1
  N  N1  1  0.50344400  0.35791200  0.62142300  1
  N  N2  1  0.10585300  0.28015500  0.52368400  1
  N  N3  1  0.89414700  0.71984500  0.47631600  1
  N  N4  1  0.49655600  0.64208800  0.37857700  1
  N  N5  1  0.99612700  0.74342900  0.00365600  1
  N  N6  1  0.50387200  0.24342900  0.00365600  1
  N  N7  1  0.00387300  0.25657100  0.99634400  1
  N  N8  1  0.60585300  0.21984500  0.47631600  1
  N  N9  1  0.64265100  0.95761500  0.77483600  1
  N  N10  1  0.34460800  0.64092100  0.78169000  1
  N  N11  1  0.84460800  0.85907900  0.21831000  1
  N  N12  1  0.99655600  0.85791200  0.62142300  1
  N  N13  1  0.14265100  0.54238500  0.22516400  1
  N  N14  1  0.15539200  0.14092100  0.78169000  1
  N  N15  1  0.35734900  0.04238500  0.22516400  1
  N  N16  1  0.49612700  0.75657100  0.99634400  1
  N  N17  1  0.39414700  0.78015500  0.52368400  1
  N  N18  1  0.00344400  0.14208800  0.37857700  1
  N  N19  1  0.85734900  0.45761500  0.77483600  1
loop_
_geom_bond_atom_site_label_1
_geom_bond_atom_site_label_2
_geom_bond_distance
_geom_bond_site_symmetry_2
Ga0 N6 1.908399 1_555
Ga0 N0 1.919570 1_555
Ga0 N15 1.929748 1_555
Ga1 N7 1.908399 1_555
Ga1 N14 1.919570 1_555
Ga1 N19 1.929748 1_455
Ga2 N16 1.908399 1_555
Ga2 N10 1.919570 1_555
Ga2 N9 1.929748 1_555
Ga3 N5 1.908399 1_555
Ga3 N11 1.919570 1_555
Ga3 N13 1.929748 1_655
C0 N8 1.234225 1_555
C0 N1 1.243409 1_555
C0 Sr3 2.905966 1_555
C1 N17 1.234225 1_555
C1 N4 1.243409 1_555
C1 Sr14 2.905966 1_555
C2 N3 1.234225 1_555
C2 N12 1.243409 1_555
C2 Sr4 2.905966 1_655
C3 N2 1.234225 1_555
C3 N18 1.243409 1_555
C3 Sr8 2.905966 1_455
N0 Sr8 2.508346 1_555
N0 Sr12 2.728720 1_555
N0 Sr13 2.778925 1_555
N0 Sr11 2.834113 1_555
N0 Sr14 3.134772 1_545
N0 Sr5 3.234940 1_554
N1 Sr10 2.672361 1_555
N1 Sr9 2.736580 1_555
N1 Sr4 2.742217 1_555
N1 Sr3 2.887562 1_555
N2 Sr4 2.650459 1_555
N2 Sr1 2.813171 1_455
N2 Sr3 2.899240 1_555
N3 Sr8 2.650459 1_555
N3 Sr6 2.813171 1_655
N3 Sr14 2.899240 1_555
N4 Sr11 2.672361 1_555
N4 Sr13 2.736580 1_555
N4 Sr8 2.742217 1_555
N4 Sr14 2.887562 1_555
N5 Sr2 2.488920 1_654
N5 Sr15 2.602930 1_655
N5 Sr0 2.604058 1_554
N5 Sr5 2.669863 1_554
N5 Sr7 2.743009 1_665
N6 Sr10 2.488919 1_554
N6 Sr7 2.602925 1_555
N6 Sr5 2.604063 1_554
N6 Sr0 2.669868 1_544
N6 Sr15 2.743004 1_555
N7 Sr12 2.488920 1_456
N7 Sr5 2.602930 1_455
N7 Sr7 2.604058 1_556
N7 Sr15 2.669863 1_556
N7 Sr0 2.743009 1_445
N8 Sr14 2.650459 1_545
N8 Sr13 2.813171 1_555
N8 Sr8 2.899240 1_555
N9 Sr1 2.492560 1_565
N9 Sr9 2.784421 1_555
N9 Sr10 2.880386 1_565
N9 Sr3 2.962859 1_565
N9 Sr0 3.048354 1_555
N9 Sr2 3.132153 1_655
N10 Sr4 2.508346 1_555
N10 Sr2 2.728720 1_555
N10 Sr9 2.778925 1_555
N10 Sr10 2.834113 1_555
N10 Sr3 3.134772 1_565
N10 Sr15 3.234940 1_556
N11 Sr14 2.508346 1_555
N11 Sr11 2.728720 1_555
N11 Sr6 2.778925 1_655
N11 Sr12 2.834113 1_565
N11 Sr8 3.134772 1_555
N11 Sr0 3.234940 1_554
N12 Sr2 2.672361 1_655
N12 Sr1 2.736580 1_565
N12 Sr3 2.742217 1_665
N12 Sr4 2.887562 1_655
N13 Sr13 2.492560 1_555
N13 Sr6 2.784421 1_555
N13 Sr12 2.880386 1_455
N13 Sr8 2.962859 1_455
N13 Sr15 3.048354 1_555
N13 Sr11 3.132153 1_555
N14 Sr3 2.508346 1_555
N14 Sr10 2.728720 1_555
N14 Sr1 2.778925 1_455
N14 Sr2 2.834113 1_545
N14 Sr4 3.134772 1_555
N14 Sr7 3.234940 1_556
N15 Sr6 2.492560 1_545
N15 Sr13 2.784421 1_555
N15 Sr11 2.880386 1_545
N15 Sr14 2.962859 1_545
N15 Sr7 3.048354 1_555
N15 Sr12 3.132153 1_455
N16 Sr11 2.488920 1_556
N16 Sr0 2.602930 1_555
N16 Sr15 2.604058 1_556
N16 Sr7 2.669863 1_566
N16 Sr5 2.743009 1_555
N17 Sr3 2.650459 1_565
N17 Sr9 2.813171 1_555
N17 Sr4 2.899240 1_555
N18 Sr12 2.672361 1_455
N18 Sr6 2.736580 1_545
N18 Sr14 2.742217 1_445
N18 Sr8 2.887562 1_455
N19 Sr9 2.492560 1_555
N19 Sr1 2.784421 1_555
N19 Sr2 2.880386 1_655
N19 Sr4 2.962859 1_655
N19 Sr5 3.048354 1_555
N19 Sr10 3.132153 1_555
