# generated using pymatgen
data_Ge9(Sb5Te12)2
_symmetry_space_group_name_H-M   'P 1'
_cell_length_a   6.14296400
_cell_length_b   6.19640250
_cell_length_c   37.14435856
_cell_angle_alpha   91.06143054
_cell_angle_beta   90.53423205
_cell_angle_gamma   90.35435123
_symmetry_Int_Tables_number   1
_chemical_formula_structural   Ge9(Sb5Te12)2
_chemical_formula_sum   'Ge9 Sb10 Te24'
_cell_volume   1413.54053690
_cell_formula_units_Z   1
loop_
 _symmetry_equiv_pos_site_id
 _symmetry_equiv_pos_as_xyz
  1  'x, y, z'
loop_
 _atom_site_type_symbol
 _atom_site_label
 _atom_site_symmetry_multiplicity
 _atom_site_fract_x
 _atom_site_fract_y
 _atom_site_fract_z
 _atom_site_occupancy
  Ge  Ge0  1  0.53827500  0.45749600  0.91294000  1
  Ge  Ge1  1  0.56508300  0.45920900  0.74450800  1
  Ge  Ge2  1  0.52867200  0.47055600  0.58415900  1
  Ge  Ge3  1  0.52714900  0.47248300  0.08516900  1
  Ge  Ge4  1  0.00810600  0.52392200  0.82559200  1
  Ge  Ge5  1  0.02175700  0.95982500  0.41920900  1
  Ge  Ge6  1  0.00359100  0.98073900  0.59253200  1
  Ge  Ge7  1  0.02097400  0.95951900  0.25149500  1
  Ge  Ge8  1  0.00932300  0.96772800  0.08057400  1
  Sb  Sb0  1  0.99644500  0.48956300  0.50589100  1
  Sb  Sb1  1  0.97334300  0.48878800  0.34198000  1
  Sb  Sb2  1  0.98876200  0.49018200  0.17476300  1
  Sb  Sb3  1  0.99488600  0.48923100  0.99131300  1
  Sb  Sb4  1  0.47561000  0.97283300  0.83906900  1
  Sb  Sb5  1  0.49514600  0.97843500  0.50331000  1
  Sb  Sb6  1  0.48272200  0.95152300  0.67403700  1
  Sb  Sb7  1  0.49035100  0.96483600  0.34194700  1
  Sb  Sb8  1  0.49326500  0.98352000  0.17657400  1
  Sb  Sb9  1  0.50114600  0.98547300  0.00000900  1
  Te  Te0  1  0.99353600  0.99247600  0.00261000  1
  Te  Te1  1  0.01256500  0.99287000  0.83129300  1
  Te  Te2  1  0.00271600  0.00804300  0.66377700  1
  Te  Te3  1  0.99483400  0.99665300  0.33258400  1
  Te  Te4  1  0.49502700  0.49285200  0.99899500  1
  Te  Te5  1  0.50680000  0.49604800  0.83280600  1
  Te  Te6  1  0.49458500  0.49038800  0.49859000  1
  Te  Te7  1  0.50644500  0.49154300  0.66496200  1
  Te  Te8  1  0.49244200  0.49831000  0.32807300  1
  Te  Te9  1  0.49289900  0.49186900  0.16339800  1
  Te  Te10  1  0.00642800  0.50238500  0.75356400  1
  Te  Te11  1  0.99260100  0.50089100  0.91637500  1
  Te  Te12  1  0.99941900  0.50026900  0.58320800  1
  Te  Te13  1  0.00062500  0.51083800  0.41750100  1
  Te  Te14  1  0.00602700  0.51256800  0.25076300  1
  Te  Te15  1  0.99040300  0.50885400  0.08414600  1
  Te  Te16  1  0.48367800  0.00656300  0.91768900  1
  Te  Te17  1  0.48422400  0.01086500  0.74942100  1
  Te  Te18  1  0.50454600  0.00671900  0.58214100  1
  Te  Te19  1  0.48846100  0.01274400  0.41775500  1
  Te  Te20  1  0.49038600  0.01083500  0.25138200  1
  Te  Te21  1  0.49474600  0.00367100  0.08201000  1
  Te  Te22  1  0.99760200  0.98896900  0.49788100  1
  Te  Te23  1  0.99240000  0.99592000  0.16767000  1
loop_
_geom_bond_atom_site_label_1
_geom_bond_atom_site_label_2
_geom_bond_distance
_geom_bond_site_symmetry_2
Ge0 Te11 2.803669 1_555
Ge0 Te16 2.821120 1_555
Ge0 Te5 2.995052 1_555
Ge0 Te4 3.213492 1_555
Ge1 Te10 2.739678 1_655
Ge1 Te17 2.828671 1_555
Ge1 Te7 2.983796 1_555
Ge1 Te5 3.306414 1_555
Ge2 Te18 2.876577 1_555
Ge2 Te12 2.897086 1_555
Ge2 Te7 3.006195 1_555
Ge2 Te6 3.188038 1_555
Ge2 Te12 3.257428 1_455
Ge2 Te18 3.328701 1_565
Ge3 Te15 2.853935 1_555
Ge3 Te21 2.910652 1_555
Ge3 Te9 2.915640 1_555
Ge3 Te4 3.209982 1_554
Ge3 Te21 3.302884 1_565
Ge3 Te15 3.306208 1_455
Ge4 Te10 2.676211 1_555
Ge4 Te1 2.909523 1_555
Ge4 Te5 3.078858 1_555
Ge4 Te5 3.097662 1_455
Ge4 Te1 3.301597 1_545
Ge5 Te13 2.783850 1_555
Ge5 Te19 2.884742 1_565
Ge5 Te22 2.929654 1_455
Ge5 Te3 3.232695 1_455
Ge5 Te19 3.294447 1_465
Ge6 Te2 2.648681 1_565
Ge6 Te12 2.990807 1_455
Ge6 Te18 3.091800 1_465
Ge6 Te18 3.108582 1_565
Ge6 Te12 3.244399 1_465
Ge7 Te14 2.770064 1_555
Ge7 Te20 2.899155 1_565
Ge7 Te3 3.022361 1_455
Ge7 Te23 3.129324 1_455
Ge7 Te20 3.276784 1_465
Ge8 Te15 2.850619 1_455
Ge8 Te0 2.903565 1_455
Ge8 Te21 2.988774 1_565
Ge8 Te21 3.171113 1_465
Ge8 Te23 3.239277 1_455
Ge8 Te15 3.355976 1_465
Sb0 Te12 2.871313 1_555
Sb0 Te6 3.074548 1_655
Sb0 Te6 3.092337 1_555
Sb0 Te22 3.110685 1_545
Sb0 Te22 3.114243 1_555
Sb0 Te13 3.288608 1_655
Sb1 Te13 2.809366 1_655
Sb1 Te8 2.995363 1_555
Sb1 Te3 3.066739 1_545
Sb1 Te3 3.174721 1_555
Sb1 Te8 3.235480 1_655
Sb1 Te14 3.401870 1_655
Sb2 Te14 2.824780 1_655
Sb2 Te23 3.069328 1_545
Sb2 Te9 3.071389 1_555
Sb2 Te9 3.129412 1_655
Sb2 Te23 3.149631 1_555
Sb2 Te15 3.370146 1_555
Sb3 Te11 2.785706 1_555
Sb3 Te4 3.082825 1_655
Sb3 Te4 3.086675 1_555
Sb3 Te0 3.114228 1_546
Sb3 Te0 3.138774 1_556
Sb3 Te15 3.448486 1_556
Sb4 Te1 2.860108 1_555
Sb4 Te16 2.923831 1_565
Sb4 Te5 2.966714 1_555
Sb4 Te5 3.259266 1_565
Sb4 Te1 3.315560 1_655
Sb4 Te17 3.343485 1_565
Sb5 Te18 2.930134 1_565
Sb5 Te6 3.025948 1_555
Sb5 Te22 3.062342 1_455
Sb5 Te22 3.095390 1_555
Sb5 Te6 3.180370 1_565
Sb5 Te19 3.188815 1_565
Sb6 Te17 2.817291 1_565
Sb6 Te7 2.868638 1_555
Sb6 Te2 2.993200 1_565
Sb6 Te2 3.238098 1_665
Sb6 Te7 3.371716 1_565
Sb6 Te18 3.440580 1_565
Sb7 Te19 2.826109 1_565
Sb7 Te8 2.927073 1_555
Sb7 Te3 3.068490 1_455
Sb7 Te3 3.127113 1_555
Sb7 Te8 3.354933 1_565
Sb7 Te20 3.381291 1_565
Sb8 Te20 2.780942 1_565
Sb8 Te9 3.076549 1_555
Sb8 Te23 3.087655 1_555
Sb8 Te23 3.093032 1_455
Sb8 Te9 3.196686 1_565
Sb8 Te21 3.517143 1_565
Sb9 Te0 3.025393 1_555
Sb9 Te21 3.046502 1_565
Sb9 Te4 3.052007 1_554
Sb9 Te16 3.063842 1_564
Sb9 Te0 3.121171 1_455
Sb9 Te4 3.145301 1_564
