# generated using pymatgen
data_Sr3LiRuO6
_symmetry_space_group_name_H-M   'P 1'
_cell_length_a   6.75347932
_cell_length_b   6.75347932
_cell_length_c   6.75347927
_cell_angle_alpha   92.27915680
_cell_angle_beta   92.27915680
_cell_angle_gamma   92.27916466
_symmetry_Int_Tables_number   1
_chemical_formula_structural   Sr3LiRuO6
_chemical_formula_sum   'Sr6 Li2 Ru2 O12'
_cell_volume   307.27169272
_cell_formula_units_Z   2
loop_
 _symmetry_equiv_pos_site_id
 _symmetry_equiv_pos_as_xyz
  1  'x, y, z'
loop_
 _atom_site_type_symbol
 _atom_site_label
 _atom_site_symmetry_multiplicity
 _atom_site_fract_x
 _atom_site_fract_y
 _atom_site_fract_z
 _atom_site_occupancy
  Sr  Sr0  1  0.89169500  0.60830500  0.25000000  1
  Sr  Sr1  1  0.60830500  0.25000000  0.89169500  1
  Sr  Sr2  1  0.75000000  0.10830500  0.39169500  1
  Sr  Sr3  1  0.39169500  0.75000000  0.10830500  1
  Sr  Sr4  1  0.10830500  0.39169500  0.75000000  1
  Sr  Sr5  1  0.25000000  0.89169500  0.60830500  1
  Li  Li0  1  0.25000000  0.25000000  0.25000000  1
  Li  Li1  1  0.75000000  0.75000000  0.75000000  1
  Ru  Ru0  1  0.00000000  0.00000000  0.00000000  1
  Ru  Ru1  1  0.50000000  0.50000000  0.50000000  1
  O  O0  1  0.78031600  0.45252900  0.58263100  1
  O  O1  1  0.91736900  0.04747100  0.71968400  1
  O  O2  1  0.71968400  0.91736900  0.04747100  1
  O  O3  1  0.04747100  0.71968400  0.91736900  1
  O  O4  1  0.58263100  0.78031600  0.45252900  1
  O  O5  1  0.45252900  0.58263100  0.78031600  1
  O  O6  1  0.41736900  0.21968400  0.54747100  1
  O  O7  1  0.54747100  0.41736900  0.21968400  1
  O  O8  1  0.95252900  0.28031600  0.08263100  1
  O  O9  1  0.28031600  0.08263100  0.95252900  1
  O  O10  1  0.08263100  0.95252900  0.28031600  1
  O  O11  1  0.21968400  0.54747100  0.41736900  1
loop_
_geom_bond_atom_site_label_1
_geom_bond_atom_site_label_2
_geom_bond_distance
_geom_bond_site_symmetry_2
Li0 O7 2.286044 1_555
Li0 O10 2.286044 1_545
Li0 O9 2.286044 1_554
Li0 O6 2.286044 1_555
Li0 O8 2.286044 1_455
Li0 O11 2.286044 1_555
Li1 O1 2.286044 1_565
Li1 O5 2.286044 1_555
Li1 O4 2.286044 1_555
Li1 O2 2.286044 1_556
Li1 O0 2.286044 1_555
Li1 O3 2.286044 1_655
O0 Ru1 1.994124 1_555
O0 Sr4 2.502623 1_655
O0 Sr2 2.609919 1_555
O0 Sr0 2.641662 1_555
O0 Sr1 2.805438 1_555
O1 Ru0 1.994124 1_656
O1 Sr2 2.502623 1_555
O1 Sr4 2.609919 1_655
O1 Sr5 2.641662 1_645
O1 Sr1 2.805438 1_555
O2 Ru0 1.994124 1_665
O2 Sr3 2.502623 1_555
O2 Sr2 2.609919 1_565
O2 Sr1 2.641662 1_564
O2 Sr0 2.805438 1_555
O3 Ru0 1.994124 1_566
O3 Sr4 2.502623 1_555
O3 Sr3 2.609919 1_556
O3 Sr0 2.641662 1_456
O3 Sr5 2.805438 1_555
O4 Ru1 1.994124 1_555
O4 Sr2 2.502623 1_565
O4 Sr3 2.609919 1_555
O4 Sr5 2.641662 1_555
O4 Sr0 2.805438 1_555
O5 Ru1 1.994124 1_555
O5 Sr3 2.502623 1_556
O5 Sr4 2.609919 1_555
O5 Sr1 2.641662 1_555
O5 Sr5 2.805438 1_555
O6 Ru1 1.994124 1_555
O6 Sr5 2.502623 1_545
O6 Sr1 2.609919 1_555
O6 Sr2 2.641662 1_555
O6 Sr4 2.805438 1_555
O7 Ru1 1.994124 1_555
O7 Sr1 2.502623 1_554
O7 Sr0 2.609919 1_555
O7 Sr3 2.641662 1_555
O7 Sr2 2.805438 1_555
O8 Ru0 1.994124 1_655
O8 Sr0 2.502623 1_555
O8 Sr1 2.609919 1_554
O8 Sr4 2.641662 1_654
O8 Sr2 2.805438 1_555
O9 Ru0 1.994124 1_556
O9 Sr1 2.502623 1_555
O9 Sr5 2.609919 1_545
O9 Sr3 2.641662 1_546
O9 Sr4 2.805438 1_555
O10 Ru0 1.994124 1_565
O10 Sr5 2.502623 1_555
O10 Sr0 2.609919 1_455
O10 Sr2 2.641662 1_465
O10 Sr3 2.805438 1_555
O11 Ru1 1.994124 1_555
O11 Sr0 2.502623 1_455
O11 Sr5 2.609919 1_555
O11 Sr4 2.641662 1_555
O11 Sr3 2.805438 1_555
