# generated using pymatgen
data_SrAl12O19
_symmetry_space_group_name_H-M   'P 1'
_cell_length_a   5.62655649
_cell_length_b   5.62655649
_cell_length_c   22.15984000
_cell_angle_alpha   90.00000000
_cell_angle_beta   90.00000000
_cell_angle_gamma   120.00000579
_symmetry_Int_Tables_number   1
_chemical_formula_structural   SrAl12O19
_chemical_formula_sum   'Sr2 Al24 O38'
_cell_volume   607.55079576
_cell_formula_units_Z   2
loop_
 _symmetry_equiv_pos_site_id
 _symmetry_equiv_pos_as_xyz
  1  'x, y, z'
loop_
 _atom_site_type_symbol
 _atom_site_label
 _atom_site_symmetry_multiplicity
 _atom_site_fract_x
 _atom_site_fract_y
 _atom_site_fract_z
 _atom_site_occupancy
  Sr  Sr0  1  0.33333300  0.66666700  0.75000000  1
  Sr  Sr1  1  0.66666700  0.33333300  0.25000000  1
  Al  Al0  1  0.33333300  0.66666700  0.30956800  1
  Al  Al1  1  0.66666700  0.33333300  0.80956800  1
  Al  Al2  1  0.66666700  0.33333300  0.69043200  1
  Al  Al3  1  0.33333300  0.66666700  0.19043200  1
  Al  Al4  1  0.16825600  0.83174400  0.60878600  1
  Al  Al5  1  0.16825600  0.33651100  0.60878600  1
  Al  Al6  1  0.66348900  0.83174400  0.60878600  1
  Al  Al7  1  0.33651100  0.16825600  0.10878600  1
  Al  Al8  1  0.83174400  0.66348900  0.39121400  1
  Al  Al9  1  0.83174400  0.16825600  0.10878600  1
  Al  Al10  1  0.83174400  0.66348900  0.10878600  1
  Al  Al11  1  0.16825600  0.83174400  0.89121400  1
  Al  Al12  1  0.66348900  0.83174400  0.89121400  1
  Al  Al13  1  0.33651100  0.16825600  0.39121400  1
  Al  Al14  1  0.83174400  0.16825600  0.39121400  1
  Al  Al15  1  0.16825600  0.33651100  0.89121400  1
  Al  Al16  1  0.33333300  0.66666700  0.47179200  1
  Al  Al17  1  0.66666700  0.33333300  0.97179200  1
  Al  Al18  1  0.66666700  0.33333300  0.52820800  1
  Al  Al19  1  0.33333300  0.66666700  0.02820800  1
  Al  Al20  1  0.00000000  0.00000000  0.75000000  1
  Al  Al21  1  0.00000000  0.00000000  0.25000000  1
  Al  Al22  1  0.00000000  0.00000000  0.50000000  1
  Al  Al23  1  0.00000000  0.00000000  0.00000000  1
  O  O0  1  0.50246600  0.49753400  0.35175600  1
  O  O1  1  0.50246600  0.00493100  0.35175600  1
  O  O2  1  0.99506900  0.49753400  0.35175600  1
  O  O3  1  0.00493100  0.50246600  0.85175600  1
  O  O4  1  0.49753400  0.99506900  0.64824400  1
  O  O5  1  0.49753400  0.50246600  0.85175600  1
  O  O6  1  0.49753400  0.99506900  0.85175600  1
  O  O7  1  0.50246600  0.49753400  0.14824400  1
  O  O8  1  0.99506900  0.49753400  0.14824400  1
  O  O9  1  0.00493100  0.50246600  0.64824400  1
  O  O10  1  0.49753400  0.50246600  0.64824400  1
  O  O11  1  0.50246600  0.00493100  0.14824400  1
  O  O12  1  0.15493300  0.84506700  0.44808200  1
  O  O13  1  0.15493300  0.30986600  0.44808200  1
  O  O14  1  0.69013400  0.84506700  0.44808200  1
  O  O15  1  0.63680600  0.81840300  0.25000000  1
  O  O16  1  0.30986600  0.15493300  0.94808200  1
  O  O17  1  0.84506700  0.15493300  0.94808200  1
  O  O18  1  0.84506700  0.69013400  0.94808200  1
  O  O19  1  0.15493300  0.84506700  0.05191800  1
  O  O20  1  0.69013400  0.84506700  0.05191800  1
  O  O21  1  0.30986600  0.15493300  0.55191800  1
  O  O22  1  0.84506700  0.15493300  0.55191800  1
  O  O23  1  0.15493300  0.30986600  0.05191800  1
  O  O24  1  0.81840300  0.63680600  0.75000000  1
  O  O25  1  0.18159700  0.81840300  0.25000000  1
  O  O26  1  0.00000000  0.00000000  0.14928800  1
  O  O27  1  0.00000000  0.00000000  0.64928800  1
  O  O28  1  0.00000000  0.00000000  0.85071200  1
  O  O29  1  0.00000000  0.00000000  0.35071200  1
  O  O30  1  0.33333300  0.66666700  0.94566500  1
  O  O31  1  0.66666700  0.33333300  0.44566500  1
  O  O32  1  0.66666700  0.33333300  0.05433500  1
  O  O33  1  0.33333300  0.66666700  0.55433500  1
  O  O34  1  0.18159700  0.36319400  0.25000000  1
  O  O35  1  0.81840300  0.18159700  0.75000000  1
  O  O36  1  0.36319400  0.18159700  0.75000000  1
  O  O37  1  0.84506700  0.69013400  0.55191800  1
loop_
_geom_bond_atom_site_label_1
_geom_bond_atom_site_label_2
_geom_bond_distance
_geom_bond_site_symmetry_2
Al0 O1 1.894941 1_565
Al0 O2 1.894941 1_455
Al0 O0 1.894950 1_555
Al0 O25 1.982201 1_555
Al0 O15 1.982204 1_555
Al0 O34 1.982204 1_555
Al1 O6 1.894941 1_545
Al1 O3 1.894941 1_655
Al1 O5 1.894950 1_555
Al1 O35 1.982201 1_555
Al1 O24 1.982204 1_555
Al1 O36 1.982204 1_555
Al2 O4 1.894941 1_545
Al2 O9 1.894941 1_655
Al2 O10 1.894950 1_555
Al2 O35 1.982201 1_555
Al2 O24 1.982204 1_555
Al2 O36 1.982204 1_555
Al3 O11 1.894941 1_565
Al3 O8 1.894941 1_455
Al3 O7 1.894950 1_555
Al3 O25 1.982201 1_555
Al3 O34 1.982204 1_555
Al3 O15 1.982204 1_555
Al4 O4 1.827287 1_555
Al4 O9 1.827287 1_555
Al4 O27 1.869297 1_565
Al4 O33 2.010979 1_555
Al4 O21 2.020089 1_565
Al4 O37 2.020089 1_455
Al5 O10 1.827287 1_555
Al5 O9 1.827295 1_555
Al5 O27 1.869293 1_555
Al5 O33 2.010987 1_555
Al5 O21 2.020085 1_555
Al5 O22 2.020088 1_455
Al6 O10 1.827287 1_555
Al6 O4 1.827295 1_555
Al6 O27 1.869293 1_665
Al6 O33 2.010987 1_555
Al6 O37 2.020085 1_555
Al6 O22 2.020088 1_565
Al7 O7 1.827287 1_555
Al7 O11 1.827295 1_555
Al7 O26 1.869293 1_555
Al7 O32 2.010987 1_555
Al7 O23 2.020085 1_555
Al7 O19 2.020088 1_545
Al8 O0 1.827287 1_555
Al8 O2 1.827295 1_555
Al8 O29 1.869293 1_665
Al8 O31 2.010987 1_555
Al8 O14 2.020085 1_555
Al8 O12 2.020088 1_655
Al9 O8 1.827287 1_555
Al9 O11 1.827287 1_555
Al9 O26 1.869297 1_655
Al9 O32 2.010979 1_555
Al9 O23 2.020089 1_655
Al9 O20 2.020089 1_545
Al10 O7 1.827287 1_555
Al10 O8 1.827295 1_555
Al10 O26 1.869293 1_665
Al10 O32 2.010987 1_555
Al10 O20 2.020085 1_555
Al10 O19 2.020088 1_655
Al11 O6 1.827287 1_555
Al11 O3 1.827287 1_555
Al11 O28 1.869297 1_565
Al11 O30 2.010979 1_555
Al11 O16 2.020089 1_565
Al11 O18 2.020089 1_455
Al12 O5 1.827287 1_555
Al12 O6 1.827295 1_555
Al12 O28 1.869293 1_665
Al12 O30 2.010987 1_555
Al12 O18 2.020085 1_555
Al12 O17 2.020088 1_565
Al13 O0 1.827287 1_555
Al13 O1 1.827295 1_555
Al13 O29 1.869293 1_555
Al13 O31 2.010987 1_555
Al13 O13 2.020085 1_555
Al13 O12 2.020088 1_545
Al14 O2 1.827287 1_555
Al14 O1 1.827287 1_555
Al14 O29 1.869297 1_655
Al14 O31 2.010979 1_555
Al14 O13 2.020089 1_655
Al14 O14 2.020089 1_545
Al15 O5 1.827287 1_555
Al15 O3 1.827295 1_555
Al15 O28 1.869293 1_555
Al15 O30 2.010987 1_555
Al15 O16 2.020085 1_555
Al15 O17 2.020088 1_455
Al16 O12 1.816250 1_555
Al16 O13 1.816255 1_555
Al16 O14 1.816255 1_555
Al16 O33 1.829140 1_555
Al17 O17 1.816250 1_555
Al17 O18 1.816255 1_555
Al17 O16 1.816255 1_555
Al17 O32 1.829140 1_556
Al18 O22 1.816250 1_555
Al18 O21 1.816255 1_555
Al18 O37 1.816255 1_555
Al18 O31 1.829140 1_555
Al19 O19 1.816250 1_555
Al19 O23 1.816255 1_555
Al19 O20 1.816255 1_555
Al19 O30 1.829140 1_554
Al20 O24 1.769750 1_445
Al20 O36 1.769750 1_555
Al20 O35 1.769750 1_455
Al20 O28 2.231762 1_555
Al20 O27 2.231762 1_555
Al21 O34 1.769750 1_555
Al21 O15 1.769750 1_445
Al21 O25 1.769750 1_545
Al21 O26 2.231762 1_555
Al21 O29 2.231762 1_555
Al22 O21 1.898269 1_555
Al22 O14 1.898269 1_445
Al22 O37 1.898269 1_445
Al22 O13 1.898269 1_555
Al22 O12 1.898269 1_545
Al22 O22 1.898269 1_455
Al23 O23 1.898269 1_555
Al23 O20 1.898269 1_445
Al23 O18 1.898269 1_444
Al23 O16 1.898269 1_554
Al23 O19 1.898269 1_545
Al23 O17 1.898269 1_454
O0 Sr1 2.765006 1_555
O1 Sr1 2.765006 1_555
O2 Sr1 2.765006 1_555
O3 Sr0 2.765006 1_555
O4 Sr0 2.765006 1_555
O5 Sr0 2.765006 1_555
O6 Sr0 2.765006 1_555
O7 Sr1 2.765006 1_555
O8 Sr1 2.765006 1_555
O9 Sr0 2.765006 1_555
O10 Sr0 2.765006 1_555
O11 Sr1 2.765006 1_555
O15 Sr1 2.817036 1_565
O15 Sr1 2.817041 1_555
O24 Sr0 2.817036 1_655
O24 Sr0 2.817041 1_555
O25 Sr1 2.817038 1_455
O25 Sr1 2.817038 1_565
O34 Sr1 2.817036 1_455
O34 Sr1 2.817041 1_555
O35 Sr0 2.817038 1_545
O35 Sr0 2.817038 1_655
O36 Sr0 2.817036 1_545
O36 Sr0 2.817041 1_555
