# generated using pymatgen
data_Rb11Al14Si10(AgO16)3
_symmetry_space_group_name_H-M   'P 1'
_cell_length_a   12.44671000
_cell_length_b   12.47035044
_cell_length_c   12.71646823
_cell_angle_alpha   89.89503316
_cell_angle_beta   89.70711435
_cell_angle_gamma   89.87763757
_symmetry_Int_Tables_number   1
_chemical_formula_structural   Rb11Al14Si10(AgO16)3
_chemical_formula_sum   'Rb11 Al14 Si10 Ag3 O48'
_cell_volume   1973.75096254
_cell_formula_units_Z   1
loop_
 _symmetry_equiv_pos_site_id
 _symmetry_equiv_pos_as_xyz
  1  'x, y, z'
loop_
 _atom_site_type_symbol
 _atom_site_label
 _atom_site_symmetry_multiplicity
 _atom_site_fract_x
 _atom_site_fract_y
 _atom_site_fract_z
 _atom_site_occupancy
  Rb  Rb0  1  0.25725000  0.75315800  0.73789200  1
  Rb  Rb1  1  0.50330600  0.00151100  0.51008300  1
  Rb  Rb2  1  0.00395900  0.49337500  0.48845800  1
  Rb  Rb3  1  0.25708000  0.26558500  0.28913100  1
  Rb  Rb4  1  0.24874300  0.75199000  0.25885900  1
  Rb  Rb5  1  0.73174800  0.74225700  0.29157300  1
  Rb  Rb6  1  0.73016600  0.26820100  0.29208600  1
  Rb  Rb7  1  0.13489800  0.09188300  0.11411500  1
  Rb  Rb8  1  0.90734100  0.86523300  0.12251900  1
  Rb  Rb9  1  0.86310200  0.13362400  0.10246200  1
  Rb  Rb10  1  0.51952600  0.48677600  0.98038900  1
  Al  Al0  1  0.37059800  0.99985100  0.82167200  1
  Al  Al1  1  0.99664100  0.80407100  0.62903400  1
  Al  Al2  1  0.19006700  0.99830800  0.62491300  1
  Al  Al3  1  0.00290500  0.19855700  0.63156600  1
  Al  Al4  1  0.80881300  0.00065300  0.63203900  1
  Al  Al5  1  0.99606400  0.80701500  0.38183700  1
  Al  Al6  1  0.18717200  0.99843900  0.37521800  1
  Al  Al7  1  0.99980200  0.19071900  0.37919900  1
  Al  Al8  1  0.81074900  0.00310900  0.37837900  1
  Al  Al9  1  0.99851200  0.62517400  0.17677600  1
  Al  Al10  1  0.99908000  0.37305900  0.17732800  1
  Al  Al11  1  0.37516600  0.99814200  0.17590800  1
  Al  Al12  1  0.62551700  0.99826100  0.17719800  1
  Al  Al13  1  0.81075200  0.37555600  0.99559900  1
  Si  Si0  1  0.00483400  0.37375900  0.82332900  1
  Si  Si1  1  0.62454000  0.00204100  0.82181800  1
  Si  Si2  1  0.00367800  0.62697500  0.82577100  1
  Si  Si3  1  0.18700900  0.37290500  0.99583000  1
  Si  Si4  1  0.18843300  0.62581100  0.99870500  1
  Si  Si5  1  0.37575000  0.80953400  0.99651900  1
  Si  Si6  1  0.37034200  0.18805200  0.99528500  1
  Si  Si7  1  0.62713500  0.81507900  0.99551500  1
  Si  Si8  1  0.61969200  0.18771500  0.99510900  1
  Si  Si9  1  0.81124000  0.62721100  0.99395500  1
  Ag  Ag0  1  0.50464300  0.66191900  0.49561700  1
  Ag  Ag1  1  0.50502100  0.33786100  0.50095600  1
  Ag  Ag2  1  0.64037300  0.49987500  0.50492400  1
  O  O0  1  0.50297500  0.76454700  0.99706000  1
  O  O1  1  0.29851600  0.30100200  0.99547200  1
  O  O2  1  0.70801600  0.71081000  0.98556500  1
  O  O3  1  0.75848500  0.50828400  0.98944600  1
  O  O4  1  0.69413000  0.29404900  0.99204100  1
  O  O5  1  0.11650000  0.65110900  0.89319600  1
  O  O6  1  0.35049600  0.87714400  0.89216600  1
  O  O7  1  0.33957300  0.11384600  0.89783100  1
  O  O8  1  0.89568500  0.65128700  0.89634200  1
  O  O9  1  0.11780300  0.35207600  0.89014200  1
  O  O10  1  0.64554400  0.89363600  0.89509700  1
  O  O11  1  0.64464300  0.10913900  0.89574900  1
  O  O12  1  0.89993700  0.34754000  0.89288700  1
  O  O13  1  0.00702500  0.50217600  0.79055100  1
  O  O14  1  0.50377600  0.00133500  0.77868700  1
  O  O15  1  0.29630300  0.98477100  0.70979300  1
  O  O16  1  0.00954200  0.30927000  0.71451600  1
  O  O17  1  0.70607700  0.00327500  0.72485900  1
  O  O18  1  0.00977500  0.70025000  0.72292300  1
  O  O19  1  0.11197400  0.88261700  0.64272300  1
  O  O20  1  0.11179000  0.11213800  0.65003200  1
  O  O21  1  0.88623800  0.88599700  0.65145400  1
  O  O22  1  0.89160300  0.11383300  0.65233800  1
  O  O23  1  0.99858900  0.74020400  0.50438900  1
  O  O24  1  0.25021900  0.99695400  0.49813100  1
  O  O25  1  0.75023400  0.00640100  0.50461700  1
  O  O26  1  0.99804400  0.25291800  0.50329000  1
  O  O27  1  0.11374200  0.88044000  0.36352300  1
  O  O28  1  0.11457100  0.11518100  0.35377400  1
  O  O29  1  0.88134400  0.88376700  0.35936000  1
  O  O30  1  0.87997400  0.12308900  0.35418800  1
  O  O31  1  0.01091600  0.28598900  0.28133200  1
  O  O32  1  0.27413700  0.99822500  0.26797200  1
  O  O33  1  0.72352700  0.00228300  0.27117800  1
  O  O34  1  0.99344300  0.72055600  0.27388300  1
  O  O35  1  0.49966000  0.99276600  0.23208400  1
  O  O36  1  0.00621800  0.49973100  0.22933800  1
  O  O37  1  0.11808500  0.65562900  0.10117900  1
  O  O38  1  0.34915800  0.87820300  0.10125900  1
  O  O39  1  0.34959800  0.12357600  0.10596900  1
  O  O40  1  0.87682100  0.65126300  0.10227700  1
  O  O41  1  0.11906100  0.34107900  0.10031800  1
  O  O42  1  0.65702700  0.87785000  0.10341400  1
  O  O43  1  0.64365200  0.11993900  0.10255700  1
  O  O44  1  0.87692500  0.34520600  0.11311900  1
  O  O45  1  0.23031600  0.49951000  0.99687700  1
  O  O46  1  0.30145500  0.69655500  0.99372700  1
  O  O47  1  0.49493200  0.23461000  0.99190900  1
loop_
_geom_bond_atom_site_label_1
_geom_bond_atom_site_label_2
_geom_bond_distance
_geom_bond_site_symmetry_2
Al0 O15 1.711652 1_555
Al0 O14 1.742898 1_565
Al0 O7 1.762601 1_565
Al0 O6 1.789420 1_555
Al1 O21 1.733323 1_555
Al1 O19 1.749173 1_655
Al1 O18 1.767440 1_655
Al1 O23 1.775226 1_555
Al2 O15 1.719001 1_555
Al2 O20 1.748951 1_565
Al2 O19 1.755000 1_555
Al2 O24 1.774200 1_555
Al3 O16 1.741363 1_555
Al3 O20 1.746237 1_555
Al3 O22 1.762586 1_455
Al3 O26 1.766597 1_455
Al4 O17 1.736073 1_555
Al4 O21 1.740468 1_545
Al4 O22 1.769403 1_555
Al4 O25 1.781499 1_555
Al5 O29 1.741832 1_555
Al5 O27 1.743400 1_655
Al5 O34 1.747603 1_555
Al5 O23 1.766202 1_555
Al6 O28 1.733716 1_565
Al6 O32 1.736805 1_555
Al6 O27 1.740879 1_555
Al6 O24 1.752581 1_555
Al7 O31 1.724227 1_655
Al7 O28 1.738712 1_655
Al7 O30 1.745881 1_555
Al7 O26 1.759614 1_555
Al8 O29 1.743265 1_545
Al8 O33 1.747079 1_555
Al8 O30 1.754061 1_555
Al8 O25 1.770242 1_555
Al9 O36 1.702715 1_655
Al9 O34 1.716946 1_555
Al9 O37 1.808271 1_655
Al9 O40 1.819053 1_555
Al10 O36 1.716282 1_655
Al10 O31 1.716354 1_655
Al10 O44 1.764942 1_555
Al10 O41 1.825417 1_655
Al11 O35 1.710725 1_555
Al11 O32 1.713712 1_555
Al11 O38 1.803713 1_555
Al11 O39 1.826110 1_565
Al12 O33 1.712983 1_565
Al12 O35 1.713150 1_555
Al12 O43 1.802296 1_565
Al12 O42 1.813218 1_555
Al13 O12 1.745127 1_555
Al13 O44 1.750471 1_556
Al13 O4 1.774634 1_555
Al13 O3 1.778864 1_555
Ag0 Ag2 2.634018 1_555
Ag0 Rb5 3.956530 1_555
Ag0 Rb1 4.239155 1_565
Ag1 Ag2 2.634084 1_555
Ag1 Rb6 3.947701 1_555
Ag1 Rb1 4.195892 1_555
Ag1 Rb3 4.206858 1_555
Ag2 Rb6 4.111577 1_555
Ag2 Rb5 4.212289 1_555
O0 Si7 1.670177 1_555
O0 Si5 1.678884 1_555
O0 Rb10 3.476376 1_555
O1 Si3 1.650727 1_555
O1 Si6 1.666672 1_555
O2 Si7 1.647384 1_555
O2 Si9 1.656560 1_555
O3 Si9 1.624430 1_555
O3 Rb10 2.989717 1_555
O4 Si8 1.619556 1_555
O4 Rb10 3.240499 1_555
O5 Si4 1.646459 1_555
O5 Si2 1.677122 1_555
O5 Rb0 2.924686 1_555
O6 Si5 1.603004 1_555
O6 Rb0 2.761952 1_555
O7 Si6 1.596667 1_555
O8 Si2 1.640412 1_655
O8 Si9 1.649947 1_555
O9 Si3 1.621667 1_555
O9 Si0 1.667879 1_555
O10 Si7 1.623638 1_555
O10 Si1 1.661490 1_565
O11 Si8 1.628579 1_555
O11 Si1 1.654871 1_555
O12 Si0 1.607142 1_655
O13 Si2 1.620630 1_555
O13 Si0 1.654269 1_555
O14 Si1 1.602734 1_555
O15 Rb0 2.950702 1_555
O16 Si0 1.602464 1_555
O17 Si1 1.592993 1_555
O18 Si2 1.595661 1_555
O18 Rb0 3.158262 1_555
O19 Rb0 2.709846 1_555
O23 Rb2 3.085633 1_655
O24 Rb1 3.155179 1_565
O25 Rb1 3.074604 1_555
O26 Rb2 3.005199 1_655
O27 Rb4 2.670989 1_555
O28 Rb3 2.708040 1_555
O28 Rb7 3.071064 1_555
O29 Rb5 2.712957 1_555
O29 Rb8 3.036645 1_555
O30 Rb6 2.714866 1_555
O31 Rb3 3.076027 1_555
O32 Rb7 2.865874 1_565
O32 Rb4 3.089978 1_555
O32 Rb3 3.351595 1_565
O33 Rb5 3.253930 1_545
O34 Rb8 2.847556 1_555
O34 Rb4 3.207246 1_655
O34 Rb5 3.274512 1_555
O36 Rb2 3.295877 1_555
O37 Si4 1.609892 1_554
O37 Rb4 2.856532 1_555
O38 Si5 1.617197 1_554
O38 Rb4 2.833202 1_555
O39 Si6 1.639283 1_554
O39 Rb7 2.703645 1_555
O39 Rb3 3.141048 1_555
O40 Si9 1.633323 1_554
O40 Rb8 2.708898 1_555
O40 Rb5 3.209269 1_555
O41 Si3 1.620579 1_554
O41 Rb3 3.103122 1_555
O41 Rb7 3.118063 1_555
O42 Si7 1.626102 1_554
O42 Rb5 3.074147 1_555
O42 Rb8 3.129882 1_555
O43 Si8 1.633732 1_554
O43 Rb9 2.737114 1_555
O44 Rb9 2.648234 1_555
O44 Rb6 3.065163 1_555
O45 Si4 1.658157 1_555
O45 Si3 1.669477 1_555
O46 Si4 1.662957 1_555
O46 Si5 1.687433 1_555
O46 Rb0 3.375392 1_555
O47 Si6 1.657344 1_555
O47 Si8 1.658816 1_555
O47 Rb10 3.163168 1_555
