# generated using pymatgen
data_Eu(GdS2)2
_symmetry_space_group_name_H-M   'P 1'
_cell_length_a   7.36208615
_cell_length_b   7.36207843
_cell_length_c   7.36210476
_cell_angle_alpha   109.29274570
_cell_angle_beta   109.29247268
_cell_angle_gamma   109.82834784
_symmetry_Int_Tables_number   1
_chemical_formula_structural   Eu(GdS2)2
_chemical_formula_sum   'Eu2 Gd4 S8'
_cell_volume   307.16550602
_cell_formula_units_Z   2
loop_
 _symmetry_equiv_pos_site_id
 _symmetry_equiv_pos_as_xyz
  1  'x, y, z'
loop_
 _atom_site_type_symbol
 _atom_site_label
 _atom_site_symmetry_multiplicity
 _atom_site_fract_x
 _atom_site_fract_y
 _atom_site_fract_z
 _atom_site_occupancy
  Eu  Eu0  1  0.24999955  0.75000078  0.50000045  1
  Eu  Eu1  1  0.00000142  0.00000040  0.00000035  1
  Gd  Gd0  1  0.12499968  0.50113828  0.87613901  1
  Gd  Gd1  1  0.75113922  0.87499679  0.37614011  1
  Gd  Gd2  1  0.62499918  0.24885925  0.12385771  1
  Gd  Gd3  1  0.49885916  0.37499986  0.62385760  1
  S  S0  1  0.86669935  0.61479620  0.60143151  1
  S  S1  1  0.23663784  0.13520695  0.75190828  1
  S  S2  1  0.51526908  0.76336413  0.89856874  1
  S  S3  1  0.86479777  0.61669997  0.10143280  1
  S  S4  1  0.01336182  0.26526926  0.39856760  1
  S  S5  1  0.38520592  0.98663870  0.25190754  1
  S  S6  1  0.73473137  0.13330002  0.74809483  1
  S  S7  1  0.38329963  0.48472941  0.24809348  1
loop_
_geom_bond_atom_site_label_1
_geom_bond_atom_site_label_2
_geom_bond_distance
_geom_bond_site_symmetry_2
Eu0 S1 2.885478 1_565
Eu0 S3 2.885479 1_455
Eu0 S7 2.885488 1_555
Eu0 S2 2.885491 1_555
Eu0 S5 3.080502 1_555
Eu0 S0 3.080505 1_455
Eu0 S4 3.080511 1_555
Eu0 S6 3.080532 1_565
Eu1 S5 2.885477 1_545
Eu1 S0 2.885481 1_444
Eu1 S6 2.885483 1_454
Eu1 S4 2.885485 1_555
Eu1 S1 3.080489 1_554
Eu1 S3 3.080512 1_445
Eu1 S7 3.080514 1_555
Eu1 S2 3.080524 1_444
Gd0 S6 2.778904 1_455
Gd0 S2 2.778908 1_555
Gd0 S7 2.839534 1_556
Gd0 S0 2.839541 1_455
Gd0 S1 3.023308 1_555
Gd0 S4 3.023344 1_555
Gd0 S3 3.068751 1_456
Gd0 S5 3.068812 1_556
Gd1 S7 2.778898 1_555
Gd1 S4 2.778924 1_665
Gd1 S3 2.839520 1_555
Gd1 S6 2.839530 1_565
Gd1 S5 3.023347 1_555
Gd1 S2 3.023362 1_554
Gd1 S0 3.068733 1_555
Gd1 S1 3.068809 1_665
Gd2 S3 2.778894 1_555
Gd2 S5 2.778903 1_545
Gd2 S1 2.839521 1_554
Gd2 S4 2.839528 1_655
Gd2 S7 3.023317 1_555
Gd2 S0 3.023376 1_555
Gd2 S6 3.068753 1_554
Gd2 S2 3.068761 1_544
Gd3 S0 2.778892 1_555
Gd3 S1 2.778909 1_555
Gd3 S5 2.839509 1_545
Gd3 S2 2.839529 1_555
Gd3 S6 3.023337 1_555
Gd3 S3 3.023392 1_556
Gd3 S7 3.068755 1_555
Gd3 S4 3.068785 1_555
