# generated using pymatgen
data_Cu2Hg2SF6
_symmetry_space_group_name_H-M   'P 1'
_cell_length_a   7.71268661
_cell_length_b   7.71268661
_cell_length_c   7.71268661
_cell_angle_alpha   60.00000000
_cell_angle_beta   60.00000000
_cell_angle_gamma   60.00000000
_symmetry_Int_Tables_number   1
_chemical_formula_structural   Cu2Hg2SF6
_chemical_formula_sum   'Cu4 Hg4 S2 F12'
_cell_volume   324.41584407
_cell_formula_units_Z   2
loop_
 _symmetry_equiv_pos_site_id
 _symmetry_equiv_pos_as_xyz
  1  'x, y, z'
loop_
 _atom_site_type_symbol
 _atom_site_label
 _atom_site_symmetry_multiplicity
 _atom_site_fract_x
 _atom_site_fract_y
 _atom_site_fract_z
 _atom_site_occupancy
  Cu  Cu0  1  0.12500000  0.12500000  0.12500000  1
  Cu  Cu1  1  0.62500000  0.12500000  0.12500000  1
  Cu  Cu2  1  0.12500000  0.12500000  0.62500000  1
  Cu  Cu3  1  0.12500000  0.62500000  0.12500000  1
  Hg  Hg0  1  0.62500000  0.62500000  0.62500000  1
  Hg  Hg1  1  0.12500000  0.62500000  0.62500000  1
  Hg  Hg2  1  0.62500000  0.62500000  0.12500000  1
  Hg  Hg3  1  0.62500000  0.12500000  0.62500000  1
  S  S0  1  0.75000000  0.75000000  0.75000000  1
  S  S1  1  0.50000000  0.50000000  0.50000000  1
  F  F0  1  0.44314900  0.44314900  0.05685100  1
  F  F1  1  0.44314900  0.05685100  0.44314900  1
  F  F2  1  0.80685100  0.80685100  0.19314900  1
  F  F3  1  0.05685100  0.05685100  0.44314900  1
  F  F4  1  0.19314900  0.80685100  0.19314900  1
  F  F5  1  0.19314900  0.80685100  0.80685100  1
  F  F6  1  0.05685100  0.44314900  0.05685100  1
  F  F7  1  0.80685100  0.19314900  0.80685100  1
  F  F8  1  0.19314900  0.19314900  0.80685100  1
  F  F9  1  0.44314900  0.05685100  0.05685100  1
  F  F10  1  0.05685100  0.44314900  0.44314900  1
  F  F11  1  0.80685100  0.19314900  0.19314900  1
loop_
_geom_bond_atom_site_label_1
_geom_bond_atom_site_label_2
_geom_bond_distance
_geom_bond_site_symmetry_2
Cu0 F6 2.066490 1_555
Cu0 F3 2.066490 1_555
Cu0 F9 2.066490 1_555
Cu0 F11 2.066490 1_455
Cu0 F8 2.066490 1_554
Cu0 F4 2.066490 1_545
Cu1 F1 2.066490 1_555
Cu1 F0 2.066490 1_555
Cu1 F2 2.066490 1_545
Cu1 F11 2.066490 1_555
Cu1 F7 2.066490 1_554
Cu1 F9 2.066490 1_555
Cu2 F10 2.066490 1_555
Cu2 F1 2.066490 1_555
Cu2 F8 2.066490 1_555
Cu2 F7 2.066490 1_455
Cu2 F5 2.066490 1_545
Cu2 F3 2.066490 1_555
Cu3 F10 2.066490 1_555
Cu3 F0 2.066490 1_555
Cu3 F4 2.066490 1_555
Cu3 F2 2.066490 1_455
Cu3 F5 2.066490 1_554
Cu3 F6 2.066490 1_555
Hg0 S0 2.361518 1_555
Hg0 S1 2.361518 1_555
Hg1 S0 2.361518 1_455
Hg1 S1 2.361518 1_555
Hg2 S1 2.361518 1_555
Hg2 S0 2.361518 1_554
Hg3 S1 2.361518 1_555
Hg3 S0 2.361518 1_545
