# generated using pymatgen
data_Yb3DySb3
_symmetry_space_group_name_H-M   'P 1'
_cell_length_a   9.38502800
_cell_length_b   9.38502800
_cell_length_c   9.38502800
_cell_angle_alpha   90.00000000
_cell_angle_beta   90.00000000
_cell_angle_gamma   90.00000000
_symmetry_Int_Tables_number   1
_chemical_formula_structural   Yb3DySb3
_chemical_formula_sum   'Yb12 Dy4 Sb12'
_cell_volume   826.62154022
_cell_formula_units_Z   4
loop_
 _symmetry_equiv_pos_site_id
 _symmetry_equiv_pos_as_xyz
  1  'x, y, z'
loop_
 _atom_site_type_symbol
 _atom_site_label
 _atom_site_symmetry_multiplicity
 _atom_site_fract_x
 _atom_site_fract_y
 _atom_site_fract_z
 _atom_site_occupancy
  Yb  Yb0  1  0.82323000  0.32323000  0.17677000  1
  Yb  Yb1  1  0.93014800  0.93014800  0.93014800  1
  Yb  Yb2  1  0.82545800  0.67454200  0.32545800  1
  Yb  Yb3  1  0.17677000  0.82323000  0.32323000  1
  Yb  Yb4  1  0.17454200  0.17454200  0.17454200  1
  Yb  Yb5  1  0.32545800  0.82545800  0.67454200  1
  Yb  Yb6  1  0.06985200  0.43014800  0.56985200  1
  Yb  Yb7  1  0.32323000  0.17677000  0.82323000  1
  Yb  Yb8  1  0.67454200  0.32545800  0.82545800  1
  Yb  Yb9  1  0.67677000  0.67677000  0.67677000  1
  Yb  Yb10  1  0.56985200  0.06985200  0.43014800  1
  Yb  Yb11  1  0.43014800  0.56985200  0.06985200  1
  Dy  Dy0  1  0.07057100  0.57057100  0.92942900  1
  Dy  Dy1  1  0.92942900  0.07057100  0.57057100  1
  Dy  Dy2  1  0.42942900  0.42942900  0.42942900  1
  Dy  Dy3  1  0.57057100  0.92942900  0.07057100  1
  Sb  Sb0  1  0.74634200  0.37042600  0.50035700  1
  Sb  Sb1  1  0.87042600  0.99964300  0.25365800  1
  Sb  Sb2  1  0.00035700  0.75365800  0.62957400  1
  Sb  Sb3  1  0.24634200  0.12957400  0.49964300  1
  Sb  Sb4  1  0.12957400  0.49964300  0.24634200  1
  Sb  Sb5  1  0.99964300  0.25365800  0.87042600  1
  Sb  Sb6  1  0.25365800  0.87042600  0.99964300  1
  Sb  Sb7  1  0.37042600  0.50035700  0.74634200  1
  Sb  Sb8  1  0.49964300  0.24634200  0.12957400  1
  Sb  Sb9  1  0.75365800  0.62957400  0.00035700  1
  Sb  Sb10  1  0.62957400  0.00035700  0.75365800  1
  Sb  Sb11  1  0.50035700  0.74634200  0.37042600  1
loop_
_geom_bond_atom_site_label_1
_geom_bond_atom_site_label_2
_geom_bond_distance
_geom_bond_site_symmetry_2
Dy0 Sb9 3.097713 1_456
Dy0 Sb5 3.097713 1_455
Dy0 Sb4 3.097713 1_556
Dy0 Sb2 3.362459 1_555
Dy0 Sb6 3.362459 1_555
Dy0 Sb7 3.362459 1_555
Dy1 Sb2 3.097713 1_645
Dy1 Sb1 3.097713 1_545
Dy1 Sb3 3.097713 1_655
Dy1 Sb5 3.362459 1_555
Dy1 Sb0 3.362459 1_555
Dy1 Sb10 3.362459 1_555
Dy2 Sb7 3.097713 1_555
Dy2 Sb11 3.097713 1_555
Dy2 Sb0 3.097713 1_555
Dy2 Sb8 3.362459 1_555
Dy2 Sb3 3.362459 1_555
Dy2 Sb4 3.362459 1_555
Dy3 Sb10 3.097713 1_564
Dy3 Sb6 3.097713 1_554
Dy3 Sb8 3.097713 1_565
Dy3 Sb11 3.362459 1_555
Dy3 Sb9 3.362459 1_555
Dy3 Sb1 3.362459 1_555
Sb0 Yb0 3.152696 1_555
Sb0 Yb8 3.152979 1_555
Sb0 Yb6 3.155589 1_655
Sb0 Yb10 3.336938 1_555
Sb0 Yb2 3.375161 1_555
Sb0 Yb9 3.381326 1_555
Sb1 Yb0 3.152696 1_565
Sb1 Yb2 3.152979 1_555
Sb1 Yb1 3.155589 1_554
Sb1 Yb10 3.336938 1_565
Sb1 Yb4 3.375161 1_665
Sb1 Yb3 3.381326 1_655
Sb2 Yb9 3.152696 1_455
Sb2 Yb5 3.152979 1_555
Sb2 Yb6 3.155589 1_555
Sb2 Yb1 3.336938 1_455
Sb2 Yb2 3.375161 1_455
Sb2 Yb3 3.381326 1_555
Sb3 Yb7 3.152696 1_555
Sb3 Yb4 3.152979 1_555
Sb3 Yb10 3.155589 1_555
Sb3 Yb6 3.336938 1_555
Sb3 Yb5 3.375161 1_545
Sb3 Yb3 3.381326 1_545
Sb4 Yb3 3.152696 1_555
Sb4 Yb4 3.152979 1_555
Sb4 Yb6 3.155589 1_555
Sb4 Yb11 3.336938 1_555
Sb4 Yb2 3.375161 1_455
Sb4 Yb0 3.381326 1_455
Sb5 Yb7 3.152696 1_655
Sb5 Yb8 3.152979 1_555
Sb5 Yb1 3.155589 1_545
Sb5 Yb6 3.336938 1_655
Sb5 Yb4 3.375161 1_656
Sb5 Yb0 3.381326 1_556
Sb6 Yb3 3.152696 1_556
Sb6 Yb5 3.152979 1_555
Sb6 Yb1 3.155589 1_455
Sb6 Yb11 3.336938 1_556
Sb6 Yb4 3.375161 1_566
Sb6 Yb7 3.381326 1_565
Sb7 Yb7 3.152696 1_555
Sb7 Yb5 3.152979 1_555
Sb7 Yb11 3.155589 1_556
Sb7 Yb6 3.336938 1_555
Sb7 Yb8 3.375161 1_555
Sb7 Yb9 3.381326 1_555
Sb8 Yb0 3.152696 1_555
Sb8 Yb4 3.152979 1_555
Sb8 Yb11 3.155589 1_555
Sb8 Yb10 3.336938 1_555
Sb8 Yb8 3.375161 1_554
Sb8 Yb7 3.381326 1_554
Sb9 Yb9 3.152696 1_554
Sb9 Yb2 3.152979 1_555
Sb9 Yb11 3.155589 1_555
Sb9 Yb1 3.336938 1_554
Sb9 Yb8 3.375161 1_554
Sb9 Yb0 3.381326 1_555
Sb10 Yb9 3.152696 1_545
Sb10 Yb8 3.152979 1_555
Sb10 Yb10 3.155589 1_555
Sb10 Yb1 3.336938 1_545
Sb10 Yb5 3.375161 1_545
Sb10 Yb7 3.381326 1_555
Sb11 Yb3 3.152696 1_555
Sb11 Yb2 3.152979 1_555
Sb11 Yb10 3.155589 1_565
Sb11 Yb11 3.336938 1_555
Sb11 Yb5 3.375161 1_555
Sb11 Yb9 3.381326 1_555
