# generated using pymatgen
data_KNa2AlH6
_symmetry_space_group_name_H-M   'P 1'
_cell_length_a   4.60633300
_cell_length_b   7.01562400
_cell_length_c   11.05204549
_cell_angle_alpha   84.15768519
_cell_angle_beta   90.00000000
_cell_angle_gamma   90.00000000
_symmetry_Int_Tables_number   1
_chemical_formula_structural   KNa2AlH6
_chemical_formula_sum   'K2 Na4 Al2 H12'
_cell_volume   355.30605613
_cell_formula_units_Z   2
loop_
 _symmetry_equiv_pos_site_id
 _symmetry_equiv_pos_as_xyz
  1  'x, y, z'
loop_
 _atom_site_type_symbol
 _atom_site_label
 _atom_site_symmetry_multiplicity
 _atom_site_fract_x
 _atom_site_fract_y
 _atom_site_fract_z
 _atom_site_occupancy
  K  K0  1  0.47640100  0.64857000  0.23574100  1
  K  K1  1  0.97640100  0.35143000  0.76425900  1
  Na  Na0  1  0.56820500  0.80723400  0.79985100  1
  Na  Na1  1  0.65632100  0.09756100  0.41597900  1
  Na  Na2  1  0.06820500  0.19276600  0.20014900  1
  Na  Na3  1  0.15632100  0.90243900  0.58402100  1
  Al  Al0  1  0.48654000  0.09614900  0.99017600  1
  Al  Al1  1  0.98654000  0.90385100  0.00982400  1
  H  H0  1  0.13977000  0.50671800  0.44549600  1
  H  H1  1  0.47455600  0.21800700  0.85178700  1
  H  H2  1  0.72828200  0.44864200  0.50641900  1
  H  H3  1  0.97371700  0.73180500  0.91511800  1
  H  H4  1  0.63977000  0.49328200  0.55450400  1
  H  H5  1  0.22828200  0.55135800  0.49358100  1
  H  H6  1  0.97455600  0.78199300  0.14821300  1
  H  H7  1  0.69804900  0.02108000  0.62059100  1
  H  H8  1  0.28815800  0.64681800  0.69201300  1
  H  H9  1  0.19804900  0.97892000  0.37940900  1
  H  H10  1  0.78815800  0.35318200  0.30798700  1
  H  H11  1  0.47371700  0.26819500  0.08488200  1
loop_
_geom_bond_atom_site_label_1
_geom_bond_atom_site_label_2
_geom_bond_distance
_geom_bond_site_symmetry_2
Al0 H1 1.675421 1_555
Al0 H11 1.677240 1_556
Al1 H6 1.675421 1_555
Al1 H3 1.677240 1_554
H0 H5 0.761985 1_555
H0 K0 2.880856 1_555
H1 K1 2.625477 1_455
H1 K1 2.640346 1_555
H2 H4 0.761985 1_555
H3 Na0 2.292344 1_555
H4 K1 2.880856 1_555
H6 K0 2.625477 1_555
H6 K0 2.640346 1_655
H7 Na1 2.278523 1_555
H7 Na3 2.319646 1_645
H7 Na0 2.434856 1_545
H8 Na3 2.138606 1_555
H8 Na0 2.150387 1_555
H8 K1 2.580213 1_455
H9 Na3 2.278523 1_555
H9 Na1 2.319646 1_565
H9 Na2 2.434856 1_565
H10 Na1 2.138606 1_555
H10 Na2 2.150387 1_655
H10 K0 2.580213 1_555
H11 Na2 2.292344 1_555
