# generated using pymatgen
data_Fe35O36
_symmetry_space_group_name_H-M   'P 1'
_cell_length_a   9.26692400
_cell_length_b   9.74757562
_cell_length_c   9.78287202
_cell_angle_alpha   101.60802340
_cell_angle_beta   108.55050249
_cell_angle_gamma   108.06411201
_symmetry_Int_Tables_number   1
_chemical_formula_structural   Fe35O36
_chemical_formula_sum   'Fe35 O36'
_cell_volume   751.10789581
_cell_formula_units_Z   1
loop_
 _symmetry_equiv_pos_site_id
 _symmetry_equiv_pos_as_xyz
  1  'x, y, z'
loop_
 _atom_site_type_symbol
 _atom_site_label
 _atom_site_symmetry_multiplicity
 _atom_site_fract_x
 _atom_site_fract_y
 _atom_site_fract_z
 _atom_site_occupancy
  Fe  Fe0  1  0.66524100  0.24929800  0.24591100  1
  Fe  Fe1  1  0.99628100  0.50185300  0.49829000  1
  Fe  Fe2  1  0.88969200  0.16326800  0.49993000  1
  Fe  Fe3  1  0.22428100  0.41518400  0.75043400  1
  Fe  Fe4  1  0.99559300  0.24315000  0.23706900  1
  Fe  Fe5  1  0.10257200  0.07792400  0.75457100  1
  Fe  Fe6  1  0.33707700  0.50215200  0.49982100  1
  Fe  Fe7  1  0.44831500  0.33457300  0.99908500  1
  Fe  Fe8  1  0.22116200  0.16649600  0.50307700  1
  Fe  Fe9  1  0.31879100  0.23715300  0.24321500  1
  Fe  Fe10  1  0.44476900  0.08496300  0.75069800  1
  Fe  Fe11  1  0.55359500  0.41639600  0.74802700  1
  Fe  Fe12  1  0.68163600  0.76012900  0.75448400  1
  Fe  Fe13  1  0.55499400  0.16676300  0.49788000  1
  Fe  Fe14  1  0.66533200  0.49899000  0.50218600  1
  Fe  Fe15  1  0.88663200  0.67766300  0.00025700  1
  Fe  Fe16  1  0.77357100  0.33794100  0.99772600  1
  Fe  Fe17  1  0.78075700  0.08394400  0.75898100  1
  Fe  Fe18  1  0.89250100  0.41815600  0.75192400  1
  Fe  Fe19  1  0.00461200  0.75830300  0.76360200  1
  Fe  Fe20  1  0.11039700  0.58142900  0.24947200  1
  Fe  Fe21  1  0.21522000  0.91700300  0.23803500  1
  Fe  Fe22  1  0.11092400  0.32258200  0.99839900  1
  Fe  Fe23  1  0.22611100  0.66269500  0.00021800  1
  Fe  Fe24  1  0.32833600  0.00335700  0.99954000  1
  Fe  Fe25  1  0.44377200  0.83175300  0.50091400  1
  Fe  Fe26  1  0.32970800  0.74782000  0.75167700  1
  Fe  Fe27  1  0.44419700  0.58065900  0.24917700  1
  Fe  Fe28  1  0.55258800  0.91816800  0.24725000  1
  Fe  Fe29  1  0.55410800  0.66811800  0.00200800  1
  Fe  Fe30  1  0.67531500  0.99568100  0.00010400  1
  Fe  Fe31  1  0.77598700  0.83017800  0.49444400  1
  Fe  Fe32  1  0.77789200  0.58221000  0.24898600  1
  Fe  Fe33  1  0.89920300  0.92419200  0.24757100  1
  Fe  Fe34  1  0.11407300  0.83613000  0.50433100  1
  O  O0  1  0.45143500  0.08837200  0.26420200  1
  O  O1  1  0.66195100  0.00772800  0.50537800  1
  O  O2  1  0.77655600  0.08349800  0.25696400  1
  O  O3  1  0.11740800  0.33958200  0.50082000  1
  O  O4  1  0.99986500  0.99781900  0.49824100  1
  O  O5  1  0.24488700  0.18059900  0.00270500  1
  O  O6  1  0.11416600  0.08817000  0.26111200  1
  O  O7  1  0.45443700  0.58564200  0.75522600  1
  O  O8  1  0.33041300  0.24262900  0.75282800  1
  O  O9  1  0.44910500  0.32236100  0.49615300  1
  O  O10  1  0.56060000  0.16764200  0.00511600  1
  O  O11  1  0.66013700  0.49232600  0.99877800  1
  O  O12  1  0.65731700  0.24866700  0.73326700  1
  O  O13  1  0.78103500  0.57695200  0.74681600  1
  O  O14  1  0.00564300  0.73795300  0.25656800  1
  O  O15  1  0.90452600  0.42689200  0.25184800  1
  O  O16  1  0.76225200  0.32022400  0.49399300  1
  O  O17  1  0.88324500  0.18202700  0.99684200  1
  O  O18  1  0.00404700  0.50824800  0.01620600  1
  O  O19  1  0.12083800  0.82135300  0.00193500  1
  O  O20  1  0.21320400  0.66006500  0.48115200  1
  O  O21  1  0.11567400  0.58502600  0.74599000  1
  O  O22  1  0.99398400  0.25310000  0.74317000  1
  O  O23  1  0.33056800  0.74309100  0.25574600  1
  O  O24  1  0.21462600  0.42662700  0.24813900  1
  O  O25  1  0.32665100  0.49574800  0.99323400  1
  O  O26  1  0.44320800  0.84233000  0.00043800  1
  O  O27  1  0.55045200  0.66107500  0.50124200  1
  O  O28  1  0.66604000  0.75138700  0.24469500  1
  O  O29  1  0.55645400  0.42045300  0.25108100  1
  O  O30  1  0.88179400  0.91331900  0.73676700  1
  O  O31  1  0.77032600  0.82781600  0.00142900  1
  O  O32  1  0.88976300  0.66677800  0.50553800  1
  O  O33  1  0.21946000  0.91511400  0.74359900  1
  O  O34  1  0.34326700  0.01036400  0.49136100  1
  O  O35  1  0.54354600  0.91338800  0.74430100  1
loop_
_geom_bond_atom_site_label_1
_geom_bond_atom_site_label_2
_geom_bond_distance
_geom_bond_site_symmetry_2
Fe0 O10 2.106266 1_555
Fe0 O2 2.172778 1_555
Fe0 O16 2.174245 1_555
Fe0 O0 2.197585 1_555
Fe0 O29 2.200858 1_555
Fe0 O15 2.326835 1_555
Fe1 O32 2.132276 1_555
Fe1 O15 2.161202 1_555
Fe1 O21 2.168088 1_655
Fe1 O20 2.200751 1_655
Fe1 O3 2.204915 1_655
Fe1 O16 2.317430 1_555
Fe2 O2 2.125683 1_555
Fe2 O22 2.129921 1_555
Fe2 O4 2.159782 1_545
Fe2 O16 2.202598 1_555
Fe2 O1 2.208003 1_555
Fe2 O3 2.267152 1_655
Fe3 O25 2.124193 1_555
Fe3 O3 2.184348 1_555
Fe3 O21 2.188637 1_555
Fe3 O22 2.196145 1_455
Fe3 O8 2.196376 1_555
Fe3 O7 2.240367 1_555
Fe4 O17 2.111147 1_554
Fe4 O6 2.133737 1_655
Fe4 O15 2.202657 1_555
Fe4 O24 2.204802 1_655
Fe4 O2 2.234742 1_555
Fe4 O3 2.308272 1_655
Fe5 O30 2.101331 1_445
Fe5 O33 2.185156 1_545
Fe5 O5 2.190956 1_556
Fe5 O8 2.228789 1_555
Fe5 O22 2.238651 1_455
Fe5 O4 2.244184 1_445
Fe6 O27 2.093801 1_555
Fe6 O3 2.161829 1_555
Fe6 O20 2.189970 1_555
Fe6 O24 2.206050 1_555
Fe6 O7 2.234246 1_555
Fe6 O9 2.297198 1_555
Fe7 O5 2.029007 1_556
Fe7 O11 2.085996 1_555
Fe7 O8 2.156338 1_555
Fe7 O10 2.187116 1_556
Fe7 O25 2.199156 1_555
Fe7 O29 2.204492 1_556
Fe8 O6 2.116389 1_555
Fe8 O34 2.165646 1_555
Fe8 O4 2.174176 1_445
Fe8 O8 2.185361 1_555
Fe8 O3 2.186085 1_555
Fe8 O9 2.217432 1_555
Fe9 O6 2.083539 1_555
Fe9 O5 2.127805 1_555
Fe9 O0 2.172811 1_555
Fe9 O9 2.218263 1_555
Fe9 O24 2.333366 1_555
Fe9 O29 2.333526 1_555
Fe10 O8 2.120517 1_555
Fe10 O35 2.140696 1_545
Fe10 O33 2.196132 1_545
Fe10 O12 2.197500 1_555
Fe10 O10 2.225509 1_556
Fe10 O34 2.272703 1_555
Fe11 O7 2.122615 1_555
Fe11 O12 2.141418 1_555
Fe11 O11 2.194367 1_555
Fe11 O13 2.206680 1_555
Fe11 O9 2.207228 1_555
Fe11 O8 2.251663 1_555
Fe12 O30 2.071541 1_555
Fe12 O31 2.169321 1_556
Fe12 O27 2.222817 1_555
Fe12 O35 2.245789 1_555
Fe12 O13 2.247723 1_555
Fe12 O7 2.262659 1_555
Fe13 O0 2.043819 1_555
Fe13 O9 2.046045 1_555
Fe13 O34 2.050394 1_555
Fe13 O16 2.053185 1_555
Fe13 O12 2.059261 1_555
Fe13 O1 2.084060 1_555
Fe14 O13 2.141161 1_555
Fe14 O27 2.161558 1_555
Fe14 O9 2.174207 1_555
Fe14 O16 2.193106 1_555
Fe14 O29 2.196753 1_555
Fe14 O32 2.197053 1_555
Fe15 O31 2.069638 1_555
Fe15 O19 2.180686 1_655
Fe15 O13 2.224770 1_554
Fe15 O18 2.246180 1_655
Fe15 O14 2.257100 1_655
Fe15 O11 2.299561 1_554
Fe16 O17 2.073881 1_555
Fe16 O11 2.086012 1_555
Fe16 O10 2.182478 1_556
Fe16 O18 2.187440 1_656
Fe16 O15 2.228291 1_556
Fe16 O12 2.313105 1_555
Fe17 O17 2.089552 1_555
Fe17 O30 2.154022 1_545
Fe17 O22 2.218929 1_555
Fe17 O1 2.220874 1_555
Fe17 O35 2.247965 1_545
Fe17 O12 2.251318 1_555
Fe18 O22 2.101056 1_555
Fe18 O13 2.110744 1_555
Fe18 O12 2.214780 1_555
Fe18 O21 2.225862 1_655
Fe18 O16 2.261284 1_555
Fe18 O18 2.312367 1_656
Fe19 O19 2.094995 1_556
Fe19 O30 2.164154 1_455
Fe19 O33 2.195369 1_555
Fe19 O13 2.199963 1_455
Fe19 O21 2.239542 1_555
Fe19 O32 2.257742 1_455
Fe20 O20 2.026388 1_555
Fe20 O24 2.028292 1_555
Fe20 O18 2.040987 1_555
Fe20 O15 2.041911 1_455
Fe20 O14 2.047876 1_555
Fe20 O23 2.130093 1_555
Fe21 O19 2.076391 1_555
Fe21 O6 2.159537 1_565
Fe21 O0 2.202556 1_565
Fe21 O34 2.220258 1_565
Fe21 O14 2.258345 1_555
Fe21 O23 2.273876 1_555
Fe22 O17 2.123062 1_455
Fe22 O5 2.124627 1_556
Fe22 O24 2.196746 1_556
Fe22 O25 2.203210 1_555
Fe22 O22 2.238319 1_455
Fe22 O18 2.319731 1_556
Fe23 O19 2.068666 1_555
Fe23 O25 2.111151 1_554
Fe23 O18 2.214487 1_555
Fe23 O26 2.219128 1_555
Fe23 O21 2.224484 1_554
Fe23 O23 2.236439 1_555
Fe24 O5 2.099077 1_556
Fe24 O26 2.152392 1_546
Fe24 O19 2.185222 1_546
Fe24 O10 2.225464 1_556
Fe24 O33 2.239359 1_545
Fe24 O0 2.315759 1_556
Fe25 O35 2.130221 1_555
Fe25 O23 2.145366 1_555
Fe25 O27 2.182966 1_555
Fe25 O20 2.189250 1_555
Fe25 O1 2.189749 1_565
Fe25 O34 2.218799 1_565
Fe26 O21 2.097035 1_555
Fe26 O35 2.165908 1_555
Fe26 O33 2.177832 1_555
Fe26 O26 2.178433 1_556
Fe26 O7 2.228451 1_555
Fe26 O20 2.366338 1_555
Fe27 O29 2.127915 1_555
Fe27 O23 2.157747 1_555
Fe27 O24 2.186214 1_555
Fe27 O27 2.205282 1_555
Fe27 O28 2.227724 1_555
Fe27 O25 2.238834 1_554
Fe28 O0 2.147409 1_565
Fe28 O2 2.156945 1_565
Fe28 O26 2.159541 1_555
Fe28 O28 2.192998 1_555
Fe28 O1 2.258714 1_565
Fe28 O23 2.267326 1_555
Fe29 O28 2.122940 1_555
Fe29 O31 2.124715 1_555
Fe29 O7 2.160453 1_554
Fe29 O25 2.214463 1_554
Fe29 O11 2.223686 1_554
Fe29 O26 2.241172 1_555
Fe30 O31 2.085067 1_555
Fe30 O26 2.207574 1_555
Fe30 O17 2.214750 1_564
Fe30 O35 2.244405 1_554
Fe30 O10 2.246620 1_565
Fe30 O2 2.250231 1_565
Fe31 O30 2.119687 1_555
Fe31 O32 2.167606 1_555
Fe31 O28 2.184745 1_555
Fe31 O4 2.190874 1_555
Fe31 O27 2.255146 1_555
Fe31 O1 2.292401 1_565
Fe32 O14 2.152358 1_655
Fe32 O29 2.175002 1_555
Fe32 O15 2.183573 1_555
Fe32 O11 2.189610 1_554
Fe32 O28 2.203582 1_555
Fe32 O32 2.243950 1_555
Fe33 O6 2.076750 1_665
Fe33 O31 2.161304 1_555
Fe33 O2 2.194335 1_565
Fe33 O4 2.195430 1_555
Fe33 O28 2.278568 1_555
Fe33 O14 2.322891 1_655
Fe34 O33 2.092719 1_555
Fe34 O4 2.154022 1_455
Fe34 O14 2.172779 1_555
Fe34 O20 2.189600 1_555
Fe34 O32 2.222941 1_455
Fe34 O34 2.330821 1_565
