# generated using pymatgen
data_Mg2Zr5O12
_symmetry_space_group_name_H-M   'P 1'
_cell_length_a   6.16720400
_cell_length_b   6.23634844
_cell_length_c   12.56214726
_cell_angle_alpha   99.34174484
_cell_angle_beta   99.51562933
_cell_angle_gamma   98.90795219
_symmetry_Int_Tables_number   1
_chemical_formula_structural   Mg2Zr5O12
_chemical_formula_sum   'Mg4 Zr10 O24'
_cell_volume   461.91663445
_cell_formula_units_Z   2
loop_
 _symmetry_equiv_pos_site_id
 _symmetry_equiv_pos_as_xyz
  1  'x, y, z'
loop_
 _atom_site_type_symbol
 _atom_site_label
 _atom_site_symmetry_multiplicity
 _atom_site_fract_x
 _atom_site_fract_y
 _atom_site_fract_z
 _atom_site_occupancy
  Mg  Mg0  1  0.40477700  0.86398800  0.09025700  1
  Mg  Mg1  1  0.86177100  0.67876600  0.45372000  1
  Mg  Mg2  1  0.13822900  0.32123400  0.54628000  1
  Mg  Mg3  1  0.59522300  0.13601200  0.90974300  1
  Zr  Zr0  1  0.99098100  0.99299400  0.25196600  1
  Zr  Zr1  1  0.32156100  0.60774100  0.81970400  1
  Zr  Zr2  1  0.38254900  0.85500000  0.58814900  1
  Zr  Zr3  1  0.00901900  0.00700600  0.74803400  1
  Zr  Zr4  1  0.86282200  0.69905300  0.94916500  1
  Zr  Zr5  1  0.30407900  0.61454800  0.32060400  1
  Zr  Zr6  1  0.13717800  0.30094700  0.05083500  1
  Zr  Zr7  1  0.67843900  0.39225900  0.18029600  1
  Zr  Zr8  1  0.69592100  0.38545200  0.67939600  1
  Zr  Zr9  1  0.61745100  0.14500000  0.41185100  1
  O  O0  1  0.33120800  0.93343700  0.78959700  1
  O  O1  1  0.06449400  0.91521400  0.08979200  1
  O  O2  1  0.31614600  0.94683100  0.30819100  1
  O  O3  1  0.57337100  0.81487400  0.95925000  1
  O  O4  1  0.05709000  0.89236800  0.59051500  1
  O  O5  1  0.91468200  0.68157400  0.78421100  1
  O  O6  1  0.57957600  0.81919100  0.45778500  1
  O  O7  1  0.17328700  0.55365100  0.95391400  1
  O  O8  1  0.41865900  0.58293600  0.15998300  1
  O  O9  1  0.91370100  0.67283600  0.27936300  1
  O  O10  1  0.18430200  0.58084100  0.46021900  1
  O  O11  1  0.58134100  0.41706400  0.84001700  1
  O  O12  1  0.44014500  0.58352800  0.66283800  1
  O  O13  1  0.82671300  0.44634900  0.04608600  1
  O  O14  1  0.08531800  0.31842600  0.21578900  1
  O  O15  1  0.55985500  0.41647200  0.33716200  1
  O  O16  1  0.81569800  0.41915900  0.53978100  1
  O  O17  1  0.42662900  0.18512600  0.04075000  1
  O  O18  1  0.08629900  0.32716400  0.72063700  1
  O  O19  1  0.93550600  0.08478600  0.91020800  1
  O  O20  1  0.42042400  0.18080900  0.54221500  1
  O  O21  1  0.66879200  0.06656300  0.21040300  1
  O  O22  1  0.94291000  0.10763200  0.40948500  1
  O  O23  1  0.68385400  0.05316900  0.69180900  1
loop_
_geom_bond_atom_site_label_1
_geom_bond_atom_site_label_2
_geom_bond_distance
_geom_bond_site_symmetry_2
Mg0 O8 2.089670 1_555
Mg0 O3 2.093818 1_554
Mg0 O21 2.111049 1_565
Mg0 O1 2.170339 1_555
Mg0 O17 2.182737 1_565
Mg0 O7 2.444805 1_554
Mg1 O4 2.062525 1_655
Mg1 O6 2.070080 1_555
Mg1 O16 2.097148 1_555
Mg1 O10 2.162148 1_655
Mg1 O9 2.260673 1_555
Mg1 O15 2.379993 1_555
Mg2 O22 2.062525 1_455
Mg2 O20 2.070080 1_555
Mg2 O10 2.097148 1_555
Mg2 O16 2.162148 1_455
Mg2 O18 2.260673 1_555
Mg2 O12 2.379993 1_555
Mg3 O11 2.089670 1_555
Mg3 O17 2.093818 1_556
Mg3 O0 2.111049 1_545
Mg3 O19 2.170339 1_555
Mg3 O3 2.182737 1_545
Mg3 O13 2.444805 1_556
O0 Zr3 2.109119 1_565
O0 Zr1 2.119334 1_555
O0 Zr2 2.579649 1_555
O1 Zr4 2.113322 1_454
O1 Zr0 2.154973 1_455
O1 Zr6 2.519513 1_565
O2 Zr0 2.092776 1_455
O2 Zr5 2.094035 1_555
O2 Zr9 2.154591 1_565
O3 Zr4 2.041750 1_555
O3 Zr1 2.212877 1_555
O4 Zr2 2.060647 1_555
O4 Zr3 2.077233 1_565
O5 Zr4 2.136512 1_555
O5 Zr3 2.164509 1_665
O5 Zr8 2.194520 1_555
O5 Zr1 2.600381 1_655
O6 Zr9 2.189562 1_565
O6 Zr2 2.198067 1_555
O6 Zr5 2.265310 1_555
O7 Zr1 2.095544 1_555
O7 Zr6 2.149299 1_556
O7 Zr4 2.238163 1_455
O8 Zr7 2.144589 1_555
O8 Zr5 2.234932 1_555
O8 Zr6 2.339000 1_555
O9 Zr0 2.077184 1_555
O9 Zr7 2.150680 1_555
O9 Zr5 2.473169 1_655
O10 Zr5 2.041040 1_555
O10 Zr2 2.193560 1_555
O11 Zr1 2.144589 1_555
O11 Zr8 2.234932 1_555
O11 Zr4 2.339000 1_555
O12 Zr2 2.112926 1_555
O12 Zr8 2.153093 1_555
O12 Zr1 2.203383 1_555
O13 Zr7 2.095544 1_555
O13 Zr4 2.149299 1_554
O13 Zr6 2.238163 1_655
O14 Zr6 2.136512 1_555
O14 Zr0 2.164509 1_445
O14 Zr5 2.194520 1_555
O14 Zr7 2.600381 1_455
O15 Zr9 2.112926 1_555
O15 Zr5 2.153093 1_555
O15 Zr7 2.203383 1_555
O16 Zr8 2.041040 1_555
O16 Zr9 2.193560 1_555
O17 Zr6 2.041750 1_555
O17 Zr7 2.212877 1_555
O18 Zr3 2.077184 1_555
O18 Zr1 2.150680 1_555
O18 Zr8 2.473169 1_455
O19 Zr6 2.113322 1_656
O19 Zr3 2.154973 1_655
O19 Zr4 2.519513 1_545
O20 Zr2 2.189562 1_545
O20 Zr9 2.198067 1_555
O20 Zr8 2.265310 1_555
O21 Zr0 2.109119 1_545
O21 Zr7 2.119334 1_555
O21 Zr9 2.579649 1_555
O22 Zr9 2.060647 1_555
O22 Zr0 2.077233 1_545
O23 Zr3 2.092776 1_655
O23 Zr8 2.094035 1_555
O23 Zr2 2.154591 1_545
