# generated using pymatgen
data_SiO2
_symmetry_space_group_name_H-M   'P 1'
_cell_length_a   14.97341581
_cell_length_b   14.97341581
_cell_length_c   14.97341581
_cell_angle_alpha   159.81116260
_cell_angle_beta   124.28965493
_cell_angle_gamma   59.87175552
_symmetry_Int_Tables_number   1
_chemical_formula_structural   SiO2
_chemical_formula_sum   'Si16 O32'
_cell_volume   952.97502879
_cell_formula_units_Z   16
loop_
 _symmetry_equiv_pos_site_id
 _symmetry_equiv_pos_as_xyz
  1  'x, y, z'
loop_
 _atom_site_type_symbol
 _atom_site_label
 _atom_site_symmetry_multiplicity
 _atom_site_fract_x
 _atom_site_fract_y
 _atom_site_fract_z
 _atom_site_occupancy
  Si  Si0  1  0.92338041  0.78391920  0.13946121  1
  Si  Si1  1  0.85554201  0.21608080  0.63946121  1
  Si  Si2  1  0.07661959  0.21608080  0.86053879  1
  Si  Si3  1  0.14445799  0.78391920  0.36053879  1
  Si  Si4  1  0.90154013  0.44121878  0.46032135  1
  Si  Si5  1  0.51910257  0.55878122  0.96032135  1
  Si  Si6  1  0.09845987  0.55878122  0.53967865  1
  Si  Si7  1  0.48089743  0.44121878  0.03967865  1
  Si  Si8  1  0.94760369  0.89384007  0.05376363  1
  Si  Si9  1  0.65992356  0.10615993  0.55376363  1
  Si  Si10  1  0.05239631  0.10615993  0.94623637  1
  Si  Si11  1  0.34007644  0.89384007  0.44623637  1
  Si  Si12  1  0.27579008  0.52579008  0.75000000  1
  Si  Si13  1  0.72420992  0.47420992  0.25000000  1
  Si  Si14  1  0.20542011  0.95542011  0.25000000  1
  Si  Si15  1  0.79457989  0.04457989  0.75000000  1
  O  O0  1  0.05311474  0.80311474  0.25000000  1
  O  O1  1  0.94688526  0.19688526  0.75000000  1
  O  O2  1  0.07711628  0.91977720  0.15733907  1
  O  O3  1  0.73756087  0.08022280  0.65733907  1
  O  O4  1  0.92288372  0.08022280  0.84266093  1
  O  O5  1  0.26243913  0.91977720  0.34266093  1
  O  O6  1  0.24038320  0.24070128  0.50031708  1
  O  O7  1  0.75961680  0.75929872  0.49968292  1
  O  O8  1  0.75961680  0.25993389  0.00031708  1
  O  O9  1  0.24038320  0.74006611  0.99968292  1
  O  O10  1  0.86887688  0.50000000  0.86887688  1
  O  O11  1  0.13112312  0.00000000  0.63112312  1
  O  O12  1  0.13112312  0.50000000  0.13112312  1
  O  O13  1  0.86887688  -0.00000000  0.36887688  1
  O  O14  1  0.90019197  0.83234108  0.06785089  1
  O  O15  1  0.73550881  0.16765892  0.56785089  1
  O  O16  1  0.09980803  0.16765892  0.93214911  1
  O  O17  1  0.26449119  0.83234108  0.43214911  1
  O  O18  1  -0.00000000  0.50000000  0.50000000  1
  O  O19  1  0.50000000  0.50000000  0.00000000  1
  O  O20  1  0.21549610  0.56055435  0.65493975  1
  O  O21  1  0.59438540  0.43944565  0.15493975  1
  O  O22  1  0.78450390  0.43944565  0.34506025  1
  O  O23  1  0.40561460  0.56055435  0.84506025  1
  O  O24  1  0.90797507  0.16143696  0.24644157  1
  O  O25  1  0.58500562  0.83856304  0.24653811  1
  O  O26  1  0.09202493  0.33846750  0.25346189  1
  O  O27  1  0.41499438  0.66153250  0.25355843  1
  O  O28  1  0.09202493  0.83856304  0.75355843  1
  O  O29  1  0.41499438  0.16143696  0.75346189  1
  O  O30  1  0.90797507  0.66153250  0.74653811  1
  O  O31  1  0.58500562  0.33846750  0.74644157  1
loop_
_geom_bond_atom_site_label_1
_geom_bond_atom_site_label_2
_geom_bond_distance
_geom_bond_site_symmetry_2
O0 Si0 1.624935 1_455
O0 Si3 1.624935 1_555
O1 Si1 1.624935 1_555
O1 Si2 1.624935 1_655
O2 Si14 1.592675 1_555
O2 Si8 1.597944 1_455
O3 Si15 1.592673 1_555
O3 Si9 1.597943 1_555
O4 Si15 1.592675 1_555
O4 Si10 1.597944 1_655
O5 Si14 1.592673 1_555
O5 Si11 1.597943 1_555
O6 Si14 1.596730 1_545
O6 Si12 1.600556 1_555
O7 Si15 1.596730 1_565
O7 Si13 1.600556 1_555
O8 Si15 1.596720 1_554
O8 Si13 1.600566 1_555
O9 Si14 1.596720 1_556
O9 Si12 1.600566 1_555
O10 Si1 1.606136 1_555
O10 Si0 1.606136 1_556
O11 Si2 1.606136 1_555
O11 Si3 1.606136 1_545
O12 Si3 1.606136 1_555
O12 Si2 1.606136 1_554
O13 Si1 1.606136 1_555
O13 Si0 1.606136 1_545
O14 Si0 1.607196 1_555
O14 Si8 1.608115 1_555
O15 Si1 1.607211 1_555
O15 Si9 1.608101 1_555
O16 Si2 1.607196 1_555
O16 Si10 1.608115 1_555
O17 Si3 1.607211 1_555
O17 Si11 1.608101 1_555
O18 Si6 1.623350 1_555
O18 Si4 1.623350 1_455
O19 Si7 1.623350 1_555
O19 Si5 1.623350 1_554
O20 Si12 1.607216 1_555
O20 Si6 1.613439 1_555
O21 Si13 1.607213 1_555
O21 Si7 1.613425 1_555
O22 Si13 1.607216 1_555
O22 Si4 1.613439 1_555
O23 Si12 1.607213 1_555
O23 Si5 1.613425 1_555
O24 Si8 1.604097 1_545
O24 Si4 1.604390 1_555
O25 Si9 1.604092 1_565
O25 Si5 1.604396 1_554
O26 Si10 1.604092 1_554
O26 Si6 1.604396 1_555
O27 Si11 1.604089 1_555
O27 Si7 1.604402 1_555
O28 Si10 1.604097 1_565
O28 Si6 1.604390 1_555
O29 Si11 1.604092 1_545
O29 Si7 1.604396 1_556
O30 Si8 1.604092 1_556
O30 Si4 1.604396 1_555
O31 Si9 1.604089 1_555
O31 Si5 1.604402 1_555
