# generated using pymatgen
data_Na3Nd5Cl18
_symmetry_space_group_name_H-M   'P 1'
_cell_length_a   7.57525152
_cell_length_b   7.57544833
_cell_length_c   12.66621261
_cell_angle_alpha   89.99973218
_cell_angle_beta   90.00026215
_cell_angle_gamma   120.00376042
_symmetry_Int_Tables_number   1
_chemical_formula_structural   Na3Nd5Cl18
_chemical_formula_sum   'Na3 Nd5 Cl18'
_cell_volume   629.45740252
_cell_formula_units_Z   1
loop_
 _symmetry_equiv_pos_site_id
 _symmetry_equiv_pos_as_xyz
  1  'x, y, z'
loop_
 _atom_site_type_symbol
 _atom_site_label
 _atom_site_symmetry_multiplicity
 _atom_site_fract_x
 _atom_site_fract_y
 _atom_site_fract_z
 _atom_site_occupancy
  Na  Na0  1  -0.00039984  -0.00054746  0.49994953  1
  Na  Na1  1  0.66671532  0.33336442  0.33254216  1
  Na  Na2  1  0.66671444  0.33337085  0.66746357  1
  Nd  Nd0  1  0.00004636  0.00003933  0.83298751  1
  Nd  Nd1  1  0.00004024  0.00002791  0.16700916  1
  Nd  Nd2  1  0.33332585  0.66666857  0.00000409  1
  Nd  Nd3  1  0.33332861  0.66669079  0.33627277  1
  Nd  Nd4  1  0.33333231  0.66669816  0.66373633  1
  Cl  Cl0  1  0.97442916  0.24725224  0.00000006  1
  Cl  Cl1  1  0.97894126  0.25238241  0.32760388  1
  Cl  Cl2  1  0.97894968  0.25239466  0.67239036  1
  Cl  Cl3  1  0.75280394  0.72721735  0.00000193  1
  Cl  Cl4  1  0.74761778  0.72654984  0.32760529  1
  Cl  Cl5  1  0.74762501  0.72656478  0.67239532  1
  Cl  Cl6  1  0.05452592  0.63348849  0.83478864  1
  Cl  Cl7  1  0.05452138  0.63348210  0.16522455  1
  Cl  Cl8  1  0.04829939  0.61631220  0.49999975  1
  Cl  Cl9  1  0.27289890  0.02559634  0.00000698  1
  Cl  Cl10  1  0.27350365  0.02111297  0.32760977  1
  Cl  Cl11  1  0.27350317  0.02111016  0.67239129  1
  Cl  Cl12  1  0.57895074  0.94543992  0.83480145  1
  Cl  Cl13  1  0.57894876  0.94543406  0.16520371  1
  Cl  Cl14  1  0.56797293  0.95169461  0.49999883  1
  Cl  Cl15  1  0.36653500  0.42110305  0.83480397  1
  Cl  Cl16  1  0.36652813  0.42109908  0.16520335  1
  Cl  Cl17  1  0.38367390  0.43212215  0.50000374  1
loop_
_geom_bond_atom_site_label_1
_geom_bond_atom_site_label_2
_geom_bond_distance
_geom_bond_site_symmetry_2
Cl0 Nd1 2.895393 1_655
Cl0 Nd0 2.895399 1_654
Cl0 Nd2 2.974460 1_655
Cl1 Na1 2.724984 1_555
Cl1 Nd1 2.850163 1_655
Cl1 Nd3 2.939888 1_655
Cl1 Na0 2.959891 1_655
Cl2 Na2 2.725020 1_555
Cl2 Nd0 2.850169 1_655
Cl2 Nd4 2.939844 1_655
Cl2 Na0 2.960833 1_655
Cl3 Nd1 2.895242 1_665
Cl3 Nd0 2.895354 1_664
Cl3 Nd2 2.974922 1_555
Cl4 Na1 2.725007 1_555
Cl4 Nd1 2.850301 1_665
Cl4 Nd3 2.940003 1_555
Cl4 Na0 2.955705 1_665
Cl5 Na2 2.725049 1_555
Cl5 Nd0 2.850253 1_665
Cl5 Nd4 2.940002 1_555
Cl5 Na0 2.956595 1_665
Cl6 Nd2 2.893421 1_556
Cl6 Nd4 2.947318 1_555
Cl6 Nd0 3.004577 1_565
Cl7 Nd2 2.893490 1_555
Cl7 Nd3 2.947274 1_555
Cl7 Nd1 3.004545 1_565
Cl8 Nd3 2.878232 1_555
Cl8 Nd4 2.878314 1_555
Cl8 Na0 3.103423 1_565
Cl8 Na1 3.354435 1_455
Cl8 Na2 3.354482 1_455
Cl9 Nd1 2.895507 1_555
Cl9 Nd0 2.895648 1_554
Cl9 Nd2 2.974472 1_545
Cl10 Na1 2.724895 1_555
Cl10 Nd1 2.850240 1_555
Cl10 Nd3 2.939907 1_545
Cl10 Na0 2.959162 1_555
Cl11 Na2 2.724914 1_555
Cl11 Nd0 2.850211 1_555
Cl11 Nd4 2.939847 1_545
Cl11 Na0 2.960106 1_555
Cl12 Nd2 2.893189 1_556
Cl12 Nd4 2.947239 1_555
Cl12 Nd0 3.004590 1_665
Cl13 Nd2 2.893141 1_555
Cl13 Nd3 2.947282 1_555
Cl13 Nd1 3.004574 1_665
Cl14 Nd3 2.878090 1_555
Cl14 Nd4 2.878160 1_555
Cl14 Na0 3.104620 1_665
Cl14 Na1 3.354856 1_565
Cl14 Na2 3.354971 1_565
Cl15 Nd2 2.893156 1_556
Cl15 Nd4 2.947471 1_555
Cl15 Nd0 3.004334 1_555
Cl16 Nd2 2.893133 1_555
Cl16 Nd3 2.947475 1_555
Cl16 Nd1 3.004364 1_555
Cl17 Nd3 2.877783 1_555
Cl17 Nd4 2.877838 1_555
Cl17 Na0 3.109778 1_555
Cl17 Na2 3.355577 1_555
Cl17 Na1 3.355639 1_555
