# generated using pymatgen
data_LiNbGeO5
_symmetry_space_group_name_H-M   'P 1'
_cell_length_a   6.73904678
_cell_length_b   7.52397345
_cell_length_c   7.82183629
_cell_angle_alpha   90.00000000
_cell_angle_beta   90.00000000
_cell_angle_gamma   90.00000000
_symmetry_Int_Tables_number   1
_chemical_formula_structural   LiNbGeO5
_chemical_formula_sum   'Li4 Nb4 Ge4 O20'
_cell_volume   396.60158678
_cell_formula_units_Z   4
loop_
 _symmetry_equiv_pos_site_id
 _symmetry_equiv_pos_as_xyz
  1  'x, y, z'
loop_
 _atom_site_type_symbol
 _atom_site_label
 _atom_site_symmetry_multiplicity
 _atom_site_fract_x
 _atom_site_fract_y
 _atom_site_fract_z
 _atom_site_occupancy
  Li  Li0  1  -0.00000000  0.00000000  0.00000000  1
  Li  Li1  1  0.50000000  0.00000000  0.00000000  1
  Li  Li2  1  -0.00000000  0.50000000  0.50000000  1
  Li  Li3  1  0.50000000  0.50000000  0.50000000  1
  Nb  Nb0  1  0.25000000  0.72680639  0.16259383  1
  Nb  Nb1  1  0.25000000  0.77319361  0.66259383  1
  Nb  Nb2  1  0.75000000  0.22680639  0.33740617  1
  Nb  Nb3  1  0.75000000  0.27319361  0.83740617  1
  Ge  Ge0  1  0.75000000  0.63428273  0.13092867  1
  Ge  Ge1  1  0.75000000  0.86571727  0.63092867  1
  Ge  Ge2  1  0.25000000  0.13428273  0.36907133  1
  Ge  Ge3  1  0.25000000  0.36571727  0.86907133  1
  O  O0  1  0.95914886  0.77017167  0.12429595  1
  O  O1  1  0.25000000  0.83935632  0.88677029  1
  O  O2  1  0.75000000  0.16064368  0.11322971  1
  O  O3  1  0.75000000  0.33935632  0.61322971  1
  O  O4  1  0.25000000  0.66064368  0.38677029  1
  O  O5  1  0.04085114  0.27017167  0.37570405  1
  O  O6  1  0.54085114  0.72982833  0.62429595  1
  O  O7  1  0.25000000  0.00290740  0.55530218  1
  O  O8  1  0.25000000  0.49781111  0.68482738  1
  O  O9  1  0.75000000  0.50218889  0.31517262  1
  O  O10  1  0.75000000  0.99781111  0.81517262  1
  O  O11  1  0.25000000  0.00218889  0.18482738  1
  O  O12  1  0.75000000  0.50290740  0.94469782  1
  O  O13  1  0.75000000  0.99709260  0.44469782  1
  O  O14  1  0.95914886  0.72982833  0.62429595  1
  O  O15  1  0.25000000  0.49709260  0.05530218  1
  O  O16  1  0.54085114  0.77017167  0.12429595  1
  O  O17  1  0.04085114  0.22982833  0.87570405  1
  O  O18  1  0.45914886  0.27017167  0.37570405  1
  O  O19  1  0.45914886  0.22982833  0.87570405  1
loop_
_geom_bond_atom_site_label_1
_geom_bond_atom_site_label_2
_geom_bond_distance
_geom_bond_site_symmetry_2
Li0 O17 2.002802 1_554
Li0 O0 2.002802 1_445
Li0 O11 2.220070 1_555
Li0 O10 2.220070 1_444
Li0 O1 2.254712 1_544
Li0 O2 2.254712 1_455
Li1 O19 2.002802 1_554
Li1 O16 2.002802 1_545
Li1 O11 2.220070 1_555
Li1 O10 2.220070 1_544
Li1 O1 2.254712 1_544
Li1 O2 2.254712 1_555
Li2 O5 2.002802 1_555
Li2 O14 2.002802 1_455
Li2 O8 2.220070 1_555
Li2 O9 2.220070 1_455
Li2 O3 2.254712 1_455
Li2 O4 2.254712 1_555
Li3 O18 2.002802 1_555
Li3 O6 2.002802 1_555
Li3 O8 2.220070 1_555
Li3 O9 2.220070 1_555
Li3 O3 2.254712 1_555
Li3 O4 2.254712 1_555
Nb0 O4 1.822765 1_555
Nb0 O15 1.921332 1_555
Nb0 O0 2.009484 1_455
Nb0 O16 2.009484 1_555
Nb0 O11 2.079256 1_565
Nb0 O1 2.317689 1_554
Nb1 O1 1.822765 1_555
Nb1 O7 1.921332 1_565
Nb1 O14 2.009484 1_455
Nb1 O6 2.009484 1_555
Nb1 O8 2.079256 1_555
Nb1 O4 2.317689 1_555
Nb2 O2 1.822765 1_555
Nb2 O13 1.921332 1_545
Nb2 O5 2.009484 1_655
Nb2 O18 2.009484 1_555
Nb2 O9 2.079256 1_555
Nb2 O3 2.317689 1_555
Nb3 O3 1.822765 1_555
Nb3 O12 1.921332 1_555
Nb3 O17 2.009484 1_655
Nb3 O19 2.009484 1_555
Nb3 O10 2.079256 1_545
Nb3 O2 2.317689 1_556
Ge0 O0 1.742020 1_555
Ge0 O16 1.742020 1_555
Ge0 O9 1.750606 1_555
Ge0 O12 1.760381 1_554
Ge1 O14 1.742020 1_555
Ge1 O6 1.742020 1_555
Ge1 O10 1.750606 1_555
Ge1 O13 1.760381 1_555
Ge2 O18 1.742020 1_555
Ge2 O5 1.742020 1_555
Ge2 O11 1.750606 1_555
Ge2 O7 1.760381 1_555
Ge3 O17 1.742020 1_555
Ge3 O19 1.742020 1_555
Ge3 O8 1.750606 1_555
Ge3 O15 1.760381 1_556
