# generated using pymatgen
data_La13Al12Si18(N13O5)3
_symmetry_space_group_name_H-M   'P 1'
_cell_length_a   11.76759991
_cell_length_b   11.76759991
_cell_length_c   11.76760010
_cell_angle_alpha   109.53735808
_cell_angle_beta   109.53735808
_cell_angle_gamma   109.53736277
_symmetry_Int_Tables_number   1
_chemical_formula_structural   La13Al12Si18(N13O5)3
_chemical_formula_sum   'La13 Al12 Si18 N39 O15'
_cell_volume   1251.33546481
_cell_formula_units_Z   1
loop_
 _symmetry_equiv_pos_site_id
 _symmetry_equiv_pos_as_xyz
  1  'x, y, z'
loop_
 _atom_site_type_symbol
 _atom_site_label
 _atom_site_symmetry_multiplicity
 _atom_site_fract_x
 _atom_site_fract_y
 _atom_site_fract_z
 _atom_site_occupancy
  La  La0  1  0.99263400  0.42002600  0.67709000  1
  La  La1  1  0.99263400  0.67709000  0.42002600  1
  La  La2  1  0.32457400  0.74756000  0.32457400  1
  La  La3  1  0.25951400  0.58976000  0.58976000  1
  La  La4  1  0.99220400  0.99220400  0.99220400  1
  La  La5  1  0.42002600  0.99263400  0.67709000  1
  La  La6  1  0.42002600  0.67709000  0.99263400  1
  La  La7  1  0.32457400  0.32457400  0.74756000  1
  La  La8  1  0.67709000  0.42002600  0.99263400  1
  La  La9  1  0.67709000  0.99263400  0.42002600  1
  La  La10  1  0.74756000  0.32457400  0.32457400  1
  La  La11  1  0.58976000  0.25951400  0.58976000  1
  La  La12  1  0.58976000  0.58976000  0.25951400  1
  Al  Al0  1  0.00032100  0.75373100  0.16085000  1
  Al  Al1  1  0.00032100  0.16085000  0.75373100  1
  Al  Al2  1  0.24561000  0.40718900  0.24561000  1
  Al  Al3  1  0.16085000  0.75373100  0.00032100  1
  Al  Al4  1  0.16085000  0.00032100  0.75373100  1
  Al  Al5  1  0.24561000  0.24561000  0.40718900  1
  Al  Al6  1  0.59038400  0.83808800  0.83808800  1
  Al  Al7  1  0.75373100  0.00032100  0.16085000  1
  Al  Al8  1  0.75373100  0.16085000  0.00032100  1
  Al  Al9  1  0.40718900  0.24561000  0.24561000  1
  Al  Al10  1  0.83808800  0.59038400  0.83808800  1
  Al  Al11  1  0.83808800  0.83808800  0.59038400  1
  Si  Si0  1  0.00103600  0.30098000  0.30098000  1
  Si  Si1  1  0.99946000  0.15955700  0.45936800  1
  Si  Si2  1  0.99946000  0.45936800  0.15955700  1
  Si  Si3  1  0.15955700  0.45936800  0.99946000  1
  Si  Si4  1  0.15955700  0.99946000  0.45936800  1
  Si  Si5  1  0.54010200  0.69782900  0.54010200  1
  Si  Si6  1  0.30185200  0.84078100  0.84078100  1
  Si  Si7  1  0.30098000  0.00103600  0.30098000  1
  Si  Si8  1  0.30098000  0.30098000  0.00103600  1
  Si  Si9  1  0.45936800  0.99946000  0.15955700  1
  Si  Si10  1  0.45936800  0.15955700  0.99946000  1
  Si  Si11  1  0.54010200  0.54010200  0.69782900  1
  Si  Si12  1  0.84078100  0.30185200  0.84078100  1
  Si  Si13  1  0.70240200  0.99876600  0.70240200  1
  Si  Si14  1  0.70240200  0.70240200  0.99876600  1
  Si  Si15  1  0.69782900  0.54010200  0.54010200  1
  Si  Si16  1  0.84078100  0.84078100  0.30185200  1
  Si  Si17  1  0.99876600  0.70240200  0.70240200  1
  N  N0  1  0.00025100  0.44914300  0.30336600  1
  N  N1  1  0.00025100  0.30336600  0.44914300  1
  N  N2  1  0.14992600  0.47624400  0.14992600  1
  N  N3  1  0.14882100  0.30264000  0.30264000  1
  N  N4  1  0.15667100  0.84836300  0.15667100  1
  N  N5  1  0.00113500  0.85154100  0.32307500  1
  N  N6  1  0.00113500  0.32307500  0.85154100  1
  N  N7  1  0.14177000  0.69727500  0.69727500  1
  N  N8  1  0.00015300  0.70042100  0.84822800  1
  N  N9  1  0.00015300  0.84822800  0.70042100  1
  N  N10  1  0.30336600  0.00025100  0.44914300  1
  N  N11  1  0.30336600  0.44914300  0.00025100  1
  N  N12  1  0.14992600  0.14992600  0.47624400  1
  N  N13  1  0.30264000  0.14882100  0.30264000  1
  N  N14  1  0.52713400  0.67380100  0.67380100  1
  N  N15  1  0.42117600  0.81064300  0.81064300  1
  N  N16  1  0.15667100  0.15667100  0.84836300  1
  N  N17  1  0.32307500  0.85154100  0.00113500  1
  N  N18  1  0.32307500  0.00113500  0.85154100  1
  N  N19  1  0.69727500  0.14177000  0.69727500  1
  N  N20  1  0.70042100  0.00015300  0.84822800  1
  N  N21  1  0.70042100  0.84822800  0.00015300  1
  N  N22  1  0.44914300  0.30336600  0.00025100  1
  N  N23  1  0.44914300  0.00025100  0.30336600  1
  N  N24  1  0.47624400  0.14992600  0.14992600  1
  N  N25  1  0.30264000  0.30264000  0.14882100  1
  N  N26  1  0.55239500  0.85280500  0.55239500  1
  N  N27  1  0.55239500  0.55239500  0.85280500  1
  N  N28  1  0.81064300  0.42117600  0.81064300  1
  N  N29  1  0.84836300  0.15667100  0.15667100  1
  N  N30  1  0.85154100  0.32307500  0.00113500  1
  N  N31  1  0.85154100  0.00113500  0.32307500  1
  N  N32  1  0.69727500  0.69727500  0.14177000  1
  N  N33  1  0.84822800  0.00015300  0.70042100  1
  N  N34  1  0.84822800  0.70042100  0.00015300  1
  N  N35  1  0.67380100  0.52713400  0.67380100  1
  N  N36  1  0.67380100  0.67380100  0.52713400  1
  N  N37  1  0.85280500  0.55239500  0.55239500  1
  N  N38  1  0.81064300  0.81064300  0.42117600  1
  O  O0  1  0.24919400  0.75379800  0.49692100  1
  O  O1  1  0.24919400  0.49692100  0.75379800  1
  O  O2  1  0.18374200  0.99796100  0.60752600  1
  O  O3  1  0.18374200  0.60752600  0.99796100  1
  O  O4  1  0.39059300  0.57588500  0.39059300  1
  O  O5  1  0.39059300  0.39059300  0.57588500  1
  O  O6  1  0.49692100  0.75379800  0.24919400  1
  O  O7  1  0.49692100  0.24919400  0.75379800  1
  O  O8  1  0.60752600  0.18374200  0.99796100  1
  O  O9  1  0.60752600  0.99796100  0.18374200  1
  O  O10  1  0.57588500  0.39059300  0.39059300  1
  O  O11  1  0.75379800  0.49692100  0.24919400  1
  O  O12  1  0.75379800  0.24919400  0.49692100  1
  O  O13  1  0.99796100  0.60752600  0.18374200  1
  O  O14  1  0.99796100  0.18374200  0.60752600  1
loop_
_geom_bond_atom_site_label_1
_geom_bond_atom_site_label_2
_geom_bond_distance
_geom_bond_site_symmetry_2
La0 O12 2.412524 1_555
La0 O1 2.559739 1_655
La0 N1 2.620689 1_655
La0 N6 2.651670 1_655
La0 O14 2.652118 1_555
La1 O11 2.412524 1_555
La1 O0 2.559739 1_655
La1 N0 2.620689 1_655
La1 N5 2.651670 1_655
La1 O13 2.652118 1_555
La2 O6 2.460224 1_555
La2 O0 2.460224 1_555
La2 N26 2.580650 1_555
La2 O4 2.642743 1_555
La2 N2 2.653046 1_555
La2 N23 2.979733 1_565
La2 N10 2.979733 1_565
La2 N4 3.120721 1_555
La2 O13 3.148198 1_455
La2 O3 3.148198 1_554
La3 N15 2.449081 1_555
La3 N7 2.528945 1_555
La3 O0 2.532397 1_555
La3 O1 2.532397 1_555
La3 N14 2.655839 1_555
La4 N34 3.331466 1_556
La4 N21 3.331466 1_556
La4 N20 3.331466 1_565
La4 N8 3.331466 1_655
La4 N9 3.331467 1_655
La4 N33 3.331467 1_565
La4 N25 3.486378 1_666
La4 N13 3.486379 1_666
La4 N3 3.486379 1_666
La4 N16 3.497631 1_665
La4 N4 3.497631 1_656
La4 N29 3.497631 1_566
La5 O0 2.412524 1_555
La5 O7 2.559739 1_565
La5 N10 2.620689 1_565
La5 N18 2.651670 1_565
La5 O2 2.652118 1_555
La6 O1 2.412524 1_555
La6 O6 2.559739 1_556
La6 N11 2.620689 1_556
La6 N17 2.651670 1_556
La6 O3 2.652118 1_555
La7 O1 2.460224 1_555
La7 O7 2.460224 1_555
La7 N27 2.580650 1_555
La7 O5 2.642743 1_555
La7 N12 2.653046 1_555
La7 N11 2.979733 1_556
La7 N22 2.979733 1_556
La7 N16 3.120721 1_555
La7 O2 3.148198 1_545
La7 O14 3.148198 1_455
La8 O7 2.412524 1_555
La8 O11 2.559739 1_556
La8 N22 2.620689 1_556
La8 N30 2.651670 1_556
La8 O8 2.652118 1_555
La9 O6 2.412524 1_555
La9 O12 2.559739 1_565
La9 N23 2.620689 1_565
La9 N31 2.651670 1_565
La9 O9 2.652118 1_555
La10 O11 2.460224 1_555
La10 O12 2.460224 1_555
La10 N37 2.580650 1_555
La10 O10 2.642743 1_555
La10 N24 2.653046 1_555
La10 N0 2.979733 1_655
La10 N1 2.979733 1_655
La10 N29 3.120721 1_555
La10 O9 3.148198 1_545
La10 O8 3.148198 1_554
La11 N28 2.449081 1_555
La11 N19 2.528945 1_555
La11 O12 2.532397 1_555
La11 O7 2.532397 1_555
La11 N35 2.655839 1_555
La12 N38 2.449081 1_555
La12 N32 2.528945 1_555
La12 O11 2.532397 1_555
La12 O6 2.532397 1_555
La12 N36 2.655839 1_555
Al0 O13 1.821107 1_455
Al0 N4 1.831498 1_555
Al0 N34 1.834304 1_455
Al0 N5 1.865458 1_555
Al1 O14 1.821107 1_455
Al1 N16 1.831498 1_555
Al1 N33 1.834304 1_455
Al1 N6 1.865458 1_555
Al2 O4 1.812446 1_555
Al2 N3 1.840519 1_555
Al2 N25 1.840519 1_555
Al2 N2 1.889959 1_555
Al3 O3 1.821107 1_554
Al3 N4 1.831498 1_555
Al3 N8 1.834304 1_554
Al3 N17 1.865458 1_555
Al4 O2 1.821107 1_545
Al4 N16 1.831498 1_555
Al4 N9 1.834304 1_545
Al4 N18 1.865458 1_555
Al5 O5 1.812446 1_555
Al5 N3 1.840519 1_555
Al5 N13 1.840519 1_555
Al5 N12 1.889959 1_555
Al6 N15 1.800939 1_555
Al6 N20 1.849537 1_565
Al6 N21 1.849537 1_556
Al6 N14 1.898515 1_555
Al7 O9 1.821107 1_545
Al7 N29 1.831498 1_555
Al7 N21 1.834304 1_545
Al7 N31 1.865458 1_555
Al8 O8 1.821107 1_554
Al8 N29 1.831498 1_555
Al8 N20 1.834304 1_554
Al8 N30 1.865458 1_555
Al9 O10 1.812446 1_555
Al9 N13 1.840519 1_555
Al9 N25 1.840519 1_555
Al9 N24 1.889959 1_555
Al10 N28 1.800939 1_555
Al10 N8 1.849537 1_655
Al10 N34 1.849537 1_556
Al10 N35 1.898515 1_555
Al11 N38 1.800939 1_555
Al11 N9 1.849537 1_655
Al11 N33 1.849537 1_565
Al11 N36 1.898515 1_555
N0 Si2 1.733437 1_455
N0 Si0 1.737512 1_555
N1 Si1 1.733437 1_455
N1 Si0 1.737512 1_555
N2 Si2 1.761101 1_455
N2 Si3 1.761101 1_554
N3 Si0 1.726107 1_555
N4 Si7 1.727815 1_565
N5 Si4 1.743604 1_555
N5 Si16 1.772836 1_455
N6 Si3 1.743604 1_555
N6 Si12 1.772836 1_455
N7 Si17 1.724100 1_455
N7 Si6 1.757662 1_555
N8 Si17 1.718668 1_455
N9 Si17 1.718668 1_455
N10 Si4 1.733437 1_545
N10 Si7 1.737512 1_555
N11 Si3 1.733437 1_554
N11 Si8 1.737512 1_555
N12 Si4 1.761101 1_545
N12 Si1 1.761101 1_455
N13 Si7 1.726107 1_555
N14 Si11 1.734308 1_555
N14 Si5 1.734308 1_555
N15 Si6 1.674884 1_555
N16 Si8 1.727815 1_556
N17 Si9 1.743604 1_555
N17 Si6 1.772836 1_554
N18 Si10 1.743604 1_555
N18 Si6 1.772836 1_545
N19 Si13 1.724100 1_545
N19 Si12 1.757662 1_555
N20 Si13 1.718668 1_545
N21 Si14 1.718668 1_554
N22 Si10 1.733437 1_554
N22 Si8 1.737512 1_555
N23 Si9 1.733437 1_545
N23 Si7 1.737512 1_555
N24 Si9 1.761101 1_545
N24 Si10 1.761101 1_554
N25 Si8 1.726107 1_555
N26 Si5 1.732288 1_555
N26 Si13 1.744210 1_555
N27 Si11 1.732288 1_555
N27 Si14 1.744210 1_555
N28 Si12 1.674884 1_555
N29 Si0 1.727815 1_655
N30 Si2 1.743604 1_555
N30 Si12 1.772836 1_554
N31 Si1 1.743604 1_555
N31 Si16 1.772836 1_545
N32 Si14 1.724100 1_554
N32 Si16 1.757662 1_555
N33 Si13 1.718668 1_545
N34 Si14 1.718668 1_554
N35 Si11 1.734308 1_555
N35 Si15 1.734308 1_555
N36 Si15 1.734308 1_555
N36 Si5 1.734308 1_555
N37 Si15 1.732288 1_555
N37 Si17 1.744210 1_555
N38 Si16 1.674884 1_555
O2 Si4 1.677209 1_555
O3 Si3 1.677209 1_555
O4 Si5 1.674034 1_555
O5 Si11 1.674033 1_555
O8 Si10 1.677209 1_555
O9 Si9 1.677209 1_555
O10 Si15 1.674034 1_555
O13 Si2 1.677209 1_555
O14 Si1 1.677209 1_555
