# generated using pymatgen
data_SbTe(SeF3)2
_symmetry_space_group_name_H-M   'P 1'
_cell_length_a   9.63873100
_cell_length_b   12.68036300
_cell_length_c   15.10997100
_cell_angle_alpha   90.00000000
_cell_angle_beta   90.00000000
_cell_angle_gamma   90.00000000
_symmetry_Int_Tables_number   1
_chemical_formula_structural   SbTe(SeF3)2
_chemical_formula_sum   'Sb8 Te8 Se16 F48'
_cell_volume   1846.78006151
_cell_formula_units_Z   8
loop_
 _symmetry_equiv_pos_site_id
 _symmetry_equiv_pos_as_xyz
  1  'x, y, z'
loop_
 _atom_site_type_symbol
 _atom_site_label
 _atom_site_symmetry_multiplicity
 _atom_site_fract_x
 _atom_site_fract_y
 _atom_site_fract_z
 _atom_site_occupancy
  Sb  Sb0  1  0.75976700  0.45142000  0.11636200  1
  Sb  Sb1  1  0.74023300  0.54858000  0.61636200  1
  Sb  Sb2  1  0.90097900  0.25953200  0.86134900  1
  Sb  Sb3  1  0.40097900  0.24046800  0.13865100  1
  Sb  Sb4  1  0.59902100  0.74046800  0.36134900  1
  Sb  Sb5  1  0.25976700  0.04858000  0.88363800  1
  Sb  Sb6  1  0.24023300  0.95142000  0.38363800  1
  Sb  Sb7  1  0.09902100  0.75953200  0.63865100  1
  Te  Te0  1  0.60678600  0.09380000  0.04826900  1
  Te  Te1  1  0.39321400  0.59380000  0.45173100  1
  Te  Te2  1  0.82035100  0.99997400  0.19290600  1
  Te  Te3  1  0.32035100  0.50002600  0.80709400  1
  Te  Te4  1  0.89321400  0.90620000  0.54826900  1
  Te  Te5  1  0.17964900  0.49997400  0.30709400  1
  Te  Te6  1  0.67964900  0.00002600  0.69290600  1
  Te  Te7  1  0.10678600  0.40620000  0.95173100  1
  Se  Se0  1  0.32766900  0.32881400  0.32524100  1
  Se  Se1  1  0.15875100  0.10426900  0.16007000  1
  Se  Se2  1  0.47379000  0.89710500  0.09636300  1
  Se  Se3  1  0.43533200  0.39673500  0.54803100  1
  Se  Se4  1  0.06466800  0.60326500  0.04803100  1
  Se  Se5  1  0.67233100  0.82881400  0.17475900  1
  Se  Se6  1  0.84124900  0.60426900  0.33993000  1
  Se  Se7  1  0.17233100  0.67118600  0.82524100  1
  Se  Se8  1  0.65875100  0.39573100  0.83993000  1
  Se  Se9  1  0.52621000  0.39710500  0.40363700  1
  Se  Se10  1  0.56466800  0.89673500  0.95196900  1
  Se  Se11  1  0.93533200  0.10326500  0.45196900  1
  Se  Se12  1  0.02621000  0.10289500  0.59636300  1
  Se  Se13  1  0.82766900  0.17118600  0.67475900  1
  Se  Se14  1  0.34124900  0.89573100  0.66007000  1
  Se  Se15  1  0.97379000  0.60289500  0.90363700  1
  F  F0  1  0.45121500  0.59668900  0.75069700  1
  F  F1  1  0.75156900  0.79309400  0.51328000  1
  F  F2  1  0.72765300  0.48526300  0.25111300  1
  F  F3  1  0.45750300  0.25777800  0.57682700  1
  F  F4  1  0.54878500  0.09668900  0.74930300  1
  F  F5  1  0.90027200  0.65408600  0.23354100  1
  F  F6  1  0.76073300  0.56707100  0.47457200  1
  F  F7  1  0.99796600  0.33110300  0.76410500  1
  F  F8  1  0.90299300  0.95585600  0.07843300  1
  F  F9  1  0.00203400  0.83110300  0.73589500  1
  F  F10  1  0.44659800  0.79632800  0.60737200  1
  F  F11  1  0.77234700  0.51473700  0.75111300  1
  F  F12  1  0.26073300  0.93292900  0.52542800  1
  F  F13  1  0.04249700  0.74222200  0.07682700  1
  F  F14  1  0.24843100  0.29309400  0.98672000  1
  F  F15  1  0.05340200  0.20367200  0.10737200  1
  F  F16  1  0.09972800  0.15408600  0.26645900  1
  F  F17  1  0.76237100  0.99031700  0.81551700  1
  F  F18  1  0.41298500  0.86118400  0.37013100  1
  F  F19  1  0.94659800  0.70367200  0.39262800  1
  F  F20  1  0.23762900  0.49031700  0.68448300  1
  F  F21  1  0.23926700  0.06707100  0.02542800  1
  F  F22  1  0.26237100  0.50968300  0.18448300  1
  F  F23  1  0.04878500  0.40331100  0.25069700  1
  F  F24  1  0.27234700  0.98526300  0.24888700  1
  F  F25  1  0.73762900  0.00968300  0.31551700  1
  F  F26  1  0.59972800  0.34591400  0.73354100  1
  F  F27  1  0.22765300  0.01473700  0.74888700  1
  F  F28  1  0.58701500  0.36118400  0.12986900  1
  F  F29  1  0.55340200  0.29632800  0.89262800  1
  F  F30  1  0.40027200  0.84591400  0.76645900  1
  F  F31  1  0.95121500  0.90331100  0.24930300  1
  F  F32  1  0.91298500  0.63881600  0.62986900  1
  F  F33  1  0.65877500  0.57818200  0.09542200  1
  F  F34  1  0.40299300  0.54414400  0.92156700  1
  F  F35  1  0.15877500  0.92181800  0.90457800  1
  F  F36  1  0.59700700  0.04414400  0.57843300  1
  F  F37  1  0.25156900  0.70690600  0.48672000  1
  F  F38  1  0.74843100  0.20690600  0.01328000  1
  F  F39  1  0.73926700  0.43292900  0.97457200  1
  F  F40  1  0.08701500  0.13881600  0.87013100  1
  F  F41  1  0.09700700  0.45585600  0.42156700  1
  F  F42  1  0.95750300  0.24222200  0.42317300  1
  F  F43  1  0.54249700  0.75777800  0.92317300  1
  F  F44  1  0.84122500  0.42181800  0.59542200  1
  F  F45  1  0.50203400  0.66889700  0.26410500  1
  F  F46  1  0.49796600  0.16889700  0.23589500  1
  F  F47  1  0.34122500  0.07818200  0.40457800  1
loop_
_geom_bond_atom_site_label_1
_geom_bond_atom_site_label_2
_geom_bond_distance
_geom_bond_site_symmetry_2
Sb2 Se13 3.114985 1_555
Sb3 Se0 3.114985 1_555
Sb4 Se5 3.114985 1_555
Sb7 Se7 3.114985 1_555
Se0 Se9 2.411482 1_555
Se0 Te5 2.611750 1_555
Se2 Se5 2.411482 1_555
Se2 Te0 2.896937 1_565
Se3 Se9 2.351066 1_555
Se5 Te2 2.611750 1_555
Se7 Te3 2.611750 1_555
Se9 Te1 2.896937 1_555
Se10 Se2 2.351066 1_556
Se11 Se12 2.351066 1_655
Se12 Se13 2.411482 1_455
Se12 Te4 2.896937 1_445
Se13 Te6 2.611750 1_555
Se15 Se4 2.351066 1_656
Se15 Se7 2.411482 1_655
Se15 Te7 2.896937 1_655
F0 Te3 1.954380 1_555
F1 Te4 2.049510 1_555
F2 Sb0 2.103714 1_555
F2 Se6 2.297189 1_555
F3 Se3 1.827490 1_555
F4 Te6 1.954380 1_555
F5 Se6 1.818479 1_555
F6 Sb1 2.164274 1_555
F6 Se6 2.227938 1_555
F7 Sb2 1.963810 1_555
F8 Te2 1.984763 1_555
F9 Sb7 1.963810 1_555
F10 Se14 1.803860 1_555
F11 Sb1 2.103714 1_555
F11 Se8 2.297189 1_555
F12 Sb6 2.164274 1_555
F12 Se14 2.227938 1_555
F13 Se4 1.827490 1_555
F14 Te7 2.049510 1_555
F15 Se1 1.803860 1_555
F16 Se1 1.818479 1_555
F17 Te6 2.020695 1_565
F18 Sb6 2.030639 1_555
F18 Sb4 2.361379 1_555
F19 Se6 1.803860 1_555
F20 Te3 2.020695 1_555
F21 Sb5 2.164274 1_554
F21 Se1 2.227938 1_555
F22 Te5 2.020695 1_555
F23 Te5 1.954380 1_555
F24 Sb6 2.103714 1_555
F24 Se1 2.297189 1_565
F25 Te2 2.020695 1_545
F26 Se8 1.818479 1_555
F27 Sb5 2.103714 1_555
F27 Se14 2.297189 1_545
F28 Sb0 2.030639 1_555
F28 Sb3 2.361379 1_555
F29 Se8 1.803860 1_555
F30 Se14 1.818479 1_555
F31 Te2 1.954380 1_555
F32 Sb1 2.030639 1_555
F32 Sb7 2.361379 1_655
F33 Sb0 1.905619 1_555
F34 Te3 1.984763 1_555
F35 Sb5 1.905619 1_565
F36 Te6 1.984763 1_555
F37 Te1 2.049510 1_555
F38 Te0 2.049510 1_555
F39 Sb0 2.164274 1_556
F39 Se8 2.227938 1_555
F40 Sb5 2.030639 1_555
F40 Sb2 2.361379 1_455
F41 Te5 1.984763 1_555
F42 Se11 1.827490 1_555
F43 Se10 1.827490 1_555
F44 Sb1 1.905619 1_555
F45 Sb4 1.963810 1_555
F46 Sb3 1.963810 1_555
F47 Sb6 1.905619 1_545
