# generated using pymatgen
data_NaAl3Tl2(SiO4)3
_symmetry_space_group_name_H-M   'P 1'
_cell_length_a   12.55092700
_cell_length_b   12.55092700
_cell_length_c   12.42000100
_cell_angle_alpha   90.00000000
_cell_angle_beta   90.00000000
_cell_angle_gamma   90.00000000
_symmetry_Int_Tables_number   1
_chemical_formula_structural   NaAl3Tl2(SiO4)3
_chemical_formula_sum   'Na4 Al12 Tl8 Si12 O48'
_cell_volume   1956.47020303
_cell_formula_units_Z   4
loop_
 _symmetry_equiv_pos_site_id
 _symmetry_equiv_pos_as_xyz
  1  'x, y, z'
loop_
 _atom_site_type_symbol
 _atom_site_label
 _atom_site_symmetry_multiplicity
 _atom_site_fract_x
 _atom_site_fract_y
 _atom_site_fract_z
 _atom_site_occupancy
  Na  Na0  1  0.00000000  0.39148700  0.56812100  1
  Na  Na1  1  0.39148700  0.00000000  0.56812100  1
  Na  Na2  1  0.00000000  0.60851300  0.56812100  1
  Na  Na3  1  0.60851300  0.00000000  0.56812100  1
  Al  Al0  1  0.00000000  0.62851000  0.18288900  1
  Al  Al1  1  0.37149000  0.00000000  0.18288900  1
  Al  Al2  1  0.62851000  0.00000000  0.18288900  1
  Al  Al3  1  0.00000000  0.37149000  0.18288900  1
  Al  Al4  1  0.00000000  0.18080000  0.63067900  1
  Al  Al5  1  0.18080000  0.00000000  0.63067900  1
  Al  Al6  1  0.00000000  0.81920000  0.63067900  1
  Al  Al7  1  0.81920000  0.00000000  0.63067900  1
  Al  Al8  1  0.00000000  0.62491600  0.82085900  1
  Al  Al9  1  0.62491600  0.00000000  0.82085900  1
  Al  Al10  1  0.37508400  0.00000000  0.82085900  1
  Al  Al11  1  0.00000000  0.37508400  0.82085900  1
  Tl  Tl0  1  0.25089600  0.25089600  0.24681300  1
  Tl  Tl1  1  0.25089600  0.74910400  0.24681300  1
  Tl  Tl2  1  0.74910400  0.25089600  0.24681300  1
  Tl  Tl3  1  0.74910400  0.74910400  0.24681300  1
  Tl  Tl4  1  0.24470800  0.24470800  0.74544800  1
  Tl  Tl5  1  0.24470800  0.75529200  0.74544800  1
  Tl  Tl6  1  0.75529200  0.24470800  0.74544800  1
  Tl  Tl7  1  0.75529200  0.75529200  0.74544800  1
  Si  Si0  1  0.62631200  0.18922100  0.00255500  1
  Si  Si1  1  0.18922100  0.62631200  0.00255500  1
  Si  Si2  1  0.81077900  0.62631200  0.00255500  1
  Si  Si3  1  0.00000000  0.18142500  0.37442000  1
  Si  Si4  1  0.18142500  0.00000000  0.37442000  1
  Si  Si5  1  0.00000000  0.81857500  0.37442000  1
  Si  Si6  1  0.81857500  0.00000000  0.37442000  1
  Si  Si7  1  0.18922100  0.37368800  0.00255500  1
  Si  Si8  1  0.37368800  0.18922100  0.00255500  1
  Si  Si9  1  0.37368800  0.81077900  0.00255500  1
  Si  Si10  1  0.62631200  0.81077900  0.00255500  1
  Si  Si11  1  0.81077900  0.37368800  0.00255500  1
  O  O0  1  0.29965500  0.29965500  0.00277700  1
  O  O1  1  0.50000000  0.22657900  0.00597300  1
  O  O2  1  0.29965500  0.70034500  0.00277700  1
  O  O3  1  0.70034500  0.29965500  0.00277700  1
  O  O4  1  0.77342100  0.50000000  0.00597300  1
  O  O5  1  0.70034500  0.70034500  0.00277700  1
  O  O6  1  0.12077200  0.34326800  0.11068800  1
  O  O7  1  0.34326800  0.12077200  0.11068800  1
  O  O8  1  0.34326800  0.87922800  0.11068800  1
  O  O9  1  0.87922800  0.34326800  0.11068800  1
  O  O10  1  0.12077200  0.65673200  0.11068800  1
  O  O11  1  0.65673200  0.12077200  0.11068800  1
  O  O12  1  0.65673200  0.87922800  0.11068800  1
  O  O13  1  0.87922800  0.65673200  0.11068800  1
  O  O14  1  0.00000000  0.50000000  0.23185500  1
  O  O15  1  0.50000000  0.00000000  0.23185500  1
  O  O16  1  0.00000000  0.27547200  0.28655100  1
  O  O17  1  0.27547200  0.00000000  0.28655100  1
  O  O18  1  0.00000000  0.72452800  0.28655100  1
  O  O19  1  0.72452800  0.00000000  0.28655100  1
  O  O20  1  0.10702400  0.10702400  0.35613500  1
  O  O21  1  0.10702400  0.89297600  0.35613500  1
  O  O22  1  0.89297600  0.10702400  0.35613500  1
  O  O23  1  0.89297600  0.89297600  0.35613500  1
  O  O24  1  0.00000000  0.23221100  0.49450300  1
  O  O25  1  0.23221100  0.00000000  0.49450300  1
  O  O26  1  0.00000000  0.76778900  0.49450300  1
  O  O27  1  0.76778900  0.00000000  0.49450300  1
  O  O28  1  0.11865200  0.11865200  0.65438800  1
  O  O29  1  0.11865200  0.88134800  0.65438800  1
  O  O30  1  0.88134800  0.11865200  0.65438800  1
  O  O31  1  0.88134800  0.88134800  0.65438800  1
  O  O32  1  0.00000000  0.29375000  0.70938300  1
  O  O33  1  0.00000000  0.70625000  0.70938300  1
  O  O34  1  0.29375000  0.00000000  0.70938300  1
  O  O35  1  0.70625000  0.00000000  0.70938300  1
  O  O36  1  0.00000000  0.50000000  0.75680100  1
  O  O37  1  0.50000000  0.00000000  0.75680100  1
  O  O38  1  0.11947000  0.34982500  0.89512300  1
  O  O39  1  0.34982500  0.11947000  0.89512300  1
  O  O40  1  0.34982500  0.88053000  0.89512300  1
  O  O41  1  0.88053000  0.34982500  0.89512300  1
  O  O42  1  0.11947000  0.65017500  0.89512300  1
  O  O43  1  0.65017500  0.11947000  0.89512300  1
  O  O44  1  0.65017500  0.88053000  0.89512300  1
  O  O45  1  0.88053000  0.65017500  0.89512300  1
  O  O46  1  0.22657900  0.50000000  0.00597300  1
  O  O47  1  0.50000000  0.77342100  0.00597300  1
loop_
_geom_bond_atom_site_label_1
_geom_bond_atom_site_label_2
_geom_bond_distance
_geom_bond_site_symmetry_2
Na0 O32 2.140782 1_555
Na0 O24 2.198239 1_555
Na0 O36 2.710429 1_555
Na1 O34 2.140782 1_555
Na1 O25 2.198239 1_555
Na1 O37 2.710429 1_555
Na2 O33 2.140782 1_555
Na2 O26 2.198239 1_555
Na2 O36 2.710429 1_555
Na3 O35 2.140782 1_555
Na3 O27 2.198239 1_555
Na3 O37 2.710429 1_555
Al0 O14 1.723765 1_555
Al0 O18 1.763494 1_555
Al0 O13 1.796456 1_455
Al0 O10 1.796456 1_555
Al1 O15 1.723765 1_555
Al1 O17 1.763494 1_555
Al1 O8 1.796456 1_545
Al1 O7 1.796456 1_555
Al2 O15 1.723765 1_555
Al2 O19 1.763494 1_555
Al2 O11 1.796456 1_555
Al2 O12 1.796456 1_545
Al3 O14 1.723765 1_555
Al3 O16 1.763494 1_555
Al3 O9 1.796456 1_455
Al3 O6 1.796456 1_555
Al4 O30 1.706701 1_455
Al4 O28 1.706701 1_555
Al4 O32 1.721970 1_555
Al4 O24 1.810213 1_555
Al5 O28 1.706701 1_555
Al5 O29 1.706701 1_545
Al5 O34 1.721970 1_555
Al5 O25 1.810213 1_555
Al6 O31 1.706701 1_455
Al6 O29 1.706701 1_555
Al6 O33 1.721970 1_555
Al6 O26 1.810213 1_555
Al7 O31 1.706701 1_545
Al7 O30 1.706701 1_555
Al7 O35 1.721970 1_555
Al7 O27 1.810213 1_555
Al8 O33 1.720173 1_555
Al8 O36 1.758128 1_555
Al8 O45 1.788750 1_455
Al8 O42 1.788750 1_555
Al9 O35 1.720173 1_555
Al9 O37 1.758128 1_555
Al9 O44 1.788750 1_545
Al9 O43 1.788750 1_555
Al10 O34 1.720173 1_555
Al10 O37 1.758128 1_555
Al10 O40 1.788750 1_545
Al10 O39 1.788750 1_555
Al11 O32 1.720173 1_555
Al11 O36 1.758128 1_555
Al11 O41 1.788750 1_455
Al11 O38 1.788750 1_555
O0 Si7 1.668688 1_555
O0 Si8 1.668688 1_555
O1 Si8 1.653762 1_555
O1 Si0 1.653762 1_555
O2 Si1 1.668688 1_555
O2 Si9 1.668688 1_555
O3 Si0 1.668688 1_555
O3 Si11 1.668688 1_555
O4 Si11 1.653762 1_555
O4 Si2 1.653762 1_555
O5 Si2 1.668688 1_555
O5 Si10 1.668688 1_555
O6 Si7 1.639360 1_555
O6 Tl0 2.621019 1_555
O7 Si8 1.639360 1_555
O7 Tl0 2.621019 1_555
O8 Si9 1.639360 1_555
O8 Tl1 2.621019 1_555
O9 Si11 1.639360 1_555
O9 Tl2 2.621019 1_555
O10 Si1 1.639360 1_555
O10 Tl1 2.621019 1_555
O11 Si0 1.639360 1_555
O11 Tl2 2.621019 1_555
O12 Si10 1.639360 1_555
O12 Tl3 2.621019 1_555
O13 Si2 1.639360 1_555
O13 Tl3 2.621019 1_555
O16 Si3 1.607575 1_555
O17 Si4 1.607575 1_555
O18 Si5 1.607575 1_555
O19 Si6 1.607575 1_555
O20 Si4 1.651630 1_555
O20 Si3 1.651630 1_555
O21 Si5 1.651630 1_555
O21 Si4 1.651630 1_565
O22 Si6 1.651630 1_555
O22 Si3 1.651630 1_655
O23 Si5 1.651630 1_655
O23 Si6 1.651630 1_565
O24 Si3 1.621931 1_555
O25 Si4 1.621931 1_555
O26 Si5 1.621931 1_555
O27 Si6 1.621931 1_555
O28 Tl4 2.507048 1_555
O29 Tl5 2.507048 1_555
O30 Tl6 2.507048 1_555
O31 Tl7 2.507048 1_555
O38 Si7 1.623720 1_556
O38 Tl4 2.768946 1_555
O39 Si8 1.623720 1_556
O39 Tl4 2.768946 1_555
O40 Si9 1.623720 1_556
O40 Tl5 2.768946 1_555
O41 Si11 1.623720 1_556
O41 Tl6 2.768946 1_555
O42 Si1 1.623720 1_556
O42 Tl5 2.768946 1_555
O43 Si0 1.623720 1_556
O43 Tl6 2.768946 1_555
O44 Si10 1.623720 1_556
O44 Tl7 2.768946 1_555
O45 Si2 1.623720 1_556
O45 Tl7 2.768946 1_555
O46 Si7 1.653762 1_555
O46 Si1 1.653762 1_555
O47 Si9 1.653762 1_555
O47 Si10 1.653762 1_555
