# generated using pymatgen
data_Nb3TlVCl11
_symmetry_space_group_name_H-M   'P 1'
_cell_length_a   6.88929700
_cell_length_b   13.67558100
_cell_length_c   17.22034200
_cell_angle_alpha   90.00000000
_cell_angle_beta   90.00000000
_cell_angle_gamma   90.00000000
_symmetry_Int_Tables_number   1
_chemical_formula_structural   Nb3TlVCl11
_chemical_formula_sum   'Nb12 Tl4 V4 Cl44'
_cell_volume   1622.41691785
_cell_formula_units_Z   4
loop_
 _symmetry_equiv_pos_site_id
 _symmetry_equiv_pos_as_xyz
  1  'x, y, z'
loop_
 _atom_site_type_symbol
 _atom_site_label
 _atom_site_symmetry_multiplicity
 _atom_site_fract_x
 _atom_site_fract_y
 _atom_site_fract_z
 _atom_site_occupancy
  Nb  Nb0  1  0.95574300  0.24763500  0.51300200  1
  Nb  Nb1  1  0.54425700  0.24763500  0.51300200  1
  Nb  Nb2  1  0.45574300  0.25236500  0.01300200  1
  Nb  Nb3  1  0.04425700  0.75236500  0.48699800  1
  Nb  Nb4  1  0.95574300  0.74763500  0.98699800  1
  Nb  Nb5  1  0.25000000  0.80996000  0.35233100  1
  Nb  Nb6  1  0.54425700  0.74763500  0.98699800  1
  Nb  Nb7  1  0.04425700  0.25236500  0.01300200  1
  Nb  Nb8  1  0.75000000  0.19004000  0.64766900  1
  Nb  Nb9  1  0.75000000  0.69004000  0.85233100  1
  Nb  Nb10  1  0.45574300  0.75236500  0.48699800  1
  Nb  Nb11  1  0.25000000  0.30996000  0.14766900  1
  Tl  Tl0  1  0.25000000  0.52125800  0.73273200  1
  Tl  Tl1  1  0.75000000  0.47874200  0.26726800  1
  Tl  Tl2  1  0.25000000  0.02125800  0.76726800  1
  Tl  Tl3  1  0.75000000  0.97874200  0.23273200  1
  V  V0  1  0.25000000  0.31978700  0.33596600  1
  V  V1  1  0.75000000  0.68021300  0.66403400  1
  V  V2  1  0.25000000  0.81978700  0.16403400  1
  V  V3  1  0.75000000  0.18021300  0.83596600  1
  Cl  Cl0  1  0.75000000  0.85655000  0.90852700  1
  Cl  Cl1  1  0.49050600  0.74753700  0.25215100  1
  Cl  Cl2  1  0.50473400  0.09048200  0.58093900  1
  Cl  Cl3  1  0.99050600  0.75246300  0.75215100  1
  Cl  Cl4  1  0.99526600  0.59048200  0.91906100  1
  Cl  Cl5  1  0.99609500  0.89027000  0.08154400  1
  Cl  Cl6  1  0.49526600  0.40951800  0.08093900  1
  Cl  Cl7  1  0.25000000  0.45820300  0.24645800  1
  Cl  Cl8  1  0.75000000  0.32008800  0.92797000  1
  Cl  Cl9  1  0.25000000  0.14345000  0.09147300  1
  Cl  Cl10  1  0.25000000  0.67991200  0.07203000  1
  Cl  Cl11  1  0.75000000  0.67720300  0.41598300  1
  Cl  Cl12  1  0.99609500  0.39027000  0.41845600  1
  Cl  Cl13  1  0.00390500  0.60973000  0.58154400  1
  Cl  Cl14  1  0.25000000  0.17991200  0.42797000  1
  Cl  Cl15  1  0.49609500  0.60973000  0.58154400  1
  Cl  Cl16  1  0.25000000  0.95820300  0.25354200  1
  Cl  Cl17  1  0.50390500  0.39027000  0.41845600  1
  Cl  Cl18  1  0.50390500  0.89027000  0.08154400  1
  Cl  Cl19  1  0.50473400  0.59048200  0.91906100  1
  Cl  Cl20  1  0.00390500  0.10973000  0.91845600  1
  Cl  Cl21  1  0.75000000  0.82008800  0.57203000  1
  Cl  Cl22  1  0.75000000  0.15892500  0.41978900  1
  Cl  Cl23  1  0.75000000  0.35655000  0.59147300  1
  Cl  Cl24  1  0.25000000  0.82279700  0.91598300  1
  Cl  Cl25  1  0.99526600  0.09048200  0.58093900  1
  Cl  Cl26  1  0.75000000  0.54179700  0.75354200  1
  Cl  Cl27  1  0.50949400  0.25246300  0.74784900  1
  Cl  Cl28  1  0.00473400  0.90951800  0.41906100  1
  Cl  Cl29  1  0.00473400  0.40951800  0.08093900  1
  Cl  Cl30  1  0.75000000  0.17720300  0.08401700  1
  Cl  Cl31  1  0.49050600  0.24753700  0.24784900  1
  Cl  Cl32  1  0.50949400  0.75246300  0.75215100  1
  Cl  Cl33  1  0.25000000  0.64345000  0.40852700  1
  Cl  Cl34  1  0.25000000  0.34107500  0.91978900  1
  Cl  Cl35  1  0.49526600  0.90951800  0.41906100  1
  Cl  Cl36  1  0.49609500  0.10973000  0.91845600  1
  Cl  Cl37  1  0.75000000  0.65892500  0.08021100  1
  Cl  Cl38  1  0.00949400  0.24753700  0.24784900  1
  Cl  Cl39  1  0.75000000  0.04179700  0.74645800  1
  Cl  Cl40  1  0.99050600  0.25246300  0.74784900  1
  Cl  Cl41  1  0.00949400  0.74753700  0.25215100  1
  Cl  Cl42  1  0.25000000  0.84107500  0.58021100  1
  Cl  Cl43  1  0.25000000  0.32279700  0.58401700  1
loop_
_geom_bond_atom_site_label_1
_geom_bond_atom_site_label_2
_geom_bond_distance
_geom_bond_site_symmetry_2
Cl0 Nb4 2.460414 1_555
Cl0 Nb6 2.460414 1_555
Cl0 Nb9 2.474217 1_555
Cl1 V2 2.454416 1_555
Cl1 Nb5 2.539727 1_555
Cl2 Nb8 2.455464 1_555
Cl2 Nb1 2.462049 1_555
Cl3 V1 2.454416 1_555
Cl3 Nb9 2.539727 1_555
Cl4 Nb9 2.455464 1_555
Cl4 Nb4 2.462049 1_555
Cl5 V2 2.450863 1_655
Cl5 Nb4 2.555962 1_554
Cl6 Nb11 2.455464 1_555
Cl6 Nb2 2.462049 1_555
Cl7 V0 2.441092 1_555
Cl7 Nb11 2.646507 1_555
Cl8 V3 2.483790 1_555
Cl8 Nb7 2.666741 1_656
Cl8 Nb2 2.666741 1_556
Cl9 Nb2 2.460414 1_555
Cl9 Nb7 2.460414 1_555
Cl9 Nb11 2.474217 1_555
Cl10 V2 2.483790 1_555
Cl10 Nb6 2.666741 1_554
Cl10 Nb4 2.666741 1_454
Cl11 Nb3 2.581022 1_655
Cl11 Nb10 2.581022 1_555
Cl12 V0 2.450863 1_655
Cl12 Nb0 2.555962 1_555
Cl13 V1 2.450863 1_455
Cl13 Nb3 2.555962 1_555
Cl14 V0 2.483790 1_555
Cl14 Nb1 2.666741 1_555
Cl14 Nb0 2.666741 1_455
Cl15 V1 2.450863 1_555
Cl15 Nb10 2.555962 1_555
Cl16 V2 2.441092 1_555
Cl16 Nb5 2.646507 1_555
Cl17 V0 2.450863 1_555
Cl17 Nb1 2.555962 1_555
Cl18 V2 2.450863 1_555
Cl18 Nb6 2.555962 1_554
Cl19 Nb9 2.455464 1_555
Cl19 Nb6 2.462049 1_555
Cl20 V3 2.450863 1_455
Cl20 Nb7 2.555962 1_556
Cl21 V1 2.483790 1_555
Cl21 Nb3 2.666741 1_655
Cl21 Nb10 2.666741 1_555
Cl22 Nb0 2.461176 1_555
Cl22 Nb1 2.461176 1_555
Cl23 Nb0 2.460414 1_555
Cl23 Nb1 2.460414 1_555
Cl23 Nb8 2.474217 1_555
Cl24 Nb4 2.581022 1_455
Cl24 Nb6 2.581022 1_555
Cl25 Nb8 2.455464 1_555
Cl25 Nb0 2.462049 1_555
Cl26 V1 2.441092 1_555
Cl26 Nb9 2.646507 1_555
Cl27 V3 2.454416 1_555
Cl27 Nb8 2.539727 1_555
Cl28 Nb5 2.455464 1_555
Cl28 Nb3 2.462049 1_555
Cl29 Nb11 2.455464 1_555
Cl29 Nb7 2.462049 1_555
Cl30 Nb7 2.581022 1_655
Cl30 Nb2 2.581022 1_555
Cl31 V0 2.454416 1_555
Cl31 Nb11 2.539727 1_555
Cl32 V1 2.454416 1_555
Cl32 Nb9 2.539727 1_555
Cl33 Nb10 2.460414 1_555
Cl33 Nb3 2.460414 1_555
Cl33 Nb5 2.474217 1_555
Cl34 Nb2 2.461176 1_556
Cl34 Nb7 2.461176 1_556
Cl35 Nb5 2.455464 1_555
Cl35 Nb10 2.462049 1_555
Cl36 V3 2.450863 1_555
Cl36 Nb2 2.555962 1_556
Cl37 Nb4 2.461176 1_554
Cl37 Nb6 2.461176 1_554
Cl38 V0 2.454416 1_555
Cl38 Nb11 2.539727 1_555
Cl39 V3 2.441092 1_555
Cl39 Nb8 2.646507 1_555
Cl40 V3 2.454416 1_555
Cl40 Nb8 2.539727 1_555
Cl41 V2 2.454416 1_555
Cl41 Nb5 2.539727 1_555
Cl42 Nb10 2.461176 1_555
Cl42 Nb3 2.461176 1_555
Cl43 Nb0 2.581022 1_455
Cl43 Nb1 2.581022 1_555
