# generated using pymatgen
data_Ba4Sm2Cu2O9
_symmetry_space_group_name_H-M   'P 1'
_cell_length_a   12.05105200
_cell_length_b   12.05105200
_cell_length_c   3.89166400
_cell_angle_alpha   90.00000000
_cell_angle_beta   90.00000000
_cell_angle_gamma   90.00000000
_symmetry_Int_Tables_number   1
_chemical_formula_structural   Ba4Sm2Cu2O9
_chemical_formula_sum   'Ba8 Sm4 Cu4 O18'
_cell_volume   565.17801240
_cell_formula_units_Z   2
loop_
 _symmetry_equiv_pos_site_id
 _symmetry_equiv_pos_as_xyz
  1  'x, y, z'
loop_
 _atom_site_type_symbol
 _atom_site_label
 _atom_site_symmetry_multiplicity
 _atom_site_fract_x
 _atom_site_fract_y
 _atom_site_fract_z
 _atom_site_occupancy
  Ba  Ba0  1  0.17198800  0.11327100  0.25910100  1
  Ba  Ba1  1  0.61327100  0.67198800  0.24089900  1
  Ba  Ba2  1  0.82801200  0.88672900  0.25910100  1
  Ba  Ba3  1  0.88672900  0.17198800  0.74089900  1
  Ba  Ba4  1  0.11327100  0.82801200  0.74089900  1
  Ba  Ba5  1  0.32801200  0.61327100  0.75910100  1
  Ba  Ba6  1  0.67198800  0.38672900  0.75910100  1
  Ba  Ba7  1  0.38672900  0.32801200  0.24089900  1
  Sm  Sm0  1  0.38953100  0.88953100  0.25000000  1
  Sm  Sm1  1  0.61046900  0.11046900  0.25000000  1
  Sm  Sm2  1  0.88953100  0.61046900  0.75000000  1
  Sm  Sm3  1  0.11046900  0.38953100  0.75000000  1
  Cu  Cu0  1  0.40319400  0.09680600  0.75000000  1
  Cu  Cu1  1  0.09680600  0.59680600  0.25000000  1
  Cu  Cu2  1  0.59680600  0.90319400  0.75000000  1
  Cu  Cu3  1  0.90319400  0.40319400  0.25000000  1
  O  O0  1  0.97504600  0.70808200  0.24969800  1
  O  O1  1  0.29191800  0.97504600  0.75030200  1
  O  O2  1  0.20808200  0.47504600  0.25030200  1
  O  O3  1  0.24275200  0.25724800  0.75000000  1
  O  O4  1  0.79191800  0.52495400  0.25030200  1
  O  O5  1  0.74275200  0.24275200  0.25000000  1
  O  O6  1  0.25724800  0.75724800  0.25000000  1
  O  O7  1  0.70808200  0.02495400  0.75030200  1
  O  O8  1  0.59093600  0.90906400  0.25000000  1
  O  O9  1  0.40906400  0.09093600  0.25000000  1
  O  O10  1  0.00000000  0.00000000  0.50000000  1
  O  O11  1  0.90906400  0.40906400  0.75000000  1
  O  O12  1  0.52495400  0.20808200  0.74969800  1
  O  O13  1  0.09093600  0.59093600  0.75000000  1
  O  O14  1  0.50000000  0.50000000  0.00000000  1
  O  O15  1  0.75724800  0.74275200  0.75000000  1
  O  O16  1  0.47504600  0.79191800  0.74969800  1
  O  O17  1  0.02495400  0.29191800  0.24969800  1
loop_
_geom_bond_atom_site_label_1
_geom_bond_atom_site_label_2
_geom_bond_distance
_geom_bond_site_symmetry_2
Ba0 O10 2.652931 1_555
Ba0 O3 2.717977 1_555
Ba0 O3 2.768225 1_554
Ba0 O17 2.788536 1_555
Ba0 O9 2.869885 1_555
Ba0 O1 2.918520 1_545
Ba0 O1 2.963829 1_544
Ba1 O14 2.652931 1_555
Ba1 O15 2.717977 1_554
Ba1 O15 2.768225 1_555
Ba1 O4 2.788536 1_555
Ba1 O8 2.869885 1_555
Ba1 O16 2.918520 1_554
Ba1 O16 2.963829 1_555
Ba2 O10 2.652931 1_665
Ba2 O15 2.717977 1_555
Ba2 O15 2.768225 1_554
Ba2 O0 2.788536 1_555
Ba2 O8 2.869885 1_555
Ba2 O7 2.918520 1_565
Ba2 O7 2.963829 1_564
Ba3 O10 2.652931 1_655
Ba3 O5 2.717977 1_555
Ba3 O5 2.768225 1_556
Ba3 O7 2.788536 1_555
Ba3 O11 2.869885 1_555
Ba3 O17 2.918520 1_655
Ba3 O17 2.963829 1_656
Ba4 O10 2.652931 1_565
Ba4 O6 2.717977 1_555
Ba4 O6 2.768225 1_556
Ba4 O1 2.788536 1_555
Ba4 O13 2.869885 1_555
Ba4 O0 2.918520 1_455
Ba4 O0 2.963829 1_456
Ba5 O14 2.652931 1_556
Ba5 O6 2.717977 1_556
Ba5 O6 2.768225 1_555
Ba5 O16 2.788536 1_555
Ba5 O13 2.869885 1_555
Ba5 O2 2.918520 1_556
Ba5 O2 2.963829 1_555
Ba6 O14 2.652931 1_556
Ba6 O5 2.717977 1_556
Ba6 O5 2.768225 1_555
Ba6 O12 2.788536 1_555
Ba6 O11 2.869885 1_555
Ba6 O4 2.918520 1_556
Ba6 O4 2.963829 1_555
Ba7 O14 2.652931 1_555
Ba7 O3 2.717977 1_554
Ba7 O3 2.768225 1_555
Ba7 O2 2.788536 1_555
Ba7 O9 2.869885 1_555
Ba7 O12 2.918520 1_554
Ba7 O12 2.963829 1_555
Cu0 O9 1.948402 1_556
Cu0 O9 1.948402 1_555
Cu0 O12 1.987797 1_555
Cu0 O1 1.987797 1_545
Cu1 O13 1.948402 1_555
Cu1 O13 1.948402 1_554
Cu1 O2 1.987797 1_555
Cu1 O0 1.987797 1_455
Cu2 O8 1.948402 1_555
Cu2 O8 1.948402 1_556
Cu2 O7 1.987797 1_565
Cu2 O16 1.987797 1_555
Cu3 O11 1.948402 1_554
Cu3 O11 1.948402 1_555
Cu3 O17 1.987797 1_655
Cu3 O4 1.987797 1_555
O0 Sm2 2.495494 1_554
O0 Sm2 2.497326 1_555
O1 Sm0 2.495494 1_556
O1 Sm0 2.497326 1_555
O2 Sm3 2.495494 1_555
O2 Sm3 2.497326 1_554
O3 Sm3 2.254468 1_555
O4 Sm2 2.495494 1_555
O4 Sm2 2.497326 1_554
O5 Sm1 2.254468 1_555
O6 Sm0 2.254468 1_555
O7 Sm1 2.495494 1_556
O7 Sm1 2.497326 1_555
O8 Sm1 2.438530 1_565
O8 Sm0 2.438530 1_555
O9 Sm0 2.438530 1_545
O9 Sm1 2.438530 1_555
O11 Sm3 2.438530 1_655
O11 Sm2 2.438530 1_555
O12 Sm1 2.495494 1_555
O12 Sm1 2.497326 1_556
O13 Sm3 2.438530 1_555
O13 Sm2 2.438530 1_455
O15 Sm2 2.254468 1_555
O16 Sm0 2.495494 1_555
O16 Sm0 2.497326 1_556
O17 Sm3 2.495494 1_554
O17 Sm3 2.497326 1_555
