# generated using pymatgen
data_Gd2Ti2O7
_symmetry_space_group_name_H-M   'P 1'
_cell_length_a   7.27369502
_cell_length_b   7.27369539
_cell_length_c   29.05051938
_cell_angle_alpha   59.50497646
_cell_angle_beta   59.50497473
_cell_angle_gamma   59.63461755
_symmetry_Int_Tables_number   1
_chemical_formula_structural   Gd2Ti2O7
_chemical_formula_sum   'Gd16 Ti16 O56'
_cell_volume   1075.63094997
_cell_formula_units_Z   8
loop_
 _symmetry_equiv_pos_site_id
 _symmetry_equiv_pos_as_xyz
  1  'x, y, z'
loop_
 _atom_site_type_symbol
 _atom_site_label
 _atom_site_symmetry_multiplicity
 _atom_site_fract_x
 _atom_site_fract_y
 _atom_site_fract_z
 _atom_site_occupancy
  Gd  Gd0  1  0.50097690  -0.00120440  -0.00032310  1
  Gd  Gd1  1  0.47629433  0.47629433  0.01352601  1
  Gd  Gd2  1  0.49893872  0.00070393  0.25019981  1
  Gd  Gd3  1  -0.00118377  -0.00118377  0.12501438  1
  Gd  Gd4  1  0.52363444  0.52363444  0.23632166  1
  Gd  Gd5  1  -0.00120440  0.50097690  -0.00032310  1
  Gd  Gd6  1  0.50107168  0.00074848  0.49807613  1
  Gd  Gd7  1  0.00572285  0.00572285  0.37503655  1
  Gd  Gd8  1  0.00070393  0.49893872  0.25019981  1
  Gd  Gd9  1  -0.00563674  -0.00563674  0.50330445  1
  Gd  Gd10  1  0.49889605  -0.00069023  0.75194778  1
  Gd  Gd11  1  -0.00055169  -0.00055169  0.62497344  1
  Gd  Gd12  1  0.00074848  0.50107168  0.49807613  1
  Gd  Gd13  1  0.00789093  0.00789093  0.74563717  1
  Gd  Gd14  1  -0.00620245  -0.00620245  0.87534708  1
  Gd  Gd15  1  -0.00069023  0.49889605  0.75194778  1
  Ti  Ti0  1  0.01897877  0.01897877  0.98869312  1
  Ti  Ti1  1  0.50204066  0.00022336  0.12398514  1
  Ti  Ti2  1  0.49906023  0.49906023  0.12517729  1
  Ti  Ti3  1  0.50612836  0.00214593  0.37133158  1
  Ti  Ti4  1  0.98753334  0.98753334  0.25889924  1
  Ti  Ti5  1  0.00022336  0.50204066  0.12398514  1
  Ti  Ti6  1  0.49776370  0.49776370  0.37516193  1
  Ti  Ti7  1  0.50063676  0.00118558  0.62439378  1
  Ti  Ti8  1  0.50560108  0.50560108  0.49786670  1
  Ti  Ti9  1  0.50013236  0.50013236  0.62490082  1
  Ti  Ti10  1  0.00214593  0.50612836  0.37133158  1
  Ti  Ti11  1  0.49752289  0.49752289  0.75078149  1
  Ti  Ti12  1  0.49549379  -0.00068478  0.87772457  1
  Ti  Ti13  1  0.00118558  0.50063676  0.62439378  1
  Ti  Ti14  1  0.50226216  0.50226216  0.87478521  1
  Ti  Ti15  1  -0.00068478  0.49549379  0.87772457  1
  O  O0  1  0.10748020  0.10748020  0.02974116  1
  O  O1  1  0.26144497  0.26144497  0.09768865  1
  O  O2  1  0.07448467  0.69352202  0.04341924  1
  O  O3  1  0.17406978  0.59691365  0.13709156  1
  O  O4  1  0.10795468  0.10795468  0.28365806  1
  O  O5  1  0.69352202  0.07448467  0.04341924  1
  O  O6  1  0.60692519  0.60692519  0.04160267  1
  O  O7  1  0.59691365  0.17406978  0.13709156  1
  O  O8  1  0.13916760  0.61327596  0.29017432  1
  O  O9  1  0.19062328  0.19062328  0.38778346  1
  O  O10  1  0.40190310  0.82617681  0.11310145  1
  O  O11  1  0.39269694  0.39269694  0.20847923  1
  O  O12  1  0.17818289  0.57295733  0.39409136  1
  O  O13  1  0.30480543  0.92526409  0.20703179  1
  O  O14  1  0.82617681  0.40190310  0.11310145  1
  O  O15  1  0.12613645  0.12613645  0.53060684  1
  O  O16  1  0.61327596  0.13916760  0.29017432  1
  O  O17  1  0.59904200  0.59904200  0.28895642  1
  O  O18  1  0.73971759  0.73971759  0.15240794  1
  O  O19  1  0.92526409  0.30480543  0.20703179  1
  O  O20  1  0.57295733  0.17818289  0.39409136  1
  O  O21  1  0.17107678  0.17107678  0.64480237  1
  O  O22  1  0.17255085  0.57893685  0.54309723  1
  O  O23  1  0.41293091  0.83344331  0.35675104  1
  O  O24  1  0.42564591  0.42564591  0.45623214  1
  O  O25  1  0.17208291  0.57776199  0.64409859  1
  O  O26  1  0.12384655  0.12384655  0.78064874  1
  O  O27  1  0.42467031  0.82856456  0.45599233  1
  O  O28  1  0.83344331  0.41293091  0.35675104  1
  O  O29  1  0.89204239  0.89204239  0.22020202  1
  O  O30  1  0.57893685  0.17255085  0.54309723  1
  O  O31  1  0.58081547  0.58081547  0.54225382  1
  O  O32  1  0.82856456  0.42467031  0.45599233  1
  O  O33  1  0.83962404  0.83962404  0.35342237  1
  O  O34  1  0.57776199  0.17208291  0.64409859  1
  O  O35  1  0.15864000  0.15864000  0.89771744  1
  O  O36  1  0.17101041  0.57352506  0.79482535  1
  O  O37  1  0.41901079  0.41901079  0.70801676  1
  O  O38  1  0.42204544  0.82687455  0.60622826  1
  O  O39  1  0.82687455  0.42204544  0.60622826  1
  O  O40  1  0.87581290  0.87581290  0.46953831  1
  O  O41  1  0.16657705  0.58678738  0.89330310  1
  O  O42  1  0.41999734  0.82683184  0.70721158  1
  O  O43  1  0.57352506  0.17101041  0.79482535  1
  O  O44  1  0.57492157  0.57492157  0.79388517  1
  O  O45  1  0.82902707  0.82902707  0.60511461  1
  O  O46  1  0.82683184  0.41999734  0.70721158  1
  O  O47  1  0.58678738  0.16657705  0.89330310  1
  O  O48  1  0.40047356  0.40047356  0.96114900  1
  O  O49  1  0.42621292  0.82149569  0.85632235  1
  O  O50  1  0.82149569  0.42621292  0.85632235  1
  O  O51  1  0.87382479  0.87382479  0.71962537  1
  O  O52  1  0.38290119  0.86287441  0.96033646  1
  O  O53  1  0.80683371  0.80683371  0.86365384  1
  O  O54  1  0.86287441  0.38290119  0.96033646  1
  O  O55  1  0.89215164  0.89215164  0.96656371  1
loop_
_geom_bond_atom_site_label_1
_geom_bond_atom_site_label_2
_geom_bond_distance
_geom_bond_site_symmetry_2
Gd0 O55 2.317484 1_544
Gd0 O6 2.325977 1_545
Gd0 O0 2.335776 1_555
Gd0 O48 2.382327 1_554
Gd0 O52 2.454095 1_544
Gd0 O47 2.532455 1_554
Gd0 O5 2.678644 1_555
Gd0 O10 2.694249 1_545
Gd1 O48 2.221340 1_554
Gd1 O6 2.226392 1_555
Gd1 O54 2.340957 1_554
Gd1 O52 2.340957 1_554
Gd1 O1 2.361257 1_555
Gd1 O2 2.437287 1_555
Gd1 O5 2.437287 1_555
Gd2 O4 2.315634 1_555
Gd2 O11 2.326226 1_555
Gd2 O29 2.333467 1_545
Gd2 O17 2.382476 1_545
Gd2 O16 2.463457 1_555
Gd2 O23 2.536709 1_545
Gd2 O13 2.673332 1_545
Gd2 O7 2.687277 1_555
Gd3 O0 2.258520 1_555
Gd3 O29 2.259081 1_445
Gd3 O7 2.437058 1_455
Gd3 O3 2.437058 1_545
Gd3 O10 2.445769 1_545
Gd3 O14 2.445770 1_455
Gd3 O18 2.878082 1_445
Gd3 O1 2.922291 1_555
Gd4 O17 2.224026 1_555
Gd4 O11 2.224653 1_555
Gd4 O8 2.333353 1_555
Gd4 O16 2.333354 1_555
Gd4 O18 2.367162 1_555
Gd4 O19 2.437681 1_555
Gd4 O13 2.437681 1_555
Gd5 O55 2.317484 1_454
Gd5 O6 2.325977 1_455
Gd5 O0 2.335776 1_555
Gd5 O48 2.382327 1_554
Gd5 O54 2.454095 1_454
Gd5 O41 2.532455 1_554
Gd5 O2 2.678644 1_555
Gd5 O14 2.694249 1_455
Gd6 O15 2.215100 1_555
Gd6 O40 2.215778 1_545
Gd6 O20 2.487302 1_555
Gd6 O31 2.509780 1_545
Gd6 O27 2.513805 1_545
Gd6 O24 2.545574 1_555
Gd6 O38 2.582721 1_545
Gd6 O30 2.592118 1_555
Gd7 O4 2.169087 1_555
Gd7 O40 2.227017 1_445
Gd7 O23 2.439584 1_545
Gd7 O28 2.439584 1_455
Gd7 O33 2.515771 1_445
Gd7 O9 2.567943 1_555
Gd7 O20 2.594750 1_455
Gd7 O12 2.594750 1_545
Gd8 O4 2.315634 1_555
Gd8 O11 2.326226 1_555
Gd8 O29 2.333467 1_455
Gd8 O17 2.382476 1_455
Gd8 O8 2.463457 1_555
Gd8 O28 2.536709 1_455
Gd8 O19 2.673332 1_455
Gd8 O3 2.687277 1_555
Gd9 O40 2.217666 1_445
Gd9 O15 2.222247 1_555
Gd9 O45 2.425369 1_445
Gd9 O30 2.482467 1_455
Gd9 O22 2.482467 1_545
Gd9 O27 2.576786 1_545
Gd9 O32 2.576786 1_455
Gd9 O9 2.770184 1_555
Gd10 O51 2.215008 1_545
Gd10 O26 2.217514 1_555
Gd10 O49 2.496058 1_545
Gd10 O37 2.508161 1_555
Gd10 O43 2.521209 1_555
Gd10 O44 2.541631 1_545
Gd10 O34 2.575492 1_555
Gd10 O42 2.594583 1_545
Gd11 O15 2.223578 1_555
Gd11 O51 2.230413 1_445
Gd11 O34 2.525437 1_455
Gd11 O25 2.525437 1_545
Gd11 O45 2.532024 1_445
Gd11 O38 2.532709 1_545
Gd11 O39 2.532709 1_455
Gd11 O21 2.546371 1_555
Gd12 O15 2.215100 1_555
Gd12 O40 2.215779 1_455
Gd12 O12 2.487302 1_555
Gd12 O31 2.509780 1_455
Gd12 O32 2.513805 1_455
Gd12 O24 2.545574 1_555
Gd12 O39 2.582721 1_455
Gd12 O22 2.592118 1_555
Gd13 O26 2.217602 1_555
Gd13 O51 2.220373 1_445
Gd13 O21 2.401092 1_555
Gd13 O42 2.463847 1_545
Gd13 O46 2.463847 1_455
Gd13 O43 2.603924 1_455
Gd13 O36 2.603924 1_545
Gd13 O53 2.831345 1_445
Gd14 O55 2.165869 1_445
Gd14 O26 2.231625 1_555
Gd14 O47 2.439738 1_455
Gd14 O41 2.439738 1_545
Gd14 O35 2.516496 1_555
Gd14 O53 2.573250 1_445
Gd14 O49 2.592720 1_545
Gd14 O50 2.592720 1_455
Gd15 O51 2.215008 1_455
Gd15 O26 2.217514 1_555
Gd15 O50 2.496058 1_455
Gd15 O37 2.508161 1_555
Gd15 O36 2.521209 1_555
Gd15 O44 2.541631 1_455
Gd15 O25 2.575492 1_555
Gd15 O46 2.594583 1_455
O0 Ti0 2.056185 1_554
O1 Ti5 1.943767 1_555
O1 Ti1 1.943767 1_555
O2 Ti5 1.969400 1_555
O2 Ti0 2.039597 1_564
O3 Ti5 1.964101 1_555
O3 Ti2 1.983156 1_555
O4 Ti4 2.026388 1_445
O5 Ti1 1.969400 1_555
O5 Ti0 2.039597 1_654
O6 Ti2 1.970154 1_555
O7 Ti1 1.964101 1_555
O7 Ti2 1.983156 1_555
O8 Ti10 1.922202 1_555
O8 Ti4 2.218956 1_455
O9 Ti3 1.935298 1_555
O9 Ti10 1.935298 1_555
O10 Ti1 1.950738 1_565
O10 Ti2 1.997054 1_555
O11 Ti2 1.964211 1_555
O12 Ti6 1.930673 1_555
O12 Ti10 2.031671 1_555
O13 Ti4 1.976845 1_455
O13 Ti1 2.029494 1_565
O14 Ti5 1.950738 1_655
O14 Ti2 1.997054 1_555
O16 Ti3 1.922202 1_555
O16 Ti4 2.218956 1_545
O17 Ti6 2.039814 1_555
O18 Ti5 1.951886 1_655
O18 Ti1 1.951886 1_565
O19 Ti4 1.976845 1_545
O19 Ti5 2.029494 1_655
O20 Ti6 1.930673 1_555
O20 Ti3 2.031671 1_555
O21 Ti7 1.982681 1_555
O21 Ti13 1.982682 1_555
O22 Ti13 1.954623 1_555
O22 Ti8 2.013424 1_555
O23 Ti3 1.950551 1_565
O23 Ti6 2.028477 1_555
O24 Ti6 1.966587 1_555
O24 Ti8 1.977151 1_555
O25 Ti9 1.982496 1_555
O25 Ti13 1.985121 1_555
O27 Ti8 1.942459 1_555
O27 Ti3 2.029721 1_565
O28 Ti10 1.950550 1_655
O28 Ti6 2.028477 1_555
O29 Ti4 2.073965 1_555
O30 Ti7 1.954624 1_555
O30 Ti8 2.013424 1_555
O31 Ti9 1.985300 1_555
O31 Ti8 1.998976 1_555
O32 Ti8 1.942458 1_555
O32 Ti10 2.029721 1_655
O33 Ti3 1.999130 1_565
O33 Ti10 1.999130 1_655
O33 Ti4 2.242474 1_555
O34 Ti9 1.982496 1_555
O34 Ti7 1.985122 1_555
O35 Ti12 2.012892 1_555
O35 Ti15 2.012892 1_555
O35 Ti0 2.154621 1_555
O36 Ti11 1.972184 1_555
O36 Ti15 1.989577 1_555
O37 Ti11 1.991352 1_555
O37 Ti9 1.996612 1_555
O38 Ti9 1.976029 1_555
O38 Ti7 1.982631 1_565
O39 Ti9 1.976029 1_555
O39 Ti13 1.982631 1_655
O41 Ti15 1.951030 1_555
O41 Ti14 2.028298 1_555
O42 Ti11 1.984751 1_555
O42 Ti7 1.990938 1_565
O43 Ti11 1.972184 1_555
O43 Ti12 1.989577 1_555
O44 Ti14 1.960400 1_555
O44 Ti11 1.988271 1_555
O45 Ti7 1.979192 1_565
O45 Ti13 1.979192 1_655
O46 Ti11 1.984751 1_555
O46 Ti13 1.990938 1_655
O47 Ti12 1.951030 1_555
O47 Ti14 2.028298 1_555
O48 Ti14 2.043189 1_555
O49 Ti14 1.929738 1_555
O49 Ti12 2.026460 1_565
O50 Ti14 1.929737 1_555
O50 Ti15 2.026460 1_655
O52 Ti12 1.955726 1_565
O52 Ti0 2.161534 1_565
O53 Ti12 1.921312 1_565
O53 Ti15 1.921312 1_655
O54 Ti15 1.955726 1_655
O54 Ti0 2.161534 1_655
O55 Ti0 2.044382 1_665
