# generated using pymatgen
data_Mn5Ge2
_symmetry_space_group_name_H-M   'P 1'
_cell_length_a   6.98873169
_cell_length_b   6.98873169
_cell_length_c   6.98873169
_cell_angle_alpha   135.36581716
_cell_angle_beta   129.38589767
_cell_angle_gamma   69.74815231
_symmetry_Int_Tables_number   1
_chemical_formula_structural   Mn5Ge2
_chemical_formula_sum   'Mn10 Ge4'
_cell_volume   181.83123541
_cell_formula_units_Z   2
loop_
 _symmetry_equiv_pos_site_id
 _symmetry_equiv_pos_as_xyz
  1  'x, y, z'
loop_
 _atom_site_type_symbol
 _atom_site_label
 _atom_site_symmetry_multiplicity
 _atom_site_fract_x
 _atom_site_fract_y
 _atom_site_fract_z
 _atom_site_occupancy
  Mn  Mn0  1  0.23047500  0.48047500  0.25000000  1
  Mn  Mn1  1  0.39543000  0.10916800  0.28626200  1
  Mn  Mn2  1  0.23047500  0.98047500  0.75000000  1
  Mn  Mn3  1  0.76952500  0.01952500  0.25000000  1
  Mn  Mn4  1  0.00000000  0.75000000  0.75000000  1
  Mn  Mn5  1  0.82290600  0.60916800  0.21373800  1
  Mn  Mn6  1  0.17709400  0.39083200  0.78626200  1
  Mn  Mn7  1  0.60457000  0.89083200  0.71373800  1
  Mn  Mn8  1  0.00000000  0.25000000  0.25000000  1
  Mn  Mn9  1  0.76952500  0.51952500  0.75000000  1
  Ge  Ge0  1  0.83041700  0.11641000  0.71400800  1
  Ge  Ge1  1  0.40240200  0.61641000  0.78599200  1
  Ge  Ge2  1  0.16958300  0.88359000  0.28599200  1
  Ge  Ge3  1  0.59759800  0.38359000  0.21400800  1
loop_
_geom_bond_atom_site_label_1
_geom_bond_atom_site_label_2
_geom_bond_distance
_geom_bond_site_symmetry_2
Mn0 Mn8 2.642917 1_555
Mn1 Mn4 2.500666 1_544
Mn1 Mn8 2.500666 1_555
Mn2 Mn4 2.642917 1_555
Mn3 Mn8 2.642917 1_655
Mn4 Mn7 2.500666 1_455
Mn4 Mn6 2.500666 1_555
Mn4 Mn5 2.500666 1_455
Mn4 Mn9 2.642917 1_455
Mn4 Mn8 2.653846 1_555
Mn4 Mn8 2.653846 1_566
Mn5 Mn8 2.500666 1_655
Mn6 Mn8 2.500666 1_555
Mn7 Mn8 2.500666 1_666
Ge0 Mn0 2.528158 1_656
Ge0 Mn2 2.528160 1_645
Ge0 Mn8 2.542169 1_656
Ge0 Mn4 2.542171 1_645
Ge0 Mn9 2.545315 1_555
Ge0 Mn3 2.545318 1_555
Ge0 Mn1 2.557100 1_555
Ge0 Mn7 2.586756 1_545
Ge0 Mn5 2.655143 1_556
Ge0 Mn5 2.655148 1_545
Ge1 Mn2 2.528154 1_555
Ge1 Mn0 2.528154 1_555
Ge1 Mn4 2.542171 1_555
Ge1 Mn8 2.542171 1_555
Ge1 Mn3 2.545314 1_566
Ge1 Mn9 2.545314 1_555
Ge1 Mn5 2.557103 1_556
Ge1 Mn6 2.586762 1_555
Ge1 Mn1 2.655146 1_566
Ge1 Mn1 2.655146 1_555
Ge2 Mn9 2.528158 1_454
Ge2 Mn3 2.528160 1_465
Ge2 Mn4 2.542169 1_554
Ge2 Mn8 2.542171 1_565
Ge2 Mn0 2.545315 1_555
Ge2 Mn2 2.545318 1_555
Ge2 Mn7 2.557100 1_555
Ge2 Mn1 2.586756 1_565
Ge2 Mn6 2.655143 1_554
Ge2 Mn6 2.655148 1_565
Ge3 Mn9 2.528154 1_555
Ge3 Mn3 2.528154 1_555
Ge3 Mn4 2.542171 1_655
Ge3 Mn8 2.542171 1_655
Ge3 Mn2 2.545314 1_544
Ge3 Mn0 2.545314 1_555
Ge3 Mn6 2.557103 1_554
Ge3 Mn5 2.586762 1_555
Ge3 Mn7 2.655146 1_555
Ge3 Mn7 2.655146 1_544
