# generated using pymatgen
data_ZnCuTeCl2O3
_symmetry_space_group_name_H-M   'P 1'
_cell_length_a   7.51924300
_cell_length_b   10.25924100
_cell_length_c   15.79716200
_cell_angle_alpha   90.00000000
_cell_angle_beta   90.00000000
_cell_angle_gamma   90.00000000
_symmetry_Int_Tables_number   1
_chemical_formula_structural   ZnCuTeCl2O3
_chemical_formula_sum   'Zn8 Cu8 Te8 Cl16 O24'
_cell_volume   1218.62034376
_cell_formula_units_Z   8
loop_
 _symmetry_equiv_pos_site_id
 _symmetry_equiv_pos_as_xyz
  1  'x, y, z'
loop_
 _atom_site_type_symbol
 _atom_site_label
 _atom_site_symmetry_multiplicity
 _atom_site_fract_x
 _atom_site_fract_y
 _atom_site_fract_z
 _atom_site_occupancy
  Zn  Zn0  1  0.84259000  0.49173800  0.61756400  1
  Zn  Zn1  1  0.84259000  0.00826200  0.88243600  1
  Zn  Zn2  1  0.65741000  0.50826200  0.11756400  1
  Zn  Zn3  1  0.34259000  0.49173800  0.88243600  1
  Zn  Zn4  1  0.15741000  0.50826200  0.38243600  1
  Zn  Zn5  1  0.15741000  0.99173800  0.11756400  1
  Zn  Zn6  1  0.34259000  0.00826200  0.61756400  1
  Zn  Zn7  1  0.65741000  0.99173800  0.38243600  1
  Cu  Cu0  1  0.88577700  0.23654000  0.45310200  1
  Cu  Cu1  1  0.88577700  0.26346000  0.04689800  1
  Cu  Cu2  1  0.38577700  0.23654000  0.04689800  1
  Cu  Cu3  1  0.61422300  0.73654000  0.54689800  1
  Cu  Cu4  1  0.11422300  0.73654000  0.95310200  1
  Cu  Cu5  1  0.38577700  0.26346000  0.45310200  1
  Cu  Cu6  1  0.61422300  0.76346000  0.95310200  1
  Cu  Cu7  1  0.11422300  0.76346000  0.54689800  1
  Te  Te0  1  0.69957600  0.01323500  0.09453400  1
  Te  Te1  1  0.69957600  0.48676500  0.40546600  1
  Te  Te2  1  0.80042400  0.98676500  0.59453400  1
  Te  Te3  1  0.19957600  0.48676500  0.09453400  1
  Te  Te4  1  0.30042400  0.98676500  0.90546600  1
  Te  Te5  1  0.80042400  0.51323500  0.90546600  1
  Te  Te6  1  0.19957600  0.01323500  0.40546600  1
  Te  Te7  1  0.30042400  0.51323500  0.59453400  1
  Cl  Cl0  1  0.54035300  0.70868000  0.12404600  1
  Cl  Cl1  1  0.33366700  0.42287200  0.28263700  1
  Cl  Cl2  1  0.45964700  0.29132000  0.87595400  1
  Cl  Cl3  1  0.16633300  0.57712800  0.78263700  1
  Cl  Cl4  1  0.66633300  0.57712800  0.71736300  1
  Cl  Cl5  1  0.16633300  0.92287200  0.71736300  1
  Cl  Cl6  1  0.54035300  0.79132000  0.37595400  1
  Cl  Cl7  1  0.66633300  0.92287200  0.78263700  1
  Cl  Cl8  1  0.45964700  0.20868000  0.62404600  1
  Cl  Cl9  1  0.95964700  0.29132000  0.62404600  1
  Cl  Cl10  1  0.04035300  0.70868000  0.37595400  1
  Cl  Cl11  1  0.04035300  0.79132000  0.12404600  1
  Cl  Cl12  1  0.33366700  0.07712800  0.21736300  1
  Cl  Cl13  1  0.95964700  0.20868000  0.87595400  1
  Cl  Cl14  1  0.83366700  0.42287200  0.21736300  1
  Cl  Cl15  1  0.83366700  0.07712800  0.28263700  1
  O  O0  1  0.68794600  0.94224000  0.98042100  1
  O  O1  1  0.31205400  0.44224000  0.48042100  1
  O  O2  1  0.18794600  0.94224000  0.51957900  1
  O  O3  1  0.06584500  0.58480400  0.58159400  1
  O  O4  1  0.36279500  0.81091000  0.94034600  1
  O  O5  1  0.13720500  0.31091000  0.05965400  1
  O  O6  1  0.68794600  0.55776000  0.51957900  1
  O  O7  1  0.43415500  0.08480400  0.41840600  1
  O  O8  1  0.63720500  0.18909000  0.05965400  1
  O  O9  1  0.81205400  0.05776000  0.48042100  1
  O  O10  1  0.31205400  0.05776000  0.01957900  1
  O  O11  1  0.56584500  0.58480400  0.91840600  1
  O  O12  1  0.63720500  0.31091000  0.44034600  1
  O  O13  1  0.86279500  0.68909000  0.94034600  1
  O  O14  1  0.18794600  0.55776000  0.98042100  1
  O  O15  1  0.43415500  0.41519600  0.08159400  1
  O  O16  1  0.13720500  0.18909000  0.44034600  1
  O  O17  1  0.36279500  0.68909000  0.55965400  1
  O  O18  1  0.93415500  0.08480400  0.08159400  1
  O  O19  1  0.86279500  0.81091000  0.55965400  1
  O  O20  1  0.56584500  0.91519600  0.58159400  1
  O  O21  1  0.06584500  0.91519600  0.91840600  1
  O  O22  1  0.93415500  0.41519600  0.41840600  1
  O  O23  1  0.81205400  0.44224000  0.01957900  1
loop_
_geom_bond_atom_site_label_1
_geom_bond_atom_site_label_2
_geom_bond_distance
_geom_bond_site_symmetry_2
Cu0 O22 1.947349 1_555
Cu0 O16 1.962588 1_655
Cu0 O9 1.964087 1_555
Cu0 O12 2.028837 1_555
Cu1 O18 1.947349 1_555
Cu1 O5 1.962588 1_655
Cu1 O23 1.964087 1_555
Cu1 O8 2.028837 1_555
Cu2 O15 1.947349 1_555
Cu2 O8 1.962588 1_555
Cu2 O10 1.964087 1_555
Cu2 O5 2.028837 1_555
Cu3 O20 1.947349 1_555
Cu3 O17 1.962588 1_555
Cu3 O6 1.964087 1_555
Cu3 O19 2.028837 1_555
Cu4 O21 1.947349 1_555
Cu4 O13 1.962588 1_455
Cu4 O14 1.964087 1_555
Cu4 O4 2.028837 1_555
Cu5 O7 1.947349 1_555
Cu5 O12 1.962588 1_555
Cu5 O1 1.964087 1_555
Cu5 O16 2.028837 1_555
Cu6 O11 1.947349 1_555
Cu6 O4 1.962588 1_555
Cu6 O0 1.964087 1_555
Cu6 O13 2.028837 1_555
Cu7 O3 1.947349 1_555
Cu7 O19 1.962588 1_455
Cu7 O2 1.964087 1_555
Cu7 O17 2.028837 1_555
Cl0 Zn2 2.238951 1_555
Cl0 Cu6 2.813661 1_554
Cl1 Zn4 2.238167 1_555
Cl2 Zn3 2.238951 1_555
Cl2 Cu2 2.813661 1_556
Cl3 Zn3 2.238167 1_555
Cl4 Zn0 2.238167 1_555
Cl5 Zn6 2.238167 1_565
Cl6 Zn7 2.238951 1_555
Cl6 Cu3 2.813661 1_555
Cl7 Zn1 2.238167 1_565
Cl8 Zn6 2.238951 1_555
Cl8 Cu5 2.813661 1_555
Cl9 Zn0 2.238951 1_555
Cl9 Cu0 2.813661 1_555
Cl10 Zn4 2.238951 1_555
Cl10 Cu7 2.813661 1_555
Cl11 Zn5 2.238951 1_555
Cl11 Cu4 2.813661 1_554
Cl12 Zn5 2.238167 1_545
Cl13 Zn1 2.238951 1_555
Cl13 Cu1 2.813661 1_556
Cl14 Zn2 2.238167 1_555
Cl15 Zn7 2.238167 1_545
O0 Te0 1.946211 1_566
O0 Zn1 2.051060 1_565
O1 Te7 1.946211 1_555
O1 Zn4 2.051060 1_555
O2 Te6 1.946211 1_565
O2 Zn6 2.051060 1_565
O3 Te7 1.921481 1_555
O3 Zn0 2.013097 1_455
O4 Te4 1.943828 1_555
O5 Te3 1.943828 1_555
O6 Te1 1.946211 1_555
O6 Zn0 2.051060 1_555
O7 Te6 1.921481 1_555
O7 Zn7 2.013097 1_545
O8 Te0 1.943828 1_555
O9 Te2 1.946211 1_545
O9 Zn7 2.051060 1_545
O10 Te4 1.946211 1_544
O10 Zn5 2.051060 1_545
O11 Te5 1.921481 1_555
O11 Zn3 2.013097 1_555
O12 Te1 1.943828 1_555
O13 Te5 1.943828 1_555
O14 Te3 1.946211 1_556
O14 Zn3 2.051060 1_555
O15 Te3 1.921481 1_555
O15 Zn2 2.013097 1_555
O16 Te6 1.943828 1_555
O17 Te7 1.943828 1_555
O18 Te0 1.921481 1_555
O18 Zn5 2.013097 1_645
O19 Te2 1.943828 1_555
O20 Te2 1.921481 1_555
O20 Zn6 2.013097 1_565
O21 Te4 1.921481 1_555
O21 Zn1 2.013097 1_465
O22 Te1 1.921481 1_555
O22 Zn4 2.013097 1_655
O23 Te5 1.946211 1_554
O23 Zn2 2.051060 1_555
