# generated using pymatgen
data_U3Ga5
_symmetry_space_group_name_H-M   'P 1'
_cell_length_a   5.99985113
_cell_length_b   5.99985113
_cell_length_c   9.37241800
_cell_angle_alpha   90.00000000
_cell_angle_beta   90.00000000
_cell_angle_gamma   101.11595389
_symmetry_Int_Tables_number   1
_chemical_formula_structural   U3Ga5
_chemical_formula_sum   'U6 Ga10'
_cell_volume   331.06053117
_cell_formula_units_Z   2
loop_
 _symmetry_equiv_pos_site_id
 _symmetry_equiv_pos_as_xyz
  1  'x, y, z'
loop_
 _atom_site_type_symbol
 _atom_site_label
 _atom_site_symmetry_multiplicity
 _atom_site_fract_x
 _atom_site_fract_y
 _atom_site_fract_z
 _atom_site_occupancy
  U  U0  1  0.36986100  0.36986100  0.75000000  1
  U  U1  1  0.78947900  0.21052100  0.00000000  1
  U  U2  1  0.63013900  0.63013900  0.25000000  1
  U  U3  1  0.21052100  0.78947900  0.50000000  1
  U  U4  1  0.78947900  0.21052100  0.50000000  1
  U  U5  1  0.21052100  0.78947900  0.00000000  1
  Ga  Ga0  1  0.98300700  0.98300700  0.75000000  1
  Ga  Ga1  1  0.70129000  0.70129000  0.94417900  1
  Ga  Ga2  1  0.51209400  0.92787300  0.75000000  1
  Ga  Ga3  1  0.29871000  0.29871000  0.44417900  1
  Ga  Ga4  1  0.07212700  0.48790600  0.25000000  1
  Ga  Ga5  1  0.01699300  0.01699300  0.25000000  1
  Ga  Ga6  1  0.29871000  0.29871000  0.05582100  1
  Ga  Ga7  1  0.48790600  0.07212700  0.25000000  1
  Ga  Ga8  1  0.70129000  0.70129000  0.55582100  1
  Ga  Ga9  1  0.92787300  0.51209400  0.75000000  1
loop_
_geom_bond_atom_site_label_1
_geom_bond_atom_site_label_2
_geom_bond_distance
_geom_bond_site_symmetry_2
Ga0 Ga2 2.780642 1_555
Ga0 Ga9 2.780642 1_555
Ga0 Ga1 2.815043 1_555
Ga0 Ga8 2.815043 1_555
Ga0 U0 2.949133 1_665
Ga0 U3 3.051706 1_655
Ga0 U4 3.051706 1_565
Ga0 U1 3.051706 1_566
Ga0 U5 3.051706 1_656
Ga1 Ga2 2.654030 1_555
Ga1 Ga9 2.654030 1_555
Ga1 U2 2.917153 1_556
Ga1 U1 3.043887 1_566
Ga1 U5 3.043887 1_656
Ga1 U0 3.113821 1_555
Ga1 U5 3.134448 1_556
Ga1 U1 3.134448 1_556
Ga2 Ga8 2.654030 1_555
Ga2 U0 2.938236 1_565
Ga2 U5 2.978959 1_556
Ga2 U3 2.978959 1_555
Ga2 U1 3.169788 1_566
Ga2 U4 3.169788 1_565
Ga2 U0 3.291749 1_555
Ga3 Ga4 2.654030 1_555
Ga3 Ga7 2.654030 1_555
Ga3 Ga5 2.815043 1_555
Ga3 U0 2.917153 1_555
Ga3 U4 3.043887 1_455
Ga3 U3 3.043887 1_545
Ga3 U2 3.113821 1_555
Ga3 U4 3.134448 1_555
Ga3 U3 3.134448 1_555
Ga4 Ga6 2.654030 1_555
Ga4 Ga5 2.780642 1_555
Ga4 U2 2.938236 1_455
Ga4 U5 2.978959 1_555
Ga4 U3 2.978959 1_555
Ga4 U1 3.169788 1_455
Ga4 U4 3.169788 1_455
Ga4 U2 3.291749 1_555
Ga5 Ga7 2.780642 1_555
Ga5 Ga6 2.815043 1_555
Ga5 U2 2.949133 1_445
Ga5 U4 3.051706 1_455
Ga5 U1 3.051706 1_455
Ga5 U3 3.051706 1_545
Ga5 U5 3.051706 1_545
Ga6 Ga7 2.654030 1_555
Ga6 U0 2.917153 1_554
Ga6 U1 3.043887 1_455
Ga6 U5 3.043887 1_545
Ga6 U2 3.113821 1_555
Ga6 U1 3.134448 1_555
Ga6 U5 3.134448 1_555
Ga7 U2 2.938236 1_545
Ga7 U1 2.978959 1_555
Ga7 U4 2.978959 1_555
Ga7 U3 3.169788 1_545
Ga7 U5 3.169788 1_545
Ga7 U2 3.291749 1_555
Ga8 Ga9 2.654030 1_555
Ga8 U2 2.917153 1_555
Ga8 U3 3.043887 1_655
Ga8 U4 3.043887 1_565
Ga8 U0 3.113821 1_555
Ga8 U4 3.134448 1_555
Ga8 U3 3.134448 1_555
Ga9 U0 2.938236 1_655
Ga9 U1 2.978959 1_556
Ga9 U4 2.978959 1_555
Ga9 U5 3.169788 1_656
Ga9 U3 3.169788 1_655
Ga9 U0 3.291749 1_555
