# generated using pymatgen
data_Sc29S42
_symmetry_space_group_name_H-M   'P 1'
_cell_length_a   6.37649868
_cell_length_b   6.37649868
_cell_length_c   66.51574723
_cell_angle_alpha   84.98143575
_cell_angle_beta   84.98143575
_cell_angle_gamma   33.83932880
_symmetry_Int_Tables_number   1
_chemical_formula_structural   Sc29S42
_chemical_formula_sum   'Sc29 S42'
_cell_volume   1499.74187307
_cell_formula_units_Z   1
loop_
 _symmetry_equiv_pos_site_id
 _symmetry_equiv_pos_as_xyz
  1  'x, y, z'
loop_
 _atom_site_type_symbol
 _atom_site_label
 _atom_site_symmetry_multiplicity
 _atom_site_fract_x
 _atom_site_fract_y
 _atom_site_fract_z
 _atom_site_occupancy
  Sc  Sc0  1  0.00155600  0.00155600  0.00065300  1
  Sc  Sc1  1  0.42796500  0.42796500  0.04685100  1
  Sc  Sc2  1  0.14611100  0.14611100  0.07208400  1
  Sc  Sc3  1  0.85531700  0.85531700  0.09824700  1
  Sc  Sc4  1  0.28493800  0.28493800  0.14464500  1
  Sc  Sc5  1  0.71413400  0.71413400  0.19016500  1
  Sc  Sc6  1  0.14300400  0.14300400  0.23818700  1
  Sc  Sc7  1  0.57136200  0.57136200  0.28575100  1
  Sc  Sc8  1  0.00001400  0.00001400  0.33332400  1
  Sc  Sc9  1  0.42869600  0.42869600  0.38091800  1
  Sc  Sc10  1  0.85696700  0.85696700  0.42850900  1
  Sc  Sc11  1  0.71492400  0.71492400  0.52201700  1
  Sc  Sc12  1  0.28582300  0.28582300  0.47652300  1
  Sc  Sc13  1  0.57202500  0.57202500  0.61978400  1
  Sc  Sc14  1  0.14469100  0.14469100  0.56840700  1
  Sc  Sc15  1  0.85402300  0.85402300  0.59454300  1
  Sc  Sc16  1  0.99839300  0.99839300  0.66606900  1
  Sc  Sc17  1  0.71444400  0.71444400  0.68999600  1
  Sc  Sc18  1  0.42828500  0.42828500  0.71436200  1
  Sc  Sc19  1  0.14282200  0.14282200  0.73878800  1
  Sc  Sc20  1  0.85863000  0.85863000  0.76266600  1
  Sc  Sc21  1  0.28442000  0.28442000  0.80873000  1
  Sc  Sc22  1  0.99907000  0.99907000  0.83270000  1
  Sc  Sc23  1  0.71578400  0.71578400  0.85700900  1
  Sc  Sc24  1  0.42694800  0.42694800  0.88091400  1
  Sc  Sc25  1  0.14270700  0.14270700  0.90473500  1
  Sc  Sc26  1  0.85865800  0.85865800  0.92857900  1
  Sc  Sc27  1  0.57052000  0.57052000  0.95245900  1
  Sc  Sc28  1  0.28632500  0.28632500  0.97669500  1
  S  S0  1  0.36249200  0.36249200  0.01109500  1
  S  S1  1  0.78546600  0.78546600  0.05923000  1
  S  S2  1  0.06519800  0.06519800  0.03598700  1
  S  S3  1  0.21560700  0.21560700  0.10550400  1
  S  S4  1  0.50125000  0.50125000  0.08188000  1
  S  S5  1  0.65133200  0.65133200  0.15470700  1
  S  S6  1  0.92107500  0.92107500  0.13017800  1
  S  S7  1  0.08099200  0.08099200  0.20266300  1
  S  S8  1  0.34935200  0.34935200  0.17897700  1
  S  S9  1  0.50921200  0.50921200  0.24996100  1
  S  S10  1  0.77559700  0.77559700  0.22621100  1
  S  S11  1  0.93757300  0.93757300  0.29766800  1
  S  S12  1  0.20505000  0.20505000  0.27378100  1
  S  S13  1  0.36599900  0.36599900  0.34532900  1
  S  S14  1  0.63403400  0.63403400  0.32135700  1
  S  S15  1  0.79501200  0.79501200  0.39290400  1
  S  S16  1  0.06243500  0.06243500  0.36899600  1
  S  S17  1  0.22440100  0.22440100  0.44046200  1
  S  S18  1  0.49071200  0.49071200  0.41671600  1
  S  S19  1  0.65062600  0.65062600  0.48766700  1
  S  S20  1  0.91904700  0.91904700  0.46400000  1
  S  S21  1  0.07886500  0.07886500  0.53648100  1
  S  S22  1  0.34858600  0.34858600  0.51195200  1
  S  S23  1  0.49879400  0.49879400  0.58473200  1
  S  S24  1  0.78439900  0.78439900  0.56112600  1
  S  S25  1  0.93484900  0.93484900  0.63062700  1
  S  S26  1  0.21456000  0.21456000  0.60739900  1
  S  S27  1  0.35561400  0.35561400  0.67843900  1
  S  S28  1  0.63723800  0.63723800  0.65559700  1
  S  S29  1  0.78561700  0.78561700  0.72636500  1
  S  S30  1  0.07153000  0.07153000  0.70242400  1
  S  S31  1  0.21927800  0.21927800  0.77336500  1
  S  S32  1  0.50123100  0.50123100  0.75022600  1
  S  S33  1  0.64156400  0.64156400  0.82140500  1
  S  S34  1  0.92377600  0.92377600  0.79809700  1
  S  S35  1  0.07098200  0.07098200  0.86886000  1
  S  S36  1  0.35651700  0.35651700  0.84493500  1
  S  S37  1  0.50016100  0.50016100  0.91652700  1
  S  S38  1  0.78553300  0.78553300  0.89299500  1
  S  S39  1  0.92931300  0.92931300  0.96447400  1
  S  S40  1  0.21467600  0.21467600  0.94058700  1
  S  S41  1  0.64445500  0.64445500  0.98809200  1
loop_
_geom_bond_atom_site_label_1
_geom_bond_atom_site_label_2
_geom_bond_distance
_geom_bond_site_symmetry_2
S0 Sc28 2.547169 1_554
S0 Sc0 2.567017 1_655
S0 Sc0 2.567017 1_565
S0 Sc1 2.577220 1_555
S1 Sc2 2.607662 1_655
S1 Sc2 2.607662 1_565
S1 Sc1 2.623516 1_565
S1 Sc1 2.623516 1_655
S1 Sc3 2.804657 1_555
S2 Sc0 2.541739 1_555
S2 Sc1 2.558962 1_545
S2 Sc1 2.558962 1_455
S2 Sc2 2.678238 1_555
S3 Sc2 2.450550 1_555
S3 Sc3 2.536142 1_545
S3 Sc3 2.536142 1_455
S3 Sc4 2.810066 1_555
S4 Sc1 2.570855 1_555
S4 Sc2 2.604161 1_565
S4 Sc2 2.604161 1_655
S4 Sc3 2.728517 1_545
S4 Sc3 2.728517 1_455
S5 Sc4 2.519832 1_655
S5 Sc4 2.519832 1_565
S5 Sc5 2.545627 1_555
S6 Sc3 2.338020 1_555
S6 Sc4 2.614662 1_565
S6 Sc4 2.614662 1_655
S7 Sc6 2.546117 1_555
S7 Sc5 2.554766 1_455
S7 Sc5 2.554766 1_545
S8 Sc4 2.482092 1_555
S8 Sc5 2.548513 1_455
S8 Sc5 2.548513 1_545
S9 Sc6 2.547171 1_565
S9 Sc6 2.547171 1_655
S9 Sc7 2.563664 1_555
S10 Sc6 2.541629 1_655
S10 Sc6 2.541629 1_565
S10 Sc5 2.576777 1_555
S11 Sc7 2.549532 1_655
S11 Sc7 2.549532 1_565
S11 Sc8 2.556505 1_665
S12 Sc7 2.549671 1_545
S12 Sc7 2.549671 1_455
S12 Sc6 2.550724 1_555
S13 Sc8 2.552702 1_655
S13 Sc8 2.552702 1_565
S13 Sc9 2.553448 1_555
S14 Sc8 2.552098 1_565
S14 Sc8 2.552098 1_655
S14 Sc7 2.554410 1_555
S15 Sc9 2.549911 1_565
S15 Sc9 2.549911 1_655
S15 Sc10 2.550999 1_555
S16 Sc9 2.549243 1_455
S16 Sc9 2.549243 1_545
S16 Sc8 2.557428 1_555
S17 Sc10 2.541039 1_455
S17 Sc10 2.541039 1_545
S17 Sc12 2.577544 1_555
S18 Sc10 2.547134 1_545
S18 Sc10 2.547134 1_455
S18 Sc9 2.563551 1_555
S19 Sc11 2.482661 1_555
S19 Sc12 2.547674 1_565
S19 Sc12 2.547674 1_655
S20 Sc10 2.544338 1_555
S20 Sc12 2.555817 1_655
S20 Sc12 2.555817 1_565
S21 Sc14 2.338061 1_555
S21 Sc11 2.614027 1_545
S21 Sc11 2.614027 1_455
S22 Sc11 2.520298 1_455
S22 Sc11 2.520298 1_545
S22 Sc12 2.543603 1_555
S23 Sc13 2.572007 1_555
S23 Sc15 2.603629 1_455
S23 Sc15 2.603629 1_545
S23 Sc14 2.727299 1_565
S23 Sc14 2.727299 1_655
S24 Sc15 2.451033 1_555
S24 Sc14 2.536332 1_565
S24 Sc14 2.536332 1_655
S24 Sc11 2.808714 1_555
S25 Sc16 2.548118 1_555
S25 Sc13 2.558214 1_565
S25 Sc13 2.558214 1_655
S25 Sc15 2.676955 1_555
S26 Sc15 2.608518 1_455
S26 Sc15 2.608518 1_545
S26 Sc13 2.623896 1_545
S26 Sc13 2.623896 1_455
S26 Sc14 2.803158 1_555
S27 Sc17 2.599871 1_455
S27 Sc17 2.599871 1_545
S27 Sc18 2.623556 1_555
S27 Sc16 2.625532 1_455
S27 Sc16 2.625532 1_545
S28 Sc17 2.552799 1_555
S28 Sc16 2.565738 1_455
S28 Sc16 2.565738 1_545
S28 Sc13 2.579578 1_555
S29 Sc18 2.618607 1_655
S29 Sc18 2.618607 1_565
S29 Sc19 2.626549 1_565
S29 Sc19 2.626549 1_655
S29 Sc17 2.643926 1_555
S29 Sc20 2.648994 1_555
S30 Sc18 2.622047 1_545
S30 Sc18 2.622047 1_455
S30 Sc17 2.627555 1_545
S30 Sc17 2.627555 1_455
S30 Sc19 2.644210 1_555
S30 Sc16 2.653013 1_445
S31 Sc21 2.550893 1_555
S31 Sc19 2.559714 1_555
S31 Sc20 2.572895 1_455
S31 Sc20 2.572895 1_545
S32 Sc19 2.601292 1_565
S32 Sc19 2.601292 1_655
S32 Sc18 2.621277 1_555
S32 Sc20 2.625335 1_545
S32 Sc20 2.625335 1_455
S33 Sc22 2.606150 1_545
S33 Sc22 2.606150 1_455
S33 Sc23 2.611649 1_555
S33 Sc21 2.631327 1_565
S33 Sc21 2.631327 1_655
S34 Sc22 2.555029 1_555
S34 Sc20 2.555086 1_555
S34 Sc21 2.571980 1_565
S34 Sc21 2.571980 1_655
S35 Sc25 2.615704 1_555
S35 Sc24 2.630077 1_455
S35 Sc24 2.630077 1_545
S35 Sc23 2.632840 1_545
S35 Sc23 2.632840 1_455
S35 Sc22 2.634535 1_445
S36 Sc23 2.604802 1_545
S36 Sc23 2.604802 1_455
S36 Sc24 2.615681 1_555
S36 Sc22 2.621525 1_545
S36 Sc22 2.621525 1_455
S36 Sc21 2.638300 1_555
S37 Sc24 2.606957 1_555
S37 Sc26 2.610379 1_545
S37 Sc26 2.610379 1_455
S37 Sc27 2.612364 1_555
S37 Sc25 2.614266 1_655
S37 Sc25 2.614266 1_565
S38 Sc26 2.604686 1_555
S38 Sc24 2.610176 1_565
S38 Sc24 2.610176 1_655
S38 Sc23 2.612702 1_555
S38 Sc25 2.615623 1_655
S38 Sc25 2.615623 1_565
S39 Sc27 2.607487 1_565
S39 Sc27 2.607487 1_655
S39 Sc26 2.611531 1_555
S39 Sc28 2.624667 1_565
S39 Sc28 2.624667 1_655
S39 Sc0 2.637412 1_666
S40 Sc25 2.615508 1_555
S40 Sc27 2.628108 1_455
S40 Sc27 2.628108 1_545
S40 Sc26 2.628927 1_545
S40 Sc26 2.628927 1_455
S40 Sc28 2.629936 1_555
S41 Sc28 2.602834 1_565
S41 Sc28 2.602834 1_655
S41 Sc27 2.611968 1_555
S41 Sc0 2.629699 1_656
S41 Sc0 2.629699 1_566
