# generated using pymatgen
data_NaCo2HSe2O7
_symmetry_space_group_name_H-M   'P 1'
_cell_length_a   5.97596741
_cell_length_b   8.16832815
_cell_length_c   13.16505622
_cell_angle_alpha   90.00000000
_cell_angle_beta   90.00000000
_cell_angle_gamma   90.00000000
_symmetry_Int_Tables_number   1
_chemical_formula_structural   NaCo2HSe2O7
_chemical_formula_sum   'Na4 Co8 H4 Se8 O28'
_cell_volume   642.63461531
_cell_formula_units_Z   4
loop_
 _symmetry_equiv_pos_site_id
 _symmetry_equiv_pos_as_xyz
  1  'x, y, z'
loop_
 _atom_site_type_symbol
 _atom_site_label
 _atom_site_symmetry_multiplicity
 _atom_site_fract_x
 _atom_site_fract_y
 _atom_site_fract_z
 _atom_site_occupancy
  Na  Na0  1  0.75000000  0.12448539  0.24873891  1
  Na  Na1  1  0.75000000  0.37551461  0.74873891  1
  Na  Na2  1  0.25000000  0.87551461  0.75126109  1
  Na  Na3  1  0.25000000  0.62448539  0.25126109  1
  Co  Co0  1  0.00000000  0.50000000  0.50000000  1
  Co  Co1  1  0.50000000  -0.00000000  0.00000000  1
  Co  Co2  1  0.50000000  0.50000000  0.50000000  1
  Co  Co3  1  0.00000000  -0.00000000  0.00000000  1
  Co  Co4  1  0.25000000  0.21465424  0.60968955  1
  Co  Co5  1  0.25000000  0.28534576  0.10968955  1
  Co  Co6  1  0.75000000  0.78534576  0.39031045  1
  Co  Co7  1  0.75000000  0.71465424  0.89031045  1
  H  H0  1  0.25000000  0.97596128  0.16499873  1
  H  H1  1  0.25000000  0.52403872  0.66499873  1
  H  H2  1  0.75000000  0.02403872  0.83500127  1
  H  H3  1  0.75000000  0.47596128  0.33500127  1
  Se  Se0  1  0.25000000  0.22794206  0.82718363  1
  Se  Se1  1  0.25000000  0.27205794  0.32718363  1
  Se  Se2  1  0.75000000  0.77205794  0.17281637  1
  Se  Se3  1  0.75000000  0.72794206  0.67281637  1
  Se  Se4  1  0.75000000  0.11454687  0.52590334  1
  Se  Se5  1  0.75000000  0.38545313  0.02590334  1
  Se  Se6  1  0.25000000  0.88545313  0.47409666  1
  Se  Se7  1  0.25000000  0.61454687  0.97409666  1
  O  O0  1  0.75000000  0.54168311  0.60678337  1
  O  O1  1  0.75000000  0.95831689  0.10678337  1
  O  O2  1  0.25000000  0.45831689  0.39321663  1
  O  O3  1  0.25000000  0.04168311  0.89321663  1
  O  O4  1  0.25000000  0.97729003  0.59101731  1
  O  O5  1  0.25000000  0.52270997  0.09101731  1
  O  O6  1  0.75000000  0.02270997  0.40898269  1
  O  O7  1  0.75000000  0.47729003  0.90898269  1
  O  O8  1  0.96227913  0.69298411  0.75730642  1
  O  O9  1  0.53772087  0.80701589  0.25730642  1
  O  O10  1  0.46227913  0.30701589  0.24269358  1
  O  O11  1  0.03772087  0.19298411  0.74269358  1
  O  O12  1  0.03772087  0.30701589  0.24269358  1
  O  O13  1  0.46227913  0.19298411  0.74269358  1
  O  O14  1  0.53772087  0.69298411  0.75730642  1
  O  O15  1  0.96227913  0.80701589  0.25730642  1
  O  O16  1  0.97350864  0.24552186  0.51129166  1
  O  O17  1  0.52649136  0.25447814  0.01129166  1
  O  O18  1  0.47350864  0.75447814  0.48870834  1
  O  O19  1  0.02649136  0.74552186  0.98870834  1
  O  O20  1  0.02649136  0.75447814  0.48870834  1
  O  O21  1  0.47350864  0.74552186  0.98870834  1
  O  O22  1  0.52649136  0.24552186  0.51129166  1
  O  O23  1  0.97350864  0.25447814  0.01129166  1
  O  O24  1  0.25000000  0.04393506  0.10456249  1
  O  O25  1  0.25000000  0.45606494  0.60456249  1
  O  O26  1  0.75000000  0.95606494  0.89543751  1
  O  O27  1  0.75000000  0.54393506  0.39543751  1
loop_
_geom_bond_atom_site_label_1
_geom_bond_atom_site_label_2
_geom_bond_distance
_geom_bond_site_symmetry_2
Na0 O6 2.267511 1_555
Na0 O12 2.277212 1_655
Na0 O10 2.277212 1_555
Na0 O1 2.309746 1_545
Na1 O7 2.267511 1_555
Na1 O13 2.277212 1_555
Na1 O11 2.277212 1_655
Na1 O0 2.309746 1_555
Na2 O4 2.267511 1_555
Na2 O14 2.277212 1_555
Na2 O8 2.277212 1_455
Na2 O3 2.309746 1_565
Na3 O5 2.267511 1_555
Na3 O9 2.277212 1_555
Na3 O15 2.277212 1_455
Na3 O2 2.309746 1_555
Co0 O25 2.062947 1_555
Co0 O27 2.062947 1_455
Co0 O2 2.079480 1_555
Co0 O0 2.079480 1_455
Co0 O20 2.089974 1_555
Co0 O16 2.089974 1_455
Co1 O26 2.062947 1_544
Co1 O24 2.062947 1_555
Co1 O1 2.079480 1_545
Co1 O3 2.079480 1_554
Co1 O17 2.089974 1_555
Co1 O21 2.089974 1_544
Co2 O25 2.062947 1_555
Co2 O27 2.062947 1_555
Co2 O2 2.079480 1_555
Co2 O0 2.079480 1_555
Co2 O18 2.089974 1_555
Co2 O22 2.089974 1_555
Co3 O26 2.062947 1_444
Co3 O24 2.062947 1_555
Co3 O1 2.079480 1_445
Co3 O3 2.079480 1_554
Co3 O23 2.089974 1_455
Co3 O19 2.089974 1_544
Co4 O4 1.954390 1_545
Co4 O25 1.973077 1_555
Co4 O16 2.114657 1_455
Co4 O22 2.114657 1_555
Co4 O13 2.169477 1_555
Co4 O11 2.169477 1_555
Co5 O5 1.954390 1_555
Co5 O24 1.973077 1_555
Co5 O23 2.114657 1_455
Co5 O17 2.114657 1_555
Co5 O12 2.169477 1_555
Co5 O10 2.169477 1_555
Co6 O6 1.954390 1_565
Co6 O27 1.973077 1_555
Co6 O20 2.114657 1_655
Co6 O18 2.114657 1_555
Co6 O9 2.169477 1_555
Co6 O15 2.169477 1_555
Co7 O7 1.954390 1_555
Co7 O26 1.973077 1_555
Co7 O19 2.114657 1_655
Co7 O21 2.114657 1_555
Co7 O8 2.169477 1_555
Co7 O14 2.169477 1_555
H0 O24 0.970225 1_565
H1 O25 0.970225 1_555
H2 O26 0.970225 1_545
H3 O27 0.970225 1_555
O0 Se3 1.752274 1_555
O1 Se2 1.752274 1_555
O2 Se1 1.752274 1_555
O3 Se0 1.752274 1_555
O4 Se6 1.712330 1_555
O5 Se7 1.712330 1_554
O6 Se4 1.712330 1_555
O7 Se5 1.712330 1_556
O8 Se3 1.711158 1_555
O9 Se2 1.711158 1_555
O10 Se1 1.711158 1_555
O11 Se0 1.711158 1_555
O12 Se1 1.711158 1_555
O13 Se0 1.711158 1_555
O14 Se3 1.711158 1_555
O15 Se2 1.711158 1_555
O16 Se4 1.722097 1_555
O17 Se5 1.722097 1_555
O18 Se6 1.722097 1_555
O19 Se7 1.722097 1_555
O20 Se6 1.722097 1_555
O21 Se7 1.722097 1_555
O22 Se4 1.722097 1_555
O23 Se5 1.722097 1_555
