# generated using pymatgen
data_Ca2NF
_symmetry_space_group_name_H-M   'P 1'
_cell_length_a   7.13219094
_cell_length_b   7.13219094
_cell_length_c   34.84837779
_cell_angle_alpha   89.73580214
_cell_angle_beta   89.73580214
_cell_angle_gamma   59.96218520
_symmetry_Int_Tables_number   1
_chemical_formula_structural   Ca2NF
_chemical_formula_sum   'Ca48 N24 F24'
_cell_volume   1534.57229770
_cell_formula_units_Z   24
loop_
 _symmetry_equiv_pos_site_id
 _symmetry_equiv_pos_as_xyz
  1  'x, y, z'
loop_
 _atom_site_type_symbol
 _atom_site_label
 _atom_site_symmetry_multiplicity
 _atom_site_fract_x
 _atom_site_fract_y
 _atom_site_fract_z
 _atom_site_occupancy
  Ca  Ca0  1  0.34423600  0.34423600  0.95780800  1
  Ca  Ca1  1  0.49544200  0.49544200  0.87769000  1
  Ca  Ca2  1  0.34989700  0.79210900  0.95431500  1
  Ca  Ca3  1  0.79210900  0.34989700  0.95431500  1
  Ca  Ca4  1  0.53064100  0.98261900  0.87376500  1
  Ca  Ca5  1  0.68123400  0.68123400  0.78846000  1
  Ca  Ca6  1  0.83363800  0.83363800  0.71306300  1
  Ca  Ca7  1  0.68128300  0.13916700  0.78820300  1
  Ca  Ca8  1  0.98261900  0.53064100  0.87376500  1
  Ca  Ca9  1  0.82317600  0.82317600  0.95107700  1
  Ca  Ca10  1  0.98083400  0.98083400  0.87521600  1
  Ca  Ca11  1  0.13916700  0.68128300  0.78820300  1
  Ca  Ca12  1  0.86349900  0.31899200  0.70979100  1
  Ca  Ca13  1  0.01499700  0.01499700  0.62355700  1
  Ca  Ca14  1  0.16700800  0.16700800  0.54770600  1
  Ca  Ca15  1  0.01459100  0.47030800  0.62337200  1
  Ca  Ca16  1  0.31899200  0.86349900  0.70979100  1
  Ca  Ca17  1  0.16606100  0.16606100  0.78580900  1
  Ca  Ca18  1  0.31834600  0.31834600  0.70980700  1
  Ca  Ca19  1  0.47030800  0.01459100  0.62337200  1
  Ca  Ca20  1  0.19649300  0.65221400  0.54404800  1
  Ca  Ca21  1  0.34843100  0.34843100  0.45707500  1
  Ca  Ca22  1  0.50035600  0.50035600  0.38097300  1
  Ca  Ca23  1  0.34797100  0.80319800  0.45691800  1
  Ca  Ca24  1  0.65221400  0.19649300  0.54404800  1
  Ca  Ca25  1  0.49961500  0.49961500  0.61973900  1
  Ca  Ca26  1  0.65170700  0.65170700  0.54387800  1
  Ca  Ca27  1  0.80319800  0.34797100  0.45691800  1
  Ca  Ca28  1  0.52978700  0.98543700  0.37739600  1
  Ca  Ca29  1  0.68174300  0.68174300  0.29032800  1
  Ca  Ca30  1  0.83402300  0.83402300  0.21443100  1
  Ca  Ca31  1  0.68112300  0.13659400  0.29028800  1
  Ca  Ca32  1  0.83301500  0.83301500  0.45315600  1
  Ca  Ca33  1  0.98543700  0.52978700  0.37739600  1
  Ca  Ca34  1  0.98508800  0.98508800  0.37720800  1
  Ca  Ca35  1  0.13659400  0.68112300  0.29028800  1
  Ca  Ca36  1  0.86273300  0.31777500  0.21085000  1
  Ca  Ca37  1  0.01501600  0.01501600  0.12320800  1
  Ca  Ca38  1  0.17312300  0.17312300  0.04750100  1
  Ca  Ca39  1  0.01361600  0.47096400  0.12429400  1
  Ca  Ca40  1  0.31777500  0.86273300  0.21085000  1
  Ca  Ca41  1  0.16647100  0.16647100  0.28642300  1
  Ca  Ca42  1  0.31829700  0.31829700  0.21047800  1
  Ca  Ca43  1  0.47096400  0.01361600  0.12429400  1
  Ca  Ca44  1  0.20022600  0.64525400  0.04622300  1
  Ca  Ca45  1  0.64525400  0.20022600  0.04622300  1
  Ca  Ca46  1  0.50303700  0.50303700  0.12075100  1
  Ca  Ca47  1  0.65413100  0.65413100  0.04268700  1
  N  N0  1  0.16334800  0.66144900  0.91658200  1
  N  N1  1  0.66144900  0.16334800  0.91658200  1
  N  N2  1  0.66304500  0.66304500  0.91505600  1
  N  N3  1  0.49851400  0.00099200  0.74924900  1
  N  N4  1  0.00099200  0.49851400  0.74924900  1
  N  N5  1  0.83413100  0.83413100  0.83149400  1
  N  N6  1  0.00084200  0.00084200  0.74898500  1
  N  N7  1  0.83267200  0.33365800  0.58335400  1
  N  N8  1  0.33365800  0.83267200  0.58335400  1
  N  N9  1  0.16679600  0.16679600  0.66591400  1
  N  N10  1  0.16648700  0.66676800  0.41668000  1
  N  N11  1  0.33365500  0.33365500  0.58333300  1
  N  N12  1  0.66676800  0.16648700  0.41668000  1
  N  N13  1  0.49995100  0.49995100  0.49994900  1
  N  N14  1  0.50029500  0.99963200  0.24992600  1
  N  N15  1  0.66670800  0.66670800  0.41670600  1
  N  N16  1  0.99963200  0.50029500  0.24992600  1
  N  N17  1  0.83324700  0.83324700  0.33327700  1
  N  N18  1  0.83731300  0.33254600  0.08289100  1
  N  N19  1  0.99980300  0.99980300  0.25015900  1
  N  N20  1  0.33254600  0.83731300  0.08289100  1
  N  N21  1  0.16583800  0.16583800  0.16699800  1
  N  N22  1  0.33534100  0.33534100  0.08487500  1
  N  N23  1  0.49864200  0.49864200  0.00024200  1
  F  F0  1  0.14608800  0.14608800  0.97728100  1
  F  F1  1  0.98061600  0.57273100  0.00578600  1
  F  F2  1  0.49997600  0.49997600  0.74290300  1
  F  F3  1  0.35049400  0.80007100  0.82866800  1
  F  F4  1  0.57273100  0.98061600  0.00578600  1
  F  F5  1  0.80007100  0.35049400  0.82866800  1
  F  F6  1  0.83339200  0.83339200  0.58158600  1
  F  F7  1  0.66928200  0.16132000  0.66559400  1
  F  F8  1  0.16132000  0.66928200  0.66559400  1
  F  F9  1  0.34791500  0.34791500  0.82896900  1
  F  F10  1  0.00073600  0.49823800  0.49918900  1
  F  F11  1  0.16675800  0.16675800  0.41505400  1
  F  F12  1  0.16420500  0.16420500  0.88377000  1
  F  F13  1  0.49823800  0.00073600  0.49918900  1
  F  F14  1  0.66955600  0.66955600  0.66559900  1
  F  F15  1  0.49999000  0.49999000  0.24863800  1
  F  F16  1  0.33394100  0.83236200  0.33248300  1
  F  F17  1  0.00071200  0.00071200  0.49919600  1
  F  F18  1  0.83236200  0.33394100  0.33248300  1
  F  F19  1  0.83623800  0.83623800  0.08888300  1
  F  F20  1  0.17135100  0.66411800  0.16623100  1
  F  F21  1  0.33423700  0.33423700  0.33241800  1
  F  F22  1  0.66515400  0.66515400  0.16516300  1
  F  F23  1  0.66411800  0.17135100  0.16623100  1
loop_
_geom_bond_atom_site_label_1
_geom_bond_atom_site_label_2
_geom_bond_distance
_geom_bond_site_symmetry_2
Ca0 N23 2.420004 1_556
Ca0 N0 2.431449 1_555
Ca0 N1 2.431449 1_555
Ca0 F0 2.537075 1_555
Ca0 F4 2.816191 1_546
Ca0 F1 2.816191 1_456
Ca1 N2 2.452080 1_555
Ca1 N1 2.454881 1_555
Ca1 N0 2.454881 1_555
Ca1 F9 2.497643 1_555
Ca1 F5 2.537921 1_555
Ca1 F3 2.537921 1_555
Ca2 F0 2.336921 1_565
Ca2 N2 2.373284 1_555
Ca2 N0 2.374121 1_555
Ca2 N23 2.414468 1_556
Ca3 F0 2.336921 1_655
Ca3 N2 2.373284 1_555
Ca3 N1 2.374121 1_555
Ca3 N23 2.414468 1_556
Ca4 F12 2.288306 1_565
Ca4 N5 2.380506 1_555
Ca4 N2 2.446375 1_555
Ca4 N1 2.448016 1_565
Ca4 F9 2.739568 1_565
Ca4 F3 2.743712 1_555
Ca5 N4 2.403903 1_655
Ca5 N3 2.403903 1_565
Ca5 N5 2.418269 1_555
Ca5 F5 2.494986 1_555
Ca5 F3 2.494986 1_555
Ca5 F2 2.752079 1_555
Ca6 N3 2.420265 1_565
Ca6 N4 2.420265 1_655
Ca6 N6 2.421283 1_665
Ca6 F8 2.609989 1_655
Ca6 F7 2.609989 1_565
Ca6 F14 2.623296 1_555
Ca7 N6 2.401727 1_655
Ca7 N5 2.409974 1_545
Ca7 N3 2.414111 1_555
Ca7 F5 2.507394 1_555
Ca7 F9 2.516425 1_555
Ca7 F2 2.726960 1_555
Ca8 F12 2.288306 1_655
Ca8 N5 2.380506 1_555
Ca8 N2 2.446375 1_555
Ca8 N0 2.448016 1_655
Ca8 F9 2.739568 1_655
Ca8 F5 2.743712 1_555
Ca9 N2 2.348769 1_555
Ca9 N1 2.417852 1_565
Ca9 N0 2.417852 1_655
Ca9 F4 2.463047 1_556
Ca9 F1 2.463047 1_556
Ca10 F12 2.286770 1_665
Ca10 N5 2.374122 1_555
Ca10 N1 2.445369 1_565
Ca10 N0 2.445369 1_655
Ca10 F3 2.796672 1_655
Ca10 F5 2.796672 1_565
Ca11 N6 2.401727 1_565
Ca11 N5 2.409974 1_455
Ca11 N4 2.414111 1_555
Ca11 F3 2.507394 1_555
Ca11 F9 2.516425 1_555
Ca11 F2 2.726960 1_555
Ca12 N6 2.394246 1_655
Ca12 N4 2.403634 1_655
Ca12 N9 2.414454 1_655
Ca12 F2 2.521005 1_555
Ca12 F14 2.656716 1_555
Ca12 F7 2.674080 1_555
Ca13 N9 2.392919 1_555
Ca13 N8 2.418229 1_545
Ca13 N7 2.418229 1_455
Ca13 F7 2.592187 1_455
Ca13 F8 2.592187 1_545
Ca13 F6 2.684972 1_445
Ca14 N8 2.406423 1_545
Ca14 N7 2.406423 1_455
Ca14 N11 2.410036 1_555
Ca14 F13 2.650049 1_555
Ca14 F10 2.650049 1_555
Ca14 F17 2.667684 1_555
Ca15 N9 2.386398 1_555
Ca15 N11 2.416206 1_555
Ca15 N7 2.423498 1_455
Ca15 F14 2.593363 1_455
Ca15 F8 2.606578 1_555
Ca15 F6 2.669956 1_455
Ca16 N6 2.394246 1_565
Ca16 N3 2.403634 1_565
Ca16 N9 2.414454 1_565
Ca16 F2 2.521005 1_555
Ca16 F14 2.656716 1_555
Ca16 F8 2.674080 1_555
Ca17 N3 2.413032 1_555
Ca17 N4 2.413032 1_555
Ca17 N6 2.417006 1_555
Ca17 F3 2.705435 1_545
Ca17 F5 2.705435 1_455
Ca17 F9 2.710508 1_555
Ca18 N3 2.395689 1_555
Ca18 N4 2.395689 1_555
Ca18 N9 2.424136 1_555
Ca18 F2 2.528638 1_555
Ca18 F8 2.658364 1_555
Ca18 F7 2.658364 1_555
Ca19 N9 2.386398 1_555
Ca19 N11 2.416206 1_555
Ca19 N8 2.423498 1_545
Ca19 F14 2.593363 1_545
Ca19 F7 2.606578 1_555
Ca19 F6 2.669956 1_545
Ca20 N11 2.398289 1_555
Ca20 N8 2.403946 1_555
Ca20 N13 2.420113 1_555
Ca20 F6 2.592622 1_455
Ca20 F17 2.660908 1_565
Ca20 F10 2.677702 1_555
Ca21 N13 2.401449 1_555
Ca21 N12 2.420369 1_555
Ca21 N10 2.420369 1_555
Ca21 F10 2.602554 1_555
Ca21 F13 2.602554 1_555
Ca21 F11 2.686633 1_555
Ca22 N12 2.405013 1_555
Ca22 N10 2.405013 1_555
Ca22 N15 2.408837 1_555
Ca22 F16 2.653136 1_555
Ca22 F18 2.653136 1_555
Ca22 F21 2.666994 1_555
Ca23 N13 2.395708 1_555
Ca23 N15 2.418037 1_555
Ca23 N10 2.424609 1_555
Ca23 F17 2.604187 1_565
Ca23 F13 2.617035 1_565
Ca23 F11 2.673895 1_565
Ca24 N11 2.398289 1_555
Ca24 N7 2.403946 1_555
Ca24 N13 2.420113 1_555
Ca24 F6 2.592622 1_545
Ca24 F17 2.660908 1_655
Ca24 F13 2.677702 1_555
Ca25 N8 2.413001 1_555
Ca25 N7 2.413001 1_555
Ca25 N11 2.417026 1_555
Ca25 F8 2.626522 1_555
Ca25 F7 2.626522 1_555
Ca25 F14 2.645503 1_555
Ca26 N7 2.400083 1_555
Ca26 N8 2.400083 1_555
Ca26 N13 2.426907 1_555
Ca26 F6 2.607196 1_555
Ca26 F13 2.659381 1_565
Ca26 F10 2.659381 1_655
Ca27 N13 2.395708 1_555
Ca27 N15 2.418037 1_555
Ca27 N12 2.424609 1_555
Ca27 F17 2.604187 1_655
Ca27 F10 2.617035 1_655
Ca27 F11 2.673895 1_655
Ca28 N15 2.399792 1_555
Ca28 N12 2.405751 1_565
Ca28 N17 2.420561 1_555
Ca28 F11 2.594342 1_565
Ca28 F21 2.664823 1_565
Ca28 F16 2.674948 1_555
Ca29 N17 2.402932 1_555
Ca29 N14 2.418135 1_555
Ca29 N16 2.418135 1_555
Ca29 F18 2.603561 1_555
Ca29 F16 2.603561 1_555
Ca29 F15 2.681143 1_555
Ca30 N16 2.400474 1_555
Ca30 N14 2.400474 1_555
Ca30 N19 2.402699 1_555
Ca30 F23 2.672234 1_565
Ca30 F20 2.672234 1_655
Ca30 F22 2.709125 1_555
Ca31 N17 2.395279 1_545
Ca31 N19 2.415930 1_545
Ca31 N14 2.426230 1_545
Ca31 F21 2.599541 1_555
Ca31 F18 2.619249 1_555
Ca31 F15 2.669000 1_555
Ca32 N12 2.416840 1_565
Ca32 N10 2.416840 1_655
Ca32 N15 2.421487 1_555
Ca32 F13 2.613102 1_565
Ca32 F10 2.613102 1_655
Ca32 F17 2.627313 1_665
Ca33 N15 2.399792 1_555
Ca33 N10 2.405751 1_655
Ca33 N17 2.420561 1_555
Ca33 F11 2.594342 1_655
Ca33 F21 2.664823 1_655
Ca33 F18 2.674948 1_555
Ca34 N12 2.401514 1_565
Ca34 N10 2.401514 1_655
Ca34 N17 2.427766 1_555
Ca34 F11 2.609486 1_665
Ca34 F18 2.659491 1_565
Ca34 F16 2.659491 1_655
Ca35 N17 2.395279 1_455
Ca35 N19 2.415930 1_455
Ca35 N16 2.426230 1_455
Ca35 F21 2.599541 1_555
Ca35 F16 2.619249 1_555
Ca35 F15 2.669000 1_555
Ca36 N19 2.395708 1_545
Ca36 N16 2.409015 1_555
Ca36 N21 2.412983 1_655
Ca36 F15 2.595124 1_555
Ca36 F23 2.651659 1_555
Ca36 F22 2.673569 1_555
Ca37 N18 2.413009 1_455
Ca37 N20 2.413009 1_545
Ca37 N21 2.414879 1_555
Ca37 F19 2.517596 1_445
Ca37 F20 2.634687 1_545
Ca37 F23 2.634687 1_455
Ca38 N22 2.396115 1_555
Ca38 N18 2.410284 1_455
Ca38 N20 2.410284 1_545
Ca38 F0 2.471508 1_554
Ca38 F1 2.860751 1_455
Ca38 F4 2.860751 1_545
Ca39 N21 2.397689 1_555
Ca39 N22 2.418466 1_555
Ca39 N18 2.431076 1_455
Ca39 F19 2.568171 1_455
Ca39 F22 2.581241 1_455
Ca39 F20 2.623839 1_555
Ca40 N19 2.395708 1_455
Ca40 N14 2.409015 1_555
Ca40 N21 2.412983 1_565
Ca40 F15 2.595124 1_555
Ca40 F20 2.651659 1_555
Ca40 F22 2.673569 1_555
Ca41 N14 2.419075 1_545
Ca41 N16 2.419075 1_455
Ca41 N19 2.421868 1_445
Ca41 F18 2.610426 1_455
Ca41 F16 2.610426 1_545
Ca41 F21 2.627025 1_555
Ca42 N16 2.402987 1_455
Ca42 N14 2.402987 1_545
Ca42 N21 2.423777 1_555
Ca42 F15 2.615328 1_555
Ca42 F23 2.636534 1_555
Ca42 F20 2.636534 1_555
Ca43 N21 2.397689 1_555
Ca43 N22 2.418466 1_555
Ca43 N20 2.431076 1_545
Ca43 F19 2.568171 1_545
Ca43 F22 2.581241 1_545
Ca43 F23 2.623839 1_555
Ca44 N22 2.341083 1_555
Ca44 F1 2.354730 1_455
Ca44 N20 2.391919 1_555
Ca44 N23 2.438607 1_555
Ca44 F19 2.692167 1_455
Ca45 N22 2.341083 1_555
Ca45 F4 2.354730 1_545
Ca45 N18 2.391919 1_555
Ca45 N23 2.438607 1_555
Ca45 F19 2.692167 1_545
Ca46 N22 2.425655 1_555
Ca46 N20 2.446789 1_555
Ca46 N18 2.446789 1_555
Ca46 F22 2.537835 1_555
Ca46 F20 2.586388 1_555
Ca46 F23 2.586388 1_555
Ca47 N23 2.430845 1_555
Ca47 N18 2.432635 1_555
Ca47 N20 2.432635 1_555
Ca47 F4 2.457379 1_555
Ca47 F1 2.457379 1_555
Ca47 F19 2.773616 1_555
