# generated using pymatgen
data_Rb3FeF3
_symmetry_space_group_name_H-M   'P 1'
_cell_length_a   6.22264500
_cell_length_b   6.38552406
_cell_length_c   10.58689154
_cell_angle_alpha   81.46771313
_cell_angle_beta   78.36473377
_cell_angle_gamma   64.51884668
_symmetry_Int_Tables_number   1
_chemical_formula_structural   Rb3FeF3
_chemical_formula_sum   'Rb6 Fe2 F6'
_cell_volume   371.04164353
_cell_formula_units_Z   2
loop_
 _symmetry_equiv_pos_site_id
 _symmetry_equiv_pos_as_xyz
  1  'x, y, z'
loop_
 _atom_site_type_symbol
 _atom_site_label
 _atom_site_symmetry_multiplicity
 _atom_site_fract_x
 _atom_site_fract_y
 _atom_site_fract_z
 _atom_site_occupancy
  Rb  Rb0  1  0.38787100  0.37509800  0.85717600  1
  Rb  Rb1  1  0.76053700  0.74433100  0.74844100  1
  Rb  Rb2  1  0.89960600  0.86194500  0.37149100  1
  Rb  Rb3  1  0.27381700  0.22965500  0.23792100  1
  Rb  Rb4  1  0.13037900  0.13159900  0.61955700  1
  Rb  Rb5  1  0.65499900  0.59187100  0.12101600  1
  Fe  Fe0  1  0.03991200  0.97821400  0.98804800  1
  Fe  Fe1  1  0.53478900  0.48740400  0.48947800  1
  F  F0  1  0.63821200  0.16549500  0.60924300  1
  F  F1  1  0.12135800  0.64358700  0.08741700  1
  F  F2  1  0.18603700  0.56675300  0.60156400  1
  F  F3  1  0.87414600  0.31001800  0.88653700  1
  F  F4  1  0.73026300  0.09423400  0.13216400  1
  F  F5  1  0.37807500  0.80979700  0.37994600  1
loop_
_geom_bond_atom_site_label_1
_geom_bond_atom_site_label_2
_geom_bond_distance
_geom_bond_site_symmetry_2
F0 Fe1 2.159786 1_555
F0 Rb1 2.738394 1_545
F0 Rb0 2.950768 1_555
F0 Rb4 2.999281 1_655
F0 Rb2 3.133993 1_545
F0 Rb4 3.238378 1_555
F1 Fe0 2.132042 1_554
F1 Rb3 2.761821 1_555
F1 Rb0 2.965520 1_554
F1 Rb5 3.005072 1_455
F1 Rb5 3.280306 1_555
F1 Rb2 3.287548 1_455
F2 Fe1 2.137288 1_555
F2 Rb1 2.644511 1_455
F2 Rb4 2.919197 1_555
F2 Rb0 3.076358 1_555
F2 Rb2 3.187599 1_455
F3 Fe0 2.144539 1_645
F3 Rb1 2.802738 1_555
F3 Rb0 2.946962 1_555
F3 Rb5 3.018222 1_556
F3 Rb4 3.066595 1_655
F3 Rb0 3.345489 1_655
F4 Fe0 2.123857 1_644
F4 Rb3 2.638167 1_555
F4 Rb2 2.889155 1_545
F4 Rb5 2.993555 1_555
F5 Fe1 2.134032 1_555
F5 Rb3 2.751410 1_565
F5 Rb2 2.868635 1_455
F5 Rb5 3.095756 1_555
F5 Rb4 3.205886 1_565
F5 Rb2 3.384479 1_555
