# generated using pymatgen
data_Rh9Se20
_symmetry_space_group_name_H-M   'P 1'
_cell_length_a   6.08660803
_cell_length_b   6.08818109
_cell_length_c   61.00010123
_cell_angle_alpha   90.00961627
_cell_angle_beta   90.37312587
_cell_angle_gamma   90.03439780
_symmetry_Int_Tables_number   1
_chemical_formula_structural   Rh9Se20
_chemical_formula_sum   'Rh36 Se80'
_cell_volume   2260.39406588
_cell_formula_units_Z   4
loop_
 _symmetry_equiv_pos_site_id
 _symmetry_equiv_pos_as_xyz
  1  'x, y, z'
loop_
 _atom_site_type_symbol
 _atom_site_label
 _atom_site_symmetry_multiplicity
 _atom_site_fract_x
 _atom_site_fract_y
 _atom_site_fract_z
 _atom_site_occupancy
  Rh  Rh0  1  0.99887158  0.00459714  0.00010541  1
  Rh  Rh1  1  0.00000000  0.00000000  0.10000000  1
  Rh  Rh2  1  0.00112842  0.99540286  0.19989459  1
  Rh  Rh3  1  0.99748407  0.00050187  0.39994338  1
  Rh  Rh4  1  0.99990929  0.00015499  0.49993744  1
  Rh  Rh5  1  0.00000000  0.00000000  0.60000000  1
  Rh  Rh6  1  0.00009071  0.99984501  0.70006256  1
  Rh  Rh7  1  0.00025086  0.49998256  0.74998479  1
  Rh  Rh8  1  0.00251593  0.99949813  0.80005662  1
  Rh  Rh9  1  0.00058647  0.49609678  0.85005948  1
  Rh  Rh10  1  0.00094863  0.50428725  0.95007755  1
  Rh  Rh11  1  0.50764449  0.49708960  0.99993263  1
  Rh  Rh12  1  0.50092238  0.00023137  0.14990488  1
  Rh  Rh13  1  0.50000000  0.50000000  0.10000000  1
  Rh  Rh14  1  0.49907762  0.99976863  0.05009512  1
  Rh  Rh15  1  0.49970974  0.50002416  0.30001461  1
  Rh  Rh16  1  0.49235551  0.50291040  0.20006737  1
  Rh  Rh17  1  0.50099491  0.49953666  0.39988765  1
  Rh  Rh18  1  0.49992643  0.49994146  0.49999041  1
  Rh  Rh19  1  0.49325344  0.99671742  0.35005978  1
  Rh  Rh20  1  0.50000000  0.50000000  0.60000000  1
  Rh  Rh21  1  0.50723537  0.00362458  0.24976159  1
  Rh  Rh22  1  0.50023252  0.00043480  0.45003388  1
  Rh  Rh23  1  0.49994174  0.00008551  0.65001873  1
  Rh  Rh24  1  0.50005826  0.99991449  0.54998127  1
  Rh  Rh25  1  0.49976748  0.99956520  0.74996612  1
  Rh  Rh26  1  0.50007357  0.50005854  0.70000959  1
  Rh  Rh27  1  0.50674656  0.00328258  0.84994022  1
  Rh  Rh28  1  0.49900509  0.50046334  0.80011235  1
  Rh  Rh29  1  0.50029026  0.49997584  0.89998539  1
  Rh  Rh30  1  0.49276463  0.99637542  0.95023841  1
  Rh  Rh31  1  0.99905137  0.49571275  0.24992245  1
  Rh  Rh32  1  0.99941353  0.50390322  0.34994052  1
  Rh  Rh33  1  0.99974914  0.50001744  0.45001521  1
  Rh  Rh34  1  0.99985860  0.49997212  0.55000102  1
  Rh  Rh35  1  0.00014140  0.50002788  0.64999898  1
  Se  Se0  1  0.11488784  0.61752622  0.08863122  1
  Se  Se1  1  0.11633940  0.62190347  0.18790648  1
  Se  Se2  1  0.11881260  0.61528980  0.28842840  1
  Se  Se3  1  0.12140956  0.62125207  0.38790657  1
  Se  Se4  1  0.12274133  0.62303311  0.48780892  1
  Se  Se5  1  0.11736827  0.88506276  0.03855893  1
  Se  Se6  1  0.12248486  0.62277635  0.58782658  1
  Se  Se7  1  0.11758408  0.87740324  0.33784732  1
  Se  Se8  1  0.11847058  0.88663625  0.13842943  1
  Se  Se9  1  0.12240827  0.62271211  0.68777856  1
  Se  Se10  1  0.11640030  0.88520232  0.23869961  1
  Se  Se11  1  0.12087175  0.62164197  0.78791356  1
  Se  Se12  1  0.11901685  0.61475311  0.88842821  1
  Se  Se13  1  0.11657203  0.61524728  0.98880662  1
  Se  Se14  1  0.12254835  0.87712043  0.53780546  1
  Se  Se15  1  0.12286887  0.87675942  0.43776928  1
  Se  Se16  1  0.12236037  0.87742855  0.63782016  1
  Se  Se17  1  0.11772902  0.88432282  0.83870518  1
  Se  Se18  1  0.12207761  0.87741978  0.73783959  1
  Se  Se19  1  0.11699506  0.87754991  0.93791089  1
  Se  Se20  1  0.37886736  0.12099740  0.08796902  1
  Se  Se21  1  0.38767705  0.11634243  0.28803720  1
  Se  Se22  1  0.37835511  0.12095651  0.18762297  1
  Se  Se23  1  0.37740154  0.12124576  0.38783056  1
  Se  Se24  1  0.38770816  0.38367085  0.03817201  1
  Se  Se25  1  0.37706610  0.12244447  0.48777273  1
  Se  Se26  1  0.38682057  0.38450947  0.13816721  1
  Se  Se27  1  0.37724471  0.12226441  0.58775820  1
  Se  Se28  1  0.37725469  0.12228670  0.68774090  1
  Se  Se29  1  0.37870026  0.37963486  0.23793816  1
  Se  Se30  1  0.38734405  0.11624811  0.88809075  1
  Se  Se31  1  0.37732749  0.37771849  0.33771821  1
  Se  Se32  1  0.37822516  0.12175969  0.78774086  1
  Se  Se33  1  0.37832606  0.12081481  0.98805354  1
  Se  Se34  1  0.37767826  0.37778980  0.43778482  1
  Se  Se35  1  0.37702105  0.37757117  0.53780537  1
  Se  Se36  1  0.37729292  0.37777387  0.63775518  1
  Se  Se37  1  0.37717076  0.37766900  0.73770016  1
  Se  Se38  1  0.37816600  0.37909392  0.83796090  1
  Se  Se39  1  0.37696636  0.37773466  0.93770274  1
  Se  Se40  1  0.61229184  0.61632915  0.16182799  1
  Se  Se41  1  0.61317943  0.61549053  0.06183279  1
  Se  Se42  1  0.62303364  0.62226534  0.26229726  1
  Se  Se43  1  0.62183400  0.62090608  0.36203910  1
  Se  Se44  1  0.62164489  0.87904349  0.01237703  1
  Se  Se45  1  0.62282924  0.62233100  0.46229984  1
  Se  Se46  1  0.62113264  0.87900260  0.11203098  1
  Se  Se47  1  0.62270708  0.62222613  0.56224482  1
  Se  Se48  1  0.62297895  0.62242883  0.66219463  1
  Se  Se49  1  0.62167394  0.87918519  0.21194646  1
  Se  Se50  1  0.62232174  0.62221020  0.76221518  1
  Se  Se51  1  0.62267251  0.62228151  0.86228179  1
  Se  Se52  1  0.62177484  0.87824031  0.41225914  1
  Se  Se53  1  0.62274531  0.87771330  0.51225910  1
  Se  Se54  1  0.62129974  0.62036514  0.96206184  1
  Se  Se55  1  0.61265595  0.88375189  0.31190925  1
  Se  Se56  1  0.62275529  0.87773559  0.61224180  1
  Se  Se57  1  0.62293390  0.87755553  0.71222727  1
  Se  Se58  1  0.62259846  0.87875424  0.81216944  1
  Se  Se59  1  0.61232295  0.88365757  0.91196280  1
  Se  Se60  1  0.88152942  0.11336375  0.06157057  1
  Se  Se61  1  0.88263173  0.11493724  0.16144107  1
  Se  Se62  1  0.88300494  0.12245009  0.26208911  1
  Se  Se63  1  0.88227098  0.11567718  0.36129482  1
  Se  Se64  1  0.87792239  0.12258022  0.46216041  1
  Se  Se65  1  0.87763963  0.12257145  0.56217984  1
  Se  Se66  1  0.88366060  0.37809653  0.01209352  1
  Se  Se67  1  0.88511216  0.38247378  0.11136878  1
  Se  Se68  1  0.87745165  0.12287957  0.66219454  1
  Se  Se69  1  0.87713113  0.12324058  0.76223072  1
  Se  Se70  1  0.88342797  0.38475272  0.21119338  1
  Se  Se71  1  0.88098315  0.38524689  0.31157179  1
  Se  Se72  1  0.88241592  0.12259676  0.86215268  1
  Se  Se73  1  0.88359970  0.11479768  0.96130039  1
  Se  Se74  1  0.87912825  0.37835803  0.41208644  1
  Se  Se75  1  0.87759173  0.37728789  0.51222144  1
  Se  Se76  1  0.87751514  0.37722365  0.61217342  1
  Se  Se77  1  0.87725867  0.37696689  0.71219108  1
  Se  Se78  1  0.87859044  0.37874793  0.81209343  1
  Se  Se79  1  0.88118740  0.38471020  0.91157160  1
loop_
_geom_bond_atom_site_label_1
_geom_bond_atom_site_label_2
_geom_bond_distance
_geom_bond_site_symmetry_2
Rh0 Se66 2.491046 1_555
Rh0 Se33 2.528960 1_654
Rh0 Se44 2.537101 1_545
Rh0 Se73 2.554423 1_554
Rh0 Se5 2.555609 1_645
Rh0 Se13 2.571989 1_644
Rh1 Se67 2.529801 1_455
Rh1 Se0 2.529801 1_545
Rh1 Se20 2.533605 1_555
Rh1 Se46 2.533605 1_445
Rh1 Se8 2.543758 1_545
Rh1 Se60 2.543758 1_455
Rh2 Se1 2.491046 1_555
Rh2 Se49 2.528960 1_455
Rh2 Se22 2.537101 1_565
Rh2 Se10 2.554423 1_555
Rh2 Se61 2.555609 1_465
Rh2 Se70 2.571989 1_465
Rh3 Se74 2.523510 1_555
Rh3 Se52 2.523570 1_545
Rh3 Se3 2.539293 1_645
Rh3 Se15 2.540147 1_645
Rh3 Se23 2.540466 1_655
Rh3 Se63 2.553661 1_555
Rh4 Se4 2.527165 1_645
Rh4 Se25 2.528848 1_655
Rh4 Se64 2.529043 1_555
Rh4 Se75 2.529104 1_555
Rh4 Se53 2.532043 1_545
Rh4 Se14 2.536328 1_645
Rh5 Se76 2.527907 1_455
Rh5 Se6 2.527907 1_545
Rh5 Se56 2.530701 1_445
Rh5 Se27 2.530701 1_555
Rh5 Se16 2.532352 1_545
Rh5 Se65 2.532352 1_455
Rh6 Se77 2.527165 1_465
Rh6 Se57 2.528848 1_455
Rh6 Se18 2.529043 1_555
Rh6 Se9 2.529104 1_555
Rh6 Se28 2.532043 1_565
Rh6 Se68 2.536328 1_465
Rh7 Se18 2.526809 1_555
Rh7 Se69 2.527118 1_455
Rh7 Se37 2.530517 1_555
Rh7 Se77 2.532302 1_455
Rh7 Se11 2.533237 1_555
Rh7 Se50 2.534951 1_455
Rh8 Se11 2.523510 1_555
Rh8 Se32 2.523570 1_565
Rh8 Se78 2.539293 1_465
Rh8 Se69 2.540147 1_465
Rh8 Se58 2.540466 1_455
Rh8 Se17 2.553661 1_555
Rh9 Se72 2.497560 1_455
Rh9 Se38 2.521426 1_555
Rh9 Se78 2.530168 1_455
Rh9 Se51 2.541909 1_455
Rh9 Se12 2.548770 1_555
Rh9 Se17 2.565073 1_555
Rh10 Se19 2.493871 1_555
Rh10 Se54 2.529292 1_455
Rh10 Se39 2.534936 1_555
Rh10 Se13 2.551503 1_555
Rh10 Se79 2.560276 1_455
Rh10 Se73 2.570349 1_455
Rh11 Se66 2.508616 1_556
Rh11 Se33 2.526336 1_555
Rh11 Se54 2.529679 1_555
Rh11 Se44 2.540832 1_556
Rh11 Se24 2.544186 1_556
Rh11 Se13 2.573933 1_555
Rh12 Se61 2.521366 1_555
Rh12 Se8 2.522656 1_545
Rh12 Se22 2.532375 1_555
Rh12 Se46 2.537659 1_545
Rh12 Se40 2.539162 1_545
Rh12 Se26 2.542544 1_555
Rh13 Se46 2.529188 1_555
Rh13 Se20 2.529188 1_555
Rh13 Se41 2.531863 1_555
Rh13 Se26 2.531863 1_555
Rh13 Se0 2.543301 1_555
Rh13 Se67 2.543301 1_555
Rh14 Se5 2.521366 1_555
Rh14 Se60 2.522656 1_565
Rh14 Se44 2.532375 1_555
Rh14 Se20 2.537659 1_565
Rh14 Se24 2.539162 1_565
Rh14 Se41 2.542544 1_555
Rh15 Se2 2.519444 1_555
Rh15 Se71 2.520235 1_555
Rh15 Se31 2.534007 1_555
Rh15 Se42 2.536378 1_555
Rh15 Se21 2.538969 1_555
Rh15 Se55 2.539274 1_555
Rh16 Se1 2.508616 1_555
Rh16 Se49 2.526336 1_555
Rh16 Se29 2.529679 1_555
Rh16 Se22 2.540832 1_555
Rh16 Se40 2.544186 1_555
Rh16 Se70 2.573933 1_555
Rh17 Se74 2.524888 1_555
Rh17 Se23 2.530073 1_555
Rh17 Se3 2.530097 1_555
Rh17 Se52 2.532976 1_555
Rh17 Se43 2.537597 1_555
Rh17 Se34 2.545463 1_555
Rh18 Se4 2.522775 1_555
Rh18 Se75 2.525511 1_555
Rh18 Se25 2.527212 1_555
Rh18 Se53 2.529571 1_555
Rh18 Se45 2.534386 1_555
Rh18 Se35 2.541257 1_555
Rh19 Se7 2.507308 1_555
Rh19 Se43 2.525216 1_555
Rh19 Se23 2.530169 1_565
Rh19 Se55 2.537532 1_555
Rh19 Se31 2.537878 1_565
Rh19 Se63 2.564630 1_565
Rh20 Se76 2.523887 1_555
Rh20 Se6 2.523887 1_555
Rh20 Se56 2.528776 1_555
Rh20 Se27 2.528776 1_555
Rh20 Se36 2.537320 1_555
Rh20 Se47 2.537320 1_555
Rh21 Se62 2.509057 1_555
Rh21 Se29 2.523512 1_555
Rh21 Se49 2.530041 1_545
Rh21 Se42 2.543172 1_545
Rh21 Se21 2.544415 1_555
Rh21 Se10 2.571183 1_545
Rh22 Se64 2.522007 1_555
Rh22 Se15 2.525392 1_545
Rh22 Se34 2.527483 1_555
Rh22 Se45 2.532007 1_545
Rh22 Se52 2.536265 1_545
Rh22 Se25 2.536906 1_555
Rh23 Se68 2.523041 1_555
Rh23 Se16 2.523590 1_545
Rh23 Se48 2.528711 1_545
Rh23 Se36 2.529757 1_555
Rh23 Se28 2.535444 1_555
Rh23 Se56 2.538979 1_545
Rh24 Se14 2.523041 1_555
Rh24 Se65 2.523590 1_565
Rh24 Se35 2.528711 1_565
Rh24 Se47 2.529757 1_555
Rh24 Se53 2.535444 1_555
Rh24 Se27 2.538979 1_565
Rh25 Se18 2.522007 1_555
Rh25 Se69 2.525392 1_565
Rh25 Se50 2.527483 1_555
Rh25 Se37 2.532007 1_565
Rh25 Se32 2.536265 1_565
Rh25 Se57 2.536906 1_555
Rh26 Se77 2.522775 1_555
Rh26 Se9 2.525511 1_555
Rh26 Se57 2.527212 1_555
Rh26 Se28 2.529571 1_555
Rh26 Se37 2.534386 1_555
Rh26 Se48 2.541257 1_555
Rh27 Se72 2.507308 1_555
Rh27 Se38 2.525216 1_555
Rh27 Se58 2.530169 1_545
Rh27 Se30 2.537532 1_555
Rh27 Se51 2.537878 1_545
Rh27 Se17 2.564630 1_545
Rh28 Se11 2.524888 1_555
Rh28 Se58 2.530073 1_555
Rh28 Se78 2.530097 1_555
Rh28 Se32 2.532976 1_555
Rh28 Se38 2.537597 1_555
Rh28 Se50 2.545463 1_555
Rh29 Se79 2.519444 1_555
Rh29 Se12 2.520235 1_555
Rh29 Se51 2.534007 1_555
Rh29 Se39 2.536378 1_555
Rh29 Se59 2.538969 1_555
Rh29 Se30 2.539274 1_555
Rh30 Se19 2.509057 1_555
Rh30 Se54 2.523512 1_555
Rh30 Se33 2.530041 1_565
Rh30 Se39 2.543172 1_565
Rh30 Se59 2.544415 1_555
Rh30 Se73 2.571183 1_565
Rh31 Se62 2.493871 1_555
Rh31 Se29 2.529292 1_655
Rh31 Se42 2.534936 1_555
Rh31 Se70 2.551503 1_555
Rh31 Se2 2.560276 1_655
Rh31 Se10 2.570349 1_655
Rh32 Se7 2.497560 1_655
Rh32 Se43 2.521426 1_555
Rh32 Se3 2.530168 1_655
Rh32 Se31 2.541909 1_655
Rh32 Se71 2.548770 1_555
Rh32 Se63 2.565073 1_555
Rh33 Se64 2.526809 1_555
Rh33 Se15 2.527118 1_655
Rh33 Se45 2.530517 1_555
Rh33 Se4 2.532302 1_655
Rh33 Se74 2.533237 1_555
Rh33 Se34 2.534951 1_655
Rh34 Se14 2.527673 1_655
Rh34 Se65 2.527918 1_555
Rh34 Se75 2.529648 1_555
Rh34 Se35 2.530383 1_655
Rh34 Se47 2.530941 1_555
Rh34 Se6 2.533044 1_655
Rh35 Se68 2.527673 1_455
Rh35 Se16 2.527918 1_555
Rh35 Se9 2.529648 1_555
Rh35 Se48 2.530383 1_455
Rh35 Se36 2.530941 1_555
Rh35 Se76 2.533044 1_455
Se0 Se67 2.439491 1_455
Se1 Se70 2.477216 1_455
Se2 Se71 2.464726 1_455
Se3 Se74 2.561923 1_455
Se4 Se75 2.590273 1_455
Se5 Se60 2.447624 1_465
Se6 Se76 2.586644 1_455
Se10 Se62 2.483586 1_465
Se11 Se78 2.561923 1_455
Se12 Se79 2.464726 1_455
Se13 Se66 2.477216 1_456
Se14 Se65 2.587788 1_465
Se15 Se64 2.589813 1_465
Se16 Se68 2.587788 1_465
Se17 Se72 2.495997 1_465
Se18 Se69 2.589813 1_465
Se19 Se73 2.483586 1_465
Se20 Se46 2.544511 1_545
Se21 Se55 2.444976 1_545
Se22 Se49 2.556590 1_545
Se23 Se52 2.568312 1_545
Se24 Se41 2.435084 1_555
Se25 Se53 2.580982 1_545
Se26 Se40 2.435084 1_555
Se27 Se56 2.579582 1_545
Se28 Se57 2.580982 1_545
Se29 Se42 2.563098 1_555
Se30 Se59 2.444976 1_545
Se31 Se43 2.564319 1_555
Se32 Se58 2.568312 1_545
Se33 Se44 2.556590 1_546
Se34 Se45 2.578145 1_555
Se35 Se47 2.577767 1_555
Se36 Se48 2.577767 1_555
Se37 Se50 2.578145 1_555
Se38 Se51 2.564319 1_555
Se39 Se54 2.563098 1_555
Se61 Se8 2.447624 1_645
Se63 Se7 2.495997 1_645
Se77 Se9 2.590273 1_655
