# generated using pymatgen
data_Ba(GaO2)2
_symmetry_space_group_name_H-M   'P 1'
_cell_length_a   18.87482307
_cell_length_b   18.87482307
_cell_length_c   8.79855200
_cell_angle_alpha   90.00000000
_cell_angle_beta   90.00000000
_cell_angle_gamma   119.99999673
_symmetry_Int_Tables_number   1
_chemical_formula_structural   Ba(GaO2)2
_chemical_formula_sum   'Ba24 Ga48 O96'
_cell_volume   2714.61115636
_cell_formula_units_Z   24
loop_
 _symmetry_equiv_pos_site_id
 _symmetry_equiv_pos_as_xyz
  1  'x, y, z'
loop_
 _atom_site_type_symbol
 _atom_site_label
 _atom_site_symmetry_multiplicity
 _atom_site_fract_x
 _atom_site_fract_y
 _atom_site_fract_z
 _atom_site_occupancy
  Ba  Ba0  1  0.00000000  0.00000000  0.19851500  1
  Ba  Ba1  1  0.33333300  0.66666700  0.64634600  1
  Ba  Ba2  1  0.00000000  0.00000000  0.69851500  1
  Ba  Ba3  1  0.99970600  0.48521800  0.67765100  1
  Ba  Ba4  1  0.83792700  0.16963700  0.66881900  1
  Ba  Ba5  1  0.19165100  0.85795700  0.66698400  1
  Ba  Ba6  1  0.80834900  0.14204300  0.16698400  1
  Ba  Ba7  1  0.33171000  0.16207300  0.66881900  1
  Ba  Ba8  1  0.16207300  0.83036300  0.16881900  1
  Ba  Ba9  1  0.83036300  0.66829000  0.66881900  1
  Ba  Ba10  1  0.33333300  0.66666700  0.14691700  1
  Ba  Ba11  1  0.85795700  0.66630600  0.16698400  1
  Ba  Ba12  1  0.16963700  0.33171000  0.16881900  1
  Ba  Ba13  1  0.33369400  0.19165100  0.16698400  1
  Ba  Ba14  1  0.48551200  0.00029400  0.67765100  1
  Ba  Ba15  1  0.14204300  0.33369400  0.66698400  1
  Ba  Ba16  1  0.66829000  0.83792700  0.16881900  1
  Ba  Ba17  1  0.66666700  0.33333300  0.64691700  1
  Ba  Ba18  1  0.51478200  0.51448800  0.67765100  1
  Ba  Ba19  1  0.66630600  0.80834900  0.66698400  1
  Ba  Ba20  1  0.00029400  0.51478200  0.17765100  1
  Ba  Ba21  1  0.66666700  0.33333300  0.14634600  1
  Ba  Ba22  1  0.48521800  0.48551200  0.17765100  1
  Ba  Ba23  1  0.51448800  0.99970600  0.17765100  1
  Ga  Ga0  1  0.84551700  0.83467800  0.97620400  1
  Ga  Ga1  1  0.82764400  0.32794700  0.36736500  1
  Ga  Ga2  1  0.17336100  0.01170000  0.37055100  1
  Ga  Ga3  1  0.67205300  0.49969700  0.36736500  1
  Ga  Ga4  1  0.00019100  0.67174900  0.45731600  1
  Ga  Ga5  1  0.33830400  0.83479500  0.97022200  1
  Ga  Ga6  1  0.32188000  0.49361900  0.47338700  1
  Ga  Ga7  1  0.00001900  0.66222700  0.86767400  1
  Ga  Ga8  1  0.16532200  0.01083900  0.97620400  1
  Ga  Ga9  1  0.83447300  0.48926300  0.86682100  1
  Ga  Ga10  1  0.32825100  0.32844100  0.45731600  1
  Ga  Ga11  1  0.82663900  0.98830000  0.87055100  1
  Ga  Ga12  1  0.17173900  0.67812000  0.47338700  1
  Ga  Ga13  1  0.34521000  0.83447300  0.36682100  1
  Ga  Ga14  1  0.16166200  0.17336100  0.87055100  1
  Ga  Ga15  1  0.49969700  0.82764400  0.86736500  1
  Ga  Ga16  1  0.66220800  0.99998100  0.86767400  1
  Ga  Ga17  1  0.49361900  0.17173900  0.97338700  1
  Ga  Ga18  1  0.82826100  0.32188000  0.97338700  1
  Ga  Ga19  1  0.16520500  0.50350900  0.97022200  1
  Ga  Ga20  1  0.16552700  0.51073700  0.36682100  1
  Ga  Ga21  1  0.66169600  0.16520500  0.47022200  1
  Ga  Ga22  1  0.65479000  0.16552700  0.86682100  1
  Ga  Ga23  1  0.50638100  0.82826100  0.47338700  1
  Ga  Ga24  1  0.50350900  0.33830400  0.47022200  1
  Ga  Ga25  1  0.99998100  0.33777300  0.36767400  1
  Ga  Ga26  1  0.32844100  0.00019100  0.95731600  1
  Ga  Ga27  1  0.01170000  0.83833800  0.87055100  1
  Ga  Ga28  1  0.15448300  0.16532200  0.47620400  1
  Ga  Ga29  1  0.01083900  0.84551700  0.47620400  1
  Ga  Ga30  1  0.50030300  0.17235600  0.36736500  1
  Ga  Ga31  1  0.49649100  0.66169600  0.97022200  1
  Ga  Ga32  1  0.32794700  0.50030300  0.86736500  1
  Ga  Ga33  1  0.98916100  0.15448300  0.97620400  1
  Ga  Ga34  1  0.67812000  0.50638100  0.97338700  1
  Ga  Ga35  1  0.83833800  0.82663900  0.37055100  1
  Ga  Ga36  1  0.67174900  0.67155900  0.95731600  1
  Ga  Ga37  1  0.99980900  0.32825100  0.95731600  1
  Ga  Ga38  1  0.83479500  0.49649100  0.47022200  1
  Ga  Ga39  1  0.51073700  0.34521000  0.86682100  1
  Ga  Ga40  1  0.98830000  0.16166200  0.37055100  1
  Ga  Ga41  1  0.48926300  0.65479000  0.36682100  1
  Ga  Ga42  1  0.33779200  0.00001900  0.36767400  1
  Ga  Ga43  1  0.17235600  0.67205300  0.86736500  1
  Ga  Ga44  1  0.83467800  0.98916100  0.47620400  1
  Ga  Ga45  1  0.67155900  0.99980900  0.45731600  1
  Ga  Ga46  1  0.33777300  0.33779200  0.86767400  1
  Ga  Ga47  1  0.66222700  0.66220800  0.36767400  1
  O  O0  1  0.20949800  0.10804400  0.86684900  1
  O  O1  1  0.89467200  0.28678200  0.88026100  1
  O  O2  1  0.21833200  0.60469500  0.87299300  1
  O  O3  1  0.44421800  0.88006800  0.47514300  1
  O  O4  1  0.33374300  0.99005000  0.16155600  1
  O  O5  1  0.39211000  0.10532800  0.88026100  1
  O  O6  1  0.10532800  0.71321800  0.38026100  1
  O  O7  1  0.38636300  0.78166800  0.87299300  1
  O  O8  1  0.39530500  0.61363700  0.87299300  1
  O  O9  1  0.44889000  0.06060300  0.42051600  1
  O  O10  1  0.70836500  0.10963400  0.93044900  1
  O  O11  1  0.55333000  0.27518200  0.88456700  1
  O  O12  1  0.10145400  0.20949800  0.36684900  1
  O  O13  1  0.52391400  0.80602800  0.67235300  1
  O  O14  1  0.57091800  0.64128600  0.86449400  1
  O  O15  1  0.71788600  0.52391400  0.17235300  1
  O  O16  1  0.72185200  0.44667000  0.88456700  1
  O  O17  1  0.46811800  0.61698300  0.16593600  1
  O  O18  1  0.06060300  0.61171300  0.92051600  1
  O  O19  1  0.38301700  0.85113400  0.16593600  1
  O  O20  1  0.89195600  0.10145400  0.86684900  1
  O  O21  1  0.35871400  0.92963200  0.86449400  1
  O  O22  1  0.92963200  0.57091800  0.36449400  1
  O  O23  1  0.80602800  0.28211400  0.17235300  1
  O  O24  1  0.05291700  0.93980100  0.96497700  1
  O  O25  1  0.42908200  0.35871400  0.36449400  1
  O  O26  1  0.55111000  0.93939700  0.92051600  1
  O  O27  1  0.11311600  0.05291700  0.46497700  1
  O  O28  1  0.23452000  0.27511900  0.95775100  1
  O  O29  1  0.21723300  0.95418400  0.90958000  1
  O  O30  1  0.07036800  0.42908200  0.86449400  1
  O  O31  1  0.61171300  0.55111000  0.42051600  1
  O  O32  1  0.38828700  0.44889000  0.92051600  1
  O  O33  1  0.78166800  0.39530500  0.37299300  1
  O  O34  1  0.26304800  0.21723300  0.40958000  1
  O  O35  1  0.85113400  0.46811800  0.66593600  1
  O  O36  1  0.95418400  0.73695200  0.40958000  1
  O  O37  1  0.11993200  0.56415000  0.47514300  1
  O  O38  1  0.44667000  0.72481800  0.38456700  1
  O  O39  1  0.06019900  0.11311600  0.96497700  1
  O  O40  1  0.88688400  0.94708300  0.96497700  1
  O  O41  1  0.34369300  0.33374300  0.66155600  1
  O  O42  1  0.10963400  0.40126900  0.43044900  1
  O  O43  1  0.79050200  0.89195600  0.36684900  1
  O  O44  1  0.13420200  0.18671700  0.67355200  1
  O  O45  1  0.73695200  0.78276700  0.90958000  1
  O  O46  1  0.53188200  0.38301700  0.66593600  1
  O  O47  1  0.47608600  0.19397200  0.17235300  1
  O  O48  1  0.00995000  0.34369300  0.16155600  1
  O  O49  1  0.27511900  0.04059900  0.45775100  1
  O  O50  1  0.61698300  0.14886600  0.66593600  1
  O  O51  1  0.28211400  0.47608600  0.67235300  1
  O  O52  1  0.72481800  0.27814800  0.88456700  1
  O  O53  1  0.53844700  0.77415800  0.99076800  1
  O  O54  1  0.27518200  0.72185200  0.38456700  1
  O  O55  1  0.05251500  0.86579800  0.67355200  1
  O  O56  1  0.81328300  0.94748500  0.67355200  1
  O  O57  1  0.72488100  0.95940100  0.95775100  1
  O  O58  1  0.89854600  0.79050200  0.86684900  1
  O  O59  1  0.59873100  0.70836500  0.43044900  1
  O  O60  1  0.60469500  0.38636300  0.37299300  1
  O  O61  1  0.76428800  0.53844700  0.49076800  1
  O  O62  1  0.77415800  0.23571200  0.49076800  1
  O  O63  1  0.65630700  0.66625700  0.16155600  1
  O  O64  1  0.23571200  0.46155300  0.99076800  1
  O  O65  1  0.46155300  0.22584200  0.49076800  1
  O  O66  1  0.64128600  0.07036800  0.36449400  1
  O  O67  1  0.94748500  0.13420200  0.17355200  1
  O  O68  1  0.40126900  0.29163500  0.93044900  1
  O  O69  1  0.88006800  0.43585000  0.97514300  1
  O  O70  1  0.95940100  0.23452000  0.45775100  1
  O  O71  1  0.04059900  0.76548000  0.95775100  1
  O  O72  1  0.99005000  0.65630700  0.66155600  1
  O  O73  1  0.19397200  0.71788600  0.67235300  1
  O  O74  1  0.60789000  0.89467200  0.38026100  1
  O  O75  1  0.04581600  0.26304800  0.90958000  1
  O  O76  1  0.14886600  0.53188200  0.16593600  1
  O  O77  1  0.76548000  0.72488100  0.45775100  1
  O  O78  1  0.29163500  0.89036600  0.43044900  1
  O  O79  1  0.55578200  0.11993200  0.97514300  1
  O  O80  1  0.10804400  0.89854600  0.36684900  1
  O  O81  1  0.56415000  0.44421800  0.97514300  1
  O  O82  1  0.61363700  0.21833200  0.37299300  1
  O  O83  1  0.93980100  0.88688400  0.46497700  1
  O  O84  1  0.89036600  0.59873100  0.93044900  1
  O  O85  1  0.28678200  0.39211000  0.38026100  1
  O  O86  1  0.18671700  0.05251500  0.17355200  1
  O  O87  1  0.66625700  0.00995000  0.66155600  1
  O  O88  1  0.43585000  0.55578200  0.47514300  1
  O  O89  1  0.93939700  0.38828700  0.42051600  1
  O  O90  1  0.94708300  0.06019900  0.46497700  1
  O  O91  1  0.86579800  0.81328300  0.17355200  1
  O  O92  1  0.78276700  0.04581600  0.40958000  1
  O  O93  1  0.22584200  0.76428800  0.99076800  1
  O  O94  1  0.27814800  0.55333000  0.38456700  1
  O  O95  1  0.71321800  0.60789000  0.88026100  1
loop_
_geom_bond_atom_site_label_1
_geom_bond_atom_site_label_2
_geom_bond_distance
_geom_bond_site_symmetry_2
Ba0 O24 2.765090 1_544
Ba0 O40 2.765090 1_444
Ba0 O39 2.765090 1_554
Ba0 O90 2.986657 1_455
Ba0 O27 2.986657 1_555
Ba0 O83 2.986657 1_445
Ba0 O67 3.155599 1_455
Ba0 O86 3.155599 1_555
Ba0 O91 3.155599 1_445
Ba1 O7 2.741810 1_555
Ba1 O2 2.741810 1_555
Ba1 O8 2.741821 1_555
Ba1 O54 2.956009 1_555
Ba1 O38 2.956019 1_555
Ba1 O94 2.956019 1_555
Ba1 O73 3.232491 1_555
Ba1 O13 3.232504 1_555
Ba1 O51 3.232509 1_555
Ba2 O90 2.765090 1_455
Ba2 O27 2.765090 1_555
Ba2 O83 2.765090 1_445
Ba2 O24 2.986657 1_545
Ba2 O40 2.986657 1_445
Ba2 O39 2.986657 1_555
Ba2 O55 3.155599 1_545
Ba2 O56 3.155599 1_445
Ba2 O44 3.155599 1_555
Ba3 O30 2.649006 1_655
Ba3 O35 2.659629 1_555
Ba3 O37 2.676379 1_655
Ba3 O89 2.771092 1_555
Ba3 O18 2.973804 1_655
Ba3 O69 3.273321 1_555
Ba3 O72 3.327167 1_555
Ba4 O62 2.638074 1_555
Ba4 O20 2.654143 1_555
Ba4 O1 2.670002 1_555
Ba4 O70 2.719856 1_555
Ba4 O92 3.052113 1_555
Ba4 O10 3.129278 1_555
Ba4 O87 3.133933 1_555
Ba5 O73 2.666408 1_555
Ba5 O78 2.666923 1_555
Ba5 O29 2.685339 1_555
Ba5 O55 2.703824 1_555
Ba6 O23 2.666408 1_555
Ba6 O10 2.666923 1_554
Ba6 O92 2.685339 1_555
Ba6 O67 2.703824 1_555
Ba7 O65 2.638060 1_555
Ba7 O0 2.654143 1_555
Ba7 O5 2.670002 1_555
Ba7 O49 2.719856 1_555
Ba7 O34 3.052124 1_555
Ba7 O68 3.129278 1_555
Ba7 O41 3.133932 1_555
Ba8 O93 2.638074 1_554
Ba8 O80 2.654143 1_555
Ba8 O6 2.670002 1_555
Ba8 O71 2.719856 1_554
Ba8 O29 3.052113 1_554
Ba8 O78 3.129278 1_555
Ba8 O4 3.133933 1_555
Ba9 O61 2.638061 1_555
Ba9 O58 2.654143 1_555
Ba9 O95 2.670002 1_555
Ba9 O77 2.719856 1_555
Ba9 O36 3.052113 1_555
Ba9 O84 3.129278 1_555
Ba9 O72 3.133932 1_555
Ba10 O54 2.793758 1_555
Ba10 O38 2.793769 1_555
Ba10 O94 2.793769 1_555
Ba10 O7 3.057707 1_554
Ba10 O2 3.057708 1_554
Ba10 O8 3.057718 1_554
Ba10 O19 3.124916 1_555
Ba10 O76 3.124926 1_555
Ba10 O17 3.124952 1_555
Ba11 O15 2.666408 1_555
Ba11 O84 2.666923 1_554
Ba11 O36 2.685342 1_555
Ba11 O91 2.703824 1_555
Ba12 O64 2.638061 1_554
Ba12 O12 2.654143 1_555
Ba12 O85 2.670002 1_555
Ba12 O28 2.719856 1_554
Ba12 O75 3.052113 1_554
Ba12 O42 3.129278 1_555
Ba12 O48 3.133932 1_555
Ba13 O47 2.666408 1_555
Ba13 O68 2.666923 1_554
Ba13 O34 2.685350 1_555
Ba13 O86 2.703824 1_555
Ba14 O21 2.649006 1_545
Ba14 O50 2.659621 1_555
Ba14 O3 2.676379 1_545
Ba14 O9 2.771092 1_555
Ba14 O26 2.973804 1_545
Ba14 O79 3.273321 1_555
Ba14 O87 3.327167 1_555
Ba15 O51 2.666408 1_555
Ba15 O42 2.666923 1_555
Ba15 O75 2.685342 1_555
Ba15 O44 2.703824 1_555
Ba16 O53 2.638060 1_554
Ba16 O43 2.654143 1_555
Ba16 O74 2.670002 1_555
Ba16 O57 2.719856 1_554
Ba16 O45 3.052124 1_554
Ba16 O59 3.129278 1_555
Ba16 O63 3.133932 1_555
Ba17 O52 2.793758 1_555
Ba17 O11 2.793769 1_555
Ba17 O16 2.793769 1_555
Ba17 O82 3.057707 1_555
Ba17 O33 3.057708 1_555
Ba17 O60 3.057718 1_555
Ba17 O50 3.124916 1_555
Ba17 O35 3.124926 1_555
Ba17 O46 3.124952 1_555
Ba18 O14 2.649006 1_555
Ba18 O46 2.659610 1_555
Ba18 O88 2.676379 1_555
Ba18 O31 2.771092 1_555
Ba18 O32 2.973804 1_555
Ba18 O81 3.273321 1_555
Ba18 O41 3.327167 1_555
Ba19 O13 2.666408 1_555
Ba19 O59 2.666923 1_555
Ba19 O45 2.685350 1_555
Ba19 O56 2.703824 1_555
Ba20 O22 2.649006 1_455
Ba20 O76 2.659629 1_555
Ba20 O69 2.676379 1_454
Ba20 O18 2.771092 1_554
Ba20 O89 2.973804 1_455
Ba20 O37 3.273321 1_555
Ba20 O48 3.327167 1_555
Ba21 O82 2.741810 1_555
Ba21 O33 2.741810 1_555
Ba21 O60 2.741821 1_555
Ba21 O52 2.956009 1_554
Ba21 O11 2.956019 1_554
Ba21 O16 2.956019 1_554
Ba21 O23 3.232491 1_555
Ba21 O47 3.232504 1_555
Ba21 O15 3.232509 1_555
Ba22 O25 2.649006 1_555
Ba22 O17 2.659610 1_555
Ba22 O81 2.676379 1_554
Ba22 O32 2.771092 1_554
Ba22 O31 2.973804 1_555
Ba22 O88 3.273321 1_555
Ba22 O63 3.327167 1_555
Ba23 O66 2.649006 1_565
Ba23 O19 2.659621 1_555
Ba23 O79 2.676379 1_564
Ba23 O26 2.771092 1_554
Ba23 O9 2.973804 1_565
Ba23 O3 3.273321 1_555
Ba23 O4 3.327167 1_555
Ga0 O58 1.859411 1_555
Ga0 O40 1.861219 1_555
Ga0 O91 1.865262 1_556
Ga0 O45 1.869458 1_555
Ga1 O62 1.863152 1_555
Ga1 O33 1.864182 1_555
Ga1 O23 1.872415 1_555
Ga1 O89 1.887515 1_555
Ga2 O80 1.857252 1_545
Ga2 O86 1.862035 1_555
Ga2 O27 1.863635 1_555
Ga2 O49 1.878158 1_555
Ga3 O61 1.863150 1_555
Ga3 O60 1.864182 1_555
Ga3 O15 1.872415 1_555
Ga3 O31 1.887515 1_555
Ga4 O72 1.815232 1_455
Ga4 O6 1.859313 1_555
Ga4 O36 1.874512 1_455
Ga4 O22 1.878321 1_455
Ga5 O7 1.862745 1_555
Ga5 O93 1.866730 1_555
Ga5 O19 1.874132 1_556
Ga5 O21 1.878406 1_555
Ga6 O88 1.865588 1_555
Ga6 O51 1.867923 1_555
Ga6 O94 1.868840 1_555
Ga6 O85 1.874004 1_555
Ga7 O72 1.820932 1_455
Ga7 O71 1.876222 1_555
Ga7 O18 1.876995 1_555
Ga7 O84 1.882692 1_455
Ga8 O0 1.859412 1_555
Ga8 O24 1.861219 1_545
Ga8 O86 1.865262 1_556
Ga8 O29 1.869474 1_545
Ga9 O16 1.865575 1_555
Ga9 O35 1.872895 1_555
Ga9 O84 1.875032 1_555
Ga9 O69 1.879626 1_555
Ga10 O41 1.815232 1_555
Ga10 O85 1.859329 1_555
Ga10 O34 1.874482 1_555
Ga10 O25 1.878317 1_555
Ga11 O20 1.857252 1_565
Ga11 O56 1.862035 1_555
Ga11 O40 1.863635 1_555
Ga11 O57 1.878158 1_555
Ga12 O37 1.865588 1_555
Ga12 O73 1.867923 1_555
Ga12 O54 1.868840 1_555
Ga12 O6 1.874004 1_555
Ga13 O54 1.865575 1_555
Ga13 O19 1.872901 1_555
Ga13 O78 1.875032 1_555
Ga13 O3 1.879626 1_555
Ga14 O0 1.857236 1_555
Ga14 O44 1.862041 1_555
Ga14 O39 1.863649 1_555
Ga14 O28 1.878154 1_555
Ga15 O53 1.863164 1_555
Ga15 O7 1.864182 1_555
Ga15 O13 1.872415 1_555
Ga15 O26 1.887515 1_555
Ga16 O87 1.820932 1_565
Ga16 O57 1.876222 1_555
Ga16 O26 1.876995 1_555
Ga16 O10 1.882692 1_565
Ga17 O79 1.865588 1_555
Ga17 O47 1.867923 1_556
Ga17 O11 1.868840 1_555
Ga17 O5 1.874004 1_555
Ga18 O69 1.865588 1_555
Ga18 O23 1.867923 1_556
Ga18 O52 1.868840 1_555
Ga18 O1 1.874004 1_555
Ga19 O2 1.862745 1_555
Ga19 O64 1.866744 1_555
Ga19 O76 1.874125 1_556
Ga19 O30 1.878406 1_555
Ga20 O94 1.865575 1_555
Ga20 O76 1.872895 1_555
Ga20 O42 1.875032 1_555
Ga20 O37 1.879626 1_555
Ga21 O82 1.862745 1_555
Ga21 O62 1.866730 1_555
Ga21 O50 1.874132 1_555
Ga21 O66 1.878406 1_555
Ga22 O52 1.865575 1_555
Ga22 O50 1.872901 1_555
Ga22 O10 1.875032 1_555
Ga22 O79 1.879626 1_555
Ga23 O3 1.865588 1_555
Ga23 O13 1.867923 1_555
Ga23 O38 1.868840 1_555
Ga23 O74 1.874004 1_555
Ga24 O60 1.862745 1_555
Ga24 O65 1.866727 1_555
Ga24 O46 1.874131 1_555
Ga24 O25 1.878406 1_555
Ga25 O48 1.820932 1_655
Ga25 O70 1.876222 1_555
Ga25 O89 1.876995 1_555
Ga25 O42 1.882692 1_655
Ga26 O4 1.815234 1_546
Ga26 O5 1.859315 1_555
Ga26 O29 1.874478 1_545
Ga26 O21 1.878333 1_545
Ga27 O58 1.857253 1_455
Ga27 O55 1.862036 1_555
Ga27 O24 1.863651 1_555
Ga27 O71 1.878141 1_555
Ga28 O12 1.859411 1_555
Ga28 O27 1.861219 1_555
Ga28 O44 1.865262 1_555
Ga28 O34 1.869458 1_555
Ga29 O80 1.859412 1_555
Ga29 O83 1.861219 1_455
Ga29 O55 1.865262 1_555
Ga29 O36 1.869459 1_455
Ga30 O65 1.863164 1_555
Ga30 O82 1.864182 1_555
Ga30 O47 1.872415 1_555
Ga30 O9 1.887515 1_555
Ga31 O8 1.862745 1_555
Ga31 O53 1.866727 1_555
Ga31 O17 1.874131 1_556
Ga31 O14 1.878406 1_555
Ga32 O64 1.863150 1_555
Ga32 O8 1.864182 1_555
Ga32 O51 1.872415 1_555
Ga32 O32 1.887515 1_555
Ga33 O20 1.859412 1_555
Ga33 O39 1.861219 1_655
Ga33 O67 1.865262 1_556
Ga33 O75 1.869459 1_655
Ga34 O81 1.865588 1_555
Ga34 O15 1.867923 1_556
Ga34 O16 1.868840 1_555
Ga34 O95 1.874004 1_555
Ga35 O43 1.857236 1_555
Ga35 O91 1.862041 1_555
Ga35 O83 1.863649 1_555
Ga35 O77 1.878154 1_555
Ga36 O63 1.815232 1_556
Ga36 O95 1.859329 1_555
Ga36 O45 1.874482 1_555
Ga36 O14 1.878317 1_555
Ga37 O48 1.815232 1_656
Ga37 O1 1.859313 1_555
Ga37 O75 1.874512 1_655
Ga37 O30 1.878321 1_655
Ga38 O33 1.862745 1_555
Ga38 O61 1.866744 1_555
Ga38 O35 1.874125 1_555
Ga38 O22 1.878406 1_555
Ga39 O11 1.865575 1_555
Ga39 O46 1.872900 1_555
Ga39 O68 1.875032 1_555
Ga39 O81 1.879626 1_555
Ga40 O12 1.857253 1_655
Ga40 O67 1.862036 1_555
Ga40 O90 1.863651 1_555
Ga40 O70 1.878141 1_555
Ga41 O38 1.865575 1_555
Ga41 O17 1.872900 1_555
Ga41 O59 1.875032 1_555
Ga41 O88 1.879626 1_555
Ga42 O4 1.820932 1_545
Ga42 O49 1.876222 1_555
Ga42 O9 1.876995 1_555
Ga42 O78 1.882692 1_545
Ga43 O93 1.863152 1_555
Ga43 O2 1.864182 1_555
Ga43 O73 1.872415 1_555
Ga43 O18 1.887515 1_555
Ga44 O43 1.859412 1_555
Ga44 O90 1.861219 1_565
Ga44 O56 1.865262 1_555
Ga44 O92 1.869474 1_565
Ga45 O87 1.815234 1_565
Ga45 O74 1.859315 1_555
Ga45 O92 1.874478 1_565
Ga45 O66 1.878333 1_565
Ga46 O41 1.820932 1_555
Ga46 O28 1.876222 1_555
Ga46 O32 1.876995 1_555
Ga46 O68 1.882692 1_555
Ga47 O63 1.820932 1_555
Ga47 O77 1.876222 1_555
Ga47 O31 1.876995 1_555
Ga47 O59 1.882692 1_555
