# generated using pymatgen
data_Ba4La2Ti3Nb2O18
_symmetry_space_group_name_H-M   'P 1'
_cell_length_a   14.45039127
_cell_length_b   14.45039127
_cell_length_c   14.45039157
_cell_angle_alpha   22.85870551
_cell_angle_beta   22.85870551
_cell_angle_gamma   22.85870191
_symmetry_Int_Tables_number   1
_chemical_formula_structural   Ba4La2Ti3Nb2O18
_chemical_formula_sum   'Ba4 La2 Ti3 Nb2 O18'
_cell_volume   399.55980732
_cell_formula_units_Z   1
loop_
 _symmetry_equiv_pos_site_id
 _symmetry_equiv_pos_as_xyz
  1  'x, y, z'
loop_
 _atom_site_type_symbol
 _atom_site_label
 _atom_site_symmetry_multiplicity
 _atom_site_fract_x
 _atom_site_fract_y
 _atom_site_fract_z
 _atom_site_occupancy
  Ba  Ba0  1  0.13974200  0.13974200  0.13974200  1
  Ba  Ba1  1  0.31186800  0.31186800  0.31186800  1
  Ba  Ba2  1  0.68813200  0.68813200  0.68813200  1
  Ba  Ba3  1  0.86025800  0.86025800  0.86025800  1
  La  La0  1  0.41466900  0.41466900  0.41466900  1
  La  La1  1  0.58533100  0.58533100  0.58533100  1
  Ti  Ti0  1  0.22161200  0.22161200  0.22161200  1
  Ti  Ti1  1  0.50000000  0.50000000  0.50000000  1
  Ti  Ti2  1  0.77838800  0.77838800  0.77838800  1
  Nb  Nb0  1  0.05393600  0.05393600  0.05393600  1
  Nb  Nb1  1  0.94606400  0.94606400  0.94606400  1
  O  O0  1  0.08259900  0.08259900  0.57613200  1
  O  O1  1  0.57613200  0.08259900  0.08259900  1
  O  O2  1  0.08259900  0.57613200  0.08259900  1
  O  O3  1  0.69003700  0.20581000  0.20581000  1
  O  O4  1  0.20581000  0.20581000  0.69003700  1
  O  O5  1  0.20581000  0.69003700  0.20581000  1
  O  O6  1  0.63523900  0.14540400  0.63523900  1
  O  O7  1  0.14540400  0.63523900  0.63523900  1
  O  O8  1  0.63523900  0.63523900  0.14540400  1
  O  O9  1  0.85459600  0.36476100  0.36476100  1
  O  O10  1  0.36476100  0.36476100  0.85459600  1
  O  O11  1  0.36476100  0.85459600  0.36476100  1
  O  O12  1  0.79419000  0.30996300  0.79419000  1
  O  O13  1  0.30996300  0.79419000  0.79419000  1
  O  O14  1  0.79419000  0.79419000  0.30996300  1
  O  O15  1  0.91740100  0.42386800  0.91740100  1
  O  O16  1  0.91740100  0.91740100  0.42386800  1
  O  O17  1  0.42386800  0.91740100  0.91740100  1
loop_
_geom_bond_atom_site_label_1
_geom_bond_atom_site_label_2
_geom_bond_distance
_geom_bond_site_symmetry_2
Ba0 O17 2.811647 1_544
Ba0 O15 2.811647 1_454
Ba0 O16 2.811647 1_445
Ba0 O8 2.864066 1_455
Ba0 O8 2.864066 1_545
Ba0 O6 2.864066 1_455
Ba0 O7 2.864066 1_545
Ba0 O6 2.864066 1_554
Ba0 O7 2.864066 1_554
Ba0 O9 2.868048 1_455
Ba0 O11 2.868048 1_545
Ba0 O10 2.868048 1_554
Ba1 O3 2.831916 1_555
Ba1 O5 2.831916 1_555
Ba1 O4 2.831916 1_555
Ba1 O14 2.911526 1_455
Ba1 O14 2.911526 1_545
Ba1 O13 2.911526 1_545
Ba1 O12 2.911526 1_455
Ba1 O13 2.911526 1_554
Ba1 O12 2.911526 1_554
Ba1 O2 3.182992 1_555
Ba1 O1 3.182992 1_555
Ba1 O0 3.182992 1_555
Ba2 O13 2.831916 1_555
Ba2 O12 2.831916 1_555
Ba2 O14 2.831916 1_555
Ba2 O4 2.911526 1_655
Ba2 O4 2.911526 1_565
Ba2 O3 2.911526 1_565
Ba2 O5 2.911526 1_655
Ba2 O5 2.911526 1_556
Ba2 O3 2.911526 1_556
Ba2 O17 3.182992 1_555
Ba2 O15 3.182992 1_555
Ba2 O16 3.182992 1_555
Ba3 O2 2.811647 1_656
Ba3 O1 2.811647 1_566
Ba3 O0 2.811647 1_665
Ba3 O10 2.864066 1_565
Ba3 O10 2.864066 1_655
Ba3 O11 2.864066 1_655
Ba3 O9 2.864066 1_565
Ba3 O9 2.864066 1_556
Ba3 O11 2.864066 1_556
Ba3 O6 2.868048 1_565
Ba3 O7 2.868048 1_655
Ba3 O8 2.868048 1_556
La0 O3 2.563830 1_555
La0 O5 2.563830 1_555
La0 O4 2.563830 1_555
La0 O16 2.870981 1_455
La0 O16 2.870981 1_545
La0 O17 2.870981 1_554
La0 O15 2.870981 1_554
La0 O15 2.870981 1_455
La0 O17 2.870981 1_545
La0 O7 2.910118 1_555
La0 O6 2.910118 1_555
La0 O8 2.910118 1_555
La1 O12 2.563830 1_555
La1 O13 2.563830 1_555
La1 O14 2.563830 1_555
La1 O0 2.870981 1_655
La1 O0 2.870981 1_565
La1 O1 2.870981 1_556
La1 O2 2.870981 1_556
La1 O1 2.870981 1_565
La1 O2 2.870981 1_655
La1 O9 2.910118 1_555
La1 O11 2.910118 1_555
La1 O10 2.910118 1_555
Nb0 O3 1.903759 1_455
Nb0 O5 1.903759 1_545
Nb0 O4 1.903760 1_554
Nb0 O15 2.158913 1_454
Nb0 O17 2.158913 1_544
Nb0 O16 2.158913 1_445
Nb1 O12 1.903759 1_565
Nb1 O13 1.903759 1_655
Nb1 O14 1.903760 1_556
Nb1 O1 2.158913 1_566
Nb1 O2 2.158913 1_656
Nb1 O0 2.158913 1_665
O0 Ti0 1.954687 1_555
O1 Ti0 1.954687 1_555
O2 Ti0 1.954687 1_555
O6 Ti1 2.005829 1_555
O6 Ti2 2.033399 1_545
O7 Ti1 2.005829 1_555
O7 Ti2 2.033399 1_455
O8 Ti1 2.005829 1_555
O8 Ti2 2.033399 1_554
O9 Ti1 2.005829 1_555
O9 Ti0 2.033399 1_655
O10 Ti1 2.005829 1_555
O10 Ti0 2.033399 1_556
O11 Ti1 2.005829 1_555
O11 Ti0 2.033399 1_565
O15 Ti2 1.954687 1_555
O16 Ti2 1.954687 1_555
O17 Ti2 1.954687 1_555
