# generated using pymatgen
data_La5Ga3
_symmetry_space_group_name_H-M   'P 1'
_cell_length_a   8.05441431
_cell_length_b   8.05407199
_cell_length_c   14.81515428
_cell_angle_alpha   90.00000000
_cell_angle_beta   90.00000000
_cell_angle_gamma   89.99904847
_symmetry_Int_Tables_number   1
_chemical_formula_structural   La5Ga3
_chemical_formula_sum   'La20 Ga12'
_cell_volume   961.07139451
_cell_formula_units_Z   4
loop_
 _symmetry_equiv_pos_site_id
 _symmetry_equiv_pos_as_xyz
  1  'x, y, z'
loop_
 _atom_site_type_symbol
 _atom_site_label
 _atom_site_symmetry_multiplicity
 _atom_site_fract_x
 _atom_site_fract_y
 _atom_site_fract_z
 _atom_site_occupancy
  La  La0  1  0.25000000  0.25000000  0.78654015  1
  La  La1  1  0.08890103  0.56347263  0.10326192  1
  La  La2  1  0.58890103  0.06347263  0.89673808  1
  La  La3  1  0.75000000  0.75000000  0.21345985  1
  La  La4  1  0.58885590  0.43659007  0.39685649  1
  La  La5  1  0.91109897  0.43652737  0.89673808  1
  La  La6  1  0.41109897  0.93652737  0.10326192  1
  La  La7  1  0.75000000  0.75000000  0.71342990  1
  La  La8  1  0.56341619  0.08885279  0.60313787  1
  La  La9  1  0.06341619  0.58885279  0.39686213  1
  La  La10  1  0.93652843  0.08891546  0.10325018  1
  La  La11  1  0.93658381  0.41114721  0.60313787  1
  La  La12  1  0.56347157  0.41108454  0.10325018  1
  La  La13  1  0.08885590  0.93659007  0.60314351  1
  La  La14  1  0.25000000  0.25000000  0.28657010  1
  La  La15  1  0.43652843  0.58891546  0.89674982  1
  La  La16  1  0.41114410  0.56340993  0.60314351  1
  La  La17  1  0.06347157  0.91108454  0.89674982  1
  La  La18  1  0.91114410  0.06340993  0.39685649  1
  La  La19  1  0.43658381  0.91114721  0.39686213  1
  Ga  Ga0  1  0.36617121  0.63386414  0.25014196  1
  Ga  Ga1  1  0.63382879  0.36613586  0.74985804  1
  Ga  Ga2  1  0.25000000  0.25000000  0.49621686  1
  Ga  Ga3  1  0.63387218  0.13384105  0.25013957  1
  Ga  Ga4  1  0.75000000  0.75000000  0.00375894  1
  Ga  Ga5  1  0.86617121  0.13386414  0.74985804  1
  Ga  Ga6  1  0.13387218  0.63384105  0.74986043  1
  Ga  Ga7  1  0.86612782  0.36615895  0.25013957  1
  Ga  Ga8  1  0.13382879  0.86613586  0.25014196  1
  Ga  Ga9  1  0.36612782  0.86615895  0.74986043  1
  Ga  Ga10  1  0.25000000  0.25000000  0.99624106  1
  Ga  Ga11  1  0.75000000  0.75000000  0.50378314  1
loop_
_geom_bond_atom_site_label_1
_geom_bond_atom_site_label_2
_geom_bond_distance
_geom_bond_site_symmetry_2
La0 La5 3.517549 1_455
La0 La2 3.517549 1_555
La0 La17 3.517699 1_545
La0 La15 3.517699 1_555
La0 La16 3.929222 1_555
La0 La13 3.929222 1_545
La0 La11 3.929343 1_455
La0 La8 3.929343 1_555
La1 La3 3.517549 1_455
La1 La5 3.529582 1_454
La1 La14 3.928492 1_555
La2 La6 3.529582 1_546
La2 La7 3.928492 1_545
La3 La6 3.517549 1_555
La3 La4 3.929222 1_555
La3 La9 3.929343 1_655
La5 La7 3.928492 1_555
La7 La8 3.518026 1_565
La10 La3 3.517699 1_545
La10 La17 3.529344 1_644
La10 La14 3.928647 1_655
La11 La7 3.518026 1_555
La11 La9 3.525805 1_655
La12 La3 3.517699 1_555
La12 La15 3.529344 1_554
La12 La14 3.928647 1_555
La13 La7 3.518130 1_455
La13 La18 3.525939 1_465
La14 La19 3.518026 1_545
La14 La9 3.518026 1_555
La14 La4 3.518130 1_555
La14 La18 3.518130 1_455
La14 La6 3.928492 1_545
La15 La7 3.928647 1_555
La16 La7 3.518130 1_555
La16 La4 3.525939 1_555
La17 La7 3.928647 1_455
La18 La3 3.929222 1_545
La19 La8 3.525805 1_565
La19 La3 3.929343 1_555
Ga0 Ga8 2.646053 1_555
Ga0 La19 3.167651 1_555
Ga0 La1 3.169236 1_555
Ga0 La4 3.235103 1_555
Ga0 La12 3.237387 1_555
Ga0 La14 3.274950 1_555
Ga0 La3 3.275335 1_555
Ga0 La9 3.286746 1_555
Ga0 La6 3.287615 1_555
Ga1 Ga5 2.646053 1_555
Ga1 La8 3.167651 1_555
Ga1 La5 3.169236 1_555
Ga1 La16 3.235103 1_555
Ga1 La15 3.237387 1_555
Ga1 La7 3.274950 1_555
Ga1 La0 3.275335 1_555
Ga1 La11 3.286746 1_555
Ga1 La2 3.287615 1_555
Ga2 La14 3.105949 1_555
Ga2 La16 3.250524 1_555
Ga2 La13 3.250524 1_545
Ga2 La8 3.250561 1_555
Ga2 La11 3.250561 1_455
Ga2 La19 3.445755 1_545
Ga2 La9 3.445755 1_555
Ga2 La4 3.445936 1_555
Ga2 La18 3.445936 1_455
Ga3 Ga7 2.645866 1_555
Ga3 La18 3.167631 1_555
Ga3 La12 3.169117 1_555
Ga3 La19 3.235301 1_545
Ga3 La6 3.237308 1_545
Ga3 La14 3.275072 1_555
Ga3 La3 3.275262 1_545
Ga3 La4 3.286599 1_555
Ga3 La10 3.287730 1_555
Ga4 La3 3.106751 1_555
Ga4 La17 3.251375 1_654
Ga4 La15 3.251375 1_554
Ga4 La2 3.251418 1_564
Ga4 La5 3.251418 1_554
Ga4 La10 3.446864 1_565
Ga4 La12 3.446864 1_555
Ga4 La1 3.446867 1_655
Ga4 La6 3.446867 1_555
Ga5 La11 3.167651 1_555
Ga5 La2 3.169236 1_555
Ga5 La13 3.235103 1_645
Ga5 La17 3.237387 1_645
Ga5 La7 3.274950 1_545
Ga5 La0 3.275335 1_655
Ga5 La8 3.286746 1_555
Ga5 La5 3.287615 1_555
Ga6 Ga9 2.645866 1_555
Ga6 La16 3.167631 1_555
Ga6 La17 3.169117 1_555
Ga6 La11 3.235301 1_455
Ga6 La5 3.237308 1_455
Ga6 La7 3.275072 1_455
Ga6 La0 3.275262 1_555
Ga6 La13 3.286599 1_555
Ga6 La15 3.287730 1_555
Ga7 La4 3.167631 1_555
Ga7 La10 3.169117 1_555
Ga7 La9 3.235301 1_655
Ga7 La1 3.237308 1_655
Ga7 La14 3.275072 1_655
Ga7 La3 3.275262 1_555
Ga7 La18 3.286599 1_555
Ga7 La12 3.287730 1_555
Ga8 La9 3.167651 1_555
Ga8 La6 3.169236 1_555
Ga8 La18 3.235103 1_465
Ga8 La10 3.237387 1_465
Ga8 La14 3.274950 1_565
Ga8 La3 3.275335 1_455
Ga8 La19 3.286746 1_555
Ga8 La1 3.287615 1_555
Ga9 La13 3.167631 1_555
Ga9 La15 3.169117 1_555
Ga9 La8 3.235301 1_565
Ga9 La2 3.237308 1_565
Ga9 La7 3.275072 1_555
Ga9 La0 3.275262 1_565
Ga9 La16 3.286599 1_555
Ga9 La17 3.287730 1_555
Ga10 La0 3.106751 1_555
Ga10 La10 3.251375 1_456
Ga10 La12 3.251375 1_556
Ga10 La6 3.251418 1_546
Ga10 La1 3.251418 1_556
Ga10 La17 3.446864 1_545
Ga10 La15 3.446864 1_555
Ga10 La5 3.446867 1_455
Ga10 La2 3.446867 1_555
Ga11 La7 3.105949 1_555
Ga11 La4 3.250524 1_555
Ga11 La18 3.250524 1_565
Ga11 La19 3.250561 1_555
Ga11 La9 3.250561 1_655
Ga11 La11 3.445755 1_555
Ga11 La8 3.445755 1_565
Ga11 La13 3.445936 1_655
Ga11 La16 3.445936 1_555
