# generated using pymatgen
data_TbOF
_symmetry_space_group_name_H-M   'P 1'
_cell_length_a   4.68175210
_cell_length_b   4.68175210
_cell_length_c   4.49759262
_cell_angle_alpha   83.51502192
_cell_angle_beta   83.51502192
_cell_angle_gamma   56.06439241
_symmetry_Int_Tables_number   1
_chemical_formula_structural   TbOF
_chemical_formula_sum   'Tb2 O2 F2'
_cell_volume   81.11765362
_cell_formula_units_Z   2
loop_
 _symmetry_equiv_pos_site_id
 _symmetry_equiv_pos_as_xyz
  1  'x, y, z'
loop_
 _atom_site_type_symbol
 _atom_site_label
 _atom_site_symmetry_multiplicity
 _atom_site_fract_x
 _atom_site_fract_y
 _atom_site_fract_z
 _atom_site_occupancy
  Tb  Tb0  1  0.34493500  0.34493500  0.26774200  1
  Tb  Tb1  1  0.65506500  0.65506500  0.73225800  1
  O  O0  1  0.38737600  0.38737600  0.78203700  1
  O  O1  1  0.61262400  0.61262400  0.21796300  1
  F  F0  1  0.11077700  0.11077700  0.65224300  1
  F  F1  1  0.88922300  0.88922300  0.34775700  1
loop_
_geom_bond_atom_site_label_1
_geom_bond_atom_site_label_2
_geom_bond_distance
_geom_bond_site_symmetry_2
O0 Tb0 2.167718 1_556
O0 Tb1 2.195065 1_555
O0 Tb0 2.383498 1_555
O1 Tb1 2.167718 1_554
O1 Tb0 2.195065 1_555
O1 Tb1 2.383498 1_555
F0 Tb1 2.266805 1_455
F0 Tb1 2.266805 1_545
F0 Tb0 2.424781 1_555
F1 Tb0 2.266805 1_565
F1 Tb0 2.266805 1_655
F1 Tb1 2.424781 1_555
