# generated using pymatgen
data_CaCu(Si2O5)2
_symmetry_space_group_name_H-M   'P 1'
_cell_length_a   7.37657100
_cell_length_b   7.37657100
_cell_length_c   15.43472300
_cell_angle_alpha   90.00000000
_cell_angle_beta   90.00000000
_cell_angle_gamma   90.00000000
_symmetry_Int_Tables_number   1
_chemical_formula_structural   CaCu(Si2O5)2
_chemical_formula_sum   'Ca4 Cu4 Si16 O40'
_cell_volume   839.86192603
_cell_formula_units_Z   4
loop_
 _symmetry_equiv_pos_site_id
 _symmetry_equiv_pos_as_xyz
  1  'x, y, z'
loop_
 _atom_site_type_symbol
 _atom_site_label
 _atom_site_symmetry_multiplicity
 _atom_site_fract_x
 _atom_site_fract_y
 _atom_site_fract_z
 _atom_site_occupancy
  Ca  Ca0  1  0.50000000  0.50000000  0.50000000  1
  Ca  Ca1  1  0.00000000  0.00000000  0.50000000  1
  Ca  Ca2  1  0.00000000  0.00000000  0.00000000  1
  Ca  Ca3  1  0.50000000  0.50000000  0.00000000  1
  Cu  Cu0  1  0.50000000  0.00000000  0.58390100  1
  Cu  Cu1  1  0.00000000  0.50000000  0.91609900  1
  Cu  Cu2  1  0.00000000  0.50000000  0.41609900  1
  Cu  Cu3  1  0.50000000  0.00000000  0.08390100  1
  Si  Si0  1  0.17607000  0.25189200  0.64798000  1
  Si  Si1  1  0.82393000  0.74810800  0.64798000  1
  Si  Si2  1  0.25189200  0.17607000  0.85202000  1
  Si  Si3  1  0.75189200  0.32393000  0.64798000  1
  Si  Si4  1  0.24810800  0.67607000  0.64798000  1
  Si  Si5  1  0.32393000  0.75189200  0.85202000  1
  Si  Si6  1  0.67607000  0.24810800  0.85202000  1
  Si  Si7  1  0.74810800  0.82393000  0.85202000  1
  Si  Si8  1  0.32393000  0.24810800  0.35202000  1
  Si  Si9  1  0.67607000  0.75189200  0.35202000  1
  Si  Si10  1  0.24810800  0.32393000  0.14798000  1
  Si  Si11  1  0.74810800  0.17607000  0.35202000  1
  Si  Si12  1  0.25189200  0.82393000  0.35202000  1
  Si  Si13  1  0.17607000  0.74810800  0.14798000  1
  Si  Si14  1  0.82393000  0.25189200  0.14798000  1
  Si  Si15  1  0.75189200  0.67607000  0.14798000  1
  O  O0  1  0.25491800  0.10116300  0.58270400  1
  O  O1  1  0.74508200  0.89883700  0.58270400  1
  O  O2  1  0.10116300  0.25491800  0.91729600  1
  O  O3  1  0.60116300  0.24508200  0.58270400  1
  O  O4  1  0.39883700  0.75491800  0.58270400  1
  O  O5  1  0.24508200  0.60116300  0.91729600  1
  O  O6  1  0.75491800  0.39883700  0.91729600  1
  O  O7  1  0.89883700  0.74508200  0.91729600  1
  O  O8  1  0.24508200  0.39883700  0.41729600  1
  O  O9  1  0.75491800  0.60116300  0.41729600  1
  O  O10  1  0.39883700  0.24508200  0.08270400  1
  O  O11  1  0.89883700  0.25491800  0.41729600  1
  O  O12  1  0.10116300  0.74508200  0.41729600  1
  O  O13  1  0.25491800  0.89883700  0.08270400  1
  O  O14  1  0.74508200  0.10116300  0.08270400  1
  O  O15  1  0.24724500  0.04349800  0.37304500  1
  O  O16  1  0.60116300  0.75491800  0.08270400  1
  O  O17  1  0.74724500  0.54349800  0.62695500  1
  O  O18  1  0.45650200  0.25275500  0.87304500  1
  O  O19  1  0.95650200  0.24724500  0.62695500  1
  O  O20  1  0.04349800  0.75275500  0.62695500  1
  O  O21  1  0.24724500  0.95650200  0.87304500  1
  O  O22  1  0.75275500  0.04349800  0.87304500  1
  O  O23  1  0.54349800  0.74724500  0.87304500  1
  O  O24  1  0.71015900  0.71015900  0.25000000  1
  O  O25  1  0.78984100  0.21015900  0.25000000  1
  O  O26  1  0.21015900  0.78984100  0.25000000  1
  O  O27  1  0.28984100  0.28984100  0.25000000  1
  O  O28  1  0.78984100  0.78984100  0.75000000  1
  O  O29  1  0.71015900  0.28984100  0.75000000  1
  O  O30  1  0.28984100  0.71015900  0.75000000  1
  O  O31  1  0.21015900  0.21015900  0.75000000  1
  O  O32  1  0.95650200  0.75275500  0.12695500  1
  O  O33  1  0.74724500  0.45650200  0.12695500  1
  O  O34  1  0.25275500  0.54349800  0.12695500  1
  O  O35  1  0.45650200  0.74724500  0.37304500  1
  O  O36  1  0.54349800  0.25275500  0.37304500  1
  O  O37  1  0.04349800  0.24724500  0.12695500  1
  O  O38  1  0.75275500  0.95650200  0.37304500  1
  O  O39  1  0.25275500  0.45650200  0.62695500  1
loop_
_geom_bond_atom_site_label_1
_geom_bond_atom_site_label_2
_geom_bond_distance
_geom_bond_site_symmetry_2
Ca0 O9 2.392141 1_555
Ca0 O3 2.392141 1_555
Ca0 O4 2.392141 1_555
Ca0 O8 2.392141 1_555
Ca0 O36 2.696104 1_555
Ca0 O35 2.696104 1_555
Ca0 O39 2.696104 1_555
Ca0 O17 2.696104 1_555
Ca1 O1 2.392141 1_445
Ca1 O0 2.392141 1_555
Ca1 O12 2.392141 1_545
Ca1 O11 2.392141 1_455
Ca1 O15 2.696104 1_555
Ca1 O38 2.696104 1_445
Ca1 O19 2.696104 1_455
Ca1 O20 2.696104 1_545
Ca2 O14 2.392141 1_455
Ca2 O7 2.392141 1_444
Ca2 O2 2.392141 1_554
Ca2 O13 2.392141 1_545
Ca2 O37 2.696104 1_555
Ca2 O21 2.696104 1_544
Ca2 O32 2.696104 1_445
Ca2 O22 2.696104 1_454
Ca3 O6 2.392141 1_554
Ca3 O10 2.392141 1_555
Ca3 O16 2.392141 1_555
Ca3 O5 2.392141 1_554
Ca3 O34 2.696104 1_555
Ca3 O18 2.696104 1_554
Ca3 O33 2.696104 1_555
Ca3 O23 2.696104 1_554
Cu0 O3 1.955910 1_555
Cu0 O1 1.955910 1_545
Cu0 O4 1.955910 1_545
Cu0 O0 1.955910 1_555
Cu1 O5 1.955910 1_555
Cu1 O2 1.955910 1_555
Cu1 O7 1.955910 1_455
Cu1 O6 1.955910 1_455
Cu2 O8 1.955910 1_555
Cu2 O11 1.955910 1_455
Cu2 O12 1.955910 1_555
Cu2 O9 1.955910 1_455
Cu3 O10 1.955910 1_555
Cu3 O13 1.955910 1_545
Cu3 O14 1.955910 1_555
Cu3 O16 1.955910 1_545
O0 Si0 1.609230 1_555
O1 Si1 1.609230 1_555
O2 Si2 1.609230 1_555
O3 Si3 1.609230 1_555
O4 Si4 1.609230 1_555
O5 Si5 1.609230 1_555
O6 Si6 1.609230 1_555
O7 Si7 1.609230 1_555
O8 Si8 1.609230 1_555
O9 Si9 1.609230 1_555
O10 Si10 1.609230 1_555
O11 Si11 1.609230 1_555
O12 Si12 1.609230 1_555
O13 Si13 1.609230 1_555
O14 Si14 1.609230 1_555
O15 Si8 1.644184 1_555
O15 Si12 1.652205 1_545
O16 Si15 1.609230 1_555
O17 Si1 1.644184 1_555
O17 Si3 1.652205 1_555
O18 Si2 1.644184 1_555
O18 Si6 1.652205 1_555
O19 Si3 1.644184 1_555
O19 Si0 1.652205 1_655
O20 Si4 1.644184 1_555
O20 Si1 1.652205 1_455
O21 Si5 1.644184 1_555
O21 Si2 1.652205 1_565
O22 Si6 1.644184 1_555
O22 Si7 1.652205 1_545
O23 Si7 1.644184 1_555
O23 Si5 1.652205 1_555
O24 Si15 1.624046 1_555
O24 Si9 1.624046 1_555
O25 Si11 1.624046 1_555
O25 Si14 1.624046 1_555
O26 Si13 1.624046 1_555
O26 Si12 1.624046 1_555
O27 Si10 1.624046 1_555
O27 Si8 1.624046 1_555
O28 Si1 1.624046 1_555
O28 Si7 1.624046 1_555
O29 Si3 1.624046 1_555
O29 Si6 1.624046 1_555
O30 Si5 1.624046 1_555
O30 Si4 1.624046 1_555
O31 Si0 1.624046 1_555
O31 Si2 1.624046 1_555
O32 Si15 1.644184 1_555
O32 Si13 1.652205 1_655
O33 Si14 1.644184 1_555
O33 Si15 1.652205 1_555
O34 Si13 1.644184 1_555
O34 Si10 1.652205 1_555
O35 Si12 1.644184 1_555
O35 Si9 1.652205 1_555
O36 Si11 1.644184 1_555
O36 Si8 1.652205 1_555
O37 Si10 1.644184 1_555
O37 Si14 1.652205 1_455
O38 Si9 1.644184 1_555
O38 Si11 1.652205 1_565
O39 Si0 1.644184 1_555
O39 Si4 1.652205 1_555
