# generated using pymatgen
data_KC2S2N(O2F3)2
_symmetry_space_group_name_H-M   'P 1'
_cell_length_a   13.01701934
_cell_length_b   13.73327920
_cell_length_c   22.72611418
_cell_angle_alpha   90.00000000
_cell_angle_beta   90.00000000
_cell_angle_gamma   90.00000000
_symmetry_Int_Tables_number   1
_chemical_formula_structural   KC2S2N(O2F3)2
_chemical_formula_sum   'K16 C32 S32 N16 O64 F96'
_cell_volume   4062.66473045
_cell_formula_units_Z   16
loop_
 _symmetry_equiv_pos_site_id
 _symmetry_equiv_pos_as_xyz
  1  'x, y, z'
loop_
 _atom_site_type_symbol
 _atom_site_label
 _atom_site_symmetry_multiplicity
 _atom_site_fract_x
 _atom_site_fract_y
 _atom_site_fract_z
 _atom_site_occupancy
  C  C0  1  0.85533707  0.71458613  0.57747204  1
  C  C1  1  0.35533707  0.78541387  0.92252796  1
  C  C2  1  0.64466293  0.71458613  0.42252796  1
  C  C3  1  0.14466293  0.78541387  0.07747204  1
  C  C4  1  0.14466293  0.28541387  0.42252796  1
  C  C5  1  0.64466293  0.21458613  0.07747204  1
  C  C6  1  0.35533707  0.28541387  0.57747204  1
  C  C7  1  0.85533707  0.21458613  0.92252796  1
  C  C8  1  0.12236625  0.56794392  0.58249950  1
  C  C9  1  0.62236625  0.93205608  0.91750050  1
  C  C10  1  0.37763375  0.56794392  0.41750050  1
  C  C11  1  0.87763375  0.93205608  0.08249950  1
  C  C12  1  0.87763375  0.43205608  0.41750050  1
  C  C13  1  0.37763375  0.06794392  0.08249950  1
  C  C14  1  0.62236625  0.43205608  0.58249950  1
  C  C15  1  0.12236625  0.06794392  0.91750050  1
  C  C16  1  0.14365210  0.49967398  0.91817701  1
  C  C17  1  0.64365210  1.00032602  0.58182299  1
  C  C18  1  0.35634790  0.49967398  0.08182299  1
  C  C19  1  0.85634790  1.00032602  0.41817701  1
  C  C20  1  0.85634790  0.50032602  0.08182299  1
  C  C21  1  0.35634790  -0.00032602  0.41817701  1
  C  C22  1  0.64365210  0.50032602  0.91817701  1
  C  C23  1  0.14365210  -0.00032602  0.58182299  1
  C  C24  1  0.92725214  0.71933804  0.91083469  1
  C  C25  1  0.42725214  0.78066196  0.58916531  1
  C  C26  1  0.57274786  0.71933804  0.08916531  1
  C  C27  1  0.07274786  0.78066196  0.41083469  1
  C  C28  1  0.07274786  0.28066196  0.08916531  1
  C  C29  1  0.57274786  0.21933804  0.41083469  1
  C  C30  1  0.42725214  0.28066196  0.91083469  1
  C  C31  1  0.92725214  0.21933804  0.58916531  1
  N  N0  1  0.01125591  0.68940108  0.65734893  1
  N  N1  1  0.51125591  0.81059892  0.84265107  1
  N  N2  1  0.48874409  0.68940108  0.34265107  1
  N  N3  1  0.98874409  0.81059892  0.15734893  1
  N  N4  1  0.98874409  0.31059892  0.34265107  1
  N  N5  1  0.48874409  0.18940108  0.15734893  1
  N  N6  1  0.51125591  0.31059892  0.65734893  1
  N  N7  1  0.01125591  0.18940108  0.84265107  1
  N  N8  1  0.07813191  0.63823670  0.83958522  1
  N  N9  1  0.57813191  0.86176330  0.66041478  1
  N  N10  1  0.42186809  0.63823670  0.16041478  1
  N  N11  1  0.92186809  0.86176330  0.33958522  1
  N  N12  1  0.92186809  0.36176330  0.16041478  1
  N  N13  1  0.42186809  0.13823670  0.33958522  1
  N  N14  1  0.57813191  0.36176330  0.83958522  1
  N  N15  1  0.07813191  0.13823670  0.66041478  1
  O  O0  1  0.84115033  0.59269875  0.66823904  1
  O  O1  1  0.34115033  0.90730125  0.83176096  1
  O  O2  1  0.65884967  0.59269875  0.33176096  1
  O  O3  1  0.15884967  0.90730125  0.16823904  1
  O  O4  1  0.15884967  0.40730125  0.33176096  1
  O  O5  1  0.65884967  0.09269875  0.16823904  1
  O  O6  1  0.34115033  0.40730125  0.66823904  1
  O  O7  1  0.84115033  0.09269875  0.83176096  1
  O  O8  1  0.84934438  0.76896191  0.68830250  1
  O  O9  1  0.34934438  0.73103809  0.81169750  1
  O  O10  1  0.65065562  0.76896191  0.31169750  1
  O  O11  1  0.15065562  0.73103809  0.18830250  1
  O  O12  1  0.15065562  0.23103809  0.31169750  1
  O  O13  1  0.65065562  0.26896191  0.18830250  1
  O  O14  1  0.34934438  0.23103809  0.68830250  1
  O  O15  1  0.84934438  0.26896191  0.81169750  1
  O  O16  1  0.18542494  0.64148389  0.68417984  1
  O  O17  1  0.68542494  0.85851611  0.81582016  1
  O  O18  1  0.31457506  0.64148389  0.31582016  1
  O  O19  1  0.81457506  0.85851611  0.18417984  1
  O  O20  1  0.81457506  0.35851611  0.31582016  1
  O  O21  1  0.31457506  0.14148389  0.18417984  1
  O  O22  1  0.68542494  0.35851611  0.68417984  1
  O  O23  1  0.18542494  0.14148389  0.81582016  1
  O  O24  1  0.05217220  0.51175474  0.68689791  1
  O  O25  1  0.55217220  0.98824526  0.81310209  1
  O  O26  1  0.44782780  0.51175474  0.31310209  1
  O  O27  1  0.94782780  0.98824526  0.18689791  1
  O  O28  1  0.94782780  0.48824526  0.31310209  1
  O  O29  1  0.44782780  0.01175474  0.18689791  1
  O  O30  1  0.55217220  0.48824526  0.68689791  1
  O  O31  1  0.05217220  0.01175474  0.81310209  1
  O  O32  1  0.19856621  0.50963322  0.80736224  1
  O  O33  1  0.69856621  0.99036678  0.69263776  1
  O  O34  1  0.30143379  0.50963322  0.19263776  1
  O  O35  1  0.80143379  0.99036678  0.30736224  1
  O  O36  1  0.80143379  0.49036678  0.19263776  1
  O  O37  1  0.30143379  0.00963322  0.30736224  1
  O  O38  1  0.69856621  0.49036678  0.80736224  1
  O  O39  1  0.19856621  0.00963322  0.69263776  1
  O  O40  1  0.02061199  0.45829514  0.82836934  1
  O  O41  1  0.52061199  0.04170486  0.67163066  1
  O  O42  1  0.47938801  0.45829514  0.17163066  1
  O  O43  1  0.97938801  0.04170486  0.32836934  1
  O  O44  1  0.97938801  0.54170486  0.17163066  1
  O  O45  1  0.47938801  0.95829514  0.32836934  1
  O  O46  1  0.52061199  0.54170486  0.82836934  1
  O  O47  1  0.02061199  0.95829514  0.67163066  1
  O  O48  1  0.88666982  0.63058626  0.80941014  1
  O  O49  1  0.38666982  0.86941374  0.69058986  1
  O  O50  1  0.61333018  0.63058626  0.19058986  1
  O  O51  1  0.11333018  0.86941374  0.30941014  1
  O  O52  1  0.11333018  0.36941374  0.19058986  1
  O  O53  1  0.61333018  0.13058626  0.30941014  1
  O  O54  1  0.38666982  0.36941374  0.80941014  1
  O  O55  1  0.88666982  0.13058626  0.69058986  1
  O  O56  1  0.98741730  0.78447193  0.80784103  1
  O  O57  1  0.48741730  0.71552807  0.69215897  1
  O  O58  1  0.51258270  0.78447193  0.19215897  1
  O  O59  1  0.01258270  0.71552807  0.30784103  1
  O  O60  1  0.01258270  0.21552807  0.19215897  1
  O  O61  1  0.51258270  0.28447193  0.30784103  1
  O  O62  1  0.48741730  0.21552807  0.80784103  1
  O  O63  1  0.98741730  0.28447193  0.69215897  1
  F  F0  1  0.88463545  0.64162299  0.54146228  1
  F  F1  1  0.38463545  0.85837701  0.95853772  1
  F  F2  1  0.61536455  0.64162299  0.45853772  1
  F  F3  1  0.11536455  0.85837701  0.04146228  1
  F  F4  1  0.11536455  0.35837701  0.45853772  1
  F  F5  1  0.61536455  0.14162299  0.04146228  1
  F  F6  1  0.38463545  0.35837701  0.54146228  1
  F  F7  1  0.88463545  0.14162299  0.95853772  1
  F  F8  1  0.75216087  0.72470498  0.57414598  1
  F  F9  1  0.25216087  0.77529502  0.92585402  1
  F  F10  1  0.74783913  0.72470498  0.42585402  1
  F  F11  1  0.24783913  0.77529502  0.07414598  1
  F  F12  1  0.24783913  0.27529502  0.42585402  1
  F  F13  1  0.74783913  0.22470498  0.07414598  1
  F  F14  1  0.25216087  0.27529502  0.57414598  1
  F  F15  1  0.75216087  0.22470498  0.92585402  1
  F  F16  1  0.90063071  0.79797321  0.56016955  1
  F  F17  1  0.40063071  0.70202679  0.93983045  1
  F  F18  1  0.59936929  0.79797321  0.43983045  1
  F  F19  1  0.09936929  0.70202679  0.06016955  1
  F  F20  1  0.09936929  0.20202679  0.43983045  1
  F  F21  1  0.59936929  0.29797321  0.06016955  1
  F  F22  1  0.40063071  0.20202679  0.56016955  1
  F  F23  1  0.90063071  0.29797321  0.93983045  1
  F  F24  1  0.20967523  0.51495581  0.58203975  1
  F  F25  1  0.70967523  0.98504419  0.91796025  1
  F  F26  1  0.29032477  0.51495581  0.41796025  1
  F  F27  1  0.79032477  0.98504419  0.08203975  1
  F  F28  1  0.79032477  0.48504419  0.41796025  1
  F  F29  1  0.29032477  0.01495581  0.08203975  1
  F  F30  1  0.70967523  0.48504419  0.58203975  1
  F  F31  1  0.20967523  0.01495581  0.91796025  1
  F  F32  1  0.04592132  0.51417721  0.55915893  1
  F  F33  1  0.54592132  0.98582279  0.94084107  1
  F  F34  1  0.45407868  0.51417721  0.44084107  1
  F  F35  1  0.95407868  0.98582279  0.05915893  1
  F  F36  1  0.95407868  0.48582279  0.44084107  1
  F  F37  1  0.45407868  0.01417721  0.05915893  1
  F  F38  1  0.54592132  0.48582279  0.55915893  1
  F  F39  1  0.04592132  0.01417721  0.94084107  1
  F  F40  1  0.13621841  0.64880038  0.54969432  1
  F  F41  1  0.63621841  0.85119962  0.95030568  1
  F  F42  1  0.36378159  0.64880038  0.45030568  1
  F  F43  1  0.86378159  0.85119962  0.04969432  1
  F  F44  1  0.86378159  0.35119962  0.45030568  1
  F  F45  1  0.36378159  0.14880038  0.04969432  1
  F  F46  1  0.63621841  0.35119962  0.54969432  1
  F  F47  1  0.13621841  0.14880038  0.95030568  1
  F  F48  1  0.16891185  0.40420627  0.92172029  1
  F  F49  1  0.66891185  0.09579373  0.57827971  1
  F  F50  1  0.33108815  0.40420627  0.07827971  1
  F  F51  1  0.83108815  0.09579373  0.42172029  1
  F  F52  1  0.83108815  0.59579373  0.07827971  1
  F  F53  1  0.33108815  0.90420627  0.42172029  1
  F  F54  1  0.66891185  0.59579373  0.92172029  1
  F  F55  1  0.16891185  0.90420627  0.57827971  1
  F  F56  1  0.22567164  0.55395539  0.93337066  1
  F  F57  1  0.72567164  0.94604461  0.56662934  1
  F  F58  1  0.27432836  0.55395539  0.06662934  1
  F  F59  1  0.77432836  0.94604461  0.43337066  1
  F  F60  1  0.77432836  0.44604461  0.06662934  1
  F  F61  1  0.27432836  0.05395539  0.43337066  1
  F  F62  1  0.72567164  0.44604461  0.93337066  1
  F  F63  1  0.22567164  0.05395539  0.56662934  1
  F  F64  1  0.06604468  0.51799197  0.95564934  1
  F  F65  1  0.56604468  0.98200803  0.54435066  1
  F  F66  1  0.43395532  0.51799197  0.04435066  1
  F  F67  1  0.93395532  0.98200803  0.45564934  1
  F  F68  1  0.93395532  0.48200803  0.04435066  1
  F  F69  1  0.43395532  0.01799197  0.45564934  1
  F  F70  1  0.56604468  0.48200803  0.95564934  1
  F  F71  1  0.06604468  0.01799197  0.54435066  1
  F  F72  1  0.90238899  0.63796933  0.94071526  1
  F  F73  1  0.40238899  0.86203067  0.55928474  1
  F  F74  1  0.59761101  0.63796933  0.05928474  1
  F  F75  1  0.09761101  0.86203067  0.44071526  1
  F  F76  1  0.09761101  0.36203067  0.05928474  1
  F  F77  1  0.59761101  0.13796933  0.44071526  1
  F  F78  1  0.40238899  0.36203067  0.94071526  1
  F  F79  1  0.90238899  0.13796933  0.55928474  1
  F  F80  1  0.84348521  0.77738237  0.90766546  1
  F  F81  1  0.34348521  0.72261763  0.59233454  1
  F  F82  1  0.65651479  0.77738237  0.09233454  1
  F  F83  1  0.15651479  0.72261763  0.40766546  1
  F  F84  1  0.15651479  0.22261763  0.09233454  1
  F  F85  1  0.65651479  0.27738237  0.40766546  1
  F  F86  1  0.34348521  0.22261763  0.90766546  1
  F  F87  1  0.84348521  0.27738237  0.59233454  1
  F  F88  1  0.00271100  0.76694965  0.93949895  1
  F  F89  1  0.50271100  0.73305035  0.56050105  1
  F  F90  1  0.49728900  0.76694965  0.06050105  1
  F  F91  1  0.99728900  0.73305035  0.43949895  1
  F  F92  1  0.99728900  0.23305035  0.06050105  1
  F  F93  1  0.49728900  0.26694965  0.43949895  1
  F  F94  1  0.50271100  0.23305035  0.93949895  1
  F  F95  1  0.00271100  0.26694965  0.56050105  1
  S  S0  1  0.88940944  0.68600104  0.65612142  1
  S  S1  1  0.38940944  0.81399896  0.84387858  1
  S  S2  1  0.61059056  0.68600104  0.34387858  1
  S  S3  1  0.11059056  0.81399896  0.15612142  1
  S  S4  1  0.11059056  0.31399896  0.34387858  1
  S  S5  1  0.61059056  0.18600104  0.15612142  1
  S  S6  1  0.38940944  0.31399896  0.65612142  1
  S  S7  1  0.88940944  0.18600104  0.84387858  1
  S  S8  1  0.09024488  0.60129181  0.66110711  1
  S  S9  1  0.59024488  0.89870819  0.83889289  1
  S  S10  1  0.40975512  0.60129181  0.33889289  1
  S  S11  1  0.90975512  0.89870819  0.16110711  1
  S  S12  1  0.90975512  0.39870819  0.33889289  1
  S  S13  1  0.40975512  0.10129181  0.16110711  1
  S  S14  1  0.59024488  0.39870819  0.66110711  1
  S  S15  1  0.09024488  0.10129181  0.83889289  1
  S  S16  1  0.10425763  0.52532814  0.84009303  1
  S  S17  1  0.60425763  0.97467186  0.65990697  1
  S  S18  1  0.39574237  0.52532814  0.15990697  1
  S  S19  1  0.89574237  0.97467186  0.34009303  1
  S  S20  1  0.89574237  0.47467186  0.15990697  1
  S  S21  1  0.39574237  0.02532814  0.34009303  1
  S  S22  1  0.60425763  0.47467186  0.84009303  1
  S  S23  1  0.10425763  0.02532814  0.65990697  1
  S  S24  1  0.96913520  0.68912295  0.83362259  1
  S  S25  1  0.46913520  0.81087705  0.66637741  1
  S  S26  1  0.53086480  0.68912295  0.16637741  1
  S  S27  1  0.03086480  0.81087705  0.33362259  1
  S  S28  1  0.03086480  0.31087705  0.16637741  1
  S  S29  1  0.53086480  0.18912295  0.33362259  1
  S  S30  1  0.46913520  0.31087705  0.83362259  1
  S  S31  1  0.96913520  0.18912295  0.66637741  1
  K  K0  1  0.86987008  0.43632112  0.74375475  1
  K  K1  1  0.36987008  0.06367888  0.75624525  1
  K  K2  1  0.63012992  0.43632112  0.25624525  1
  K  K3  1  0.13012992  0.06367888  0.24375475  1
  K  K4  1  0.13012992  0.56367888  0.25624525  1
  K  K5  1  0.63012992  0.93632112  0.24375475  1
  K  K6  1  0.36987008  0.56367888  0.74375475  1
  K  K7  1  0.86987008  0.93632112  0.75624525  1
  K  K8  1  0.17374142  0.82127059  0.74788211  1
  K  K9  1  0.67374142  0.67872941  0.75211789  1
  K  K10  1  0.32625858  0.82127059  0.25211789  1
  K  K11  1  0.82625858  0.67872941  0.24788211  1
  K  K12  1  0.82625858  0.17872941  0.25211789  1
  K  K13  1  0.32625858  0.32127059  0.24788211  1
  K  K14  1  0.67374142  0.17872941  0.74788211  1
  K  K15  1  0.17374142  0.32127059  0.75211789  1
loop_
_geom_bond_atom_site_label_1
_geom_bond_atom_site_label_2
_geom_bond_distance
_geom_bond_site_symmetry_2
C0 F16 1.346725 1_555
C0 F0 1.348783 1_555
C0 F8 1.352331 1_555
C0 S0 1.882976 1_555
C1 F17 1.346725 1_555
C1 F1 1.348783 1_555
C1 F9 1.352331 1_555
C1 S1 1.882976 1_555
C2 F18 1.346725 1_555
C2 F2 1.348783 1_555
C2 F10 1.352331 1_555
C2 S2 1.882976 1_555
C3 F19 1.346725 1_555
C3 F3 1.348783 1_555
C3 F11 1.352331 1_555
C3 S3 1.882976 1_555
C4 F20 1.346725 1_555
C4 F4 1.348783 1_555
C4 F12 1.352331 1_555
C4 S4 1.882976 1_555
C5 F21 1.346725 1_555
C5 F5 1.348783 1_555
C5 F13 1.352331 1_555
C5 S5 1.882976 1_555
C6 F22 1.346725 1_555
C6 F6 1.348783 1_555
C6 F14 1.352331 1_555
C6 S6 1.882976 1_555
C7 F23 1.346725 1_555
C7 F7 1.348783 1_555
C7 F15 1.352331 1_555
C7 S7 1.882976 1_555
C8 F32 1.347882 1_555
C8 F24 1.349554 1_555
C8 F40 1.349584 1_555
C8 S8 1.891020 1_555
C9 F33 1.347882 1_555
C9 F25 1.349554 1_555
C9 F41 1.349584 1_555
C9 S9 1.891020 1_555
C10 F34 1.347882 1_555
C10 F26 1.349554 1_555
C10 F42 1.349584 1_555
C10 S10 1.891020 1_555
C11 F35 1.347882 1_555
C11 F27 1.349554 1_555
C11 F43 1.349584 1_555
C11 S11 1.891020 1_555
C12 F36 1.347882 1_555
C12 F28 1.349554 1_555
C12 F44 1.349584 1_555
C12 S12 1.891020 1_555
C13 F37 1.347882 1_555
C13 F29 1.349554 1_555
C13 F45 1.349584 1_555
C13 S13 1.891020 1_555
C14 F38 1.347882 1_555
C14 F30 1.349554 1_555
C14 F46 1.349584 1_555
C14 S14 1.891020 1_555
C15 F39 1.347882 1_555
C15 F31 1.349554 1_555
C15 F47 1.349584 1_555
C15 S15 1.891020 1_555
C16 F64 1.345008 1_555
C16 F56 1.347151 1_555
C16 F48 1.354083 1_555
C16 S16 1.880452 1_555
C17 F65 1.345008 1_555
C17 F57 1.347151 1_555
C17 F49 1.354083 1_565
C17 S17 1.880452 1_555
C18 F66 1.345008 1_555
C18 F58 1.347151 1_555
C18 F50 1.354083 1_555
C18 S18 1.880452 1_555
C19 F67 1.345008 1_555
C19 F59 1.347151 1_555
C19 F51 1.354083 1_565
C19 S19 1.880452 1_555
C20 F68 1.345008 1_555
C20 F60 1.347151 1_555
C20 F52 1.354083 1_555
C20 S20 1.880452 1_555
C21 F69 1.345008 1_555
C21 F61 1.347151 1_555
C21 F53 1.354083 1_545
C21 S21 1.880452 1_555
C22 F70 1.345008 1_555
C22 F62 1.347151 1_555
C22 F54 1.354083 1_555
C22 S22 1.880452 1_555
C23 F71 1.345008 1_555
C23 F63 1.347151 1_555
C23 F55 1.354083 1_545
C23 S23 1.880452 1_555
C24 F72 1.347069 1_555
C24 F88 1.347853 1_655
C24 F80 1.352620 1_555
C24 S24 1.883747 1_555
C25 F73 1.347069 1_555
C25 F89 1.347853 1_555
C25 F81 1.352620 1_555
C25 S25 1.883747 1_555
C26 F74 1.347069 1_555
C26 F90 1.347853 1_555
C26 F82 1.352620 1_555
C26 S26 1.883747 1_555
C27 F75 1.347069 1_555
C27 F91 1.347853 1_455
C27 F83 1.352620 1_555
C27 S27 1.883747 1_555
C28 F76 1.347069 1_555
C28 F92 1.347853 1_455
C28 F84 1.352620 1_555
C28 S28 1.883747 1_555
C29 F77 1.347069 1_555
C29 F93 1.347853 1_555
C29 F85 1.352620 1_555
C29 S29 1.883747 1_555
C30 F78 1.347069 1_555
C30 F94 1.347853 1_555
C30 F86 1.352620 1_555
C30 S30 1.883747 1_555
C31 F79 1.347069 1_555
C31 F95 1.347853 1_655
C31 F87 1.352620 1_555
C31 S31 1.883747 1_555
N0 S0 1.587010 1_455
N0 S8 1.590177 1_555
N1 S1 1.587010 1_555
N1 S9 1.590177 1_555
N2 S2 1.587010 1_555
N2 S10 1.590177 1_555
N3 S3 1.587010 1_655
N3 S11 1.590177 1_555
N4 S4 1.587010 1_655
N4 S12 1.590177 1_555
N5 S5 1.587010 1_555
N5 S13 1.590177 1_555
N6 S6 1.587010 1_555
N6 S14 1.590177 1_555
N7 S7 1.587010 1_455
N7 S15 1.590177 1_555
N8 S24 1.587376 1_455
N8 S16 1.587502 1_555
N9 S25 1.587376 1_555
N9 S17 1.587502 1_555
N10 S26 1.587376 1_555
N10 S18 1.587502 1_555
N11 S27 1.587376 1_655
N11 S19 1.587502 1_555
N12 S28 1.587376 1_655
N12 S20 1.587502 1_555
N13 S29 1.587376 1_555
N13 S21 1.587502 1_555
N14 S30 1.587376 1_555
N14 S22 1.587502 1_555
N15 S31 1.587376 1_455
N15 S23 1.587502 1_555
O0 S0 1.453378 1_555
O1 S1 1.453378 1_555
O2 S2 1.453378 1_555
O3 S3 1.453378 1_555
O4 S4 1.453378 1_555
O5 S5 1.453378 1_555
O6 S6 1.453378 1_555
O7 S7 1.453378 1_555
O8 S0 1.450836 1_555
O9 S1 1.450836 1_555
O10 S2 1.450836 1_555
O11 S3 1.450836 1_555
O12 S4 1.450836 1_555
O13 S5 1.450836 1_555
O14 S6 1.450836 1_555
O15 S7 1.450836 1_555
O16 S8 1.454180 1_555
O17 S9 1.454180 1_555
O18 S10 1.454180 1_555
O19 S11 1.454180 1_555
O20 S12 1.454180 1_555
O21 S13 1.454180 1_555
O22 S14 1.454180 1_555
O23 S15 1.454180 1_555
O24 S8 1.449539 1_555
O25 S9 1.449539 1_555
O26 S10 1.449539 1_555
O27 S11 1.449539 1_555
O28 S12 1.449539 1_555
O29 S13 1.449539 1_555
O30 S14 1.449539 1_555
O31 S15 1.449539 1_555
O32 S16 1.451484 1_555
O33 S17 1.451484 1_555
O34 S18 1.451484 1_555
O35 S19 1.451484 1_555
O36 S20 1.451484 1_555
O37 S21 1.451484 1_555
O38 S22 1.451484 1_555
O39 S23 1.451484 1_555
O40 S16 1.450511 1_555
O41 S17 1.450511 1_545
O42 S18 1.450511 1_555
O43 S19 1.450511 1_545
O44 S20 1.450511 1_555
O45 S21 1.450511 1_565
O46 S22 1.450511 1_555
O47 S23 1.450511 1_565
O48 S24 1.449600 1_555
O49 S25 1.449600 1_555
O50 S26 1.449600 1_555
O51 S27 1.449600 1_555
O52 S28 1.449600 1_555
O53 S29 1.449600 1_555
O54 S30 1.449600 1_555
O55 S31 1.449600 1_555
O56 S24 1.454166 1_555
O57 S25 1.454166 1_555
O58 S26 1.454166 1_555
O59 S27 1.454166 1_555
O60 S28 1.454166 1_555
O61 S29 1.454166 1_555
O62 S30 1.454166 1_555
O63 S31 1.454166 1_555
K0 O38 2.759133 1_555
K0 O40 2.763895 1_655
K0 O0 2.774368 1_555
K0 O15 2.781754 1_555
K0 O63 2.839897 1_555
K0 O24 2.893800 1_655
K0 O22 2.956220 1_555
K0 O48 3.064610 1_555
K1 O39 2.759133 1_555
K1 O41 2.763895 1_555
K1 O1 2.774368 1_545
K1 O14 2.781754 1_555
K1 O62 2.839897 1_555
K1 O25 2.893800 1_545
K1 O23 2.956220 1_555
K1 O49 3.064610 1_545
K2 O36 2.759133 1_555
K2 O42 2.763895 1_555
K2 O2 2.774368 1_555
K2 O13 2.781754 1_555
K2 O61 2.839897 1_555
K2 O26 2.893800 1_555
K2 O20 2.956220 1_555
K2 O50 3.064610 1_555
K3 O37 2.759133 1_555
K3 O43 2.763895 1_455
K3 O3 2.774368 1_545
K3 O12 2.781754 1_555
K3 O60 2.839897 1_555
K3 O27 2.893800 1_445
K3 O21 2.956220 1_555
K3 O51 3.064610 1_545
K4 O34 2.759133 1_555
K4 O44 2.763895 1_455
K4 O4 2.774368 1_555
K4 O11 2.781754 1_555
K4 O59 2.839897 1_555
K4 O28 2.893800 1_455
K4 O18 2.956220 1_555
K4 O52 3.064610 1_555
K5 O35 2.759133 1_555
K5 O45 2.763895 1_555
K5 O5 2.774368 1_565
K5 O10 2.781754 1_555
K5 O58 2.839897 1_555
K5 O29 2.893800 1_565
K5 O19 2.956220 1_555
K5 O53 3.064610 1_565
K6 O32 2.759133 1_555
K6 O46 2.763895 1_555
K6 O6 2.774368 1_555
K6 O9 2.781754 1_555
K6 O57 2.839897 1_555
K6 O30 2.893800 1_555
K6 O16 2.956220 1_555
K6 O54 3.064610 1_555
K7 O33 2.759133 1_555
K7 O47 2.763895 1_655
K7 O7 2.774368 1_565
K7 O8 2.781754 1_555
K7 O56 2.839897 1_555
K7 O31 2.893800 1_665
K7 O17 2.956220 1_555
K7 O55 3.064610 1_565
K8 O56 2.827482 1_455
K8 O16 2.866224 1_555
K8 O39 2.893510 1_565
K8 O9 2.977229 1_555
K8 O1 3.127046 1_555
K8 O49 3.132843 1_555
K8 O47 3.243038 1_555
K9 O57 2.827482 1_555
K9 O17 2.866224 1_555
K9 O38 2.893510 1_555
K9 O8 2.977229 1_555
K9 O0 3.127046 1_555
K9 O48 3.132843 1_555
K9 O46 3.243038 1_555
K10 O58 2.827482 1_555
K10 O18 2.866224 1_555
K10 O37 2.893510 1_565
K10 O11 2.977229 1_555
K10 O3 3.127046 1_555
K10 O51 3.132843 1_555
K10 O45 3.243038 1_555
K11 O59 2.827482 1_655
K11 O19 2.866224 1_555
K11 O36 2.893510 1_555
K11 O10 2.977229 1_555
K11 O2 3.127046 1_555
K11 O50 3.132843 1_555
K11 O44 3.243038 1_555
K12 O60 2.827482 1_655
K12 O20 2.866224 1_555
K12 O35 2.893510 1_545
K12 O13 2.977229 1_555
K12 O5 3.127046 1_555
K12 O53 3.132843 1_555
K12 O43 3.243038 1_555
K13 O61 2.827482 1_555
K13 O21 2.866224 1_555
K13 O34 2.893510 1_555
K13 O12 2.977229 1_555
K13 O4 3.127046 1_555
K13 O52 3.132843 1_555
K13 O42 3.243038 1_555
K14 O62 2.827482 1_555
K14 O22 2.866224 1_555
K14 O33 2.893510 1_545
K14 O15 2.977229 1_555
K14 O7 3.127046 1_555
K14 O55 3.132843 1_555
K14 O41 3.243038 1_555
K15 O63 2.827482 1_455
K15 O23 2.866224 1_555
K15 O32 2.893510 1_555
K15 O14 2.977229 1_555
K15 O6 3.127046 1_555
K15 O54 3.132843 1_555
K15 O40 3.243038 1_555
