# generated using pymatgen
data_Re6Pb5O19
_symmetry_space_group_name_H-M   'P 1'
_cell_length_a   9.40070600
_cell_length_b   9.39546700
_cell_length_c   13.30340377
_cell_angle_alpha   45.01896373
_cell_angle_beta   90.00000000
_cell_angle_gamma   90.00000000
_symmetry_Int_Tables_number   1
_chemical_formula_structural   Re6Pb5O19
_chemical_formula_sum   'Re12 Pb10 O38'
_cell_volume   831.13258939
_cell_formula_units_Z   2
loop_
 _symmetry_equiv_pos_site_id
 _symmetry_equiv_pos_as_xyz
  1  'x, y, z'
loop_
 _atom_site_type_symbol
 _atom_site_label
 _atom_site_symmetry_multiplicity
 _atom_site_fract_x
 _atom_site_fract_y
 _atom_site_fract_z
 _atom_site_occupancy
  Re  Re0  1  0.11544100  0.50000000  0.25000000  1
  Re  Re1  1  0.24748800  0.13898400  0.24441600  1
  Re  Re2  1  0.24637800  0.36784000  0.88320600  1
  Re  Re3  1  0.24637800  0.63216000  0.61679400  1
  Re  Re4  1  0.24748800  0.86101600  0.25558400  1
  Re  Re5  1  0.38158800  0.50000000  0.25000000  1
  Re  Re6  1  0.61841200  0.50000000  0.75000000  1
  Re  Re7  1  0.75251200  0.13898400  0.74441600  1
  Re  Re8  1  0.75362200  0.36784000  0.38320600  1
  Re  Re9  1  0.75362200  0.63216000  0.11679400  1
  Re  Re10  1  0.75251200  0.86101600  0.75558400  1
  Re  Re11  1  0.88455900  0.50000000  0.75000000  1
  Pb  Pb0  1  0.10184700  0.99892000  0.60747400  1
  Pb  Pb1  1  0.10184700  0.00108000  0.89252600  1
  Pb  Pb2  1  0.39069700  0.70811200  0.89652800  1
  Pb  Pb3  1  0.39069700  0.29188800  0.60347200  1
  Pb  Pb4  1  0.50000000  0.00000000  0.50000000  1
  Pb  Pb5  1  0.50000000  0.00000000  0.00000000  1
  Pb  Pb6  1  0.60930300  0.70811200  0.39652800  1
  Pb  Pb7  1  0.60930300  0.29188800  0.10347200  1
  Pb  Pb8  1  0.89815300  0.99892000  0.10747400  1
  Pb  Pb9  1  0.89815300  0.00108000  0.39252600  1
  O  O0  1  0.04016600  0.35487400  0.89198900  1
  O  O1  1  0.04016600  0.64512600  0.60801100  1
  O  O2  1  0.07890100  0.00000000  0.25000000  1
  O  O3  1  0.10806800  0.28679000  0.25340400  1
  O  O4  1  0.10806800  0.71321000  0.24659600  1
  O  O5  1  0.24989200  0.06545100  0.03929700  1
  O  O6  1  0.24989200  0.93454900  0.46070300  1
  O  O7  1  0.25134200  0.00000000  0.75000000  1
  O  O8  1  0.25011400  0.32825100  0.75211300  1
  O  O9  1  0.25085600  0.66980100  0.08040800  1
  O  O10  1  0.25085600  0.33019900  0.41959200  1
  O  O11  1  0.25011400  0.67174900  0.74788700  1
  O  O12  1  0.25256800  0.64641700  0.46128200  1
  O  O13  1  0.25256800  0.35358300  0.03871800  1
  O  O14  1  0.39499800  0.71125100  0.25002200  1
  O  O15  1  0.39499800  0.28874900  0.24997800  1
  O  O16  1  0.41762000  0.00000000  0.25000000  1
  O  O17  1  0.46136700  0.35460500  0.89530200  1
  O  O18  1  0.46136700  0.64539500  0.60469800  1
  O  O19  1  0.53863300  0.35460500  0.39530200  1
  O  O20  1  0.53863300  0.64539500  0.10469800  1
  O  O21  1  0.58238000  0.00000000  0.75000000  1
  O  O22  1  0.60500200  0.71125100  0.75002200  1
  O  O23  1  0.60500200  0.28874900  0.74997800  1
  O  O24  1  0.74743200  0.64641700  0.96128200  1
  O  O25  1  0.74743200  0.35358300  0.53871800  1
  O  O26  1  0.74914400  0.66980100  0.58040800  1
  O  O27  1  0.74988600  0.32825100  0.25211300  1
  O  O28  1  0.74914400  0.33019900  0.91959200  1
  O  O29  1  0.74988600  0.67174900  0.24788700  1
  O  O30  1  0.74865800  0.00000000  0.25000000  1
  O  O31  1  0.75010800  0.06545100  0.53929700  1
  O  O32  1  0.75010800  0.93454900  0.96070300  1
  O  O33  1  0.89193200  0.28679000  0.75340400  1
  O  O34  1  0.89193200  0.71321000  0.74659600  1
  O  O35  1  0.92109900  0.00000000  0.75000000  1
  O  O36  1  0.95983400  0.35487400  0.39198900  1
  O  O37  1  0.95983400  0.64512600  0.10801100  1
loop_
_geom_bond_atom_site_label_1
_geom_bond_atom_site_label_2
_geom_bond_distance
_geom_bond_site_symmetry_2
O0 Re2 1.940696 1_555
O0 Re11 1.981376 1_455
O0 Pb8 2.762426 1_446
O1 Re3 1.940696 1_555
O1 Re11 1.981376 1_455
O1 Pb9 2.762426 1_465
O2 Re1 2.021201 1_555
O2 Re4 2.021201 1_545
O2 Pb8 2.551385 1_445
O2 Pb9 2.551385 1_455
O3 Re0 1.972675 1_555
O3 Re1 1.973664 1_555
O3 Pb9 2.738908 1_455
O4 Re0 1.972675 1_555
O4 Re4 1.973664 1_555
O4 Pb8 2.738908 1_455
O5 Re2 2.011046 1_554
O5 Re4 2.038538 1_545
O5 Pb5 2.575666 1_555
O5 Pb1 2.790096 1_554
O6 Re3 2.011046 1_555
O6 Re1 2.038538 1_565
O6 Pb4 2.575666 1_565
O6 Pb0 2.790096 1_555
O7 Pb3 2.340778 1_555
O7 Pb2 2.340778 1_545
O7 Pb0 2.365895 1_545
O7 Pb1 2.365895 1_555
O8 Re2 2.024387 1_555
O8 Re3 2.031771 1_555
O8 Pb3 2.593961 1_555
O8 Pb1 2.600638 1_555
O9 Re5 2.014241 1_555
O9 Re0 2.041400 1_555
O9 Pb2 2.568454 1_554
O9 Pb1 2.626576 1_564
O10 Re5 2.014241 1_555
O10 Re0 2.041400 1_555
O10 Pb3 2.568454 1_555
O10 Pb0 2.626576 1_545
O11 Re3 2.024387 1_555
O11 Re2 2.031771 1_555
O11 Pb2 2.593961 1_555
O11 Pb0 2.600638 1_555
O12 Re4 1.937947 1_555
O12 Re3 1.977281 1_555
O12 Pb3 2.729798 1_555
O13 Re1 1.937947 1_555
O13 Re2 1.977281 1_554
O13 Pb2 2.729798 1_554
O14 Re5 1.989008 1_555
O14 Re4 2.013844 1_555
O14 Pb5 2.576918 1_565
O14 Pb6 2.788728 1_555
O15 Re5 1.989008 1_555
O15 Re1 2.013844 1_555
O15 Pb4 2.576918 1_555
O15 Pb7 2.788728 1_555
O16 Re1 2.032609 1_555
O16 Re4 2.032609 1_545
O16 Pb6 2.647658 1_545
O16 Pb7 2.647658 1_555
O17 Re6 2.012229 1_555
O17 Re2 2.024279 1_555
O17 Pb5 2.571286 1_556
O17 Pb7 2.764714 1_556
O18 Re6 2.012229 1_555
O18 Re3 2.024279 1_555
O18 Pb4 2.571286 1_565
O18 Pb6 2.764714 1_555
O19 Re5 2.012229 1_555
O19 Re8 2.024279 1_555
O19 Pb4 2.571286 1_555
O19 Pb3 2.764714 1_555
O20 Re5 2.012229 1_555
O20 Re9 2.024279 1_555
O20 Pb5 2.571286 1_565
O20 Pb2 2.764714 1_554
O21 Re10 2.032609 1_545
O21 Re7 2.032609 1_555
O21 Pb3 2.647658 1_555
O21 Pb2 2.647658 1_545
O22 Re6 1.989008 1_555
O22 Re10 2.013844 1_555
O22 Pb4 2.576918 1_565
O22 Pb2 2.788728 1_555
O23 Re6 1.989008 1_555
O23 Re7 2.013844 1_555
O23 Pb5 2.576918 1_556
O23 Pb3 2.788728 1_555
O24 Re10 1.937947 1_555
O24 Re9 1.977281 1_556
O24 Pb7 2.729798 1_556
O25 Re7 1.937947 1_555
O25 Re8 1.977281 1_555
O25 Pb6 2.729798 1_555
O26 Re6 2.014241 1_555
O26 Re11 2.041400 1_555
O26 Pb6 2.568454 1_555
O26 Pb9 2.626576 1_565
O27 Re8 2.024387 1_555
O27 Re9 2.031771 1_555
O27 Pb7 2.593961 1_555
O27 Pb9 2.600638 1_555
O28 Re6 2.014241 1_555
O28 Re11 2.041400 1_555
O28 Pb7 2.568454 1_556
O28 Pb8 2.626576 1_546
O29 Re9 2.024387 1_555
O29 Re8 2.031771 1_555
O29 Pb6 2.593961 1_555
O29 Pb8 2.600638 1_555
O30 Pb7 2.340778 1_555
O30 Pb6 2.340778 1_545
O30 Pb9 2.365895 1_555
O30 Pb8 2.365895 1_545
O31 Re8 2.011046 1_555
O31 Re10 2.038538 1_545
O31 Pb4 2.575666 1_555
O31 Pb9 2.790096 1_555
O32 Re9 2.011046 1_556
O32 Re7 2.038538 1_565
O32 Pb5 2.575666 1_566
O32 Pb8 2.790096 1_556
O33 Re11 1.972675 1_555
O33 Re7 1.973664 1_555
O33 Pb1 2.738908 1_655
O34 Re11 1.972675 1_555
O34 Re10 1.973664 1_555
O34 Pb0 2.738908 1_655
O35 Re7 2.021201 1_555
O35 Re10 2.021201 1_545
O35 Pb0 2.551385 1_645
O35 Pb1 2.551385 1_655
O36 Re8 1.940696 1_555
O36 Re0 1.981376 1_655
O36 Pb0 2.762426 1_645
O37 Re9 1.940696 1_555
O37 Re0 1.981376 1_655
O37 Pb1 2.762426 1_664
