# generated using pymatgen
data_K4Zr6CBr18
_symmetry_space_group_name_H-M   'P 1'
_cell_length_a   10.41163200
_cell_length_b   10.55862764
_cell_length_c   10.65754653
_cell_angle_alpha   118.50040687
_cell_angle_beta   100.01584499
_cell_angle_gamma   103.94940285
_symmetry_Int_Tables_number   1
_chemical_formula_structural   K4Zr6CBr18
_chemical_formula_sum   'K4 Zr6 C1 Br18'
_cell_volume   940.17075959
_cell_formula_units_Z   1
loop_
 _symmetry_equiv_pos_site_id
 _symmetry_equiv_pos_as_xyz
  1  'x, y, z'
loop_
 _atom_site_type_symbol
 _atom_site_label
 _atom_site_symmetry_multiplicity
 _atom_site_fract_x
 _atom_site_fract_y
 _atom_site_fract_z
 _atom_site_occupancy
  K  K0  1  0.18613300  0.16018300  0.56395000  1
  K  K1  1  0.84746100  0.18873300  0.77291300  1
  K  K2  1  0.15253900  0.81126700  0.22708700  1
  K  K3  1  0.81386700  0.83981700  0.43605000  1
  Zr  Zr0  1  0.35308800  0.67050900  0.77423700  1
  Zr  Zr1  1  0.36397400  0.49338300  0.13040400  1
  Zr  Zr2  1  0.64267600  0.69007700  0.04447900  1
  Zr  Zr3  1  0.64691200  0.32949100  0.22576300  1
  Zr  Zr4  1  0.35732400  0.30992300  0.95552100  1
  Zr  Zr5  1  0.63602600  0.50661700  0.86959600  1
  C  C0  1  0.50000000  0.50000000  0.00000000  1
  Br  Br0  1  0.82213900  0.31195800  0.11059800  1
  Br  Br1  1  0.51414100  0.29505200  0.41062700  1
  Br  Br2  1  0.17688300  0.07557500  0.89922900  1
  Br  Br3  1  0.17786100  0.68804200  0.88940200  1
  Br  Br4  1  0.83043500  0.52255400  0.31284000  1
  Br  Br5  1  0.50339100  0.08451700  0.21021300  1
  Br  Br6  1  0.79916200  0.51302100  0.71018400  1
  Br  Br7  1  0.16956500  0.47744600  0.68716000  1
  Br  Br8  1  0.50750200  0.71346600  0.19831400  1
  Br  Br9  1  0.81898100  0.72613400  0.90251800  1
  Br  Br10  1  0.20083800  0.48697900  0.28981600  1
  Br  Br11  1  0.16608300  0.88257300  0.49584400  1
  Br  Br12  1  0.49660900  0.91548300  0.78978700  1
  Br  Br13  1  0.82311700  0.92442500  0.10077100  1
  Br  Br14  1  0.48585900  0.70494800  0.58937300  1
  Br  Br15  1  0.18101900  0.27386600  0.09748200  1
  Br  Br16  1  0.83391700  0.11742700  0.50415600  1
  Br  Br17  1  0.49249800  0.28653400  0.80168600  1
loop_
_geom_bond_atom_site_label_1
_geom_bond_atom_site_label_2
_geom_bond_distance
_geom_bond_site_symmetry_2
Zr1 Zr4 1.917259 1_554
Zr2 Zr5 1.917259 1_554
C0 Zr4 1.966980 1_554
C0 Zr2 1.966980 1_555
C0 Zr5 2.161428 1_554
C0 Zr1 2.161428 1_555
Br0 Br4 2.205993 1_555
Br0 Zr3 2.365173 1_555
Br0 K1 3.277372 1_554
Br1 Br5 2.186757 1_555
Br1 Zr3 2.704354 1_555
Br2 Zr4 2.441730 1_555
Br3 Br7 2.205993 1_555
Br3 Zr0 2.365173 1_555
Br3 K2 3.277372 1_556
Br4 Zr3 2.089877 1_555
Br4 K3 3.022437 1_555
Br5 Zr3 2.567508 1_555
Br6 Br9 2.129514 1_555
Br6 Zr5 2.614179 1_555
Br7 Zr0 2.089877 1_555
Br7 K0 3.022437 1_555
Br8 Zr1 2.121650 1_555
Br8 C0 2.205626 1_555
Br8 Zr2 2.305097 1_555
Br8 K3 3.207063 1_555
Br9 Zr5 2.446746 1_555
Br9 Zr2 2.642400 1_556
Br10 Br15 2.129514 1_555
Br10 Zr1 2.614179 1_555
Br11 K2 2.557575 1_555
Br11 K0 2.604634 1_565
Br11 K3 3.488875 1_455
Br12 Br14 2.186757 1_555
Br12 Zr0 2.567508 1_555
Br13 Br9 2.133742 1_554
Br13 Zr2 2.441730 1_555
Br14 Zr0 2.704354 1_555
Br15 Br2 2.133742 1_554
Br15 Zr1 2.446746 1_555
Br15 Zr4 2.642400 1_554
Br16 K1 2.557575 1_555
Br16 K3 2.604634 1_545
Br16 K0 3.488875 1_655
Br17 Zr5 2.121650 1_555
Br17 C0 2.205626 1_556
Br17 Zr4 2.305097 1_555
Br17 K0 3.207063 1_555
