# generated using pymatgen
data_V2PS10
_symmetry_space_group_name_H-M   'P 1'
_cell_length_a   7.67501100
_cell_length_b   12.69074900
_cell_length_c   24.75675326
_cell_angle_alpha   84.20514988
_cell_angle_beta   90.00000000
_cell_angle_gamma   90.00000000
_symmetry_Int_Tables_number   1
_chemical_formula_structural   V2PS10
_chemical_formula_sum   'V16 P8 S80'
_cell_volume   2399.02582200
_cell_formula_units_Z   8
loop_
 _symmetry_equiv_pos_site_id
 _symmetry_equiv_pos_as_xyz
  1  'x, y, z'
loop_
 _atom_site_type_symbol
 _atom_site_label
 _atom_site_symmetry_multiplicity
 _atom_site_fract_x
 _atom_site_fract_y
 _atom_site_fract_z
 _atom_site_occupancy
  V  V0  1  0.55728500  0.52228600  0.13580100  1
  V  V1  1  0.43507400  0.02325200  0.13296500  1
  V  V2  1  0.05728500  0.47771400  0.36419900  1
  V  V3  1  0.55704800  0.68402500  0.86613800  1
  V  V4  1  0.44295200  0.31597500  0.13386200  1
  V  V5  1  0.05704800  0.31597500  0.63386200  1
  V  V6  1  0.44969700  0.18421000  0.86358600  1
  V  V7  1  0.44271500  0.47771400  0.86419900  1
  V  V8  1  0.55030300  0.81579000  0.13641400  1
  V  V9  1  0.56492600  0.97674800  0.86703500  1
  V  V10  1  0.93507400  0.97674800  0.36703500  1
  V  V11  1  0.06492600  0.02325200  0.63296500  1
  V  V12  1  0.94969700  0.81579000  0.63641400  1
  V  V13  1  0.94271500  0.52228600  0.63580100  1
  V  V14  1  0.94295200  0.68402500  0.36613800  1
  V  V15  1  0.05030300  0.18421000  0.36358600  1
  P  P0  1  0.86481300  0.81588900  0.91666100  1
  P  P1  1  0.13518700  0.18411100  0.08333900  1
  P  P2  1  0.87366500  0.68021900  0.09891700  1
  P  P3  1  0.63518700  0.81588900  0.41666100  1
  P  P4  1  0.12633500  0.31978100  0.90108300  1
  P  P5  1  0.36481300  0.18411100  0.58333900  1
  P  P6  1  0.62633500  0.68021900  0.59891700  1
  P  P7  1  0.37366500  0.31978100  0.40108300  1
  S  S0  1  0.84750800  0.11614700  0.30134600  1
  S  S1  1  0.86203100  0.16304500  0.65760600  1
  S  S2  1  0.38675800  0.19548200  0.35723800  1
  S  S3  1  0.59640200  0.96090900  0.37699900  1
  S  S4  1  0.94068000  0.32142200  0.96761100  1
  S  S5  1  0.13834100  0.59479000  0.42941700  1
  S  S6  1  0.05932000  0.67857800  0.03238900  1
  S  S7  1  0.38646400  0.90664300  0.06512200  1
  S  S8  1  0.63353000  0.95662000  0.07107300  1
  S  S9  1  0.61353600  0.09335700  0.93487800  1
  S  S10  1  0.84634600  0.33556200  0.34880600  1
  S  S11  1  0.55932000  0.32142200  0.46761100  1
  S  S12  1  0.38550500  0.61732300  0.79526000  1
  S  S13  1  0.90399500  0.92854900  0.70572400  1
  S  S14  1  0.60924500  0.54327400  0.93426000  1
  S  S15  1  0.88646400  0.09335700  0.43487800  1
  S  S16  1  0.36501400  0.42802200  0.20057800  1
  S  S17  1  0.40359800  0.03909100  0.62300100  1
  S  S18  1  0.63834100  0.40521000  0.07058300  1
  S  S19  1  0.05117800  0.34366700  0.29774700  1
  S  S20  1  0.34750800  0.88385300  0.19865400  1
  S  S21  1  0.13353000  0.04338000  0.42892700  1
  S  S22  1  0.04143700  0.82276100  0.98497500  1
  S  S23  1  0.13796900  0.83695500  0.34239400  1
  S  S24  1  0.54143700  0.17723900  0.51502500  1
  S  S25  1  0.36165900  0.59479000  0.92941700  1
  S  S26  1  0.65365400  0.33556200  0.84880600  1
  S  S27  1  0.36203100  0.83695500  0.84239400  1
  S  S28  1  0.10924500  0.45672600  0.56574000  1
  S  S29  1  0.89075500  0.54327400  0.43426000  1
  S  S30  1  0.63498600  0.57197800  0.79942200  1
  S  S31  1  0.39075500  0.45672600  0.06574000  1
  S  S32  1  0.13498600  0.42802200  0.70057800  1
  S  S33  1  0.37539800  0.31669900  0.93104200  1
  S  S34  1  0.41174500  0.15723500  0.19879900  1
  S  S35  1  0.89548500  0.81590100  0.43626200  1
  S  S36  1  0.55117800  0.65633300  0.20225300  1
  S  S37  1  0.39536500  0.46367600  0.35885700  1
  S  S38  1  0.09640200  0.03909100  0.12300100  1
  S  S39  1  0.63796900  0.16304500  0.15760600  1
  S  S40  1  0.60451500  0.81590100  0.93626200  1
  S  S41  1  0.40399500  0.07145100  0.79427600  1
  S  S42  1  0.90359800  0.96090900  0.87699900  1
  S  S43  1  0.10451500  0.18409900  0.56373800  1
  S  S44  1  0.39548500  0.18409900  0.06373800  1
  S  S45  1  0.15365400  0.66443800  0.65119400  1
  S  S46  1  0.89449100  0.68984100  0.87503400  1
  S  S47  1  0.86165900  0.40521000  0.57058300  1
  S  S48  1  0.87539800  0.68330100  0.56895800  1
  S  S49  1  0.86647000  0.95662000  0.57107300  1
  S  S50  1  0.61449500  0.38267700  0.20474000  1
  S  S51  1  0.44882200  0.34366700  0.79774700  1
  S  S52  1  0.86501400  0.57197800  0.29942200  1
  S  S53  1  0.95856300  0.17723900  0.01502500  1
  S  S54  1  0.61324200  0.80451800  0.64276200  1
  S  S55  1  0.88550500  0.38267700  0.70474000  1
  S  S56  1  0.12460200  0.31669900  0.43104200  1
  S  S57  1  0.11324200  0.19548200  0.85723800  1
  S  S58  1  0.44068000  0.67857800  0.53238900  1
  S  S59  1  0.10463500  0.46367600  0.85885700  1
  S  S60  1  0.39449100  0.31015900  0.62496600  1
  S  S61  1  0.45856300  0.82276100  0.48497500  1
  S  S62  1  0.89536500  0.53632400  0.14114300  1
  S  S63  1  0.15249200  0.88385300  0.69865400  1
  S  S64  1  0.65249200  0.11614700  0.80134600  1
  S  S65  1  0.88675800  0.80451800  0.14276200  1
  S  S66  1  0.58825500  0.84276500  0.80120100  1
  S  S67  1  0.34634600  0.66443800  0.15119400  1
  S  S68  1  0.10550900  0.31015900  0.12496600  1
  S  S69  1  0.59600500  0.92854900  0.20572400  1
  S  S70  1  0.60463500  0.53632400  0.64114300  1
  S  S71  1  0.11353600  0.90664300  0.56512200  1
  S  S72  1  0.08825500  0.15723500  0.69879900  1
  S  S73  1  0.36647000  0.04338000  0.92892700  1
  S  S74  1  0.60550900  0.68984100  0.37503400  1
  S  S75  1  0.91174500  0.84276500  0.30120100  1
  S  S76  1  0.11449500  0.61732300  0.29526000  1
  S  S77  1  0.09600500  0.07145100  0.29427600  1
  S  S78  1  0.94882200  0.65633300  0.70225300  1
  S  S79  1  0.62460200  0.68330100  0.06895800  1
loop_
_geom_bond_atom_site_label_1
_geom_bond_atom_site_label_2
_geom_bond_distance
_geom_bond_site_symmetry_2
P0 S46 2.001416 1_555
P0 S42 2.018649 1_555
P0 S40 2.055883 1_555
P0 S22 2.176071 1_655
P1 S68 2.001416 1_555
P1 S38 2.018649 1_555
P1 S44 2.055883 1_555
P1 S53 2.176071 1_455
P2 S65 2.005598 1_555
P2 S62 2.017383 1_555
P2 S79 2.049351 1_555
P2 S6 2.179536 1_655
P3 S74 2.001416 1_555
P3 S3 2.018649 1_555
P3 S35 2.055883 1_555
P3 S61 2.176071 1_555
P4 S57 2.005598 1_555
P4 S59 2.017383 1_555
P4 S33 2.049351 1_555
P4 S4 2.179536 1_455
P5 S60 2.001416 1_555
P5 S17 2.018649 1_555
P5 S43 2.055883 1_555
P5 S24 2.176071 1_555
P6 S54 2.005598 1_555
P6 S70 2.017383 1_555
P6 S48 2.049351 1_555
P6 S58 2.179536 1_555
P7 S2 2.005598 1_555
P7 S37 2.017383 1_555
P7 S56 2.049351 1_555
P7 S11 2.179536 1_555
S0 S77 2.002475 1_655
S0 V10 2.375929 1_545
S0 V15 2.410739 1_655
S1 S72 2.011192 1_655
S1 V5 2.474295 1_655
S1 V11 2.482533 1_655
S2 V15 2.590149 1_555
S3 V10 2.616803 1_555
S4 S53 2.076318 1_556
S5 V14 2.372179 1_455
S5 V2 2.384507 1_555
S7 S8 2.009613 1_555
S7 V8 2.369548 1_555
S7 V1 2.377401 1_565
S8 V8 2.373850 1_555
S8 V1 2.375808 1_565
S9 V6 2.369548 1_555
S9 V9 2.377401 1_545
S10 S19 2.013360 1_655
S10 V15 2.476229 1_655
S10 V2 2.481843 1_655
S11 S24 2.076318 1_555
S12 S30 1.999035 1_555
S12 V7 2.373626 1_555
S12 V3 2.414317 1_555
S13 S63 2.002475 1_655
S13 V12 2.368734 1_555
S13 V11 2.403638 1_665
S14 S25 2.009186 1_555
S14 V3 2.363689 1_555
S14 V7 2.371848 1_555
S15 S21 2.009613 1_655
S15 V15 2.369548 1_655
S15 V10 2.377401 1_545
S16 S50 1.999035 1_555
S16 V4 2.362640 1_555
S16 V0 2.406882 1_555
S17 V11 2.616803 1_555
S18 S31 2.009186 1_555
S18 V4 2.372179 1_555
S18 V0 2.384507 1_555
S19 V15 2.466946 1_555
S19 V2 2.483494 1_555
S20 S69 2.002475 1_555
S20 V1 2.375929 1_565
S20 V8 2.410739 1_555
S21 V15 2.373850 1_555
S21 V10 2.375808 1_445
S22 S6 2.076318 1_556
S23 S75 2.011192 1_455
S23 V14 2.474295 1_455
S23 V10 2.482533 1_455
S25 V3 2.372179 1_555
S25 V7 2.384507 1_555
S26 S51 2.013360 1_555
S26 V6 2.476229 1_555
S26 V7 2.481843 1_555
S27 S66 2.011192 1_555
S27 V3 2.474295 1_555
S27 V9 2.482533 1_555
S28 S47 2.009186 1_455
S28 V5 2.363689 1_555
S28 V13 2.371848 1_455
S29 S5 2.009186 1_655
S29 V14 2.363689 1_555
S29 V2 2.371848 1_655
S30 V3 2.362640 1_555
S30 V7 2.406882 1_555
S31 V4 2.363689 1_555
S31 V0 2.371848 1_555
S32 S55 1.999035 1_455
S32 V5 2.362640 1_555
S32 V13 2.406882 1_455
S33 V7 2.549119 1_555
S33 V6 2.551101 1_555
S34 S39 2.011192 1_555
S34 V4 2.458899 1_555
S34 V1 2.477743 1_555
S35 V10 2.547526 1_555
S35 V14 2.556214 1_555
S36 S67 2.013360 1_555
S36 V8 2.466946 1_555
S36 V0 2.483494 1_555
S37 V2 2.605150 1_555
S38 V1 2.616803 1_555
S39 V4 2.474295 1_555
S39 V1 2.482533 1_555
S40 V9 2.547526 1_555
S40 V3 2.556214 1_555
S41 S64 2.002475 1_555
S41 V6 2.368734 1_555
S41 V9 2.403638 1_545
S42 V9 2.616803 1_555
S43 V11 2.547526 1_555
S43 V5 2.556214 1_555
S44 V1 2.547526 1_555
S44 V4 2.556214 1_555
S45 S78 2.013360 1_455
S45 V12 2.476229 1_455
S45 V13 2.481843 1_455
S46 V3 2.600905 1_555
S47 V5 2.372179 1_655
S47 V13 2.384507 1_555
S48 V13 2.549119 1_555
S48 V12 2.551101 1_555
S49 S71 2.009613 1_655
S49 V12 2.373850 1_555
S49 V11 2.375808 1_665
S50 V0 2.373626 1_555
S50 V4 2.414317 1_555
S51 V6 2.466946 1_555
S51 V7 2.483494 1_555
S52 S76 1.999035 1_655
S52 V14 2.362640 1_555
S52 V2 2.406882 1_655
S54 V12 2.590149 1_555
S55 V13 2.373626 1_555
S55 V5 2.414317 1_655
S56 V2 2.549119 1_555
S56 V15 2.551101 1_555
S57 V6 2.590149 1_555
S58 S61 2.076318 1_555
S59 V7 2.605150 1_555
S60 V5 2.600905 1_555
S62 V0 2.605150 1_555
S63 V11 2.375929 1_565
S63 V12 2.410739 1_455
S64 V9 2.375929 1_545
S64 V6 2.410739 1_555
S65 V8 2.590149 1_555
S66 V3 2.458899 1_555
S66 V9 2.477743 1_555
S67 V8 2.476229 1_555
S67 V0 2.481843 1_555
S68 V4 2.600905 1_555
S69 V8 2.368734 1_555
S69 V1 2.403638 1_565
S70 V13 2.605150 1_555
S71 V12 2.369548 1_455
S71 V11 2.377401 1_565
S72 V5 2.458899 1_555
S72 V11 2.477743 1_555
S73 S9 2.009613 1_555
S73 V6 2.373850 1_555
S73 V9 2.375808 1_545
S74 V14 2.600905 1_555
S75 V14 2.458899 1_555
S75 V10 2.477743 1_555
S76 V2 2.373626 1_555
S76 V14 2.414317 1_455
S77 V15 2.368734 1_555
S77 V10 2.403638 1_445
S78 V12 2.466946 1_555
S78 V13 2.483494 1_555
S79 V0 2.549119 1_555
S79 V8 2.551101 1_555
