# generated using pymatgen
data_Cs3(FeS2)2
_symmetry_space_group_name_H-M   'P 1'
_cell_length_a   7.63094678
_cell_length_b   11.25286824
_cell_length_c   13.04809242
_cell_angle_alpha   90.00000000
_cell_angle_beta   90.00000000
_cell_angle_gamma   90.00000000
_symmetry_Int_Tables_number   1
_chemical_formula_structural   Cs3(FeS2)2
_chemical_formula_sum   'Cs12 Fe8 S16'
_cell_volume   1120.44020057
_cell_formula_units_Z   4
loop_
 _symmetry_equiv_pos_site_id
 _symmetry_equiv_pos_as_xyz
  1  'x, y, z'
loop_
 _atom_site_type_symbol
 _atom_site_label
 _atom_site_symmetry_multiplicity
 _atom_site_fract_x
 _atom_site_fract_y
 _atom_site_fract_z
 _atom_site_occupancy
  Cs  Cs0  1  0.98843011  0.75000000  0.05314077  1
  Cs  Cs1  1  0.10827027  0.02913626  0.21235131  1
  Cs  Cs2  1  0.51156989  0.25000000  0.55314077  1
  Cs  Cs3  1  0.01156989  0.25000000  0.94685923  1
  Cs  Cs4  1  0.60827027  0.47086374  0.28764869  1
  Cs  Cs5  1  0.89172973  0.52913626  0.78764869  1
  Cs  Cs6  1  0.89172973  0.97086374  0.78764869  1
  Cs  Cs7  1  0.39172973  0.52913626  0.71235131  1
  Cs  Cs8  1  0.39172973  0.97086374  0.71235131  1
  Cs  Cs9  1  0.10827027  0.47086374  0.21235131  1
  Cs  Cs10  1  0.48843011  0.75000000  0.44685923  1
  Cs  Cs11  1  0.60827027  0.02913626  0.28764869  1
  Fe  Fe0  1  0.99191106  0.36728231  0.50675582  1
  Fe  Fe1  1  0.50808894  0.86728231  0.00675582  1
  Fe  Fe2  1  0.49191106  0.13271769  0.99324418  1
  Fe  Fe3  1  0.00808894  0.86728231  0.49324418  1
  Fe  Fe4  1  0.49191106  0.36728231  0.99324418  1
  Fe  Fe5  1  0.00808894  0.63271769  0.49324418  1
  Fe  Fe6  1  0.99191106  0.13271769  0.50675582  1
  Fe  Fe7  1  0.50808894  0.63271769  0.00675582  1
  S  S0  1  0.04556065  0.25000000  0.64868074  1
  S  S1  1  0.59993046  0.75000000  0.87176274  1
  S  S2  1  0.72733324  0.48826506  0.03647570  1
  S  S3  1  0.45443935  0.75000000  0.14868074  1
  S  S4  1  0.72733324  0.01173494  0.03647570  1
  S  S5  1  0.90006954  0.25000000  0.37176274  1
  S  S6  1  0.22733324  0.01173494  0.46352430  1
  S  S7  1  0.54556065  0.25000000  0.85131926  1
  S  S8  1  0.22733324  0.48826506  0.46352430  1
  S  S9  1  0.77266676  0.51173494  0.53647570  1
  S  S10  1  0.95443935  0.75000000  0.35131926  1
  S  S11  1  0.40006954  0.25000000  0.12823726  1
  S  S12  1  0.27266676  0.98826506  0.96352430  1
  S  S13  1  0.77266676  0.98826506  0.53647570  1
  S  S14  1  0.09993046  0.75000000  0.62823726  1
  S  S15  1  0.27266676  0.51173494  0.96352430  1
loop_
_geom_bond_atom_site_label_1
_geom_bond_atom_site_label_2
_geom_bond_distance
_geom_bond_site_symmetry_2
Cs0 S4 3.562529 1_565
Cs0 S2 3.562529 1_555
Cs0 S15 3.641498 1_654
Cs0 S12 3.641498 1_654
Cs0 S3 3.768267 1_655
Cs0 S1 3.793408 1_554
Cs0 S10 3.899297 1_555
Cs1 S6 3.406569 1_555
Cs1 S12 3.510908 1_544
Cs1 S11 3.512798 1_555
Cs1 S5 3.609379 1_455
Cs1 S4 3.708742 1_455
Cs1 S10 3.812129 1_445
Cs2 S9 3.562529 1_555
Cs2 S13 3.562529 1_545
Cs2 S8 3.641498 1_555
Cs2 S6 3.641498 1_555
Cs2 S0 3.768267 1_555
Cs2 S5 3.793408 1_555
Cs2 S7 3.899297 1_555
Cs3 S15 3.562529 1_555
Cs3 S12 3.562529 1_545
Cs3 S4 3.641498 1_456
Cs3 S2 3.641498 1_456
Cs3 S7 3.768267 1_455
Cs3 S11 3.793408 1_556
Cs3 S0 3.899297 1_555
Cs4 S2 3.406569 1_555
Cs4 S9 3.510908 1_555
Cs4 S5 3.512798 1_555
Cs4 S11 3.609379 1_555
Cs4 S8 3.708742 1_555
Cs4 S3 3.812129 1_555
Cs5 S9 3.406569 1_555
Cs5 S2 3.510908 1_556
Cs5 S1 3.512798 1_555
Cs5 S14 3.609379 1_655
Cs5 S15 3.708742 1_655
Cs5 S0 3.812129 1_655
Cs6 S13 3.406569 1_555
Cs6 S4 3.510908 1_566
Cs6 S1 3.512798 1_555
Cs6 S14 3.609379 1_655
Cs6 S12 3.708742 1_655
Cs6 S0 3.812129 1_665
Cs7 S15 3.406569 1_555
Cs7 S8 3.510908 1_555
Cs7 S14 3.512798 1_555
Cs7 S1 3.609379 1_555
Cs7 S9 3.708742 1_555
Cs7 S7 3.812129 1_555
Cs8 S12 3.406569 1_555
Cs8 S6 3.510908 1_565
Cs8 S14 3.512798 1_555
Cs8 S1 3.609379 1_555
Cs8 S13 3.708742 1_555
Cs8 S7 3.812129 1_565
Cs9 S8 3.406569 1_555
Cs9 S15 3.510908 1_554
Cs9 S11 3.512798 1_555
Cs9 S5 3.609379 1_455
Cs9 S2 3.708742 1_455
Cs9 S10 3.812129 1_455
Cs10 S6 3.562529 1_565
Cs10 S8 3.562529 1_555
Cs10 S9 3.641498 1_555
Cs10 S13 3.641498 1_555
Cs10 S10 3.768267 1_555
Cs10 S14 3.793408 1_555
Cs10 S3 3.899297 1_555
Cs11 S4 3.406569 1_555
Cs11 S13 3.510908 1_545
Cs11 S5 3.512798 1_555
Cs11 S11 3.609379 1_555
Cs11 S6 3.708742 1_555
Cs11 S3 3.812129 1_545
Fe0 S5 2.309867 1_555
Fe0 S0 2.310568 1_655
Fe0 S8 2.323576 1_655
Fe0 S9 2.364681 1_555
Fe1 S1 2.309867 1_554
Fe1 S3 2.310568 1_555
Fe1 S12 2.323576 1_554
Fe1 S4 2.364681 1_565
Fe2 S11 2.309867 1_556
Fe2 S7 2.310568 1_555
Fe2 S4 2.323576 1_556
Fe2 S12 2.364681 1_545
Fe3 S14 2.309867 1_555
Fe3 S10 2.310568 1_455
Fe3 S13 2.323576 1_455
Fe3 S6 2.364681 1_565
Fe4 S11 2.309867 1_556
Fe4 S7 2.310568 1_555
Fe4 S2 2.323576 1_556
Fe4 S15 2.364681 1_555
Fe5 S14 2.309867 1_555
Fe5 S10 2.310568 1_455
Fe5 S9 2.323576 1_455
Fe5 S8 2.364681 1_555
Fe6 S5 2.309867 1_555
Fe6 S0 2.310568 1_655
Fe6 S6 2.323576 1_655
Fe6 S13 2.364681 1_545
Fe7 S1 2.309867 1_554
Fe7 S3 2.310568 1_555
Fe7 S15 2.323576 1_554
Fe7 S2 2.364681 1_555
