# generated using pymatgen
data_Ag7NO6
_symmetry_space_group_name_H-M   'P 1'
_cell_length_a   6.66574713
_cell_length_b   6.66574713
_cell_length_c   6.66574713
_cell_angle_alpha   60.00000000
_cell_angle_beta   60.00000000
_cell_angle_gamma   60.00000000
_symmetry_Int_Tables_number   1
_chemical_formula_structural   Ag7NO6
_chemical_formula_sum   'Ag7 N1 O6'
_cell_volume   209.42643792
_cell_formula_units_Z   1
loop_
 _symmetry_equiv_pos_site_id
 _symmetry_equiv_pos_as_xyz
  1  'x, y, z'
loop_
 _atom_site_type_symbol
 _atom_site_label
 _atom_site_symmetry_multiplicity
 _atom_site_fract_x
 _atom_site_fract_y
 _atom_site_fract_z
 _atom_site_occupancy
  Ag  Ag0  1  0.50000000  0.50000000  0.50000000  1
  Ag  Ag1  1  0.00424600  0.49575400  0.49575400  1
  Ag  Ag2  1  0.49575400  0.00424600  0.49575400  1
  Ag  Ag3  1  0.00424600  0.00424600  0.49575400  1
  Ag  Ag4  1  0.49575400  0.00424600  0.00424600  1
  Ag  Ag5  1  0.00424600  0.49575400  0.00424600  1
  Ag  Ag6  1  0.49575400  0.49575400  0.00424600  1
  N  N0  1  0.00000000  0.00000000  0.00000000  1
  O  O0  1  0.75000000  0.75000000  0.75000000  1
  O  O1  1  0.25000000  0.25000000  0.25000000  1
  O  O2  1  0.91529300  0.91529300  0.25412000  1
  O  O3  1  0.91529300  0.91529300  0.91529300  1
  O  O4  1  0.25412000  0.91529300  0.91529300  1
  O  O5  1  0.91529300  0.25412000  0.91529300  1
loop_
_geom_bond_atom_site_label_1
_geom_bond_atom_site_label_2
_geom_bond_distance
_geom_bond_site_symmetry_2
Ag0 Ag6 3.333114 1_556
Ag0 Ag5 3.333114 1_556
Ag0 Ag1 3.333114 1_555
Ag0 Ag2 3.333114 1_565
Ag0 Ag1 3.333114 1_655
Ag0 Ag5 3.333114 1_655
Ag0 Ag4 3.333114 1_556
Ag0 Ag3 3.333114 1_565
Ag0 Ag3 3.333114 1_655
Ag0 Ag4 3.333114 1_565
Ag0 Ag2 3.333114 1_555
Ag0 Ag6 3.333114 1_555
Ag1 O1 2.316671 1_555
Ag1 O2 2.357758 1_455
Ag1 O5 2.357758 1_455
Ag1 O0 2.396724 1_455
Ag2 O1 2.316671 1_555
Ag2 O4 2.357758 1_545
Ag2 O2 2.357758 1_545
Ag2 O0 2.396724 1_545
Ag3 O1 2.316671 1_555
Ag3 O3 2.357757 1_445
Ag3 O2 2.357763 1_445
Ag3 O0 2.396724 1_445
Ag4 O1 2.316671 1_555
Ag4 O3 2.357757 1_544
Ag4 O4 2.357763 1_544
Ag4 O0 2.396724 1_544
Ag5 O1 2.316671 1_555
Ag5 O3 2.357757 1_454
Ag5 O5 2.357763 1_454
Ag5 O0 2.396724 1_454
Ag6 O1 2.316671 1_555
Ag6 O4 2.357758 1_554
Ag6 O5 2.357758 1_554
Ag6 O0 2.396724 1_554
N0 O2 1.383063 1_445
N0 O4 1.383063 1_544
N0 O5 1.383063 1_454
N0 O3 1.383069 1_444
