# generated using pymatgen
data_Ba5Bi5O13
_symmetry_space_group_name_H-M   'P 1'
_cell_length_a   6.37110114
_cell_length_b   6.37110114
_cell_length_c   25.61536618
_cell_angle_alpha   80.66649677
_cell_angle_beta   80.66649677
_cell_angle_gamma   58.33466867
_symmetry_Int_Tables_number   1
_chemical_formula_structural   Ba5Bi5O13
_chemical_formula_sum   'Ba10 Bi10 O26'
_cell_volume   869.56469024
_cell_formula_units_Z   2
loop_
 _symmetry_equiv_pos_site_id
 _symmetry_equiv_pos_as_xyz
  1  'x, y, z'
loop_
 _atom_site_type_symbol
 _atom_site_label
 _atom_site_symmetry_multiplicity
 _atom_site_fract_x
 _atom_site_fract_y
 _atom_site_fract_z
 _atom_site_occupancy
  Ba  Ba0  1  0.29689500  0.83878100  0.85290200  1
  Ba  Ba1  1  0.75792100  0.15601300  0.65191300  1
  Ba  Ba2  1  0.22669700  0.47144900  0.45311100  1
  Ba  Ba3  1  0.50408900  0.97266000  0.25144700  1
  Ba  Ba4  1  0.83230800  0.44806900  0.04570700  1
  Ba  Ba5  1  0.02734000  0.49591100  0.74855300  1
  Ba  Ba6  1  0.52855100  0.77330300  0.54688900  1
  Ba  Ba7  1  0.84398700  0.24207900  0.34808700  1
  Ba  Ba8  1  0.16121900  0.70310500  0.14709800  1
  Ba  Ba9  1  0.55193100  0.16769200  0.95429300  1
  Bi  Bi0  1  0.93276000  0.49626800  0.89668100  1
  Bi  Bi1  1  0.40576400  0.79638200  0.70036500  1
  Bi  Bi2  1  0.87907900  0.12092100  0.50000000  1
  Bi  Bi3  1  0.20361800  0.59423600  0.29963500  1
  Bi  Bi4  1  0.50373200  0.06724000  0.10331900  1
  Bi  Bi5  1  0.67911000  0.12749200  0.80406900  1
  Bi  Bi6  1  0.14748100  0.43713900  0.60262500  1
  Bi  Bi7  1  0.56286100  0.85251900  0.39737400  1
  Bi  Bi8  1  0.87250800  0.32089000  0.19593100  1
  Bi  Bi9  1  0.20039400  0.79960600  0.00000000  1
  O  O0  1  0.56765100  0.91816200  0.75216400  1
  O  O1  1  0.01988200  0.22589300  0.56117000  1
  O  O2  1  0.38079100  0.72964400  0.35134800  1
  O  O3  1  0.69904400  0.19326300  0.15054500  1
  O  O4  1  0.06653200  0.68780000  0.93716800  1
  O  O5  1  0.07283000  0.88937000  0.75987700  1
  O  O6  1  0.52476000  0.25476000  0.55206900  1
  O  O7  1  0.74524000  0.47524000  0.44793100  1
  O  O8  1  0.11063000  0.92717000  0.24012300  1
  O  O9  1  0.56420500  0.66307800  0.94921500  1
  O  O10  1  0.33692200  0.43579500  0.05078500  1
  O  O11  1  0.80673700  0.30095600  0.84945500  1
  O  O12  1  0.27035600  0.61920900  0.64865200  1
  O  O13  1  0.77410700  0.98011800  0.43883000  1
  O  O14  1  0.08183800  0.43234900  0.24783600  1
  O  O15  1  0.31220000  0.93346800  0.06283200  1
  O  O16  1  0.31784100  0.25946300  0.85425600  1
  O  O17  1  0.56575200  0.42537400  0.74183500  1
  O  O18  1  0.78432600  0.59796800  0.65241800  1
  O  O19  1  0.00592700  0.72364400  0.54048900  1
  O  O20  1  0.27635600  0.99407300  0.45951100  1
  O  O21  1  0.40203200  0.21567400  0.34758200  1
  O  O22  1  0.57462600  0.43424800  0.25816500  1
  O  O23  1  0.74053700  0.68215900  0.14574400  1
  O  O24  1  0.80067500  0.95565700  0.04305700  1
  O  O25  1  0.04434300  0.19932500  0.95694300  1
loop_
_geom_bond_atom_site_label_1
_geom_bond_atom_site_label_2
_geom_bond_distance
_geom_bond_site_symmetry_2
Ba0 O4 2.742201 1_555
Ba0 O16 2.758569 1_565
Ba0 O5 2.861992 1_555
Ba0 O9 2.950510 1_555
Ba0 O11 2.963297 1_465
Ba0 O0 2.989808 1_555
Ba0 O11 3.258743 1_555
Ba1 O1 2.751864 1_655
Ba1 O17 2.812670 1_555
Ba1 O18 2.909762 1_555
Ba1 O12 2.957146 1_555
Ba1 O6 2.978709 1_555
Ba1 O0 3.164967 1_545
Ba1 O12 3.262455 1_645
Ba1 O5 3.355120 1_645
Ba1 O18 3.467979 1_545
Ba2 O19 2.709658 1_555
Ba2 O20 2.867398 1_545
Ba2 O13 3.016195 1_455
Ba2 O7 3.079025 1_455
Ba2 O6 3.100206 1_555
Ba2 O21 3.122273 1_555
Ba2 O2 3.152667 1_555
Ba2 O13 3.254454 1_545
Ba2 O7 3.297439 1_555
Ba2 O1 3.379652 1_555
Ba3 O8 2.734578 1_555
Ba3 O14 2.746616 1_565
Ba3 O21 2.923071 1_565
Ba3 O2 2.983708 1_555
Ba3 O3 3.132374 1_565
Ba3 O22 3.195854 1_555
Ba3 O23 3.225092 1_555
Ba3 O22 3.233700 1_565
Ba3 O14 3.478055 1_655
Ba4 O25 2.725987 1_654
Ba4 O9 2.952604 1_554
Ba4 O23 2.995097 1_555
Ba4 O15 3.119868 1_645
Ba4 O24 3.122860 1_555
Ba4 O3 3.140298 1_555
Ba4 O15 3.153720 1_555
Ba4 O10 3.179152 1_555
Ba4 O10 3.198016 1_655
Ba4 O24 3.259544 1_545
Ba4 O4 3.458234 1_654
Ba5 O5 2.734578 1_555
Ba5 O0 2.746616 1_455
Ba5 O18 2.923071 1_455
Ba5 O12 2.983708 1_555
Ba5 O11 3.132374 1_455
Ba5 O17 3.195854 1_555
Ba5 O16 3.225092 1_555
Ba5 O17 3.233700 1_455
Ba5 O0 3.478055 1_545
Ba6 O20 2.709658 1_555
Ba6 O19 2.867398 1_655
Ba6 O1 3.016195 1_565
Ba6 O6 3.079025 1_565
Ba6 O7 3.100206 1_555
Ba6 O18 3.122273 1_555
Ba6 O12 3.152667 1_555
Ba6 O1 3.254454 1_655
Ba6 O6 3.297439 1_555
Ba6 O13 3.379652 1_555
Ba7 O13 2.751864 1_545
Ba7 O22 2.812670 1_555
Ba7 O21 2.909762 1_555
Ba7 O2 2.957146 1_555
Ba7 O7 2.978709 1_555
Ba7 O14 3.164967 1_655
Ba7 O2 3.262455 1_645
Ba7 O8 3.355120 1_645
Ba7 O21 3.467979 1_655
Ba8 O15 2.742201 1_555
Ba8 O23 2.758569 1_455
Ba8 O8 2.861992 1_555
Ba8 O10 2.950510 1_555
Ba8 O3 2.963297 1_465
Ba8 O14 2.989808 1_555
Ba8 O3 3.258743 1_555
Ba9 O24 2.725987 1_546
Ba9 O10 2.952604 1_556
Ba9 O16 2.995097 1_555
Ba9 O4 3.119868 1_645
Ba9 O25 3.122860 1_555
Ba9 O11 3.140298 1_555
Ba9 O4 3.153720 1_555
Ba9 O9 3.179152 1_555
Ba9 O9 3.198016 1_545
Ba9 O25 3.259544 1_655
Ba9 O15 3.458234 1_546
Bi0 O25 2.112805 1_655
Bi0 O4 2.253905 1_655
Bi0 O16 2.292839 1_655
Bi0 O9 2.296264 1_555
Bi0 O11 2.347072 1_555
Bi1 O17 2.182146 1_555
Bi1 O0 2.245948 1_555
Bi1 O5 2.258069 1_555
Bi1 O18 2.294600 1_555
Bi1 O12 2.377221 1_555
Bi2 O7 2.230073 1_555
Bi2 O6 2.230073 1_555
Bi2 O1 2.265588 1_655
Bi2 O13 2.265588 1_545
Bi2 O20 2.325505 1_645
Bi2 O19 2.325505 1_645
Bi3 O22 2.182146 1_555
Bi3 O14 2.245948 1_555
Bi3 O8 2.258069 1_555
Bi3 O21 2.294600 1_555
Bi3 O2 2.377221 1_555
Bi4 O24 2.112805 1_545
Bi4 O15 2.253905 1_545
Bi4 O23 2.292839 1_545
Bi4 O10 2.296264 1_555
Bi4 O3 2.347072 1_555
Bi5 O17 2.148891 1_555
Bi5 O11 2.213819 1_555
Bi5 O16 2.239716 1_555
Bi5 O5 2.348562 1_645
Bi5 O0 2.434418 1_545
Bi6 O19 2.115046 1_555
Bi6 O18 2.237758 1_455
Bi6 O12 2.246077 1_555
Bi6 O6 2.313204 1_555
Bi6 O1 2.343533 1_555
Bi7 O20 2.115063 1_555
Bi7 O21 2.237746 1_565
Bi7 O2 2.246060 1_555
Bi7 O7 2.313216 1_555
Bi7 O13 2.343549 1_555
Bi8 O22 2.148891 1_555
Bi8 O3 2.213819 1_555
Bi8 O23 2.239716 1_555
Bi8 O8 2.348562 1_645
Bi8 O14 2.434418 1_655
Bi9 O9 2.256908 1_554
Bi9 O10 2.256908 1_555
Bi9 O15 2.297839 1_555
Bi9 O4 2.297839 1_554
Bi9 O24 2.340225 1_455
Bi9 O25 2.340225 1_564
