# generated using pymatgen
data_SrIn6Cu7
_symmetry_space_group_name_H-M   'P 1'
_cell_length_a   8.93093455
_cell_length_b   8.93093455
_cell_length_c   12.60118367
_cell_angle_alpha   90.00000000
_cell_angle_beta   90.00000000
_cell_angle_gamma   90.20258909
_symmetry_Int_Tables_number   1
_chemical_formula_structural   SrIn6Cu7
_chemical_formula_sum   'Sr4 In24 Cu28'
_cell_volume   1005.08418576
_cell_formula_units_Z   4
loop_
 _symmetry_equiv_pos_site_id
 _symmetry_equiv_pos_as_xyz
  1  'x, y, z'
loop_
 _atom_site_type_symbol
 _atom_site_label
 _atom_site_symmetry_multiplicity
 _atom_site_fract_x
 _atom_site_fract_y
 _atom_site_fract_z
 _atom_site_occupancy
  Sr  Sr0  1  0.75248025  0.24751975  0.50000000  1
  Sr  Sr1  1  0.24751975  0.75248025  0.50000000  1
  Sr  Sr2  1  0.24751975  0.75248025  0.00000000  1
  Sr  Sr3  1  0.75248025  0.24751975  0.00000000  1
  In  In0  1  0.38668438  0.11178442  0.43615517  1
  In  In1  1  0.11178442  0.38668438  0.43615517  1
  In  In2  1  0.11178442  0.38668438  0.06384483  1
  In  In3  1  0.61309775  0.61309775  0.43156950  1
  In  In4  1  0.78211478  0.05179074  0.25000000  1
  In  In5  1  0.88821558  0.61331562  0.93615517  1
  In  In6  1  0.59471167  0.31522070  0.75000000  1
  In  In7  1  0.61331562  0.88821558  0.56384483  1
  In  In8  1  0.68478030  0.40528833  0.25000000  1
  In  In9  1  0.61309775  0.61309775  0.06843050  1
  In  In10  1  0.93830209  0.93830209  0.88476335  1
  In  In11  1  0.06169791  0.06169791  0.38476335  1
  In  In12  1  0.38668438  0.11178442  0.06384483  1
  In  In13  1  0.61331562  0.88821558  0.93615517  1
  In  In14  1  0.94820926  0.21788522  0.75000000  1
  In  In15  1  0.38690225  0.38690225  0.93156950  1
  In  In16  1  0.05179074  0.78211478  0.25000000  1
  In  In17  1  0.21788522  0.94820926  0.75000000  1
  In  In18  1  0.38690225  0.38690225  0.56843050  1
  In  In19  1  0.31521970  0.59471167  0.75000000  1
  In  In20  1  0.93830209  0.93830209  0.61523665  1
  In  In21  1  0.06169791  0.06169791  0.11523665  1
  In  In22  1  0.88821558  0.61331562  0.56384483  1
  In  In23  1  0.40528833  0.68477930  0.25000000  1
  Cu  Cu0  1  0.58975928  0.58975928  0.85355341  1
  Cu  Cu1  1  0.03752178  0.69537770  0.75000000  1
  Cu  Cu2  1  0.90562867  0.56275945  0.35365226  1
  Cu  Cu3  1  0.76201556  0.76201556  0.75000000  1
  Cu  Cu4  1  0.90562867  0.56275945  0.14634774  1
  Cu  Cu5  1  0.74057024  0.74057024  0.25000000  1
  Cu  Cu6  1  0.84958690  0.84958690  0.08147379  1
  Cu  Cu7  1  0.41024072  0.41024072  0.35355341  1
  Cu  Cu8  1  0.84958690  0.84958690  0.41852621  1
  Cu  Cu9  1  0.16848887  0.51055278  0.25000000  1
  Cu  Cu10  1  0.83151113  0.48944722  0.75000000  1
  Cu  Cu11  1  0.43724055  0.09437133  0.64634774  1
  Cu  Cu12  1  0.56275945  0.90562867  0.35365226  1
  Cu  Cu13  1  0.69537770  0.03752178  0.75000000  1
  Cu  Cu14  1  0.30462230  0.96247822  0.25000000  1
  Cu  Cu15  1  0.56275945  0.90562867  0.14634774  1
  Cu  Cu16  1  0.09437133  0.43724055  0.64634774  1
  Cu  Cu17  1  0.23798444  0.23798444  0.25000000  1
  Cu  Cu18  1  0.43724055  0.09437133  0.85365226  1
  Cu  Cu19  1  0.48944722  0.83151113  0.75000000  1
  Cu  Cu20  1  0.09437133  0.43724055  0.85365226  1
  Cu  Cu21  1  0.96247822  0.30462230  0.25000000  1
  Cu  Cu22  1  0.41024072  0.41024072  0.14644659  1
  Cu  Cu23  1  0.51055278  0.16848887  0.25000000  1
  Cu  Cu24  1  0.58975928  0.58975928  0.64644659  1
  Cu  Cu25  1  0.15041310  0.15041310  0.91852621  1
  Cu  Cu26  1  0.15041310  0.15041310  0.58147379  1
  Cu  Cu27  1  0.25942976  0.25942976  0.75000000  1
loop_
_geom_bond_atom_site_label_1
_geom_bond_atom_site_label_2
_geom_bond_distance
_geom_bond_site_symmetry_2
In0 In18 2.969077 1_555
In0 In11 3.005730 1_555
In0 Sr1 3.530008 1_545
In0 Sr0 3.572312 1_555
In1 In18 2.969077 1_555
In1 In11 3.005730 1_555
In1 Sr0 3.530008 1_455
In1 Sr1 3.572312 1_555
In2 In21 3.005730 1_555
In2 Sr3 3.530008 1_455
In2 Sr2 3.572312 1_555
In3 In7 2.969077 1_555
In3 In8 3.016228 1_555
In3 Sr1 3.603026 1_555
In3 Sr0 3.603026 1_555
In4 Sr3 3.612940 1_555
In4 Sr0 3.612940 1_555
In5 In9 2.969077 1_556
In5 Sr2 3.530008 1_656
In5 Sr3 3.572312 1_556
In6 Sr3 3.504470 1_556
In6 Sr0 3.504470 1_555
In7 Sr0 3.530008 1_565
In7 Sr1 3.572312 1_555
In8 In9 3.016228 1_555
In8 Sr3 3.504468 1_555
In8 Sr0 3.504468 1_555
In9 Sr2 3.603026 1_555
In9 Sr3 3.603026 1_555
In10 In13 3.005730 1_555
In10 In5 3.005730 1_555
In10 In14 3.020725 1_565
In10 In17 3.020725 1_655
In10 Sr2 3.538595 1_656
In10 Sr3 3.538595 1_566
In11 In16 3.020725 1_545
In11 In4 3.020725 1_455
In11 Sr0 3.538595 1_455
In11 Sr1 3.538595 1_545
In12 In15 2.969077 1_554
In12 In21 3.005730 1_555
In12 Sr2 3.530008 1_545
In12 Sr3 3.572312 1_555
In13 In9 2.969077 1_556
In13 Sr3 3.530008 1_566
In13 Sr2 3.572312 1_556
In14 In20 3.020725 1_545
In14 Sr0 3.612940 1_555
In14 Sr3 3.612940 1_556
In15 In2 2.969077 1_556
In15 In6 3.016227 1_555
In15 In19 3.016228 1_555
In15 In9 3.332766 1_556
In15 Sr2 3.603026 1_556
In15 Sr3 3.603026 1_556
In16 In21 3.020725 1_565
In16 Sr1 3.612940 1_555
In16 Sr2 3.612940 1_555
In17 In20 3.020725 1_455
In17 Sr1 3.612940 1_555
In17 Sr2 3.612940 1_556
In18 In6 3.016227 1_555
In18 In19 3.016228 1_555
In18 In3 3.332766 1_555
In18 Sr0 3.603026 1_555
In18 Sr1 3.603026 1_555
In19 Sr1 3.504468 1_555
In19 Sr2 3.504468 1_556
In20 In22 3.005730 1_555
In20 In7 3.005730 1_555
In20 Sr0 3.538595 1_565
In20 Sr1 3.538595 1_655
In21 In4 3.020725 1_455
In21 Sr2 3.538595 1_545
In21 Sr3 3.538595 1_455
In22 In3 2.969077 1_555
In22 Sr1 3.530008 1_655
In22 Sr0 3.572312 1_555
In23 In9 3.016227 1_555
In23 In3 3.016227 1_555
In23 Sr2 3.504470 1_555
In23 Sr1 3.504470 1_555
Cu0 Cu3 2.533658 1_555
Cu0 Cu24 2.609791 1_555
Cu0 Cu19 2.679667 1_555
Cu0 Cu10 2.679667 1_555
Cu0 In9 2.723647 1_556
Cu0 In15 2.740036 1_555
Cu0 In6 2.777989 1_555
Cu0 In19 2.777997 1_555
Cu0 In13 2.868550 1_555
Cu0 In5 2.868550 1_555
Cu0 Sr3 3.858906 1_556
Cu0 Sr2 3.858906 1_556
Cu1 Cu3 2.533524 1_455
Cu1 Cu10 2.596856 1_455
Cu1 In19 2.641013 1_555
Cu1 Cu16 2.699437 1_555
Cu1 Cu20 2.699437 1_555
Cu1 In17 2.769055 1_555
Cu1 In5 2.794808 1_455
Cu1 In22 2.794808 1_455
Cu1 In10 2.896469 1_455
Cu1 In20 2.896469 1_455
Cu1 Sr1 3.700689 1_555
Cu1 Sr2 3.700689 1_556
Cu2 Cu5 2.533259 1_555
Cu2 Cu4 2.612282 1_555
Cu2 In1 2.638939 1_655
Cu2 In16 2.688822 1_655
Cu2 In22 2.691473 1_555
Cu2 Cu21 2.699437 1_555
Cu2 Cu9 2.728059 1_655
Cu2 Cu8 2.736758 1_555
Cu2 In8 2.748553 1_555
Cu2 In3 2.828426 1_555
Cu2 Sr0 3.629164 1_555
Cu2 Sr1 3.944433 1_655
Cu3 In10 2.797100 1_555
Cu3 In20 2.797100 1_555
Cu3 In5 2.923564 1_555
Cu3 In22 2.923564 1_555
Cu3 In13 2.923564 1_555
Cu3 In7 2.923564 1_555
Cu4 Cu5 2.533259 1_555
Cu4 In2 2.638939 1_655
Cu4 In16 2.688822 1_655
Cu4 In5 2.691473 1_554
Cu4 Cu9 2.728059 1_655
Cu4 Cu6 2.736758 1_555
Cu4 In8 2.748553 1_555
Cu4 In9 2.828426 1_555
Cu4 Sr3 3.629164 1_555
Cu4 Sr2 3.944433 1_655
Cu5 Cu8 2.529619 1_555
Cu5 Cu6 2.529619 1_555
Cu5 In9 2.796045 1_555
Cu5 In3 2.796045 1_555
Cu5 In16 2.802844 1_655
Cu5 In4 2.802844 1_565
Cu5 In8 3.033814 1_555
Cu5 In23 3.033815 1_555
Cu6 In21 2.707906 1_665
Cu6 In10 2.719456 1_554
Cu6 In13 2.816031 1_554
Cu6 In5 2.816031 1_554
Cu6 In16 2.853380 1_655
Cu6 In4 2.853380 1_565
Cu6 In9 2.986158 1_555
Cu6 Sr2 3.802402 1_655
Cu6 Sr3 3.802402 1_565
Cu7 Cu9 2.679667 1_555
Cu7 In18 2.723647 1_555
Cu7 In3 2.740036 1_555
Cu7 In23 2.777989 1_555
Cu7 In8 2.777997 1_555
Cu7 In1 2.868550 1_555
Cu7 In0 2.868550 1_555
Cu7 Sr1 3.858906 1_555
Cu7 Sr0 3.858906 1_555
Cu8 In11 2.707906 1_665
Cu8 In20 2.719456 1_555
Cu8 In22 2.816031 1_555
Cu8 In7 2.816031 1_555
Cu8 In16 2.853380 1_655
Cu8 In4 2.853380 1_565
Cu8 In3 2.986158 1_555
Cu8 Sr1 3.802402 1_655
Cu8 Sr0 3.802402 1_565
Cu9 In23 2.621151 1_555
Cu9 In1 2.641776 1_555
Cu9 In2 2.641776 1_555
Cu9 In16 2.643141 1_555
Cu9 Sr1 3.883313 1_555
Cu9 Sr2 3.883313 1_555
Cu10 Cu3 2.514293 1_555
Cu10 In6 2.621151 1_555
Cu10 In5 2.641776 1_555
Cu10 In22 2.641776 1_555
Cu10 In14 2.643141 1_555
Cu10 Cu24 2.679667 1_555
Cu10 Cu16 2.728059 1_655
Cu10 Cu20 2.728059 1_655
Cu10 Sr3 3.883313 1_556
Cu10 Sr0 3.883313 1_555
Cu11 Cu27 2.533259 1_555
Cu11 Cu18 2.612282 1_555
Cu11 In7 2.638939 1_545
Cu11 In17 2.688822 1_545
Cu11 In0 2.691473 1_555
Cu11 Cu13 2.699437 1_555
Cu11 Cu19 2.728059 1_545
Cu11 Cu26 2.736758 1_555
Cu11 In6 2.748559 1_555
Cu11 In18 2.828426 1_555
Cu11 Sr0 3.629164 1_555
Cu11 Sr1 3.944433 1_545
Cu12 Cu5 2.533259 1_555
Cu12 Cu15 2.612282 1_555
Cu12 In0 2.638939 1_565
Cu12 In4 2.688822 1_565
Cu12 In7 2.691473 1_555
Cu12 Cu14 2.699437 1_555
Cu12 Cu23 2.728059 1_565
Cu12 Cu8 2.736758 1_555
Cu12 In23 2.748559 1_555
Cu12 In3 2.828426 1_555
Cu12 Sr1 3.629164 1_555
Cu12 Sr0 3.944433 1_565
Cu13 Cu3 2.533524 1_545
Cu13 Cu19 2.596856 1_545
Cu13 In6 2.641021 1_555
Cu13 Cu18 2.699437 1_555
Cu13 In14 2.769055 1_555
Cu13 In13 2.794808 1_545
Cu13 In7 2.794808 1_545
Cu13 In10 2.896469 1_545
Cu13 In20 2.896469 1_545
Cu13 Sr0 3.700689 1_555
Cu13 Sr3 3.700689 1_556
Cu14 Cu17 2.533524 1_565
Cu14 Cu23 2.596856 1_565
Cu14 In23 2.641021 1_555
Cu14 Cu15 2.699437 1_555
Cu14 In16 2.769055 1_555
Cu14 In0 2.794808 1_565
Cu14 In12 2.794808 1_565
Cu14 In21 2.896469 1_565
Cu14 In11 2.896469 1_565
Cu14 Sr1 3.700689 1_555
Cu14 Sr2 3.700689 1_555
Cu15 Cu5 2.533259 1_555
Cu15 In12 2.638939 1_565
Cu15 In4 2.688822 1_565
Cu15 In13 2.691473 1_554
Cu15 Cu23 2.728059 1_565
Cu15 Cu6 2.736758 1_555
Cu15 In23 2.748559 1_555
Cu15 In9 2.828426 1_555
Cu15 Sr2 3.629164 1_555
Cu15 Sr3 3.944433 1_565
Cu16 Cu27 2.533259 1_555
Cu16 Cu20 2.612282 1_555
Cu16 In22 2.638939 1_455
Cu16 In14 2.688822 1_455
Cu16 In1 2.691473 1_555
Cu16 Cu26 2.736758 1_555
Cu16 In19 2.748553 1_555
Cu16 In18 2.828426 1_555
Cu16 Sr1 3.629164 1_555
Cu16 Sr0 3.944433 1_455
Cu17 Cu9 2.514293 1_555
Cu17 Cu23 2.514293 1_555
Cu17 Cu21 2.533524 1_455
Cu17 Cu22 2.533658 1_555
Cu17 Cu7 2.533658 1_555
Cu17 In11 2.797100 1_555
Cu17 In21 2.797100 1_555
Cu17 In1 2.923564 1_555
Cu17 In12 2.923564 1_555
Cu17 In2 2.923564 1_555
Cu17 In0 2.923564 1_555
Cu18 Cu27 2.533259 1_555
Cu18 In13 2.638939 1_545
Cu18 In17 2.688822 1_545
Cu18 In12 2.691473 1_556
Cu18 Cu19 2.728059 1_545
Cu18 Cu25 2.736758 1_555
Cu18 In6 2.748559 1_555
Cu18 In15 2.828426 1_555
Cu18 Sr3 3.629164 1_556
Cu18 Sr2 3.944433 1_546
Cu19 Cu3 2.514293 1_555
Cu19 In19 2.621156 1_555
Cu19 In13 2.641776 1_555
Cu19 In7 2.641776 1_555
Cu19 In17 2.643141 1_555
Cu19 Cu24 2.679667 1_555
Cu19 Sr1 3.883313 1_555
Cu19 Sr2 3.883313 1_556
Cu20 Cu27 2.533259 1_555
Cu20 In5 2.638939 1_455
Cu20 In14 2.688822 1_455
Cu20 In2 2.691473 1_556
Cu20 Cu25 2.736758 1_555
Cu20 In19 2.748553 1_555
Cu20 In15 2.828426 1_555
Cu20 Sr2 3.629164 1_556
Cu20 Sr3 3.944433 1_456
Cu21 Cu9 2.596856 1_655
Cu21 In8 2.641013 1_555
Cu21 Cu4 2.699437 1_555
Cu21 In4 2.769055 1_555
Cu21 In2 2.794808 1_655
Cu21 In1 2.794808 1_655
Cu21 In11 2.896469 1_655
Cu21 In21 2.896469 1_655
Cu21 Sr3 3.700689 1_555
Cu21 Sr0 3.700689 1_555
Cu22 Cu7 2.609791 1_555
Cu22 Cu23 2.679667 1_555
Cu22 Cu9 2.679667 1_555
Cu22 In15 2.723647 1_554
Cu22 In9 2.740036 1_555
Cu22 In23 2.777989 1_555
Cu22 In8 2.777997 1_555
Cu22 In2 2.868550 1_555
Cu22 In12 2.868550 1_555
Cu22 Sr2 3.858906 1_555
Cu22 Sr3 3.858906 1_555
Cu23 In8 2.621156 1_555
Cu23 In12 2.641776 1_555
Cu23 In0 2.641776 1_555
Cu23 In4 2.643141 1_555
Cu23 Cu7 2.679667 1_555
Cu23 Sr0 3.883313 1_555
Cu23 Sr3 3.883313 1_555
Cu24 Cu3 2.533658 1_555
Cu24 In3 2.723647 1_555
Cu24 In18 2.740036 1_555
Cu24 In6 2.777989 1_555
Cu24 In19 2.777997 1_555
Cu24 In7 2.868550 1_555
Cu24 In22 2.868550 1_555
Cu24 Sr0 3.858906 1_555
Cu24 Sr1 3.858906 1_555
Cu25 Cu27 2.529619 1_555
Cu25 In10 2.707906 1_445
Cu25 In21 2.719456 1_556
Cu25 In12 2.816031 1_556
Cu25 In2 2.816031 1_556
Cu25 In14 2.853380 1_455
Cu25 In17 2.853380 1_545
Cu25 In15 2.986158 1_555
Cu25 Sr3 3.802402 1_456
Cu25 Sr2 3.802402 1_546
Cu26 Cu27 2.529619 1_555
Cu26 In20 2.707906 1_445
Cu26 In11 2.719456 1_555
Cu26 In0 2.816031 1_555
Cu26 In1 2.816031 1_555
Cu26 In14 2.853380 1_455
Cu26 In17 2.853380 1_545
Cu26 In18 2.986158 1_555
Cu26 Sr0 3.802402 1_455
Cu26 Sr1 3.802402 1_545
Cu27 In15 2.796045 1_555
Cu27 In18 2.796045 1_555
Cu27 In14 2.802844 1_455
Cu27 In17 2.802844 1_545
Cu27 In19 3.033814 1_555
Cu27 In6 3.033815 1_555
