# generated using pymatgen
data_Eu2BrO2
_symmetry_space_group_name_H-M   'P 1'
_cell_length_a   6.72132947
_cell_length_b   6.72132947
_cell_length_c   9.66220806
_cell_angle_alpha   58.85067895
_cell_angle_beta   58.85067895
_cell_angle_gamma   34.53627032
_symmetry_Int_Tables_number   1
_chemical_formula_structural   Eu2BrO2
_chemical_formula_sum   'Eu4 Br2 O4'
_cell_volume   208.01468612
_cell_formula_units_Z   2
loop_
 _symmetry_equiv_pos_site_id
 _symmetry_equiv_pos_as_xyz
  1  'x, y, z'
loop_
 _atom_site_type_symbol
 _atom_site_label
 _atom_site_symmetry_multiplicity
 _atom_site_fract_x
 _atom_site_fract_y
 _atom_site_fract_z
 _atom_site_occupancy
  Eu  Eu0  1  0.33961847  0.33961847  0.55496019  1
  Eu  Eu1  1  0.04425987  0.04425987  0.19757430  1
  Eu  Eu2  1  0.95574013  0.95574013  0.80242570  1
  Eu  Eu3  1  0.66038153  0.66038153  0.44503981  1
  Br  Br0  1  0.67050283  0.67050283  0.87649059  1
  Br  Br1  1  0.32949717  0.32949717  0.12350941  1
  O  O0  1  0.14748597  0.14748597  0.57476621  1
  O  O1  1  0.85251403  0.85251403  0.42523379  1
  O  O2  1  0.55023288  0.55023288  0.31477679  1
  O  O3  1  0.44976712  0.44976712  0.68522321  1
loop_
_geom_bond_atom_site_label_1
_geom_bond_atom_site_label_2
_geom_bond_distance
_geom_bond_site_symmetry_2
Eu0 O1 2.313979 1_455
Eu0 O1 2.313979 1_545
Eu0 O3 2.347639 1_555
Eu0 O0 2.368163 1_555
Eu0 O2 2.428533 1_555
Eu1 O1 2.243076 1_445
Eu1 O2 2.315841 1_545
Eu1 O2 2.315841 1_455
Eu2 O0 2.243076 1_665
Eu2 O3 2.315841 1_655
Eu2 O3 2.315841 1_565
Eu3 O0 2.313979 1_655
Eu3 O0 2.313979 1_565
Eu3 O2 2.347639 1_555
Eu3 O1 2.368163 1_555
Eu3 O3 2.428533 1_555
Br0 Eu1 3.284049 1_566
Br0 Eu1 3.284049 1_656
Br0 Eu0 3.322424 1_655
Br0 Eu0 3.322424 1_565
Br0 Eu2 3.328677 1_555
Br0 Eu2 3.772335 1_545
Br0 Eu2 3.772335 1_455
Br1 Eu2 3.284049 1_454
Br1 Eu2 3.284049 1_544
Br1 Eu3 3.322424 1_545
Br1 Eu3 3.322424 1_455
Br1 Eu1 3.328677 1_555
Br1 Eu1 3.772335 1_565
Br1 Eu1 3.772335 1_655
