# generated using pymatgen
data_K2ZnH12(SO7)2
_symmetry_space_group_name_H-M   'P 1'
_cell_length_a   12.41534000
_cell_length_b   6.87223500
_cell_length_c   10.33045479
_cell_angle_alpha   67.33804419
_cell_angle_beta   90.00000000
_cell_angle_gamma   90.00000000
_symmetry_Int_Tables_number   1
_chemical_formula_structural   K2ZnH12(SO7)2
_chemical_formula_sum   'K4 Zn2 H24 S4 O28'
_cell_volume   813.35638866
_cell_formula_units_Z   2
loop_
 _symmetry_equiv_pos_site_id
 _symmetry_equiv_pos_as_xyz
  1  'x, y, z'
loop_
 _atom_site_type_symbol
 _atom_site_label
 _atom_site_symmetry_multiplicity
 _atom_site_fract_x
 _atom_site_fract_y
 _atom_site_fract_z
 _atom_site_occupancy
  K  K0  1  0.72310900  0.34821900  0.83285400  1
  K  K1  1  0.22310900  0.65178100  0.66714600  1
  K  K2  1  0.27689100  0.65178100  0.16714600  1
  K  K3  1  0.77689100  0.34821900  0.33285400  1
  Zn  Zn0  1  0.50000000  0.00000000  0.50000000  1
  Zn  Zn1  1  0.00000000  0.00000000  0.00000000  1
  H  H0  1  0.09950300  0.05433000  0.74789100  1
  H  H1  1  0.17282400  0.14870400  0.01485800  1
  H  H2  1  0.59950300  0.94567000  0.75210900  1
  H  H3  1  0.85011400  0.99012900  0.69986800  1
  H  H4  1  0.95784400  0.55789400  0.84866400  1
  H  H5  1  0.35011400  0.00987100  0.80013200  1
  H  H6  1  0.02416700  0.59967800  0.22898300  1
  H  H7  1  0.54215600  0.55789400  0.34866400  1
  H  H8  1  0.47583300  0.59967800  0.72898300  1
  H  H9  1  0.04215600  0.44210600  0.15133600  1
  H  H10  1  0.75570600  0.02927200  0.58984700  1
  H  H11  1  0.74429400  0.02927200  0.08984700  1
  H  H12  1  0.67282400  0.85129600  0.48514200  1
  H  H13  1  0.52416700  0.40032200  0.27101700  1
  H  H14  1  0.40049700  0.05433000  0.24789100  1
  H  H15  1  0.97583300  0.40032200  0.77101700  1
  H  H16  1  0.14988600  0.00987100  0.30013200  1
  H  H17  1  0.64988600  0.99012900  0.19986800  1
  H  H18  1  0.24429400  0.97072800  0.41015300  1
  H  H19  1  0.45784400  0.44210600  0.65133600  1
  H  H20  1  0.32717600  0.14870400  0.51485800  1
  H  H21  1  0.90049700  0.94567000  0.25210900  1
  H  H22  1  0.82717600  0.85129600  0.98514200  1
  H  H23  1  0.25570600  0.97072800  0.91015300  1
  S  S0  1  0.11414000  0.30700000  0.52305600  1
  S  S1  1  0.38586000  0.30700000  0.02305600  1
  S  S2  1  0.88586000  0.69300000  0.47694400  1
  S  S3  1  0.61414000  0.69300000  0.97694400  1
  O  O0  1  0.92298700  0.48969600  0.79108700  1
  O  O1  1  0.17860100  0.90633200  0.38680900  1
  O  O2  1  0.07701300  0.51030400  0.20891300  1
  O  O3  1  0.47823500  0.76765000  0.39429000  1
  O  O4  1  0.41013200  0.85444000  0.28644000  1
  O  O5  1  0.89904100  0.76122800  0.31108200  1
  O  O6  1  0.10095900  0.23877200  0.68891800  1
  O  O7  1  0.60095900  0.76122800  0.81108200  1
  O  O8  1  0.67860100  0.09366800  0.11319100  1
  O  O9  1  0.85022900  0.98671300  0.98686900  1
  O  O10  1  0.82139900  0.09366800  0.61319100  1
  O  O11  1  0.35022900  0.01328700  0.51313100  1
  O  O12  1  0.58986800  0.14556000  0.71356000  1
  O  O13  1  0.42298700  0.51030400  0.70891300  1
  O  O14  1  0.32139900  0.90633200  0.88680900  1
  O  O15  1  0.97823500  0.23235000  0.10571000  1
  O  O16  1  0.27222700  0.38308600  0.98314300  1
  O  O17  1  0.02176500  0.76765000  0.89429000  1
  O  O18  1  0.77222700  0.61691400  0.51685700  1
  O  O19  1  0.39904100  0.23877200  0.18891800  1
  O  O20  1  0.22777300  0.38308600  0.48314300  1
  O  O21  1  0.57701300  0.48969600  0.29108700  1
  O  O22  1  0.14977100  0.01328700  0.01313100  1
  O  O23  1  0.72777300  0.61691400  0.01685700  1
  O  O24  1  0.08986800  0.85444000  0.78644000  1
  O  O25  1  0.64977100  0.98671300  0.48686900  1
  O  O26  1  0.52176500  0.23235000  0.60571000  1
  O  O27  1  0.91013200  0.14556000  0.21356000  1
loop_
_geom_bond_atom_site_label_1
_geom_bond_atom_site_label_2
_geom_bond_distance
_geom_bond_site_symmetry_2
K0 O0 2.639376 1_555
K0 O12 2.741797 1_555
K0 O8 2.801522 1_556
K0 O9 2.854534 1_545
K0 O23 3.119446 1_556
K0 O18 3.129357 1_555
K0 O7 3.148723 1_555
K1 O13 2.639376 1_555
K1 O24 2.741797 1_555
K1 O1 2.801522 1_555
K1 O11 2.854534 1_565
K1 O20 3.119446 1_555
K1 O16 3.129357 1_555
K1 O6 3.148723 1_555
K2 O2 2.639376 1_555
K2 O4 2.741797 1_555
K2 O14 2.801522 1_554
K2 O22 2.854534 1_565
K2 O16 3.119446 1_554
K2 O20 3.129357 1_555
K2 O19 3.148723 1_555
K3 O21 2.639376 1_555
K3 O27 2.741797 1_555
K3 O10 2.801522 1_555
K3 O25 2.854534 1_545
K3 O18 3.119446 1_555
K3 O23 3.129357 1_555
K3 O5 3.148723 1_555
H0 O6 1.176033 1_555
H0 O24 1.279992 1_545
H1 O22 0.980346 1_555
H2 O7 1.176033 1_555
H2 O12 1.279992 1_565
H3 O10 0.971697 1_565
H4 O0 0.987690 1_555
H5 O14 0.971697 1_545
H6 O2 0.974076 1_555
H7 O21 0.987690 1_555
H8 O13 0.974076 1_555
H9 O2 0.987690 1_555
H10 O10 1.000722 1_555
H10 K3 2.727201 1_555
H11 O8 1.000722 1_555
H11 K0 2.727201 1_554
H12 O25 0.980346 1_555
H13 O21 0.974076 1_555
H14 O19 1.176033 1_555
H14 O4 1.279992 1_545
H15 O0 0.974076 1_555
H16 O1 0.971697 1_545
H17 O8 0.971697 1_565
H18 O1 1.000722 1_555
H18 K1 2.727201 1_555
H19 O13 0.987690 1_555
H20 O11 0.980346 1_555
H21 O5 1.176033 1_555
H21 O27 1.279992 1_565
H22 O9 0.980346 1_555
H23 O14 1.000722 1_555
H23 K2 2.727201 1_556
O3 O4 1.341599 1_555
O3 Zn0 2.271320 1_565
O5 S2 1.601058 1_555
O6 S0 1.601058 1_555
O7 S3 1.601058 1_555
O9 Zn1 1.869189 1_666
O11 Zn0 1.869189 1_555
O12 O26 1.341599 1_555
O15 O27 1.341599 1_555
O15 Zn1 2.271320 1_655
O16 S1 1.505860 1_556
O17 O24 1.341599 1_555
O17 Zn1 2.271320 1_566
O18 S2 1.505860 1_555
O19 S1 1.601058 1_555
O20 S0 1.505860 1_555
O22 Zn1 1.869189 1_555
O23 S3 1.505860 1_554
O25 Zn0 1.869189 1_565
O26 Zn0 2.271320 1_555
