# generated using pymatgen
data_K2In3AgSe6
_symmetry_space_group_name_H-M   'P 1'
_cell_length_a   8.29332886
_cell_length_b   8.29333008
_cell_length_c   21.38261478
_cell_angle_alpha   84.22273153
_cell_angle_beta   84.22272980
_cell_angle_gamma   90.15295330
_symmetry_Int_Tables_number   1
_chemical_formula_structural   K2In3AgSe6
_chemical_formula_sum   'K8 In12 Ag4 Se24'
_cell_volume   1455.65775021
_cell_formula_units_Z   4
loop_
 _symmetry_equiv_pos_site_id
 _symmetry_equiv_pos_as_xyz
  1  'x, y, z'
loop_
 _atom_site_type_symbol
 _atom_site_label
 _atom_site_symmetry_multiplicity
 _atom_site_fract_x
 _atom_site_fract_y
 _atom_site_fract_z
 _atom_site_occupancy
  K  K0  1  0.20246690  0.60747847  0.58306316  1
  K  K1  1  0.39252153  0.79753310  0.91693684  1
  K  K2  1  0.74349422  0.89512645  0.41696714  1
  K  K3  1  0.89512645  0.74349422  0.91696714  1
  K  K4  1  0.79753310  0.39252153  0.41693684  1
  K  K5  1  0.25650578  0.10487355  0.58303286  1
  K  K6  1  0.60747847  0.20246690  0.08306316  1
  K  K7  1  0.10487355  0.25650578  0.08303286  1
  In  In0  1  0.15143278  0.27842924  0.88815984  1
  In  In1  1  0.84856722  0.72157076  0.11184016  1
  In  In2  1  0.06599377  0.93400623  0.25000000  1
  In  In3  1  0.44056414  0.55943586  0.75000000  1
  In  In4  1  0.27702824  0.65128169  0.38857659  1
  In  In5  1  0.93400623  0.06599377  0.75000000  1
  In  In6  1  0.72297176  0.34871831  0.61142341  1
  In  In7  1  0.27842924  0.15143278  0.38815984  1
  In  In8  1  0.72157076  0.84856722  0.61184016  1
  In  In9  1  0.34871831  0.72297176  0.11142341  1
  In  In10  1  0.55943586  0.44056414  0.25000000  1
  In  In11  1  0.65128169  0.27702824  0.88857659  1
  Ag  Ag0  1  0.06412102  0.43902989  0.24994406  1
  Ag  Ag1  1  0.56097011  0.93587898  0.25005594  1
  Ag  Ag2  1  0.43902989  0.06412102  0.74994406  1
  Ag  Ag3  1  0.93587898  0.56097011  0.75005594  1
  Se  Se0  1  0.33723905  0.43834144  0.17428356  1
  Se  Se1  1  0.43820299  0.82447669  0.67482872  1
  Se  Se2  1  0.67209893  0.02518252  0.82577571  1
  Se  Se3  1  0.84044508  0.97294001  0.17460525  1
  Se  Se4  1  0.02705999  0.15955492  0.32539475  1
  Se  Se5  1  0.30626887  0.88209790  0.46065308  1
  Se  Se6  1  0.69373113  0.11790210  0.53934692  1
  Se  Se7  1  0.17552331  0.56179701  0.82517128  1
  Se  Se8  1  0.11790210  0.69373113  0.03934692  1
  Se  Se9  1  0.56179701  0.17552331  0.32517128  1
  Se  Se10  1  0.43834144  0.33723905  0.67428356  1
  Se  Se11  1  0.97294001  0.84044508  0.67460525  1
  Se  Se12  1  0.15955492  0.02705999  0.82539475  1
  Se  Se13  1  0.61818351  0.78758846  0.03921217  1
  Se  Se14  1  0.97481748  0.32790107  0.67422429  1
  Se  Se15  1  0.82447669  0.43820299  0.17482872  1
  Se  Se16  1  0.32790107  0.97481748  0.17422429  1
  Se  Se17  1  0.78758846  0.61818351  0.53921217  1
  Se  Se18  1  0.21241154  0.38181649  0.46078783  1
  Se  Se19  1  0.38181649  0.21241154  0.96078783  1
  Se  Se20  1  0.02518252  0.67209893  0.32577571  1
  Se  Se21  1  0.56165856  0.66276095  0.32571644  1
  Se  Se22  1  0.88209790  0.30626887  0.96065308  1
  Se  Se23  1  0.66276095  0.56165856  0.82571644  1
loop_
_geom_bond_atom_site_label_1
_geom_bond_atom_site_label_2
_geom_bond_distance
_geom_bond_site_symmetry_2
K0 Se14 3.326548 1_455
K0 Se5 3.333905 1_555
K0 Se11 3.349431 1_455
K0 Se18 3.359724 1_555
K0 Se1 3.517881 1_555
K0 Se10 3.544803 1_555
K0 Se17 3.655137 1_455
K1 Se2 3.326548 1_565
K1 Se8 3.333905 1_556
K1 Se12 3.349431 1_565
K1 Se13 3.359724 1_556
K1 Se7 3.517881 1_555
K1 Se23 3.544803 1_555
K1 Se19 3.655137 1_565
K2 Se21 3.335976 1_555
K2 Se6 3.345354 1_565
K2 Se9 3.350558 1_565
K2 Se17 3.351083 1_555
K2 Se4 3.514918 1_665
K2 Se20 3.537363 1_655
K2 Se5 3.650780 1_555
K3 Se23 3.335976 1_555
K3 Se8 3.345354 1_656
K3 Se7 3.350558 1_655
K3 Se13 3.351082 1_556
K3 Se12 3.514918 1_665
K3 Se2 3.537363 1_565
K3 Se22 3.650780 1_555
K4 Se20 3.326548 1_655
K4 Se6 3.333905 1_555
K4 Se4 3.349431 1_655
K4 Se17 3.359724 1_555
K4 Se9 3.517881 1_555
K4 Se21 3.544803 1_555
K4 Se18 3.655137 1_655
K5 Se10 3.335976 1_555
K5 Se5 3.345354 1_545
K5 Se1 3.350558 1_545
K5 Se18 3.351083 1_555
K5 Se11 3.514918 1_445
K5 Se14 3.537363 1_455
K5 Se6 3.650780 1_555
K6 Se16 3.326548 1_545
K6 Se22 3.333905 1_554
K6 Se3 3.349431 1_545
K6 Se19 3.359724 1_554
K6 Se15 3.517881 1_555
K6 Se0 3.544803 1_555
K6 Se13 3.655137 1_545
K7 Se0 3.335976 1_555
K7 Se22 3.345354 1_454
K7 Se15 3.350558 1_455
K7 Se19 3.351082 1_554
K7 Se3 3.514918 1_445
K7 Se16 3.537363 1_545
K7 Se8 3.650780 1_555
In0 Se7 2.585117 1_555
In0 Se12 2.587945 1_555
In0 Se19 2.606501 1_555
In0 Se22 2.612122 1_455
In1 Se15 2.585117 1_555
In1 Se3 2.587945 1_555
In1 Se13 2.606501 1_555
In1 Se8 2.612122 1_655
In2 Se16 2.575840 1_555
In2 Se20 2.575840 1_555
In2 Se3 2.589929 1_455
In2 Se4 2.589929 1_565
In3 Se23 2.573664 1_555
In3 Se10 2.573664 1_555
In3 Se7 2.590516 1_555
In3 Se1 2.590516 1_555
In4 Se20 2.591402 1_555
In4 Se21 2.592701 1_555
In4 Se5 2.600972 1_555
In4 Se18 2.607262 1_555
In5 Se2 2.575840 1_555
In5 Se14 2.575840 1_555
In5 Se12 2.589929 1_655
In5 Se11 2.589929 1_545
In6 Se14 2.591402 1_555
In6 Se10 2.592701 1_555
In6 Se6 2.600972 1_555
In6 Se17 2.607262 1_555
In7 Se9 2.585117 1_555
In7 Se4 2.587945 1_555
In7 Se18 2.606501 1_555
In7 Se5 2.612122 1_545
In8 Se1 2.585117 1_555
In8 Se11 2.587945 1_555
In8 Se17 2.606501 1_555
In8 Se6 2.612122 1_565
In9 Se16 2.591403 1_555
In9 Se0 2.592701 1_555
In9 Se8 2.600972 1_555
In9 Se13 2.607262 1_555
In10 Se0 2.573664 1_555
In10 Se21 2.573664 1_555
In10 Se15 2.590516 1_555
In10 Se9 2.590516 1_555
In11 Se2 2.591403 1_555
In11 Se23 2.592701 1_555
In11 Se22 2.600972 1_555
In11 Se19 2.607262 1_555
Ag0 Se20 2.645477 1_555
Ag0 Se0 2.648027 1_555
Ag0 Se15 2.678537 1_455
Ag0 Se4 2.685695 1_555
Ag1 Se16 2.645477 1_555
Ag1 Se21 2.648027 1_555
Ag1 Se9 2.678537 1_565
Ag1 Se3 2.685695 1_555
Ag2 Se2 2.645477 1_555
Ag2 Se10 2.648027 1_555
Ag2 Se1 2.678537 1_545
Ag2 Se12 2.685695 1_555
Ag3 Se14 2.645477 1_555
Ag3 Se23 2.648027 1_555
Ag3 Se7 2.678537 1_655
Ag3 Se11 2.685695 1_555
