# generated using pymatgen
data_Cu4Sn15S32
_symmetry_space_group_name_H-M   'P 1'
_cell_length_a   7.44525952
_cell_length_b   7.45520759
_cell_length_c   59.71549152
_cell_angle_alpha   60.04088925
_cell_angle_beta   59.99744250
_cell_angle_gamma   59.95579001
_symmetry_Int_Tables_number   1
_chemical_formula_structural   Cu4Sn15S32
_chemical_formula_sum   'Cu8 Sn30 S64'
_cell_volume   2343.64496633
_cell_formula_units_Z   2
loop_
 _symmetry_equiv_pos_site_id
 _symmetry_equiv_pos_as_xyz
  1  'x, y, z'
loop_
 _atom_site_type_symbol
 _atom_site_label
 _atom_site_symmetry_multiplicity
 _atom_site_fract_x
 _atom_site_fract_y
 _atom_site_fract_z
 _atom_site_occupancy
  Cu  Cu0  1  0.23278668  0.23149861  0.03802701  1
  Cu  Cu1  1  0.27067240  0.23675219  0.15697790  1
  Cu  Cu2  1  0.26447422  0.25088079  0.27922053  1
  Cu  Cu3  1  0.25108907  0.25053351  0.40598049  1
  Cu  Cu4  1  0.25066701  0.25005959  0.53115173  1
  Cu  Cu5  1  0.25046330  0.24984652  0.65623046  1
  Cu  Cu6  1  0.24953059  0.24903297  0.78155043  1
  Cu  Cu7  1  0.24897496  0.24864890  0.90671591  1
  Sn  Sn0  1  0.12166874  0.63098653  0.07704478  1
  Sn  Sn1  1  0.63082023  0.12248033  0.07703513  1
  Sn  Sn2  1  0.63082023  0.63041841  0.07703513  1
  Sn  Sn3  1  0.62796265  0.11507958  0.20374082  1
  Sn  Sn4  1  0.61665891  0.63149139  0.14004479  1
  Sn  Sn5  1  0.62796265  0.62703119  0.20374082  1
  Sn  Sn6  1  0.12067512  0.62924185  0.32760515  1
  Sn  Sn7  1  0.65594353  0.63525405  0.25919355  1
  Sn  Sn8  1  0.62832710  0.12145505  0.32751497  1
  Sn  Sn9  1  0.62832710  0.63009807  0.32751497  1
  Sn  Sn10  1  0.11546327  0.62831127  0.45348927  1
  Sn  Sn11  1  0.62831643  0.11542556  0.45347412  1
  Sn  Sn12  1  0.62939917  0.63051762  0.38869570  1
  Sn  Sn13  1  0.11498815  0.62840922  0.57852418  1
  Sn  Sn14  1  0.62831643  0.62846503  0.45347412  1
  Sn  Sn15  1  0.62842766  0.62842212  0.51434101  1
  Sn  Sn16  1  0.62825451  0.11497407  0.57853104  1
  Sn  Sn17  1  0.11500790  0.62822571  0.70356758  1
  Sn  Sn18  1  0.62825451  0.62852309  0.57853104  1
  Sn  Sn19  1  0.62836623  0.62838476  0.63935803  1
  Sn  Sn20  1  0.62812799  0.11496142  0.70356872  1
  Sn  Sn21  1  0.11202417  0.62817273  0.82895380  1
  Sn  Sn22  1  0.62812799  0.62836086  0.70356872  1
  Sn  Sn23  1  0.62804708  0.62811791  0.76446464  1
  Sn  Sn24  1  0.62811231  0.11201922  0.82894638  1
  Sn  Sn25  1  0.62811231  0.62829744  0.82894638  1
  Sn  Sn26  1  0.09597502  0.62639257  0.95640498  1
  Sn  Sn27  1  0.62615451  0.09641733  0.95634977  1
  Sn  Sn28  1  0.62042829  0.62064290  0.89228574  1
  Sn  Sn29  1  0.62615451  0.62662998  0.95634977  1
  S  S0  1  0.38033160  0.38031029  0.04705951  1
  S  S1  1  0.38033160  0.86288201  0.04705951  1
  S  S2  1  0.37816895  0.37869229  0.10805581  1
  S  S3  1  0.86339856  0.38006101  0.04705993  1
  S  S4  1  0.38387547  0.87472869  0.10833340  1
  S  S5  1  0.38010315  0.37626101  0.17268640  1
  S  S6  1  0.87510799  0.87606999  0.04659401  1
  S  S7  1  0.38010315  0.86214461  0.17268640  1
  S  S8  1  0.86994176  0.39082524  0.10866581  1
  S  S9  1  0.37938611  0.37941424  0.23272318  1
  S  S10  1  0.86968076  0.37738641  0.17194330  1
  S  S11  1  0.86994176  0.86990648  0.10866581  1
  S  S12  1  0.37156568  0.87245468  0.23544062  1
  S  S13  1  0.37765000  0.37973112  0.29746591  1
  S  S14  1  0.85387123  0.87840046  0.17366598  1
  S  S15  1  0.85986681  0.37072044  0.23511962  1
  S  S16  1  0.37765000  0.86289164  0.29746591  1
  S  S17  1  0.37821046  0.37671478  0.35854500  1
  S  S18  1  0.86878207  0.37613061  0.29736959  1
  S  S19  1  0.85986681  0.88845580  0.23511962  1
  S  S20  1  0.38134708  0.87285272  0.35911843  1
  S  S21  1  0.37744339  0.37787557  0.42209996  1
  S  S22  1  0.87302852  0.87382640  0.29741484  1
  S  S23  1  0.87163647  0.38282533  0.35912600  1
  S  S24  1  0.37709668  0.37686090  0.48364769  1
  S  S25  1  0.37744339  0.86788137  0.42209996  1
  S  S26  1  0.86784983  0.37781585  0.42206481  1
  S  S27  1  0.87163647  0.87253021  0.35912600  1
  S  S28  1  0.37704772  0.87439955  0.48426915  1
  S  S29  1  0.37693250  0.37711859  0.54704802  1
  S  S30  1  0.87437416  0.37758263  0.48426117  1
  S  S31  1  0.87406574  0.87394063  0.42225663  1
  S  S32  1  0.37691351  0.37672888  0.60870359  1
  S  S33  1  0.37693250  0.86956472  0.54704802  1
  S  S34  1  0.86941720  0.37697500  0.54707910  1
  S  S35  1  0.87437416  0.87395382  0.48426117  1
  S  S36  1  0.37635843  0.87451895  0.60932546  1
  S  S37  1  0.37676903  0.37694084  0.67208974  1
  S  S38  1  0.37681596  0.37657537  0.73375416  1
  S  S39  1  0.87448531  0.37700752  0.60930808  1
  S  S40  1  0.87437229  0.87430766  0.54712655  1
  S  S41  1  0.37676903  0.86957219  0.67208974  1
  S  S42  1  0.86941805  0.37681599  0.67211875  1
  S  S43  1  0.87448531  0.87404249  0.60930808  1
  S  S44  1  0.37698756  0.87425875  0.73431187  1
  S  S45  1  0.37823995  0.37839595  0.79704244  1
  S  S46  1  0.87437145  0.87432876  0.67212138  1
  S  S47  1  0.37806758  0.37793624  0.85825749  1
  S  S48  1  0.37823995  0.86702462  0.79704244  1
  S  S49  1  0.87419854  0.37759277  0.73429804  1
  S  S50  1  0.86692087  0.37826834  0.79706781  1
  S  S51  1  0.87419854  0.87382440  0.73429804  1
  S  S52  1  0.38195019  0.87413553  0.85872235  1
  S  S53  1  0.37952118  0.37965863  0.92220773  1
  S  S54  1  0.87411242  0.38255167  0.85870377  1
  S  S55  1  0.87447323  0.87435190  0.79710287  1
  S  S56  1  0.37806500  0.37813950  0.98320700  1
  S  S57  1  0.37952118  0.86315836  0.92220773  1
  S  S58  1  0.86309257  0.37957364  0.92222002  1
  S  S59  1  0.87411242  0.87370577  0.85870377  1
  S  S60  1  0.36794978  0.88761388  0.98210281  1
  S  S61  1  0.87254766  0.87229083  0.92285883  1
  S  S62  1  0.88735020  0.36859664  0.98207683  1
  S  S63  1  0.88735020  0.88743850  0.98207683  1
loop_
_geom_bond_atom_site_label_1
_geom_bond_atom_site_label_2
_geom_bond_distance
_geom_bond_site_symmetry_2
Cu0 S1 2.266944 1_545
Cu0 S0 2.266944 1_555
Cu0 S3 2.268089 1_455
Cu0 S56 2.673972 1_554
Cu1 S5 2.283138 1_555
Cu1 S7 2.283138 1_545
Cu1 S2 2.391044 1_555
Cu1 S10 2.438088 1_455
Cu2 S9 2.268832 1_555
Cu2 S16 2.365126 1_545
Cu2 S13 2.365126 1_555
Cu2 S18 2.405965 1_455
Cu3 S17 2.313762 1_555
Cu3 S26 2.328674 1_455
Cu3 S25 2.329262 1_545
Cu3 S21 2.329262 1_555
Cu4 S29 2.316099 1_555
Cu4 S33 2.316099 1_545
Cu4 S34 2.316574 1_455
Cu4 S24 2.317110 1_555
Cu5 S37 2.314753 1_555
Cu5 S41 2.314753 1_545
Cu5 S42 2.315329 1_455
Cu5 S32 2.318224 1_555
Cu6 S50 2.324912 1_455
Cu6 S48 2.325370 1_545
Cu6 S45 2.325371 1_555
Cu6 S38 2.331363 1_555
Cu7 S58 2.344873 1_455
Cu7 S53 2.346633 1_555
Cu7 S57 2.346633 1_545
Cu7 S47 2.363660 1_555
S0 Sn1 2.586400 1_555
S0 Sn0 2.587907 1_555
S1 Sn2 2.586400 1_555
S1 Sn0 2.587906 1_555
S2 Sn2 2.658890 1_555
S2 Sn1 2.658890 1_555
S2 Sn0 2.659933 1_555
S3 Sn2 2.585909 1_555
S3 Sn1 2.585909 1_555
S4 Sn4 2.565845 1_555
S4 Sn1 2.607891 1_565
S4 Sn2 2.607891 1_555
S5 Sn4 2.596160 1_555
S5 Sn3 2.617957 1_555
S6 Sn1 2.582687 1_565
S6 Sn2 2.582687 1_555
S6 Sn0 2.583825 1_655
S7 Sn4 2.596160 1_555
S7 Sn5 2.617957 1_555
S8 Sn4 2.592783 1_555
S8 Sn0 2.593841 1_655
S8 Sn2 2.595543 1_555
S9 Sn5 2.618227 1_555
S9 Sn3 2.618227 1_555
S10 Sn3 2.658259 1_555
S10 Sn5 2.658259 1_555
S10 Sn4 2.678994 1_555
S11 Sn4 2.592783 1_555
S11 Sn0 2.593841 1_655
S11 Sn1 2.595543 1_565
S12 Sn7 2.524076 1_555
S12 Sn3 2.631180 1_565
S12 Sn5 2.631180 1_555
S13 Sn6 2.587710 1_555
S13 Sn8 2.590486 1_555
S13 Sn7 2.830813 1_555
S14 Sn3 2.517956 1_565
S14 Sn5 2.517956 1_555
S15 Sn7 2.431409 1_555
S15 Sn5 2.549377 1_555
S16 Sn6 2.587710 1_555
S16 Sn9 2.590486 1_555
S16 Sn7 2.830813 1_555
S17 Sn9 2.654286 1_555
S17 Sn8 2.654286 1_555
S17 Sn6 2.662443 1_555
S18 Sn9 2.611023 1_555
S18 Sn8 2.611024 1_555
S18 Sn7 2.754809 1_555
S19 Sn7 2.431409 1_555
S19 Sn3 2.549377 1_565
S20 Sn12 2.555067 1_555
S20 Sn9 2.612770 1_555
S20 Sn8 2.612770 1_565
S21 Sn10 2.645039 1_555
S21 Sn11 2.646908 1_555
S21 Sn12 2.662477 1_555
S22 Sn8 2.574788 1_565
S22 Sn9 2.574788 1_555
S22 Sn6 2.578600 1_655
S23 Sn12 2.552941 1_555
S23 Sn6 2.612013 1_655
S23 Sn9 2.616012 1_555
S24 Sn14 2.651516 1_555
S24 Sn11 2.651516 1_555
S24 Sn10 2.651777 1_555
S25 Sn10 2.645039 1_555
S25 Sn14 2.646908 1_555
S25 Sn12 2.662477 1_555
S26 Sn14 2.647376 1_555
S26 Sn11 2.647376 1_555
S26 Sn12 2.666663 1_555
S27 Sn12 2.552941 1_555
S27 Sn6 2.612013 1_655
S27 Sn8 2.616012 1_565
S28 Sn15 2.593432 1_555
S28 Sn11 2.595297 1_565
S28 Sn14 2.595297 1_555
S29 Sn15 2.651694 1_555
S29 Sn13 2.653031 1_555
S29 Sn16 2.653645 1_555
S30 Sn15 2.590991 1_555
S30 Sn10 2.592891 1_655
S30 Sn14 2.595612 1_555
S31 Sn11 2.589681 1_565
S31 Sn14 2.589681 1_555
S31 Sn10 2.589903 1_655
S32 Sn18 2.653190 1_555
S32 Sn16 2.653190 1_555
S32 Sn13 2.654211 1_555
S33 Sn15 2.651694 1_555
S33 Sn13 2.653031 1_555
S33 Sn18 2.653645 1_555
S34 Sn15 2.652361 1_555
S34 Sn18 2.653660 1_555
S34 Sn16 2.653660 1_555
S35 Sn15 2.590991 1_555
S35 Sn10 2.592891 1_655
S35 Sn11 2.595612 1_565
S36 Sn19 2.595129 1_555
S36 Sn16 2.595655 1_565
S36 Sn18 2.595655 1_555
S37 Sn19 2.652990 1_555
S37 Sn17 2.653034 1_555
S37 Sn20 2.653631 1_555
S38 Sn20 2.652967 1_555
S38 Sn22 2.652967 1_555
S38 Sn17 2.653879 1_555
S39 Sn19 2.592604 1_555
S39 Sn13 2.593427 1_655
S39 Sn18 2.596161 1_555
S40 Sn13 2.592876 1_655
S40 Sn16 2.593384 1_565
S40 Sn18 2.593384 1_555
S41 Sn19 2.652990 1_555
S41 Sn17 2.653034 1_555
S41 Sn22 2.653632 1_555
S42 Sn20 2.653528 1_555
S42 Sn22 2.653528 1_555
S42 Sn19 2.653658 1_555
S43 Sn19 2.592604 1_555
S43 Sn13 2.593427 1_655
S43 Sn16 2.596161 1_565
S44 Sn22 2.592923 1_555
S44 Sn20 2.592923 1_565
S44 Sn23 2.595115 1_555
S45 Sn23 2.634609 1_555
S45 Sn21 2.664289 1_555
S45 Sn24 2.664721 1_555
S46 Sn22 2.595037 1_555
S46 Sn20 2.595037 1_565
S46 Sn17 2.595059 1_655
S47 Sn24 2.640246 1_555
S47 Sn25 2.640246 1_555
S47 Sn21 2.640370 1_555
S48 Sn23 2.634609 1_555
S48 Sn21 2.664289 1_555
S48 Sn25 2.664721 1_555
S49 Sn17 2.590920 1_655
S49 Sn23 2.592947 1_555
S49 Sn22 2.593250 1_555
S50 Sn23 2.635657 1_555
S50 Sn25 2.664613 1_555
S50 Sn24 2.664613 1_555
S51 Sn17 2.590921 1_655
S51 Sn23 2.592947 1_555
S51 Sn20 2.593250 1_565
S52 Sn24 2.551839 1_565
S52 Sn25 2.551839 1_555
S52 Sn28 2.675246 1_555
S53 Sn28 2.540252 1_555
S53 Sn27 2.747551 1_555
S53 Sn26 2.749973 1_555
S54 Sn21 2.549219 1_655
S54 Sn25 2.551860 1_555
S54 Sn28 2.673900 1_555
S55 Sn21 2.596424 1_655
S55 Sn25 2.596614 1_555
S55 Sn24 2.596614 1_565
S56 Sn26 2.628471 1_555
S56 Sn29 2.629110 1_555
S56 Sn27 2.629110 1_555
S57 Sn28 2.540252 1_555
S57 Sn29 2.747551 1_555
S57 Sn26 2.749973 1_555
S58 Sn28 2.541506 1_555
S58 Sn29 2.749225 1_555
S58 Sn27 2.749225 1_555
S59 Sn21 2.549219 1_655
S59 Sn24 2.551860 1_565
S59 Sn28 2.673900 1_555
S60 Sn27 2.476454 1_565
S60 Sn29 2.476454 1_555
S61 Sn26 2.598446 1_655
S61 Sn29 2.599245 1_555
S61 Sn27 2.599246 1_565
S62 Sn26 2.474216 1_655
S62 Sn29 2.476435 1_555
S63 Sn26 2.474216 1_655
S63 Sn27 2.476435 1_565
