# generated using pymatgen
data_TiO
_symmetry_space_group_name_H-M   'P 1'
_cell_length_a   17.64098645
_cell_length_b   17.64098645
_cell_length_c   17.64098645
_cell_angle_alpha   170.82689526
_cell_angle_beta   170.82689526
_cell_angle_gamma   12.98666012
_symmetry_Int_Tables_number   1
_chemical_formula_structural   TiO
_chemical_formula_sum   'Ti6 O6'
_cell_volume   139.51895523
_cell_formula_units_Z   6
loop_
 _symmetry_equiv_pos_site_id
 _symmetry_equiv_pos_as_xyz
  1  'x, y, z'
loop_
 _atom_site_type_symbol
 _atom_site_label
 _atom_site_symmetry_multiplicity
 _atom_site_fract_x
 _atom_site_fract_y
 _atom_site_fract_z
 _atom_site_occupancy
  Ti  Ti0  1  0.57049700  0.57049700  0.00000000  1
  Ti  Ti1  1  0.13652300  0.13652300  0.00000000  1
  Ti  Ti2  1  0.28177800  0.28177800  0.00000000  1
  Ti  Ti3  1  0.71822200  0.71822200  0.00000000  1
  Ti  Ti4  1  0.86347700  0.86347700  0.00000000  1
  Ti  Ti5  1  0.42950300  0.42950300  0.00000000  1
  O  O0  1  0.79702400  0.79702400  0.00000000  1
  O  O1  1  0.34583400  0.34583400  0.00000000  1
  O  O2  1  0.94473700  0.94473700  0.00000000  1
  O  O3  1  0.05526300  0.05526300  0.00000000  1
  O  O4  1  0.65416600  0.65416600  0.00000000  1
  O  O5  1  0.20297600  0.20297600  0.00000000  1
loop_
_geom_bond_atom_site_label_1
_geom_bond_atom_site_label_2
_geom_bond_distance
_geom_bond_site_symmetry_2
O0 Ti2 2.065327 1_666
O0 Ti2 2.065327 1_655
O0 Ti2 2.065327 1_565
O0 Ti2 2.065327 1_554
O0 Ti4 2.329552 1_555
O0 Ti3 2.762455 1_555
O1 Ti4 2.088649 1_556
O1 Ti4 2.088649 1_444
O1 Ti4 2.088649 1_545
O1 Ti4 2.088649 1_455
O1 Ti2 2.245524 1_555
O2 Ti5 2.065218 1_565
O2 Ti5 2.065218 1_655
O2 Ti5 2.065218 1_554
O2 Ti5 2.065218 1_666
O3 Ti0 2.065218 1_444
O3 Ti0 2.065218 1_455
O3 Ti0 2.065218 1_545
O3 Ti0 2.065218 1_556
O4 Ti1 2.088649 1_666
O4 Ti1 2.088649 1_554
O4 Ti1 2.088649 1_655
O4 Ti1 2.088649 1_565
O4 Ti3 2.245524 1_555
O5 Ti3 2.065327 1_444
O5 Ti3 2.065327 1_455
O5 Ti3 2.065327 1_545
O5 Ti3 2.065327 1_556
O5 Ti1 2.329552 1_555
O5 Ti2 2.762455 1_555
