# generated using pymatgen
data_Ba17Al3O7
_symmetry_space_group_name_H-M   'P 1'
_cell_length_a   15.10908238
_cell_length_b   15.10908238
_cell_length_c   18.51051414
_cell_angle_alpha   89.98789627
_cell_angle_beta   89.98789627
_cell_angle_gamma   89.99108647
_symmetry_Int_Tables_number   1
_chemical_formula_structural   Ba17Al3O7
_chemical_formula_sum   'Ba68 Al12 O28'
_cell_volume   4225.66082510
_cell_formula_units_Z   4
loop_
 _symmetry_equiv_pos_site_id
 _symmetry_equiv_pos_as_xyz
  1  'x, y, z'
loop_
 _atom_site_type_symbol
 _atom_site_label
 _atom_site_symmetry_multiplicity
 _atom_site_fract_x
 _atom_site_fract_y
 _atom_site_fract_z
 _atom_site_occupancy
  Ba  Ba0  1  0.75010135  0.75010135  0.14921287  1
  Ba  Ba1  1  0.88475864  0.61537328  0.98504247  1
  Ba  Ba2  1  0.11504751  0.11504751  0.51496623  1
  Ba  Ba3  1  0.52859506  0.24595624  0.29251791  1
  Ba  Ba4  1  0.97125493  0.25445103  0.29202031  1
  Ba  Ba5  1  0.47138224  0.74571767  0.20803115  1
  Ba  Ba6  1  0.06912617  0.43063900  0.41043358  1
  Ba  Ba7  1  0.52861776  0.25428233  0.79196885  1
  Ba  Ba8  1  0.56936100  0.93087383  0.58956642  1
  Ba  Ba9  1  0.75404376  0.47140494  0.70748209  1
  Ba  Ba10  1  0.06901777  0.06901777  0.91042752  1
  Ba  Ba11  1  0.11524136  0.38462672  0.01495753  1
  Ba  Ba12  1  0.74554897  0.02874507  0.70797969  1
  Ba  Ba13  1  0.24595624  0.52859506  0.29251791  1
  Ba  Ba14  1  0.38462672  0.11524136  0.01495753  1
  Ba  Ba15  1  0.89723536  0.25490601  0.09009904  1
  Ba  Ba16  1  0.48697534  0.48697534  0.69140423  1
  Ba  Ba17  1  0.98704896  0.51269278  0.80853912  1
  Ba  Ba18  1  0.74571767  0.47138224  0.20803115  1
  Ba  Ba19  1  0.63173052  0.86831533  0.37208753  1
  Ba  Ba20  1  0.75432855  0.02851656  0.20753098  1
  Ba  Ba21  1  0.47140494  0.75404376  0.70748209  1
  Ba  Ba22  1  0.61550476  0.61550476  0.48505205  1
  Ba  Ba23  1  0.43063900  0.06912617  0.41043358  1
  Ba  Ba24  1  0.01295104  0.48730722  0.19146088  1
  Ba  Ba25  1  0.86836718  0.86836718  0.87190870  1
  Ba  Ba26  1  0.02874507  0.74554897  0.70797969  1
  Ba  Ba27  1  0.10276464  0.74509399  0.90990096  1
  Ba  Ba28  1  0.74998002  0.74998002  0.64925707  1
  Ba  Ba29  1  0.39725026  0.75494894  0.90974020  1
  Ba  Ba30  1  0.13163282  0.13163282  0.12809130  1
  Ba  Ba31  1  0.61537328  0.88475864  0.98504247  1
  Ba  Ba32  1  0.75528925  0.10256230  0.40973086  1
  Ba  Ba33  1  0.63176791  0.63176791  0.87221609  1
  Ba  Ba34  1  0.36823209  0.36823209  0.12778391  1
  Ba  Ba35  1  0.74509399  0.10276464  0.90990096  1
  Ba  Ba36  1  0.93098223  0.93098223  0.08957248  1
  Ba  Ba37  1  0.13168467  0.36826948  0.62791247  1
  Ba  Ba38  1  0.25445103  0.97125493  0.29202031  1
  Ba  Ba39  1  0.10256230  0.75528925  0.40973086  1
  Ba  Ba40  1  0.60286767  0.25458870  0.59008436  1
  Ba  Ba41  1  0.51269278  0.98704896  0.80853912  1
  Ba  Ba42  1  0.24505106  0.60274974  0.09025980  1
  Ba  Ba43  1  0.89743770  0.24471075  0.59026914  1
  Ba  Ba44  1  0.25428233  0.52861776  0.79196885  1
  Ba  Ba45  1  0.24471075  0.89743770  0.59026914  1
  Ba  Ba46  1  0.86831533  0.63173052  0.37208753  1
  Ba  Ba47  1  0.38449524  0.38449524  0.51494795  1
  Ba  Ba48  1  0.02851656  0.75432855  0.20753098  1
  Ba  Ba49  1  0.25001998  0.25001998  0.35074293  1
  Ba  Ba50  1  0.36826948  0.13168467  0.62791247  1
  Ba  Ba51  1  0.51302466  0.51302466  0.30859577  1
  Ba  Ba52  1  0.97148344  0.24567145  0.79246902  1
  Ba  Ba53  1  0.25458870  0.60286767  0.59008436  1
  Ba  Ba54  1  0.88495249  0.88495249  0.48503377  1
  Ba  Ba55  1  0.98736429  0.98736429  0.30851645  1
  Ba  Ba56  1  0.25490601  0.89723536  0.09009904  1
  Ba  Ba57  1  0.01263571  0.01263571  0.69148355  1
  Ba  Ba58  1  0.74541130  0.39713233  0.40991564  1
  Ba  Ba59  1  0.56949727  0.56949727  0.08936663  1
  Ba  Ba60  1  0.39713233  0.74541130  0.40991564  1
  Ba  Ba61  1  0.75494894  0.39725026  0.90974020  1
  Ba  Ba62  1  0.43050273  0.43050273  0.91063337  1
  Ba  Ba63  1  0.48730722  0.01295104  0.19146088  1
  Ba  Ba64  1  0.24989865  0.24989865  0.85078713  1
  Ba  Ba65  1  0.93087383  0.56936100  0.58956642  1
  Ba  Ba66  1  0.60274974  0.24505106  0.09025980  1
  Ba  Ba67  1  0.24567145  0.97148344  0.79246902  1
  Al  Al0  1  0.33591530  0.33591530  0.69649969  1
  Al  Al1  1  0.16397985  0.16397985  0.69655006  1
  Al  Al2  1  0.83596597  0.66402498  0.80342453  1
  Al  Al3  1  0.66402498  0.83596597  0.80342453  1
  Al  Al4  1  0.33597502  0.16403403  0.19657547  1
  Al  Al5  1  0.16403403  0.33597502  0.19657547  1
  Al  Al6  1  0.66408470  0.66408470  0.30350031  1
  Al  Al7  1  0.75003490  0.25015188  0.74999982  1
  Al  Al8  1  0.25015188  0.75003490  0.74999982  1
  Al  Al9  1  0.83602015  0.83602015  0.30344994  1
  Al  Al10  1  0.24996510  0.74984812  0.25000018  1
  Al  Al11  1  0.74984812  0.24996510  0.25000018  1
  O  O0  1  0.79708544  0.56748763  0.84997130  1
  O  O1  1  0.25007110  0.25007110  0.19814934  1
  O  O2  1  0.20300425  0.06744618  0.65009659  1
  O  O3  1  0.29703832  0.43248212  0.64996333  1
  O  O4  1  0.06744618  0.20300425  0.65009659  1
  O  O5  1  0.63408935  0.63408935  0.21300807  1
  O  O6  1  0.56748763  0.79708544  0.84997130  1
  O  O7  1  0.70301979  0.93251245  0.84985870  1
  O  O8  1  0.56751788  0.70296168  0.35003667  1
  O  O9  1  0.13403386  0.13403386  0.78709814  1
  O  O10  1  0.79699575  0.93255382  0.34990341  1
  O  O11  1  0.43251237  0.20291456  0.15002870  1
  O  O12  1  0.06748755  0.29698021  0.15014130  1
  O  O13  1  0.13403570  0.36587263  0.28712606  1
  O  O14  1  0.20291456  0.43251237  0.15002870  1
  O  O15  1  0.86596614  0.86596614  0.21290186  1
  O  O16  1  0.36591065  0.36591065  0.78699193  1
  O  O17  1  0.24996052  0.24996052  0.69812025  1
  O  O18  1  0.63412737  0.86596430  0.71287394  1
  O  O19  1  0.75003948  0.75003948  0.30187975  1
  O  O20  1  0.29698021  0.06748755  0.15014130  1
  O  O21  1  0.43248212  0.29703832  0.64996333  1
  O  O22  1  0.93251245  0.70301979  0.84985870  1
  O  O23  1  0.93255382  0.79699575  0.34990341  1
  O  O24  1  0.86596430  0.63412737  0.71287394  1
  O  O25  1  0.36587263  0.13403570  0.28712606  1
  O  O26  1  0.74992890  0.74992890  0.80185066  1
  O  O27  1  0.70296168  0.56751788  0.35003667  1
loop_
_geom_bond_atom_site_label_1
_geom_bond_atom_site_label_2
_geom_bond_distance
_geom_bond_site_symmetry_2
Ba0 O15 2.742593 1_555
Ba0 O5 2.745642 1_555
Ba0 O19 2.825942 1_555
Ba1 O0 2.920931 1_555
Ba1 O22 2.921300 1_555
Ba2 O4 2.922392 1_555
Ba2 O2 2.922392 1_555
Ba3 O25 2.985903 1_555
Ba3 O11 3.080537 1_555
Ba4 O13 2.982016 1_655
Ba4 O12 3.069553 1_655
Ba5 O5 2.982509 1_555
Ba5 O8 3.072012 1_555
Ba6 O13 2.669989 1_555
Ba7 O16 2.982509 1_555
Ba7 O21 3.072012 1_555
Ba8 O18 2.669989 1_555
Ba9 O24 2.985903 1_555
Ba9 O0 3.080537 1_555
Ba10 O9 2.672069 1_555
Ba11 O14 2.920931 1_555
Ba11 O12 2.921300 1_555
Ba12 O18 2.982016 1_545
Ba12 O7 3.069553 1_545
Ba13 O13 2.985903 1_555
Ba13 O14 3.080537 1_555
Ba14 O11 2.920931 1_555
Ba14 O20 2.921300 1_555
Ba15 O12 2.873740 1_655
Ba16 O21 3.082833 1_555
Ba16 O3 3.082833 1_555
Ba16 O16 3.133812 1_555
Ba17 O0 3.083845 1_555
Ba17 O22 3.087611 1_555
Ba17 O24 3.138165 1_555
Ba18 O5 2.982509 1_555
Ba18 O27 3.072012 1_555
Ba19 O10 2.710323 1_555
Ba19 O8 2.711263 1_555
Ba19 O19 2.841959 1_555
Ba20 O15 2.980861 1_545
Ba20 O10 3.076020 1_545
Ba21 O18 2.985903 1_555
Ba21 O6 3.080537 1_555
Ba22 O8 2.918365 1_555
Ba22 O27 2.918365 1_555
Ba23 O25 2.669989 1_555
Ba24 O14 3.083845 1_555
Ba24 O12 3.087611 1_555
Ba24 O13 3.138165 1_555
Ba25 O22 2.710469 1_555
Ba25 O7 2.710469 1_555
Ba25 O26 2.844161 1_555
Ba26 O24 2.982016 1_455
Ba26 O22 3.069553 1_455
Ba27 O22 2.873740 1_455
Ba28 O18 2.742390 1_555
Ba28 O24 2.742390 1_555
Ba28 O26 2.824586 1_555
Ba29 O6 2.871271 1_555
Ba30 O20 2.710469 1_555
Ba30 O12 2.710469 1_555
Ba30 O1 2.844161 1_555
Ba31 O6 2.920931 1_555
Ba31 O7 2.921300 1_555
Ba32 O10 2.867400 1_545
Ba33 O0 2.711231 1_555
Ba33 O6 2.711231 1_555
Ba33 O26 2.840802 1_555
Ba34 O14 2.711231 1_555
Ba34 O11 2.711231 1_555
Ba34 O1 2.840802 1_555
Ba35 O7 2.873740 1_545
Ba36 O15 2.672069 1_555
Ba37 O4 2.710323 1_555
Ba37 O3 2.711263 1_555
Ba37 O17 2.841959 1_555
Ba38 O25 2.982016 1_565
Ba38 O20 3.069553 1_565
Ba39 O23 2.867400 1_455
Ba40 O21 2.875039 1_555
Ba41 O6 3.083845 1_555
Ba41 O7 3.087611 1_555
Ba41 O18 3.138165 1_555
Ba42 O14 2.871271 1_555
Ba43 O4 2.867400 1_655
Ba44 O16 2.982509 1_555
Ba44 O3 3.072012 1_555
Ba45 O2 2.867400 1_565
Ba46 O23 2.710323 1_555
Ba46 O27 2.711263 1_555
Ba46 O19 2.841959 1_555
Ba47 O21 2.918365 1_555
Ba47 O3 2.918365 1_555
Ba48 O15 2.980861 1_455
Ba48 O23 3.076020 1_455
Ba49 O25 2.742390 1_555
Ba49 O13 2.742390 1_555
Ba49 O1 2.824586 1_555
Ba50 O2 2.710323 1_555
Ba50 O21 2.711263 1_555
Ba50 O17 2.841959 1_555
Ba51 O8 3.082833 1_555
Ba51 O27 3.082833 1_555
Ba51 O5 3.133812 1_555
Ba52 O9 2.980861 1_655
Ba52 O4 3.076020 1_655
Ba53 O3 2.875039 1_555
Ba54 O23 2.922392 1_555
Ba54 O10 2.922392 1_555
Ba55 O10 3.089550 1_555
Ba55 O23 3.089550 1_555
Ba55 O15 3.140849 1_555
Ba56 O20 2.873740 1_565
Ba57 O4 3.089550 1_555
Ba57 O2 3.089550 1_555
Ba57 O9 3.140849 1_555
Ba58 O27 2.875039 1_555
Ba59 O5 2.673022 1_555
Ba60 O8 2.875039 1_555
Ba61 O0 2.871271 1_555
Ba62 O16 2.673022 1_555
Ba63 O11 3.083845 1_555
Ba63 O20 3.087611 1_555
Ba63 O25 3.138165 1_555
Ba64 O9 2.742593 1_555
Ba64 O16 2.745642 1_555
Ba64 O17 2.825942 1_555
Ba65 O24 2.669989 1_555
Ba66 O11 2.871271 1_555
Ba67 O9 2.980861 1_565
Ba67 O2 3.076020 1_565
Al0 O21 1.793116 1_555
Al0 O3 1.793116 1_555
Al0 O16 1.793686 1_555
Al0 O17 1.837015 1_555
Al1 O4 1.792880 1_555
Al1 O2 1.792880 1_555
Al1 O9 1.793917 1_555
Al1 O17 1.837571 1_555
Al2 O0 1.792894 1_555
Al2 O22 1.792987 1_555
Al2 O24 1.794119 1_555
Al2 O26 1.837061 1_555
Al3 O6 1.792894 1_555
Al3 O7 1.792987 1_555
Al3 O18 1.794119 1_555
Al3 O26 1.837061 1_555
Al4 O11 1.792894 1_555
Al4 O20 1.792987 1_555
Al4 O25 1.794119 1_555
Al4 O1 1.837061 1_555
Al5 O14 1.792894 1_555
Al5 O12 1.792987 1_555
Al5 O13 1.794119 1_555
Al5 O1 1.837061 1_555
Al6 O27 1.793116 1_555
Al6 O8 1.793116 1_555
Al6 O5 1.793686 1_555
Al6 O19 1.837015 1_555
Al7 Ba9 3.434704 1_555
Al7 Ba7 3.434828 1_555
Al7 Ba12 3.435332 1_555
Al7 Ba52 3.437810 1_555
Al7 Ba61 3.700156 1_555
Al7 Ba43 3.702181 1_555
Al7 Ba40 3.703197 1_555
Al7 Ba35 3.704388 1_555
Al8 Ba21 3.434704 1_555
Al8 Ba44 3.434828 1_555
Al8 Ba26 3.435332 1_555
Al8 Ba67 3.437810 1_555
Al8 Ba29 3.700156 1_555
Al8 Ba45 3.702181 1_555
Al8 Ba53 3.703197 1_555
Al8 Ba27 3.704388 1_555
Al9 O23 1.792880 1_555
Al9 O10 1.792880 1_555
Al9 O15 1.793917 1_555
Al9 O19 1.837571 1_555
Al10 Ba13 3.434704 1_555
Al10 Ba5 3.434828 1_555
Al10 Ba38 3.435332 1_555
Al10 Ba48 3.437810 1_555
Al10 Ba42 3.700156 1_555
Al10 Ba39 3.702181 1_555
Al10 Ba60 3.703197 1_555
Al10 Ba56 3.704388 1_555
Al11 Ba3 3.434704 1_555
Al11 Ba18 3.434828 1_555
Al11 Ba4 3.435332 1_555
Al11 Ba20 3.437810 1_555
Al11 Ba66 3.700156 1_555
Al11 Ba32 3.702181 1_555
Al11 Ba58 3.703197 1_555
Al11 Ba15 3.704388 1_555
