# generated using pymatgen
data_Ca(La2Se3)4
_symmetry_space_group_name_H-M   'P 1'
_cell_length_a   9.10352610
_cell_length_b   9.10352610
_cell_length_c   15.05580557
_cell_angle_alpha   72.45851482
_cell_angle_beta   72.45851482
_cell_angle_gamma   89.98746770
_symmetry_Int_Tables_number   1
_chemical_formula_structural   Ca(La2Se3)4
_chemical_formula_sum   'Ca2 La16 Se24'
_cell_volume   1128.74425155
_cell_formula_units_Z   2
loop_
 _symmetry_equiv_pos_site_id
 _symmetry_equiv_pos_as_xyz
  1  'x, y, z'
loop_
 _atom_site_type_symbol
 _atom_site_label
 _atom_site_symmetry_multiplicity
 _atom_site_fract_x
 _atom_site_fract_y
 _atom_site_fract_z
 _atom_site_occupancy
  Ca  Ca0  1  0.04381800  0.91951500  0.16636700  1
  Ca  Ca1  1  0.91951500  0.04381800  0.66636700  1
  La  La0  1  0.74989700  0.12187300  0.00139700  1
  La  La1  1  0.45526300  0.70949900  0.08326300  1
  La  La2  1  0.08132100  0.45509300  0.33427100  1
  La  La3  1  0.37534700  0.12205700  0.25116900  1
  La  La4  1  0.79041200  0.41566000  0.16610600  1
  La  La5  1  0.58418500  0.70636400  0.33366200  1
  La  La6  1  0.79324500  0.03896700  0.41546600  1
  La  La7  1  0.37185000  0.24835800  0.50007000  1
  La  La8  1  0.41566000  0.79041200  0.66610600  1
  La  La9  1  0.70949900  0.45526300  0.58326300  1
  La  La10  1  0.12187300  0.74989700  0.50139700  1
  La  La11  1  0.12205700  0.37534700  0.75116900  1
  La  La12  1  0.70636400  0.58418500  0.83366200  1
  La  La13  1  0.03896700  0.79324500  0.91546600  1
  La  La14  1  0.24835800  0.37185000  0.00007000  1
  La  La15  1  0.45509300  0.08132100  0.83427100  1
  Se  Se0  1  0.54589100  0.39916200  0.05121700  1
  Se  Se1  1  0.76194700  0.76456900  0.11848500  1
  Se  Se2  1  0.40257000  0.05067900  0.05060900  1
  Se  Se3  1  0.28413200  0.78079700  0.28472700  1
  Se  Se4  1  0.43229400  0.43251400  0.28241200  1
  Se  Se5  1  0.11315400  0.61890600  0.11847300  1
  Se  Se6  1  0.71798700  0.06695100  0.21676600  1
  Se  Se7  1  0.88649700  0.73294000  0.38152100  1
  Se  Se8  1  0.06755600  0.21484500  0.21744300  1
  Se  Se9  1  0.09847500  0.09914000  0.45256200  1
  Se  Se10  1  0.73230600  0.37994500  0.38383400  1
  Se  Se11  1  0.61890600  0.11315400  0.61847300  1
  Se  Se12  1  0.76456900  0.76194700  0.61848500  1
  Se  Se13  1  0.45120000  0.94898900  0.44936500  1
  Se  Se14  1  0.05067900  0.40257000  0.55060900  1
  Se  Se15  1  0.21484500  0.06755600  0.71744300  1
  Se  Se16  1  0.39916200  0.54589100  0.55121700  1
  Se  Se17  1  0.43251400  0.43229400  0.78241200  1
  Se  Se18  1  0.06695100  0.71798700  0.71676600  1
  Se  Se19  1  0.94898900  0.45120000  0.94936500  1
  Se  Se20  1  0.09914000  0.09847500  0.95256200  1
  Se  Se21  1  0.78079700  0.28413200  0.78472700  1
  Se  Se22  1  0.37994500  0.73230600  0.88383400  1
  Se  Se23  1  0.73294000  0.88649700  0.88152100  1
loop_
_geom_bond_atom_site_label_1
_geom_bond_atom_site_label_2
_geom_bond_distance
_geom_bond_site_symmetry_2
Ca0 Se20 3.021875 1_564
Ca0 Se8 3.035291 1_565
Ca0 Se7 3.052406 1_455
Ca0 Se5 3.053154 1_555
Ca0 Se6 3.229719 1_465
Ca0 Se2 3.231966 1_565
Ca0 Se3 3.247860 1_555
Ca0 Se1 3.289900 1_455
Ca1 Se9 3.021875 1_655
Ca1 Se15 3.035291 1_655
Ca1 Se23 3.052406 1_545
Ca1 Se11 3.053154 1_555
Ca1 Se18 3.229719 1_645
Ca1 Se14 3.231966 1_655
Ca1 Se21 3.247860 1_555
Ca1 Se12 3.289900 1_545
La0 Se2 3.043992 1_555
La0 Se6 3.050169 1_555
La0 Se20 3.062547 1_654
La0 Se21 3.073276 1_554
La0 Se1 3.218675 1_545
La0 Se23 3.220542 1_544
La0 Se19 3.258471 1_554
La0 Se0 3.268552 1_555
La1 Se2 3.056097 1_565
La1 Se1 3.062778 1_555
La1 Se5 3.066437 1_555
La1 Se0 3.078260 1_555
La1 Se3 3.222809 1_555
La1 Se22 3.223938 1_554
La1 Se4 3.233714 1_555
La1 Se23 3.261191 1_554
La2 Se5 3.062020 1_555
La2 Se10 3.063320 1_455
La2 Se14 3.070669 1_555
La2 Se4 3.074601 1_555
La2 Se8 3.216351 1_555
La2 Se7 3.220499 1_455
La2 Se9 3.222616 1_555
La2 Se3 3.255117 1_555
La3 Se3 3.065659 1_545
La3 Se8 3.069285 1_555
La3 Se4 3.070300 1_555
La3 Se6 3.071091 1_555
La3 Se13 3.204845 1_545
La3 Se2 3.214525 1_555
La3 Se0 3.231630 1_555
La3 Se9 3.256132 1_555
La4 Se6 3.054841 1_555
La4 Se19 3.059638 1_554
La4 Se1 3.067405 1_555
La4 Se10 3.073050 1_555
La4 Se4 3.230921 1_555
La4 Se0 3.232247 1_555
La4 Se5 3.240761 1_655
La4 Se8 3.259852 1_655
La5 Se1 3.033209 1_555
La5 Se3 3.061802 1_555
La5 Se7 3.074501 1_555
La5 Se16 3.080737 1_555
La5 Se13 3.228879 1_555
La5 Se10 3.237006 1_555
La5 Se4 3.244474 1_555
La5 Se6 3.253263 1_565
La6 Se7 3.055967 1_545
La6 Se13 3.068946 1_545
La6 Se10 3.072036 1_555
La6 Se9 3.074667 1_655
La6 Se6 3.203104 1_555
La6 Se8 3.213206 1_655
La6 Se11 3.261371 1_555
La6 Se12 3.262449 1_545
La7 Se16 3.060118 1_555
La7 Se15 3.065456 1_555
La7 Se13 3.074537 1_545
La7 Se4 3.074734 1_555
La7 Se9 3.195401 1_555
La7 Se14 3.224817 1_555
La7 Se10 3.246807 1_555
La7 Se11 3.293043 1_555
La8 Se18 3.054841 1_555
La8 Se13 3.059638 1_555
La8 Se12 3.067405 1_555
La8 Se22 3.073050 1_555
La8 Se17 3.230921 1_555
La8 Se16 3.232247 1_555
La8 Se11 3.240761 1_565
La8 Se15 3.259852 1_565
La9 Se14 3.056097 1_655
La9 Se12 3.062778 1_555
La9 Se11 3.066437 1_555
La9 Se16 3.078260 1_555
La9 Se21 3.222809 1_555
La9 Se10 3.223938 1_555
La9 Se17 3.233714 1_555
La9 Se7 3.261191 1_555
La10 Se14 3.043992 1_555
La10 Se18 3.050169 1_555
La10 Se9 3.062547 1_565
La10 Se3 3.073276 1_555
La10 Se12 3.218675 1_455
La10 Se7 3.220542 1_455
La10 Se13 3.258471 1_555
La10 Se16 3.268552 1_555
La11 Se21 3.065659 1_455
La11 Se15 3.069285 1_555
La11 Se17 3.070300 1_555
La11 Se18 3.071091 1_555
La11 Se19 3.204845 1_455
La11 Se14 3.214525 1_555
La11 Se16 3.231630 1_555
La11 Se20 3.256132 1_555
La12 Se12 3.033209 1_555
La12 Se21 3.061802 1_555
La12 Se23 3.074501 1_555
La12 Se0 3.080737 1_556
La12 Se19 3.228879 1_555
La12 Se22 3.237006 1_555
La12 Se17 3.244474 1_555
La12 Se18 3.253263 1_655
La13 Se23 3.055967 1_455
La13 Se19 3.068946 1_455
La13 Se22 3.072036 1_555
La13 Se20 3.074667 1_565
La13 Se18 3.203104 1_555
La13 Se15 3.213206 1_565
La13 Se5 3.261371 1_556
La13 Se1 3.262449 1_456
La14 Se0 3.060118 1_555
La14 Se8 3.065456 1_555
La14 Se19 3.074537 1_454
La14 Se17 3.074734 1_554
La14 Se20 3.195401 1_554
La14 Se2 3.224817 1_555
La14 Se22 3.246807 1_554
La14 Se5 3.293043 1_555
La15 Se11 3.062020 1_555
La15 Se22 3.063320 1_545
La15 Se2 3.070669 1_556
La15 Se17 3.074601 1_555
La15 Se15 3.216351 1_555
La15 Se23 3.220499 1_545
La15 Se20 3.222616 1_555
La15 Se21 3.255117 1_555
