# generated using pymatgen
data_Ho2CdS4
_symmetry_space_group_name_H-M   'P 1'
_cell_length_a   7.92055684
_cell_length_b   7.92055684
_cell_length_c   7.92055660
_cell_angle_alpha   60.00000102
_cell_angle_beta   60.00000098
_cell_angle_gamma   60.00000071
_symmetry_Int_Tables_number   1
_chemical_formula_structural   Ho2CdS4
_chemical_formula_sum   'Ho4 Cd2 S8'
_cell_volume   351.35985778
_cell_formula_units_Z   2
loop_
 _symmetry_equiv_pos_site_id
 _symmetry_equiv_pos_as_xyz
  1  'x, y, z'
loop_
 _atom_site_type_symbol
 _atom_site_label
 _atom_site_symmetry_multiplicity
 _atom_site_fract_x
 _atom_site_fract_y
 _atom_site_fract_z
 _atom_site_occupancy
  Ho  Ho0  1  0.50000000  0.50000000  -0.00000000  1
  Ho  Ho1  1  0.50000000  0.50000000  0.50000000  1
  Ho  Ho2  1  -0.00000000  0.50000000  0.50000000  1
  Ho  Ho3  1  0.50000000  0.00000000  0.50000000  1
  Cd  Cd0  1  0.12500000  0.12500000  0.12500000  1
  Cd  Cd1  1  0.87500000  0.87500000  0.87500000  1
  S  S0  1  0.74256386  0.74256386  0.74256386  1
  S  S1  1  0.25743614  0.25743614  0.72769158  1
  S  S2  1  0.25743614  0.72769158  0.25743614  1
  S  S3  1  0.72769158  0.25743614  0.25743614  1
  S  S4  1  0.74256386  0.27230842  0.74256386  1
  S  S5  1  0.27230842  0.74256386  0.74256386  1
  S  S6  1  0.25743614  0.25743614  0.25743614  1
  S  S7  1  0.74256386  0.74256386  0.27230842  1
loop_
_geom_bond_atom_site_label_1
_geom_bond_atom_site_label_2
_geom_bond_distance
_geom_bond_site_symmetry_2
Ho0 S2 2.719597 1_555
Ho0 S4 2.719597 1_554
Ho0 S5 2.719597 1_554
Ho0 S3 2.719597 1_555
Ho0 S0 2.719597 1_554
Ho0 S6 2.719597 1_555
Ho1 S4 2.719597 1_555
Ho1 S2 2.719597 1_555
Ho1 S5 2.719597 1_555
Ho1 S3 2.719597 1_555
Ho1 S7 2.719597 1_555
Ho1 S1 2.719597 1_555
Ho2 S0 2.719597 1_455
Ho2 S6 2.719597 1_555
Ho2 S7 2.719597 1_455
Ho2 S1 2.719597 1_555
Ho2 S4 2.719597 1_455
Ho2 S2 2.719597 1_555
Ho3 S0 2.719597 1_545
Ho3 S1 2.719597 1_555
Ho3 S7 2.719597 1_545
Ho3 S6 2.719597 1_555
Ho3 S3 2.719597 1_555
Ho3 S5 2.719597 1_545
Cd0 S6 2.569436 1_555
Cd0 S1 2.569436 1_554
Cd0 S3 2.569436 1_455
Cd0 S2 2.569436 1_545
Cd1 S7 2.569436 1_556
Cd1 S0 2.569436 1_555
Cd1 S5 2.569436 1_655
Cd1 S4 2.569436 1_565
