# generated using pymatgen
data_KCaNd(PO4)2
_symmetry_space_group_name_H-M   'P 1'
_cell_length_a   7.09125167
_cell_length_b   7.09125167
_cell_length_c   12.90141300
_cell_angle_alpha   90.00000000
_cell_angle_beta   90.00000000
_cell_angle_gamma   119.99999696
_symmetry_Int_Tables_number   1
_chemical_formula_structural   KCaNd(PO4)2
_chemical_formula_sum   'K3 Ca3 Nd3 P6 O24'
_cell_volume   561.84137889
_cell_formula_units_Z   3
loop_
 _symmetry_equiv_pos_site_id
 _symmetry_equiv_pos_as_xyz
  1  'x, y, z'
loop_
 _atom_site_type_symbol
 _atom_site_label
 _atom_site_symmetry_multiplicity
 _atom_site_fract_x
 _atom_site_fract_y
 _atom_site_fract_z
 _atom_site_occupancy
  K  K0  1  0.00000000  0.00000000  0.24721000  1
  K  K1  1  0.00000000  0.00000000  0.58054400  1
  K  K2  1  0.00000000  0.00000000  0.91387700  1
  Ca  Ca0  1  0.00000000  0.50000000  0.83144200  1
  Ca  Ca1  1  0.50000000  0.50000000  0.16477500  1
  Ca  Ca2  1  0.50000000  0.00000000  0.49810800  1
  Nd  Nd0  1  0.50000000  0.50000000  0.66845800  1
  Nd  Nd1  1  0.50000000  0.00000000  0.00179100  1
  Nd  Nd2  1  0.00000000  0.50000000  0.33512500  1
  P  P0  1  0.50000000  0.50000000  0.41908800  1
  P  P1  1  0.50000000  0.50000000  0.91468700  1
  P  P2  1  0.50000000  0.00000000  0.24802000  1
  P  P3  1  0.50000000  0.00000000  0.75242200  1
  P  P4  1  0.00000000  0.50000000  0.08575500  1
  P  P5  1  0.00000000  0.50000000  0.58135400  1
  O  O0  1  0.13418600  0.69722600  0.01314100  1
  O  O1  1  0.13559800  0.69665200  0.50804500  1
  O  O2  1  0.30209200  0.86569900  0.32018100  1
  O  O3  1  0.30392200  0.86455900  0.82652400  1
  O  O4  1  0.13544100  0.43936300  0.15985700  1
  O  O5  1  0.13430100  0.43639300  0.65351400  1
  O  O6  1  0.30277400  0.43696100  0.34647400  1
  O  O7  1  0.30334800  0.43894600  0.84137800  1
  O  O8  1  0.56105400  0.86440200  0.17471200  1
  O  O9  1  0.56303900  0.86581400  0.67980700  1
  O  O10  1  0.56063700  0.69607800  0.49319100  1
  O  O11  1  0.56360700  0.69790800  0.98684700  1
  O  O12  1  0.43936300  0.30392200  0.49319100  1
  O  O13  1  0.43639300  0.30209200  0.98684700  1
  O  O14  1  0.43894600  0.13559800  0.17471200  1
  O  O15  1  0.43696100  0.13418600  0.67980700  1
  O  O16  1  0.69722600  0.56303900  0.34647400  1
  O  O17  1  0.69665200  0.56105400  0.84137800  1
  O  O18  1  0.86455900  0.56063700  0.15985700  1
  O  O19  1  0.86569900  0.56360700  0.65351400  1
  O  O20  1  0.69790800  0.13430100  0.32018100  1
  O  O21  1  0.69607800  0.13544100  0.82652400  1
  O  O22  1  0.86440200  0.30334800  0.50804500  1
  O  O23  1  0.86581400  0.30277400  0.01314100  1
loop_
_geom_bond_atom_site_label_1
_geom_bond_atom_site_label_2
_geom_bond_distance
_geom_bond_site_symmetry_2
K0 O2 2.902156 1_545
K0 O20 2.902156 1_455
K0 O14 2.914647 1_555
K0 O8 2.914647 1_445
K0 O4 2.984512 1_555
K0 O18 2.984512 1_445
K0 O6 3.032878 1_555
K0 O16 3.032878 1_445
K1 O19 2.902152 1_445
K1 O5 2.902152 1_555
K1 O22 2.914651 1_455
K1 O1 2.914651 1_545
K1 O12 2.984512 1_555
K1 O10 2.984512 1_445
K1 O15 3.032874 1_555
K1 O9 3.032874 1_445
K2 O13 2.902152 1_555
K2 O11 2.902152 1_445
K2 O7 2.914651 1_555
K2 O17 2.914651 1_445
K2 O3 2.984511 1_545
K2 O21 2.984511 1_455
K2 O0 3.032873 1_546
K2 O23 3.032873 1_456
Ca0 O3 2.400097 1_555
Ca0 O21 2.400097 1_455
Ca0 O7 2.400522 1_555
Ca0 O17 2.400522 1_455
Ca0 O19 2.609489 1_455
Ca0 O5 2.609489 1_555
Ca0 O0 2.650623 1_556
Ca0 O23 2.650623 1_456
Ca1 O4 2.400097 1_555
Ca1 O18 2.400097 1_555
Ca1 O14 2.400523 1_555
Ca1 O8 2.400523 1_555
Ca1 O11 2.609489 1_554
Ca1 O13 2.609489 1_554
Ca1 O6 2.650624 1_555
Ca1 O16 2.650624 1_555
Ca2 O12 2.400097 1_555
Ca2 O10 2.400097 1_545
Ca2 O22 2.400523 1_555
Ca2 O1 2.400523 1_545
Ca2 O20 2.609478 1_555
Ca2 O2 2.609478 1_545
Ca2 O9 2.650621 1_545
Ca2 O15 2.650621 1_555
Nd0 O15 2.406428 1_555
Nd0 O9 2.406428 1_555
Nd0 O5 2.407475 1_555
Nd0 O19 2.407475 1_555
Nd0 O17 2.550553 1_555
Nd0 O7 2.550553 1_555
Nd0 O10 2.575524 1_555
Nd0 O12 2.575524 1_555
Nd1 O23 2.406427 1_555
Nd1 O0 2.406427 1_545
Nd1 O13 2.407475 1_554
Nd1 O11 2.407475 1_544
Nd1 O8 2.550564 1_545
Nd1 O14 2.550564 1_555
Nd1 O21 2.575524 1_554
Nd1 O3 2.575524 1_544
Nd2 O16 2.406421 1_455
Nd2 O6 2.406421 1_555
Nd2 O2 2.407475 1_555
Nd2 O20 2.407475 1_455
Nd2 O1 2.550553 1_555
Nd2 O22 2.550553 1_455
Nd2 O18 2.575535 1_455
Nd2 O4 2.575535 1_555
O0 P4 1.551866 1_555
O1 P5 1.556556 1_555
O2 P2 1.551364 1_565
O3 P3 1.560228 1_565
O4 P4 1.560227 1_555
O5 P5 1.551356 1_555
O6 P0 1.551868 1_555
O7 P1 1.556556 1_555
O8 P2 1.556548 1_565
O9 P3 1.551870 1_565
O10 P0 1.560235 1_555
O11 P1 1.551356 1_555
O12 P0 1.560235 1_555
O13 P1 1.551356 1_555
O14 P2 1.556548 1_555
O15 P3 1.551870 1_555
O16 P0 1.551868 1_555
O17 P1 1.556556 1_555
O18 P4 1.560227 1_655
O19 P5 1.551356 1_655
O20 P2 1.551364 1_555
O21 P3 1.560228 1_555
O22 P5 1.556556 1_655
O23 P4 1.551866 1_655
