# generated using pymatgen
data_Hf(MoO4)2
_symmetry_space_group_name_H-M   'P 1'
_cell_length_a   10.36959328
_cell_length_b   10.36959328
_cell_length_c   9.57771900
_cell_angle_alpha   90.00000000
_cell_angle_beta   90.00000000
_cell_angle_gamma   119.99999541
_symmetry_Int_Tables_number   1
_chemical_formula_structural   Hf(MoO4)2
_chemical_formula_sum   'Hf6 Mo12 O48'
_cell_volume   891.90005008
_cell_formula_units_Z   6
loop_
 _symmetry_equiv_pos_site_id
 _symmetry_equiv_pos_as_xyz
  1  'x, y, z'
loop_
 _atom_site_type_symbol
 _atom_site_label
 _atom_site_symmetry_multiplicity
 _atom_site_fract_x
 _atom_site_fract_y
 _atom_site_fract_z
 _atom_site_occupancy
  Hf  Hf0  1  0.66666700  0.33333300  0.53039000  1
  Hf  Hf1  1  0.00000000  0.00000000  0.25000000  1
  Hf  Hf2  1  0.33333300  0.66666700  0.03039000  1
  Hf  Hf3  1  0.66666700  0.33333300  0.96961000  1
  Hf  Hf4  1  0.00000000  0.00000000  0.75000000  1
  Hf  Hf5  1  0.33333300  0.66666700  0.46961000  1
  Mo  Mo0  1  0.34596900  0.00875400  0.75792600  1
  Mo  Mo1  1  0.66278500  0.65403100  0.75792600  1
  Mo  Mo2  1  0.33721500  0.34596900  0.24207400  1
  Mo  Mo3  1  0.65403100  0.99124600  0.24207400  1
  Mo  Mo4  1  0.34596900  0.33721500  0.74207400  1
  Mo  Mo5  1  0.00875400  0.66278500  0.24207400  1
  Mo  Mo6  1  0.99124600  0.33721500  0.75792600  1
  Mo  Mo7  1  0.65403100  0.66278500  0.25792600  1
  Mo  Mo8  1  0.00875400  0.34596900  0.25792600  1
  Mo  Mo9  1  0.66278500  0.00875400  0.74207400  1
  Mo  Mo10  1  0.99124600  0.65403100  0.74207400  1
  Mo  Mo11  1  0.33721500  0.99124600  0.25792600  1
  O  O0  1  0.49888300  0.18122200  0.86325500  1
  O  O1  1  0.74134800  0.10792900  0.10369200  1
  O  O2  1  0.98256100  0.80439900  0.84086500  1
  O  O3  1  0.81877800  0.31766100  0.86325500  1
  O  O4  1  0.39434200  0.91082600  0.63548400  1
  O  O5  1  0.89207100  0.25865200  0.39630800  1
  O  O6  1  0.36658100  0.10792900  0.39630800  1
  O  O7  1  0.48351500  0.39434200  0.36451600  1
  O  O8  1  0.82183800  0.01743900  0.84086500  1
  O  O9  1  0.17816200  0.19560100  0.34086500  1
  O  O10  1  0.60565800  0.51648500  0.13548400  1
  O  O11  1  0.51648500  0.91082600  0.86451600  1
  O  O12  1  0.68233900  0.50111700  0.86325500  1
  O  O13  1  0.01743900  0.19560100  0.15913500  1
  O  O14  1  0.08917400  0.60565800  0.86451600  1
  O  O15  1  0.48351500  0.08917400  0.13548400  1
  O  O16  1  0.39434200  0.48351500  0.86451600  1
  O  O17  1  0.19560100  0.01743900  0.65913500  1
  O  O18  1  0.91082600  0.51648500  0.36451600  1
  O  O19  1  0.50111700  0.81877800  0.13674500  1
  O  O20  1  0.25865200  0.36658100  0.60369200  1
  O  O21  1  0.63341900  0.74134800  0.89630800  1
  O  O22  1  0.89207100  0.63341900  0.10369200  1
  O  O23  1  0.49888300  0.31766100  0.63674500  1
  O  O24  1  0.80439900  0.82183800  0.15913500  1
  O  O25  1  0.19560100  0.17816200  0.84086500  1
  O  O26  1  0.91082600  0.39434200  0.13548400  1
  O  O27  1  0.80439900  0.98256100  0.34086500  1
  O  O28  1  0.68233900  0.18122200  0.63674500  1
  O  O29  1  0.63341900  0.89207100  0.60369200  1
  O  O30  1  0.18122200  0.68233900  0.13674500  1
  O  O31  1  0.74134800  0.63341900  0.39630800  1
  O  O32  1  0.17816200  0.98256100  0.15913500  1
  O  O33  1  0.01743900  0.82183800  0.34086500  1
  O  O34  1  0.18122200  0.49888300  0.36325500  1
  O  O35  1  0.51648500  0.60565800  0.63548400  1
  O  O36  1  0.82183800  0.80439900  0.65913500  1
  O  O37  1  0.31766100  0.81877800  0.36325500  1
  O  O38  1  0.10792900  0.74134800  0.60369200  1
  O  O39  1  0.50111700  0.68233900  0.36325500  1
  O  O40  1  0.10792900  0.36658100  0.89630800  1
  O  O41  1  0.08917400  0.48351500  0.63548400  1
  O  O42  1  0.98256100  0.17816200  0.65913500  1
  O  O43  1  0.81877800  0.50111700  0.63674500  1
  O  O44  1  0.31766100  0.49888300  0.13674500  1
  O  O45  1  0.36658100  0.25865200  0.10369200  1
  O  O46  1  0.25865200  0.89207100  0.89630800  1
  O  O47  1  0.60565800  0.08917400  0.36451600  1
loop_
_geom_bond_atom_site_label_1
_geom_bond_atom_site_label_2
_geom_bond_distance
_geom_bond_site_symmetry_2
Hf0 O28 1.951496 1_555
Hf0 O43 1.951501 1_555
Hf0 O23 1.951505 1_555
Hf1 O32 2.130097 1_545
Hf1 O33 2.130097 1_545
Hf1 O13 2.130097 1_555
Hf1 O27 2.130097 1_445
Hf1 O9 2.130097 1_555
Hf1 O24 2.130097 1_445
Hf2 O30 1.951496 1_555
Hf2 O19 1.951501 1_555
Hf2 O44 1.951505 1_555
Hf3 O3 1.951496 1_555
Hf3 O0 1.951501 1_555
Hf3 O12 1.951505 1_555
Hf4 O42 2.130097 1_455
Hf4 O8 2.130097 1_455
Hf4 O17 2.130097 1_555
Hf4 O2 2.130097 1_445
Hf4 O36 2.130097 1_445
Hf4 O25 2.130097 1_555
Hf5 O37 1.951496 1_555
Hf5 O34 1.951501 1_555
Hf5 O39 1.951505 1_555
Mo0 O46 1.716076 1_545
Mo0 O4 1.779727 1_545
Mo0 O17 1.864160 1_555
Mo0 O0 1.973484 1_555
Mo1 O21 1.716075 1_555
Mo1 O35 1.779720 1_555
Mo1 O36 1.864160 1_555
Mo1 O12 1.973484 1_555
Mo2 O45 1.716075 1_555
Mo2 O7 1.779720 1_555
Mo2 O9 1.864160 1_555
Mo2 O44 1.973484 1_555
Mo3 O1 1.716076 1_565
Mo3 O47 1.779727 1_565
Mo3 O27 1.864160 1_555
Mo3 O19 1.973484 1_555
Mo4 O20 1.716075 1_555
Mo4 O16 1.779720 1_555
Mo4 O25 1.864160 1_555
Mo4 O23 1.973484 1_555
Mo5 O22 1.716075 1_455
Mo5 O18 1.779721 1_455
Mo5 O33 1.864160 1_555
Mo5 O30 1.973484 1_555
Mo6 O40 1.716075 1_655
Mo6 O41 1.779721 1_655
Mo6 O42 1.864160 1_555
Mo6 O3 1.973484 1_555
Mo7 O31 1.716075 1_555
Mo7 O10 1.779720 1_555
Mo7 O24 1.864160 1_555
Mo7 O39 1.973484 1_555
Mo8 O5 1.716076 1_455
Mo8 O26 1.779727 1_455
Mo8 O13 1.864160 1_555
Mo8 O34 1.973484 1_555
Mo9 O29 1.716075 1_545
Mo9 O11 1.779721 1_545
Mo9 O8 1.864160 1_555
Mo9 O28 1.973484 1_555
Mo10 O38 1.716076 1_655
Mo10 O14 1.779727 1_655
Mo10 O2 1.864160 1_555
Mo10 O43 1.973484 1_555
Mo11 O6 1.716075 1_565
Mo11 O15 1.779721 1_565
Mo11 O32 1.864160 1_555
Mo11 O37 1.973484 1_555
