# generated using pymatgen
data_Na19Zr11S30
_symmetry_space_group_name_H-M   'P 1'
_cell_length_a   6.63248669
_cell_length_b   66.46928390
_cell_length_c   10.40958669
_cell_angle_alpha   41.82085890
_cell_angle_beta   57.80684258
_cell_angle_gamma   60.08240450
_symmetry_Int_Tables_number   1
_chemical_formula_structural   Na19Zr11S30
_chemical_formula_sum   'Na38 Zr22 S60'
_cell_volume   2547.17590562
_cell_formula_units_Z   2
loop_
 _symmetry_equiv_pos_site_id
 _symmetry_equiv_pos_as_xyz
  1  'x, y, z'
loop_
 _atom_site_type_symbol
 _atom_site_label
 _atom_site_symmetry_multiplicity
 _atom_site_fract_x
 _atom_site_fract_y
 _atom_site_fract_z
 _atom_site_occupancy
  Na  Na0  1  0.16215421  0.01846207  0.49397719  1
  Na  Na1  1  0.15933495  0.11725908  0.50584746  1
  Na  Na2  1  0.50582777  0.05042454  0.49591753  1
  Na  Na3  1  0.00000000  0.10000000  0.00000000  1
  Na  Na4  1  0.16199066  0.21841340  0.49448598  1
  Na  Na5  1  0.49417223  0.14957546  0.50408247  1
  Na  Na6  1  0.84066505  0.08274092  0.49415254  1
  Na  Na7  1  0.15882539  0.31816325  0.49990153  1
  Na  Na8  1  0.50577355  0.25039337  0.49614250  1
  Na  Na9  1  0.83784579  0.18153793  0.50602281  1
  Na  Na10  1  0.00025764  0.29997488  0.99976584  1
  Na  Na11  1  0.15896463  0.41818968  0.50016382  1
  Na  Na12  1  0.50000088  0.34998345  0.50013816  1
  Na  Na13  1  0.84031945  0.28256684  0.49468804  1
  Na  Na14  1  0.00016849  0.39997564  0.99998181  1
  Na  Na15  1  0.15889868  0.51821486  0.50001453  1
  Na  Na16  1  0.49997941  0.44997599  0.50013097  1
  Na  Na17  1  0.84107385  0.38175391  0.50021149  1
  Na  Na18  1  0.00001508  0.49999697  0.00000040  1
  Na  Na19  1  0.15890812  0.61821966  0.49998115  1
  Na  Na20  1  0.50000416  0.54999776  0.50001177  1
  Na  Na21  1  0.84111694  0.48177406  0.50004683  1
  Na  Na22  1  0.00000000  0.60000000  0.00000000  1
  Na  Na23  1  0.15888306  0.71822594  0.49995317  1
  Na  Na24  1  0.49999584  0.65000224  0.49998823  1
  Na  Na25  1  0.84109188  0.58178034  0.50001885  1
  Na  Na26  1  0.99998492  0.70000303  -0.00000040  1
  Na  Na27  1  0.15892615  0.81824609  0.49978851  1
  Na  Na28  1  0.50002059  0.75002401  0.49986903  1
  Na  Na29  1  0.84110132  0.68178514  0.49998547  1
  Na  Na30  1  0.99983151  0.80002436  0.00001819  1
  Na  Na31  1  0.15968055  0.91743316  0.50531196  1
  Na  Na32  1  0.49999912  0.85001655  0.49986184  1
  Na  Na33  1  0.84103537  0.78181032  0.49983618  1
  Na  Na34  1  0.99974236  0.90002512  0.00023416  1
  Na  Na35  1  0.49422645  0.94960663  0.50385750  1
  Na  Na36  1  0.84117461  0.88183675  0.50009847  1
  Na  Na37  1  0.83800934  0.98158660  0.50551402  1
  Zr  Zr0  1  0.99851890  0.00032220  0.99991971  1
  Zr  Zr1  1  0.33166342  0.03359622  0.00009954  1
  Zr  Zr2  1  0.33419346  0.13322650  0.00005583  1
  Zr  Zr3  1  0.66580654  0.06677350  0.99994417  1
  Zr  Zr4  1  0.33114070  0.23367701  0.00040240  1
  Zr  Zr5  1  0.66833658  0.16640378  0.99990046  1
  Zr  Zr6  1  0.33438471  0.33309003  0.99989665  1
  Zr  Zr7  1  0.67006353  0.26592559  0.99978782  1
  Zr  Zr8  1  0.00148110  0.19967780  0.00008029  1
  Zr  Zr9  1  0.33209817  0.43356468  0.00011024  1
  Zr  Zr10  1  0.66798261  0.36634662  0.00023652  1
  Zr  Zr11  1  0.33207506  0.53358409  0.00000453  1
  Zr  Zr12  1  0.66803254  0.46638198  0.00002823  1
  Zr  Zr13  1  0.33201603  0.63359877  0.99998896  1
  Zr  Zr14  1  0.66798397  0.56640123  0.00001104  1
  Zr  Zr15  1  0.33196746  0.73361802  0.99997177  1
  Zr  Zr16  1  0.66792494  0.66641591  0.99999547  1
  Zr  Zr17  1  0.33201739  0.83365338  0.99976348  1
  Zr  Zr18  1  0.66790183  0.76643532  0.99988976  1
  Zr  Zr19  1  0.32993647  0.93407441  0.00021218  1
  Zr  Zr20  1  0.66561529  0.86690997  0.00010335  1
  Zr  Zr21  1  0.66885930  0.96632299  0.99959760  1
  S  S0  1  0.59163806  0.01104535  0.22090202  1
  S  S1  1  0.28080859  0.07754938  0.22446267  1
  S  S2  1  0.07702914  0.05526057  0.77904218  1
  S  S3  1  0.56562372  0.11372294  0.22471826  1
  S  S4  1  0.92768124  0.04133334  0.22464838  1
  S  S5  1  0.26316418  0.17804858  0.21910587  1
  S  S6  1  0.73683582  0.02195142  0.78089413  1
  S  S7  1  0.07231876  0.15866666  0.77535162  1
  S  S8  1  0.43437628  0.08627706  0.77528174  1
  S  S9  1  0.59209938  0.21088852  0.22168589  1
  S  S10  1  0.92297086  0.14473943  0.22095782  1
  S  S11  1  0.28721928  0.27717708  0.22203880  1
  S  S12  1  0.71919141  0.12245062  0.77553733  1
  S  S13  1  0.07748664  0.25515746  0.77921186  1
  S  S14  1  0.40836194  0.18895465  0.77909798  1
  S  S15  1  0.56425790  0.31360174  0.22376351  1
  S  S16  1  0.92838972  0.24121695  0.22511232  1
  S  S17  1  0.28614321  0.37779552  0.22187024  1
  S  S18  1  0.73705478  0.22192166  0.78083700  1
  S  S19  1  0.07498345  0.35821966  0.77798195  1
  S  S20  1  0.43383460  0.28605796  0.77627791  1
  S  S21  1  0.56455905  0.41386272  0.22242007  1
  S  S22  1  0.92724188  0.34162510  0.22195192  1
  S  S23  1  0.28602003  0.47781448  0.22190803  1
  S  S24  1  0.71909074  0.32160225  0.77763296  1
  S  S25  1  0.07445503  0.45833102  0.77765263  1
  S  S26  1  0.43571718  0.38585215  0.77869663  1
  S  S27  1  0.56451905  0.51387630  0.22234869  1
  S  S28  1  0.92556810  0.44165690  0.22241988  1
  S  S29  1  0.28600881  0.57781570  0.22189932  1
  S  S30  1  0.71419669  0.42211810  0.77829481  1
  S  S31  1  0.07442668  0.55833926  0.77762532  1
  S  S32  1  0.43552093  0.48611704  0.77763757  1
  S  S33  1  0.56451356  0.61387740  0.22233310  1
  S  S34  1  0.92556145  0.54166377  0.22236226  1
  S  S35  1  0.28602000  0.67781491  0.22189681  1
  S  S36  1  0.71398000  0.52218509  0.77810319  1
  S  S37  1  0.07443855  0.65833623  0.77763774  1
  S  S38  1  0.43548644  0.58612260  0.77766690  1
  S  S39  1  0.56447907  0.71388296  0.22236243  1
  S  S40  1  0.92557332  0.64166074  0.22237468  1
  S  S41  1  0.28580331  0.77788190  0.22170519  1
  S  S42  1  0.71399119  0.62218430  0.77810068  1
  S  S43  1  0.07443190  0.75834310  0.77758012  1
  S  S44  1  0.43548095  0.68612370  0.77765131  1
  S  S45  1  0.56428282  0.81414785  0.22130337  1
  S  S46  1  0.92554497  0.74166898  0.22234737  1
  S  S47  1  0.28090926  0.87839775  0.22236704  1
  S  S48  1  0.71397997  0.72218552  0.77809197  1
  S  S49  1  0.07275812  0.85837490  0.77804808  1
  S  S50  1  0.43544095  0.78613728  0.77757993  1
  S  S51  1  0.56616540  0.91394204  0.22372209  1
  S  S52  1  0.92501655  0.84178034  0.22201805  1
  S  S53  1  0.26294522  0.97807834  0.21916300  1
  S  S54  1  0.71385679  0.82220448  0.77812976  1
  S  S55  1  0.07161028  0.95878305  0.77488768  1
  S  S56  1  0.43574210  0.88639826  0.77623649  1
  S  S57  1  0.92251336  0.94484254  0.22078814  1
  S  S58  1  0.71278072  0.92282292  0.77796120  1
  S  S59  1  0.40790062  0.98911148  0.77831411  1
loop_
_geom_bond_atom_site_label_1
_geom_bond_atom_site_label_2
_geom_bond_distance
_geom_bond_site_symmetry_2
Na0 S55 2.804154 1_545
Na0 S1 2.867584 1_555
Na0 S6 2.886872 1_455
Na0 S0 2.915039 1_555
Na0 S4 2.919706 1_455
Na0 S59 2.930078 1_545
Na1 S3 2.805588 1_555
Na1 S12 2.868590 1_455
Na1 S5 2.884375 1_555
Na1 S2 2.913829 1_555
Na1 S8 2.920733 1_555
Na1 S10 2.934701 1_455
Na2 S1 2.771082 1_555
Na2 S6 2.883056 1_555
Na2 S59 2.902104 1_545
Na2 S2 2.906291 1_555
Na2 S3 2.932107 1_555
Na2 S4 2.933515 1_555
Na3 S1 2.796936 1_555
Na3 S12 2.796936 1_454
Na3 S3 2.825237 1_455
Na3 S8 2.825237 1_554
Na3 S4 2.825583 1_455
Na3 S7 2.825583 1_554
Na4 S7 2.805462 1_555
Na4 S11 2.864462 1_555
Na4 S18 2.882971 1_455
Na4 S16 2.917646 1_455
Na4 S9 2.917864 1_555
Na4 S14 2.932941 1_555
Na5 S12 2.771082 1_555
Na5 S5 2.883056 1_555
Na5 S9 2.902104 1_555
Na5 S10 2.906291 1_555
Na5 S8 2.932107 1_555
Na5 S7 2.933515 1_555
Na6 S8 2.805588 1_555
Na6 S1 2.868590 1_655
Na6 S6 2.884375 1_555
Na6 S10 2.913829 1_555
Na6 S3 2.920733 1_555
Na6 S2 2.934701 1_655
Na7 S15 2.799095 1_555
Na7 S24 2.872640 1_455
Na7 S17 2.904614 1_555
Na7 S20 2.952290 1_555
Na7 S13 2.952495 1_555
Na7 S22 2.963696 1_455
Na8 S11 2.770164 1_555
Na8 S18 2.882039 1_555
Na8 S13 2.902852 1_555
Na8 S14 2.906260 1_555
Na8 S15 2.922352 1_555
Na8 S16 2.936252 1_555
Na9 S16 2.804154 1_555
Na9 S12 2.867584 1_555
Na9 S5 2.886872 1_655
Na9 S14 2.915039 1_555
Na9 S7 2.919706 1_655
Na9 S9 2.930078 1_555
Na10 S24 2.803061 1_455
Na10 S11 2.803903 1_556
Na10 S19 2.817269 1_555
Na10 S20 2.821874 1_555
Na10 S15 2.823116 1_456
Na10 S16 2.827369 1_456
Na11 S21 2.803311 1_555
Na11 S19 2.807079 1_555
Na11 S30 2.900077 1_455
Na11 S23 2.903059 1_555
Na11 S28 2.971032 1_455
Na11 S26 2.973632 1_555
Na12 S17 2.757001 1_555
Na12 S24 2.762348 1_555
Na12 S19 2.957063 1_555
Na12 S21 2.961183 1_555
Na12 S22 2.967812 1_555
Na12 S20 2.970082 1_555
Na13 S22 2.775786 1_555
Na13 S20 2.807765 1_555
Na13 S18 2.876588 1_555
Na13 S11 2.908863 1_655
Na13 S15 2.936825 1_555
Na13 S13 2.937474 1_655
Na14 S30 2.811769 1_455
Na14 S17 2.812379 1_556
Na14 S22 2.817627 1_456
Na14 S25 2.820599 1_555
Na14 S21 2.820973 1_456
Na14 S26 2.821319 1_555
Na15 S27 2.803191 1_555
Na15 S25 2.804126 1_555
Na15 S36 2.901195 1_455
Na15 S29 2.902253 1_555
Na15 S34 2.970466 1_455
Na15 S32 2.970697 1_555
Na16 S23 2.756466 1_555
Na16 S30 2.756749 1_555
Na16 S25 2.959634 1_555
Na16 S28 2.959929 1_555
Na16 S27 2.962117 1_555
Na16 S26 2.971679 1_555
Na17 S26 2.801399 1_555
Na17 S28 2.804988 1_555
Na17 S17 2.902755 1_655
Na17 S24 2.916832 1_555
Na17 S21 2.971257 1_555
Na17 S19 2.971868 1_655
Na18 S36 2.812566 1_454
Na18 S23 2.812641 1_555
Na18 S28 2.819905 1_455
Na18 S27 2.819948 1_455
Na18 S31 2.820068 1_554
Na18 S32 2.820071 1_554
Na19 S33 2.803142 1_555
Na19 S31 2.804035 1_555
Na19 S42 2.901237 1_455
Na19 S35 2.902030 1_555
Na19 S40 2.970283 1_455
Na19 S38 2.970987 1_555
Na20 S36 2.756050 1_555
Na20 S29 2.756197 1_555
Na20 S34 2.959903 1_555
Na20 S31 2.959940 1_555
Na20 S33 2.961162 1_555
Na20 S32 2.961252 1_555
Na21 S32 2.802783 1_555
Na21 S34 2.804356 1_555
Na21 S23 2.901191 1_655
Na21 S30 2.904267 1_555
Na21 S25 2.970234 1_655
Na21 S27 2.971079 1_555
Na22 S29 2.812543 1_555
Na22 S42 2.812543 1_454
Na22 S33 2.819784 1_455
Na22 S38 2.819784 1_554
Na22 S37 2.819841 1_554
Na22 S34 2.819841 1_455
Na23 S39 2.802783 1_555
Na23 S37 2.804356 1_555
Na23 S48 2.901191 1_455
Na23 S41 2.904267 1_555
Na23 S46 2.970234 1_455
Na23 S44 2.971079 1_555
Na24 S35 2.756050 1_555
Na24 S42 2.756197 1_555
Na24 S37 2.959903 1_555
Na24 S40 2.959940 1_555
Na24 S38 2.961162 1_555
Na24 S39 2.961252 1_555
Na25 S38 2.803142 1_555
Na25 S40 2.804035 1_555
Na25 S29 2.901237 1_655
Na25 S36 2.902030 1_555
Na25 S31 2.970283 1_655
Na25 S33 2.970987 1_555
Na26 S35 2.812566 1_655
Na26 S48 2.812641 1_554
Na26 S43 2.819905 1_654
Na26 S44 2.819948 1_654
Na26 S40 2.820068 1_555
Na26 S39 2.820071 1_555
Na27 S45 2.801399 1_555
Na27 S43 2.804988 1_555
Na27 S54 2.902755 1_455
Na27 S47 2.916832 1_555
Na27 S50 2.971257 1_555
Na27 S52 2.971868 1_455
Na28 S48 2.756466 1_555
Na28 S41 2.756749 1_555
Na28 S46 2.959634 1_555
Na28 S43 2.959929 1_555
Na28 S44 2.962117 1_555
Na28 S45 2.971679 1_555
Na29 S44 2.803191 1_555
Na29 S46 2.804126 1_555
Na29 S35 2.901195 1_655
Na29 S42 2.902253 1_555
Na29 S37 2.970466 1_655
Na29 S39 2.970697 1_555
Na30 S41 2.811769 1_655
Na30 S54 2.812379 1_554
Na30 S49 2.817627 1_654
Na30 S46 2.820599 1_555
Na30 S50 2.820973 1_654
Na30 S45 2.821319 1_555
Na31 S49 2.775786 1_555
Na31 S51 2.807765 1_555
Na31 S53 2.876588 1_555
Na31 S58 2.908863 1_455
Na31 S56 2.936825 1_555
Na31 S57 2.937474 1_455
Na32 S54 2.757001 1_555
Na32 S47 2.762348 1_555
Na32 S52 2.957063 1_555
Na32 S50 2.961183 1_555
Na32 S49 2.967812 1_555
Na32 S51 2.970082 1_555
Na33 S50 2.803311 1_555
Na33 S52 2.807079 1_555
Na33 S41 2.900077 1_655
Na33 S48 2.903059 1_555
Na33 S43 2.971032 1_655
Na33 S45 2.973632 1_555
Na34 S47 2.803061 1_655
Na34 S58 2.803903 1_554
Na34 S52 2.817269 1_555
Na34 S51 2.821874 1_555
Na34 S56 2.823116 1_654
Na34 S55 2.827369 1_654
Na35 S58 2.770164 1_555
Na35 S53 2.882039 1_555
Na35 S57 2.902852 1_555
Na35 S0 2.906260 1_565
Na35 S56 2.922352 1_555
Na35 S55 2.936252 1_555
Na36 S56 2.799095 1_555
Na36 S47 2.872640 1_655
Na36 S54 2.904614 1_555
Na36 S51 2.952290 1_555
Na36 S57 2.952495 1_555
Na36 S49 2.963696 1_655
Na37 S4 2.805462 1_565
Na37 S58 2.864462 1_555
Na37 S53 2.882971 1_655
Na37 S55 2.917646 1_655
Na37 S59 2.917864 1_555
Na37 S0 2.932941 1_565
S0 Zr0 2.644346 1_554
S0 Zr1 2.648146 1_555
S0 Zr3 2.677087 1_554
S1 Zr3 2.609056 1_554
S1 Zr2 2.611294 1_555
S2 Zr1 2.645229 1_556
S2 Zr0 2.645656 1_455
S2 Zr3 2.677713 1_455
S3 Zr5 2.582478 1_554
S3 Zr2 2.612905 1_555
S4 Zr1 2.578963 1_655
S4 Zr3 2.617526 1_554
S5 Zr5 2.655399 1_554
S5 Zr4 2.660990 1_555
S5 Zr8 2.668231 1_555
S6 Zr1 2.655399 1_556
S6 Zr21 2.660990 1_545
S6 Zr0 2.668231 1_555
S7 Zr5 2.578963 1_455
S7 Zr2 2.617526 1_556
S8 Zr1 2.582478 1_556
S8 Zr3 2.612905 1_555
S9 Zr7 2.646783 1_554
S9 Zr4 2.651159 1_555
S9 Zr8 2.668114 1_655
S10 Zr5 2.645229 1_554
S10 Zr8 2.645656 1_655
S10 Zr2 2.677713 1_655
S11 Zr7 2.604673 1_554
S11 Zr6 2.614802 1_554
S12 Zr2 2.609056 1_556
S12 Zr3 2.611294 1_555
S13 Zr7 2.644864 1_455
S13 Zr4 2.646132 1_556
S13 Zr8 2.668642 1_556
S14 Zr8 2.644346 1_556
S14 Zr5 2.648146 1_555
S14 Zr2 2.677087 1_556
S15 Zr10 2.592363 1_555
S15 Zr6 2.598003 1_554
S16 Zr4 2.571412 1_655
S16 Zr7 2.620696 1_554
S17 Zr10 2.604646 1_555
S17 Zr9 2.605038 1_555
S18 Zr5 2.655841 1_555
S18 Zr4 2.662567 1_556
S18 Zr8 2.668234 1_656
S19 Zr10 2.585501 1_456
S19 Zr6 2.589125 1_555
S20 Zr4 2.568004 1_556
S20 Zr7 2.609824 1_555
S21 Zr12 2.582333 1_555
S21 Zr9 2.591957 1_555
S22 Zr6 2.594650 1_654
S22 Zr10 2.596406 1_555
S23 Zr11 2.604945 1_555
S23 Zr12 2.606044 1_555
S24 Zr7 2.606299 1_555
S24 Zr6 2.616459 1_555
S25 Zr12 2.582556 1_456
S25 Zr9 2.592507 1_556
S26 Zr10 2.590196 1_556
S26 Zr6 2.592156 1_555
S27 Zr14 2.582757 1_555
S27 Zr11 2.591986 1_555
S28 Zr9 2.583520 1_655
S28 Zr12 2.592380 1_555
S29 Zr14 2.605448 1_555
S29 Zr13 2.605550 1_554
S30 Zr10 2.605327 1_556
S30 Zr9 2.606291 1_556
S31 Zr14 2.582930 1_456
S31 Zr11 2.592172 1_556
S32 Zr9 2.583761 1_556
S32 Zr12 2.591929 1_556
S33 Zr16 2.583330 1_554
S33 Zr13 2.591864 1_554
S34 Zr11 2.583421 1_655
S34 Zr14 2.591986 1_555
S35 Zr16 2.604882 1_554
S35 Zr15 2.606466 1_554
S36 Zr11 2.604882 1_556
S36 Zr12 2.606466 1_556
S37 Zr16 2.583421 1_455
S37 Zr13 2.591986 1_555
S38 Zr11 2.583330 1_556
S38 Zr14 2.591864 1_556
S39 Zr18 2.583761 1_554
S39 Zr15 2.591929 1_554
S40 Zr13 2.582930 1_654
S40 Zr16 2.592172 1_554
S41 Zr17 2.605327 1_554
S41 Zr18 2.606291 1_554
S42 Zr13 2.605448 1_555
S42 Zr14 2.605550 1_556
S43 Zr18 2.583520 1_455
S43 Zr15 2.592380 1_555
S44 Zr13 2.582757 1_555
S44 Zr16 2.591986 1_555
S45 Zr17 2.590196 1_554
S45 Zr20 2.592156 1_555
S46 Zr15 2.582556 1_654
S46 Zr18 2.592507 1_554
S47 Zr19 2.606299 1_555
S47 Zr20 2.616459 1_555
S48 Zr16 2.604945 1_555
S48 Zr15 2.606044 1_555
S49 Zr20 2.594650 1_456
S49 Zr17 2.596406 1_555
S50 Zr15 2.582333 1_555
S50 Zr18 2.591957 1_555
S51 Zr21 2.568004 1_554
S51 Zr19 2.609824 1_555
S52 Zr17 2.585501 1_654
S52 Zr20 2.589125 1_555
S53 Zr1 2.655841 1_565
S53 Zr21 2.662567 1_554
S53 Zr0 2.668234 1_464
S54 Zr17 2.604646 1_555
S54 Zr18 2.605038 1_555
S55 Zr21 2.571412 1_455
S55 Zr19 2.620696 1_556
S56 Zr17 2.592363 1_555
S56 Zr20 2.598003 1_556
S57 Zr19 2.644864 1_655
S57 Zr21 2.646132 1_554
S57 Zr0 2.668642 1_564
S58 Zr19 2.604673 1_556
S58 Zr20 2.614802 1_556
S59 Zr19 2.646783 1_556
S59 Zr21 2.651159 1_555
S59 Zr0 2.668114 1_465
