# generated using pymatgen
data_H24C8Se(NO2)2
_symmetry_space_group_name_H-M   'P 1'
_cell_length_a   7.84111600
_cell_length_b   7.90510474
_cell_length_c   13.70169353
_cell_angle_alpha   90.06927867
_cell_angle_beta   106.49053103
_cell_angle_gamma   119.46142723
_symmetry_Int_Tables_number   1
_chemical_formula_structural   H24C8Se(NO2)2
_chemical_formula_sum   'H48 C16 Se2 N4 O8'
_cell_volume   698.89587550
_cell_formula_units_Z   2
loop_
 _symmetry_equiv_pos_site_id
 _symmetry_equiv_pos_as_xyz
  1  'x, y, z'
loop_
 _atom_site_type_symbol
 _atom_site_label
 _atom_site_symmetry_multiplicity
 _atom_site_fract_x
 _atom_site_fract_y
 _atom_site_fract_z
 _atom_site_occupancy
  H  H0  1  0.03371700  0.62985700  0.13366700  1
  H  H1  1  0.27032400  0.98372200  0.25150700  1
  H  H2  1  0.27019700  0.86925800  0.36568300  1
  H  H3  1  0.03377800  0.51553700  0.24809300  1
  H  H4  1  0.03952600  0.40389500  0.13465000  1
  H  H5  1  0.49866500  0.09528200  0.36513200  1
  H  H6  1  0.50457900  0.10447900  0.13443100  1
  H  H7  1  0.50337400  0.75245500  0.48400100  1
  H  H8  1  0.26547200  0.74658300  0.01558800  1
  H  H9  1  0.26584400  0.39779500  0.36559700  1
  H  H10  1  0.27020800  0.28521200  0.25101800  1
  H  H11  1  0.73167100  0.97965800  0.48330400  1
  H  H12  1  0.73301500  0.21501500  0.24833500  1
  H  H13  1  0.27099500  0.51958700  0.01724400  1
  H  H14  1  0.73460100  0.09955800  0.13475700  1
  H  H15  1  0.73254200  0.75111900  0.48175900  1
  H  H16  1  0.49804300  0.39899800  0.36484600  1
  H  H17  1  0.49853200  0.74719300  0.01708700  1
  H  H18  1  0.03300200  0.12962300  0.63373600  1
  H  H19  1  0.27078500  0.48311500  0.75184100  1
  H  H20  1  0.03299800  0.01532700  0.74796000  1
  H  H21  1  0.27093400  0.36918500  0.86605300  1
  H  H22  1  0.50476400  0.40779700  0.13551500  1
  H  H23  1  0.96435800  0.09772000  0.36610000  1
  H  H24  1  0.04029100  0.90408500  0.63468000  1
  H  H25  1  0.50006100  0.59483500  0.86492300  1
  H  H26  1  0.73469200  0.63427600  0.13456500  1
  H  H27  1  0.96599200  0.98285200  0.25149200  1
  H  H28  1  0.73392500  0.51922200  0.24915500  1
  H  H29  1  0.96534000  0.86828400  0.36579500  1
  H  H30  1  0.50469000  0.25394400  0.98484100  1
  H  H31  1  0.26625400  0.24806000  0.51597300  1
  H  H32  1  0.50347700  0.60205400  0.63435400  1
  H  H33  1  0.26598600  0.89696000  0.86594200  1
  H  H34  1  0.27051000  0.78650600  0.75129900  1
  H  H35  1  0.73406300  0.48010900  0.98280900  1
  H  H36  1  0.26971200  0.01979200  0.51743700  1
  H  H37  1  0.73275000  0.71402200  0.74852200  1
  H  H38  1  0.73235400  0.59777500  0.63464800  1
  H  H39  1  0.49879800  0.89927600  0.86534800  1
  H  H40  1  0.73441600  0.25163000  0.98221700  1
  H  H41  1  0.49824900  0.24721400  0.51696500  1
  H  H42  1  0.50115100  0.90405700  0.63507600  1
  H  H43  1  0.96193600  0.59300600  0.86411800  1
  H  H44  1  0.96669900  0.48062800  0.75031300  1
  H  H45  1  0.73056200  0.13135000  0.63452100  1
  H  H46  1  0.96734500  0.36624300  0.86499100  1
  H  H47  1  0.73134800  0.01728100  0.74910400  1
  C  C0  1  0.67444400  0.49437200  0.16430300  1
  C  C1  1  0.67451500  0.18206400  0.16362000  1
  C  C2  1  0.67469700  0.33655600  0.00884100  1
  C  C3  1  0.98350000  0.48999700  0.16330500  1
  C  C4  1  0.67138500  0.99141800  0.66422000  1
  C  C5  1  0.67367000  0.68122600  0.66374400  1
  C  C6  1  0.67346000  0.83611800  0.50912200  1
  C  C7  1  0.98307700  0.98959400  0.66322100  1
  C  C8  1  0.01660000  0.00870700  0.33640100  1
  C  C9  1  0.32778100  0.16341300  0.49123200  1
  C  C10  1  0.32755800  0.31825400  0.33582800  1
  C  C11  1  0.32869900  0.00918100  0.33625700  1
  C  C12  1  0.01674400  0.50635500  0.83526200  1
  C  C13  1  0.32796000  0.66294000  0.99098500  1
  C  C14  1  0.32822900  0.81828200  0.83623500  1
  C  C15  1  0.33008800  0.50914300  0.83652300  1
  Se  Se0  1  0.99815700  0.00031500  0.00029400  1
  Se  Se1  1  0.98682400  0.51997900  0.50651900  1
  N  N0  1  0.75148900  0.37558500  0.12497500  1
  N  N1  1  0.75030100  0.87455500  0.62508400  1
  N  N2  1  0.24995200  0.12508100  0.37499300  1
  N  N3  1  0.25066600  0.62442900  0.87482700  1
  O  O0  1  0.24182300  0.18180500  0.06085100  1
  O  O1  1  0.07601400  0.39020700  0.46281000  1
  O  O2  1  0.87700900  0.91377900  0.08832900  1
  O  O3  1  0.84112900  0.56563300  0.40689600  1
  O  O4  1  0.18540700  0.73546900  0.57845800  1
  O  O5  1  0.99889100  0.81736300  0.93964800  1
  O  O6  1  0.84107100  0.39239800  0.57875900  1
  O  O7  1  0.87673300  0.08825100  0.91276300  1
loop_
_geom_bond_atom_site_label_1
_geom_bond_atom_site_label_2
_geom_bond_distance
_geom_bond_site_symmetry_2
C0 H22 1.095382 1_555
C0 H26 1.099439 1_555
C0 H28 1.099672 1_555
C0 N0 1.509538 1_555
C1 H6 1.097543 1_555
C1 H12 1.097743 1_555
C1 H14 1.100539 1_555
C1 N0 1.503361 1_555
C2 H30 1.098136 1_554
C2 H35 1.098772 1_554
C2 H40 1.099398 1_554
C2 N0 1.503961 1_555
C3 H4 1.096278 1_655
C3 H0 1.098159 1_655
C3 H3 1.098611 1_655
C3 N0 1.497108 1_555
C4 H45 1.099049 1_565
C4 H42 1.099131 1_555
C4 H47 1.099991 1_565
C4 N1 1.507769 1_555
C5 H37 1.098532 1_555
C5 H32 1.098857 1_555
C5 H38 1.099075 1_555
C5 N1 1.502210 1_555
C6 H11 1.097355 1_555
C6 H7 1.098062 1_555
C6 H15 1.100393 1_555
C6 N1 1.501712 1_555
C7 H20 1.098074 1_665
C7 H18 1.098358 1_665
C7 H24 1.099257 1_655
C7 N1 1.502042 1_555
C8 H23 1.098181 1_455
C8 H29 1.100037 1_445
C8 H27 1.100130 1_445
C8 N2 1.505861 1_555
C9 H31 1.097847 1_555
C9 H36 1.100238 1_555
C9 H41 1.100309 1_555
C9 N2 1.505319 1_555
C10 H9 1.098471 1_555
C10 H10 1.099021 1_555
C10 H16 1.100374 1_555
C10 N2 1.504477 1_555
C11 H2 1.097005 1_545
C11 H5 1.097115 1_555
C11 H1 1.097959 1_545
C11 N2 1.497913 1_555
C12 H43 1.093433 1_455
C12 H46 1.100629 1_455
C12 H44 1.100791 1_455
C12 N3 1.509839 1_555
C13 H8 1.096734 1_556
C13 H13 1.098847 1_556
C13 H17 1.100887 1_556
C13 N3 1.504256 1_555
C14 H33 1.096115 1_555
C14 H34 1.100332 1_555
C14 H39 1.100906 1_555
C14 N3 1.505183 1_555
C15 H25 1.097013 1_555
C15 H19 1.097194 1_555
C15 H21 1.098072 1_555
C15 N3 1.495495 1_555
O0 Se0 1.672716 1_455
O1 Se1 1.685871 1_455
O2 Se0 1.684817 1_565
O3 Se1 1.679302 1_555
O4 Se1 1.677318 1_455
O5 Se0 1.670379 1_566
O6 Se1 1.677449 1_555
O7 Se0 1.683120 1_556
