# generated using pymatgen
data_Pd2S9N4
_symmetry_space_group_name_H-M   'P 1'
_cell_length_a   19.46462101
_cell_length_b   19.46462101
_cell_length_c   19.46462076
_cell_angle_alpha   118.71006726
_cell_angle_beta   118.71006726
_cell_angle_gamma   118.71006675
_symmetry_Int_Tables_number   1
_chemical_formula_structural   Pd2S9N4
_chemical_formula_sum   'Pd12 S54 N24'
_cell_volume   2162.72514389
_cell_formula_units_Z   6
loop_
 _symmetry_equiv_pos_site_id
 _symmetry_equiv_pos_as_xyz
  1  'x, y, z'
loop_
 _atom_site_type_symbol
 _atom_site_label
 _atom_site_symmetry_multiplicity
 _atom_site_fract_x
 _atom_site_fract_y
 _atom_site_fract_z
 _atom_site_occupancy
  Pd  Pd0  1  0.12211600  0.70779600  0.75981000  1
  Pd  Pd1  1  0.99325800  0.79380000  0.15311200  1
  Pd  Pd2  1  0.84688800  0.00674200  0.20620000  1
  Pd  Pd3  1  0.20620000  0.84688800  0.00674200  1
  Pd  Pd4  1  0.29220400  0.24019000  0.87788400  1
  Pd  Pd5  1  0.75981000  0.12211600  0.70779600  1
  Pd  Pd6  1  0.87788400  0.29220400  0.24019000  1
  Pd  Pd7  1  0.70779600  0.75981000  0.12211600  1
  Pd  Pd8  1  0.79380000  0.15311200  0.99325800  1
  Pd  Pd9  1  0.15311200  0.99325800  0.79380000  1
  Pd  Pd10  1  0.00674200  0.20620000  0.84688800  1
  Pd  Pd11  1  0.24019000  0.87788400  0.29220400  1
  S  S0  1  0.69108400  0.94809200  0.51897400  1
  S  S1  1  0.57722100  0.02977100  0.90272000  1
  S  S2  1  0.58022700  0.09968400  0.45806000  1
  S  S3  1  0.52151700  0.81889100  0.67611600  1
  S  S4  1  0.69563500  0.09769000  0.15792400  1
  S  S5  1  0.81889100  0.67611600  0.52151700  1
  S  S6  1  0.30436500  0.90231000  0.84207600  1
  S  S7  1  0.09377000  0.01438200  0.28844200  1
  S  S8  1  0.45806000  0.58022700  0.09968400  1
  S  S9  1  0.69659300  0.65442900  0.86309700  1
  S  S10  1  0.15792400  0.69563500  0.09769000  1
  S  S11  1  0.09769000  0.15792400  0.69563500  1
  S  S12  1  0.86309700  0.69659300  0.65442900  1
  S  S13  1  0.92278900  0.23933900  0.66222200  1
  S  S14  1  0.33777800  0.07721100  0.76066100  1
  S  S15  1  0.32388400  0.47848300  0.18110900  1
  S  S16  1  0.56633000  0.57763900  0.18882400  1
  S  S17  1  0.23933900  0.66222200  0.92278900  1
  S  S18  1  0.02977100  0.90272000  0.57722100  1
  S  S19  1  0.05190800  0.48102600  0.30891600  1
  S  S20  1  0.01438200  0.28844200  0.09377000  1
  S  S21  1  0.67611600  0.52151700  0.81889100  1
  S  S22  1  0.66222200  0.92278900  0.23933900  1
  S  S23  1  0.43367000  0.42236100  0.81117600  1
  S  S24  1  0.81117600  0.43367000  0.42236100  1
  S  S25  1  0.90623000  0.98561800  0.71155800  1
  S  S26  1  0.47848300  0.18110900  0.32388400  1
  S  S27  1  0.09728000  0.42277900  0.97022900  1
  S  S28  1  0.54194000  0.41977300  0.90031600  1
  S  S29  1  0.57763900  0.18882400  0.56633000  1
  S  S30  1  0.28844200  0.09377000  0.01438200  1
  S  S31  1  0.76066100  0.33777800  0.07721100  1
  S  S32  1  0.18882400  0.56633000  0.57763900  1
  S  S33  1  0.51897400  0.69108400  0.94809200  1
  S  S34  1  0.90031600  0.54194000  0.41977300  1
  S  S35  1  0.42236100  0.81117600  0.43367000  1
  S  S36  1  0.30340700  0.34557100  0.13690300  1
  S  S37  1  0.65442900  0.86309700  0.69659300  1
  S  S38  1  0.94809200  0.51897400  0.69108400  1
  S  S39  1  0.13690300  0.30340700  0.34557100  1
  S  S40  1  0.84207600  0.30436500  0.90231000  1
  S  S41  1  0.97022900  0.09728000  0.42277900  1
  S  S42  1  0.07721100  0.76066100  0.33777800  1
  S  S43  1  0.90272000  0.57722100  0.02977100  1
  S  S44  1  0.90231000  0.84207600  0.30436500  1
  S  S45  1  0.41977300  0.90031600  0.54194000  1
  S  S46  1  0.09968400  0.45806000  0.58022700  1
  S  S47  1  0.18110900  0.32388400  0.47848300  1
  S  S48  1  0.30891600  0.05190800  0.48102600  1
  S  S49  1  0.34557100  0.13690300  0.30340700  1
  S  S50  1  0.42277900  0.97022900  0.09728000  1
  S  S51  1  0.71155800  0.90623000  0.98561800  1
  S  S52  1  0.48102600  0.30891600  0.05190800  1
  S  S53  1  0.98561800  0.71155800  0.90623000  1
  N  N0  1  0.09068800  0.11239500  0.90241500  1
  N  N1  1  0.09758500  0.90931200  0.88760500  1
  N  N2  1  0.08730400  0.42351100  0.88211700  1
  N  N3  1  0.11239500  0.90241500  0.09068800  1
  N  N4  1  0.23392100  0.36383600  0.85914700  1
  N  N5  1  0.98176300  0.50428300  0.26247500  1
  N  N6  1  0.88760500  0.09758500  0.90931200  1
  N  N7  1  0.73752500  0.01823700  0.49571700  1
  N  N8  1  0.91269600  0.57648900  0.11788300  1
  N  N9  1  0.36383600  0.85914700  0.23392100  1
  N  N10  1  0.90241500  0.09068800  0.11239500  1
  N  N11  1  0.26247500  0.98176300  0.50428300  1
  N  N12  1  0.90931200  0.88760500  0.09758500  1
  N  N13  1  0.85914700  0.23392100  0.36383600  1
  N  N14  1  0.11788300  0.91269600  0.57648900  1
  N  N15  1  0.88211700  0.08730400  0.42351100  1
  N  N16  1  0.14085300  0.76607900  0.63616400  1
  N  N17  1  0.50428300  0.26247500  0.98176300  1
  N  N18  1  0.63616400  0.14085300  0.76607900  1
  N  N19  1  0.76607900  0.63616400  0.14085300  1
  N  N20  1  0.42351100  0.88211700  0.08730400  1
  N  N21  1  0.49571700  0.73752500  0.01823700  1
  N  N22  1  0.57648900  0.11788300  0.91269600  1
  N  N23  1  0.01823700  0.49571700  0.73752500  1
loop_
_geom_bond_atom_site_label_1
_geom_bond_atom_site_label_2
_geom_bond_distance
_geom_bond_site_symmetry_2
Pd0 S6 2.301516 1_555
Pd0 S24 2.313515 1_455
Pd0 S50 2.366180 1_556
Pd0 S38 2.394470 1_455
Pd1 S7 2.305053 1_665
Pd1 S21 2.318677 1_554
Pd1 S48 2.363867 1_665
Pd1 S43 2.390584 1_555
Pd2 S51 2.305053 1_544
Pd2 S47 2.318677 1_655
Pd2 S33 2.363867 1_544
Pd2 S41 2.390584 1_555
Pd3 S53 2.305053 1_454
Pd3 S26 2.318677 1_565
Pd3 S38 2.363867 1_454
Pd3 S50 2.390584 1_555
Pd4 S11 2.301516 1_555
Pd4 S16 2.313515 1_556
Pd4 S18 2.366180 1_545
Pd4 S52 2.394470 1_556
Pd5 S40 2.301516 1_555
Pd5 S35 2.313515 1_545
Pd5 S27 2.366180 1_655
Pd5 S0 2.394470 1_545
Pd6 S4 2.301516 1_555
Pd6 S32 2.313515 1_655
Pd6 S1 2.366180 1_554
Pd6 S19 2.394470 1_655
Pd7 S44 2.301516 1_555
Pd7 S23 2.313515 1_554
Pd7 S41 2.366180 1_565
Pd7 S33 2.394470 1_554
Pd8 S20 2.305053 1_656
Pd8 S3 2.318677 1_545
Pd8 S19 2.363867 1_656
Pd8 S1 2.390584 1_555
Pd9 S30 2.305053 1_566
Pd9 S5 2.318677 1_455
Pd9 S52 2.363867 1_566
Pd9 S18 2.390584 1_555
Pd10 S25 2.305053 1_445
Pd10 S15 2.318677 1_556
Pd10 S0 2.363867 1_445
Pd10 S27 2.390584 1_555
Pd11 S10 2.301516 1_555
Pd11 S29 2.313515 1_565
Pd11 S43 2.366180 1_455
Pd11 S48 2.394470 1_565
S2 S29 2.031555 1_555
S3 S37 2.033065 1_555
S12 S5 2.033065 1_555
S15 S36 2.033065 1_555
S16 S8 2.031555 1_555
S21 S9 2.033065 1_555
S23 S28 2.031555 1_555
S24 S34 2.031555 1_555
S26 S49 2.033065 1_555
S32 S46 2.031555 1_555
S35 S45 2.031555 1_555
S39 S47 2.033065 1_555
N0 S36 1.568919 1_556
N0 S25 1.626907 1_445
N1 S12 1.568919 1_455
N1 S30 1.626907 1_566
N2 S13 1.576862 1_455
N2 S27 1.638761 1_555
N3 S49 1.568919 1_565
N3 S53 1.626907 1_454
N4 S8 1.571452 1_556
N4 S11 1.627961 1_555
N5 S31 1.577893 1_555
N5 S19 1.639338 1_655
N6 S37 1.568919 1_545
N6 S20 1.626907 1_656
N7 S13 1.577893 1_555
N7 S0 1.639338 1_545
N8 S42 1.576862 1_655
N8 S43 1.638761 1_555
N9 S2 1.571452 1_565
N9 S10 1.627961 1_555
N10 S39 1.568919 1_655
N10 S51 1.626907 1_544
N11 S42 1.577893 1_555
N11 S48 1.639338 1_565
N12 S9 1.568919 1_554
N12 S7 1.626907 1_665
N13 S46 1.571452 1_655
N13 S4 1.627961 1_555
N14 S14 1.576862 1_565
N14 S18 1.638761 1_555
N15 S22 1.576862 1_545
N15 S41 1.638761 1_555
N16 S34 1.571452 1_455
N16 S6 1.627961 1_555
N17 S14 1.577893 1_555
N17 S52 1.639338 1_556
N18 S45 1.571452 1_545
N18 S40 1.627961 1_555
N19 S28 1.571452 1_554
N19 S44 1.627961 1_555
N20 S17 1.576862 1_554
N20 S50 1.638761 1_555
N21 S22 1.577893 1_555
N21 S33 1.639338 1_554
N22 S31 1.576862 1_556
N22 S1 1.638761 1_555
N23 S17 1.577893 1_555
N23 S38 1.639338 1_455
