# generated using pymatgen
data_K2Cd2(SO4)3
_symmetry_space_group_name_H-M   'P 1'
_cell_length_a   10.48117900
_cell_length_b   10.48117900
_cell_length_c   10.48117900
_cell_angle_alpha   90.00000000
_cell_angle_beta   90.00000000
_cell_angle_gamma   90.00000000
_symmetry_Int_Tables_number   1
_chemical_formula_structural   K2Cd2(SO4)3
_chemical_formula_sum   'K8 Cd8 S12 O48'
_cell_volume   1151.41110583
_cell_formula_units_Z   4
loop_
 _symmetry_equiv_pos_site_id
 _symmetry_equiv_pos_as_xyz
  1  'x, y, z'
loop_
 _atom_site_type_symbol
 _atom_site_label
 _atom_site_symmetry_multiplicity
 _atom_site_fract_x
 _atom_site_fract_y
 _atom_site_fract_z
 _atom_site_occupancy
  K  K0  1  0.68836500  0.18836500  0.31163500  1
  K  K1  1  0.31163500  0.68836500  0.18836500  1
  K  K2  1  0.94585500  0.55414500  0.44585500  1
  K  K3  1  0.81163500  0.81163500  0.81163500  1
  K  K4  1  0.05414500  0.05414500  0.05414500  1
  K  K5  1  0.44585500  0.94585500  0.55414500  1
  K  K6  1  0.55414500  0.44585500  0.94585500  1
  K  K7  1  0.18836500  0.31163500  0.68836500  1
  Cd  Cd0  1  0.32672400  0.32672400  0.32672400  1
  Cd  Cd1  1  0.17327600  0.67327600  0.82672400  1
  Cd  Cd2  1  0.82672400  0.17327600  0.67327600  1
  Cd  Cd3  1  0.67327600  0.82672400  0.17327600  1
  Cd  Cd4  1  0.41762700  0.08237300  0.91762700  1
  Cd  Cd5  1  0.08237300  0.91762700  0.41762700  1
  Cd  Cd6  1  0.58237300  0.58237300  0.58237300  1
  Cd  Cd7  1  0.91762700  0.41762700  0.08237300  1
  S  S0  1  0.26949700  0.62493200  0.51041600  1
  S  S1  1  0.76949700  0.87506800  0.48958400  1
  S  S2  1  0.73050300  0.12493200  0.98958400  1
  S  S3  1  0.87506800  0.48958400  0.76949700  1
  S  S4  1  0.98958400  0.73050300  0.12493200  1
  S  S5  1  0.48958400  0.76949700  0.87506800  1
  S  S6  1  0.62493200  0.51041600  0.26949700  1
  S  S7  1  0.51041600  0.26949700  0.62493200  1
  S  S8  1  0.12493200  0.98958400  0.73050300  1
  S  S9  1  0.23050300  0.37506800  0.01041600  1
  S  S10  1  0.01041600  0.23050300  0.37506800  1
  S  S11  1  0.37506800  0.01041600  0.23050300  1
  O  O0  1  0.58332500  0.76344200  0.98108700  1
  O  O1  1  0.08332500  0.73655800  0.01891300  1
  O  O2  1  0.41667500  0.26344200  0.51891300  1
  O  O3  1  0.73655800  0.01891300  0.08332500  1
  O  O4  1  0.51891300  0.41667500  0.26344200  1
  O  O5  1  0.01891300  0.08332500  0.73655800  1
  O  O6  1  0.76344200  0.98108700  0.58332500  1
  O  O7  1  0.98108700  0.58332500  0.76344200  1
  O  O8  1  0.26344200  0.51891300  0.41667500  1
  O  O9  1  0.23655800  0.48108700  0.91667500  1
  O  O10  1  0.48108700  0.91667500  0.23655800  1
  O  O11  1  0.91667500  0.23655800  0.48108700  1
  O  O12  1  0.07458400  0.85977500  0.76171700  1
  O  O13  1  0.57458400  0.64022500  0.23828300  1
  O  O14  1  0.92541600  0.35977500  0.73828300  1
  O  O15  1  0.64022500  0.23828300  0.57458400  1
  O  O16  1  0.73828300  0.92541600  0.35977500  1
  O  O17  1  0.23828300  0.57458400  0.64022500  1
  O  O18  1  0.67445500  0.77803100  0.52894500  1
  O  O19  1  0.85977500  0.76171700  0.07458400  1
  O  O20  1  0.35977500  0.73828300  0.92541600  1
  O  O21  1  0.14022500  0.26171700  0.42541600  1
  O  O22  1  0.26171700  0.42541600  0.14022500  1
  O  O23  1  0.42541600  0.14022500  0.26171700  1
  O  O24  1  0.22196900  0.02894500  0.82554500  1
  O  O25  1  0.72196900  0.47105500  0.17445500  1
  O  O26  1  0.77803100  0.52894500  0.67445500  1
  O  O27  1  0.47105500  0.17445500  0.72196900  1
  O  O28  1  0.09985500  0.31666300  0.01029300  1
  O  O29  1  0.01029300  0.09985500  0.31666300  1
  O  O30  1  0.31666300  0.01029300  0.09985500  1
  O  O31  1  0.18333700  0.98970700  0.59985500  1
  O  O32  1  0.51029300  0.40014500  0.68333700  1
  O  O33  1  0.68333700  0.51029300  0.40014500  1
  O  O34  1  0.48970700  0.90014500  0.81666300  1
  O  O35  1  0.98970700  0.59985500  0.18333700  1
  O  O36  1  0.81666300  0.48970700  0.90014500  1
  O  O37  1  0.59985500  0.18333700  0.98970700  1
  O  O38  1  0.90014500  0.81666300  0.48970700  1
  O  O39  1  0.40014500  0.68333700  0.51029300  1
  O  O40  1  0.27803100  0.97105500  0.32554500  1
  O  O41  1  0.32554500  0.27803100  0.97105500  1
  O  O42  1  0.97105500  0.32554500  0.27803100  1
  O  O43  1  0.52894500  0.67445500  0.77803100  1
  O  O44  1  0.82554500  0.22196900  0.02894500  1
  O  O45  1  0.02894500  0.82554500  0.22196900  1
  O  O46  1  0.17445500  0.72196900  0.47105500  1
  O  O47  1  0.76171700  0.07458400  0.85977500  1
loop_
_geom_bond_atom_site_label_1
_geom_bond_atom_site_label_2
_geom_bond_distance
_geom_bond_site_symmetry_2
K0 O16 2.850253 1_545
K0 O15 2.850253 1_555
K0 O23 2.850253 1_555
K0 O3 3.022544 1_555
K0 O4 3.022544 1_555
K0 O11 3.022544 1_555
K1 O13 2.850253 1_555
K1 O20 2.850253 1_554
K1 O22 2.850253 1_555
K1 O1 3.022544 1_555
K1 O10 3.022544 1_555
K1 O8 3.022544 1_555
K2 O33 2.830464 1_555
K2 O38 2.830464 1_555
K2 O35 2.830464 1_555
K2 O26 2.984062 1_555
K2 O46 2.984062 1_655
K2 O42 2.984062 1_555
K3 O47 2.850253 1_565
K3 O19 2.850253 1_556
K3 O12 2.850253 1_655
K3 O6 3.022544 1_555
K3 O0 3.022544 1_555
K3 O7 3.022544 1_555
K4 O29 2.830464 1_555
K4 O28 2.830464 1_555
K4 O30 2.830464 1_555
K4 O45 2.984062 1_545
K4 O44 2.984062 1_455
K4 O24 2.984062 1_554
K5 O39 2.830464 1_555
K5 O34 2.830464 1_555
K5 O31 2.830464 1_555
K5 O18 2.984062 1_555
K5 O27 2.984062 1_565
K5 O40 2.984062 1_555
K6 O36 2.830464 1_555
K6 O37 2.830464 1_555
K6 O32 2.830464 1_555
K6 O43 2.984062 1_555
K6 O25 2.984062 1_556
K6 O41 2.984062 1_555
K7 O17 2.850253 1_555
K7 O14 2.850253 1_455
K7 O21 2.850253 1_555
K7 O2 3.022544 1_555
K7 O5 3.022544 1_555
K7 O9 3.022544 1_555
Cd0 O21 2.314132 1_555
Cd0 O22 2.314132 1_555
Cd0 O23 2.314132 1_555
Cd0 O2 2.320875 1_555
Cd0 O4 2.320875 1_555
Cd0 O8 2.320875 1_555
Cd1 O17 2.314132 1_555
Cd1 O12 2.314132 1_555
Cd1 O20 2.314132 1_555
Cd1 O1 2.320875 1_556
Cd1 O9 2.320875 1_555
Cd1 O7 2.320875 1_455
Cd2 O15 2.314132 1_555
Cd2 O47 2.314132 1_555
Cd2 O14 2.314132 1_555
Cd2 O6 2.320875 1_545
Cd2 O11 2.320875 1_555
Cd2 O5 2.320875 1_655
Cd3 O13 2.314132 1_555
Cd3 O19 2.314132 1_555
Cd3 O16 2.314132 1_555
Cd3 O3 2.320875 1_565
Cd3 O0 2.320875 1_554
Cd3 O10 2.320875 1_555
Cd4 O37 2.310531 1_555
Cd4 O34 2.310531 1_545
Cd4 O30 2.310531 1_556
Cd4 O41 2.334639 1_555
Cd4 O27 2.334639 1_555
Cd4 O24 2.334639 1_555
Cd5 O38 2.310531 1_455
Cd5 O31 2.310531 1_555
Cd5 O29 2.310531 1_565
Cd5 O40 2.334639 1_555
Cd5 O46 2.334639 1_555
Cd5 O45 2.334639 1_555
Cd6 O33 2.310531 1_555
Cd6 O32 2.310531 1_555
Cd6 O39 2.310531 1_555
Cd6 O18 2.334639 1_555
Cd6 O26 2.334639 1_555
Cd6 O43 2.334639 1_555
Cd7 O36 2.310531 1_554
Cd7 O35 2.310531 1_555
Cd7 O28 2.310531 1_655
Cd7 O25 2.334639 1_555
Cd7 O42 2.334639 1_555
Cd7 O44 2.334639 1_555
O0 S5 1.484635 1_555
O1 S4 1.484635 1_455
O2 S7 1.484635 1_555
O3 S2 1.484635 1_554
O4 S6 1.484635 1_555
O5 S8 1.484635 1_545
O6 S1 1.484635 1_555
O7 S3 1.484635 1_555
O8 S0 1.484635 1_555
O9 S9 1.484635 1_556
O10 S11 1.484635 1_565
O11 S10 1.484635 1_655
O12 S8 1.495529 1_555
O13 S6 1.495529 1_555
O14 S3 1.495529 1_555
O15 S7 1.495529 1_555
O16 S1 1.495529 1_555
O17 S0 1.495529 1_555
O18 S1 1.482205 1_555
O19 S4 1.495529 1_555
O20 S5 1.495529 1_555
O21 S10 1.495529 1_555
O22 S9 1.495529 1_555
O23 S11 1.495529 1_555
O24 S8 1.482205 1_545
O25 S6 1.482205 1_555
O26 S3 1.482205 1_555
O27 S7 1.482205 1_555
O28 S9 1.499946 1_555
O29 S10 1.499946 1_555
O30 S11 1.499946 1_555
O31 S8 1.499946 1_555
O32 S7 1.499946 1_555
O33 S6 1.499946 1_555
O34 S5 1.499946 1_555
O35 S4 1.499946 1_555
O36 S3 1.499946 1_555
O37 S2 1.499946 1_555
O38 S1 1.499946 1_555
O39 S0 1.499946 1_555
O40 S11 1.482205 1_565
O41 S9 1.482205 1_556
O42 S10 1.482205 1_655
O43 S5 1.482205 1_555
O44 S2 1.482205 1_554
O45 S4 1.482205 1_455
O46 S0 1.482205 1_555
O47 S2 1.495529 1_555
