# generated using pymatgen
data_La9B3C6I5
_symmetry_space_group_name_H-M   'P 1'
_cell_length_a   3.97998200
_cell_length_b   8.30836800
_cell_length_c   33.86252300
_cell_angle_alpha   90.00000000
_cell_angle_beta   90.00000000
_cell_angle_gamma   90.00000000
_symmetry_Int_Tables_number   1
_chemical_formula_structural   La9B3C6I5
_chemical_formula_sum   'La18 B6 C12 I10'
_cell_volume   1119.73729976
_cell_formula_units_Z   2
loop_
 _symmetry_equiv_pos_site_id
 _symmetry_equiv_pos_as_xyz
  1  'x, y, z'
loop_
 _atom_site_type_symbol
 _atom_site_label
 _atom_site_symmetry_multiplicity
 _atom_site_fract_x
 _atom_site_fract_y
 _atom_site_fract_z
 _atom_site_occupancy
  La  La0  1  0.50000000  0.92284400  0.84520900  1
  La  La1  1  0.50000000  0.18446700  0.75907600  1
  La  La2  1  0.00000000  0.81553300  0.74092400  1
  La  La3  1  0.00000000  0.43522200  0.00000000  1
  La  La4  1  0.00000000  0.07715600  0.34520900  1
  La  La5  1  0.00000000  0.66301000  0.61559300  1
  La  La6  1  0.50000000  0.94572500  0.44373500  1
  La  La7  1  0.00000000  0.05427500  0.05626500  1
  La  La8  1  0.50000000  0.33699000  0.88440700  1
  La  La9  1  0.50000000  0.94572500  0.55626500  1
  La  La10  1  0.00000000  0.05427500  0.94373500  1
  La  La11  1  0.00000000  0.66301000  0.38440700  1
  La  La12  1  0.00000000  0.07715600  0.65479100  1
  La  La13  1  0.00000000  0.81553300  0.25907600  1
  La  La14  1  0.50000000  0.56477800  0.50000000  1
  La  La15  1  0.50000000  0.33699000  0.11559300  1
  La  La16  1  0.50000000  0.18446700  0.24092400  1
  La  La17  1  0.50000000  0.92284400  0.15479100  1
  B  B0  1  0.00000000  0.77765400  0.50000000  1
  B  B1  1  0.50000000  0.86971500  0.67026100  1
  B  B2  1  0.50000000  0.22234600  0.00000000  1
  B  B3  1  0.00000000  0.13028500  0.17026100  1
  B  B4  1  0.00000000  0.13028500  0.82973900  1
  B  B5  1  0.50000000  0.86971500  0.32973900  1
  C  C0  1  0.50000000  0.86661000  0.37373200  1
  C  C1  1  0.50000000  0.97023700  0.70669500  1
  C  C2  1  0.00000000  0.02976300  0.20669500  1
  C  C3  1  0.50000000  0.26376500  0.04286400  1
  C  C4  1  0.00000000  0.73623500  0.54286400  1
  C  C5  1  0.00000000  0.02976300  0.79330500  1
  C  C6  1  0.50000000  0.26376500  0.95713600  1
  C  C7  1  0.50000000  0.97023700  0.29330500  1
  C  C8  1  0.00000000  0.13339000  0.87373200  1
  C  C9  1  0.50000000  0.86661000  0.62626800  1
  C  C10  1  0.00000000  0.13339000  0.12626800  1
  C  C11  1  0.00000000  0.73623500  0.45713600  1
  I  I0  1  0.00000000  0.42977800  0.70133900  1
  I  I1  1  0.50000000  0.33004900  0.40294300  1
  I  I2  1  0.00000000  0.66995100  0.90294300  1
  I  I3  1  0.00000000  0.66995100  0.09705700  1
  I  I4  1  0.50000000  0.57022200  0.20133900  1
  I  I5  1  0.00000000  0.20798100  0.50000000  1
  I  I6  1  0.50000000  0.33004900  0.59705700  1
  I  I7  1  0.50000000  0.79201900  0.00000000  1
  I  I8  1  0.00000000  0.42977800  0.29866100  1
  I  I9  1  0.50000000  0.57022200  0.79866100  1
loop_
_geom_bond_atom_site_label_1
_geom_bond_atom_site_label_2
_geom_bond_distance
_geom_bond_site_symmetry_2
B0 C4 1.491719 1_555
B0 C11 1.491719 1_555
B0 La14 2.662366 1_455
B0 La14 2.662366 1_555
B1 C1 1.489848 1_555
B1 C9 1.489937 1_555
B1 La12 2.684199 1_665
B1 La12 2.684199 1_565
B2 C3 1.491719 1_555
B2 C6 1.491719 1_554
B2 La3 2.662366 1_555
B2 La3 2.662366 1_655
B3 C2 1.489848 1_555
B3 C10 1.489937 1_555
B3 La17 2.684199 1_445
B3 La17 2.684199 1_545
B4 C5 1.489848 1_555
B4 C8 1.489937 1_555
B4 La0 2.684199 1_545
B4 La0 2.684199 1_445
B5 C7 1.489848 1_555
B5 C0 1.489937 1_555
B5 La4 2.684199 1_565
B5 La4 2.684199 1_665
C0 La6 2.459925 1_555
C0 La11 2.636700 1_555
C0 La11 2.636700 1_655
C0 La4 2.820103 1_665
C0 La4 2.820103 1_565
C1 La1 2.512817 1_565
C1 La2 2.637352 1_655
C1 La2 2.637352 1_555
C1 La12 2.799704 1_565
C1 La12 2.799704 1_665
C2 La13 2.512817 1_545
C2 La16 2.637352 1_455
C2 La16 2.637352 1_555
C2 La17 2.799704 1_545
C2 La17 2.799704 1_445
C3 La15 2.536819 1_555
C3 La7 2.682424 1_555
C3 La7 2.682424 1_655
C3 La3 2.845373 1_655
C3 La3 2.845373 1_555
C4 La5 2.536819 1_555
C4 La9 2.682424 1_555
C4 La9 2.682424 1_455
C4 La14 2.845373 1_455
C4 La14 2.845373 1_555
C5 La2 2.512817 1_545
C5 La1 2.637352 1_455
C5 La1 2.637352 1_555
C5 La0 2.799704 1_545
C5 La0 2.799704 1_445
C6 La8 2.536819 1_555
C6 La10 2.682424 1_555
C6 La10 2.682424 1_655
C6 La3 2.845373 1_556
C6 La3 2.845373 1_656
C7 La16 2.512817 1_565
C7 La13 2.637352 1_555
C7 La13 2.637352 1_655
C7 La4 2.799704 1_665
C7 La4 2.799704 1_565
C8 La10 2.459925 1_555
C8 La8 2.636700 1_555
C8 La8 2.636700 1_455
C8 La0 2.820103 1_445
C8 La0 2.820103 1_545
C9 La9 2.459925 1_555
C9 La5 2.636700 1_555
C9 La5 2.636700 1_655
C9 La12 2.820103 1_665
C9 La12 2.820103 1_565
C10 La7 2.459925 1_555
C10 La15 2.636700 1_455
C10 La15 2.636700 1_555
C10 La17 2.820103 1_545
C10 La17 2.820103 1_445
C11 La11 2.536819 1_555
C11 La6 2.682424 1_455
C11 La6 2.682424 1_555
C11 La14 2.845373 1_455
C11 La14 2.845373 1_555
I0 La12 3.326820 1_555
I0 La1 3.454931 1_455
I0 La1 3.454931 1_555
I0 La2 3.474016 1_555
I0 La5 3.490807 1_555
I1 La11 3.465083 1_555
I1 La11 3.465083 1_655
I1 La6 3.479075 1_545
I1 La4 3.492406 1_555
I1 La4 3.492406 1_655
I1 La14 3.821655 1_555
I2 La8 3.465083 1_455
I2 La8 3.465083 1_555
I2 La10 3.479075 1_565
I2 La0 3.492406 1_455
I2 La0 3.492406 1_555
I2 La3 3.821655 1_556
I3 La15 3.465083 1_555
I3 La15 3.465083 1_455
I3 La7 3.479075 1_565
I3 La17 3.492406 1_455
I3 La17 3.492406 1_555
I3 La3 3.821655 1_555
I4 La17 3.326820 1_555
I4 La13 3.454931 1_655
I4 La13 3.454931 1_555
I4 La16 3.474016 1_555
I4 La15 3.490807 1_555
I5 La9 3.512524 1_445
I5 La9 3.512524 1_545
I5 La6 3.512524 1_545
I5 La6 3.512524 1_445
I5 La14 3.570397 1_455
I5 La14 3.570397 1_555
I6 La5 3.465083 1_555
I6 La5 3.465083 1_655
I6 La9 3.479075 1_545
I6 La12 3.492406 1_655
I6 La12 3.492406 1_555
I6 La14 3.821655 1_555
I7 La7 3.512524 1_565
I7 La7 3.512524 1_665
I7 La10 3.512524 1_564
I7 La10 3.512524 1_664
I7 La3 3.570397 1_555
I7 La3 3.570397 1_655
I8 La4 3.326820 1_555
I8 La16 3.454931 1_455
I8 La16 3.454931 1_555
I8 La13 3.474016 1_555
I8 La11 3.490807 1_555
I9 La0 3.326820 1_555
I9 La2 3.454931 1_655
I9 La2 3.454931 1_555
I9 La1 3.474016 1_555
I9 La8 3.490807 1_555
