# generated using pymatgen
data_Re3Se4Br
_symmetry_space_group_name_H-M   'P 1'
_cell_length_a   11.95867248
_cell_length_b   6.65601706
_cell_length_c   11.51103289
_cell_angle_alpha   66.56823274
_cell_angle_beta   90.00000000
_cell_angle_gamma   90.00000000
_symmetry_Int_Tables_number   1
_chemical_formula_structural   Re3Se4Br
_chemical_formula_sum   'Re12 Se16 Br4'
_cell_volume   840.68634966
_cell_formula_units_Z   4
loop_
 _symmetry_equiv_pos_site_id
 _symmetry_equiv_pos_as_xyz
  1  'x, y, z'
loop_
 _atom_site_type_symbol
 _atom_site_label
 _atom_site_symmetry_multiplicity
 _atom_site_fract_x
 _atom_site_fract_y
 _atom_site_fract_z
 _atom_site_occupancy
  Re  Re0  1  0.01947326  0.70089792  0.06116301  1
  Re  Re1  1  0.06868293  0.02859981  0.84893790  1
  Re  Re2  1  0.86026498  0.97017116  0.93654641  1
  Re  Re3  1  0.56868293  0.97140019  0.65106210  1
  Re  Re4  1  0.98052674  0.29910208  0.93883699  1
  Re  Re5  1  0.63973502  0.97017116  0.43654641  1
  Re  Re6  1  0.13973502  0.02982884  0.06345359  1
  Re  Re7  1  0.51947326  0.29910208  0.43883699  1
  Re  Re8  1  0.48052674  0.70089792  0.56116301  1
  Re  Re9  1  0.43131707  0.02859981  0.34893790  1
  Re  Re10  1  0.36026498  0.02982884  0.56345359  1
  Re  Re11  1  0.93131707  0.97140019  0.15106210  1
  Se  Se0  1  0.41327097  0.71142994  0.76601037  1
  Se  Se1  1  0.44549256  0.27441766  0.66181958  1
  Se  Se2  1  0.91327097  0.28857006  0.73398963  1
  Se  Se3  1  0.82217755  0.65349422  0.14550106  1
  Se  Se4  1  0.17782245  0.34650578  0.85449894  1
  Se  Se5  1  0.32217755  0.34650578  0.35449894  1
  Se  Se6  1  0.28284963  0.76525872  0.47799546  1
  Se  Se7  1  0.08672903  0.71142994  0.26601037  1
  Se  Se8  1  0.78284963  0.23474128  0.02200454  1
  Se  Se9  1  0.55450744  0.72558234  0.33818042  1
  Se  Se10  1  0.94549256  0.72558234  0.83818042  1
  Se  Se11  1  0.21715037  0.76525872  0.97799546  1
  Se  Se12  1  0.67782245  0.65349422  0.64550106  1
  Se  Se13  1  0.71715037  0.23474128  0.52200454  1
  Se  Se14  1  0.58672903  0.28857006  0.23398963  1
  Se  Se15  1  0.05450744  0.27441766  0.16181958  1
  Br  Br0  1  0.65292574  0.91306453  0.87403777  1
  Br  Br1  1  0.15292574  0.08693547  0.62596223  1
  Br  Br2  1  0.84707426  0.91306453  0.37403777  1
  Br  Br3  1  0.34707426  0.08693547  0.12596223  1
loop_
_geom_bond_atom_site_label_1
_geom_bond_atom_site_label_2
_geom_bond_distance
_geom_bond_site_symmetry_2
Re0 Se7 2.518620 1_555
Re0 Se11 2.522329 1_554
Re0 Se3 2.522929 1_455
Re0 Se15 2.638218 1_555
Re0 Se10 2.657549 1_454
Re1 Se4 2.508521 1_555
Re1 Se11 2.522031 1_545
Re1 Se2 2.525495 1_455
Re1 Se10 2.540100 1_445
Re2 Se8 2.510687 1_566
Re2 Se2 2.529764 1_565
Re2 Se3 2.530526 1_556
Re2 Se10 2.537177 1_555
Re3 Se12 2.508521 1_555
Re3 Se13 2.522031 1_565
Re3 Se0 2.525495 1_555
Re3 Se1 2.540100 1_565
Re4 Se2 2.518620 1_555
Re4 Se8 2.522329 1_556
Re4 Se4 2.522929 1_655
Re4 Se10 2.638218 1_555
Re4 Se15 2.657549 1_656
Re5 Se13 2.510687 1_565
Re5 Se14 2.529764 1_565
Re5 Se12 2.530526 1_555
Re5 Se9 2.537177 1_555
Re6 Se11 2.510687 1_544
Re6 Se7 2.529764 1_545
Re6 Se4 2.530526 1_554
Re6 Se15 2.537177 1_555
Re7 Se14 2.518620 1_555
Re7 Se13 2.522329 1_555
Re7 Se5 2.522929 1_555
Re7 Se9 2.638218 1_555
Re7 Se1 2.657549 1_555
Re8 Se0 2.518620 1_555
Re8 Se6 2.522329 1_555
Re8 Se12 2.522929 1_555
Re8 Se1 2.638218 1_555
Re8 Se9 2.657549 1_555
Re9 Se5 2.508521 1_555
Re9 Se6 2.522031 1_545
Re9 Se14 2.525495 1_555
Re9 Se9 2.540100 1_545
Re10 Se6 2.510687 1_545
Re10 Se0 2.529764 1_545
Re10 Se5 2.530526 1_555
Re10 Se1 2.537177 1_555
Re11 Se3 2.508521 1_555
Re11 Se8 2.522031 1_565
Re11 Se7 2.525495 1_655
Re11 Se15 2.540100 1_665
Br0 Re3 2.638356 1_555
Br0 Re2 2.650974 1_555
Br1 Re1 2.638356 1_555
Br1 Re10 2.650974 1_555
Br2 Re11 2.638356 1_555
Br2 Re5 2.650974 1_555
Br3 Re9 2.638356 1_555
Br3 Re6 2.650974 1_555
