# generated using pymatgen
data_Sr10Cu5Bi10O29
_symmetry_space_group_name_H-M   'P 1'
_cell_length_a   13.88412586
_cell_length_b   13.88412586
_cell_length_c   26.97367245
_cell_angle_alpha   67.37744681
_cell_angle_beta   67.37744681
_cell_angle_gamma   22.44155505
_symmetry_Int_Tables_number   1
_chemical_formula_structural   Sr10Cu5Bi10O29
_chemical_formula_sum   'Sr20 Cu10 Bi20 O58'
_cell_volume   1825.93795463
_cell_formula_units_Z   2
loop_
 _symmetry_equiv_pos_site_id
 _symmetry_equiv_pos_as_xyz
  1  'x, y, z'
loop_
 _atom_site_type_symbol
 _atom_site_label
 _atom_site_symmetry_multiplicity
 _atom_site_fract_x
 _atom_site_fract_y
 _atom_site_fract_z
 _atom_site_occupancy
  Sr  Sr0  1  0.16434800  0.18503900  0.48890200  1
  Sr  Sr1  1  0.15294700  0.19465500  0.07210900  1
  Sr  Sr2  1  0.79214700  0.82780100  0.12800900  1
  Sr  Sr3  1  0.80534500  0.84705300  0.92789100  1
  Sr  Sr4  1  0.64381000  0.68961000  0.17226700  1
  Sr  Sr5  1  0.17285000  0.20692500  0.67821900  1
  Sr  Sr6  1  0.65770400  0.70716400  0.97154800  1
  Sr  Sr7  1  0.67109500  0.71355000  0.77377300  1
  Sr  Sr8  1  0.81496100  0.83565200  0.51109800  1
  Sr  Sr9  1  0.66638300  0.70063700  0.58341400  1
  Sr  Sr10  1  0.31039000  0.35619000  0.82773300  1
  Sr  Sr11  1  0.17219900  0.20785300  0.87199100  1
  Sr  Sr12  1  0.15415200  0.17678500  0.28232300  1
  Sr  Sr13  1  0.29936300  0.33361700  0.41658600  1
  Sr  Sr14  1  0.82321500  0.84584800  0.71767700  1
  Sr  Sr15  1  0.28645000  0.32890500  0.22622700  1
  Sr  Sr16  1  0.29283600  0.34229600  0.02845200  1
  Sr  Sr17  1  0.65494400  0.67948200  0.39053700  1
  Sr  Sr18  1  0.32051800  0.34505600  0.60946300  1
  Sr  Sr19  1  0.79307500  0.82715000  0.32178100  1
  Cu  Cu0  1  0.75119700  0.77922200  0.64434900  1
  Cu  Cu1  1  0.72976100  0.75837200  0.45213000  1
  Cu  Cu2  1  0.22077800  0.24880300  0.35565100  1
  Cu  Cu3  1  0.74426100  0.78429300  0.84520000  1
  Cu  Cu4  1  0.72262300  0.76702700  0.05134600  1
  Cu  Cu5  1  0.23297300  0.27737700  0.94865400  1
  Cu  Cu6  1  0.24162800  0.27023900  0.54787000  1
  Cu  Cu7  1  0.21570700  0.25573900  0.15480000  1
  Cu  Cu8  1  0.25050700  0.28394000  0.74426200  1
  Cu  Cu9  1  0.71606000  0.74949300  0.25573800  1
  Bi  Bi0  1  0.03629900  0.11694200  0.82089000  1
  Bi  Bi1  1  0.93661800  0.95406800  0.57024500  1
  Bi  Bi2  1  0.60518800  0.48694400  0.31767300  1
  Bi  Bi3  1  0.95400600  0.14737900  0.22305400  1
  Bi  Bi4  1  0.51305600  0.39481200  0.68232700  1
  Bi  Bi5  1  0.46961600  0.40817000  0.46659800  1
  Bi  Bi6  1  0.54933100  0.57170100  0.10882500  1
  Bi  Bi7  1  0.01992300  0.11511400  0.01215600  1
  Bi  Bi8  1  0.59183000  0.53038400  0.53340200  1
  Bi  Bi9  1  0.88305800  0.96370100  0.17911000  1
  Bi  Bi10  1  0.42829900  0.45066900  0.89117500  1
  Bi  Bi11  1  0.89310900  0.96464900  0.36693800  1
  Bi  Bi12  1  0.85262100  0.04599400  0.77694600  1
  Bi  Bi13  1  0.57561300  0.57474400  0.72907300  1
  Bi  Bi14  1  0.57318600  0.57665800  0.91467100  1
  Bi  Bi15  1  0.04593200  0.06338200  0.42975500  1
  Bi  Bi16  1  0.42334200  0.42681400  0.08532900  1
  Bi  Bi17  1  0.42525600  0.42438700  0.27092700  1
  Bi  Bi18  1  0.88488600  0.98007700  0.98784400  1
  Bi  Bi19  1  0.03535100  0.10689100  0.63306200  1
  O  O0  1  0.59305700  0.52357000  0.18987300  1
  O  O1  1  0.15647600  0.16321700  0.78749500  1
  O  O2  1  0.10822100  0.15721400  0.19421600  1
  O  O3  1  0.84278600  0.89177900  0.80578400  1
  O  O4  1  0.18143800  0.09038500  0.39100900  1
  O  O5  1  0.96396700  0.49651500  0.20774200  1
  O  O6  1  0.97686300  0.51864900  0.00077500  1
  O  O7  1  0.30937300  0.40250100  0.91965700  1
  O  O8  1  0.47678400  0.00328000  0.40310500  1
  O  O9  1  0.99464700  0.53306400  0.69688800  1
  O  O10  1  0.90961500  0.81856200  0.60899100  1
  O  O11  1  0.62126100  0.69499600  0.69291900  1
  O  O12  1  0.47643000  0.40694300  0.81012700  1
  O  O13  1  0.49897300  0.04229100  0.69219800  1
  O  O14  1  0.62032400  0.69570500  0.88211300  1
  O  O15  1  0.50348500  0.03603300  0.79225800  1
  O  O16  1  0.99672000  0.52321600  0.59689500  1
  O  O17  1  0.97666000  0.17785400  0.73120000  1
  O  O18  1  0.48330200  0.01681000  0.49935700  1
  O  O19  1  0.30500400  0.37873900  0.30708100  1
  O  O20  1  0.32413200  0.38972900  0.49837400  1
  O  O21  1  0.97449900  0.18139600  0.90838900  1
  O  O22  1  0.98319000  0.51669800  0.50064300  1
  O  O23  1  0.30429500  0.37967600  0.11788700  1
  O  O24  1  0.63582300  0.50572300  0.64168300  1
  O  O25  1  0.50259800  0.02163500  0.59441300  1
  O  O26  1  0.96689400  0.51207500  0.10333400  1
  O  O27  1  0.95770900  0.50102700  0.30780200  1
  O  O28  1  0.96423000  0.13913900  0.35305300  1
  O  O29  1  0.46899100  0.99088400  0.20601300  1
  O  O30  1  0.86086100  0.03577000  0.64694700  1
  O  O31  1  0.55044300  0.32179500  0.54847900  1
  O  O32  1  0.98548000  0.53041000  0.89809100  1
  O  O33  1  0.46959000  0.01452000  0.10190900  1
  O  O34  1  0.81860400  0.02550100  0.09161100  1
  O  O35  1  0.47971400  0.35960200  0.18194400  1
  O  O36  1  0.84868700  0.85031400  0.01822700  1
  O  O37  1  0.14968600  0.15131300  0.98177300  1
  O  O38  1  0.59749900  0.69062700  0.08034300  1
  O  O39  1  0.62817200  0.51583300  0.00018600  1
  O  O40  1  0.48135100  0.02313700  0.99922500  1
  O  O41  1  0.97836500  0.49740200  0.40558700  1
  O  O42  1  0.84497000  0.84706700  0.40097900  1
  O  O43  1  0.00911600  0.53100900  0.79398700  1
  O  O44  1  0.48792500  0.03310600  0.89666600  1
  O  O45  1  0.83678300  0.84352400  0.21250500  1
  O  O46  1  0.95033300  0.17819900  0.09565600  1
  O  O47  1  0.48416700  0.37182800  0.99981400  1
  O  O48  1  0.46693600  0.00535300  0.30311200  1
  O  O49  1  0.82180100  0.04966700  0.90434400  1
  O  O50  1  0.49427700  0.36417700  0.35831700  1
  O  O51  1  0.64039800  0.52028600  0.81805600  1
  O  O52  1  0.98667800  0.15070500  0.54955100  1
  O  O53  1  0.15293300  0.15503000  0.59902100  1
  O  O54  1  0.61027100  0.67586800  0.50162600  1
  O  O55  1  0.82214600  0.02334000  0.26880000  1
  O  O56  1  0.67820500  0.44955700  0.45152100  1
  O  O57  1  0.84929500  0.01332200  0.45044900  1
loop_
_geom_bond_atom_site_label_1
_geom_bond_atom_site_label_2
_geom_bond_distance
_geom_bond_site_symmetry_2
Cu0 O16 1.907386 1_555
Cu0 O25 1.915773 1_565
Cu0 O9 1.928338 1_555
Cu0 O13 1.943009 1_565
Cu0 O10 2.500383 1_555
Cu0 O11 2.690978 1_555
Cu1 O41 1.914594 1_555
Cu1 O18 1.916540 1_565
Cu1 O8 1.919416 1_565
Cu1 O22 1.921338 1_555
Cu1 O54 2.545461 1_555
Cu1 O42 2.571971 1_555
Cu2 O8 1.907386 1_555
Cu2 O41 1.915773 1_455
Cu2 O48 1.928338 1_555
Cu2 O27 1.943009 1_455
Cu2 O4 2.500383 1_555
Cu2 O19 2.690978 1_555
Cu3 O32 1.913471 1_555
Cu3 O15 1.914406 1_565
Cu3 O44 1.920602 1_565
Cu3 O43 1.929246 1_655
Cu3 O3 2.581255 1_555
Cu3 O14 2.667836 1_555
Cu4 O40 1.897448 1_564
Cu4 O33 1.900995 1_565
Cu4 O6 1.904118 1_555
Cu4 O26 1.909656 1_555
Cu4 O38 2.545144 1_555
Cu4 O36 2.634865 1_555
Cu5 O6 1.897448 1_456
Cu5 O32 1.900995 1_455
Cu5 O40 1.904118 1_555
Cu5 O44 1.909656 1_555
Cu5 O7 2.545144 1_555
Cu5 O37 2.634865 1_555
Cu6 O25 1.914594 1_555
Cu6 O22 1.916540 1_455
Cu6 O16 1.919416 1_455
Cu6 O18 1.921338 1_555
Cu6 O20 2.545461 1_555
Cu6 O53 2.571971 1_555
Cu7 O33 1.913471 1_555
Cu7 O5 1.914406 1_455
Cu7 O26 1.920602 1_455
Cu7 O29 1.929246 1_545
Cu7 O2 2.581255 1_555
Cu7 O23 2.667836 1_555
Cu8 O15 1.892679 1_555
Cu8 O9 1.895952 1_455
Cu8 O43 1.904697 1_555
Cu8 O13 1.905769 1_555
Cu8 O1 2.691442 1_555
Cu9 O5 1.892679 1_555
Cu9 O48 1.895952 1_565
Cu9 O29 1.904697 1_555
Cu9 O27 1.905769 1_555
Cu9 O45 2.691442 1_555
Bi0 O1 2.094857 1_555
Bi0 O51 2.161654 1_455
Bi0 O21 2.398950 1_455
Bi0 O17 2.434408 1_455
Bi1 O10 2.064506 1_555
Bi1 O30 2.144620 1_565
Bi1 O31 2.161520 1_565
Bi2 O28 2.166945 1_555
Bi3 O2 2.094192 1_655
Bi3 O0 2.159782 1_555
Bi4 O30 2.166945 1_555
Bi5 O20 2.082195 1_555
Bi5 O57 2.163738 1_555
Bi5 O31 2.226419 1_555
Bi6 O38 2.105702 1_555
Bi6 O46 2.171569 1_555
Bi6 O0 2.177529 1_555
Bi6 O39 2.845782 1_555
Bi7 O37 2.095523 1_554
Bi7 O39 2.161534 1_455
Bi7 O46 2.247822 1_455
Bi7 O21 2.717068 1_454
Bi8 O54 2.082195 1_555
Bi8 O52 2.163738 1_555
Bi8 O56 2.226419 1_555
Bi9 O45 2.094857 1_555
Bi9 O35 2.161654 1_565
Bi9 O34 2.398950 1_565
Bi9 O55 2.434408 1_565
Bi10 O7 2.105702 1_555
Bi10 O49 2.171569 1_555
Bi10 O12 2.177529 1_555
Bi10 O47 2.845782 1_555
Bi11 O42 2.084852 1_555
Bi11 O50 2.169061 1_565
Bi11 O57 2.293017 1_565
Bi11 O55 2.739523 1_565
Bi12 O3 2.094192 1_545
Bi12 O12 2.159782 1_555
Bi13 O11 2.090026 1_555
Bi13 O17 2.157893 1_555
Bi13 O24 2.432011 1_555
Bi13 O51 2.479773 1_555
Bi14 O14 2.091007 1_555
Bi14 O21 2.157814 1_555
Bi14 O39 2.298045 1_556
Bi14 O51 2.573536 1_555
Bi15 O4 2.064506 1_555
Bi15 O28 2.144620 1_455
Bi15 O56 2.161520 1_455
Bi16 O23 2.091007 1_555
Bi16 O34 2.157814 1_555
Bi16 O47 2.298045 1_554
Bi16 O35 2.573536 1_555
Bi17 O19 2.090026 1_555
Bi17 O55 2.157893 1_555
Bi17 O50 2.432011 1_555
Bi17 O35 2.479773 1_555
Bi18 O36 2.095523 1_556
Bi18 O47 2.161534 1_565
Bi18 O49 2.247822 1_565
Bi18 O34 2.717068 1_566
Bi19 O53 2.084852 1_555
Bi19 O24 2.169061 1_455
Bi19 O52 2.293017 1_455
Bi19 O17 2.739523 1_455
O0 Sr4 2.817762 1_555
O1 Sr11 2.710317 1_555
O1 Sr7 2.729442 1_545
O1 Sr5 2.733414 1_555
O1 Sr7 2.914206 1_455
O2 Sr4 2.833821 1_455
O2 Sr12 2.848100 1_555
O2 Sr4 2.850222 1_545
O2 Sr1 3.034826 1_555
O3 Sr10 2.833821 1_565
O3 Sr14 2.848100 1_555
O3 Sr10 2.850222 1_655
O3 Sr3 3.034826 1_555
O4 Sr17 2.535321 1_545
O4 Sr12 2.736055 1_555
O4 Sr17 3.130937 1_455
O4 Sr0 3.219786 1_555
O5 Sr12 2.504761 1_655
O5 Sr4 2.670488 1_555
O5 Sr15 2.697268 1_655
O5 Sr2 2.743380 1_555
O6 Sr1 2.558397 1_655
O6 Sr6 2.601625 1_554
O6 Sr3 2.638138 1_554
O6 Sr16 2.656203 1_655
O7 Sr3 2.670620 1_455
O7 Sr16 2.704180 1_556
O7 Sr10 2.782894 1_555
O7 Sr3 2.938285 1_545
O8 Sr17 2.532846 1_545
O8 Sr19 2.634643 1_545
O8 Sr13 2.635325 1_555
O8 Sr0 2.659965 1_555
O9 Sr14 2.564813 1_555
O9 Sr7 2.604299 1_555
O9 Sr5 2.639121 1_655
O9 Sr18 2.746095 1_655
O10 Sr18 2.535321 1_655
O10 Sr14 2.736055 1_555
O10 Sr18 3.130937 1_565
O10 Sr8 3.219786 1_555
O11 Sr7 2.687774 1_555
O11 Sr5 2.714452 1_565
O11 Sr9 2.759057 1_555
O11 Sr5 2.919966 1_655
O12 Sr10 2.817762 1_555
O13 Sr14 2.533496 1_545
O13 Sr18 2.563886 1_555
O13 Sr5 2.717970 1_555
O13 Sr7 2.746136 1_545
O14 Sr7 2.698024 1_555
O14 Sr11 2.716410 1_565
O14 Sr6 2.743243 1_555
O14 Sr11 2.922121 1_655
O15 Sr14 2.504761 1_545
O15 Sr10 2.670488 1_555
O15 Sr7 2.697268 1_545
O15 Sr11 2.743380 1_555
O16 Sr18 2.532846 1_655
O16 Sr5 2.634643 1_655
O16 Sr9 2.635325 1_555
O16 Sr8 2.659965 1_555
O17 Sr5 2.866854 1_655
O18 Sr0 2.545488 1_555
O18 Sr8 2.594217 1_545
O18 Sr13 2.630710 1_555
O18 Sr9 2.649950 1_545
O19 Sr15 2.687774 1_555
O19 Sr19 2.714452 1_455
O19 Sr13 2.759057 1_555
O19 Sr19 2.919966 1_545
O20 Sr8 2.699311 1_455
O20 Sr18 2.806804 1_555
O20 Sr13 2.827250 1_555
O20 Sr8 2.932132 1_545
O21 Sr11 2.854198 1_655
O22 Sr8 2.545488 1_555
O22 Sr0 2.594217 1_655
O22 Sr9 2.630710 1_555
O22 Sr13 2.649950 1_655
O23 Sr15 2.698024 1_555
O23 Sr2 2.716410 1_455
O23 Sr16 2.743243 1_555
O23 Sr2 2.922121 1_545
O24 Sr9 2.882920 1_555
O25 Sr18 2.519531 1_555
O25 Sr8 2.606112 1_545
O25 Sr9 2.624064 1_545
O25 Sr5 2.725566 1_555
O26 Sr4 2.514958 1_555
O26 Sr2 2.624386 1_555
O26 Sr1 2.634800 1_655
O26 Sr16 2.650917 1_655
O27 Sr12 2.533496 1_655
O27 Sr17 2.563886 1_555
O27 Sr19 2.717970 1_555
O27 Sr15 2.746136 1_655
O28 Sr12 2.962540 1_655
O29 Sr12 2.513101 1_565
O29 Sr4 2.584250 1_555
O29 Sr2 2.703270 1_555
O29 Sr15 2.768454 1_565
O30 Sr14 2.962540 1_545
O31 Sr18 2.732044 1_555
O32 Sr10 2.564578 1_655
O32 Sr6 2.611110 1_555
O32 Sr11 2.613912 1_655
O32 Sr3 2.660008 1_555
O33 Sr4 2.564578 1_545
O33 Sr16 2.611110 1_555
O33 Sr2 2.613912 1_545
O33 Sr1 2.660008 1_555
O34 Sr2 2.854198 1_545
O35 Sr15 2.839920 1_555
O36 Sr16 2.694838 1_655
O36 Sr2 2.726893 1_555
O36 Sr3 2.750446 1_554
O36 Sr16 2.942573 1_565
O37 Sr6 2.694838 1_545
O37 Sr11 2.726893 1_555
O37 Sr1 2.750446 1_556
O37 Sr6 2.942573 1_455
O38 Sr1 2.670620 1_565
O38 Sr6 2.704180 1_554
O38 Sr4 2.782894 1_555
O38 Sr1 2.938285 1_655
O39 Sr6 2.830681 1_554
O40 Sr3 2.558397 1_545
O40 Sr16 2.601625 1_556
O40 Sr1 2.638138 1_556
O40 Sr6 2.656203 1_545
O41 Sr17 2.519531 1_555
O41 Sr0 2.606112 1_655
O41 Sr13 2.624064 1_655
O41 Sr19 2.725566 1_555
O42 Sr19 2.676966 1_555
O42 Sr13 2.719539 1_655
O42 Sr8 2.798087 1_555
O42 Sr13 2.887002 1_565
O43 Sr14 2.513101 1_455
O43 Sr10 2.584250 1_555
O43 Sr11 2.703270 1_555
O43 Sr7 2.768454 1_455
O44 Sr10 2.514958 1_555
O44 Sr11 2.624386 1_555
O44 Sr3 2.634800 1_545
O44 Sr6 2.650917 1_545
O45 Sr2 2.710317 1_555
O45 Sr15 2.729442 1_655
O45 Sr19 2.733414 1_555
O45 Sr15 2.914206 1_565
O46 Sr1 2.840977 1_655
O47 Sr16 2.830681 1_556
O48 Sr12 2.564813 1_555
O48 Sr15 2.604299 1_555
O48 Sr19 2.639121 1_545
O48 Sr17 2.746095 1_545
O49 Sr3 2.840977 1_545
O50 Sr13 2.882920 1_555
O51 Sr7 2.839920 1_555
O52 Sr0 2.730891 1_655
O53 Sr5 2.676966 1_555
O53 Sr9 2.719539 1_545
O53 Sr0 2.798087 1_555
O53 Sr9 2.887002 1_455
O54 Sr0 2.699311 1_565
O54 Sr17 2.806804 1_555
O54 Sr9 2.827250 1_555
O54 Sr0 2.932132 1_655
O55 Sr19 2.866854 1_545
O56 Sr17 2.732044 1_555
O57 Sr8 2.730891 1_545
