# generated using pymatgen
data_Rb2H4Pd
_symmetry_space_group_name_H-M   'P 1'
_cell_length_a   5.86620338
_cell_length_b   5.86620338
_cell_length_c   8.57090789
_cell_angle_alpha   90.00000000
_cell_angle_beta   90.00000000
_cell_angle_gamma   90.00000000
_symmetry_Int_Tables_number   1
_chemical_formula_structural   Rb2H4Pd
_chemical_formula_sum   'Rb4 H8 Pd2'
_cell_volume   294.94501438
_cell_formula_units_Z   2
loop_
 _symmetry_equiv_pos_site_id
 _symmetry_equiv_pos_as_xyz
  1  'x, y, z'
loop_
 _atom_site_type_symbol
 _atom_site_label
 _atom_site_symmetry_multiplicity
 _atom_site_fract_x
 _atom_site_fract_y
 _atom_site_fract_z
 _atom_site_occupancy
  Rb  Rb0  1  0.00000000  0.50000000  0.25000000  1
  Rb  Rb1  1  0.50000000  -0.00000000  0.75000000  1
  Rb  Rb2  1  0.00000000  0.50000000  0.75000000  1
  Rb  Rb3  1  0.50000000  -0.00000000  0.25000000  1
  H  H0  1  0.50000000  0.50000000  0.30778309  1
  H  H1  1  0.00000000  -0.00000000  0.80778309  1
  H  H2  1  0.50000000  0.50000000  0.69221691  1
  H  H3  1  0.00000000  -0.00000000  0.19221691  1
  H  H4  1  0.30119647  0.69880353  0.50000000  1
  H  H5  1  0.69880353  0.30119647  0.50000000  1
  H  H6  1  0.19880353  0.19880353  0.00000000  1
  H  H7  1  0.80119647  0.80119647  -0.00000000  1
  Pd  Pd0  1  0.50000000  0.50000000  0.50000000  1
  Pd  Pd1  1  0.00000000  -0.00000000  -0.00000000  1
loop_
_geom_bond_atom_site_label_1
_geom_bond_atom_site_label_2
_geom_bond_distance
_geom_bond_site_symmetry_2
H0 Pd0 1.647473 1_555
H0 Rb0 2.974620 1_655
H0 Rb0 2.974620 1_555
H0 Rb3 2.974620 1_565
H0 Rb3 2.974620 1_555
H1 Pd1 1.647473 1_556
H1 Rb2 2.974620 1_555
H1 Rb1 2.974620 1_455
H1 Rb1 2.974620 1_555
H1 Rb2 2.974620 1_545
H2 Pd0 1.647473 1_555
H2 Rb2 2.974620 1_555
H2 Rb1 2.974620 1_565
H2 Rb1 2.974620 1_555
H2 Rb2 2.974620 1_655
H3 Pd1 1.647473 1_555
H3 Rb3 2.974620 1_455
H3 Rb0 2.974620 1_555
H3 Rb0 2.974620 1_545
H3 Rb3 2.974620 1_555
H4 Pd0 1.649287 1_555
H4 Rb0 3.012178 1_555
H4 Rb2 3.012178 1_555
H4 Rb3 3.012178 1_565
H4 Rb1 3.012178 1_565
H5 Pd0 1.649287 1_555
H5 Rb3 3.012178 1_555
H5 Rb1 3.012178 1_555
H5 Rb2 3.012178 1_655
H5 Rb0 3.012178 1_655
H6 Pd1 1.649287 1_555
H6 Rb1 3.012178 1_554
H6 Rb3 3.012178 1_555
H6 Rb2 3.012178 1_554
H6 Rb0 3.012178 1_555
H7 Pd1 1.649287 1_665
H7 Rb0 3.012178 1_655
H7 Rb3 3.012178 1_565
H7 Rb2 3.012178 1_654
H7 Rb1 3.012178 1_564
