# generated using pymatgen
data_Ba(Mo3O5)2
_symmetry_space_group_name_H-M   'P 1'
_cell_length_a   9.14128200
_cell_length_b   9.61443013
_cell_length_c   10.51228374
_cell_angle_alpha   89.87122321
_cell_angle_beta   89.70747766
_cell_angle_gamma   89.11723001
_symmetry_Int_Tables_number   1
_chemical_formula_structural   Ba(Mo3O5)2
_chemical_formula_sum   'Ba4 Mo24 O40'
_cell_volume   923.78200433
_cell_formula_units_Z   4
loop_
 _symmetry_equiv_pos_site_id
 _symmetry_equiv_pos_as_xyz
  1  'x, y, z'
loop_
 _atom_site_type_symbol
 _atom_site_label
 _atom_site_symmetry_multiplicity
 _atom_site_fract_x
 _atom_site_fract_y
 _atom_site_fract_z
 _atom_site_occupancy
  Ba  Ba0  1  0.25359600  0.01600700  0.90094000  1
  Ba  Ba1  1  0.75179900  0.98775100  0.09990900  1
  Ba  Ba2  1  0.75300300  0.51400000  0.59951300  1
  Ba  Ba3  1  0.24039000  0.48605000  0.40206300  1
  Mo  Mo0  1  0.59091900  0.87620600  0.72090300  1
  Mo  Mo1  1  0.09285400  0.11755200  0.28295100  1
  Mo  Mo2  1  0.41245000  0.37398800  0.78801700  1
  Mo  Mo3  1  0.90899100  0.62690600  0.21848500  1
  Mo  Mo4  1  0.40952300  0.12269000  0.28139400  1
  Mo  Mo5  1  0.90974800  0.87393700  0.71139900  1
  Mo  Mo6  1  0.58981600  0.62480400  0.21263000  1
  Mo  Mo7  1  0.08941800  0.37663300  0.78078300  1
  Mo  Mo8  1  0.24845500  0.87151300  0.21603800  1
  Mo  Mo9  1  0.75408400  0.12903600  0.78690000  1
  Mo  Mo10  1  0.74669900  0.37020900  0.28681900  1
  Mo  Mo11  1  0.25442000  0.63049200  0.71387100  1
  Mo  Mo12  1  0.59700400  0.13648500  0.54528600  1
  Mo  Mo13  1  0.09547500  0.87330700  0.45049800  1
  Mo  Mo14  1  0.40948600  0.63341500  0.95403900  1
  Mo  Mo15  1  0.90330800  0.36272600  0.04536200  1
  Mo  Mo16  1  0.40439500  0.86382600  0.45576400  1
  Mo  Mo17  1  0.90823400  0.13605200  0.54466000  1
  Mo  Mo18  1  0.59054900  0.36385500  0.04579800  1
  Mo  Mo19  1  0.10207700  0.63284300  0.95179800  1
  Mo  Mo20  1  0.24788800  0.11922700  0.54142900  1
  Mo  Mo21  1  0.75280900  0.88049100  0.46004000  1
  Mo  Mo22  1  0.74883200  0.62029500  0.96155500  1
  Mo  Mo23  1  0.25232300  0.38069800  0.04026500  1
  O  O0  1  0.58477900  0.01066800  0.85970900  1
  O  O1  1  0.09663500  0.99305700  0.13113600  1
  O  O2  1  0.39584200  0.51008100  0.63242100  1
  O  O3  1  0.91681900  0.48904300  0.35541400  1
  O  O4  1  0.41124700  0.98797000  0.14141100  1
  O  O5  1  0.89862000  0.01056500  0.86506400  1
  O  O6  1  0.60219200  0.48951800  0.36661200  1
  O  O7  1  0.08447300  0.51080300  0.64131400  1
  O  O8  1  0.24687000  0.74529800  0.54095700  1
  O  O9  1  0.75181500  0.26680300  0.46069100  1
  O  O10  1  0.74845700  0.23413800  0.95974800  1
  O  O11  1  0.24531100  0.75406000  0.04168700  1
  O  O12  1  0.57385500  0.00081000  0.38218400  1
  O  O13  1  0.07635900  0.99740800  0.62354200  1
  O  O14  1  0.42254700  0.50245500  0.12525300  1
  O  O15  1  0.93003500  0.50144500  0.88278500  1
  O  O16  1  0.58905000  0.23617100  0.20895700  1
  O  O17  1  0.43058800  0.99673000  0.61934600  1
  O  O18  1  0.57958600  0.49791300  0.87560400  1
  O  O19  1  0.07156200  0.50444600  0.11515000  1
  O  O20  1  0.24151600  0.24207200  0.71238100  1
  O  O21  1  0.75686400  0.75819500  0.29107200  1
  O  O22  1  0.74289100  0.74272500  0.79191800  1
  O  O23  1  0.25086000  0.25388600  0.21293000  1
  O  O24  1  0.40294100  0.76553100  0.79408500  1
  O  O25  1  0.90658100  0.23991600  0.20686900  1
  O  O26  1  0.59241600  0.25976500  0.70736100  1
  O  O27  1  0.09503200  0.74052900  0.29157300  1
  O  O28  1  0.08155600  0.26580400  0.95486200  1
  O  O29  1  0.58564900  0.74300600  0.04209900  1
  O  O30  1  0.91995000  0.76141200  0.53793800  1
  O  O31  1  0.41590500  0.23228300  0.45304400  1
  O  O32  1  0.91989900  0.73422400  0.04549100  1
  O  O33  1  0.41295000  0.25500200  0.95844700  1
  O  O34  1  0.08541400  0.23868800  0.45009700  1
  O  O35  1  0.58737200  0.76395700  0.54873200  1
  O  O36  1  0.90699500  0.26373300  0.70673400  1
  O  O37  1  0.41427700  0.74052900  0.29725600  1
  O  O38  1  0.08223100  0.75450400  0.79725700  1
  O  O39  1  0.92350900  0.00386700  0.37175700  1
loop_
_geom_bond_atom_site_label_1
_geom_bond_atom_site_label_2
_geom_bond_distance
_geom_bond_site_symmetry_2
Ba0 O33 2.808148 1_555
Ba0 O1 2.816941 1_546
Ba0 O28 2.905714 1_555
Ba0 O11 2.919854 1_546
Ba0 O4 2.926084 1_546
Ba0 O20 2.939519 1_555
Ba0 O24 2.969867 1_545
Ba0 O0 3.055779 1_555
Ba0 O38 3.180285 1_545
Ba0 O5 3.269923 1_455
Ba0 O13 3.349629 1_545
Ba0 O17 3.370333 1_545
Ba1 O10 2.786748 1_564
Ba1 O5 2.813716 1_564
Ba1 O29 2.887754 1_555
Ba1 O32 2.917518 1_555
Ba1 O0 2.963439 1_564
Ba1 O21 2.981511 1_555
Ba1 O16 3.019503 1_565
Ba1 O25 3.046021 1_565
Ba1 O4 3.141267 1_555
Ba1 O1 3.172159 1_655
Ba1 O39 3.272582 1_565
Ba1 O12 3.378313 1_565
Ba2 O9 2.791923 1_555
Ba2 O6 2.827948 1_555
Ba2 O35 2.871083 1_555
Ba2 O30 2.915679 1_555
Ba2 O3 2.972719 1_555
Ba2 O36 2.990206 1_555
Ba2 O22 2.991188 1_555
Ba2 O7 3.063653 1_655
Ba2 O26 3.081577 1_555
Ba2 O2 3.282214 1_555
Ba2 O18 3.304410 1_555
Ba2 O15 3.397431 1_555
Ba3 O2 2.825698 1_555
Ba3 O34 2.830038 1_555
Ba3 O7 2.892974 1_555
Ba3 O8 2.893067 1_555
Ba3 O31 2.948974 1_555
Ba3 O23 2.992655 1_555
Ba3 O3 3.000389 1_455
Ba3 O27 3.000615 1_555
Ba3 O37 3.133142 1_555
Ba3 O6 3.327042 1_555
Ba3 O14 3.349880 1_555
Ba3 O19 3.398046 1_555
Mo0 O0 1.951665 1_565
Mo0 O22 2.021276 1_555
Mo0 O35 2.109971 1_555
Mo0 O17 2.142117 1_555
Mo0 O24 2.171640 1_555
Mo1 O1 1.996897 1_545
Mo1 O23 2.095069 1_555
Mo1 O34 2.110434 1_555
Mo1 O39 2.120236 1_455
Mo1 O25 2.207062 1_455
Mo2 O2 2.096978 1_555
Mo2 O33 2.123508 1_555
Mo2 O26 2.136729 1_555
Mo2 O18 2.162645 1_555
Mo2 O20 2.181889 1_555
Mo3 O3 1.955386 1_555
Mo3 O21 2.012175 1_555
Mo3 O32 2.091556 1_555
Mo3 O19 2.170280 1_655
Mo3 O27 2.179514 1_655
Mo4 O4 1.962415 1_545
Mo4 O23 2.040311 1_555
Mo4 O31 2.093115 1_555
Mo4 O16 2.121829 1_555
Mo4 O12 2.169975 1_555
Mo5 O5 2.085439 1_565
Mo5 O30 2.123251 1_555
Mo5 O38 2.138524 1_655
Mo5 O13 2.149017 1_655
Mo5 O22 2.162341 1_555
Mo6 O6 2.076700 1_555
Mo6 O29 2.120573 1_555
Mo6 O37 2.130521 1_555
Mo6 O14 2.154076 1_555
Mo6 O21 2.175893 1_555
Mo7 O7 1.950897 1_555
Mo7 O20 2.015554 1_555
Mo7 O28 2.116982 1_555
Mo7 O36 2.153564 1_455
Mo7 O15 2.156031 1_455
Mo8 O1 2.011519 1_555
Mo8 O4 2.029555 1_555
Mo8 O27 2.054739 1_555
Mo8 O37 2.135923 1_555
Mo8 O11 2.155485 1_555
Mo9 O5 1.918006 1_555
Mo9 O0 2.077134 1_555
Mo9 O10 2.081113 1_555
Mo9 O36 2.092845 1_555
Mo9 O26 2.100855 1_555
Mo10 O6 1.926321 1_555
Mo10 O3 2.076923 1_555
Mo10 O9 2.079109 1_555
Mo10 O25 2.085052 1_555
Mo10 O16 2.116960 1_555
Mo11 O2 1.921371 1_555
Mo11 O24 2.076267 1_555
Mo11 O7 2.095370 1_555
Mo11 O8 2.125359 1_555
Mo11 O38 2.144837 1_555
Mo12 O26 2.077569 1_555
Mo12 O9 2.097655 1_555
Mo12 O31 2.120044 1_555
Mo12 O12 2.169877 1_555
Mo12 O17 2.184483 1_545
Mo13 O8 2.071224 1_555
Mo13 O27 2.104904 1_555
Mo13 O30 2.147198 1_455
Mo13 O39 2.163287 1_465
Mo13 O13 2.182506 1_555
Mo14 O11 2.093739 1_556
Mo14 O24 2.105589 1_555
Mo14 O29 2.152270 1_556
Mo14 O18 2.173524 1_555
Mo14 O14 2.196916 1_556
Mo15 O25 2.065921 1_555
Mo15 O28 2.090406 1_654
Mo15 O10 2.100979 1_554
Mo15 O15 2.180564 1_554
Mo15 O19 2.200224 1_655
Mo16 O37 2.047911 1_555
Mo16 O8 2.051108 1_555
Mo16 O35 2.153556 1_555
Mo16 O17 2.161179 1_555
Mo16 O12 2.185989 1_565
Mo17 O9 2.087224 1_555
Mo17 O36 2.102066 1_555
Mo17 O34 2.147929 1_655
Mo17 O13 2.184349 1_645
Mo17 O39 2.222759 1_555
Mo18 O10 2.096084 1_554
Mo18 O16 2.107094 1_555
Mo18 O33 2.155476 1_554
Mo18 O14 2.181914 1_555
Mo18 O18 2.204483 1_554
Mo19 O38 2.007062 1_555
Mo19 O11 2.007516 1_556
Mo19 O19 2.132296 1_556
Mo19 O32 2.151992 1_456
Mo19 O15 2.161625 1_455
Mo20 O34 2.098546 1_555
Mo20 O31 2.106198 1_555
Mo20 O13 2.147951 1_545
Mo20 O20 2.152733 1_555
Mo20 O17 2.190038 1_545
Mo21 O30 2.066496 1_555
Mo21 O35 2.108267 1_555
Mo21 O21 2.132204 1_555
Mo21 O12 2.152953 1_565
Mo21 O39 2.177277 1_565
Mo22 O29 2.066727 1_556
Mo22 O32 2.120135 1_556
Mo22 O22 2.134981 1_555
Mo22 O15 2.160337 1_555
Mo22 O18 2.160925 1_555
Mo23 O33 2.072036 1_554
Mo23 O28 2.129543 1_554
Mo23 O14 2.159843 1_555
Mo23 O19 2.167021 1_555
Mo23 O23 2.184398 1_555
