# generated using pymatgen
data_InCuSe2
_symmetry_space_group_name_H-M   'P 1'
_cell_length_a   6.71741791
_cell_length_b   6.71741791
_cell_length_c   6.71741791
_cell_angle_alpha   131.12794846
_cell_angle_beta   131.12794846
_cell_angle_gamma   71.60987450
_symmetry_Int_Tables_number   1
_chemical_formula_structural   InCuSe2
_chemical_formula_sum   'In2 Cu2 Se4'
_cell_volume   168.27429898
_cell_formula_units_Z   2
loop_
 _symmetry_equiv_pos_site_id
 _symmetry_equiv_pos_as_xyz
  1  'x, y, z'
loop_
 _atom_site_type_symbol
 _atom_site_label
 _atom_site_symmetry_multiplicity
 _atom_site_fract_x
 _atom_site_fract_y
 _atom_site_fract_z
 _atom_site_occupancy
  In  In0  1  0.00000000  0.00000000  0.00000000  1
  In  In1  1  0.75000000  0.25000000  0.50000000  1
  Cu  Cu0  1  0.50000000  0.50000000  0.00000000  1
  Cu  Cu1  1  0.25000000  0.75000000  0.50000000  1
  Se  Se0  1  0.01087700  0.51087700  0.50000000  1
  Se  Se1  1  0.73912300  0.73912300  0.00000000  1
  Se  Se2  1  0.48912300  0.98912300  0.50000000  1
  Se  Se3  1  0.26087700  0.26087700  0.00000000  1
loop_
_geom_bond_atom_site_label_1
_geom_bond_atom_site_label_2
_geom_bond_distance
_geom_bond_site_symmetry_2
In0 Se2 2.781367 1_545
In0 Se2 2.781367 1_444
In0 Se0 2.781367 1_544
In0 Se0 2.781367 1_555
In0 Se3 2.842472 1_555
In0 Se1 2.842472 1_445
In1 Se1 2.781367 1_545
In1 Se3 2.781367 1_656
In1 Se3 2.781367 1_555
In1 Se1 2.781367 1_556
In1 Se0 2.842472 1_655
In1 Se2 2.842472 1_545
Cu0 Se3 2.605444 1_555
Cu0 Se1 2.605444 1_555
Cu0 Se2 2.781367 1_544
Cu0 Se2 2.781367 1_555
Cu0 Se0 2.781367 1_655
Cu0 Se0 2.781367 1_554
Cu1 Se2 2.605444 1_555
Cu1 Se0 2.605444 1_555
Cu1 Se1 2.781367 1_455
Cu1 Se3 2.781367 1_555
Cu1 Se3 2.781367 1_566
Cu1 Se1 2.781367 1_556
