# generated using pymatgen
data_Nb6Co7
_symmetry_space_group_name_H-M   'P 1'
_cell_length_a   10.78192261
_cell_length_b   10.78192261
_cell_length_c   10.78192277
_cell_angle_alpha   26.63334333
_cell_angle_beta   26.63334333
_cell_angle_gamma   26.63334892
_symmetry_Int_Tables_number   1
_chemical_formula_structural   Nb6Co7
_chemical_formula_sum   'Nb6 Co7'
_cell_volume   222.05493655
_cell_formula_units_Z   1
loop_
 _symmetry_equiv_pos_site_id
 _symmetry_equiv_pos_as_xyz
  1  'x, y, z'
loop_
 _atom_site_type_symbol
 _atom_site_label
 _atom_site_symmetry_multiplicity
 _atom_site_fract_x
 _atom_site_fract_y
 _atom_site_fract_z
 _atom_site_occupancy
  Nb  Nb0  1  0.20290900  0.20290900  0.20290900  1
  Nb  Nb1  1  0.11609700  0.11609700  0.11609700  1
  Nb  Nb2  1  0.55382100  0.55382100  0.55382100  1
  Nb  Nb3  1  0.79709100  0.79709100  0.79709100  1
  Nb  Nb4  1  0.44617900  0.44617900  0.44617900  1
  Nb  Nb5  1  0.88390300  0.88390300  0.88390300  1
  Co  Co0  1  0.59197100  0.12294400  0.12294400  1
  Co  Co1  1  0.12294400  0.12294400  0.59197100  1
  Co  Co2  1  0.87705600  0.87705600  0.40802900  1
  Co  Co3  1  0.87705600  0.40802900  0.87705600  1
  Co  Co4  1  0.00000000  0.00000000  0.00000000  1
  Co  Co5  1  0.12294400  0.59197100  0.12294400  1
  Co  Co6  1  0.40802900  0.87705600  0.87705600  1
loop_
_geom_bond_atom_site_label_1
_geom_bond_atom_site_label_2
_geom_bond_distance
_geom_bond_site_symmetry_2
Nb0 Nb1 2.706864 1_555
Nb0 Nb5 2.902209 1_445
Nb0 Nb5 2.902209 1_454
Nb0 Nb5 2.902209 1_544
Nb0 Nb2 2.919533 1_554
Nb0 Nb2 2.919534 1_455
Nb0 Nb2 2.919534 1_545
Nb1 Nb4 2.869411 1_554
Nb1 Nb4 2.869412 1_545
Nb1 Nb4 2.869412 1_455
Nb1 Nb3 2.902209 1_445
Nb1 Nb3 2.902209 1_454
Nb1 Nb3 2.902209 1_544
Nb2 Nb5 2.869411 1_554
Nb2 Nb5 2.869412 1_455
Nb2 Nb5 2.869412 1_545
Nb2 Nb4 3.356359 1_555
Nb3 Nb5 2.706864 1_555
Nb3 Nb4 2.919533 1_556
Nb3 Nb4 2.919534 1_655
Nb3 Nb4 2.919534 1_565
Co0 Co4 2.271208 1_655
Co0 Co1 2.329593 1_555
Co0 Co5 2.329593 1_555
Co0 Nb5 2.462056 1_544
Co0 Co1 2.637270 1_654
Co0 Co5 2.637271 1_645
Co0 Nb0 2.735061 1_555
Co0 Nb2 3.088143 1_545
Co0 Nb2 3.088143 1_554
Co1 Co4 2.271208 1_556
Co1 Co5 2.329593 1_555
Co1 Nb5 2.462055 1_445
Co1 Co5 2.637270 1_546
Co1 Nb0 2.735061 1_555
Co1 Nb2 3.088144 1_545
Co1 Nb2 3.088144 1_455
Co2 Co4 2.271208 1_665
Co2 Co6 2.329593 1_555
Co2 Co3 2.329593 1_555
Co2 Nb1 2.462055 1_665
Co2 Co3 2.637270 1_564
Co2 Co6 2.637270 1_654
Co2 Nb3 2.735061 1_555
Co2 Nb4 3.088144 1_565
Co2 Nb4 3.088144 1_655
Co3 Co4 2.271208 1_656
Co3 Co6 2.329593 1_555
Co3 Nb1 2.462056 1_656
Co3 Co6 2.637271 1_645
Co3 Nb3 2.735061 1_555
Co3 Nb4 3.088143 1_655
Co3 Nb4 3.088143 1_556
Co4 Co6 2.271208 1_544
Co4 Co5 2.271208 1_545
Co5 Nb5 2.462056 1_454
Co5 Nb0 2.735061 1_555
Co5 Nb2 3.088143 1_455
Co5 Nb2 3.088143 1_554
Co6 Nb1 2.462056 1_566
Co6 Nb3 2.735061 1_555
Co6 Nb4 3.088143 1_565
Co6 Nb4 3.088143 1_556
