# generated using pymatgen
data_RbC2N3
_symmetry_space_group_name_H-M   'P 1'
_cell_length_a   12.30628748
_cell_length_b   3.88187744
_cell_length_c   25.57799393
_cell_angle_alpha   80.65524310
_cell_angle_beta   90.00000000
_cell_angle_gamma   90.00000000
_symmetry_Int_Tables_number   1
_chemical_formula_structural   RbC2N3
_chemical_formula_sum   'Rb12 C24 N36'
_cell_volume   1205.68352463
_cell_formula_units_Z   12
loop_
 _symmetry_equiv_pos_site_id
 _symmetry_equiv_pos_as_xyz
  1  'x, y, z'
loop_
 _atom_site_type_symbol
 _atom_site_label
 _atom_site_symmetry_multiplicity
 _atom_site_fract_x
 _atom_site_fract_y
 _atom_site_fract_z
 _atom_site_occupancy
  Rb  Rb0  1  0.15018079  0.51906958  0.01424319  1
  Rb  Rb1  1  0.09184280  0.55950549  0.40048679  1
  Rb  Rb2  1  0.59184280  0.44049451  0.09951321  1
  Rb  Rb3  1  0.40815720  0.55950549  0.90048679  1
  Rb  Rb4  1  0.51232613  0.56625867  0.25596265  1
  Rb  Rb5  1  0.90815720  0.44049451  0.59951321  1
  Rb  Rb6  1  0.84981921  0.48093042  0.98575681  1
  Rb  Rb7  1  0.34981921  0.51906958  0.51424319  1
  Rb  Rb8  1  0.48767387  0.43374133  0.74403735  1
  Rb  Rb9  1  0.65018079  0.48093042  0.48575681  1
  Rb  Rb10  1  0.98767387  0.56625867  0.75596265  1
  Rb  Rb11  1  0.01232613  0.43374133  0.24403735  1
  C  C0  1  0.32639989  0.98780004  0.12156177  1
  C  C1  1  0.24489483  0.10124358  0.79216590  1
  C  C2  1  0.82639989  0.01219996  0.37843823  1
  C  C3  1  -0.00028250  0.07201871  0.90143746  1
  C  C4  1  0.78965057  0.96660856  0.29282427  1
  C  C5  1  0.17360011  0.98780004  0.62156177  1
  C  C6  1  0.00028250  0.92798129  0.09856254  1
  C  C7  1  0.12938029  0.97452630  0.53487751  1
  C  C8  1  0.25510517  0.10124358  0.29216590  1
  C  C9  1  0.37061971  0.97452630  0.03487751  1
  C  C10  1  0.34945949  0.98432751  0.64995421  1
  C  C11  1  0.15054051  0.98432751  0.14995421  1
  C  C12  1  0.75510517  0.89875642  0.20783410  1
  C  C13  1  0.67360011  0.01219996  0.87843823  1
  C  C14  1  0.71034943  0.96660856  0.79282427  1
  C  C15  1  0.21034943  0.03339144  0.70717573  1
  C  C16  1  0.62938029  0.02547370  0.96512249  1
  C  C17  1  0.74489483  0.89875642  0.70783410  1
  C  C18  1  0.65054051  0.01567249  0.35004579  1
  C  C19  1  0.87061971  0.02547370  0.46512249  1
  C  C20  1  0.49971750  0.92798129  0.59856254  1
  C  C21  1  0.50028250  0.07201871  0.40143746  1
  C  C22  1  0.84945949  0.01567249  0.85004579  1
  C  C23  1  0.28965057  0.03339144  0.20717573  1
  N  N0  1  0.68171913  0.98511036  0.30062444  1
  N  N1  1  0.82683114  0.92962816  0.24390847  1
  N  N2  1  0.86614383  0.98234202  0.33028898  1
  N  N3  1  0.21970451  0.96968423  0.10925988  1
  N  N4  1  0.45486050  0.10829278  0.44085522  1
  N  N5  1  0.30475880  0.13793579  0.82683473  1
  N  N6  1  0.84920042  0.02680498  0.51017188  1
  N  N7  1  0.13385617  0.01765798  0.66971102  1
  N  N8  1  0.95884289  0.03225029  0.85643008  1
  N  N9  1  0.18171913  0.01488964  0.19937556  1
  N  N10  1  0.40254606  0.97869719  0.08283866  1
  N  N11  1  0.59745394  0.02130281  0.91716134  1
  N  N12  1  0.34920042  0.97319502  0.98982812  1
  N  N13  1  0.09745394  0.97869719  0.58283866  1
  N  N14  1  0.31828087  0.01488964  0.69937556  1
  N  N15  1  0.65079958  0.02680498  0.01017188  1
  N  N16  1  0.69524120  0.86206421  0.17316527  1
  N  N17  1  0.28029549  0.96968423  0.60925988  1
  N  N18  1  0.95486050  0.89170722  0.05914478  1
  N  N19  1  0.36614383  0.01765798  0.16971102  1
  N  N20  1  0.17316886  0.07037184  0.75609153  1
  N  N21  1  0.81828087  0.98511036  0.80062444  1
  N  N22  1  0.78029549  0.03031577  0.89074012  1
  N  N23  1  0.45884289  0.96774971  0.64356992  1
  N  N24  1  0.63385617  0.98234202  0.83028898  1
  N  N25  1  0.04513950  0.10829278  0.94085522  1
  N  N26  1  0.54115711  0.03225029  0.35643008  1
  N  N27  1  0.32683114  0.07037184  0.25609153  1
  N  N28  1  0.19524120  0.13793579  0.32683473  1
  N  N29  1  0.15079958  0.97319502  0.48982812  1
  N  N30  1  0.80475880  0.86206421  0.67316527  1
  N  N31  1  0.71970451  0.03031577  0.39074012  1
  N  N32  1  0.04115711  0.96774971  0.14356992  1
  N  N33  1  0.54513950  0.89170722  0.55914478  1
  N  N34  1  0.90254606  0.02130281  0.41716134  1
  N  N35  1  0.67316886  0.92962816  0.74390847  1
loop_
_geom_bond_atom_site_label_1
_geom_bond_atom_site_label_2
_geom_bond_distance
_geom_bond_site_symmetry_2
C0 N19 1.347498 1_565
C0 N3 1.354686 1_555
C0 N10 1.368114 1_555
C1 N5 1.179143 1_555
C1 N20 1.296453 1_555
C2 N2 1.347498 1_545
C2 N31 1.354686 1_555
C2 N34 1.368114 1_555
C3 N25 1.181063 1_555
C3 N8 1.288343 1_455
C4 N0 1.346784 1_555
C4 N2 1.351724 1_555
C4 N1 1.361511 1_555
C5 N7 1.347498 1_565
C5 N17 1.354686 1_555
C5 N13 1.368114 1_555
C6 N18 1.181063 1_455
C6 N32 1.288343 1_555
C7 N29 1.182867 1_555
C7 N13 1.290734 1_555
C8 N28 1.179143 1_555
C8 N27 1.296453 1_555
C9 N12 1.182867 1_554
C9 N10 1.290734 1_555
C10 N14 1.344598 1_565
C10 N17 1.352899 1_555
C10 N23 1.358755 1_555
C11 N9 1.344598 1_565
C11 N3 1.352899 1_555
C11 N32 1.358755 1_555
C12 N16 1.179143 1_555
C12 N1 1.296453 1_555
C13 N24 1.347498 1_545
C13 N22 1.354686 1_555
C13 N11 1.368114 1_555
C14 N21 1.346784 1_555
C14 N24 1.351724 1_555
C14 N35 1.361511 1_555
C15 N14 1.346784 1_555
C15 N7 1.351724 1_555
C15 N20 1.361511 1_555
C16 N15 1.182867 1_556
C16 N11 1.290734 1_555
C17 N30 1.179143 1_555
C17 N35 1.296453 1_555
C18 N0 1.344598 1_545
C18 N31 1.352899 1_555
C18 N26 1.358755 1_555
C19 N6 1.182867 1_555
C19 N34 1.290734 1_555
C20 N33 1.181063 1_555
C20 N23 1.288343 1_555
C21 N4 1.181063 1_555
C21 N26 1.288343 1_555
C22 N21 1.344598 1_545
C22 N22 1.352899 1_555
C22 N8 1.358755 1_555
C23 N9 1.346784 1_555
C23 N19 1.351724 1_555
C23 N27 1.361511 1_555
N0 Rb4 2.982847 1_555
N0 Rb4 3.146891 1_565
N1 Rb11 2.985705 1_655
N1 Rb11 3.007084 1_665
N2 Rb11 3.149349 1_665
N3 Rb0 3.082781 1_565
N3 Rb0 3.328504 1_555
N4 Rb7 2.951154 1_555
N4 Rb7 3.005320 1_545
N4 Rb9 3.119075 1_555
N5 Rb3 2.972575 1_545
N5 Rb3 2.974450 1_555
N5 Rb8 3.175040 1_555
N6 Rb9 3.023027 1_555
N6 Rb5 3.039655 1_545
N6 Rb5 3.085296 1_555
N6 Rb9 3.362813 1_545
N7 Rb10 3.149349 1_445
N8 Rb10 3.049055 1_555
N8 Rb10 3.392834 1_545
N9 Rb11 2.982847 1_555
N9 Rb11 3.146891 1_545
N10 Rb2 3.011729 1_565
N10 Rb2 3.111945 1_555
N11 Rb3 3.011729 1_545
N11 Rb3 3.111945 1_555
N12 Rb0 3.023027 1_556
N12 Rb3 3.039655 1_565
N12 Rb3 3.085296 1_555
N12 Rb0 3.362813 1_566
N13 Rb5 3.011729 1_465
N13 Rb5 3.111945 1_455
N14 Rb8 2.982847 1_555
N14 Rb8 3.146891 1_545
N15 Rb6 3.023027 1_554
N15 Rb2 3.039655 1_545
N15 Rb2 3.085296 1_555
N15 Rb6 3.362813 1_544
N16 Rb2 2.972575 1_565
N16 Rb2 2.974450 1_555
N16 Rb4 3.175040 1_555
N17 Rb7 3.082781 1_565
N17 Rb7 3.328504 1_555
N18 Rb6 2.951154 1_554
N18 Rb6 3.005320 1_564
N18 Rb0 3.119075 1_655
N19 Rb4 3.149349 1_545
N20 Rb10 2.985705 1_455
N20 Rb10 3.007084 1_445
N21 Rb10 2.982847 1_555
N21 Rb10 3.146891 1_565
N22 Rb6 3.082781 1_545
N22 Rb6 3.328504 1_555
N23 Rb8 3.049055 1_555
N23 Rb8 3.392834 1_565
N24 Rb8 3.149349 1_565
N25 Rb0 2.951154 1_556
N25 Rb0 3.005320 1_546
N25 Rb6 3.119075 1_455
N26 Rb4 3.049055 1_555
N26 Rb4 3.392834 1_545
N27 Rb4 2.985705 1_555
N27 Rb4 3.007084 1_545
N28 Rb1 2.972575 1_545
N28 Rb1 2.974450 1_555
N28 Rb11 3.175040 1_555
N29 Rb7 3.023027 1_555
N29 Rb1 3.039655 1_565
N29 Rb1 3.085296 1_555
N29 Rb7 3.362813 1_565
N30 Rb5 2.972575 1_565
N30 Rb5 2.974450 1_555
N30 Rb10 3.175040 1_555
N31 Rb9 3.082781 1_545
N31 Rb9 3.328504 1_555
N32 Rb11 3.049055 1_555
N32 Rb11 3.392834 1_565
N33 Rb9 2.951154 1_555
N33 Rb9 3.005320 1_565
N33 Rb7 3.119075 1_555
N34 Rb1 3.011729 1_645
N34 Rb1 3.111945 1_655
N35 Rb8 2.985705 1_555
N35 Rb8 3.007084 1_565
