# generated using pymatgen
data_K2LiTa6(PO8)3
_symmetry_space_group_name_H-M   'P 1'
_cell_length_a   8.47202500
_cell_length_b   8.48089852
_cell_length_c   8.48235566
_cell_angle_alpha   104.03099078
_cell_angle_beta   104.14174800
_cell_angle_gamma   104.13255181
_symmetry_Int_Tables_number   1
_chemical_formula_structural   K2LiTa6(PO8)3
_chemical_formula_sum   'K2 Li1 Ta6 P3 O24'
_cell_volume   542.72216874
_cell_formula_units_Z   1
loop_
 _symmetry_equiv_pos_site_id
 _symmetry_equiv_pos_as_xyz
  1  'x, y, z'
loop_
 _atom_site_type_symbol
 _atom_site_label
 _atom_site_symmetry_multiplicity
 _atom_site_fract_x
 _atom_site_fract_y
 _atom_site_fract_z
 _atom_site_occupancy
  K  K0  1  0.70355100  0.08710700  0.40039100  1
  K  K1  1  0.29605900  0.59933500  0.91349500  1
  Li  Li0  1  0.56641500  0.56636800  0.56465100  1
  Ta  Ta0  1  0.35125700  0.16068600  0.03568600  1
  Ta  Ta1  1  0.03730800  0.35391300  0.16312800  1
  Ta  Ta2  1  0.97043000  0.84360000  0.65194000  1
  Ta  Ta3  1  0.16129800  0.03614400  0.35338000  1
  Ta  Ta4  1  0.65430700  0.97187800  0.84578600  1
  Ta  Ta5  1  0.84509400  0.65246200  0.97155200  1
  P  P0  1  0.72371900  0.49962400  0.27509700  1
  P  P1  1  0.27522500  0.72396600  0.49897800  1
  P  P2  1  0.49924300  0.27562600  0.72362300  1
  O  O0  1  0.97403000  0.50086800  0.02899400  1
  O  O1  1  0.00128700  0.84785700  0.15365800  1
  O  O2  1  0.70874000  0.58173200  0.13098300  1
  O  O3  1  0.20831800  0.31468300  0.06544600  1
  O  O4  1  0.86872100  0.41836900  0.29062800  1
  O  O5  1  0.55258700  0.35679100  0.23786000  1
  O  O6  1  0.75480800  0.63560100  0.44934300  1
  O  O7  1  0.31464900  0.06607300  0.20835800  1
  O  O8  1  0.29237600  0.87021900  0.42026400  1
  O  O9  1  0.23608700  0.55194000  0.35794400  1
  O  O10  1  0.06332400  0.20496300  0.31069500  1
  O  O11  1  0.02504500  0.97006700  0.49711400  1
  O  O12  1  0.78924500  0.92960800  0.68394900  1
  O  O13  1  0.44861400  0.75263400  0.63655500  1
  O  O14  1  0.13270500  0.71049000  0.58363300  1
  O  O15  1  0.93153800  0.68801100  0.79261300  1
  O  O16  1  0.35883300  0.23641000  0.55070200  1
  O  O17  1  0.63457100  0.45055100  0.75425400  1
  O  O18  1  0.58230200  0.13168500  0.70810600  1
  O  O19  1  0.68384900  0.78929700  0.92886800  1
  O  O20  1  0.41977800  0.29310000  0.86955200  1
  O  O21  1  0.84766100  0.15386800  0.00222200  1
  O  O22  1  0.15396800  0.00033600  0.84769300  1
  O  O23  1  0.49905900  0.02713600  0.97185800  1
loop_
_geom_bond_atom_site_label_1
_geom_bond_atom_site_label_2
_geom_bond_distance
_geom_bond_site_symmetry_2
K0 O18 3.005379 1_555
K0 O12 3.045418 1_545
K0 O11 3.114504 1_645
K0 O7 3.238880 1_555
K0 O4 3.271525 1_555
K0 O5 3.295964 1_555
K0 O10 3.298856 1_655
K1 O20 3.005590 1_555
K1 O3 3.023632 1_556
K1 O0 3.112986 1_456
K1 O19 3.241948 1_555
K1 O14 3.264464 1_555
K1 O13 3.320080 1_555
K1 O15 3.333898 1_455
Li0 O6 2.105348 1_555
Li0 O13 2.112730 1_555
Li0 O17 2.115166 1_555
O0 Ta5 1.952695 1_554
O0 Ta1 1.962402 1_655
O1 Ta5 1.890062 1_454
O1 Ta3 1.940767 1_565
O2 P0 1.541247 1_555
O2 Ta5 2.083623 1_554
O3 Ta1 1.893292 1_555
O3 Ta0 1.999443 1_555
O4 P0 1.542624 1_555
O4 Ta1 2.087541 1_655
O5 P0 1.549911 1_555
O5 Ta0 2.102070 1_555
O6 P0 1.555237 1_555
O6 Ta2 2.196474 1_555
O7 Ta0 1.885630 1_555
O7 Ta3 2.009191 1_555
O8 P1 1.538298 1_555
O8 Ta3 2.092278 1_565
O9 P1 1.547002 1_555
O9 Ta1 2.073799 1_555
O10 Ta3 1.885410 1_555
O10 Ta1 1.994741 1_555
O11 Ta2 1.956216 1_455
O11 Ta3 1.958596 1_565
O12 Ta2 1.901686 1_555
O12 Ta4 2.012022 1_555
O13 P1 1.558571 1_555
O13 Ta4 2.224903 1_555
O14 P1 1.543586 1_555
O14 Ta2 2.080899 1_455
O15 Ta5 1.894272 1_555
O15 Ta2 2.004203 1_555
O16 P2 1.547501 1_555
O16 Ta3 2.086057 1_555
O17 P2 1.555558 1_555
O17 Ta5 2.209626 1_555
O18 P2 1.545816 1_555
O18 Ta4 2.096658 1_545
O19 Ta4 1.894515 1_555
O19 Ta5 2.019943 1_555
O20 P2 1.540902 1_555
O20 Ta0 2.105401 1_556
O21 Ta4 1.880550 1_544
O21 Ta1 1.948629 1_655
O22 Ta2 1.897537 1_445
O22 Ta0 1.929249 1_556
O23 Ta4 1.959187 1_545
O23 Ta0 1.967341 1_556
