# generated using pymatgen
data_Cs3TbF6
_symmetry_space_group_name_H-M   'P 1'
_cell_length_a   7.03041240
_cell_length_b   7.03041240
_cell_length_c   7.03041240
_cell_angle_alpha   60.00000000
_cell_angle_beta   60.00000000
_cell_angle_gamma   60.00000000
_symmetry_Int_Tables_number   1
_chemical_formula_structural   Cs3TbF6
_chemical_formula_sum   'Cs3 Tb1 F6'
_cell_volume   245.71258743
_cell_formula_units_Z   1
loop_
 _symmetry_equiv_pos_site_id
 _symmetry_equiv_pos_as_xyz
  1  'x, y, z'
loop_
 _atom_site_type_symbol
 _atom_site_label
 _atom_site_symmetry_multiplicity
 _atom_site_fract_x
 _atom_site_fract_y
 _atom_site_fract_z
 _atom_site_occupancy
  Cs  Cs0  1  0.50000000  0.50000000  0.50000000  1
  Cs  Cs1  1  0.75000000  0.75000000  0.75000000  1
  Cs  Cs2  1  0.25000000  0.25000000  0.25000000  1
  Tb  Tb0  1  0.00000000  0.00000000  -0.00000000  1
  F  F0  1  0.21896743  0.78103257  0.78103257  1
  F  F1  1  0.21896743  0.21896743  0.78103257  1
  F  F2  1  0.21896743  0.78103257  0.21896743  1
  F  F3  1  0.78103257  0.21896743  0.21896743  1
  F  F4  1  0.78103257  0.78103257  0.21896743  1
  F  F5  1  0.78103257  0.21896743  0.78103257  1
loop_
_geom_bond_atom_site_label_1
_geom_bond_atom_site_label_2
_geom_bond_distance
_geom_bond_site_symmetry_2
Cs0 F5 2.794168 1_555
Cs0 F3 2.794168 1_555
Cs0 F0 2.794168 1_555
Cs0 F1 2.794168 1_555
Cs0 F4 2.794168 1_555
Cs0 F2 2.794168 1_555
Cs1 F5 3.528721 1_555
Cs1 F2 3.528721 1_556
Cs1 F5 3.528721 1_565
Cs1 F1 3.528721 1_565
Cs1 F3 3.528721 1_556
Cs1 F0 3.528721 1_555
Cs1 F2 3.528721 1_655
Cs1 F3 3.528721 1_565
Cs1 F4 3.528721 1_555
Cs1 F4 3.528721 1_556
Cs1 F0 3.528721 1_655
Cs1 F1 3.528721 1_655
Cs2 F5 3.528721 1_455
Cs2 F2 3.528721 1_545
Cs2 F2 3.528721 1_555
Cs2 F4 3.528721 1_545
Cs2 F0 3.528721 1_554
Cs2 F3 3.528721 1_555
Cs2 F3 3.528721 1_455
Cs2 F4 3.528721 1_455
Cs2 F1 3.528721 1_555
Cs2 F1 3.528721 1_554
Cs2 F0 3.528721 1_545
Cs2 F5 3.528721 1_554
F0 Tb0 2.177085 1_566
F1 Tb0 2.177085 1_556
F2 Tb0 2.177085 1_565
F3 Tb0 2.177085 1_655
F4 Tb0 2.177085 1_665
F5 Tb0 2.177085 1_656
