# generated using pymatgen
data_Ce3(AlI)2
_symmetry_space_group_name_H-M   'P 1'
_cell_length_a   9.97708332
_cell_length_b   9.97708332
_cell_length_c   12.14969780
_cell_angle_alpha   59.17530316
_cell_angle_beta   59.17530316
_cell_angle_gamma   24.39944651
_symmetry_Int_Tables_number   1
_chemical_formula_structural   Ce3(AlI)2
_chemical_formula_sum   'Ce6 Al4 I4'
_cell_volume   425.44170076
_cell_formula_units_Z   2
loop_
 _symmetry_equiv_pos_site_id
 _symmetry_equiv_pos_as_xyz
  1  'x, y, z'
loop_
 _atom_site_type_symbol
 _atom_site_label
 _atom_site_symmetry_multiplicity
 _atom_site_fract_x
 _atom_site_fract_y
 _atom_site_fract_z
 _atom_site_occupancy
  Ce  Ce0  1  0.17195200  0.17195200  0.60233000  1
  Ce  Ce1  1  0.46538200  0.46538200  0.69093800  1
  Ce  Ce2  1  0.24509400  0.24509400  0.19485800  1
  Ce  Ce3  1  0.75490600  0.75490600  0.80514200  1
  Ce  Ce4  1  0.53461800  0.53461800  0.30906200  1
  Ce  Ce5  1  0.82804800  0.82804800  0.39767000  1
  Al  Al0  1  0.92619900  0.92619900  0.53251900  1
  Al  Al1  1  0.07380100  0.07380100  0.46748100  1
  Al  Al2  1  0.65957200  0.65957200  0.41563900  1
  Al  Al3  1  0.34042800  0.34042800  0.58436100  1
  I  I0  1  0.85854000  0.85854000  0.93990600  1
  I  I1  1  0.57640700  0.57640700  0.82907700  1
  I  I2  1  0.14146000  0.14146000  0.06009400  1
  I  I3  1  0.42359300  0.42359300  0.17092300  1
loop_
_geom_bond_atom_site_label_1
_geom_bond_atom_site_label_2
_geom_bond_distance
_geom_bond_site_symmetry_2
Ce0 I1 3.181904 1_545
Ce0 I1 3.181904 1_455
Ce1 I1 3.363965 1_555
Ce1 I0 3.365759 1_545
Ce1 I0 3.365759 1_455
Ce2 I2 3.199410 1_555
Ce2 I3 3.338106 1_555
Ce2 I0 3.427779 1_454
Ce2 I0 3.427779 1_544
Ce3 I0 3.199410 1_555
Ce3 I1 3.338106 1_555
Ce3 I2 3.427779 1_656
Ce3 I2 3.427779 1_566
Ce4 I3 3.363965 1_555
Ce4 I2 3.365759 1_655
Ce4 I2 3.365759 1_565
Ce5 I3 3.181904 1_655
Ce5 I3 3.181904 1_565
Al0 Al1 2.554713 1_665
Al0 Al3 2.556467 1_565
Al0 Al3 2.556467 1_655
Al0 Ce5 3.104390 1_555
Al0 Ce4 3.204380 1_655
Al0 Ce4 3.204380 1_565
Al0 Ce1 3.205631 1_565
Al0 Ce1 3.205631 1_655
Al0 Ce3 3.244970 1_555
Al1 Al2 2.556467 1_545
Al1 Al2 2.556467 1_455
Al1 Ce0 3.104390 1_555
Al1 Ce1 3.204380 1_455
Al1 Ce1 3.204380 1_545
Al1 Ce4 3.205631 1_545
Al1 Ce4 3.205631 1_455
Al1 Ce2 3.244970 1_555
Al2 Ce2 3.119531 1_565
Al2 Ce2 3.119531 1_655
Al2 Ce5 3.176869 1_555
Al2 Ce0 3.197284 1_655
Al2 Ce0 3.197284 1_565
Al2 Ce4 3.305245 1_555
Al2 Ce1 3.499928 1_555
Al3 Ce3 3.119531 1_545
Al3 Ce3 3.119531 1_455
Al3 Ce0 3.176869 1_555
Al3 Ce5 3.197284 1_545
Al3 Ce5 3.197284 1_455
Al3 Ce1 3.305245 1_555
Al3 Ce4 3.499928 1_555
