# generated using pymatgen
data_K3P6S6N7
_symmetry_space_group_name_H-M   'P 1'
_cell_length_a   21.47244513
_cell_length_b   21.47244513
_cell_length_c   21.47244514
_cell_angle_alpha   30.71906350
_cell_angle_beta   30.71906350
_cell_angle_gamma   30.71906243
_symmetry_Int_Tables_number   1
_chemical_formula_structural   K3P6S6N7
_chemical_formula_sum   'K12 P24 S24 N28'
_cell_volume   2290.81759091
_cell_formula_units_Z   4
loop_
 _symmetry_equiv_pos_site_id
 _symmetry_equiv_pos_as_xyz
  1  'x, y, z'
loop_
 _atom_site_type_symbol
 _atom_site_label
 _atom_site_symmetry_multiplicity
 _atom_site_fract_x
 _atom_site_fract_y
 _atom_site_fract_z
 _atom_site_occupancy
  K  K0  1  0.98368600  0.45992200  0.45626200  1
  K  K1  1  0.48368600  0.95626200  0.95992200  1
  K  K2  1  0.95992200  0.48368600  0.95626200  1
  K  K3  1  0.45626200  0.98368600  0.45992200  1
  K  K4  1  0.04373800  0.04007800  0.51631400  1
  K  K5  1  0.01631400  0.54007800  0.54373800  1
  K  K6  1  0.54373800  0.01631400  0.54007800  1
  K  K7  1  0.95626200  0.95992200  0.48368600  1
  K  K8  1  0.51631400  0.04373800  0.04007800  1
  K  K9  1  0.45992200  0.45626200  0.98368600  1
  K  K10  1  0.54007800  0.54373800  0.01631400  1
  K  K11  1  0.04007800  0.51631400  0.04373800  1
  P  P0  1  0.43885000  0.45933300  0.71252400  1
  P  P1  1  0.54066700  0.28747600  0.56115000  1
  P  P2  1  0.82349900  0.26171500  0.88637000  1
  P  P3  1  0.21252400  0.95933300  0.93885000  1
  P  P4  1  0.88637000  0.82349900  0.26171500  1
  P  P5  1  0.73828500  0.11363000  0.17650100  1
  P  P6  1  0.78747600  0.04066700  0.06115000  1
  P  P7  1  0.38637000  0.76171500  0.32349900  1
  P  P8  1  0.17650100  0.73828500  0.11363000  1
  P  P9  1  0.71252400  0.43885000  0.45933300  1
  P  P10  1  0.04066700  0.06115000  0.78747600  1
  P  P11  1  0.28747600  0.56115000  0.54066700  1
  P  P12  1  0.61363000  0.23828500  0.67650100  1
  P  P13  1  0.76171500  0.32349900  0.38637000  1
  P  P14  1  0.23828500  0.67650100  0.61363000  1
  P  P15  1  0.95933300  0.93885000  0.21252400  1
  P  P16  1  0.45933300  0.71252400  0.43885000  1
  P  P17  1  0.11363000  0.17650100  0.73828500  1
  P  P18  1  0.06115000  0.78747600  0.04066700  1
  P  P19  1  0.32349900  0.38637000  0.76171500  1
  P  P20  1  0.93885000  0.21252400  0.95933300  1
  P  P21  1  0.56115000  0.54066700  0.28747600  1
  P  P22  1  0.67650100  0.61363000  0.23828500  1
  P  P23  1  0.26171500  0.88637000  0.82349900  1
  S  S0  1  0.01452300  0.84475400  0.32543300  1
  S  S1  1  0.46258900  0.77594300  0.74640000  1
  S  S2  1  0.48547700  0.17456700  0.65524600  1
  S  S3  1  0.25360000  0.53741100  0.22405700  1
  S  S4  1  0.75360000  0.72405700  0.03741100  1
  S  S5  1  0.17456700  0.65524600  0.48547700  1
  S  S6  1  0.82543300  0.34475400  0.51452300  1
  S  S7  1  0.24640000  0.27594300  0.96258900  1
  S  S8  1  0.53741100  0.22405700  0.25360000  1
  S  S9  1  0.03741100  0.75360000  0.72405700  1
  S  S10  1  0.72405700  0.03741100  0.75360000  1
  S  S11  1  0.98547700  0.15524600  0.67456700  1
  S  S12  1  0.96258900  0.24640000  0.27594300  1
  S  S13  1  0.32543300  0.01452300  0.84475400  1
  S  S14  1  0.27594300  0.96258900  0.24640000  1
  S  S15  1  0.15524600  0.67456700  0.98547700  1
  S  S16  1  0.84475400  0.32543300  0.01452300  1
  S  S17  1  0.74640000  0.46258900  0.77594300  1
  S  S18  1  0.67456700  0.98547700  0.15524600  1
  S  S19  1  0.22405700  0.25360000  0.53741100  1
  S  S20  1  0.51452300  0.82543300  0.34475400  1
  S  S21  1  0.65524600  0.48547700  0.17456700  1
  S  S22  1  0.34475400  0.51452300  0.82543300  1
  S  S23  1  0.77594300  0.74640000  0.46258900  1
  N  N0  1  0.03917400  0.03917400  0.03917400  1
  N  N1  1  0.96082600  0.96082600  0.96082600  1
  N  N2  1  0.79637700  0.03339600  0.26028100  1
  N  N3  1  0.20362300  0.96660400  0.73971900  1
  N  N4  1  0.53339600  0.29637700  0.76028100  1
  N  N5  1  0.79511700  0.99176600  0.17438200  1
  N  N6  1  0.99176600  0.17438200  0.79511700  1
  N  N7  1  0.82561800  0.20488300  0.00823400  1
  N  N8  1  0.67438200  0.49176600  0.29511700  1
  N  N9  1  0.96660400  0.73971900  0.20362300  1
  N  N10  1  0.50823400  0.70488300  0.32561800  1
  N  N11  1  0.70362300  0.23971900  0.46660400  1
  N  N12  1  0.20488300  0.00823400  0.82561800  1
  N  N13  1  0.26028100  0.79637700  0.03339600  1
  N  N14  1  0.70488300  0.32561800  0.50823400  1
  N  N15  1  0.46082600  0.46082600  0.46082600  1
  N  N16  1  0.49176600  0.29511700  0.67438200  1
  N  N17  1  0.53917400  0.53917400  0.53917400  1
  N  N18  1  0.32561800  0.50823400  0.70488300  1
  N  N19  1  0.23971900  0.46660400  0.70362300  1
  N  N20  1  0.73971900  0.20362300  0.96660400  1
  N  N21  1  0.03339600  0.26028100  0.79637700  1
  N  N22  1  0.76028100  0.53339600  0.29637700  1
  N  N23  1  0.29511700  0.67438200  0.49176600  1
  N  N24  1  0.29637700  0.76028100  0.53339600  1
  N  N25  1  0.17438200  0.79511700  0.99176600  1
  N  N26  1  0.00823400  0.82561800  0.20488300  1
  N  N27  1  0.46660400  0.70362300  0.23971900  1
loop_
_geom_bond_atom_site_label_1
_geom_bond_atom_site_label_2
_geom_bond_distance
_geom_bond_site_symmetry_2
K0 N9 3.041908 1_555
K0 S23 3.312428 1_555
K0 S11 3.453186 1_555
K0 S19 3.489715 1_655
K0 S17 3.622529 1_555
K0 S3 3.721583 1_655
K1 N27 3.041908 1_556
K1 S14 3.312428 1_556
K1 S2 3.453186 1_565
K1 S10 3.489715 1_565
K1 S7 3.622529 1_565
K1 S4 3.721583 1_556
K2 N19 3.041908 1_655
K2 S7 3.312428 1_655
K2 S21 3.453186 1_556
K2 S4 3.489715 1_556
K2 S12 3.622529 1_556
K2 S9 3.721583 1_655
K3 N3 3.041908 1_555
K3 S1 3.312428 1_555
K3 S18 3.453186 1_555
K3 S8 3.489715 1_565
K3 S23 3.622529 1_555
K3 S19 3.721583 1_565
K4 N24 3.041908 1_545
K4 S9 3.312428 1_545
K4 S6 3.453186 1_455
K4 S12 3.489715 1_455
K4 S10 3.622529 1_455
K4 S14 3.721583 1_545
K5 N21 3.041908 1_555
K5 S19 3.312428 1_555
K5 S0 3.453186 1_555
K5 S23 3.489715 1_455
K5 S3 3.622529 1_555
K5 S17 3.721583 1_455
K6 N2 3.041908 1_555
K6 S8 3.312428 1_555
K6 S13 3.453186 1_555
K6 S1 3.489715 1_545
K6 S19 3.622529 1_555
K6 S23 3.721583 1_545
K7 N11 3.041908 1_565
K7 S12 3.312428 1_565
K7 S5 3.453186 1_655
K7 S9 3.489715 1_655
K7 S14 3.622529 1_655
K7 S10 3.721583 1_565
K8 N4 3.041908 1_554
K8 S10 3.312428 1_554
K8 S20 3.453186 1_545
K8 S14 3.489715 1_545
K8 S4 3.622529 1_545
K8 S7 3.721583 1_554
K9 N20 3.041908 1_555
K9 S17 3.312428 1_555
K9 S15 3.453186 1_555
K9 S3 3.489715 1_556
K9 S1 3.622529 1_555
K9 S8 3.721583 1_556
K10 N13 3.041908 1_555
K10 S3 3.312428 1_555
K10 S16 3.453186 1_555
K10 S17 3.489715 1_554
K10 S8 3.622529 1_555
K10 S1 3.721583 1_554
K11 N22 3.041908 1_455
K11 S4 3.312428 1_455
K11 S22 3.453186 1_554
K11 S7 3.489715 1_554
K11 S9 3.622529 1_554
K11 S12 3.721583 1_455
P0 S22 1.940450 1_555
P1 S2 1.940450 1_555
P2 S17 1.963311 1_555
P3 S13 1.940450 1_565
P4 S23 1.963311 1_555
P5 S8 1.963311 1_555
P6 S18 1.940450 1_545
P7 S14 1.963311 1_555
P8 S3 1.963311 1_555
P9 S6 1.940450 1_555
P10 S11 1.940450 1_455
P11 S5 1.940450 1_555
P12 S10 1.963311 1_555
P13 S12 1.963311 1_555
P14 S9 1.963311 1_555
P15 S0 1.940450 1_655
P16 S20 1.940450 1_555
P17 S19 1.963311 1_555
P18 S15 1.940450 1_554
P19 S7 1.963311 1_555
P20 S16 1.940450 1_556
P21 S21 1.940450 1_555
P22 S4 1.963311 1_555
P23 S1 1.963311 1_555
N0 P20 1.739567 1_454
N0 P3 1.739567 1_544
N0 P15 1.739567 1_445
N1 P18 1.739567 1_656
N1 P6 1.739567 1_566
N1 P10 1.739567 1_665
N2 P5 1.610844 1_555
N2 P15 1.616449 1_545
N3 P23 1.610844 1_555
N3 P10 1.616449 1_565
N4 P12 1.610844 1_555
N4 P0 1.616449 1_555
N5 P4 1.704744 1_555
N5 P5 1.719700 1_565
N5 P6 1.743894 1_565
N6 P2 1.704744 1_555
N6 P17 1.719700 1_655
N6 P10 1.743894 1_655
N7 P5 1.704744 1_555
N7 P2 1.719700 1_554
N7 P20 1.743894 1_554
N8 P13 1.704744 1_555
N8 P22 1.719700 1_555
N8 P21 1.743894 1_555
N9 P4 1.610844 1_555
N9 P18 1.616449 1_655
N10 P22 1.704744 1_555
N10 P7 1.719700 1_555
N10 P16 1.743894 1_555
N11 P13 1.610844 1_555
N11 P1 1.616449 1_555
N12 P17 1.704744 1_555
N12 P23 1.719700 1_545
N12 P3 1.743894 1_545
N13 P8 1.610844 1_555
N13 P3 1.616449 1_554
N14 P12 1.704744 1_555
N14 P13 1.719700 1_555
N14 P9 1.743894 1_555
N15 P11 1.739567 1_555
N15 P1 1.739567 1_555
N15 P21 1.739567 1_555
N16 P19 1.704744 1_555
N16 P12 1.719700 1_555
N16 P1 1.743894 1_555
N17 P9 1.739567 1_555
N17 P16 1.739567 1_555
N17 P0 1.739567 1_555
N18 P14 1.704744 1_555
N18 P19 1.719700 1_555
N18 P0 1.743894 1_555
N19 P19 1.610844 1_555
N19 P11 1.616449 1_555
N20 P2 1.610844 1_555
N20 P6 1.616449 1_556
N21 P17 1.610844 1_555
N21 P20 1.616449 1_455
N22 P22 1.610844 1_555
N22 P9 1.616449 1_555
N23 P7 1.704744 1_555
N23 P14 1.719700 1_555
N23 P11 1.743894 1_555
N24 P14 1.610844 1_555
N24 P16 1.616449 1_555
N25 P23 1.704744 1_555
N25 P8 1.719700 1_556
N25 P18 1.743894 1_556
N26 P8 1.704744 1_555
N26 P4 1.719700 1_455
N26 P15 1.743894 1_455
N27 P7 1.610844 1_555
N27 P21 1.616449 1_555
