# generated using pymatgen
data_K2PO3F
_symmetry_space_group_name_H-M   'P 1'
_cell_length_a   6.06130000
_cell_length_b   7.75685400
_cell_length_c   10.23903400
_cell_angle_alpha   90.00000000
_cell_angle_beta   90.00000000
_cell_angle_gamma   90.00000000
_symmetry_Int_Tables_number   1
_chemical_formula_structural   K2PO3F
_chemical_formula_sum   'K8 P4 O12 F4'
_cell_volume   481.40476204
_cell_formula_units_Z   4
loop_
 _symmetry_equiv_pos_site_id
 _symmetry_equiv_pos_as_xyz
  1  'x, y, z'
loop_
 _atom_site_type_symbol
 _atom_site_label
 _atom_site_symmetry_multiplicity
 _atom_site_fract_x
 _atom_site_fract_y
 _atom_site_fract_z
 _atom_site_occupancy
  K  K0  1  0.25000000  0.01299300  0.27549400  1
  K  K1  1  0.75000000  0.98700700  0.72450600  1
  K  K2  1  0.25000000  0.51299300  0.22450600  1
  K  K3  1  0.75000000  0.48700700  0.77549400  1
  K  K4  1  0.25000000  0.18116900  0.92993300  1
  K  K5  1  0.75000000  0.81883100  0.07006700  1
  K  K6  1  0.25000000  0.68116900  0.57006700  1
  K  K7  1  0.75000000  0.31883100  0.42993300  1
  P  P0  1  0.25000000  0.23910400  0.59342400  1
  P  P1  1  0.75000000  0.76089600  0.40657600  1
  P  P2  1  0.25000000  0.73910400  0.90657600  1
  P  P3  1  0.75000000  0.26089600  0.09342400  1
  O  O0  1  0.75000000  0.66686900  0.53736800  1
  O  O1  1  0.25000000  0.33313100  0.46263200  1
  O  O2  1  0.25000000  0.83313100  0.03736800  1
  O  O3  1  0.75000000  0.16686900  0.96263200  1
  O  O4  1  0.53791500  0.74469500  0.32805100  1
  O  O5  1  0.03791500  0.25530500  0.67194900  1
  O  O6  1  0.96208500  0.24469500  0.17194900  1
  O  O7  1  0.46208500  0.75530500  0.82805100  1
  O  O8  1  0.46208500  0.25530500  0.67194900  1
  O  O9  1  0.96208500  0.74469500  0.32805100  1
  O  O10  1  0.03791500  0.75530500  0.82805100  1
  O  O11  1  0.53791500  0.24469500  0.17194900  1
  F  F0  1  0.75000000  0.46885400  0.04937400  1
  F  F1  1  0.25000000  0.53114600  0.95062600  1
  F  F2  1  0.25000000  0.03114600  0.54937400  1
  F  F3  1  0.75000000  0.96885400  0.45062600  1
loop_
_geom_bond_atom_site_label_1
_geom_bond_atom_site_label_2
_geom_bond_distance
_geom_bond_site_symmetry_2
K0 O11 2.720248 1_555
K0 O6 2.720248 1_455
K0 O4 2.768804 1_545
K0 O9 2.768804 1_445
K0 O2 2.809129 1_545
K0 O1 3.136572 1_555
K1 O10 2.720248 1_655
K1 O7 2.720248 1_555
K1 O5 2.768804 1_665
K1 O8 2.768804 1_565
K1 O3 2.809129 1_565
K1 O0 3.136572 1_555
K2 O4 2.720248 1_555
K2 O9 2.720248 1_455
K2 O11 2.768804 1_555
K2 O6 2.768804 1_455
K2 O1 2.809129 1_555
K2 O2 3.136572 1_555
K3 O5 2.720248 1_655
K3 O8 2.720248 1_555
K3 O10 2.768804 1_655
K3 O7 2.768804 1_555
K3 O0 2.809129 1_555
K3 O3 3.136572 1_555
K4 O2 2.915191 1_546
K4 O8 2.993458 1_555
K4 O5 2.993458 1_555
K4 O3 3.051104 1_455
K4 O3 3.051104 1_555
K4 O11 3.070645 1_556
K4 O6 3.070645 1_456
K5 O3 2.915191 1_564
K5 O9 2.993458 1_555
K5 O4 2.993458 1_555
K5 O2 3.051104 1_555
K5 O2 3.051104 1_655
K5 O10 3.070645 1_654
K5 O7 3.070645 1_554
K6 O1 2.915191 1_555
K6 O7 2.993458 1_555
K6 O10 2.993458 1_555
K6 O0 3.051104 1_455
K6 O0 3.051104 1_555
K6 O4 3.070645 1_555
K6 O9 3.070645 1_455
K7 O0 2.915191 1_555
K7 O6 2.993458 1_555
K7 O11 2.993458 1_555
K7 O1 3.051104 1_555
K7 O1 3.051104 1_655
K7 O5 3.070645 1_655
K7 O8 3.070645 1_555
O0 P1 1.524916 1_555
O1 P0 1.524916 1_555
O2 P2 1.524916 1_554
O3 P3 1.524916 1_556
O4 P1 1.521440 1_555
O5 P0 1.521440 1_555
O6 P3 1.521440 1_555
O7 P2 1.521440 1_555
O8 P0 1.521440 1_555
O9 P1 1.521440 1_555
O10 P2 1.521440 1_555
O11 P3 1.521440 1_555
F0 P3 1.674968 1_555
F0 K5 2.722976 1_555
F0 K3 2.807800 1_554
F1 P2 1.674968 1_555
F1 K4 2.722976 1_555
F1 K2 2.807800 1_556
F2 P0 1.674968 1_555
F2 K6 2.722976 1_545
F2 K0 2.807800 1_555
F3 P1 1.674968 1_555
F3 K7 2.722976 1_565
F3 K1 2.807800 1_555
