# generated using pymatgen
data_RbCS(OF)3
_symmetry_space_group_name_H-M   'P 1'
_cell_length_a   15.79189178
_cell_length_b   15.79189178
_cell_length_c   5.29117460
_cell_angle_alpha   82.10461826
_cell_angle_beta   82.10461826
_cell_angle_gamma   100.14967226
_symmetry_Int_Tables_number   1
_chemical_formula_structural   RbCS(OF)3
_chemical_formula_sum   'Rb8 C8 S8 O24 F24'
_cell_volume   1268.78348477
_cell_formula_units_Z   8
loop_
 _symmetry_equiv_pos_site_id
 _symmetry_equiv_pos_as_xyz
  1  'x, y, z'
loop_
 _atom_site_type_symbol
 _atom_site_label
 _atom_site_symmetry_multiplicity
 _atom_site_fract_x
 _atom_site_fract_y
 _atom_site_fract_z
 _atom_site_occupancy
  Rb  Rb0  1  0.88713800  0.13202200  0.49174600  1
  Rb  Rb1  1  0.08940200  0.59865800  0.51097500  1
  Rb  Rb2  1  0.59865800  0.08940200  0.51097500  1
  Rb  Rb3  1  0.87255700  0.87255700  0.48422800  1
  Rb  Rb4  1  0.59927700  0.34783400  0.50589700  1
  Rb  Rb5  1  0.32121600  0.32121600  0.50935200  1
  Rb  Rb6  1  0.13202200  0.88713800  0.49174600  1
  Rb  Rb7  1  0.34783400  0.59927700  0.50589700  1
  C  C0  1  0.36941800  0.79234400  0.88276100  1
  C  C1  1  0.07445300  0.38031300  0.11050400  1
  C  C2  1  0.79234400  0.36941800  0.88276100  1
  C  C3  1  0.38031300  0.07445300  0.11050400  1
  C  C4  1  0.86440200  0.63853300  0.16181100  1
  C  C5  1  0.12890500  0.12890500  0.83233500  1
  C  C6  1  0.57887500  0.57887500  0.80798800  1
  C  C7  1  0.63853300  0.86440200  0.16181100  1
  S  S0  1  0.03468700  0.03468700  0.88635900  1
  S  S1  1  0.75974000  0.24707000  0.90573600  1
  S  S2  1  0.43631100  0.19157000  0.05286800  1
  S  S3  1  0.19157000  0.43631100  0.05286800  1
  S  S4  1  0.72746000  0.96411600  0.08437300  1
  S  S5  1  0.96411600  0.72746000  0.08437300  1
  S  S6  1  0.24707000  0.75974000  0.90573600  1
  S  S7  1  0.48735300  0.48735300  0.96380800  1
  O  O0  1  0.21366900  0.83105600  0.00763900  1
  O  O1  1  0.74156100  0.98282400  0.34152900  1
  O  O2  1  0.93466800  0.79953200  0.94148700  1
  O  O3  1  0.02240900  0.02240900  0.62260700  1
  O  O4  1  0.19649800  0.49721300  0.81480600  1
  O  O5  1  0.45476800  0.45476800  0.74201600  1
  O  O6  1  0.67559200  0.22684300  0.07606200  1
  O  O7  1  0.23945500  0.36602600  0.02656700  1
  O  O8  1  0.20124600  0.47610800  0.28323500  1
  O  O9  1  0.68965400  0.02843600  0.93618300  1
  O  O10  1  0.79953200  0.93466800  0.94148700  1
  O  O11  1  0.49721300  0.19649800  0.81480600  1
  O  O12  1  0.06678600  0.96462200  0.02926900  1
  O  O13  1  0.83105600  0.21366900  0.00763900  1
  O  O14  1  0.02843600  0.68965400  0.93618300  1
  O  O15  1  0.52965800  0.42794200  0.11457600  1
  O  O16  1  0.98282400  0.74156100  0.34152900  1
  O  O17  1  0.75475900  0.23633500  0.63645500  1
  O  O18  1  0.42794200  0.52965800  0.11457600  1
  O  O19  1  0.96462200  0.06678600  0.02926900  1
  O  O20  1  0.47610800  0.20124600  0.28323500  1
  O  O21  1  0.22684300  0.67559200  0.07606200  1
  O  O22  1  0.23633500  0.75475900  0.63645500  1
  O  O23  1  0.36602600  0.23945500  0.02656700  1
  F  F0  1  0.56165000  0.88418100  0.26235900  1
  F  F1  1  0.04865500  0.36241300  0.88654000  1
  F  F2  1  0.74982100  0.41213500  0.71229600  1
  F  F3  1  0.41213500  0.74982100  0.71229600  1
  F  F4  1  0.77030600  0.39433700  0.11566100  1
  F  F5  1  0.43263100  0.02258900  0.21069400  1
  F  F6  1  0.87874400  0.39955400  0.80180000  1
  F  F7  1  0.05920500  0.30423000  0.27978500  1
  F  F8  1  0.54870900  0.63969600  0.65554100  1
  F  F9  1  0.80265400  0.65789700  0.33825600  1
  F  F10  1  0.11071500  0.20131300  0.69559600  1
  F  F11  1  0.65789700  0.80265400  0.33825600  1
  F  F12  1  0.39433700  0.77030600  0.11566100  1
  F  F13  1  0.20131300  0.11071500  0.69559600  1
  F  F14  1  0.82915300  0.62667400  0.94657000  1
  F  F15  1  0.61857500  0.61857500  0.98325000  1
  F  F16  1  0.62667400  0.82915300  0.94657000  1
  F  F17  1  0.14843000  0.14843000  0.06091300  1
  F  F18  1  0.88418100  0.56165000  0.26235900  1
  F  F19  1  0.02258900  0.43263100  0.21069400  1
  F  F20  1  0.30423000  0.05920500  0.27978500  1
  F  F21  1  0.39955400  0.87874400  0.80180000  1
  F  F22  1  0.63969600  0.54870900  0.65554100  1
  F  F23  1  0.36241300  0.04865500  0.88654000  1
loop_
_geom_bond_atom_site_label_1
_geom_bond_atom_site_label_2
_geom_bond_distance
_geom_bond_site_symmetry_2
C0 F21 1.351369 1_555
C0 F12 1.363175 1_556
C0 F3 1.370556 1_555
C1 F1 1.354347 1_554
C1 F7 1.359031 1_555
C1 F19 1.368935 1_555
C2 F6 1.351369 1_555
C2 F4 1.363175 1_556
C2 F2 1.370556 1_555
C3 F23 1.354347 1_554
C3 F20 1.359031 1_555
C3 F5 1.368935 1_555
C4 F14 1.355726 1_554
C4 F9 1.359925 1_555
C4 F18 1.362557 1_555
C5 F17 1.350666 1_556
C5 F10 1.363473 1_555
C5 F13 1.363473 1_555
C6 F15 1.351661 1_555
C6 F8 1.361645 1_555
C6 F22 1.361645 1_555
C7 F16 1.355726 1_554
C7 F11 1.359925 1_555
C7 F0 1.362557 1_555
O0 S6 1.461286 1_554
O0 Rb6 3.020996 1_555
O0 Rb6 3.256252 1_554
O1 S4 1.469268 1_555
O1 Rb3 3.036313 1_555
O1 Rb2 3.150655 1_565
O1 Rb0 3.252017 1_565
O2 S5 1.459444 1_556
O2 Rb3 2.903397 1_555
O2 Rb3 3.327679 1_556
O3 S0 1.469081 1_555
O3 Rb6 3.069099 1_545
O3 Rb0 3.069099 1_455
O3 Rb3 3.273314 1_445
O4 S3 1.459987 1_556
O4 Rb7 2.797576 1_555
O4 Rb1 3.000919 1_555
O5 S7 1.464672 1_555
O5 Rb5 3.204768 1_555
O5 Rb4 3.282518 1_555
O5 Rb7 3.282518 1_555
O6 S1 1.456844 1_554
O6 Rb2 2.900486 1_555
O6 Rb4 3.395299 1_555
O7 S3 1.460303 1_555
O7 Rb5 3.069991 1_555
O7 Rb5 3.088774 1_554
O8 S3 1.460085 1_555
O8 Rb1 3.094780 1_555
O8 Rb7 3.212788 1_555
O9 S4 1.458253 1_546
O9 Rb2 2.972278 1_555
O10 S4 1.459444 1_556
O10 Rb3 2.903397 1_555
O10 Rb3 3.327679 1_556
O11 S2 1.459987 1_556
O11 Rb4 2.797576 1_555
O11 Rb2 3.000919 1_555
O12 S0 1.458117 1_564
O12 Rb6 2.976716 1_555
O12 Rb6 3.353062 1_554
O13 S1 1.461286 1_554
O13 Rb0 3.020996 1_555
O13 Rb0 3.256252 1_554
O14 S5 1.458253 1_456
O14 Rb1 2.972278 1_555
O15 S7 1.457622 1_554
O15 Rb4 2.737190 1_555
O16 S5 1.469268 1_555
O16 Rb3 3.036313 1_555
O16 Rb1 3.150655 1_655
O16 Rb6 3.252017 1_655
O17 S1 1.468832 1_555
O17 Rb0 2.964892 1_555
O17 Rb2 3.280037 1_555
O17 Rb4 3.355870 1_555
O18 S7 1.457622 1_554
O18 Rb7 2.737190 1_555
O19 S0 1.458117 1_654
O19 Rb0 2.976716 1_555
O19 Rb0 3.353062 1_554
O20 S2 1.460085 1_555
O20 Rb2 3.094780 1_555
O20 Rb4 3.212788 1_555
O21 S6 1.456844 1_554
O21 Rb1 2.900486 1_555
O21 Rb7 3.395299 1_555
O22 S6 1.468832 1_555
O22 Rb6 2.964892 1_555
O22 Rb1 3.280037 1_555
O22 Rb7 3.355870 1_555
O23 S2 1.460303 1_555
O23 Rb5 3.069991 1_555
O23 Rb5 3.088774 1_554
F2 Rb4 2.835986 1_555
F3 Rb7 2.835986 1_555
F4 Rb4 3.074037 1_555
F5 Rb2 3.337955 1_555
F7 Rb0 3.428911 1_455
F8 Rb7 3.348500 1_555
F12 Rb7 3.074037 1_555
F19 Rb1 3.337955 1_555
F20 Rb6 3.428911 1_545
F22 Rb4 3.348500 1_555
