# generated using pymatgen
data_KHg2B
_symmetry_space_group_name_H-M   'P 1'
_cell_length_a   5.15889975
_cell_length_b   5.15889975
_cell_length_c   5.15889975
_cell_angle_alpha   60.00000000
_cell_angle_beta   60.00000000
_cell_angle_gamma   60.00000000
_symmetry_Int_Tables_number   1
_chemical_formula_structural   KHg2B
_chemical_formula_sum   'K1 Hg2 B1'
_cell_volume   97.08592416
_cell_formula_units_Z   1
loop_
 _symmetry_equiv_pos_site_id
 _symmetry_equiv_pos_as_xyz
  1  'x, y, z'
loop_
 _atom_site_type_symbol
 _atom_site_label
 _atom_site_symmetry_multiplicity
 _atom_site_fract_x
 _atom_site_fract_y
 _atom_site_fract_z
 _atom_site_occupancy
  K  K0  1  0.75000000  0.75000000  0.75000000  1
  Hg  Hg0  1  0.00000000  0.00000000  0.00000000  1
  Hg  Hg1  1  0.25000000  0.25000000  0.25000000  1
  B  B0  1  0.50000000  0.50000000  0.50000000  1
loop_
_geom_bond_atom_site_label_1
_geom_bond_atom_site_label_2
_geom_bond_distance
_geom_bond_site_symmetry_2
Hg0 K0 3.159168 1_445
Hg0 Hg1 3.159168 1_455
Hg0 K0 3.159168 1_544
Hg0 K0 3.159168 1_444
Hg0 K0 3.159168 1_454
Hg0 Hg1 3.159168 1_545
Hg0 Hg1 3.159168 1_555
Hg0 Hg1 3.159168 1_554
Hg1 K0 3.647893 1_554
Hg1 K0 3.647893 1_544
Hg1 K0 3.647893 1_455
Hg1 K0 3.647893 1_454
Hg1 K0 3.647893 1_545
Hg1 K0 3.647893 1_445
B0 K0 3.159168 1_555
B0 K0 3.159168 1_455
B0 K0 3.159168 1_554
B0 K0 3.159168 1_545
