# generated using pymatgen
data_NiH10C4(SN4)2
_symmetry_space_group_name_H-M   'P 1'
_cell_length_a   8.50605386
_cell_length_b   8.50605386
_cell_length_c   9.20461957
_cell_angle_alpha   71.39701423
_cell_angle_beta   71.39701423
_cell_angle_gamma   56.60723972
_symmetry_Int_Tables_number   1
_chemical_formula_structural   NiH10C4(SN4)2
_chemical_formula_sum   'Ni2 H20 C8 S4 N16'
_cell_volume   518.25745195
_cell_formula_units_Z   2
loop_
 _symmetry_equiv_pos_site_id
 _symmetry_equiv_pos_as_xyz
  1  'x, y, z'
loop_
 _atom_site_type_symbol
 _atom_site_label
 _atom_site_symmetry_multiplicity
 _atom_site_fract_x
 _atom_site_fract_y
 _atom_site_fract_z
 _atom_site_occupancy
  Ni  Ni0  1  0.10965500  0.89034500  0.25000000  1
  Ni  Ni1  1  0.89034500  0.10965500  0.75000000  1
  H  H0  1  0.76435900  0.11378000  0.22055400  1
  H  H1  1  0.88622000  0.23564100  0.27944600  1
  H  H2  1  0.23564100  0.88622000  0.77944600  1
  H  H3  1  0.11378000  0.76435900  0.72055400  1
  H  H4  1  0.90374000  0.66917400  0.04528000  1
  H  H5  1  0.33082600  0.09626000  0.45472000  1
  H  H6  1  0.09626000  0.33082600  0.95472000  1
  H  H7  1  0.66917400  0.90374000  0.54528000  1
  H  H8  1  0.36569800  0.58882900  0.15124600  1
  H  H9  1  0.41117100  0.63430200  0.34875400  1
  H  H10  1  0.63430200  0.41117100  0.84875400  1
  H  H11  1  0.58882900  0.36569800  0.65124600  1
  H  H12  1  0.54689300  0.12055900  0.12358200  1
  H  H13  1  0.87944100  0.45310700  0.37641800  1
  H  H14  1  0.45310700  0.87944100  0.87641800  1
  H  H15  1  0.12055900  0.54689300  0.62358200  1
  H  H16  1  0.59991400  0.89767100  0.10255700  1
  H  H17  1  0.10232900  0.40008600  0.39744300  1
  H  H18  1  0.40008600  0.10232900  0.89744300  1
  H  H19  1  0.89767100  0.59991400  0.60255700  1
  C  C0  1  0.82522100  0.90235000  0.13472100  1
  C  C1  1  0.09765000  0.17477900  0.36527900  1
  C  C2  1  0.17477900  0.09765000  0.86527900  1
  C  C3  1  0.90235000  0.82522100  0.63472100  1
  C  C4  1  0.14794300  0.62701500  0.08904100  1
  C  C5  1  0.37298500  0.85205700  0.41095900  1
  C  C6  1  0.85205700  0.37298500  0.91095900  1
  C  C7  1  0.62701500  0.14794300  0.58904100  1
  S  S0  1  0.28742700  0.44671200  0.98058600  1
  S  S1  1  0.55328800  0.71257300  0.51941400  1
  S  S2  1  0.71257300  0.55328800  0.01941400  1
  S  S3  1  0.44671200  0.28742700  0.48058600  1
  N  N0  1  0.87788500  0.98650200  0.19062900  1
  N  N1  1  0.01349800  0.12211500  0.30937100  1
  N  N2  1  0.12211500  0.01349800  0.80937100  1
  N  N3  1  0.98650200  0.87788500  0.69062900  1
  N  N4  1  0.95332000  0.72713000  0.09068100  1
  N  N5  1  0.27287000  0.04668000  0.40931900  1
  N  N6  1  0.04668000  0.27287000  0.90931900  1
  N  N7  1  0.72713000  0.95332000  0.59068100  1
  N  N8  1  0.21946700  0.67359900  0.16534100  1
  N  N9  1  0.32640100  0.78053300  0.33465900  1
  N  N10  1  0.78053300  0.32640100  0.83465900  1
  N  N11  1  0.67359900  0.21946700  0.66534100  1
  N  N12  1  0.64500800  0.98213600  0.11092100  1
  N  N13  1  0.01786400  0.35499200  0.38907900  1
  N  N14  1  0.35499200  0.01786400  0.88907900  1
  N  N15  1  0.98213600  0.64500800  0.61092100  1
loop_
_geom_bond_atom_site_label_1
_geom_bond_atom_site_label_2
_geom_bond_distance
_geom_bond_site_symmetry_2
H0 N0 1.024810 1_545
H1 N1 1.024810 1_655
H2 N2 1.024810 1_565
H3 N3 1.024810 1_455
H4 N4 1.033565 1_555
H5 N5 1.033565 1_555
H6 N6 1.033565 1_555
H7 N7 1.033565 1_555
H8 N8 1.026350 1_555
H9 N9 1.026350 1_555
H10 N10 1.026350 1_555
H11 N11 1.026350 1_555
H12 N12 1.019941 1_545
H13 N13 1.019941 1_655
H14 N14 1.019941 1_565
H15 N15 1.019941 1_455
H16 N12 1.013274 1_555
H17 N13 1.013274 1_555
H18 N14 1.013274 1_555
H19 N15 1.013274 1_555
C0 N0 1.308788 1_555
C0 N12 1.353744 1_555
C0 N4 1.374417 1_555
C1 N1 1.308788 1_555
C1 N13 1.353744 1_555
C1 N5 1.374417 1_555
C2 N2 1.308788 1_555
C2 N14 1.353744 1_555
C2 N6 1.374417 1_555
C3 N3 1.308788 1_555
C3 N15 1.353744 1_555
C3 N7 1.374417 1_555
C4 N8 1.317540 1_555
C4 N4 1.380747 1_455
C4 S0 1.724697 1_554
C5 N9 1.317540 1_555
C5 N5 1.380747 1_565
C5 S1 1.724697 1_555
C6 N10 1.317540 1_555
C6 N6 1.380747 1_655
C6 S2 1.724697 1_556
C7 N11 1.317540 1_555
C7 N7 1.380747 1_545
C7 S3 1.724697 1_555
N0 Ni0 1.865879 1_655
N1 Ni0 1.865879 1_545
N2 Ni1 1.865879 1_455
N3 Ni1 1.865879 1_565
N8 Ni0 1.853484 1_555
N9 Ni0 1.853484 1_555
N10 Ni1 1.853484 1_555
N11 Ni1 1.853484 1_555
