# generated using pymatgen
data_Ba2La6Mg4Ti3WO24
_symmetry_space_group_name_H-M   'P 1'
_cell_length_a   5.88703616
_cell_length_b   5.88703616
_cell_length_c   37.76414200
_cell_angle_alpha   89.68380071
_cell_angle_beta   89.68380071
_cell_angle_gamma   56.62733915
_symmetry_Int_Tables_number   1
_chemical_formula_structural   Ba2La6Mg4Ti3WO24
_chemical_formula_sum   'Ba4 La12 Mg8 Ti6 W2 O48'
_cell_volume   1092.97041207
_cell_formula_units_Z   2
loop_
 _symmetry_equiv_pos_site_id
 _symmetry_equiv_pos_as_xyz
  1  'x, y, z'
loop_
 _atom_site_type_symbol
 _atom_site_label
 _atom_site_symmetry_multiplicity
 _atom_site_fract_x
 _atom_site_fract_y
 _atom_site_fract_z
 _atom_site_occupancy
  Ba  Ba0  1  0.66093700  0.66093700  0.96869800  1
  Ba  Ba1  1  0.01119500  0.01119500  0.09355700  1
  Ba  Ba2  1  0.33906300  0.33906300  0.03130200  1
  Ba  Ba3  1  0.98880500  0.98880500  0.90644300  1
  La  La0  1  0.89273000  0.89273000  0.21655700  1
  La  La1  1  0.08378600  0.08378600  0.34745000  1
  La  La2  1  0.38262200  0.38262200  0.13860500  1
  La  La3  1  0.22959000  0.22959000  0.46264200  1
  La  La4  1  0.49466400  0.49466400  0.29511000  1
  La  La5  1  0.35255200  0.35255200  0.58418200  1
  La  La6  1  0.64744800  0.64744800  0.41581800  1
  La  La7  1  0.50533600  0.50533600  0.70489000  1
  La  La8  1  0.77041000  0.77041000  0.53735800  1
  La  La9  1  0.61737800  0.61737800  0.86139500  1
  La  La10  1  0.91621400  0.91621400  0.65255000  1
  La  La11  1  0.10727000  0.10727000  0.78344300  1
  Mg  Mg0  1  0.19405500  0.19405500  0.26109100  1
  Mg  Mg1  1  0.15187800  0.15187800  0.18616500  1
  Mg  Mg2  1  0.00000000  0.00000000  0.00000000  1
  Mg  Mg3  1  0.38011900  0.38011900  0.37876300  1
  Mg  Mg4  1  0.80594500  0.80594500  0.73890900  1
  Mg  Mg5  1  0.50000000  0.50000000  0.50000000  1
  Mg  Mg6  1  0.84812200  0.84812200  0.81383500  1
  Mg  Mg7  1  0.61988100  0.61988100  0.62123700  1
  Ti  Ti0  1  0.61071900  0.61071900  0.19733300  1
  Ti  Ti1  1  0.79805900  0.79805900  0.31540600  1
  Ti  Ti2  1  0.93419000  0.93419000  0.44242200  1
  Ti  Ti3  1  0.06581000  0.06581000  0.55757800  1
  Ti  Ti4  1  0.20194100  0.20194100  0.68459400  1
  Ti  Ti5  1  0.38928100  0.38928100  0.80266700  1
  W  W0  1  0.32377200  0.32377200  0.93640500  1
  W  W1  1  0.67622800  0.67622800  0.06359500  1
  O  O0  1  0.65599300  0.17212500  0.96625300  1
  O  O1  1  0.82377700  0.82377700  0.03247300  1
  O  O2  1  0.17212500  0.65599300  0.96625300  1
  O  O3  1  0.82787500  0.34400700  0.03374700  1
  O  O4  1  0.99141600  0.49926900  0.09203600  1
  O  O5  1  0.17622300  0.17622300  0.96752700  1
  O  O6  1  0.77513600  0.77513600  0.16701600  1
  O  O7  1  0.34400700  0.82787500  0.03374700  1
  O  O8  1  0.49926900  0.99141600  0.09203600  1
  O  O9  1  0.78220700  0.28013300  0.16731400  1
  O  O10  1  0.96996000  0.44561300  0.22148700  1
  O  O11  1  0.50930500  0.50930500  0.09258900  1
  O  O12  1  0.92721400  0.92721400  0.28011500  1
  O  O13  1  0.28013300  0.78220700  0.16731400  1
  O  O14  1  0.44561300  0.96996000  0.22148700  1
  O  O15  1  0.92832700  0.43150000  0.29748400  1
  O  O16  1  0.13271600  0.64400100  0.34123800  1
  O  O17  1  0.47535700  0.47535700  0.23154700  1
  O  O18  1  0.09848900  0.09848900  0.40648100  1
  O  O19  1  0.43150000  0.92832700  0.29748400  1
  O  O20  1  0.64400100  0.13271600  0.34123800  1
  O  O21  1  0.09273900  0.59330500  0.41604500  1
  O  O22  1  0.29324900  0.79196300  0.46408500  1
  O  O23  1  0.61153900  0.61153900  0.35738500  1
  O  O24  1  0.20960500  0.20960500  0.52520800  1
  O  O25  1  0.59330500  0.09273900  0.41604500  1
  O  O26  1  0.79196300  0.29324900  0.46408500  1
  O  O27  1  0.20803700  0.70675100  0.53591500  1
  O  O28  1  0.40669500  0.90726100  0.58395500  1
  O  O29  1  0.79039500  0.79039500  0.47479200  1
  O  O30  1  0.38846100  0.38846100  0.64261500  1
  O  O31  1  0.70675100  0.20803700  0.53591500  1
  O  O32  1  0.90726100  0.40669500  0.58395500  1
  O  O33  1  0.35599900  0.86728400  0.65876200  1
  O  O34  1  0.56850000  0.07167300  0.70251600  1
  O  O35  1  0.90151100  0.90151100  0.59351900  1
  O  O36  1  0.52464300  0.52464300  0.76845300  1
  O  O37  1  0.86728400  0.35599900  0.65876200  1
  O  O38  1  0.07167300  0.56850000  0.70251600  1
  O  O39  1  0.55438700  0.03004000  0.77851300  1
  O  O40  1  0.71986700  0.21779300  0.83268600  1
  O  O41  1  0.07278600  0.07278600  0.71988500  1
  O  O42  1  0.49069500  0.49069500  0.90741100  1
  O  O43  1  0.03004000  0.55438700  0.77851300  1
  O  O44  1  0.21779300  0.71986700  0.83268600  1
  O  O45  1  0.50073100  0.00858400  0.90796400  1
  O  O46  1  0.22486400  0.22486400  0.83298400  1
  O  O47  1  0.00858400  0.50073100  0.90796400  1
loop_
_geom_bond_atom_site_label_1
_geom_bond_atom_site_label_2
_geom_bond_distance
_geom_bond_site_symmetry_2
Ba0 O5 2.797037 1_655
Ba0 O5 2.797037 1_565
Ba0 O47 2.861304 1_655
Ba0 O45 2.861304 1_565
Ba0 O2 2.895751 1_555
Ba0 O0 2.895751 1_555
Ba0 O3 2.905205 1_556
Ba0 O7 2.905205 1_556
Ba0 O42 2.919219 1_555
Ba0 O1 2.949652 1_556
Ba0 O2 2.994387 1_655
Ba0 O0 2.994387 1_565
Ba1 O3 2.785114 1_455
Ba1 O7 2.785114 1_545
Ba1 O11 2.792521 1_455
Ba1 O11 2.792521 1_545
Ba1 O4 2.811216 1_455
Ba1 O8 2.811216 1_545
Ba1 O1 3.025133 1_445
Ba1 O4 3.080172 1_445
Ba1 O8 3.080172 1_445
Ba1 O13 3.121115 1_545
Ba1 O9 3.121115 1_455
Ba2 O1 2.797037 1_545
Ba2 O1 2.797037 1_455
Ba2 O4 2.861304 1_455
Ba2 O8 2.861304 1_545
Ba2 O3 2.895751 1_555
Ba2 O7 2.895751 1_555
Ba2 O2 2.905205 1_554
Ba2 O0 2.905205 1_554
Ba2 O11 2.919219 1_555
Ba2 O5 2.949652 1_554
Ba2 O7 2.994387 1_545
Ba2 O3 2.994387 1_455
Ba3 O0 2.785114 1_565
Ba3 O2 2.785114 1_655
Ba3 O42 2.792521 1_565
Ba3 O42 2.792521 1_655
Ba3 O47 2.811216 1_655
Ba3 O45 2.811216 1_565
Ba3 O5 3.025133 1_665
Ba3 O47 3.080172 1_665
Ba3 O45 3.080172 1_665
Ba3 O40 3.121115 1_565
Ba3 O44 3.121115 1_655
La0 O6 2.239312 1_555
La0 O14 2.418415 1_555
La0 O10 2.418415 1_555
La0 O12 2.428898 1_555
La0 O9 2.723402 1_565
La0 O13 2.723402 1_655
La0 O17 2.975989 1_655
La0 O17 2.975989 1_565
La1 O18 2.235411 1_555
La1 O20 2.454906 1_455
La1 O16 2.454906 1_545
La1 O15 2.550228 1_455
La1 O19 2.550228 1_545
La1 O23 2.832193 1_545
La1 O23 2.832193 1_455
La2 O11 2.171518 1_555
La2 O9 2.352140 1_555
La2 O13 2.352140 1_555
La2 O8 2.675787 1_545
La2 O4 2.675787 1_455
La3 O24 2.370521 1_555
La3 O22 2.391093 1_545
La3 O26 2.391093 1_455
La3 O18 2.526045 1_555
La3 O25 2.531119 1_555
La3 O21 2.531119 1_555
La3 O29 2.899628 1_455
La3 O29 2.899628 1_545
La4 O19 2.371035 1_555
La4 O15 2.371035 1_555
La4 O17 2.409980 1_555
La4 O20 2.502544 1_555
La4 O16 2.502544 1_555
La4 O23 2.652197 1_555
La4 O12 2.934431 1_545
La4 O12 2.934431 1_455
La5 O30 2.240143 1_555
La5 O32 2.460610 1_455
La5 O28 2.460610 1_545
La5 O31 2.533322 1_555
La5 O27 2.533322 1_555
La5 O24 2.682691 1_555
La5 O35 2.860167 1_455
La5 O35 2.860167 1_545
La6 O23 2.240143 1_555
La6 O21 2.460610 1_655
La6 O25 2.460610 1_565
La6 O26 2.533322 1_555
La6 O22 2.533322 1_555
La6 O29 2.682691 1_555
La6 O18 2.860167 1_655
La6 O18 2.860167 1_565
La7 O34 2.371035 1_555
La7 O38 2.371035 1_555
La7 O36 2.409980 1_555
La7 O37 2.502544 1_555
La7 O33 2.502544 1_555
La7 O30 2.652197 1_555
La7 O41 2.934431 1_655
La7 O41 2.934431 1_565
La8 O29 2.370521 1_555
La8 O31 2.391093 1_565
La8 O27 2.391093 1_655
La8 O35 2.526045 1_555
La8 O32 2.531119 1_555
La8 O28 2.531119 1_555
La8 O24 2.899628 1_655
La8 O24 2.899628 1_565
La9 O42 2.171518 1_555
La9 O40 2.352140 1_555
La9 O44 2.352140 1_555
La9 O47 2.675787 1_655
La9 O45 2.675787 1_565
La10 O35 2.235411 1_555
La10 O33 2.454906 1_655
La10 O37 2.454906 1_565
La10 O34 2.550228 1_565
La10 O38 2.550228 1_655
La10 O30 2.832193 1_655
La10 O30 2.832193 1_565
La11 O46 2.239312 1_555
La11 O39 2.418415 1_555
La11 O43 2.418415 1_555
La11 O41 2.428898 1_555
La11 O40 2.723402 1_455
La11 O44 2.723402 1_545
La11 O36 2.975989 1_455
La11 O36 2.975989 1_545
Mg0 O19 1.970210 1_545
Mg0 O15 1.970210 1_455
Mg0 O14 2.004583 1_545
Mg0 O10 2.004583 1_455
Mg1 O10 1.971991 1_455
Mg1 O14 1.971991 1_545
Mg1 O13 2.004101 1_545
Mg1 O9 2.004101 1_455
Mg2 O0 2.123409 1_454
Mg2 O2 2.123409 1_544
Mg2 O7 2.123409 1_545
Mg2 O3 2.123409 1_455
Mg2 O5 2.193709 1_554
Mg2 O1 2.193709 1_445
Mg3 O20 2.012966 1_555
Mg3 O16 2.012966 1_555
Mg3 O25 2.019120 1_555
Mg3 O21 2.019120 1_555
Mg3 O23 2.526187 1_555
Mg4 O34 1.970210 1_565
Mg4 O38 1.970210 1_655
Mg4 O39 2.004583 1_565
Mg4 O43 2.004583 1_655
Mg5 O22 1.991525 1_555
Mg5 O26 1.991525 1_555
Mg5 O31 1.991525 1_555
Mg5 O27 1.991525 1_555
Mg6 O39 1.971991 1_565
Mg6 O43 1.971991 1_655
Mg6 O44 2.004101 1_655
Mg6 O40 2.004101 1_565
Mg7 O33 2.012966 1_555
Mg7 O37 2.012966 1_555
Mg7 O28 2.019120 1_555
Mg7 O32 2.019120 1_555
Mg7 O30 2.526187 1_555
O0 W0 1.996243 1_555
O1 W1 1.922991 1_555
O2 W0 1.996243 1_555
O3 W1 1.996243 1_555
O4 W1 1.888076 1_555
O5 W0 1.922991 1_555
O6 Ti0 2.047150 1_555
O7 W1 1.996243 1_555
O8 W1 1.888076 1_555
O9 Ti0 1.985467 1_555
O10 Ti0 1.999856 1_555
O11 W1 2.041775 1_555
O12 Ti1 1.883101 1_555
O13 Ti0 1.985467 1_555
O14 Ti0 1.999856 1_555
O15 Ti1 1.972978 1_555
O16 Ti1 1.923877 1_455
O17 Ti0 1.901410 1_555
O18 Ti2 2.171075 1_445
O19 Ti1 1.972978 1_555
O20 Ti1 1.923877 1_545
O21 Ti2 1.960038 1_455
O22 Ti2 1.975557 1_455
O23 Ti1 2.492522 1_555
O24 Ti3 1.921739 1_555
O25 Ti2 1.960038 1_545
O26 Ti2 1.975557 1_545
O27 Ti3 1.975557 1_565
O28 Ti3 1.960038 1_565
O29 Ti2 1.921739 1_555
O30 Ti4 2.492522 1_555
O31 Ti3 1.975557 1_655
O32 Ti3 1.960038 1_655
O33 Ti4 1.923877 1_565
O34 Ti4 1.972978 1_555
O35 Ti3 2.171075 1_665
O36 Ti5 1.901410 1_555
O37 Ti4 1.923877 1_655
O38 Ti4 1.972978 1_555
O39 Ti5 1.999856 1_555
O40 Ti5 1.985467 1_555
O41 Ti4 1.883101 1_555
O42 W0 2.041775 1_555
O43 Ti5 1.999856 1_555
O44 Ti5 1.985467 1_555
O45 W0 1.888076 1_555
O46 Ti5 2.047150 1_555
O47 W0 1.888076 1_555
