# generated using pymatgen
data_Y2Th8O19
_symmetry_space_group_name_H-M   'P 1'
_cell_length_a   3.95651000
_cell_length_b   3.95712700
_cell_length_c   27.94028462
_cell_angle_alpha   90.01915501
_cell_angle_beta   90.06331387
_cell_angle_gamma   90.00011583
_symmetry_Int_Tables_number   1
_chemical_formula_structural   Y2Th8O19
_chemical_formula_sum   'Y2 Th8 O19'
_cell_volume   437.44433116
_cell_formula_units_Z   1
loop_
 _symmetry_equiv_pos_site_id
 _symmetry_equiv_pos_as_xyz
  1  'x, y, z'
loop_
 _atom_site_type_symbol
 _atom_site_label
 _atom_site_symmetry_multiplicity
 _atom_site_fract_x
 _atom_site_fract_y
 _atom_site_fract_z
 _atom_site_occupancy
  Y  Y0  1  0.00912400  0.00040400  0.99416800  1
  Y  Y1  1  0.50133400  0.49232400  0.10572700  1
  Th  Th0  1  0.00275700  0.99881600  0.19790400  1
  Th  Th1  1  0.50303500  0.50157800  0.29908500  1
  Th  Th2  1  0.00114200  0.00224100  0.39952000  1
  Th  Th3  1  0.50046000  0.50283000  0.49974000  1
  Th  Th4  1  0.99944900  0.00316700  0.60014600  1
  Th  Th5  1  0.49737500  0.50229600  0.70034900  1
  Th  Th6  1  0.99851100  0.00033200  0.80099200  1
  Th  Th7  1  0.50238600  0.50019800  0.90199000  1
  O  O0  1  0.00338400  0.50017100  0.24644500  1
  O  O1  1  0.50187800  0.00186800  0.34981300  1
  O  O2  1  0.00017100  0.50206400  0.44965600  1
  O  O3  1  0.50023600  0.00299200  0.54979100  1
  O  O4  1  0.99801000  0.50342000  0.65040600  1
  O  O5  1  0.49651800  0.00135300  0.74988900  1
  O  O6  1  0.00042200  0.49951600  0.85367800  1
  O  O7  1  0.50506700  0.99995800  0.94710700  1
  O  O8  1  0.49976500  0.99921700  0.84899600  1
  O  O9  1  0.00543900  0.50018700  0.95888800  1
  O  O10  1  0.49712900  0.00368300  0.04985900  1
  O  O11  1  0.50248700  0.99619800  0.15276700  1
  O  O12  1  0.00205700  0.49571500  0.14110900  1
  O  O13  1  0.50389700  0.00073600  0.25082800  1
  O  O14  1  0.00251400  0.50181800  0.34866100  1
  O  O15  1  0.50058900  0.00234800  0.44968200  1
  O  O16  1  0.00050800  0.50319300  0.54997600  1
  O  O17  1  0.49878900  0.00320500  0.64993700  1
  O  O18  1  0.99667300  0.50103000  0.75144600  1
loop_
_geom_bond_atom_site_label_1
_geom_bond_atom_site_label_2
_geom_bond_distance
_geom_bond_site_symmetry_2
O0 Th0 2.394729 1_555
O0 Th0 2.402826 1_545
O0 Th1 2.462684 1_555
O0 Th1 2.467509 1_455
O1 Th2 2.413454 1_655
O1 Th2 2.420733 1_555
O1 Th1 2.433306 1_555
O1 Th1 2.434401 1_545
O2 Th3 2.422832 1_555
O2 Th2 2.423303 1_555
O2 Th3 2.423490 1_455
O2 Th2 2.425211 1_565
O3 Th3 2.422739 1_555
O3 Th3 2.423022 1_545
O3 Th4 2.423737 1_555
O3 Th4 2.431346 1_455
O4 Th5 2.417580 1_655
O4 Th5 2.424206 1_555
O4 Th4 2.425831 1_565
O4 Th4 2.426699 1_555
O5 Th5 2.411236 1_545
O5 Th5 2.418110 1_555
O5 Th6 2.434605 1_455
O5 Th6 2.444834 1_555
O6 Th7 2.389726 1_455
O6 Th7 2.400099 1_555
O6 Th6 2.463128 1_455
O6 Th6 2.469099 1_465
O7 Th7 2.344875 1_555
O7 Th7 2.347188 1_565
O7 Y0 2.363240 1_565
O7 Y0 2.387555 1_665
O8 Th6 2.387195 1_565
O8 Th6 2.392955 1_465
O8 Th7 2.468557 1_555
O8 Th7 2.473980 1_565
O9 Y0 2.210084 1_555
O9 Y0 2.211031 1_565
O9 Th7 2.529832 1_555
O9 Th7 2.545924 1_455
O10 Y0 2.478446 1_554
O10 Y1 2.484690 1_555
O10 Y0 2.555747 1_654
O10 Y1 2.556082 1_545
O11 Th0 2.345800 1_655
O11 Th0 2.346349 1_555
O11 Y1 2.362929 1_565
O11 Y1 2.387735 1_555
O12 Y1 2.209970 1_555
O12 Y1 2.213133 1_455
O12 Th0 2.527161 1_545
O12 Th0 2.545478 1_555
O13 Th1 2.391923 1_545
O13 Th1 2.396684 1_555
O13 Th0 2.467541 1_645
O13 Th0 2.472148 1_545
O14 Th1 2.412049 1_455
O14 Th1 2.417934 1_555
O14 Th2 2.435016 1_555
O14 Th2 2.436963 1_565
O15 Th2 2.421371 1_555
O15 Th3 2.421817 1_545
O15 Th3 2.424169 1_555
O15 Th2 2.427469 1_655
O16 Th4 2.424340 1_465
O16 Th3 2.424505 1_455
O16 Th4 2.425273 1_455
O16 Th3 2.426725 1_555
O17 Th4 2.415049 1_455
O17 Th4 2.421836 1_555
O17 Th5 2.425412 1_555
O17 Th5 2.432040 1_545
O18 Th6 2.412128 1_565
O18 Th6 2.417413 1_555
O18 Th5 2.436090 1_555
O18 Th5 2.443153 1_655
