# generated using pymatgen
data_Yb9(Fe3S10)2
_symmetry_space_group_name_H-M   'P 1'
_cell_length_a   7.88643600
_cell_length_b   7.89533928
_cell_length_c   32.23226601
_cell_angle_alpha   90.60071144
_cell_angle_beta   95.20465793
_cell_angle_gamma   119.54042108
_symmetry_Int_Tables_number   1
_chemical_formula_structural   Yb9(Fe3S10)2
_chemical_formula_sum   'Yb18 Fe12 S40'
_cell_volume   1735.35337348
_cell_formula_units_Z   2
loop_
 _symmetry_equiv_pos_site_id
 _symmetry_equiv_pos_as_xyz
  1  'x, y, z'
loop_
 _atom_site_type_symbol
 _atom_site_label
 _atom_site_symmetry_multiplicity
 _atom_site_fract_x
 _atom_site_fract_y
 _atom_site_fract_z
 _atom_site_occupancy
  Yb  Yb0  1  0.49478400  0.49729100  0.99770000  1
  Yb  Yb1  1  0.27074600  0.85013500  0.20400800  1
  Yb  Yb2  1  0.41062000  0.69746400  0.09926600  1
  Yb  Yb3  1  0.07400000  0.25616000  0.40479000  1
  Yb  Yb4  1  0.80463800  0.91421400  0.19897100  1
  Yb  Yb5  1  0.19219900  0.09876400  0.29870900  1
  Yb  Yb6  1  0.70144500  0.59579700  0.29909400  1
  Yb  Yb7  1  0.87330800  0.65580700  0.60534700  1
  Yb  Yb8  1  0.60212200  0.30340300  0.40119900  1
  Yb  Yb9  1  0.99246800  0.49836400  0.49930400  1
  Yb  Yb10  1  0.50143700  0.99381000  0.49974600  1
  Yb  Yb11  1  0.67743600  0.05504200  0.80648000  1
  Yb  Yb12  1  0.40255700  0.70288400  0.60180800  1
  Yb  Yb13  1  0.79115000  0.89723300  0.70120100  1
  Yb  Yb14  1  0.29946600  0.39458800  0.70056300  1
  Yb  Yb15  1  0.20506900  0.11519100  0.80469300  1
  Yb  Yb16  1  0.09950200  0.79598100  0.90043800  1
  Yb  Yb17  1  0.98335700  0.47661400  0.00042100  1
  Fe  Fe0  1  0.29941000  0.13783000  0.03345700  1
  Fe  Fe1  1  0.49183900  0.99586000  0.99715300  1
  Fe  Fe2  1  0.27969800  0.41380900  0.20184900  1
  Fe  Fe3  1  0.48366400  0.24740900  0.17017800  1
  Fe  Fe4  1  0.87822700  0.20764300  0.60390800  1
  Fe  Fe5  1  0.07815100  0.80822600  0.40353000  1
  Fe  Fe6  1  0.28426700  0.65155500  0.36834300  1
  Fe  Fe7  1  0.08458700  0.05125500  0.56889500  1
  Fe  Fe8  1  0.61191400  0.32340600  0.89180500  1
  Fe  Fe9  1  0.69201000  0.60001500  0.80559200  1
  Fe  Fe10  1  0.88220300  0.45500400  0.77105600  1
  Fe  Fe11  1  0.69427600  0.86540000  0.96079000  1
  S  S0  1  0.63631500  0.27694900  0.04354000  1
  S  S1  1  0.22837900  0.83615400  0.04288000  1
  S  S2  1  0.12949700  0.50935600  0.15538000  1
  S  S3  1  0.19935000  0.34645400  0.04916400  1
  S  S4  1  0.47517200  0.69470500  0.24323500  1
  S  S5  1  0.57800000  0.04340800  0.15066100  1
  S  S6  1  0.69387600  0.88750800  0.03168600  1
  S  S7  1  0.04878000  0.28256600  0.24175100  1
  S  S8  1  0.92322800  0.91667900  0.35716200  1
  S  S9  1  0.58697500  0.54694700  0.15379500  1
  S  S10  1  0.98353900  0.76906000  0.24982800  1
  S  S11  1  0.16263900  0.11782300  0.15660100  1
  S  S12  1  0.26981600  0.08965100  0.44411000  1
  S  S13  1  0.38961600  0.44405200  0.35138900  1
  S  S14  1  0.47867600  0.26436100  0.24033800  1
  S  S15  1  0.84513000  0.67939500  0.44261700  1
  S  S16  1  0.72313700  0.31616100  0.55763500  1
  S  S17  1  0.37999600  0.94949300  0.35248300  1
  S  S18  1  0.78752700  0.16478500  0.45147800  1
  S  S19  1  0.94691900  0.50466600  0.35673000  1
  S  S20  1  0.18991200  0.84353400  0.55202700  1
  S  S21  1  0.07009500  0.49001100  0.64461200  1
  S  S22  1  0.27362500  0.66707600  0.43949200  1
  S  S23  1  0.64596600  0.07794900  0.64341900  1
  S  S24  1  0.51961500  0.70662400  0.76244000  1
  S  S25  1  0.18070500  0.34961900  0.55293600  1
  S  S26  1  0.58863800  0.56610100  0.65298100  1
  S  S27  1  0.74689200  0.90385300  0.55725900  1
  S  S28  1  0.87221100  0.89135600  0.84617800  1
  S  S29  1  0.98868500  0.24445400  0.75455300  1
  S  S30  1  0.07259500  0.06652600  0.64043600  1
  S  S31  1  0.47132600  0.46508900  0.85301800  1
  S  S32  1  0.98984600  0.75679800  0.75607000  1
  S  S33  1  0.30247900  0.11636100  0.96109900  1
  S  S34  1  0.54541300  0.30308700  0.75984800  1
  S  S35  1  0.42351700  0.02156200  0.86133000  1
  S  S36  1  0.77465700  0.61612600  0.94409900  1
  S  S37  1  0.87231800  0.45767600  0.84533300  1
  S  S38  1  0.72814800  0.15950800  0.94640400  1
  S  S39  1  0.34024000  0.70036600  0.95371100  1
loop_
_geom_bond_atom_site_label_1
_geom_bond_atom_site_label_2
_geom_bond_distance
_geom_bond_site_symmetry_2
Fe0 S1 2.193067 1_545
Fe0 S3 2.220099 1_555
Fe0 S0 2.308617 1_555
Fe0 S33 2.339821 1_554
Fe0 Yb0 2.799246 1_554
Fe1 S6 2.356235 1_556
Fe1 S0 2.363660 1_566
Fe1 S33 2.365405 1_565
Fe1 S39 2.389639 1_555
Fe1 S38 2.457893 1_565
Fe1 S1 2.467896 1_556
Fe2 S7 2.153240 1_555
Fe2 S2 2.190572 1_555
Fe2 S4 2.295225 1_555
Fe2 S11 2.448956 1_555
Fe2 S14 2.626235 1_555
Fe2 S9 2.753138 1_555
Fe3 S9 2.177131 1_555
Fe3 S5 2.188314 1_555
Fe3 S11 2.209841 1_555
Fe3 S14 2.269019 1_555
Fe3 Yb1 3.009536 1_545
Fe4 S23 2.150959 1_555
Fe4 S16 2.276790 1_555
Fe4 S21 2.287613 1_655
Fe4 S27 2.505727 1_545
Fe4 S30 2.522191 1_655
Fe4 S25 2.785530 1_655
Fe5 S15 2.145400 1_455
Fe5 S8 2.277456 1_455
Fe5 S12 2.280615 1_565
Fe5 S19 2.507156 1_455
Fe5 S22 2.521709 1_555
Fe5 S17 2.783684 1_555
Fe6 S17 2.169969 1_555
Fe6 S13 2.253607 1_555
Fe6 S22 2.306604 1_555
Fe6 S19 2.308887 1_455
Fe7 S25 2.173431 1_555
Fe7 S20 2.254283 1_545
Fe7 S27 2.311089 1_445
Fe7 S30 2.320726 1_555
Fe8 S31 2.245990 1_555
Fe8 S35 2.246431 1_555
Fe8 S37 2.455536 1_555
Fe8 S36 2.535854 1_555
Fe8 S38 2.556683 1_555
Fe9 S31 2.277990 1_555
Fe9 S24 2.302482 1_555
Fe9 S28 2.323410 1_555
Fe9 S34 2.439709 1_555
Fe9 S37 2.490248 1_555
Fe9 S32 2.729818 1_555
Fe10 S32 2.176115 1_555
Fe10 S29 2.278302 1_555
Fe10 S34 2.302016 1_555
Fe10 S37 2.402652 1_555
Fe11 S38 2.260935 1_565
Fe11 S6 2.290376 1_556
Fe11 S36 2.415498 1_555
Fe11 S39 2.415855 1_555
Fe11 Yb0 2.870659 1_555
S0 Yb0 2.850410 1_554
S0 Yb17 2.896388 1_555
S1 Yb2 2.772630 1_555
S1 Yb17 2.773961 1_455
S2 Yb1 2.752476 1_555
S2 Yb2 2.815918 1_555
S3 Yb0 2.757707 1_554
S3 Yb17 2.774980 1_455
S3 Yb2 2.815871 1_555
S4 Yb1 2.705062 1_555
S4 Yb6 2.802959 1_555
S4 Yb4 2.841549 1_555
S5 Yb2 2.810714 1_545
S5 Yb4 2.825945 1_545
S5 Yb1 2.884725 1_545
S6 Yb0 2.829198 1_554
S6 Yb2 3.103640 1_555
S7 Yb4 2.824742 1_445
S7 Yb5 2.837843 1_555
S8 Yb3 2.719292 1_665
S8 Yb5 2.809074 1_665
S8 Yb6 2.813891 1_555
S9 Yb2 2.768727 1_555
S9 Yb4 2.832829 1_555
S10 Yb1 2.630279 1_655
S10 Yb6 2.651004 1_555
S10 Yb5 2.680701 1_665
S10 Yb4 2.684275 1_555
S11 Yb4 2.948004 1_445
S11 Yb1 3.022713 1_545
S12 Yb3 2.720502 1_555
S12 Yb10 2.814651 1_545
S12 Yb8 2.823936 1_555
S13 Yb5 2.824387 1_555
S13 Yb8 2.829099 1_555
S13 Yb6 2.865911 1_555
S13 Yb3 2.923806 1_555
S14 Yb5 2.874641 1_555
S14 Yb6 2.877486 1_555
S14 Yb1 3.006519 1_545
S15 Yb9 2.835280 1_555
S15 Yb8 2.847860 1_555
S16 Yb7 2.722160 1_555
S16 Yb9 2.807886 1_555
S16 Yb10 2.817192 1_545
S17 Yb5 2.808013 1_565
S17 Yb8 2.815020 1_565
S18 Yb3 2.630907 1_655
S18 Yb10 2.647809 1_545
S18 Yb8 2.673462 1_555
S18 Yb9 2.681503 1_555
S19 Yb6 2.909589 1_555
S19 Yb8 2.909941 1_555
S19 Yb3 2.995790 1_655
S20 Yb9 2.824501 1_455
S20 Yb12 2.829425 1_555
S20 Yb10 2.863923 1_555
S20 Yb7 2.927043 1_455
S21 Yb7 2.721292 1_455
S21 Yb14 2.805821 1_555
S21 Yb12 2.821773 1_555
S22 Yb9 2.885227 1_455
S22 Yb10 2.888972 1_555
S22 Yb3 2.970379 1_555
S23 Yb13 2.845216 1_545
S23 Yb12 2.845552 1_545
S24 Yb11 2.711617 1_565
S24 Yb14 2.848258 1_555
S24 Yb13 2.897944 1_555
S25 Yb9 2.804896 1_455
S25 Yb12 2.813857 1_555
S26 Yb7 2.641845 1_555
S26 Yb14 2.649463 1_555
S26 Yb13 2.673688 1_555
S26 Yb12 2.683552 1_555
S27 Yb10 2.901790 1_555
S27 Yb12 2.908650 1_555
S27 Yb7 2.990041 1_555
S28 Yb11 2.702331 1_565
S28 Yb16 2.762015 1_655
S28 Yb15 2.813175 1_665
S29 Yb15 2.795918 1_655
S29 Yb13 2.846645 1_545
S29 Yb11 2.870749 1_555
S29 Yb14 2.897049 1_655
S30 Yb14 2.891710 1_555
S30 Yb13 2.909884 1_445
S30 Yb7 2.973188 1_445
S31 Yb15 2.839623 1_555
S32 Yb15 2.834153 1_665
S32 Yb13 2.839766 1_555
S33 Yb0 2.800100 1_555
S33 Yb16 2.849477 1_545
S34 Yb15 2.883913 1_555
S34 Yb14 2.945144 1_555
S34 Yb11 2.994503 1_555
S35 Yb11 2.708450 1_555
S35 Yb16 2.726619 1_545
S35 Yb15 2.749641 1_555
S36 Yb0 2.724096 1_555
S36 Yb16 2.769270 1_655
S36 Yb17 2.916409 1_556
S37 Yb16 2.846654 1_655
S37 Yb11 2.964057 1_555
S38 Yb17 2.766683 1_556
S39 Yb0 2.779861 1_555
S39 Yb16 2.823459 1_555
S39 Yb17 3.038234 1_456
