# generated using pymatgen
data_Li2Sb(PO3)5
_symmetry_space_group_name_H-M   'P 1'
_cell_length_a   14.08442500
_cell_length_b   5.48299000
_cell_length_c   9.04114406
_cell_angle_alpha   78.08566567
_cell_angle_beta   90.00000000
_cell_angle_gamma   90.00000000
_symmetry_Int_Tables_number   1
_chemical_formula_structural   Li2Sb(PO3)5
_chemical_formula_sum   'Li4 Sb2 P10 O30'
_cell_volume   683.15912168
_cell_formula_units_Z   2
loop_
 _symmetry_equiv_pos_site_id
 _symmetry_equiv_pos_as_xyz
  1  'x, y, z'
loop_
 _atom_site_type_symbol
 _atom_site_label
 _atom_site_symmetry_multiplicity
 _atom_site_fract_x
 _atom_site_fract_y
 _atom_site_fract_z
 _atom_site_occupancy
  Li  Li0  1  0.64210600  0.93899700  0.07145300  1
  Li  Li1  1  0.35789400  0.06100300  0.92854700  1
  Li  Li2  1  0.85789400  0.93899700  0.07145300  1
  Li  Li3  1  0.14210600  0.06100300  0.92854700  1
  Sb  Sb0  1  0.00000000  0.50000000  0.50000000  1
  Sb  Sb1  1  0.50000000  0.50000000  0.50000000  1
  P  P0  1  0.35427300  0.00748000  0.48037800  1
  P  P1  1  0.41655700  0.32524000  0.17846600  1
  P  P2  1  0.58344300  0.67476000  0.82153400  1
  P  P3  1  0.91655700  0.67476000  0.82153400  1
  P  P4  1  0.75000000  0.45677900  0.00637300  1
  P  P5  1  0.25000000  0.54322100  0.99362700  1
  P  P6  1  0.08344300  0.32524000  0.17846600  1
  P  P7  1  0.85427300  0.99252000  0.51962200  1
  P  P8  1  0.14572700  0.00748000  0.48037800  1
  P  P9  1  0.64572700  0.99252000  0.51962200  1
  O  O0  1  0.94556500  0.82720200  0.93190600  1
  O  O1  1  0.13513300  0.73314600  0.48330200  1
  O  O2  1  0.75000000  0.19517200  0.09956000  1
  O  O3  1  0.35106700  0.15661200  0.30925300  1
  O  O4  1  0.44556500  0.17279800  0.06809400  1
  O  O5  1  0.64893300  0.84338800  0.69074700  1
  O  O6  1  0.65981500  0.46302200  0.89342800  1
  O  O7  1  0.25000000  0.06215100  0.53701900  1
  O  O8  1  0.05443500  0.17279800  0.06809400  1
  O  O9  1  0.63513300  0.26685400  0.51669800  1
  O  O10  1  0.85106700  0.84338800  0.69074700  1
  O  O11  1  0.07830100  0.12634800  0.57528300  1
  O  O12  1  0.00876600  0.45545700  0.25456500  1
  O  O13  1  0.14893300  0.15661200  0.30925300  1
  O  O14  1  0.84018500  0.46302200  0.89342800  1
  O  O15  1  0.50876600  0.54454300  0.74543500  1
  O  O16  1  0.99123400  0.54454300  0.74543500  1
  O  O17  1  0.75000000  0.68672700  0.07279400  1
  O  O18  1  0.25000000  0.80482800  0.90044000  1
  O  O19  1  0.15981500  0.53697800  0.10657200  1
  O  O20  1  0.25000000  0.31327300  0.92720600  1
  O  O21  1  0.57830100  0.87365200  0.42471700  1
  O  O22  1  0.92169900  0.87365200  0.42471700  1
  O  O23  1  0.49123400  0.45545700  0.25456500  1
  O  O24  1  0.86486700  0.26685400  0.51669800  1
  O  O25  1  0.55443500  0.82720200  0.93190600  1
  O  O26  1  0.36486700  0.73314600  0.48330200  1
  O  O27  1  0.75000000  0.93784900  0.46298100  1
  O  O28  1  0.34018500  0.53697800  0.10657200  1
  O  O29  1  0.42169900  0.12634800  0.57528300  1
loop_
_geom_bond_atom_site_label_1
_geom_bond_atom_site_label_2
_geom_bond_distance
_geom_bond_site_symmetry_2
Li0 O25 1.952325 1_554
Li0 O17 2.053219 1_555
Li0 O2 2.119936 1_565
Li1 O4 1.952325 1_556
Li1 O20 2.053219 1_555
Li1 O18 2.119936 1_545
Li2 O0 1.952325 1_554
Li2 O17 2.053219 1_555
Li2 O2 2.119936 1_565
Li3 O8 1.952325 1_556
Li3 O20 2.053219 1_555
Li3 O18 2.119936 1_545
O0 P3 1.485166 1_555
O1 P8 1.506344 1_565
O1 Sb0 2.280283 1_555
O2 P4 1.506094 1_555
O3 P0 1.594371 1_555
O3 P1 1.628639 1_555
O4 P1 1.485166 1_555
O5 P9 1.594371 1_555
O5 P2 1.628639 1_555
O6 P2 1.617337 1_555
O6 P4 1.625702 1_556
O7 P8 1.603853 1_555
O7 P0 1.603853 1_555
O8 P6 1.485166 1_555
O9 P9 1.506344 1_545
O9 Sb1 2.280283 1_555
O10 P7 1.594371 1_555
O10 P3 1.628639 1_555
O11 P8 1.514525 1_555
O11 Sb0 2.302396 1_555
O12 P6 1.514006 1_555
O12 Sb0 2.285318 1_555
O13 P8 1.594371 1_555
O13 P6 1.628639 1_555
O14 P3 1.617337 1_555
O14 P4 1.625702 1_556
O15 P2 1.514006 1_555
O15 Sb1 2.285318 1_555
O16 P3 1.514006 1_555
O16 Sb0 2.285318 1_655
O17 P4 1.504284 1_555
O18 P5 1.506094 1_555
O19 P6 1.617337 1_555
O19 P5 1.625702 1_554
O20 P5 1.504284 1_555
O21 P9 1.514525 1_555
O21 Sb1 2.302396 1_555
O22 P7 1.514525 1_555
O22 Sb0 2.302396 1_655
O23 P1 1.514006 1_555
O23 Sb1 2.285318 1_555
O24 P7 1.506344 1_545
O24 Sb0 2.280283 1_655
O25 P2 1.485166 1_555
O26 P0 1.506344 1_565
O26 Sb1 2.280283 1_555
O27 P9 1.603853 1_555
O27 P7 1.603853 1_555
O28 P1 1.617337 1_555
O28 P5 1.625702 1_554
O29 P0 1.514525 1_555
O29 Sb1 2.302396 1_555
