# generated using pymatgen
data_NaC2N3
_symmetry_space_group_name_H-M   'P 1'
_cell_length_a   15.12810400
_cell_length_b   3.60717100
_cell_length_c   7.28621244
_cell_angle_alpha   63.48537836
_cell_angle_beta   90.00000000
_cell_angle_gamma   90.00000000
_symmetry_Int_Tables_number   1
_chemical_formula_structural   NaC2N3
_chemical_formula_sum   'Na4 C8 N12'
_cell_volume   355.78609407
_cell_formula_units_Z   4
loop_
 _symmetry_equiv_pos_site_id
 _symmetry_equiv_pos_as_xyz
  1  'x, y, z'
loop_
 _atom_site_type_symbol
 _atom_site_label
 _atom_site_symmetry_multiplicity
 _atom_site_fract_x
 _atom_site_fract_y
 _atom_site_fract_z
 _atom_site_occupancy
  Na  Na0  1  0.91248300  0.38062400  0.35826400  1
  Na  Na1  1  0.08751700  0.61937600  0.64173600  1
  Na  Na2  1  0.41248300  0.61937600  0.14173600  1
  Na  Na3  1  0.58751700  0.38062400  0.85826400  1
  C  C0  1  0.08316000  0.10045200  0.15416700  1
  C  C1  1  0.22648300  0.22397100  0.04277700  1
  C  C2  1  0.41684000  0.10045200  0.65416700  1
  C  C3  1  0.91684000  0.89954800  0.84583300  1
  C  C4  1  0.77351700  0.77602900  0.95722300  1
  C  C5  1  0.27351700  0.22397100  0.54277700  1
  C  C6  1  0.58316000  0.89954800  0.34583300  1
  C  C7  1  0.72648300  0.77602900  0.45722300  1
  N  N0  1  0.02542300  0.95370500  0.27530700  1
  N  N1  1  0.30425600  0.19664700  0.05808900  1
  N  N2  1  0.64164900  0.72722000  0.48901600  1
  N  N3  1  0.80425600  0.80335300  0.44191100  1
  N  N4  1  0.97457700  0.04629500  0.72469300  1
  N  N5  1  0.19574400  0.19664700  0.55808900  1
  N  N6  1  0.69574400  0.80335300  0.94191100  1
  N  N7  1  0.35835100  0.27278000  0.51098400  1
  N  N8  1  0.14164900  0.27278000  0.01098400  1
  N  N9  1  0.47457700  0.95370500  0.77530700  1
  N  N10  1  0.85835100  0.72722000  0.98901600  1
  N  N11  1  0.52542300  0.04629500  0.22469300  1
loop_
_geom_bond_atom_site_label_1
_geom_bond_atom_site_label_2
_geom_bond_distance
_geom_bond_site_symmetry_2
C0 N0 1.185340 1_545
C0 N8 1.295646 1_555
C1 N1 1.181792 1_555
C1 N8 1.302038 1_555
C2 N9 1.185340 1_545
C2 N7 1.295646 1_555
C3 N4 1.185340 1_565
C3 N10 1.295646 1_555
C4 N6 1.181792 1_555
C4 N10 1.302038 1_555
C5 N5 1.181792 1_555
C5 N7 1.302038 1_555
C6 N11 1.185340 1_565
C6 N2 1.295646 1_555
C7 N3 1.181792 1_555
C7 N2 1.302038 1_555
N0 Na0 2.538159 1_455
N0 Na0 2.546988 1_465
N0 Na1 2.567143 1_555
N1 Na2 2.491398 1_555
N1 Na2 2.501003 1_545
N2 Na3 2.543387 1_555
N3 Na0 2.491398 1_555
N3 Na0 2.501003 1_565
N4 Na1 2.538159 1_655
N4 Na1 2.546988 1_645
N4 Na0 2.567143 1_555
N5 Na1 2.491398 1_555
N5 Na1 2.501003 1_545
N6 Na3 2.491398 1_555
N6 Na3 2.501003 1_565
N7 Na2 2.543387 1_555
N8 Na1 2.543387 1_554
N9 Na3 2.538159 1_555
N9 Na3 2.546988 1_565
N9 Na2 2.567143 1_556
N10 Na0 2.543387 1_556
N11 Na2 2.538159 1_555
N11 Na2 2.546988 1_545
N11 Na3 2.567143 1_554
