# generated using pymatgen
data_Ga7(CuSe4)3
_symmetry_space_group_name_H-M   'P 1'
_cell_length_a   10.60643662
_cell_length_b   10.60643662
_cell_length_c   15.77726993
_cell_angle_alpha   56.33646290
_cell_angle_beta   56.33646290
_cell_angle_gamma   21.29157354
_symmetry_Int_Tables_number   1
_chemical_formula_structural   Ga7(CuSe4)3
_chemical_formula_sum   'Ga7 Cu3 Se12'
_cell_volume   532.19099633
_cell_formula_units_Z   1
loop_
 _symmetry_equiv_pos_site_id
 _symmetry_equiv_pos_as_xyz
  1  'x, y, z'
loop_
 _atom_site_type_symbol
 _atom_site_label
 _atom_site_symmetry_multiplicity
 _atom_site_fract_x
 _atom_site_fract_y
 _atom_site_fract_z
 _atom_site_occupancy
  Ga  Ga0  1  0.00354900  0.00354900  0.99730500  1
  Ga  Ga1  1  0.00339500  0.00339500  0.49866200  1
  Ga  Ga2  1  0.34029500  0.34029500  0.24829700  1
  Ga  Ga3  1  0.66913800  0.66913800  0.23877600  1
  Ga  Ga4  1  0.67147500  0.67147500  0.99416900  1
  Ga  Ga5  1  0.99505600  0.99505600  0.75449200  1
  Ga  Ga6  1  0.33150000  0.33150000  0.49114300  1
  Cu  Cu0  1  0.66574300  0.66574300  0.50172400  1
  Cu  Cu1  1  0.32969300  0.32969300  0.75803200  1
  Cu  Cu2  1  0.66557200  0.66557200  0.75618000  1
  Se  Se0  1  0.41233500  0.41233500  0.05862100  1
  Se  Se1  1  0.75109200  0.75109200  0.06017000  1
  Se  Se2  1  0.07917100  0.07917100  0.31007600  1
  Se  Se3  1  0.07911100  0.07911100  0.07154100  1
  Se  Se4  1  0.41249600  0.41249600  0.56812700  1
  Se  Se5  1  0.41964000  0.41964000  0.31018600  1
  Se  Se6  1  0.74466100  0.74466100  0.56990500  1
  Se  Se7  1  0.74778300  0.74778300  0.31449700  1
  Se  Se8  1  0.08473700  0.08473700  0.81047600  1
  Se  Se9  1  0.08547900  0.08547900  0.56232000  1
  Se  Se10  1  0.41266600  0.41266600  0.81829400  1
  Se  Se11  1  0.75095600  0.75095600  0.81051900  1
loop_
_geom_bond_atom_site_label_1
_geom_bond_atom_site_label_2
_geom_bond_distance
_geom_bond_site_symmetry_2
Ga0 Se8 2.434236 1_555
Ga0 Se3 2.436119 1_556
Ga0 Se0 2.513175 1_456
Ga0 Se0 2.513175 1_546
Ga1 Se9 2.424033 1_555
Ga1 Se2 2.458911 1_555
Ga1 Se4 2.507733 1_545
Ga1 Se4 2.507733 1_455
Ga2 Se5 2.347703 1_555
Ga2 Se0 2.478132 1_555
Ga2 Se7 2.525381 1_455
Ga2 Se7 2.525381 1_545
Ga3 Se1 2.329970 1_555
Ga3 Se2 2.498505 1_655
Ga3 Se2 2.498505 1_565
Ga3 Se7 2.514954 1_555
Ga4 Se11 2.392742 1_555
Ga4 Se1 2.406059 1_556
Ga4 Se3 2.526992 1_656
Ga4 Se3 2.526992 1_566
Ga5 Se10 2.419179 1_655
Ga5 Se10 2.419179 1_565
Ga5 Se8 2.477625 1_665
Ga5 Se9 2.509771 1_665
Ga6 Se5 2.368474 1_555
Ga6 Se6 2.474512 1_455
Ga6 Se6 2.474512 1_545
Ga6 Se4 2.576845 1_555
Cu0 Se9 2.397637 1_655
Cu0 Se9 2.397637 1_565
Cu0 Se6 2.420845 1_555
Cu0 Se7 2.439637 1_555
Cu1 Se11 2.384557 1_545
Cu1 Se11 2.384557 1_455
Cu1 Se10 2.398209 1_555
Cu1 Se4 2.474392 1_555
Cu2 Se11 2.371735 1_555
Cu2 Se8 2.405117 1_565
Cu2 Se8 2.405117 1_655
Cu2 Se6 2.426849 1_555
