# generated using pymatgen
data_Sr6Ta2O11
_symmetry_space_group_name_H-M   'P 1'
_cell_length_a   8.56732100
_cell_length_b   8.56732100
_cell_length_c   8.54643300
_cell_angle_alpha   90.00000000
_cell_angle_beta   90.00000000
_cell_angle_gamma   90.00000000
_symmetry_Int_Tables_number   1
_chemical_formula_structural   Sr6Ta2O11
_chemical_formula_sum   'Sr12 Ta4 O22'
_cell_volume   627.29954276
_cell_formula_units_Z   2
loop_
 _symmetry_equiv_pos_site_id
 _symmetry_equiv_pos_as_xyz
  1  'x, y, z'
loop_
 _atom_site_type_symbol
 _atom_site_label
 _atom_site_symmetry_multiplicity
 _atom_site_fract_x
 _atom_site_fract_y
 _atom_site_fract_z
 _atom_site_occupancy
  Sr  Sr0  1  0.75063300  0.25063300  0.72270000  1
  Sr  Sr1  1  0.50000000  0.00000000  0.52979100  1
  Sr  Sr2  1  0.50000000  0.50000000  0.00000000  1
  Sr  Sr3  1  0.74936700  0.75063300  0.27730000  1
  Sr  Sr4  1  0.00000000  0.50000000  0.47020900  1
  Sr  Sr5  1  0.24936700  0.74936700  0.72270000  1
  Sr  Sr6  1  0.25063300  0.75063300  0.27730000  1
  Sr  Sr7  1  0.00000000  0.00000000  0.00000000  1
  Sr  Sr8  1  0.24936700  0.25063300  0.72270000  1
  Sr  Sr9  1  0.25063300  0.24936700  0.27730000  1
  Sr  Sr10  1  0.74936700  0.24936700  0.27730000  1
  Sr  Sr11  1  0.75063300  0.74936700  0.72270000  1
  Ta  Ta0  1  0.00000000  0.50000000  0.02738500  1
  Ta  Ta1  1  0.00000000  0.00000000  0.50000000  1
  Ta  Ta2  1  0.50000000  0.00000000  0.97261500  1
  Ta  Ta3  1  0.50000000  0.50000000  0.50000000  1
  O  O0  1  0.76535500  0.00000000  0.49222700  1
  O  O1  1  0.50000000  0.26535500  0.49222700  1
  O  O2  1  0.50000000  0.50000000  0.72823600  1
  O  O3  1  0.26535500  0.50000000  0.50777300  1
  O  O4  1  0.50000000  0.78230200  0.89916700  1
  O  O5  1  0.00000000  0.50000000  0.80358700  1
  O  O6  1  0.50000000  0.00000000  0.19641300  1
  O  O7  1  0.00000000  0.71769800  0.10083300  1
  O  O8  1  0.28230200  0.00000000  0.89916700  1
  O  O9  1  0.00000000  0.76535500  0.50777300  1
  O  O10  1  0.23464500  0.00000000  0.49222700  1
  O  O11  1  0.00000000  0.00000000  0.27176400  1
  O  O12  1  0.00000000  0.00000000  0.72823600  1
  O  O13  1  0.00000000  0.23464500  0.50777300  1
  O  O14  1  0.00000000  0.28230200  0.10083300  1
  O  O15  1  0.71769800  0.00000000  0.89916700  1
  O  O16  1  0.50000000  0.21769800  0.89916700  1
  O  O17  1  0.78230200  0.50000000  0.10083300  1
  O  O18  1  0.73464500  0.50000000  0.50777300  1
  O  O19  1  0.50000000  0.50000000  0.27176400  1
  O  O20  1  0.50000000  0.73464500  0.49222700  1
  O  O21  1  0.21769800  0.50000000  0.10083300  1
loop_
_geom_bond_atom_site_label_1
_geom_bond_atom_site_label_2
_geom_bond_distance
_geom_bond_site_symmetry_2
O0 Ta1 2.011376 1_655
O0 Sr1 2.295937 1_555
O0 Sr10 2.820824 1_555
O0 Sr3 2.820824 1_545
O0 Sr11 2.916575 1_545
O0 Sr0 2.916575 1_555
O1 Ta3 2.011376 1_555
O1 Sr1 2.295937 1_555
O1 Sr9 2.820824 1_555
O1 Sr10 2.820824 1_555
O1 Sr0 2.916575 1_555
O1 Sr8 2.916575 1_555
O2 Ta3 1.950604 1_555
O2 Sr2 2.322613 1_556
O2 Sr11 3.029385 1_555
O2 Sr8 3.029385 1_555
O2 Sr5 3.029385 1_555
O2 Sr0 3.029385 1_555
O3 Ta3 2.011376 1_555
O3 Sr4 2.295937 1_555
O3 Sr8 2.820824 1_555
O3 Sr5 2.820824 1_555
O3 Sr9 2.916575 1_555
O3 Sr6 2.916575 1_555
O4 Ta2 1.967889 1_565
O4 Sr2 2.567513 1_556
O4 Sr11 2.639104 1_555
O4 Sr5 2.639104 1_555
O5 Ta0 1.912675 1_556
O5 Sr4 2.849193 1_555
O5 Sr8 3.099413 1_555
O5 Sr0 3.099413 1_455
O5 Sr11 3.099413 1_455
O5 Sr5 3.099413 1_555
O6 Ta2 1.912675 1_554
O6 Sr1 2.849193 1_555
O6 Sr9 3.099413 1_555
O6 Sr10 3.099413 1_555
O6 Sr6 3.099413 1_545
O6 Sr3 3.099413 1_545
O7 Ta0 1.967889 1_555
O7 Sr7 2.567513 1_565
O7 Sr3 2.639104 1_455
O7 Sr6 2.639104 1_555
O8 Ta2 1.967889 1_555
O8 Sr7 2.567513 1_556
O8 Sr5 2.639104 1_545
O8 Sr8 2.639104 1_555
O9 Ta1 2.011376 1_565
O9 Sr4 2.295937 1_555
O9 Sr5 2.820824 1_555
O9 Sr11 2.820824 1_455
O9 Sr3 2.916575 1_455
O9 Sr6 2.916575 1_555
O10 Ta1 2.011376 1_555
O10 Sr1 2.295937 1_555
O10 Sr9 2.820824 1_555
O10 Sr6 2.820824 1_545
O10 Sr5 2.916575 1_545
O10 Sr8 2.916575 1_555
O11 Ta1 1.950604 1_555
O11 Sr7 2.322613 1_555
O11 Sr6 3.029385 1_545
O11 Sr3 3.029385 1_445
O11 Sr9 3.029385 1_555
O11 Sr10 3.029385 1_455
O12 Ta1 1.950604 1_555
O12 Sr7 2.322613 1_556
O12 Sr8 3.029385 1_555
O12 Sr11 3.029385 1_445
O12 Sr0 3.029385 1_455
O12 Sr5 3.029385 1_545
O13 Ta1 2.011376 1_555
O13 Sr4 2.295937 1_555
O13 Sr8 2.820824 1_555
O13 Sr0 2.820824 1_455
O13 Sr9 2.916575 1_555
O13 Sr10 2.916575 1_455
O14 Ta0 1.967889 1_555
O14 Sr7 2.567513 1_555
O14 Sr9 2.639104 1_555
O14 Sr10 2.639104 1_455
O15 Ta2 1.967889 1_555
O15 Sr7 2.567513 1_656
O15 Sr11 2.639104 1_545
O15 Sr0 2.639104 1_555
O16 Ta2 1.967889 1_555
O16 Sr2 2.567513 1_556
O16 Sr8 2.639104 1_555
O16 Sr0 2.639104 1_555
O17 Ta0 1.967889 1_655
O17 Sr2 2.567513 1_555
O17 Sr10 2.639104 1_555
O17 Sr3 2.639104 1_555
O18 Ta3 2.011376 1_555
O18 Sr4 2.295937 1_655
O18 Sr11 2.820824 1_555
O18 Sr0 2.820824 1_555
O18 Sr3 2.916575 1_555
O18 Sr10 2.916575 1_555
O19 Ta3 1.950604 1_555
O19 Sr2 2.322613 1_555
O19 Sr10 3.029385 1_555
O19 Sr9 3.029385 1_555
O19 Sr3 3.029385 1_555
O19 Sr6 3.029385 1_555
O20 Ta3 2.011376 1_555
O20 Sr1 2.295937 1_565
O20 Sr3 2.820824 1_555
O20 Sr6 2.820824 1_555
O20 Sr5 2.916575 1_555
O20 Sr11 2.916575 1_555
O21 Ta0 1.967889 1_555
O21 Sr2 2.567513 1_555
O21 Sr9 2.639104 1_555
O21 Sr6 2.639104 1_555
