# generated using pymatgen
data_Sb2O5
_symmetry_space_group_name_H-M   'P 1'
_cell_length_a   7.84455071
_cell_length_b   7.84455071
_cell_length_c   7.84455071
_cell_angle_alpha   60.00000000
_cell_angle_beta   60.00000000
_cell_angle_gamma   60.00000000
_symmetry_Int_Tables_number   1
_chemical_formula_structural   Sb2O5
_chemical_formula_sum   'Sb8 O20'
_cell_volume   341.34160480
_cell_formula_units_Z   4
loop_
 _symmetry_equiv_pos_site_id
 _symmetry_equiv_pos_as_xyz
  1  'x, y, z'
loop_
 _atom_site_type_symbol
 _atom_site_label
 _atom_site_symmetry_multiplicity
 _atom_site_fract_x
 _atom_site_fract_y
 _atom_site_fract_z
 _atom_site_occupancy
  Sb  Sb0  1  0.88009000  0.88009000  0.35972900  1
  Sb  Sb1  1  0.36991000  0.89027100  0.36991000  1
  Sb  Sb2  1  0.35972900  0.88009000  0.88009000  1
  Sb  Sb3  1  0.88009000  0.88009000  0.88009000  1
  Sb  Sb4  1  0.36991000  0.36991000  0.89027100  1
  Sb  Sb5  1  0.88009000  0.35972900  0.88009000  1
  Sb  Sb6  1  0.89027100  0.36991000  0.36991000  1
  Sb  Sb7  1  0.36991000  0.36991000  0.36991000  1
  O  O0  1  0.31514800  0.31514800  0.68485200  1
  O  O1  1  0.12500000  0.12500000  0.62500000  1
  O  O2  1  0.62500000  0.62500000  0.12500000  1
  O  O3  1  0.56514800  0.93485200  0.93485200  1
  O  O4  1  0.31514800  0.68485200  0.68485200  1
  O  O5  1  0.68485200  0.68485200  0.31514800  1
  O  O6  1  0.31514800  0.68485200  0.31514800  1
  O  O7  1  0.62500000  0.12500000  0.12500000  1
  O  O8  1  0.12500000  0.62500000  0.12500000  1
  O  O9  1  0.68485200  0.31514800  0.31514800  1
  O  O10  1  0.56514800  0.93485200  0.56514800  1
  O  O11  1  0.93485200  0.56514800  0.56514800  1
  O  O12  1  0.12500000  0.62500000  0.62500000  1
  O  O13  1  0.12500000  0.12500000  0.12500000  1
  O  O14  1  0.93485200  0.56514800  0.93485200  1
  O  O15  1  0.93485200  0.93485200  0.56514800  1
  O  O16  1  0.56514800  0.56514800  0.93485200  1
  O  O17  1  0.68485200  0.31514800  0.68485200  1
  O  O18  1  0.62500000  0.12500000  0.62500000  1
  O  O19  1  0.62500000  0.62500000  0.62500000  1
loop_
_geom_bond_atom_site_label_1
_geom_bond_atom_site_label_2
_geom_bond_distance
_geom_bond_site_symmetry_2
O0 O12 2.070494 1_555
O0 O18 2.070494 1_555
O0 Sb7 2.129494 1_555
O0 Sb4 2.129502 1_555
O1 Sb1 2.718168 1_545
O1 Sb6 2.718168 1_455
O1 Sb5 2.718168 1_455
O1 Sb2 2.718168 1_545
O1 Sb3 2.718173 1_445
O1 Sb7 2.718173 1_555
O2 O5 2.070494 1_555
O2 O9 2.070494 1_555
O2 O6 2.070494 1_555
O2 O3 2.070494 1_554
O3 Sb3 2.129494 1_555
O3 Sb2 2.129502 1_555
O4 Sb4 2.129496 1_555
O4 Sb1 2.129496 1_555
O5 Sb1 2.129496 1_555
O5 Sb6 2.129496 1_555
O6 Sb7 2.129494 1_555
O6 Sb1 2.129502 1_555
O7 Sb4 2.718168 1_554
O7 Sb1 2.718168 1_545
O7 Sb0 2.718168 1_545
O7 Sb5 2.718168 1_554
O7 Sb3 2.718173 1_544
O7 Sb7 2.718173 1_555
O8 Sb4 2.718168 1_554
O8 Sb6 2.718168 1_455
O8 Sb2 2.718168 1_554
O8 Sb0 2.718168 1_455
O8 Sb3 2.718173 1_454
O8 Sb7 2.718173 1_555
O9 Sb7 2.129494 1_555
O9 Sb6 2.129502 1_555
O10 O19 2.070494 1_555
O10 O18 2.070494 1_565
O10 Sb2 2.129496 1_555
O10 Sb0 2.129496 1_555
O11 O19 2.070494 1_555
O11 O12 2.070494 1_655
O11 Sb5 2.129496 1_555
O11 Sb0 2.129496 1_555
O12 O14 2.070494 1_455
O12 O4 2.070494 1_555
O12 O15 2.070494 1_455
O12 O6 2.070494 1_555
O13 Sb2 2.718173 1_544
O13 Sb5 2.718173 1_454
O13 Sb0 2.718173 1_445
O13 Sb1 2.718173 1_545
O13 Sb6 2.718173 1_455
O13 Sb4 2.718173 1_554
O14 O2 2.070494 1_556
O14 Sb3 2.129494 1_555
O14 Sb5 2.129502 1_555
O15 O18 2.070494 1_565
O15 Sb3 2.129494 1_555
O15 Sb0 2.129502 1_555
O16 O19 2.070494 1_555
O16 O2 2.070494 1_556
O16 Sb2 2.129496 1_555
O16 Sb5 2.129496 1_555
O17 O19 2.070494 1_555
O17 O18 2.070494 1_555
O17 Sb6 2.129496 1_555
O17 Sb4 2.129496 1_555
O18 O3 2.070494 1_545
O18 O9 2.070494 1_555
O19 O4 2.070494 1_555
O19 O5 2.070494 1_555
