# generated using pymatgen
data_La(Mo4O7)2
_symmetry_space_group_name_H-M   'P 1'
_cell_length_a   8.30067572
_cell_length_b   8.27943602
_cell_length_c   28.86327989
_cell_angle_alpha   90.92722311
_cell_angle_beta   90.83967776
_cell_angle_gamma   97.72337085
_symmetry_Int_Tables_number   1
_chemical_formula_structural   La(Mo4O7)2
_chemical_formula_sum   'La6 Mo48 O84'
_cell_volume   1965.09095521
_cell_formula_units_Z   6
loop_
 _symmetry_equiv_pos_site_id
 _symmetry_equiv_pos_as_xyz
  1  'x, y, z'
loop_
 _atom_site_type_symbol
 _atom_site_label
 _atom_site_symmetry_multiplicity
 _atom_site_fract_x
 _atom_site_fract_y
 _atom_site_fract_z
 _atom_site_occupancy
  La  La0  1  0.09633217  0.91707890  0.99364461  1
  La  La1  1  0.11962075  0.94079096  0.32979583  1
  La  La2  1  0.05262869  0.88287080  0.66465482  1
  La  La3  1  0.41182502  0.42794079  0.18319455  1
  La  La4  1  0.42729136  0.41578199  0.51447965  1
  La  La5  1  0.41494392  0.42665786  0.84828714  1
  Mo  Mo0  1  0.03931318  0.80424746  0.12043200  1
  Mo  Mo1  1  0.04035500  0.80597728  0.45432458  1
  Mo  Mo2  1  0.04248913  0.80549739  0.78790164  1
  Mo  Mo3  1  0.20796745  0.94834255  0.21250881  1
  Mo  Mo4  1  0.20189222  0.96182914  0.54626542  1
  Mo  Mo5  1  0.20410627  0.96023254  0.87884168  1
  Mo  Mo6  1  0.16552374  0.18028710  0.11954884  1
  Mo  Mo7  1  0.16570391  0.17930325  0.45241407  1
  Mo  Mo8  1  0.16830816  0.17742962  0.78511136  1
  Mo  Mo9  1  0.29667870  0.55291464  0.05038348  1
  Mo  Mo10  1  0.29681812  0.55501137  0.38400196  1
  Mo  Mo11  1  0.29648892  0.55580918  0.71679883  1
  Mo  Mo12  1  0.42123270  0.92069531  0.12333283  1
  Mo  Mo13  1  0.42527377  0.91904977  0.45658158  1
  Mo  Mo14  1  0.42578071  0.91902464  0.78994629  1
  Mo  Mo15  1  0.31099015  0.32762915  0.29207382  1
  Mo  Mo16  1  0.30346398  0.32875972  0.62601546  1
  Mo  Mo17  1  0.31541122  0.32718131  0.95837680  1
  Mo  Mo18  1  0.43884362  0.71009860  0.62018406  1
  Mo  Mo19  1  0.43916847  0.70390688  0.28792396  1
  Mo  Mo20  1  0.43975805  0.70612323  0.95253309  1
  Mo  Mo21  1  0.53581557  0.28748407  0.04848770  1
  Mo  Mo22  1  0.53549894  0.29106120  0.38230420  1
  Mo  Mo23  1  0.53910763  0.29188093  0.71545540  1
  Mo  Mo24  1  0.58222568  0.07725670  0.28858027  1
  Mo  Mo25  1  0.58239302  0.07776897  0.95414084  1
  Mo  Mo26  1  0.58222768  0.08085081  0.61950500  1
  Mo  Mo27  1  0.67409483  0.69644598  0.04262461  1
  Mo  Mo28  1  0.67291294  0.69553459  0.71066460  1
  Mo  Mo29  1  0.67485142  0.69542165  0.37720056  1
  Mo  Mo30  1  0.71589701  0.46736972  0.27976877  1
  Mo  Mo31  1  0.70471387  0.47054535  0.94888975  1
  Mo  Mo32  1  0.70201311  0.47275842  0.61539313  1
  Mo  Mo33  1  0.81360590  0.82972000  0.21021127  1
  Mo  Mo34  1  0.81140100  0.82543192  0.54311809  1
  Mo  Mo35  1  0.81215794  0.82473559  0.87678236  1
  Mo  Mo36  1  0.78782379  0.05496266  0.12105310  1
  Mo  Mo37  1  0.78777912  0.05542072  0.45304883  1
  Mo  Mo38  1  0.78988026  0.05561933  0.78583848  1
  Mo  Mo39  1  0.92152093  0.41893844  0.03341463  1
  Mo  Mo40  1  0.92604210  0.42245443  0.36627449  1
  Mo  Mo41  1  0.92113342  0.41768522  0.69968194  1
  Mo  Mo42  1  0.90599924  0.43931668  0.13390723  1
  Mo  Mo43  1  0.91000869  0.43954868  0.46701381  1
  Mo  Mo44  1  0.91180728  0.43808556  0.80050383  1
  Mo  Mo45  1  0.95078674  0.21125436  0.21745541  1
  Mo  Mo46  1  0.94958877  0.22002034  0.88768580  1
  Mo  Mo47  1  0.94636876  0.22211544  0.55304653  1
  O  O0  1  0.02876506  0.83350977  0.24933982  1
  O  O1  1  0.01031781  0.82806243  0.58498655  1
  O  O2  1  0.01433664  0.82950770  0.91877498  1
  O  O3  1  0.06970247  0.58266447  0.08322760  1
  O  O4  1  0.06933295  0.58267329  0.41662515  1
  O  O5  1  0.06822723  0.58423913  0.74903787  1
  O  O6  1  0.15504286  0.39103222  0.00972547  1
  O  O7  1  0.13578698  0.38348492  0.34091138  1
  O  O8  1  0.14760031  0.38384267  0.67171806  1
  O  O9  1  0.11375873  0.35948429  0.16991890  1
  O  O10  1  0.10856154  0.35054915  0.50446966  1
  O  O11  1  0.11201083  0.35168154  0.83777802  1
  O  O12  1  0.20661967  0.96389697  0.08159936  1
  O  O13  1  0.20822040  0.96351348  0.41368082  1
  O  O14  1  0.20898714  0.96106729  0.74718444  1
  O  O15  1  0.15330728  0.14366356  0.25781493  1
  O  O16  1  0.13904264  0.14644016  0.92732466  1
  O  O17  1  0.13777642  0.15275410  0.59307819  1
  O  O18  1  0.26409809  0.72505244  -0.00030139  1
  O  O19  1  0.26124211  0.73102150  0.33212295  1
  O  O20  1  0.26096581  0.73137364  0.66421000  1
  O  O21  1  0.24377344  0.77468520  0.16468936  1
  O  O22  1  0.24428641  0.78167951  0.49700071  1
  O  O23  1  0.24704822  0.77948308  0.82998276  1
  O  O24  1  0.31806569  0.51800665  0.58237845  1
  O  O25  1  0.30773299  0.53048683  0.24829767  1
  O  O26  1  0.31014041  0.52992719  0.91430597  1
  O  O27  1  0.35045451  0.36413505  0.09359395  1
  O  O28  1  0.35470625  0.36031230  0.42877758  1
  O  O29  1  0.35530017  0.36178093  0.76111599  1
  O  O30  1  0.40968726  0.92684130  0.58701988  1
  O  O31  1  0.40669608  0.91099202  0.25148705  1
  O  O32  1  0.40638219  0.92455760  0.92104015  1
  O  O33  1  0.38953593  0.13267226  0.99790131  1
  O  O34  1  0.37918334  0.13592365  0.33318497  1
  O  O35  1  0.39569034  0.15091911  0.66216199  1
  O  O36  1  0.34087488  0.11965576  0.16875776  1
  O  O37  1  0.34863072  0.12267283  0.49888800  1
  O  O38  1  0.35078724  0.12213483  0.83207546  1
  O  O39  1  0.46035841  0.71538498  0.08302156  1
  O  O40  1  0.47545352  0.70844753  0.42071915  1
  O  O41  1  0.47411368  0.70859441  0.75399727  1
  O  O42  1  0.52320762  0.29686323  0.25078419  1
  O  O43  1  0.52357528  0.28839773  0.91631971  1
  O  O44  1  0.51882832  0.29058017  0.58378981  1
  O  O45  1  0.64939141  0.90050379  0.16099316  1
  O  O46  1  0.65196277  0.89758085  0.82968377  1
  O  O47  1  0.65089073  0.90246241  0.49607337  1
  O  O48  1  0.60673564  0.85131366  0.32355447  1
  O  O49  1  0.60867934  0.85771600  0.65549965  1
  O  O50  1  0.60633186  0.85618105  0.98919872  1
  O  O51  1  0.58340678  0.08263868  0.08440627  1
  O  O52  1  0.59014462  0.08633326  0.41756020  1
  O  O53  1  0.59243590  0.08758675  0.75170498  1
  O  O54  1  0.63418974  0.64812104  0.24101222  1
  O  O55  1  0.63088572  0.65520142  0.90644821  1
  O  O56  1  0.62917874  0.65638530  0.57265169  1
  O  O57  1  0.72239041  0.47187814  0.07941440  1
  O  O58  1  0.73016993  0.46801999  0.41212856  1
  O  O59  1  0.72674477  0.47192193  0.74603679  1
  O  O60  1  0.76559179  0.24713993  0.16725665  1
  O  O61  1  0.78032047  0.24111429  0.83471902  1
  O  O62  1  0.77002094  0.24771013  0.50102602  1
  O  O63  1  0.72123411  0.26539794  0.99624904  1
  O  O64  1  0.72264747  0.28037691  0.32957244  1
  O  O65  1  0.72069948  0.26788361  0.66201215  1
  O  O66  1  0.84670026  0.87312928  0.07788466  1
  O  O67  1  0.85540614  0.87352392  0.74088521  1
  O  O68  1  0.84926930  0.87377922  0.40966388  1
  O  O69  1  0.87894043  0.66253583  0.16581270  1
  O  O70  1  0.87962660  0.66216388  0.49898284  1
  O  O71  1  0.88291384  0.66133837  0.83286907  1
  O  O72  1  0.78341463  0.03035389  0.24856592  1
  O  O73  1  0.77967982  0.04196387  0.58350372  1
  O  O74  1  0.77972732  0.04049542  0.91775611  1
  O  O75  1  0.85983658  0.61206291  0.33201179  1
  O  O76  1  0.86000386  0.62915041  0.66386231  1
  O  O77  1  0.85758117  0.62604927  0.99790172  1
  O  O78  1  0.90632060  0.41332011  0.25390144  1
  O  O79  1  0.90714221  0.40802336  0.58657710  1
  O  O80  1  0.91168210  0.40618987  0.92041427  1
  O  O81  1  0.94523598  0.23314766  0.08609402  1
  O  O82  1  0.94515859  0.24062116  0.41773945  1
  O  O83  1  0.95052710  0.23877646  0.75164608  1
loop_
_geom_bond_atom_site_label_1
_geom_bond_atom_site_label_2
_geom_bond_distance
_geom_bond_site_symmetry_2
La0 O18 2.257082 1_556
La0 O2 2.330733 1_555
La0 O12 2.690314 1_556
La0 O16 2.711570 1_565
La0 O33 2.817995 1_565
La0 O77 2.912356 1_455
La0 O66 3.211172 1_456
La1 O19 2.225542 1_555
La1 O34 2.512942 1_565
La1 O13 2.516810 1_555
La1 O0 2.540138 1_555
La1 O15 2.686942 1_565
La2 O20 2.268749 1_555
La2 O1 2.348751 1_555
La2 O76 2.462607 1_455
La2 O14 2.722417 1_555
La2 O67 2.757570 1_455
La3 O25 2.278486 1_555
La3 O42 2.474621 1_555
La3 O9 2.485511 1_555
La3 O36 2.567042 1_555
La3 O27 2.659263 1_555
La3 O54 2.902050 1_555
La4 O24 2.362991 1_555
La4 O44 2.426562 1_555
La4 O37 2.459320 1_555
La4 O28 2.556955 1_555
La4 O10 2.638796 1_555
La4 O56 2.916811 1_555
La4 O62 3.355516 1_555
La5 O26 2.305347 1_555
La5 O43 2.505523 1_555
La5 O11 2.520379 1_555
La5 O38 2.540281 1_555
La5 O29 2.590828 1_555
La5 O55 2.916995 1_555
Mo0 O12 2.128914 1_555
Mo0 O69 2.132000 1_455
Mo0 O66 2.144710 1_455
Mo0 O21 2.151805 1_555
Mo0 O3 2.156623 1_555
Mo1 O22 2.112259 1_555
Mo1 O70 2.128920 1_455
Mo1 O13 2.151259 1_555
Mo1 O68 2.166898 1_455
Mo1 O4 2.173051 1_555
Mo2 O23 2.109761 1_555
Mo2 O71 2.130552 1_455
Mo2 O14 2.137377 1_555
Mo2 O5 2.169212 1_555
Mo2 O67 2.183667 1_455
Mo3 O0 1.986360 1_555
Mo3 O21 2.030576 1_555
Mo3 O31 2.043635 1_555
Mo3 O36 2.121737 1_565
Mo3 O15 2.162688 1_565
Mo4 O22 2.111287 1_555
Mo4 O30 2.128037 1_555
Mo4 O1 2.150155 1_555
Mo4 O17 2.187635 1_565
Mo4 O37 2.190606 1_565
Mo5 O23 2.108347 1_555
Mo5 O32 2.115388 1_555
Mo5 O2 2.148624 1_555
Mo5 O38 2.183885 1_565
Mo5 O16 2.191547 1_565
Mo6 O36 2.132320 1_555
Mo6 O9 2.149270 1_555
Mo6 O12 2.153519 1_545
Mo6 O81 2.155117 1_455
Mo6 O27 2.162669 1_555
Mo7 O37 2.115837 1_555
Mo7 O28 2.145970 1_555
Mo7 O10 2.150670 1_555
Mo7 O13 2.163977 1_545
Mo7 O82 2.196202 1_455
Mo8 O38 2.118414 1_555
Mo8 O14 2.152042 1_545
Mo8 O29 2.155805 1_555
Mo8 O83 2.161100 1_455
Mo8 O11 2.177529 1_555
Mo9 O39 1.993261 1_555
Mo9 O6 2.010195 1_555
Mo9 O18 2.098570 1_555
Mo9 O27 2.105226 1_555
Mo9 O3 2.162994 1_555
Mo10 O40 2.083196 1_555
Mo10 O19 2.150897 1_555
Mo10 O4 2.160107 1_555
Mo10 O7 2.175834 1_555
Mo10 O28 2.181071 1_555
Mo11 O41 2.082101 1_555
Mo11 O8 2.160458 1_555
Mo11 O5 2.162343 1_555
Mo11 O20 2.162706 1_555
Mo11 O29 2.171212 1_555
Mo12 O39 2.108126 1_555
Mo12 O51 2.116647 1_565
Mo12 O21 2.162340 1_555
Mo12 O45 2.197023 1_555
Mo12 O12 2.207880 1_555
Mo12 O36 2.264626 1_565
Mo13 O40 2.105885 1_555
Mo13 O22 2.132276 1_555
Mo13 O52 2.155431 1_565
Mo13 O47 2.199331 1_555
Mo13 O37 2.232141 1_565
Mo13 O13 2.245557 1_555
Mo14 O41 2.101087 1_555
Mo14 O23 2.122258 1_555
Mo14 O53 2.157629 1_565
Mo14 O46 2.214716 1_555
Mo14 O38 2.220675 1_565
Mo14 O14 2.236073 1_555
Mo15 O15 2.094836 1_555
Mo15 O25 2.120846 1_555
Mo15 O34 2.128482 1_555
Mo15 O7 2.129701 1_555
Mo15 O42 2.181863 1_555
Mo16 O8 1.952197 1_555
Mo16 O24 2.018265 1_555
Mo16 O35 2.042509 1_555
Mo16 O17 2.072912 1_555
Mo16 O44 2.232568 1_555
Mo17 O6 2.114162 1_556
Mo17 O16 2.124888 1_555
Mo17 O26 2.127195 1_555
Mo17 O33 2.139790 1_555
Mo17 O43 2.181814 1_555
Mo18 O20 1.985828 1_555
Mo18 O49 1.993646 1_555
Mo18 O24 2.051442 1_555
Mo18 O30 2.088217 1_555
Mo18 O56 2.192884 1_555
Mo19 O48 1.985691 1_555
Mo19 O19 1.998552 1_555
Mo19 O25 2.012276 1_555
Mo19 O31 2.071870 1_555
Mo19 O54 2.216354 1_555
Mo20 O26 1.998587 1_555
Mo20 O50 2.007026 1_555
Mo20 O18 2.028936 1_556
Mo20 O32 2.086679 1_555
Mo20 O55 2.165065 1_555
Mo21 O51 2.081412 1_555
Mo21 O33 2.172151 1_554
Mo21 O27 2.181630 1_555
Mo21 O57 2.192238 1_555
Mo21 O63 2.193262 1_554
Mo22 O52 2.088864 1_555
Mo22 O28 2.155344 1_555
Mo22 O58 2.186507 1_555
Mo22 O34 2.186910 1_555
Mo22 O64 2.199876 1_555
Mo23 O53 2.096801 1_555
Mo23 O35 2.158750 1_555
Mo23 O29 2.161307 1_555
Mo23 O59 2.172573 1_555
Mo23 O65 2.197660 1_555
Mo24 O72 2.118947 1_555
Mo24 O31 2.128755 1_545
Mo24 O48 2.171926 1_545
Mo24 O64 2.225983 1_555
Mo24 O34 2.235477 1_555
Mo24 O42 2.241418 1_555
Mo25 O74 2.014196 1_555
Mo25 O32 2.019446 1_545
Mo25 O50 2.140424 1_545
Mo25 O33 2.144983 1_555
Mo25 O63 2.152958 1_555
Mo25 O43 2.178538 1_555
Mo26 O30 1.996836 1_545
Mo26 O73 2.012614 1_555
Mo26 O35 2.127003 1_555
Mo26 O44 2.154644 1_555
Mo26 O65 2.154792 1_555
Mo26 O49 2.169108 1_545
Mo27 O66 2.138726 1_555
Mo27 O77 2.144198 1_554
Mo27 O39 2.158989 1_555
Mo27 O50 2.164223 1_554
Mo27 O57 2.235403 1_555
Mo28 O41 2.098363 1_555
Mo28 O67 2.132331 1_555
Mo28 O76 2.192158 1_555
Mo28 O49 2.204381 1_555
Mo28 O59 2.222569 1_555
Mo29 O40 2.105564 1_555
Mo29 O68 2.120262 1_555
Mo29 O48 2.149024 1_555
Mo29 O75 2.202200 1_555
Mo29 O58 2.247709 1_555
Mo30 O78 1.862800 1_555
Mo30 O54 2.062927 1_555
Mo30 O64 2.135282 1_555
Mo30 O42 2.136981 1_555
Mo30 O75 2.154177 1_555
Mo31 O80 2.045509 1_555
Mo31 O55 2.122262 1_555
Mo31 O77 2.172162 1_555
Mo31 O43 2.173018 1_555
Mo31 O63 2.214613 1_555
Mo32 O79 2.037307 1_555
Mo32 O56 2.117713 1_555
Mo32 O44 2.172003 1_555
Mo32 O76 2.187415 1_555
Mo32 O65 2.202355 1_555
Mo33 O69 2.004254 1_555
Mo33 O72 2.026875 1_565
Mo33 O0 2.095431 1_655
Mo33 O45 2.098683 1_555
Mo33 O54 2.179250 1_555
Mo34 O70 1.985436 1_555
Mo34 O1 2.029318 1_655
Mo34 O47 2.056473 1_555
Mo34 O56 2.116793 1_555
Mo34 O73 2.170330 1_565
Mo35 O71 1.990353 1_555
Mo35 O46 2.041828 1_555
Mo35 O2 2.051352 1_655
Mo35 O55 2.115762 1_555
Mo35 O74 2.175413 1_565
Mo36 O45 1.994072 1_545
Mo36 O51 2.027365 1_555
Mo36 O66 2.052479 1_545
Mo36 O60 2.088451 1_555
Mo36 O81 2.114370 1_555
Mo37 O52 1.969279 1_555
Mo37 O47 2.035318 1_545
Mo37 O68 2.062616 1_545
Mo37 O62 2.114631 1_555
Mo37 O82 2.155829 1_555
Mo38 O53 1.950500 1_555
Mo38 O46 2.077896 1_545
Mo38 O61 2.078792 1_555
Mo38 O67 2.104785 1_545
Mo38 O83 2.143647 1_555
Mo39 O6 2.105316 1_655
Mo39 O77 2.135021 1_554
Mo39 O3 2.203308 1_655
Mo39 O81 2.205714 1_555
Mo39 O63 2.205959 1_554
Mo39 O57 2.219745 1_555
Mo40 O7 1.962620 1_655
Mo40 O75 2.002655 1_555
Mo40 O82 2.151249 1_555
Mo40 O64 2.174808 1_555
Mo40 O58 2.179266 1_555
Mo40 O4 2.179281 1_655
Mo41 O8 2.107711 1_655
Mo41 O83 2.159064 1_555
Mo41 O76 2.161874 1_555
Mo41 O59 2.198615 1_555
Mo41 O65 2.199357 1_555
Mo41 O5 2.203329 1_655
Mo42 O69 2.092039 1_555
Mo42 O60 2.097749 1_555
Mo42 O9 2.183434 1_655
Mo42 O57 2.218834 1_555
Mo42 O81 2.238456 1_555
Mo42 O3 2.252943 1_655
Mo43 O70 2.094962 1_555
Mo43 O62 2.103461 1_555
Mo43 O10 2.174404 1_655
Mo43 O58 2.197934 1_555
Mo43 O82 2.210426 1_555
Mo43 O4 2.226964 1_655
Mo44 O71 2.101579 1_555
Mo44 O61 2.105077 1_555
Mo44 O11 2.173231 1_655
Mo44 O83 2.212582 1_555
Mo44 O59 2.229092 1_555
Mo44 O5 2.247029 1_655
Mo45 O78 2.040129 1_555
Mo45 O72 2.121449 1_555
Mo45 O60 2.149911 1_555
Mo45 O15 2.170873 1_655
Mo45 O9 2.209387 1_655
Mo46 O80 1.859883 1_555
Mo46 O61 2.086503 1_555
Mo46 O16 2.092962 1_655
Mo46 O74 2.113033 1_555
Mo46 O11 2.189458 1_655
Mo47 O79 1.872850 1_555
Mo47 O17 2.098113 1_655
Mo47 O73 2.106030 1_555
Mo47 O62 2.114554 1_555
Mo47 O10 2.151260 1_655
