# generated using pymatgen
data_Ce2InNi2
_symmetry_space_group_name_H-M   'P 1'
_cell_length_a   3.61786349
_cell_length_b   7.49914482
_cell_length_c   7.49914482
_cell_angle_alpha   90.00743096
_cell_angle_beta   90.00000000
_cell_angle_gamma   90.00000000
_symmetry_Int_Tables_number   1
_chemical_formula_structural   Ce2InNi2
_chemical_formula_sum   'Ce4 In2 Ni4'
_cell_volume   203.45841315
_cell_formula_units_Z   2
loop_
 _symmetry_equiv_pos_site_id
 _symmetry_equiv_pos_as_xyz
  1  'x, y, z'
loop_
 _atom_site_type_symbol
 _atom_site_label
 _atom_site_symmetry_multiplicity
 _atom_site_fract_x
 _atom_site_fract_y
 _atom_site_fract_z
 _atom_site_occupancy
  Ce  Ce0  1  0.50000000  0.17202610  0.67202610  1
  Ce  Ce1  1  0.50000000  0.32776191  0.17223809  1
  Ce  Ce2  1  0.50000000  0.67223809  0.82776191  1
  Ce  Ce3  1  0.50000000  0.82797390  0.32797390  1
  In  In0  1  0.00000000  0.00000000  -0.00000000  1
  In  In1  1  0.00000000  0.50000000  0.50000000  1
  Ni  Ni0  1  -0.00000000  0.37413214  0.87413214  1
  Ni  Ni1  1  0.00000000  0.87443388  0.62556612  1
  Ni  Ni2  1  0.00000000  0.62586786  0.12586786  1
  Ni  Ni3  1  -0.00000000  0.12556612  0.37443388  1
loop_
_geom_bond_atom_site_label_1
_geom_bond_atom_site_label_2
_geom_bond_distance
_geom_bond_site_symmetry_2
Ce0 Ni0 2.804614 1_655
Ce0 Ni0 2.804614 1_555
Ce0 Ni1 2.893760 1_545
Ce0 Ni1 2.893760 1_645
Ce0 Ni3 2.893760 1_655
Ce0 Ni3 2.893760 1_555
Ce0 In1 3.314595 1_655
Ce0 In1 3.314595 1_555
Ce0 In0 3.314595 1_656
Ce0 In0 3.314595 1_556
Ce1 Ni3 2.805554 1_555
Ce1 Ni3 2.805554 1_655
Ce1 Ni2 2.896721 1_555
Ce1 Ni2 2.896721 1_655
Ce1 Ni0 2.896721 1_654
Ce1 Ni0 2.896721 1_554
Ce1 In1 3.313786 1_555
Ce1 In1 3.313786 1_655
Ce1 In0 3.313786 1_555
Ce1 In0 3.313786 1_655
Ce2 Ni1 2.805554 1_555
Ce2 Ni1 2.805554 1_655
Ce2 Ni0 2.896721 1_555
Ce2 Ni2 2.896721 1_656
Ce2 Ni2 2.896721 1_556
Ce2 Ni0 2.896721 1_655
Ce2 In1 3.313786 1_555
Ce2 In1 3.313786 1_655
Ce2 In0 3.313786 1_666
Ce2 In0 3.313786 1_566
Ce3 Ni2 2.804614 1_555
Ce3 Ni2 2.804614 1_655
Ce3 Ni3 2.893760 1_565
Ce3 Ni3 2.893760 1_665
Ce3 Ni1 2.893760 1_655
Ce3 Ni1 2.893760 1_555
Ce3 In1 3.314595 1_555
Ce3 In1 3.314595 1_655
Ce3 In0 3.314595 1_565
Ce3 In0 3.314595 1_665
In0 Ni2 2.960309 1_545
In0 Ni0 2.960309 1_554
In0 Ni3 2.961501 1_555
In0 Ni1 2.961501 1_544
In1 Ni0 2.960309 1_555
In1 Ni2 2.960309 1_555
In1 Ni3 2.961501 1_555
In1 Ni1 2.961501 1_555
Ni0 Ni2 2.669583 1_556
Ni1 Ni3 2.663529 1_565
