# generated using pymatgen
data_Mo2H26C8N2O5F6
_symmetry_space_group_name_H-M   'P 1'
_cell_length_a   11.00594600
_cell_length_b   12.14028000
_cell_length_c   14.09209800
_cell_angle_alpha   90.00000000
_cell_angle_beta   90.00000000
_cell_angle_gamma   90.00000000
_symmetry_Int_Tables_number   1
_chemical_formula_structural   Mo2H26C8N2O5F6
_chemical_formula_sum   'Mo8 H104 C32 N8 O20 F24'
_cell_volume   1882.91942425
_cell_formula_units_Z   4
loop_
 _symmetry_equiv_pos_site_id
 _symmetry_equiv_pos_as_xyz
  1  'x, y, z'
loop_
 _atom_site_type_symbol
 _atom_site_label
 _atom_site_symmetry_multiplicity
 _atom_site_fract_x
 _atom_site_fract_y
 _atom_site_fract_z
 _atom_site_occupancy
  Mo  Mo0  1  0.45399500  0.25376400  0.78286700  1
  Mo  Mo1  1  0.04600500  0.75376400  0.78286700  1
  Mo  Mo2  1  0.07379900  0.24546300  0.71824100  1
  Mo  Mo3  1  0.57379900  0.24546300  0.28175900  1
  Mo  Mo4  1  0.92620100  0.74546300  0.28175900  1
  Mo  Mo5  1  0.95399500  0.25376400  0.21713300  1
  Mo  Mo6  1  0.42620100  0.74546300  0.71824100  1
  Mo  Mo7  1  0.54600500  0.75376400  0.21713300  1
  H  H0  1  0.91148600  0.11696800  0.52663600  1
  H  H1  1  0.14425300  0.04956600  0.34007600  1
  H  H2  1  0.62613600  0.48535900  0.26147400  1
  H  H3  1  0.27889400  0.37079900  0.14671600  1
  H  H4  1  0.37964300  0.12036400  0.06924300  1
  H  H5  1  0.38639900  0.51559700  0.93634900  1
  H  H6  1  0.78540600  0.38828300  0.44474600  1
  H  H7  1  0.62790000  0.47627600  0.06416400  1
  H  H8  1  0.89198300  0.62114200  0.97386500  1
  H  H9  1  0.23772800  0.61558900  0.15763400  1
  H  H10  1  0.62511100  0.36894400  0.55586700  1
  H  H11  1  0.39556800  0.47569100  0.14961400  1
  H  H12  1  0.89729300  0.00982200  0.43836800  1
  H  H13  1  0.11360100  0.01559700  0.93634900  1
  H  H14  1  0.61423000  0.38262100  0.96470200  1
  H  H15  1  0.22110600  0.87079900  0.14671600  1
  H  H16  1  0.37210000  0.97627600  0.93583600  1
  H  H17  1  0.09771000  0.47252000  0.35543000  1
  H  H18  1  0.60824900  0.87550300  0.94488200  1
  H  H19  1  0.73086800  0.38604300  0.65175900  1
  H  H20  1  0.26617000  0.86504900  0.95054200  1
  H  H21  1  0.89556800  0.47569100  0.85038600  1
  H  H22  1  0.89817800  0.41460600  0.53423800  1
  H  H23  1  0.87714800  0.01033800  0.84571300  1
  H  H24  1  0.39175100  0.37550300  0.05511800  1
  H  H25  1  0.35173400  0.64846100  0.43485600  1
  H  H26  1  0.72744800  0.12035700  0.06126000  1
  H  H27  1  0.12717600  0.01243600  0.56071100  1
  H  H28  1  0.20319000  0.62642500  0.56356000  1
  H  H29  1  0.12285200  0.51033800  0.15428700  1
  H  H30  1  0.85173400  0.64846100  0.56514400  1
  H  H31  1  0.26913200  0.88604300  0.34824100  1
  H  H32  1  0.76617000  0.86504900  0.04945800  1
  H  H33  1  0.62285200  0.51033800  0.84571300  1
  H  H34  1  0.23383000  0.36504900  0.95054200  1
  H  H35  1  0.40229000  0.97252000  0.35543000  1
  H  H36  1  0.12613600  0.48535900  0.73852600  1
  H  H37  1  0.61360100  0.01559700  0.06365100  1
  H  H38  1  0.71459400  0.88828300  0.44474600  1
  H  H39  1  0.10824900  0.87550300  0.05511800  1
  H  H40  1  0.58851400  0.61696800  0.52663600  1
  H  H41  1  0.64826600  0.14846100  0.56514400  1
  H  H42  1  0.87386400  0.98535900  0.26147400  1
  H  H43  1  0.37386400  0.98535900  0.73852600  1
  H  H44  1  0.62035700  0.62036400  0.93075700  1
  H  H45  1  0.59771000  0.47252000  0.64457000  1
  H  H46  1  0.73772800  0.61558900  0.84236600  1
  H  H47  1  0.88577000  0.88262100  0.96470200  1
  H  H48  1  0.90229000  0.97252000  0.64457000  1
  H  H49  1  0.37714800  0.01033800  0.15428700  1
  H  H50  1  0.35574700  0.54956600  0.34007600  1
  H  H51  1  0.25295000  0.41811800  0.75454500  1
  H  H52  1  0.28540600  0.38828300  0.55525400  1
  H  H53  1  0.38577000  0.88262100  0.03529800  1
  H  H54  1  0.12035700  0.62036400  0.06924300  1
  H  H55  1  0.10270700  0.50982200  0.56163200  1
  H  H56  1  0.74705000  0.91811800  0.24545500  1
  H  H57  1  0.12790000  0.47627600  0.93583600  1
  H  H58  1  0.23086800  0.38604300  0.34824100  1
  H  H59  1  0.10443200  0.97569100  0.14961400  1
  H  H60  1  0.14826600  0.14846100  0.43485600  1
  H  H61  1  0.62717600  0.01243600  0.43928900  1
  H  H62  1  0.27355000  0.13975600  0.35379500  1
  H  H63  1  0.60182200  0.91460600  0.53423800  1
  H  H64  1  0.77355000  0.13975600  0.64620500  1
  H  H65  1  0.10182200  0.91460600  0.46576200  1
  H  H66  1  0.12511100  0.36894400  0.44413300  1
  H  H67  1  0.27255200  0.62035700  0.93874000  1
  H  H68  1  0.39817800  0.41460600  0.46576200  1
  H  H69  1  0.08851400  0.61696800  0.47336400  1
  H  H70  1  0.60443200  0.97569100  0.85038600  1
  H  H71  1  0.22645000  0.63975600  0.35379500  1
  H  H72  1  0.72645000  0.63975600  0.64620500  1
  H  H73  1  0.87488900  0.86894400  0.55586700  1
  H  H74  1  0.39729300  0.00982200  0.56163200  1
  H  H75  1  0.85574700  0.54956600  0.65992400  1
  H  H76  1  0.60270700  0.50982200  0.43836800  1
  H  H77  1  0.10801700  0.12114200  0.02613500  1
  H  H78  1  0.70319000  0.62642500  0.43644000  1
  H  H79  1  0.37488900  0.86894400  0.44413300  1
  H  H80  1  0.75295000  0.41811800  0.24545500  1
  H  H81  1  0.73383000  0.36504900  0.04945800  1
  H  H82  1  0.77255200  0.62035700  0.06126000  1
  H  H83  1  0.87210000  0.97627600  0.06416400  1
  H  H84  1  0.76227200  0.11558900  0.84236600  1
  H  H85  1  0.24705000  0.91811800  0.75454500  1
  H  H86  1  0.79681000  0.12642500  0.43644000  1
  H  H87  1  0.29681000  0.12642500  0.56356000  1
  H  H88  1  0.88639900  0.51559700  0.06365100  1
  H  H89  1  0.64425300  0.04956600  0.65992400  1
  H  H90  1  0.37282400  0.51243600  0.56071100  1
  H  H91  1  0.60801700  0.12114200  0.97386500  1
  H  H92  1  0.22744800  0.12035700  0.93874000  1
  H  H93  1  0.41148600  0.11696800  0.47336400  1
  H  H94  1  0.21459400  0.88828300  0.55525400  1
  H  H95  1  0.89175100  0.37550300  0.94488200  1
  H  H96  1  0.72110600  0.87079900  0.85328400  1
  H  H97  1  0.26227200  0.11558900  0.15763400  1
  H  H98  1  0.87282400  0.51243600  0.43928900  1
  H  H99  1  0.11423000  0.38262100  0.03529800  1
  H  H100  1  0.87964300  0.12036400  0.93075700  1
  H  H101  1  0.76913200  0.88604300  0.65175900  1
  H  H102  1  0.39198300  0.62114200  0.02613500  1
  H  H103  1  0.77889400  0.37079900  0.85328400  1
  C  C0  1  0.16746000  0.42827200  0.39586000  1
  C  C1  1  0.83253100  0.56947100  0.01751000  1
  C  C2  1  0.15114700  0.57038000  0.51839400  1
  C  C3  1  0.66746900  0.06947100  0.01751000  1
  C  C4  1  0.83089100  0.45188100  0.48673700  1
  C  C5  1  0.16271300  0.92483000  0.10432700  1
  C  C6  1  0.29739700  0.59298200  0.39069500  1
  C  C7  1  0.17874000  0.56628800  0.11155700  1
  C  C8  1  0.16746900  0.06947100  0.98249000  1
  C  C9  1  0.16910900  0.95188100  0.51326300  1
  C  C10  1  0.33254000  0.92827200  0.39586000  1
  C  C11  1  0.32335000  0.92522700  0.98721900  1
  C  C12  1  0.70260300  0.09298200  0.60930500  1
  C  C13  1  0.83254000  0.92827200  0.60414000  1
  C  C14  1  0.67874000  0.56628800  0.88844300  1
  C  C15  1  0.65114700  0.57038000  0.48160600  1
  C  C16  1  0.84885300  0.07038000  0.48160600  1
  C  C17  1  0.32126000  0.06628800  0.11155700  1
  C  C18  1  0.33253100  0.56947100  0.98249000  1
  C  C19  1  0.82335000  0.92522700  0.01278100  1
  C  C20  1  0.66271300  0.92483000  0.89567300  1
  C  C21  1  0.66910900  0.95188100  0.48673700  1
  C  C22  1  0.33089100  0.45188100  0.51326300  1
  C  C23  1  0.20260300  0.09298200  0.39069500  1
  C  C24  1  0.34885300  0.07038000  0.51839400  1
  C  C25  1  0.33728700  0.42483000  0.10432700  1
  C  C26  1  0.67665000  0.42522700  0.01278100  1
  C  C27  1  0.17665000  0.42522700  0.98721900  1
  C  C28  1  0.79739700  0.59298200  0.60930500  1
  C  C29  1  0.83728700  0.42483000  0.89567300  1
  C  C30  1  0.66746000  0.42827200  0.60414000  1
  C  C31  1  0.82126000  0.06628800  0.88844300  1
  N  N0  1  0.74348300  0.99801700  0.95362100  1
  N  N1  1  0.25651700  0.49801700  0.04637900  1
  N  N2  1  0.73717400  0.51026400  0.54576300  1
  N  N3  1  0.24348300  0.99801700  0.04637900  1
  N  N4  1  0.26282600  0.01026400  0.45423700  1
  N  N5  1  0.76282600  0.01026400  0.54576300  1
  N  N6  1  0.23717400  0.51026400  0.45423700  1
  N  N7  1  0.75651700  0.49801700  0.95362100  1
  O  O0  1  0.97114500  0.60949300  0.29178800  1
  O  O1  1  0.39175900  0.76922600  0.19749500  1
  O  O2  1  0.44239200  0.31859200  0.30713200  1
  O  O3  1  0.55760800  0.81859200  0.69286800  1
  O  O4  1  0.10248100  0.88762300  0.79733500  1
  O  O5  1  0.83000500  0.91468200  0.27313900  1
  O  O6  1  0.52885500  0.10949300  0.29178800  1
  O  O7  1  0.10824100  0.26922600  0.19749500  1
  O  O8  1  0.47114500  0.60949300  0.70821200  1
  O  O9  1  0.60824100  0.26922600  0.80250500  1
  O  O10  1  0.05760800  0.81859200  0.30713200  1
  O  O11  1  0.33000500  0.91468200  0.72686100  1
  O  O12  1  0.89751900  0.38762300  0.20266500  1
  O  O13  1  0.60248100  0.88762300  0.20266500  1
  O  O14  1  0.94239200  0.31859200  0.69286800  1
  O  O15  1  0.89175900  0.76922600  0.80250500  1
  O  O16  1  0.66999500  0.41468200  0.27313900  1
  O  O17  1  0.39751900  0.38762300  0.79733500  1
  O  O18  1  0.16999500  0.41468200  0.72686100  1
  O  O19  1  0.02885500  0.10949300  0.70821200  1
  F  F0  1  0.14294800  0.25417100  0.59034100  1
  F  F1  1  0.24217700  0.70841700  0.75390800  1
  F  F2  1  0.06202800  0.25719900  0.85558100  1
  F  F3  1  0.03833500  0.58606200  0.76237600  1
  F  F4  1  0.08986000  0.70785800  0.91166000  1
  F  F5  1  0.75782300  0.20841700  0.24609200  1
  F  F6  1  0.85705200  0.75417100  0.40965900  1
  F  F7  1  0.46166500  0.08606200  0.76237600  1
  F  F8  1  0.74217700  0.70841700  0.24609200  1
  F  F9  1  0.45714800  0.25574400  0.64553000  1
  F  F10  1  0.58986000  0.70785800  0.08834000  1
  F  F11  1  0.91014000  0.20785800  0.08834000  1
  F  F12  1  0.43797200  0.75719900  0.85558100  1
  F  F13  1  0.25782300  0.20841700  0.75390800  1
  F  F14  1  0.35705200  0.75417100  0.59034100  1
  F  F15  1  0.64294800  0.25417100  0.40965900  1
  F  F16  1  0.96166500  0.08606200  0.23762400  1
  F  F17  1  0.95714800  0.25574400  0.35447000  1
  F  F18  1  0.41014000  0.20785800  0.91166000  1
  F  F19  1  0.54285200  0.75574400  0.35447000  1
  F  F20  1  0.56202800  0.25719900  0.14441900  1
  F  F21  1  0.93797200  0.75719900  0.14441900  1
  F  F22  1  0.53833500  0.58606200  0.23762400  1
  F  F23  1  0.04285200  0.75574400  0.64553000  1
loop_
_geom_bond_atom_site_label_1
_geom_bond_atom_site_label_2
_geom_bond_distance
_geom_bond_site_symmetry_2
Mo0 O9 1.730244 1_555
Mo0 O17 1.751806 1_555
Mo1 O15 1.730244 1_455
Mo1 O4 1.751806 1_555
Mo2 O19 1.729020 1_555
Mo2 O14 1.734276 1_455
Mo2 O18 2.314321 1_555
Mo3 O6 1.729020 1_555
Mo3 O2 1.734276 1_555
Mo3 O16 2.314321 1_555
Mo4 O0 1.729020 1_555
Mo4 O10 1.734276 1_655
Mo4 O5 2.314321 1_555
Mo5 O7 1.730244 1_655
Mo5 O12 1.751806 1_555
Mo6 O8 1.729020 1_555
Mo6 O3 1.734276 1_555
Mo6 O11 2.314321 1_555
Mo7 O1 1.730244 1_555
Mo7 O13 1.751806 1_555
H2 O16 0.998129 1_555
H36 O18 0.998129 1_555
H42 O5 0.998129 1_555
H43 O11 0.998129 1_555
H51 O18 0.993732 1_555
H51 O17 1.741359 1_555
H56 O5 0.993732 1_555
H56 O13 1.741359 1_555
H80 O16 0.993732 1_555
H80 O12 1.741359 1_555
H85 O11 0.993732 1_555
H85 O4 1.741359 1_555
C0 H66 1.094887 1_555
C0 H58 1.095517 1_555
C0 H17 1.096578 1_555
C0 N6 1.502097 1_555
C1 H82 1.094310 1_555
C1 H8 1.095415 1_554
C1 H88 1.096384 1_555
C1 N7 1.504331 1_554
C2 H55 1.093616 1_555
C2 H28 1.093681 1_555
C2 H69 1.094419 1_555
C2 N6 1.498833 1_555
C3 H26 1.094310 1_555
C3 H91 1.095415 1_554
C3 H37 1.096384 1_555
C3 N0 1.504331 1_544
C4 H6 1.094028 1_555
C4 H98 1.095686 1_555
C4 H22 1.096033 1_555
C4 N2 1.502713 1_555
C5 H39 1.094902 1_555
C5 H59 1.095442 1_555
C5 H15 1.095502 1_555
C5 N3 1.498844 1_555
C6 H25 1.094791 1_555
C6 H50 1.095020 1_555
C6 H71 1.096613 1_555
C6 N6 1.499863 1_555
C7 H54 1.095189 1_555
C7 H9 1.096056 1_555
C7 H29 1.096503 1_555
C7 N1 1.504441 1_555
C8 H92 1.094310 1_555
C8 H77 1.095415 1_556
C8 H13 1.096384 1_555
C8 N3 1.504331 1_546
C9 H94 1.094028 1_555
C9 H27 1.095686 1_565
C9 H65 1.096033 1_555
C9 N4 1.502713 1_565
C10 H79 1.094887 1_555
C10 H31 1.095517 1_555
C10 H35 1.096578 1_555
C10 N4 1.502097 1_565
C11 H16 1.093744 1_555
C11 H20 1.094042 1_555
C11 H53 1.094786 1_556
C11 N3 1.499536 1_556
C12 H41 1.094791 1_555
C12 H89 1.095020 1_555
C12 H64 1.096613 1_555
C12 N5 1.499863 1_555
C13 H73 1.094887 1_555
C13 H101 1.095517 1_555
C13 H48 1.096578 1_555
C13 N5 1.502097 1_565
C14 H44 1.095189 1_555
C14 H46 1.096056 1_555
C14 H33 1.096503 1_555
C14 N7 1.504441 1_555
C15 H76 1.093616 1_555
C15 H78 1.093681 1_555
C15 H40 1.094419 1_555
C15 N2 1.498833 1_555
C16 H12 1.093616 1_555
C16 H86 1.093681 1_555
C16 H0 1.094419 1_555
C16 N5 1.498833 1_555
C17 H4 1.095189 1_555
C17 H97 1.096056 1_555
C17 H49 1.096503 1_555
C17 N3 1.504441 1_545
C18 H67 1.094310 1_555
C18 H102 1.095415 1_556
C18 H5 1.096384 1_555
C18 N1 1.504331 1_556
C19 H83 1.093744 1_555
C19 H32 1.094042 1_555
C19 H47 1.094786 1_554
C19 N0 1.499536 1_554
C20 H18 1.094902 1_555
C20 H70 1.095442 1_555
C20 H96 1.095502 1_555
C20 N0 1.498844 1_555
C21 H38 1.094028 1_555
C21 H61 1.095686 1_565
C21 H63 1.096033 1_555
C21 N5 1.502713 1_565
C22 H52 1.094028 1_555
C22 H90 1.095686 1_555
C22 H68 1.096033 1_555
C22 N6 1.502713 1_555
C23 H60 1.094791 1_555
C23 H1 1.095020 1_555
C23 H62 1.096613 1_555
C23 N4 1.499863 1_555
C24 H74 1.093616 1_555
C24 H87 1.093681 1_555
C24 H93 1.094419 1_555
C24 N4 1.498833 1_555
C25 H24 1.094902 1_555
C25 H11 1.095442 1_555
C25 H3 1.095502 1_555
C25 N1 1.498844 1_555
C26 H7 1.093744 1_555
C26 H81 1.094042 1_555
C26 H14 1.094786 1_554
C26 N7 1.499536 1_554
C27 H57 1.093744 1_555
C27 H34 1.094042 1_555
C27 H99 1.094786 1_556
C27 N1 1.499536 1_556
C28 H30 1.094791 1_555
C28 H75 1.095020 1_555
C28 H72 1.096613 1_555
C28 N2 1.499863 1_555
C29 H95 1.094902 1_555
C29 H21 1.095442 1_555
C29 H103 1.095502 1_555
C29 N7 1.498844 1_555
C30 H10 1.094887 1_555
C30 H19 1.095517 1_555
C30 H45 1.096578 1_555
C30 N2 1.502097 1_555
C31 H100 1.095189 1_555
C31 H84 1.096056 1_555
C31 H23 1.096503 1_555
C31 N0 1.504441 1_545
F0 Mo2 1.959323 1_555
F1 Mo6 2.134708 1_555
F1 Mo1 2.265204 1_555
F2 Mo2 1.944965 1_555
F3 H36 1.594183 1_555
F3 Mo1 2.058057 1_555
F4 Mo1 1.958993 1_555
F5 Mo3 2.134708 1_555
F5 Mo5 2.265204 1_555
F6 Mo4 1.959323 1_555
F7 H43 1.594183 1_545
F7 Mo0 2.058057 1_555
F8 Mo4 2.134708 1_555
F8 Mo7 2.265204 1_555
F9 Mo0 1.935827 1_555
F10 Mo7 1.958993 1_555
F11 Mo5 1.958993 1_555
F12 Mo6 1.944965 1_555
F13 Mo2 2.134708 1_555
F13 Mo0 2.265204 1_555
F14 Mo6 1.959323 1_555
F15 Mo3 1.959323 1_555
F16 H42 1.594183 1_545
F16 Mo5 2.058057 1_555
F17 Mo5 1.935827 1_555
F18 Mo0 1.958993 1_555
F19 Mo7 1.935827 1_555
F20 Mo3 1.944965 1_555
F21 Mo4 1.944965 1_555
F22 H2 1.594183 1_555
F22 Mo7 2.058057 1_555
F23 Mo1 1.935827 1_555
