# generated using pymatgen
data_TlCuHSeO5
_symmetry_space_group_name_H-M   'P 1'
_cell_length_a   6.10820700
_cell_length_b   4.66586200
_cell_length_c   9.36250439
_cell_angle_alpha   82.61861992
_cell_angle_beta   90.00000000
_cell_angle_gamma   90.00000000
_symmetry_Int_Tables_number   1
_chemical_formula_structural   TlCuHSeO5
_chemical_formula_sum   'Tl2 Cu2 H2 Se2 O10'
_cell_volume   264.62060738
_cell_formula_units_Z   2
loop_
 _symmetry_equiv_pos_site_id
 _symmetry_equiv_pos_as_xyz
  1  'x, y, z'
loop_
 _atom_site_type_symbol
 _atom_site_label
 _atom_site_symmetry_multiplicity
 _atom_site_fract_x
 _atom_site_fract_y
 _atom_site_fract_z
 _atom_site_occupancy
  Tl  Tl0  1  0.25000000  0.90788700  0.38535100  1
  Tl  Tl1  1  0.75000000  0.09211300  0.61464900  1
  Cu  Cu0  1  0.50000000  0.00000000  0.00000000  1
  Cu  Cu1  1  0.00000000  0.00000000  0.00000000  1
  H  H0  1  0.25000000  0.60370300  0.11085700  1
  H  H1  1  0.75000000  0.39629700  0.88914300  1
  Se  Se0  1  0.25000000  0.51276100  0.76726500  1
  Se  Se1  1  0.75000000  0.48723900  0.23273500  1
  O  O0  1  0.25000000  0.81603000  0.10101900  1
  O  O1  1  0.75000000  0.18397000  0.89898100  1
  O  O2  1  0.47919400  0.70219900  0.78156900  1
  O  O3  1  0.97919400  0.29780100  0.21843100  1
  O  O4  1  0.52080600  0.29780100  0.21843100  1
  O  O5  1  0.02080600  0.70219900  0.78156900  1
  O  O6  1  0.25000000  0.34891900  0.61951100  1
  O  O7  1  0.75000000  0.65108100  0.38048900  1
  O  O8  1  0.25000000  0.25041900  0.92224100  1
  O  O9  1  0.75000000  0.74958100  0.07775900  1
loop_
_geom_bond_atom_site_label_1
_geom_bond_atom_site_label_2
_geom_bond_distance
_geom_bond_site_symmetry_2
Cu0 O0 1.937684 1_545
Cu0 O1 1.937684 1_554
Cu0 O8 2.002133 1_554
Cu0 O9 2.002133 1_545
Cu0 O4 2.619022 1_555
Cu0 O2 2.619022 1_544
Cu1 O0 1.937684 1_545
Cu1 O1 1.937684 1_454
Cu1 O8 2.002133 1_554
Cu1 O9 2.002133 1_445
Cu1 O3 2.619022 1_455
Cu1 O5 2.619022 1_544
H0 O0 0.983108 1_555
H1 O1 0.983108 1_555
O0 Tl0 2.750166 1_555
O1 Tl1 2.750166 1_555
O2 Se0 1.670184 1_555
O2 Tl1 2.785273 1_565
O3 Se1 1.670184 1_555
O3 Tl0 2.785273 1_645
O4 Se1 1.670184 1_555
O4 Tl0 2.785273 1_545
O5 Se0 1.670184 1_555
O5 Tl1 2.785273 1_465
O6 Se0 1.664266 1_555
O7 Se1 1.664266 1_555
O8 Se0 1.774048 1_555
O9 Se1 1.774048 1_555
