# generated using pymatgen
data_LiV(PO4)2
_symmetry_space_group_name_H-M   'P 1'
_cell_length_a   7.24060800
_cell_length_b   8.42845666
_cell_length_c   8.44226781
_cell_angle_alpha   119.87046186
_cell_angle_beta   90.25393484
_cell_angle_gamma   90.39040624
_symmetry_Int_Tables_number   1
_chemical_formula_structural   LiV(PO4)2
_chemical_formula_sum   'Li3 V3 P6 O24'
_cell_volume   446.73552950
_cell_formula_units_Z   3
loop_
 _symmetry_equiv_pos_site_id
 _symmetry_equiv_pos_as_xyz
  1  'x, y, z'
loop_
 _atom_site_type_symbol
 _atom_site_label
 _atom_site_symmetry_multiplicity
 _atom_site_fract_x
 _atom_site_fract_y
 _atom_site_fract_z
 _atom_site_occupancy
  Li  Li0  1  0.49696500  0.32799000  0.66104700  1
  Li  Li1  1  0.50736900  0.00107900  0.99544500  1
  Li  Li2  1  0.50288900  0.67220800  0.33887400  1
  V  V0  1  0.07296800  0.33340100  0.66652300  1
  V  V1  1  0.00032900  0.99984700  0.00026700  1
  V  V2  1  0.92664500  0.66653200  0.33361400  1
  P  P0  1  0.77086500  0.03508800  0.35294800  1
  P  P1  1  0.22884600  0.35775900  0.32081300  1
  P  P2  1  0.22999900  0.68344000  0.03904700  1
  P  P3  1  0.76995200  0.31634200  0.96130800  1
  P  P4  1  0.22880300  0.96492700  0.64741800  1
  P  P5  1  0.77075200  0.64226500  0.67935900  1
  O  O0  1  0.23917100  0.13686600  0.62392400  1
  O  O1  1  0.59518600  0.14019400  0.39623900  1
  O  O2  1  0.07035100  0.69172500  0.16830900  1
  O  O3  1  0.15982400  0.15593200  0.19320100  1
  O  O4  1  0.06509700  0.47686500  0.31611800  1
  O  O5  1  0.83841400  0.84437200  0.80736000  1
  O  O6  1  0.59045600  0.25620800  0.85945100  1
  O  O7  1  0.83799200  0.96007600  0.15178900  1
  O  O8  1  0.40922200  0.74347800  0.14084300  1
  O  O9  1  0.93491100  0.16157200  0.47290000  1
  O  O10  1  0.40480400  0.86051500  0.60536700  1
  O  O11  1  0.40420500  0.40517500  0.26058700  1
  O  O12  1  0.16105900  0.04001300  0.84853100  1
  O  O13  1  0.76585400  0.51174400  0.13224600  1
  O  O14  1  0.93453800  0.52311900  0.68418100  1
  O  O15  1  0.59519200  0.59434500  0.73905200  1
  O  O16  1  0.16081400  0.80967800  0.96376200  1
  O  O17  1  0.24024900  0.37834600  0.51472100  1
  O  O18  1  0.23403500  0.48815300  0.86784400  1
  O  O19  1  0.75955100  0.62159500  0.48542300  1
  O  O20  1  0.76063200  0.86316000  0.37644600  1
  O  O21  1  0.06515200  0.83829400  0.52738200  1
  O  O22  1  0.83757000  0.18972100  0.03648400  1
  O  O23  1  0.92960300  0.30816500  0.83208400  1
loop_
_geom_bond_atom_site_label_1
_geom_bond_atom_site_label_2
_geom_bond_distance
_geom_bond_site_symmetry_2
Li0 O15 2.116802 1_555
Li0 O1 2.124547 1_555
Li0 O6 2.152853 1_555
Li0 O0 2.372395 1_555
Li0 O17 2.381988 1_555
Li0 O18 2.492301 1_555
Li2 O11 2.122528 1_555
Li2 O10 2.134894 1_555
Li2 O8 2.147474 1_555
Li2 O20 2.370435 1_555
Li2 O19 2.383779 1_555
Li2 O13 2.492382 1_555
O0 P4 1.558864 1_545
O0 V0 1.938838 1_555
O1 P0 1.494449 1_555
O2 P2 1.571092 1_555
O2 V2 1.838573 1_455
O3 P1 1.569171 1_555
O3 V1 1.882970 1_545
O4 P1 1.571792 1_555
O4 V2 1.835825 1_455
O5 P5 1.568395 1_555
O5 V1 1.892159 1_656
O6 P3 1.494131 1_555
O7 P0 1.569074 1_565
O7 V1 1.888219 1_655
O8 P2 1.492177 1_555
O9 P0 1.571491 1_555
O9 V0 1.837490 1_655
O10 P4 1.494177 1_555
O11 P1 1.493851 1_555
O12 P4 1.570072 1_545
O12 V1 1.884081 1_546
O13 P3 1.558682 1_554
O13 V2 1.923553 1_555
O14 P5 1.572582 1_555
O14 V0 1.835616 1_655
O15 P5 1.494778 1_555
O16 P2 1.570037 1_556
O16 V1 1.884366 1_556
O17 P1 1.559628 1_555
O17 V0 1.934943 1_555
O18 P2 1.558988 1_556
O18 V0 1.924460 1_555
O19 P5 1.559506 1_555
O19 V2 1.934103 1_555
O20 P0 1.558751 1_565
O20 V2 1.938110 1_555
O21 P4 1.570010 1_555
O21 V2 1.839647 1_455
O22 P3 1.568591 1_554
O22 V1 1.893381 1_645
O23 P3 1.571161 1_555
O23 V0 1.839120 1_655
