# generated using pymatgen
data_K2Fe2As2O9
_symmetry_space_group_name_H-M   'P 1'
_cell_length_a   5.84330600
_cell_length_b   8.67223700
_cell_length_c   18.26067100
_cell_angle_alpha   90.00000000
_cell_angle_beta   90.00000000
_cell_angle_gamma   90.00000000
_symmetry_Int_Tables_number   1
_chemical_formula_structural   K2Fe2As2O9
_chemical_formula_sum   'K8 Fe8 As8 O36'
_cell_volume   925.35100250
_cell_formula_units_Z   4
loop_
 _symmetry_equiv_pos_site_id
 _symmetry_equiv_pos_as_xyz
  1  'x, y, z'
loop_
 _atom_site_type_symbol
 _atom_site_label
 _atom_site_symmetry_multiplicity
 _atom_site_fract_x
 _atom_site_fract_y
 _atom_site_fract_z
 _atom_site_occupancy
  K  K0  1  0.75000000  0.45576200  0.76548800  1
  K  K1  1  0.25000000  0.59958800  0.63300700  1
  K  K2  1  0.75000000  0.95576200  0.73451200  1
  K  K3  1  0.75000000  0.40041200  0.36699300  1
  K  K4  1  0.25000000  0.04423800  0.26548800  1
  K  K5  1  0.25000000  0.54423800  0.23451200  1
  K  K6  1  0.25000000  0.09958800  0.86699300  1
  K  K7  1  0.75000000  0.90041200  0.13300700  1
  Fe  Fe0  1  0.25000000  0.21500800  0.06594300  1
  Fe  Fe1  1  0.75000000  0.28499200  0.56594300  1
  Fe  Fe2  1  0.25000000  0.71500800  0.43405700  1
  Fe  Fe3  1  0.50000000  0.00000000  0.50000000  1
  Fe  Fe4  1  0.75000000  0.78499200  0.93405700  1
  Fe  Fe5  1  0.00000000  0.50000000  0.00000000  1
  Fe  Fe6  1  0.50000000  0.50000000  0.00000000  1
  Fe  Fe7  1  0.00000000  0.00000000  0.50000000  1
  As  As0  1  0.25000000  0.32341500  0.44152900  1
  As  As1  1  0.25000000  0.18219200  0.64773900  1
  As  As2  1  0.75000000  0.31780800  0.14773900  1
  As  As3  1  0.75000000  0.67658500  0.55847100  1
  As  As4  1  0.75000000  0.81780800  0.35226100  1
  As  As5  1  0.25000000  0.68219200  0.85226100  1
  As  As6  1  0.75000000  0.17658500  0.94152900  1
  As  As7  1  0.25000000  0.82341500  0.05847100  1
  O  O0  1  0.75000000  0.95793200  0.42270700  1
  O  O1  1  0.49012400  0.80086300  0.86171700  1
  O  O2  1  0.00453000  0.23239800  0.47601600  1
  O  O3  1  0.49547000  0.23239800  0.47601600  1
  O  O4  1  0.75000000  0.91442900  0.27287300  1
  O  O5  1  0.25000000  0.50802900  0.47513800  1
  O  O6  1  0.50453000  0.26760200  0.97601600  1
  O  O7  1  0.25000000  0.94182400  0.43398800  1
  O  O8  1  0.25000000  0.44182400  0.06601200  1
  O  O9  1  0.25000000  0.04206800  0.57729300  1
  O  O10  1  0.25000000  0.31796900  0.34924700  1
  O  O11  1  0.99012400  0.19913700  0.13828300  1
  O  O12  1  0.25000000  0.58557100  0.77287300  1
  O  O13  1  0.49547000  0.73239800  0.02398400  1
  O  O14  1  0.25000000  0.54206800  0.92270700  1
  O  O15  1  0.00987600  0.80086300  0.86171700  1
  O  O16  1  0.75000000  0.45793200  0.07729300  1
  O  O17  1  0.75000000  0.55817600  0.93398800  1
  O  O18  1  0.50987600  0.19913700  0.13828300  1
  O  O19  1  0.50453000  0.76760200  0.52398400  1
  O  O20  1  0.75000000  0.18203100  0.84924700  1
  O  O21  1  0.75000000  0.99197100  0.97513800  1
  O  O22  1  0.00987600  0.30086300  0.63828300  1
  O  O23  1  0.25000000  0.08557100  0.72712700  1
  O  O24  1  0.99547000  0.26760200  0.97601600  1
  O  O25  1  0.75000000  0.41442900  0.22712700  1
  O  O26  1  0.00453000  0.73239800  0.02398400  1
  O  O27  1  0.99547000  0.76760200  0.52398400  1
  O  O28  1  0.25000000  0.00802900  0.02486200  1
  O  O29  1  0.99012400  0.69913700  0.36171700  1
  O  O30  1  0.25000000  0.81796900  0.15075300  1
  O  O31  1  0.75000000  0.05817600  0.56601200  1
  O  O32  1  0.49012400  0.30086300  0.63828300  1
  O  O33  1  0.75000000  0.49197100  0.52486200  1
  O  O34  1  0.75000000  0.68203100  0.65075300  1
  O  O35  1  0.50987600  0.69913700  0.36171700  1
loop_
_geom_bond_atom_site_label_1
_geom_bond_atom_site_label_2
_geom_bond_distance
_geom_bond_site_symmetry_2
K0 O20 2.823928 1_555
K0 O34 2.870551 1_555
K0 O22 3.083194 1_655
K0 O32 3.083194 1_555
K0 O12 3.133930 1_555
K0 O12 3.133930 1_655
K0 O17 3.202543 1_555
K1 O12 2.556938 1_555
K1 O27 2.880709 1_455
K1 O19 2.880709 1_555
K1 O22 2.947762 1_555
K1 O32 2.947762 1_555
K1 O5 2.990146 1_555
K1 O34 3.025267 1_455
K1 O34 3.025267 1_555
K2 O34 2.823928 1_555
K2 O20 2.870551 1_565
K2 O1 3.083194 1_555
K2 O15 3.083194 1_655
K2 O23 3.133930 1_565
K2 O23 3.133930 1_665
K2 O31 3.202543 1_565
K3 O25 2.556938 1_555
K3 O3 2.880709 1_555
K3 O2 2.880709 1_655
K3 O29 2.947762 1_555
K3 O35 2.947762 1_555
K3 O33 2.990146 1_555
K3 O10 3.025267 1_555
K3 O10 3.025267 1_655
K4 O10 2.823928 1_555
K4 O30 2.870551 1_545
K4 O18 3.083194 1_555
K4 O11 3.083194 1_455
K4 O4 3.133930 1_545
K4 O4 3.133930 1_445
K4 O7 3.202543 1_545
K5 O30 2.823928 1_555
K5 O10 2.870551 1_555
K5 O35 3.083194 1_555
K5 O29 3.083194 1_455
K5 O25 3.133930 1_455
K5 O25 3.133930 1_555
K5 O8 3.202543 1_555
K6 O23 2.556938 1_555
K6 O24 2.880709 1_455
K6 O6 2.880709 1_555
K6 O1 2.947762 1_545
K6 O15 2.947762 1_545
K6 O28 2.990146 1_556
K6 O20 3.025267 1_455
K6 O20 3.025267 1_555
K7 O4 2.556938 1_555
K7 O26 2.880709 1_655
K7 O13 2.880709 1_555
K7 O11 2.947762 1_565
K7 O18 2.947762 1_565
K7 O21 2.990146 1_554
K7 O30 3.025267 1_655
K7 O30 3.025267 1_555
Fe0 O28 1.945423 1_555
Fe0 O8 1.967003 1_555
Fe0 O11 2.017393 1_455
Fe0 O18 2.017393 1_555
Fe0 O24 2.262005 1_454
Fe0 O6 2.262005 1_554
Fe1 O33 1.945423 1_555
Fe1 O31 1.967003 1_555
Fe1 O22 2.017393 1_655
Fe1 O32 2.017393 1_555
Fe1 O2 2.262005 1_655
Fe1 O3 2.262005 1_555
Fe2 O5 1.945423 1_555
Fe2 O7 1.967003 1_555
Fe2 O29 2.017393 1_455
Fe2 O35 2.017393 1_555
Fe2 O27 2.262005 1_455
Fe2 O19 2.262005 1_555
Fe3 O31 1.959999 1_555
Fe3 O7 1.959999 1_545
Fe3 O19 2.062618 1_545
Fe3 O3 2.062618 1_555
Fe3 O9 2.063788 1_555
Fe3 O0 2.063788 1_545
Fe4 O21 1.945423 1_555
Fe4 O17 1.967003 1_555
Fe4 O1 2.017393 1_555
Fe4 O15 2.017393 1_655
Fe4 O26 2.262005 1_656
Fe4 O13 2.262005 1_556
Fe5 O8 1.959999 1_555
Fe5 O17 1.959999 1_454
Fe5 O24 2.062618 1_454
Fe5 O26 2.062618 1_555
Fe5 O16 2.063788 1_455
Fe5 O14 2.063788 1_554
Fe6 O8 1.959999 1_555
Fe6 O17 1.959999 1_554
Fe6 O6 2.062618 1_554
Fe6 O13 2.062618 1_555
Fe6 O16 2.063788 1_555
Fe6 O14 2.063788 1_554
Fe7 O31 1.959999 1_455
Fe7 O7 1.959999 1_545
Fe7 O2 2.062618 1_555
Fe7 O27 2.062618 1_445
Fe7 O9 2.063788 1_555
Fe7 O0 2.063788 1_445
As0 O10 1.685793 1_555
As0 O5 1.714616 1_555
As0 O3 1.754137 1_555
As0 O2 1.754137 1_555
As1 O23 1.674418 1_555
As1 O32 1.748626 1_555
As1 O22 1.748626 1_555
As1 O9 1.769600 1_555
As2 O25 1.674418 1_555
As2 O18 1.748626 1_555
As2 O11 1.748626 1_555
As2 O16 1.769600 1_555
As3 O34 1.685793 1_555
As3 O33 1.714616 1_555
As3 O19 1.754137 1_555
As3 O27 1.754137 1_555
As4 O4 1.674418 1_555
As4 O29 1.748626 1_555
As4 O35 1.748626 1_555
As4 O0 1.769600 1_555
As5 O12 1.674418 1_555
As5 O1 1.748626 1_555
As5 O15 1.748626 1_555
As5 O14 1.769600 1_555
As6 O20 1.685793 1_555
As6 O21 1.714616 1_545
As6 O6 1.754137 1_555
As6 O24 1.754137 1_555
As7 O30 1.685793 1_555
As7 O28 1.714616 1_565
As7 O13 1.754137 1_555
As7 O26 1.754137 1_555
