# generated using pymatgen
data_V6H4O13
_symmetry_space_group_name_H-M   'P 1'
_cell_length_a   6.57448654
_cell_length_b   6.57448654
_cell_length_c   10.11767278
_cell_angle_alpha   79.43011584
_cell_angle_beta   79.43011584
_cell_angle_gamma   36.18910784
_symmetry_Int_Tables_number   1
_chemical_formula_structural   V6H4O13
_chemical_formula_sum   'V6 H4 O13'
_cell_volume   253.36578411
_cell_formula_units_Z   1
loop_
 _symmetry_equiv_pos_site_id
 _symmetry_equiv_pos_as_xyz
  1  'x, y, z'
loop_
 _atom_site_type_symbol
 _atom_site_label
 _atom_site_symmetry_multiplicity
 _atom_site_fract_x
 _atom_site_fract_y
 _atom_site_fract_z
 _atom_site_occupancy
  V  V0  1  0.35669800  0.35669800  0.99813500  1
  V  V1  1  0.64330200  0.64330200  0.00186500  1
  V  V2  1  0.40534300  0.40534300  0.62688300  1
  V  V3  1  0.59465700  0.59465700  0.37311700  1
  V  V4  1  0.71106300  0.71106300  0.62560900  1
  V  V5  1  0.28893700  0.28893700  0.37439100  1
  H  H0  1  0.19414600  0.19414600  0.87853200  1
  H  H1  1  0.80585400  0.80585400  0.12146800  1
  H  H2  1  0.90559900  0.90559900  0.49964300  1
  H  H3  1  0.09440100  0.09440100  0.50035800  1
  O  O0  1  0.18316300  0.18316300  0.97726300  1
  O  O1  1  0.81683700  0.81683700  0.02273700  1
  O  O2  1  0.88562000  0.88562000  0.59871600  1
  O  O3  1  0.11438000  0.11438000  0.40128400  1
  O  O4  1  0.24551100  0.24551100  0.59173000  1
  O  O5  1  0.75448900  0.75448900  0.40827000  1
  O  O6  1  0.50000000  0.50000000  0.00000000  1
  O  O7  1  0.38103300  0.38103300  0.79883500  1
  O  O8  1  0.61896700  0.61896700  0.20116500  1
  O  O9  1  0.68529400  0.68529400  0.79698700  1
  O  O10  1  0.31470600  0.31470600  0.20301300  1
  O  O11  1  0.56767100  0.56767100  0.57839300  1
  O  O12  1  0.43232900  0.43232900  0.42160700  1
loop_
_geom_bond_atom_site_label_1
_geom_bond_atom_site_label_2
_geom_bond_distance
_geom_bond_site_symmetry_2
H0 O0 0.981721 1_555
H1 O1 0.981721 1_555
H2 O2 0.985155 1_555
H3 O3 0.985165 1_555
O0 V1 2.105195 1_546
O0 V1 2.105195 1_456
O0 V0 2.219407 1_555
O1 V0 2.105195 1_564
O1 V0 2.105195 1_654
O1 V1 2.219407 1_555
O2 V2 2.082939 1_565
O2 V2 2.082939 1_655
O2 V4 2.145899 1_555
O3 V3 2.082939 1_545
O3 V3 2.082939 1_455
O3 V5 2.145899 1_555
O4 V2 2.095590 1_555
O4 V4 2.101297 1_455
O4 V4 2.101297 1_545
O4 V5 2.160878 1_555
O5 V3 2.095590 1_555
O5 V5 2.101297 1_565
O5 V5 2.101297 1_655
O5 V4 2.160878 1_555
O6 V1 1.794825 1_555
O6 V0 1.794825 1_554
O7 V2 1.707350 1_555
O7 V0 1.980373 1_555
O8 V3 1.707350 1_555
O8 V1 1.980373 1_555
O9 V4 1.701400 1_555
O9 V1 2.037751 1_556
O10 V5 1.701400 1_555
O10 V0 2.037751 1_554
O11 V4 1.941825 1_555
O11 V2 1.993215 1_555
O11 V3 2.038865 1_555
O12 V5 1.941825 1_555
O12 V3 1.993215 1_555
O12 V2 2.038865 1_555
