# generated using pymatgen
data_CsTiNb(O2F)2
_symmetry_space_group_name_H-M   'P 1'
_cell_length_a   7.38996731
_cell_length_b   7.38996731
_cell_length_c   7.46333702
_cell_angle_alpha   61.05294226
_cell_angle_beta   61.05294226
_cell_angle_gamma   90.50626186
_symmetry_Int_Tables_number   1
_chemical_formula_structural   CsTiNb(O2F)2
_chemical_formula_sum   'Cs2 Ti2 Nb2 O8 F4'
_cell_volume   295.96047255
_cell_formula_units_Z   2
loop_
 _symmetry_equiv_pos_site_id
 _symmetry_equiv_pos_as_xyz
  1  'x, y, z'
loop_
 _atom_site_type_symbol
 _atom_site_label
 _atom_site_symmetry_multiplicity
 _atom_site_fract_x
 _atom_site_fract_y
 _atom_site_fract_z
 _atom_site_occupancy
  Cs  Cs0  1  0.87113600  0.12886400  0.50000000  1
  Cs  Cs1  1  0.12791900  0.87208100  0.00000000  1
  Ti  Ti0  1  0.00891700  0.49482900  0.73837400  1
  Ti  Ti1  1  0.50517100  0.99108300  0.26162600  1
  Nb  Nb0  1  0.50463000  0.52076500  0.73414000  1
  Nb  Nb1  1  0.47923500  0.49537000  0.26586000  1
  O  O0  1  0.17595800  0.43109000  0.50850400  1
  O  O1  1  0.18959100  0.44516500  0.85844600  1
  O  O2  1  0.55483500  0.81040900  0.14155400  1
  O  O3  1  0.43697300  0.56302700  0.00000000  1
  O  O4  1  0.56561600  0.43438400  0.50000000  1
  O  O5  1  0.56891000  0.82404200  0.49149600  1
  O  O6  1  0.45006400  0.19382900  0.34853100  1
  O  O7  1  0.80617100  0.54993600  0.65146900  1
  F  F0  1  0.18341600  0.81658400  0.50000000  1
  F  F1  1  0.42845600  0.17377300  0.00579100  1
  F  F2  1  0.82622700  0.57154400  0.99420900  1
  F  F3  1  0.81677600  0.18322400  0.00000000  1
loop_
_geom_bond_atom_site_label_1
_geom_bond_atom_site_label_2
_geom_bond_distance
_geom_bond_site_symmetry_2
Cs0 O5 3.202078 1_545
Cs0 O0 3.202078 1_655
Cs0 O4 3.207062 1_555
Cs0 F0 3.278023 1_645
Cs0 O1 3.476987 1_654
Cs0 O2 3.476987 1_546
Cs1 F2 3.162888 1_454
Cs1 F1 3.162888 1_565
Cs1 O3 3.244159 1_555
Cs1 F3 3.266087 1_465
Cs1 O7 3.530696 1_455
Cs1 O6 3.530696 1_564
Nb0 O5 1.935924 1_555
Nb0 O7 1.981078 1_555
Nb0 O3 1.981637 1_556
Nb0 O1 1.994370 1_555
Nb0 O4 1.996693 1_555
Nb1 O0 1.935924 1_555
Nb1 O6 1.981078 1_555
Nb1 O3 1.981637 1_555
Nb1 O2 1.994370 1_555
Nb1 O4 1.996693 1_555
O0 Ti0 1.852418 1_555
O1 Ti0 1.889169 1_555
O2 Ti1 1.889169 1_555
O5 Ti1 1.852418 1_555
O6 Ti1 1.878080 1_545
O7 Ti0 1.878080 1_655
F0 Ti1 2.027792 1_555
F0 Ti0 2.027792 1_555
F1 Ti1 2.087074 1_545
F1 Nb0 2.199998 1_554
F2 Ti0 2.087074 1_655
F2 Nb1 2.199998 1_556
F3 Ti1 2.009327 1_545
F3 Ti0 2.009327 1_654
