# generated using pymatgen
data_Tb4In20Ni11
_symmetry_space_group_name_H-M   'P 1'
_cell_length_a   4.32190054
_cell_length_b   11.47368808
_cell_length_c   13.96327103
_cell_angle_alpha   80.75108598
_cell_angle_beta   81.08270291
_cell_angle_gamma   79.11507483
_symmetry_Int_Tables_number   1
_chemical_formula_structural   Tb4In20Ni11
_chemical_formula_sum   'Tb4 In20 Ni11'
_cell_volume   665.54142847
_cell_formula_units_Z   1
loop_
 _symmetry_equiv_pos_site_id
 _symmetry_equiv_pos_as_xyz
  1  'x, y, z'
loop_
 _atom_site_type_symbol
 _atom_site_label
 _atom_site_symmetry_multiplicity
 _atom_site_fract_x
 _atom_site_fract_y
 _atom_site_fract_z
 _atom_site_occupancy
  Tb  Tb0  1  0.11765700  0.09252700  0.66728100  1
  Tb  Tb1  1  0.76710900  0.63264500  0.82512000  1
  Tb  Tb2  1  0.87417500  0.90716400  0.33107300  1
  Tb  Tb3  1  0.22749500  0.36917500  0.17431000  1
  In  In0  1  0.11761900  0.31845400  0.44997400  1
  In  In1  1  0.75070300  0.20231500  0.29027200  1
  In  In2  1  0.61320200  0.46639900  0.31006700  1
  In  In3  1  0.93467800  0.33649800  0.79079700  1
  In  In4  1  0.06091400  0.66337900  0.21123800  1
  In  In5  1  0.99010600  0.92463400  0.09488400  1
  In  In6  1  0.60219600  0.78990800  0.00812700  1
  In  In7  1  0.53905900  0.29576200  0.62299300  1
  In  In8  1  0.01337700  0.07536400  0.90369300  1
  In  In9  1  0.45504400  0.70341200  0.37723300  1
  In  In10  1  0.88687400  0.67834200  0.55161800  1
  In  In11  1  0.24328900  0.79690200  0.70856600  1
  In  In12  1  0.19971200  0.60084300  0.99687300  1
  In  In13  1  0.69984300  0.09613900  0.49781700  1
  In  In14  1  0.62783600  0.94106100  0.80332600  1
  In  In15  1  0.39919700  0.21223600  0.99147200  1
  In  In16  1  0.36900400  0.05945700  0.19535000  1
  In  In17  1  0.38470700  0.53130500  0.69203000  1
  In  In18  1  0.79648500  0.40164800  0.00361200  1
  In  In19  1  0.29292000  0.90265800  0.50107300  1
  Ni  Ni0  1  0.13786200  0.83165100  0.89674300  1
  Ni  Ni1  1  0.97492600  0.44394500  0.60105200  1
  Ni  Ni2  1  0.25120900  0.10861600  0.38271000  1
  Ni  Ni3  1  0.34378400  0.42772800  0.88018700  1
  Ni  Ni4  1  0.50940800  0.18231500  0.80539400  1
  Ni  Ni5  1  0.74105800  0.89059000  0.61665000  1
  Ni  Ni6  1  0.49233000  0.81813700  0.19517700  1
  Ni  Ni7  1  0.65137200  0.57536100  0.12145200  1
  Ni  Ni8  1  0.86325000  0.16874000  0.10325000  1
  Ni  Ni9  1  0.49763400  0.50188500  0.50129900  1
  Ni  Ni10  1  0.02242700  0.55242200  0.40050900  1
loop_
_geom_bond_atom_site_label_1
_geom_bond_atom_site_label_2
_geom_bond_distance
_geom_bond_site_symmetry_2
In0 Ni10 2.632052 1_555
In0 Ni2 2.654409 1_555
In0 Ni1 2.672328 1_455
In0 Ni9 3.129814 1_555
In0 Ni9 3.143650 1_455
In0 In7 3.194510 1_555
In0 In2 3.208639 1_555
In0 In2 3.210473 1_455
In0 In7 3.213673 1_455
In0 In13 3.291478 1_555
In0 In13 3.321234 1_455
In0 In1 3.452740 1_555
In0 In1 3.480320 1_455
In0 Tb0 3.660365 1_555
In0 Tb3 3.768015 1_555
In1 Ni2 2.653711 1_655
In1 Ni2 2.654934 1_555
In1 Ni8 2.657710 1_555
In1 In13 2.949516 1_555
In1 In2 3.024697 1_555
In1 In16 3.087124 1_655
In1 In16 3.092287 1_555
In1 Tb3 3.147066 1_555
In1 Tb3 3.161090 1_655
In1 Tb2 3.296830 1_545
In2 Ni9 2.721130 1_555
In2 Ni7 2.722367 1_555
In2 Ni10 2.729367 1_655
In2 Ni10 2.745444 1_555
In2 In9 2.942969 1_555
In2 Tb3 3.144404 1_655
In2 Tb3 3.158837 1_555
In2 In4 3.252338 1_655
In2 In4 3.269704 1_555
In3 Ni1 2.730916 1_555
In3 Ni4 2.746848 1_555
In3 Ni3 2.753725 1_655
In3 Ni3 2.756380 1_555
In3 Ni4 2.778928 1_655
In3 In8 3.137012 1_655
In3 In7 3.244227 1_655
In3 In7 3.244675 1_555
In3 Tb0 3.424723 1_655
In3 Tb1 3.433129 1_555
In4 Ni7 2.737624 1_455
In4 Ni10 2.737735 1_555
In4 Ni7 2.746939 1_555
In4 Ni6 2.763466 1_455
In4 Ni6 2.769920 1_555
In4 In5 3.156075 1_455
In4 In9 3.216613 1_555
In4 In9 3.232078 1_455
In4 Tb2 3.392395 1_455
In4 Tb3 3.421328 1_555
In5 Ni6 2.748855 1_655
In5 Ni6 2.755221 1_555
In5 Ni8 2.768405 1_565
In5 In8 2.937076 1_664
In5 In6 2.979605 1_555
In5 In6 2.986497 1_655
In5 Ni0 3.056855 1_654
In5 Tb2 3.237435 1_555
In6 Ni6 2.642232 1_555
In6 Ni0 2.653438 1_554
In6 Ni0 2.659141 1_654
In6 Ni7 2.695062 1_555
In6 Tb1 3.274991 1_554
In7 Ni4 2.663391 1_555
In7 Ni9 2.674934 1_555
In7 Ni1 2.719636 1_555
In7 Ni1 2.725358 1_455
In7 Tb0 3.144327 1_655
In7 Tb0 3.150904 1_555
In8 Ni4 2.740418 1_455
In8 Ni4 2.743274 1_555
In8 Ni0 2.760607 1_545
In8 Ni8 3.077306 1_456
In8 Tb0 3.240739 1_555
In9 Ni9 2.651794 1_555
In9 Ni6 2.664283 1_555
In9 Ni10 2.730700 1_555
In9 Ni10 2.753488 1_655
In9 Tb2 3.148817 1_555
In9 Tb2 3.159719 1_455
In10 Ni1 2.636724 1_555
In10 Ni5 2.665720 1_555
In10 Ni10 2.675741 1_655
In10 Ni9 3.069911 1_655
In10 Ni9 3.087515 1_555
In10 In17 3.192666 1_655
In10 In9 3.198386 1_655
In10 In17 3.225035 1_555
In10 In9 3.236670 1_555
In10 In19 3.307535 1_655
In10 In19 3.345789 1_555
In10 In11 3.438343 1_655
In10 In11 3.468352 1_555
In10 Tb2 3.711934 1_555
In10 Tb1 3.738111 1_555
In11 Ni5 2.646657 1_555
In11 Ni5 2.655783 1_455
In11 Ni0 2.677248 1_555
In11 In19 2.947570 1_555
In11 In17 3.031893 1_555
In11 In14 3.084246 1_455
In11 In14 3.110017 1_555
In11 Tb1 3.141760 1_555
In11 Tb1 3.142680 1_455
In11 Tb0 3.302290 1_565
In12 Ni3 2.691899 1_555
In12 Ni7 2.747344 1_456
In12 Ni7 2.756000 1_556
In12 Ni0 2.774463 1_555
In12 In6 3.044226 1_456
In12 In6 3.061982 1_556
In12 In18 3.107039 1_456
In12 In18 3.108766 1_556
In12 In4 3.131343 1_556
In12 Tb1 3.183008 1_555
In12 Tb1 3.198665 1_455
In12 Tb3 3.327624 1_556
In13 Ni5 2.649929 1_545
In13 Ni2 2.673902 1_655
In13 Ni2 2.674078 1_555
In13 In7 3.015480 1_555
In13 In19 3.058585 1_645
In13 In19 3.072529 1_545
In13 Tb0 3.177109 1_555
In13 Tb0 3.182229 1_655
In13 Tb2 3.339434 1_545
In14 Ni5 2.711449 1_555
In14 Ni0 2.717156 1_555
In14 Ni4 2.722327 1_565
In14 Ni0 2.730597 1_655
In14 In8 3.063632 1_565
In14 In8 3.082681 1_665
In14 In6 3.094829 1_556
In14 Tb0 3.192470 1_665
In14 Tb0 3.206353 1_565
In14 Tb1 3.447213 1_555
In15 Ni4 2.633814 1_555
In15 Ni8 2.655100 1_556
In15 Ni8 2.667547 1_456
In15 Ni3 2.691078 1_555
In15 In8 2.998392 1_555
In15 In8 3.008362 1_655
In15 In18 3.052534 1_556
In15 In18 3.062773 1_456
In15 In16 3.092123 1_556
In15 Tb3 3.270584 1_556
In16 Ni8 2.705895 1_455
In16 Ni2 2.715617 1_555
In16 Ni6 2.719357 1_545
In16 Ni8 2.725893 1_555
In16 In5 3.067401 1_445
In16 In5 3.086818 1_545
In16 Tb2 3.192030 1_545
In16 Tb2 3.210735 1_445
In16 Tb3 3.462336 1_555
In17 Ni9 2.696057 1_555
In17 Ni3 2.697760 1_555
In17 Ni1 2.744498 1_455
In17 Ni1 2.750355 1_555
In17 In7 2.938575 1_555
In17 Tb1 3.147931 1_555
In17 Tb1 3.148774 1_455
In17 In3 3.240408 1_455
In17 In3 3.250613 1_555
In18 Ni7 2.708418 1_555
In18 Ni3 2.737233 1_654
In18 Ni3 2.747031 1_554
In18 Ni8 2.792540 1_555
In18 In3 3.121066 1_554
In18 Tb3 3.179722 1_555
In18 Tb3 3.180996 1_655
In18 Tb1 3.331672 1_554
In19 Ni2 2.650340 1_565
In19 Ni5 2.677827 1_555
In19 Ni5 2.678039 1_455
In19 In9 2.999575 1_555
In19 Tb2 3.179479 1_555
In19 Tb2 3.188998 1_455
In19 Tb0 3.341070 1_565
Ni0 Tb1 3.339962 1_555
Ni0 Tb1 3.375498 1_455
Ni1 Ni9 2.590834 1_555
Ni1 Ni9 2.603763 1_655
Ni1 Ni10 2.868890 1_655
Ni2 Tb2 3.270317 1_545
Ni2 Tb2 3.292438 1_445
Ni3 Ni4 3.079617 1_555
Ni3 Tb1 3.173929 1_555
Ni3 Tb1 3.182883 1_455
Ni4 Tb0 3.120121 1_655
Ni4 Tb0 3.155428 1_555
Ni5 Tb0 3.271947 1_565
Ni5 Tb0 3.290110 1_665
Ni6 Ni7 3.044783 1_555
Ni6 Tb2 3.098083 1_555
Ni6 Tb2 3.130869 1_455
Ni7 Tb3 3.181974 1_655
Ni7 Tb3 3.186496 1_555
Ni8 Tb3 3.365230 1_555
Ni8 Tb3 3.366974 1_655
Ni10 Ni9 2.589588 1_455
Ni10 Ni9 2.592096 1_555
