# generated using pymatgen
data_Dy3Ge4
_symmetry_space_group_name_H-M   'P 1'
_cell_length_a   4.05667737
_cell_length_b   5.68883826
_cell_length_c   14.19909488
_cell_angle_alpha   89.99847544
_cell_angle_beta   90.00026302
_cell_angle_gamma   110.88673199
_symmetry_Int_Tables_number   1
_chemical_formula_structural   Dy3Ge4
_chemical_formula_sum   'Dy6 Ge8'
_cell_volume   306.15055434
_cell_formula_units_Z   2
loop_
 _symmetry_equiv_pos_site_id
 _symmetry_equiv_pos_as_xyz
  1  'x, y, z'
loop_
 _atom_site_type_symbol
 _atom_site_label
 _atom_site_symmetry_multiplicity
 _atom_site_fract_x
 _atom_site_fract_y
 _atom_site_fract_z
 _atom_site_occupancy
  Dy  Dy0  1  0.66742475  0.33984479  0.09671556  1
  Dy  Dy1  1  0.32814406  0.66084750  0.90358990  1
  Dy  Dy2  1  0.66754951  0.34027554  0.40352682  1
  Dy  Dy3  1  0.32823211  0.66122417  0.59663866  1
  Dy  Dy4  1  0.95307138  0.91071732  0.25008985  1
  Dy  Dy5  1  0.04250050  0.09033630  0.75012271  1
  Ge  Ge0  1  0.22501057  0.45505033  0.25013937  1
  Ge  Ge1  1  0.77068847  0.54599198  0.75014650  1
  Ge  Ge2  1  0.37797440  0.76101008  0.10915631  1
  Ge  Ge3  1  0.99779031  0.00021350  0.00016781  1
  Ge  Ge4  1  0.37810832  0.76144356  0.39105569  1
  Ge  Ge5  1  0.61759491  0.23963164  0.89107047  1
  Ge  Ge6  1  0.99804114  0.00094633  0.50020553  1
  Ge  Ge7  1  0.61768854  0.23999795  0.60917681  1
loop_
_geom_bond_atom_site_label_1
_geom_bond_atom_site_label_2
_geom_bond_distance
_geom_bond_site_symmetry_2
Dy0 Ge5 2.968170 1_554
Dy0 Ge2 3.025880 1_655
Dy0 Ge2 3.025979 1_555
Dy0 Ge0 3.038862 1_655
Dy0 Ge0 3.038945 1_555
Dy0 Ge3 3.041277 1_455
Dy0 Ge3 3.042200 1_555
Dy0 Ge2 3.081574 1_545
Dy1 Ge2 2.967022 1_556
Dy1 Ge5 3.026075 1_455
Dy1 Ge5 3.026314 1_555
Dy1 Ge1 3.038649 1_555
Dy1 Ge1 3.038808 1_455
Dy1 Ge3 3.041024 1_566
Dy1 Ge3 3.041166 1_466
Dy1 Ge5 3.081369 1_565
Dy2 Ge7 2.968272 1_555
Dy2 Ge4 3.025932 1_655
Dy2 Ge4 3.025986 1_555
Dy2 Ge0 3.037832 1_555
Dy2 Ge0 3.038267 1_655
Dy2 Ge6 3.041195 1_455
Dy2 Ge6 3.041967 1_555
Dy2 Ge4 3.081593 1_545
Dy3 Ge4 2.967280 1_555
Dy3 Ge7 3.026096 1_455
Dy3 Ge7 3.026391 1_555
Dy3 Ge1 3.039586 1_455
Dy3 Ge1 3.039942 1_555
Dy3 Ge6 3.041145 1_565
Dy3 Ge6 3.041352 1_465
Dy3 Ge7 3.081339 1_565
Dy4 Ge0 2.893135 1_665
Dy4 Ge4 2.957094 1_655
Dy4 Ge2 2.957674 1_655
Dy4 Ge4 2.958951 1_555
Dy4 Ge2 2.959045 1_555
Dy4 Ge0 3.158421 1_655
Dy4 Ge0 3.159690 1_555
Dy5 Ge1 2.893195 1_445
Dy5 Ge5 2.956657 1_455
Dy5 Ge7 2.957370 1_455
Dy5 Ge5 2.959159 1_555
Dy5 Ge7 2.959399 1_555
Dy5 Ge1 3.158029 1_455
Dy5 Ge1 3.159990 1_555
Ge0 Ge2 2.579072 1_555
Ge0 Ge4 2.579858 1_555
Ge1 Ge7 2.579107 1_555
Ge1 Ge5 2.579764 1_555
Ge2 Ge3 2.849844 1_465
Ge2 Ge3 2.851140 1_565
Ge3 Ge5 2.851535 1_554
Ge3 Ge5 2.852145 1_654
Ge4 Ge6 2.851940 1_465
Ge4 Ge6 2.853026 1_565
Ge6 Ge7 2.849666 1_555
Ge6 Ge7 2.850407 1_655
