# generated using pymatgen
data_HfGe2Rh
_symmetry_space_group_name_H-M   'P 1'
_cell_length_a   8.08297000
_cell_length_b   9.31442000
_cell_length_c   10.56671900
_cell_angle_alpha   90.00000000
_cell_angle_beta   90.00000000
_cell_angle_gamma   90.00000000
_symmetry_Int_Tables_number   1
_chemical_formula_structural   HfGe2Rh
_chemical_formula_sum   'Hf12 Ge24 Rh12'
_cell_volume   795.54901490
_cell_formula_units_Z   12
loop_
 _symmetry_equiv_pos_site_id
 _symmetry_equiv_pos_as_xyz
  1  'x, y, z'
loop_
 _atom_site_type_symbol
 _atom_site_label
 _atom_site_symmetry_multiplicity
 _atom_site_fract_x
 _atom_site_fract_y
 _atom_site_fract_z
 _atom_site_occupancy
  Hf  Hf0  1  0.24402600  0.82991100  0.45356800  1
  Hf  Hf1  1  0.24402600  0.17008900  0.54643200  1
  Hf  Hf2  1  0.75597400  0.32991100  0.04643200  1
  Hf  Hf3  1  0.75597400  0.67008900  0.95356800  1
  Hf  Hf4  1  0.75597400  0.17008900  0.54643200  1
  Hf  Hf5  1  0.75597400  0.82991100  0.45356800  1
  Hf  Hf6  1  0.24402600  0.67008900  0.95356800  1
  Hf  Hf7  1  0.24402600  0.32991100  0.04643200  1
  Hf  Hf8  1  0.00000000  0.83456300  0.18240900  1
  Hf  Hf9  1  0.00000000  0.16543700  0.81759100  1
  Hf  Hf10  1  0.00000000  0.33456300  0.31759100  1
  Hf  Hf11  1  0.00000000  0.66543700  0.68240900  1
  Ge  Ge0  1  0.34838400  0.84510400  0.18311300  1
  Ge  Ge1  1  0.34838400  0.15489600  0.81688700  1
  Ge  Ge2  1  0.65161600  0.34510400  0.31688700  1
  Ge  Ge3  1  0.65161600  0.65489600  0.68311300  1
  Ge  Ge4  1  0.65161600  0.15489600  0.81688700  1
  Ge  Ge5  1  0.65161600  0.84510400  0.18311300  1
  Ge  Ge6  1  0.34838400  0.65489600  0.68311300  1
  Ge  Ge7  1  0.34838400  0.34510400  0.31688700  1
  Ge  Ge8  1  0.50000000  0.54730100  0.11219800  1
  Ge  Ge9  1  0.50000000  0.45269900  0.88780200  1
  Ge  Ge10  1  0.50000000  0.04730100  0.38780200  1
  Ge  Ge11  1  0.50000000  0.95269900  0.61219800  1
  Ge  Ge12  1  0.00000000  0.53788900  0.11548200  1
  Ge  Ge13  1  0.00000000  0.46211100  0.88451800  1
  Ge  Ge14  1  0.00000000  0.03788900  0.38451800  1
  Ge  Ge15  1  0.00000000  0.96211100  0.61548200  1
  Ge  Ge16  1  0.50000000  0.63871600  0.40548000  1
  Ge  Ge17  1  0.50000000  0.36128400  0.59452000  1
  Ge  Ge18  1  0.50000000  0.13871600  0.09452000  1
  Ge  Ge19  1  0.50000000  0.86128400  0.90548000  1
  Ge  Ge20  1  0.00000000  0.63292700  0.40096800  1
  Ge  Ge21  1  0.00000000  0.36707300  0.59903200  1
  Ge  Ge22  1  0.00000000  0.13292700  0.09903200  1
  Ge  Ge23  1  0.00000000  0.86707300  0.90096800  1
  Rh  Rh0  1  0.24968900  0.59930500  0.24528300  1
  Rh  Rh1  1  0.24968900  0.40069500  0.75471700  1
  Rh  Rh2  1  0.75031100  0.09930500  0.25471700  1
  Rh  Rh3  1  0.75031100  0.90069500  0.74528300  1
  Rh  Rh4  1  0.75031100  0.40069500  0.75471700  1
  Rh  Rh5  1  0.75031100  0.59930500  0.24528300  1
  Rh  Rh6  1  0.24968900  0.90069500  0.74528300  1
  Rh  Rh7  1  0.24968900  0.09930500  0.25471700  1
  Rh  Rh8  1  0.24807500  0.50000000  0.50000000  1
  Rh  Rh9  1  0.75192500  0.00000000  0.00000000  1
  Rh  Rh10  1  0.75192500  0.50000000  0.50000000  1
  Rh  Rh11  1  0.24807500  0.00000000  0.00000000  1
loop_
_geom_bond_atom_site_label_1
_geom_bond_atom_site_label_2
_geom_bond_distance
_geom_bond_site_symmetry_2
Hf0 Rh0 3.075670 1_555
Hf0 Rh8 3.112023 1_555
Hf0 Rh6 3.152525 1_555
Hf0 Rh7 3.273145 1_565
Hf1 Rh1 3.075670 1_555
Hf1 Rh8 3.112023 1_555
Hf1 Rh7 3.152525 1_555
Hf1 Rh6 3.273145 1_545
Hf2 Rh2 3.075670 1_555
Hf2 Rh9 3.112023 1_555
Hf2 Rh4 3.152525 1_554
Hf2 Rh5 3.273145 1_555
Hf3 Rh3 3.075670 1_555
Hf3 Rh9 3.112023 1_566
Hf3 Rh5 3.152525 1_556
Hf3 Rh4 3.273145 1_555
Hf4 Rh4 3.075670 1_555
Hf4 Rh10 3.112023 1_555
Hf4 Rh2 3.152525 1_555
Hf4 Rh3 3.273145 1_545
Hf5 Rh5 3.075670 1_555
Hf5 Rh10 3.112023 1_555
Hf5 Rh3 3.152525 1_555
Hf5 Rh2 3.273145 1_565
Hf6 Rh6 3.075670 1_555
Hf6 Rh11 3.112023 1_566
Hf6 Rh0 3.152525 1_556
Hf6 Rh1 3.273145 1_555
Hf7 Rh7 3.075670 1_555
Hf7 Rh11 3.112023 1_555
Hf7 Rh1 3.152525 1_554
Hf7 Rh0 3.273145 1_555
Hf8 Rh0 3.052277 1_555
Hf8 Rh5 3.052277 1_455
Hf8 Rh9 3.179686 1_465
Hf8 Rh11 3.179686 1_565
Hf8 Rh7 3.276856 1_565
Hf8 Rh2 3.276856 1_465
Hf9 Rh1 3.052277 1_555
Hf9 Rh4 3.052277 1_455
Hf9 Rh11 3.179686 1_556
Hf9 Rh9 3.179686 1_456
Hf9 Rh3 3.276856 1_445
Hf9 Rh6 3.276856 1_545
Hf10 Rh7 3.052277 1_555
Hf10 Rh2 3.052277 1_455
Hf10 Rh8 3.179686 1_555
Hf10 Rh10 3.179686 1_455
Hf10 Rh5 3.276856 1_455
Hf10 Rh0 3.276856 1_555
Hf11 Rh6 3.052277 1_555
Hf11 Rh3 3.052277 1_455
Hf11 Rh8 3.179686 1_555
Hf11 Rh10 3.179686 1_455
Hf11 Rh1 3.276856 1_555
Hf11 Rh4 3.276856 1_455
Ge0 Ge5 2.451015 1_555
Ge0 Rh0 2.511904 1_555
Ge0 Rh11 2.546137 1_565
Ge0 Rh7 2.610564 1_565
Ge0 Hf8 2.817698 1_555
Ge0 Hf0 2.983069 1_555
Ge0 Hf6 3.041742 1_554
Ge1 Ge4 2.451015 1_555
Ge1 Rh1 2.511904 1_555
Ge1 Rh11 2.546137 1_556
Ge1 Rh6 2.610564 1_545
Ge1 Hf9 2.817698 1_555
Ge1 Hf1 2.983069 1_555
Ge1 Hf7 3.041742 1_556
Ge2 Ge7 2.451015 1_555
Ge2 Rh2 2.511904 1_555
Ge2 Rh10 2.546137 1_555
Ge2 Rh5 2.610564 1_555
Ge2 Hf10 2.817698 1_655
Ge2 Hf2 2.983069 1_555
Ge2 Hf4 3.041742 1_555
Ge3 Ge6 2.451015 1_555
Ge3 Rh3 2.511904 1_555
Ge3 Rh10 2.546137 1_555
Ge3 Rh4 2.610564 1_555
Ge3 Hf11 2.817698 1_655
Ge3 Hf3 2.983069 1_555
Ge3 Hf5 3.041742 1_555
Ge4 Rh4 2.511904 1_555
Ge4 Rh9 2.546137 1_556
Ge4 Rh3 2.610564 1_545
Ge4 Hf9 2.817698 1_655
Ge4 Hf4 2.983069 1_555
Ge4 Hf2 3.041742 1_556
Ge5 Rh5 2.511904 1_555
Ge5 Rh9 2.546137 1_565
Ge5 Rh2 2.610564 1_565
Ge5 Hf8 2.817698 1_655
Ge5 Hf5 2.983069 1_555
Ge5 Hf3 3.041742 1_554
Ge6 Rh6 2.511904 1_555
Ge6 Rh8 2.546137 1_555
Ge6 Rh1 2.610564 1_555
Ge6 Hf11 2.817698 1_555
Ge6 Hf6 2.983069 1_555
Ge6 Hf0 3.041742 1_555
Ge7 Rh7 2.511904 1_555
Ge7 Rh8 2.546137 1_555
Ge7 Rh0 2.610564 1_555
Ge7 Hf10 2.817698 1_555
Ge7 Hf7 2.983069 1_555
Ge7 Hf1 3.041742 1_555
Ge8 Rh5 2.511135 1_555
Ge8 Rh0 2.511135 1_555
Ge8 Ge9 2.529566 1_554
Ge8 Hf3 2.898030 1_554
Ge8 Hf6 2.898030 1_554
Ge8 Hf2 2.977227 1_555
Ge8 Hf7 2.977227 1_555
Ge9 Rh4 2.511135 1_555
Ge9 Rh1 2.511135 1_555
Ge9 Hf2 2.898030 1_556
Ge9 Hf7 2.898030 1_556
Ge9 Hf3 2.977227 1_555
Ge9 Hf6 2.977227 1_555
Ge10 Rh2 2.511135 1_555
Ge10 Rh7 2.511135 1_555
Ge10 Ge11 2.529566 1_545
Ge10 Hf4 2.898030 1_555
Ge10 Hf1 2.898030 1_555
Ge10 Hf5 2.977227 1_545
Ge10 Hf0 2.977227 1_545
Ge11 Rh3 2.511135 1_555
Ge11 Rh6 2.511135 1_555
Ge11 Hf5 2.898030 1_555
Ge11 Hf0 2.898030 1_555
Ge11 Hf4 2.977227 1_565
Ge11 Hf1 2.977227 1_565
Ge12 Rh0 2.506332 1_555
Ge12 Rh5 2.506332 1_455
Ge12 Ge13 2.540549 1_554
Ge12 Hf8 2.852405 1_555
Ge12 Hf10 2.854406 1_555
Ge12 Hf7 2.859312 1_555
Ge12 Hf2 2.859312 1_455
Ge12 Hf6 2.886870 1_554
Ge12 Hf3 2.886870 1_454
Ge13 Rh1 2.506332 1_555
Ge13 Rh4 2.506332 1_455
Ge13 Hf9 2.852405 1_555
Ge13 Hf11 2.854406 1_555
Ge13 Hf6 2.859312 1_555
Ge13 Hf3 2.859312 1_455
Ge13 Hf7 2.886870 1_556
Ge13 Hf2 2.886870 1_456
Ge14 Rh7 2.506332 1_555
Ge14 Rh2 2.506332 1_455
Ge14 Ge15 2.540549 1_545
Ge14 Hf10 2.852405 1_555
Ge14 Hf8 2.854406 1_545
Ge14 Hf0 2.859312 1_545
Ge14 Hf5 2.859312 1_445
Ge14 Hf1 2.886870 1_555
Ge14 Hf4 2.886870 1_455
Ge15 Rh6 2.506332 1_555
Ge15 Rh3 2.506332 1_455
Ge15 Hf11 2.852405 1_555
Ge15 Hf9 2.854406 1_565
Ge15 Hf1 2.859312 1_565
Ge15 Hf4 2.859312 1_465
Ge15 Hf0 2.886870 1_555
Ge15 Hf5 2.886870 1_455
Ge16 Rh10 2.610264 1_555
Ge16 Rh8 2.610264 1_555
Ge16 Rh5 2.663409 1_555
Ge16 Rh0 2.663409 1_555
Ge16 Hf5 2.776794 1_555
Ge16 Hf0 2.776794 1_555
Ge17 Rh10 2.610264 1_555
Ge17 Rh8 2.610264 1_555
Ge17 Rh4 2.663409 1_555
Ge17 Rh1 2.663409 1_555
Ge17 Hf4 2.776794 1_555
Ge17 Hf1 2.776794 1_555
Ge18 Rh9 2.610264 1_555
Ge18 Rh11 2.610264 1_555
Ge18 Rh2 2.663409 1_555
Ge18 Rh7 2.663409 1_555
Ge18 Hf2 2.776794 1_555
Ge18 Hf7 2.776794 1_555
Ge19 Rh9 2.610264 1_566
Ge19 Rh11 2.610264 1_566
Ge19 Rh6 2.663409 1_555
Ge19 Rh3 2.663409 1_555
Ge19 Hf3 2.776794 1_555
Ge19 Hf6 2.776794 1_555
Ge20 Rh8 2.578524 1_555
Ge20 Rh10 2.578524 1_455
Ge20 Rh0 2.622520 1_555
Ge20 Rh5 2.622520 1_455
Ge20 Hf0 2.750630 1_555
Ge20 Hf5 2.750630 1_455
Ge20 Hf10 2.915395 1_555
Ge20 Hf8 2.976728 1_555
Ge20 Hf11 2.989285 1_555
Ge21 Rh8 2.578524 1_555
Ge21 Rh10 2.578524 1_455
Ge21 Rh1 2.622520 1_555
Ge21 Rh4 2.622520 1_455
Ge21 Hf1 2.750630 1_555
Ge21 Hf4 2.750630 1_455
Ge21 Hf11 2.915395 1_555
Ge21 Hf9 2.976728 1_555
Ge21 Hf10 2.989285 1_555
Ge22 Rh11 2.578524 1_555
Ge22 Rh9 2.578524 1_455
Ge22 Rh7 2.622520 1_555
Ge22 Rh2 2.622520 1_455
Ge22 Hf7 2.750630 1_555
Ge22 Hf2 2.750630 1_455
Ge22 Hf8 2.915395 1_545
Ge22 Hf10 2.976728 1_555
Ge22 Hf9 2.989285 1_554
Ge23 Rh11 2.578524 1_566
Ge23 Rh9 2.578524 1_466
Ge23 Rh6 2.622520 1_555
Ge23 Rh3 2.622520 1_455
Ge23 Hf6 2.750630 1_555
Ge23 Hf3 2.750630 1_455
Ge23 Hf9 2.915395 1_565
Ge23 Hf11 2.976728 1_555
Ge23 Hf8 2.989285 1_556
Rh0 Rh8 2.846056 1_555
Rh1 Rh8 2.846056 1_555
Rh2 Rh9 2.846056 1_555
Rh3 Rh9 2.846056 1_566
Rh10 Rh5 2.846056 1_555
Rh10 Rh4 2.846056 1_555
Rh11 Rh7 2.846056 1_555
Rh11 Rh6 2.846056 1_544
