# generated using pymatgen
data_KAgC2(SN)2
_symmetry_space_group_name_H-M   'P 1'
_cell_length_a   6.73676300
_cell_length_b   10.84599900
_cell_length_c   18.06969100
_cell_angle_alpha   90.00000000
_cell_angle_beta   90.00000000
_cell_angle_gamma   90.00000000
_symmetry_Int_Tables_number   1
_chemical_formula_structural   KAgC2(SN)2
_chemical_formula_sum   'K8 Ag8 C16 S16 N16'
_cell_volume   1320.29675276
_cell_formula_units_Z   8
loop_
 _symmetry_equiv_pos_site_id
 _symmetry_equiv_pos_as_xyz
  1  'x, y, z'
loop_
 _atom_site_type_symbol
 _atom_site_label
 _atom_site_symmetry_multiplicity
 _atom_site_fract_x
 _atom_site_fract_y
 _atom_site_fract_z
 _atom_site_occupancy
  K  K0  1  0.64742700  0.62649300  0.26974600  1
  K  K1  1  0.14742700  0.87350700  0.26974600  1
  K  K2  1  0.35257300  0.37350700  0.73025400  1
  K  K3  1  0.14742700  0.37350700  0.23025400  1
  K  K4  1  0.35257300  0.87350700  0.76974600  1
  K  K5  1  0.85257300  0.12649300  0.73025400  1
  K  K6  1  0.85257300  0.62649300  0.76974600  1
  K  K7  1  0.64742700  0.12649300  0.23025400  1
  Ag  Ag0  1  0.67014300  0.62763800  0.00256400  1
  Ag  Ag1  1  0.32985700  0.87236200  0.50256400  1
  Ag  Ag2  1  0.17014300  0.37236200  0.49743600  1
  Ag  Ag3  1  0.17014300  0.87236200  0.00256400  1
  Ag  Ag4  1  0.82985700  0.62763800  0.50256400  1
  Ag  Ag5  1  0.32985700  0.37236200  0.99743600  1
  Ag  Ag6  1  0.82985700  0.12763800  0.99743600  1
  Ag  Ag7  1  0.67014300  0.12763800  0.49743600  1
  C  C0  1  0.52080600  0.84701200  0.12396400  1
  C  C1  1  0.97919400  0.84701200  0.62396400  1
  C  C2  1  0.83272400  0.39786100  0.63156600  1
  C  C3  1  0.16727600  0.10213900  0.13156600  1
  C  C4  1  0.47919400  0.65298800  0.62396400  1
  C  C5  1  0.02080600  0.65298800  0.12396400  1
  C  C6  1  0.33272400  0.60213900  0.86843400  1
  C  C7  1  0.33272400  0.10213900  0.63156600  1
  C  C8  1  0.66727600  0.89786100  0.36843400  1
  C  C9  1  0.52080600  0.34701200  0.37603600  1
  C  C10  1  0.66727600  0.39786100  0.13156600  1
  C  C11  1  0.97919400  0.34701200  0.87603600  1
  C  C12  1  0.02080600  0.15298800  0.37603600  1
  C  C13  1  0.83272400  0.89786100  0.86843400  1
  C  C14  1  0.16727600  0.60213900  0.36843400  1
  C  C15  1  0.47919400  0.15298800  0.87603600  1
  S  S0  1  0.01886200  0.98974900  0.89130900  1
  S  S1  1  0.95660700  0.84942100  0.53297600  1
  S  S2  1  0.01886200  0.48974900  0.60869100  1
  S  S3  1  0.98113800  0.51025100  0.39130900  1
  S  S4  1  0.51886200  0.51025100  0.89130900  1
  S  S5  1  0.04339300  0.65057900  0.03297600  1
  S  S6  1  0.54339300  0.34942100  0.46702400  1
  S  S7  1  0.51886200  0.01025100  0.60869100  1
  S  S8  1  0.95660700  0.34942100  0.96702400  1
  S  S9  1  0.45660700  0.15057900  0.96702400  1
  S  S10  1  0.54339300  0.84942100  0.03297600  1
  S  S11  1  0.45660700  0.65057900  0.53297600  1
  S  S12  1  0.48113800  0.98974900  0.39130900  1
  S  S13  1  0.48113800  0.48974900  0.10869100  1
  S  S14  1  0.98113800  0.01025100  0.10869100  1
  S  S15  1  0.04339300  0.15057900  0.46702400  1
  N  N0  1  0.50499000  0.85021900  0.18920900  1
  N  N1  1  0.80201500  0.33536400  0.14976000  1
  N  N2  1  0.99501000  0.35021900  0.81079100  1
  N  N3  1  0.30201500  0.66463600  0.35024000  1
  N  N4  1  0.49501000  0.64978100  0.68920900  1
  N  N5  1  0.99501000  0.85021900  0.68920900  1
  N  N6  1  0.00499000  0.14978100  0.31079100  1
  N  N7  1  0.19798500  0.16463600  0.64976000  1
  N  N8  1  0.00499000  0.64978100  0.18920900  1
  N  N9  1  0.30201500  0.16463600  0.14976000  1
  N  N10  1  0.50499000  0.35021900  0.31079100  1
  N  N11  1  0.80201500  0.83536400  0.35024000  1
  N  N12  1  0.69798500  0.33536400  0.64976000  1
  N  N13  1  0.69798500  0.83536400  0.85024000  1
  N  N14  1  0.49501000  0.14978100  0.81079100  1
  N  N15  1  0.19798500  0.66463600  0.85024000  1
loop_
_geom_bond_atom_site_label_1
_geom_bond_atom_site_label_2
_geom_bond_distance
_geom_bond_site_symmetry_2
K0 N3 2.775150 1_555
K0 N8 2.825603 1_655
K0 N11 2.886562 1_555
K0 N0 2.987751 1_555
K0 N10 3.232593 1_555
K0 S3 3.386546 1_555
K0 S13 3.453110 1_555
K1 N11 2.775150 1_455
K1 N0 2.825603 1_555
K1 N3 2.886562 1_555
K1 N8 2.987751 1_555
K1 N6 3.232593 1_565
K1 S12 3.386546 1_555
K1 S14 3.453110 1_465
K2 N12 2.775150 1_555
K2 N2 2.825603 1_455
K2 N7 2.886562 1_555
K2 N14 2.987751 1_555
K2 N4 3.232593 1_555
K2 S2 3.386546 1_555
K2 S4 3.453110 1_555
K3 N1 2.775150 1_455
K3 N10 2.825603 1_555
K3 N9 2.886562 1_555
K3 N6 2.987751 1_555
K3 N8 3.232593 1_555
K3 S13 3.386546 1_555
K3 S3 3.453110 1_455
K4 N13 2.775150 1_555
K4 N5 2.825603 1_455
K4 N15 2.886562 1_555
K4 N4 2.987751 1_555
K4 N14 3.232593 1_565
K4 S0 3.386546 1_555
K4 S7 3.453110 1_565
K5 N7 2.775150 1_655
K5 N14 2.825603 1_555
K5 N12 2.886562 1_555
K5 N2 2.987751 1_555
K5 N5 3.232593 1_545
K5 S7 3.386546 1_555
K5 S0 3.453110 1_645
K6 N15 2.775150 1_655
K6 N4 2.825603 1_555
K6 N13 2.886562 1_555
K6 N5 2.987751 1_555
K6 N2 3.232593 1_555
K6 S4 3.386546 1_555
K6 S2 3.453110 1_655
K7 N9 2.775150 1_555
K7 N6 2.825603 1_655
K7 N1 2.886562 1_555
K7 N10 2.987751 1_555
K7 N0 3.232593 1_545
K7 S14 3.386546 1_555
K7 S12 3.453110 1_545
Ag0 S5 2.585845 1_655
Ag0 S4 2.588652 1_554
Ag0 S10 2.611003 1_555
Ag0 S13 2.745069 1_555
Ag1 S1 2.585845 1_455
Ag1 S12 2.588652 1_555
Ag1 S11 2.611003 1_555
Ag1 S7 2.745069 1_565
Ag2 S6 2.585845 1_555
Ag2 S2 2.588652 1_555
Ag2 S15 2.611003 1_555
Ag2 S3 2.745069 1_455
Ag3 S10 2.585845 1_555
Ag3 S0 2.588652 1_554
Ag3 S5 2.611003 1_555
Ag3 S14 2.745069 1_465
Ag4 S11 2.585845 1_555
Ag4 S3 2.588652 1_555
Ag4 S1 2.611003 1_555
Ag4 S2 2.745069 1_655
Ag5 S8 2.585845 1_455
Ag5 S13 2.588652 1_556
Ag5 S9 2.611003 1_555
Ag5 S4 2.745069 1_555
Ag6 S9 2.585845 1_555
Ag6 S14 2.588652 1_556
Ag6 S8 2.611003 1_555
Ag6 S0 2.745069 1_645
Ag7 S15 2.585845 1_655
Ag7 S7 2.588652 1_555
Ag7 S6 2.611003 1_555
Ag7 S12 2.745069 1_545
C0 N0 1.184273 1_555
C0 S10 1.651358 1_555
C1 N5 1.184273 1_555
C1 S1 1.651358 1_555
C2 N12 1.179611 1_555
C2 S2 1.654247 1_655
C3 N9 1.179611 1_555
C3 S14 1.654247 1_455
C4 N4 1.184273 1_555
C4 S11 1.651358 1_555
C5 N8 1.184273 1_555
C5 S5 1.651358 1_555
C6 N15 1.179611 1_555
C6 S4 1.654247 1_555
C7 N7 1.179611 1_555
C7 S7 1.654247 1_555
C8 N11 1.179611 1_555
C8 S12 1.654247 1_555
C9 N10 1.184273 1_555
C9 S6 1.651358 1_555
C10 N1 1.179611 1_555
C10 S13 1.654247 1_555
C11 N2 1.184273 1_555
C11 S8 1.651358 1_555
C12 N6 1.184273 1_555
C12 S15 1.651358 1_555
C13 N13 1.179611 1_555
C13 S0 1.654247 1_655
C14 N3 1.179611 1_555
C14 S3 1.654247 1_455
C15 N14 1.184273 1_555
C15 S9 1.651358 1_555
