# generated using pymatgen
data_BaSm2ZnO5
_symmetry_space_group_name_H-M   'P 1'
_cell_length_a   5.85958500
_cell_length_b   7.29040800
_cell_length_c   12.67919200
_cell_angle_alpha   90.00000000
_cell_angle_beta   90.00000000
_cell_angle_gamma   90.00000000
_symmetry_Int_Tables_number   1
_chemical_formula_structural   BaSm2ZnO5
_chemical_formula_sum   'Ba4 Sm8 Zn4 O20'
_cell_volume   541.63942801
_cell_formula_units_Z   4
loop_
 _symmetry_equiv_pos_site_id
 _symmetry_equiv_pos_as_xyz
  1  'x, y, z'
loop_
 _atom_site_type_symbol
 _atom_site_label
 _atom_site_symmetry_multiplicity
 _atom_site_fract_x
 _atom_site_fract_y
 _atom_site_fract_z
 _atom_site_occupancy
  Ba  Ba0  1  0.75000000  0.07660300  0.09993800  1
  Ba  Ba1  1  0.75000000  0.42339700  0.59993800  1
  Ba  Ba2  1  0.25000000  0.57660300  0.40006200  1
  Ba  Ba3  1  0.25000000  0.92339700  0.90006200  1
  Sm  Sm0  1  0.25000000  0.39846400  0.07468200  1
  Sm  Sm1  1  0.75000000  0.61716800  0.20778500  1
  Sm  Sm2  1  0.75000000  0.88283200  0.70778500  1
  Sm  Sm3  1  0.25000000  0.11716800  0.29221500  1
  Sm  Sm4  1  0.75000000  0.60153600  0.92531800  1
  Sm  Sm5  1  0.75000000  0.89846400  0.42531800  1
  Sm  Sm6  1  0.25000000  0.10153600  0.57468200  1
  Sm  Sm7  1  0.25000000  0.38283200  0.79221500  1
  Zn  Zn0  1  0.25000000  0.80822300  0.14968500  1
  Zn  Zn1  1  0.75000000  0.19177700  0.85031500  1
  Zn  Zn2  1  0.75000000  0.30822300  0.35031500  1
  Zn  Zn3  1  0.25000000  0.69177700  0.64968500  1
  O  O0  1  0.25000000  0.43138800  0.59855200  1
  O  O1  1  0.75000000  0.56861200  0.40144800  1
  O  O2  1  0.75000000  0.93138800  0.90144800  1
  O  O3  1  0.25000000  0.06861200  0.09855200  1
  O  O4  1  0.00347600  0.85307200  0.27548500  1
  O  O5  1  0.50347600  0.14692800  0.72451500  1
  O  O6  1  0.99652400  0.35307200  0.22451500  1
  O  O7  1  0.49652400  0.64692800  0.77548500  1
  O  O8  1  0.99652400  0.14692800  0.72451500  1
  O  O9  1  0.49652400  0.85307200  0.27548500  1
  O  O10  1  0.00347600  0.64692800  0.77548500  1
  O  O11  1  0.50347600  0.35307200  0.22451500  1
  O  O12  1  0.49497000  0.66602300  0.06586300  1
  O  O13  1  0.99497000  0.33397700  0.93413700  1
  O  O14  1  0.50503000  0.16602300  0.43413700  1
  O  O15  1  0.00503000  0.83397700  0.56586300  1
  O  O16  1  0.99497000  0.16602300  0.43413700  1
  O  O17  1  0.49497000  0.83397700  0.56586300  1
  O  O18  1  0.00503000  0.66602300  0.06586300  1
  O  O19  1  0.50503000  0.33397700  0.93413700  1
loop_
_geom_bond_atom_site_label_1
_geom_bond_atom_site_label_2
_geom_bond_distance
_geom_bond_site_symmetry_2
Ba0 O2 2.730300 1_544
Ba0 O3 2.930424 1_655
Ba0 O3 2.930424 1_555
Ba0 O11 2.940089 1_555
Ba0 O6 2.940089 1_555
Ba0 O4 3.133029 1_645
Ba0 O9 3.133029 1_545
Ba0 O19 3.162358 1_554
Ba0 O13 3.162358 1_554
Ba0 O18 3.373370 1_645
Ba0 O12 3.373370 1_545
Ba1 O1 2.730300 1_555
Ba1 O0 2.930424 1_555
Ba1 O0 2.930424 1_655
Ba1 O5 2.940089 1_555
Ba1 O8 2.940089 1_555
Ba1 O7 3.133029 1_555
Ba1 O10 3.133029 1_655
Ba1 O14 3.162358 1_555
Ba1 O16 3.162358 1_555
Ba1 O17 3.373370 1_555
Ba1 O15 3.373370 1_655
Ba2 O0 2.730300 1_555
Ba2 O1 2.930424 1_555
Ba2 O1 2.930424 1_455
Ba2 O4 2.940089 1_555
Ba2 O9 2.940089 1_555
Ba2 O11 3.133029 1_555
Ba2 O6 3.133029 1_455
Ba2 O15 3.162358 1_555
Ba2 O17 3.162358 1_555
Ba2 O14 3.373370 1_555
Ba2 O16 3.373370 1_455
Ba3 O3 2.730300 1_566
Ba3 O2 2.930424 1_555
Ba3 O2 2.930424 1_455
Ba3 O7 2.940089 1_555
Ba3 O10 2.940089 1_555
Ba3 O5 3.133029 1_565
Ba3 O8 3.133029 1_465
Ba3 O18 3.162358 1_556
Ba3 O12 3.162358 1_556
Ba3 O13 3.373370 1_465
Ba3 O19 3.373370 1_565
O0 Zn3 2.005998 1_555
O0 Sm6 2.423726 1_555
O0 Sm7 2.480876 1_555
O1 Zn2 2.005998 1_555
O1 Sm5 2.423726 1_555
O1 Sm1 2.480876 1_555
O2 Zn1 2.005998 1_565
O2 Sm4 2.423726 1_555
O2 Sm2 2.480876 1_555
O3 Zn0 2.005998 1_545
O3 Sm0 2.423726 1_555
O3 Sm3 2.480876 1_555
O4 Zn0 2.176633 1_555
O4 Sm3 2.416340 1_565
O4 Sm1 2.429129 1_455
O4 Sm5 2.434053 1_455
O5 Zn1 2.176633 1_555
O5 Sm2 2.416340 1_545
O5 Sm7 2.429129 1_555
O5 Sm6 2.434053 1_555
O6 Zn2 2.176633 1_555
O6 Sm1 2.416340 1_555
O6 Sm3 2.429129 1_655
O6 Sm0 2.434053 1_655
O7 Zn3 2.176633 1_555
O7 Sm7 2.416340 1_555
O7 Sm2 2.429129 1_555
O7 Sm4 2.434053 1_555
O8 Zn1 2.176633 1_555
O8 Sm2 2.416340 1_545
O8 Sm7 2.429129 1_655
O8 Sm6 2.434053 1_655
O9 Zn0 2.176633 1_555
O9 Sm3 2.416340 1_565
O9 Sm1 2.429129 1_555
O9 Sm5 2.434053 1_555
O10 Zn3 2.176633 1_555
O10 Sm7 2.416340 1_555
O10 Sm2 2.429129 1_455
O10 Sm4 2.434053 1_455
O11 Zn2 2.176633 1_555
O11 Sm1 2.416340 1_555
O11 Sm3 2.429129 1_555
O11 Sm0 2.434053 1_555
O12 Zn0 2.065117 1_555
O12 Sm1 2.366019 1_555
O12 Sm4 2.372695 1_554
O12 Sm0 2.424425 1_555
O13 Zn1 2.065117 1_555
O13 Sm7 2.366019 1_655
O13 Sm0 2.372695 1_656
O13 Sm4 2.424425 1_555
O14 Zn2 2.065117 1_555
O14 Sm3 2.366019 1_555
O14 Sm6 2.372695 1_555
O14 Sm5 2.424425 1_545
O15 Zn3 2.065117 1_555
O15 Sm2 2.366019 1_455
O15 Sm5 2.372695 1_455
O15 Sm6 2.424425 1_565
O16 Zn2 2.065117 1_555
O16 Sm3 2.366019 1_655
O16 Sm6 2.372695 1_655
O16 Sm5 2.424425 1_545
O17 Zn3 2.065117 1_555
O17 Sm2 2.366019 1_555
O17 Sm5 2.372695 1_555
O17 Sm6 2.424425 1_565
O18 Zn0 2.065117 1_555
O18 Sm1 2.366019 1_455
O18 Sm4 2.372695 1_454
O18 Sm0 2.424425 1_555
O19 Zn1 2.065117 1_555
O19 Sm7 2.366019 1_555
O19 Sm0 2.372695 1_556
O19 Sm4 2.424425 1_555
