# generated using pymatgen
data_LaFe9Si4
_symmetry_space_group_name_H-M   'P 1'
_cell_length_a   8.04611706
_cell_length_b   8.04611706
_cell_length_c   8.04611706
_cell_angle_alpha   121.11268862
_cell_angle_beta   121.11268862
_cell_angle_gamma   88.08333436
_symmetry_Int_Tables_number   1
_chemical_formula_structural   LaFe9Si4
_chemical_formula_sum   'La2 Fe18 Si8'
_cell_volume   361.92125161
_cell_formula_units_Z   2
loop_
 _symmetry_equiv_pos_site_id
 _symmetry_equiv_pos_as_xyz
  1  'x, y, z'
loop_
 _atom_site_type_symbol
 _atom_site_label
 _atom_site_symmetry_multiplicity
 _atom_site_fract_x
 _atom_site_fract_y
 _atom_site_fract_z
 _atom_site_occupancy
  La  La0  1  0.25000000  0.25000000  0.00000000  1
  La  La1  1  0.75000000  0.75000000  0.00000000  1
  Fe  Fe0  1  0.70137300  0.56372500  0.26509800  1
  Fe  Fe1  1  0.43896000  0.93896000  0.73843800  1
  Fe  Fe2  1  0.50000000  0.00000000  0.50000000  1
  Fe  Fe3  1  0.70052200  0.43896000  0.50000000  1
  Fe  Fe4  1  0.06104000  0.79947800  0.50000000  1
  Fe  Fe5  1  0.20137300  0.93627500  0.13764800  1
  Fe  Fe6  1  0.56104000  0.06104000  0.26156200  1
  Fe  Fe7  1  0.29862700  0.43627500  0.73490200  1
  Fe  Fe8  1  0.79947800  0.29947800  0.73843800  1
  Fe  Fe9  1  0.93627500  0.79862700  0.73490200  1
  Fe  Fe10  1  0.93896000  0.20052200  0.50000000  1
  Fe  Fe11  1  0.06372500  0.20137300  0.26509800  1
  Fe  Fe12  1  0.79862700  0.06372500  0.86235200  1
  Fe  Fe13  1  0.56372500  0.29862700  0.86235200  1
  Fe  Fe14  1  0.00000000  0.50000000  0.50000000  1
  Fe  Fe15  1  0.20052200  0.70052200  0.26156200  1
  Fe  Fe16  1  0.29947800  0.56104000  0.50000000  1
  Fe  Fe17  1  0.43627500  0.70137300  0.13764800  1
  Si  Si0  1  0.44378500  0.29628900  0.50000000  1
  Si  Si1  1  0.20371100  0.05621500  0.50000000  1
  Si  Si2  1  0.05621500  0.55621500  0.85250400  1
  Si  Si3  1  0.70371100  0.20371100  0.14749600  1
  Si  Si4  1  0.79628900  0.94378500  0.50000000  1
  Si  Si5  1  0.29628900  0.79628900  0.85250400  1
  Si  Si6  1  0.55621500  0.70371100  0.50000000  1
  Si  Si7  1  0.94378500  0.44378500  0.14749600  1
loop_
_geom_bond_atom_site_label_1
_geom_bond_atom_site_label_2
_geom_bond_distance
_geom_bond_site_symmetry_2
La0 Si1 3.280642 1_554
La0 Si6 3.280642 1_555
La0 Si3 3.280642 1_555
La0 Si7 3.280642 1_455
La0 Si5 3.280642 1_544
La0 Si0 3.280642 1_555
La0 Si4 3.280642 1_444
La0 Si2 3.280642 1_554
La1 Si2 3.280642 1_654
La1 Si1 3.280642 1_665
La1 Si3 3.280642 1_565
La1 Si6 3.280642 1_554
La1 Si7 3.280642 1_555
La1 Si0 3.280642 1_554
La1 Si5 3.280642 1_554
La1 Si4 3.280642 1_555
Fe0 Fe13 2.362871 1_554
Fe0 Fe17 2.362871 1_555
Fe0 Fe14 2.415451 1_655
Fe0 Si6 2.489648 1_555
Fe0 Si4 2.489648 1_555
Fe0 Si3 2.543378 1_555
Fe0 Si7 2.543378 1_555
Fe0 Fe3 2.560226 1_555
Fe0 Fe4 2.560226 1_655
Fe0 Fe9 2.627853 1_555
Fe0 La0 3.339871 1_555
Fe0 La1 3.339871 1_555
Fe1 Si3 2.391768 1_566
Fe1 Si5 2.396596 1_555
Fe1 Fe2 2.475221 1_565
Fe1 Si1 2.480282 1_565
Fe1 Si6 2.480282 1_555
Fe1 Fe16 2.482107 1_555
Fe1 Fe4 2.482107 1_555
Fe1 Fe13 2.560226 1_565
Fe1 Fe12 2.560226 1_565
Fe1 Fe15 2.667411 1_555
Fe1 La0 3.257788 1_566
Fe1 La1 3.257788 1_556
Fe2 Si0 2.411597 1_555
Fe2 Si4 2.411597 1_545
Fe2 Si1 2.411597 1_555
Fe2 Si6 2.411597 1_545
Fe2 Fe5 2.415451 1_545
Fe2 Fe8 2.475221 1_555
Fe2 Fe6 2.475221 1_555
Fe3 Si6 2.391768 1_555
Fe3 Si0 2.396596 1_555
Fe3 Si2 2.480282 1_655
Fe3 Si3 2.480282 1_555
Fe3 Fe6 2.482107 1_555
Fe3 Fe8 2.482107 1_555
Fe3 Fe9 2.560226 1_555
Fe3 La0 3.257788 1_555
Fe3 La1 3.257788 1_556
Fe4 Si4 2.391768 1_455
Fe4 Si1 2.396596 1_565
Fe4 Si5 2.480282 1_555
Fe4 Si7 2.480282 1_455
Fe4 Fe9 2.560226 1_455
Fe4 La1 3.257788 1_455
Fe4 La0 3.257788 1_566
Fe5 Fe9 2.362871 1_454
Fe5 Si5 2.489648 1_554
Fe5 Si2 2.489648 1_554
Fe5 Si0 2.543378 1_565
Fe5 Si1 2.543378 1_565
Fe5 Fe6 2.560226 1_565
Fe5 La1 3.339871 1_455
Fe5 La0 3.339871 1_565
Fe6 Si5 2.391768 1_544
Fe6 Si3 2.396596 1_555
Fe6 Si4 2.480282 1_545
Fe6 Si0 2.480282 1_555
Fe6 Fe8 2.667411 1_555
Fe6 La1 3.257788 1_545
Fe6 La0 3.257788 1_555
Fe7 Si0 2.489648 1_555
Fe7 Si1 2.489648 1_555
Fe7 Si5 2.543378 1_555
Fe7 Si2 2.543378 1_555
Fe7 La0 3.339871 1_556
Fe7 La1 3.339871 1_556
Fe8 Si7 2.391768 1_556
Fe8 Si2 2.396596 1_655
Fe8 Si4 2.480282 1_545
Fe8 Si0 2.480282 1_555
Fe8 La0 3.257788 1_656
Fe8 La1 3.257788 1_556
Fe9 Si4 2.489648 1_555
Fe9 Si6 2.489648 1_555
Fe9 Si5 2.543378 1_655
Fe9 Si2 2.543378 1_655
Fe9 La0 3.339871 1_666
Fe9 La1 3.339871 1_556
Fe10 Si1 2.391768 1_655
Fe10 Si4 2.396596 1_545
Fe10 Fe14 2.475221 1_655
Fe10 Si2 2.480282 1_655
Fe10 Si3 2.480282 1_555
Fe10 Fe6 2.482107 1_555
Fe10 Fe8 2.482107 1_555
Fe10 Fe7 2.560226 1_655
Fe10 Fe11 2.560226 1_655
Fe10 Fe3 2.667411 1_555
Fe10 La0 3.257788 1_656
Fe10 La1 3.257788 1_545
Fe11 Fe5 2.362871 1_545
Fe11 Fe12 2.362871 1_454
Fe11 Fe14 2.415451 1_555
Fe11 Si0 2.489648 1_555
Fe11 Si1 2.489648 1_555
Fe11 Si7 2.543378 1_455
Fe11 Si3 2.543378 1_455
Fe11 Fe16 2.560226 1_555
Fe11 Fe7 2.627853 1_555
Fe11 La0 3.339871 1_555
Fe11 La1 3.339871 1_445
Fe12 Fe9 2.362871 1_545
Fe12 Fe2 2.415451 1_555
Fe12 Si7 2.489648 1_556
Fe12 Si3 2.489648 1_556
Fe12 Si4 2.543378 1_545
Fe12 Si6 2.543378 1_545
Fe12 Fe8 2.560226 1_555
Fe12 Fe13 2.627853 1_555
Fe12 La1 3.339871 1_546
Fe12 La0 3.339871 1_656
Fe13 Fe7 2.362871 1_555
Fe13 Fe2 2.415451 1_555
Fe13 Si3 2.489648 1_556
Fe13 Si7 2.489648 1_556
Fe13 Si0 2.543378 1_555
Fe13 Si1 2.543378 1_555
Fe13 Fe8 2.560226 1_555
Fe13 La0 3.339871 1_556
Fe13 La1 3.339871 1_556
Fe14 Si5 2.411597 1_555
Fe14 Si2 2.411597 1_555
Fe14 Si3 2.411597 1_455
Fe14 Si7 2.411597 1_455
Fe14 Fe9 2.415451 1_455
Fe14 Fe7 2.415451 1_555
Fe14 Fe16 2.475221 1_555
Fe14 Fe4 2.475221 1_555
Fe14 Fe3 2.475221 1_455
Fe15 Si2 2.391768 1_554
Fe15 Si7 2.396596 1_455
Fe15 Fe2 2.475221 1_565
Fe15 Si1 2.480282 1_565
Fe15 Si6 2.480282 1_555
Fe15 Fe4 2.482107 1_555
Fe15 Fe16 2.482107 1_555
Fe15 Fe17 2.560226 1_555
Fe15 Fe5 2.560226 1_555
Fe15 La1 3.257788 1_455
Fe15 La0 3.257788 1_555
Fe16 Si0 2.391768 1_555
Fe16 Si6 2.396596 1_555
Fe16 Si5 2.480282 1_555
Fe16 Si7 2.480282 1_455
Fe16 Fe7 2.560226 1_555
Fe16 Fe4 2.667411 1_555
Fe16 La0 3.257788 1_555
Fe16 La1 3.257788 1_556
Fe17 Fe7 2.362871 1_554
Fe17 Fe2 2.415451 1_565
Fe17 Si2 2.489648 1_554
Fe17 Si5 2.489648 1_554
Fe17 Si6 2.543378 1_555
Fe17 Si4 2.543378 1_555
Fe17 Fe6 2.560226 1_565
Fe17 Fe5 2.627853 1_555
Fe17 La0 3.339871 1_555
Fe17 La1 3.339871 1_555
Si0 Si1 2.777092 1_555
Si2 Si5 2.777092 1_555
Si3 Si7 2.777092 1_555
Si4 Si6 2.777092 1_555
