# generated using pymatgen
data_NbCrCo
_symmetry_space_group_name_H-M   'P 1'
_cell_length_a   4.12997029
_cell_length_b   4.12997029
_cell_length_c   4.12997029
_cell_angle_alpha   60.00000000
_cell_angle_beta   60.00000000
_cell_angle_gamma   60.00000000
_symmetry_Int_Tables_number   1
_chemical_formula_structural   NbCrCo
_chemical_formula_sum   'Nb1 Cr1 Co1'
_cell_volume   49.81106018
_cell_formula_units_Z   1
loop_
 _symmetry_equiv_pos_site_id
 _symmetry_equiv_pos_as_xyz
  1  'x, y, z'
loop_
 _atom_site_type_symbol
 _atom_site_label
 _atom_site_symmetry_multiplicity
 _atom_site_fract_x
 _atom_site_fract_y
 _atom_site_fract_z
 _atom_site_occupancy
  Nb  Nb0  1  0.25000000  0.25000000  0.25000000  1
  Cr  Cr0  1  0.50000000  0.50000000  0.50000000  1
  Co  Co0  1  0.00000000  0.00000000  0.00000000  1
loop_
_geom_bond_atom_site_label_1
_geom_bond_atom_site_label_2
_geom_bond_distance
_geom_bond_site_symmetry_2
Cr0 Nb0 2.529080 1_556
Cr0 Nb0 2.529080 1_555
Cr0 Nb0 2.529080 1_655
Cr0 Nb0 2.529080 1_565
Co0 Nb0 2.529080 1_545
Co0 Nb0 2.529080 1_555
Co0 Nb0 2.529080 1_554
Co0 Nb0 2.529080 1_455
Co0 Cr0 2.920330 1_544
Co0 Cr0 2.920330 1_545
Co0 Cr0 2.920330 1_455
Co0 Cr0 2.920330 1_454
Co0 Cr0 2.920330 1_554
Co0 Cr0 2.920330 1_445
