# generated using pymatgen
data_Ir3(CO)8
_symmetry_space_group_name_H-M   'P 1'
_cell_length_a   13.03848300
_cell_length_b   13.78806300
_cell_length_c   18.87347927
_cell_angle_alpha   47.40633267
_cell_angle_beta   90.00000000
_cell_angle_gamma   90.00000000
_symmetry_Int_Tables_number   1
_chemical_formula_structural   Ir3(CO)8
_chemical_formula_sum   'Ir24 C64 O64'
_cell_volume   2497.82222727
_cell_formula_units_Z   8
loop_
 _symmetry_equiv_pos_site_id
 _symmetry_equiv_pos_as_xyz
  1  'x, y, z'
loop_
 _atom_site_type_symbol
 _atom_site_label
 _atom_site_symmetry_multiplicity
 _atom_site_fract_x
 _atom_site_fract_y
 _atom_site_fract_z
 _atom_site_occupancy
  Ir  Ir0  1  0.46402600  0.83339100  0.88694800  1
  Ir  Ir1  1  0.04307700  0.69183300  0.17564200  1
  Ir  Ir2  1  0.69209000  0.00000000  0.25000000  1
  Ir  Ir3  1  0.38036400  0.00000000  0.25000000  1
  Ir  Ir4  1  0.95692300  0.69183300  0.67564200  1
  Ir  Ir5  1  0.61963600  0.00000000  0.75000000  1
  Ir  Ir6  1  0.04040500  0.53582300  0.12840700  1
  Ir  Ir7  1  0.53597400  0.16660900  0.11305200  1
  Ir  Ir8  1  0.53597400  0.83339100  0.38694800  1
  Ir  Ir9  1  0.04307700  0.30816700  0.32435800  1
  Ir  Ir10  1  0.80093300  0.50000000  0.75000000  1
  Ir  Ir11  1  0.11540700  0.50000000  0.75000000  1
  Ir  Ir12  1  0.04040500  0.46417700  0.37159300  1
  Ir  Ir13  1  0.53564700  0.10471100  0.28616700  1
  Ir  Ir14  1  0.46435300  0.10471100  0.78616700  1
  Ir  Ir15  1  0.88459300  0.50000000  0.25000000  1
  Ir  Ir16  1  0.30791000  0.00000000  0.75000000  1
  Ir  Ir17  1  0.53564700  0.89528900  0.21383300  1
  Ir  Ir18  1  0.95692300  0.30816700  0.82435800  1
  Ir  Ir19  1  0.46402600  0.16660900  0.61305200  1
  Ir  Ir20  1  0.95959500  0.53582300  0.62840700  1
  Ir  Ir21  1  0.19906700  0.50000000  0.25000000  1
  Ir  Ir22  1  0.46435300  0.89528900  0.71383300  1
  Ir  Ir23  1  0.95959500  0.46417700  0.87159300  1
  C  C0  1  0.42368900  0.28173200  0.72048700  1
  C  C1  1  0.42368900  0.71826800  0.77951300  1
  C  C2  1  0.78900000  0.95820000  0.19863100  1
  C  C3  1  0.88262200  0.45837500  0.59224200  1
  C  C4  1  0.61608900  0.11776800  0.79389400  1
  C  C5  1  0.58623100  0.03337800  0.40764400  1
  C  C6  1  0.31679300  0.78942200  0.89082900  1
  C  C7  1  0.78282300  0.62879800  0.16512100  1
  C  C8  1  0.09448900  0.43726400  0.67115700  1
  C  C9  1  0.96531200  0.83065900  0.06686200  1
  C  C10  1  0.96531200  0.16934100  0.43313800  1
  C  C11  1  0.57631100  0.28173200  0.22048700  1
  C  C12  1  0.53778800  0.67998300  0.93798700  1
  C  C13  1  0.03468800  0.16934100  0.93313800  1
  C  C14  1  0.30169000  0.52608800  0.30730600  1
  C  C15  1  0.98198500  0.31033900  0.00272200  1
  C  C16  1  0.71646500  0.11139200  0.64954100  1
  C  C17  1  0.38391100  0.88223200  0.20610600  1
  C  C18  1  0.03468800  0.83065900  0.56686200  1
  C  C19  1  0.17992600  0.70525500  0.11933800  1
  C  C20  1  0.31679300  0.21057800  0.60917100  1
  C  C21  1  0.21717700  0.62879800  0.66512100  1
  C  C22  1  0.21100000  0.04180000  0.80136900  1
  C  C23  1  0.90551100  0.43726400  0.17115700  1
  C  C24  1  0.52773300  0.21957600  0.99006700  1
  C  C25  1  0.46221200  0.32001700  0.06201300  1
  C  C26  1  0.82007400  0.70525500  0.61933800  1
  C  C27  1  0.90551100  0.56273600  0.32884300  1
  C  C28  1  0.92644800  0.79392000  0.70711200  1
  C  C29  1  0.30169000  0.47391200  0.19269400  1
  C  C30  1  0.61608900  0.88223200  0.70610600  1
  C  C31  1  0.41376900  0.03337800  0.90764400  1
  C  C32  1  0.68320700  0.21057800  0.10917100  1
  C  C33  1  0.28353500  0.11139200  0.14954100  1
  C  C34  1  0.69831000  0.47391200  0.69269400  1
  C  C35  1  0.21717700  0.37120200  0.83487900  1
  C  C36  1  0.38391100  0.11776800  0.29389400  1
  C  C37  1  0.01801500  0.68966100  0.99727800  1
  C  C38  1  0.98198500  0.68966100  0.49727800  1
  C  C39  1  0.46221200  0.67998300  0.43798700  1
  C  C40  1  0.82007400  0.29474500  0.88066200  1
  C  C41  1  0.71646500  0.88860800  0.85045900  1
  C  C42  1  0.47226700  0.78042400  0.00993300  1
  C  C43  1  0.47226700  0.21957600  0.49006700  1
  C  C44  1  0.57631100  0.71826800  0.27951300  1
  C  C45  1  0.53778800  0.32001700  0.56201300  1
  C  C46  1  0.52773300  0.78042400  0.50993300  1
  C  C47  1  0.07355200  0.20608000  0.29288800  1
  C  C48  1  0.78900000  0.04180000  0.30136900  1
  C  C49  1  0.07355200  0.79392000  0.20711200  1
  C  C50  1  0.41376900  0.96662200  0.59235600  1
  C  C51  1  0.21100000  0.95820000  0.69863100  1
  C  C52  1  0.92644800  0.20608000  0.79288800  1
  C  C53  1  0.28353500  0.88860800  0.35045900  1
  C  C54  1  0.17992600  0.29474500  0.38066200  1
  C  C55  1  0.09448900  0.56273600  0.82884300  1
  C  C56  1  0.88262200  0.54162500  0.90775800  1
  C  C57  1  0.68320700  0.78942200  0.39082900  1
  C  C58  1  0.11737800  0.54162500  0.40775800  1
  C  C59  1  0.78282300  0.37120200  0.33487900  1
  C  C60  1  0.01801500  0.31033900  0.50272200  1
  C  C61  1  0.58623100  0.96662200  0.09235600  1
  C  C62  1  0.11737800  0.45837500  0.09224200  1
  C  C63  1  0.69831000  0.52608800  0.80730600  1
  O  O0  1  0.90899900  0.14282200  0.77447200  1
  O  O1  1  0.31712900  0.84172600  0.19017500  1
  O  O2  1  0.76697400  0.78648800  0.55320000  1
  O  O3  1  0.14779700  0.61498400  0.84531500  1
  O  O4  1  0.22631300  0.81994600  0.41327300  1
  O  O5  1  0.39511000  0.38601200  0.68504800  1
  O  O6  1  0.60489000  0.38601200  0.18504800  1
  O  O7  1  0.37508300  0.00722000  0.52150700  1
  O  O8  1  0.28006000  0.29357600  0.88452400  1
  O  O9  1  0.76697400  0.21351200  0.94680000  1
  O  O10  1  0.15295800  0.93324900  0.66646300  1
  O  O11  1  0.84704200  0.93324900  0.16646300  1
  O  O12  1  0.41030700  0.59062300  0.46853900  1
  O  O13  1  0.83469200  0.59108200  0.92780500  1
  O  O14  1  0.63318200  0.46562500  0.65534000  1
  O  O15  1  0.77368700  0.81994600  0.91327300  1
  O  O16  1  0.08476600  0.08513300  0.99815500  1
  O  O17  1  0.77368700  0.18005400  0.58672700  1
  O  O18  1  0.16530800  0.40891800  0.07219500  1
  O  O19  1  0.58969300  0.40937700  0.53146100  1
  O  O20  1  0.41030700  0.40937700  0.03146100  1
  O  O21  1  0.91523400  0.08513300  0.49815500  1
  O  O22  1  0.08476600  0.91486700  0.50184500  1
  O  O23  1  0.22631300  0.18005400  0.08672700  1
  O  O24  1  0.68287100  0.15827400  0.80982500  1
  O  O25  1  0.58969300  0.59062300  0.96853900  1
  O  O26  1  0.71994000  0.29357600  0.38452400  1
  O  O27  1  0.23302600  0.78648800  0.05320000  1
  O  O28  1  0.62491700  0.99278000  0.47849300  1
  O  O29  1  0.00938600  0.21653000  0.58366700  1
  O  O30  1  0.25482200  0.29465500  0.56449000  1
  O  O31  1  0.52034400  0.73669000  0.58831300  1
  O  O32  1  0.62491700  0.00722000  0.02150700  1
  O  O33  1  0.84704200  0.06675100  0.33353700  1
  O  O34  1  0.60489000  0.61398800  0.31495200  1
  O  O35  1  0.63318200  0.53437500  0.84466000  1
  O  O36  1  0.09100100  0.85717800  0.22552800  1
  O  O37  1  0.36681800  0.53437500  0.34466000  1
  O  O38  1  0.74517800  0.29465500  0.06449000  1
  O  O39  1  0.91523400  0.91486700  0.00184500  1
  O  O40  1  0.14779700  0.38501600  0.65468500  1
  O  O41  1  0.71994000  0.70642400  0.11547600  1
  O  O42  1  0.68287100  0.84172600  0.69017500  1
  O  O43  1  0.36681800  0.46562500  0.15534000  1
  O  O44  1  0.31712900  0.15827400  0.30982500  1
  O  O45  1  0.90899900  0.85717800  0.72552800  1
  O  O46  1  0.15295800  0.06675100  0.83353700  1
  O  O47  1  0.99061400  0.21653000  0.08366700  1
  O  O48  1  0.85220300  0.38501600  0.15468500  1
  O  O49  1  0.47965600  0.73669000  0.08831300  1
  O  O50  1  0.25482200  0.70534500  0.93551000  1
  O  O51  1  0.23302600  0.21351200  0.44680000  1
  O  O52  1  0.28006000  0.70642400  0.61547600  1
  O  O53  1  0.47965600  0.26331000  0.41168700  1
  O  O54  1  0.16530800  0.59108200  0.42780500  1
  O  O55  1  0.74517800  0.70534500  0.43551000  1
  O  O56  1  0.85220300  0.61498400  0.34531500  1
  O  O57  1  0.99061400  0.78347000  0.41633300  1
  O  O58  1  0.09100100  0.14282200  0.27447200  1
  O  O59  1  0.39511000  0.61398800  0.81495200  1
  O  O60  1  0.83469200  0.40891800  0.57219500  1
  O  O61  1  0.00938600  0.78347000  0.91633300  1
  O  O62  1  0.52034400  0.26331000  0.91168700  1
  O  O63  1  0.37508300  0.99278000  0.97849300  1
loop_
_geom_bond_atom_site_label_1
_geom_bond_atom_site_label_2
_geom_bond_distance
_geom_bond_site_symmetry_2
C0 O5 1.162671 1_555
C0 Ir14 1.918254 1_555
C1 O59 1.162671 1_555
C1 Ir22 1.918254 1_555
C2 O11 1.158613 1_555
C2 Ir2 1.903956 1_565
C3 O60 1.161009 1_555
C3 Ir20 1.897378 1_555
C4 O24 1.178053 1_555
C4 Ir14 2.000828 1_555
C4 Ir5 2.268478 1_555
C5 O28 1.158713 1_545
C5 Ir13 1.899078 1_555
C6 O50 1.176707 1_555
C6 Ir0 1.999505 1_555
C6 Ir16 2.249930 1_565
C7 O41 1.156836 1_555
C7 Ir15 1.905241 1_555
C8 O40 1.184008 1_555
C8 Ir20 2.026571 1_455
C8 Ir11 2.186136 1_555
C9 O39 1.162609 1_555
C9 Ir1 1.894112 1_655
C10 O21 1.162609 1_555
C10 Ir9 1.894112 1_655
C11 O6 1.162671 1_555
C11 Ir13 1.918254 1_555
C12 O25 1.160563 1_555
C12 Ir0 1.889166 1_555
C13 O16 1.162609 1_555
C13 Ir18 1.894112 1_455
C14 O37 1.157674 1_555
C14 Ir21 1.901616 1_555
C15 O47 1.159679 1_555
C15 Ir23 1.898337 1_554
C16 O17 1.157226 1_555
C16 Ir5 1.898943 1_555
C17 O1 1.178053 1_555
C17 Ir17 2.000828 1_555
C17 Ir3 2.268478 1_565
C18 O22 1.162609 1_555
C18 Ir4 1.894112 1_455
C19 O27 1.183015 1_555
C19 Ir1 2.020154 1_555
C19 Ir21 2.169366 1_555
C20 O30 1.176707 1_555
C20 Ir19 1.999505 1_555
C20 Ir16 2.249930 1_555
C21 O52 1.156836 1_555
C21 Ir11 1.905241 1_555
C22 O46 1.158613 1_555
C22 Ir16 1.903956 1_555
C23 O48 1.184008 1_555
C23 Ir6 2.026571 1_655
C23 Ir15 2.186136 1_555
C24 O62 1.163527 1_555
C24 Ir7 1.907380 1_556
C25 O20 1.160563 1_555
C25 Ir7 1.889166 1_555
C26 O2 1.183015 1_555
C26 Ir4 2.020154 1_555
C26 Ir10 2.169366 1_555
C27 O56 1.184008 1_555
C27 Ir12 2.026571 1_655
C27 Ir15 2.186136 1_555
C28 O45 1.159163 1_555
C28 Ir4 1.903573 1_555
C29 O43 1.157674 1_555
C29 Ir21 1.901616 1_555
C30 O42 1.178053 1_555
C30 Ir22 2.000828 1_555
C30 Ir5 2.268478 1_565
C31 O63 1.158713 1_545
C31 Ir14 1.899078 1_555
C32 O38 1.176707 1_555
C32 Ir7 1.999505 1_555
C32 Ir2 2.249930 1_555
C33 O23 1.157226 1_555
C33 Ir3 1.898943 1_555
C34 O14 1.157674 1_555
C34 Ir10 1.901616 1_555
C35 O8 1.156836 1_555
C35 Ir11 1.905241 1_555
C36 O44 1.178053 1_555
C36 Ir13 2.000828 1_555
C36 Ir3 2.268478 1_555
C37 O61 1.159679 1_555
C37 Ir6 1.898337 1_556
C38 O57 1.159679 1_555
C38 Ir20 1.898337 1_555
C39 O12 1.160563 1_555
C39 Ir8 1.889166 1_555
C40 O9 1.183015 1_555
C40 Ir18 2.020154 1_555
C40 Ir10 2.169366 1_555
C41 O15 1.157226 1_555
C41 Ir5 1.898943 1_565
C42 O49 1.163527 1_555
C42 Ir0 1.907380 1_554
C43 O53 1.163527 1_555
C43 Ir19 1.907380 1_555
C44 O34 1.162671 1_555
C44 Ir17 1.918254 1_555
C45 O19 1.160563 1_555
C45 Ir19 1.889166 1_555
C46 O31 1.163527 1_555
C46 Ir8 1.907380 1_555
C47 O58 1.159163 1_555
C47 Ir9 1.903573 1_555
C48 O33 1.158613 1_555
C48 Ir2 1.903956 1_555
C49 O36 1.159163 1_555
C49 Ir1 1.903573 1_555
C50 O7 1.158713 1_565
C50 Ir22 1.899078 1_555
C51 O10 1.158613 1_555
C51 Ir16 1.903956 1_565
C52 O0 1.159163 1_555
C52 Ir18 1.903573 1_555
C53 O4 1.157226 1_555
C53 Ir3 1.898943 1_565
C54 O51 1.183015 1_555
C54 Ir9 2.020154 1_555
C54 Ir21 2.169366 1_555
C55 O3 1.184008 1_555
C55 Ir23 2.026571 1_455
C55 Ir11 2.186136 1_555
C56 O13 1.161009 1_555
C56 Ir23 1.897378 1_555
C57 O55 1.176707 1_555
C57 Ir8 1.999505 1_555
C57 Ir2 2.249930 1_565
C58 O54 1.161009 1_555
C58 Ir12 1.897378 1_555
C59 O26 1.156836 1_555
C59 Ir15 1.905241 1_555
C60 O29 1.159679 1_555
C60 Ir12 1.898337 1_555
C61 O32 1.158713 1_565
C61 Ir17 1.899078 1_555
C62 O18 1.161009 1_555
C62 Ir6 1.897378 1_555
C63 O35 1.157674 1_555
C63 Ir10 1.901616 1_555
