# generated using pymatgen
data_CaLaMnSnO6
_symmetry_space_group_name_H-M   'P 1'
_cell_length_a   5.61000157
_cell_length_b   5.85578100
_cell_length_c   7.84042016
_cell_angle_alpha   89.99884250
_cell_angle_beta   89.41391597
_cell_angle_gamma   89.99871733
_symmetry_Int_Tables_number   1
_chemical_formula_structural   CaLaMnSnO6
_chemical_formula_sum   'Ca2 La2 Mn2 Sn2 O12'
_cell_volume   257.55170226
_cell_formula_units_Z   2
loop_
 _symmetry_equiv_pos_site_id
 _symmetry_equiv_pos_as_xyz
  1  'x, y, z'
loop_
 _atom_site_type_symbol
 _atom_site_label
 _atom_site_symmetry_multiplicity
 _atom_site_fract_x
 _atom_site_fract_y
 _atom_site_fract_z
 _atom_site_occupancy
  Ca  Ca0  1  0.48717800  0.44226900  0.74725100  1
  Ca  Ca1  1  0.98717700  0.05772600  0.24727500  1
  La  La0  1  0.01308900  0.94586700  0.75142700  1
  La  La1  1  0.51307200  0.55414600  0.25142500  1
  Mn  Mn0  1  0.50067300  0.00220700  0.00117600  1
  Mn  Mn1  1  0.00065500  0.49780900  0.50117000  1
  Sn  Sn0  1  0.00160700  0.49655600  0.99860100  1
  Sn  Sn1  1  0.50158700  0.00346400  0.49856200  1
  O  O0  1  0.09327600  0.46842100  0.25974600  1
  O  O1  1  0.20720500  0.19556500  0.95514200  1
  O  O2  1  0.20995600  0.19544300  0.55301300  1
  O  O3  1  0.29375100  0.69662500  0.54724100  1
  O  O4  1  0.29338200  0.69015000  0.94586700  1
  O  O5  1  0.39991300  0.97195800  0.24055000  1
  O  O6  1  0.59328900  0.03155700  0.75970200  1
  O  O7  1  0.70997400  0.30455000  0.05299800  1
  O  O8  1  0.70719400  0.30443700  0.45515600  1
  O  O9  1  0.79373000  0.80338400  0.04722000  1
  O  O10  1  0.79338400  0.80983400  0.44587800  1
  O  O11  1  0.89990500  0.52803400  0.74060100  1
loop_
_geom_bond_atom_site_label_1
_geom_bond_atom_site_label_2
_geom_bond_distance
_geom_bond_site_symmetry_2
Ca0 O11 2.369303 1_555
Ca0 O4 2.383131 1_555
Ca0 O3 2.426880 1_555
Ca0 O6 2.479762 1_555
Ca0 O2 2.622146 1_555
Ca0 O1 2.675503 1_555
Ca0 O8 2.713279 1_555
Ca0 O7 2.832004 1_556
Ca1 O5 2.369342 1_645
Ca1 O10 2.383088 1_545
Ca1 O9 2.427179 1_545
Ca1 O0 2.479686 1_655
Ca1 O7 2.622183 1_555
Ca1 O8 2.675508 1_555
Ca1 O1 2.713560 1_654
Ca1 O2 2.831942 1_655
La0 O2 2.395934 1_565
La0 O6 2.408155 1_465
La0 O1 2.431192 1_565
La0 O11 2.529445 1_455
La0 O4 2.662287 1_555
La0 O3 2.668440 1_555
La0 O9 2.744180 1_456
La0 O10 2.820158 1_455
La1 O7 2.396169 1_555
La1 O0 2.408204 1_555
La1 O8 2.431261 1_555
La1 O5 2.529274 1_555
La1 O10 2.662388 1_555
La1 O9 2.668506 1_555
La1 O3 2.744243 1_555
La1 O4 2.820090 1_554
Mn0 O5 1.962533 1_545
Mn0 O6 1.965652 1_554
Mn0 O1 2.033428 1_554
Mn0 O9 2.049579 1_545
Mn0 O7 2.165219 1_555
Mn0 O4 2.211334 1_544
Mn1 O11 1.962936 1_455
Mn1 O0 1.965307 1_555
Mn1 O8 2.033462 1_455
Mn1 O3 2.049821 1_555
Mn1 O2 2.165304 1_555
Mn1 O10 2.211035 1_455
O0 Sn0 2.122577 1_554
O1 Sn0 2.131871 1_555
O2 Sn1 2.026910 1_555
O3 Sn1 2.173596 1_565
O4 Sn0 2.030177 1_555
O5 Sn1 2.115473 1_565
O6 Sn1 2.122575 1_555
O7 Sn0 2.026952 1_654
O8 Sn1 2.131779 1_555
O9 Sn0 2.173555 1_654
O10 Sn1 2.030286 1_565
O11 Sn0 2.115403 1_655
