# generated using pymatgen
data_Tl7Bi3I16
_symmetry_space_group_name_H-M   'P 1'
_cell_length_a   14.66633706
_cell_length_b   14.66633706
_cell_length_c   36.88744400
_cell_angle_alpha   90.00000000
_cell_angle_beta   90.00000000
_cell_angle_gamma   119.56255261
_symmetry_Int_Tables_number   1
_chemical_formula_structural   Tl7Bi3I16
_chemical_formula_sum   'Tl42 Bi18 I96'
_cell_volume   6901.60444572
_cell_formula_units_Z   6
loop_
 _symmetry_equiv_pos_site_id
 _symmetry_equiv_pos_as_xyz
  1  'x, y, z'
loop_
 _atom_site_type_symbol
 _atom_site_label
 _atom_site_symmetry_multiplicity
 _atom_site_fract_x
 _atom_site_fract_y
 _atom_site_fract_z
 _atom_site_occupancy
  Tl  Tl0  1  0.62711400  0.62711400  0.54428400  1
  Tl  Tl1  1  0.37593900  0.67279300  0.11999700  1
  Tl  Tl2  1  0.38502100  0.66872000  0.25000000  1
  Tl  Tl3  1  0.66961500  0.00486200  0.62026900  1
  Tl  Tl4  1  0.67279300  0.37593900  0.11999700  1
  Tl  Tl5  1  0.67204300  0.99883900  0.75000000  1
  Tl  Tl6  1  0.33038500  0.99513800  0.37973100  1
  Tl  Tl7  1  0.62406100  0.32720700  0.61999700  1
  Tl  Tl8  1  0.32720700  0.62406100  0.61999700  1
  Tl  Tl9  1  0.66872000  0.38502100  0.25000000  1
  Tl  Tl10  1  0.03990900  0.33686200  0.97166700  1
  Tl  Tl11  1  0.03990900  0.33686200  0.52833300  1
  Tl  Tl12  1  0.33038500  0.99513800  0.12026900  1
  Tl  Tl13  1  0.32720700  0.62406100  0.88000300  1
  Tl  Tl14  1  0.62406100  0.32720700  0.88000300  1
  Tl  Tl15  1  0.32795700  0.00116100  0.25000000  1
  Tl  Tl16  1  0.66961500  0.00486200  0.87973100  1
  Tl  Tl17  1  0.62711400  0.62711400  0.95571600  1
  Tl  Tl18  1  0.96009100  0.66313800  0.02833300  1
  Tl  Tl19  1  0.33686200  0.03990900  0.97166700  1
  Tl  Tl20  1  0.94818200  0.94818200  0.11589000  1
  Tl  Tl21  1  0.96009100  0.66313800  0.47166700  1
  Tl  Tl22  1  0.37288600  0.37288600  0.45571600  1
  Tl  Tl23  1  0.94757400  0.94757400  0.25000000  1
  Tl  Tl24  1  0.94818200  0.94818200  0.38411000  1
  Tl  Tl25  1  0.05181800  0.05181800  0.88411000  1
  Tl  Tl26  1  0.00486200  0.66961500  0.62026900  1
  Tl  Tl27  1  0.99513800  0.33038500  0.37973100  1
  Tl  Tl28  1  0.00116100  0.32795700  0.25000000  1
  Tl  Tl29  1  0.37288600  0.37288600  0.04428400  1
  Tl  Tl30  1  0.99883900  0.67204300  0.75000000  1
  Tl  Tl31  1  0.00486200  0.66961500  0.87973100  1
  Tl  Tl32  1  0.99513800  0.33038500  0.12026900  1
  Tl  Tl33  1  0.33128000  0.61497900  0.75000000  1
  Tl  Tl34  1  0.37593900  0.67279300  0.38000300  1
  Tl  Tl35  1  0.05181800  0.05181800  0.61589000  1
  Tl  Tl36  1  0.05242600  0.05242600  0.75000000  1
  Tl  Tl37  1  0.66313800  0.96009100  0.02833300  1
  Tl  Tl38  1  0.67279300  0.37593900  0.38000300  1
  Tl  Tl39  1  0.61497900  0.33128000  0.75000000  1
  Tl  Tl40  1  0.66313800  0.96009100  0.47166700  1
  Tl  Tl41  1  0.33686200  0.03990900  0.52833300  1
  Bi  Bi0  1  0.32741800  0.00275900  0.81656300  1
  Bi  Bi1  1  0.33553600  0.66446400  0.00000000  1
  Bi  Bi2  1  0.99724100  0.67258200  0.18343700  1
  Bi  Bi3  1  0.33942900  0.33942900  0.31577800  1
  Bi  Bi4  1  0.99724100  0.67258200  0.31656300  1
  Bi  Bi5  1  0.66446400  0.33553600  0.00000000  1
  Bi  Bi6  1  0.32741800  0.00275900  0.68343700  1
  Bi  Bi7  1  0.00000000  0.00000000  0.50000000  1
  Bi  Bi8  1  0.00275900  0.32741800  0.81656300  1
  Bi  Bi9  1  0.66446400  0.33553600  0.50000000  1
  Bi  Bi10  1  0.33553600  0.66446400  0.50000000  1
  Bi  Bi11  1  0.66057100  0.66057100  0.68422200  1
  Bi  Bi12  1  0.66057100  0.66057100  0.81577800  1
  Bi  Bi13  1  0.33942900  0.33942900  0.18422200  1
  Bi  Bi14  1  0.67258200  0.99724100  0.18343700  1
  Bi  Bi15  1  0.67258200  0.99724100  0.31656300  1
  Bi  Bi16  1  0.00000000  0.00000000  0.00000000  1
  Bi  Bi17  1  0.00275900  0.32741800  0.68343700  1
  I  I0  1  0.08281800  0.88582700  0.81523900  1
  I  I1  1  0.95014000  0.13533100  0.44688000  1
  I  I2  1  0.48779700  0.33259600  0.54325700  1
  I  I3  1  0.66740400  0.51220300  0.45674300  1
  I  I4  1  0.33259600  0.48779700  0.95674300  1
  I  I5  1  0.32115000  0.85253500  0.75000000  1
  I  I6  1  0.87823700  0.42628600  0.31382000  1
  I  I7  1  0.87823700  0.42628600  0.18618000  1
  I  I8  1  0.91718200  0.11417300  0.31523900  1
  I  I9  1  0.80719100  0.51572500  0.55369500  1
  I  I10  1  0.19088900  0.19088900  0.53080800  1
  I  I11  1  0.33319800  0.16068500  0.86888000  1
  I  I12  1  0.20877200  0.20877200  0.12193300  1
  I  I13  1  0.88582700  0.08281800  0.68476100  1
  I  I14  1  0.20877200  0.20877200  0.37806700  1
  I  I15  1  0.49676800  0.49676800  0.36659500  1
  I  I16  1  0.15266500  0.33182800  0.75000000  1
  I  I17  1  0.51220300  0.66740400  0.04325700  1
  I  I18  1  0.33182800  0.15266500  0.75000000  1
  I  I19  1  0.46463300  0.21717000  0.18555100  1
  I  I20  1  0.14746500  0.67885000  0.25000000  1
  I  I21  1  0.53536700  0.78283000  0.81444900  1
  I  I22  1  0.51298700  0.51298700  0.75000000  1
  I  I23  1  0.12176300  0.57371400  0.81382000  1
  I  I24  1  0.86466900  0.04986000  0.55312000  1
  I  I25  1  0.67827300  0.13038800  0.37923500  1
  I  I26  1  0.13038800  0.67827300  0.12076500  1
  I  I27  1  0.38129900  0.86470800  0.04574500  1
  I  I28  1  0.86466900  0.04986000  0.94688000  1
  I  I29  1  0.12176300  0.57371400  0.68618000  1
  I  I30  1  0.80911100  0.80911100  0.03080800  1
  I  I31  1  0.83931500  0.66680200  0.13112000  1
  I  I32  1  0.53536700  0.78283000  0.68555100  1
  I  I33  1  0.11417300  0.91718200  0.31523900  1
  I  I34  1  0.46463300  0.21717000  0.31444900  1
  I  I35  1  0.88582700  0.08281800  0.81523900  1
  I  I36  1  0.83931500  0.66680200  0.36888000  1
  I  I37  1  0.33319800  0.16068500  0.63112000  1
  I  I38  1  0.19280900  0.48427500  0.05369500  1
  I  I39  1  0.57371400  0.12176300  0.68618000  1
  I  I40  1  0.19088900  0.19088900  0.96919200  1
  I  I41  1  0.11417300  0.91718200  0.18476100  1
  I  I42  1  0.13533100  0.95014000  0.05312000  1
  I  I43  1  0.48427500  0.19280900  0.44630500  1
  I  I44  1  0.33259600  0.48779700  0.54325700  1
  I  I45  1  0.21717000  0.46463300  0.18555100  1
  I  I46  1  0.08281800  0.88582700  0.68476100  1
  I  I47  1  0.16068500  0.33319800  0.63112000  1
  I  I48  1  0.51220300  0.66740400  0.45674300  1
  I  I49  1  0.67885000  0.14746500  0.25000000  1
  I  I50  1  0.42628600  0.87823700  0.18618000  1
  I  I51  1  0.80911100  0.80911100  0.46919200  1
  I  I52  1  0.66680200  0.83931500  0.36888000  1
  I  I53  1  0.13533100  0.95014000  0.44688000  1
  I  I54  1  0.78283000  0.53536700  0.81444900  1
  I  I55  1  0.21717000  0.46463300  0.31444900  1
  I  I56  1  0.50323200  0.50323200  0.63340500  1
  I  I57  1  0.91718200  0.11417300  0.18476100  1
  I  I58  1  0.49676800  0.49676800  0.13340500  1
  I  I59  1  0.79122800  0.79122800  0.87806700  1
  I  I60  1  0.48427500  0.19280900  0.05369500  1
  I  I61  1  0.51572500  0.80719100  0.55369500  1
  I  I62  1  0.66740400  0.51220300  0.04325700  1
  I  I63  1  0.85253500  0.32115000  0.75000000  1
  I  I64  1  0.13038800  0.67827300  0.37923500  1
  I  I65  1  0.04986000  0.86466900  0.94688000  1
  I  I66  1  0.61870100  0.13529200  0.95425500  1
  I  I67  1  0.86961200  0.32172700  0.62076500  1
  I  I68  1  0.48701300  0.48701300  0.25000000  1
  I  I69  1  0.32172700  0.86961200  0.87923500  1
  I  I70  1  0.32172700  0.86961200  0.62076500  1
  I  I71  1  0.19217500  0.19217500  0.25000000  1
  I  I72  1  0.13529200  0.61870100  0.95425500  1
  I  I73  1  0.80782500  0.80782500  0.75000000  1
  I  I74  1  0.86961200  0.32172700  0.87923500  1
  I  I75  1  0.61870100  0.13529200  0.54574500  1
  I  I76  1  0.04986000  0.86466900  0.55312000  1
  I  I77  1  0.57371400  0.12176300  0.81382000  1
  I  I78  1  0.66680200  0.83931500  0.13112000  1
  I  I79  1  0.13529200  0.61870100  0.54574500  1
  I  I80  1  0.48779700  0.33259600  0.95674300  1
  I  I81  1  0.67827300  0.13038800  0.12076500  1
  I  I82  1  0.51572500  0.80719100  0.94630500  1
  I  I83  1  0.79122800  0.79122800  0.62193300  1
  I  I84  1  0.19280900  0.48427500  0.44630500  1
  I  I85  1  0.42628600  0.87823700  0.31382000  1
  I  I86  1  0.84733500  0.66817200  0.25000000  1
  I  I87  1  0.50323200  0.50323200  0.86659500  1
  I  I88  1  0.78283000  0.53536700  0.68555100  1
  I  I89  1  0.66817200  0.84733500  0.25000000  1
  I  I90  1  0.95014000  0.13533100  0.05312000  1
  I  I91  1  0.86470800  0.38129900  0.04574500  1
  I  I92  1  0.38129900  0.86470800  0.45425500  1
  I  I93  1  0.80719100  0.51572500  0.94630500  1
  I  I94  1  0.16068500  0.33319800  0.86888000  1
  I  I95  1  0.86470800  0.38129900  0.45425500  1
loop_
_geom_bond_atom_site_label_1
_geom_bond_atom_site_label_2
_geom_bond_distance
_geom_bond_site_symmetry_2
Bi0 I11 2.983704 1_555
Bi0 I69 3.000658 1_545
Bi0 I0 3.121237 1_545
Bi0 I77 3.143852 1_555
Bi0 I5 3.269791 1_545
Bi0 I18 3.275099 1_555
Bi1 I4 3.025106 1_554
Bi1 I17 3.025106 1_555
Bi1 I38 3.135314 1_555
Bi1 I82 3.135314 1_554
Bi1 I27 3.158781 1_555
Bi1 I72 3.158781 1_554
Bi2 I31 2.983704 1_555
Bi2 I26 3.000658 1_655
Bi2 I41 3.121237 1_655
Bi2 I7 3.143852 1_555
Bi2 I20 3.269791 1_655
Bi2 I86 3.275099 1_555
Bi3 I15 2.984847 1_555
Bi3 I14 3.000010 1_555
Bi3 I34 3.136640 1_555
Bi3 I55 3.136640 1_555
Bi3 I71 3.257814 1_555
Bi3 I68 3.261067 1_555
Bi4 I36 2.983704 1_555
Bi4 I64 3.000658 1_655
Bi4 I33 3.121237 1_655
Bi4 I6 3.143852 1_555
Bi4 I20 3.269791 1_655
Bi4 I86 3.275099 1_555
Bi5 I80 3.025106 1_554
Bi5 I62 3.025106 1_555
Bi5 I60 3.135314 1_555
Bi5 I93 3.135314 1_554
Bi5 I91 3.158781 1_555
Bi5 I66 3.158781 1_554
Bi6 I37 2.983704 1_555
Bi6 I70 3.000658 1_545
Bi6 I46 3.121237 1_545
Bi6 I39 3.143852 1_555
Bi6 I5 3.269791 1_545
Bi6 I18 3.275099 1_555
Bi7 I10 3.038642 1_555
Bi7 I51 3.038642 1_445
Bi7 I53 3.121841 1_545
Bi7 I1 3.121841 1_455
Bi7 I76 3.121841 1_545
Bi7 I24 3.121841 1_455
Bi8 I94 2.983704 1_555
Bi8 I74 3.000658 1_455
Bi8 I35 3.121237 1_455
Bi8 I23 3.143852 1_555
Bi8 I63 3.269791 1_455
Bi8 I16 3.275099 1_555
Bi9 I2 3.025106 1_555
Bi9 I3 3.025106 1_555
Bi9 I9 3.135314 1_555
Bi9 I43 3.135314 1_555
Bi9 I75 3.158781 1_555
Bi9 I95 3.158781 1_555
Bi10 I44 3.025106 1_555
Bi10 I48 3.025106 1_555
Bi10 I61 3.135314 1_555
Bi10 I84 3.135314 1_555
Bi10 I79 3.158781 1_555
Bi10 I92 3.158781 1_555
Bi11 I56 2.984847 1_555
Bi11 I83 3.000010 1_555
Bi11 I32 3.136640 1_555
Bi11 I88 3.136640 1_555
Bi11 I73 3.257814 1_555
Bi11 I22 3.261067 1_555
Bi12 I87 2.984847 1_555
Bi12 I59 3.000010 1_555
Bi12 I21 3.136640 1_555
Bi12 I54 3.136640 1_555
Bi12 I73 3.257814 1_555
Bi12 I22 3.261067 1_555
Bi13 I58 2.984847 1_555
Bi13 I12 3.000010 1_555
Bi13 I19 3.136640 1_555
Bi13 I45 3.136640 1_555
Bi13 I71 3.257814 1_555
Bi13 I68 3.261067 1_555
Bi14 I78 2.983704 1_555
Bi14 I81 3.000658 1_565
Bi14 I57 3.121237 1_565
Bi14 I50 3.143852 1_555
Bi14 I49 3.269791 1_565
Bi14 I89 3.275099 1_555
Bi15 I52 2.983704 1_555
Bi15 I25 3.000658 1_565
Bi15 I8 3.121237 1_565
Bi15 I85 3.143852 1_555
Bi15 I49 3.269791 1_565
Bi15 I89 3.275099 1_555
Bi16 I40 3.038642 1_554
Bi16 I30 3.038642 1_445
Bi16 I42 3.121841 1_545
Bi16 I90 3.121841 1_455
Bi16 I65 3.121841 1_544
Bi16 I28 3.121841 1_454
Bi17 I47 2.983704 1_555
Bi17 I67 3.000658 1_455
Bi17 I13 3.121237 1_455
Bi17 I29 3.143852 1_555
Bi17 I63 3.269791 1_455
Bi17 I16 3.275099 1_555
I0 Tl36 3.610374 1_565
I1 Tl24 3.580239 1_545
I1 Tl27 3.590498 1_555
I2 Tl7 3.488436 1_555
I3 Tl38 3.488436 1_555
I4 Tl13 3.488436 1_555
I5 Tl33 3.559723 1_555
I8 Tl23 3.610374 1_545
I13 Tl36 3.610374 1_655
I16 Tl36 3.606772 1_555
I17 Tl1 3.488436 1_555
I18 Tl36 3.606772 1_555
I20 Tl2 3.559723 1_555
I24 Tl35 3.580239 1_655
I24 Tl3 3.590498 1_555
I28 Tl25 3.580239 1_655
I28 Tl16 3.590498 1_555
I33 Tl23 3.610374 1_455
I35 Tl36 3.610374 1_655
I41 Tl23 3.610374 1_455
I42 Tl20 3.580239 1_455
I42 Tl12 3.590498 1_555
I44 Tl8 3.488436 1_555
I46 Tl36 3.610374 1_565
I48 Tl34 3.488436 1_555
I49 Tl9 3.559723 1_555
I53 Tl24 3.580239 1_455
I53 Tl6 3.590498 1_555
I57 Tl23 3.610374 1_545
I62 Tl4 3.488436 1_555
I63 Tl39 3.559723 1_555
I65 Tl25 3.580239 1_565
I65 Tl31 3.590498 1_555
I71 Tl23 3.611094 1_445
I73 Tl36 3.611094 1_665
I76 Tl35 3.580239 1_565
I76 Tl26 3.590498 1_555
I80 Tl14 3.488436 1_555
I86 Tl23 3.606772 1_555
I89 Tl23 3.606772 1_555
I90 Tl20 3.580239 1_545
I90 Tl32 3.590498 1_555
