# generated using pymatgen
data_Ba(HO)2
_symmetry_space_group_name_H-M   'P 1'
_cell_length_a   8.26256200
_cell_length_b   7.04470100
_cell_length_c   10.76271272
_cell_angle_alpha   57.28996213
_cell_angle_beta   90.00000000
_cell_angle_gamma   90.00000000
_symmetry_Int_Tables_number   1
_chemical_formula_structural   Ba(HO)2
_chemical_formula_sum   'Ba8 H16 O16'
_cell_volume   527.12046009
_cell_formula_units_Z   8
loop_
 _symmetry_equiv_pos_site_id
 _symmetry_equiv_pos_as_xyz
  1  'x, y, z'
loop_
 _atom_site_type_symbol
 _atom_site_label
 _atom_site_symmetry_multiplicity
 _atom_site_fract_x
 _atom_site_fract_y
 _atom_site_fract_z
 _atom_site_occupancy
  Ba  Ba0  1  0.86619200  0.33204100  0.90443900  1
  Ba  Ba1  1  0.63380800  0.33204100  0.40443900  1
  Ba  Ba2  1  0.13380800  0.66795900  0.09556100  1
  Ba  Ba3  1  0.36619200  0.66795900  0.59556100  1
  Ba  Ba4  1  0.96030900  0.96579400  0.32884100  1
  Ba  Ba5  1  0.53969100  0.96579400  0.82884100  1
  Ba  Ba6  1  0.03969100  0.03420600  0.67115900  1
  Ba  Ba7  1  0.46030900  0.03420600  0.17115900  1
  H  H0  1  0.98353500  0.57281200  0.61661800  1
  H  H1  1  0.51646500  0.57281200  0.11661800  1
  H  H2  1  0.01646500  0.42718800  0.38338200  1
  H  H3  1  0.48353500  0.42718800  0.88338200  1
  H  H4  1  0.19915300  0.23916700  0.17608400  1
  H  H5  1  0.30084700  0.23916700  0.67608400  1
  H  H6  1  0.80084700  0.76083300  0.82391600  1
  H  H7  1  0.69915300  0.76083300  0.32391600  1
  H  H8  1  0.18614600  0.18049100  0.92477100  1
  H  H9  1  0.31385400  0.18049100  0.42477100  1
  H  H10  1  0.81385400  0.81950900  0.07522900  1
  H  H11  1  0.68614600  0.81950900  0.57522900  1
  H  H12  1  0.24802800  0.55003800  0.39795300  1
  H  H13  1  0.25197200  0.55003800  0.89795300  1
  H  H14  1  0.75197200  0.44996200  0.60204700  1
  H  H15  1  0.74802800  0.44996200  0.10204700  1
  O  O0  1  0.03135500  0.69432500  0.62307800  1
  O  O1  1  0.46864500  0.69432500  0.12307800  1
  O  O2  1  0.96864500  0.30567500  0.37692200  1
  O  O3  1  0.53135500  0.30567500  0.87692200  1
  O  O4  1  0.14416600  0.27197100  0.08498600  1
  O  O5  1  0.35583400  0.27197100  0.58498600  1
  O  O6  1  0.85583400  0.72802900  0.91501400  1
  O  O7  1  0.64416600  0.72802900  0.41501400  1
  O  O8  1  0.15804400  0.11874000  0.86526500  1
  O  O9  1  0.34195600  0.11874000  0.36526500  1
  O  O10  1  0.84195600  0.88126000  0.13473500  1
  O  O11  1  0.65804400  0.88126000  0.63473500  1
  O  O12  1  0.19718800  0.69843800  0.33472100  1
  O  O13  1  0.30281200  0.69843800  0.83472100  1
  O  O14  1  0.80281200  0.30156200  0.66527900  1
  O  O15  1  0.69718800  0.30156200  0.16527900  1
loop_
_geom_bond_atom_site_label_1
_geom_bond_atom_site_label_2
_geom_bond_distance
_geom_bond_site_symmetry_2
Ba0 H6 2.708862 1_555
Ba0 O14 2.746488 1_555
Ba0 H0 2.781058 1_555
Ba0 O10 2.785901 1_546
Ba0 O3 2.799250 1_555
Ba0 H8 2.814967 1_655
Ba0 H15 2.841844 1_556
Ba0 O4 2.888160 1_656
Ba1 H7 2.708862 1_555
Ba1 O15 2.746488 1_555
Ba1 H1 2.781058 1_555
Ba1 O11 2.785901 1_545
Ba1 O2 2.799250 1_555
Ba1 H9 2.814967 1_555
Ba1 H14 2.841844 1_555
Ba1 O5 2.888160 1_555
Ba2 H4 2.708862 1_555
Ba2 O12 2.746488 1_555
Ba2 H2 2.781058 1_555
Ba2 O8 2.785901 1_564
Ba2 O1 2.799250 1_555
Ba2 H10 2.814967 1_455
Ba2 H13 2.841844 1_554
Ba2 O6 2.888160 1_454
Ba3 H5 2.708862 1_555
Ba3 O13 2.746488 1_555
Ba3 H3 2.781058 1_555
Ba3 O9 2.785901 1_565
Ba3 O0 2.799250 1_555
Ba3 H11 2.814967 1_555
Ba3 H12 2.841844 1_555
Ba3 O7 2.888160 1_555
Ba4 H7 2.612761 1_555
Ba4 H4 2.623816 1_665
Ba4 O10 2.649507 1_555
Ba4 O12 2.693192 1_655
Ba4 O2 2.710095 1_565
Ba4 O0 2.735885 1_655
Ba4 O4 2.780305 1_665
Ba4 H0 2.833182 1_555
Ba4 O15 2.986664 1_565
Ba5 H6 2.612761 1_555
Ba5 H5 2.623816 1_565
Ba5 O11 2.649507 1_555
Ba5 O13 2.693192 1_555
Ba5 O3 2.710095 1_565
Ba5 O1 2.735885 1_556
Ba5 O5 2.780305 1_565
Ba5 H1 2.833182 1_556
Ba5 O14 2.986664 1_565
Ba6 H5 2.612761 1_555
Ba6 H6 2.623816 1_445
Ba6 O8 2.649507 1_555
Ba6 O14 2.693192 1_455
Ba6 O0 2.710095 1_545
Ba6 O2 2.735885 1_455
Ba6 O6 2.780305 1_445
Ba6 H2 2.833182 1_555
Ba6 O13 2.986664 1_545
Ba7 H4 2.612761 1_555
Ba7 H7 2.623816 1_545
Ba7 O9 2.649507 1_555
Ba7 O15 2.693192 1_555
Ba7 O1 2.710095 1_545
Ba7 O3 2.735885 1_554
Ba7 O7 2.780305 1_545
Ba7 H3 2.833182 1_554
Ba7 O12 2.986664 1_545
H0 O0 0.978800 1_655
H1 O1 0.978800 1_555
H2 O2 0.978800 1_455
H3 O3 0.978800 1_555
H4 O4 0.988052 1_555
H5 O5 0.988052 1_555
H6 O6 0.988052 1_555
H7 O7 0.988052 1_555
H8 O8 0.976952 1_555
H9 O9 0.976952 1_555
H10 O10 0.976952 1_555
H11 O11 0.976952 1_555
H12 O12 0.981630 1_555
H13 O13 0.981630 1_555
H14 O14 0.981630 1_555
H15 O15 0.981630 1_555
