# generated using pymatgen
data_Na2H20CO13
_symmetry_space_group_name_H-M   'P 1'
_cell_length_a   7.79079546
_cell_length_b   7.79079546
_cell_length_c   12.60564566
_cell_angle_alpha   69.02768321
_cell_angle_beta   69.02768321
_cell_angle_gamma   69.72871944
_symmetry_Int_Tables_number   1
_chemical_formula_structural   Na2H20CO13
_chemical_formula_sum   'Na4 H40 C2 O26'
_cell_volume   645.84353717
_cell_formula_units_Z   2
loop_
 _symmetry_equiv_pos_site_id
 _symmetry_equiv_pos_as_xyz
  1  'x, y, z'
loop_
 _atom_site_type_symbol
 _atom_site_label
 _atom_site_symmetry_multiplicity
 _atom_site_fract_x
 _atom_site_fract_y
 _atom_site_fract_z
 _atom_site_occupancy
  Na  Na0  1  0.83406400  0.89792100  0.62785500  1
  Na  Na1  1  0.89792100  0.83406400  0.12785500  1
  Na  Na2  1  0.16660100  0.09694900  0.37406700  1
  Na  Na3  1  0.09694900  0.16660100  0.87406700  1
  H  H0  1  0.42957200  0.93779000  0.18034700  1
  H  H1  1  0.93779000  0.42957200  0.68034700  1
  H  H2  1  0.37968100  0.16277000  0.12852000  1
  H  H3  1  0.16277000  0.37968100  0.62852000  1
  H  H4  1  0.61943800  0.84643200  0.87912000  1
  H  H5  1  0.84643200  0.61943800  0.37912000  1
  H  H6  1  0.56821400  0.06752700  0.81235200  1
  H  H7  1  0.06752700  0.56821400  0.31235200  1
  H  H8  1  0.84989500  0.30338300  0.52047700  1
  H  H9  1  0.30338300  0.84989500  0.02047700  1
  H  H10  1  0.99258100  0.21361200  0.59768600  1
  H  H11  1  0.21361200  0.99258100  0.09768600  1
  H  H12  1  0.02318300  0.76916300  0.40189800  1
  H  H13  1  0.76916300  0.02318300  0.90189800  1
  H  H14  1  0.16804700  0.70116600  0.47862900  1
  H  H15  1  0.70116600  0.16804700  0.97862900  1
  H  H16  1  0.36399400  0.40515900  0.34910300  1
  H  H17  1  0.40515900  0.36399400  0.84910300  1
  H  H18  1  0.36672600  0.38829500  0.22721300  1
  H  H19  1  0.38829500  0.36672600  0.72721300  1
  H  H20  1  0.68162600  0.59651100  0.61720000  1
  H  H21  1  0.59651100  0.68162600  0.11720000  1
  H  H22  1  0.63409900  0.58786600  0.75263700  1
  H  H23  1  0.58786600  0.63409900  0.25263700  1
  H  H24  1  0.20454200  0.66433400  0.65954200  1
  H  H25  1  0.66433400  0.20454200  0.15954200  1
  H  H26  1  0.14946300  0.80823600  0.73635100  1
  H  H27  1  0.80823600  0.14946300  0.23635100  1
  H  H28  1  0.77580100  0.34213100  0.32824100  1
  H  H29  1  0.34213100  0.77580100  0.82824100  1
  H  H30  1  0.95666700  0.36340900  0.21730200  1
  H  H31  1  0.36340900  0.95666700  0.71730200  1
  H  H32  1  0.54254600  0.81165100  0.43970900  1
  H  H33  1  0.81165100  0.54254600  0.93970900  1
  H  H34  1  0.57018700  0.00391700  0.34094900  1
  H  H35  1  0.00391700  0.57018700  0.84094900  1
  H  H36  1  0.48384000  0.19340600  0.56344500  1
  H  H37  1  0.19340600  0.48384000  0.06344500  1
  H  H38  1  0.51183000  0.01531300  0.52221000  1
  H  H39  1  0.01531300  0.51183100  0.02221000  1
  C  C0  1  0.51462100  0.50269500  0.48558400  1
  C  C1  1  0.50269500  0.51462100  0.98558400  1
  O  O0  1  0.32216000  0.05483700  0.17627800  1
  O  O1  1  0.05483700  0.32216000  0.67627800  1
  O  O2  1  0.67544400  0.95282900  0.82252200  1
  O  O3  1  0.95282900  0.67544400  0.32252200  1
  O  O4  1  0.93979200  0.18379600  0.54703100  1
  O  O5  1  0.18379600  0.93979200  0.04703100  1
  O  O6  1  0.06873100  0.80973700  0.45179400  1
  O  O7  1  0.80973700  0.06873100  0.95179400  1
  O  O8  1  0.28597800  0.38669900  0.30850700  1
  O  O9  1  0.38669900  0.28597800  0.80850700  1
  O  O10  1  0.73093800  0.60967800  0.67586800  1
  O  O11  1  0.60967800  0.73093800  0.17586800  1
  O  O12  1  0.09633100  0.73189200  0.71238300  1
  O  O13  1  0.73189200  0.09633100  0.21238300  1
  O  O14  1  0.89925600  0.26949900  0.28708800  1
  O  O15  1  0.26949900  0.89925600  0.78708800  1
  O  O16  1  0.48400500  0.94967700  0.41773300  1
  O  O17  1  0.94967700  0.48400500  0.91773300  1
  O  O18  1  0.52502900  0.05436700  0.58621300  1
  O  O19  1  0.05436700  0.52502900  0.08621300  1
  O  O20  1  0.64861600  0.55758300  0.49410700  1
  O  O21  1  0.55758300  0.64861600  0.99410700  1
  O  O22  1  0.53574000  0.45649500  0.39176800  1
  O  O23  1  0.45649500  0.53574000  0.89176800  1
  O  O24  1  0.36001400  0.49303900  0.57199800  1
  O  O25  1  0.49303900  0.36001400  0.07199800  1
loop_
_geom_bond_atom_site_label_1
_geom_bond_atom_site_label_2
_geom_bond_distance
_geom_bond_site_symmetry_2
Na0 O4 2.392290 1_565
Na0 O12 2.392473 1_655
Na0 O2 2.438472 1_555
Na0 O18 2.443578 1_565
Na0 O10 2.446206 1_555
Na0 O6 2.461024 1_655
Na1 O5 2.392290 1_655
Na1 O13 2.392473 1_565
Na1 O3 2.438472 1_555
Na1 O19 2.443578 1_655
Na1 O11 2.446206 1_555
Na1 O7 2.461024 1_564
Na2 O6 2.371991 1_545
Na2 O4 2.409078 1_455
Na2 O0 2.437167 1_555
Na2 O14 2.446824 1_455
Na2 O8 2.492567 1_555
Na2 O16 2.508100 1_545
Na3 O7 2.371991 1_455
Na3 O5 2.409078 1_546
Na3 O1 2.437167 1_555
Na3 O15 2.446824 1_545
Na3 O9 2.492567 1_555
Na3 O17 2.508100 1_455
H0 O0 1.001460 1_565
H1 O1 1.001460 1_655
H2 O0 0.987906 1_555
H3 O1 0.987906 1_555
H4 O2 0.995463 1_555
H5 O3 0.995463 1_555
H6 O2 0.995099 1_545
H7 O3 0.995099 1_455
H8 O4 0.981331 1_555
H9 O5 0.981331 1_555
H10 O4 0.995587 1_555
H11 O5 0.995587 1_555
H12 O6 1.000633 1_555
H13 O7 1.000633 1_555
H14 O6 0.978580 1_555
H15 O7 0.978580 1_555
H16 O8 0.993930 1_555
H17 O9 0.993930 1_555
H18 O8 0.990390 1_555
H19 O9 0.990390 1_555
H20 O10 0.995010 1_555
H21 O11 0.995010 1_555
H22 O10 0.991491 1_555
H23 O11 0.991491 1_555
H24 O12 0.986384 1_555
H25 O13 0.986384 1_555
H26 O12 1.002576 1_555
H27 O13 1.002576 1_555
H28 O14 0.995103 1_555
H29 O15 0.995103 1_555
H30 O14 0.996789 1_555
H31 O15 0.996789 1_555
H32 O16 0.989167 1_555
H33 O17 0.989167 1_555
H34 O16 1.002419 1_545
H35 O17 1.002419 1_455
H36 O18 0.980427 1_555
H37 O19 0.980427 1_555
H38 O18 1.005417 1_555
H39 O19 1.005413 1_555
C0 O22 1.295984 1_555
C0 O20 1.306403 1_555
C0 O24 1.306901 1_555
C1 O23 1.295984 1_555
C1 O21 1.306403 1_555
C1 O25 1.306901 1_556
