# generated using pymatgen
data_BaZn13
_symmetry_space_group_name_H-M   'P 1'
_cell_length_a   8.63448880
_cell_length_b   8.63448910
_cell_length_c   8.63448866
_cell_angle_alpha   59.99999778
_cell_angle_beta   59.99999661
_cell_angle_gamma   60.00000336
_symmetry_Int_Tables_number   1
_chemical_formula_structural   BaZn13
_chemical_formula_sum   'Ba2 Zn26'
_cell_volume   455.19228660
_cell_formula_units_Z   2
loop_
 _symmetry_equiv_pos_site_id
 _symmetry_equiv_pos_as_xyz
  1  'x, y, z'
loop_
 _atom_site_type_symbol
 _atom_site_label
 _atom_site_symmetry_multiplicity
 _atom_site_fract_x
 _atom_site_fract_y
 _atom_site_fract_z
 _atom_site_occupancy
  Ba  Ba0  1  0.75000000  0.75000000  0.75000000  1
  Ba  Ba1  1  0.25000000  0.25000000  0.25000000  1
  Zn  Zn0  1  0.79823145  0.55896681  0.44103319  1
  Zn  Zn1  1  0.94103319  0.70176855  0.05896681  1
  Zn  Zn2  1  0.44103319  0.79823145  0.55896681  1
  Zn  Zn3  1  0.55896681  0.44103319  0.79823145  1
  Zn  Zn4  1  0.79823145  0.44103319  0.20176855  1
  Zn  Zn5  1  0.05896681  0.94103319  0.70176855  1
  Zn  Zn6  1  0.55896681  0.20176855  0.44103319  1
  Zn  Zn7  1  0.94103319  0.29823145  0.70176855  1
  Zn  Zn8  1  0.20176855  0.79823145  0.44103319  1
  Zn  Zn9  1  0.70176855  0.05896681  0.94103319  1
  Zn  Zn10  1  0.29823145  0.94103319  0.05896681  1
  Zn  Zn11  1  0.29823145  0.70176855  0.94103319  1
  Zn  Zn12  1  0.29823145  0.05896681  0.70176855  1
  Zn  Zn13  1  0.44103319  0.55896681  0.20176855  1
  Zn  Zn14  1  0.44103319  0.20176855  0.79823145  1
  Zn  Zn15  1  0.70176855  0.94103319  0.29823145  1
  Zn  Zn16  1  0.70176855  0.29823145  0.05896681  1
  Zn  Zn17  1  0.79823145  0.20176855  0.55896681  1
  Zn  Zn18  1  0.94103319  0.05896681  0.29823145  1
  Zn  Zn19  1  0.55896681  0.79823145  0.20176855  1
  Zn  Zn20  1  0.05896681  0.70176855  0.29823145  1
  Zn  Zn21  1  0.20176855  0.55896681  0.79823145  1
  Zn  Zn22  1  0.05896681  0.29823145  0.94103319  1
  Zn  Zn23  1  0.20176855  0.44103319  0.55896681  1
  Zn  Zn24  1  0.00000000  0.00000000  -0.00000000  1
  Zn  Zn25  1  0.50000000  0.50000000  0.50000000  1
loop_
_geom_bond_atom_site_label_1
_geom_bond_atom_site_label_2
_geom_bond_distance
_geom_bond_site_symmetry_2
Ba0 Zn13 3.551574 1_556
Ba0 Zn18 3.551574 1_565
Ba0 Zn8 3.551574 1_655
Ba0 Zn20 3.551574 1_655
Ba0 Zn19 3.551574 1_556
Ba0 Zn11 3.551574 1_555
Ba0 Zn4 3.551574 1_556
Ba0 Zn15 3.551574 1_555
Ba0 Zn5 3.551575 1_655
Ba0 Zn16 3.551575 1_556
Ba0 Zn10 3.551575 1_556
Ba0 Zn3 3.551575 1_555
Ba0 Zn1 3.551575 1_556
Ba0 Zn17 3.551575 1_565
Ba0 Zn0 3.551575 1_555
Ba0 Zn2 3.551575 1_555
Ba0 Zn21 3.551575 1_655
Ba0 Zn6 3.551575 1_565
Ba0 Zn9 3.551575 1_565
Ba0 Zn23 3.551575 1_655
Ba0 Zn12 3.551575 1_565
Ba0 Zn22 3.551575 1_655
Ba0 Zn7 3.551575 1_555
Ba0 Zn14 3.551575 1_565
Ba1 Zn3 3.551574 1_554
Ba1 Zn5 3.551574 1_545
Ba1 Zn17 3.551574 1_455
Ba1 Zn7 3.551574 1_455
Ba1 Zn14 3.551574 1_554
Ba1 Zn16 3.551574 1_555
Ba1 Zn21 3.551574 1_554
Ba1 Zn12 3.551574 1_555
Ba1 Zn18 3.551575 1_455
Ba1 Zn11 3.551575 1_554
Ba1 Zn9 3.551575 1_554
Ba1 Zn13 3.551575 1_555
Ba1 Zn22 3.551575 1_554
Ba1 Zn8 3.551575 1_545
Ba1 Zn23 3.551575 1_555
Ba1 Zn6 3.551575 1_555
Ba1 Zn4 3.551575 1_455
Ba1 Zn2 3.551575 1_545
Ba1 Zn10 3.551575 1_545
Ba1 Zn0 3.551575 1_455
Ba1 Zn15 3.551575 1_545
Ba1 Zn1 3.551575 1_455
Ba1 Zn20 3.551575 1_555
Ba1 Zn19 3.551575 1_545
Zn0 Zn20 2.566859 1_655
Zn0 Zn7 2.566859 1_555
Zn0 Zn25 2.624928 1_555
Zn0 Zn1 2.703467 1_555
Zn0 Zn15 2.703467 1_555
Zn0 Zn3 2.721895 1_555
Zn0 Zn4 2.721895 1_555
Zn0 Zn17 2.721895 1_555
Zn0 Zn2 2.721895 1_555
Zn0 Zn19 2.921663 1_555
Zn1 Zn4 2.566859 1_555
Zn1 Zn21 2.566859 1_654
Zn1 Zn24 2.624928 1_665
Zn1 Zn19 2.703467 1_555
Zn1 Zn5 2.721895 1_654
Zn1 Zn11 2.721895 1_654
Zn1 Zn20 2.721895 1_655
Zn1 Zn9 2.721895 1_564
Zn1 Zn15 2.921663 1_555
Zn2 Zn25 2.624928 1_555
Zn2 Zn5 2.703467 1_555
Zn2 Zn8 2.721895 1_555
Zn2 Zn3 2.721895 1_555
Zn2 Zn21 2.921663 1_555
Zn3 Zn7 2.703467 1_555
Zn3 Zn9 2.703467 1_555
Zn4 Zn6 2.921663 1_555
Zn5 Zn8 2.566859 1_555
Zn5 Zn9 2.721895 1_465
Zn5 Zn7 2.721895 1_465
Zn7 Zn9 2.921663 1_555
Zn10 Zn14 2.566859 1_564
Zn10 Zn19 2.566859 1_555
Zn10 Zn24 2.624928 1_565
Zn10 Zn8 2.703467 1_555
Zn10 Zn13 2.703467 1_555
Zn10 Zn12 2.721895 1_564
Zn10 Zn18 2.721895 1_465
Zn10 Zn11 2.721895 1_554
Zn10 Zn22 2.721895 1_564
Zn10 Zn20 2.921663 1_555
Zn11 Zn13 2.566859 1_556
Zn11 Zn3 2.566859 1_555
Zn11 Zn24 2.624929 1_566
Zn11 Zn2 2.703467 1_555
Zn11 Zn21 2.703467 1_555
Zn11 Zn20 2.721895 1_556
Zn11 Zn12 2.721895 1_565
Zn11 Zn5 2.921663 1_555
Zn12 Zn6 2.566859 1_555
Zn12 Zn2 2.566859 1_545
Zn12 Zn24 2.624928 1_556
Zn12 Zn14 2.703467 1_555
Zn12 Zn23 2.703467 1_555
Zn12 Zn5 2.721895 1_545
Zn12 Zn7 2.721895 1_455
Zn12 Zn22 2.921663 1_555
Zn13 Zn16 2.566859 1_555
Zn13 Zn25 2.624928 1_555
Zn13 Zn20 2.703467 1_555
Zn13 Zn23 2.721895 1_555
Zn13 Zn19 2.721895 1_555
Zn13 Zn4 2.721895 1_555
Zn13 Zn6 2.721895 1_555
Zn13 Zn8 2.921663 1_555
Zn14 Zn9 2.566859 1_555
Zn14 Zn25 2.624928 1_555
Zn14 Zn22 2.703467 1_555
Zn14 Zn17 2.721895 1_555
Zn14 Zn6 2.721895 1_555
Zn14 Zn3 2.721895 1_555
Zn14 Zn21 2.721895 1_555
Zn14 Zn23 2.921663 1_555
Zn15 Zn2 2.566859 1_555
Zn15 Zn6 2.566859 1_565
Zn15 Zn24 2.624928 1_665
Zn15 Zn19 2.703467 1_555
Zn15 Zn9 2.721895 1_564
Zn15 Zn18 2.721895 1_565
Zn15 Zn16 2.721895 1_565
Zn15 Zn20 2.721895 1_655
Zn16 Zn3 2.566859 1_554
Zn16 Zn24 2.624929 1_655
Zn16 Zn6 2.703467 1_555
Zn16 Zn4 2.703467 1_555
Zn16 Zn7 2.721895 1_554
Zn16 Zn22 2.721895 1_654
Zn16 Zn9 2.721895 1_554
Zn16 Zn18 2.921663 1_555
Zn17 Zn18 2.566859 1_555
Zn17 Zn5 2.566859 1_645
Zn17 Zn25 2.624929 1_555
Zn17 Zn9 2.703467 1_555
Zn17 Zn7 2.703467 1_555
Zn17 Zn4 2.721895 1_555
Zn17 Zn6 2.721895 1_555
Zn17 Zn3 2.921663 1_555
Zn18 Zn8 2.566859 1_645
Zn18 Zn24 2.624928 1_655
Zn18 Zn6 2.703467 1_555
Zn18 Zn4 2.703467 1_555
Zn18 Zn22 2.721895 1_654
Zn18 Zn20 2.721895 1_645
Zn19 Zn9 2.566859 1_564
Zn19 Zn25 2.624928 1_555
Zn19 Zn8 2.721895 1_555
Zn19 Zn2 2.721895 1_555
Zn19 Zn4 2.721895 1_555
Zn20 Zn23 2.566859 1_555
Zn20 Zn24 2.624928 1_565
Zn20 Zn8 2.703467 1_555
Zn21 Zn22 2.566859 1_555
Zn21 Zn25 2.624928 1_555
Zn21 Zn5 2.703467 1_555
Zn21 Zn8 2.721895 1_555
Zn21 Zn23 2.721895 1_555
Zn21 Zn3 2.721895 1_555
Zn22 Zn4 2.566859 1_456
Zn22 Zn24 2.624928 1_556
Zn22 Zn23 2.703467 1_555
Zn22 Zn7 2.721895 1_455
Zn23 Zn7 2.566859 1_455
Zn23 Zn25 2.624928 1_555
Zn23 Zn8 2.721895 1_555
Zn23 Zn6 2.721895 1_555
Zn24 Zn5 2.624928 1_544
Zn24 Zn7 2.624928 1_454
Zn24 Zn9 2.624928 1_454
Zn25 Zn4 2.624928 1_555
Zn25 Zn3 2.624928 1_555
Zn25 Zn6 2.624928 1_555
Zn25 Zn8 2.624929 1_555
