# generated using pymatgen
data_Tb14(PbSe8)3
_symmetry_space_group_name_H-M   'P 1'
_cell_length_a   7.64666784
_cell_length_b   7.64666784
_cell_length_c   19.77297873
_cell_angle_alpha   75.03572307
_cell_angle_beta   75.03572307
_cell_angle_gamma   70.22903144
_symmetry_Int_Tables_number   1
_chemical_formula_structural   Tb14(PbSe8)3
_chemical_formula_sum   'Tb14 Pb3 Se24'
_cell_volume   1032.37400079
_cell_formula_units_Z   1
loop_
 _symmetry_equiv_pos_site_id
 _symmetry_equiv_pos_as_xyz
  1  'x, y, z'
loop_
 _atom_site_type_symbol
 _atom_site_label
 _atom_site_symmetry_multiplicity
 _atom_site_fract_x
 _atom_site_fract_y
 _atom_site_fract_z
 _atom_site_occupancy
  Tb  Tb0  1  0.83496400  0.83092000  0.71250800  1
  Tb  Tb1  1  0.54167100  0.03990400  0.54010300  1
  Tb  Tb2  1  0.50242100  0.50504700  0.37198600  1
  Tb  Tb3  1  0.49495300  0.49757900  0.62801400  1
  Tb  Tb4  1  0.20918800  0.70983600  0.19894600  1
  Tb  Tb5  1  0.18082800  0.17106500  0.03894800  1
  Tb  Tb6  1  0.96009600  0.45832900  0.45989700  1
  Tb  Tb7  1  0.16908000  0.16503600  0.28749200  1
  Tb  Tb8  1  0.87056600  0.38259400  0.87774400  1
  Tb  Tb9  1  0.79476700  0.54456000  0.16315900  1
  Tb  Tb10  1  0.61740600  0.12943400  0.12225600  1
  Tb  Tb11  1  0.82893500  0.81917200  0.96105200  1
  Tb  Tb12  1  0.45544000  0.20523300  0.83684100  1
  Tb  Tb13  1  0.29016400  0.79081200  0.80105400  1
  Pb  Pb0  1  0.12473200  0.87526800  0.50000000  1
  Pb  Pb1  1  0.04103700  0.28967900  0.66772000  1
  Pb  Pb2  1  0.71032100  0.95896300  0.33228000  1
  Se  Se0  1  0.81844100  0.19405100  0.58280500  1
  Se  Se1  1  0.81792400  0.69242500  0.58789200  1
  Se  Se2  1  0.49634500  0.85531100  0.24656000  1
  Se  Se3  1  0.49845300  0.37125700  0.24567900  1
  Se  Se4  1  0.57738300  0.70352800  0.46711300  1
  Se  Se5  1  0.30757500  0.18207600  0.41210800  1
  Se  Se6  1  0.24734900  0.87537800  0.63543000  1
  Se  Se7  1  0.16390900  0.51678200  0.91777300  1
  Se  Se8  1  0.46062800  0.09006300  0.70635800  1
  Se  Se9  1  0.12462200  0.75265100  0.36457000  1
  Se  Se10  1  0.95899200  0.09731500  0.19808700  1
  Se  Se11  1  0.29647200  0.42261700  0.53288700  1
  Se  Se12  1  0.15969900  0.03702000  0.91575500  1
  Se  Se13  1  0.23253800  0.38124100  0.13390700  1
  Se  Se14  1  0.96298000  0.84030100  0.08424500  1
  Se  Se15  1  0.90993700  0.53937200  0.29364200  1
  Se  Se16  1  0.79861400  0.41747400  0.03707400  1
  Se  Se17  1  0.80594900  0.18155900  0.41719500  1
  Se  Se18  1  0.90268500  0.04100800  0.80191300  1
  Se  Se19  1  0.62874300  0.50154700  0.75432100  1
  Se  Se20  1  0.58252600  0.20138600  0.96292600  1
  Se  Se21  1  0.48321800  0.83609100  0.08222700  1
  Se  Se22  1  0.61875900  0.76746200  0.86609300  1
  Se  Se23  1  0.14468900  0.50365500  0.75344000  1
loop_
_geom_bond_atom_site_label_1
_geom_bond_atom_site_label_2
_geom_bond_distance
_geom_bond_site_symmetry_2
Pb0 Se5 3.055762 1_565
Pb0 Se1 3.055762 1_455
Pb0 Se9 3.057511 1_555
Pb0 Se6 3.057511 1_555
Pb0 Se17 3.213507 1_465
Pb0 Se0 3.213507 1_465
Pb0 Se4 3.214246 1_555
Pb0 Se11 3.214246 1_555
Pb1 Se18 3.013479 1_455
Pb1 Se23 3.030101 1_555
Pb1 Se0 3.033649 1_455
Pb1 Se11 3.034902 1_555
Pb1 Se6 3.174281 1_545
Pb1 Se1 3.195661 1_455
Pb1 Se8 3.249358 1_555
Pb1 Se19 3.268869 1_455
Pb2 Se10 3.013479 1_565
Pb2 Se2 3.030101 1_555
Pb2 Se17 3.033649 1_565
Pb2 Se4 3.034902 1_555
Pb2 Se9 3.174281 1_655
Pb2 Se5 3.195661 1_565
Pb2 Se15 3.249358 1_555
Pb2 Se3 3.268869 1_565
Se0 Tb3 2.889680 1_555
Se0 Tb6 2.957765 1_555
Se0 Tb1 3.115405 1_555
Se0 Tb0 3.248975 1_545
Se1 Tb1 2.890012 1_565
Se1 Tb0 2.969298 1_555
Se1 Tb3 3.132970 1_555
Se1 Tb6 3.223897 1_555
Se2 Tb7 2.908773 1_565
Se2 Tb10 2.961219 1_565
Se2 Tb2 3.141863 1_555
Se2 Tb9 3.159909 1_555
Se2 Tb4 3.194722 1_555
Se3 Tb4 2.897448 1_555
Se3 Tb9 2.925369 1_555
Se3 Tb2 2.943555 1_555
Se3 Tb10 3.201355 1_555
Se3 Tb7 3.232918 1_555
Se4 Tb6 2.882798 1_555
Se4 Tb2 2.964732 1_555
Se4 Tb1 3.164152 1_565
Se4 Tb3 3.169809 1_555
Se5 Tb6 2.890012 1_455
Se5 Tb7 2.969298 1_555
Se5 Tb2 3.132970 1_555
Se5 Tb1 3.223897 1_555
Se6 Tb3 2.885662 1_555
Se6 Tb1 2.949714 1_565
Se6 Tb0 3.218354 1_455
Se6 Tb13 3.250693 1_555
Se7 Tb13 2.893028 1_555
Se7 Tb11 2.919401 1_455
Se7 Tb5 3.066538 1_556
Se7 Tb8 3.099063 1_455
Se7 Tb12 3.120808 1_555
Se8 Tb0 2.890141 1_545
Se8 Tb12 2.920730 1_555
Se8 Tb13 2.997656 1_545
Se8 Tb3 3.166912 1_555
Se8 Tb1 3.282702 1_555
Se9 Tb2 2.885662 1_555
Se9 Tb6 2.949714 1_455
Se9 Tb7 3.218354 1_565
Se9 Tb4 3.250693 1_555
Se10 Tb7 2.911398 1_655
Se10 Tb4 2.931772 1_645
Se10 Tb5 3.173498 1_655
Se10 Tb9 3.173732 1_555
Se10 Tb10 3.244912 1_555
Se11 Tb1 2.882798 1_555
Se11 Tb3 2.964732 1_555
Se11 Tb6 3.164152 1_455
Se11 Tb2 3.169809 1_555
Se12 Tb12 2.883116 1_555
Se12 Tb8 2.883709 1_455
Se12 Tb5 2.935132 1_556
Se12 Tb13 3.073990 1_545
Se12 Tb11 3.299111 1_445
Se13 Tb10 2.909797 1_555
Se13 Tb5 2.938786 1_555
Se13 Tb4 3.040695 1_555
Se13 Tb7 3.062666 1_555
Se13 Tb9 3.105603 1_455
Se14 Tb9 2.883116 1_555
Se14 Tb10 2.883709 1_565
Se14 Tb11 2.935132 1_554
Se14 Tb4 3.073990 1_655
Se14 Tb5 3.299111 1_665
Se15 Tb7 2.890141 1_655
Se15 Tb9 2.920730 1_555
Se15 Tb4 2.997656 1_655
Se15 Tb2 3.166912 1_555
Se15 Tb6 3.282702 1_555
Se16 Tb9 2.890437 1_555
Se16 Tb5 2.896187 1_655
Se16 Tb10 2.924323 1_555
Se16 Tb11 3.108965 1_554
Se16 Tb8 3.120667 1_554
Se17 Tb2 2.889680 1_555
Se17 Tb1 2.957765 1_555
Se17 Tb6 3.115405 1_555
Se17 Tb7 3.248975 1_655
Se18 Tb0 2.911398 1_545
Se18 Tb13 2.931772 1_645
Se18 Tb11 3.173498 1_545
Se18 Tb12 3.173732 1_555
Se18 Tb8 3.244912 1_555
Se19 Tb13 2.897448 1_555
Se19 Tb12 2.925369 1_555
Se19 Tb3 2.943555 1_555
Se19 Tb8 3.201355 1_555
Se19 Tb0 3.232918 1_555
Se20 Tb12 2.890437 1_555
Se20 Tb11 2.896187 1_545
Se20 Tb8 2.924323 1_555
Se20 Tb5 3.108965 1_556
Se20 Tb10 3.120667 1_556
Se21 Tb4 2.893028 1_555
Se21 Tb5 2.919401 1_565
Se21 Tb11 3.066538 1_554
Se21 Tb10 3.099063 1_565
Se21 Tb9 3.120808 1_555
Se22 Tb8 2.909797 1_555
Se22 Tb11 2.938786 1_555
Se22 Tb13 3.040695 1_555
Se22 Tb0 3.062666 1_555
Se22 Tb12 3.105603 1_565
Se23 Tb0 2.908773 1_455
Se23 Tb8 2.961219 1_455
Se23 Tb3 3.141863 1_555
Se23 Tb12 3.159909 1_555
Se23 Tb13 3.194722 1_555
