# generated using pymatgen
data_Zr(Se2Cl3)2
_symmetry_space_group_name_H-M   'P 1'
_cell_length_a   11.00808973
_cell_length_b   11.00808973
_cell_length_c   10.69961768
_cell_angle_alpha   90.00000000
_cell_angle_beta   90.00000000
_cell_angle_gamma   90.00000000
_symmetry_Int_Tables_number   1
_chemical_formula_structural   Zr(Se2Cl3)2
_chemical_formula_sum   'Zr4 Se16 Cl24'
_cell_volume   1296.55869390
_cell_formula_units_Z   4
loop_
 _symmetry_equiv_pos_site_id
 _symmetry_equiv_pos_as_xyz
  1  'x, y, z'
loop_
 _atom_site_type_symbol
 _atom_site_label
 _atom_site_symmetry_multiplicity
 _atom_site_fract_x
 _atom_site_fract_y
 _atom_site_fract_z
 _atom_site_occupancy
  Zr  Zr0  1  0.75000000  0.75000000  0.25000000  1
  Zr  Zr1  1  0.75000000  0.25000000  0.75000000  1
  Zr  Zr2  1  0.25000000  0.25000000  0.25000000  1
  Zr  Zr3  1  0.25000000  0.75000000  0.75000000  1
  Se  Se0  1  0.83959170  0.66040830  0.83086529  1
  Se  Se1  1  0.66040830  0.83959170  0.66913471  1
  Se  Se2  1  0.64553382  0.64553382  0.75000000  1
  Se  Se3  1  0.14553382  0.85446618  0.25000000  1
  Se  Se4  1  0.14553382  0.14553382  0.75000000  1
  Se  Se5  1  0.35446618  0.35446618  0.75000000  1
  Se  Se6  1  0.33959170  0.16040830  0.66913471  1
  Se  Se7  1  0.16040830  0.33959170  0.83086529  1
  Se  Se8  1  0.85446618  0.14553382  0.25000000  1
  Se  Se9  1  0.35446618  0.64553382  0.25000000  1
  Se  Se10  1  0.85446618  0.85446618  0.75000000  1
  Se  Se11  1  0.64553382  0.35446618  0.25000000  1
  Se  Se12  1  0.66040830  0.16040830  0.16913471  1
  Se  Se13  1  0.83959170  0.33959170  0.33086529  1
  Se  Se14  1  0.16040830  0.66040830  0.33086529  1
  Se  Se15  1  0.33959170  0.83959170  0.16913471  1
  Cl  Cl0  1  0.80707924  0.91902644  0.10546209  1
  Cl  Cl1  1  0.61442525  0.11442525  0.86392174  1
  Cl  Cl2  1  0.69292076  0.41902644  0.89453791  1
  Cl  Cl3  1  0.88557475  0.61442525  0.13607826  1
  Cl  Cl4  1  0.30707924  0.58097356  0.89453791  1
  Cl  Cl5  1  0.41902644  0.69292076  0.60546209  1
  Cl  Cl6  1  0.19292076  0.08097356  0.10546209  1
  Cl  Cl7  1  0.69292076  0.58097356  0.39453791  1
  Cl  Cl8  1  0.08097356  0.19292076  0.39453791  1
  Cl  Cl9  1  0.58097356  0.69292076  0.10546209  1
  Cl  Cl10  1  0.30707924  0.41902644  0.39453791  1
  Cl  Cl11  1  0.19292076  0.91902644  0.60546209  1
  Cl  Cl12  1  0.11442525  0.38557475  0.13607826  1
  Cl  Cl13  1  0.58097356  0.30707924  0.60546209  1
  Cl  Cl14  1  0.61442525  0.88557475  0.36392174  1
  Cl  Cl15  1  0.41902644  0.30707924  0.10546209  1
  Cl  Cl16  1  0.11442525  0.61442525  0.63607826  1
  Cl  Cl17  1  0.91902644  0.19292076  0.89453791  1
  Cl  Cl18  1  0.08097356  0.80707924  0.89453791  1
  Cl  Cl19  1  0.38557475  0.88557475  0.86392174  1
  Cl  Cl20  1  0.91902644  0.80707924  0.39453791  1
  Cl  Cl21  1  0.88557475  0.38557475  0.63607826  1
  Cl  Cl22  1  0.80707924  0.08097356  0.60546209  1
  Cl  Cl23  1  0.38557475  0.11442525  0.36392174  1
loop_
_geom_bond_atom_site_label_1
_geom_bond_atom_site_label_2
_geom_bond_distance
_geom_bond_site_symmetry_2
Se0 Se2 2.310586 1_555
Se0 Se10 2.310586 1_555
Se1 Se2 2.310586 1_555
Se1 Se10 2.310586 1_555
Se4 Se7 2.310586 1_555
Se4 Se6 2.310586 1_555
Se5 Se7 2.310586 1_555
Se5 Se6 2.310586 1_555
Se11 Se13 2.310586 1_555
Se11 Se12 2.310586 1_555
Se12 Se8 2.310586 1_555
Se13 Se8 2.310586 1_555
Se14 Se9 2.310586 1_555
Se14 Se3 2.310586 1_555
Se15 Se9 2.310586 1_555
Se15 Se3 2.310586 1_555
Cl0 Zr0 2.499703 1_555
Cl0 Se8 2.980081 1_565
Cl1 Zr1 2.437292 1_555
Cl2 Zr1 2.499703 1_555
Cl2 Se2 2.980081 1_555
Cl3 Zr0 2.437292 1_555
Cl4 Zr3 2.499703 1_555
Cl4 Se5 2.980081 1_555
Cl5 Zr3 2.499703 1_555
Cl5 Se2 2.980081 1_555
Cl6 Zr2 2.499703 1_555
Cl6 Se3 2.980081 1_545
Cl7 Zr0 2.499703 1_555
Cl7 Se11 2.980081 1_555
Cl8 Zr2 2.499703 1_555
Cl8 Se8 2.980081 1_455
Cl9 Zr0 2.499703 1_555
Cl9 Se9 2.980081 1_555
Cl10 Zr2 2.499703 1_555
Cl10 Se9 2.980081 1_555
Cl11 Zr3 2.499703 1_555
Cl11 Se4 2.980081 1_565
Cl12 Zr2 2.437292 1_555
Cl13 Zr1 2.499703 1_555
Cl13 Se5 2.980081 1_555
Cl14 Zr0 2.437292 1_555
Cl15 Zr2 2.499703 1_555
Cl15 Se11 2.980081 1_555
Cl16 Zr3 2.437292 1_555
Cl17 Zr1 2.499703 1_555
Cl17 Se4 2.980081 1_655
Cl18 Zr3 2.499703 1_555
Cl18 Se10 2.980081 1_455
Cl19 Zr3 2.437292 1_555
Cl20 Zr0 2.499703 1_555
Cl20 Se3 2.980081 1_655
Cl21 Zr1 2.437292 1_555
Cl22 Zr1 2.499703 1_555
Cl22 Se10 2.980081 1_545
Cl23 Zr2 2.437292 1_555
