# generated using pymatgen
data_PtC2(ClO)2
_symmetry_space_group_name_H-M   'P 1'
_cell_length_a   12.98817400
_cell_length_b   6.74447500
_cell_length_c   7.26818594
_cell_angle_alpha   75.00558987
_cell_angle_beta   90.00000000
_cell_angle_gamma   90.00000000
_symmetry_Int_Tables_number   1
_chemical_formula_structural   PtC2(ClO)2
_chemical_formula_sum   'Pt4 C8 Cl8 O8'
_cell_volume   615.00324224
_cell_formula_units_Z   4
loop_
 _symmetry_equiv_pos_site_id
 _symmetry_equiv_pos_as_xyz
  1  'x, y, z'
loop_
 _atom_site_type_symbol
 _atom_site_label
 _atom_site_symmetry_multiplicity
 _atom_site_fract_x
 _atom_site_fract_y
 _atom_site_fract_z
 _atom_site_occupancy
  Pt  Pt0  1  0.22967100  0.22000800  0.89081800  1
  Pt  Pt1  1  0.77032900  0.77999200  0.10918200  1
  Pt  Pt2  1  0.27032900  0.72000800  0.89081800  1
  Pt  Pt3  1  0.72967100  0.27999200  0.10918200  1
  C  C0  1  0.12299300  0.27138500  0.70517000  1
  C  C1  1  0.14039500  0.16227400  0.10595400  1
  C  C2  1  0.87700700  0.72861500  0.29483000  1
  C  C3  1  0.64039500  0.33772600  0.89404600  1
  C  C4  1  0.37700700  0.77138500  0.70517000  1
  C  C5  1  0.62299300  0.22861500  0.29483000  1
  C  C6  1  0.35960500  0.66227400  0.10595400  1
  C  C7  1  0.85960500  0.83772600  0.89404600  1
  Cl  Cl0  1  0.86711000  0.33937600  0.89472500  1
  Cl  Cl1  1  0.65638500  0.71458100  0.36415300  1
  Cl  Cl2  1  0.84361500  0.21458100  0.36415300  1
  Cl  Cl3  1  0.13289000  0.66062400  0.10527500  1
  Cl  Cl4  1  0.34361500  0.28541900  0.63584700  1
  Cl  Cl5  1  0.63289000  0.83937600  0.89472500  1
  Cl  Cl6  1  0.15638500  0.78541900  0.63584700  1
  Cl  Cl7  1  0.36711000  0.16062400  0.10527500  1
  O  O0  1  0.43966400  0.80210000  0.59051200  1
  O  O1  1  0.56033600  0.19790000  0.40948800  1
  O  O2  1  0.06033600  0.30210000  0.59051200  1
  O  O3  1  0.58772200  0.37410400  0.76311400  1
  O  O4  1  0.08772200  0.12589600  0.23688600  1
  O  O5  1  0.91227800  0.87410400  0.76311400  1
  O  O6  1  0.41227800  0.62589600  0.23688600  1
  O  O7  1  0.93966400  0.69790000  0.40948800  1
loop_
_geom_bond_atom_site_label_1
_geom_bond_atom_site_label_2
_geom_bond_distance
_geom_bond_site_symmetry_2
C0 O2 1.144699 1_555
C0 Pt0 1.902253 1_555
C1 O4 1.145873 1_555
C1 Pt0 1.904226 1_554
C2 O7 1.144699 1_555
C2 Pt1 1.902253 1_555
C3 O3 1.145873 1_555
C3 Pt3 1.904226 1_556
C4 O0 1.144699 1_555
C4 Pt2 1.902253 1_555
C5 O1 1.144699 1_555
C5 Pt3 1.902253 1_555
C6 O6 1.145873 1_555
C6 Pt2 1.904226 1_554
C7 O5 1.145873 1_555
C7 Pt1 1.904226 1_556
Cl0 Pt3 2.335268 1_556
Cl1 Pt1 2.322934 1_555
Cl2 Pt3 2.322934 1_555
Cl3 Pt2 2.335268 1_554
Cl4 Pt0 2.322934 1_555
Cl5 Pt1 2.335268 1_556
Cl6 Pt2 2.322934 1_555
Cl7 Pt0 2.335268 1_554
