# generated using pymatgen
data_K3HgN5O11
_symmetry_space_group_name_H-M   'P 1'
_cell_length_a   9.66286200
_cell_length_b   10.88762200
_cell_length_c   12.59372700
_cell_angle_alpha   90.00000000
_cell_angle_beta   90.00000000
_cell_angle_gamma   90.00000000
_symmetry_Int_Tables_number   1
_chemical_formula_structural   K3HgN5O11
_chemical_formula_sum   'K12 Hg4 N20 O44'
_cell_volume   1324.93046541
_cell_formula_units_Z   4
loop_
 _symmetry_equiv_pos_site_id
 _symmetry_equiv_pos_as_xyz
  1  'x, y, z'
loop_
 _atom_site_type_symbol
 _atom_site_label
 _atom_site_symmetry_multiplicity
 _atom_site_fract_x
 _atom_site_fract_y
 _atom_site_fract_z
 _atom_site_occupancy
  K  K0  1  0.40058800  0.75000000  0.01563400  1
  K  K1  1  0.90058800  0.25000000  0.48436600  1
  K  K2  1  0.59941200  0.25000000  0.98436600  1
  K  K3  1  0.09941200  0.75000000  0.51563400  1
  K  K4  1  0.06554800  0.49610700  0.20243500  1
  K  K5  1  0.56554800  0.50389300  0.29756500  1
  K  K6  1  0.93445200  0.99610700  0.79756500  1
  K  K7  1  0.43445200  0.00389300  0.70243500  1
  K  K8  1  0.56554800  0.99610700  0.29756500  1
  K  K9  1  0.43445200  0.49610700  0.70243500  1
  K  K10  1  0.06554800  0.00389300  0.20243500  1
  K  K11  1  0.93445200  0.50389300  0.79756500  1
  Hg  Hg0  1  0.81229900  0.75000000  0.08741400  1
  Hg  Hg1  1  0.31229900  0.25000000  0.41258600  1
  Hg  Hg2  1  0.18770100  0.25000000  0.91258600  1
  Hg  Hg3  1  0.68770100  0.75000000  0.58741400  1
  N  N0  1  0.69391500  0.99687900  0.03546400  1
  N  N1  1  0.23627500  0.75000000  0.74780900  1
  N  N2  1  0.73627500  0.25000000  0.75219100  1
  N  N3  1  0.76372500  0.25000000  0.25219100  1
  N  N4  1  0.26372500  0.75000000  0.24780900  1
  N  N5  1  0.41789000  0.75000000  0.46731600  1
  N  N6  1  0.91789000  0.25000000  0.03268400  1
  N  N7  1  0.58211000  0.25000000  0.53268400  1
  N  N8  1  0.08211000  0.75000000  0.96731600  1
  N  N9  1  0.65510400  0.75000000  0.82922600  1
  N  N10  1  0.15510400  0.25000000  0.67077400  1
  N  N11  1  0.34489600  0.25000000  0.17077400  1
  N  N12  1  0.84489600  0.75000000  0.32922600  1
  N  N13  1  0.19391500  0.49687900  0.46453600  1
  N  N14  1  0.69391500  0.50312100  0.03546400  1
  N  N15  1  0.80608500  0.99687900  0.53546400  1
  N  N16  1  0.30608500  0.00312100  0.96453600  1
  N  N17  1  0.19391500  0.00312100  0.46453600  1
  N  N18  1  0.30608500  0.49687900  0.96453600  1
  N  N19  1  0.80608500  0.50312100  0.53546400  1
  O  O0  1  0.37531600  0.41232200  0.91978900  1
  O  O1  1  0.07014200  0.75000000  0.06783100  1
  O  O2  1  0.57014200  0.25000000  0.43216900  1
  O  O3  1  0.92985800  0.25000000  0.93216900  1
  O  O4  1  0.42985800  0.75000000  0.56783100  1
  O  O5  1  0.31940600  0.85114700  0.22111300  1
  O  O6  1  0.81940600  0.14885300  0.27888700  1
  O  O7  1  0.68059400  0.35114700  0.77888700  1
  O  O8  1  0.18059400  0.64885300  0.72111300  1
  O  O9  1  0.68059400  0.14885300  0.77888700  1
  O  O10  1  0.18059400  0.85114700  0.72111300  1
  O  O11  1  0.31940600  0.64885300  0.22111300  1
  O  O12  1  0.81940600  0.35114700  0.27888700  1
  O  O13  1  0.15015500  0.75000000  0.29801400  1
  O  O14  1  0.65015500  0.25000000  0.20198600  1
  O  O15  1  0.84984500  0.25000000  0.70198600  1
  O  O16  1  0.81799100  0.97150300  0.01494900  1
  O  O17  1  0.31799100  0.02849700  0.48505100  1
  O  O18  1  0.18200900  0.47150300  0.98505100  1
  O  O19  1  0.68200900  0.52849700  0.51494900  1
  O  O20  1  0.18200900  0.02849700  0.98505100  1
  O  O21  1  0.68200900  0.97150300  0.51494900  1
  O  O22  1  0.81799100  0.52849700  0.01494900  1
  O  O23  1  0.31799100  0.47150300  0.48505100  1
  O  O24  1  0.62468400  0.91232200  0.08021100  1
  O  O25  1  0.12468400  0.08767800  0.41978900  1
  O  O26  1  0.34984500  0.75000000  0.79801400  1
  O  O27  1  0.87531600  0.58767800  0.58021100  1
  O  O28  1  0.37531600  0.08767800  0.91978900  1
  O  O29  1  0.87531600  0.91232200  0.58021100  1
  O  O30  1  0.62468400  0.58767800  0.08021100  1
  O  O31  1  0.12468400  0.41232200  0.41978900  1
  O  O32  1  0.83582000  0.84843500  0.27647300  1
  O  O33  1  0.33582000  0.15156500  0.22352700  1
  O  O34  1  0.16418000  0.34843500  0.72352700  1
  O  O35  1  0.66418000  0.65156500  0.77647300  1
  O  O36  1  0.16418000  0.15156500  0.72352700  1
  O  O37  1  0.66418000  0.84843500  0.77647300  1
  O  O38  1  0.83582000  0.65156500  0.27647300  1
  O  O39  1  0.33582000  0.34843500  0.22352700  1
  O  O40  1  0.52935400  0.75000000  0.41563900  1
  O  O41  1  0.47064600  0.25000000  0.58436100  1
  O  O42  1  0.02935400  0.25000000  0.08436100  1
  O  O43  1  0.97064600  0.75000000  0.91563900  1
loop_
_geom_bond_atom_site_label_1
_geom_bond_atom_site_label_2
_geom_bond_distance
_geom_bond_site_symmetry_2
K0 O26 2.784163 1_554
K0 O24 2.910970 1_555
K0 O30 2.910970 1_555
K0 O11 2.919683 1_555
K0 O5 2.919683 1_555
K0 N16 2.973701 1_564
K0 N18 2.973701 1_554
K0 N8 3.136993 1_554
K0 O1 3.260017 1_555
K0 N9 3.399928 1_554
K1 O15 2.784163 1_555
K1 O31 2.910970 1_655
K1 O25 2.910970 1_655
K1 O12 2.919683 1_555
K1 O6 2.919683 1_555
K1 N19 2.973701 1_555
K1 N15 2.973701 1_545
K1 N7 3.136993 1_555
K1 O2 3.260017 1_555
K1 N10 3.399928 1_655
K2 O14 2.784163 1_556
K2 O0 2.910970 1_555
K2 O28 2.910970 1_555
K2 O7 2.919683 1_555
K2 O9 2.919683 1_555
K2 N14 2.973701 1_556
K2 N0 2.973701 1_546
K2 N6 3.136993 1_556
K2 O3 3.260017 1_555
K2 N11 3.399928 1_556
K3 O13 2.784163 1_555
K3 O29 2.910970 1_455
K3 O27 2.910970 1_455
K3 O8 2.919683 1_555
K3 O10 2.919683 1_555
K3 N17 2.973701 1_565
K3 N13 2.973701 1_555
K3 N5 3.136993 1_555
K3 O4 3.260017 1_555
K3 N12 3.399928 1_455
K4 O31 2.941337 1_555
K4 O38 2.943098 1_455
K4 O18 2.972041 1_554
K4 O11 2.972914 1_555
K4 O12 3.012459 1_455
K4 O39 3.078316 1_555
K4 O42 3.084362 1_555
K4 O13 3.123871 1_555
K4 O1 3.242971 1_555
K4 O22 3.379581 1_455
K5 O30 2.941337 1_555
K5 O39 2.943098 1_555
K5 O19 2.972041 1_555
K5 O12 2.972914 1_555
K5 O11 3.012459 1_555
K5 O38 3.078316 1_555
K5 O40 3.084362 1_555
K5 O14 3.123871 1_555
K5 O2 3.242971 1_555
K5 O23 3.379581 1_555
K6 O29 2.941337 1_555
K6 O36 2.943098 1_665
K6 O16 2.972041 1_556
K6 O9 2.972914 1_565
K6 O10 3.012459 1_655
K6 O37 3.078316 1_555
K6 O43 3.084362 1_555
K6 O15 3.123871 1_565
K6 O3 3.242971 1_565
K6 O20 3.379581 1_665
K7 O28 2.941337 1_555
K7 O37 2.943098 1_545
K7 O17 2.972041 1_555
K7 O10 2.972914 1_545
K7 O9 3.012459 1_555
K7 O36 3.078316 1_555
K7 O41 3.084362 1_555
K7 O26 3.123871 1_545
K7 O4 3.242971 1_545
K7 O21 3.379581 1_545
K8 O24 2.941337 1_555
K8 O33 2.943098 1_565
K8 O21 2.972041 1_555
K8 O6 2.972914 1_565
K8 O5 3.012459 1_555
K8 O32 3.078316 1_555
K8 O40 3.084362 1_555
K8 O14 3.123871 1_565
K8 O2 3.242971 1_565
K8 O17 3.379581 1_565
K9 O0 2.941337 1_555
K9 O35 2.943098 1_555
K9 O23 2.972041 1_555
K9 O8 2.972914 1_555
K9 O7 3.012459 1_555
K9 O34 3.078316 1_555
K9 O41 3.084362 1_555
K9 O26 3.123871 1_555
K9 O4 3.242971 1_555
K9 O19 3.379581 1_555
K10 O25 2.941337 1_555
K10 O32 2.943098 1_445
K10 O20 2.972041 1_554
K10 O5 2.972914 1_545
K10 O6 3.012459 1_455
K10 O33 3.078316 1_555
K10 O42 3.084362 1_555
K10 O13 3.123871 1_545
K10 O1 3.242971 1_545
K10 O16 3.379581 1_445
K11 O27 2.941337 1_555
K11 O34 2.943098 1_655
K11 O22 2.972041 1_556
K11 O7 2.972914 1_555
K11 O8 3.012459 1_655
K11 O35 3.078316 1_555
K11 O43 3.084362 1_555
K11 O15 3.123871 1_555
K11 O3 3.242971 1_555
K11 O18 3.379581 1_655
Hg0 O1 2.503678 1_655
Hg0 O24 2.533412 1_555
Hg0 O30 2.533412 1_555
Hg0 O22 2.579125 1_555
Hg0 O16 2.579125 1_555
Hg0 O32 2.620917 1_555
Hg0 O38 2.620917 1_555
Hg0 O43 2.649712 1_554
Hg1 O2 2.503678 1_555
Hg1 O31 2.533412 1_555
Hg1 O25 2.533412 1_555
Hg1 O23 2.579125 1_555
Hg1 O17 2.579125 1_555
Hg1 O39 2.620917 1_555
Hg1 O33 2.620917 1_555
Hg1 O41 2.649712 1_555
Hg2 O3 2.503678 1_455
Hg2 O0 2.533412 1_555
Hg2 O28 2.533412 1_555
Hg2 O18 2.579125 1_555
Hg2 O20 2.579125 1_555
Hg2 O36 2.620917 1_555
Hg2 O34 2.620917 1_555
Hg2 O42 2.649712 1_556
Hg3 O4 2.503678 1_555
Hg3 O29 2.533412 1_555
Hg3 O27 2.533412 1_555
Hg3 O19 2.579125 1_555
Hg3 O21 2.579125 1_555
Hg3 O37 2.620917 1_555
Hg3 O35 2.620917 1_555
Hg3 O40 2.649712 1_555
N0 O16 1.257185 1_555
N0 O24 1.269897 1_555
N1 O26 1.266521 1_555
N1 O10 1.270932 1_555
N1 O8 1.270932 1_555
N2 O15 1.266521 1_555
N2 O7 1.270932 1_555
N2 O9 1.270932 1_555
N3 O14 1.266521 1_555
N3 O12 1.270932 1_555
N3 O6 1.270932 1_555
N4 O13 1.266521 1_555
N4 O11 1.270932 1_555
N4 O5 1.270932 1_555
N5 O40 1.258415 1_555
N5 O4 1.271130 1_555
N6 O42 1.258415 1_655
N6 O3 1.271130 1_554
N7 O41 1.258415 1_555
N7 O2 1.271130 1_555
N8 O43 1.258415 1_455
N8 O1 1.271130 1_556
N9 O37 1.263982 1_555
N9 O35 1.263982 1_555
N10 O34 1.263982 1_555
N10 O36 1.263982 1_555
N11 O39 1.263982 1_555
N11 O33 1.263982 1_555
N12 O32 1.263982 1_555
N12 O38 1.263982 1_555
N13 O23 1.257185 1_555
N13 O31 1.269897 1_555
N14 O22 1.257185 1_555
N14 O30 1.269897 1_555
N15 O21 1.257185 1_555
N15 O29 1.269897 1_555
N16 O20 1.257185 1_555
N16 O28 1.269897 1_555
N17 O17 1.257185 1_555
N17 O25 1.269897 1_555
N18 O18 1.257185 1_555
N18 O0 1.269897 1_555
N19 O19 1.257185 1_555
N19 O27 1.269897 1_555
