# generated using pymatgen
data_YN
_symmetry_space_group_name_H-M   'P 1'
_cell_length_a   4.03987082
_cell_length_b   4.03987082
_cell_length_c   4.92983400
_cell_angle_alpha   90.00000000
_cell_angle_beta   90.00000000
_cell_angle_gamma   120.00001350
_symmetry_Int_Tables_number   1
_chemical_formula_structural   YN
_chemical_formula_sum   'Y2 N2'
_cell_volume   69.67834483
_cell_formula_units_Z   2
loop_
 _symmetry_equiv_pos_site_id
 _symmetry_equiv_pos_as_xyz
  1  'x, y, z'
loop_
 _atom_site_type_symbol
 _atom_site_label
 _atom_site_symmetry_multiplicity
 _atom_site_fract_x
 _atom_site_fract_y
 _atom_site_fract_z
 _atom_site_occupancy
  Y  Y0  1  0.66666700  0.33333300  0.25000000  1
  Y  Y1  1  0.33333300  0.66666700  0.75000000  1
  N  N0  1  0.66666700  0.33333300  0.75000000  1
  N  N1  1  0.33333300  0.66666700  0.25000000  1
loop_
_geom_bond_atom_site_label_1
_geom_bond_atom_site_label_2
_geom_bond_distance
_geom_bond_site_symmetry_2
N0 Y1 2.332418 1_545
N0 Y1 2.332418 1_655
N0 Y1 2.332425 1_555
N0 Y0 2.464917 1_555
N0 Y0 2.464917 1_556
N1 Y0 2.332418 1_455
N1 Y0 2.332418 1_565
N1 Y0 2.332425 1_555
N1 Y1 2.464917 1_555
N1 Y1 2.464917 1_554
