# generated using pymatgen
data_K2Hg(CN)4
_symmetry_space_group_name_H-M   'P 1'
_cell_length_a   9.21104870
_cell_length_b   9.21104870
_cell_length_c   9.21104870
_cell_angle_alpha   60.00000000
_cell_angle_beta   60.00000000
_cell_angle_gamma   60.00000000
_symmetry_Int_Tables_number   1
_chemical_formula_structural   K2Hg(CN)4
_chemical_formula_sum   'K4 Hg2 C8 N8'
_cell_volume   552.60172731
_cell_formula_units_Z   2
loop_
 _symmetry_equiv_pos_site_id
 _symmetry_equiv_pos_as_xyz
  1  'x, y, z'
loop_
 _atom_site_type_symbol
 _atom_site_label
 _atom_site_symmetry_multiplicity
 _atom_site_fract_x
 _atom_site_fract_y
 _atom_site_fract_z
 _atom_site_occupancy
  K  K0  1  0.12500000  0.12500000  0.12500000  1
  K  K1  1  0.62500000  0.12500000  0.12500000  1
  K  K2  1  0.12500000  0.12500000  0.62500000  1
  K  K3  1  0.12500000  0.62500000  0.12500000  1
  Hg  Hg0  1  0.50000000  0.50000000  0.50000000  1
  Hg  Hg1  1  0.75000000  0.75000000  0.75000000  1
  C  C0  1  0.84785800  0.84785800  0.45642500  1
  C  C1  1  0.40214200  0.40214200  0.40214200  1
  C  C2  1  0.45642500  0.84785800  0.84785800  1
  C  C3  1  0.84785800  0.45642500  0.84785800  1
  C  C4  1  0.40214200  0.40214200  0.79357500  1
  C  C5  1  0.40214200  0.79357500  0.40214200  1
  C  C6  1  0.84785800  0.84785800  0.84785800  1
  C  C7  1  0.79357500  0.40214200  0.40214200  1
  N  N0  1  0.35012100  0.94963600  0.35012100  1
  N  N1  1  0.35012100  0.35012100  0.94963600  1
  N  N2  1  0.89987900  0.30036400  0.89987900  1
  N  N3  1  0.35012100  0.35012100  0.35012100  1
  N  N4  1  0.89987900  0.89987900  0.30036400  1
  N  N5  1  0.30036400  0.89987900  0.89987900  1
  N  N6  1  0.89987900  0.89987900  0.89987900  1
  N  N7  1  0.94963600  0.35012100  0.35012100  1
loop_
_geom_bond_atom_site_label_1
_geom_bond_atom_site_label_2
_geom_bond_distance
_geom_bond_site_symmetry_2
K0 N7 2.968112 1_455
K0 N1 2.968112 1_554
K0 N0 2.968112 1_545
K0 N4 2.968112 1_445
K0 N2 2.968112 1_454
K0 N5 2.968112 1_544
K1 N3 2.968114 1_555
K1 N6 2.968114 1_544
K1 N2 2.968119 1_554
K1 N4 2.968119 1_545
K1 N0 2.968119 1_545
K1 N1 2.968119 1_554
K2 N3 2.968114 1_555
K2 N6 2.968114 1_445
K2 N2 2.968119 1_455
K2 N5 2.968119 1_545
K2 N0 2.968119 1_545
K2 N7 2.968119 1_455
K3 N3 2.968114 1_555
K3 N6 2.968114 1_454
K3 N5 2.968119 1_554
K3 N4 2.968119 1_455
K3 N1 2.968119 1_554
K3 N7 2.968119 1_455
C0 N4 1.173702 1_555
C0 Hg1 2.207916 1_555
C1 N3 1.173717 1_555
C1 Hg0 2.207908 1_555
C2 N5 1.173702 1_555
C2 Hg1 2.207916 1_555
C3 N2 1.173702 1_555
C3 Hg1 2.207916 1_555
C4 N1 1.173702 1_555
C4 Hg0 2.207916 1_555
C5 N0 1.173702 1_555
C5 Hg0 2.207916 1_555
C6 N6 1.173717 1_555
C6 Hg1 2.207908 1_555
C7 N7 1.173702 1_555
C7 Hg0 2.207916 1_555
