# generated using pymatgen
data_Ca4In3Au10
_symmetry_space_group_name_H-M   'P 1'
_cell_length_a   8.58439825
_cell_length_b   8.58439825
_cell_length_c   10.19086865
_cell_angle_alpha   90.00000000
_cell_angle_beta   90.00000000
_cell_angle_gamma   107.94990638
_symmetry_Int_Tables_number   1
_chemical_formula_structural   Ca4In3Au10
_chemical_formula_sum   'Ca8 In6 Au20'
_cell_volume   714.43123579
_cell_formula_units_Z   2
loop_
 _symmetry_equiv_pos_site_id
 _symmetry_equiv_pos_as_xyz
  1  'x, y, z'
loop_
 _atom_site_type_symbol
 _atom_site_label
 _atom_site_symmetry_multiplicity
 _atom_site_fract_x
 _atom_site_fract_y
 _atom_site_fract_z
 _atom_site_occupancy
  Ca  Ca0  1  0.69578829  0.30421171  -0.00000000  1
  Ca  Ca1  1  0.19578829  0.80421171  0.50000000  1
  Ca  Ca2  1  0.80335150  0.80335150  0.29769266  1
  Ca  Ca3  1  0.30335150  0.30335150  0.20230734  1
  Ca  Ca4  1  0.80421171  0.19578829  0.50000000  1
  Ca  Ca5  1  0.30421171  0.69578829  -0.00000000  1
  Ca  Ca6  1  0.69664850  0.69664850  0.79769266  1
  Ca  Ca7  1  0.19664850  0.19664850  0.70230734  1
  In  In0  1  0.51825507  0.01825507  0.25000000  1
  In  In1  1  0.98174493  0.48174493  0.75000000  1
  In  In2  1  -0.00000000  -0.00000000  -0.00000000  1
  In  In3  1  0.01825507  0.51825507  0.25000000  1
  In  In4  1  0.48174493  0.98174493  0.75000000  1
  In  In5  1  0.50000000  0.50000000  0.50000000  1
  Au  Au0  1  0.15245618  0.43611309  0.48356277  1
  Au  Au1  1  0.90101873  0.90101873  0.59635203  1
  Au  Au2  1  0.56388691  0.84754382  0.51643723  1
  Au  Au3  1  0.88292508  0.16804313  0.20681448  1
  Au  Au4  1  0.38292508  0.66804313  0.29318552  1
  Au  Au5  1  0.66804313  0.38292508  0.29318552  1
  Au  Au6  1  0.40101873  0.40101873  0.90364797  1
  Au  Au7  1  0.93611309  0.65245618  0.01643723  1
  Au  Au8  1  0.33195687  0.61707492  0.70681448  1
  Au  Au9  1  0.34754382  0.06388691  0.98356277  1
  Au  Au10  1  0.59898127  0.59898127  0.09635203  1
  Au  Au11  1  0.65245618  0.93611309  0.01643723  1
  Au  Au12  1  0.09898127  0.09898127  0.40364797  1
  Au  Au13  1  0.61707492  0.33195687  0.70681448  1
  Au  Au14  1  0.11707492  0.83195687  0.79318552  1
  Au  Au15  1  0.06388691  0.34754382  0.98356277  1
  Au  Au16  1  0.84754382  0.56388691  0.51643723  1
  Au  Au17  1  0.16804313  0.88292508  0.20681448  1
  Au  Au18  1  0.43611309  0.15245618  0.48356277  1
  Au  Au19  1  0.83195687  0.11707492  0.79318552  1
loop_
_geom_bond_atom_site_label_1
_geom_bond_atom_site_label_2
_geom_bond_distance
_geom_bond_site_symmetry_2
Au0 In3 2.826748 1_555
Au0 In5 2.867284 1_555
Au0 Au12 2.903580 1_555
Au0 Au8 2.913483 1_555
Au0 Au4 3.035513 1_555
Au0 Ca4 3.069157 1_455
Au0 Ca1 3.070331 1_555
Au0 Ca7 3.133631 1_555
Au0 Au16 3.152175 1_455
Au0 In1 3.166589 1_455
Au0 Ca3 3.478798 1_555
Au1 Au12 2.802216 1_665
Au1 Au16 2.903580 1_555
Au1 Au2 2.903580 1_555
Au1 Ca6 2.910104 1_555
Au1 Au19 2.914246 1_565
Au1 Au14 2.914246 1_655
Au1 Ca4 3.058418 1_565
Au1 Ca1 3.058418 1_655
Au1 Ca7 3.174446 1_665
Au1 Ca2 3.199390 1_555
Au2 In4 2.826748 1_555
Au2 In5 2.867284 1_555
Au2 Au4 2.913483 1_555
Au2 Au8 3.035513 1_555
Au2 Ca4 3.069157 1_565
Au2 Ca1 3.070331 1_555
Au2 Ca2 3.133631 1_555
Au2 In0 3.166589 1_565
Au2 Ca6 3.478798 1_555
Au3 In2 2.902873 1_655
Au3 In3 2.903235 1_655
Au3 In0 3.027517 1_555
Au3 Ca4 3.088615 1_555
Au3 Ca0 3.089755 1_555
Au3 Au5 3.110850 1_555
Au3 Ca2 3.131648 1_545
Au3 Ca3 3.434100 1_655
Au4 In5 2.902873 1_555
Au4 In0 2.903235 1_565
Au4 In3 3.027517 1_555
Au4 Ca5 3.088615 1_555
Au4 Ca1 3.089755 1_555
Au4 Ca3 3.131648 1_555
Au4 Ca2 3.434100 1_555
Au5 In5 2.902873 1_555
Au5 In3 2.903235 1_655
Au5 In0 3.027517 1_555
Au5 Ca0 3.088615 1_555
Au5 Ca4 3.089755 1_555
Au5 Ca3 3.131648 1_555
Au5 Ca2 3.434100 1_555
Au6 Au9 2.903580 1_555
Au6 Ca7 2.910104 1_555
Au6 Au8 2.914246 1_555
Au6 Ca5 3.058418 1_556
Au6 Ca0 3.058418 1_556
Au6 Ca6 3.174446 1_555
Au6 Ca3 3.199390 1_556
Au7 In3 2.826748 1_655
Au7 In2 2.867284 1_665
Au7 Ca0 3.069157 1_555
Au7 Ca5 3.070331 1_655
Au7 Ca6 3.133631 1_554
Au7 In1 3.166589 1_554
Au7 Ca2 3.478798 1_555
Au8 In5 2.902873 1_555
Au8 In1 2.903235 1_455
Au8 In4 3.027517 1_555
Au8 Ca5 3.088615 1_556
Au8 Ca1 3.089755 1_555
Au8 Ca6 3.131648 1_555
Au8 Ca7 3.434100 1_555
Au9 In4 2.826748 1_545
Au9 In2 2.867284 1_556
Au9 Ca0 3.069157 1_556
Au9 Ca5 3.070331 1_546
Au9 Ca3 3.133631 1_556
Au9 In0 3.166589 1_556
Au9 Ca7 3.478798 1_555
Au10 Au6 2.802216 1_554
Au10 Au7 2.903580 1_555
Au10 Au11 2.903580 1_555
Au10 Ca2 2.910104 1_555
Au10 Au5 2.914246 1_555
Au10 Au4 2.914246 1_555
Au10 Ca5 3.058418 1_555
Au10 Ca0 3.058418 1_555
Au10 Ca3 3.174446 1_555
Au10 Ca6 3.199390 1_554
Au11 In0 2.826748 1_565
Au11 In2 2.867284 1_665
Au11 Au19 2.913483 1_564
Au11 Au3 3.035513 1_565
Au11 Ca5 3.069157 1_555
Au11 Ca0 3.070331 1_565
Au11 Ca6 3.133631 1_554
Au11 Au9 3.152175 1_564
Au11 In4 3.166589 1_554
Au11 Ca2 3.478798 1_555
Au12 Au18 2.903580 1_555
Au12 Ca3 2.910104 1_555
Au12 Au17 2.914246 1_545
Au12 Au3 2.914246 1_455
Au12 Ca4 3.058418 1_455
Au12 Ca1 3.058418 1_545
Au12 Ca2 3.174446 1_445
Au12 Ca7 3.199390 1_555
Au13 In5 2.902873 1_555
Au13 In4 2.903235 1_545
Au13 Au18 2.913483 1_555
Au13 Au6 2.914246 1_555
Au13 In1 3.027517 1_555
Au13 Au16 3.035513 1_555
Au13 Ca0 3.088615 1_556
Au13 Ca4 3.089755 1_555
Au13 Au19 3.110850 1_555
Au13 Ca6 3.131648 1_555
Au13 Ca7 3.434100 1_555
Au14 In2 2.902873 1_566
Au14 In1 2.903235 1_455
Au14 Au7 2.913483 1_456
Au14 In4 3.027517 1_555
Au14 Au9 3.035513 1_565
Au14 Ca1 3.088615 1_555
Au14 Ca5 3.089755 1_556
Au14 Au8 3.110850 1_555
Au14 Ca7 3.131648 1_565
Au14 Ca6 3.434100 1_455
Au15 In1 2.826748 1_455
Au15 In2 2.867284 1_556
Au15 Au6 2.903580 1_555
Au15 Au3 2.913483 1_456
Au15 Au19 3.035513 1_455
Au15 Ca5 3.069157 1_556
Au15 Ca0 3.070331 1_456
Au15 Ca3 3.133631 1_556
Au15 Au7 3.152175 1_456
Au15 In3 3.166589 1_556
Au15 Ca7 3.478798 1_555
Au16 In1 2.826748 1_555
Au16 In5 2.867284 1_555
Au16 Au5 2.913483 1_555
Au16 Ca1 3.069157 1_655
Au16 Ca4 3.070331 1_555
Au16 Ca2 3.133631 1_555
Au16 In3 3.166589 1_655
Au16 Ca6 3.478798 1_555
Au17 In2 2.902873 1_565
Au17 In0 2.903235 1_565
Au17 Au9 2.913483 1_564
Au17 In3 3.027517 1_555
Au17 Au7 3.035513 1_455
Au17 Ca1 3.088615 1_555
Au17 Ca5 3.089755 1_555
Au17 Au4 3.110850 1_555
Au17 Ca2 3.131648 1_455
Au17 Ca3 3.434100 1_565
Au18 In0 2.826748 1_555
Au18 In5 2.867284 1_555
Au18 Au5 3.035513 1_555
Au18 Ca1 3.069157 1_545
Au18 Ca4 3.070331 1_555
Au18 Ca7 3.133631 1_555
Au18 Au2 3.152175 1_545
Au18 In4 3.166589 1_545
Au18 Ca3 3.478798 1_555
Au19 In2 2.902873 1_656
Au19 In4 2.903235 1_545
Au19 In1 3.027517 1_555
Au19 Ca4 3.088615 1_555
Au19 Ca0 3.089755 1_556
Au19 Ca7 3.131648 1_655
Au19 Ca6 3.434100 1_545
