# generated using pymatgen
data_V9NiO15
_symmetry_space_group_name_H-M   'P 1'
_cell_length_a   7.53409600
_cell_length_b   8.82143130
_cell_length_c   9.09382388
_cell_angle_alpha   80.76396242
_cell_angle_beta   71.80909095
_cell_angle_gamma   67.01600770
_symmetry_Int_Tables_number   1
_chemical_formula_structural   V9NiO15
_chemical_formula_sum   'V18 Ni2 O30'
_cell_volume   528.08564318
_cell_formula_units_Z   2
loop_
 _symmetry_equiv_pos_site_id
 _symmetry_equiv_pos_as_xyz
  1  'x, y, z'
loop_
 _atom_site_type_symbol
 _atom_site_label
 _atom_site_symmetry_multiplicity
 _atom_site_fract_x
 _atom_site_fract_y
 _atom_site_fract_z
 _atom_site_occupancy
  V  V0  1  0.76882000  0.94116400  0.32149700  1
  V  V1  1  0.13058400  0.86080800  0.07641800  1
  V  V2  1  0.36799100  0.14108700  0.92071100  1
  V  V3  1  0.73238600  0.05765100  0.67784500  1
  V  V4  1  0.96793200  0.34000400  0.52034900  1
  V  V5  1  0.26761400  0.94234900  0.32215500  1
  V  V6  1  0.33053300  0.25997300  0.28015800  1
  V  V7  1  0.63200900  0.85891300  0.07928900  1
  V  V8  1  0.56950400  0.53892900  0.12295300  1
  V  V9  1  0.86941600  0.13919200  0.92358200  1
  V  V10  1  0.93316300  0.46122200  0.87997600  1
  V  V11  1  0.23118000  0.05883600  0.67850300  1
  V  V12  1  0.47720200  0.34098900  0.51435200  1
  V  V13  1  0.52279800  0.65901100  0.48564800  1
  V  V14  1  0.06683700  0.53877800  0.12002400  1
  V  V15  1  0.43049600  0.46107100  0.87704700  1
  V  V16  1  0.66946700  0.74002700  0.71984200  1
  V  V17  1  0.03206800  0.65999600  0.47965100  1
  Ni  Ni0  1  0.16319600  0.74138500  0.72397900  1
  Ni  Ni1  1  0.83680400  0.25861500  0.27602100  1
  O  O0  1  0.11099400  0.92206800  0.86186400  1
  O  O1  1  0.32806900  0.96176400  0.07880200  1
  O  O2  1  0.48747600  0.97811500  0.74152900  1
  O  O3  1  0.90610800  0.82157900  0.65862400  1
  O  O4  1  0.70421900  0.11430000  0.46501400  1
  O  O5  1  0.92788800  0.16023900  0.67834900  1
  O  O6  1  0.07211200  0.83976100  0.32165100  1
  O  O7  1  0.29578100  0.88570000  0.53498600  1
  O  O8  1  0.09389200  0.17842100  0.34137600  1
  O  O9  1  0.51252400  0.02188500  0.25847100  1
  O  O10  1  0.31188200  0.31597100  0.06094000  1
  O  O11  1  0.51957900  0.36441400  0.27837000  1
  O  O12  1  0.67193100  0.03823600  0.92119800  1
  O  O13  1  0.88900600  0.07793200  0.13813600  1
  O  O14  1  0.68849400  0.37821300  0.93911800  1
  O  O15  1  0.11050100  0.22285000  0.86173000  1
  O  O16  1  0.91341400  0.51660400  0.66121700  1
  O  O17  1  0.13023900  0.55634000  0.88095900  1
  O  O18  1  0.27428600  0.23922900  0.52319100  1
  O  O19  1  0.48990700  0.28349700  0.73668200  1
  O  O20  1  0.29111900  0.57401600  0.53231100  1
  O  O21  1  0.70888100  0.42598400  0.46768900  1
  O  O22  1  0.51009300  0.71650300  0.26331800  1
  O  O23  1  0.72571400  0.76077100  0.47680900  1
  O  O24  1  0.86976100  0.44366000  0.11904100  1
  O  O25  1  0.08658600  0.48339600  0.33878300  1
  O  O26  1  0.88949900  0.77715000  0.13827000  1
  O  O27  1  0.31150600  0.62178700  0.06088200  1
  O  O28  1  0.48042100  0.63558600  0.72163000  1
  O  O29  1  0.68811800  0.68402900  0.93906000  1
loop_
_geom_bond_atom_site_label_1
_geom_bond_atom_site_label_2
_geom_bond_distance
_geom_bond_site_symmetry_2
Ni0 O17 2.027644 1_555
Ni0 O0 2.027684 1_555
Ni0 O3 2.029548 1_455
Ni0 O7 2.188878 1_555
Ni0 O20 2.193793 1_555
Ni0 O28 2.194578 1_555
Ni1 O24 2.027644 1_555
Ni1 O13 2.027684 1_555
Ni1 O8 2.029548 1_655
Ni1 O4 2.188878 1_555
Ni1 O21 2.193793 1_555
Ni1 O11 2.194578 1_555
O0 V1 1.974771 1_556
O0 V9 2.069069 1_465
O0 V11 2.078604 1_565
O1 V2 2.007792 1_564
O1 V1 2.017052 1_555
O1 V5 2.108106 1_555
O1 V7 2.109367 1_555
O2 V16 2.011282 1_555
O2 V11 2.012548 1_565
O2 V2 2.087521 1_565
O2 V3 2.108490 1_565
O3 V3 1.981365 1_565
O3 V16 2.063854 1_555
O3 V17 2.074900 1_655
O4 V3 1.975822 1_555
O4 V0 1.983840 1_545
O4 V12 2.064795 1_555
O5 V3 2.008742 1_555
O5 V4 2.010413 1_555
O5 V11 2.104013 1_655
O5 V9 2.125905 1_555
O6 V5 2.008742 1_555
O6 V17 2.010413 1_555
O6 V0 2.104013 1_455
O6 V1 2.125905 1_555
O7 V5 1.975822 1_555
O7 V11 1.983840 1_565
O7 V13 2.064795 1_555
O8 V5 1.981365 1_545
O8 V6 2.063854 1_555
O8 V4 2.074900 1_455
O9 V6 2.011282 1_555
O9 V0 2.012548 1_545
O9 V7 2.087521 1_545
O9 V5 2.108490 1_545
O10 V2 1.992617 1_554
O10 V6 2.010598 1_555
O10 V14 2.108573 1_555
O10 V15 2.122885 1_554
O11 V6 1.970586 1_555
O11 V8 1.982631 1_555
O11 V12 2.057000 1_555
O12 V7 2.007792 1_546
O12 V9 2.017052 1_555
O12 V3 2.108106 1_555
O12 V2 2.109367 1_555
O13 V9 1.974771 1_554
O13 V1 2.069069 1_645
O13 V0 2.078604 1_545
O14 V9 2.013615 1_555
O14 V15 2.018472 1_555
O14 V8 2.107363 1_556
O14 V10 2.128884 1_555
O15 V2 2.001024 1_555
O15 V10 2.003461 1_455
O15 V9 2.106141 1_455
O15 V11 2.120612 1_555
O16 V10 2.008585 1_555
O16 V4 2.012229 1_555
O16 V17 2.101539 1_655
O16 V16 2.107910 1_555
O17 V10 1.972909 1_455
O17 V14 2.068768 1_556
O17 V15 2.073548 1_555
O18 V11 2.007071 1_555
O18 V12 2.030101 1_555
O18 V6 2.107979 1_555
O18 V4 2.132079 1_455
O19 V15 2.005249 1_555
O19 V12 2.026805 1_555
O19 V3 2.117174 1_555
O19 V2 2.118744 1_555
O20 V17 1.981088 1_555
O20 V12 1.982922 1_555
O20 V13 2.060687 1_555
O21 V4 1.981088 1_555
O21 V13 1.982922 1_555
O21 V12 2.060687 1_555
O22 V8 2.005249 1_555
O22 V13 2.026805 1_555
O22 V5 2.117174 1_555
O22 V7 2.118744 1_555
O23 V0 2.007071 1_555
O23 V13 2.030101 1_555
O23 V16 2.107979 1_555
O23 V17 2.132079 1_655
O24 V14 1.972909 1_655
O24 V10 2.068768 1_554
O24 V8 2.073548 1_555
O25 V14 2.008585 1_555
O25 V17 2.012229 1_555
O25 V4 2.101539 1_455
O25 V6 2.107910 1_555
O26 V7 2.001024 1_555
O26 V14 2.003461 1_655
O26 V1 2.106141 1_655
O26 V0 2.120612 1_555
O27 V1 2.013615 1_555
O27 V8 2.018472 1_555
O27 V15 2.107363 1_554
O27 V14 2.128884 1_555
O28 V16 1.970586 1_555
O28 V15 1.982631 1_555
O28 V13 2.057000 1_555
O29 V7 1.992617 1_556
O29 V16 2.010598 1_555
O29 V10 2.108573 1_555
O29 V8 2.122885 1_556
