# generated using pymatgen
data_Ce7(GePd2)2
_symmetry_space_group_name_H-M   'P 1'
_cell_length_a   8.18862806
_cell_length_b   11.30059566
_cell_length_c   14.42554932
_cell_angle_alpha   90.06513295
_cell_angle_beta   89.97446736
_cell_angle_gamma   112.08773668
_symmetry_Int_Tables_number   1
_chemical_formula_structural   Ce7(GePd2)2
_chemical_formula_sum   'Ce28 Ge8 Pd16'
_cell_volume   1236.91865024
_cell_formula_units_Z   4
loop_
 _symmetry_equiv_pos_site_id
 _symmetry_equiv_pos_as_xyz
  1  'x, y, z'
loop_
 _atom_site_type_symbol
 _atom_site_label
 _atom_site_symmetry_multiplicity
 _atom_site_fract_x
 _atom_site_fract_y
 _atom_site_fract_z
 _atom_site_occupancy
  Ce  Ce0  1  0.62349700  0.00675700  0.32351900  1
  Ce  Ce1  1  0.63810400  0.36669000  0.71214900  1
  Ce  Ce2  1  0.01225800  0.35154700  0.43135700  1
  Ce  Ce3  1  0.62507800  0.65325000  0.53675700  1
  Ce  Ce4  1  0.10593800  0.85844700  0.82186800  1
  Ce  Ce5  1  0.37463900  0.99224800  0.67732400  1
  Ce  Ce6  1  0.10551200  0.35849000  0.67838800  1
  Ce  Ce7  1  0.01344300  0.85092000  0.06826600  1
  Ce  Ce8  1  0.17703800  0.40231200  0.04973900  1
  Ce  Ce9  1  0.17706000  0.90231800  0.45006700  1
  Ce  Ce10  1  0.62507000  0.50847500  0.17600200  1
  Ce  Ce11  1  0.38142200  0.67844500  0.68698600  1
  Ce  Ce12  1  0.63737700  0.86643600  0.78791100  1
  Ce  Ce13  1  0.37558000  0.49259800  0.82273300  1
  Ce  Ce14  1  0.98679200  0.14799100  0.93087100  1
  Ce  Ce15  1  0.89541700  0.64209000  0.32186900  1
  Ce  Ce16  1  0.61751700  0.31966300  0.31293600  1
  Ce  Ce17  1  0.38295800  0.17876500  0.81276800  1
  Ce  Ce18  1  0.82354200  0.09824700  0.54990200  1
  Ce  Ce19  1  0.89437300  0.14117300  0.17831700  1
  Ce  Ce20  1  0.61721000  0.82131000  0.18677600  1
  Ce  Ce21  1  0.82423900  0.59890700  0.95025700  1
  Ce  Ce22  1  0.36097700  0.13227000  0.21144200  1
  Ce  Ce23  1  0.37342600  0.34710100  0.46403000  1
  Ce  Ce24  1  0.36232800  0.63390100  0.28793200  1
  Ce  Ce25  1  0.98792100  0.64822500  0.56914400  1
  Ce  Ce26  1  0.62497800  0.15268100  0.96344400  1
  Ce  Ce27  1  0.37335300  0.84738300  0.03656700  1
  Ge  Ge0  1  0.93195700  0.87970400  0.62820900  1
  Ge  Ge1  1  0.93147400  0.37957100  0.87195800  1
  Ge  Ge2  1  0.98809200  0.92474700  0.26325500  1
  Ge  Ge3  1  0.01198400  0.57508000  0.76364400  1
  Ge  Ge4  1  0.06839900  0.12047200  0.37196900  1
  Ge  Ge5  1  0.98833100  0.42528000  0.23661800  1
  Ge  Ge6  1  0.06834700  0.62087700  0.12798400  1
  Ge  Ge7  1  0.01220300  0.07508100  0.73653300  1
  Pd  Pd0  1  0.24812500  0.34404500  0.26176000  1
  Pd  Pd1  1  0.22133400  0.64949500  0.90663400  1
  Pd  Pd2  1  0.75207300  0.65584000  0.73842800  1
  Pd  Pd3  1  0.50546300  0.62973700  0.02273700  1
  Pd  Pd4  1  0.75204400  0.15610600  0.76172000  1
  Pd  Pd5  1  0.26043000  0.10930100  0.02049000  1
  Pd  Pd6  1  0.26042300  0.60953100  0.47953200  1
  Pd  Pd7  1  0.73977200  0.89048200  0.97979700  1
  Pd  Pd8  1  0.73983400  0.39041700  0.52063100  1
  Pd  Pd9  1  0.24812100  0.84422100  0.23816200  1
  Pd  Pd10  1  0.50535800  0.12929500  0.47721900  1
  Pd  Pd11  1  0.22118900  0.14902400  0.59366700  1
  Pd  Pd12  1  0.49490400  0.87070100  0.52303100  1
  Pd  Pd13  1  0.49533600  0.37072700  0.97691800  1
  Pd  Pd14  1  0.77887600  0.35074500  0.09329700  1
  Pd  Pd15  1  0.77888200  0.85088000  0.40648300  1
loop_
_geom_bond_atom_site_label_1
_geom_bond_atom_site_label_2
_geom_bond_distance
_geom_bond_site_symmetry_2
Ce0 Pd15 2.801061 1_545
Ce0 Ce20 2.862713 1_545
Ce0 Pd10 2.961074 1_555
Ce0 Pd9 3.176542 1_545
Ce0 Pd12 3.247435 1_545
Ce0 Ge4 3.448434 1_655
Ce1 Ce17 2.765754 1_555
Ce1 Pd8 2.868848 1_555
Ce1 Pd4 2.952830 1_555
Ce1 Pd2 3.065258 1_555
Ce1 Ge3 3.169640 1_655
Ce1 Ge1 3.293626 1_555
Ce1 Pd11 3.782468 1_555
Ce2 Pd8 2.749707 1_455
Ce2 Pd6 2.941614 1_555
Ce2 Ge4 2.943036 1_555
Ce2 Ge5 2.958537 1_455
Ce2 Pd0 3.137127 1_555
Ce3 Pd15 2.828030 1_555
Ce3 Pd6 2.955281 1_555
Ce3 Pd12 3.030693 1_555
Ce3 Pd2 3.086329 1_555
Ce3 Ge0 3.124584 1_555
Ce3 Pd8 3.443297 1_555
Ce4 Ge7 3.085211 1_565
Ce4 Pd1 3.106349 1_555
Ce4 Ge3 3.113394 1_555
Ce4 Pd2 3.177243 1_455
Ce4 Ge0 3.186571 1_455
Ce4 Pd7 3.888451 1_455
Ce4 Pd5 3.890217 1_566
Ce5 Pd11 2.802582 1_565
Ce5 Pd12 2.969661 1_555
Ce5 Pd4 3.186898 1_565
Ce5 Pd10 3.261530 1_565
Ce5 Ge0 3.434079 1_455
Ce6 Ge3 3.080894 1_555
Ce6 Pd11 3.110089 1_555
Ce6 Ge7 3.116051 1_555
Ce6 Pd4 3.174611 1_455
Ce6 Ge1 3.183592 1_455
Ce6 Pd8 3.885356 1_455
Ce6 Pd6 3.898074 1_555
Ce7 Pd7 2.758252 1_454
Ce7 Ge6 2.930307 1_555
Ce7 Pd5 2.941632 1_565
Ce7 Ge2 2.962347 1_455
Ce7 Pd9 3.133574 1_555
Ce8 Pd13 2.953084 1_554
Ce8 Pd3 2.965263 1_555
Ce8 Ge6 3.132516 1_555
Ce8 Pd14 3.151945 1_455
Ce8 Ge5 3.165281 1_455
Ce8 Ge1 3.209528 1_454
Ce8 Pd0 3.228214 1_555
Ce8 Pd1 3.383232 1_554
Ce8 Pd5 3.647658 1_555
Ce9 Pd12 2.951650 1_555
Ce9 Pd10 2.961831 1_565
Ce9 Ge4 3.129759 1_565
Ce9 Pd15 3.152759 1_455
Ce9 Ge2 3.165625 1_455
Ce9 Ge0 3.210701 1_455
Ce9 Pd9 3.224143 1_555
Ce9 Pd11 3.379962 1_565
Ce9 Pd6 3.646363 1_555
Ce10 Pd14 2.805150 1_555
Ce10 Ce16 2.892867 1_555
Ce10 Pd3 2.956934 1_555
Ce10 Pd0 3.193602 1_555
Ce10 Pd13 3.247826 1_554
Ce10 Ge6 3.435292 1_655
Ce11 Ce12 2.769972 1_555
Ce11 Ce13 2.860316 1_555
Ce11 Ge3 3.013555 1_555
Ce11 Ce3 3.029911 1_555
Ce11 Pd12 3.109507 1_555
Ce11 Pd6 3.156125 1_555
Ce11 Pd2 3.226985 1_555
Ce11 Pd1 3.397246 1_555
Ce12 Pd7 2.875422 1_555
Ce12 Pd2 2.954976 1_555
Ce12 Pd4 3.070959 1_565
Ce12 Ge7 3.176273 1_665
Ce12 Ge0 3.297347 1_555
Ce12 Pd1 3.777952 1_555
Ce13 Pd1 2.807449 1_555
Ce13 Pd13 2.971539 1_555
Ce13 Pd2 3.179836 1_555
Ce13 Pd3 3.257312 1_556
Ce13 Ge1 3.444877 1_455
Ce14 Pd5 2.761154 1_656
Ce14 Pd7 2.938443 1_545
Ce14 Ge1 2.944995 1_555
Ce14 Ge7 2.950347 1_655
Ce14 Pd4 3.129671 1_555
Ce15 Ge5 3.080324 1_555
Ce15 Pd15 3.106957 1_555
Ce15 Ge2 3.110673 1_555
Ce15 Pd9 3.171581 1_655
Ce15 Ge6 3.183640 1_655
Ce15 Pd6 3.882871 1_655
Ce15 Pd8 3.901694 1_555
Ce16 Ce22 2.773297 1_555
Ce16 Ge5 3.021776 1_555
Ce16 Ce23 3.050017 1_555
Ce16 Pd10 3.100247 1_555
Ce16 Pd8 3.164517 1_555
Ce16 Pd0 3.224849 1_555
Ce16 Pd14 3.399683 1_555
Ce17 Ce5 2.854397 1_545
Ce17 Ge7 3.020636 1_555
Ce17 Ce26 3.030438 1_555
Ce17 Pd13 3.106254 1_555
Ce17 Pd5 3.164217 1_556
Ce17 Pd4 3.212754 1_555
Ce17 Pd11 3.394690 1_555
Ce18 Pd10 2.949880 1_555
Ce18 Pd12 2.966296 1_545
Ce18 Ge0 3.133614 1_545
Ce18 Pd11 3.150623 1_655
Ce18 Ge7 3.164312 1_655
Ce18 Ge4 3.207772 1_655
Ce18 Pd4 3.223146 1_555
Ce18 Pd15 3.383345 1_545
Ce18 Pd8 3.640710 1_555
Ce19 Ge2 3.080765 1_545
Ce19 Pd14 3.114414 1_555
Ce19 Ge5 3.121510 1_555
Ce19 Pd0 3.177798 1_655
Ce19 Ge4 3.185127 1_655
Ce19 Pd5 3.886167 1_655
Ce19 Pd7 3.888065 1_544
Ce20 Ce24 2.766006 1_555
Ce20 Ge2 3.022788 1_555
Ce20 Ce27 3.035992 1_555
Ce20 Pd3 3.102284 1_555
Ce20 Pd7 3.153702 1_554
Ce20 Pd9 3.215130 1_555
Ce20 Pd15 3.402645 1_555
Ce21 Pd3 2.951124 1_556
Ce21 Pd13 2.971383 1_555
Ce21 Ge1 3.133695 1_555
Ce21 Pd1 3.145971 1_655
Ce21 Ge3 3.160512 1_655
Ce21 Ge6 3.203169 1_656
Ce21 Pd2 3.223780 1_555
Ce21 Pd14 3.389589 1_556
Ce21 Pd7 3.636938 1_555
Ce22 Pd5 2.858792 1_555
Ce22 Pd0 2.960883 1_555
Ce22 Pd9 3.055924 1_545
Ce22 Ge2 3.162027 1_445
Ce22 Ge4 3.297825 1_555
Ce22 Pd14 3.789578 1_555
Ce23 Pd11 2.823217 1_555
Ce23 Pd8 2.967374 1_555
Ce23 Pd10 3.043442 1_555
Ce23 Pd0 3.089277 1_555
Ce23 Ge4 3.121832 1_555
Ce23 Pd6 3.429756 1_555
Ce24 Pd6 2.870254 1_555
Ce24 Pd9 2.952125 1_555
Ce24 Pd0 3.072476 1_555
Ce24 Ge5 3.170680 1_455
Ce24 Ge6 3.298225 1_555
Ce24 Pd15 3.778567 1_555
Ce25 Pd6 2.751625 1_655
Ce25 Pd8 2.941109 1_555
Ce25 Ge0 2.945298 1_555
Ce25 Ge3 2.953415 1_655
Ce25 Pd2 3.133840 1_555
Ce26 Pd14 2.824541 1_556
Ce26 Pd5 2.954118 1_556
Ce26 Pd13 3.033521 1_555
Ce26 Pd4 3.085350 1_555
Ce26 Ge1 3.127300 1_555
Ce26 Pd7 3.437308 1_545
Ce27 Pd1 2.821817 1_554
Ce27 Pd7 2.968229 1_554
Ce27 Pd3 3.042872 1_555
Ce27 Pd9 3.078970 1_555
Ce27 Ge6 3.118609 1_555
Ce27 Pd5 3.424831 1_565
Ge0 Ge7 2.578821 1_665
Ge0 Pd2 2.881358 1_555
Ge0 Pd11 3.114782 1_665
Ge1 Ge3 2.582408 1_655
Ge1 Pd4 2.875294 1_555
Ge1 Pd1 3.121060 1_655
Ge2 Ge4 2.585180 1_665
Ge2 Pd15 2.612643 1_555
Ge2 Pd9 2.636041 1_655
Ge3 Pd1 2.610704 1_555
Ge3 Pd2 2.637642 1_455
Ge4 Pd0 2.878788 1_555
Ge4 Pd15 3.117759 1_445
Ge5 Ge6 2.586236 1_655
Ge5 Pd14 2.615039 1_555
Ge5 Pd0 2.640087 1_655
Ge6 Pd9 2.874391 1_555
Ge6 Pd14 3.121461 1_455
Ge7 Pd11 2.607596 1_555
Ge7 Pd4 2.640886 1_455
Pd1 Pd3 2.943326 1_556
Pd3 Pd7 2.915245 1_554
Pd10 Pd8 2.919264 1_555
Pd10 Pd11 2.944837 1_555
Pd10 Pd12 2.966465 1_545
Pd12 Pd6 2.919958 1_555
Pd12 Pd15 2.944767 1_555
Pd13 Pd5 2.924433 1_556
Pd13 Pd14 2.942594 1_556
