# generated using pymatgen
data_FeBi25O39
_symmetry_space_group_name_H-M   'P 1'
_cell_length_a   10.33105814
_cell_length_b   10.33105814
_cell_length_c   10.33105844
_cell_angle_alpha   90.16161996
_cell_angle_beta   90.16161996
_cell_angle_gamma   90.16161686
_symmetry_Int_Tables_number   1
_chemical_formula_structural   FeBi25O39
_chemical_formula_sum   'Fe1 Bi25 O39'
_cell_volume   1102.62855646
_cell_formula_units_Z   1
loop_
 _symmetry_equiv_pos_site_id
 _symmetry_equiv_pos_as_xyz
  1  'x, y, z'
loop_
 _atom_site_type_symbol
 _atom_site_label
 _atom_site_symmetry_multiplicity
 _atom_site_fract_x
 _atom_site_fract_y
 _atom_site_fract_z
 _atom_site_occupancy
  Fe  Fe0  1  0.49959300  0.49959300  0.49959300  1
  Bi  Bi0  1  0.68416400  0.98750600  0.82270800  1
  Bi  Bi1  1  0.32473500  0.81261300  0.51449100  1
  Bi  Bi2  1  0.33170300  0.98365900  0.18294600  1
  Bi  Bi3  1  0.67603100  0.81474400  0.49019000  1
  Bi  Bi4  1  0.98750600  0.82270800  0.68416400  1
  Bi  Bi5  1  0.51165900  0.67127600  0.18240900  1
  Bi  Bi6  1  0.01075800  0.81787500  0.32600000  1
  Bi  Bi7  1  0.81261300  0.51449100  0.32473500  1
  Bi  Bi8  1  0.01677100  0.01677100  0.01677100  1
  Bi  Bi9  1  0.49019000  0.67603100  0.81474400  1
  Bi  Bi10  1  0.82270800  0.68416400  0.98750600  1
  Bi  Bi11  1  0.18577700  0.48812500  0.32322500  1
  Bi  Bi12  1  0.17653500  0.68610100  0.01277000  1
  Bi  Bi13  1  0.81787500  0.32600000  0.01075800  1
  Bi  Bi14  1  0.81474400  0.49019000  0.67603100  1
  Bi  Bi15  1  0.18294600  0.33170300  0.98365900  1
  Bi  Bi16  1  0.48812500  0.32322500  0.18577700  1
  Bi  Bi17  1  0.18240900  0.51165900  0.67127600  1
  Bi  Bi18  1  0.01277000  0.17653500  0.68610100  1
  Bi  Bi19  1  0.51449100  0.32473500  0.81261300  1
  Bi  Bi20  1  0.32600000  0.01075800  0.81787500  1
  Bi  Bi21  1  0.98365900  0.18294600  0.33170300  1
  Bi  Bi22  1  0.32322500  0.18577700  0.48812500  1
  Bi  Bi23  1  0.67127600  0.18240900  0.51165900  1
  Bi  Bi24  1  0.68610100  0.01277000  0.17653500  1
  O  O0  1  0.10447400  0.88412100  0.88928800  1
  O  O1  1  0.25106700  0.98718600  0.62988200  1
  O  O2  1  0.51012900  0.86844600  0.74795100  1
  O  O3  1  0.30805600  0.68948200  0.69202100  1
  O  O4  1  0.80894500  0.80894500  0.80894500  1
  O  O5  1  0.48784800  0.86520200  0.25132500  1
  O  O6  1  0.60784000  0.60784000  0.60784000  1
  O  O7  1  0.39177700  0.60661100  0.39124300  1
  O  O8  1  0.74759000  0.98965700  0.37016000  1
  O  O9  1  0.86844600  0.74795100  0.51012900  1
  O  O10  1  0.37016000  0.74759000  0.98965700  1
  O  O11  1  0.68948200  0.69202100  0.30805600  1
  O  O12  1  0.60661100  0.39124300  0.39177700  1
  O  O13  1  0.62952500  0.74674000  0.01137900  1
  O  O14  1  0.88412100  0.88928800  0.10447400  1
  O  O15  1  0.13218200  0.74543800  0.48956400  1
  O  O16  1  0.98718600  0.62988200  0.25106700  1
  O  O17  1  0.74543800  0.48956400  0.13218200  1
  O  O18  1  0.18512700  0.81547100  0.18655100  1
  O  O19  1  0.74795100  0.51012900  0.86844600  1
  O  O20  1  0.01405700  0.36566900  0.24972500  1
  O  O21  1  0.81547100  0.18655100  0.18512700  1
  O  O22  1  0.25031500  0.50994800  0.12893900  1
  O  O23  1  0.01137900  0.62952500  0.74674000  1
  O  O24  1  0.30811400  0.30811400  0.30811400  1
  O  O25  1  0.98965700  0.37016000  0.74759000  1
  O  O26  1  0.88928800  0.10447400  0.88412100  1
  O  O27  1  0.25132500  0.48784800  0.86520200  1
  O  O28  1  0.36566900  0.24972500  0.01405700  1
  O  O29  1  0.86520200  0.25132500  0.48784800  1
  O  O30  1  0.18655100  0.18512700  0.81547100  1
  O  O31  1  0.12893900  0.25031500  0.50994800  1
  O  O32  1  0.39124300  0.39177700  0.60661100  1
  O  O33  1  0.62988200  0.25106700  0.98718600  1
  O  O34  1  0.48956400  0.13218200  0.74543800  1
  O  O35  1  0.69202100  0.30805600  0.68948200  1
  O  O36  1  0.24972500  0.01405700  0.36566900  1
  O  O37  1  0.74674000  0.01137900  0.62952500  1
  O  O38  1  0.50994800  0.12893900  0.25031500  1
loop_
_geom_bond_atom_site_label_1
_geom_bond_atom_site_label_2
_geom_bond_distance
_geom_bond_site_symmetry_2
Fe0 O12 1.929489 1_555
Fe0 O7 1.929489 1_555
Fe0 O32 1.929489 1_555
Fe0 O6 1.931491 1_555
Bi0 O37 2.114491 1_565
Bi0 O4 2.257880 1_555
Bi0 O2 2.305738 1_555
Bi0 O26 2.515395 1_565
Bi0 O34 2.632049 1_565
Bi1 O15 2.119781 1_555
Bi1 O3 2.241739 1_555
Bi1 O1 2.292114 1_555
Bi1 O7 2.574545 1_555
Bi1 O36 2.704796 1_565
Bi2 O36 2.094413 1_565
Bi2 O5 2.146744 1_555
Bi2 O18 2.302043 1_555
Bi2 O38 2.469687 1_565
Bi3 O9 2.115744 1_555
Bi3 O11 2.270758 1_555
Bi3 O8 2.315142 1_555
Bi3 O6 2.560014 1_555
Bi3 O37 2.588765 1_565
Bi4 O23 2.114491 1_655
Bi4 O4 2.257880 1_555
Bi4 O9 2.305738 1_555
Bi4 O0 2.515395 1_655
Bi4 O15 2.632049 1_655
Bi5 O5 2.139392 1_555
Bi5 O11 2.255793 1_555
Bi5 O13 2.286290 1_555
Bi5 O7 2.579427 1_555
Bi5 O10 2.592852 1_554
Bi6 O16 2.101997 1_455
Bi6 O15 2.233720 1_555
Bi6 O18 2.309956 1_555
Bi6 O9 2.513865 1_455
Bi6 O14 2.737097 1_455
Bi7 O17 2.119781 1_555
Bi7 O11 2.241739 1_555
Bi7 O16 2.292114 1_555
Bi7 O12 2.574545 1_555
Bi7 O20 2.704796 1_655
Bi8 O0 2.106448 1_544
Bi8 O26 2.106448 1_454
Bi8 O14 2.106448 1_445
Bi9 O2 2.115744 1_555
Bi9 O3 2.270758 1_555
Bi9 O10 2.315142 1_555
Bi9 O6 2.560014 1_555
Bi9 O13 2.588765 1_556
Bi10 O13 2.114491 1_556
Bi10 O4 2.257880 1_555
Bi10 O19 2.305738 1_555
Bi10 O14 2.515395 1_556
Bi10 O17 2.632049 1_556
Bi11 O22 2.129180 1_555
Bi11 O24 2.256762 1_555
Bi11 O20 2.301876 1_555
Bi11 O7 2.548217 1_555
Bi11 O16 2.631398 1_455
Bi12 O10 2.111478 1_554
Bi12 O18 2.236590 1_555
Bi12 O22 2.312612 1_555
Bi12 O0 2.526799 1_554
Bi12 O27 2.667234 1_554
Bi13 O33 2.101997 1_554
Bi13 O17 2.233720 1_555
Bi13 O21 2.309956 1_555
Bi13 O19 2.513865 1_554
Bi13 O26 2.737097 1_554
Bi14 O19 2.115744 1_555
Bi14 O35 2.270758 1_555
Bi14 O25 2.315142 1_555
Bi14 O6 2.560014 1_555
Bi14 O23 2.588765 1_655
Bi15 O28 2.094413 1_556
Bi15 O27 2.146744 1_555
Bi15 O30 2.302043 1_555
Bi15 O22 2.469687 1_556
Bi16 O38 2.129180 1_555
Bi16 O24 2.256762 1_555
Bi16 O28 2.301876 1_555
Bi16 O12 2.548217 1_555
Bi16 O33 2.631398 1_554
Bi17 O27 2.139392 1_555
Bi17 O3 2.255793 1_555
Bi17 O23 2.286290 1_555
Bi17 O32 2.579427 1_555
Bi17 O25 2.592852 1_455
Bi18 O25 2.111478 1_455
Bi18 O30 2.236590 1_555
Bi18 O31 2.312612 1_555
Bi18 O26 2.526800 1_455
Bi18 O29 2.667234 1_455
Bi19 O34 2.119781 1_555
Bi19 O35 2.241739 1_555
Bi19 O33 2.292114 1_555
Bi19 O32 2.574545 1_555
Bi19 O28 2.704796 1_556
Bi20 O1 2.101997 1_545
Bi20 O34 2.233720 1_555
Bi20 O30 2.309956 1_555
Bi20 O2 2.513865 1_545
Bi20 O0 2.737097 1_545
Bi21 O20 2.094413 1_655
Bi21 O29 2.146744 1_555
Bi21 O21 2.302043 1_555
Bi21 O31 2.469687 1_655
Bi22 O31 2.129180 1_555
Bi22 O24 2.256762 1_555
Bi22 O36 2.301876 1_555
Bi22 O32 2.548217 1_555
Bi22 O1 2.631398 1_545
Bi23 O29 2.139392 1_555
Bi23 O35 2.255793 1_555
Bi23 O37 2.286290 1_555
Bi23 O12 2.579427 1_555
Bi23 O8 2.592852 1_545
Bi24 O8 2.111478 1_545
Bi24 O21 2.236590 1_555
Bi24 O38 2.312612 1_555
Bi24 O14 2.526799 1_545
Bi24 O5 2.667234 1_545
