# generated using pymatgen
data_Ca2NdF7
_symmetry_space_group_name_H-M   'P 1'
_cell_length_a   3.94554945
_cell_length_b   3.94554945
_cell_length_c   30.70899296
_cell_angle_alpha   89.30297308
_cell_angle_beta   89.30297308
_cell_angle_gamma   60.13265593
_symmetry_Int_Tables_number   1
_chemical_formula_structural   Ca2NdF7
_chemical_formula_sum   'Ca6 Nd3 F21'
_cell_volume   414.52169206
_cell_formula_units_Z   3
loop_
 _symmetry_equiv_pos_site_id
 _symmetry_equiv_pos_as_xyz
  1  'x, y, z'
loop_
 _atom_site_type_symbol
 _atom_site_label
 _atom_site_symmetry_multiplicity
 _atom_site_fract_x
 _atom_site_fract_y
 _atom_site_fract_z
 _atom_site_occupancy
  Ca  Ca0  1  0.01530600  0.01530600  0.98231200  1
  Ca  Ca1  1  0.70076300  0.70076300  0.87479200  1
  Ca  Ca2  1  0.38194700  0.38194700  0.77205200  1
  Ca  Ca3  1  0.06967200  0.06967200  0.66816800  1
  Ca  Ca4  1  0.75083700  0.75083700  0.56388100  1
  Ca  Ca5  1  0.35059800  0.35059800  0.08536700  1
  Nd  Nd0  1  0.36782100  0.36782100  0.44055900  1
  Nd  Nd1  1  0.68211200  0.68211200  0.19349900  1
  Nd  Nd2  1  0.01784000  0.01784000  0.31626400  1
  F  F0  1  0.02757900  0.02757900  0.90334000  1
  F  F1  1  0.36942500  0.36942500  0.85116800  1
  F  F2  1  0.71208600  0.71208600  0.79997400  1
  F  F3  1  0.05199700  0.05199700  0.74821200  1
  F  F4  1  0.41991100  0.41991100  0.59212900  1
  F  F5  1  0.39899200  0.39899200  0.69648200  1
  F  F6  1  0.74047700  0.74047700  0.64546300  1
  F  F7  1  0.03652300  0.03652300  0.43842800  1
  F  F8  1  0.08715300  0.08715300  0.54217100  1
  F  F9  1  0.72235100  0.72235100  0.48464800  1
  F  F10  1  0.68549600  0.68549600  0.31055600  1
  F  F11  1  0.70064400  0.70064400  0.40263600  1
  F  F12  1  0.36155700  0.36155700  0.36020600  1
  F  F13  1  0.34892300  0.34892300  0.18595500  1
  F  F14  1  0.35264800  0.35264800  0.27841800  1
  F  F15  1  0.01888600  0.01888600  0.23702900  1
  F  F16  1  0.01622900  0.01622900  0.06189900  1
  F  F17  1  0.01623000  0.01623000  0.15643700  1
  F  F18  1  0.68404600  0.68404600  0.11443400  1
  F  F19  1  0.67989100  0.67989100  0.01035500  1
  F  F20  1  0.34998500  0.34998500  0.96038700  1
loop_
_geom_bond_atom_site_label_1
_geom_bond_atom_site_label_2
_geom_bond_distance
_geom_bond_site_symmetry_2
Ca0 F20 2.373640 1_555
Ca0 F20 2.378416 1_545
Ca0 F20 2.378416 1_455
Ca0 F0 2.425421 1_555
Ca0 F19 2.435830 1_446
Ca0 F19 2.437144 1_546
Ca0 F19 2.437144 1_456
Ca0 F16 2.444133 1_556
Ca1 F2 2.297800 1_555
Ca1 F1 2.385955 1_555
Ca1 F1 2.395208 1_655
Ca1 F1 2.395208 1_565
Ca1 F0 2.409376 1_665
Ca1 F0 2.458805 1_655
Ca1 F0 2.458805 1_565
Ca2 F5 2.321961 1_555
Ca2 F3 2.379047 1_555
Ca2 F3 2.401709 1_655
Ca2 F3 2.401709 1_565
Ca2 F2 2.423410 1_555
Ca2 F1 2.429876 1_555
Ca2 F2 2.441395 1_545
Ca2 F2 2.441395 1_455
Ca3 F6 2.363160 1_445
Ca3 F6 2.394040 1_455
Ca3 F6 2.394040 1_545
Ca3 F5 2.422631 1_555
Ca3 F5 2.448198 1_545
Ca3 F5 2.448198 1_455
Ca3 F3 2.459337 1_555
Ca4 F8 2.371176 1_565
Ca4 F8 2.371176 1_655
Ca4 F8 2.382596 1_665
Ca4 F4 2.409353 1_555
Ca4 F9 2.443655 1_555
Ca4 F4 2.453845 1_565
Ca4 F4 2.453845 1_655
Ca4 F6 2.505306 1_555
Ca5 F16 2.383991 1_655
Ca5 F16 2.383991 1_565
Ca5 F16 2.404178 1_555
Ca5 F18 2.443245 1_455
Ca5 F18 2.443245 1_545
Ca5 F18 2.457571 1_555
F7 Nd0 2.264406 1_555
F7 Nd0 2.288449 1_545
F7 Nd0 2.288449 1_455
F9 Nd0 2.586452 1_655
F9 Nd0 2.586452 1_565
F9 Nd0 2.790607 1_555
F10 Nd2 2.278897 1_665
F10 Nd2 2.289872 1_565
F10 Nd2 2.289872 1_655
F11 Nd0 2.539320 1_555
F11 Nd0 2.569935 1_655
F11 Nd0 2.569935 1_565
F12 Nd0 2.468532 1_555
F12 Nd2 2.612859 1_655
F12 Nd2 2.612859 1_565
F12 Nd2 2.723974 1_555
F13 Nd1 2.290455 1_555
F13 Nd1 2.291615 1_545
F13 Nd1 2.291615 1_455
F14 Nd2 2.550326 1_555
F14 Nd2 2.562767 1_565
F14 Nd2 2.562767 1_655
F15 Nd2 2.433137 1_555
F15 Nd1 2.625853 1_455
F15 Nd1 2.625853 1_545
F15 Nd1 2.676393 1_445
F17 Nd1 2.535538 1_445
F17 Nd1 2.553906 1_545
F17 Nd1 2.553906 1_455
F18 Nd1 2.427857 1_555
