# generated using pymatgen
data_ZnSiO3
_symmetry_space_group_name_H-M   'P 1'
_cell_length_a   9.31241600
_cell_length_b   5.29931500
_cell_length_c   9.42866239
_cell_angle_alpha   79.48871617
_cell_angle_beta   90.00000000
_cell_angle_gamma   90.00000000
_symmetry_Int_Tables_number   1
_chemical_formula_structural   ZnSiO3
_chemical_formula_sum   'Zn8 Si8 O24'
_cell_volume   457.49089087
_cell_formula_units_Z   8
loop_
 _symmetry_equiv_pos_site_id
 _symmetry_equiv_pos_as_xyz
  1  'x, y, z'
loop_
 _atom_site_type_symbol
 _atom_site_label
 _atom_site_symmetry_multiplicity
 _atom_site_fract_x
 _atom_site_fract_y
 _atom_site_fract_z
 _atom_site_occupancy
  Zn  Zn0  1  0.99518100  0.97029900  0.25519200  1
  Zn  Zn1  1  0.49518100  0.52970100  0.74480800  1
  Zn  Zn2  1  0.64599900  0.97703800  0.25015200  1
  Zn  Zn3  1  0.85400100  0.47703800  0.25015200  1
  Zn  Zn4  1  0.35400100  0.02296200  0.74984800  1
  Zn  Zn5  1  0.50481900  0.47029900  0.25519200  1
  Zn  Zn6  1  0.00481900  0.02970100  0.74480800  1
  Zn  Zn7  1  0.14599900  0.52296200  0.74984800  1
  Si  Si0  1  0.83709600  0.25258300  0.95373300  1
  Si  Si1  1  0.83314200  0.68710100  0.55569100  1
  Si  Si2  1  0.33709600  0.24741700  0.04626700  1
  Si  Si3  1  0.16685800  0.31289900  0.44430900  1
  Si  Si4  1  0.66685800  0.18710100  0.55569100  1
  Si  Si5  1  0.16290400  0.74741700  0.04626700  1
  Si  Si6  1  0.33314200  0.81289900  0.44430900  1
  Si  Si7  1  0.66290400  0.75258300  0.95373300  1
  O  O0  1  0.66352700  0.69715800  0.13201500  1
  O  O1  1  0.29608900  0.12391100  0.39776100  1
  O  O2  1  0.84027600  0.74843400  0.37734200  1
  O  O3  1  0.50646100  0.77838000  0.87575400  1
  O  O4  1  0.65972400  0.24843400  0.37734200  1
  O  O5  1  0.00646100  0.72162000  0.12424600  1
  O  O6  1  0.16352700  0.80284200  0.86798500  1
  O  O7  1  0.26129000  0.49200800  0.10323300  1
  O  O8  1  0.73871000  0.50799200  0.89676700  1
  O  O9  1  0.49353900  0.22162000  0.12424600  1
  O  O10  1  0.02189500  0.24682400  0.36212300  1
  O  O11  1  0.79608900  0.37608900  0.60223900  1
  O  O12  1  0.70391100  0.87608900  0.60223900  1
  O  O13  1  0.97810500  0.75317600  0.63787700  1
  O  O14  1  0.76129000  0.00799200  0.89676700  1
  O  O15  1  0.34027600  0.75156600  0.62265800  1
  O  O16  1  0.47810500  0.74682400  0.36212300  1
  O  O17  1  0.15972400  0.25156600  0.62265800  1
  O  O18  1  0.83647300  0.19715800  0.13201500  1
  O  O19  1  0.23871000  0.99200800  0.10323300  1
  O  O20  1  0.52189500  0.25317600  0.63787700  1
  O  O21  1  0.99353900  0.27838000  0.87575400  1
  O  O22  1  0.33647300  0.30284200  0.86798500  1
  O  O23  1  0.20391100  0.62391100  0.39776100  1
loop_
_geom_bond_atom_site_label_1
_geom_bond_atom_site_label_2
_geom_bond_distance
_geom_bond_site_symmetry_2
O0 Si7 1.652813 1_554
O0 Zn2 2.017406 1_555
O0 Zn5 2.114011 1_555
O0 Zn3 2.296434 1_555
O1 Si6 1.662577 1_545
O1 Si3 1.674607 1_555
O2 Si1 1.654809 1_555
O2 Zn3 2.037704 1_555
O2 Zn0 2.072595 1_555
O2 Zn2 2.376731 1_555
O3 Si7 1.626357 1_555
O3 Zn1 1.966138 1_555
O3 Zn4 2.131559 1_565
O4 Si4 1.654809 1_555
O4 Zn2 2.037704 1_545
O4 Zn5 2.072595 1_555
O4 Zn3 2.376731 1_555
O5 Si5 1.626357 1_555
O5 Zn0 1.966138 1_455
O5 Zn3 2.131559 1_455
O6 Si5 1.652813 1_556
O6 Zn7 2.017406 1_555
O6 Zn6 2.114011 1_565
O6 Zn4 2.296434 1_565
O7 Si5 1.641533 1_555
O7 Si2 1.649512 1_555
O8 Si0 1.641533 1_555
O8 Si7 1.649512 1_555
O9 Si2 1.626357 1_555
O9 Zn5 1.966138 1_555
O9 Zn2 2.131559 1_545
O10 Si3 1.626180 1_555
O10 Zn0 1.940314 1_445
O10 Zn3 2.139515 1_455
O11 Si1 1.662577 1_555
O11 Si4 1.674607 1_555
O12 Si4 1.662577 1_565
O12 Si1 1.674607 1_555
O13 Si1 1.626180 1_555
O13 Zn6 1.940314 1_665
O13 Zn7 2.139515 1_655
O14 Si7 1.641533 1_545
O14 Si0 1.649512 1_555
O15 Si6 1.654809 1_555
O15 Zn4 2.037704 1_565
O15 Zn1 2.072595 1_555
O15 Zn7 2.376731 1_555
O16 Si6 1.626180 1_555
O16 Zn5 1.940314 1_555
O16 Zn2 2.139515 1_555
O17 Si3 1.654809 1_555
O17 Zn7 2.037704 1_555
O17 Zn6 2.072595 1_555
O17 Zn4 2.376731 1_555
O18 Si0 1.652813 1_554
O18 Zn3 2.017406 1_555
O18 Zn0 2.114011 1_545
O18 Zn2 2.296434 1_545
O19 Si2 1.641533 1_565
O19 Si5 1.649512 1_555
O20 Si4 1.626180 1_555
O20 Zn1 1.940314 1_555
O20 Zn4 2.139515 1_555
O21 Si0 1.626357 1_555
O21 Zn6 1.966138 1_655
O21 Zn7 2.131559 1_655
O22 Si2 1.652813 1_556
O22 Zn4 2.017406 1_555
O22 Zn1 2.114011 1_555
O22 Zn7 2.296434 1_555
O23 Si3 1.662577 1_555
O23 Si6 1.674607 1_555
