# generated using pymatgen
data_EuSnPt
_symmetry_space_group_name_H-M   'P 1'
_cell_length_a   4.68734844
_cell_length_b   7.54220305
_cell_length_c   7.97070955
_cell_angle_alpha   89.99881049
_cell_angle_beta   89.99915151
_cell_angle_gamma   90.00065056
_symmetry_Int_Tables_number   1
_chemical_formula_structural   EuSnPt
_chemical_formula_sum   'Eu4 Sn4 Pt4'
_cell_volume   281.78796625
_cell_formula_units_Z   4
loop_
 _symmetry_equiv_pos_site_id
 _symmetry_equiv_pos_as_xyz
  1  'x, y, z'
loop_
 _atom_site_type_symbol
 _atom_site_label
 _atom_site_symmetry_multiplicity
 _atom_site_fract_x
 _atom_site_fract_y
 _atom_site_fract_z
 _atom_site_occupancy
  Eu  Eu0  1  0.75000149  0.97908076  0.31392729  1
  Eu  Eu1  1  0.24999681  0.52093178  0.81394700  1
  Eu  Eu2  1  0.25000044  0.02091411  0.68605694  1
  Eu  Eu3  1  0.75000305  0.47906999  0.18605650  1
  Sn  Sn0  1  0.74999347  0.83408445  0.92268341  1
  Sn  Sn1  1  0.25001783  0.16589795  0.07732422  1
  Sn  Sn2  1  0.24998524  0.66588277  0.42267463  1
  Sn  Sn3  1  0.75000312  0.33411619  0.57732459  1
  Pt  Pt0  1  0.75003334  0.20580770  0.89832820  1
  Pt  Pt1  1  0.24998214  0.79420155  0.10169357  1
  Pt  Pt2  1  0.25000510  0.29418263  0.39830940  1
  Pt  Pt3  1  0.74997595  0.70583112  0.60167126  1
loop_
_geom_bond_atom_site_label_1
_geom_bond_atom_site_label_2
_geom_bond_distance
_geom_bond_site_symmetry_2
Eu0 Pt3 3.083404 1_555
Eu0 Pt1 3.209123 1_655
Eu0 Pt1 3.209269 1_555
Eu0 Sn0 3.304705 1_554
Eu0 Sn1 3.321816 1_565
Eu0 Sn1 3.321862 1_665
Eu0 Sn3 3.402693 1_565
Eu0 Pt2 3.404893 1_665
Eu0 Pt2 3.404893 1_565
Eu0 Sn2 3.438588 1_655
Eu0 Sn2 3.438638 1_555
Eu0 Pt0 3.727920 1_564
Eu0 Eu2 3.793442 1_565
Eu0 Eu2 3.793486 1_665
Eu0 Eu3 3.906308 1_565
Eu0 Eu3 3.906506 1_555
Eu1 Pt1 3.083585 1_556
Eu1 Pt3 3.209307 1_555
Eu1 Pt3 3.209509 1_455
Eu1 Sn2 3.304763 1_555
Eu1 Sn3 3.321942 1_455
Eu1 Sn3 3.321967 1_555
Eu1 Sn1 3.402516 1_556
Eu1 Pt0 3.404845 1_455
Eu1 Pt0 3.405132 1_555
Eu1 Sn0 3.438360 1_555
Eu1 Sn0 3.438401 1_455
Eu1 Pt2 3.728332 1_555
Eu1 Eu3 3.793299 1_456
Eu1 Eu3 3.793393 1_556
Eu1 Eu2 3.906298 1_565
Eu1 Eu2 3.906596 1_555
Eu2 Pt2 3.083520 1_555
Eu2 Pt0 3.209282 1_455
Eu2 Pt0 3.209520 1_555
Eu2 Sn1 3.304849 1_556
Eu2 Sn0 3.321977 1_445
Eu2 Sn0 3.321993 1_545
Eu2 Sn2 3.402595 1_545
Eu2 Pt3 3.404732 1_545
Eu2 Pt3 3.404866 1_445
Eu2 Sn3 3.438585 1_555
Eu2 Sn3 3.438622 1_455
Eu2 Pt1 3.728136 1_546
Eu3 Pt0 3.083439 1_554
Eu3 Pt2 3.209236 1_555
Eu3 Pt2 3.209310 1_655
Eu3 Sn3 3.304738 1_555
Eu3 Sn2 3.321876 1_655
Eu3 Sn2 3.321977 1_555
Eu3 Sn0 3.402381 1_554
Eu3 Pt1 3.404906 1_655
Eu3 Pt1 3.405092 1_555
Eu3 Sn1 3.438416 1_555
Eu3 Sn1 3.438529 1_655
Eu3 Pt3 3.728212 1_555
Pt0 Sn3 2.735501 1_555
Pt0 Sn1 2.760202 1_656
Pt0 Sn1 2.760284 1_556
Pt0 Sn0 2.810321 1_545
Pt1 Sn2 2.735360 1_555
Pt1 Sn0 2.760255 1_454
Pt1 Sn0 2.760303 1_554
Pt1 Sn1 2.810127 1_565
Pt2 Sn1 2.735338 1_555
Pt2 Sn3 2.760341 1_455
Pt2 Sn3 2.760355 1_555
Pt2 Sn2 2.810161 1_555
Pt3 Sn0 2.735455 1_555
Pt3 Sn2 2.760262 1_555
Pt3 Sn2 2.760306 1_655
Pt3 Sn3 2.810262 1_555
