# generated using pymatgen
data_Fe(Mo3Se4)2
_symmetry_space_group_name_H-M   'P 1'
_cell_length_a   6.83679500
_cell_length_b   9.61508868
_cell_length_c   9.72286661
_cell_angle_alpha   90.32472037
_cell_angle_beta   91.16136771
_cell_angle_gamma   95.83071399
_symmetry_Int_Tables_number   1
_chemical_formula_structural   Fe(Mo3Se4)2
_chemical_formula_sum   'Fe2 Mo12 Se16'
_cell_volume   635.68966570
_cell_formula_units_Z   2
loop_
 _symmetry_equiv_pos_site_id
 _symmetry_equiv_pos_as_xyz
  1  'x, y, z'
loop_
 _atom_site_type_symbol
 _atom_site_label
 _atom_site_symmetry_multiplicity
 _atom_site_fract_x
 _atom_site_fract_y
 _atom_site_fract_z
 _atom_site_occupancy
  Fe  Fe0  1  0.11698100  0.77337800  0.26174000  1
  Fe  Fe1  1  0.88301900  0.22662200  0.73826000  1
  Mo  Mo0  1  0.45712800  0.67392600  0.09352400  1
  Mo  Mo1  1  0.76423200  0.51956400  0.07133400  1
  Mo  Mo2  1  0.41749600  0.39098700  0.15630300  1
  Mo  Mo3  1  0.58236800  0.10757800  0.34556900  1
  Mo  Mo4  1  0.46817900  0.17503000  0.59725100  1
  Mo  Mo5  1  0.23328500  0.98464700  0.43242900  1
  Mo  Mo6  1  0.76671500  0.01535300  0.56757100  1
  Mo  Mo7  1  0.53182100  0.82497000  0.40274900  1
  Mo  Mo8  1  0.41763200  0.89242200  0.65443100  1
  Mo  Mo9  1  0.58250400  0.60901300  0.84369700  1
  Mo  Mo10  1  0.23576800  0.48043600  0.92866600  1
  Mo  Mo11  1  0.54287200  0.32607400  0.90647600  1
  Se  Se0  1  0.79301100  0.77924000  0.01018600  1
  Se  Se1  1  0.12632600  0.53632200  0.17941500  1
  Se  Se2  1  0.62699700  0.57139600  0.30923800  1
  Se  Se3  1  0.72716600  0.25714300  0.12791400  1
  Se  Se4  1  0.27723800  0.24565100  0.37971800  1
  Se  Se5  1  0.37974200  0.93567800  0.17876800  1
  Se  Se6  1  0.79782500  0.28518100  0.50190700  1
  Se  Se7  1  0.86616600  0.94522700  0.31883500  1
  Se  Se8  1  0.13383400  0.05477300  0.68116500  1
  Se  Se9  1  0.20217500  0.71481900  0.49809300  1
  Se  Se10  1  0.62025800  0.06432200  0.82123200  1
  Se  Se11  1  0.72276200  0.75434900  0.62028200  1
  Se  Se12  1  0.27283400  0.74285700  0.87208600  1
  Se  Se13  1  0.37300300  0.42860400  0.69076200  1
  Se  Se14  1  0.87367400  0.46367800  0.82058500  1
  Se  Se15  1  0.20698900  0.22076000  0.98981400  1
loop_
_geom_bond_atom_site_label_1
_geom_bond_atom_site_label_2
_geom_bond_distance
_geom_bond_site_symmetry_2
Fe0 Se5 2.411781 1_555
Fe0 Se1 2.418891 1_555
Fe0 Se9 2.442182 1_555
Fe0 Se7 2.565681 1_455
Fe0 Mo5 2.663280 1_555
Fe0 Se0 3.270845 1_455
Fe1 Se10 2.411781 1_555
Fe1 Se14 2.418891 1_555
Fe1 Se6 2.442182 1_555
Fe1 Se8 2.565681 1_655
Fe1 Mo6 2.663280 1_555
Fe1 Se15 3.270845 1_655
Mo0 Se0 2.562710 1_555
Mo0 Se12 2.595798 1_554
Mo0 Se2 2.622377 1_555
Mo0 Se1 2.654052 1_555
Mo0 Se5 2.750573 1_555
Mo1 Se0 2.558903 1_555
Mo1 Se3 2.573881 1_555
Mo1 Se2 2.578579 1_555
Mo1 Se14 2.633101 1_554
Mo1 Se1 2.658995 1_655
Mo2 Se1 2.558474 1_555
Mo2 Se2 2.578996 1_555
Mo2 Se15 2.601441 1_554
Mo2 Se3 2.605365 1_555
Mo2 Se4 2.727175 1_555
Mo3 Se5 2.587365 1_545
Mo3 Se6 2.601010 1_555
Mo3 Se4 2.609668 1_555
Mo3 Se7 2.626827 1_545
Mo3 Se3 2.712321 1_555
Mo4 Se6 2.582863 1_555
Mo4 Se4 2.592891 1_555
Mo4 Se8 2.603273 1_555
Mo4 Se10 2.667590 1_555
Mo4 Se13 2.741487 1_555
Mo5 Se4 2.553141 1_565
Mo5 Se8 2.628126 1_565
Mo5 Se9 2.663837 1_555
Mo5 Se7 2.711599 1_455
Mo5 Se5 2.736734 1_555
Mo6 Se11 2.553141 1_545
Mo6 Se7 2.628126 1_545
Mo6 Se6 2.663837 1_555
Mo6 Se8 2.711599 1_655
Mo6 Se10 2.736734 1_555
Mo7 Se9 2.582863 1_555
Mo7 Se11 2.592891 1_555
Mo7 Se7 2.603273 1_555
Mo7 Se5 2.667590 1_555
Mo7 Se2 2.741487 1_555
Mo8 Se10 2.587365 1_565
Mo8 Se9 2.601010 1_555
Mo8 Se11 2.609668 1_555
Mo8 Se8 2.626827 1_565
Mo8 Se12 2.712321 1_555
Mo9 Se14 2.558474 1_555
Mo9 Se13 2.578996 1_555
Mo9 Se0 2.601441 1_556
Mo9 Se12 2.605365 1_555
Mo9 Se11 2.727175 1_555
Mo10 Se15 2.558903 1_555
Mo10 Se12 2.573881 1_555
Mo10 Se13 2.578579 1_555
Mo10 Se1 2.633101 1_556
Mo10 Se14 2.658995 1_455
Mo11 Se15 2.562710 1_555
Mo11 Se3 2.595798 1_556
Mo11 Se13 2.622377 1_555
Mo11 Se14 2.654052 1_555
Mo11 Se10 2.750573 1_555
