# generated using pymatgen
data_Cs3Mo6(P5O19)2
_symmetry_space_group_name_H-M   'P 1'
_cell_length_a   6.56180000
_cell_length_b   9.69398262
_cell_length_c   14.55011904
_cell_angle_alpha   89.86628158
_cell_angle_beta   91.17809429
_cell_angle_gamma   105.99436339
_symmetry_Int_Tables_number   1
_chemical_formula_structural   Cs3Mo6(P5O19)2
_chemical_formula_sum   'Cs3 Mo6 P10 O38'
_cell_volume   889.51082425
_cell_formula_units_Z   1
loop_
 _symmetry_equiv_pos_site_id
 _symmetry_equiv_pos_as_xyz
  1  'x, y, z'
loop_
 _atom_site_type_symbol
 _atom_site_label
 _atom_site_symmetry_multiplicity
 _atom_site_fract_x
 _atom_site_fract_y
 _atom_site_fract_z
 _atom_site_occupancy
  Cs  Cs0  1  0.00000000  0.00000000  0.00000000  1
  Cs  Cs1  1  0.04162500  0.37344800  0.28349000  1
  Cs  Cs2  1  0.95837500  0.62655200  0.71651000  1
  Mo  Mo0  1  0.73443500  0.66593900  0.38845800  1
  Mo  Mo1  1  0.71608500  0.63190900  0.13507200  1
  Mo  Mo2  1  0.61975000  0.96005900  0.75004000  1
  Mo  Mo3  1  0.38025000  0.03994100  0.24996000  1
  Mo  Mo4  1  0.26556500  0.33406100  0.61154200  1
  Mo  Mo5  1  0.28391500  0.36809100  0.86492800  1
  P  P0  1  0.71450400  0.23656200  0.58889900  1
  P  P1  1  0.49177000  0.70450000  0.57559300  1
  P  P2  1  0.28549600  0.76343800  0.41110100  1
  P  P3  1  0.84346100  0.95339300  0.25176300  1
  P  P4  1  0.51092500  0.28111000  0.06058000  1
  P  P5  1  0.15653900  0.04660700  0.74823700  1
  P  P6  1  0.50823000  0.29550000  0.42440700  1
  P  P7  1  0.26051000  0.71816000  0.11280400  1
  P  P8  1  0.73949000  0.28184000  0.88719600  1
  P  P9  1  0.48907500  0.71889000  0.93942000  1
  O  O0  1  0.65278700  0.41047600  0.11066700  1
  O  O1  1  0.33772500  0.77425600  0.01041900  1
  O  O2  1  0.63718900  0.20154900  0.48125900  1
  O  O3  1  0.25862900  0.39580400  0.73643600  1
  O  O4  1  0.58471500  0.33298300  0.62752400  1
  O  O5  1  0.97521800  0.36418500  0.89701100  1
  O  O6  1  0.07037000  0.05467800  0.24249400  1
  O  O7  1  0.38836300  0.61424800  0.14388600  1
  O  O8  1  0.30013100  0.94431900  0.74977000  1
  O  O9  1  0.17468700  0.12718600  0.65525300  1
  O  O10  1  0.05488100  0.67430800  0.41243000  1
  O  O11  1  0.66829500  0.68646300  0.99790100  1
  O  O12  1  0.57829500  0.84577100  0.87738300  1
  O  O13  1  0.41528500  0.66701700  0.37247600  1
  O  O14  1  0.02478200  0.63581500  0.10298900  1
  O  O15  1  0.66227500  0.22574400  0.98958100  1
  O  O16  1  0.65513100  0.44874700  0.42475200  1
  O  O17  1  0.32478000  0.91115500  0.36825200  1
  O  O18  1  0.42170500  0.15422900  0.12261700  1
  O  O19  1  0.29374500  0.85122400  0.17049800  1
  O  O20  1  0.74137100  0.60419600  0.26356400  1
  O  O21  1  0.34486900  0.55125300  0.57524800  1
  O  O22  1  0.67522000  0.08884500  0.63174800  1
  O  O23  1  0.53532100  0.76530900  0.67220700  1
  O  O24  1  0.70177900  0.71602000  0.52540300  1
  O  O25  1  0.21117300  0.14812700  0.83241100  1
  O  O26  1  0.34721300  0.58952400  0.88933300  1
  O  O27  1  0.29822100  0.28398000  0.47459700  1
  O  O28  1  0.46467900  0.23469100  0.32779300  1
  O  O29  1  0.82531300  0.87281400  0.34474700  1
  O  O30  1  0.69986900  0.05568100  0.25023000  1
  O  O31  1  0.78882700  0.85187300  0.16758900  1
  O  O32  1  0.70625500  0.14877600  0.82950200  1
  O  O33  1  0.92963000  0.94532200  0.75750600  1
  O  O34  1  0.33170500  0.31353700  0.00209900  1
  O  O35  1  0.94511900  0.32569200  0.58757000  1
  O  O36  1  0.61163700  0.38575200  0.85611400  1
  O  O37  1  0.36281100  0.79845100  0.51874100  1
loop_
_geom_bond_atom_site_label_1
_geom_bond_atom_site_label_2
_geom_bond_distance
_geom_bond_site_symmetry_2
Cs0 O31 2.992338 1_445
Cs0 O25 2.992338 1_554
Cs0 O11 3.213797 1_444
Cs0 O34 3.213797 1_555
Cs0 O12 3.256517 1_444
Cs0 O18 3.256517 1_555
Cs0 O1 3.518536 1_545
Cs0 O15 3.518536 1_454
Cs1 O6 3.205441 1_555
Cs1 O30 3.302672 1_455
Cs1 O20 3.372168 1_455
Cs1 O13 3.439237 1_555
Cs1 O28 3.451250 1_555
Cs1 O10 3.451445 1_555
Cs1 O27 3.452541 1_555
Cs1 O7 3.463048 1_555
Cs1 O16 3.525722 1_455
Cs1 O0 3.633007 1_455
Cs1 O14 3.672915 1_555
Cs1 O28 3.721177 1_455
Cs2 O33 3.205441 1_555
Cs2 O8 3.302672 1_655
Cs2 O3 3.372168 1_655
Cs2 O4 3.439237 1_555
Cs2 O23 3.451250 1_555
Cs2 O35 3.451445 1_555
Cs2 O24 3.452541 1_555
Cs2 O36 3.463048 1_555
Cs2 O21 3.525722 1_655
Cs2 O26 3.633007 1_655
Cs2 O5 3.672915 1_555
Cs2 O23 3.721177 1_655
Mo0 O20 1.919923 1_555
Mo0 O29 2.032855 1_555
Mo0 O24 2.081186 1_555
Mo0 O16 2.094022 1_555
Mo0 O10 2.103702 1_655
Mo0 O13 2.105202 1_555
Mo1 O20 1.898545 1_555
Mo1 O14 2.078212 1_655
Mo1 O0 2.100600 1_555
Mo1 O11 2.102898 1_554
Mo1 O31 2.105476 1_555
Mo1 O7 2.116252 1_555
Mo2 O8 2.060382 1_555
Mo2 O33 2.077916 1_555
Mo2 O32 2.101513 1_565
Mo2 O22 2.102099 1_565
Mo2 O23 2.135745 1_555
Mo2 O12 2.139997 1_555
Mo3 O30 2.060382 1_555
Mo3 O6 2.077916 1_555
Mo3 O19 2.101513 1_545
Mo3 O17 2.102099 1_545
Mo3 O28 2.135745 1_555
Mo3 O18 2.139997 1_555
Mo4 O3 1.919923 1_555
Mo4 O9 2.032855 1_555
Mo4 O27 2.081186 1_555
Mo4 O21 2.094022 1_555
Mo4 O35 2.103702 1_455
Mo4 O4 2.105202 1_555
Mo5 O3 1.898545 1_555
Mo5 O5 2.078212 1_455
Mo5 O26 2.100600 1_555
Mo5 O34 2.102898 1_556
Mo5 O25 2.105476 1_555
Mo5 O36 2.116252 1_555
O0 P4 1.517685 1_555
O1 P7 1.626989 1_555
O1 P9 1.637092 1_554
O2 P6 1.619328 1_555
O2 P0 1.643290 1_555
O4 P0 1.541311 1_555
O5 P8 1.536618 1_555
O6 P3 1.549562 1_445
O7 P7 1.539818 1_555
O8 P5 1.544478 1_565
O9 P5 1.550868 1_555
O10 P2 1.522309 1_555
O11 P9 1.538561 1_555
O12 P9 1.513304 1_555
O13 P2 1.541311 1_555
O14 P7 1.536618 1_555
O15 P8 1.626989 1_555
O15 P4 1.637092 1_556
O16 P6 1.531930 1_555
O17 P2 1.518123 1_555
O18 P4 1.513304 1_555
O19 P7 1.502877 1_555
O21 P1 1.531930 1_555
O22 P0 1.518123 1_555
O23 P1 1.516505 1_555
O24 P1 1.549498 1_555
O25 P5 1.546019 1_555
O26 P9 1.517685 1_555
O27 P6 1.549498 1_555
O28 P6 1.516505 1_555
O29 P3 1.550868 1_555
O30 P3 1.544478 1_545
O31 P3 1.546019 1_555
O32 P8 1.502877 1_555
O33 P5 1.549562 1_665
O34 P4 1.538561 1_555
O35 P0 1.522309 1_555
O36 P8 1.539818 1_555
O37 P1 1.619328 1_555
O37 P2 1.643290 1_555
