# generated using pymatgen
data_MgTiNb2(PbO3)4
_symmetry_space_group_name_H-M   'P 1'
_cell_length_a   8.05959700
_cell_length_b   8.30192365
_cell_length_c   9.98018349
_cell_angle_alpha   113.70804290
_cell_angle_beta   113.74510869
_cell_angle_gamma   89.85212816
_symmetry_Int_Tables_number   1
_chemical_formula_structural   MgTiNb2(PbO3)4
_chemical_formula_sum   'Mg2 Ti2 Nb4 Pb8 O24'
_cell_volume   549.45469328
_cell_formula_units_Z   2
loop_
 _symmetry_equiv_pos_site_id
 _symmetry_equiv_pos_as_xyz
  1  'x, y, z'
loop_
 _atom_site_type_symbol
 _atom_site_label
 _atom_site_symmetry_multiplicity
 _atom_site_fract_x
 _atom_site_fract_y
 _atom_site_fract_z
 _atom_site_occupancy
  Mg  Mg0  1  0.38865600  0.88964600  0.26200600  1
  Mg  Mg1  1  0.13657100  0.13839900  0.75828900  1
  Ti  Ti0  1  0.87926500  0.37571000  0.25218900  1
  Ti  Ti1  1  0.63125000  0.62774100  0.75704200  1
  Nb  Nb0  1  0.38254500  0.39161800  0.25834900  1
  Nb  Nb1  1  0.88575800  0.87849800  0.25676500  1
  Nb  Nb2  1  0.12997400  0.64378300  0.75408400  1
  Nb  Nb3  1  0.63767100  0.12818400  0.75995900  1
  Pb  Pb0  1  0.01849600  0.97479600  0.99822200  1
  Pb  Pb1  1  0.00037100  0.48040800  0.98075700  1
  Pb  Pb2  1  0.48338800  0.97579100  0.99539300  1
  Pb  Pb3  1  0.48577400  0.48241300  0.98120100  1
  Pb  Pb4  1  0.73834200  0.73218200  0.48556200  1
  Pb  Pb5  1  0.75341500  0.22158900  0.48791500  1
  Pb  Pb6  1  0.25152800  0.73463100  0.48997300  1
  Pb  Pb7  1  0.24128700  0.22094500  0.49003100  1
  O  O0  1  0.27320200  0.29197900  0.02766700  1
  O  O1  1  0.26532600  0.79026800  0.01128300  1
  O  O2  1  0.40847300  0.65592000  0.29400200  1
  O  O3  1  0.40346900  0.17298300  0.28387600  1
  O  O4  1  0.65365700  0.41788400  0.28261200  1
  O  O5  1  0.64934500  0.92069800  0.27099400  1
  O  O6  1  0.89210700  0.17816400  0.78414700  1
  O  O7  1  0.89163800  0.66116700  0.77316000  1
  O  O8  1  0.77383900  0.29507700  0.02908300  1
  O  O9  1  0.76898500  0.79052200  0.01741700  1
  O  O10  1  0.02014200  0.53747200  0.51689700  1
  O  O11  1  0.89637000  0.65808000  0.27379200  1
  O  O12  1  0.01271100  0.03912500  0.50579200  1
  O  O13  1  0.14957300  0.89803100  0.77395800  1
  O  O14  1  0.89412900  0.16744000  0.27087500  1
  O  O15  1  0.15116700  0.42041400  0.78172900  1
  O  O16  1  0.14644300  0.41819100  0.28140500  1
  O  O17  1  0.13715500  0.92134900  0.26887700  1
  O  O18  1  0.40805500  0.17829400  0.78374800  1
  O  O19  1  0.39962200  0.66023300  0.77257900  1
  O  O20  1  0.52738600  0.54333500  0.53242300  1
  O  O21  1  0.64585900  0.90813600  0.77358400  1
  O  O22  1  0.52294200  0.04214600  0.52841300  1
  O  O23  1  0.65091800  0.42115700  0.78354900  1
loop_
_geom_bond_atom_site_label_1
_geom_bond_atom_site_label_2
_geom_bond_distance
_geom_bond_site_symmetry_2
Mg0 O1 2.066654 1_555
Mg0 O17 2.068179 1_555
Mg0 O5 2.078780 1_555
Mg0 O2 2.085216 1_555
Mg0 O22 2.196848 1_565
Mg0 O3 2.272121 1_565
Mg1 O13 2.062568 1_545
Mg1 O12 2.081883 1_555
Mg1 O6 2.096476 1_455
Mg1 O18 2.109541 1_555
Mg1 O0 2.220942 1_556
Mg1 O15 2.255863 1_555
Nb0 O0 1.897265 1_555
Nb0 O3 1.929657 1_555
Nb0 O16 2.008042 1_555
Nb0 O2 2.073523 1_555
Nb0 O4 2.101079 1_555
Nb0 O20 2.257581 1_555
Nb1 O11 1.903220 1_555
Nb1 O9 1.978716 1_555
Nb1 O5 1.986929 1_555
Nb1 O17 2.004590 1_655
Nb1 O12 2.072683 1_665
Nb1 O14 2.345218 1_565
Nb2 O10 1.949996 1_555
Nb2 O15 1.978866 1_555
Nb2 O7 2.004467 1_455
Nb2 O13 2.039454 1_555
Nb2 O19 2.105697 1_555
Nb2 O1 2.121175 1_556
Nb3 O21 1.884684 1_545
Nb3 O22 1.913260 1_555
Nb3 O18 1.981070 1_555
Nb3 O6 1.990174 1_555
Nb3 O8 2.231504 1_556
Nb3 O23 2.345897 1_555
O0 Pb3 2.625474 1_554
O0 Pb1 2.691394 1_554
O1 Pb2 2.433307 1_554
O1 Pb0 2.501470 1_554
O2 Pb4 2.462939 1_555
O2 Pb6 2.610100 1_555
O3 Pb5 2.642741 1_555
O3 Pb7 2.757650 1_555
O4 Ti0 1.968977 1_555
O4 Pb4 2.454103 1_555
O5 Pb5 2.414521 1_565
O5 Pb2 2.758517 1_554
O6 Pb1 2.362386 1_655
O7 Ti1 2.049960 1_555
O7 Pb0 2.516195 1_655
O8 Ti0 1.846256 1_555
O8 Pb1 2.693269 1_654
O8 Pb3 2.779013 1_554
O9 Ti1 2.161456 1_554
O9 Pb0 2.642504 1_654
O9 Pb2 2.749261 1_554
O10 Ti0 2.193433 1_455
O10 Pb6 2.646144 1_555
O10 Pb4 2.772120 1_455
O11 Ti0 2.265420 1_555
O11 Pb6 2.680580 1_655
O11 Pb4 2.754225 1_555
O12 Pb7 2.477028 1_555
O12 Pb5 2.567981 1_455
O13 Pb2 2.571462 1_555
O13 Pb0 2.699149 1_555
O14 Ti0 1.810788 1_555
O14 Pb7 2.665795 1_655
O14 Pb5 2.715316 1_555
O15 Pb3 2.521976 1_555
O15 Pb1 2.610778 1_555
O16 Ti0 2.064431 1_455
O16 Pb6 2.479097 1_555
O17 Pb7 2.422109 1_565
O17 Pb0 2.699836 1_554
O18 Pb3 2.379769 1_555
O18 Pb7 2.860760 1_555
O19 Ti1 1.943899 1_555
O19 Pb2 2.525709 1_555
O19 Pb3 2.880738 1_555
O20 Ti1 1.856262 1_555
O20 Pb4 2.609830 1_555
O20 Pb6 2.721943 1_555
O21 Ti1 2.266401 1_555
O21 Pb0 2.817928 1_655
O22 Pb5 2.633648 1_555
O22 Pb7 2.691225 1_555
O23 Ti1 1.834711 1_555
O23 Pb1 2.610074 1_655
O23 Pb3 2.688043 1_555
