# generated using pymatgen
data_Cs(BI)6
_symmetry_space_group_name_H-M   'P 1'
_cell_length_a   18.25704477
_cell_length_b   18.25704477
_cell_length_c   18.25704438
_cell_angle_alpha   34.30081863
_cell_angle_beta   34.30081863
_cell_angle_gamma   34.30081915
_symmetry_Int_Tables_number   1
_chemical_formula_structural   Cs(BI)6
_chemical_formula_sum   'Cs4 B24 I24'
_cell_volume   1723.52236144
_cell_formula_units_Z   4
loop_
 _symmetry_equiv_pos_site_id
 _symmetry_equiv_pos_as_xyz
  1  'x, y, z'
loop_
 _atom_site_type_symbol
 _atom_site_label
 _atom_site_symmetry_multiplicity
 _atom_site_fract_x
 _atom_site_fract_y
 _atom_site_fract_z
 _atom_site_occupancy
  Cs  Cs0  1  0.21000600  0.21000600  0.21000600  1
  Cs  Cs1  1  0.62683300  0.62683300  0.62683300  1
  Cs  Cs2  1  0.78999400  0.78999400  0.78999400  1
  Cs  Cs3  1  0.37316700  0.37316700  0.37316700  1
  B  B0  1  0.44957900  0.63453300  0.49472300  1
  B  B1  1  0.82573000  0.13106900  0.02436400  1
  B  B2  1  0.17427000  0.86893100  0.97563600  1
  B  B3  1  0.36546700  0.50527700  0.55042100  1
  B  B4  1  0.50527700  0.55042100  0.36546700  1
  B  B5  1  0.88786200  0.95486500  0.07803800  1
  B  B6  1  0.49472300  0.44957900  0.63453300  1
  B  B7  1  0.33112400  0.55711500  0.63048400  1
  B  B8  1  0.95486500  0.07803800  0.88786200  1
  B  B9  1  0.63048400  0.33112400  0.55711500  1
  B  B10  1  0.86893100  0.97563600  0.17427000  1
  B  B11  1  0.92196200  0.11213800  0.04513500  1
  B  B12  1  0.44288500  0.36951600  0.66887600  1
  B  B13  1  0.36951600  0.66887600  0.44288500  1
  B  B14  1  0.63453300  0.49472300  0.44957900  1
  B  B15  1  0.02436400  0.82573000  0.13106900  1
  B  B16  1  0.07803800  0.88786200  0.95486500  1
  B  B17  1  0.55711500  0.63048400  0.33112400  1
  B  B18  1  0.04513500  0.92196200  0.11213800  1
  B  B19  1  0.97563600  0.17427000  0.86893100  1
  B  B20  1  0.11213800  0.04513500  0.92196200  1
  B  B21  1  0.13106900  0.02436400  0.82573000  1
  B  B22  1  0.55042100  0.36546700  0.50527700  1
  B  B23  1  0.66887600  0.44288500  0.36951600  1
  I  I0  1  0.89901600  0.17707300  0.74377900  1
  I  I1  1  0.50956300  0.61603200  0.19420500  1
  I  I2  1  0.29769400  0.05497800  0.60180200  1
  I  I3  1  0.11804800  0.62852600  0.79914900  1
  I  I4  1  0.38396800  0.80579500  0.49043700  1
  I  I5  1  0.94502200  0.39819800  0.70230600  1
  I  I6  1  0.10098400  0.82292700  0.25622100  1
  I  I7  1  0.25622100  0.10098400  0.82292700  1
  I  I8  1  0.70230600  0.94502200  0.39819800  1
  I  I9  1  0.74377900  0.89901600  0.17707300  1
  I  I10  1  0.88195200  0.37147400  0.20085100  1
  I  I11  1  0.05497800  0.60180200  0.29769400  1
  I  I12  1  0.60180200  0.29769400  0.05497800  1
  I  I13  1  0.49043700  0.38396800  0.80579500  1
  I  I14  1  0.17707300  0.74377900  0.89901600  1
  I  I15  1  0.82292700  0.25622100  0.10098400  1
  I  I16  1  0.79914900  0.11804800  0.62852600  1
  I  I17  1  0.19420500  0.50956300  0.61603200  1
  I  I18  1  0.80579500  0.49043700  0.38396800  1
  I  I19  1  0.62852600  0.79914900  0.11804800  1
  I  I20  1  0.20085100  0.88195200  0.37147400  1
  I  I21  1  0.37147400  0.20085100  0.88195200  1
  I  I22  1  0.39819800  0.70230600  0.94502200  1
  I  I23  1  0.61603200  0.19420500  0.50956300  1
loop_
_geom_bond_atom_site_label_1
_geom_bond_atom_site_label_2
_geom_bond_distance
_geom_bond_site_symmetry_2
Cs0 I21 4.032225 1_554
Cs0 I10 4.032225 1_455
Cs0 I20 4.032225 1_545
Cs0 I13 4.059240 1_554
Cs0 I4 4.059240 1_545
Cs0 I18 4.059241 1_455
Cs1 I22 4.090010 1_555
Cs1 I5 4.090010 1_555
Cs1 I8 4.090010 1_555
Cs1 I18 4.171467 1_555
Cs1 I4 4.171467 1_555
Cs1 I13 4.171467 1_555
Cs1 I9 4.222010 1_555
Cs1 I14 4.222010 1_555
Cs1 I0 4.222010 1_555
Cs1 I12 4.295209 1_556
Cs1 I11 4.295209 1_655
Cs1 I2 4.295209 1_565
Cs2 I19 4.032225 1_556
Cs2 I3 4.032225 1_655
Cs2 I16 4.032225 1_565
Cs2 I1 4.059240 1_556
Cs2 I23 4.059240 1_565
Cs2 I17 4.059241 1_655
Cs3 I12 4.090010 1_555
Cs3 I11 4.090010 1_555
Cs3 I2 4.090010 1_555
Cs3 I17 4.171467 1_555
Cs3 I23 4.171467 1_555
Cs3 I1 4.171467 1_555
Cs3 I7 4.222010 1_555
Cs3 I15 4.222010 1_555
Cs3 I6 4.222010 1_555
Cs3 I22 4.295209 1_554
Cs3 I5 4.295209 1_455
Cs3 I8 4.295209 1_545
B0 B13 1.793432 1_555
B0 B17 1.793806 1_555
B0 B7 1.795601 1_555
B0 B6 1.798380 1_555
B0 B14 1.798380 1_555
B0 I4 2.186329 1_555
B1 B5 1.787458 1_545
B1 B10 1.789441 1_545
B1 B19 1.789441 1_554
B1 B8 1.792830 1_554
B1 B11 1.797489 1_555
B1 I12 2.183249 1_555
B2 B20 1.787458 1_565
B2 B21 1.789441 1_565
B2 I22 2.183249 1_555
B3 B7 1.793432 1_555
B3 B4 1.798380 1_555
B3 I17 2.186329 1_555
B4 I1 2.186329 1_555
B5 B8 1.798946 1_564
B5 I9 2.180801 1_555
B6 B7 1.793806 1_555
B6 B9 1.795601 1_555
B6 I13 2.186329 1_555
B7 I3 2.185681 1_555
B8 I0 2.180801 1_555
B9 I16 2.185681 1_555
B10 B18 1.787458 1_655
B10 B15 1.789441 1_655
B10 B11 1.792830 1_565
B10 B5 1.797489 1_555
B10 I8 2.183249 1_555
B11 B19 1.787458 1_554
B11 B20 1.798946 1_654
B11 B18 1.798946 1_645
B11 I15 2.180801 1_555
B12 B6 1.793432 1_555
B12 B22 1.793806 1_555
B12 B3 1.795601 1_555
B12 B9 1.798794 1_555
B12 B7 1.798794 1_555
B12 I21 2.185681 1_555
B13 B3 1.793806 1_555
B13 B4 1.795601 1_555
B13 B7 1.798794 1_555
B13 B17 1.798794 1_555
B13 I20 2.185681 1_555
B14 B23 1.793432 1_555
B14 B9 1.793806 1_555
B14 B17 1.795601 1_555
B14 B6 1.798380 1_555
B14 I18 2.186329 1_555
B15 B16 1.787458 1_554
B15 B2 1.789441 1_554
B15 B5 1.792830 1_455
B15 B18 1.797489 1_555
B15 I11 2.183249 1_555
B16 B21 1.792830 1_565
B16 B2 1.797489 1_555
B16 B5 1.798946 1_456
B16 B8 1.798946 1_465
B16 I14 2.180801 1_555
B17 B4 1.793432 1_555
B17 B23 1.798794 1_555
B17 I19 2.185681 1_555
B18 B2 1.792830 1_554
B18 B20 1.798946 1_564
B18 I6 2.180801 1_555
B19 B21 1.789441 1_655
B19 B20 1.792830 1_655
B19 B8 1.797489 1_555
B19 I5 2.183249 1_555
B20 B21 1.797489 1_555
B20 I7 2.180801 1_555
B21 B8 1.787458 1_455
B21 I2 2.183249 1_555
B22 B9 1.793432 1_555
B22 B23 1.795601 1_555
B22 B4 1.798380 1_555
B22 B3 1.798380 1_555
B22 I23 2.186329 1_555
B23 B4 1.793806 1_555
B23 B9 1.798794 1_555
B23 I10 2.185681 1_555
