# generated using pymatgen
data_CaIn4Ni
_symmetry_space_group_name_H-M   'P 1'
_cell_length_a   4.42391115
_cell_length_b   7.31326069
_cell_length_c   8.62142488
_cell_angle_alpha   90.00000000
_cell_angle_beta   104.86633966
_cell_angle_gamma   90.00000000
_symmetry_Int_Tables_number   1
_chemical_formula_structural   CaIn4Ni
_chemical_formula_sum   'Ca2 In8 Ni2'
_cell_volume   269.59415894
_cell_formula_units_Z   2
loop_
 _symmetry_equiv_pos_site_id
 _symmetry_equiv_pos_as_xyz
  1  'x, y, z'
loop_
 _atom_site_type_symbol
 _atom_site_label
 _atom_site_symmetry_multiplicity
 _atom_site_fract_x
 _atom_site_fract_y
 _atom_site_fract_z
 _atom_site_occupancy
  Ca  Ca0  1  0.87534031  0.25000000  0.75067961  1
  Ca  Ca1  1  0.12465969  0.75000000  0.24932039  1
  In  In0  1  0.31220523  0.54819366  0.62440946  1
  In  In1  1  0.07254757  0.25000000  0.14509415  1
  In  In2  1  0.68779477  0.04819366  0.37559054  1
  In  In3  1  0.50000000  -0.00000000  -0.00000000  1
  In  In4  1  0.92745243  0.75000000  0.85490585  1
  In  In5  1  0.68779477  0.45180634  0.37559054  1
  In  In6  1  0.31220523  0.95180634  0.62440946  1
  In  In7  1  0.50000000  0.50000000  -0.00000000  1
  Ni  Ni0  1  0.22595521  0.25000000  0.45191042  1
  Ni  Ni1  1  0.77404479  0.75000000  0.54808958  1
loop_
_geom_bond_atom_site_label_1
_geom_bond_atom_site_label_2
_geom_bond_distance
_geom_bond_site_symmetry_2
Ca0 In6 3.279573 1_545
Ca0 In0 3.279573 1_555
Ca0 In0 3.279573 1_655
Ca0 In6 3.279573 1_645
Ca0 In1 3.286593 1_656
Ca0 Ni0 3.330289 1_655
Ca0 Ni0 3.330292 1_555
Ca0 In5 3.456483 1_555
Ca0 In2 3.456483 1_555
Ca0 In3 3.542834 1_656
Ca0 In7 3.542834 1_656
Ca0 In7 3.542837 1_556
Ca0 In3 3.542837 1_556
Ca0 In4 3.758356 1_545
Ca0 In4 3.758356 1_555
Ca1 In2 3.279573 1_565
Ca1 In5 3.279573 1_555
Ca1 In2 3.279573 1_465
Ca1 In5 3.279573 1_455
Ca1 In4 3.286593 1_454
Ca1 Ni1 3.330289 1_455
Ca1 Ni1 3.330292 1_555
Ca1 In6 3.456483 1_555
Ca1 In0 3.456483 1_555
Ca1 In3 3.542834 1_465
Ca1 In7 3.542834 1_455
Ca1 In3 3.542837 1_565
Ca1 In7 3.542837 1_555
Ca1 In1 3.758356 1_565
Ca1 In1 3.758356 1_555
In0 Ni0 2.611874 1_555
In0 Ni1 2.734109 1_555
In0 Ni1 2.734113 1_455
In0 In7 3.149519 1_556
In1 Ni0 2.556651 1_555
In1 In3 3.114044 1_555
In1 In7 3.114044 1_555
In1 In3 3.114047 1_455
In1 In7 3.114047 1_455
In2 Ni1 2.611874 1_545
In2 Ni0 2.734109 1_555
In2 Ni0 2.734113 1_655
In2 In3 3.149519 1_555
In3 In4 3.114044 1_544
In3 In4 3.114047 1_444
In3 In6 3.149519 1_544
In4 Ni1 2.556651 1_555
In4 In7 3.114044 1_556
In4 In7 3.114047 1_656
In5 Ni1 2.611874 1_555
In5 Ni0 2.734109 1_555
In5 Ni0 2.734113 1_655
In5 In7 3.149519 1_555
In6 Ni0 2.611874 1_565
In6 Ni1 2.734109 1_555
In6 Ni1 2.734113 1_455
