# generated using pymatgen
data_Na2PH5O6
_symmetry_space_group_name_H-M   'P 1'
_cell_length_a   7.19623700
_cell_length_b   11.20502000
_cell_length_c   15.43184000
_cell_angle_alpha   90.00000000
_cell_angle_beta   90.00000000
_cell_angle_gamma   90.00000000
_symmetry_Int_Tables_number   1
_chemical_formula_structural   Na2PH5O6
_chemical_formula_sum   'Na16 P8 H40 O48'
_cell_volume   1244.33067036
_cell_formula_units_Z   8
loop_
 _symmetry_equiv_pos_site_id
 _symmetry_equiv_pos_as_xyz
  1  'x, y, z'
loop_
 _atom_site_type_symbol
 _atom_site_label
 _atom_site_symmetry_multiplicity
 _atom_site_fract_x
 _atom_site_fract_y
 _atom_site_fract_z
 _atom_site_occupancy
  Na  Na0  1  0.65292100  0.21701200  0.19964100  1
  Na  Na1  1  0.84707900  0.71701200  0.80035900  1
  Na  Na2  1  0.15292100  0.78298800  0.30035900  1
  Na  Na3  1  0.34707900  0.28298800  0.69964100  1
  Na  Na4  1  0.34707900  0.78298800  0.80035900  1
  Na  Na5  1  0.15292100  0.28298800  0.19964100  1
  Na  Na6  1  0.84707900  0.21701200  0.69964100  1
  Na  Na7  1  0.65292100  0.71701200  0.30035900  1
  Na  Na8  1  0.72058900  0.07794000  0.47759200  1
  Na  Na9  1  0.77941100  0.57794000  0.52240800  1
  Na  Na10  1  0.22058900  0.92206000  0.02240800  1
  Na  Na11  1  0.27941100  0.42206000  0.97759200  1
  Na  Na12  1  0.27941100  0.92206000  0.52240800  1
  Na  Na13  1  0.22058900  0.42206000  0.47759200  1
  Na  Na14  1  0.77941100  0.07794000  0.97759200  1
  Na  Na15  1  0.72058900  0.57794000  0.02240800  1
  P  P0  1  0.86045800  0.46790700  0.32833300  1
  P  P1  1  0.63954200  0.96790700  0.67166700  1
  P  P2  1  0.36045800  0.53209300  0.17166700  1
  P  P3  1  0.13954200  0.03209300  0.82833300  1
  P  P4  1  0.13954200  0.53209300  0.67166700  1
  P  P5  1  0.36045800  0.03209300  0.32833300  1
  P  P6  1  0.63954200  0.46790700  0.82833300  1
  P  P7  1  0.86045800  0.96790700  0.17166700  1
  H  H0  1  0.05182900  0.12567800  0.39940600  1
  H  H1  1  0.44817100  0.62567800  0.60059400  1
  H  H2  1  0.55182900  0.87432200  0.10059400  1
  H  H3  1  0.94817100  0.37432200  0.89940600  1
  H  H4  1  0.94817100  0.87432200  0.60059400  1
  H  H5  1  0.55182900  0.37432200  0.39940600  1
  H  H6  1  0.44817100  0.12567800  0.89940600  1
  H  H7  1  0.05182900  0.62567800  0.10059400  1
  H  H8  1  0.93918200  0.24560100  0.37693700  1
  H  H9  1  0.56081800  0.74560100  0.62306300  1
  H  H10  1  0.43918200  0.75439900  0.12306300  1
  H  H11  1  0.06081800  0.25439900  0.87693700  1
  H  H12  1  0.06081800  0.75439900  0.62306300  1
  H  H13  1  0.43918200  0.25439900  0.37693700  1
  H  H14  1  0.56081800  0.24560100  0.87693700  1
  H  H15  1  0.93918200  0.74560100  0.12306300  1
  H  H16  1  0.49841500  0.53585500  0.70989800  1
  H  H17  1  0.00158500  0.03585500  0.29010200  1
  H  H18  1  0.99841500  0.46414500  0.79010200  1
  H  H19  1  0.50158500  0.96414500  0.20989800  1
  H  H20  1  0.50158500  0.46414500  0.29010200  1
  H  H21  1  0.99841500  0.96414500  0.70989800  1
  H  H22  1  0.00158500  0.53585500  0.20989800  1
  H  H23  1  0.49841500  0.03585500  0.79010200  1
  H  H24  1  0.53625200  0.65329600  0.91258100  1
  H  H25  1  0.96374800  0.15329600  0.08741900  1
  H  H26  1  0.03625200  0.34670400  0.58741900  1
  H  H27  1  0.46374800  0.84670400  0.41258100  1
  H  H28  1  0.46374800  0.34670400  0.08741900  1
  H  H29  1  0.03625200  0.84670400  0.91258100  1
  H  H30  1  0.96374800  0.65329600  0.41258100  1
  H  H31  1  0.53625200  0.15329600  0.58741900  1
  H  H32  1  0.54234400  0.76845300  0.97364000  1
  H  H33  1  0.95765600  0.26845300  0.02636000  1
  H  H34  1  0.04234400  0.23154700  0.52636000  1
  H  H35  1  0.45765600  0.73154700  0.47364000  1
  H  H36  1  0.45765600  0.23154700  0.02636000  1
  H  H37  1  0.04234400  0.73154700  0.97364000  1
  H  H38  1  0.95765600  0.76845300  0.47364000  1
  H  H39  1  0.54234400  0.26845300  0.52636000  1
  O  O0  1  0.65611700  0.49459100  0.35590400  1
  O  O1  1  0.84388300  0.99459100  0.64409600  1
  O  O2  1  0.15611700  0.50540900  0.14409600  1
  O  O3  1  0.34388300  0.00540900  0.85590400  1
  O  O4  1  0.34388300  0.50540900  0.64409600  1
  O  O5  1  0.15611700  0.00540900  0.35590400  1
  O  O6  1  0.84388300  0.49459100  0.85590400  1
  O  O7  1  0.65611700  0.99459100  0.14409600  1
  O  O8  1  0.89035200  0.33965800  0.29588800  1
  O  O9  1  0.60964800  0.83965800  0.70411200  1
  O  O10  1  0.39035200  0.66034200  0.20411200  1
  O  O11  1  0.10964800  0.16034200  0.79588800  1
  O  O12  1  0.10964800  0.66034200  0.70411200  1
  O  O13  1  0.39035200  0.16034200  0.29588800  1
  O  O14  1  0.60964800  0.33965800  0.79588800  1
  O  O15  1  0.89035200  0.83965800  0.20411200  1
  O  O16  1  0.98922900  0.50454300  0.40305100  1
  O  O17  1  0.51077100  0.00454300  0.59694900  1
  O  O18  1  0.48922900  0.49545700  0.09694900  1
  O  O19  1  0.01077100  0.99545700  0.90305100  1
  O  O20  1  0.01077100  0.49545700  0.59694900  1
  O  O21  1  0.48922900  0.99545700  0.40305100  1
  O  O22  1  0.51077100  0.50454300  0.90305100  1
  O  O23  1  0.98922900  0.00454300  0.09694900  1
  O  O24  1  0.89322500  0.55994000  0.24974000  1
  O  O25  1  0.60677500  0.05994000  0.75026000  1
  O  O26  1  0.39322500  0.44006000  0.25026000  1
  O  O27  1  0.10677500  0.94006000  0.74974000  1
  O  O28  1  0.10677500  0.44006000  0.75026000  1
  O  O29  1  0.39322500  0.94006000  0.24974000  1
  O  O30  1  0.60677500  0.55994000  0.74974000  1
  O  O31  1  0.89322500  0.05994000  0.25026000  1
  O  O32  1  0.97005700  0.18838400  0.42546500  1
  O  O33  1  0.52994300  0.68838400  0.57453500  1
  O  O34  1  0.47005700  0.81161600  0.07453500  1
  O  O35  1  0.02994300  0.31161600  0.92546500  1
  O  O36  1  0.02994300  0.81161600  0.57453500  1
  O  O37  1  0.47005700  0.31161600  0.42546500  1
  O  O38  1  0.52994300  0.18838400  0.92546500  1
  O  O39  1  0.97005700  0.68838400  0.07453500  1
  O  O40  1  0.91634900  0.23725700  0.08412900  1
  O  O41  1  0.58365100  0.73725700  0.91587100  1
  O  O42  1  0.41634900  0.76274300  0.41587100  1
  O  O43  1  0.08365100  0.26274300  0.58412900  1
  O  O44  1  0.08365100  0.76274300  0.91587100  1
  O  O45  1  0.41634900  0.26274300  0.08412900  1
  O  O46  1  0.58365100  0.23725700  0.58412900  1
  O  O47  1  0.91634900  0.73725700  0.41587100  1
loop_
_geom_bond_atom_site_label_1
_geom_bond_atom_site_label_2
_geom_bond_distance
_geom_bond_site_symmetry_2
Na0 O13 2.485855 1_555
Na0 O45 2.517610 1_555
Na0 O31 2.588087 1_555
Na0 O40 2.612017 1_555
Na0 O7 2.635616 1_545
Na0 O8 2.648383 1_555
Na1 O12 2.485855 1_655
Na1 O44 2.517610 1_655
Na1 O30 2.588087 1_555
Na1 O41 2.612017 1_555
Na1 O6 2.635616 1_555
Na1 O9 2.648383 1_555
Na2 O15 2.485855 1_455
Na2 O47 2.517610 1_455
Na2 O29 2.588087 1_555
Na2 O42 2.612017 1_555
Na2 O5 2.635616 1_565
Na2 O10 2.648383 1_555
Na3 O14 2.485855 1_555
Na3 O46 2.517610 1_555
Na3 O28 2.588087 1_555
Na3 O43 2.612017 1_555
Na3 O4 2.635616 1_555
Na3 O11 2.648383 1_555
Na4 O9 2.485855 1_555
Na4 O41 2.517610 1_555
Na4 O27 2.588087 1_555
Na4 O44 2.612017 1_555
Na4 O3 2.635616 1_565
Na4 O12 2.648383 1_555
Na5 O8 2.485855 1_455
Na5 O40 2.517610 1_455
Na5 O26 2.588087 1_555
Na5 O45 2.612017 1_555
Na5 O2 2.635616 1_555
Na5 O13 2.648383 1_555
Na6 O11 2.485855 1_655
Na6 O43 2.517610 1_655
Na6 O25 2.588087 1_555
Na6 O46 2.612017 1_555
Na6 O1 2.635616 1_545
Na6 O14 2.648383 1_555
Na7 O10 2.485855 1_555
Na7 O42 2.517610 1_555
Na7 O24 2.588087 1_555
Na7 O47 2.612017 1_555
Na7 O0 2.635616 1_555
Na7 O15 2.648383 1_555
Na8 O21 2.224714 1_545
Na8 O32 2.324094 1_555
Na8 O17 2.519673 1_555
Na9 O20 2.224714 1_655
Na9 O33 2.324094 1_555
Na9 O16 2.519673 1_555
Na10 O23 2.224714 1_465
Na10 O34 2.324094 1_555
Na10 O19 2.519673 1_554
Na11 O22 2.224714 1_555
Na11 O35 2.324094 1_555
Na11 O18 2.519673 1_556
Na12 O17 2.224714 1_565
Na12 O36 2.324094 1_555
Na12 O21 2.519673 1_555
Na13 O16 2.224714 1_455
Na13 O37 2.324094 1_555
Na13 O20 2.519673 1_555
Na14 O19 2.224714 1_645
Na14 O38 2.324094 1_555
Na14 O23 2.519673 1_556
Na15 O18 2.224714 1_555
Na15 O39 2.324094 1_555
Na15 O22 2.519673 1_554
H0 O32 1.000833 1_455
H1 O33 1.000833 1_555
H2 O34 1.000833 1_555
H3 O35 1.000833 1_655
H4 O36 1.000833 1_655
H5 O37 1.000833 1_555
H6 O38 1.000833 1_555
H7 O39 1.000833 1_455
H8 O32 1.010551 1_555
H8 O8 1.672884 1_555
H9 O33 1.010551 1_555
H9 O9 1.672884 1_555
H10 O34 1.010551 1_555
H10 O10 1.672884 1_555
H11 O35 1.010551 1_555
H11 O11 1.672884 1_555
H12 O36 1.010551 1_555
H12 O12 1.672884 1_555
H13 O37 1.010551 1_555
H13 O13 1.672884 1_555
H14 O38 1.010551 1_555
H14 O14 1.672884 1_555
H15 O39 1.010551 1_555
H15 O15 1.672884 1_555
H16 O30 1.029037 1_555
H16 O4 1.544074 1_555
H17 O31 1.029037 1_455
H17 O5 1.544074 1_555
H18 O28 1.029037 1_655
H18 O6 1.544074 1_555
H19 O29 1.029037 1_555
H19 O7 1.544074 1_555
H20 O26 1.029037 1_555
H20 O0 1.544074 1_555
H21 O27 1.029037 1_655
H21 O1 1.544074 1_555
H22 O24 1.029037 1_455
H22 O2 1.544074 1_555
H23 O25 1.029037 1_555
H23 O3 1.544074 1_555
H24 O41 1.001997 1_555
H24 O22 1.683273 1_555
H25 O40 1.001997 1_555
H25 O23 1.683273 1_555
H26 O43 1.001997 1_555
H26 O20 1.683273 1_555
H27 O42 1.001997 1_555
H27 O21 1.683273 1_555
H28 O45 1.001997 1_555
H28 O18 1.683273 1_555
H29 O44 1.001997 1_555
H29 O19 1.683273 1_555
H30 O47 1.001997 1_555
H30 O16 1.683273 1_555
H31 O46 1.001997 1_555
H31 O17 1.683273 1_555
H32 O41 1.002640 1_555
H33 O40 1.002640 1_555
H34 O43 1.002640 1_555
H35 O42 1.002640 1_555
H36 O45 1.002640 1_555
H37 O44 1.002640 1_555
H38 O47 1.002640 1_555
H39 O46 1.002640 1_555
O0 P0 1.559729 1_555
O1 P1 1.559729 1_555
O2 P2 1.559729 1_555
O3 P3 1.559729 1_555
O4 P4 1.559729 1_555
O5 P5 1.559729 1_555
O6 P6 1.559729 1_555
O7 P7 1.559729 1_555
O8 P0 1.536889 1_555
O9 P1 1.536889 1_555
O10 P2 1.536889 1_555
O11 P3 1.536889 1_555
O12 P4 1.536889 1_555
O13 P5 1.536889 1_555
O14 P6 1.536889 1_555
O15 P7 1.536889 1_555
O16 P0 1.535161 1_555
O17 P1 1.535161 1_545
O18 P2 1.535161 1_555
O19 P3 1.535161 1_565
O20 P4 1.535161 1_555
O21 P5 1.535161 1_565
O22 P6 1.535161 1_555
O23 P7 1.535161 1_545
O24 P0 1.609350 1_555
O25 P1 1.609350 1_545
O26 P2 1.609350 1_555
O27 P3 1.609350 1_565
O28 P4 1.609350 1_555
O29 P5 1.609350 1_565
O30 P6 1.609350 1_555
O31 P7 1.609350 1_545
