# generated using pymatgen
data_Nd2Zr2O7
_symmetry_space_group_name_H-M   'P 1'
_cell_length_a   3.67429700
_cell_length_b   7.67588500
_cell_length_c   10.99859600
_cell_angle_alpha   90.00000000
_cell_angle_beta   90.00000000
_cell_angle_gamma   90.00000000
_symmetry_Int_Tables_number   1
_chemical_formula_structural   Nd2Zr2O7
_chemical_formula_sum   'Nd4 Zr4 O14'
_cell_volume   310.19869582
_cell_formula_units_Z   2
loop_
 _symmetry_equiv_pos_site_id
 _symmetry_equiv_pos_as_xyz
  1  'x, y, z'
loop_
 _atom_site_type_symbol
 _atom_site_label
 _atom_site_symmetry_multiplicity
 _atom_site_fract_x
 _atom_site_fract_y
 _atom_site_fract_z
 _atom_site_occupancy
  Nd  Nd0  1  0.50000000  0.50000000  0.50000000  1
  Nd  Nd1  1  0.00000000  0.75000000  0.22231000  1
  Nd  Nd2  1  0.50000000  0.00000000  0.50000000  1
  Nd  Nd3  1  0.00000000  0.25000000  0.77769000  1
  Zr  Zr0  1  0.00000000  0.25000000  0.23880500  1
  Zr  Zr1  1  0.00000000  0.75000000  0.76119500  1
  Zr  Zr2  1  0.50000000  0.00000000  0.00000000  1
  Zr  Zr3  1  0.50000000  0.50000000  0.00000000  1
  O  O0  1  0.00000000  0.46145300  0.63341100  1
  O  O1  1  0.50000000  0.75000000  0.86688600  1
  O  O2  1  0.00000000  0.52504300  0.88566600  1
  O  O3  1  0.00000000  0.47495700  0.11433400  1
  O  O4  1  0.00000000  0.02504300  0.11433400  1
  O  O5  1  0.50000000  0.75000000  0.10071700  1
  O  O6  1  0.50000000  0.25000000  0.36987600  1
  O  O7  1  0.00000000  0.53854700  0.36658900  1
  O  O8  1  0.00000000  0.96145300  0.36658900  1
  O  O9  1  0.00000000  0.03854700  0.63341100  1
  O  O10  1  0.50000000  0.75000000  0.63012400  1
  O  O11  1  0.50000000  0.25000000  0.89928300  1
  O  O12  1  0.00000000  0.97495700  0.88566600  1
  O  O13  1  0.50000000  0.25000000  0.13311400  1
loop_
_geom_bond_atom_site_label_1
_geom_bond_atom_site_label_2
_geom_bond_distance
_geom_bond_site_symmetry_2
Nd0 O0 2.369753 1_555
Nd0 O0 2.369753 1_655
Nd0 O7 2.369753 1_555
Nd0 O7 2.369753 1_655
Nd0 O6 2.393894 1_555
Nd0 O10 2.393894 1_555
Nd1 O7 2.269926 1_555
Nd1 O8 2.269926 1_555
Nd1 O5 2.272361 1_555
Nd1 O5 2.272361 1_455
Nd1 O4 2.422296 1_565
Nd1 O3 2.422296 1_555
Nd2 O9 2.369753 1_655
Nd2 O9 2.369753 1_555
Nd2 O8 2.369753 1_545
Nd2 O8 2.369753 1_645
Nd2 O6 2.393894 1_555
Nd2 O10 2.393894 1_545
Nd3 O0 2.269926 1_555
Nd3 O9 2.269926 1_555
Nd3 O11 2.272361 1_455
Nd3 O11 2.272361 1_555
Nd3 O2 2.422296 1_555
Nd3 O12 2.422296 1_545
O0 Zr1 2.623138 1_555
O1 Zr1 2.174031 1_655
O1 Zr1 2.174031 1_555
O1 Zr3 2.413699 1_556
O1 Zr2 2.413699 1_566
O2 Zr1 2.203593 1_555
O2 Zr3 2.234593 1_556
O2 Zr3 2.234593 1_456
O3 Zr0 2.203593 1_555
O3 Zr3 2.234593 1_555
O3 Zr3 2.234593 1_455
O4 Zr0 2.203593 1_555
O4 Zr2 2.234593 1_555
O4 Zr2 2.234593 1_455
O5 Zr2 2.215751 1_565
O5 Zr3 2.215751 1_555
O6 Zr0 2.335234 1_555
O6 Zr0 2.335234 1_655
O7 Zr0 2.623138 1_555
O8 Zr0 2.623138 1_565
O9 Zr1 2.623138 1_545
O10 Zr1 2.335234 1_555
O10 Zr1 2.335234 1_655
O11 Zr2 2.215751 1_556
O11 Zr3 2.215751 1_556
O12 Zr1 2.203593 1_555
O12 Zr2 2.234593 1_466
O12 Zr2 2.234593 1_566
O13 Zr0 2.174031 1_555
O13 Zr0 2.174031 1_655
O13 Zr2 2.413699 1_555
O13 Zr3 2.413699 1_555
