# generated using pymatgen
data_K2Mg2(SO4)3
_symmetry_space_group_name_H-M   'P 1'
_cell_length_a   10.07214000
_cell_length_b   10.07214000
_cell_length_c   10.07214000
_cell_angle_alpha   90.00000000
_cell_angle_beta   90.00000000
_cell_angle_gamma   90.00000000
_symmetry_Int_Tables_number   1
_chemical_formula_structural   K2Mg2(SO4)3
_chemical_formula_sum   'K8 Mg8 S12 O48'
_cell_volume   1021.79850082
_cell_formula_units_Z   4
loop_
 _symmetry_equiv_pos_site_id
 _symmetry_equiv_pos_as_xyz
  1  'x, y, z'
loop_
 _atom_site_type_symbol
 _atom_site_label
 _atom_site_symmetry_multiplicity
 _atom_site_fract_x
 _atom_site_fract_y
 _atom_site_fract_z
 _atom_site_occupancy
  K  K0  1  0.20060700  0.29939300  0.70060700  1
  K  K1  1  0.29939300  0.70060700  0.20060700  1
  K  K2  1  0.70060700  0.20060700  0.29939300  1
  K  K3  1  0.79939300  0.79939300  0.79939300  1
  K  K4  1  0.43311700  0.06688300  0.93311700  1
  K  K5  1  0.06688300  0.93311700  0.43311700  1
  K  K6  1  0.93311700  0.43311700  0.06688300  1
  K  K7  1  0.56688300  0.56688300  0.56688300  1
  Mg  Mg0  1  0.15097100  0.65097100  0.84902900  1
  Mg  Mg1  1  0.08557600  0.08557600  0.08557600  1
  Mg  Mg2  1  0.41442400  0.91442400  0.58557600  1
  Mg  Mg3  1  0.58557600  0.41442400  0.91442400  1
  Mg  Mg4  1  0.91442400  0.58557600  0.41442400  1
  Mg  Mg5  1  0.34902900  0.34902900  0.34902900  1
  Mg  Mg6  1  0.84902900  0.15097100  0.65097100  1
  Mg  Mg7  1  0.65097100  0.84902900  0.15097100  1
  S  S0  1  0.46624100  0.73100000  0.87395800  1
  S  S1  1  0.26900000  0.37395800  0.03375900  1
  S  S2  1  0.37395800  0.03375900  0.26900000  1
  S  S3  1  0.03375900  0.26900000  0.37395800  1
  S  S4  1  0.87395800  0.46624100  0.73100000  1
  S  S5  1  0.73100000  0.87395800  0.46624100  1
  S  S6  1  0.23100000  0.62604200  0.53375900  1
  S  S7  1  0.12604200  0.96624100  0.76900000  1
  S  S8  1  0.62604200  0.53375900  0.23100000  1
  S  S9  1  0.76900000  0.12604200  0.96624100  1
  S  S10  1  0.96624100  0.76900000  0.12604200  1
  S  S11  1  0.53375900  0.23100000  0.62604200  1
  O  O0  1  0.50375200  0.59138300  0.84836200  1
  O  O1  1  0.00375200  0.90861700  0.15163800  1
  O  O2  1  0.49624800  0.09138300  0.65163800  1
  O  O3  1  0.90861700  0.15163800  0.00375200  1
  O  O4  1  0.65163800  0.49624800  0.09138300  1
  O  O5  1  0.15163800  0.00375200  0.90861700  1
  O  O6  1  0.59138300  0.84836200  0.50375200  1
  O  O7  1  0.84836200  0.50375200  0.59138300  1
  O  O8  1  0.09138300  0.65163800  0.49624800  1
  O  O9  1  0.40861700  0.34836200  0.99624800  1
  O  O10  1  0.34836200  0.99624800  0.40861700  1
  O  O11  1  0.99624800  0.40861700  0.34836200  1
  O  O12  1  0.47527800  0.94590600  0.20768500  1
  O  O13  1  0.97527800  0.55409400  0.79231500  1
  O  O14  1  0.52472200  0.44590600  0.29231500  1
  O  O15  1  0.55409400  0.79231500  0.97527800  1
  O  O16  1  0.29231500  0.52472200  0.44590600  1
  O  O17  1  0.79231500  0.97527800  0.55409400  1
  O  O18  1  0.57924400  0.67395700  0.23943900  1
  O  O19  1  0.94590600  0.20768500  0.47527800  1
  O  O20  1  0.44590600  0.29231500  0.52472200  1
  O  O21  1  0.05409400  0.70768500  0.02472200  1
  O  O22  1  0.70768500  0.02472200  0.05409400  1
  O  O23  1  0.02472200  0.05409400  0.70768500  1
  O  O24  1  0.32604300  0.73943900  0.92075600  1
  O  O25  1  0.82604300  0.76056100  0.07924400  1
  O  O26  1  0.67395700  0.23943900  0.57924400  1
  O  O27  1  0.76056100  0.07924400  0.82604300  1
  O  O28  1  0.01568100  0.19255100  0.24895300  1
  O  O29  1  0.24895300  0.01568100  0.19255100  1
  O  O30  1  0.19255100  0.24895300  0.01568100  1
  O  O31  1  0.30744900  0.75104700  0.51568100  1
  O  O32  1  0.74895300  0.48431900  0.80744900  1
  O  O33  1  0.80744900  0.74895300  0.48431900  1
  O  O34  1  0.25104700  0.98431900  0.69255100  1
  O  O35  1  0.75104700  0.51568100  0.30744900  1
  O  O36  1  0.69255100  0.25104700  0.98431900  1
  O  O37  1  0.51568100  0.30744900  0.75104700  1
  O  O38  1  0.98431900  0.69255100  0.25104700  1
  O  O39  1  0.48431900  0.80744900  0.74895300  1
  O  O40  1  0.17395700  0.26056100  0.42075600  1
  O  O41  1  0.42075600  0.17395700  0.26056100  1
  O  O42  1  0.26056100  0.42075600  0.17395700  1
  O  O43  1  0.23943900  0.57924400  0.67395700  1
  O  O44  1  0.92075600  0.32604300  0.73943900  1
  O  O45  1  0.73943900  0.92075600  0.32604300  1
  O  O46  1  0.07924400  0.82604300  0.76056100  1
  O  O47  1  0.20768500  0.47527800  0.94590600  1
loop_
_geom_bond_atom_site_label_1
_geom_bond_atom_site_label_2
_geom_bond_distance
_geom_bond_site_symmetry_2
K0 O44 2.858336 1_455
K0 O43 2.858336 1_555
K0 O40 2.858336 1_555
K0 O23 3.041006 1_555
K0 O47 3.041006 1_555
K0 O20 3.041006 1_555
K0 O37 3.214902 1_555
K0 O34 3.214902 1_545
K0 O30 3.214902 1_556
K1 O18 2.858336 1_555
K1 O24 2.858336 1_554
K1 O42 2.858336 1_555
K1 O12 3.041006 1_555
K1 O16 3.041006 1_555
K1 O21 3.041006 1_555
K1 O38 3.214902 1_455
K1 O31 3.214902 1_555
K1 O29 3.214902 1_565
K2 O41 2.858336 1_555
K2 O26 2.858336 1_555
K2 O45 2.858336 1_545
K2 O14 3.041006 1_555
K2 O19 3.041006 1_555
K2 O22 3.041006 1_555
K2 O35 3.214902 1_555
K2 O36 3.214902 1_554
K2 O28 3.214902 1_655
K3 O25 2.858336 1_556
K3 O46 2.858336 1_655
K3 O27 2.858336 1_565
K3 O13 3.041006 1_555
K3 O17 3.041006 1_555
K3 O15 3.041006 1_555
K3 O33 3.214902 1_555
K3 O32 3.214902 1_555
K3 O39 3.214902 1_555
K4 O2 2.915988 1_555
K4 O5 2.915988 1_555
K4 O9 2.915988 1_555
K4 O15 3.051718 1_545
K4 O22 3.051718 1_556
K4 O12 3.051718 1_546
K4 O37 3.150476 1_555
K4 O34 3.150476 1_545
K4 O30 3.150476 1_556
K4 O29 3.245731 1_556
K4 O39 3.245731 1_545
K4 O36 3.245731 1_555
K5 O1 2.915988 1_555
K5 O8 2.915988 1_555
K5 O10 2.915988 1_555
K5 O17 3.051718 1_455
K5 O23 3.051718 1_565
K5 O19 3.051718 1_465
K5 O38 3.150476 1_455
K5 O31 3.150476 1_555
K5 O29 3.150476 1_565
K5 O28 3.245731 1_565
K5 O33 3.245731 1_455
K5 O34 3.245731 1_555
K6 O4 2.915988 1_555
K6 O3 2.915988 1_555
K6 O11 2.915988 1_555
K6 O13 3.051718 1_554
K6 O21 3.051718 1_655
K6 O47 3.051718 1_654
K6 O35 3.150476 1_555
K6 O36 3.150476 1_554
K6 O28 3.150476 1_655
K6 O30 3.245731 1_655
K6 O32 3.245731 1_554
K6 O38 3.245731 1_555
K7 O7 2.915988 1_555
K7 O6 2.915988 1_555
K7 O0 2.915988 1_555
K7 O20 3.051718 1_555
K7 O14 3.051718 1_555
K7 O16 3.051718 1_555
K7 O32 3.150476 1_555
K7 O39 3.150476 1_555
K7 O33 3.150476 1_555
K7 O37 3.245731 1_555
K7 O35 3.245731 1_555
K7 O31 3.245731 1_555
Mg0 O21 2.099979 1_556
Mg0 O47 2.099979 1_555
Mg0 O13 2.099979 1_455
Mg0 O46 2.103644 1_555
Mg0 O43 2.103644 1_555
Mg0 O24 2.103644 1_555
Mg1 O5 2.073341 1_554
Mg1 O3 2.073341 1_455
Mg1 O1 2.073341 1_545
Mg1 O29 2.089113 1_555
Mg1 O28 2.089113 1_555
Mg1 O30 2.089113 1_555
Mg2 O10 2.073341 1_555
Mg2 O6 2.073341 1_555
Mg2 O2 2.073341 1_565
Mg2 O39 2.089113 1_555
Mg2 O34 2.089113 1_555
Mg2 O31 2.089113 1_555
Mg3 O9 2.073341 1_555
Mg3 O0 2.073341 1_555
Mg3 O4 2.073341 1_556
Mg3 O32 2.089113 1_555
Mg3 O36 2.089113 1_555
Mg3 O37 2.089113 1_555
Mg4 O11 2.073341 1_555
Mg4 O8 2.073341 1_655
Mg4 O7 2.073341 1_555
Mg4 O33 2.089113 1_555
Mg4 O38 2.089113 1_555
Mg4 O35 2.089113 1_555
Mg5 O16 2.099979 1_555
Mg5 O20 2.099979 1_555
Mg5 O14 2.099979 1_555
Mg5 O40 2.103644 1_555
Mg5 O42 2.103644 1_555
Mg5 O41 2.103644 1_555
Mg6 O23 2.099979 1_655
Mg6 O19 2.099979 1_555
Mg6 O17 2.099979 1_545
Mg6 O26 2.103644 1_555
Mg6 O27 2.103644 1_555
Mg6 O44 2.103644 1_555
Mg7 O22 2.099979 1_565
Mg7 O12 2.099979 1_555
Mg7 O15 2.099979 1_554
Mg7 O45 2.103644 1_555
Mg7 O25 2.103644 1_555
Mg7 O18 2.103644 1_555
O0 S0 1.478758 1_555
O1 S10 1.478758 1_455
O2 S11 1.478758 1_555
O3 S9 1.478758 1_554
O4 S8 1.478758 1_555
O5 S7 1.478758 1_545
O6 S5 1.478758 1_555
O7 S4 1.478758 1_555
O8 S6 1.478758 1_555
O9 S1 1.478758 1_556
O10 S2 1.478758 1_565
O11 S3 1.478758 1_655
O12 S2 1.485203 1_565
O13 S4 1.485203 1_555
O14 S8 1.485203 1_555
O15 S0 1.485203 1_555
O16 S6 1.485203 1_555
O17 S5 1.485203 1_555
O18 S8 1.491110 1_555
O19 S3 1.485203 1_655
O20 S11 1.485203 1_555
O21 S10 1.485203 1_455
O22 S9 1.485203 1_554
O23 S7 1.485203 1_545
O24 S0 1.491110 1_555
O25 S10 1.491110 1_555
O26 S11 1.491110 1_555
O27 S9 1.491110 1_555
O28 S3 1.487049 1_555
O29 S2 1.487049 1_555
O30 S1 1.487049 1_555
O31 S6 1.487049 1_555
O32 S4 1.487049 1_555
O33 S5 1.487049 1_555
O34 S7 1.487049 1_555
O35 S8 1.487049 1_555
O36 S9 1.487049 1_555
O37 S11 1.487049 1_555
O38 S10 1.487049 1_555
O39 S0 1.487049 1_555
O40 S3 1.491110 1_555
O41 S2 1.491110 1_555
O42 S1 1.491110 1_555
O43 S6 1.491110 1_555
O44 S4 1.491110 1_555
O45 S5 1.491110 1_555
O46 S7 1.491110 1_555
O47 S1 1.485203 1_556
