# generated using pymatgen
data_YbIn4Ni
_symmetry_space_group_name_H-M   'P 1'
_cell_length_a   7.41762500
_cell_length_b   4.40481500
_cell_length_c   8.63826292
_cell_angle_alpha   75.30229609
_cell_angle_beta   90.00000000
_cell_angle_gamma   90.00000000
_symmetry_Int_Tables_number   1
_chemical_formula_structural   YbIn4Ni
_chemical_formula_sum   'Yb2 In8 Ni2'
_cell_volume   273.00477293
_cell_formula_units_Z   2
loop_
 _symmetry_equiv_pos_site_id
 _symmetry_equiv_pos_as_xyz
  1  'x, y, z'
loop_
 _atom_site_type_symbol
 _atom_site_label
 _atom_site_symmetry_multiplicity
 _atom_site_fract_x
 _atom_site_fract_y
 _atom_site_fract_z
 _atom_site_occupancy
  Yb  Yb0  1  0.74686600  0.12390400  0.74543200  1
  Yb  Yb1  1  0.24686600  0.87609600  0.25456800  1
  In  In0  1  0.75228100  0.93462500  0.14112600  1
  In  In1  1  0.54481900  0.32072100  0.36958000  1
  In  In2  1  0.25228100  0.06537500  0.85887400  1
  In  In3  1  0.94995200  0.31777200  0.37151000  1
  In  In4  1  0.44995200  0.68222800  0.62849000  1
  In  In5  1  0.99846500  0.50054600  0.99667500  1
  In  In6  1  0.49846500  0.49945400  0.00332500  1
  In  In7  1  0.04481900  0.67927900  0.63042000  1
  Ni  Ni0  1  0.74660300  0.77584500  0.45609400  1
  Ni  Ni1  1  0.24660300  0.22415500  0.54390600  1
loop_
_geom_bond_atom_site_label_1
_geom_bond_atom_site_label_2
_geom_bond_distance
_geom_bond_site_symmetry_2
In0 Ni0 2.632100 1_555
In0 In5 3.086618 1_564
In0 In6 3.106240 1_565
In0 In5 3.123815 1_554
In0 In6 3.129491 1_555
In0 Yb0 3.306675 1_564
In0 Yb1 3.789131 1_655
In0 Yb1 3.866962 1_555
In1 Ni1 2.648913 1_555
In1 Ni0 2.752817 1_555
In1 Ni0 2.765682 1_545
In1 In6 3.079575 1_555
In1 Yb1 3.259266 1_555
In1 Yb1 3.270268 1_545
In1 Yb0 3.480020 1_555
In2 Ni1 2.632100 1_555
In2 In6 3.086618 1_546
In2 In5 3.106240 1_445
In2 In6 3.123815 1_556
In2 In5 3.129491 1_455
In2 Yb1 3.306675 1_546
In2 Yb0 3.789131 1_555
In2 Yb0 3.866962 1_455
In3 Ni1 2.630231 1_655
In3 Ni0 2.760829 1_545
In3 Ni0 2.761948 1_555
In3 In5 3.152620 1_554
In3 Yb1 3.263931 1_645
In3 Yb1 3.264748 1_655
In3 Yb0 3.468716 1_555
In4 Ni0 2.630231 1_555
In4 Ni1 2.760829 1_565
In4 Ni1 2.761948 1_555
In4 In6 3.152620 1_556
In4 Yb0 3.263931 1_565
In4 Yb0 3.264748 1_555
In4 Yb1 3.468716 1_555
In5 In7 3.079575 1_655
In5 Yb0 3.564905 1_565
In5 Yb0 3.573887 1_555
In5 Yb1 3.579689 1_646
In5 Yb1 3.600600 1_656
In6 Yb1 3.564905 1_545
In6 Yb1 3.573887 1_555
In6 Yb0 3.579689 1_564
In6 Yb0 3.600600 1_554
In7 Ni0 2.648913 1_455
In7 Ni1 2.752817 1_555
In7 Ni1 2.765682 1_565
In7 Yb0 3.259266 1_455
In7 Yb0 3.270268 1_465
In7 Yb1 3.480020 1_555
Ni0 Yb0 3.246820 1_565
Ni0 Yb0 3.294137 1_555
Ni1 Yb1 3.246820 1_545
Ni1 Yb1 3.294137 1_555
