# generated using pymatgen
data_EuMoClO4
_symmetry_space_group_name_H-M   'P 1'
_cell_length_a   6.50126234
_cell_length_b   6.50126234
_cell_length_c   6.98217287
_cell_angle_alpha   76.42582066
_cell_angle_beta   76.42582066
_cell_angle_gamma   70.55333556
_symmetry_Int_Tables_number   1
_chemical_formula_structural   EuMoClO4
_chemical_formula_sum   'Eu2 Mo2 Cl2 O8'
_cell_volume   266.52751801
_cell_formula_units_Z   2
loop_
 _symmetry_equiv_pos_site_id
 _symmetry_equiv_pos_as_xyz
  1  'x, y, z'
loop_
 _atom_site_type_symbol
 _atom_site_label
 _atom_site_symmetry_multiplicity
 _atom_site_fract_x
 _atom_site_fract_y
 _atom_site_fract_z
 _atom_site_occupancy
  Eu  Eu0  1  0.22547300  0.22547300  0.88377700  1
  Eu  Eu1  1  0.77452700  0.77452700  0.11622300  1
  Mo  Mo0  1  0.36371900  0.36371900  0.26691000  1
  Mo  Mo1  1  0.63628100  0.63628100  0.73309000  1
  Cl  Cl0  1  0.98931000  0.98931000  0.76166900  1
  Cl  Cl1  1  0.01069000  0.01069000  0.23833100  1
  O  O0  1  0.49106500  0.11685200  0.15344500  1
  O  O1  1  0.46141900  0.46141900  0.79393200  1
  O  O2  1  0.11685200  0.49106500  0.15344500  1
  O  O3  1  0.29410800  0.29410800  0.53019300  1
  O  O4  1  0.50893500  0.88314800  0.84655500  1
  O  O5  1  0.88314800  0.50893500  0.84655500  1
  O  O6  1  0.70589200  0.70589200  0.46980700  1
  O  O7  1  0.53858100  0.53858100  0.20606800  1
loop_
_geom_bond_atom_site_label_1
_geom_bond_atom_site_label_2
_geom_bond_distance
_geom_bond_site_symmetry_2
Eu0 O3 2.364632 1_555
Eu0 O5 2.394260 1_455
Eu0 O4 2.394260 1_545
Eu0 O1 2.400599 1_555
Eu0 O2 2.667464 1_556
Eu0 O0 2.667464 1_556
Eu1 O6 2.364632 1_555
Eu1 O0 2.394260 1_565
Eu1 O2 2.394260 1_655
Eu1 O7 2.400599 1_555
Eu1 O5 2.667464 1_554
Eu1 O4 2.667464 1_554
Mo0 O3 1.773207 1_555
Mo0 O7 1.781109 1_555
Mo0 O0 1.814697 1_555
Mo0 O2 1.814697 1_555
Mo1 O6 1.773207 1_555
Mo1 O1 1.781109 1_555
Mo1 O5 1.814697 1_555
Mo1 O4 1.814697 1_555
Cl0 Eu1 2.842721 1_556
Cl0 Eu0 2.870558 1_665
Cl1 Eu0 2.842721 1_554
Cl1 Eu1 2.870558 1_445
