# generated using pymatgen
data_Dy10Ti6O27
_symmetry_space_group_name_H-M   'P 1'
_cell_length_a   7.29365823
_cell_length_b   7.29365823
_cell_length_c   24.26862297
_cell_angle_alpha   81.98305312
_cell_angle_beta   81.98305312
_cell_angle_gamma   60.58555122
_symmetry_Int_Tables_number   1
_chemical_formula_structural   Dy10Ti6O27
_chemical_formula_sum   'Dy20 Ti12 O54'
_cell_volume   1109.83564317
_cell_formula_units_Z   2
loop_
 _symmetry_equiv_pos_site_id
 _symmetry_equiv_pos_as_xyz
  1  'x, y, z'
loop_
 _atom_site_type_symbol
 _atom_site_label
 _atom_site_symmetry_multiplicity
 _atom_site_fract_x
 _atom_site_fract_y
 _atom_site_fract_z
 _atom_site_occupancy
  Dy  Dy0  1  0.27996600  0.74915000  0.24383600  1
  Dy  Dy1  1  0.74915000  0.27996600  0.24383600  1
  Dy  Dy2  1  0.62685300  0.14898400  0.11277800  1
  Dy  Dy3  1  0.25228600  0.25228600  0.23479100  1
  Dy  Dy4  1  0.14898400  0.62685300  0.11277800  1
  Dy  Dy5  1  0.86448800  0.37762500  0.37271600  1
  Dy  Dy6  1  0.98606500  0.98606500  0.50610600  1
  Dy  Dy7  1  0.87689300  0.87689300  0.37971000  1
  Dy  Dy8  1  0.47757500  0.47757500  0.49641100  1
  Dy  Dy9  1  0.37762500  0.86448800  0.37271600  1
  Dy  Dy10  1  0.38250100  0.38250100  0.36374200  1
  Dy  Dy11  1  0.11545100  0.65163200  0.63387500  1
  Dy  Dy12  1  0.25313200  0.25313200  0.75103500  1
  Dy  Dy13  1  0.88406400  0.88406400  0.87531900  1
  Dy  Dy14  1  0.73334900  0.73334900  0.75590500  1
  Dy  Dy15  1  0.65163200  0.11545100  0.63387500  1
  Dy  Dy16  1  0.62104200  0.62104200  0.63837400  1
  Dy  Dy17  1  0.38886800  0.90022700  0.87958200  1
  Dy  Dy18  1  0.99799900  0.99799900  0.99772000  1
  Dy  Dy19  1  0.90022700  0.38886800  0.87958200  1
  Ti  Ti0  1  0.00885100  0.51319400  0.99859700  1
  Ti  Ti1  1  0.51319400  0.00885100  0.99859700  1
  Ti  Ti2  1  0.50969600  0.50969600  0.99303500  1
  Ti  Ti3  1  0.75594200  0.75594200  0.24597000  1
  Ti  Ti4  1  0.49563600  0.00137900  0.49215400  1
  Ti  Ti5  1  0.00137900  0.49563600  0.49215400  1
  Ti  Ti6  1  0.10543600  0.10543600  0.13538000  1
  Ti  Ti7  1  0.75764300  0.24838500  0.75255100  1
  Ti  Ti8  1  0.62803200  0.62803200  0.11848600  1
  Ti  Ti9  1  0.37785900  0.37785900  0.87411200  1
  Ti  Ti10  1  0.24838500  0.75764300  0.75255100  1
  Ti  Ti11  1  0.14117300  0.14117300  0.61550600  1
  O  O0  1  0.97615300  0.97615300  0.08980800  1
  O  O1  1  0.30559100  0.80419000  0.14508500  1
  O  O2  1  0.80419000  0.30559100  0.14508500  1
  O  O3  1  0.20632300  0.61640300  0.01593300  1
  O  O4  1  0.40351800  0.40351800  0.26899300  1
  O  O5  1  0.51642200  0.04260900  0.40957400  1
  O  O6  1  0.50455700  0.50455700  0.08327200  1
  O  O7  1  0.65924200  0.02973500  0.20797500  1
  O  O8  1  0.61640300  0.20632300  0.01593300  1
  O  O9  1  0.63319200  0.63319200  0.20528200  1
  O  O10  1  0.26066600  0.26066600  0.13912000  1
  O  O11  1  0.04260900  0.51642200  0.40957400  1
  O  O12  1  0.56127400  0.90090400  0.07853600  1
  O  O13  1  0.02973500  0.65924200  0.20797500  1
  O  O14  1  0.38765300  0.94646700  0.28198000  1
  O  O15  1  0.80776300  0.80776300  0.48489600  1
  O  O16  1  0.82269900  0.27629200  0.66848000  1
  O  O17  1  0.74935600  0.74935600  0.32414400  1
  O  O18  1  0.83951100  0.37636600  0.48547000  1
  O  O19  1  0.90090400  0.56127400  0.07853600  1
  O  O20  1  0.94646700  0.38765300  0.28198000  1
  O  O21  1  0.07603600  0.07603600  0.21159200  1
  O  O22  1  0.04288400  0.04288400  0.41128700  1
  O  O23  1  0.52543700  0.52543700  0.40504400  1
  O  O24  1  0.27629200  0.82269900  0.66848000  1
  O  O25  1  0.73122100  0.19829800  0.33508100  1
  O  O26  1  0.37636600  0.83951100  0.48547000  1
  O  O27  1  0.64101200  0.16358800  0.54025700  1
  O  O28  1  0.97575900  0.97575900  0.77480200  1
  O  O29  1  0.08132100  0.52590400  0.91669000  1
  O  O30  1  0.99592600  0.99592600  0.59643000  1
  O  O31  1  0.11103200  0.60548100  0.73037300  1
  O  O32  1  0.16358800  0.64101200  0.54025700  1
  O  O33  1  0.19829800  0.73122100  0.33508100  1
  O  O34  1  0.27867600  0.27867600  0.65377800  1
  O  O35  1  0.29933700  0.29933700  0.48442200  1
  O  O36  1  0.77664700  0.77664700  0.65736000  1
  O  O37  1  0.72654100  0.72654100  0.84675000  1
  O  O38  1  0.52590400  0.08132100  0.91669000  1
  O  O39  1  0.91124800  0.37512600  0.77930400  1
  O  O40  1  0.97714700  0.40079500  0.57694500  1
  O  O41  1  0.60548100  0.11103200  0.73037300  1
  O  O42  1  0.41635100  0.81889400  0.98120200  1
  O  O43  1  0.24506600  0.24506600  0.84395800  1
  O  O44  1  0.50456600  0.50456600  0.91727700  1
  O  O45  1  0.56072200  0.56072200  0.73036800  1
  O  O46  1  0.40079500  0.97714700  0.57694500  1
  O  O47  1  0.37512600  0.91124800  0.77930400  1
  O  O48  1  0.03992900  0.03992900  0.90594000  1
  O  O49  1  0.25747800  0.63202300  0.82803900  1
  O  O50  1  0.81889400  0.41635100  0.98120200  1
  O  O51  1  0.82899900  0.82899900  0.97750600  1
  O  O52  1  0.63202300  0.25747800  0.82803900  1
  O  O53  1  0.22579400  0.22579400  0.00984000  1
loop_
_geom_bond_atom_site_label_1
_geom_bond_atom_site_label_2
_geom_bond_distance
_geom_bond_site_symmetry_2
Dy0 O21 2.197734 1_565
Dy0 O33 2.214330 1_555
Dy0 O4 2.243351 1_555
Dy0 O14 2.286859 1_555
Dy0 O1 2.370643 1_555
Dy0 O9 2.374074 1_555
Dy0 O13 2.509230 1_555
Dy1 O21 2.197734 1_655
Dy1 O25 2.214330 1_555
Dy1 O4 2.243351 1_555
Dy1 O20 2.286859 1_555
Dy1 O2 2.370643 1_555
Dy1 O9 2.374074 1_555
Dy1 O7 2.509230 1_555
Dy2 O0 2.244057 1_545
Dy2 O6 2.328560 1_555
Dy2 O8 2.334328 1_555
Dy2 O7 2.353657 1_555
Dy2 O12 2.360868 1_545
Dy2 O2 2.361412 1_555
Dy2 O10 2.395337 1_555
Dy3 O20 2.168255 1_455
Dy3 O14 2.168255 1_545
Dy3 O4 2.197310 1_555
Dy3 O10 2.307108 1_555
Dy3 O21 2.376759 1_555
Dy3 O13 2.625245 1_555
Dy3 O7 2.625245 1_555
Dy4 O0 2.244057 1_455
Dy4 O6 2.328560 1_555
Dy4 O3 2.334328 1_555
Dy4 O13 2.353657 1_555
Dy4 O19 2.360868 1_455
Dy4 O1 2.361412 1_555
Dy4 O10 2.395337 1_555
Dy5 O20 2.200593 1_555
Dy5 O23 2.229172 1_555
Dy5 O22 2.260970 1_655
Dy5 O25 2.306370 1_555
Dy5 O11 2.319764 1_655
Dy5 O17 2.567879 1_555
Dy5 O18 2.716000 1_555
Dy6 O30 2.215494 1_555
Dy6 O32 2.283404 1_655
Dy6 O27 2.283404 1_565
Dy6 O22 2.296817 1_665
Dy6 O15 2.383708 1_555
Dy6 O26 2.501997 1_655
Dy6 O18 2.501997 1_565
Dy7 O25 2.227915 1_565
Dy7 O33 2.227915 1_655
Dy7 O17 2.258048 1_555
Dy7 O22 2.340100 1_665
Dy7 O11 2.343091 1_655
Dy7 O5 2.343091 1_565
Dy7 O15 2.560570 1_555
Dy8 O32 2.188721 1_555
Dy8 O27 2.188721 1_555
Dy8 O23 2.201876 1_555
Dy8 O35 2.309917 1_555
Dy8 O18 2.351431 1_555
Dy8 O26 2.351431 1_555
Dy9 O14 2.200593 1_555
Dy9 O23 2.229172 1_555
Dy9 O22 2.260970 1_565
Dy9 O33 2.306370 1_555
Dy9 O5 2.319764 1_565
Dy9 O17 2.567879 1_555
Dy9 O26 2.716000 1_555
Dy10 O23 2.197483 1_555
Dy10 O4 2.271741 1_555
Dy10 O33 2.273468 1_555
Dy10 O25 2.273468 1_555
Dy10 O11 2.343587 1_555
Dy10 O5 2.343587 1_555
Dy11 O36 2.191252 1_455
Dy11 O32 2.256333 1_555
Dy11 O30 2.307788 1_455
Dy11 O31 2.316989 1_555
Dy11 O24 2.375514 1_555
Dy11 O34 2.379735 1_555
Dy12 O47 2.234744 1_545
Dy12 O39 2.234744 1_455
Dy12 O43 2.240948 1_555
Dy12 O41 2.258174 1_555
Dy12 O31 2.258174 1_555
Dy12 O34 2.330061 1_555
Dy13 O37 2.204926 1_555
Dy13 O48 2.208553 1_665
Dy13 O38 2.425234 1_565
Dy13 O29 2.425234 1_655
Dy13 O51 2.464853 1_555
Dy13 O28 2.524776 1_555
Dy13 O49 2.629166 1_655
Dy13 O52 2.629166 1_565
Dy14 O37 2.192466 1_555
Dy14 O39 2.300930 1_555
Dy14 O47 2.300930 1_555
Dy14 O45 2.355232 1_555
Dy14 O36 2.365504 1_555
Dy14 O41 2.450234 1_565
Dy14 O31 2.450234 1_655
Dy15 O36 2.191252 1_545
Dy15 O27 2.256333 1_555
Dy15 O30 2.307788 1_545
Dy15 O41 2.316989 1_555
Dy15 O16 2.375514 1_555
Dy15 O34 2.379735 1_555
Dy16 O36 2.084552 1_555
Dy16 O45 2.239118 1_555
Dy16 O24 2.274728 1_555
Dy16 O16 2.274728 1_555
Dy16 O46 2.653058 1_555
Dy16 O40 2.653058 1_555
Dy17 O37 2.230468 1_555
Dy17 O48 2.259459 1_565
Dy17 O43 2.286631 1_565
Dy17 O38 2.331136 1_565
Dy17 O47 2.438138 1_555
Dy17 O42 2.467212 1_555
Dy17 O44 2.638914 1_555
Dy17 O49 3.027869 1_555
Dy18 O48 2.204566 1_665
Dy18 O0 2.207173 1_556
Dy18 O51 2.260339 1_555
Dy18 O8 2.437366 1_566
Dy18 O3 2.437366 1_656
Dy18 O50 2.658448 1_565
Dy18 O42 2.658448 1_655
Dy18 O53 2.931121 1_666
Dy19 O37 2.230468 1_555
Dy19 O48 2.259459 1_655
Dy19 O43 2.286631 1_655
Dy19 O29 2.331136 1_655
Dy19 O39 2.438138 1_555
Dy19 O50 2.467212 1_555
Dy19 O44 2.638914 1_555
Dy19 O52 3.027869 1_555
O0 Ti6 2.111067 1_665
O1 Ti6 1.953257 1_565
O1 Ti8 2.106712 1_555
O2 Ti6 1.953257 1_655
O2 Ti8 2.106712 1_555
O3 Ti2 1.974005 1_554
O3 Ti0 2.034807 1_554
O5 Ti4 1.980347 1_555
O6 Ti8 1.891677 1_555
O6 Ti2 2.180409 1_554
O7 Ti3 1.902591 1_545
O8 Ti2 1.974005 1_554
O8 Ti1 2.034807 1_554
O9 Ti3 1.964347 1_555
O9 Ti8 2.117889 1_555
O10 Ti6 1.971903 1_555
O11 Ti5 1.980347 1_555
O12 Ti8 1.944144 1_555
O12 Ti1 1.999754 1_564
O13 Ti3 1.902591 1_455
O14 Ti3 2.434698 1_555
O15 Ti5 2.001912 1_655
O15 Ti4 2.001912 1_565
O16 Ti7 2.034292 1_555
O16 Ti11 2.300325 1_655
O17 Ti3 1.885555 1_555
O18 Ti5 1.810657 1_655
O19 Ti8 1.944144 1_555
O19 Ti0 1.999754 1_654
O20 Ti3 2.434698 1_555
O21 Ti6 1.826677 1_555
O24 Ti10 2.034292 1_555
O24 Ti11 2.300325 1_565
O26 Ti4 1.810657 1_565
O27 Ti4 2.418577 1_555
O28 Ti10 1.899811 1_655
O28 Ti7 1.899811 1_565
O29 Ti0 1.985667 1_555
O29 Ti9 2.074960 1_555
O30 Ti11 1.958281 1_665
O31 Ti10 1.983457 1_555
O32 Ti5 2.418577 1_555
O34 Ti11 2.093300 1_555
O35 Ti5 1.926881 1_555
O35 Ti4 1.926881 1_555
O38 Ti1 1.985667 1_555
O38 Ti9 2.074960 1_555
O39 Ti7 1.979595 1_555
O40 Ti11 1.866957 1_655
O40 Ti5 2.089431 1_655
O41 Ti7 1.983457 1_555
O42 Ti1 1.950449 1_565
O42 Ti2 1.999402 1_555
O43 Ti9 1.930938 1_555
O44 Ti2 1.850078 1_555
O44 Ti9 2.045601 1_555
O45 Ti10 2.049898 1_555
O45 Ti7 2.049898 1_555
O46 Ti11 1.866957 1_565
O46 Ti4 2.089431 1_565
O47 Ti10 1.979595 1_555
O49 Ti9 1.885354 1_555
O49 Ti10 1.925116 1_555
O50 Ti0 1.950449 1_655
O50 Ti2 1.999402 1_555
O51 Ti1 2.044221 1_565
O51 Ti0 2.044221 1_655
O52 Ti9 1.885354 1_555
O52 Ti7 1.925116 1_555
O53 Ti1 1.917064 1_554
O53 Ti0 1.917064 1_554
