# generated using pymatgen
data_LiNO3
_symmetry_space_group_name_H-M   'P 1'
_cell_length_a   5.13531536
_cell_length_b   5.13531536
_cell_length_c   3.95015413
_cell_angle_alpha   70.42243483
_cell_angle_beta   70.42243483
_cell_angle_gamma   86.90858273
_symmetry_Int_Tables_number   1
_chemical_formula_structural   LiNO3
_chemical_formula_sum   'Li2 N2 O6'
_cell_volume   92.27495521
_cell_formula_units_Z   2
loop_
 _symmetry_equiv_pos_site_id
 _symmetry_equiv_pos_as_xyz
  1  'x, y, z'
loop_
 _atom_site_type_symbol
 _atom_site_label
 _atom_site_symmetry_multiplicity
 _atom_site_fract_x
 _atom_site_fract_y
 _atom_site_fract_z
 _atom_site_occupancy
  Li  Li0  1  0.00000000  0.00000000  0.50000000  1
  Li  Li1  1  0.00000000  0.00000000  0.00000000  1
  N  N0  1  0.23038600  0.76961400  0.25000000  1
  N  N1  1  0.76961400  0.23038600  0.75000000  1
  O  O0  1  0.95274900  0.62651700  0.96108500  1
  O  O1  1  0.39307600  0.60692400  0.25000000  1
  O  O2  1  0.37348300  0.04725100  0.53891500  1
  O  O3  1  0.04725100  0.37348300  0.03891500  1
  O  O4  1  0.60692400  0.39307600  0.75000000  1
  O  O5  1  0.62651700  0.95274900  0.46108500  1
loop_
_geom_bond_atom_site_label_1
_geom_bond_atom_site_label_2
_geom_bond_distance
_geom_bond_site_symmetry_2
Li0 N0 1.903610 1_545
Li0 N1 1.903610 1_455
Li0 O5 2.008439 1_445
Li0 O2 2.008439 1_555
Li0 O3 2.113695 1_555
Li0 O0 2.113695 1_445
Li1 N1 1.903610 1_454
Li1 N0 1.903610 1_545
Li1 O3 2.008439 1_555
Li1 O0 2.008439 1_444
Li1 O2 2.113695 1_554
Li1 O5 2.113695 1_445
N0 O1 1.149224 1_555
N1 O4 1.149224 1_555
O0 O3 1.335195 1_656
O2 O5 1.335195 1_545
