# generated using pymatgen
data_RbAl6H20N5F24
_symmetry_space_group_name_H-M   'P 1'
_cell_length_a   5.33719600
_cell_length_b   5.35700207
_cell_length_c   18.71502242
_cell_angle_alpha   89.43494717
_cell_angle_beta   88.86614751
_cell_angle_gamma   89.24501537
_symmetry_Int_Tables_number   1
_chemical_formula_structural   RbAl6H20N5F24
_chemical_formula_sum   'Rb1 Al6 H20 N5 F24'
_cell_volume   534.91224318
_cell_formula_units_Z   1
loop_
 _symmetry_equiv_pos_site_id
 _symmetry_equiv_pos_as_xyz
  1  'x, y, z'
loop_
 _atom_site_type_symbol
 _atom_site_label
 _atom_site_symmetry_multiplicity
 _atom_site_fract_x
 _atom_site_fract_y
 _atom_site_fract_z
 _atom_site_occupancy
  Rb  Rb0  1  0.10068000  0.36761400  0.82010900  1
  Al  Al0  1  0.33911100  0.71453700  0.34662600  1
  Al  Al1  1  0.65692300  0.37394500  0.65785900  1
  Al  Al2  1  0.84858300  0.22170900  0.33665800  1
  Al  Al3  1  0.99054400  0.97239100  0.99534400  1
  Al  Al4  1  0.15967800  0.90584000  0.67012700  1
  Al  Al5  1  0.49346800  0.48348300  0.00229700  1
  H  H0  1  0.50159600  0.13417100  0.19039200  1
  H  H1  1  0.82399300  0.55923300  0.12075300  1
  H  H2  1  0.82128400  0.93909200  0.50447400  1
  H  H3  1  0.98843100  0.37509200  0.17668100  1
  H  H4  1  0.84848700  0.71091900  0.24359800  1
  H  H5  1  0.83676200  0.82072100  0.21810100  1
  H  H6  1  0.01020900  0.32697400  0.09002200  1
  H  H7  1  0.14381900  0.79285500  0.23192100  1
  H  H8  1  0.14351900  0.58452900  0.12098300  1
  H  H9  1  0.14381000  0.87378200  0.58783600  1
  H  H10  1  0.21317900  0.52074700  0.58836700  1
  H  H11  1  0.18780600  0.30828000  0.46945100  1
  H  H12  1  0.30853600  0.01491900  0.47510700  1
  H  H13  1  0.49415400  0.26365400  0.48940200  1
  H  H14  1  0.39178100  0.19926900  0.40775600  1
  H  H15  1  0.57376800  0.42366300  0.84880000  1
  H  H16  1  0.61142500  0.06633900  0.79588600  1
  H  H17  1  0.49841100  0.78263500  0.78401300  1
  H  H18  1  0.63556100  0.85345900  0.86273800  1
  H  H19  1  0.81379700  0.83016400  0.78781400  1
  N  N0  1  0.47340800  0.04744700  0.14202200  1
  N  N1  1  0.77983200  0.74979100  0.50268000  1
  N  N2  1  0.99306200  0.46713600  0.12715600  1
  N  N3  1  0.34437600  0.19748700  0.46101900  1
  N  N4  1  0.63833000  0.87913900  0.80818600  1
  F  F0  1  0.49192000  0.50706000  0.09396200  1
  F  F1  1  0.31260200  0.72690000  0.23916700  1
  F  F2  1  0.58125800  0.96048400  0.33688800  1
  F  F3  1  0.58055900  0.47366400  0.33388700  1
  F  F4  1  0.84224200  0.22240000  0.42737200  1
  F  F5  1  0.63920200  0.30344600  0.57131900  1
  F  F6  1  0.98327000  0.97353400  0.08702900  1
  F  F7  1  0.86652400  0.60890200  0.68307300  1
  F  F8  1  0.85694900  0.22214900  0.24458700  1
  F  F9  1  0.88842600  0.13514900  0.68630600  1
  F  F10  1  0.09799500  0.96446900  0.33556600  1
  F  F11  1  0.14829100  0.85725300  0.76384700  1
  F  F12  1  0.09641500  0.47196400  0.33445800  1
  F  F13  1  0.99213800  0.98024100  0.90214600  1
  F  F14  1  0.31070600  0.70499500  0.43801600  1
  F  F15  1  0.24532800  0.23881600  0.99372400  1
  F  F16  1  0.12215100  0.37581200  0.57633800  1
  F  F17  1  0.24281500  0.72402800  0.99238900  1
  F  F18  1  0.40748900  0.61408500  0.67057900  1
  F  F19  1  0.40931700  0.13957900  0.68529000  1
  F  F20  1  0.61369900  0.37227300  0.79132100  1
  F  F21  1  0.50155200  0.49507800  0.90231700  1
  F  F22  1  0.73840900  0.23866700  0.99450400  1
  F  F23  1  0.74148800  0.72736900  0.99160000  1
loop_
_geom_bond_atom_site_label_1
_geom_bond_atom_site_label_2
_geom_bond_distance
_geom_bond_site_symmetry_2
Al0 F14 1.714400 1_555
Al0 F3 1.825536 1_555
Al0 F10 1.857740 1_555
Al0 F2 1.862847 1_555
Al0 F12 1.865523 1_555
Al0 F1 2.019234 1_555
Al1 F5 1.671449 1_555
Al1 F7 1.768635 1_555
Al1 F9 1.848638 1_555
Al1 F18 1.852631 1_555
Al1 F19 1.894838 1_555
Al2 F4 1.697422 1_555
Al2 F8 1.722785 1_555
Al2 F12 1.895269 1_655
Al2 F10 1.903293 1_645
Al2 F3 1.954850 1_555
Al2 F2 2.011518 1_545
Al3 F6 1.715627 1_556
Al3 F13 1.744150 1_555
Al3 F17 1.880792 1_655
Al3 F23 1.883135 1_555
Al3 F22 1.948251 1_565
Al3 F15 1.983869 1_665
Al4 H9 1.555399 1_555
Al4 F11 1.770607 1_555
Al4 F19 1.868030 1_565
Al4 F9 1.907800 1_465
Al4 F18 2.034170 1_555
Al4 F7 2.253895 1_455
Al5 F0 1.721246 1_555
Al5 F22 1.844268 1_554
Al5 F17 1.855860 1_554
Al5 F21 1.871209 1_554
Al5 F23 1.878619 1_554
Al5 F15 1.885707 1_554
H0 N0 1.036082 1_555
H1 N2 1.031209 1_555
H2 N1 1.041788 1_555
H3 N2 1.045567 1_555
H4 H5 0.756492 1_555
H6 N2 1.030091 1_455
H8 N2 1.030472 1_455
H11 N3 1.029090 1_555
H12 N3 1.029792 1_555
H13 N3 1.036735 1_555
H14 N3 1.023546 1_555
H15 Rb0 2.613566 1_555
H15 Rb0 2.865011 1_655
H16 N4 1.035490 1_545
H17 N4 1.028472 1_555
H18 N4 1.028665 1_555
H19 N4 1.035662 1_555
H19 Rb0 2.959176 1_655
F1 H7 0.974792 1_555
F7 Rb0 3.135097 1_655
F9 Rb0 3.052170 1_655
F11 Rb0 2.829466 1_555
F11 Rb0 2.945493 1_565
F13 Rb0 2.633010 1_665
F16 H10 0.952500 1_555
F19 Rb0 3.227264 1_555
F20 H15 1.128541 1_555
F20 Rb0 2.664531 1_655
F20 Rb0 2.780494 1_555
F21 H15 1.134221 1_555
F21 Rb0 2.756883 1_555
