# generated using pymatgen
data_LiMnPO4
_symmetry_space_group_name_H-M   'P 1'
_cell_length_a   4.91916700
_cell_length_b   8.01127600
_cell_length_c   8.58073670
_cell_angle_alpha   80.69735332
_cell_angle_beta   90.00000000
_cell_angle_gamma   90.00000000
_symmetry_Int_Tables_number   1
_chemical_formula_structural   LiMnPO4
_chemical_formula_sum   'Li4 Mn4 P4 O16'
_cell_volume   333.70922472
_cell_formula_units_Z   4
loop_
 _symmetry_equiv_pos_site_id
 _symmetry_equiv_pos_as_xyz
  1  'x, y, z'
loop_
 _atom_site_type_symbol
 _atom_site_label
 _atom_site_symmetry_multiplicity
 _atom_site_fract_x
 _atom_site_fract_y
 _atom_site_fract_z
 _atom_site_occupancy
  Li  Li0  1  0.00217300  0.83252100  0.57683600  1
  Li  Li1  1  0.01593300  0.36807500  0.93589000  1
  Li  Li2  1  0.51593300  0.63192500  0.06411000  1
  Li  Li3  1  0.50217300  0.16747900  0.42316400  1
  Mn  Mn0  1  0.57486700  0.52238700  0.71591200  1
  Mn  Mn1  1  0.00850400  0.99356500  0.18163400  1
  Mn  Mn2  1  0.50850400  0.00643500  0.81836600  1
  Mn  Mn3  1  0.07486700  0.47761300  0.28408800  1
  P  P0  1  0.48114700  0.77866400  0.38772800  1
  P  P1  1  0.98114700  0.22133600  0.61227200  1
  P  P2  1  0.98457500  0.73781900  0.93171300  1
  P  P3  1  0.48457500  0.26218100  0.06828700  1
  O  O0  1  0.82632300  0.88189400  0.99440400  1
  O  O1  1  0.88514500  0.29618300  0.44180000  1
  O  O2  1  0.83740200  0.04727200  0.65541300  1
  O  O3  1  0.28802200  0.78167600  0.90815900  1
  O  O4  1  0.44077300  0.42506300  0.94352600  1
  O  O5  1  0.29438900  0.19574200  0.62223400  1
  O  O6  1  0.89098400  0.34521800  0.72487300  1
  O  O7  1  0.38514500  0.70381700  0.55820000  1
  O  O8  1  0.78802200  0.21832400  0.09184100  1
  O  O9  1  0.35737800  0.29798900  0.22397300  1
  O  O10  1  0.85737800  0.70201100  0.77602700  1
  O  O11  1  0.32632300  0.11810600  0.00559600  1
  O  O12  1  0.33740200  0.95272800  0.34458700  1
  O  O13  1  0.94077300  0.57493700  0.05647400  1
  O  O14  1  0.39098400  0.65478200  0.27512700  1
  O  O15  1  0.79438900  0.80425800  0.37776600  1
loop_
_geom_bond_atom_site_label_1
_geom_bond_atom_site_label_2
_geom_bond_distance
_geom_bond_site_symmetry_2
Li0 O10 1.985985 1_455
Li0 O15 2.034424 1_455
Li0 O2 2.108669 1_465
Li0 O7 2.165895 1_555
Li1 O6 1.948610 1_455
Li1 O8 1.991958 1_456
Li1 O13 2.123223 1_456
Li1 O4 2.142407 1_555
Li1 O11 2.512390 1_556
Li2 O14 1.948610 1_555
Li2 O3 1.991958 1_554
Li2 O4 2.123223 1_554
Li2 O13 2.142407 1_555
Li2 O0 2.512390 1_554
Li3 O9 1.985985 1_555
Li3 O5 2.034424 1_555
Li3 O12 2.108669 1_545
Li3 O1 2.165895 1_555
Mn0 O7 2.044280 1_555
Mn0 O4 2.089328 1_555
Mn0 O6 2.098406 1_555
Mn0 O10 2.123241 1_555
Mn1 O12 2.128820 1_555
Mn1 O8 2.136268 1_465
Mn1 O0 2.156209 1_454
Mn1 O11 2.287832 1_565
Mn1 O15 2.327357 1_455
Mn2 O2 2.128820 1_555
Mn2 O3 2.136268 1_545
Mn2 O11 2.156209 1_556
Mn2 O0 2.287832 1_545
Mn2 O5 2.327357 1_555
Mn3 O1 2.044280 1_455
Mn3 O13 2.089328 1_455
Mn3 O14 2.098406 1_555
Mn3 O9 2.123241 1_555
O0 P2 1.558318 1_555
O1 P1 1.561636 1_555
O2 P1 1.553931 1_555
O3 P2 1.539321 1_455
O4 P3 1.563202 1_556
O5 P1 1.554999 1_455
O6 P1 1.557316 1_555
O7 P0 1.561636 1_555
O8 P3 1.539321 1_555
O9 P3 1.543478 1_555
O10 P2 1.543478 1_555
O11 P3 1.558318 1_555
O12 P0 1.553931 1_555
O13 P2 1.563202 1_554
O14 P0 1.557316 1_555
O15 P0 1.554999 1_555
