# generated using pymatgen
data_NbSNCl6
_symmetry_space_group_name_H-M   'P 1'
_cell_length_a   6.52529200
_cell_length_b   12.42937608
_cell_length_c   13.00251003
_cell_angle_alpha   83.40854871
_cell_angle_beta   78.48060722
_cell_angle_gamma   82.40953081
_symmetry_Int_Tables_number   1
_chemical_formula_structural   NbSNCl6
_chemical_formula_sum   'Nb4 S4 N4 Cl24'
_cell_volume   1020.02377018
_cell_formula_units_Z   4
loop_
 _symmetry_equiv_pos_site_id
 _symmetry_equiv_pos_as_xyz
  1  'x, y, z'
loop_
 _atom_site_type_symbol
 _atom_site_label
 _atom_site_symmetry_multiplicity
 _atom_site_fract_x
 _atom_site_fract_y
 _atom_site_fract_z
 _atom_site_occupancy
  Nb  Nb0  1  0.07632700  0.02733500  0.22053500  1
  Nb  Nb1  1  0.12108600  0.45983200  0.73452200  1
  Nb  Nb2  1  0.87891400  0.54016800  0.26547800  1
  Nb  Nb3  1  0.92367300  0.97266500  0.77946500  1
  S  S0  1  0.07963600  0.28580800  0.52830700  1
  S  S1  1  0.46376900  0.22565800  0.17179300  1
  S  S2  1  0.92036400  0.71419200  0.47169300  1
  S  S3  1  0.53623100  0.77434200  0.82820700  1
  N  N0  1  0.94106800  0.64093800  0.38961200  1
  N  N1  1  0.05893200  0.35906200  0.61038800  1
  N  N2  1  0.66282700  0.86427800  0.79057700  1
  N  N3  1  0.33717300  0.13572200  0.20942300  1
  Cl  Cl0  1  0.62236400  0.80985800  0.50960600  1
  Cl  Cl1  1  0.19854900  0.07567900  0.76764800  1
  Cl  Cl2  1  0.17024200  0.56288000  0.86302100  1
  Cl  Cl3  1  0.29323400  0.56015600  0.58481200  1
  Cl  Cl4  1  0.40682200  0.31873200  0.03042000  1
  Cl  Cl5  1  0.42874900  0.33890600  0.73717600  1
  Cl  Cl6  1  0.20134800  0.43122900  0.29846400  1
  Cl  Cl7  1  0.34448600  0.92582600  0.11190800  1
  Cl  Cl8  1  0.91356400  0.33807000  0.84643600  1
  Cl  Cl9  1  0.65551400  0.07417400  0.88809200  1
  Cl  Cl10  1  0.08643600  0.66193000  0.15356400  1
  Cl  Cl11  1  0.19063000  0.93365300  0.37257700  1
  Cl  Cl12  1  0.89594400  0.16673900  0.32624500  1
  Cl  Cl13  1  0.82975800  0.43712000  0.13697900  1
  Cl  Cl14  1  0.57125100  0.66109400  0.26282400  1
  Cl  Cl15  1  0.98630200  0.13734500  0.07041800  1
  Cl  Cl16  1  0.80145100  0.92432100  0.23235200  1
  Cl  Cl17  1  0.70676600  0.43984400  0.41518800  1
  Cl  Cl18  1  0.37763600  0.19014200  0.49039400  1
  Cl  Cl19  1  0.80937000  0.06634700  0.62742300  1
  Cl  Cl20  1  0.10405600  0.83326100  0.67375500  1
  Cl  Cl21  1  0.01369800  0.86265500  0.92958200  1
  Cl  Cl22  1  0.59317800  0.68126800  0.96958000  1
  Cl  Cl23  1  0.79865200  0.56877100  0.70153600  1
loop_
_geom_bond_atom_site_label_1
_geom_bond_atom_site_label_2
_geom_bond_distance
_geom_bond_site_symmetry_2
N0 S2 1.455786 1_555
N0 Nb2 2.279958 1_555
N1 S0 1.455786 1_555
N1 Nb1 2.279958 1_555
N2 S3 1.458884 1_555
N2 Nb3 2.279426 1_555
N3 S1 1.458884 1_555
N3 Nb0 2.279426 1_555
Cl0 S2 2.139858 1_555
Cl1 Nb3 2.309043 1_445
Cl2 Nb1 2.312764 1_555
Cl3 Nb1 2.354882 1_555
Cl4 S1 2.127540 1_555
Cl5 Nb1 2.347194 1_555
Cl6 Nb2 2.432811 1_455
Cl7 Nb0 2.342527 1_565
Cl8 Nb1 2.343173 1_655
Cl9 Nb3 2.342527 1_545
Cl10 Nb2 2.343173 1_455
Cl11 Nb0 2.377268 1_565
Cl12 Nb0 2.374605 1_655
Cl13 Nb2 2.312764 1_555
Cl14 Nb2 2.347194 1_555
Cl15 Nb0 2.378588 1_655
Cl16 Nb0 2.309043 1_665
Cl17 Nb2 2.354882 1_555
Cl18 S0 2.139858 1_555
Cl19 Nb3 2.377268 1_545
Cl20 Nb3 2.374605 1_455
Cl21 Nb3 2.378588 1_455
Cl22 S3 2.127540 1_555
Cl23 Nb1 2.432811 1_655
