# generated using pymatgen
data_CrP2H13(NO5)2
_symmetry_space_group_name_H-M   'P 1'
_cell_length_a   7.16639900
_cell_length_b   8.50486943
_cell_length_c   9.70641561
_cell_angle_alpha   107.02988372
_cell_angle_beta   99.04810213
_cell_angle_gamma   102.54666701
_symmetry_Int_Tables_number   1
_chemical_formula_structural   CrP2H13(NO5)2
_chemical_formula_sum   'Cr2 P4 H26 N4 O20'
_cell_volume   536.46441489
_cell_formula_units_Z   2
loop_
 _symmetry_equiv_pos_site_id
 _symmetry_equiv_pos_as_xyz
  1  'x, y, z'
loop_
 _atom_site_type_symbol
 _atom_site_label
 _atom_site_symmetry_multiplicity
 _atom_site_fract_x
 _atom_site_fract_y
 _atom_site_fract_z
 _atom_site_occupancy
  Cr  Cr0  1  0.23789600  0.80303000  0.71085200  1
  Cr  Cr1  1  0.76210400  0.19697000  0.28914800  1
  P  P0  1  0.21811400  0.45234500  0.77370700  1
  P  P1  1  0.78188600  0.54765500  0.22629300  1
  P  P2  1  0.60568400  0.67381100  0.79771000  1
  P  P3  1  0.39431600  0.32618900  0.20229000  1
  H  H0  1  0.22365200  0.41411700  0.99421100  1
  H  H1  1  0.77634700  0.58588300  0.00578900  1
  H  H2  1  0.50192500  0.09391800  0.73283700  1
  H  H3  1  0.49807500  0.90608200  0.26716300  1
  H  H4  1  0.28087600  0.12568600  0.70338800  1
  H  H5  1  0.71912400  0.87431400  0.29661200  1
  H  H6  1  0.95265800  0.79063500  0.49615900  1
  H  H7  1  0.04734200  0.20936500  0.50384100  1
  H  H8  1  0.85796600  0.75182500  0.62899500  1
  H  H9  1  0.14203400  0.24817500  0.37100500  1
  H  H10  1  0.29654400  0.77416600  0.43871200  1
  H  H11  1  0.70345600  0.22583400  0.56128800  1
  H  H12  1  0.44680600  0.69008900  0.52678800  1
  H  H13  1  0.55319400  0.30991100  0.47321200  1
  H  H14  1  0.21659000  0.58182100  0.44788500  1
  H  H15  1  0.78341000  0.41817900  0.55211500  1
  H  H16  1  0.23925300  0.88209500  0.99612400  1
  H  H17  1  0.76074700  0.11790500  0.00387600  1
  H  H18  1  0.01246700  0.83797800  0.90266500  1
  H  H19  1  0.98753300  0.16202200  0.09733500  1
  H  H20  1  0.17241000  0.02921200  0.93755100  1
  H  H21  1  0.82759000  0.97078800  0.06244900  1
  H  H22  1  0.88802800  0.19633000  0.76546200  1
  H  H23  1  0.11197200  0.80367000  0.23453800  1
  H  H24  1  0.77996100  0.29521600  0.87574300  1
  H  H25  1  0.22003900  0.70478400  0.12425700  1
  N  N0  1  0.30631400  0.70229300  0.50682900  1
  N  N1  1  0.69368600  0.29770700  0.49317100  1
  N  N2  1  0.15550400  0.89972600  0.90910200  1
  N  N3  1  0.84449600  0.10027400  0.09089800  1
  O  O0  1  0.12515100  0.56263400  0.70057500  1
  O  O1  1  0.87484900  0.43736600  0.29942500  1
  O  O2  1  0.12603500  0.26105000  0.69397300  1
  O  O3  1  0.87396500  0.73895000  0.30602700  1
  O  O4  1  0.20813500  0.50671200  0.94089100  1
  O  O5  1  0.79186500  0.49328800  0.05910900  1
  O  O6  1  0.44787300  0.48730900  0.77014500  1
  O  O7  1  0.55212700  0.51269100  0.22985500  1
  O  O8  1  0.48959900  0.80772000  0.83016200  1
  O  O9  1  0.51040100  0.19228000  0.16983800  1
  O  O10  1  0.67419700  0.65323300  0.65508000  1
  O  O11  1  0.32580300  0.34676700  0.34492000  1
  O  O12  1  0.76663800  0.70626800  0.93454200  1
  O  O13  1  0.23336200  0.29373200  0.06545800  1
  O  O14  1  0.35784300  0.04189000  0.70779100  1
  O  O15  1  0.64215700  0.95811000  0.29220900  1
  O  O16  1  0.98069700  0.81793900  0.60581500  1
  O  O17  1  0.01930300  0.18206100  0.39418500  1
  O  O18  1  0.76035500  0.18887000  0.79371300  1
  O  O19  1  0.23964500  0.81113000  0.20628700  1
loop_
_geom_bond_atom_site_label_1
_geom_bond_atom_site_label_2
_geom_bond_distance
_geom_bond_site_symmetry_2
Cr0 O8 1.970048 1_555
Cr0 O0 1.995089 1_555
Cr0 O16 2.009747 1_455
Cr0 O14 2.037489 1_565
Cr0 N2 2.090280 1_555
Cr0 N0 2.095294 1_555
Cr1 O9 1.970048 1_555
Cr1 O1 1.995089 1_555
Cr1 O17 2.009747 1_655
Cr1 O15 2.037489 1_545
Cr1 N3 2.090280 1_555
Cr1 N1 2.095294 1_555
H0 O4 1.076599 1_555
H0 O13 1.400688 1_556
H1 O5 1.076601 1_555
H1 O12 1.400688 1_554
H2 O14 0.990247 1_555
H3 O15 0.990247 1_555
H4 O14 0.997587 1_555
H5 O15 0.997587 1_555
H6 O16 0.997428 1_555
H7 O17 0.997428 1_555
H8 O16 1.030465 1_555
H8 O10 1.500350 1_555
H9 O17 1.030465 1_555
H9 O11 1.500350 1_555
H10 N0 1.027846 1_555
H11 N1 1.027846 1_555
H12 N0 1.028507 1_555
H13 N1 1.028507 1_555
H14 N0 1.022388 1_555
H15 N1 1.022388 1_555
H16 N2 1.024699 1_555
H17 N3 1.024699 1_555
H18 N2 1.028201 1_555
H19 N3 1.028201 1_555
H20 N2 1.028150 1_545
H21 N3 1.028150 1_565
H22 O18 0.990074 1_555
H23 O19 0.990074 1_555
H24 O18 0.979557 1_555
H25 O19 0.979557 1_555
O0 P0 1.529810 1_555
O1 P1 1.529810 1_555
O2 P0 1.522085 1_555
O3 P1 1.522085 1_555
O4 P0 1.569592 1_555
O5 P1 1.569592 1_555
O6 P0 1.616147 1_555
O6 P2 1.656327 1_555
O7 P1 1.616147 1_555
O7 P3 1.656327 1_555
O8 P2 1.540218 1_555
O9 P3 1.540218 1_555
O10 P2 1.515767 1_555
O11 P3 1.515767 1_555
O12 P2 1.528306 1_555
O13 P3 1.528306 1_555
