# generated using pymatgen
data_CsTiH24(SO10)2
_symmetry_space_group_name_H-M   'P 1'
_cell_length_a   12.46264217
_cell_length_b   12.47522485
_cell_length_c   12.43422385
_cell_angle_alpha   90.00000000
_cell_angle_beta   90.00000000
_cell_angle_gamma   90.00000000
_symmetry_Int_Tables_number   1
_chemical_formula_structural   CsTiH24(SO10)2
_chemical_formula_sum   'Cs4 Ti4 H96 S8 O80'
_cell_volume   1933.20179273
_cell_formula_units_Z   4
loop_
 _symmetry_equiv_pos_site_id
 _symmetry_equiv_pos_as_xyz
  1  'x, y, z'
loop_
 _atom_site_type_symbol
 _atom_site_label
 _atom_site_symmetry_multiplicity
 _atom_site_fract_x
 _atom_site_fract_y
 _atom_site_fract_z
 _atom_site_occupancy
  Cs  Cs0  1  0.00000000  0.50000000  0.00000000  1
  Cs  Cs1  1  0.50000000  0.00000000  0.00000000  1
  Cs  Cs2  1  0.00000000  0.00000000  0.50000000  1
  Cs  Cs3  1  0.50000000  0.50000000  0.50000000  1
  Ti  Ti0  1  0.50000000  0.00000000  0.50000000  1
  Ti  Ti1  1  0.00000000  0.50000000  0.50000000  1
  Ti  Ti2  1  0.50000000  0.50000000  0.00000000  1
  Ti  Ti3  1  0.00000000  0.00000000  0.00000000  1
  H  H0  1  0.50940567  0.22791404  0.22260082  1
  H  H1  1  0.00940567  0.27208596  0.77739918  1
  H  H2  1  0.49059433  0.72791404  0.27739918  1
  H  H3  1  0.99059433  0.77208596  0.72260082  1
  H  H4  1  0.49059433  0.77208596  0.77739918  1
  H  H5  1  0.99059433  0.72791404  0.22260082  1
  H  H6  1  0.50940567  0.27208596  0.72260082  1
  H  H7  1  0.00940567  0.22791404  0.27739918  1
  H  H8  1  0.62799770  0.21973842  0.18423240  1
  H  H9  1  0.12799770  0.28026158  0.81576760  1
  H  H10  1  0.37200230  0.71973842  0.31576760  1
  H  H11  1  0.87200230  0.78026158  0.68423240  1
  H  H12  1  0.37200230  0.78026158  0.81576760  1
  H  H13  1  0.87200230  0.71973842  0.18423240  1
  H  H14  1  0.62799770  0.28026158  0.68423240  1
  H  H15  1  0.12799770  0.21973842  0.31576760  1
  H  H16  1  0.77894263  0.01107118  0.26939956  1
  H  H17  1  0.27894263  0.48892882  0.73060044  1
  H  H18  1  0.22105737  0.51107118  0.23060044  1
  H  H19  1  0.72105737  0.98892882  0.76939956  1
  H  H20  1  0.22105737  0.98892882  0.73060044  1
  H  H21  1  0.72105737  0.51107118  0.26939956  1
  H  H22  1  0.77894263  0.48892882  0.76939956  1
  H  H23  1  0.27894263  0.01107118  0.23060044  1
  H  H24  1  0.81664033  0.12928895  0.28093192  1
  H  H25  1  0.31664033  0.37071105  0.71906808  1
  H  H26  1  0.18335967  0.62928895  0.21906808  1
  H  H27  1  0.68335967  0.87071105  0.78093192  1
  H  H28  1  0.18335967  0.87071105  0.71906808  1
  H  H29  1  0.68335967  0.62928895  0.28093192  1
  H  H30  1  0.81664033  0.37071105  0.78093192  1
  H  H31  1  0.31664033  0.12928895  0.21906808  1
  H  H32  1  0.72854794  0.28208738  0.49154165  1
  H  H33  1  0.22854794  0.21791262  0.50845835  1
  H  H34  1  0.27145206  0.78208738  0.00845835  1
  H  H35  1  0.77145206  0.71791262  0.99154165  1
  H  H36  1  0.27145206  0.71791262  0.50845835  1
  H  H37  1  0.77145206  0.78208738  0.49154165  1
  H  H38  1  0.72854794  0.21791262  0.99154165  1
  H  H39  1  0.22854794  0.28208738  0.00845835  1
  H  H40  1  0.72031244  0.32067799  0.37257299  1
  H  H41  1  0.22031244  0.17932201  0.62742701  1
  H  H42  1  0.27968756  0.82067799  0.12742701  1
  H  H43  1  0.77968756  0.67932201  0.87257299  1
  H  H44  1  0.27968756  0.67932201  0.62742701  1
  H  H45  1  0.77968756  0.82067799  0.37257299  1
  H  H46  1  0.72031244  0.17932201  0.87257299  1
  H  H47  1  0.22031244  0.32067799  0.12742701  1
  H  H48  1  0.71375389  0.93879698  0.47783320  1
  H  H49  1  0.21375389  0.56120302  0.52216680  1
  H  H50  1  0.28624611  0.43879698  0.02216680  1
  H  H51  1  0.78624611  0.06120302  0.97783320  1
  H  H52  1  0.28624611  0.06120302  0.52216680  1
  H  H53  1  0.78624611  0.43879698  0.47783320  1
  H  H54  1  0.71375389  0.56120302  0.97783320  1
  H  H55  1  0.21375389  0.93879698  0.02216680  1
  H  H56  1  0.70888422  0.06461542  0.52185320  1
  H  H57  1  0.20888422  0.43538458  0.47814680  1
  H  H58  1  0.29111578  0.56461542  0.97814680  1
  H  H59  1  0.79111578  0.93538458  0.02185320  1
  H  H60  1  0.29111578  0.93538458  0.47814680  1
  H  H61  1  0.79111578  0.56461542  0.52185320  1
  H  H62  1  0.70888422  0.43538458  0.02185320  1
  H  H63  1  0.20888422  0.06461542  0.97814680  1
  H  H64  1  0.52196565  0.21176341  0.56541527  1
  H  H65  1  0.02196565  0.28823659  0.43458473  1
  H  H66  1  0.47803435  0.71176341  0.93458473  1
  H  H67  1  0.97803435  0.78823659  0.06541527  1
  H  H68  1  0.47803435  0.78823659  0.43458473  1
  H  H69  1  0.97803435  0.71176341  0.56541527  1
  H  H70  1  0.52196565  0.28823659  0.06541527  1
  H  H71  1  0.02196565  0.21176341  0.93458473  1
  H  H72  1  0.47363710  0.20816577  0.44154795  1
  H  H73  1  0.97363710  0.29183423  0.55845205  1
  H  H74  1  0.52636290  0.70816577  0.05845205  1
  H  H75  1  0.02636290  0.79183423  0.94154795  1
  H  H76  1  0.52636290  0.79183423  0.55845205  1
  H  H77  1  0.02636290  0.70816577  0.44154795  1
  H  H78  1  0.47363710  0.29183423  0.94154795  1
  H  H79  1  0.97363710  0.20816577  0.05845205  1
  H  H80  1  0.43874451  0.02577708  0.28657740  1
  H  H81  1  0.93874451  0.47422292  0.71342260  1
  H  H82  1  0.56125549  0.52577708  0.21342260  1
  H  H83  1  0.06125549  0.97422292  0.78657740  1
  H  H84  1  0.56125549  0.97422292  0.71342260  1
  H  H85  1  0.06125549  0.52577708  0.28657740  1
  H  H86  1  0.43874451  0.47422292  0.78657740  1
  H  H87  1  0.93874451  0.02577708  0.21342260  1
  H  H88  1  0.56140614  0.97687170  0.28963740  1
  H  H89  1  0.06140614  0.52312830  0.71036260  1
  H  H90  1  0.43859386  0.47687170  0.21036260  1
  H  H91  1  0.93859386  0.02312830  0.78963740  1
  H  H92  1  0.43859386  0.02312830  0.71036260  1
  H  H93  1  0.93859386  0.47687170  0.28963740  1
  H  H94  1  0.56140614  0.52312830  0.78963740  1
  H  H95  1  0.06140614  0.97687170  0.21036260  1
  S  S0  1  0.82653318  0.32715127  0.17154632  1
  S  S1  1  0.32653318  0.17284873  0.82845368  1
  S  S2  1  0.17346682  0.82715127  0.32845368  1
  S  S3  1  0.67346682  0.67284873  0.67154632  1
  S  S4  1  0.17346682  0.67284873  0.82845368  1
  S  S5  1  0.67346682  0.82715127  0.17154632  1
  S  S6  1  0.82653318  0.17284873  0.67154632  1
  S  S7  1  0.32653318  0.32715127  0.32845368  1
  O  O0  1  0.75780133  0.25953196  0.24343599  1
  O  O1  1  0.25780133  0.24046804  0.75656401  1
  O  O2  1  0.24219867  0.75953196  0.25656401  1
  O  O3  1  0.74219867  0.74046804  0.74343599  1
  O  O4  1  0.24219867  0.74046804  0.75656401  1
  O  O5  1  0.74219867  0.75953196  0.24343599  1
  O  O6  1  0.75780133  0.24046804  0.74343599  1
  O  O7  1  0.25780133  0.25953196  0.25656401  1
  O  O8  1  0.77844826  0.33160587  0.06181314  1
  O  O9  1  0.27844826  0.16839413  0.93818686  1
  O  O10  1  0.22155174  0.83160587  0.43818686  1
  O  O11  1  0.72155174  0.66839413  0.56181314  1
  O  O12  1  0.22155174  0.66839413  0.93818686  1
  O  O13  1  0.72155174  0.83160587  0.06181314  1
  O  O14  1  0.77844826  0.16839413  0.56181314  1
  O  O15  1  0.27844826  0.33160587  0.43818686  1
  O  O16  1  0.93665828  0.28040396  0.16432443  1
  O  O17  1  0.43665828  0.21959604  0.83567557  1
  O  O18  1  0.06334172  0.78040396  0.33567557  1
  O  O19  1  0.56334172  0.71959604  0.66432443  1
  O  O20  1  0.06334172  0.71959604  0.83567557  1
  O  O21  1  0.56334172  0.78040396  0.16432443  1
  O  O22  1  0.93665828  0.21959604  0.66432443  1
  O  O23  1  0.43665828  0.28040396  0.33567557  1
  O  O24  1  0.83426737  0.43856971  0.21581974  1
  O  O25  1  0.33426737  0.06143029  0.78418026  1
  O  O26  1  0.16573263  0.93856971  0.28418026  1
  O  O27  1  0.66573263  0.56143029  0.71581974  1
  O  O28  1  0.16573263  0.56143029  0.78418026  1
  O  O29  1  0.66573263  0.93856971  0.21581974  1
  O  O30  1  0.83426737  0.06143029  0.71581974  1
  O  O31  1  0.33426737  0.43856971  0.28418026  1
  O  O32  1  0.55358235  0.20736227  0.15974353  1
  O  O33  1  0.05358235  0.29263773  0.84025647  1
  O  O34  1  0.44641765  0.70736227  0.34025647  1
  O  O35  1  0.94641765  0.79263773  0.65974353  1
  O  O36  1  0.44641765  0.79263773  0.84025647  1
  O  O37  1  0.94641765  0.70736227  0.15974353  1
  O  O38  1  0.55358235  0.29263773  0.65974353  1
  O  O39  1  0.05358235  0.20736227  0.34025647  1
  O  O40  1  0.84085107  0.05466095  0.29288519  1
  O  O41  1  0.34085107  0.44533905  0.70711481  1
  O  O42  1  0.15914893  0.55466095  0.20711481  1
  O  O43  1  0.65914893  0.94533905  0.79288519  1
  O  O44  1  0.15914893  0.94533905  0.70711481  1
  O  O45  1  0.65914893  0.55466095  0.29288519  1
  O  O46  1  0.84085107  0.44533905  0.79288519  1
  O  O47  1  0.34085107  0.05466095  0.20711481  1
  O  O48  1  0.70697293  0.34452360  0.44718078  1
  O  O49  1  0.20697293  0.15547640  0.55281922  1
  O  O50  1  0.29302707  0.84452360  0.05281922  1
  O  O51  1  0.79302707  0.65547640  0.94718078  1
  O  O52  1  0.29302707  0.65547640  0.55281922  1
  O  O53  1  0.79302707  0.84452360  0.44718078  1
  O  O54  1  0.70697293  0.15547640  0.94718078  1
  O  O55  1  0.20697293  0.34452360  0.05281922  1
  O  O56  1  0.66499494  0.00124999  0.49871372  1
  O  O57  1  0.16499494  0.49875001  0.50128628  1
  O  O58  1  0.33500506  0.50124999  0.00128628  1
  O  O59  1  0.83500506  0.99875001  0.99871372  1
  O  O60  1  0.33500506  0.99875001  0.50128628  1
  O  O61  1  0.83500506  0.50124999  0.49871372  1
  O  O62  1  0.66499494  0.49875001  0.99871372  1
  O  O63  1  0.16499494  0.00124999  0.00128628  1
  O  O64  1  0.49596235  0.16365870  0.50460535  1
  O  O65  1  0.99596235  0.33634130  0.49539465  1
  O  O66  1  0.50403765  0.66365870  0.99539465  1
  O  O67  1  0.00403765  0.83634130  0.00460535  1
  O  O68  1  0.50403765  0.83634130  0.49539465  1
  O  O69  1  0.00403765  0.66365870  0.50460535  1
  O  O70  1  0.49596235  0.33634130  0.00460535  1
  O  O71  1  0.99596235  0.16365870  0.99539465  1
  O  O72  1  0.50030516  0.00262826  0.33474287  1
  O  O73  1  0.00030516  0.49737174  0.66525713  1
  O  O74  1  0.49969484  0.50262826  0.16525713  1
  O  O75  1  0.99969484  0.99737174  0.83474287  1
  O  O76  1  0.49969484  0.99737174  0.66525713  1
  O  O77  1  0.99969484  0.50262826  0.33474287  1
  O  O78  1  0.50030516  0.49737174  0.83474287  1
  O  O79  1  0.00030516  0.00262826  0.16525713  1
loop_
_geom_bond_atom_site_label_1
_geom_bond_atom_site_label_2
_geom_bond_distance
_geom_bond_site_symmetry_2
Cs0 O51 3.293457 1_454
Cs0 O55 3.293457 1_555
Cs0 O46 3.321320 1_454
Cs0 O42 3.321320 1_555
Cs0 O37 3.329154 1_455
Cs0 O33 3.329154 1_554
Cs0 O24 3.472017 1_455
Cs0 O28 3.472017 1_554
Cs0 O20 3.507554 1_554
Cs0 O16 3.507554 1_455
Cs0 O8 3.553547 1_455
Cs0 O12 3.553547 1_554
Cs1 O54 3.293457 1_554
Cs1 O50 3.293457 1_545
Cs1 O43 3.321320 1_544
Cs1 O47 3.321320 1_555
Cs1 O36 3.329154 1_544
Cs1 O32 3.329154 1_555
Cs1 O29 3.472017 1_545
Cs1 O25 3.472017 1_554
Cs1 O21 3.507554 1_545
Cs1 O17 3.507554 1_554
Cs1 O9 3.553547 1_554
Cs1 O13 3.553547 1_545
Cs2 O49 3.293457 1_555
Cs2 O53 3.293457 1_445
Cs2 O44 3.321320 1_545
Cs2 O40 3.321320 1_455
Cs2 O35 3.329154 1_445
Cs2 O39 3.329154 1_555
Cs2 O26 3.472017 1_545
Cs2 O30 3.472017 1_455
Cs2 O22 3.507554 1_455
Cs2 O18 3.507554 1_545
Cs2 O14 3.553547 1_455
Cs2 O10 3.553547 1_545
Cs3 O52 3.293457 1_555
Cs3 O48 3.293457 1_555
Cs3 O41 3.321320 1_555
Cs3 O45 3.321320 1_555
Cs3 O34 3.329154 1_555
Cs3 O38 3.329154 1_555
Cs3 O31 3.472017 1_555
Cs3 O27 3.472017 1_555
Cs3 O23 3.507554 1_555
Cs3 O19 3.507554 1_555
Cs3 O15 3.553547 1_555
Cs3 O11 3.553547 1_555
H0 O32 0.989807 1_555
H1 O33 0.989807 1_555
H2 O34 0.989807 1_555
H3 O35 0.989807 1_555
H4 O36 0.989807 1_555
H5 O37 0.989807 1_555
H6 O38 0.989807 1_555
H7 O39 0.989807 1_555
H8 O32 0.988257 1_555
H9 O33 0.988257 1_555
H10 O34 0.988257 1_555
H11 O35 0.988257 1_555
H12 O36 0.988257 1_555
H13 O37 0.988257 1_555
H14 O38 0.988257 1_555
H15 O39 0.988257 1_555
H16 O40 0.988062 1_555
H17 O41 0.988062 1_555
H18 O42 0.988062 1_555
H19 O43 0.988062 1_555
H20 O44 0.988062 1_555
H21 O45 0.988062 1_555
H22 O46 0.988062 1_555
H23 O47 0.988062 1_555
H24 O40 0.989896 1_555
H25 O41 0.989896 1_555
H26 O42 0.989896 1_555
H27 O43 0.989896 1_555
H28 O44 0.989896 1_555
H29 O45 0.989896 1_555
H30 O46 0.989896 1_555
H31 O47 0.989896 1_555
H32 O48 0.991588 1_555
H33 O49 0.991588 1_555
H34 O50 0.991588 1_555
H35 O51 0.991588 1_555
H36 O52 0.991588 1_555
H37 O53 0.991588 1_555
H38 O54 0.991588 1_555
H39 O55 0.991588 1_555
H40 O48 0.988302 1_555
H41 O49 0.988302 1_555
H42 O50 0.988302 1_555
H43 O51 0.988302 1_555
H44 O52 0.988302 1_555
H45 O53 0.988302 1_555
H46 O54 0.988302 1_555
H47 O55 0.988302 1_555
H48 O56 1.021610 1_565
H48 O53 1.582557 1_555
H49 O57 1.021610 1_555
H49 O52 1.582557 1_555
H50 O58 1.021610 1_555
H50 O55 1.582557 1_555
H51 O59 1.021610 1_545
H51 O54 1.582557 1_555
H52 O60 1.021610 1_545
H52 O49 1.582557 1_555
H53 O61 1.021610 1_555
H53 O48 1.582557 1_555
H54 O62 1.021610 1_555
H54 O51 1.582557 1_555
H55 O63 1.021610 1_565
H55 O50 1.582557 1_555
H56 O56 1.003421 1_555
H56 O14 1.635432 1_555
H57 O57 1.003421 1_555
H57 O15 1.635432 1_555
H58 O58 1.003421 1_556
H58 O12 1.635432 1_555
H59 O59 1.003421 1_554
H59 O13 1.635432 1_555
H60 O60 1.003421 1_555
H60 O10 1.635432 1_555
H61 O61 1.003421 1_555
H61 O11 1.635432 1_555
H62 O62 1.003421 1_554
H62 O8 1.635432 1_555
H63 O63 1.003421 1_556
H63 O9 1.635432 1_555
H64 O64 1.018276 1_555
H64 O38 1.596521 1_555
H65 O65 1.018276 1_455
H65 O39 1.596521 1_555
H66 O66 1.018276 1_555
H66 O36 1.596521 1_555
H67 O67 1.018276 1_655
H67 O37 1.596521 1_555
H68 O68 1.018276 1_555
H68 O34 1.596521 1_555
H69 O69 1.018276 1_655
H69 O35 1.596521 1_555
H70 O70 1.018276 1_555
H70 O32 1.596521 1_555
H71 O71 1.018276 1_455
H71 O33 1.596521 1_555
H72 O64 1.000232 1_555
H72 O23 1.660585 1_555
H73 O65 1.000232 1_555
H73 O22 1.660585 1_555
H74 O66 1.000232 1_554
H74 O21 1.660585 1_555
H75 O67 1.000232 1_556
H75 O20 1.660585 1_555
H76 O68 1.000232 1_555
H76 O19 1.660585 1_555
H77 O69 1.000232 1_555
H77 O18 1.660585 1_555
H78 O70 1.000232 1_556
H78 O17 1.660585 1_555
H79 O71 1.000232 1_554
H79 O16 1.660585 1_555
H80 O72 1.015228 1_555
H80 O47 1.610751 1_555
H81 O73 1.015228 1_655
H81 O46 1.610751 1_555
H82 O74 1.015228 1_555
H82 O45 1.610751 1_555
H83 O75 1.015228 1_455
H83 O44 1.610751 1_555
H84 O76 1.015228 1_555
H84 O43 1.610751 1_555
H85 O77 1.015228 1_455
H85 O42 1.610751 1_555
H86 O78 1.015228 1_555
H86 O41 1.610751 1_555
H87 O79 1.015228 1_655
H87 O40 1.610751 1_555
H88 O72 0.998825 1_565
H88 O29 1.661708 1_555
H89 O73 0.998825 1_555
H89 O28 1.661708 1_555
H90 O74 0.998825 1_555
H90 O31 1.661708 1_555
H91 O75 0.998825 1_545
H91 O30 1.661708 1_555
H92 O76 0.998825 1_545
H92 O25 1.661708 1_555
H93 O77 0.998825 1_555
H93 O24 1.661708 1_555
H94 O78 0.998825 1_555
H94 O27 1.661708 1_555
H95 O79 0.998825 1_565
H95 O26 1.661708 1_555
O0 S0 1.498125 1_555
O1 S1 1.498125 1_555
O2 S2 1.498125 1_555
O3 S3 1.498125 1_555
O4 S4 1.498125 1_555
O5 S5 1.498125 1_555
O6 S6 1.498125 1_555
O7 S7 1.498125 1_555
O8 S0 1.491282 1_555
O9 S1 1.491282 1_555
O10 S2 1.491282 1_555
O11 S3 1.491282 1_555
O12 S4 1.491282 1_555
O13 S5 1.491282 1_555
O14 S6 1.491282 1_555
O15 S7 1.491282 1_555
O16 S0 1.493916 1_555
O17 S1 1.493916 1_555
O18 S2 1.493916 1_555
O19 S3 1.493916 1_555
O20 S4 1.493916 1_555
O21 S5 1.493916 1_555
O22 S6 1.493916 1_555
O23 S7 1.493916 1_555
O24 S0 1.498120 1_555
O25 S1 1.498120 1_555
O26 S2 1.498120 1_555
O27 S3 1.498120 1_555
O28 S4 1.498120 1_555
O29 S5 1.498120 1_555
O30 S6 1.498120 1_555
O31 S7 1.498120 1_555
O56 Ti0 2.056394 1_555
O57 Ti1 2.056394 1_555
O58 Ti2 2.056394 1_555
O59 Ti3 2.056394 1_666
O60 Ti0 2.056394 1_565
O61 Ti1 2.056394 1_655
O62 Ti2 2.056394 1_556
O63 Ti3 2.056394 1_555
O64 Ti0 2.043102 1_555
O65 Ti1 2.043102 1_655
O66 Ti2 2.043102 1_556
O67 Ti3 2.043102 1_565
O68 Ti0 2.043102 1_565
O69 Ti1 2.043102 1_555
O70 Ti2 2.043102 1_555
O71 Ti3 2.043102 1_656
O72 Ti0 2.055109 1_555
O73 Ti1 2.055109 1_555
O74 Ti2 2.055109 1_555
O75 Ti3 2.055109 1_666
O76 Ti0 2.055109 1_565
O77 Ti1 2.055109 1_655
O78 Ti2 2.055109 1_556
O79 Ti3 2.055109 1_555
