# generated using pymatgen
data_Na8Al6Si6O25
_symmetry_space_group_name_H-M   'P 1'
_cell_length_a   9.01552216
_cell_length_b   9.01552216
_cell_length_c   9.01552178
_cell_angle_alpha   90.14857095
_cell_angle_beta   90.14857095
_cell_angle_gamma   90.14857509
_symmetry_Int_Tables_number   1
_chemical_formula_structural   Na8Al6Si6O25
_chemical_formula_sum   'Na8 Al6 Si6 O25'
_cell_volume   732.77095989
_cell_formula_units_Z   1
loop_
 _symmetry_equiv_pos_site_id
 _symmetry_equiv_pos_as_xyz
  1  'x, y, z'
loop_
 _atom_site_type_symbol
 _atom_site_label
 _atom_site_symmetry_multiplicity
 _atom_site_fract_x
 _atom_site_fract_y
 _atom_site_fract_z
 _atom_site_occupancy
  Na  Na0  1  0.84532500  0.84450700  0.14120800  1
  Na  Na1  1  0.14504900  0.14504900  0.14504900  1
  Na  Na2  1  0.29590900  0.70731400  0.29516100  1
  Na  Na3  1  0.70731400  0.29516100  0.29590900  1
  Na  Na4  1  0.29516100  0.29590900  0.70731400  1
  Na  Na5  1  0.74375600  0.74375600  0.74375600  1
  Na  Na6  1  0.14120800  0.84532500  0.84450700  1
  Na  Na7  1  0.84450700  0.14120800  0.84532500  1
  Al  Al0  1  0.49625800  0.74857100  0.99911200  1
  Al  Al1  1  0.00042100  0.49966000  0.24784900  1
  Al  Al2  1  0.24784900  0.00042100  0.49966000  1
  Al  Al3  1  0.74857100  0.99911200  0.49625800  1
  Al  Al4  1  0.99911200  0.49625800  0.74857100  1
  Al  Al5  1  0.49966000  0.24784900  0.00042100  1
  Si  Si0  1  0.74899100  0.49740000  0.00046900  1
  Si  Si1  1  0.49782700  0.99859500  0.24800300  1
  Si  Si2  1  0.99859500  0.24800300  0.49782700  1
  Si  Si3  1  0.00046900  0.74899100  0.49740000  1
  Si  Si4  1  0.49740000  0.00046900  0.74899100  1
  Si  Si5  1  0.24800300  0.49782700  0.99859500  1
  O  O0  1  0.64932400  0.35739100  0.06089700  1
  O  O1  1  0.34681500  0.63845100  0.05999300  1
  O  O2  1  0.84878700  0.55729800  0.14028200  1
  O  O3  1  0.14814500  0.43668500  0.13810300  1
  O  O4  1  0.55512700  0.85715800  0.15056100  1
  O  O5  1  0.43668500  0.13810300  0.14814500  1
  O  O6  1  0.36071800  0.94081500  0.35258500  1
  O  O7  1  0.63845100  0.05999300  0.34681500  1
  O  O8  1  0.06089700  0.64932400  0.35739100  1
  O  O9  1  0.94081500  0.35258500  0.36071800  1
  O  O10  1  0.85932800  0.84878600  0.44171100  1
  O  O11  1  0.13810300  0.14814500  0.43668500  1
  O  O12  1  0.14028200  0.84878700  0.55729800  1
  O  O13  1  0.85715800  0.15056100  0.55512700  1
  O  O14  1  0.94377600  0.64546900  0.63666400  1
  O  O15  1  0.05999300  0.34681500  0.63845100  1
  O  O16  1  0.63666400  0.94377600  0.64546900  1
  O  O17  1  0.35739100  0.06089700  0.64932400  1
  O  O18  1  0.44171100  0.85932800  0.84878600  1
  O  O19  1  0.55729800  0.14028300  0.84878700  1
  O  O20  1  0.84878600  0.44171100  0.85932800  1
  O  O21  1  0.15056100  0.55512700  0.85715800  1
  O  O22  1  0.64546900  0.63666400  0.94377600  1
  O  O23  1  0.35258500  0.36071800  0.94081500  1
  O  O24  1  0.98508600  0.98508600  0.98508600  1
loop_
_geom_bond_atom_site_label_1
_geom_bond_atom_site_label_2
_geom_bond_distance
_geom_bond_site_symmetry_2
Na0 O24 2.277107 1_554
Na0 O2 2.589600 1_555
Na0 O4 2.620633 1_555
Na0 O10 2.711974 1_555
Na1 O24 2.491391 1_444
Na1 O11 2.630236 1_555
Na1 O3 2.630236 1_555
Na1 O5 2.630236 1_555
Na2 O6 2.242186 1_555
Na2 O8 2.253699 1_555
Na2 O1 2.256292 1_555
Na3 O9 2.242186 1_555
Na3 O0 2.253699 1_555
Na3 O7 2.256292 1_555
Na4 O23 2.242186 1_555
Na4 O17 2.253699 1_555
Na4 O15 2.256292 1_555
Na5 O22 2.232056 1_555
Na5 O14 2.232056 1_555
Na5 O16 2.232056 1_555
Na6 O24 2.277107 1_455
Na6 O12 2.589600 1_555
Na6 O21 2.620633 1_555
Na6 O18 2.711974 1_555
Na7 O24 2.277107 1_545
Na7 O19 2.589600 1_555
Na7 O13 2.620633 1_555
Na7 O20 2.711974 1_555
Al0 O18 1.755495 1_555
Al0 O22 1.756211 1_555
Al0 O4 1.758115 1_556
Al0 O1 1.761208 1_556
Al1 O2 1.754638 1_455
Al1 O8 1.754898 1_555
Al1 O3 1.755804 1_555
Al1 O9 1.757422 1_455
Al2 O12 1.754638 1_545
Al2 O17 1.754898 1_555
Al2 O11 1.755804 1_555
Al2 O6 1.757422 1_545
Al3 O10 1.755495 1_555
Al3 O16 1.756211 1_555
Al3 O13 1.758115 1_565
Al3 O7 1.761208 1_565
Al4 O20 1.755495 1_555
Al4 O14 1.756211 1_555
Al4 O21 1.758115 1_655
Al4 O15 1.761208 1_655
Al5 O19 1.754633 1_554
Al5 O0 1.754898 1_555
Al5 O5 1.755804 1_555
Al5 O23 1.757422 1_554
O0 Si0 1.642467 1_555
O1 Si5 1.641725 1_554
O2 Si0 1.636457 1_555
O3 Si5 1.644122 1_554
O4 Si1 1.632337 1_555
O5 Si1 1.644122 1_545
O6 Si1 1.641207 1_555
O7 Si1 1.641725 1_545
O8 Si3 1.642467 1_555
O9 Si2 1.641207 1_555
O10 Si3 1.638798 1_655
O11 Si2 1.644122 1_455
O12 Si3 1.636457 1_555
O13 Si2 1.632337 1_555
O14 Si3 1.647909 1_655
O15 Si2 1.641725 1_455
O16 Si4 1.647909 1_565
O17 Si4 1.642467 1_555
O18 Si4 1.638798 1_565
O19 Si4 1.636464 1_555
O20 Si0 1.638798 1_556
O21 Si5 1.632337 1_555
O22 Si0 1.647909 1_556
O23 Si5 1.641207 1_555
