# generated using pymatgen
data_Te5As2Br4O5F26
_symmetry_space_group_name_H-M   'P 1'
_cell_length_a   9.98995500
_cell_length_b   18.08544626
_cell_length_c   19.25502378
_cell_angle_alpha   103.57803110
_cell_angle_beta   103.54310032
_cell_angle_gamma   105.03945679
_symmetry_Int_Tables_number   1
_chemical_formula_structural   Te5As2Br4O5F26
_chemical_formula_sum   'Te20 As8 Br16 O20 F104'
_cell_volume   3100.24879986
_cell_formula_units_Z   4
loop_
 _symmetry_equiv_pos_site_id
 _symmetry_equiv_pos_as_xyz
  1  'x, y, z'
loop_
 _atom_site_type_symbol
 _atom_site_label
 _atom_site_symmetry_multiplicity
 _atom_site_fract_x
 _atom_site_fract_y
 _atom_site_fract_z
 _atom_site_occupancy
  Te  Te0  1  0.78614200  0.44334900  0.11087300  1
  Te  Te1  1  0.21385800  0.55665100  0.88912700  1
  Te  Te2  1  0.95005900  0.28580300  0.60464400  1
  Te  Te3  1  0.04994100  0.71419700  0.39535600  1
  Te  Te4  1  0.66373000  0.64652600  0.54654200  1
  Te  Te5  1  0.63474700  0.71530000  0.10209100  1
  Te  Te6  1  0.33627000  0.35347400  0.45345800  1
  Te  Te7  1  0.80650800  0.36339500  0.37818000  1
  Te  Te8  1  0.36525300  0.28470000  0.89790900  1
  Te  Te9  1  0.54979300  0.82379500  0.40691800  1
  Te  Te10  1  0.45020700  0.17620500  0.59308200  1
  Te  Te11  1  0.07795200  0.78918500  0.86240800  1
  Te  Te12  1  0.92204800  0.21081500  0.13759200  1
  Te  Te13  1  0.47557600  0.09957000  0.33551400  1
  Te  Te14  1  0.35928800  0.11353800  0.06118600  1
  Te  Te15  1  0.16864800  0.74877900  0.10941500  1
  Te  Te16  1  0.64071200  0.88646200  0.93881400  1
  Te  Te17  1  0.83135200  0.25122100  0.89058500  1
  Te  Te18  1  0.19349200  0.63660500  0.62182000  1
  Te  Te19  1  0.52442400  0.90043000  0.66448600  1
  As  As0  1  0.62859700  0.53023100  0.78210900  1
  As  As1  1  0.62002200  0.27752100  0.48676000  1
  As  As2  1  0.63025800  0.23533200  0.01430900  1
  As  As3  1  0.08308500  0.00642100  0.73701200  1
  As  As4  1  0.36974200  0.76466800  0.98569100  1
  As  As5  1  0.37997800  0.72247900  0.51324000  1
  As  As6  1  0.91691500  0.99357900  0.26298800  1
  As  As7  1  0.37140300  0.46976900  0.21789100  1
  Br  Br0  1  0.59037700  0.57060400  0.26427000  1
  Br  Br1  1  0.40422600  0.34863700  0.20916400  1
  Br  Br2  1  0.97622000  0.90387100  0.31923900  1
  Br  Br3  1  0.74582400  0.53075900  0.89859200  1
  Br  Br4  1  0.32866500  0.04332600  0.78895900  1
  Br  Br5  1  0.99953600  0.11703200  0.35167800  1
  Br  Br6  1  0.97097800  0.00305600  0.82684600  1
  Br  Br7  1  0.59577400  0.65136300  0.79083600  1
  Br  Br8  1  0.02378000  0.09612900  0.68076100  1
  Br  Br9  1  0.40962300  0.42939600  0.73573000  1
  Br  Br10  1  0.76036900  0.50712000  0.70310400  1
  Br  Br11  1  0.02902200  0.99694400  0.17315400  1
  Br  Br12  1  0.23963100  0.49288000  0.29689600  1
  Br  Br13  1  0.67133500  0.95667400  0.21104100  1
  Br  Br14  1  0.00046400  0.88296800  0.64832200  1
  Br  Br15  1  0.25417600  0.46924100  0.10140800  1
  O  O0  1  0.20914300  0.72884200  0.01624000  1
  O  O1  1  0.19084400  0.72813900  0.48677300  1
  O  O2  1  0.44459900  0.83338900  0.56228400  1
  O  O3  1  0.80915600  0.27186100  0.51322700  1
  O  O4  1  0.75351500  0.24011600  0.10578900  1
  O  O5  1  0.59183700  0.25461400  0.57285200  1
  O  O6  1  0.35988300  0.65848000  0.94333900  1
  O  O7  1  0.79085700  0.27115800  0.98376000  1
  O  O8  1  0.64011700  0.34152000  0.05666100  1
  O  O9  1  0.40816300  0.74538600  0.42714800  1
  O  O10  1  0.55540100  0.16661100  0.43771600  1
  O  O11  1  0.47474000  0.21014300  0.05184800  1
  O  O12  1  0.35274400  0.70072500  0.59961700  1
  O  O13  1  0.52526000  0.78985700  0.94815200  1
  O  O14  1  0.49705300  0.76740700  0.07560900  1
  O  O15  1  0.50294700  0.23259300  0.92439100  1
  O  O16  1  0.64725600  0.29927500  0.40038300  1
  O  O17  1  0.24648500  0.75988400  0.89421100  1
  O  O18  1  0.42766500  0.27341000  0.45154500  1
  O  O19  1  0.57233500  0.72659000  0.54845500  1
  F  F0  1  0.79041500  0.81186300  0.12574600  1
  F  F1  1  0.77438600  0.67079300  0.14024000  1
  F  F2  1  0.36291400  0.51195700  0.91007500  1
  F  F3  1  0.00282300  0.34025900  0.94074900  1
  F  F4  1  0.31957700  0.10485600  0.62327200  1
  F  F5  1  0.87464700  0.12291900  0.05103200  1
  F  F6  1  0.08754700  0.18496200  0.17876200  1
  F  F7  1  0.49159700  0.61545200  0.08157500  1
  F  F8  1  0.37495900  0.25201700  0.79950100  1
  F  F9  1  0.83476300  0.45877000  0.02510200  1
  F  F10  1  0.26504100  0.68036100  0.14137200  1
  F  F11  1  0.90729100  0.28907400  0.37889700  1
  F  F12  1  0.11050600  0.76093900  0.19600100  1
  F  F13  1  0.89868000  0.70224400  0.30926100  1
  F  F14  1  0.63549500  0.14591900  0.30611900  1
  F  F15  1  0.05531400  0.59335700  0.86482700  1
  F  F16  1  0.70365400  0.30805200  0.27604600  1
  F  F17  1  0.56726800  0.02810100  0.36369700  1
  F  F18  1  0.12535300  0.87708100  0.94896800  1
  F  F19  1  0.16453500  0.79898900  0.37120900  1
  F  F20  1  0.91650400  0.42181400  0.47832600  1
  F  F21  1  0.98372300  0.79015500  0.44957600  1
  F  F22  1  0.69173600  0.95677600  0.64539400  1
  F  F23  1  0.68042300  0.89514400  0.37672800  1
  F  F24  1  0.93173700  0.18214800  0.91646600  1
  F  F25  1  0.60391400  0.97422600  0.76255300  1
  F  F26  1  0.30560100  0.13841700  0.49875000  1
  F  F27  1  0.89508100  0.36123000  0.66699400  1
  F  F28  1  0.95240800  0.42468300  0.34851000  1
  F  F29  1  0.73495900  0.31963900  0.85862800  1
  F  F30  1  0.47547500  0.90661300  0.43762300  1
  F  F31  1  0.66079100  0.68061400  0.00791000  1
  F  F32  1  0.60445900  0.13298300  0.97044500  1
  F  F33  1  0.41991900  0.79122500  0.30921300  1
  F  F34  1  0.91507100  0.63042800  0.41006800  1
  F  F35  1  0.43273200  0.97189900  0.63630300  1
  F  F36  1  0.60187200  0.82952100  0.83701800  1
  F  F37  1  0.76706500  0.97397700  0.92344900  1
  F  F38  1  0.23102600  0.42536600  0.45216200  1
  F  F39  1  0.22561400  0.32920700  0.85976000  1
  F  F40  1  0.63581600  0.74656800  0.37458100  1
  F  F41  1  0.08492900  0.36957200  0.58993200  1
  F  F42  1  0.48987800  0.92792100  0.91207000  1
  F  F43  1  0.17780600  0.85764200  0.81742000  1
  F  F44  1  0.83546500  0.20101100  0.62879100  1
  F  F45  1  0.68342500  0.38093600  0.53996400  1
  F  F46  1  0.75021900  0.43670000  0.20098000  1
  F  F47  1  0.33920900  0.31938600  0.99209000  1
  F  F48  1  0.33605400  0.83919400  0.16483700  1
  F  F49  1  0.20958500  0.18813700  0.87425400  1
  F  F50  1  0.50840300  0.38454800  0.91842500  1
  F  F51  1  0.82190700  0.71879000  0.53350500  1
  F  F52  1  0.52452500  0.09338700  0.56237700  1
  F  F53  1  0.88949400  0.23906100  0.80399900  1
  F  F54  1  0.71654600  0.44197900  0.37279400  1
  F  F55  1  0.24978100  0.56330000  0.79902000  1
  F  F56  1  0.48505300  0.42811500  0.43680000  1
  F  F57  1  0.36418400  0.25343200  0.62541900  1
  F  F58  1  0.04759200  0.57531700  0.65149000  1
  F  F59  1  0.62563400  0.83534400  0.69913700  1
  F  F60  1  0.29634600  0.69194800  0.72395400  1
  F  F61  1  0.75397500  0.69162700  0.65109500  1
  F  F62  1  0.17809300  0.28121000  0.46649500  1
  F  F63  1  0.28345400  0.55802100  0.62720600  1
  F  F64  1  0.36450500  0.85408100  0.69388100  1
  F  F65  1  0.76897400  0.57463400  0.54783800  1
  F  F66  1  0.58008100  0.20877500  0.69078700  1
  F  F67  1  0.62504100  0.74798300  0.20049900  1
  F  F68  1  0.08349600  0.57818600  0.52167400  1
  F  F69  1  0.51494700  0.57188500  0.56320000  1
  F  F70  1  0.30824700  0.05065100  0.96034700  1
  F  F71  1  0.39554100  0.86701700  0.02955500  1
  F  F72  1  0.95918600  0.72359100  0.90240700  1
  F  F73  1  0.51012200  0.07207900  0.08793000  1
  F  F74  1  0.08448700  0.45201000  0.83515600  1
  F  F75  1  0.30826400  0.04322400  0.35460600  1
  F  F76  1  0.01627700  0.20984500  0.55042400  1
  F  F77  1  0.91551300  0.54799000  0.16484400  1
  F  F78  1  0.39608600  0.02577400  0.23744700  1
  F  F79  1  0.31657500  0.61906400  0.46003600  1
  F  F80  1  0.39812800  0.17047900  0.16298200  1
  F  F81  1  0.10132000  0.29775600  0.69073900  1
  F  F82  1  0.82219400  0.14235800  0.18258000  1
  F  F83  1  0.69439900  0.86158300  0.50125000  1
  F  F84  1  0.04081400  0.27640900  0.09759300  1
  F  F85  1  0.94468600  0.40664300  0.13517300  1
  F  F86  1  0.66394600  0.16080600  0.83516300  1
  F  F87  1  0.69175300  0.94934900  0.03965300  1
  F  F88  1  0.80261900  0.85206000  0.96437700  1
  F  F89  1  0.09270900  0.71092600  0.62110300  1
  F  F90  1  0.91245300  0.81503800  0.82123800  1
  F  F91  1  0.10491900  0.63877000  0.33300600  1
  F  F92  1  0.58506600  0.59785600  0.44167200  1
  F  F93  1  0.19738100  0.14794000  0.03562300  1
  F  F94  1  0.24602500  0.30837300  0.34890500  1
  F  F95  1  0.37436600  0.16465600  0.30086300  1
  F  F96  1  0.98289000  0.29632500  0.22718400  1
  F  F97  1  0.41493400  0.40214400  0.55832800  1
  F  F98  1  0.01711000  0.70367500  0.77281600  1
  F  F99  1  0.63708600  0.48804300  0.08992500  1
  F  F100  1  0.99717700  0.65974100  0.05925100  1
  F  F101  1  0.06826300  0.81785200  0.08353400  1
  F  F102  1  0.23293500  0.02602300  0.07655100  1
  F  F103  1  0.16523700  0.54123000  0.97489800  1
loop_
_geom_bond_atom_site_label_1
_geom_bond_atom_site_label_2
_geom_bond_distance
_geom_bond_site_symmetry_2
As0 Br10 2.268630 1_555
As0 Br3 2.270688 1_555
As0 Br9 2.271250 1_555
As0 Br7 2.271737 1_555
As1 F45 1.769287 1_555
As1 O18 1.857394 1_555
As1 O16 1.859741 1_555
As1 O5 1.865321 1_555
As1 O10 1.866829 1_555
As1 O3 1.874585 1_555
As2 F32 1.767054 1_554
As2 O7 1.849680 1_554
As2 O11 1.859294 1_555
As2 O4 1.866466 1_555
As2 O8 1.868622 1_555
As2 O15 1.874400 1_554
As3 Br4 2.269856 1_555
As3 Br6 2.274071 1_455
As3 Br14 2.275026 1_545
As3 Br8 2.275905 1_555
As4 F71 1.767054 1_556
As4 O0 1.849680 1_556
As4 O13 1.859294 1_555
As4 O17 1.866466 1_555
As4 O6 1.868622 1_555
As4 O14 1.874400 1_556
As5 F79 1.769287 1_555
As5 O19 1.857394 1_555
As5 O12 1.859741 1_555
As5 O9 1.865321 1_555
As5 O2 1.866829 1_555
As5 O1 1.874585 1_555
As6 Br13 2.269856 1_555
As6 Br11 2.274071 1_655
As6 Br5 2.275026 1_565
As6 Br2 2.275905 1_555
As7 Br12 2.268630 1_555
As7 Br15 2.270688 1_555
As7 Br0 2.271250 1_555
As7 Br1 2.271737 1_555
O0 Te15 1.903758 1_555
O1 Te3 1.894819 1_555
O2 Te19 1.903035 1_555
O3 Te2 1.894819 1_555
O4 Te12 1.903407 1_555
O5 Te10 1.908075 1_555
O6 Te1 1.897158 1_555
O7 Te17 1.903758 1_555
O8 Te0 1.897158 1_555
O9 Te9 1.908075 1_555
O10 Te13 1.903035 1_555
O11 Te14 1.901038 1_555
O12 Te18 1.911139 1_555
O13 Te16 1.901038 1_555
O14 Te5 1.900026 1_555
O15 Te8 1.900026 1_555
O16 Te7 1.911139 1_555
O17 Te11 1.903407 1_555
O18 Te6 1.899601 1_555
O19 Te4 1.899601 1_555
F0 Te5 1.887072 1_555
F1 Te5 1.874543 1_555
F2 Te1 1.878775 1_555
F3 Te17 1.877117 1_455
F4 Te10 1.881378 1_555
F5 Te12 1.877443 1_555
F6 Te12 1.881993 1_455
F7 Te5 1.876782 1_555
F8 Te8 1.881259 1_555
F9 Te0 1.887567 1_555
F10 Te15 1.880258 1_555
F11 Te7 1.877518 1_555
F12 Te15 1.874305 1_555
F13 Te3 1.888721 1_655
F14 Te13 1.877917 1_555
F15 Te1 1.874195 1_555
F16 Te7 1.876357 1_555
F17 Te13 1.874887 1_555
F18 Te11 1.877443 1_555
F19 Te3 1.884503 1_555
F20 Te7 1.868318 1_555
F21 Te3 1.880521 1_655
F22 Te19 1.883357 1_555
F23 Te9 1.881378 1_555
F24 Te17 1.876955 1_555
F25 Te19 1.881975 1_555
F26 Te10 1.878560 1_555
F27 Te2 1.879495 1_555
F28 Te7 1.878371 1_555
F29 Te17 1.880258 1_555
F30 Te9 1.873780 1_555
F31 Te5 1.876532 1_555
F33 Te9 1.873366 1_555
F34 Te3 1.873966 1_655
F35 Te19 1.874887 1_555
F36 Te16 1.881927 1_555
F37 Te16 1.882519 1_555
F38 Te6 1.873213 1_555
F39 Te8 1.874543 1_555
F40 Te9 1.882048 1_555
F41 Te2 1.873966 1_455
F42 Te16 1.871398 1_555
F43 Te11 1.882985 1_555
F44 Te2 1.884503 1_555
F46 Te0 1.876353 1_555
F47 Te8 1.876532 1_555
F48 Te15 1.880190 1_555
F49 Te8 1.887072 1_555
F50 Te8 1.876782 1_555
F51 Te4 1.880454 1_555
F52 Te10 1.873780 1_555
F53 Te17 1.874305 1_555
F54 Te7 1.877965 1_555
F55 Te1 1.876353 1_555
F56 Te6 1.876076 1_555
F57 Te10 1.882048 1_555
F58 Te18 1.878371 1_555
F59 Te19 1.877100 1_555
F60 Te18 1.876357 1_555
F61 Te4 1.878366 1_555
F62 Te6 1.880454 1_555
F63 Te18 1.877965 1_555
F64 Te19 1.877917 1_555
F65 Te4 1.873213 1_555
F66 Te10 1.873366 1_555
F67 Te5 1.881259 1_555
F68 Te18 1.868318 1_555
F69 Te4 1.876076 1_555
F70 Te14 1.876705 1_556
F72 Te11 1.880084 1_655
F73 Te14 1.871398 1_555
F74 Te1 1.873490 1_555
F75 Te13 1.883357 1_555
F76 Te2 1.880521 1_455
F77 Te0 1.873490 1_555
F78 Te13 1.881975 1_555
F80 Te14 1.881927 1_555
F81 Te2 1.888721 1_455
F82 Te12 1.882985 1_555
F83 Te9 1.878560 1_555
F84 Te12 1.880084 1_455
F85 Te0 1.874195 1_555
F86 Te17 1.880190 1_555
F87 Te16 1.876705 1_554
F88 Te16 1.881138 1_555
F89 Te18 1.877518 1_555
F90 Te11 1.881993 1_655
F91 Te3 1.879495 1_555
F92 Te4 1.879646 1_555
F93 Te14 1.881138 1_555
F94 Te6 1.878366 1_555
F95 Te13 1.877100 1_555
F96 Te12 1.872287 1_555
F97 Te6 1.879646 1_555
F98 Te11 1.872287 1_555
F99 Te0 1.878775 1_555
F100 Te15 1.877117 1_655
F101 Te15 1.876955 1_555
F102 Te14 1.882519 1_555
F103 Te1 1.887567 1_555
