# generated using pymatgen
data_Sc(HO)3
_symmetry_space_group_name_H-M   'P 1'
_cell_length_a   6.80562076
_cell_length_b   6.80562076
_cell_length_c   6.80562087
_cell_angle_alpha   109.68940201
_cell_angle_beta   109.68940199
_cell_angle_gamma   109.68940475
_symmetry_Int_Tables_number   1
_chemical_formula_structural   Sc(HO)3
_chemical_formula_sum   'Sc4 H12 O12'
_cell_volume   240.67051034
_cell_formula_units_Z   4
loop_
 _symmetry_equiv_pos_site_id
 _symmetry_equiv_pos_as_xyz
  1  'x, y, z'
loop_
 _atom_site_type_symbol
 _atom_site_label
 _atom_site_symmetry_multiplicity
 _atom_site_fract_x
 _atom_site_fract_y
 _atom_site_fract_z
 _atom_site_occupancy
  Sc  Sc0  1  0.50000000  0.50000000  0.50000000  1
  Sc  Sc1  1  -0.00000000  -0.00000000  0.50000000  1
  Sc  Sc2  1  0.50000000  -0.00000000  -0.00000000  1
  Sc  Sc3  1  -0.00000000  0.50000000  -0.00000000  1
  H  H0  1  0.04202189  0.30989594  0.35166201  1
  H  H1  1  0.95797811  0.69010406  0.64833799  1
  H  H2  1  0.82505779  0.45305521  0.27663450  1
  H  H3  1  0.17494221  0.54694479  0.72336550  1
  H  H4  1  0.64833799  0.95797811  0.69010406  1
  H  H5  1  0.35166201  0.04202189  0.30989594  1
  H  H6  1  0.72336550  0.17494221  0.54694479  1
  H  H7  1  0.27663450  0.82505779  0.45305521  1
  H  H8  1  0.45305521  0.27663450  0.82505779  1
  H  H9  1  0.54694479  0.72336550  0.17494221  1
  H  H10  1  0.30989594  0.35166201  0.04202189  1
  H  H11  1  0.69010406  0.64833799  0.95797811  1
  O  O0  1  0.16781291  0.31145967  0.48107774  1
  O  O1  1  0.83218709  0.68854033  0.51892226  1
  O  O2  1  0.82568327  0.32454760  0.15348121  1
  O  O3  1  0.17431673  0.67545240  0.84651879  1
  O  O4  1  0.51892226  0.83218709  0.68854033  1
  O  O5  1  0.48107774  0.16781291  0.31145967  1
  O  O6  1  0.84651879  0.17431673  0.67545240  1
  O  O7  1  0.15348121  0.82568327  0.32454760  1
  O  O8  1  0.32454760  0.15348121  0.82568327  1
  O  O9  1  0.67545240  0.84651879  0.17431673  1
  O  O10  1  0.31145967  0.48107774  0.16781291  1
  O  O11  1  0.68854033  0.51892226  0.83218709  1
loop_
_geom_bond_atom_site_label_1
_geom_bond_atom_site_label_2
_geom_bond_distance
_geom_bond_site_symmetry_2
H0 O0 0.994078 1_555
H1 O1 0.994078 1_555
H2 O2 0.989114 1_555
H3 O3 0.989114 1_555
H4 O4 0.994078 1_555
H5 O5 0.994078 1_555
H6 O6 0.989114 1_555
H7 O7 0.989114 1_555
H8 O8 0.989114 1_555
H9 O9 0.989114 1_555
H10 O10 0.994078 1_555
H11 O11 0.994078 1_555
O0 Sc1 2.113227 1_555
O0 Sc0 2.124084 1_555
O1 Sc1 2.113227 1_665
O1 Sc0 2.124084 1_555
O2 Sc2 2.113954 1_555
O2 Sc3 2.155258 1_655
O3 Sc2 2.113954 1_566
O3 Sc3 2.155258 1_556
O4 Sc2 2.113227 1_566
O4 Sc0 2.124084 1_555
O5 Sc2 2.113227 1_555
O5 Sc0 2.124084 1_555
O6 Sc3 2.113954 1_656
O6 Sc1 2.155258 1_655
O7 Sc3 2.113954 1_555
O7 Sc1 2.155258 1_565
O8 Sc1 2.113954 1_555
O8 Sc2 2.155258 1_556
O9 Sc1 2.113954 1_665
O9 Sc2 2.155258 1_565
O10 Sc3 2.113227 1_555
O10 Sc0 2.124084 1_555
O11 Sc3 2.113227 1_656
O11 Sc0 2.124084 1_555
