# generated using pymatgen
data_NaLiCO3
_symmetry_space_group_name_H-M   'P 1'
_cell_length_a   7.95630144
_cell_length_b   7.95630144
_cell_length_c   4.60546100
_cell_angle_alpha   90.00000000
_cell_angle_beta   90.00000000
_cell_angle_gamma   119.99999530
_symmetry_Int_Tables_number   1
_chemical_formula_structural   NaLiCO3
_chemical_formula_sum   'Na3 Li3 C3 O9'
_cell_volume   252.47955635
_cell_formula_units_Z   3
loop_
 _symmetry_equiv_pos_site_id
 _symmetry_equiv_pos_as_xyz
  1  'x, y, z'
loop_
 _atom_site_type_symbol
 _atom_site_label
 _atom_site_symmetry_multiplicity
 _atom_site_fract_x
 _atom_site_fract_y
 _atom_site_fract_z
 _atom_site_occupancy
  Na  Na0  1  0.66666700  0.33333300  0.00000000  1
  Na  Na1  1  0.33333300  0.66666700  0.00000000  1
  Na  Na2  1  0.00000000  0.00000000  0.50000000  1
  Li  Li0  1  0.49488900  0.50511100  0.50000000  1
  Li  Li1  1  0.01022300  0.50511100  0.50000000  1
  Li  Li2  1  0.49488900  0.98977700  0.50000000  1
  C  C0  1  0.33333300  0.66666700  0.50000000  1
  C  C1  1  0.00000000  0.00000000  0.00000000  1
  C  C2  1  0.66666700  0.33333300  0.50000000  1
  O  O0  1  0.48693800  0.51306200  0.00000000  1
  O  O1  1  0.17845000  0.35690100  0.00000000  1
  O  O2  1  0.90550200  0.81100500  0.00000000  1
  O  O3  1  0.02612400  0.51306200  0.00000000  1
  O  O4  1  0.90550200  0.09449800  0.00000000  1
  O  O5  1  0.48693800  0.97387600  0.00000000  1
  O  O6  1  0.17845000  0.82155000  0.00000000  1
  O  O7  1  0.64309900  0.82155000  0.00000000  1
  O  O8  1  0.18899500  0.09449800  0.00000000  1
loop_
_geom_bond_atom_site_label_1
_geom_bond_atom_site_label_2
_geom_bond_distance
_geom_bond_site_symmetry_2
Na0 O3 2.476788 1_655
Na0 O5 2.476788 1_545
Na0 O0 2.476795 1_555
Na1 O5 2.116780 1_555
Na1 O3 2.116780 1_555
Na1 O0 2.116787 1_555
Na1 O6 2.134399 1_555
Na1 O7 2.134399 1_555
Na1 O1 2.134399 1_555
Na2 O8 2.645450 1_556
Na2 O8 2.645450 1_555
Na2 O2 2.645450 1_445
Na2 O2 2.645450 1_446
Na2 O4 2.645453 1_456
Na2 O4 2.645453 1_455
Li0 O0 2.305336 1_555
Li0 O0 2.305336 1_556
Li1 O3 2.305336 1_555
Li1 O3 2.305336 1_556
Li2 O5 2.305336 1_556
Li2 O5 2.305336 1_555
C0 Li2 2.226344 1_555
C0 Li1 2.226344 1_555
C0 Li0 2.226358 1_555
C0 Na1 2.302731 1_556
C0 Na1 2.302731 1_555
C1 O8 1.302243 1_555
C1 O2 1.302243 1_445
C1 O4 1.302250 1_455
C1 Na2 2.302731 1_555
C1 Na2 2.302731 1_554
C2 Na0 2.302731 1_555
C2 Na0 2.302731 1_556
C2 Li0 2.367224 1_555
C2 Li1 2.367224 1_655
C2 Li2 2.367224 1_545
