# generated using pymatgen
data_NiH2(SN)4
_symmetry_space_group_name_H-M   'P 1'
_cell_length_a   8.45842100
_cell_length_b   12.69337700
_cell_length_c   13.87336300
_cell_angle_alpha   90.00000000
_cell_angle_beta   90.00000000
_cell_angle_gamma   90.00000000
_symmetry_Int_Tables_number   1
_chemical_formula_structural   NiH2(SN)4
_chemical_formula_sum   'Ni8 H16 S32 N32'
_cell_volume   1489.52647324
_cell_formula_units_Z   8
loop_
 _symmetry_equiv_pos_site_id
 _symmetry_equiv_pos_as_xyz
  1  'x, y, z'
loop_
 _atom_site_type_symbol
 _atom_site_label
 _atom_site_symmetry_multiplicity
 _atom_site_fract_x
 _atom_site_fract_y
 _atom_site_fract_z
 _atom_site_occupancy
  Ni  Ni0  1  0.02348500  0.07127600  0.37553500  1
  Ni  Ni1  1  0.52348500  0.42872400  0.62446500  1
  Ni  Ni2  1  0.97651500  0.57127600  0.12446500  1
  Ni  Ni3  1  0.47651500  0.92872400  0.87553500  1
  Ni  Ni4  1  0.97651500  0.92872400  0.62446500  1
  Ni  Ni5  1  0.47651500  0.57127600  0.37553500  1
  Ni  Ni6  1  0.02348500  0.42872400  0.87553500  1
  Ni  Ni7  1  0.52348500  0.07127600  0.12446500  1
  H  H0  1  0.28992100  0.96718400  0.39334000  1
  H  H1  1  0.78992100  0.53281600  0.60666000  1
  H  H2  1  0.71007900  0.46718400  0.10666000  1
  H  H3  1  0.21007900  0.03281600  0.89334000  1
  H  H4  1  0.71007900  0.03281600  0.60666000  1
  H  H5  1  0.21007900  0.46718400  0.39334000  1
  H  H6  1  0.28992100  0.53281600  0.89334000  1
  H  H7  1  0.78992100  0.96718400  0.10666000  1
  H  H8  1  0.04229000  0.86600100  0.35761300  1
  H  H9  1  0.54229000  0.63399900  0.64238700  1
  H  H10  1  0.95771000  0.36600100  0.14238700  1
  H  H11  1  0.45771000  0.13399900  0.85761300  1
  H  H12  1  0.95771000  0.13399900  0.64238700  1
  H  H13  1  0.45771000  0.36600100  0.35761300  1
  H  H14  1  0.04229000  0.63399900  0.85761300  1
  H  H15  1  0.54229000  0.86600100  0.14238700  1
  S  S0  1  0.08247900  0.23472400  0.37367800  1
  S  S1  1  0.58247900  0.26527600  0.62632200  1
  S  S2  1  0.91752100  0.73472400  0.12632200  1
  S  S3  1  0.41752100  0.76527600  0.87367800  1
  S  S4  1  0.91752100  0.76527600  0.62632200  1
  S  S5  1  0.41752100  0.73472400  0.37367800  1
  S  S6  1  0.08247900  0.26527600  0.87367800  1
  S  S7  1  0.58247900  0.23472400  0.12632200  1
  S  S8  1  0.78056100  0.11132500  0.38826700  1
  S  S9  1  0.28056100  0.38867500  0.61173300  1
  S  S10  1  0.21943900  0.61132500  0.11173300  1
  S  S11  1  0.71943900  0.88867500  0.88826700  1
  S  S12  1  0.21943900  0.88867500  0.61173300  1
  S  S13  1  0.71943900  0.61132500  0.38826700  1
  S  S14  1  0.78056100  0.38867500  0.88826700  1
  S  S15  1  0.28056100  0.11132500  0.11173300  1
  S  S16  1  0.37237100  0.13133900  0.37747100  1
  S  S17  1  0.87237100  0.36866100  0.62252900  1
  S  S18  1  0.62762900  0.63133900  0.12252900  1
  S  S19  1  0.12762900  0.86866100  0.87747100  1
  S  S20  1  0.62762900  0.86866100  0.62252900  1
  S  S21  1  0.12762900  0.63133900  0.37747100  1
  S  S22  1  0.37237100  0.36866100  0.87747100  1
  S  S23  1  0.87237100  0.13133900  0.12252900  1
  S  S24  1  0.78201500  0.89506800  0.36110100  1
  S  S25  1  0.28201500  0.60493200  0.63889900  1
  S  S26  1  0.21798500  0.39506800  0.13889900  1
  S  S27  1  0.71798500  0.10493200  0.86110100  1
  S  S28  1  0.21798500  0.10493200  0.63889900  1
  S  S29  1  0.71798500  0.39506800  0.36110100  1
  S  S30  1  0.78201500  0.60493200  0.86110100  1
  S  S31  1  0.28201500  0.89506800  0.13889900  1
  N  N0  1  0.24042100  0.03989300  0.38100400  1
  N  N1  1  0.74042100  0.46010700  0.61899600  1
  N  N2  1  0.75957900  0.53989300  0.11899600  1
  N  N3  1  0.25957900  0.96010700  0.88100400  1
  N  N4  1  0.75957900  0.96010700  0.61899600  1
  N  N5  1  0.25957900  0.53989300  0.38100400  1
  N  N6  1  0.24042100  0.46010700  0.88100400  1
  N  N7  1  0.74042100  0.03989300  0.11899600  1
  N  N8  1  0.27948900  0.23778400  0.37448600  1
  N  N9  1  0.77948900  0.26221600  0.62551400  1
  N  N10  1  0.72051100  0.73778400  0.12551400  1
  N  N11  1  0.22051100  0.76221600  0.87448600  1
  N  N12  1  0.72051100  0.76221600  0.62551400  1
  N  N13  1  0.22051100  0.73778400  0.37448600  1
  N  N14  1  0.27948900  0.26221600  0.87448600  1
  N  N15  1  0.77948900  0.23778400  0.12551400  1
  N  N16  1  0.96521100  0.92956000  0.35961600  1
  N  N17  1  0.46521100  0.57044000  0.64038400  1
  N  N18  1  0.03478900  0.42956000  0.14038400  1
  N  N19  1  0.53478900  0.07044000  0.85961600  1
  N  N20  1  0.03478900  0.07044000  0.64038400  1
  N  N21  1  0.53478900  0.42956000  0.35961600  1
  N  N22  1  0.96521100  0.57044000  0.85961600  1
  N  N23  1  0.46521100  0.92956000  0.14038400  1
  N  N24  1  0.68415500  0.99825300  0.37517800  1
  N  N25  1  0.18415500  0.50174700  0.62482200  1
  N  N26  1  0.31584500  0.49825300  0.12482200  1
  N  N27  1  0.81584500  0.00174700  0.87517800  1
  N  N28  1  0.31584500  0.00174700  0.62482200  1
  N  N29  1  0.81584500  0.49825300  0.37517800  1
  N  N30  1  0.68415500  0.50174700  0.87517800  1
  N  N31  1  0.18415500  0.99825300  0.12482200  1
loop_
_geom_bond_atom_site_label_1
_geom_bond_atom_site_label_2
_geom_bond_distance
_geom_bond_site_symmetry_2
Ni0 S8 2.124062 1_455
Ni0 S0 2.134027 1_555
Ni1 S9 2.124062 1_555
Ni1 S1 2.134027 1_555
Ni2 S10 2.124062 1_655
Ni2 S2 2.134027 1_555
Ni3 S11 2.124062 1_555
Ni3 S3 2.134027 1_555
Ni4 S12 2.124062 1_655
Ni4 S4 2.134027 1_555
Ni5 S13 2.124062 1_555
Ni5 S5 2.134027 1_555
Ni6 S14 2.124062 1_455
Ni6 S6 2.134027 1_555
Ni7 S15 2.124062 1_555
Ni7 S7 2.134027 1_555
H0 N0 1.027803 1_565
H1 N1 1.027803 1_555
H2 N2 1.027803 1_555
H3 N3 1.027803 1_545
H4 N4 1.027803 1_545
H5 N5 1.027803 1_555
H6 N6 1.027803 1_555
H7 N7 1.027803 1_565
H8 N16 1.037653 1_455
H9 N17 1.037653 1_555
H10 N18 1.037653 1_655
H11 N19 1.037653 1_555
H12 N20 1.037653 1_655
H13 N21 1.037653 1_555
H14 N22 1.037653 1_455
H15 N23 1.037653 1_555
N0 S16 1.611030 1_555
N0 Ni0 1.879211 1_555
N1 S17 1.611030 1_555
N1 Ni1 1.879211 1_555
N2 S18 1.611030 1_555
N2 Ni2 1.879211 1_555
N3 S19 1.611030 1_555
N3 Ni3 1.879211 1_555
N4 S20 1.611030 1_555
N4 Ni4 1.879211 1_555
N5 S21 1.611030 1_555
N5 Ni5 1.879211 1_555
N6 S22 1.611030 1_555
N6 Ni6 1.879211 1_555
N7 S23 1.611030 1_555
N7 Ni7 1.879211 1_555
N8 S16 1.563501 1_555
N8 S0 1.666884 1_555
N9 S17 1.563501 1_555
N9 S1 1.666884 1_555
N10 S18 1.563501 1_555
N10 S2 1.666884 1_555
N11 S19 1.563501 1_555
N11 S3 1.666884 1_555
N12 S20 1.563501 1_555
N12 S4 1.666884 1_555
N13 S21 1.563501 1_555
N13 S5 1.666884 1_555
N14 S22 1.563501 1_555
N14 S6 1.666884 1_555
N15 S23 1.563501 1_555
N15 S7 1.666884 1_555
N16 S24 1.610345 1_555
N16 Ni0 1.878193 1_665
N17 S25 1.610345 1_555
N17 Ni1 1.878193 1_555
N18 S26 1.610345 1_555
N18 Ni2 1.878193 1_455
N19 S27 1.610345 1_555
N19 Ni3 1.878193 1_545
N20 S28 1.610345 1_555
N20 Ni4 1.878193 1_445
N21 S29 1.610345 1_555
N21 Ni5 1.878193 1_555
N22 S30 1.610345 1_555
N22 Ni6 1.878193 1_655
N23 S31 1.610345 1_555
N23 Ni7 1.878193 1_565
N24 S24 1.561660 1_555
N24 S8 1.660695 1_565
N25 S25 1.561660 1_555
N25 S9 1.660695 1_555
N26 S26 1.561660 1_555
N26 S10 1.660695 1_555
N27 S27 1.561660 1_555
N27 S11 1.660695 1_545
N28 S28 1.561660 1_555
N28 S12 1.660695 1_545
N29 S29 1.561660 1_555
N29 S13 1.660695 1_555
N30 S30 1.561660 1_555
N30 S14 1.660695 1_555
N31 S31 1.561660 1_555
N31 S15 1.660695 1_565
