# generated using pymatgen
data_K3Sc(HO)6
_symmetry_space_group_name_H-M   'P 1'
_cell_length_a   7.80253820
_cell_length_b   7.80253820
_cell_length_c   8.56113972
_cell_angle_alpha   89.11447943
_cell_angle_beta   89.11447943
_cell_angle_gamma   105.18166316
_symmetry_Int_Tables_number   1
_chemical_formula_structural   K3Sc(HO)6
_chemical_formula_sum   'K6 Sc2 H12 O12'
_cell_volume   502.84633608
_cell_formula_units_Z   2
loop_
 _symmetry_equiv_pos_site_id
 _symmetry_equiv_pos_as_xyz
  1  'x, y, z'
loop_
 _atom_site_type_symbol
 _atom_site_label
 _atom_site_symmetry_multiplicity
 _atom_site_fract_x
 _atom_site_fract_y
 _atom_site_fract_z
 _atom_site_occupancy
  K  K0  1  0.60418300  0.39581700  0.75000000  1
  K  K1  1  0.39581700  0.60418300  0.25000000  1
  K  K2  1  0.08820200  0.24145900  0.61706700  1
  K  K3  1  0.75854100  0.91179800  0.88293300  1
  K  K4  1  0.91179800  0.75854100  0.38293300  1
  K  K5  1  0.24145900  0.08820200  0.11706700  1
  Sc  Sc0  1  0.50000000  0.00000000  0.50000000  1
  Sc  Sc1  1  0.00000000  0.50000000  0.00000000  1
  H  H0  1  0.14856700  0.78320300  0.72881300  1
  H  H1  1  0.21679700  0.85143300  0.77118700  1
  H  H2  1  0.85143300  0.21679700  0.27118700  1
  H  H3  1  0.78320300  0.14856700  0.22881300  1
  H  H4  1  0.24650700  0.70979400  0.51579900  1
  H  H5  1  0.29020600  0.75349300  0.98420100  1
  H  H6  1  0.75349300  0.29020600  0.48420100  1
  H  H7  1  0.70979400  0.24650700  0.01579900  1
  H  H8  1  0.36625500  0.58928600  0.78751700  1
  H  H9  1  0.41071400  0.63374500  0.71248300  1
  H  H10  1  0.63374500  0.41071400  0.21248300  1
  H  H11  1  0.58928600  0.36625500  0.28751700  1
  O  O0  1  0.21579800  0.38909500  0.99004600  1
  O  O1  1  0.61090500  0.78420200  0.50995400  1
  O  O2  1  0.78420200  0.61090500  0.00995400  1
  O  O3  1  0.38909500  0.21579800  0.49004600  1
  O  O4  1  0.87658900  0.63864400  0.84879100  1
  O  O5  1  0.36135600  0.12341100  0.65120900  1
  O  O6  1  0.12341100  0.36135600  0.15120900  1
  O  O7  1  0.63864400  0.87658900  0.34879100  1
  O  O8  1  0.80670100  0.24947000  0.94131600  1
  O  O9  1  0.75053000  0.19329900  0.55868400  1
  O  O10  1  0.19329900  0.75053000  0.05868400  1
  O  O11  1  0.24947000  0.80670100  0.44131600  1
loop_
_geom_bond_atom_site_label_1
_geom_bond_atom_site_label_2
_geom_bond_distance
_geom_bond_site_symmetry_2
K0 O4 2.611234 1_555
K0 O5 2.611234 1_555
K0 O8 2.729591 1_555
K0 O9 2.729591 1_555
K0 O2 2.952908 1_556
K0 O3 2.952908 1_555
K1 O7 2.611234 1_555
K1 O6 2.611234 1_555
K1 O10 2.729591 1_555
K1 O11 2.729591 1_555
K1 O1 2.952908 1_555
K1 O0 2.952908 1_554
K2 O5 2.552518 1_555
K2 O9 2.619280 1_455
K2 O3 2.628398 1_555
K3 O4 2.552518 1_555
K3 O8 2.619280 1_565
K3 O2 2.628398 1_556
K4 O7 2.552518 1_555
K4 O11 2.619280 1_655
K4 O1 2.628398 1_555
K5 O6 2.552518 1_555
K5 O10 2.619280 1_545
K5 O0 2.628398 1_554
H0 H1 0.749619 1_555
H2 H3 0.749619 1_555
H4 O11 0.976907 1_555
H4 K1 2.773656 1_555
H5 O10 0.976907 1_556
H5 K1 2.773656 1_556
H6 O9 0.976907 1_555
H6 K0 2.773656 1_555
H7 O8 0.976907 1_554
H7 K0 2.773656 1_554
H8 H9 0.759286 1_555
H8 K0 2.700485 1_555
H9 K0 2.700485 1_555
H10 H11 0.759286 1_555
H10 K1 2.700485 1_555
H11 K1 2.700485 1_555
O0 O6 1.532470 1_556
O0 Sc1 2.086180 1_556
O1 O7 1.532470 1_555
O1 Sc0 2.086180 1_565
O2 O4 1.532470 1_554
O2 Sc1 2.086180 1_655
O3 O5 1.532470 1_555
O3 Sc0 2.086180 1_555
O4 Sc1 2.077032 1_656
O5 Sc0 2.077032 1_555
O6 Sc1 2.077032 1_555
O7 Sc0 2.077032 1_565
O8 Sc1 2.204060 1_656
O9 Sc0 2.204060 1_555
O10 Sc1 2.204060 1_555
O11 Sc0 2.204060 1_565
