# generated using pymatgen
data_NpNiSn
_symmetry_space_group_name_H-M   'P 1'
_cell_length_a   4.49507700
_cell_length_b   7.18648400
_cell_length_c   7.42084600
_cell_angle_alpha   90.00000000
_cell_angle_beta   90.00000000
_cell_angle_gamma   90.00000000
_symmetry_Int_Tables_number   1
_chemical_formula_structural   NpNiSn
_chemical_formula_sum   'Np4 Ni4 Sn4'
_cell_volume   239.72151714
_cell_formula_units_Z   4
loop_
 _symmetry_equiv_pos_site_id
 _symmetry_equiv_pos_as_xyz
  1  'x, y, z'
loop_
 _atom_site_type_symbol
 _atom_site_label
 _atom_site_symmetry_multiplicity
 _atom_site_fract_x
 _atom_site_fract_y
 _atom_site_fract_z
 _atom_site_occupancy
  Np  Np0  1  0.75000000  0.97647900  0.18492400  1
  Np  Np1  1  0.75000000  0.47647900  0.31507600  1
  Np  Np2  1  0.25000000  0.52352100  0.68492400  1
  Np  Np3  1  0.25000000  0.02352100  0.81507600  1
  Ni  Ni0  1  0.75000000  0.20082100  0.58506300  1
  Ni  Ni1  1  0.25000000  0.29917900  0.08506300  1
  Ni  Ni2  1  0.25000000  0.79917900  0.41493700  1
  Ni  Ni3  1  0.75000000  0.70082100  0.91493700  1
  Sn  Sn0  1  0.75000000  0.32325600  0.91134600  1
  Sn  Sn1  1  0.25000000  0.67674400  0.08865400  1
  Sn  Sn2  1  0.25000000  0.17674400  0.41134600  1
  Sn  Sn3  1  0.75000000  0.82325600  0.58865400  1
loop_
_geom_bond_atom_site_label_1
_geom_bond_atom_site_label_2
_geom_bond_distance
_geom_bond_site_symmetry_2
Np0 Sn2 3.153719 1_565
Np0 Sn2 3.153719 1_665
Np0 Sn3 3.191962 1_555
Np0 Sn1 3.194009 1_655
Np0 Sn1 3.194009 1_555
Np0 Sn0 3.214379 1_564
Np1 Sn1 3.153719 1_655
Np1 Sn1 3.153719 1_555
Np1 Sn0 3.191962 1_554
Np1 Sn2 3.194009 1_555
Np1 Sn2 3.194009 1_655
Np1 Sn3 3.214379 1_555
Np2 Sn0 3.153719 1_455
Np2 Sn0 3.153719 1_555
Np2 Sn1 3.191962 1_556
Np2 Sn3 3.194009 1_555
Np2 Sn3 3.194009 1_455
Np2 Sn2 3.214379 1_555
Np3 Sn3 3.153719 1_445
Np3 Sn3 3.153719 1_545
Np3 Sn2 3.191962 1_555
Np3 Sn0 3.194009 1_555
Np3 Sn0 3.194009 1_455
Np3 Sn1 3.214379 1_546
Ni0 Sn0 2.576210 1_555
Ni0 Sn2 2.596770 1_555
Ni0 Sn2 2.596770 1_655
Ni0 Sn3 2.713496 1_545
Ni0 Np1 2.817543 1_555
Ni0 Np3 3.096514 1_555
Ni0 Np3 3.096514 1_655
Ni0 Np2 3.313414 1_655
Ni0 Np2 3.313414 1_555
Ni0 Np0 3.378823 1_545
Ni1 Sn2 2.576210 1_555
Ni1 Sn0 2.596770 1_554
Ni1 Sn0 2.596770 1_454
Ni1 Sn1 2.713496 1_555
Ni1 Np3 2.817543 1_554
Ni1 Np1 3.096514 1_455
Ni1 Np1 3.096514 1_555
Ni1 Np0 3.313414 1_445
Ni1 Np0 3.313414 1_545
Ni1 Np2 3.378823 1_554
Ni2 Sn1 2.576210 1_555
Ni2 Sn3 2.596770 1_555
Ni2 Sn3 2.596770 1_455
Ni2 Sn2 2.713496 1_565
Ni2 Np2 2.817543 1_555
Ni2 Np0 3.096514 1_555
Ni2 Np0 3.096514 1_455
Ni2 Np1 3.313414 1_555
Ni2 Np1 3.313414 1_455
Ni2 Np3 3.378823 1_565
Ni3 Sn3 2.576210 1_555
Ni3 Sn1 2.596770 1_656
Ni3 Sn1 2.596770 1_556
Ni3 Sn0 2.713496 1_555
Ni3 Np0 2.817543 1_556
Ni3 Np2 3.096514 1_555
Ni3 Np2 3.096514 1_655
Ni3 Np3 3.313414 1_665
Ni3 Np3 3.313414 1_565
Ni3 Np1 3.378823 1_556
