# generated using pymatgen
data_BaHfMg2
_symmetry_space_group_name_H-M   'P 1'
_cell_length_a   5.47819524
_cell_length_b   5.47819524
_cell_length_c   5.47819524
_cell_angle_alpha   60.00000000
_cell_angle_beta   60.00000000
_cell_angle_gamma   60.00000000
_symmetry_Int_Tables_number   1
_chemical_formula_structural   BaHfMg2
_chemical_formula_sum   'Ba1 Hf1 Mg2'
_cell_volume   116.25122015
_cell_formula_units_Z   1
loop_
 _symmetry_equiv_pos_site_id
 _symmetry_equiv_pos_as_xyz
  1  'x, y, z'
loop_
 _atom_site_type_symbol
 _atom_site_label
 _atom_site_symmetry_multiplicity
 _atom_site_fract_x
 _atom_site_fract_y
 _atom_site_fract_z
 _atom_site_occupancy
  Ba  Ba0  1  0.50000000  0.50000000  0.50000000  1
  Hf  Hf0  1  0.75000000  0.75000000  0.75000000  1
  Mg  Mg0  1  0.00000000  0.00000000  0.00000000  1
  Mg  Mg1  1  0.25000000  0.25000000  0.25000000  1
loop_
_geom_bond_atom_site_label_1
_geom_bond_atom_site_label_2
_geom_bond_distance
_geom_bond_site_symmetry_2
Ba0 Hf0 3.354696 1_555
Ba0 Hf0 3.354696 1_545
Ba0 Mg1 3.354696 1_555
Ba0 Mg1 3.354696 1_655
Ba0 Hf0 3.354696 1_554
Ba0 Hf0 3.354696 1_455
Ba0 Mg1 3.354696 1_565
Ba0 Mg1 3.354696 1_556
Ba0 Mg0 3.873669 1_665
Ba0 Mg0 3.873669 1_565
Ba0 Mg0 3.873669 1_656
Ba0 Mg0 3.873669 1_655
Ba0 Mg0 3.873669 1_566
Ba0 Mg0 3.873669 1_556
Hf0 Mg0 3.354696 1_665
Hf0 Mg0 3.354696 1_666
Hf0 Mg0 3.354696 1_656
Hf0 Mg0 3.354696 1_566
Mg0 Mg1 3.354696 1_545
Mg0 Mg1 3.354696 1_555
Mg0 Mg1 3.354696 1_554
Mg0 Mg1 3.354696 1_455
