# generated using pymatgen
data_KTaPS6
_symmetry_space_group_name_H-M   'P 1'
_cell_length_a   18.05985800
_cell_length_b   14.22487600
_cell_length_c   16.08377582
_cell_angle_alpha   71.73994871
_cell_angle_beta   90.00000000
_cell_angle_gamma   90.00000000
_symmetry_Int_Tables_number   1
_chemical_formula_structural   KTaPS6
_chemical_formula_sum   'K16 Ta16 P16 S96'
_cell_volume   3923.84406305
_cell_formula_units_Z   16
loop_
 _symmetry_equiv_pos_site_id
 _symmetry_equiv_pos_as_xyz
  1  'x, y, z'
loop_
 _atom_site_type_symbol
 _atom_site_label
 _atom_site_symmetry_multiplicity
 _atom_site_fract_x
 _atom_site_fract_y
 _atom_site_fract_z
 _atom_site_occupancy
  K  K0  1  0.32284200  0.65886500  0.51568400  1
  K  K1  1  0.12400200  0.05165000  0.46314300  1
  K  K2  1  0.01622500  0.48456200  0.36812100  1
  K  K3  1  0.37599800  0.55165000  0.96314300  1
  K  K4  1  0.92795800  0.34313700  0.95964000  1
  K  K5  1  0.67715800  0.34113500  0.48431600  1
  K  K6  1  0.42795800  0.15686300  0.54036000  1
  K  K7  1  0.51622500  0.01543800  0.13187900  1
  K  K8  1  0.87599800  0.94835000  0.53685700  1
  K  K9  1  0.98377500  0.51543800  0.63187900  1
  K  K10  1  0.57204200  0.84313700  0.45964000  1
  K  K11  1  0.62400200  0.44835000  0.03685700  1
  K  K12  1  0.82284200  0.84113500  0.98431600  1
  K  K13  1  0.17715800  0.15886500  0.01568400  1
  K  K14  1  0.48377500  0.98456200  0.86812100  1
  K  K15  1  0.07204200  0.65686300  0.04036000  1
  Ta  Ta0  1  0.21764600  0.35993100  0.29889500  1
  Ta  Ta1  1  0.71764600  0.14006900  0.20110500  1
  Ta  Ta2  1  0.88297400  0.24848400  0.25026900  1
  Ta  Ta3  1  0.38214200  0.32706900  0.82693300  1
  Ta  Ta4  1  0.71586000  0.20805000  0.77297300  1
  Ta  Ta5  1  0.78235400  0.64006900  0.70110500  1
  Ta  Ta6  1  0.61702600  0.74848400  0.75026900  1
  Ta  Ta7  1  0.61785800  0.67293100  0.17306700  1
  Ta  Ta8  1  0.78414000  0.70805000  0.27297300  1
  Ta  Ta9  1  0.38297400  0.25151600  0.24973100  1
  Ta  Ta10  1  0.21586000  0.29195000  0.72702700  1
  Ta  Ta11  1  0.11702600  0.75151600  0.74973100  1
  Ta  Ta12  1  0.28414000  0.79195000  0.22702700  1
  Ta  Ta13  1  0.28235400  0.85993100  0.79889500  1
  Ta  Ta14  1  0.88214200  0.17293100  0.67306700  1
  Ta  Ta15  1  0.11785800  0.82706900  0.32693300  1
  P  P0  1  0.79093900  0.66461700  0.48874100  1
  P  P1  1  0.29093900  0.83538300  0.01125900  1
  P  P2  1  0.54935000  0.28062100  0.69077500  1
  P  P3  1  0.10852500  0.75025300  0.54323400  1
  P  P4  1  0.89147500  0.24974700  0.45676600  1
  P  P5  1  0.05203500  0.30543600  0.16449800  1
  P  P6  1  0.94796500  0.69456400  0.83550200  1
  P  P7  1  0.70906100  0.16461700  0.98874100  1
  P  P8  1  0.60852500  0.74974700  0.95676600  1
  P  P9  1  0.45065000  0.71937900  0.30922500  1
  P  P10  1  0.44796500  0.80543600  0.66449800  1
  P  P11  1  0.20906100  0.33538300  0.51125900  1
  P  P12  1  0.04935000  0.21937900  0.80922500  1
  P  P13  1  0.95065000  0.78062100  0.19077500  1
  P  P14  1  0.55203500  0.19456400  0.33550200  1
  P  P15  1  0.39147500  0.25025300  0.04323400  1
  S  S0  1  0.75439500  0.28318000  0.89358400  1
  S  S1  1  0.03851600  0.94755600  0.31822900  1
  S  S2  1  0.38409700  0.83988300  0.31281600  1
  S  S3  1  0.97583500  0.38586300  0.21341500  1
  S  S4  1  0.97513300  0.87412600  0.07428800  1
  S  S5  1  0.21587300  0.90901300  0.91751100  1
  S  S6  1  0.15737200  0.92877000  0.73029100  1
  S  S7  1  0.44510400  0.19572700  0.95595900  1
  S  S8  1  0.68957300  0.66603900  0.03886700  1
  S  S9  1  0.21962900  0.86269000  0.65790800  1
  S  S10  1  0.74560500  0.78318000  0.39358400  1
  S  S11  1  0.52021000  0.68861300  0.66918800  1
  S  S12  1  0.46148400  0.44755600  0.81822900  1
  S  S13  1  0.95369900  0.28626100  0.74241700  1
  S  S14  1  0.47583500  0.11413700  0.28658500  1
  S  S15  1  0.61768300  0.32829900  0.77364800  1
  S  S16  1  0.22863500  0.94098600  0.26171000  1
  S  S17  1  0.31042700  0.33396100  0.96113300  1
  S  S18  1  0.47979000  0.31138700  0.33081200  1
  S  S19  1  0.88409700  0.66011700  0.18718400  1
  S  S20  1  0.11590300  0.33988300  0.81281600  1
  S  S21  1  0.84262800  0.07123000  0.26970900  1
  S  S22  1  0.78764900  0.31770500  0.67152400  1
  S  S23  1  0.97979000  0.18861300  0.16918800  1
  S  S24  1  0.65247300  0.85587500  0.85023300  1
  S  S25  1  0.95386700  0.16491000  0.40098000  1
  S  S26  1  0.11768300  0.17170100  0.72635200  1
  S  S27  1  0.28412700  0.40901300  0.41751100  1
  S  S28  1  0.59216900  0.12496800  0.45345800  1
  S  S29  1  0.02416500  0.61413700  0.78658500  1
  S  S30  1  0.66604600  0.59992100  0.32757200  1
  S  S31  1  0.25439500  0.21682000  0.60641600  1
  S  S32  1  0.05489600  0.69572700  0.45595900  1
  S  S33  1  0.16604600  0.90007900  0.17242800  1
  S  S34  1  0.71235100  0.81770500  0.17152400  1
  S  S35  1  0.84634500  0.50569400  0.76977900  1
  S  S36  1  0.86791900  0.76426500  0.74248600  1
  S  S37  1  0.63576600  0.21105100  0.06729600  1
  S  S38  1  0.88231700  0.82829900  0.27364800  1
  S  S39  1  0.20531700  0.68270200  0.85238200  1
  S  S40  1  0.83470300  0.57815400  0.42098200  1
  S  S41  1  0.15365500  0.49430600  0.23022100  1
  S  S42  1  0.54630100  0.78626100  0.24241700  1
  S  S43  1  0.28764900  0.18229500  0.82847600  1
  S  S44  1  0.79468300  0.31729800  0.14761800  1
  S  S45  1  0.21235100  0.68229500  0.32847600  1
  S  S46  1  0.28037100  0.36269000  0.15790800  1
  S  S47  1  0.83395400  0.09992100  0.82757200  1
  S  S48  1  0.71587300  0.59098700  0.58248900  1
  S  S49  1  0.52486700  0.37412600  0.57428800  1
  S  S50  1  0.34634500  0.99430600  0.73022100  1
  S  S51  1  0.36423400  0.78894900  0.93270400  1
  S  S52  1  0.86423400  0.71105100  0.56729600  1
  S  S53  1  0.27136500  0.44098600  0.76171000  1
  S  S54  1  0.34752700  0.14412500  0.14976700  1
  S  S55  1  0.66529700  0.07815400  0.92098200  1
  S  S56  1  0.02021000  0.81138700  0.83081200  1
  S  S57  1  0.65737200  0.57123000  0.76970900  1
  S  S58  1  0.54613300  0.66491000  0.90098000  1
  S  S59  1  0.55489600  0.80427300  0.04404100  1
  S  S60  1  0.40783100  0.87503200  0.54654200  1
  S  S61  1  0.36791900  0.73573500  0.75751400  1
  S  S62  1  0.65365500  0.00569400  0.26977900  1
  S  S63  1  0.71962900  0.63731000  0.84209200  1
  S  S64  1  0.63208100  0.26426500  0.24248600  1
  S  S65  1  0.38231700  0.67170100  0.22635200  1
  S  S66  1  0.33395400  0.40007900  0.67242800  1
  S  S67  1  0.53851600  0.55244400  0.18177100  1
  S  S68  1  0.33470300  0.92184600  0.07901800  1
  S  S69  1  0.96148400  0.05244400  0.68177100  1
  S  S70  1  0.81042700  0.16603900  0.53886700  1
  S  S71  1  0.13576600  0.28894900  0.43270400  1
  S  S72  1  0.15247300  0.64412500  0.64976700  1
  S  S73  1  0.84752700  0.35587500  0.35023300  1
  S  S74  1  0.94510400  0.30427300  0.54404100  1
  S  S75  1  0.52416500  0.88586300  0.71341500  1
  S  S76  1  0.24560500  0.71682000  0.10641600  1
  S  S77  1  0.18957300  0.83396100  0.46113300  1
  S  S78  1  0.16529700  0.42184600  0.57901800  1
  S  S79  1  0.72863500  0.55901400  0.23829000  1
  S  S80  1  0.77136500  0.05901400  0.73829000  1
  S  S81  1  0.04630100  0.71373900  0.25758300  1
  S  S82  1  0.02486700  0.12587400  0.92571200  1
  S  S83  1  0.29468300  0.18270200  0.35238200  1
  S  S84  1  0.78412700  0.09098700  0.08248900  1
  S  S85  1  0.09216900  0.37503200  0.04654200  1
  S  S86  1  0.47513300  0.62587400  0.42571200  1
  S  S87  1  0.45369900  0.21373900  0.75758300  1
  S  S88  1  0.61590300  0.16011700  0.68718400  1
  S  S89  1  0.04613300  0.83509000  0.59902000  1
  S  S90  1  0.90783100  0.62496800  0.95345800  1
  S  S91  1  0.45386700  0.33509000  0.09902000  1
  S  S92  1  0.34262800  0.42877000  0.23029100  1
  S  S93  1  0.70531700  0.81729800  0.64761800  1
  S  S94  1  0.13208100  0.23573500  0.25751400  1
  S  S95  1  0.78037100  0.13731000  0.34209200  1
loop_
_geom_bond_atom_site_label_1
_geom_bond_atom_site_label_2
_geom_bond_distance
_geom_bond_site_symmetry_2
K0 S86 3.210034 1_555
K0 S77 3.375916 1_555
K0 S45 3.539805 1_555
K0 S60 3.607477 1_555
K0 S2 3.638070 1_555
K0 S72 3.725359 1_555
K0 S66 3.759180 1_555
K1 S71 3.262444 1_555
K1 S77 3.324912 1_545
K1 S89 3.467652 1_545
K1 S25 3.467972 1_455
K1 S1 3.488735 1_545
K1 S94 3.519844 1_555
K1 S83 3.750911 1_555
K2 S81 3.232877 1_555
K2 S3 3.299073 1_455
K2 S41 3.302428 1_555
K2 S71 3.416317 1_555
K2 S74 3.418395 1_455
K2 S73 3.611911 1_455
K2 S40 3.735187 1_455
K2 S32 3.763747 1_555
K3 S51 3.262444 1_555
K3 S17 3.324912 1_555
K3 S91 3.467652 1_556
K3 S58 3.467972 1_555
K3 S12 3.488735 1_555
K3 S61 3.519844 1_555
K3 S39 3.750911 1_555
K4 S85 3.369241 1_656
K4 S0 3.499890 1_555
K4 S35 3.524119 1_555
K4 S23 3.524831 1_556
K5 S49 3.210034 1_555
K5 S70 3.375916 1_555
K5 S22 3.539805 1_555
K5 S28 3.607477 1_555
K5 S88 3.638070 1_555
K5 S73 3.725359 1_555
K5 S30 3.759180 1_555
K6 S28 3.369241 1_555
K6 S31 3.499890 1_555
K6 S50 3.524119 1_545
K6 S18 3.524831 1_555
K7 S42 3.232877 1_545
K7 S14 3.299073 1_555
K7 S62 3.302428 1_555
K7 S37 3.416317 1_555
K7 S7 3.418395 1_554
K7 S54 3.611911 1_555
K7 S68 3.735187 1_545
K7 S59 3.763747 1_545
K8 S52 3.262444 1_555
K8 S70 3.324912 1_565
K8 S25 3.467652 1_565
K8 S89 3.467972 1_655
K8 S69 3.488735 1_565
K8 S36 3.519844 1_555
K8 S93 3.750911 1_555
K9 S13 3.232877 1_555
K9 S29 3.299073 1_655
K9 S35 3.302428 1_555
K9 S52 3.416317 1_555
K9 S32 3.418395 1_655
K9 S72 3.611911 1_655
K9 S78 3.735187 1_655
K9 S74 3.763747 1_555
K10 S60 3.369241 1_555
K10 S10 3.499890 1_555
K10 S62 3.524119 1_565
K10 S11 3.524831 1_555
K11 S37 3.262444 1_555
K11 S8 3.324912 1_555
K11 S58 3.467652 1_554
K11 S91 3.467972 1_555
K11 S67 3.488735 1_555
K11 S64 3.519844 1_555
K11 S44 3.750911 1_555
K12 S4 3.210034 1_556
K12 S8 3.375916 1_556
K12 S34 3.539805 1_556
K12 S90 3.607477 1_555
K12 S19 3.638070 1_556
K12 S24 3.725359 1_555
K12 S47 3.759180 1_565
K13 S82 3.210034 1_554
K13 S17 3.375916 1_554
K13 S43 3.539805 1_554
K13 S85 3.607477 1_555
K13 S20 3.638070 1_554
K13 S54 3.725359 1_555
K13 S33 3.759180 1_545
K14 S87 3.232877 1_565
K14 S75 3.299073 1_555
K14 S50 3.302428 1_555
K14 S51 3.416317 1_555
K14 S59 3.418395 1_556
K14 S24 3.611911 1_555
K14 S55 3.735187 1_565
K14 S7 3.763747 1_565
K15 S90 3.369241 1_454
K15 S76 3.499890 1_555
K15 S41 3.524119 1_555
K15 S56 3.524831 1_554
P0 S40 2.040855 1_555
P0 S48 2.053957 1_555
P0 S10 2.059021 1_555
P0 S52 2.075516 1_555
P1 S68 2.040855 1_555
P1 S5 2.053957 1_554
P1 S76 2.059021 1_555
P1 S51 2.075516 1_554
P2 S49 1.978185 1_555
P2 S15 2.079925 1_555
P2 S87 2.098374 1_555
P2 S88 2.109113 1_555
P3 S32 2.047519 1_555
P3 S89 2.051735 1_555
P3 S72 2.055222 1_555
P3 S77 2.078144 1_555
P4 S74 2.047519 1_555
P4 S25 2.051735 1_555
P4 S73 2.055222 1_555
P4 S70 2.078144 1_555
P5 S85 1.981852 1_555
P5 S94 2.093201 1_555
P5 S3 2.094225 1_455
P5 S23 2.095477 1_455
P6 S90 1.981852 1_555
P6 S36 2.093201 1_555
P6 S29 2.094225 1_655
P6 S56 2.095477 1_655
P7 S55 2.040855 1_555
P7 S84 2.053957 1_556
P7 S0 2.059021 1_555
P7 S37 2.075516 1_556
P8 S59 2.047519 1_556
P8 S58 2.051735 1_555
P8 S24 2.055222 1_555
P8 S8 2.078144 1_556
P9 S86 1.978185 1_555
P9 S65 2.079925 1_555
P9 S42 2.098374 1_555
P9 S2 2.109113 1_555
P10 S60 1.981852 1_555
P10 S61 2.093201 1_555
P10 S75 2.094225 1_555
P10 S11 2.095477 1_555
P11 S78 2.040855 1_555
P11 S27 2.053957 1_555
P11 S31 2.059021 1_555
P11 S71 2.075516 1_555
P12 S82 1.978185 1_555
P12 S26 2.079925 1_555
P12 S13 2.098374 1_455
P12 S20 2.109113 1_555
P13 S4 1.978185 1_555
P13 S38 2.079925 1_555
P13 S81 2.098374 1_655
P13 S19 2.109113 1_555
P14 S28 1.981852 1_555
P14 S64 2.093201 1_555
P14 S14 2.094225 1_555
P14 S18 2.095477 1_555
P15 S7 2.047519 1_554
P15 S91 2.051735 1_555
P15 S54 2.055222 1_555
P15 S17 2.078144 1_554
S0 Ta4 2.586270 1_555
S1 Ta15 2.204530 1_555
S2 Ta12 2.493419 1_555
S3 Ta2 2.501374 1_555
S5 Ta13 2.530489 1_555
S6 S9 2.046665 1_555
S6 Ta11 2.547976 1_555
S6 Ta13 2.567890 1_555
S7 Ta3 2.580789 1_555
S8 Ta7 2.545298 1_555
S9 Ta13 2.524092 1_555
S9 Ta11 2.579156 1_555
S10 Ta8 2.586270 1_555
S11 Ta6 2.485790 1_555
S12 Ta3 2.204530 1_555
S13 Ta14 2.576804 1_555
S14 Ta9 2.501374 1_555
S15 Ta4 2.466051 1_555
S16 S33 2.049878 1_555
S16 Ta12 2.559607 1_555
S16 Ta15 2.581384 1_555
S17 Ta3 2.545298 1_555
S18 Ta9 2.485790 1_555
S19 Ta8 2.493419 1_555
S20 Ta10 2.493419 1_555
S21 S95 2.046665 1_555
S21 Ta2 2.547976 1_555
S21 Ta1 2.567890 1_555
S22 Ta4 2.276274 1_555
S22 Ta14 2.668694 1_555
S23 Ta2 2.485790 1_555
S24 Ta6 2.620613 1_555
S25 Ta2 2.668792 1_555
S26 Ta10 2.466051 1_555
S27 Ta0 2.530489 1_555
S29 Ta11 2.501374 1_555
S30 S79 2.049878 1_555
S30 Ta7 2.528636 1_555
S30 Ta8 2.615188 1_555
S31 Ta10 2.586270 1_555
S32 Ta15 2.580789 1_555
S33 Ta15 2.528636 1_555
S33 Ta12 2.615188 1_555
S34 Ta8 2.276274 1_555
S34 Ta7 2.668694 1_555
S35 Ta5 2.210480 1_555
S36 Ta5 2.586287 1_555
S37 Ta1 2.544836 1_555
S38 Ta8 2.466051 1_555
S39 Ta11 2.283370 1_555
S39 Ta13 2.769904 1_555
S40 Ta8 2.675552 1_555
S41 Ta0 2.210480 1_555
S42 Ta7 2.576804 1_555
S43 Ta10 2.276274 1_555
S43 Ta3 2.668694 1_555
S44 Ta2 2.283370 1_555
S44 Ta1 2.769904 1_555
S45 Ta12 2.276274 1_555
S45 Ta15 2.668694 1_555
S46 S92 2.046665 1_555
S46 Ta0 2.524092 1_555
S46 Ta9 2.579156 1_555
S47 S80 2.049878 1_555
S47 Ta14 2.528636 1_555
S47 Ta4 2.615188 1_555
S48 Ta5 2.530489 1_555
S50 Ta13 2.210480 1_555
S51 Ta13 2.544836 1_555
S52 Ta5 2.544836 1_555
S53 S66 2.049878 1_555
S53 Ta10 2.559607 1_555
S53 Ta3 2.581384 1_555
S54 Ta9 2.620613 1_555
S55 Ta4 2.675552 1_555
S56 Ta11 2.485790 1_555
S57 S63 2.046665 1_555
S57 Ta6 2.547976 1_555
S57 Ta5 2.567890 1_555
S58 Ta6 2.668792 1_555
S59 Ta7 2.580789 1_555
S61 Ta13 2.586287 1_555
S62 Ta1 2.210480 1_555
S63 Ta5 2.524092 1_555
S63 Ta6 2.579156 1_555
S64 Ta1 2.586287 1_555
S65 Ta12 2.466051 1_555
S66 Ta3 2.528636 1_555
S66 Ta10 2.615188 1_555
S67 Ta7 2.204530 1_555
S68 Ta12 2.675552 1_555
S69 Ta14 2.204530 1_555
S70 Ta14 2.545298 1_555
S71 Ta0 2.544836 1_555
S72 Ta11 2.620613 1_555
S73 Ta2 2.620613 1_555
S74 Ta14 2.580789 1_555
S75 Ta6 2.501374 1_555
S76 Ta12 2.586270 1_555
S77 Ta15 2.545298 1_555
S78 Ta10 2.675552 1_555
S79 Ta8 2.559607 1_555
S79 Ta7 2.581384 1_555
S80 Ta4 2.559607 1_555
S80 Ta14 2.581384 1_555
S81 Ta15 2.576804 1_555
S83 Ta9 2.283370 1_555
S83 Ta0 2.769904 1_555
S84 Ta1 2.530489 1_555
S87 Ta3 2.576804 1_555
S88 Ta4 2.493419 1_555
S89 Ta11 2.668792 1_555
S91 Ta9 2.668792 1_555
S92 Ta9 2.547976 1_555
S92 Ta0 2.567890 1_555
S93 Ta6 2.283370 1_555
S93 Ta5 2.769904 1_555
S94 Ta0 2.586287 1_555
S95 Ta1 2.524092 1_555
S95 Ta2 2.579156 1_555
