# generated using pymatgen
data_Yb2In8Ir
_symmetry_space_group_name_H-M   'P 1'
_cell_length_a   4.68026900
_cell_length_b   4.68026900
_cell_length_c   12.20059700
_cell_angle_alpha   90.00000000
_cell_angle_beta   90.00000000
_cell_angle_gamma   90.00000000
_symmetry_Int_Tables_number   1
_chemical_formula_structural   Yb2In8Ir
_chemical_formula_sum   'Yb2 In8 Ir1'
_cell_volume   267.25307577
_cell_formula_units_Z   1
loop_
 _symmetry_equiv_pos_site_id
 _symmetry_equiv_pos_as_xyz
  1  'x, y, z'
loop_
 _atom_site_type_symbol
 _atom_site_label
 _atom_site_symmetry_multiplicity
 _atom_site_fract_x
 _atom_site_fract_y
 _atom_site_fract_z
 _atom_site_occupancy
  Yb  Yb0  1  0.50000000  0.50000000  0.19331100  1
  Yb  Yb1  1  0.50000000  0.50000000  0.80668900  1
  In  In0  1  0.00000000  0.50000000  0.62388400  1
  In  In1  1  0.00000000  0.00000000  0.19394900  1
  In  In2  1  0.00000000  0.50000000  0.37611600  1
  In  In3  1  0.50000000  0.00000000  0.62388400  1
  In  In4  1  0.00000000  0.00000000  0.80605100  1
  In  In5  1  0.50000000  0.00000000  0.37611600  1
  In  In6  1  0.00000000  0.50000000  0.00000000  1
  In  In7  1  0.50000000  0.00000000  0.00000000  1
  Ir  Ir0  1  0.50000000  0.50000000  0.50000000  1
loop_
_geom_bond_atom_site_label_1
_geom_bond_atom_site_label_2
_geom_bond_distance
_geom_bond_site_symmetry_2
In0 Ir0 2.785810 1_455
In0 Ir0 2.785810 1_555
In0 In4 3.227374 1_555
In0 In4 3.227374 1_565
In0 Yb1 3.232739 1_555
In0 Yb1 3.232739 1_455
In1 In5 3.227374 1_455
In1 In5 3.227374 1_555
In1 In2 3.227374 1_545
In1 In2 3.227374 1_555
In1 Yb0 3.309459 1_555
In1 Yb0 3.309459 1_445
In1 Yb0 3.309459 1_455
In1 Yb0 3.309459 1_545
In1 In7 3.327999 1_555
In1 In6 3.327999 1_555
In1 In6 3.327999 1_545
In1 In7 3.327999 1_455
In2 Ir0 2.785810 1_455
In2 Ir0 2.785810 1_555
In2 Yb0 3.232739 1_455
In2 Yb0 3.232739 1_555
In3 Ir0 2.785810 1_545
In3 Ir0 2.785810 1_555
In3 In4 3.227374 1_555
In3 In4 3.227374 1_655
In3 Yb1 3.232739 1_545
In3 Yb1 3.232739 1_555
In4 Yb1 3.309459 1_455
In4 Yb1 3.309459 1_445
In4 Yb1 3.309459 1_545
In4 Yb1 3.309459 1_555
In4 In7 3.327999 1_456
In4 In7 3.327999 1_556
In4 In6 3.327999 1_556
In4 In6 3.327999 1_546
In5 Ir0 2.785810 1_545
In5 Ir0 2.785810 1_555
In5 Yb0 3.232739 1_545
In5 Yb0 3.232739 1_555
In6 In7 3.309450 1_465
In6 In7 3.309450 1_555
In6 In7 3.309450 1_455
In6 In7 3.309450 1_565
In6 Yb0 3.322469 1_455
In6 Yb0 3.322469 1_555
In6 Yb1 3.322469 1_454
In6 Yb1 3.322469 1_554
In7 Yb1 3.322469 1_544
In7 Yb0 3.322469 1_545
In7 Yb0 3.322469 1_555
In7 Yb1 3.322469 1_554
