# generated using pymatgen
data_BaCaBO3F
_symmetry_space_group_name_H-M   'P 1'
_cell_length_a   4.48923600
_cell_length_b   8.90191667
_cell_length_c   9.11970457
_cell_angle_alpha   118.87424887
_cell_angle_beta   89.85992222
_cell_angle_gamma   90.74309651
_symmetry_Int_Tables_number   1
_chemical_formula_structural   BaCaBO3F
_chemical_formula_sum   'Ba3 Ca3 B3 O9 F3'
_cell_volume   319.11140319
_cell_formula_units_Z   3
loop_
 _symmetry_equiv_pos_site_id
 _symmetry_equiv_pos_as_xyz
  1  'x, y, z'
loop_
 _atom_site_type_symbol
 _atom_site_label
 _atom_site_symmetry_multiplicity
 _atom_site_fract_x
 _atom_site_fract_y
 _atom_site_fract_z
 _atom_site_occupancy
  Ba  Ba0  1  0.45752600  0.71108200  0.00593700  1
  Ba  Ba1  1  0.52259000  0.98574300  0.70223500  1
  Ba  Ba2  1  0.51471000  0.29197300  0.29816400  1
  Ca  Ca0  1  0.02061200  0.61096200  0.61448500  1
  Ca  Ca1  1  0.02206400  0.00113100  0.39056100  1
  Ca  Ca2  1  0.97235800  0.37661100  0.00218000  1
  B  B0  1  0.00333200  0.33041900  0.67446300  1
  B  B1  1  0.02195000  0.00106600  0.00223400  1
  B  B2  1  0.00022400  0.65986600  0.32986000  1
  O  O0  1  0.01658600  0.18765300  0.69912500  1
  O  O1  1  0.99433000  0.49560300  0.81176600  1
  O  O2  1  0.11759700  0.86500500  0.85232100  1
  O  O3  1  0.99985400  0.30822000  0.51220800  1
  O  O4  1  0.00325800  0.79851100  0.49164800  1
  O  O5  1  0.01037200  0.49326200  0.30638900  1
  O  O6  1  0.82434200  0.12011200  0.00279900  1
  O  O7  1  0.98837200  0.68840800  0.19194000  1
  O  O8  1  0.12885200  0.01561400  0.15135400  1
  F  F0  1  0.52256900  0.61511700  0.61404800  1
  F  F1  1  0.52343800  0.99701500  0.38985400  1
  F  F2  1  0.47006300  0.38962500  0.01343000  1
loop_
_geom_bond_atom_site_label_1
_geom_bond_atom_site_label_2
_geom_bond_distance
_geom_bond_site_symmetry_2
Ba0 O7 2.766976 1_455
Ba0 O1 2.788023 1_454
Ba0 O8 2.811934 1_565
Ba0 O2 2.843835 1_554
Ba0 F2 2.896471 1_555
Ba0 O7 2.993357 1_555
Ba0 O1 3.072621 1_554
Ba0 F1 3.194298 1_555
Ba0 F0 3.262000 1_554
Ba1 O6 2.754781 1_566
Ba1 O2 2.773461 1_555
Ba1 O0 2.845167 1_665
Ba1 O4 2.846776 1_655
Ba1 F1 2.898600 1_555
Ba1 O0 2.923506 1_565
Ba1 O4 2.954897 1_555
Ba1 F0 2.994903 1_555
Ba2 O8 2.750467 1_555
Ba2 O6 2.754143 1_555
Ba2 O5 2.816955 1_655
Ba2 O3 2.883507 1_555
Ba2 O5 2.883936 1_555
Ba2 F0 2.927378 1_555
Ba2 O3 2.981174 1_455
Ba2 F1 3.117412 1_545
Ba2 F2 3.118610 1_555
Ca0 F0 2.236663 1_455
Ca0 F0 2.253253 1_555
Ca0 O2 2.291325 1_555
Ca0 O3 2.389110 1_455
Ca0 O4 2.420427 1_555
Ca0 O1 2.466893 1_455
Ca0 O5 2.480075 1_555
Ca1 F1 2.238249 1_445
Ca1 F1 2.251502 1_545
Ca1 O8 2.295710 1_555
Ca1 O4 2.389963 1_545
Ca1 O3 2.406511 1_455
Ca1 O0 2.482828 1_555
Ca1 O7 2.484773 1_445
Ca2 F2 2.235853 1_655
Ca2 F2 2.258934 1_555
Ca2 O6 2.372393 1_555
Ca2 O1 2.433142 1_554
Ca2 O5 2.453484 1_655
Ca2 O0 2.454271 1_654
Ca2 O7 2.461787 1_555
B0 O3 1.395166 1_455
B0 O0 1.395482 1_555
B0 O1 1.398155 1_455
B1 O8 1.388518 1_555
B1 O6 1.388928 1_455
B1 O2 1.389925 1_544
B2 O4 1.393338 1_555
B2 O5 1.393764 1_555
B2 O7 1.399550 1_455
