# generated using pymatgen
data_Rb2ZnH4
_symmetry_space_group_name_H-M   'P 1'
_cell_length_a   6.00913377
_cell_length_b   8.13409839
_cell_length_c   10.57420280
_cell_angle_alpha   90.00000000
_cell_angle_beta   90.00000000
_cell_angle_gamma   90.00000000
_symmetry_Int_Tables_number   1
_chemical_formula_structural   Rb2ZnH4
_chemical_formula_sum   'Rb8 Zn4 H16'
_cell_volume   516.85524605
_cell_formula_units_Z   4
loop_
 _symmetry_equiv_pos_site_id
 _symmetry_equiv_pos_as_xyz
  1  'x, y, z'
loop_
 _atom_site_type_symbol
 _atom_site_label
 _atom_site_symmetry_multiplicity
 _atom_site_fract_x
 _atom_site_fract_y
 _atom_site_fract_z
 _atom_site_occupancy
  Rb  Rb0  1  0.25000000  0.65967305  0.09415086  1
  Rb  Rb1  1  0.25000000  0.15967305  0.40584914  1
  Rb  Rb2  1  0.75000000  0.34032695  0.90584914  1
  Rb  Rb3  1  0.75000000  0.84032695  0.59415086  1
  Rb  Rb4  1  0.25000000  0.98444464  0.81412924  1
  Rb  Rb5  1  0.25000000  0.48444464  0.68587076  1
  Rb  Rb6  1  0.75000000  0.01555536  0.18587076  1
  Rb  Rb7  1  0.75000000  0.51555536  0.31412924  1
  Zn  Zn0  1  0.25000000  0.74038882  0.41726185  1
  Zn  Zn1  1  0.25000000  0.24038882  0.08273815  1
  Zn  Zn2  1  0.75000000  0.25961118  0.58273815  1
  Zn  Zn3  1  0.75000000  0.75961118  0.91726185  1
  H  H0  1  0.02646076  0.81398847  0.34722232  1
  H  H1  1  0.47353924  0.31398847  0.15277768  1
  H  H2  1  0.52646076  0.18601153  0.65277768  1
  H  H3  1  0.97353924  0.68601153  0.84722232  1
  H  H4  1  0.97353924  0.18601153  0.65277768  1
  H  H5  1  0.52646076  0.68601153  0.84722232  1
  H  H6  1  0.47353924  0.81398847  0.34722232  1
  H  H7  1  0.02646076  0.31398847  0.15277768  1
  H  H8  1  0.25000000  0.53871459  0.40819530  1
  H  H9  1  0.25000000  0.03871459  0.09180470  1
  H  H10  1  0.75000000  0.46128541  0.59180470  1
  H  H11  1  0.75000000  0.96128541  0.90819530  1
  H  H12  1  0.25000000  0.30589888  0.93479802  1
  H  H13  1  0.25000000  0.80589888  0.56520198  1
  H  H14  1  0.75000000  0.69410112  0.06520198  1
  H  H15  1  0.75000000  0.19410112  0.43479802  1
loop_
_geom_bond_atom_site_label_1
_geom_bond_atom_site_label_2
_geom_bond_distance
_geom_bond_site_symmetry_2
H0 Zn0 1.646603 1_555
H0 Rb6 2.891203 1_465
H0 Rb7 2.962265 1_455
H0 Rb3 3.102174 1_455
H0 Rb1 3.177280 1_565
H0 Rb0 3.246705 1_555
H1 Zn1 1.646603 1_555
H1 Rb7 2.891203 1_555
H1 Rb6 2.962265 1_555
H1 Rb2 3.102174 1_554
H1 Rb0 3.177280 1_555
H1 Rb1 3.246705 1_555
H2 Zn2 1.646603 1_555
H2 Rb4 2.891203 1_545
H2 Rb5 2.962265 1_555
H2 Rb1 3.102174 1_555
H2 Rb3 3.177280 1_545
H2 Rb2 3.246705 1_555
H3 Zn3 1.646603 1_555
H3 Rb5 2.891203 1_655
H3 Rb4 2.962265 1_655
H3 Rb0 3.102174 1_656
H3 Rb2 3.177280 1_555
H3 Rb3 3.246705 1_555
H4 Zn2 1.646603 1_555
H4 Rb4 2.891203 1_645
H4 Rb5 2.962265 1_655
H4 Rb1 3.102174 1_655
H4 Rb3 3.177280 1_545
H4 Rb2 3.246705 1_555
H5 Zn3 1.646603 1_555
H5 Rb5 2.891203 1_555
H5 Rb4 2.962265 1_555
H5 Rb0 3.102174 1_556
H5 Rb2 3.177280 1_555
H5 Rb3 3.246705 1_555
H6 Zn0 1.646603 1_555
H6 Rb6 2.891203 1_565
H6 Rb7 2.962265 1_555
H6 Rb3 3.102174 1_555
H6 Rb1 3.177280 1_565
H6 Rb0 3.246705 1_555
H7 Zn1 1.646603 1_555
H7 Rb7 2.891203 1_455
H7 Rb6 2.962265 1_455
H7 Rb2 3.102174 1_454
H7 Rb0 3.177280 1_555
H7 Rb1 3.246705 1_555
H8 Zn0 1.643237 1_555
H8 Rb5 2.969195 1_555
H8 Rb1 3.083261 1_555
H8 Rb7 3.170534 1_455
H8 Rb7 3.170534 1_555
H9 Zn1 1.643237 1_555
H9 Rb4 2.969195 1_544
H9 Rb0 3.083261 1_545
H9 Rb6 3.170534 1_555
H9 Rb6 3.170534 1_455
H10 Zn2 1.643237 1_555
H10 Rb7 2.969195 1_555
H10 Rb3 3.083261 1_555
H10 Rb5 3.170534 1_555
H10 Rb5 3.170534 1_655
H11 Zn3 1.643237 1_555
H11 Rb6 2.969195 1_566
H11 Rb2 3.083261 1_565
H11 Rb4 3.170534 1_555
H11 Rb4 3.170534 1_655
H12 Zn1 1.652614 1_556
H12 Rb4 2.909464 1_545
H12 Rb5 3.006279 1_555
H12 Rb2 3.033076 1_555
H12 Rb2 3.033076 1_455
H13 Zn0 1.652614 1_555
H13 Rb5 2.909464 1_555
H13 Rb4 3.006279 1_555
H13 Rb3 3.033076 1_555
H13 Rb3 3.033076 1_455
H14 Zn3 1.652614 1_554
H14 Rb6 2.909464 1_565
H14 Rb7 3.006279 1_555
H14 Rb0 3.033076 1_555
H14 Rb0 3.033076 1_655
H15 Zn2 1.652614 1_555
H15 Rb7 2.909464 1_555
H15 Rb6 3.006279 1_555
H15 Rb1 3.033076 1_655
H15 Rb1 3.033076 1_555
