# generated using pymatgen
data_NaCo2H3(SO5)2
_symmetry_space_group_name_H-M   'P 1'
_cell_length_a   6.32390106
_cell_length_b   6.32390106
_cell_length_c   7.49151279
_cell_angle_alpha   67.02706505
_cell_angle_beta   67.02706505
_cell_angle_gamma   57.85970223
_symmetry_Int_Tables_number   1
_chemical_formula_structural   NaCo2H3(SO5)2
_chemical_formula_sum   'Na1 Co2 H3 S2 O10'
_cell_volume   227.06294365
_cell_formula_units_Z   1
loop_
 _symmetry_equiv_pos_site_id
 _symmetry_equiv_pos_as_xyz
  1  'x, y, z'
loop_
 _atom_site_type_symbol
 _atom_site_label
 _atom_site_symmetry_multiplicity
 _atom_site_fract_x
 _atom_site_fract_y
 _atom_site_fract_z
 _atom_site_occupancy
  Na  Na0  1  0.49716400  0.49716400  0.51666500  1
  Co  Co0  1  0.00772400  0.49231900  0.01097300  1
  Co  Co1  1  0.49231900  0.00772400  0.01097300  1
  H  H0  1  0.09786100  0.09786100  0.32178100  1
  H  H1  1  0.53192500  0.53192500  0.95244600  1
  H  H2  1  0.88596800  0.88596800  0.70565400  1
  S  S0  1  0.95735600  0.95735600  0.25905300  1
  S  S1  1  0.03752100  0.03752100  0.74270000  1
  O  O0  1  0.63453000  0.63453000  0.87919500  1
  O  O1  1  0.31915100  0.31915100  0.30503700  1
  O  O2  1  0.75993300  0.75993300  0.12115600  1
  O  O3  1  0.75088900  0.11555400  0.73122300  1
  O  O4  1  0.87175000  0.23646800  0.28637500  1
  O  O5  1  0.11555400  0.75088900  0.73122300  1
  O  O6  1  0.23646800  0.87175000  0.28637500  1
  O  O7  1  0.22720900  0.22720900  0.88997100  1
  O  O8  1  0.66847300  0.66847300  0.67280100  1
  O  O9  1  0.35420500  0.35420500  0.10639900  1
loop_
_geom_bond_atom_site_label_1
_geom_bond_atom_site_label_2
_geom_bond_distance
_geom_bond_site_symmetry_2
Na0 O5 2.418127 1_555
Na0 O3 2.418127 1_555
Na0 O6 2.486083 1_555
Na0 O4 2.486083 1_555
Na0 O8 2.634857 1_555
Na0 O1 3.030316 1_555
Co0 O2 1.805571 1_455
Co0 O7 1.813078 1_554
Co0 O9 2.184947 1_555
Co0 O5 2.219632 1_554
Co0 O4 2.259127 1_455
Co0 O0 2.494106 1_454
Co1 O2 1.805571 1_545
Co1 O7 1.813078 1_554
Co1 O9 2.184947 1_555
Co1 O3 2.219632 1_554
Co1 O6 2.259127 1_545
Co1 O0 2.494106 1_544
H0 O6 1.290080 1_545
H0 O4 1.290080 1_455
H1 O0 1.017477 1_555
H1 O9 1.782336 1_556
H2 O5 1.282231 1_655
H2 O3 1.282231 1_565
O0 O8 1.419073 1_555
O1 O9 1.360149 1_555
O3 S1 1.635041 1_655
O4 S0 1.621509 1_545
O5 S1 1.635041 1_565
O6 S0 1.621509 1_455
