# generated using pymatgen
data_Ba(HO)2
_symmetry_space_group_name_H-M   'P 1'
_cell_length_a   11.12017000
_cell_length_b   7.22072100
_cell_length_c   18.12338207
_cell_angle_alpha   67.52841279
_cell_angle_beta   90.00000000
_cell_angle_gamma   90.00000000
_symmetry_Int_Tables_number   1
_chemical_formula_structural   Ba(HO)2
_chemical_formula_sum   'Ba20 H40 O40'
_cell_volume   1344.73196410
_cell_formula_units_Z   20
loop_
 _symmetry_equiv_pos_site_id
 _symmetry_equiv_pos_as_xyz
  1  'x, y, z'
loop_
 _atom_site_type_symbol
 _atom_site_label
 _atom_site_symmetry_multiplicity
 _atom_site_fract_x
 _atom_site_fract_y
 _atom_site_fract_z
 _atom_site_occupancy
  Ba  Ba0  1  0.82246900  0.18695600  0.74702000  1
  Ba  Ba1  1  0.67753100  0.18695600  0.24702000  1
  Ba  Ba2  1  0.17753100  0.81304400  0.25298000  1
  Ba  Ba3  1  0.32246900  0.81304400  0.75298000  1
  Ba  Ba4  1  0.97635900  0.53525300  0.87608800  1
  Ba  Ba5  1  0.52364100  0.53525300  0.37608800  1
  Ba  Ba6  1  0.02364100  0.46474700  0.12391200  1
  Ba  Ba7  1  0.47635900  0.46474700  0.62391200  1
  Ba  Ba8  1  0.52046200  0.79436700  0.12493800  1
  Ba  Ba9  1  0.97953800  0.79436700  0.62493800  1
  Ba  Ba10  1  0.47953800  0.20563300  0.87506200  1
  Ba  Ba11  1  0.02046200  0.20563300  0.37506200  1
  Ba  Ba12  1  0.83007200  0.94152600  0.98852500  1
  Ba  Ba13  1  0.66992800  0.94152600  0.48852500  1
  Ba  Ba14  1  0.16992800  0.05847400  0.01147500  1
  Ba  Ba15  1  0.33007200  0.05847400  0.51147500  1
  Ba  Ba16  1  0.66926100  0.42329800  0.00842900  1
  Ba  Ba17  1  0.83073900  0.42329800  0.50842900  1
  Ba  Ba18  1  0.33073900  0.57670200  0.99157100  1
  Ba  Ba19  1  0.16926100  0.57670200  0.49157100  1
  H  H0  1  0.56102300  0.03041900  0.72729800  1
  H  H1  1  0.93897700  0.03041900  0.22729800  1
  H  H2  1  0.43897700  0.96958100  0.27270200  1
  H  H3  1  0.06102300  0.96958100  0.77270200  1
  H  H4  1  0.78772300  0.68312600  0.75396900  1
  H  H5  1  0.71227700  0.68312600  0.25396900  1
  H  H6  1  0.21227700  0.31687400  0.24603100  1
  H  H7  1  0.28772300  0.31687400  0.74603100  1
  H  H8  1  0.07953100  0.21087400  0.83098500  1
  H  H9  1  0.42046900  0.21087400  0.33098500  1
  H  H10  1  0.92046900  0.78912600  0.16901500  1
  H  H11  1  0.57953100  0.78912600  0.66901500  1
  H  H12  1  0.43102600  0.34764000  0.16580400  1
  H  H13  1  0.06897400  0.34764000  0.66580400  1
  H  H14  1  0.56897400  0.65236000  0.83419600  1
  H  H15  1  0.93102600  0.65236000  0.33419600  1
  H  H16  1  0.70685500  0.82120100  0.85955200  1
  H  H17  1  0.79314500  0.82120100  0.35955200  1
  H  H18  1  0.29314500  0.17879900  0.14044800  1
  H  H19  1  0.20685500  0.17879900  0.64044800  1
  H  H20  1  0.79055700  0.01564400  0.13787800  1
  H  H21  1  0.70944300  0.01564400  0.63787800  1
  H  H22  1  0.20944300  0.98435600  0.86212200  1
  H  H23  1  0.29055700  0.98435600  0.36212200  1
  H  H24  1  0.74040200  0.39091900  0.84497000  1
  H  H25  1  0.75959800  0.39091900  0.34497000  1
  H  H26  1  0.25959800  0.60908100  0.15503000  1
  H  H27  1  0.24040200  0.60908100  0.65503000  1
  H  H28  1  0.75726700  0.58521200  0.15264000  1
  H  H29  1  0.74273300  0.58521200  0.65264000  1
  H  H30  1  0.24273300  0.41478800  0.84736000  1
  H  H31  1  0.25726700  0.41478800  0.34736000  1
  H  H32  1  0.54740400  0.79113000  0.92610200  1
  H  H33  1  0.95259600  0.79113000  0.42610200  1
  H  H34  1  0.45259600  0.20887000  0.07389800  1
  H  H35  1  0.04740400  0.20887000  0.57389800  1
  H  H36  1  0.94729100  0.15046900  0.07258900  1
  H  H37  1  0.55270900  0.15046900  0.57258900  1
  H  H38  1  0.05270900  0.84953100  0.92741100  1
  H  H39  1  0.44729100  0.84953100  0.42741100  1
  O  O0  1  0.57597300  0.13122700  0.74944200  1
  O  O1  1  0.92402700  0.13122700  0.24944200  1
  O  O2  1  0.42402700  0.86877300  0.25055800  1
  O  O3  1  0.07597300  0.86877300  0.75055800  1
  O  O4  1  0.82214400  0.56339700  0.74988800  1
  O  O5  1  0.67785600  0.56339700  0.24988800  1
  O  O6  1  0.17785600  0.43660300  0.25011200  1
  O  O7  1  0.32214400  0.43660300  0.75011200  1
  O  O8  1  0.00859900  0.14501900  0.86123200  1
  O  O9  1  0.49140100  0.14501900  0.36123200  1
  O  O10  1  0.99140100  0.85498100  0.13876800  1
  O  O11  1  0.50859900  0.85498100  0.63876800  1
  O  O12  1  0.50178600  0.39644500  0.13233200  1
  O  O13  1  0.99821400  0.39644500  0.63233200  1
  O  O14  1  0.49821400  0.60355500  0.86766800  1
  O  O15  1  0.00178600  0.60355500  0.36766800  1
  O  O16  1  0.79075500  0.78548500  0.87323900  1
  O  O17  1  0.70924500  0.78548500  0.37323900  1
  O  O18  1  0.20924500  0.21451500  0.12676100  1
  O  O19  1  0.29075500  0.21451500  0.62676100  1
  O  O20  1  0.70775800  0.04455900  0.11930000  1
  O  O21  1  0.79224200  0.04455900  0.61930000  1
  O  O22  1  0.29224200  0.95544100  0.88070000  1
  O  O23  1  0.20775800  0.95544100  0.38070000  1
  O  O24  1  0.72167100  0.26870000  0.89212300  1
  O  O25  1  0.77832900  0.26870000  0.39212300  1
  O  O26  1  0.27832900  0.73130000  0.10787700  1
  O  O27  1  0.22167100  0.73130000  0.60787700  1
  O  O28  1  0.78394300  0.56059700  0.10523600  1
  O  O29  1  0.71605700  0.56059700  0.60523600  1
  O  O30  1  0.21605700  0.43940300  0.89476400  1
  O  O31  1  0.28394300  0.43940300  0.39476400  1
  O  O32  1  0.55857600  0.81476700  0.97561000  1
  O  O33  1  0.94142400  0.81476700  0.47561000  1
  O  O34  1  0.44142400  0.18523300  0.02439000  1
  O  O35  1  0.05857600  0.18523300  0.52439000  1
  O  O36  1  0.94722300  0.27051800  0.02289000  1
  O  O37  1  0.55277700  0.27051800  0.52289000  1
  O  O38  1  0.05277700  0.72948200  0.97711000  1
  O  O39  1  0.44722300  0.72948200  0.47711000  1
loop_
_geom_bond_atom_site_label_1
_geom_bond_atom_site_label_2
_geom_bond_distance
_geom_bond_site_symmetry_2
Ba0 O4 2.738466 1_555
Ba0 O0 2.768367 1_555
Ba0 O13 2.832714 1_555
Ba0 H24 2.855125 1_555
Ba0 O8 2.860265 1_655
Ba0 H29 2.867294 1_555
Ba0 O21 2.889208 1_555
Ba0 H16 2.944440 1_545
Ba0 O16 2.948131 1_545
Ba0 H21 2.982098 1_555
Ba0 H3 3.026377 1_645
Ba0 O24 3.115607 1_555
Ba0 O29 3.159493 1_555
Ba1 O5 2.738466 1_555
Ba1 O1 2.768367 1_555
Ba1 O12 2.832714 1_555
Ba1 H25 2.855125 1_555
Ba1 O9 2.860265 1_555
Ba1 H28 2.867294 1_555
Ba1 O20 2.889208 1_555
Ba1 H17 2.944440 1_545
Ba1 O17 2.948131 1_545
Ba1 H20 2.982098 1_555
Ba1 H2 3.026377 1_545
Ba1 O25 3.115607 1_555
Ba1 O28 3.159493 1_555
Ba2 O6 2.738466 1_555
Ba2 O2 2.768367 1_555
Ba2 O15 2.832714 1_555
Ba2 H26 2.855125 1_555
Ba2 O10 2.860265 1_455
Ba2 H31 2.867294 1_555
Ba2 O23 2.889208 1_555
Ba2 H18 2.944440 1_565
Ba2 O18 2.948131 1_565
Ba2 H23 2.982098 1_555
Ba2 H1 3.026377 1_465
Ba2 O26 3.115607 1_555
Ba2 O31 3.159493 1_555
Ba3 O7 2.738466 1_555
Ba3 O3 2.768367 1_555
Ba3 O14 2.832714 1_555
Ba3 H27 2.855125 1_555
Ba3 O11 2.860265 1_555
Ba3 H30 2.867294 1_555
Ba3 O22 2.889208 1_555
Ba3 H19 2.944440 1_565
Ba3 O19 2.948131 1_565
Ba3 H22 2.982098 1_555
Ba3 H0 3.026377 1_565
Ba3 O27 3.115607 1_555
Ba3 O30 3.159493 1_555
Ba4 O36 2.636237 1_556
Ba4 O16 2.730560 1_555
Ba4 O30 2.742133 1_655
Ba4 O4 2.803213 1_555
Ba4 O38 2.829137 1_655
Ba4 O3 2.830935 1_655
Ba4 H38 2.889532 1_655
Ba4 H4 2.938038 1_555
Ba4 O8 2.953102 1_655
Ba4 H24 2.956061 1_555
Ba4 H8 2.989013 1_655
Ba5 O37 2.636237 1_555
Ba5 O17 2.730560 1_555
Ba5 O31 2.742133 1_555
Ba5 O5 2.803213 1_555
Ba5 O39 2.829137 1_555
Ba5 O2 2.830935 1_555
Ba5 H39 2.889532 1_555
Ba5 H5 2.938038 1_555
Ba5 O9 2.953102 1_555
Ba5 H25 2.956061 1_555
Ba5 H9 2.989013 1_555
Ba6 O38 2.636237 1_554
Ba6 O18 2.730560 1_555
Ba6 O28 2.742133 1_455
Ba6 O6 2.803213 1_555
Ba6 O36 2.829137 1_455
Ba6 O1 2.830935 1_455
Ba6 H36 2.889532 1_455
Ba6 H6 2.938038 1_555
Ba6 O10 2.953102 1_455
Ba6 H26 2.956061 1_555
Ba6 H10 2.989013 1_455
Ba7 O39 2.636237 1_555
Ba7 O19 2.730560 1_555
Ba7 O29 2.742133 1_555
Ba7 O7 2.803213 1_555
Ba7 O37 2.829137 1_555
Ba7 O0 2.830935 1_555
Ba7 H37 2.889532 1_555
Ba7 H7 2.938038 1_555
Ba7 O11 2.953102 1_555
Ba7 H27 2.956061 1_555
Ba7 H11 2.989013 1_555
Ba8 O32 2.687154 1_554
Ba8 O20 2.733297 1_565
Ba8 O2 2.748976 1_555
Ba8 O26 2.767762 1_555
Ba8 O12 2.832403 1_555
Ba8 O5 2.843548 1_555
Ba8 O34 2.850811 1_565
Ba8 H34 2.875216 1_565
Ba8 H28 2.981211 1_555
Ba9 O33 2.687154 1_555
Ba9 O21 2.733297 1_565
Ba9 O3 2.748976 1_655
Ba9 O27 2.767762 1_655
Ba9 O13 2.832403 1_555
Ba9 O4 2.843548 1_555
Ba9 O35 2.850811 1_665
Ba9 H35 2.875216 1_665
Ba9 H29 2.981211 1_555
Ba10 O34 2.687154 1_556
Ba10 O22 2.733297 1_545
Ba10 O0 2.748976 1_555
Ba10 O24 2.767762 1_555
Ba10 O14 2.832403 1_555
Ba10 O7 2.843548 1_555
Ba10 O32 2.850811 1_545
Ba10 H32 2.875216 1_545
Ba10 H30 2.981211 1_555
Ba11 O35 2.687154 1_555
Ba11 O23 2.733297 1_545
Ba11 O1 2.748976 1_455
Ba11 O25 2.767762 1_455
Ba11 O15 2.832403 1_555
Ba11 O6 2.843548 1_555
Ba11 O33 2.850811 1_445
Ba11 H33 2.875216 1_445
Ba11 H31 2.981211 1_555
Ba12 O24 2.632751 1_565
Ba12 O16 2.761482 1_555
Ba12 O28 2.802731 1_556
Ba13 O25 2.632751 1_565
Ba13 O17 2.761482 1_555
Ba13 O29 2.802731 1_555
Ba14 O26 2.632751 1_545
Ba14 O18 2.761482 1_555
Ba14 O30 2.802731 1_554
Ba15 O27 2.632751 1_545
Ba15 O19 2.761482 1_555
Ba15 O31 2.802731 1_555
Ba16 O28 2.648972 1_555
Ba16 O20 2.738428 1_555
Ba16 O24 2.797793 1_554
Ba16 H32 2.843832 1_554
Ba16 H34 2.864564 1_555
Ba16 O12 2.866279 1_555
Ba16 O32 2.928078 1_554
Ba16 O34 3.012901 1_555
Ba16 O14 3.046577 1_554
Ba16 O16 3.125621 1_554
Ba16 O36 3.258660 1_555
Ba17 O29 2.648972 1_555
Ba17 O21 2.738428 1_555
Ba17 O25 2.797793 1_555
Ba17 H33 2.843832 1_555
Ba17 H35 2.864564 1_655
Ba17 O13 2.866279 1_555
Ba17 O33 2.928078 1_555
Ba17 O35 3.012901 1_655
Ba17 O15 3.046577 1_655
Ba17 O17 3.125621 1_555
Ba17 O37 3.258660 1_555
Ba18 O30 2.648972 1_555
Ba18 O22 2.738428 1_555
Ba18 O26 2.797793 1_556
Ba18 H34 2.843832 1_556
Ba18 H32 2.864564 1_555
Ba18 O14 2.866279 1_555
Ba18 O34 2.928078 1_556
Ba18 O32 3.012901 1_555
Ba18 O12 3.046577 1_556
Ba18 O18 3.125621 1_556
Ba18 O38 3.258660 1_555
Ba19 O31 2.648972 1_555
Ba19 O23 2.738428 1_555
Ba19 O27 2.797793 1_555
Ba19 H35 2.843832 1_555
Ba19 H33 2.864564 1_455
Ba19 O15 2.866279 1_555
Ba19 O35 2.928078 1_555
Ba19 O33 3.012901 1_455
Ba19 O13 3.046577 1_455
Ba19 O19 3.125621 1_555
Ba19 O39 3.258660 1_555
H0 O0 0.970496 1_555
H1 O1 0.970496 1_555
H2 O2 0.970496 1_555
H3 O3 0.970496 1_555
H4 O4 0.973793 1_555
H5 O5 0.973793 1_555
H6 O6 0.973793 1_555
H7 O7 0.973793 1_555
H8 O8 0.974432 1_555
H9 O9 0.974432 1_555
H10 O10 0.974432 1_555
H11 O11 0.974432 1_555
H12 O12 0.973610 1_555
H13 O13 0.973610 1_455
H14 O14 0.973610 1_555
H15 O15 0.973610 1_655
H16 O16 0.974471 1_555
H17 O17 0.974471 1_555
H18 O18 0.974471 1_555
H19 O19 0.974471 1_555
H20 O20 0.975181 1_555
H21 O21 0.975181 1_555
H22 O22 0.975181 1_555
H23 O23 0.975181 1_555
H24 O24 0.987916 1_555
H25 O25 0.987916 1_555
H26 O26 0.987916 1_555
H27 O27 0.987916 1_555
H28 O28 0.987120 1_555
H29 O29 0.987120 1_555
H30 O30 0.987120 1_555
H31 O31 0.987120 1_555
H32 O32 0.983206 1_555
H33 O33 0.983206 1_555
H34 O34 0.983206 1_555
H35 O35 0.983206 1_555
H36 O36 0.982769 1_555
H37 O37 0.982769 1_555
H38 O38 0.982769 1_555
H39 O39 0.982769 1_555
