# generated using pymatgen
data_Er18Ti14O55
_symmetry_space_group_name_H-M   'P 1'
_cell_length_a   7.22741123
_cell_length_b   7.22741123
_cell_length_c   23.76895474
_cell_angle_alpha   81.62301241
_cell_angle_beta   81.62301241
_cell_angle_gamma   60.15645511
_symmetry_Int_Tables_number   1
_chemical_formula_structural   Er18Ti14O55
_chemical_formula_sum   'Er18 Ti14 O55'
_cell_volume   1061.56132151
_cell_formula_units_Z   1
loop_
 _symmetry_equiv_pos_site_id
 _symmetry_equiv_pos_as_xyz
  1  'x, y, z'
loop_
 _atom_site_type_symbol
 _atom_site_label
 _atom_site_symmetry_multiplicity
 _atom_site_fract_x
 _atom_site_fract_y
 _atom_site_fract_z
 _atom_site_occupancy
  Er  Er0  1  0.61654000  0.61654000  0.13432700  1
  Er  Er1  1  0.49041200  0.49041200  0.00035800  1
  Er  Er2  1  0.12742300  0.61184800  0.12624400  1
  Er  Er3  1  0.01775900  0.01775900  0.99369000  1
  Er  Er4  1  0.37431000  0.37431000  0.37704200  1
  Er  Er5  1  0.61184800  0.12742300  0.12624400  1
  Er  Er6  1  0.37416600  0.87425300  0.37690500  1
  Er  Er7  1  0.24896700  0.24896700  0.25263200  1
  Er  Er8  1  0.13121200  0.13121200  0.12347800  1
  Er  Er9  1  0.62448000  0.62448000  0.62493200  1
  Er  Er10  1  0.87425300  0.37416600  0.37690500  1
  Er  Er11  1  0.49994700  0.49994700  0.50019000  1
  Er  Er12  1  0.12564900  0.62460500  0.62470800  1
  Er  Er13  1  0.86819400  0.37712300  0.87169400  1
  Er  Er14  1  0.75110000  0.75110000  0.74834900  1
  Er  Er15  1  0.62460500  0.12564900  0.62470800  1
  Er  Er16  1  0.37712300  0.86819400  0.87169400  1
  Er  Er17  1  0.87708300  0.87708300  0.87236800  1
  Ti  Ti0  1  0.98601300  0.50589000  0.00137300  1
  Ti  Ti1  1  0.87406500  0.87406500  0.37669800  1
  Ti  Ti2  1  0.75360600  0.75360600  0.25143700  1
  Ti  Ti3  1  0.50589000  0.98601300  0.00137300  1
  Ti  Ti4  1  0.23949600  0.75492400  0.25203900  1
  Ti  Ti5  1  0.99976100  0.99976100  0.50070500  1
  Ti  Ti6  1  0.74933800  0.24960900  0.74959800  1
  Ti  Ti7  1  0.75492400  0.23949600  0.25203900  1
  Ti  Ti8  1  0.37731400  0.37731400  0.87524700  1
  Ti  Ti9  1  0.49960200  0.99968300  0.50083700  1
  Ti  Ti10  1  0.25083600  0.25083600  0.74994300  1
  Ti  Ti11  1  0.12393800  0.12393800  0.62616000  1
  Ti  Ti12  1  0.99968300  0.49960200  0.50083700  1
  Ti  Ti13  1  0.24960900  0.74933800  0.74959800  1
  O  O0  1  0.25846400  0.79325000  0.16283200  1
  O  O1  1  0.18674800  0.18674800  0.02145400  1
  O  O2  1  0.13461400  0.67394100  0.02891000  1
  O  O3  1  0.79325000  0.25846400  0.16283200  1
  O  O4  1  0.58590300  0.99803700  0.41740000  1
  O  O5  1  0.62611000  0.06715600  0.23856600  1
  O  O6  1  0.47477200  0.47477200  0.09282900  1
  O  O7  1  0.45106300  0.45106300  0.26479500  1
  O  O8  1  0.78078300  0.78078300  0.16353400  1
  O  O9  1  0.67394100  0.13461400  0.02891000  1
  O  O10  1  0.45136000  0.83166700  0.26523500  1
  O  O11  1  0.48459900  0.92914000  0.08297900  1
  O  O12  1  0.21750500  0.21750500  0.34594000  1
  O  O13  1  0.06715600  0.62611000  0.23856600  1
  O  O14  1  0.27418900  0.27418900  0.15942400  1
  O  O15  1  0.99803700  0.58590300  0.41740000  1
  O  O16  1  0.83629900  0.24886600  0.66559600  1
  O  O17  1  0.89790100  0.31136400  0.47903500  1
  O  O18  1  0.75073900  0.75073900  0.33381800  1
  O  O19  1  0.68912400  0.68912400  0.51995200  1
  O  O20  1  0.99839500  0.99839500  0.41746200  1
  O  O21  1  0.06538900  0.06538900  0.24163600  1
  O  O22  1  0.92914000  0.48459900  0.08297900  1
  O  O23  1  0.83166700  0.45136000  0.26523500  1
  O  O24  1  0.68966800  0.10126800  0.51987200  1
  O  O25  1  0.46811500  0.46811500  0.59384000  1
  O  O26  1  0.31136400  0.89790100  0.47903500  1
  O  O27  1  0.74947600  0.16579500  0.33432800  1
  O  O28  1  0.53169100  0.53169100  0.40645000  1
  O  O29  1  0.24886600  0.83629900  0.66559600  1
  O  O30  1  0.11547100  0.50232100  0.92130400  1
  O  O31  1  0.15060600  0.55957600  0.72793700  1
  O  O32  1  0.00196600  0.00196600  0.58198400  1
  O  O33  1  0.93944900  0.93944900  0.76636300  1
  O  O34  1  0.24783500  0.24783500  0.66642500  1
  O  O35  1  0.31181900  0.31181900  0.47896900  1
  O  O36  1  0.16579500  0.74947600  0.33432800  1
  O  O37  1  0.10126800  0.68966800  0.51987200  1
  O  O38  1  0.93934700  0.35324800  0.76899500  1
  O  O39  1  0.00258800  0.41382200  0.58213300  1
  O  O40  1  0.72279600  0.72279600  0.84206700  1
  O  O41  1  0.50232100  0.11547100  0.92130400  1
  O  O42  1  0.78219300  0.78219300  0.65474500  1
  O  O43  1  0.55957600  0.15060600  0.72793700  1
  O  O44  1  0.39281000  0.83177800  0.97290500  1
  O  O45  1  0.25391100  0.25391100  0.83204700  1
  O  O46  1  0.51304100  0.51304100  0.90519900  1
  O  O47  1  0.56107400  0.56107400  0.72843000  1
  O  O48  1  0.41382200  0.00258800  0.58213300  1
  O  O49  1  0.35324800  0.93934700  0.76899500  1
  O  O50  1  0.83177800  0.39281000  0.97290500  1
  O  O51  1  0.23915600  0.67303400  0.83040500  1
  O  O52  1  0.03223900  0.03223900  0.90336200  1
  O  O53  1  0.78863300  0.78863300  0.97431300  1
  O  O54  1  0.67303400  0.23915600  0.83040500  1
loop_
_geom_bond_atom_site_label_1
_geom_bond_atom_site_label_2
_geom_bond_distance
_geom_bond_site_symmetry_2
Er0 O6 2.169424 1_555
Er0 O22 2.212408 1_555
Er0 O11 2.212408 1_555
Er0 O8 2.276570 1_555
Er0 O3 2.288967 1_555
Er0 O0 2.288967 1_555
Er1 O6 2.173575 1_555
Er1 O50 2.223359 1_554
Er1 O44 2.223359 1_554
Er1 O46 2.231687 1_554
Er1 O9 2.278514 1_555
Er1 O2 2.278514 1_555
Er2 O14 2.193009 1_555
Er2 O6 2.255565 1_555
Er2 O8 2.275265 1_455
Er2 O0 2.276004 1_555
Er2 O2 2.289579 1_555
Er2 O22 2.444124 1_455
Er2 O13 2.650419 1_555
Er3 O52 2.124026 1_555
Er3 O9 2.258329 1_456
Er3 O2 2.258329 1_546
Er3 O1 2.318024 1_556
Er3 O50 2.361239 1_455
Er3 O44 2.361239 1_545
Er4 O28 2.197095 1_555
Er4 O12 2.209461 1_555
Er4 O35 2.417192 1_555
Er4 O4 2.486489 1_545
Er4 O15 2.486489 1_455
Er4 O27 2.496154 1_555
Er4 O36 2.496154 1_555
Er4 O7 2.679073 1_555
Er5 O14 2.193009 1_555
Er5 O6 2.255565 1_555
Er5 O8 2.275265 1_545
Er5 O3 2.276004 1_555
Er5 O9 2.289579 1_555
Er5 O11 2.444124 1_545
Er5 O5 2.650419 1_555
Er6 O28 2.200016 1_555
Er6 O12 2.212094 1_565
Er6 O26 2.418830 1_555
Er6 O4 2.472115 1_555
Er6 O36 2.483364 1_555
Er6 O20 2.484782 1_455
Er6 O18 2.507840 1_555
Er6 O10 2.662114 1_555
Er7 O14 2.184591 1_555
Er7 O12 2.186270 1_555
Er7 O21 2.354401 1_555
Er7 O13 2.359227 1_555
Er7 O5 2.359227 1_555
Er7 O7 2.592274 1_555
Er7 O10 2.607543 1_545
Er7 O23 2.607543 1_455
Er8 O14 2.107820 1_555
Er8 O0 2.244147 1_545
Er8 O3 2.244147 1_455
Er8 O11 2.358742 1_545
Er8 O22 2.358742 1_455
Er8 O1 2.407486 1_555
Er9 O25 2.204151 1_555
Er9 O42 2.205565 1_555
Er9 O47 2.454355 1_555
Er9 O16 2.485532 1_555
Er9 O29 2.485532 1_555
Er9 O19 2.490140 1_555
Er9 O39 2.514187 1_655
Er9 O48 2.514187 1_565
Er10 O28 2.200016 1_555
Er10 O12 2.212094 1_655
Er10 O17 2.418830 1_555
Er10 O15 2.472115 1_555
Er10 O27 2.483364 1_555
Er10 O20 2.484782 1_545
Er10 O18 2.507840 1_555
Er10 O23 2.662114 1_555
Er11 O25 2.194315 1_555
Er11 O28 2.196408 1_555
Er11 O35 2.488273 1_555
Er11 O19 2.488824 1_555
Er11 O17 2.501926 1_555
Er11 O26 2.501926 1_555
Er11 O24 2.502690 1_555
Er11 O37 2.502690 1_555
Er12 O25 2.206881 1_555
Er12 O42 2.208043 1_455
Er12 O31 2.445890 1_555
Er12 O29 2.473862 1_555
Er12 O37 2.483043 1_555
Er12 O39 2.489154 1_555
Er12 O34 2.500649 1_555
Er12 O32 2.509935 1_565
Er13 O40 2.220780 1_555
Er13 O52 2.226536 1_655
Er13 O46 2.304479 1_555
Er13 O50 2.394725 1_555
Er13 O38 2.433433 1_555
Er13 O54 2.456671 1_555
Er13 O45 2.541819 1_655
Er13 O30 2.817378 1_655
Er14 O42 2.193159 1_555
Er14 O40 2.195883 1_555
Er14 O33 2.464434 1_555
Er14 O49 2.499960 1_555
Er14 O38 2.499960 1_555
Er14 O47 2.500561 1_555
Er14 O31 2.509609 1_655
Er14 O43 2.509609 1_565
Er15 O25 2.206881 1_555
Er15 O42 2.208043 1_545
Er15 O43 2.445890 1_555
Er15 O16 2.473862 1_555
Er15 O24 2.483043 1_555
Er15 O48 2.489154 1_555
Er15 O34 2.500649 1_555
Er15 O32 2.509935 1_655
Er16 O40 2.220780 1_555
Er16 O52 2.226536 1_565
Er16 O46 2.304479 1_555
Er16 O44 2.394725 1_555
Er16 O49 2.433433 1_555
Er16 O51 2.456671 1_555
Er16 O45 2.541819 1_565
Er16 O41 2.817378 1_565
Er17 O40 2.170521 1_555
Er17 O52 2.188751 1_665
Er17 O54 2.417598 1_565
Er17 O51 2.417598 1_655
Er17 O53 2.488555 1_555
Er17 O33 2.509034 1_555
Er17 O30 2.584396 1_655
Er17 O41 2.584396 1_565
O0 Ti4 2.091268 1_555
O1 Ti3 2.050209 1_545
O1 Ti0 2.050209 1_455
O2 Ti0 2.189019 1_455
O3 Ti7 2.091268 1_555
O4 Ti1 1.970918 1_555
O4 Ti9 1.990320 1_555
O5 Ti7 1.969256 1_555
O5 Ti2 1.969768 1_545
O7 Ti7 1.962627 1_555
O7 Ti4 1.962627 1_555
O8 Ti2 2.059573 1_555
O9 Ti3 2.189019 1_545
O10 Ti4 1.945916 1_555
O10 Ti2 1.953531 1_555
O11 Ti3 1.923202 1_555
O13 Ti4 1.969256 1_555
O13 Ti2 1.969768 1_455
O15 Ti1 1.970918 1_555
O15 Ti12 1.990320 1_555
O16 Ti11 1.956093 1_655
O16 Ti6 2.003931 1_555
O17 Ti12 1.993268 1_555
O17 Ti5 2.000386 1_545
O18 Ti2 1.952393 1_555
O18 Ti1 1.986913 1_555
O19 Ti12 1.986173 1_555
O19 Ti9 1.986173 1_555
O20 Ti1 1.965886 1_555
O20 Ti5 1.981547 1_555
O21 Ti4 1.948919 1_545
O21 Ti7 1.948919 1_455
O22 Ti0 1.923202 1_555
O23 Ti7 1.945916 1_555
O23 Ti2 1.953531 1_555
O24 Ti9 1.977984 1_545
O24 Ti5 1.982948 1_545
O26 Ti9 1.993268 1_555
O26 Ti5 2.000386 1_455
O27 Ti7 1.950843 1_555
O27 Ti1 2.006632 1_545
O29 Ti11 1.956093 1_565
O29 Ti13 2.003931 1_555
O30 Ti8 1.891801 1_555
O30 Ti0 1.992372 1_456
O31 Ti10 1.984694 1_555
O31 Ti13 1.986917 1_555
O32 Ti5 1.936751 1_445
O32 Ti11 1.992389 1_555
O33 Ti13 1.976232 1_655
O33 Ti6 1.976232 1_565
O34 Ti11 1.953738 1_555
O34 Ti10 1.991799 1_555
O35 Ti9 2.004500 1_545
O35 Ti12 2.004500 1_455
O36 Ti4 1.950843 1_555
O36 Ti1 2.006632 1_455
O37 Ti12 1.977984 1_455
O37 Ti5 1.982948 1_455
O38 Ti10 1.990798 1_655
O38 Ti6 1.992079 1_555
O39 Ti12 1.941256 1_455
O39 Ti11 2.013354 1_555
O41 Ti8 1.891801 1_555
O41 Ti3 1.992372 1_546
O43 Ti10 1.984694 1_555
O43 Ti6 1.986917 1_555
O44 Ti3 1.912075 1_556
O45 Ti10 1.958369 1_555
O45 Ti8 1.992647 1_555
O46 Ti8 1.948351 1_555
O47 Ti6 1.998232 1_555
O47 Ti13 1.998232 1_555
O48 Ti9 1.941256 1_545
O48 Ti11 2.013354 1_555
O49 Ti10 1.990798 1_565
O49 Ti13 1.992079 1_555
O50 Ti0 1.912075 1_556
O51 Ti13 1.920801 1_555
O51 Ti8 2.055092 1_555
O53 Ti0 1.899381 1_556
O53 Ti3 1.899381 1_556
O54 Ti6 1.920801 1_555
O54 Ti8 2.055092 1_555
