# generated using pymatgen
data_GdAl2Ni
_symmetry_space_group_name_H-M   'P 1'
_cell_length_a   4.02093443
_cell_length_b   5.60895325
_cell_length_c   6.86145772
_cell_angle_alpha   89.96848019
_cell_angle_beta   89.98269198
_cell_angle_gamma   111.11749125
_symmetry_Int_Tables_number   1
_chemical_formula_structural   GdAl2Ni
_chemical_formula_sum   'Gd2 Al4 Ni2'
_cell_volume   144.35568995
_cell_formula_units_Z   2
loop_
 _symmetry_equiv_pos_site_id
 _symmetry_equiv_pos_as_xyz
  1  'x, y, z'
loop_
 _atom_site_type_symbol
 _atom_site_label
 _atom_site_symmetry_multiplicity
 _atom_site_fract_x
 _atom_site_fract_y
 _atom_site_fract_z
 _atom_site_occupancy
  Gd  Gd0  1  0.06092363  0.11971783  0.74834490  1
  Gd  Gd1  1  0.94728824  0.89087653  0.24843742  1
  Al  Al0  1  0.66885259  0.33502616  0.44249821  1
  Al  Al1  1  0.33930506  0.67575053  0.94248782  1
  Al  Al2  1  0.33927356  0.67586427  0.55442383  1
  Al  Al3  1  0.66901445  0.33491437  0.05440938  1
  Ni  Ni0  1  0.78720495  0.57193450  0.74863184  1
  Ni  Ni1  1  0.22048653  0.43824280  0.24865360  1
loop_
_geom_bond_atom_site_label_1
_geom_bond_atom_site_label_2
_geom_bond_distance
_geom_bond_site_symmetry_2
Gd0 Ni0 2.866160 1_445
Gd0 Ni0 3.102345 1_555
Gd0 Ni0 3.107496 1_455
Gd0 Gd1 3.633479 1_446
Gd0 Gd1 3.633874 1_445
Gd1 Ni1 2.863983 1_665
Gd1 Ni1 3.104815 1_555
Gd1 Ni1 3.108347 1_655
Al0 Ni0 2.439757 1_555
Al0 Ni1 2.469046 1_655
Al0 Ni1 2.471269 1_555
Al0 Al3 2.662855 1_555
Al0 Al2 2.793005 1_655
Al0 Al2 2.797727 1_555
Al0 Gd0 3.115227 1_555
Al0 Gd0 3.117490 1_655
Al0 Gd1 3.197830 1_555
Al0 Gd1 3.345873 1_445
Al0 Gd1 3.353365 1_545
Al1 Ni1 2.440033 1_556
Al1 Ni0 2.471216 1_555
Al1 Ni0 2.471381 1_455
Al1 Al2 2.662684 1_555
Al1 Al3 2.791590 1_456
Al1 Al3 2.797730 1_556
Al1 Gd1 3.117496 1_456
Al1 Gd1 3.117625 1_556
Al1 Gd0 3.200643 1_555
Al1 Gd0 3.343997 1_665
Al1 Gd0 3.351755 1_565
Al2 Ni1 2.439511 1_555
Al2 Ni0 2.471455 1_455
Al2 Ni0 2.473179 1_555
Al2 Gd1 3.115921 1_555
Al2 Gd1 3.116968 1_455
Al2 Gd0 3.198842 1_555
Al2 Gd0 3.344980 1_665
Al2 Gd0 3.351343 1_565
Al3 Ni0 2.436445 1_554
Al3 Ni1 2.471004 1_655
Al3 Ni1 2.473343 1_555
Al3 Gd0 3.117973 1_654
Al3 Gd0 3.118477 1_554
Al3 Gd1 3.199979 1_555
Al3 Gd1 3.344114 1_445
Al3 Gd1 3.351523 1_545
