# generated using pymatgen
data_Li3Nd3(TeO6)2
_symmetry_space_group_name_H-M   'P 1'
_cell_length_a   11.00519276
_cell_length_b   11.00519276
_cell_length_c   11.00519276
_cell_angle_alpha   109.47122063
_cell_angle_beta   109.47122063
_cell_angle_gamma   109.47122063
_symmetry_Int_Tables_number   1
_chemical_formula_structural   Li3Nd3(TeO6)2
_chemical_formula_sum   'Li12 Nd12 Te8 O48'
_cell_volume   1026.05601366
_cell_formula_units_Z   4
loop_
 _symmetry_equiv_pos_site_id
 _symmetry_equiv_pos_as_xyz
  1  'x, y, z'
loop_
 _atom_site_type_symbol
 _atom_site_label
 _atom_site_symmetry_multiplicity
 _atom_site_fract_x
 _atom_site_fract_y
 _atom_site_fract_z
 _atom_site_occupancy
  Li  Li0  1  0.12500000  0.75000000  0.87500000  1
  Li  Li1  1  0.12500000  0.87500000  0.25000000  1
  Li  Li2  1  0.25000000  0.62500000  0.37500000  1
  Li  Li3  1  0.25000000  0.12500000  0.87500000  1
  Li  Li4  1  0.37500000  0.62500000  0.75000000  1
  Li  Li5  1  0.37500000  0.25000000  0.62500000  1
  Li  Li6  1  0.62500000  0.75000000  0.37500000  1
  Li  Li7  1  0.62500000  0.37500000  0.25000000  1
  Li  Li8  1  0.75000000  0.87500000  0.12500000  1
  Li  Li9  1  0.75000000  0.37500000  0.62500000  1
  Li  Li10  1  0.87500000  0.12500000  0.75000000  1
  Li  Li11  1  0.87500000  0.25000000  0.12500000  1
  Nd  Nd0  1  0.75000000  0.12500000  0.37500000  1
  Nd  Nd1  1  0.62500000  0.87500000  0.75000000  1
  Nd  Nd2  1  0.87500000  0.62500000  0.25000000  1
  Nd  Nd3  1  0.12500000  0.25000000  0.37500000  1
  Nd  Nd4  1  0.75000000  0.62500000  0.87500000  1
  Nd  Nd5  1  0.62500000  0.25000000  0.87500000  1
  Nd  Nd6  1  0.37500000  0.75000000  0.12500000  1
  Nd  Nd7  1  0.25000000  0.37500000  0.12500000  1
  Nd  Nd8  1  0.87500000  0.75000000  0.62500000  1
  Nd  Nd9  1  0.12500000  0.37500000  0.75000000  1
  Nd  Nd10  1  0.37500000  0.12500000  0.25000000  1
  Nd  Nd11  1  0.25000000  0.87500000  0.62500000  1
  Te  Te0  1  0.00000000  0.50000000  0.50000000  1
  Te  Te1  1  0.00000000  0.50000000  0.00000000  1
  Te  Te2  1  0.00000000  0.00000000  0.50000000  1
  Te  Te3  1  0.00000000  0.00000000  0.00000000  1
  Te  Te4  1  0.50000000  0.50000000  0.50000000  1
  Te  Te5  1  0.50000000  0.00000000  0.50000000  1
  Te  Te6  1  0.50000000  0.50000000  0.00000000  1
  Te  Te7  1  0.50000000  0.00000000  0.00000000  1
  O  O0  1  0.40612900  0.07629500  0.88305200  1
  O  O1  1  0.42370500  0.09387100  0.61694800  1
  O  O2  1  0.42370500  0.82983400  0.80675700  1
  O  O3  1  0.90612900  0.38305200  0.57629500  1
  O  O4  1  0.40612900  0.82983400  0.52307700  1
  O  O5  1  0.67016600  0.09387100  0.97692300  1
  O  O6  1  0.92370500  0.11694800  0.59387100  1
  O  O7  1  0.92370500  0.30675700  0.32983400  1
  O  O8  1  0.67016600  0.07629500  0.69324300  1
  O  O9  1  0.52307700  0.61694800  0.69324300  1
  O  O10  1  0.69324300  0.67016600  0.07629500  1
  O  O11  1  0.61694800  0.42370500  0.09387100  1
  O  O12  1  0.52307700  0.40612900  0.82983400  1
  O  O13  1  0.90612900  0.02307700  0.32983400  1
  O  O14  1  0.17016600  0.47692300  0.59387100  1
  O  O15  1  0.80675700  0.88305200  0.97692300  1
  O  O16  1  0.61694800  0.69324300  0.52307700  1
  O  O17  1  0.17016600  0.19324300  0.57629500  1
  O  O18  1  0.02307700  0.19324300  0.11694800  1
  O  O19  1  0.19324300  0.57629500  0.17016600  1
  O  O20  1  0.11694800  0.59387100  0.92370500  1
  O  O21  1  0.02307700  0.32983400  0.90612900  1
  O  O22  1  0.88305200  0.97692300  0.80675700  1
  O  O23  1  0.69324300  0.52307700  0.61694800  1
  O  O24  1  0.30675700  0.47692300  0.38305200  1
  O  O25  1  0.11694800  0.02307700  0.19324300  1
  O  O26  1  0.97692300  0.67016600  0.09387100  1
  O  O27  1  0.88305200  0.40612900  0.07629500  1
  O  O28  1  0.80675700  0.42370500  0.82983400  1
  O  O29  1  0.97692300  0.80675700  0.88305200  1
  O  O30  1  0.82983400  0.80675700  0.42370500  1
  O  O31  1  0.38305200  0.30675700  0.47692300  1
  O  O32  1  0.19324300  0.11694800  0.02307700  1
  O  O33  1  0.82983400  0.52307700  0.40612900  1
  O  O34  1  0.09387100  0.97692300  0.67016600  1
  O  O35  1  0.47692300  0.59387100  0.17016600  1
  O  O36  1  0.38305200  0.57629500  0.90612900  1
  O  O37  1  0.30675700  0.32983400  0.92370500  1
  O  O38  1  0.47692300  0.38305200  0.30675700  1
  O  O39  1  0.32983400  0.92370500  0.30675700  1
  O  O40  1  0.07629500  0.69324300  0.67016600  1
  O  O41  1  0.07629500  0.88305200  0.40612900  1
  O  O42  1  0.32983400  0.90612900  0.02307700  1
  O  O43  1  0.59387100  0.17016600  0.47692300  1
  O  O44  1  0.09387100  0.61694800  0.42370500  1
  O  O45  1  0.57629500  0.17016600  0.19324300  1
  O  O46  1  0.57629500  0.90612900  0.38305200  1
  O  O47  1  0.59387100  0.92370500  0.11694800  1
loop_
_geom_bond_atom_site_label_1
_geom_bond_atom_site_label_2
_geom_bond_distance
_geom_bond_site_symmetry_2
Li0 O20 1.947208 1_555
Li0 O40 1.947208 1_555
Li0 O29 1.947208 1_455
Li0 O42 1.947208 1_556
Li1 O39 1.947208 1_555
Li1 O26 1.947208 1_455
Li1 O25 1.947208 1_565
Li1 O41 1.947208 1_555
Li2 O4 1.947208 1_555
Li2 O24 1.947208 1_555
Li2 O19 1.947208 1_555
Li2 O44 1.947208 1_555
Li3 O34 1.947208 1_545
Li3 O37 1.947208 1_555
Li3 O32 1.947208 1_556
Li3 O0 1.947208 1_555
Li4 O36 1.947208 1_555
Li4 O9 1.947208 1_555
Li4 O2 1.947208 1_555
Li4 O14 1.947208 1_555
Li5 O12 1.947208 1_555
Li5 O17 1.947208 1_555
Li5 O31 1.947208 1_555
Li5 O1 1.947208 1_555
Li6 O16 1.947208 1_555
Li6 O46 1.947208 1_555
Li6 O30 1.947208 1_555
Li6 O35 1.947208 1_555
Li7 O45 1.947208 1_555
Li7 O33 1.947208 1_555
Li7 O38 1.947208 1_555
Li7 O11 1.947208 1_555
Li8 O47 1.947208 1_555
Li8 O10 1.947208 1_555
Li8 O15 1.947208 1_554
Li8 O13 1.947208 1_565
Li9 O3 1.947208 1_555
Li9 O28 1.947208 1_555
Li9 O23 1.947208 1_555
Li9 O43 1.947208 1_555
Li10 O22 1.947208 1_545
Li10 O8 1.947208 1_555
Li10 O6 1.947208 1_555
Li10 O21 1.947208 1_655
Li11 O5 1.947208 1_554
Li11 O27 1.947208 1_555
Li11 O7 1.947208 1_555
Li11 O18 1.947208 1_655
Nd0 O13 2.437233 1_555
Nd0 O43 2.437233 1_555
Nd0 O47 2.437233 1_545
Nd0 O3 2.437233 1_555
Nd0 O7 2.578696 1_555
Nd0 O6 2.578696 1_555
Nd0 O45 2.578696 1_555
Nd0 O46 2.578696 1_545
Nd1 O22 2.437233 1_555
Nd1 O8 2.437233 1_565
Nd1 O2 2.437233 1_555
Nd1 O9 2.437233 1_555
Nd1 O16 2.578696 1_555
Nd1 O15 2.578696 1_555
Nd1 O5 2.578696 1_565
Nd1 O4 2.578696 1_555
Nd2 O41 2.437233 1_655
Nd2 O11 2.437233 1_555
Nd2 O26 2.437233 1_555
Nd2 O33 2.437233 1_555
Nd2 O27 2.578696 1_555
Nd2 O30 2.578696 1_555
Nd2 O44 2.578696 1_655
Nd2 O10 2.578696 1_555
Nd3 O18 2.437233 1_555
Nd3 O7 2.437233 1_455
Nd3 O17 2.437233 1_555
Nd3 O31 2.437233 1_555
Nd3 O25 2.578696 1_555
Nd3 O24 2.578696 1_555
Nd3 O13 2.578696 1_455
Nd3 O14 2.578696 1_555
Nd4 O15 2.437233 1_555
Nd4 O23 2.437233 1_555
Nd4 O10 2.437233 1_556
Nd4 O28 2.437233 1_555
Nd4 O9 2.578696 1_555
Nd4 O26 2.578696 1_556
Nd4 O12 2.578696 1_555
Nd4 O29 2.578696 1_555
Nd5 O1 2.437233 1_555
Nd5 O27 2.437233 1_556
Nd5 O12 2.437233 1_555
Nd5 O5 2.437233 1_555
Nd5 O0 2.578696 1_555
Nd5 O11 2.578696 1_556
Nd5 O8 2.578696 1_555
Nd5 O28 2.578696 1_555
Nd6 O35 2.437233 1_555
Nd6 O42 2.437233 1_555
Nd6 O46 2.437233 1_555
Nd6 O20 2.437233 1_554
Nd6 O39 2.578696 1_555
Nd6 O19 2.578696 1_555
Nd6 O36 2.578696 1_554
Nd6 O47 2.578696 1_555
Nd7 O37 2.437233 1_554
Nd7 O24 2.437233 1_555
Nd7 O32 2.437233 1_555
Nd7 O19 2.437233 1_555
Nd7 O18 2.578696 1_555
Nd7 O38 2.578696 1_555
Nd7 O35 2.578696 1_555
Nd7 O21 2.578696 1_554
Nd8 O29 2.437233 1_555
Nd8 O30 2.437233 1_555
Nd8 O40 2.437233 1_655
Nd8 O16 2.437233 1_555
Nd8 O33 2.578696 1_555
Nd8 O22 2.578696 1_555
Nd8 O23 2.578696 1_555
Nd8 O34 2.578696 1_655
Nd9 O21 2.437233 1_555
Nd9 O14 2.437233 1_555
Nd9 O6 2.437233 1_455
Nd9 O36 2.437233 1_555
Nd9 O37 2.578696 1_555
Nd9 O20 2.578696 1_555
Nd9 O17 2.578696 1_555
Nd9 O3 2.578696 1_455
Nd10 O39 2.437233 1_545
Nd10 O25 2.437233 1_555
Nd10 O38 2.437233 1_555
Nd10 O45 2.437233 1_555
Nd10 O31 2.578696 1_555
Nd10 O32 2.578696 1_555
Nd10 O43 2.578696 1_555
Nd10 O42 2.578696 1_545
Nd11 O44 2.437233 1_555
Nd11 O0 2.437233 1_565
Nd11 O4 2.437233 1_555
Nd11 O34 2.437233 1_555
Nd11 O41 2.578696 1_555
Nd11 O1 2.578696 1_565
Nd11 O2 2.578696 1_555
Nd11 O40 2.578696 1_555
O0 Te7 1.959845 1_556
O1 Te5 1.959845 1_555
O2 Te7 1.959845 1_566
O3 Te0 1.959845 1_655
O4 Te5 1.959845 1_565
O5 Te7 1.959845 1_556
O6 Te2 1.959845 1_655
O7 Te0 1.959845 1_655
O8 Te5 1.959845 1_555
O9 Te4 1.959845 1_555
O10 Te6 1.959845 1_555
O11 Te6 1.959845 1_555
O12 Te6 1.959845 1_556
O13 Te2 1.959845 1_655
O14 Te0 1.959845 1_555
O15 Te3 1.959845 1_666
O16 Te4 1.959845 1_555
O17 Te2 1.959845 1_555
O18 Te3 1.959845 1_555
O19 Te1 1.959845 1_555
O20 Te1 1.959845 1_556
O21 Te1 1.959845 1_556
O22 Te3 1.959845 1_666
O23 Te4 1.959845 1_555
O24 Te4 1.959845 1_555
O25 Te3 1.959845 1_555
O26 Te1 1.959845 1_655
O27 Te1 1.959845 1_655
O28 Te1 1.959845 1_656
O29 Te3 1.959845 1_666
O30 Te2 1.959845 1_665
O31 Te4 1.959845 1_555
O32 Te3 1.959845 1_555
O33 Te0 1.959845 1_655
O34 Te2 1.959845 1_565
O35 Te6 1.959845 1_555
O36 Te6 1.959845 1_556
O37 Te6 1.959845 1_556
O38 Te4 1.959845 1_555
O39 Te5 1.959845 1_565
O40 Te0 1.959845 1_555
O41 Te2 1.959845 1_565
O42 Te7 1.959845 1_565
O43 Te5 1.959845 1_555
O44 Te0 1.959845 1_555
O45 Te7 1.959845 1_555
O46 Te5 1.959845 1_565
O47 Te7 1.959845 1_565
