# generated using pymatgen
data_Sb8Cl27F13
_symmetry_space_group_name_H-M   'P 1'
_cell_length_a   9.76588500
_cell_length_b   9.90494855
_cell_length_c   17.72531165
_cell_angle_alpha   82.19939290
_cell_angle_beta   80.36779867
_cell_angle_gamma   64.19413796
_symmetry_Int_Tables_number   1
_chemical_formula_structural   Sb8Cl27F13
_chemical_formula_sum   'Sb8 Cl27 F13'
_cell_volume   1518.00617058
_cell_formula_units_Z   1
loop_
 _symmetry_equiv_pos_site_id
 _symmetry_equiv_pos_as_xyz
  1  'x, y, z'
loop_
 _atom_site_type_symbol
 _atom_site_label
 _atom_site_symmetry_multiplicity
 _atom_site_fract_x
 _atom_site_fract_y
 _atom_site_fract_z
 _atom_site_occupancy
  Sb  Sb0  1  0.86830300  0.22530600  0.08451900  1
  Sb  Sb1  1  0.39978400  0.26036000  0.59415700  1
  Sb  Sb2  1  0.34838100  0.18964700  0.34669900  1
  Sb  Sb3  1  0.20870200  0.72321900  0.18868500  1
  Sb  Sb4  1  0.84991600  0.23903800  0.85272700  1
  Sb  Sb5  1  0.65876800  0.72309000  0.69405300  1
  Sb  Sb6  1  0.69590600  0.75357000  0.39381800  1
  Sb  Sb7  1  0.15860400  0.74184000  0.90756700  1
  Cl  Cl0  1  0.76527600  0.83911900  0.15947000  1
  Cl  Cl1  1  0.81173900  0.62942800  0.20908500  1
  Cl  Cl2  1  0.71642000  0.45652700  0.01670600  1
  Cl  Cl3  1  0.21684700  0.92485000  0.68496800  1
  Cl  Cl4  1  0.40454400  0.78858100  0.12263200  1
  Cl  Cl5  1  0.33755500  0.69326100  0.51754900  1
  Cl  Cl6  1  0.66684700  0.14221900  0.08568200  1
  Cl  Cl7  1  0.25365600  0.71435200  0.72452100  1
  Cl  Cl8  1  0.23623900  0.55438900  0.52465600  1
  Cl  Cl9  1  0.31584300  0.11536000  0.23344900  1
  Cl  Cl10  1  0.33651700  0.59941500  0.30138500  1
  Cl  Cl11  1  0.28303200  0.49528200  0.13024600  1
  Cl  Cl12  1  0.08634200  0.92614400  0.36573700  1
  Cl  Cl13  1  0.88248300  0.76360800  0.66348300  1
  Cl  Cl14  1  0.95691300  0.67656300  0.90819400  1
  Cl  Cl15  1  0.15587600  0.27209200  0.58662900  1
  Cl  Cl16  1  0.08044500  0.28451700  0.06814700  1
  Cl  Cl17  1  0.96908000  0.14185200  0.39102100  1
  Cl  Cl18  1  0.80717700  0.16830000  0.73933200  1
  Cl  Cl19  1  0.72373200  0.55760600  0.81534100  1
  Cl  Cl20  1  0.72798200  0.52066000  0.61992600  1
  Cl  Cl21  1  0.50970400  0.02581400  0.85304500  1
  Cl  Cl22  1  0.72768800  0.49889600  0.41589000  1
  Cl  Cl23  1  0.76956900  0.31209700  0.20821700  1
  Cl  Cl24  1  0.58527700  0.07440200  0.94061100  1
  Cl  Cl25  1  0.33957000  0.49162700  0.90591200  1
  Cl  Cl26  1  0.32445500  0.36112100  0.71441200  1
  F  F0  1  0.35993400  0.00630100  0.40756300  1
  F  F1  1  0.03020300  0.93782800  0.86154400  1
  F  F2  1  0.45386700  0.20974200  0.48937700  1
  F  F3  1  0.12475900  0.79180200  0.00945900  1
  F  F4  1  0.90380200  0.70477600  0.41066600  1
  F  F5  1  0.94333000  0.13957100  0.97974900  1
  F  F6  1  0.61687400  0.80266500  0.50031200  1
  F  F7  1  0.99243500  0.02629100  0.12741200  1
  F  F8  1  0.32146100  0.80258200  0.87698900  1
  F  F9  1  0.57245400  0.30593200  0.58020400  1
  F  F10  1  0.57021400  0.10332900  0.32862000  1
  F  F11  1  0.49696800  0.05689300  0.63393600  1
  F  F12  1  0.04607600  0.23423000  0.81054700  1
loop_
_geom_bond_atom_site_label_1
_geom_bond_atom_site_label_2
_geom_bond_distance
_geom_bond_site_symmetry_2
Cl0 Cl1 2.027395 1_555
Cl2 Sb0 2.404543 1_555
Cl3 Cl7 2.000714 1_555
Cl4 Sb3 2.360251 1_555
Cl5 Cl8 1.995774 1_555
Cl6 Sb0 2.437181 1_555
Cl8 Sb1 2.860951 1_555
Cl9 Sb2 2.343072 1_555
Cl10 Sb3 2.426767 1_555
Cl11 Sb3 2.377703 1_555
Cl12 Cl17 2.008770 1_465
Cl13 Sb5 2.352895 1_555
Cl14 Sb7 2.323225 1_655
Cl15 Sb1 2.359298 1_555
Cl16 Sb0 2.351770 1_455
Cl18 Sb4 2.371227 1_555
Cl19 Sb5 2.511096 1_555
Cl19 Sb4 2.869582 1_555
Cl20 Sb5 2.332702 1_555
Cl21 Cl24 2.020098 1_555
Cl22 Sb6 2.388231 1_555
Cl23 Sb0 2.357681 1_555
Cl25 Sb7 2.335674 1_555
Cl26 Sb1 2.343988 1_555
F0 Sb2 1.950667 1_555
F1 Sb7 1.949210 1_555
F2 Sb1 1.916686 1_555
F3 Sb7 1.875223 1_554
F4 Sb6 1.937587 1_555
F5 Sb0 2.034148 1_556
F5 Sb4 2.484925 1_555
F6 Sb6 1.957091 1_555
F7 Sb0 1.937639 1_555
F8 Sb7 1.908237 1_555
F9 Sb1 1.897704 1_555
F10 Sb2 1.938136 1_555
F11 Sb1 1.905882 1_555
F12 Sb4 1.918855 1_455
