# generated using pymatgen
data_CaLaMnMoO6
_symmetry_space_group_name_H-M   'P 1'
_cell_length_a   5.60984294
_cell_length_b   5.77462000
_cell_length_c   8.07235025
_cell_angle_alpha   89.99872078
_cell_angle_beta   90.72030227
_cell_angle_gamma   90.00005527
_symmetry_Int_Tables_number   1
_chemical_formula_structural   CaLaMnMoO6
_chemical_formula_sum   'Ca2 La2 Mn2 Mo2 O12'
_cell_volume   261.48079084
_cell_formula_units_Z   2
loop_
 _symmetry_equiv_pos_site_id
 _symmetry_equiv_pos_as_xyz
  1  'x, y, z'
loop_
 _atom_site_type_symbol
 _atom_site_label
 _atom_site_symmetry_multiplicity
 _atom_site_fract_x
 _atom_site_fract_y
 _atom_site_fract_z
 _atom_site_occupancy
  Ca  Ca0  1  0.48869200  0.44462200  0.25447900  1
  Ca  Ca1  1  0.98869500  0.05539500  0.75446900  1
  La  La0  1  0.00912300  0.94712900  0.24360600  1
  La  La1  1  0.50913800  0.55286500  0.74360600  1
  Mn  Mn0  1  0.00032400  0.49761900  0.99987200  1
  Mn  Mn1  1  0.50033100  0.00233700  0.49986400  1
  Mo  Mo0  1  0.50057900  0.00207200  0.99892500  1
  Mo  Mo1  1  0.00058700  0.49791200  0.49893300  1
  O  O0  1  0.09850000  0.46014200  0.74287700  1
  O  O1  1  0.59845600  0.03985900  0.24286200  1
  O  O2  1  0.17929200  0.21834300  0.44778300  1
  O  O3  1  0.67932700  0.28165100  0.94774500  1
  O  O4  1  0.20608100  0.19273100  0.05127200  1
  O  O5  1  0.70608500  0.30726000  0.55128300  1
  O  O6  1  0.29624600  0.69015500  0.44844000  1
  O  O7  1  0.79625500  0.80986100  0.94845700  1
  O  O8  1  0.32456800  0.72017300  0.05483000  1
  O  O9  1  0.82460800  0.77985200  0.55480100  1
  O  O10  1  0.39656500  0.96449000  0.75794500  1
  O  O11  1  0.89654900  0.53553300  0.25794800  1
loop_
_geom_bond_atom_site_label_1
_geom_bond_atom_site_label_2
_geom_bond_distance
_geom_bond_site_symmetry_2
Ca0 O11 2.347292 1_555
Ca0 O6 2.381161 1_555
Ca0 O1 2.419222 1_555
Ca0 O8 2.437126 1_555
Ca0 O2 2.687547 1_555
Ca0 O4 2.693470 1_555
Ca0 O5 2.789854 1_555
Ca0 O3 2.868262 1_554
Ca1 O10 2.347356 1_645
Ca1 O7 2.381251 1_545
Ca1 O0 2.419178 1_655
Ca1 O9 2.437166 1_545
Ca1 O3 2.687267 1_555
Ca1 O5 2.693246 1_555
Ca1 O4 2.789817 1_656
Ca1 O2 2.867763 1_655
La0 O1 2.365126 1_465
La0 O4 2.384497 1_565
La0 O2 2.457891 1_565
La0 O11 2.462372 1_455
La0 O8 2.690570 1_555
La0 O6 2.731924 1_555
La0 O7 2.767564 1_454
La0 O9 2.894875 1_455
La1 O0 2.364958 1_555
La1 O5 2.384462 1_555
La1 O3 2.457684 1_555
La1 O10 2.462537 1_555
La1 O9 2.690850 1_555
La1 O7 2.732094 1_555
La1 O6 2.767744 1_555
La1 O8 2.895291 1_556
Mn0 O4 2.142935 1_556
Mn0 O0 2.163951 1_555
Mn0 O7 2.173001 1_455
Mn0 O11 2.181150 1_456
Mn0 O3 2.226218 1_455
Mn0 O8 2.266452 1_556
Mn1 O5 2.143134 1_555
Mn1 O1 2.163946 1_555
Mn1 O6 2.172787 1_545
Mn1 O10 2.181126 1_545
Mn1 O2 2.226456 1_555
Mn1 O9 2.266334 1_545
Mo0 O3 1.947579 1_555
Mo0 O8 1.959515 1_546
Mo0 O4 2.034132 1_556
Mo0 O10 2.035472 1_545
Mo0 O7 2.041136 1_545
Mo0 O1 2.049259 1_556
Mo1 O2 1.947370 1_555
Mo1 O9 1.959568 1_455
Mo1 O5 2.034122 1_455
Mo1 O11 2.035563 1_455
Mo1 O6 2.041189 1_555
Mo1 O0 2.049345 1_555
