# generated using pymatgen
data_CaAl2(SiO4)2
_symmetry_space_group_name_H-M   'P 1'
_cell_length_a   8.26623700
_cell_length_b   13.03462850
_cell_length_c   13.06026394
_cell_angle_alpha   85.58390438
_cell_angle_beta   81.28143159
_cell_angle_gamma   89.14906588
_symmetry_Int_Tables_number   1
_chemical_formula_structural   CaAl2(SiO4)2
_chemical_formula_sum   'Ca8 Al16 Si16 O64'
_cell_volume   1386.81127296
_cell_formula_units_Z   8
loop_
 _symmetry_equiv_pos_site_id
 _symmetry_equiv_pos_as_xyz
  1  'x, y, z'
loop_
 _atom_site_type_symbol
 _atom_site_label
 _atom_site_symmetry_multiplicity
 _atom_site_fract_x
 _atom_site_fract_y
 _atom_site_fract_z
 _atom_site_occupancy
  Ca  Ca0  1  0.68355900  0.50012300  0.07909900  1
  Ca  Ca1  1  0.31644100  0.49987700  0.92090100  1
  Ca  Ca2  1  0.23541600  0.46047100  0.53954900  1
  Ca  Ca3  1  0.76458400  0.53952900  0.46045100  1
  Ca  Ca4  1  0.73157300  0.96238500  0.54072700  1
  Ca  Ca5  1  0.26842700  0.03761500  0.45927300  1
  Ca  Ca6  1  0.17573600  0.01991200  0.08864300  1
  Ca  Ca7  1  0.82426400  0.98008800  0.91135700  1
  Al  Al0  1  0.00455300  0.62181900  0.18291500  1
  Al  Al1  1  0.99544700  0.37818100  0.81708500  1
  Al  Al2  1  0.00674700  0.12842800  0.67321900  1
  Al  Al3  1  0.99325300  0.87157200  0.32678100  1
  Al  Al4  1  0.60194800  0.16048600  0.38901600  1
  Al  Al5  1  0.39805200  0.83951400  0.61098400  1
  Al  Al6  1  0.61341900  0.66629700  0.88757900  1
  Al  Al7  1  0.38658100  0.33370300  0.11242100  1
  Al  Al8  1  0.12652600  0.81535500  0.88200900  1
  Al  Al9  1  0.87347400  0.18464500  0.11799100  1
  Al  Al10  1  0.11139500  0.31449900  0.37895900  1
  Al  Al11  1  0.46546600  0.11296800  0.84889300  1
  Al  Al12  1  0.52396900  0.39061700  0.66846300  1
  Al  Al13  1  0.47603100  0.60938300  0.33153700  1
  Al  Al14  1  0.53453400  0.88703200  0.15110700  1
  Al  Al15  1  0.88860500  0.68550100  0.62104100  1
  Si  Si0  1  0.39639100  0.67803600  0.11013500  1
  Si  Si1  1  0.60360900  0.32196400  0.88986500  1
  Si  Si2  1  0.39189800  0.18571900  0.61412800  1
  Si  Si3  1  0.60810200  0.81428100  0.38587200  1
  Si  Si4  1  0.97972800  0.10283300  0.33569200  1
  Si  Si5  1  0.02027200  0.89716700  0.66430800  1
  Si  Si6  1  0.97712700  0.60661500  0.85165400  1
  Si  Si7  1  0.02287300  0.39338500  0.14834600  1
  Si  Si8  1  0.51448000  0.88362700  0.81185400  1
  Si  Si9  1  0.48552000  0.11637300  0.18814600  1
  Si  Si10  1  0.49616800  0.37820700  0.32730100  1
  Si  Si11  1  0.50383200  0.62179300  0.67269900  1
  Si  Si12  1  0.09216600  0.15908700  0.89592900  1
  Si  Si13  1  0.09724800  0.65560300  0.39559900  1
  Si  Si14  1  0.90783400  0.84091300  0.10407100  1
  Si  Si15  1  0.90275200  0.34439700  0.60440100  1
  O  O0  1  0.50754400  0.62593700  0.19577900  1
  O  O1  1  0.49245600  0.37406300  0.80422100  1
  O  O2  1  0.45346900  0.14347600  0.71962200  1
  O  O3  1  0.54653100  0.85652400  0.28037800  1
  O  O4  1  0.95499600  0.63684800  0.73298100  1
  O  O5  1  0.04500400  0.36315200  0.26701900  1
  O  O6  1  0.99273600  0.12505200  0.21004700  1
  O  O7  1  0.00726400  0.87494800  0.78995300  1
  O  O8  1  0.48886000  0.39461200  0.20178300  1
  O  O9  1  0.51114000  0.60538800  0.79821700  1
  O  O10  1  0.53555400  0.89762200  0.68289500  1
  O  O11  1  0.46444600  0.10237800  0.31710500  1
  O  O12  1  0.02362700  0.39357700  0.67799000  1
  O  O13  1  0.97637300  0.60642300  0.32201000  1
  O  O14  1  0.99558700  0.89557100  0.19123400  1
  O  O15  1  0.00441300  0.10442900  0.80876600  1
  O  O16  1  0.41609600  0.80217500  0.09680100  1
  O  O17  1  0.58390400  0.19782500  0.90319900  1
  O  O18  1  0.40684100  0.31229800  0.60260200  1
  O  O19  1  0.59315900  0.68770200  0.39739800  1
  O  O20  1  0.90960500  0.82087000  0.60922400  1
  O  O21  1  0.09039500  0.17913000  0.39077600  1
  O  O22  1  0.89740300  0.31843400  0.10420900  1
  O  O23  1  0.10259700  0.68156600  0.89579100  1
  O  O24  1  0.35883800  0.20266400  0.14800800  1
  O  O25  1  0.20781000  0.39692100  0.07821000  1
  O  O26  1  0.64116200  0.79733600  0.85199200  1
  O  O27  1  0.62600300  0.29008500  0.35380600  1
  O  O28  1  0.87327200  0.22342600  0.63613200  1
  O  O29  1  0.12672800  0.77657400  0.36386800  1
  O  O30  1  0.88208700  0.72010000  0.13615200  1
  O  O31  1  0.11791300  0.27990000  0.86384800  1
  O  O32  1  0.20938300  0.64140000  0.13695200  1
  O  O33  1  0.79061700  0.35860000  0.86304800  1
  O  O34  1  0.20530900  0.14933600  0.60458000  1
  O  O35  1  0.79469100  0.85066400  0.39542000  1
  O  O36  1  0.68901500  0.64465500  0.60926300  1
  O  O37  1  0.31098500  0.35534500  0.39073700  1
  O  O38  1  0.67352000  0.14515500  0.14662500  1
  O  O39  1  0.32648000  0.85484500  0.85337500  1
  O  O40  1  0.96864500  0.12383900  0.00547500  1
  O  O41  1  0.03135500  0.87616100  0.99452500  1
  O  O42  1  0.99829200  0.62470000  0.51364300  1
  O  O43  1  0.00170800  0.37530000  0.48635700  1
  O  O44  1  0.49825800  0.12723000  0.51643100  1
  O  O45  1  0.50174200  0.87277000  0.48356900  1
  O  O46  1  0.47703700  0.62273400  0.00245900  1
  O  O47  1  0.52296300  0.37726600  0.99754100  1
  O  O48  1  0.56926200  0.99172300  0.85632900  1
  O  O49  1  0.43073800  0.00827700  0.14367100  1
  O  O50  1  0.56145600  0.48668300  0.36574500  1
  O  O51  1  0.43854400  0.51331700  0.63425500  1
  O  O52  1  0.06338500  0.98958000  0.36421400  1
  O  O53  1  0.93661500  0.01042000  0.63578600  1
  O  O54  1  0.06589800  0.49220300  0.86170700  1
  O  O55  1  0.93410200  0.50779700  0.13829300  1
  O  O56  1  0.26328400  0.10134800  0.91937900  1
  O  O57  1  0.73671600  0.89865200  0.08062100  1
  O  O58  1  0.27236400  0.59492200  0.39499300  1
  O  O59  1  0.72763600  0.40507800  0.60500700  1
  O  O60  1  0.78944800  0.09549100  0.39419000  1
  O  O61  1  0.21055200  0.90450900  0.60581000  1
  O  O62  1  0.79219000  0.60307900  0.92179000  1
  O  O63  1  0.37399700  0.70991500  0.64619400  1
loop_
_geom_bond_atom_site_label_1
_geom_bond_atom_site_label_2
_geom_bond_distance
_geom_bond_site_symmetry_2
Ca0 O55 2.323869 1_555
Ca0 O62 2.424904 1_554
Ca0 O8 2.448188 1_555
Ca0 O47 2.493167 1_554
Ca0 O46 2.580916 1_555
Ca0 O0 2.601992 1_555
Ca0 O22 2.961867 1_555
Ca1 O54 2.323869 1_555
Ca1 O25 2.424904 1_556
Ca1 O9 2.448188 1_555
Ca1 O46 2.493167 1_556
Ca1 O47 2.580916 1_555
Ca1 O1 2.601992 1_555
Ca1 O23 2.961867 1_555
Ca2 O51 2.370432 1_555
Ca2 O12 2.436655 1_555
Ca2 O43 2.456953 1_555
Ca2 O58 2.461805 1_555
Ca2 O37 2.462073 1_555
Ca2 O18 2.538486 1_555
Ca2 O42 2.916142 1_455
Ca3 O50 2.370432 1_555
Ca3 O13 2.436655 1_555
Ca3 O42 2.456953 1_555
Ca3 O59 2.461805 1_555
Ca3 O36 2.462073 1_555
Ca3 O19 2.538486 1_555
Ca3 O43 2.916142 1_655
Ca4 O53 2.365431 1_565
Ca4 O10 2.381764 1_555
Ca4 O35 2.469241 1_555
Ca4 O60 2.477392 1_565
Ca4 O45 2.482186 1_555
Ca4 O20 2.536328 1_555
Ca4 O44 2.897353 1_565
Ca5 O52 2.365431 1_545
Ca5 O11 2.381764 1_555
Ca5 O34 2.469241 1_555
Ca5 O61 2.477392 1_545
Ca5 O44 2.482186 1_555
Ca5 O21 2.536328 1_555
Ca5 O45 2.897353 1_545
Ca6 O49 2.327178 1_555
Ca6 O56 2.390362 1_554
Ca6 O14 2.402497 1_445
Ca6 O40 2.492711 1_455
Ca6 O6 2.495281 1_455
Ca6 O41 2.704095 1_544
Ca7 O48 2.327178 1_555
Ca7 O57 2.390362 1_556
Ca7 O15 2.402497 1_665
Ca7 O41 2.492711 1_655
Ca7 O7 2.495281 1_655
Ca7 O40 2.704095 1_566
Al0 O32 1.724365 1_555
Al0 O30 1.751386 1_455
Al0 O55 1.774725 1_455
Al0 O13 1.792092 1_455
Al1 O33 1.724365 1_555
Al1 O31 1.751386 1_655
Al1 O54 1.774725 1_655
Al1 O12 1.792092 1_655
Al2 O28 1.736182 1_455
Al2 O34 1.761119 1_555
Al2 O15 1.771062 1_555
Al2 O53 1.780263 1_455
Al3 O29 1.736182 1_655
Al3 O35 1.761119 1_555
Al3 O14 1.771062 1_555
Al3 O52 1.780263 1_655
Al4 O27 1.722579 1_555
Al4 O60 1.763087 1_555
Al4 O44 1.777429 1_555
Al4 O11 1.790638 1_555
Al5 O63 1.722579 1_555
Al5 O61 1.763087 1_555
Al5 O45 1.777429 1_555
Al5 O10 1.790638 1_555
Al6 O26 1.744447 1_555
Al6 O9 1.780168 1_555
Al6 O62 1.780375 1_555
Al6 O46 1.794297 1_556
Al7 O24 1.744447 1_555
Al7 O8 1.780168 1_555
Al7 O25 1.780375 1_555
Al7 O47 1.794297 1_554
Al8 O39 1.716104 1_555
Al8 O23 1.750368 1_555
Al8 O7 1.792624 1_555
Al8 O41 1.793561 1_555
Al9 O38 1.716104 1_555
Al9 O22 1.750368 1_555
Al9 O6 1.792624 1_555
Al9 O40 1.793561 1_555
Al10 O5 1.711966 1_555
Al10 O21 1.768162 1_555
Al10 O37 1.773358 1_555
Al10 O43 1.783786 1_555
Al11 O2 1.721792 1_555
Al11 O17 1.745980 1_555
Al11 O56 1.784152 1_555
Al11 O48 1.790129 1_545
Al12 O1 1.749515 1_555
Al12 O59 1.766101 1_555
Al12 O18 1.771023 1_555
Al12 O51 1.791149 1_555
Al13 O0 1.749515 1_555
Al13 O58 1.766101 1_555
Al13 O19 1.771023 1_555
Al13 O50 1.791149 1_555
Al14 O3 1.721792 1_555
Al14 O16 1.745980 1_555
Al14 O57 1.784152 1_555
Al14 O49 1.790129 1_565
Al15 O4 1.711966 1_555
Al15 O20 1.768162 1_555
Al15 O36 1.773358 1_555
Al15 O42 1.783786 1_555
O0 Si0 1.653048 1_555
O1 Si1 1.653048 1_555
O2 Si2 1.596226 1_555
O3 Si3 1.596226 1_555
O4 Si6 1.606460 1_555
O5 Si7 1.606460 1_555
O6 Si4 1.631694 1_555
O7 Si5 1.631694 1_555
O8 Si10 1.646915 1_555
O9 Si11 1.646915 1_555
O10 Si8 1.662818 1_555
O11 Si9 1.662818 1_555
O12 Si15 1.654699 1_455
O13 Si13 1.654699 1_655
O14 Si14 1.649316 1_555
O15 Si12 1.649316 1_555
O16 Si0 1.622023 1_555
O17 Si1 1.622023 1_555
O18 Si2 1.649936 1_555
O19 Si3 1.649936 1_555
O20 Si5 1.637121 1_655
O21 Si4 1.637121 1_455
O22 Si7 1.631108 1_655
O23 Si6 1.631108 1_455
O24 Si9 1.636196 1_555
O25 Si7 1.658091 1_555
O26 Si8 1.636196 1_555
O27 Si10 1.614261 1_555
O28 Si15 1.611715 1_555
O29 Si13 1.611715 1_555
O30 Si14 1.606862 1_555
O31 Si12 1.606862 1_555
O32 Si0 1.603870 1_555
O33 Si1 1.603870 1_555
O34 Si2 1.645770 1_555
O35 Si3 1.645770 1_555
O36 Si11 1.646055 1_555
O37 Si10 1.646055 1_555
O38 Si9 1.606360 1_555
O39 Si8 1.606360 1_555
O40 Si12 1.664447 1_654
O41 Si14 1.664447 1_456
O42 Si13 1.655295 1_655
O43 Si15 1.655295 1_455
O44 Si2 1.664951 1_555
O45 Si3 1.664951 1_555
O46 Si0 1.673099 1_555
O47 Si1 1.673099 1_555
O48 Si8 1.659049 1_555
O49 Si9 1.659049 1_555
O50 Si10 1.660341 1_555
O51 Si11 1.660341 1_555
O52 Si4 1.661102 1_465
O53 Si5 1.661102 1_645
O54 Si6 1.657192 1_455
O55 Si7 1.657192 1_655
O56 Si12 1.650832 1_555
O57 Si14 1.650832 1_555
O58 Si13 1.638462 1_555
O59 Si15 1.638462 1_555
O60 Si4 1.641880 1_555
O61 Si5 1.641880 1_555
O62 Si6 1.658091 1_555
O63 Si11 1.614261 1_555
