# generated using pymatgen
data_Na2CaSn2(GeO4)3
_symmetry_space_group_name_H-M   'P 1'
_cell_length_a   10.93171715
_cell_length_b   10.93171715
_cell_length_c   10.93171715
_cell_angle_alpha   109.59277804
_cell_angle_beta   109.59277804
_cell_angle_gamma   109.22837841
_symmetry_Int_Tables_number   1
_chemical_formula_structural   Na2CaSn2(GeO4)3
_chemical_formula_sum   'Na8 Ca4 Sn8 Ge12 O48'
_cell_volume   1005.62814396
_cell_formula_units_Z   4
loop_
 _symmetry_equiv_pos_site_id
 _symmetry_equiv_pos_as_xyz
  1  'x, y, z'
loop_
 _atom_site_type_symbol
 _atom_site_label
 _atom_site_symmetry_multiplicity
 _atom_site_fract_x
 _atom_site_fract_y
 _atom_site_fract_z
 _atom_site_occupancy
  Na  Na0  1  0.25109800  0.37500000  0.37609800  1
  Na  Na1  1  0.12500000  0.74890200  0.12390200  1
  Na  Na2  1  0.62500000  0.00109800  0.87609800  1
  Na  Na3  1  0.75109800  0.37500000  0.87609800  1
  Na  Na4  1  0.12500000  0.24890200  0.62390200  1
  Na  Na5  1  0.99890200  0.87500000  0.62390200  1
  Na  Na6  1  0.62500000  0.50109800  0.37609800  1
  Na  Na7  1  0.49890200  0.87500000  0.12390200  1
  Ca  Ca0  1  0.50000000  0.00000000  0.50000000  1
  Ca  Ca1  1  0.00000000  0.50000000  0.50000000  1
  Ca  Ca2  1  0.75000000  0.75000000  0.00000000  1
  Ca  Ca3  1  0.25000000  0.25000000  0.00000000  1
  Sn  Sn0  1  0.87500000  0.12500000  0.75000000  1
  Sn  Sn1  1  0.87500000  0.62500000  0.75000000  1
  Sn  Sn2  1  0.87500000  0.62500000  0.25000000  1
  Sn  Sn3  1  0.87500000  0.12500000  0.25000000  1
  Sn  Sn4  1  0.37500000  0.12500000  0.75000000  1
  Sn  Sn5  1  0.37500000  0.62500000  0.75000000  1
  Sn  Sn6  1  0.37500000  0.62500000  0.25000000  1
  Sn  Sn7  1  0.37500000  0.12500000  0.25000000  1
  Ge  Ge0  1  0.62500000  0.74972000  0.62472000  1
  Ge  Ge1  1  0.00000000  0.00000000  0.00000000  1
  Ge  Ge2  1  0.99972000  0.37500000  0.12472000  1
  Ge  Ge3  1  0.49972000  0.37500000  0.62472000  1
  Ge  Ge4  1  0.25000000  0.75000000  0.50000000  1
  Ge  Ge5  1  0.12500000  0.00028000  0.37528000  1
  Ge  Ge6  1  0.62500000  0.24972000  0.12472000  1
  Ge  Ge7  1  0.75028000  0.87500000  0.37528000  1
  Ge  Ge8  1  0.50000000  0.50000000  0.00000000  1
  Ge  Ge9  1  0.25028000  0.87500000  0.87528000  1
  Ge  Ge10  1  0.75000000  0.25000000  0.50000000  1
  Ge  Ge11  1  0.12500000  0.50028000  0.87528000  1
  O  O0  1  0.46242200  0.32785500  0.43884300  1
  O  O1  1  0.66888100  0.93646300  0.66162500  1
  O  O2  1  0.75254500  0.20671900  0.64398100  1
  O  O3  1  0.47642000  0.61098700  0.43884300  1
  O  O4  1  0.18726200  0.14143700  0.14398100  1
  O  O5  1  0.18646300  0.41888100  0.16162500  1
  O  O6  1  0.29328100  0.74745500  0.35601900  1
  O  O7  1  0.25254400  0.60856300  0.54582600  1
  O  O8  1  0.39143700  0.93726200  0.64398100  1
  O  O9  1  0.49274400  0.22516200  0.66162500  1
  O  O10  1  0.85856300  0.00254400  0.04582600  1
  O  O11  1  0.97642000  0.53757800  0.86543300  1
  O  O12  1  0.27483800  0.00725600  0.33837500  1
  O  O13  1  0.86098700  0.22642000  0.93884300  1
  O  O14  1  0.99274400  0.33111900  0.26758200  1
  O  O15  1  0.96242200  0.52358000  0.13456700  1
  O  O16  1  0.58111900  0.74274400  0.76758200  1
  O  O17  1  0.95671900  0.81273800  0.95417400  1
  O  O18  1  0.36098700  0.42214500  0.63456700  1
  O  O19  1  0.06273800  0.70671900  0.45417400  1
  O  O20  1  0.17214500  0.03757800  0.56115700  1
  O  O21  1  0.97516200  0.81353700  0.23241800  1
  O  O22  1  0.67214500  0.11098700  0.13456700  1
  O  O23  1  0.68646300  0.52483800  0.76758200  1
  O  O24  1  0.06353700  0.72516200  0.73241800  1
  O  O25  1  0.07785500  0.13901300  0.36543300  1
  O  O26  1  0.77483800  0.43646300  0.26758200  1
  O  O27  1  0.57785500  0.21242200  0.93884300  1
  O  O28  1  0.68726200  0.54328100  0.04582600  1
  O  O29  1  0.38901300  0.82785500  0.86543300  1
  O  O30  1  0.79328100  0.43726200  0.54582600  1
  O  O31  1  0.16888100  0.50725600  0.73241800  1
  O  O32  1  0.78757800  0.72642000  0.36543300  1
  O  O33  1  0.75725600  0.91888100  0.23241800  1
  O  O34  1  0.88901300  0.02358000  0.56115700  1
  O  O35  1  0.47516200  0.24274400  0.16162500  1
  O  O36  1  0.77358000  0.71242200  0.63456700  1
  O  O37  1  0.89143700  0.24745600  0.45417400  1
  O  O38  1  0.25725600  0.02483800  0.83837500  1
  O  O39  1  0.35856300  0.31273800  0.85601900  1
  O  O40  1  0.49745600  0.64143700  0.95417400  1
  O  O41  1  0.45671900  0.50254400  0.14398100  1
  O  O42  1  0.56353700  0.83111900  0.33837500  1
  O  O43  1  0.56273800  0.10856300  0.35601900  1
  O  O44  1  0.27358000  0.63901300  0.06115700  1
  O  O45  1  0.08111900  0.31353700  0.83837500  1
  O  O46  1  0.99745600  0.04328100  0.85601900  1
  O  O47  1  0.28757800  0.92214500  0.06115700  1
loop_
_geom_bond_atom_site_label_1
_geom_bond_atom_site_label_2
_geom_bond_distance
_geom_bond_site_symmetry_2
Na0 O18 2.455888 1_555
Na0 O0 2.455889 1_555
Na0 O5 2.468361 1_555
Na0 O14 2.468361 1_455
Na0 O3 2.586017 1_555
Na0 O25 2.586021 1_555
Na0 O4 2.595851 1_555
Na0 O7 2.595855 1_555
Na1 O11 2.455888 1_454
Na1 O44 2.455892 1_555
Na1 O21 2.468361 1_455
Na1 O12 2.468361 1_565
Na1 O15 2.586021 1_455
Na1 O47 2.586029 1_555
Na1 O6 2.595857 1_555
Na1 O17 2.595857 1_454
Na2 O22 2.455888 1_556
Na2 O27 2.455889 1_555
Na2 O1 2.468361 1_545
Na2 O16 2.468361 1_545
Na2 O13 2.586017 1_555
Na2 O29 2.586021 1_545
Na2 O8 2.595851 1_545
Na2 O10 2.595855 1_556
Na3 O15 2.455888 1_556
Na3 O13 2.455892 1_555
Na3 O23 2.468361 1_555
Na3 O9 2.468361 1_555
Na3 O11 2.586021 1_555
Na3 O27 2.586029 1_555
Na3 O2 2.595857 1_555
Na3 O28 2.595857 1_556
Na4 O25 2.455888 1_555
Na4 O20 2.455889 1_555
Na4 O31 2.468361 1_555
Na4 O45 2.468361 1_555
Na4 O34 2.586017 1_455
Na4 O18 2.586021 1_555
Na4 O39 2.595851 1_555
Na4 O37 2.595855 1_455
Na5 O32 2.455888 1_555
Na5 O34 2.455892 1_565
Na5 O38 2.468361 1_665
Na5 O24 2.468361 1_655
Na5 O36 2.586021 1_555
Na5 O20 2.586029 1_665
Na5 O46 2.595851 1_565
Na5 O19 2.595857 1_655
Na6 O36 2.455888 1_555
Na6 O3 2.455892 1_555
Na6 O26 2.468361 1_555
Na6 O35 2.468361 1_555
Na6 O32 2.586021 1_555
Na6 O0 2.586029 1_555
Na6 O41 2.595851 1_555
Na6 O30 2.595857 1_555
Na7 O29 2.455888 1_554
Na7 O47 2.455889 1_555
Na7 O33 2.468361 1_555
Na7 O42 2.468361 1_555
Na7 O44 2.586017 1_555
Na7 O22 2.586021 1_565
Na7 O43 2.595851 1_565
Na7 O40 2.595855 1_554
Ca0 O43 2.407651 1_555
Ca0 O8 2.407651 1_545
Ca0 O2 2.407658 1_555
Ca0 O6 2.407658 1_545
Ca0 O12 2.548031 1_555
Ca0 O42 2.548031 1_545
Ca0 O9 2.548031 1_555
Ca0 O1 2.548031 1_545
Ca1 O7 2.407647 1_555
Ca1 O37 2.407647 1_455
Ca1 O30 2.407658 1_455
Ca1 O19 2.407658 1_555
Ca1 O24 2.548031 1_555
Ca1 O14 2.548031 1_455
Ca1 O31 2.548031 1_555
Ca1 O26 2.548031 1_455
Ca2 O10 2.407647 1_565
Ca2 O40 2.407647 1_554
Ca2 O17 2.407658 1_554
Ca2 O28 2.407658 1_555
Ca2 O21 2.548031 1_555
Ca2 O23 2.548031 1_554
Ca2 O33 2.548031 1_555
Ca2 O16 2.548031 1_554
Ca3 O39 2.407651 1_554
Ca3 O41 2.407651 1_555
Ca3 O46 2.407651 1_454
Ca3 O4 2.407651 1_555
Ca3 O35 2.548031 1_555
Ca3 O38 2.548031 1_554
Ca3 O5 2.548031 1_555
Ca3 O45 2.548031 1_554
Ge0 O3 1.778856 1_555
Ge0 O36 1.778862 1_555
Ge0 O1 1.798089 1_555
Ge0 O16 1.798089 1_555
Ge1 O17 1.783459 1_444
Ge1 O4 1.783461 1_555
Ge1 O46 1.783461 1_454
Ge1 O10 1.783467 1_455
Ge2 O13 1.778856 1_554
Ge2 O15 1.778862 1_555
Ge2 O14 1.798089 1_555
Ge2 O5 1.798089 1_655
Ge3 O0 1.778851 1_555
Ge3 O18 1.778862 1_555
Ge3 O23 1.798089 1_555
Ge3 O9 1.798089 1_555
Ge4 O19 1.783459 1_555
Ge4 O6 1.783459 1_555
Ge4 O8 1.783461 1_555
Ge4 O7 1.783467 1_555
Ge5 O20 1.778851 1_555
Ge5 O25 1.778862 1_555
Ge5 O12 1.798089 1_555
Ge5 O21 1.798089 1_445
Ge6 O27 1.778851 1_554
Ge6 O22 1.778862 1_555
Ge6 O26 1.798089 1_555
Ge6 O35 1.798089 1_555
Ge7 O34 1.778856 1_565
Ge7 O32 1.778862 1_555
Ge7 O42 1.798089 1_555
Ge7 O33 1.798089 1_555
Ge8 O28 1.783459 1_555
Ge8 O41 1.783461 1_555
Ge8 O39 1.783461 1_554
Ge8 O40 1.783467 1_554
Ge9 O47 1.778851 1_556
Ge9 O29 1.778862 1_555
Ge9 O38 1.798089 1_565
Ge9 O24 1.798089 1_555
Ge10 O30 1.783459 1_555
Ge10 O2 1.783459 1_555
Ge10 O43 1.783461 1_555
Ge10 O37 1.783467 1_555
Ge11 O44 1.778856 1_556
Ge11 O11 1.778862 1_455
Ge11 O31 1.798089 1_555
Ge11 O45 1.798089 1_555
O0 Sn7 2.074432 1_555
O1 Sn0 2.098592 1_565
O2 Sn0 2.091590 1_555
O3 Sn6 2.074436 1_555
O4 Sn7 2.091596 1_555
O5 Sn6 2.098592 1_555
O6 Sn6 2.091590 1_555
O7 Sn5 2.091587 1_555
O8 Sn4 2.091596 1_565
O9 Sn4 2.098592 1_555
O10 Sn3 2.091587 1_555
O11 Sn1 2.074427 1_555
O12 Sn7 2.098592 1_555
O13 Sn0 2.074436 1_555
O14 Sn3 2.098592 1_555
O15 Sn2 2.074427 1_555
O16 Sn5 2.098592 1_555
O17 Sn1 2.091590 1_555
O18 Sn5 2.074427 1_555
O19 Sn2 2.091590 1_455
O20 Sn4 2.074432 1_555
O21 Sn2 2.098592 1_555
O22 Sn3 2.074427 1_555
O23 Sn1 2.098592 1_555
O24 Sn1 2.098592 1_455
O25 Sn3 2.074427 1_455
O26 Sn2 2.098592 1_555
O27 Sn4 2.074432 1_555
O28 Sn2 2.091590 1_555
O29 Sn5 2.074427 1_555
O30 Sn1 2.091590 1_555
O31 Sn5 2.098592 1_555
O32 Sn2 2.074427 1_555
O33 Sn3 2.098592 1_565
O34 Sn0 2.074436 1_555
O35 Sn7 2.098592 1_555
O36 Sn1 2.074427 1_555
O37 Sn3 2.091587 1_555
O38 Sn4 2.098592 1_555
O39 Sn4 2.091596 1_555
O40 Sn5 2.091587 1_555
O41 Sn6 2.091596 1_555
O42 Sn6 2.098592 1_555
O43 Sn7 2.091596 1_555
O44 Sn6 2.074436 1_555
O45 Sn0 2.098592 1_455
O46 Sn0 2.091596 1_555
O47 Sn7 2.074432 1_565
