# generated using pymatgen
data_Rb2Cr2As2O9
_symmetry_space_group_name_H-M   'P 1'
_cell_length_a   5.79671900
_cell_length_b   8.72752000
_cell_length_c   18.77150100
_cell_angle_alpha   90.00000000
_cell_angle_beta   90.00000000
_cell_angle_gamma   90.00000000
_symmetry_Int_Tables_number   1
_chemical_formula_structural   Rb2Cr2As2O9
_chemical_formula_sum   'Rb8 Cr8 As8 O36'
_cell_volume   949.66865056
_cell_formula_units_Z   4
loop_
 _symmetry_equiv_pos_site_id
 _symmetry_equiv_pos_as_xyz
  1  'x, y, z'
loop_
 _atom_site_type_symbol
 _atom_site_label
 _atom_site_symmetry_multiplicity
 _atom_site_fract_x
 _atom_site_fract_y
 _atom_site_fract_z
 _atom_site_occupancy
  Rb  Rb0  1  0.75000000  0.46104000  0.76814400  1
  Rb  Rb1  1  0.25000000  0.53896000  0.23185600  1
  Rb  Rb2  1  0.25000000  0.03896000  0.26814400  1
  Rb  Rb3  1  0.75000000  0.39399100  0.36159200  1
  Rb  Rb4  1  0.25000000  0.10600900  0.86159200  1
  Rb  Rb5  1  0.75000000  0.89399100  0.13840800  1
  Rb  Rb6  1  0.25000000  0.60600900  0.63840800  1
  Rb  Rb7  1  0.75000000  0.96104000  0.73185600  1
  Cr  Cr0  1  0.00000000  0.50000000  0.00000000  1
  Cr  Cr1  1  0.75000000  0.77746400  0.94117700  1
  Cr  Cr2  1  0.25000000  0.22253600  0.05882300  1
  Cr  Cr3  1  0.25000000  0.72253600  0.44117700  1
  Cr  Cr4  1  0.50000000  0.50000000  0.00000000  1
  Cr  Cr5  1  0.75000000  0.27746400  0.55882300  1
  Cr  Cr6  1  0.00000000  0.00000000  0.50000000  1
  Cr  Cr7  1  0.50000000  0.00000000  0.50000000  1
  As  As0  1  0.75000000  0.17584500  0.94644500  1
  As  As1  1  0.25000000  0.32415500  0.44644500  1
  As  As2  1  0.25000000  0.68052000  0.85994200  1
  As  As3  1  0.25000000  0.82415500  0.05355500  1
  As  As4  1  0.75000000  0.31948000  0.14005800  1
  As  As5  1  0.75000000  0.67584500  0.55355500  1
  As  As6  1  0.75000000  0.81948000  0.35994200  1
  As  As7  1  0.25000000  0.18052000  0.64005800  1
  O  O0  1  0.50769900  0.20308700  0.13160600  1
  O  O1  1  0.25000000  0.94708900  0.43400300  1
  O  O2  1  0.25000000  0.53553300  0.92658800  1
  O  O3  1  0.75000000  0.55291100  0.93400300  1
  O  O4  1  0.25000000  0.03553300  0.57341200  1
  O  O5  1  0.25000000  0.08702500  0.71824000  1
  O  O6  1  0.75000000  0.49419600  0.52203100  1
  O  O7  1  0.25000000  0.58702500  0.78176000  1
  O  O8  1  0.25000000  0.44708900  0.06599700  1
  O  O9  1  0.25000000  0.31096100  0.35683000  1
  O  O10  1  0.49230100  0.29691300  0.63160600  1
  O  O11  1  0.00316500  0.22974800  0.48009500  1
  O  O12  1  0.25000000  0.00580400  0.02203100  1
  O  O13  1  0.99230100  0.20308700  0.13160600  1
  O  O14  1  0.25000000  0.81096100  0.14317000  1
  O  O15  1  0.75000000  0.96446700  0.42658800  1
  O  O16  1  0.00769900  0.79691300  0.86839400  1
  O  O17  1  0.00316500  0.72974800  0.01990500  1
  O  O18  1  0.99683500  0.77025200  0.51990500  1
  O  O19  1  0.75000000  0.68903900  0.64317000  1
  O  O20  1  0.75000000  0.99419600  0.97796900  1
  O  O21  1  0.49230100  0.79691300  0.86839400  1
  O  O22  1  0.00769900  0.29691300  0.63160600  1
  O  O23  1  0.99230100  0.70308700  0.36839400  1
  O  O24  1  0.50316500  0.77025200  0.51990500  1
  O  O25  1  0.75000000  0.05291100  0.56599700  1
  O  O26  1  0.25000000  0.50580400  0.47796900  1
  O  O27  1  0.99683500  0.27025200  0.98009500  1
  O  O28  1  0.75000000  0.41297500  0.21824000  1
  O  O29  1  0.49683500  0.22974800  0.48009500  1
  O  O30  1  0.49683500  0.72974800  0.01990500  1
  O  O31  1  0.50769900  0.70308700  0.36839400  1
  O  O32  1  0.75000000  0.91297500  0.28176000  1
  O  O33  1  0.50316500  0.27025200  0.98009500  1
  O  O34  1  0.75000000  0.46446700  0.07341200  1
  O  O35  1  0.75000000  0.18903900  0.85683000  1
loop_
_geom_bond_atom_site_label_1
_geom_bond_atom_site_label_2
_geom_bond_distance
_geom_bond_site_symmetry_2
Cr0 O3 1.961669 1_454
Cr0 O8 1.961669 1_555
Cr0 O34 2.023691 1_455
Cr0 O2 2.023691 1_554
Cr0 O27 2.039729 1_454
Cr0 O17 2.039729 1_555
Cr1 O3 1.964412 1_555
Cr1 O20 2.013674 1_555
Cr1 O16 2.031479 1_655
Cr1 O21 2.031479 1_555
Cr1 O30 2.123930 1_556
Cr1 O17 2.123930 1_656
Cr2 O8 1.964412 1_555
Cr2 O12 2.013674 1_555
Cr2 O0 2.031479 1_555
Cr2 O13 2.031479 1_455
Cr2 O27 2.123930 1_454
Cr2 O33 2.123930 1_554
Cr3 O1 1.964412 1_555
Cr3 O26 2.013674 1_555
Cr3 O31 2.031479 1_555
Cr3 O23 2.031479 1_455
Cr3 O24 2.123930 1_555
Cr3 O18 2.123930 1_455
Cr4 O3 1.961669 1_554
Cr4 O8 1.961669 1_555
Cr4 O34 2.023691 1_555
Cr4 O2 2.023691 1_554
Cr4 O33 2.039729 1_554
Cr4 O30 2.039729 1_555
Cr5 O25 1.964412 1_555
Cr5 O6 2.013674 1_555
Cr5 O22 2.031479 1_655
Cr5 O10 2.031479 1_555
Cr5 O29 2.123930 1_555
Cr5 O11 2.123930 1_655
Cr6 O1 1.961669 1_545
Cr6 O25 1.961669 1_455
Cr6 O15 2.023691 1_445
Cr6 O4 2.023691 1_555
Cr6 O18 2.039729 1_445
Cr6 O11 2.039729 1_555
Cr7 O1 1.961669 1_545
Cr7 O25 1.961669 1_555
Cr7 O15 2.023691 1_545
Cr7 O4 2.023691 1_555
Cr7 O24 2.039729 1_545
Cr7 O29 2.039729 1_555
As0 O35 1.686145 1_555
As0 O20 1.692185 1_545
As0 O33 1.767811 1_555
As0 O27 1.767811 1_555
As1 O9 1.686145 1_555
As1 O26 1.692185 1_555
As1 O11 1.767811 1_555
As1 O29 1.767811 1_555
As2 O7 1.679182 1_555
As2 O21 1.740641 1_555
As2 O16 1.740641 1_555
As2 O2 1.779408 1_555
As3 O14 1.686145 1_555
As3 O12 1.692185 1_565
As3 O17 1.767811 1_555
As3 O30 1.767811 1_555
As4 O28 1.679182 1_555
As4 O13 1.740641 1_555
As4 O0 1.740641 1_555
As4 O34 1.779408 1_555
As5 O19 1.686145 1_555
As5 O6 1.692185 1_555
As5 O18 1.767811 1_555
As5 O24 1.767811 1_555
As6 O32 1.679182 1_555
As6 O31 1.740641 1_555
As6 O23 1.740641 1_555
As6 O15 1.779408 1_555
As7 O5 1.679182 1_555
As7 O22 1.740641 1_555
As7 O10 1.740641 1_555
As7 O4 1.779408 1_555
O0 Rb5 3.044066 1_545
O0 Rb2 3.294296 1_555
O1 Rb2 3.215010 1_565
O3 Rb0 3.215010 1_555
O5 Rb4 2.696028 1_555
O5 Rb7 3.110433 1_545
O5 Rb7 3.110433 1_445
O6 Rb3 3.136087 1_555
O7 Rb6 2.696028 1_555
O7 Rb0 3.110433 1_555
O7 Rb0 3.110433 1_455
O8 Rb1 3.215010 1_555
O9 Rb2 2.899453 1_555
O9 Rb3 2.988911 1_555
O9 Rb3 2.988911 1_455
O9 Rb1 3.076206 1_555
O10 Rb6 3.044066 1_555
O10 Rb0 3.294296 1_555
O11 Rb3 3.026000 1_455
O12 Rb4 3.136087 1_554
O13 Rb5 3.044066 1_545
O13 Rb2 3.294296 1_655
O14 Rb1 2.899453 1_555
O14 Rb5 2.988911 1_555
O14 Rb5 2.988911 1_455
O14 Rb2 3.076206 1_565
O16 Rb4 3.044066 1_565
O16 Rb7 3.294296 1_455
O17 Rb5 3.026000 1_455
O18 Rb6 3.026000 1_655
O19 Rb7 2.899453 1_555
O19 Rb6 2.988911 1_555
O19 Rb6 2.988911 1_655
O19 Rb0 3.076206 1_555
O20 Rb5 3.136087 1_556
O21 Rb4 3.044066 1_565
O21 Rb7 3.294296 1_555
O22 Rb6 3.044066 1_555
O22 Rb0 3.294296 1_455
O23 Rb3 3.044066 1_555
O23 Rb1 3.294296 1_655
O24 Rb6 3.026000 1_555
O25 Rb7 3.215010 1_545
O26 Rb6 3.136087 1_555
O27 Rb4 3.026000 1_655
O28 Rb3 2.696028 1_555
O28 Rb1 3.110433 1_655
O28 Rb1 3.110433 1_555
O29 Rb3 3.026000 1_555
O30 Rb5 3.026000 1_555
O31 Rb3 3.044066 1_555
O31 Rb1 3.294296 1_555
O32 Rb5 2.696028 1_555
O32 Rb2 3.110433 1_665
O32 Rb2 3.110433 1_565
O33 Rb4 3.026000 1_555
O35 Rb0 2.899453 1_555
O35 Rb4 2.988911 1_555
O35 Rb4 2.988911 1_655
O35 Rb7 3.076206 1_545
