# generated using pymatgen
data_SrLa4TiCr4O15
_symmetry_space_group_name_H-M   'P 1'
_cell_length_a   5.55539300
_cell_length_b   5.60044500
_cell_length_c   39.25344980
_cell_angle_alpha   90.03977750
_cell_angle_beta   90.09079674
_cell_angle_gamma   90.06847326
_symmetry_Int_Tables_number   1
_chemical_formula_structural   SrLa4TiCr4O15
_chemical_formula_sum   'Sr4 La16 Ti4 Cr16 O60'
_cell_volume   1221.27704408
_cell_formula_units_Z   4
loop_
 _symmetry_equiv_pos_site_id
 _symmetry_equiv_pos_as_xyz
  1  'x, y, z'
loop_
 _atom_site_type_symbol
 _atom_site_label
 _atom_site_symmetry_multiplicity
 _atom_site_fract_x
 _atom_site_fract_y
 _atom_site_fract_z
 _atom_site_occupancy
  Sr  Sr0  1  0.98883000  0.00562200  0.04909600  1
  Sr  Sr1  1  0.98907800  0.00818300  0.24893400  1
  Sr  Sr2  1  0.98793500  0.00655100  0.44918600  1
  Sr  Sr3  1  0.98771500  0.00635600  0.64904300  1
  La  La0  1  0.98236300  0.00694800  0.85107800  1
  La  La1  1  0.51482200  0.50073800  0.35059200  1
  La  La2  1  0.51288000  0.50101600  0.15062600  1
  La  La3  1  0.51272200  0.50059600  0.55071500  1
  La  La4  1  0.51401900  0.50466100  0.75083100  1
  La  La5  1  0.51517700  0.50446600  0.95086800  1
  La  La6  1  0.48835200  0.49325200  0.04808600  1
  La  La7  1  0.48012900  0.49265200  0.24836300  1
  La  La8  1  0.48675600  0.49322400  0.64841400  1
  La  La9  1  0.48700300  0.49412200  0.44828100  1
  La  La10  1  0.48224900  0.49213400  0.85101300  1
  La  La11  1  0.01616100  0.99258600  0.15084000  1
  La  La12  1  0.01628900  0.99302100  0.55090100  1
  La  La13  1  0.01689400  0.99346700  0.75087000  1
  La  La14  1  0.01391200  0.99249400  0.35100200  1
  La  La15  1  0.01631200  0.99307700  0.95120900  1
  Ti  Ti0  1  0.00009300  0.49773400  0.09898900  1
  Ti  Ti1  1  0.99973800  0.49825200  0.49907400  1
  Ti  Ti2  1  0.99997000  0.49758000  0.69912000  1
  Ti  Ti3  1  0.50064900  0.00185000  0.29938700  1
  Cr  Cr0  1  0.00059000  0.49923200  0.99969400  1
  Cr  Cr1  1  0.00021900  0.49936100  0.39981300  1
  Cr  Cr2  1  0.99985600  0.49991500  0.59994700  1
  Cr  Cr3  1  0.99939700  0.49997100  0.80028200  1
  Cr  Cr4  1  0.99952800  0.50066400  0.90007900  1
  Cr  Cr5  1  0.50088800  0.99954700  0.09975700  1
  Cr  Cr6  1  0.50101300  0.00079300  0.00004000  1
  Cr  Cr7  1  0.50139900  0.99996600  0.19984300  1
  Cr  Cr8  1  0.50061600  0.99967400  0.49997800  1
  Cr  Cr9  1  0.50107700  0.99993600  0.60024100  1
  Cr  Cr10  1  0.49976000  0.99909200  0.90010500  1
  Cr  Cr11  1  0.50070300  0.00040400  0.40030400  1
  Cr  Cr12  1  0.50057200  0.00027500  0.69997100  1
  Cr  Cr13  1  0.49999200  0.99920100  0.80021600  1
  Cr  Cr14  1  0.99909200  0.49930300  0.20031000  1
  Cr  Cr15  1  0.99973900  0.50016800  0.29986100  1
  O  O0  1  0.00692900  0.55924500  0.05080600  1
  O  O1  1  0.00709700  0.56016600  0.45082200  1
  O  O2  1  0.00697900  0.56116600  0.65112200  1
  O  O3  1  0.99047000  0.41940200  0.94980500  1
  O  O4  1  0.00972800  0.58202000  0.85010700  1
  O  O5  1  0.76545100  0.76540100  0.19090300  1
  O  O6  1  0.76638000  0.76539700  0.59095100  1
  O  O7  1  0.76550000  0.76430400  0.39097700  1
  O  O8  1  0.76603000  0.75957200  0.10838400  1
  O  O9  1  0.75894900  0.76476900  0.30858500  1
  O  O10  1  0.76880400  0.76837500  0.79091000  1
  O  O11  1  0.76566300  0.75896500  0.50842100  1
  O  O12  1  0.76367900  0.76248200  0.99105000  1
  O  O13  1  0.76514800  0.75897000  0.70888800  1
  O  O14  1  0.77013900  0.76968500  0.90872400  1
  O  O15  1  0.72972900  0.27159800  0.00715100  1
  O  O16  1  0.73411800  0.27214300  0.09320700  1
  O  O17  1  0.72508300  0.27486200  0.20737100  1
  O  O18  1  0.72889900  0.26419600  0.29322000  1
  O  O19  1  0.72626700  0.27450100  0.40710400  1
  O  O20  1  0.73488700  0.27176000  0.69337300  1
  O  O21  1  0.73431800  0.27196400  0.49335000  1
  O  O22  1  0.72665400  0.27499800  0.60726400  1
  O  O23  1  0.72999700  0.26940100  0.80885600  1
  O  O24  1  0.73161200  0.26770600  0.89089500  1
  O  O25  1  0.50383500  0.91755800  0.05005500  1
  O  O26  1  0.50325900  0.92824500  0.25086400  1
  O  O27  1  0.50447300  0.91674100  0.65033500  1
  O  O28  1  0.50911900  0.91719800  0.85010600  1
  O  O29  1  0.49365900  0.07522700  0.14984100  1
  O  O30  1  0.49588000  0.06819600  0.34944500  1
  O  O31  1  0.50375400  0.91817000  0.45008600  1
  O  O32  1  0.49318400  0.07507700  0.54993200  1
  O  O33  1  0.49072800  0.07986000  0.75024900  1
  O  O34  1  0.49106100  0.07895700  0.94981800  1
  O  O35  1  0.26785400  0.73338300  0.19111900  1
  O  O36  1  0.25911900  0.73626300  0.10847500  1
  O  O37  1  0.26636700  0.73390400  0.59117800  1
  O  O38  1  0.26720200  0.73293600  0.39105800  1
  O  O39  1  0.25966500  0.73567800  0.70885600  1
  O  O40  1  0.26724300  0.73232500  0.79086400  1
  O  O41  1  0.26572400  0.74096000  0.30863800  1
  O  O42  1  0.25932500  0.73558100  0.50848500  1
  O  O43  1  0.26562200  0.73482200  0.99120900  1
  O  O44  1  0.26867500  0.73139300  0.90881300  1
  O  O45  1  0.24211700  0.24270300  0.00702200  1
  O  O46  1  0.23993700  0.24718000  0.09379600  1
  O  O47  1  0.24036800  0.24011500  0.20681800  1
  O  O48  1  0.23925800  0.24713000  0.69372400  1
  O  O49  1  0.24560800  0.23881500  0.29372500  1
  O  O50  1  0.24042400  0.24092100  0.40689800  1
  O  O51  1  0.23948300  0.24706400  0.49387700  1
  O  O52  1  0.23983700  0.24129700  0.60701600  1
  O  O53  1  0.23206300  0.23272900  0.89100000  1
  O  O54  1  0.22969600  0.23055700  0.80871800  1
  O  O55  1  0.01600300  0.56962100  0.25015300  1
  O  O56  1  0.99202700  0.42664300  0.14943900  1
  O  O57  1  0.98958000  0.41908200  0.34983300  1
  O  O58  1  0.99239500  0.42690600  0.54956800  1
  O  O59  1  0.99245100  0.42562800  0.74978800  1
loop_
_geom_bond_atom_site_label_1
_geom_bond_atom_site_label_2
_geom_bond_distance
_geom_bond_site_symmetry_2
La0 O4 2.385100 1_645
La0 O53 2.442348 1_655
La0 O54 2.495413 1_655
La0 O24 2.554326 1_555
La0 O23 2.621800 1_555
La0 O28 2.676292 1_545
La1 O30 2.424970 1_555
La1 O38 2.472825 1_555
La1 O41 2.537194 1_555
La1 O7 2.572172 1_555
La1 O9 2.598169 1_555
La1 O57 2.677567 1_555
La1 O19 2.811619 1_555
La1 O18 2.872136 1_555
La1 O57 2.953105 1_455
La1 O50 3.055470 1_555
La1 O49 3.057941 1_555
La1 O30 3.180232 1_565
La2 O29 2.387045 1_555
La2 O35 2.465997 1_555
La2 O36 2.541816 1_555
La2 O5 2.577891 1_555
La2 O8 2.613408 1_555
La2 O56 2.695204 1_555
La2 O17 2.820383 1_555
La2 O16 2.870916 1_555
La2 O56 2.923169 1_455
La2 O46 3.045684 1_555
La2 O47 3.049908 1_555
La2 O29 3.217904 1_565
La3 O32 2.385611 1_555
La3 O37 2.472116 1_555
La3 O42 2.541953 1_555
La3 O6 2.581524 1_555
La3 O11 2.613501 1_555
La3 O58 2.697469 1_555
La3 O22 2.816942 1_555
La3 O21 2.869505 1_555
La3 O58 2.919717 1_455
La3 O51 3.045937 1_555
La3 O52 3.049756 1_555
La3 O32 3.219476 1_565
La4 O33 2.382528 1_555
La4 O40 2.445971 1_555
La4 O39 2.526921 1_555
La4 O10 2.577698 1_555
La4 O13 2.586750 1_555
La4 O59 2.695373 1_555
La4 O20 2.881376 1_555
La4 O23 2.891834 1_555
La4 O59 2.930822 1_455
La4 O48 3.068305 1_555
La4 O54 3.166237 1_555
La4 O33 3.224218 1_565
La5 O34 2.386967 1_555
La5 O43 2.470289 1_555
La5 O44 2.493096 1_555
La5 O12 2.543005 1_555
La5 O14 2.637231 1_555
La5 O3 2.684016 1_555
La5 O15 2.828764 1_556
La5 O3 2.953289 1_455
La5 O24 2.958775 1_555
La5 O45 3.052657 1_556
La5 O53 3.207798 1_555
La5 O34 3.220643 1_565
La6 O25 2.378954 1_555
La6 O15 2.434970 1_555
La6 O45 2.534499 1_555
La6 O16 2.556157 1_555
La6 O46 2.651391 1_555
La6 O0 2.702615 1_555
La6 O43 2.888841 1_554
La6 O0 2.905856 1_655
La6 O36 3.017015 1_555
La6 O12 3.104115 1_554
La6 O8 3.191319 1_555
La6 O25 3.226369 1_545
La7 O17 2.436565 1_555
La7 O26 2.444639 1_555
La7 O47 2.533634 1_555
La7 O18 2.578178 1_555
La7 O55 2.615740 1_555
La7 O49 2.625912 1_555
La8 O27 2.374948 1_555
La8 O22 2.426303 1_555
La8 O52 2.549136 1_555
La8 O20 2.559770 1_555
La8 O48 2.638175 1_555
La8 O2 2.695077 1_555
La8 O37 2.891892 1_555
La8 O2 2.916295 1_655
La8 O39 3.012221 1_555
La8 O6 3.136020 1_555
La8 O13 3.196853 1_555
La8 O27 3.231108 1_545
La9 O31 2.377571 1_555
La9 O19 2.429020 1_555
La9 O50 2.551699 1_555
La9 O21 2.562203 1_555
La9 O51 2.648649 1_555
La9 O1 2.694033 1_555
La9 O38 2.885247 1_555
La9 O1 2.914009 1_655
La9 O42 3.003729 1_555
La9 O7 3.123006 1_555
La9 O11 3.185512 1_555
La9 O31 3.227864 1_545
La10 O28 2.385339 1_555
La10 O24 2.439201 1_555
La10 O23 2.489411 1_555
La10 O53 2.551732 1_555
La10 O54 2.618252 1_555
La10 O4 2.673649 1_555
La11 O56 2.435421 1_465
La11 O5 2.457092 1_455
La11 O8 2.529145 1_455
La11 O35 2.561891 1_555
La11 O36 2.579999 1_555
La11 O29 2.692569 1_565
La11 O47 2.878262 1_565
La11 O46 2.932813 1_565
La11 O29 2.940121 1_465
La11 O16 3.166040 1_465
La11 O17 3.170292 1_465
La11 O56 3.172642 1_455
La12 O58 2.434325 1_465
La12 O6 2.455518 1_455
La12 O11 2.534279 1_455
La12 O37 2.556685 1_555
La12 O42 2.585003 1_555
La12 O32 2.688692 1_565
La12 O52 2.882802 1_565
La12 O51 2.929342 1_565
La12 O32 2.942898 1_465
La12 O22 3.160738 1_465
La12 O21 3.161840 1_465
La12 O58 3.173507 1_455
La13 O59 2.424660 1_465
La13 O10 2.442216 1_455
La13 O13 2.526195 1_455
La13 O40 2.557137 1_555
La13 O39 2.575183 1_555
La13 O33 2.676014 1_565
La13 O54 2.881051 1_565
La13 O48 2.930026 1_565
La13 O33 2.963467 1_465
La13 O20 3.158624 1_465
La13 O23 3.181471 1_465
La13 O59 3.183138 1_455
La14 O57 2.393533 1_465
La14 O7 2.450582 1_455
La14 O9 2.527908 1_455
La14 O38 2.562492 1_555
La14 O41 2.591444 1_555
La14 O30 2.711170 1_565
La14 O50 2.883773 1_565
La14 O30 2.909986 1_465
La14 O49 2.936665 1_565
La14 O19 3.148010 1_465
La14 O18 3.156912 1_465
La14 O57 3.214337 1_455
La15 O3 2.392761 1_465
La15 O12 2.467539 1_455
La15 O14 2.490479 1_455
La15 O43 2.544908 1_555
La15 O44 2.625225 1_555
La15 O34 2.680996 1_565
La15 O15 3.130837 1_466
Cr0 O45 1.987739 1_556
Cr0 O15 1.993112 1_456
Cr0 O43 2.004278 1_555
Cr0 O12 2.006207 1_455
Cr0 O3 2.009084 1_455
Cr0 O0 2.034292 1_556
Cr1 O50 1.989212 1_555
Cr1 O19 1.995319 1_455
Cr1 O7 2.006531 1_455
Cr1 O38 2.006680 1_555
Cr1 O57 2.013201 1_455
Cr1 O1 2.031090 1_555
Cr2 O52 1.989015 1_655
Cr2 O22 1.992495 1_555
Cr2 O6 2.005380 1_555
Cr2 O37 2.006351 1_655
Cr2 O58 2.019451 1_555
Cr2 O2 2.037954 1_655
Cr3 O23 2.004538 1_555
Cr3 O54 2.006759 1_655
Cr3 O4 2.009463 1_655
Cr3 O10 2.009930 1_555
Cr3 O40 2.010451 1_655
Cr3 O59 2.025337 1_555
Cr4 O14 2.003577 1_555
Cr4 O44 2.004021 1_655
Cr4 O3 2.005273 1_555
Cr4 O24 2.010074 1_555
Cr4 O53 2.013165 1_655
Cr4 O4 2.014972 1_655
Cr5 O25 2.004068 1_555
Cr5 O29 2.011324 1_565
Cr5 O16 2.018035 1_565
Cr5 O46 2.020863 1_565
Cr5 O36 2.023038 1_555
Cr5 O8 2.023448 1_555
Cr6 O45 1.996150 1_555
Cr6 O15 1.996547 1_555
Cr6 O12 2.010162 1_544
Cr6 O43 2.010518 1_544
Cr6 O25 2.018200 1_545
Cr6 O34 2.020386 1_554
Cr7 O47 1.998028 1_565
Cr7 O17 1.998830 1_565
Cr7 O5 2.001575 1_555
Cr7 O35 2.005706 1_555
Cr7 O29 2.008189 1_565
Cr7 O26 2.042918 1_555
Cr8 O32 2.006036 1_565
Cr8 O31 2.010722 1_555
Cr8 O21 2.018820 1_565
Cr8 O51 2.021294 1_565
Cr8 O42 2.023185 1_555
Cr8 O11 2.024611 1_555
Cr9 O52 2.002387 1_565
Cr9 O22 2.003292 1_565
Cr9 O6 2.009044 1_555
Cr9 O37 2.009895 1_555
Cr9 O32 2.019847 1_565
Cr9 O27 2.021188 1_555
Cr10 O34 2.002379 1_565
Cr10 O44 2.002524 1_555
Cr10 O14 2.006221 1_555
Cr10 O24 2.012563 1_565
Cr10 O53 2.013728 1_565
Cr10 O28 2.015965 1_555
Cr11 O50 1.994379 1_555
Cr11 O19 1.997923 1_555
Cr11 O31 2.008014 1_545
Cr11 O38 2.012798 1_545
Cr11 O7 2.012984 1_545
Cr11 O30 2.032572 1_555
Cr12 O27 2.003603 1_545
Cr12 O20 2.017460 1_555
Cr12 O48 2.020646 1_555
Cr12 O33 2.023825 1_555
Cr12 O39 2.026362 1_545
Cr12 O13 2.028052 1_545
Cr13 O23 2.007711 1_565
Cr13 O40 2.008397 1_555
Cr13 O10 2.010071 1_555
Cr13 O28 2.012369 1_555
Cr13 O54 2.012623 1_565
Cr13 O33 2.013621 1_565
Cr14 O17 1.992792 1_555
Cr14 O47 1.993243 1_655
Cr14 O55 1.997524 1_655
Cr14 O5 2.011426 1_555
Cr14 O35 2.018843 1_655
Cr14 O56 2.037934 1_555
Cr15 O55 1.992037 1_655
Cr15 O57 2.014623 1_555
Cr15 O49 2.017777 1_655
Cr15 O18 2.017885 1_555
Cr15 O9 2.026852 1_555
Cr15 O41 2.028225 1_655
O0 Ti0 1.923127 1_555
O0 Sr0 2.502994 1_465
O0 Sr0 3.102721 1_455
O1 Ti1 1.926261 1_455
O1 Sr2 2.503211 1_465
O1 Sr2 3.102807 1_455
O2 Ti2 1.918136 1_455
O2 Sr3 2.497071 1_465
O2 Sr3 3.109907 1_455
O5 Sr1 2.926388 1_565
O6 Sr3 2.918169 1_565
O7 Sr2 2.927648 1_565
O8 Ti0 1.995620 1_655
O8 Sr0 2.975987 1_565
O9 Ti3 1.988966 1_565
O9 Sr1 2.997541 1_565
O11 Ti1 1.990685 1_555
O11 Sr2 2.977134 1_565
O12 Sr0 2.931363 1_566
O13 Ti2 1.999296 1_555
O13 Sr3 2.996054 1_565
O15 Sr0 2.646260 1_555
O16 Ti0 1.955782 1_655
O16 Sr0 2.690280 1_555
O17 Sr1 2.654111 1_555
O18 Ti3 1.955043 1_555
O18 Sr1 2.678867 1_555
O19 Sr2 2.663601 1_555
O20 Ti2 1.952718 1_555
O20 Sr3 2.686861 1_555
O21 Ti1 1.955720 1_555
O21 Sr2 2.684976 1_555
O22 Sr3 2.656601 1_555
O25 Sr0 2.738848 1_565
O25 Sr0 2.904024 1_465
O26 Ti3 1.948592 1_565
O26 Sr1 2.736442 1_565
O26 Sr1 2.892758 1_465
O27 Sr3 2.731077 1_565
O27 Sr3 2.915293 1_465
O30 Ti3 1.999741 1_555
O31 Sr2 2.734684 1_565
O31 Sr2 2.908758 1_465
O35 Sr1 3.151090 1_465
O36 Ti0 1.996724 1_555
O36 Sr0 3.156315 1_465
O37 Sr3 3.145765 1_465
O38 Sr2 3.158072 1_465
O39 Ti2 1.999627 1_455
O39 Sr3 3.176813 1_465
O41 Ti3 1.991896 1_565
O41 Sr1 3.176958 1_465
O42 Ti1 1.993947 1_455
O42 Sr2 3.161242 1_465
O43 Sr0 3.136815 1_466
O45 Sr0 2.544889 1_455
O46 Ti0 1.947012 1_555
O46 Sr0 2.615212 1_455
O47 Sr1 2.524893 1_455
O48 Ti2 1.945332 1_455
O48 Sr3 2.613739 1_455
O49 Ti3 1.954992 1_555
O49 Sr1 2.602902 1_455
O50 Sr2 2.540038 1_455
O51 Ti1 1.949216 1_455
O51 Sr2 2.613264 1_455
O52 Sr3 2.533871 1_455
O55 Sr1 2.461365 1_465
O55 Sr1 3.148007 1_455
O56 Ti0 2.020790 1_655
O58 Ti1 2.022675 1_555
O59 Ti2 2.030064 1_555
