# generated using pymatgen
data_H9BrO4
_symmetry_space_group_name_H-M   'P 1'
_cell_length_a   7.45465400
_cell_length_b   11.59689519
_cell_length_c   7.16129136
_cell_angle_alpha   90.00023311
_cell_angle_beta   109.12273755
_cell_angle_gamma   90.01047410
_symmetry_Int_Tables_number   1
_chemical_formula_structural   H9BrO4
_chemical_formula_sum   'H36 Br4 O16'
_cell_volume   584.93710131
_cell_formula_units_Z   4
loop_
 _symmetry_equiv_pos_site_id
 _symmetry_equiv_pos_as_xyz
  1  'x, y, z'
loop_
 _atom_site_type_symbol
 _atom_site_label
 _atom_site_symmetry_multiplicity
 _atom_site_fract_x
 _atom_site_fract_y
 _atom_site_fract_z
 _atom_site_occupancy
  H  H0  1  0.35231500  0.99018600  0.30894800  1
  H  H1  1  0.16726600  0.00157600  0.24996500  1
  H  H2  1  0.64748100  0.00984300  0.80888100  1
  H  H3  1  0.83266600  0.99846600  0.75010900  1
  H  H4  1  0.88153100  0.11465900  0.30659900  1
  H  H5  1  0.97551900  0.17450800  0.18189000  1
  H  H6  1  0.11748900  0.88272900  0.80717600  1
  H  H7  1  0.02476100  0.82540500  0.68198000  1
  H  H8  1  0.63226300  0.83373000  0.18751700  1
  H  H9  1  0.62584200  0.83835800  0.32106800  1
  H  H10  1  0.36370100  0.16530600  0.68832500  1
  H  H11  1  0.37339000  0.16289700  0.82158100  1
  H  H12  1  0.66333800  0.35486800  0.30326200  1
  H  H13  1  0.66663700  0.56781100  0.25010800  1
  H  H14  1  0.33684400  0.64499900  0.80335100  1
  H  H15  1  0.33368600  0.43222900  0.75007500  1
  H  H16  1  0.18872800  0.71814300  0.23604900  1
  H  H17  1  0.99273300  0.53774600  0.24443600  1
  H  H18  1  0.81104800  0.28188500  0.73591500  1
  H  H19  1  0.00727900  0.46189400  0.74443000  1
  H  H20  1  0.34705600  0.37430700  0.36594000  1
  H  H21  1  0.20590600  0.49934200  0.32152900  1
  H  H22  1  0.65278200  0.62568100  0.86593600  1
  H  H23  1  0.79405900  0.50058400  0.82146200  1
  H  H24  1  0.52236500  0.83276900  0.54108500  1
  H  H25  1  0.40336300  0.61124700  0.49191700  1
  H  H26  1  0.40537200  0.64281800  0.64117600  1
  H  H27  1  0.47763600  0.16719600  0.04111300  1
  H  H28  1  0.59473700  0.35731900  0.14129100  1
  H  H29  1  0.59656400  0.38865200  0.99199100  1
  H  H30  1  0.02688800  0.05360200  0.50678800  1
  H  H31  1  0.13729400  0.31182000  0.46720300  1
  H  H32  1  0.93744300  0.22762000  0.55291500  1
  H  H33  1  0.06240700  0.77219200  0.05325600  1
  H  H34  1  0.97337600  0.94646300  0.00673300  1
  H  H35  1  0.86276900  0.68812900  0.96718000  1
  Br  Br0  1  0.98295800  0.77696000  0.48175500  1
  Br  Br1  1  0.01683100  0.22299000  0.98183100  1
  Br  Br2  1  0.58019600  0.13552600  0.44734900  1
  Br  Br3  1  0.42052500  0.86410200  0.94781200  1
  O  O0  1  0.27855200  0.95603900  0.23685400  1
  O  O1  1  0.72139000  0.04389900  0.73686100  1
  O  O2  1  0.97827500  0.10015700  0.25357000  1
  O  O3  1  0.02460800  0.90241100  0.75295600  1
  O  O4  1  0.58959800  0.74939100  0.25444900  1
  O  O5  1  0.41025300  0.25057100  0.75445300  1
  O  O6  1  0.69674800  0.44052200  0.23363200  1
  O  O7  1  0.30332000  0.55947000  0.73367700  1
  O  O8  1  0.12972100  0.56830500  0.23079900  1
  O  O9  1  0.87032000  0.43172900  0.73082100  1
  O  O10  1  0.26836300  0.44797600  0.39725500  1
  O  O11  1  0.73171300  0.55216600  0.89715200  1
  O  O12  1  0.48395000  0.68848700  0.55765100  1
  O  O13  1  0.51599900  0.31148600  0.05767600  1
  O  O14  1  0.05681100  0.20595100  0.53214800  1
  O  O15  1  0.94332800  0.79408700  0.03206300  1
loop_
_geom_bond_atom_site_label_1
_geom_bond_atom_site_label_2
_geom_bond_distance
_geom_bond_site_symmetry_2
H0 O0 0.734607 1_555
H1 O0 1.013469 1_545
H2 O1 0.954804 1_555
H3 O1 0.960892 1_565
H4 O2 0.933864 1_555
H5 O2 1.000240 1_555
H6 O3 0.711470 1_555
H7 O3 1.027730 1_555
H8 H9 0.974609 1_555
H8 O4 1.177837 1_555
H9 O4 1.131607 1_555
H10 H11 0.933541 1_555
H10 O5 1.102103 1_555
H11 O5 1.194503 1_555
H12 H28 1.104135 1_555
H12 O6 1.174155 1_555
H13 O6 1.503602 1_555
H14 O7 1.101557 1_555
H15 O7 1.491689 1_555
H17 O8 1.114981 1_655
H19 O9 1.053068 1_455
H20 O10 1.100310 1_555
H21 O10 0.836888 1_555
H21 O8 1.068983 1_555
H22 O11 1.018347 1_555
H23 O11 1.016269 1_555
H23 O9 1.274392 1_555
H24 O12 1.708170 1_555
H25 O12 1.095157 1_555
H25 H26 1.125299 1_555
H26 O12 1.100389 1_555
H26 O7 1.510549 1_555
H27 O13 1.695123 1_555
H28 O13 0.869021 1_555
H28 O6 1.271559 1_555
H29 O13 1.252075 1_556
H31 O14 1.505394 1_555
H32 O14 0.981774 1_655
H33 O15 0.887309 1_455
H35 O15 1.379622 1_556
Br0 H7 1.475092 1_655
Br1 H5 1.659083 1_456
Br1 H18 2.037529 1_455
Br2 O1 2.259670 1_555
Br3 H8 1.946067 1_556
Br3 H6 2.161881 1_555
