# generated using pymatgen
data_Eu8C4I9N7
_symmetry_space_group_name_H-M   'P 1'
_cell_length_a   10.61885732
_cell_length_b   10.61885732
_cell_length_c   7.79692000
_cell_angle_alpha   90.00000000
_cell_angle_beta   90.00000000
_cell_angle_gamma   119.99999575
_symmetry_Int_Tables_number   1
_chemical_formula_structural   Eu8C4I9N7
_chemical_formula_sum   'Eu8 C4 I9 N7'
_cell_volume   761.39373545
_cell_formula_units_Z   1
loop_
 _symmetry_equiv_pos_site_id
 _symmetry_equiv_pos_as_xyz
  1  'x, y, z'
loop_
 _atom_site_type_symbol
 _atom_site_label
 _atom_site_symmetry_multiplicity
 _atom_site_fract_x
 _atom_site_fract_y
 _atom_site_fract_z
 _atom_site_occupancy
  Eu  Eu0  1  0.46557400  0.93114800  0.14050100  1
  Eu  Eu1  1  0.27142500  0.13571300  0.61071200  1
  Eu  Eu2  1  0.46557400  0.53442600  0.14050100  1
  Eu  Eu3  1  0.33333300  0.66666700  0.53493200  1
  Eu  Eu4  1  0.00000000  0.00000000  0.21187900  1
  Eu  Eu5  1  0.86428700  0.72857500  0.61071200  1
  Eu  Eu6  1  0.06885200  0.53442600  0.14050100  1
  Eu  Eu7  1  0.86428700  0.13571300  0.61071200  1
  C  C0  1  0.33333300  0.66666700  0.86242400  1
  C  C1  1  0.66838700  0.83419400  0.38424100  1
  C  C2  1  0.16580600  0.83419400  0.38424100  1
  C  C3  1  0.16580600  0.33161300  0.38424100  1
  I  I0  1  0.51783200  0.03566400  0.67265100  1
  I  I1  1  0.51783200  0.48216800  0.67265100  1
  I  I2  1  0.73834100  0.86917000  0.91022800  1
  I  I3  1  0.79685400  0.59370900  0.21523100  1
  I  I4  1  0.13083000  0.86917000  0.91022800  1
  I  I5  1  0.96433600  0.48216800  0.67265100  1
  I  I6  1  0.40629100  0.20314600  0.21523100  1
  I  I7  1  0.79685400  0.20314600  0.21523100  1
  I  I8  1  0.13083000  0.26165900  0.91022800  1
  N  N0  1  0.10318000  0.89682000  0.44307800  1
  N  N1  1  0.33333300  0.66666700  0.01474900  1
  N  N2  1  0.79364000  0.89682000  0.44307800  1
  N  N3  1  0.22838800  0.45677600  0.32483000  1
  N  N4  1  0.22838800  0.77161200  0.32483000  1
  N  N5  1  0.10318000  0.20636000  0.44307800  1
  N  N6  1  0.54322400  0.77161200  0.32483000  1
loop_
_geom_bond_atom_site_label_1
_geom_bond_atom_site_label_2
_geom_bond_distance
_geom_bond_site_symmetry_2
Eu0 N1 2.622410 1_555
Eu0 N6 2.648063 1_555
Eu0 N4 2.648063 1_555
Eu0 I7 3.300956 1_565
Eu0 I6 3.300962 1_565
Eu0 I4 3.735297 1_554
Eu0 I2 3.735306 1_554
Eu0 I0 3.772290 1_564
Eu1 N5 2.608296 1_555
Eu1 N0 2.608303 1_545
Eu1 I1 3.314834 1_555
Eu1 I0 3.314841 1_555
Eu1 I6 3.323614 1_555
Eu1 I8 3.386428 1_555
Eu1 I4 3.386441 1_545
Eu2 N1 2.622418 1_555
Eu2 N6 2.648063 1_555
Eu2 N3 2.648063 1_555
Eu2 I6 3.300952 1_555
Eu2 I3 3.300952 1_555
Eu2 I2 3.735300 1_554
Eu2 I8 3.735300 1_554
Eu2 I1 3.772290 1_554
Eu3 N4 2.531633 1_555
Eu3 N6 2.531640 1_555
Eu3 N3 2.531640 1_555
Eu3 I0 3.559210 1_565
Eu3 I5 3.559210 1_455
Eu3 I1 3.559218 1_555
Eu4 N0 2.617419 1_545
Eu4 N2 2.617419 1_445
Eu4 N5 2.617419 1_555
Eu4 I8 3.364787 1_554
Eu4 I2 3.364787 1_444
Eu4 I4 3.364793 1_544
Eu4 I6 3.736425 1_555
Eu4 I3 3.736425 1_445
Eu4 I7 3.736434 1_455
Eu5 N2 2.608296 1_555
Eu5 N0 2.608303 1_655
Eu5 I1 3.314834 1_555
Eu5 I5 3.314841 1_555
Eu5 I3 3.323614 1_555
Eu5 I2 3.386428 1_555
Eu5 I4 3.386441 1_655
Eu6 N1 2.622410 1_555
Eu6 N3 2.648063 1_555
Eu6 N4 2.648063 1_555
Eu6 I7 3.300956 1_455
Eu6 I3 3.300962 1_455
Eu6 I4 3.735297 1_554
Eu6 I8 3.735306 1_554
Eu6 I5 3.772290 1_454
Eu7 N2 2.608305 1_545
Eu7 N5 2.608305 1_655
Eu7 I0 3.314831 1_555
Eu7 I5 3.314831 1_555
Eu7 I7 3.323614 1_555
Eu7 I2 3.386441 1_545
Eu7 I8 3.386441 1_655
C0 N1 1.187666 1_556
C0 Eu3 2.553429 1_555
C1 N2 1.239843 1_555
C1 N6 1.240738 1_555
C2 N0 1.239835 1_555
C2 N4 1.240747 1_555
C3 N5 1.239843 1_555
C3 N3 1.240738 1_555
