# generated using pymatgen
data_SrLaTl(AsO4)2
_symmetry_space_group_name_H-M   'P 1'
_cell_length_a   7.48540175
_cell_length_b   7.48540175
_cell_length_c   13.80521400
_cell_angle_alpha   90.00000000
_cell_angle_beta   90.00000000
_cell_angle_gamma   119.99999778
_symmetry_Int_Tables_number   1
_chemical_formula_structural   SrLaTl(AsO4)2
_chemical_formula_sum   'Sr3 La3 Tl3 As6 O24'
_cell_volume   669.89079977
_cell_formula_units_Z   3
loop_
 _symmetry_equiv_pos_site_id
 _symmetry_equiv_pos_as_xyz
  1  'x, y, z'
loop_
 _atom_site_type_symbol
 _atom_site_label
 _atom_site_symmetry_multiplicity
 _atom_site_fract_x
 _atom_site_fract_y
 _atom_site_fract_z
 _atom_site_occupancy
  Sr  Sr0  1  0.50348700  0.99974400  0.41490300  1
  Sr  Sr1  1  0.49625700  0.49651300  0.74823600  1
  Sr  Sr2  1  0.00025600  0.50374300  0.08156900  1
  La  La0  1  0.50044000  0.00064100  0.91775600  1
  La  La1  1  0.50020100  0.49956000  0.25108900  1
  La  La2  1  0.99935900  0.49979900  0.58442300  1
  Tl  Tl0  1  0.00270600  0.01312900  0.14064700  1
  Tl  Tl1  1  0.01042300  0.99729400  0.47398000  1
  Tl  Tl2  1  0.98687100  0.98957700  0.80731300  1
  As  As0  1  0.48996000  0.00030200  0.16348300  1
  As  As1  1  0.48883200  0.99999900  0.66992600  1
  As  As2  1  0.51116700  0.51116800  0.00325900  1
  As  As3  1  0.51034200  0.51004000  0.49681600  1
  As  As4  1  0.00000100  0.48883300  0.33659200  1
  As  As5  1  0.99969800  0.48965800  0.83015000  1
  O  O0  1  0.14044300  0.69703500  0.41160300  1
  O  O1  1  0.15239500  0.69827100  0.90280900  1
  O  O2  1  0.29253900  0.87589700  0.08045300  1
  O  O3  1  0.28650200  0.86419400  0.59022300  1
  O  O4  1  0.13580600  0.42230800  0.25689000  1
  O  O5  1  0.12410300  0.41664200  0.74712000  1
  O  O6  1  0.30172900  0.45412400  0.56947600  1
  O  O7  1  0.30296500  0.44340800  0.07826900  1
  O  O8  1  0.54587600  0.84760500  0.23614200  1
  O  O9  1  0.55659200  0.85955700  0.74493600  1
  O  O10  1  0.58335800  0.70746100  0.41378700  1
  O  O11  1  0.57769200  0.71349800  0.92355600  1
  O  O12  1  0.44291300  0.30155300  0.42226400  1
  O  O13  1  0.45922700  0.30388600  0.93033000  1
  O  O14  1  0.41896500  0.13398100  0.24198600  1
  O  O15  1  0.41597800  0.12390100  0.75351800  1
  O  O16  1  0.70792300  0.58402200  0.08685200  1
  O  O17  1  0.71501600  0.58103500  0.57531900  1
  O  O18  1  0.84465900  0.54077300  0.26366400  1
  O  O19  1  0.85864100  0.55708700  0.75559800  1
  O  O20  1  0.69844700  0.14135900  0.08893100  1
  O  O21  1  0.69611400  0.15534100  0.59699700  1
  O  O22  1  0.87609900  0.29207700  0.42018500  1
  O  O23  1  0.86601900  0.28498400  0.90865200  1
loop_
_geom_bond_atom_site_label_1
_geom_bond_atom_site_label_2
_geom_bond_distance
_geom_bond_site_symmetry_2
La0 O13 2.445006 1_555
La0 O1 2.460916 1_545
La0 O11 2.490691 1_545
La0 O23 2.491987 1_555
La0 O2 2.624007 1_546
La0 O15 2.641054 1_555
La0 O20 2.707283 1_556
La0 O9 2.725429 1_545
La1 O18 2.445007 1_555
La1 O8 2.460916 1_555
La1 O4 2.490691 1_555
La1 O14 2.491987 1_555
La1 O10 2.624019 1_555
La1 O16 2.641042 1_555
La1 O12 2.707284 1_555
La1 O7 2.725429 1_555
La2 O21 2.445006 1_555
La2 O6 2.460916 1_655
La2 O3 2.490691 1_655
La2 O17 2.491987 1_555
La2 O5 2.624007 1_655
La2 O22 2.641054 1_555
La2 O19 2.707280 1_555
La2 O0 2.725429 1_655
As0 O20 1.720996 1_555
As0 O8 1.722264 1_545
As0 O2 1.728797 1_545
As0 O14 1.729155 1_555
As1 O9 1.722775 1_555
As1 O21 1.723076 1_565
As1 O15 1.730630 1_565
As1 O3 1.731549 1_555
As2 O7 1.722775 1_555
As2 O13 1.723076 1_554
As2 O16 1.730640 1_555
As2 O11 1.731549 1_554
As3 O12 1.720997 1_555
As3 O6 1.722272 1_555
As3 O10 1.728788 1_555
As3 O17 1.729155 1_555
As4 O0 1.722783 1_555
As4 O18 1.723068 1_455
As4 O22 1.730640 1_455
As4 O4 1.731540 1_555
As5 O19 1.720991 1_555
As5 O1 1.722264 1_655
As5 O5 1.728797 1_655
As5 O23 1.729147 1_555
O0 Sr0 2.522636 1_555
O1 Sr2 2.801620 1_556
O2 Sr2 2.540165 1_555
O3 Sr0 2.806704 1_555
O4 Sr2 2.806716 1_555
O5 Sr1 2.540165 1_555
O6 Sr1 2.801620 1_555
O7 Sr2 2.522636 1_555
O8 Sr0 2.801632 1_555
O9 Sr1 2.522636 1_555
O10 Sr0 2.540165 1_555
O11 Sr1 2.806704 1_555
O12 Sr0 2.518745 1_545
O13 Sr1 2.841766 1_555
O14 Sr0 2.782838 1_545
O15 Sr1 2.543566 1_555
O16 Sr2 2.543566 1_655
O17 Sr1 2.782838 1_555
O18 Sr2 2.841778 1_655
O19 Sr1 2.518753 1_555
O20 Sr2 2.518751 1_655
O21 Sr0 2.841766 1_545
O22 Sr0 2.543566 1_545
O23 Sr2 2.782838 1_656
