# generated using pymatgen
data_NaTiPO5
_symmetry_space_group_name_H-M   'P 1'
_cell_length_a   8.58280100
_cell_length_b   6.72610100
_cell_length_c   7.21025896
_cell_angle_alpha   64.61288997
_cell_angle_beta   90.00000000
_cell_angle_gamma   90.00000000
_symmetry_Int_Tables_number   1
_chemical_formula_structural   NaTiPO5
_chemical_formula_sum   'Na4 Ti4 P4 O20'
_cell_volume   376.04398678
_cell_formula_units_Z   4
loop_
 _symmetry_equiv_pos_site_id
 _symmetry_equiv_pos_as_xyz
  1  'x, y, z'
loop_
 _atom_site_type_symbol
 _atom_site_label
 _atom_site_symmetry_multiplicity
 _atom_site_fract_x
 _atom_site_fract_y
 _atom_site_fract_z
 _atom_site_occupancy
  Na  Na0  1  0.07900800  0.75045800  0.77247100  1
  Na  Na1  1  0.57900800  0.24954200  0.72752900  1
  Na  Na2  1  0.42099200  0.75045800  0.27247100  1
  Na  Na3  1  0.92099200  0.24954200  0.22752900  1
  Ti  Ti0  1  0.74267900  0.75145700  0.01687600  1
  Ti  Ti1  1  0.24267900  0.24854300  0.48312400  1
  Ti  Ti2  1  0.25732100  0.24854300  0.98312400  1
  Ti  Ti3  1  0.75732100  0.75145700  0.51687600  1
  P  P0  1  0.57056800  0.25039100  0.24942700  1
  P  P1  1  0.42943200  0.74960900  0.75057300  1
  P  P2  1  0.07056800  0.74960900  0.25057300  1
  P  P3  1  0.92943200  0.25039100  0.74942700  1
  O  O0  1  0.68239200  0.75233800  0.24799000  1
  O  O1  1  0.18239200  0.24766200  0.25201000  1
  O  O2  1  0.31760800  0.24766200  0.75201000  1
  O  O3  1  0.81760800  0.75233800  0.74799000  1
  O  O4  1  0.46668000  0.33730700  0.37660500  1
  O  O5  1  0.96668000  0.66269300  0.12339500  1
  O  O6  1  0.53332000  0.66269300  0.62339500  1
  O  O7  1  0.03332000  0.33730700  0.87660500  1
  O  O8  1  0.46866200  0.15898400  0.12492200  1
  O  O9  1  0.96866200  0.84101600  0.37507800  1
  O  O10  1  0.53133800  0.84101600  0.87507800  1
  O  O11  1  0.03133800  0.15898400  0.62492200  1
  O  O12  1  0.81801900  0.06951000  0.89583300  1
  O  O13  1  0.31801900  0.93049000  0.60416700  1
  O  O14  1  0.18198100  0.93049000  0.10416700  1
  O  O15  1  0.68198100  0.06951000  0.39583300  1
  O  O16  1  0.82168200  0.43651100  0.60080100  1
  O  O17  1  0.32168200  0.56348900  0.89919900  1
  O  O18  1  0.17831800  0.56348900  0.39919900  1
  O  O19  1  0.67831800  0.43651100  0.10080100  1
loop_
_geom_bond_atom_site_label_1
_geom_bond_atom_site_label_2
_geom_bond_distance
_geom_bond_site_symmetry_2
Na0 O3 2.250088 1_455
Na0 O17 2.401927 1_555
Na0 O13 2.426334 1_555
Na0 O11 2.518519 1_565
Na0 O5 2.529698 1_456
Na0 O7 2.578893 1_555
Na0 O9 2.825145 1_455
Na1 O2 2.250088 1_555
Na1 O16 2.401927 1_555
Na1 O12 2.426334 1_555
Na1 O10 2.518519 1_545
Na1 O4 2.529698 1_555
Na1 O6 2.578893 1_555
Na1 O8 2.825145 1_556
Na2 O0 2.250088 1_555
Na2 O18 2.401927 1_555
Na2 O14 2.426334 1_555
Na2 O8 2.518519 1_565
Na2 O6 2.529698 1_555
Na2 O4 2.578893 1_555
Na2 O10 2.825145 1_554
Na3 O1 2.250088 1_655
Na3 O19 2.401927 1_555
Na3 O15 2.426334 1_555
Na3 O9 2.518519 1_545
Na3 O7 2.529698 1_654
Na3 O5 2.578893 1_555
Na3 O11 2.825145 1_655
O0 Ti0 1.747312 1_555
O0 Ti3 2.040212 1_555
O1 Ti1 1.747312 1_555
O1 Ti2 2.040212 1_554
O2 Ti2 1.747312 1_555
O2 Ti1 2.040212 1_555
O3 Ti3 1.747312 1_555
O3 Ti0 2.040212 1_556
O4 P0 1.561196 1_555
O4 Ti1 2.061398 1_555
O5 P2 1.561196 1_655
O5 Ti0 2.061398 1_555
O6 P1 1.561196 1_555
O6 Ti3 2.061398 1_555
O7 P3 1.561196 1_455
O7 Ti2 2.061398 1_555
O8 P0 1.556320 1_555
O8 Ti2 2.042131 1_554
O9 P2 1.556320 1_655
O9 Ti3 2.042131 1_555
O10 P1 1.556320 1_555
O10 Ti0 2.042131 1_556
O11 P3 1.556320 1_455
O11 Ti1 2.042131 1_555
O12 P3 1.551665 1_555
O12 Ti0 2.038461 1_546
O13 P1 1.551665 1_555
O13 Ti1 2.038461 1_565
O14 P2 1.551665 1_555
O14 Ti2 2.038461 1_564
O15 P0 1.551665 1_555
O15 Ti3 2.038461 1_545
O16 P3 1.555791 1_555
O16 Ti3 2.014847 1_555
O17 P1 1.555791 1_555
O17 Ti2 2.014847 1_555
O18 P2 1.555791 1_555
O18 Ti1 2.014847 1_555
O19 P0 1.555791 1_555
O19 Ti0 2.014847 1_555
