# generated using pymatgen
data_RuC3SeO3
_symmetry_space_group_name_H-M   'P 1'
_cell_length_a   9.02854520
_cell_length_b   9.02854520
_cell_length_c   9.02854520
_cell_angle_alpha   109.47122063
_cell_angle_beta   109.47122063
_cell_angle_gamma   109.47122063
_symmetry_Int_Tables_number   1
_chemical_formula_structural   RuC3SeO3
_chemical_formula_sum   'Ru4 C12 Se4 O12'
_cell_volume   566.54112249
_cell_formula_units_Z   4
loop_
 _symmetry_equiv_pos_site_id
 _symmetry_equiv_pos_as_xyz
  1  'x, y, z'
loop_
 _atom_site_type_symbol
 _atom_site_label
 _atom_site_symmetry_multiplicity
 _atom_site_fract_x
 _atom_site_fract_y
 _atom_site_fract_z
 _atom_site_occupancy
  Ru  Ru0  1  0.73759900  0.73759900  0.73759900  1
  Ru  Ru1  1  0.00000000  0.26240100  0.00000000  1
  Ru  Ru2  1  0.00000000  0.00000000  0.26240100  1
  Ru  Ru3  1  0.26240100  0.00000000  0.00000000  1
  C  C0  1  0.18965800  0.44110300  0.00000000  1
  C  C1  1  0.81034200  0.81034200  0.25144500  1
  C  C2  1  0.44110300  0.00000000  0.18965800  1
  C  C3  1  0.55889700  0.74855500  0.55889700  1
  C  C4  1  0.44110300  0.18965800  0.00000000  1
  C  C5  1  0.00000000  0.18965800  0.44110300  1
  C  C6  1  0.18965800  0.00000000  0.44110300  1
  C  C7  1  0.55889700  0.55889700  0.74855500  1
  C  C8  1  0.00000000  0.44110300  0.18965800  1
  C  C9  1  0.81034200  0.25144500  0.81034200  1
  C  C10  1  0.25144500  0.81034200  0.81034200  1
  C  C11  1  0.74855500  0.55889700  0.55889700  1
  Se  Se0  1  0.00000000  0.00000000  0.76290200  1
  Se  Se1  1  0.00000000  0.76290200  0.00000000  1
  Se  Se2  1  0.76290200  0.00000000  0.00000000  1
  Se  Se3  1  0.23709800  0.23709800  0.23709800  1
  O  O0  1  0.54966200  0.30310800  0.00000000  1
  O  O1  1  0.30310800  0.00000000  0.54966200  1
  O  O2  1  0.75344600  0.45033800  0.45033800  1
  O  O3  1  0.45033800  0.75344600  0.45033800  1
  O  O4  1  0.00000000  0.54966200  0.30310800  1
  O  O5  1  0.69689200  0.24655400  0.69689200  1
  O  O6  1  0.69689200  0.69689200  0.24655400  1
  O  O7  1  0.45033800  0.45033800  0.75344600  1
  O  O8  1  0.54966200  0.00000000  0.30310800  1
  O  O9  1  0.00000000  0.30310800  0.54966200  1
  O  O10  1  0.30310800  0.54966200  0.00000000  1
  O  O11  1  0.24655400  0.69689200  0.69689200  1
loop_
_geom_bond_atom_site_label_1
_geom_bond_atom_site_label_2
_geom_bond_distance
_geom_bond_site_symmetry_2
Ru0 Se1 2.610378 1_656
Ru0 Se2 2.610378 1_566
Ru0 Se0 2.610378 1_665
Ru1 Se0 2.610378 1_554
Ru1 Se2 2.610378 1_455
Ru1 Se3 2.610378 1_555
Ru2 Se1 2.610378 1_545
Ru2 Se2 2.610378 1_455
Ru2 Se3 2.610378 1_555
Ru3 Se1 2.610378 1_545
Ru3 Se0 2.610378 1_554
Ru3 Se3 2.610378 1_555
C0 O10 1.157813 1_555
C0 Ru1 1.921823 1_555
C1 O6 1.157813 1_555
C1 Ru2 1.921823 1_665
C2 O8 1.157813 1_555
C2 Ru3 1.921823 1_555
C3 O3 1.157813 1_555
C3 Ru0 1.921823 1_555
C4 O0 1.157813 1_555
C4 Ru3 1.921823 1_555
C5 O9 1.157813 1_555
C5 Ru2 1.921823 1_555
C6 O1 1.157813 1_555
C6 Ru2 1.921823 1_555
C7 O7 1.157813 1_555
C7 Ru0 1.921823 1_555
C8 O4 1.157813 1_555
C8 Ru1 1.921823 1_555
C9 O5 1.157813 1_555
C9 Ru1 1.921823 1_656
C10 O11 1.157813 1_555
C10 Ru3 1.921823 1_566
C11 O2 1.157813 1_555
C11 Ru0 1.921823 1_555
