# generated using pymatgen
data_K6Cd4Sn3Se13
_symmetry_space_group_name_H-M   'P 1'
_cell_length_a   10.34080381
_cell_length_b   10.34080381
_cell_length_c   10.34080372
_cell_angle_alpha   94.97985468
_cell_angle_beta   94.97985468
_cell_angle_gamma   94.97985465
_symmetry_Int_Tables_number   1
_chemical_formula_structural   K6Cd4Sn3Se13
_chemical_formula_sum   'K6 Cd4 Sn3 Se13'
_cell_volume   1092.46362809
_cell_formula_units_Z   1
loop_
 _symmetry_equiv_pos_site_id
 _symmetry_equiv_pos_as_xyz
  1  'x, y, z'
loop_
 _atom_site_type_symbol
 _atom_site_label
 _atom_site_symmetry_multiplicity
 _atom_site_fract_x
 _atom_site_fract_y
 _atom_site_fract_z
 _atom_site_occupancy
  K  K0  1  0.79460600  0.36707800  0.36707800  1
  K  K1  1  0.36707800  0.79460600  0.36707800  1
  K  K2  1  0.36707800  0.36707800  0.79460600  1
  K  K3  1  0.99849300  0.99849300  0.57858100  1
  K  K4  1  0.57858100  0.99849300  0.99849300  1
  K  K5  1  0.99849300  0.57858100  0.99849300  1
  Cd  Cd0  1  0.52859100  0.52859100  0.52859100  1
  Cd  Cd1  1  0.63595800  0.63595800  0.93249900  1
  Cd  Cd2  1  0.63595800  0.93249900  0.63595800  1
  Cd  Cd3  1  0.93249900  0.63595800  0.63595800  1
  Sn  Sn0  1  0.29437100  0.75416500  0.75416500  1
  Sn  Sn1  1  0.75416500  0.75416500  0.29437100  1
  Sn  Sn2  1  0.75416500  0.29437100  0.75416500  1
  Se  Se0  1  0.97253800  0.68309500  0.39055700  1
  Se  Se1  1  0.69007400  0.69007400  0.69007400  1
  Se  Se2  1  0.27910100  0.56823700  0.56823700  1
  Se  Se3  1  0.56823700  0.56823700  0.27910100  1
  Se  Se4  1  0.56823700  0.27910100  0.56823700  1
  Se  Se5  1  0.81089300  0.81089300  0.06970900  1
  Se  Se6  1  0.81089300  0.06970900  0.81089300  1
  Se  Se7  1  0.06970900  0.81089300  0.81089300  1
  Se  Se8  1  0.39055700  0.68309500  0.97253800  1
  Se  Se9  1  0.68309500  0.97253800  0.39055700  1
  Se  Se10  1  0.97253800  0.39055700  0.68309500  1
  Se  Se11  1  0.68309500  0.39055700  0.97253800  1
  Se  Se12  1  0.39055700  0.97253800  0.68309500  1
loop_
_geom_bond_atom_site_label_1
_geom_bond_atom_site_label_2
_geom_bond_distance
_geom_bond_site_symmetry_2
K0 Se4 3.382065 1_555
K0 Se3 3.382065 1_555
K0 Se10 3.586669 1_555
K0 Se0 3.586669 1_555
K1 Se2 3.382065 1_555
K1 Se3 3.382065 1_555
K1 Se12 3.586669 1_555
K1 Se9 3.586669 1_555
K2 Se2 3.382065 1_555
K2 Se4 3.382065 1_555
K2 Se8 3.586669 1_555
K2 Se11 3.586669 1_555
K3 Se6 3.290388 1_565
K3 Se7 3.290388 1_655
K3 Se9 3.625755 1_555
K3 Se0 3.625755 1_555
K4 Se6 3.290388 1_565
K4 Se5 3.290388 1_556
K4 Se12 3.625755 1_555
K4 Se8 3.625755 1_555
K5 Se7 3.290388 1_655
K5 Se5 3.290388 1_556
K5 Se10 3.625755 1_555
K5 Se11 3.625755 1_555
Cd0 Se1 2.629263 1_555
Cd0 Se3 2.707444 1_555
Cd0 Se4 2.707444 1_555
Cd0 Se2 2.707444 1_555
Cd1 Se5 2.664316 1_556
Cd1 Se11 2.685288 1_555
Cd1 Se8 2.685288 1_555
Cd1 Se1 2.709878 1_555
Cd2 Se6 2.664316 1_565
Cd2 Se9 2.685288 1_555
Cd2 Se12 2.685288 1_555
Cd2 Se1 2.709878 1_555
Cd3 Se7 2.664316 1_655
Cd3 Se0 2.685288 1_555
Cd3 Se10 2.685288 1_555
Cd3 Se1 2.709878 1_555
Se0 Sn1 2.579488 1_555
Se2 Sn0 2.582805 1_555
Se3 Sn1 2.582805 1_555
Se4 Sn2 2.582805 1_555
Se5 Sn1 2.549290 1_555
Se6 Sn2 2.549290 1_555
Se7 Sn0 2.549290 1_555
Se8 Sn0 2.579488 1_555
Se9 Sn1 2.579488 1_555
Se10 Sn2 2.579488 1_555
Se11 Sn2 2.579488 1_555
Se12 Sn0 2.579488 1_555
