# generated using pymatgen
data_Ce5(In2Pt)2
_symmetry_space_group_name_H-M   'P 1'
_cell_length_a   7.68251870
_cell_length_b   16.33548848
_cell_length_c   37.38903066
_cell_angle_alpha   90.00000000
_cell_angle_beta   90.00000000
_cell_angle_gamma   90.00000000
_symmetry_Int_Tables_number   1
_chemical_formula_structural   Ce5(In2Pt)2
_chemical_formula_sum   'Ce80 In64 Pt32'
_cell_volume   4692.23719308
_cell_formula_units_Z   16
loop_
 _symmetry_equiv_pos_site_id
 _symmetry_equiv_pos_as_xyz
  1  'x, y, z'
loop_
 _atom_site_type_symbol
 _atom_site_label
 _atom_site_symmetry_multiplicity
 _atom_site_fract_x
 _atom_site_fract_y
 _atom_site_fract_z
 _atom_site_occupancy
  Ce  Ce0_0  1  0.25000000  0.31763142  0.20850144  1
  Ce  Ce0_1  1  0.25000000  0.31763142  0.70850143  1
  Ce  Ce0_2  1  0.25000000  0.81763142  0.20850144  1
  Ce  Ce0_3  1  0.25000000  0.81763142  0.70850143  1
  Ce  Ce0_4  1  0.75000000  0.31763142  0.20850144  1
  Ce  Ce0_5  1  0.75000000  0.31763142  0.70850143  1
  Ce  Ce0_6  1  0.75000000  0.81763142  0.20850144  1
  Ce  Ce0_7  1  0.75000000  0.81763142  0.70850143  1
  Ce  Ce1_0  1  0.25000000  0.12165159  0.38820944  1
  Ce  Ce1_1  1  0.25000000  0.12165159  0.88820944  1
  Ce  Ce1_2  1  0.25000000  0.62165159  0.38820944  1
  Ce  Ce1_3  1  0.25000000  0.62165159  0.88820944  1
  Ce  Ce1_4  1  0.75000000  0.12165159  0.38820944  1
  Ce  Ce1_5  1  0.75000000  0.12165159  0.88820944  1
  Ce  Ce1_6  1  0.75000000  0.62165159  0.38820944  1
  Ce  Ce1_7  1  0.75000000  0.62165159  0.88820944  1
  Ce  Ce2_0  1  0.25000000  0.37834841  0.11179056  1
  Ce  Ce2_1  1  0.25000000  0.37834841  0.61179056  1
  Ce  Ce2_2  1  0.25000000  0.87834841  0.11179056  1
  Ce  Ce2_3  1  0.25000000  0.87834841  0.61179056  1
  Ce  Ce2_4  1  0.75000000  0.37834841  0.11179056  1
  Ce  Ce2_5  1  0.75000000  0.37834841  0.61179056  1
  Ce  Ce2_6  1  0.75000000  0.87834841  0.11179056  1
  Ce  Ce2_7  1  0.75000000  0.87834841  0.61179056  1
  Ce  Ce3_0  1  0.25000000  0.18236858  0.29149856  1
  Ce  Ce3_1  1  0.25000000  0.18236858  0.79149857  1
  Ce  Ce3_2  1  0.25000000  0.68236858  0.29149856  1
  Ce  Ce3_3  1  0.25000000  0.68236858  0.79149857  1
  Ce  Ce3_4  1  0.75000000  0.18236858  0.29149856  1
  Ce  Ce3_5  1  0.75000000  0.18236858  0.79149857  1
  Ce  Ce3_6  1  0.75000000  0.68236858  0.29149856  1
  Ce  Ce3_7  1  0.75000000  0.68236858  0.79149857  1
  Ce  Ce4_0  1  0.25000000  0.06763142  0.04149857  1
  Ce  Ce4_1  1  0.25000000  0.06763142  0.54149857  1
  Ce  Ce4_2  1  0.25000000  0.56763142  0.04149857  1
  Ce  Ce4_3  1  0.25000000  0.56763142  0.54149857  1
  Ce  Ce4_4  1  0.75000000  0.06763142  0.04149857  1
  Ce  Ce4_5  1  0.75000000  0.06763142  0.54149857  1
  Ce  Ce4_6  1  0.75000000  0.56763142  0.04149857  1
  Ce  Ce4_7  1  0.75000000  0.56763142  0.54149857  1
  Ce  Ce5_0  1  0.25000000  0.25000000  0.00000000  1
  Ce  Ce5_1  1  0.25000000  0.25000000  0.50000000  1
  Ce  Ce5_2  1  0.25000000  0.75000000  0.00000000  1
  Ce  Ce5_3  1  0.25000000  0.75000000  0.50000000  1
  Ce  Ce5_4  1  0.75000000  0.25000000  0.00000000  1
  Ce  Ce5_5  1  0.75000000  0.25000000  0.50000000  1
  Ce  Ce5_6  1  0.75000000  0.75000000  0.00000000  1
  Ce  Ce5_7  1  0.75000000  0.75000000  0.50000000  1
  Ce  Ce6_0  1  0.25000000  0.43236858  0.45850143  1
  Ce  Ce6_1  1  0.25000000  0.43236858  0.95850143  1
  Ce  Ce6_2  1  0.25000000  0.93236858  0.45850143  1
  Ce  Ce6_3  1  0.25000000  0.93236858  0.95850143  1
  Ce  Ce6_4  1  0.75000000  0.43236858  0.45850143  1
  Ce  Ce6_5  1  0.75000000  0.43236858  0.95850143  1
  Ce  Ce6_6  1  0.75000000  0.93236858  0.45850143  1
  Ce  Ce6_7  1  0.75000000  0.93236858  0.95850143  1
  Ce  Ce7_0  1  0.25000000  0.12834841  0.13820945  1
  Ce  Ce7_1  1  0.25000000  0.12834841  0.63820944  1
  Ce  Ce7_2  1  0.25000000  0.62834841  0.13820945  1
  Ce  Ce7_3  1  0.25000000  0.62834841  0.63820944  1
  Ce  Ce7_4  1  0.75000000  0.12834841  0.13820945  1
  Ce  Ce7_5  1  0.75000000  0.12834841  0.63820944  1
  Ce  Ce7_6  1  0.75000000  0.62834841  0.13820945  1
  Ce  Ce7_7  1  0.75000000  0.62834841  0.63820944  1
  Ce  Ce8_0  1  0.25000000  0.00000000  0.25000000  1
  Ce  Ce8_1  1  0.25000000  0.00000000  0.75000000  1
  Ce  Ce8_2  1  0.25000000  0.50000000  0.25000000  1
  Ce  Ce8_3  1  0.25000000  0.50000000  0.75000000  1
  Ce  Ce8_4  1  0.75000000  0.00000000  0.25000000  1
  Ce  Ce8_5  1  0.75000000  0.00000000  0.75000000  1
  Ce  Ce8_6  1  0.75000000  0.50000000  0.25000000  1
  Ce  Ce8_7  1  0.75000000  0.50000000  0.75000000  1
  Ce  Ce9_0  1  0.25000000  0.37165159  0.36179056  1
  Ce  Ce9_1  1  0.25000000  0.37165159  0.86179056  1
  Ce  Ce9_2  1  0.25000000  0.87165159  0.36179056  1
  Ce  Ce9_3  1  0.25000000  0.87165159  0.86179056  1
  Ce  Ce9_4  1  0.75000000  0.37165159  0.36179056  1
  Ce  Ce9_5  1  0.75000000  0.37165159  0.86179056  1
  Ce  Ce9_6  1  0.75000000  0.87165159  0.36179056  1
  Ce  Ce9_7  1  0.75000000  0.87165159  0.86179056  1
  In  In0_0  1  0.00000000  0.02583811  0.32450731  1
  In  In0_1  1  0.00000000  0.02583811  0.82450731  1
  In  In0_2  1  0.00000000  0.52583810  0.32450731  1
  In  In0_3  1  0.00000000  0.52583810  0.82450731  1
  In  In0_4  1  0.50000000  0.02583811  0.32450731  1
  In  In0_5  1  0.50000000  0.02583811  0.82450731  1
  In  In0_6  1  0.50000000  0.52583810  0.32450731  1
  In  In0_7  1  0.50000000  0.52583810  0.82450731  1
  In  In1_0  1  0.00000000  0.47416189  0.17549269  1
  In  In1_1  1  0.00000000  0.47416189  0.67549269  1
  In  In1_2  1  0.00000000  0.97416189  0.17549269  1
  In  In1_3  1  0.00000000  0.97416189  0.67549269  1
  In  In1_4  1  0.50000000  0.47416189  0.17549269  1
  In  In1_5  1  0.50000000  0.47416189  0.67549269  1
  In  In1_6  1  0.50000000  0.97416189  0.17549269  1
  In  In1_7  1  0.50000000  0.97416189  0.67549269  1
  In  In2_0  1  0.00000000  0.39946685  0.03526780  1
  In  In2_1  1  0.00000000  0.39946685  0.53526780  1
  In  In2_2  1  0.00000000  0.89946685  0.03526780  1
  In  In2_3  1  0.00000000  0.89946685  0.53526780  1
  In  In2_4  1  0.50000000  0.39946685  0.03526780  1
  In  In2_5  1  0.50000000  0.39946685  0.53526780  1
  In  In2_6  1  0.50000000  0.89946685  0.03526780  1
  In  In2_7  1  0.50000000  0.89946685  0.53526780  1
  In  In3_0  1  0.00000000  0.10053315  0.46473220  1
  In  In3_1  1  0.00000000  0.10053315  0.96473220  1
  In  In3_2  1  0.00000000  0.60053315  0.46473220  1
  In  In3_3  1  0.00000000  0.60053315  0.96473220  1
  In  In3_4  1  0.50000000  0.10053315  0.46473220  1
  In  In3_5  1  0.50000000  0.10053315  0.96473220  1
  In  In3_6  1  0.50000000  0.60053315  0.46473220  1
  In  In3_7  1  0.50000000  0.60053315  0.96473220  1
  In  In4_0  1  0.00000000  0.35053315  0.28526780  1
  In  In4_1  1  0.00000000  0.35053315  0.78526781  1
  In  In4_2  1  0.00000000  0.85053315  0.28526780  1
  In  In4_3  1  0.00000000  0.85053315  0.78526781  1
  In  In4_4  1  0.50000000  0.35053315  0.28526780  1
  In  In4_5  1  0.50000000  0.35053315  0.78526781  1
  In  In4_6  1  0.50000000  0.85053315  0.28526780  1
  In  In4_7  1  0.50000000  0.85053315  0.78526781  1
  In  In5_0  1  0.00000000  0.27583811  0.42549269  1
  In  In5_1  1  0.00000000  0.27583811  0.92549269  1
  In  In5_2  1  0.00000000  0.77583810  0.42549269  1
  In  In5_3  1  0.00000000  0.77583810  0.92549269  1
  In  In5_4  1  0.50000000  0.27583811  0.42549269  1
  In  In5_5  1  0.50000000  0.27583811  0.92549269  1
  In  In5_6  1  0.50000000  0.77583810  0.42549269  1
  In  In5_7  1  0.50000000  0.77583810  0.92549269  1
  In  In6_0  1  0.00000000  0.22416189  0.07450731  1
  In  In6_1  1  0.00000000  0.22416189  0.57450731  1
  In  In6_2  1  0.00000000  0.72416189  0.07450731  1
  In  In6_3  1  0.00000000  0.72416189  0.57450731  1
  In  In6_4  1  0.50000000  0.22416189  0.07450731  1
  In  In6_5  1  0.50000000  0.22416189  0.57450731  1
  In  In6_6  1  0.50000000  0.72416189  0.07450731  1
  In  In6_7  1  0.50000000  0.72416189  0.57450731  1
  In  In7_0  1  0.00000000  0.14946685  0.21473219  1
  In  In7_1  1  0.00000000  0.14946685  0.71473219  1
  In  In7_2  1  0.00000000  0.64946685  0.21473219  1
  In  In7_3  1  0.00000000  0.64946685  0.71473219  1
  In  In7_4  1  0.50000000  0.14946685  0.21473219  1
  In  In7_5  1  0.50000000  0.14946685  0.71473219  1
  In  In7_6  1  0.50000000  0.64946685  0.21473219  1
  In  In7_7  1  0.50000000  0.64946685  0.71473219  1
  Pt  Pt0_0  1  0.00000000  0.23424384  0.34776853  1
  Pt  Pt0_1  1  0.00000000  0.23424384  0.84776854  1
  Pt  Pt0_2  1  0.00000000  0.73424384  0.34776853  1
  Pt  Pt0_3  1  0.00000000  0.73424384  0.84776854  1
  Pt  Pt0_4  1  0.50000000  0.23424384  0.34776853  1
  Pt  Pt0_5  1  0.50000000  0.23424384  0.84776854  1
  Pt  Pt0_6  1  0.50000000  0.73424384  0.34776853  1
  Pt  Pt0_7  1  0.50000000  0.73424384  0.84776854  1
  Pt  Pt1_0  1  0.00000000  0.01575616  0.09776854  1
  Pt  Pt1_1  1  0.00000000  0.01575616  0.59776854  1
  Pt  Pt1_2  1  0.00000000  0.51575616  0.09776854  1
  Pt  Pt1_3  1  0.00000000  0.51575616  0.59776854  1
  Pt  Pt1_4  1  0.50000000  0.01575616  0.09776854  1
  Pt  Pt1_5  1  0.50000000  0.01575616  0.59776854  1
  Pt  Pt1_6  1  0.50000000  0.51575616  0.09776854  1
  Pt  Pt1_7  1  0.50000000  0.51575616  0.59776854  1
  Pt  Pt2_0  1  0.00000000  0.48424384  0.40223147  1
  Pt  Pt2_1  1  0.00000000  0.48424384  0.90223146  1
  Pt  Pt2_2  1  0.00000000  0.98424384  0.40223147  1
  Pt  Pt2_3  1  0.00000000  0.98424384  0.90223146  1
  Pt  Pt2_4  1  0.50000000  0.48424384  0.40223147  1
  Pt  Pt2_5  1  0.50000000  0.48424384  0.90223146  1
  Pt  Pt2_6  1  0.50000000  0.98424384  0.40223147  1
  Pt  Pt2_7  1  0.50000000  0.98424384  0.90223146  1
  Pt  Pt3_0  1  0.00000000  0.26575616  0.15223147  1
  Pt  Pt3_1  1  0.00000000  0.26575616  0.65223147  1
  Pt  Pt3_2  1  0.00000000  0.76575616  0.15223147  1
  Pt  Pt3_3  1  0.00000000  0.76575616  0.65223147  1
  Pt  Pt3_4  1  0.50000000  0.26575616  0.15223147  1
  Pt  Pt3_5  1  0.50000000  0.26575616  0.65223147  1
  Pt  Pt3_6  1  0.50000000  0.76575616  0.15223147  1
  Pt  Pt3_7  1  0.50000000  0.76575616  0.65223147  1
loop_
_geom_bond_atom_site_label_1
_geom_bond_atom_site_label_2
_geom_bond_distance
_geom_bond_site_symmetry_2
Ce0_0 Pt3_0 2.972075 1_555
Ce0_0 Pt3_4 2.972075 1_555
Ce0_0 Ce8_2 3.358921 1_555
Ce0_0 In7_0 3.359967 1_555
Ce0_0 In7_4 3.359967 1_555
Ce0_0 In1_0 3.427862 1_555
Ce0_0 In1_4 3.427862 1_555
Ce0_0 In4_0 3.495118 1_555
Ce0_0 In4_4 3.495118 1_555
Ce0_1 Pt3_1 2.972075 1_555
Ce0_1 Pt3_5 2.972075 1_555
Ce0_1 Ce8_3 3.358921 1_555
Ce0_1 In7_1 3.359967 1_555
Ce0_1 In7_5 3.359967 1_555
Ce0_1 In1_1 3.427862 1_555
Ce0_1 In1_5 3.427862 1_555
Ce0_1 In4_1 3.495118 1_555
Ce0_1 In4_5 3.495118 1_555
Ce0_2 Pt3_2 2.972075 1_555
Ce0_2 Pt3_6 2.972075 1_555
Ce0_2 Ce8_0 3.358921 1_565
Ce0_2 In7_2 3.359967 1_555
Ce0_2 In7_6 3.359967 1_555
Ce0_2 In1_6 3.427862 1_555
Ce0_2 In1_2 3.427862 1_555
Ce0_2 In4_2 3.495118 1_555
Ce0_2 In4_6 3.495118 1_555
Ce0_3 Pt3_3 2.972075 1_555
Ce0_3 Pt3_7 2.972075 1_555
Ce0_3 Ce8_1 3.358921 1_565
Ce0_3 In7_3 3.359967 1_555
Ce0_3 In7_7 3.359967 1_555
Ce0_3 In1_3 3.427862 1_555
Ce0_3 In1_7 3.427862 1_555
Ce0_3 In4_7 3.495118 1_555
Ce0_3 In4_3 3.495118 1_555
Ce0_4 Pt3_0 2.972075 1_655
Ce0_4 Pt3_4 2.972075 1_555
Ce0_4 Ce8_6 3.358921 1_555
Ce0_4 In7_0 3.359967 1_655
Ce0_4 In7_4 3.359967 1_555
Ce0_4 In1_0 3.427862 1_655
Ce0_4 In1_4 3.427862 1_555
Ce0_4 In4_0 3.495118 1_655
Ce0_4 In4_4 3.495118 1_555
Ce0_5 Pt3_1 2.972075 1_655
Ce0_5 Pt3_5 2.972075 1_555
Ce0_5 Ce8_7 3.358921 1_555
Ce0_5 In7_1 3.359967 1_655
Ce0_5 In7_5 3.359967 1_555
Ce0_5 In1_1 3.427862 1_655
Ce0_5 In1_5 3.427862 1_555
Ce0_5 In4_1 3.495118 1_655
Ce0_5 In4_5 3.495118 1_555
Ce0_6 Pt3_2 2.972075 1_655
Ce0_6 Pt3_6 2.972075 1_555
Ce0_6 Ce8_4 3.358921 1_565
Ce0_6 In7_2 3.359967 1_655
Ce0_6 In7_6 3.359967 1_555
Ce0_6 In1_2 3.427862 1_655
Ce0_6 In1_6 3.427862 1_555
Ce0_6 In4_2 3.495118 1_655
Ce0_6 In4_6 3.495118 1_555
Ce0_7 Pt3_3 2.972075 1_655
Ce0_7 Pt3_7 2.972075 1_555
Ce0_7 Ce8_5 3.358921 1_565
Ce0_7 In7_3 3.359967 1_655
Ce0_7 In7_7 3.359967 1_555
Ce0_7 In1_3 3.427862 1_655
Ce0_7 In1_7 3.427862 1_555
Ce0_7 In4_3 3.495118 1_655
Ce0_7 In4_7 3.495118 1_555
Ce1_0 Pt2_2 3.000335 1_545
Ce1_0 Pt2_6 3.000335 1_545
Ce1_0 Pt0_0 3.059075 1_555
Ce1_0 Pt0_4 3.059075 1_555
Ce1_0 In0_0 3.436762 1_555
Ce1_0 In0_4 3.436762 1_555
Ce1_0 In5_0 3.460624 1_555
Ce1_0 In5_4 3.460624 1_555
Ce1_0 In3_4 3.463205 1_555
Ce1_0 In3_0 3.463205 1_555
Ce1_1 Pt2_3 3.000335 1_545
Ce1_1 Pt2_7 3.000335 1_545
Ce1_1 Pt0_1 3.059075 1_555
Ce1_1 Pt0_5 3.059075 1_555
Ce1_1 In0_1 3.436762 1_555
Ce1_1 In0_5 3.436762 1_555
Ce1_1 In5_1 3.460624 1_555
Ce1_1 In5_5 3.460624 1_555
Ce1_1 In3_1 3.463205 1_555
Ce1_1 In3_5 3.463205 1_555
Ce1_2 Pt2_4 3.000335 1_555
Ce1_2 Pt2_0 3.000335 1_555
Ce1_2 Pt0_6 3.059075 1_555
Ce1_2 Pt0_2 3.059075 1_555
Ce1_2 In0_2 3.436762 1_555
Ce1_2 In0_6 3.436762 1_555
Ce1_2 In5_2 3.460624 1_555
Ce1_2 In5_6 3.460624 1_555
Ce1_2 In3_2 3.463205 1_555
Ce1_2 In3_6 3.463205 1_555
Ce1_3 Pt2_1 3.000335 1_555
Ce1_3 Pt2_5 3.000335 1_555
Ce1_3 Pt0_3 3.059075 1_555
Ce1_3 Pt0_7 3.059075 1_555
Ce1_3 In0_7 3.436762 1_555
Ce1_3 In0_3 3.436762 1_555
Ce1_3 In5_3 3.460624 1_555
Ce1_3 In5_7 3.460624 1_555
Ce1_3 In3_7 3.463205 1_555
Ce1_3 In3_3 3.463205 1_555
Ce1_4 Pt2_2 3.000335 1_645
Ce1_4 Pt2_6 3.000335 1_545
Ce1_4 Pt0_0 3.059075 1_655
Ce1_4 Pt0_4 3.059075 1_555
Ce1_4 In0_0 3.436762 1_655
Ce1_4 In0_4 3.436762 1_555
Ce1_4 In5_0 3.460624 1_655
Ce1_4 In5_4 3.460624 1_555
Ce1_4 In3_0 3.463205 1_655
Ce1_4 In3_4 3.463205 1_555
Ce1_5 Pt2_3 3.000335 1_645
Ce1_5 Pt2_7 3.000335 1_545
Ce1_5 Pt0_1 3.059075 1_655
Ce1_5 Pt0_5 3.059075 1_555
Ce1_5 In0_1 3.436762 1_655
Ce1_5 In0_5 3.436762 1_555
Ce1_5 In5_1 3.460624 1_655
Ce1_5 In5_5 3.460624 1_555
Ce1_5 In3_1 3.463205 1_655
Ce1_5 In3_5 3.463205 1_555
Ce1_6 Pt2_0 3.000335 1_655
Ce1_6 Pt2_4 3.000335 1_555
Ce1_6 Pt0_2 3.059075 1_655
Ce1_6 Pt0_6 3.059075 1_555
Ce1_6 In0_2 3.436762 1_655
Ce1_6 In0_6 3.436762 1_555
Ce1_6 In5_2 3.460624 1_655
Ce1_6 In5_6 3.460624 1_555
Ce1_6 In3_2 3.463205 1_655
Ce1_6 In3_6 3.463205 1_555
Ce1_7 Pt2_1 3.000335 1_655
Ce1_7 Pt2_5 3.000335 1_555
Ce1_7 Pt0_3 3.059075 1_655
Ce1_7 Pt0_7 3.059075 1_555
Ce1_7 In0_3 3.436762 1_655
Ce1_7 In0_7 3.436762 1_555
Ce1_7 In5_3 3.460624 1_655
Ce1_7 In5_7 3.460624 1_555
Ce1_7 In3_3 3.463205 1_655
Ce1_7 In3_7 3.463205 1_555
Ce2_0 Pt1_2 3.000335 1_555
Ce2_0 Pt1_6 3.000335 1_555
Ce2_0 Pt3_4 3.059075 1_555
Ce2_0 Pt3_0 3.059075 1_555
Ce2_0 In1_0 3.436762 1_555
Ce2_0 In1_4 3.436762 1_555
Ce2_0 In6_0 3.460624 1_555
Ce2_0 In6_4 3.460624 1_555
Ce2_0 In2_0 3.463205 1_555
Ce2_0 In2_4 3.463205 1_555
Ce2_1 Pt1_3 3.000335 1_555
Ce2_1 Pt1_7 3.000335 1_555
Ce2_1 Pt3_5 3.059075 1_555
Ce2_1 Pt3_1 3.059075 1_555
Ce2_1 In1_1 3.436762 1_555
Ce2_1 In1_5 3.436762 1_555
Ce2_1 In6_1 3.460624 1_555
Ce2_1 In6_5 3.460624 1_555
Ce2_1 In2_1 3.463205 1_555
Ce2_1 In2_5 3.463205 1_555
Ce2_2 Pt1_0 3.000335 1_565
Ce2_2 Pt1_4 3.000335 1_565
Ce2_2 Pt3_2 3.059075 1_555
Ce2_2 Pt3_6 3.059075 1_555
Ce2_2 In1_6 3.436762 1_555
Ce2_2 In1_2 3.436762 1_555
Ce2_2 In6_2 3.460624 1_555
Ce2_2 In6_6 3.460624 1_555
Ce2_2 In2_2 3.463205 1_555
Ce2_2 In2_6 3.463205 1_555
Ce2_3 Pt1_5 3.000335 1_565
Ce2_3 Pt1_1 3.000335 1_565
Ce2_3 Pt3_3 3.059075 1_555
Ce2_3 Pt3_7 3.059075 1_555
Ce2_3 In1_3 3.436762 1_555
Ce2_3 In1_7 3.436762 1_555
Ce2_3 In6_7 3.460624 1_555
Ce2_3 In6_3 3.460624 1_555
Ce2_3 In2_3 3.463205 1_555
Ce2_3 In2_7 3.463205 1_555
Ce2_4 Pt1_2 3.000335 1_655
Ce2_4 Pt1_6 3.000335 1_555
Ce2_4 Pt3_0 3.059075 1_655
Ce2_4 Pt3_4 3.059075 1_555
Ce2_4 In1_0 3.436762 1_655
Ce2_4 In1_4 3.436762 1_555
Ce2_4 In6_0 3.460624 1_655
Ce2_4 In6_4 3.460624 1_555
Ce2_4 In2_0 3.463205 1_655
Ce2_4 In2_4 3.463205 1_555
Ce2_5 Pt1_3 3.000335 1_655
Ce2_5 Pt1_7 3.000335 1_555
Ce2_5 Pt3_1 3.059075 1_655
Ce2_5 Pt3_5 3.059075 1_555
Ce2_5 In1_1 3.436762 1_655
Ce2_5 In1_5 3.436762 1_555
Ce2_5 In6_1 3.460624 1_655
Ce2_5 In6_5 3.460624 1_555
Ce2_5 In2_1 3.463205 1_655
Ce2_5 In2_5 3.463205 1_555
Ce2_6 Pt1_0 3.000335 1_665
Ce2_6 Pt1_4 3.000335 1_565
Ce2_6 Pt3_2 3.059075 1_655
Ce2_6 Pt3_6 3.059075 1_555
Ce2_6 In1_2 3.436762 1_655
Ce2_6 In1_6 3.436762 1_555
Ce2_6 In6_2 3.460624 1_655
Ce2_6 In6_6 3.460624 1_555
Ce2_6 In2_2 3.463205 1_655
Ce2_6 In2_6 3.463205 1_555
Ce2_7 Pt1_1 3.000335 1_665
Ce2_7 Pt1_5 3.000335 1_565
Ce2_7 Pt3_3 3.059075 1_655
Ce2_7 Pt3_7 3.059075 1_555
Ce2_7 In1_3 3.436762 1_655
Ce2_7 In1_7 3.436762 1_555
Ce2_7 In6_3 3.460624 1_655
Ce2_7 In6_7 3.460624 1_555
Ce2_7 In2_3 3.463205 1_655
Ce2_7 In2_7 3.463205 1_555
Ce3_0 Pt0_4 2.972075 1_555
Ce3_0 Pt0_0 2.972075 1_555
Ce3_0 Ce8_0 3.358921 1_555
Ce3_0 In4_0 3.359967 1_555
Ce3_0 In4_4 3.359967 1_555
Ce3_0 In0_0 3.427862 1_555
Ce3_0 In0_4 3.427862 1_555
Ce3_0 In7_0 3.495118 1_555
Ce3_0 In7_4 3.495118 1_555
Ce3_1 Pt0_1 2.972075 1_555
Ce3_1 Pt0_5 2.972075 1_555
Ce3_1 Ce8_1 3.358921 1_555
Ce3_1 In4_1 3.359967 1_555
Ce3_1 In4_5 3.359967 1_555
Ce3_1 In0_1 3.427862 1_555
Ce3_1 In0_5 3.427862 1_555
Ce3_1 In7_1 3.495118 1_555
Ce3_1 In7_5 3.495118 1_555
Ce3_2 Pt0_6 2.972075 1_555
Ce3_2 Pt0_2 2.972075 1_555
Ce3_2 Ce8_2 3.358921 1_555
Ce3_2 In4_2 3.359967 1_555
Ce3_2 In4_6 3.359967 1_555
Ce3_2 In0_2 3.427862 1_555
Ce3_2 In0_6 3.427862 1_555
Ce3_2 In7_2 3.495118 1_555
Ce3_2 In7_6 3.495118 1_555
Ce3_3 Pt0_7 2.972075 1_555
Ce3_3 Pt0_3 2.972075 1_555
Ce3_3 Ce8_3 3.358921 1_555
Ce3_3 In4_7 3.359967 1_555
Ce3_3 In4_3 3.359967 1_555
Ce3_3 In0_3 3.427862 1_555
Ce3_3 In0_7 3.427862 1_555
Ce3_3 In7_7 3.495118 1_555
Ce3_3 In7_3 3.495118 1_555
Ce3_4 Pt0_0 2.972075 1_655
Ce3_4 Pt0_4 2.972075 1_555
Ce3_4 Ce8_4 3.358921 1_555
Ce3_4 In4_0 3.359967 1_655
Ce3_4 In4_4 3.359967 1_555
Ce3_4 In0_0 3.427862 1_655
Ce3_4 In0_4 3.427862 1_555
Ce3_4 In7_0 3.495118 1_655
Ce3_4 In7_4 3.495118 1_555
Ce3_5 Pt0_1 2.972075 1_655
Ce3_5 Pt0_5 2.972075 1_555
Ce3_5 Ce8_5 3.358921 1_555
Ce3_5 In4_1 3.359967 1_655
Ce3_5 In4_5 3.359967 1_555
Ce3_5 In0_1 3.427862 1_655
Ce3_5 In0_5 3.427862 1_555
Ce3_5 In7_1 3.495118 1_655
Ce3_5 In7_5 3.495118 1_555
Ce3_6 Pt0_2 2.972075 1_655
Ce3_6 Pt0_6 2.972075 1_555
Ce3_6 Ce8_6 3.358921 1_555
Ce3_6 In4_2 3.359967 1_655
Ce3_6 In4_6 3.359967 1_555
Ce3_6 In0_2 3.427862 1_655
Ce3_6 In0_6 3.427862 1_555
Ce3_6 In7_2 3.495118 1_655
Ce3_6 In7_6 3.495118 1_555
Ce3_7 Pt0_3 2.972075 1_655
Ce3_7 Pt0_7 2.972075 1_555
Ce3_7 Ce8_7 3.358921 1_555
Ce3_7 In4_3 3.359967 1_655
Ce3_7 In4_7 3.359967 1_555
Ce3_7 In0_3 3.427862 1_655
Ce3_7 In0_7 3.427862 1_555
Ce3_7 In7_3 3.495118 1_655
Ce3_7 In7_7 3.495118 1_555
Ce4_0 Pt1_0 2.972075 1_555
Ce4_0 Pt1_4 2.972075 1_555
Ce4_0 Ce5_0 3.358921 1_555
Ce4_0 In2_2 3.359967 1_545
Ce4_0 In2_6 3.359967 1_545
Ce4_0 In6_0 3.427862 1_555
Ce4_0 In6_4 3.427862 1_555
Ce4_0 In3_1 3.495118 1_554
Ce4_0 In3_5 3.495118 1_554
Ce4_1 Pt1_1 2.972075 1_555
Ce4_1 Pt1_5 2.972075 1_555
Ce4_1 Ce5_1 3.358921 1_555
Ce4_1 In2_3 3.359967 1_545
Ce4_1 In2_7 3.359967 1_545
Ce4_1 In6_1 3.427862 1_555
Ce4_1 In6_5 3.427862 1_555
Ce4_1 In3_0 3.495118 1_555
Ce4_1 In3_4 3.495118 1_555
Ce4_2 Pt1_6 2.972075 1_555
Ce4_2 Pt1_2 2.972075 1_555
Ce4_2 Ce5_2 3.358921 1_555
Ce4_2 In2_4 3.359967 1_555
Ce4_2 In2_0 3.359967 1_555
Ce4_2 In6_2 3.427862 1_555
Ce4_2 In6_6 3.427862 1_555
Ce4_2 In3_7 3.495118 1_554
Ce4_2 In3_3 3.495118 1_554
Ce4_3 Pt1_3 2.972075 1_555
Ce4_3 Pt1_7 2.972075 1_555
Ce4_3 Ce5_3 3.358921 1_555
Ce4_3 In2_1 3.359967 1_555
Ce4_3 In2_5 3.359967 1_555
Ce4_3 In6_7 3.427862 1_555
Ce4_3 In6_3 3.427862 1_555
Ce4_3 In3_6 3.495118 1_555
Ce4_3 In3_2 3.495118 1_555
Ce4_4 Pt1_0 2.972075 1_655
Ce4_4 Pt1_4 2.972075 1_555
Ce4_4 Ce5_4 3.358921 1_555
Ce4_4 In2_2 3.359967 1_645
Ce4_4 In2_6 3.359967 1_545
Ce4_4 In6_0 3.427862 1_655
Ce4_4 In6_4 3.427862 1_555
Ce4_4 In3_1 3.495118 1_654
Ce4_4 In3_5 3.495118 1_554
Ce4_5 Pt1_1 2.972075 1_655
Ce4_5 Pt1_5 2.972075 1_555
Ce4_5 Ce5_5 3.358921 1_555
Ce4_5 In2_3 3.359967 1_645
Ce4_5 In2_7 3.359967 1_545
Ce4_5 In6_1 3.427862 1_655
Ce4_5 In6_5 3.427862 1_555
Ce4_5 In3_0 3.495118 1_655
Ce4_5 In3_4 3.495118 1_555
Ce4_6 Pt1_2 2.972075 1_655
Ce4_6 Pt1_6 2.972075 1_555
Ce4_6 Ce5_6 3.358921 1_555
Ce4_6 In2_0 3.359967 1_655
Ce4_6 In2_4 3.359967 1_555
Ce4_6 In6_2 3.427862 1_655
Ce4_6 In6_6 3.427862 1_555
Ce4_6 In3_3 3.495118 1_654
Ce4_6 In3_7 3.495118 1_554
Ce4_7 Pt1_3 2.972075 1_655
Ce4_7 Pt1_7 2.972075 1_555
Ce4_7 Ce5_7 3.358921 1_555
Ce4_7 In2_1 3.359967 1_655
Ce4_7 In2_5 3.359967 1_555
Ce4_7 In6_3 3.427862 1_655
Ce4_7 In6_7 3.427862 1_555
Ce4_7 In3_2 3.495118 1_655
Ce4_7 In3_6 3.495118 1_555
Ce5_0 Ce6_1 3.358921 1_554
Ce5_0 In3_1 3.374771 1_554
Ce5_0 In3_5 3.374771 1_554
Ce5_0 In2_0 3.374771 1_555
Ce5_0 In2_4 3.374771 1_555
Ce5_0 In6_4 3.409898 1_555
Ce5_0 In6_0 3.409898 1_555
Ce5_0 In5_5 3.409898 1_554
Ce5_0 In5_1 3.409898 1_554
Ce5_0 Ce5_4 3.841259 1_455
Ce5_0 Ce5_4 3.841259 1_555
Ce5_1 Ce6_0 3.358921 1_555
Ce5_1 In2_1 3.374771 1_555
Ce5_1 In2_5 3.374771 1_555
Ce5_1 In3_4 3.374771 1_555
Ce5_1 In3_0 3.374771 1_555
Ce5_1 In6_5 3.409898 1_555
Ce5_1 In5_4 3.409898 1_555
Ce5_1 In5_0 3.409898 1_555
Ce5_1 In6_1 3.409898 1_555
Ce5_1 Ce5_5 3.841259 1_455
Ce5_1 Ce5_5 3.841259 1_555
Ce5_2 Ce6_3 3.358921 1_554
Ce5_2 In3_3 3.374771 1_554
Ce5_2 In3_7 3.374771 1_554
Ce5_2 In2_2 3.374771 1_555
Ce5_2 In2_6 3.374771 1_555
Ce5_2 In6_2 3.409898 1_555
Ce5_2 In6_6 3.409898 1_555
Ce5_2 In5_3 3.409898 1_554
Ce5_2 In5_7 3.409898 1_554
Ce5_2 Ce5_6 3.841259 1_455
Ce5_2 Ce5_6 3.841259 1_555
Ce5_3 Ce6_2 3.358921 1_555
Ce5_3 In2_3 3.374771 1_555
Ce5_3 In2_7 3.374771 1_555
Ce5_3 In3_2 3.374771 1_555
Ce5_3 In3_6 3.374771 1_555
Ce5_3 In5_2 3.409898 1_555
Ce5_3 In5_6 3.409898 1_555
Ce5_3 In6_3 3.409898 1_555
Ce5_3 In6_7 3.409898 1_555
Ce5_3 Ce5_7 3.841259 1_455
Ce5_3 Ce5_7 3.841259 1_555
Ce5_4 Ce6_5 3.358921 1_554
Ce5_4 In3_1 3.374771 1_654
Ce5_4 In3_5 3.374771 1_554
Ce5_4 In2_0 3.374771 1_655
Ce5_4 In2_4 3.374771 1_555
Ce5_4 In6_0 3.409898 1_655
Ce5_4 In6_4 3.409898 1_555
Ce5_4 In5_1 3.409898 1_654
Ce5_4 In5_5 3.409898 1_554
Ce5_5 Ce6_4 3.358921 1_555
Ce5_5 In2_1 3.374771 1_655
Ce5_5 In2_5 3.374771 1_555
Ce5_5 In3_0 3.374771 1_655
Ce5_5 In3_4 3.374771 1_555
Ce5_5 In5_0 3.409898 1_655
Ce5_5 In6_1 3.409898 1_655
Ce5_5 In5_4 3.409898 1_555
Ce5_5 In6_5 3.409898 1_555
Ce5_6 Ce6_7 3.358921 1_554
Ce5_6 In3_3 3.374771 1_654
Ce5_6 In3_7 3.374771 1_554
Ce5_6 In2_2 3.374771 1_655
Ce5_6 In2_6 3.374771 1_555
Ce5_6 In6_2 3.409898 1_655
Ce5_6 In6_6 3.409898 1_555
Ce5_6 In5_3 3.409898 1_654
Ce5_6 In5_7 3.409898 1_554
Ce5_7 Ce6_6 3.358921 1_555
Ce5_7 In2_3 3.374771 1_655
Ce5_7 In2_7 3.374771 1_555
Ce5_7 In3_2 3.374771 1_655
Ce5_7 In3_6 3.374771 1_555
Ce5_7 In5_2 3.409898 1_655
Ce5_7 In6_3 3.409898 1_655
Ce5_7 In5_6 3.409898 1_555
Ce5_7 In6_7 3.409898 1_555
Ce6_0 Pt2_0 2.972075 1_555
Ce6_0 Pt2_4 2.972075 1_555
Ce6_0 In3_6 3.359967 1_555
Ce6_0 In3_2 3.359967 1_555
Ce6_0 In5_0 3.427862 1_555
Ce6_0 In5_4 3.427862 1_555
Ce6_0 In2_1 3.495118 1_555
Ce6_0 In2_5 3.495118 1_555
Ce6_1 Pt2_5 2.972075 1_555
Ce6_1 Pt2_1 2.972075 1_555
Ce6_1 In3_7 3.359967 1_555
Ce6_1 In3_3 3.359967 1_555
Ce6_1 In5_1 3.427862 1_555
Ce6_1 In5_5 3.427862 1_555
Ce6_1 In2_4 3.495118 1_556
Ce6_1 In2_0 3.495118 1_556
Ce6_2 Pt2_2 2.972075 1_555
Ce6_2 Pt2_6 2.972075 1_555
Ce6_2 In3_0 3.359967 1_565
Ce6_2 In3_4 3.359967 1_565
Ce6_2 In5_2 3.427862 1_555
Ce6_2 In5_6 3.427862 1_555
Ce6_2 In2_3 3.495118 1_555
Ce6_2 In2_7 3.495118 1_555
Ce6_3 Pt2_3 2.972075 1_555
Ce6_3 Pt2_7 2.972075 1_555
Ce6_3 In3_1 3.359967 1_565
Ce6_3 In3_5 3.359967 1_565
Ce6_3 In5_7 3.427862 1_555
Ce6_3 In5_3 3.427862 1_555
Ce6_3 In2_2 3.495118 1_556
Ce6_3 In2_6 3.495118 1_556
Ce6_4 Pt2_0 2.972075 1_655
Ce6_4 Pt2_4 2.972075 1_555
Ce6_4 In3_2 3.359967 1_655
Ce6_4 In3_6 3.359967 1_555
Ce6_4 In5_0 3.427862 1_655
Ce6_4 In5_4 3.427862 1_555
Ce6_4 In2_1 3.495118 1_655
Ce6_4 In2_5 3.495118 1_555
Ce6_5 Pt2_1 2.972075 1_655
Ce6_5 Pt2_5 2.972075 1_555
Ce6_5 In3_3 3.359967 1_655
Ce6_5 In3_7 3.359967 1_555
Ce6_5 In5_1 3.427862 1_655
Ce6_5 In5_5 3.427862 1_555
Ce6_5 In2_0 3.495118 1_656
Ce6_5 In2_4 3.495118 1_556
Ce6_6 Pt2_2 2.972075 1_655
Ce6_6 Pt2_6 2.972075 1_555
Ce6_6 In3_0 3.359967 1_665
Ce6_6 In3_4 3.359967 1_565
Ce6_6 In5_2 3.427862 1_655
Ce6_6 In5_6 3.427862 1_555
Ce6_6 In2_3 3.495118 1_655
Ce6_6 In2_7 3.495118 1_555
Ce6_7 Pt2_3 2.972075 1_655
Ce6_7 Pt2_7 2.972075 1_555
Ce6_7 In3_1 3.359967 1_665
Ce6_7 In3_5 3.359967 1_565
Ce6_7 In5_3 3.427862 1_655
Ce6_7 In5_7 3.427862 1_555
Ce6_7 In2_2 3.495118 1_656
Ce6_7 In2_6 3.495118 1_556
Ce7_0 Pt3_0 3.000335 1_555
Ce7_0 Pt3_4 3.000335 1_555
Ce7_0 Pt1_0 3.059075 1_555
Ce7_0 Pt1_4 3.059075 1_555
Ce7_0 In6_0 3.436762 1_555
Ce7_0 In6_4 3.436762 1_555
Ce7_0 In1_6 3.460624 1_545
Ce7_0 In1_2 3.460624 1_545
Ce7_0 In7_0 3.463205 1_555
Ce7_0 In7_4 3.463205 1_555
Ce7_1 Pt3_1 3.000335 1_555
Ce7_1 Pt3_5 3.000335 1_555
Ce7_1 Pt1_5 3.059075 1_555
Ce7_1 Pt1_1 3.059075 1_555
Ce7_1 In6_1 3.436762 1_555
Ce7_1 In6_5 3.436762 1_555
Ce7_1 In1_3 3.460624 1_545
Ce7_1 In1_7 3.460624 1_545
Ce7_1 In7_1 3.463205 1_555
Ce7_1 In7_5 3.463205 1_555
Ce7_2 Pt3_6 3.000335 1_555
Ce7_2 Pt3_2 3.000335 1_555
Ce7_2 Pt1_6 3.059075 1_555
Ce7_2 Pt1_2 3.059075 1_555
Ce7_2 In6_2 3.436762 1_555
Ce7_2 In6_6 3.436762 1_555
Ce7_2 In1_0 3.460624 1_555
Ce7_2 In1_4 3.460624 1_555
Ce7_2 In7_2 3.463205 1_555
Ce7_2 In7_6 3.463205 1_555
Ce7_3 Pt3_7 3.000335 1_555
Ce7_3 Pt3_3 3.000335 1_555
Ce7_3 Pt1_7 3.059075 1_555
Ce7_3 Pt1_3 3.059075 1_555
Ce7_3 In6_3 3.436762 1_555
Ce7_3 In6_7 3.436762 1_555
Ce7_3 In1_1 3.460624 1_555
Ce7_3 In1_5 3.460624 1_555
Ce7_3 In7_3 3.463205 1_555
Ce7_3 In7_7 3.463205 1_555
Ce7_4 Pt3_0 3.000335 1_655
Ce7_4 Pt3_4 3.000335 1_555
Ce7_4 Pt1_0 3.059075 1_655
Ce7_4 Pt1_4 3.059075 1_555
Ce7_4 In6_0 3.436762 1_655
Ce7_4 In6_4 3.436762 1_555
Ce7_4 In1_2 3.460624 1_645
Ce7_4 In1_6 3.460624 1_545
Ce7_4 In7_0 3.463205 1_655
Ce7_4 In7_4 3.463205 1_555
Ce7_5 Pt3_1 3.000335 1_655
Ce7_5 Pt3_5 3.000335 1_555
Ce7_5 Pt1_1 3.059075 1_655
Ce7_5 Pt1_5 3.059075 1_555
Ce7_5 In6_1 3.436762 1_655
Ce7_5 In6_5 3.436762 1_555
Ce7_5 In1_3 3.460624 1_645
Ce7_5 In1_7 3.460624 1_545
Ce7_5 In7_1 3.463205 1_655
Ce7_5 In7_5 3.463205 1_555
Ce7_6 Pt3_2 3.000335 1_655
Ce7_6 Pt3_6 3.000335 1_555
Ce7_6 Pt1_2 3.059075 1_655
Ce7_6 Pt1_6 3.059075 1_555
Ce7_6 In6_2 3.436762 1_655
Ce7_6 In6_6 3.436762 1_555
Ce7_6 In1_0 3.460624 1_655
Ce7_6 In1_4 3.460624 1_555
Ce7_6 In7_2 3.463205 1_655
Ce7_6 In7_6 3.463205 1_555
Ce7_7 Pt3_3 3.000335 1_655
Ce7_7 Pt3_7 3.000335 1_555
Ce7_7 Pt1_3 3.059075 1_655
Ce7_7 Pt1_7 3.059075 1_555
Ce7_7 In6_3 3.436762 1_655
Ce7_7 In6_7 3.436762 1_555
Ce7_7 In1_1 3.460624 1_655
Ce7_7 In1_5 3.460624 1_555
Ce7_7 In7_3 3.463205 1_655
Ce7_7 In7_7 3.463205 1_555
Ce8_0 In7_0 3.374771 1_555
Ce8_0 In7_4 3.374771 1_555
Ce8_0 In4_2 3.374771 1_545
Ce8_0 In4_6 3.374771 1_545
Ce8_0 In0_0 3.409898 1_555
Ce8_0 In1_2 3.409898 1_545
Ce8_0 In0_4 3.409898 1_555
Ce8_0 In1_6 3.409898 1_545
Ce8_0 Ce8_4 3.841259 1_455
Ce8_0 Ce8_4 3.841259 1_555
Ce8_1 In7_5 3.374771 1_555
Ce8_1 In7_1 3.374771 1_555
Ce8_1 In4_7 3.374771 1_545
Ce8_1 In4_3 3.374771 1_545
Ce8_1 In0_1 3.409898 1_555
Ce8_1 In0_5 3.409898 1_555
Ce8_1 In1_3 3.409898 1_545
Ce8_1 In1_7 3.409898 1_545
Ce8_1 Ce8_5 3.841259 1_455
Ce8_1 Ce8_5 3.841259 1_555
Ce8_2 In7_2 3.374771 1_555
Ce8_2 In7_6 3.374771 1_555
Ce8_2 In4_4 3.374771 1_555
Ce8_2 In4_0 3.374771 1_555
Ce8_2 In0_2 3.409898 1_555
Ce8_2 In0_6 3.409898 1_555
Ce8_2 In1_4 3.409898 1_555
Ce8_2 In1_0 3.409898 1_555
Ce8_2 Ce8_6 3.841259 1_455
Ce8_2 Ce8_6 3.841259 1_555
Ce8_3 In7_7 3.374771 1_555
Ce8_3 In7_3 3.374771 1_555
Ce8_3 In4_5 3.374771 1_555
Ce8_3 In4_1 3.374771 1_555
Ce8_3 In0_3 3.409898 1_555
Ce8_3 In0_7 3.409898 1_555
Ce8_3 In1_1 3.409898 1_555
Ce8_3 In1_5 3.409898 1_555
Ce8_3 Ce8_7 3.841259 1_455
Ce8_3 Ce8_7 3.841259 1_555
Ce8_4 In7_0 3.374771 1_655
Ce8_4 In7_4 3.374771 1_555
Ce8_4 In4_2 3.374771 1_645
Ce8_4 In4_6 3.374771 1_545
Ce8_4 In0_0 3.409898 1_655
Ce8_4 In1_2 3.409898 1_645
Ce8_4 In1_6 3.409898 1_545
Ce8_4 In0_4 3.409898 1_555
Ce8_5 In7_1 3.374771 1_655
Ce8_5 In7_5 3.374771 1_555
Ce8_5 In4_3 3.374771 1_645
Ce8_5 In4_7 3.374771 1_545
Ce8_5 In0_1 3.409898 1_655
Ce8_5 In0_5 3.409898 1_555
Ce8_5 In1_3 3.409898 1_645
Ce8_5 In1_7 3.409898 1_545
Ce8_6 In7_2 3.374771 1_655
Ce8_6 In7_6 3.374771 1_555
Ce8_6 In4_0 3.374771 1_655
Ce8_6 In4_4 3.374771 1_555
Ce8_6 In0_2 3.409898 1_655
Ce8_6 In1_0 3.409898 1_655
Ce8_6 In0_6 3.409898 1_555
Ce8_6 In1_4 3.409898 1_555
Ce8_7 In7_3 3.374771 1_655
Ce8_7 In7_7 3.374771 1_555
Ce8_7 In4_1 3.374771 1_655
Ce8_7 In4_5 3.374771 1_555
Ce8_7 In0_3 3.409898 1_655
Ce8_7 In0_7 3.409898 1_555
Ce8_7 In1_1 3.409898 1_655
Ce8_7 In1_5 3.409898 1_555
Ce9_0 Pt0_4 3.000335 1_555
Ce9_0 Pt0_0 3.000335 1_555
Ce9_0 Pt2_0 3.059075 1_555
Ce9_0 Pt2_4 3.059075 1_555
Ce9_0 In5_4 3.436762 1_555
Ce9_0 In5_0 3.436762 1_555
Ce9_0 In0_6 3.460624 1_555
Ce9_0 In0_2 3.460624 1_555
Ce9_0 In4_0 3.463205 1_555
Ce9_0 In4_4 3.463205 1_555
Ce9_1 Pt0_5 3.000335 1_555
Ce9_1 Pt0_1 3.000335 1_555
Ce9_1 Pt2_1 3.059075 1_555
Ce9_1 Pt2_5 3.059075 1_555
Ce9_1 In5_5 3.436762 1_555
Ce9_1 In5_1 3.436762 1_555
Ce9_1 In0_3 3.460624 1_555
Ce9_1 In0_7 3.460624 1_555
Ce9_1 In4_5 3.463205 1_555
Ce9_1 In4_1 3.463205 1_555
Ce9_2 Pt0_6 3.000335 1_555
Ce9_2 Pt0_2 3.000335 1_555
Ce9_2 Pt2_2 3.059075 1_555
Ce9_2 Pt2_6 3.059075 1_555
Ce9_2 In5_2 3.436762 1_555
Ce9_2 In5_6 3.436762 1_555
Ce9_2 In0_0 3.460624 1_565
Ce9_2 In0_4 3.460624 1_565
Ce9_2 In4_6 3.463205 1_555
Ce9_2 In4_2 3.463205 1_555
Ce9_3 Pt0_3 3.000335 1_555
Ce9_3 Pt0_7 3.000335 1_555
Ce9_3 Pt2_7 3.059075 1_555
Ce9_3 Pt2_3 3.059075 1_555
Ce9_3 In5_3 3.436762 1_555
Ce9_3 In5_7 3.436762 1_555
Ce9_3 In0_5 3.460624 1_565
Ce9_3 In0_1 3.460624 1_565
Ce9_3 In4_3 3.463205 1_555
Ce9_3 In4_7 3.463205 1_555
Ce9_4 Pt0_0 3.000335 1_655
Ce9_4 Pt0_4 3.000335 1_555
Ce9_4 Pt2_0 3.059075 1_655
Ce9_4 Pt2_4 3.059075 1_555
Ce9_4 In5_0 3.436762 1_655
Ce9_4 In5_4 3.436762 1_555
Ce9_4 In0_2 3.460624 1_655
Ce9_4 In0_6 3.460624 1_555
Ce9_4 In4_0 3.463205 1_655
Ce9_4 In4_4 3.463205 1_555
Ce9_5 Pt0_1 3.000335 1_655
Ce9_5 Pt0_5 3.000335 1_555
Ce9_5 Pt2_1 3.059075 1_655
Ce9_5 Pt2_5 3.059075 1_555
Ce9_5 In5_1 3.436762 1_655
Ce9_5 In5_5 3.436762 1_555
Ce9_5 In0_3 3.460624 1_655
Ce9_5 In0_7 3.460624 1_555
Ce9_5 In4_1 3.463205 1_655
Ce9_5 In4_5 3.463205 1_555
Ce9_6 Pt0_2 3.000335 1_655
Ce9_6 Pt0_6 3.000335 1_555
Ce9_6 Pt2_2 3.059075 1_655
Ce9_6 Pt2_6 3.059075 1_555
Ce9_6 In5_2 3.436762 1_655
Ce9_6 In5_6 3.436762 1_555
Ce9_6 In0_0 3.460624 1_665
Ce9_6 In0_4 3.460624 1_565
Ce9_6 In4_2 3.463205 1_655
Ce9_6 In4_6 3.463205 1_555
Ce9_7 Pt0_3 3.000335 1_655
Ce9_7 Pt0_7 3.000335 1_555
Ce9_7 Pt2_3 3.059075 1_655
Ce9_7 Pt2_7 3.059075 1_555
Ce9_7 In5_3 3.436762 1_655
Ce9_7 In5_7 3.436762 1_555
Ce9_7 In0_1 3.460624 1_665
Ce9_7 In0_5 3.460624 1_565
Ce9_7 In4_3 3.463205 1_655
Ce9_7 In4_7 3.463205 1_555
In0_0 Pt2_2 2.984407 1_545
In0_0 In4_2 3.217638 1_545
In0_1 Pt2_3 2.984407 1_545
In0_1 In4_3 3.217638 1_545
In0_2 Pt2_0 2.984407 1_555
In0_2 In4_0 3.217638 1_555
In0_3 Pt2_1 2.984407 1_555
In0_3 In4_1 3.217638 1_555
In0_4 Pt2_6 2.984407 1_545
In0_4 In4_6 3.217638 1_545
In0_5 Pt2_7 2.984407 1_545
In0_5 In4_7 3.217638 1_545
In0_6 Pt2_4 2.984407 1_555
In0_6 In4_4 3.217638 1_555
In0_7 Pt2_5 2.984407 1_555
In0_7 In4_5 3.217638 1_555
In1_0 Pt1_2 2.984407 1_555
In1_0 In7_2 3.217638 1_555
In1_1 Pt1_3 2.984407 1_555
In1_1 In7_3 3.217638 1_555
In1_2 Pt1_0 2.984407 1_565
In1_2 In7_0 3.217638 1_565
In1_3 Pt1_1 2.984407 1_565
In1_3 In7_1 3.217638 1_565
In1_4 Pt1_6 2.984407 1_555
In1_4 In7_6 3.217638 1_555
In1_5 Pt1_7 2.984407 1_555
In1_5 In7_7 3.217638 1_555
In1_6 Pt1_4 2.984407 1_565
In1_6 In7_4 3.217638 1_565
In1_7 Pt1_5 2.984407 1_565
In1_7 In7_5 3.217638 1_565
In2_0 Pt1_2 3.011556 1_555
In2_0 In6_0 3.217638 1_555
In2_1 Pt1_3 3.011556 1_555
In2_1 In6_1 3.217638 1_555
In2_2 Pt1_0 3.011556 1_565
In2_2 In6_2 3.217638 1_555
In2_3 Pt1_1 3.011556 1_565
In2_3 In6_3 3.217638 1_555
In2_4 Pt1_6 3.011556 1_555
In2_4 In6_4 3.217638 1_555
In2_5 Pt1_7 3.011556 1_555
In2_5 In6_5 3.217638 1_555
In2_6 Pt1_4 3.011556 1_565
In2_6 In6_6 3.217638 1_555
In2_7 Pt1_5 3.011556 1_565
In2_7 In6_7 3.217638 1_555
In3_0 Pt2_2 3.011556 1_545
In3_0 In5_0 3.217638 1_555
In3_1 Pt2_3 3.011556 1_545
In3_1 In5_1 3.217638 1_555
In3_2 Pt2_0 3.011556 1_555
In3_2 In5_2 3.217638 1_555
In3_3 Pt2_1 3.011556 1_555
In3_3 In5_3 3.217638 1_555
In3_4 Pt2_6 3.011556 1_545
In3_4 In5_4 3.217638 1_555
In3_5 Pt2_7 3.011556 1_545
In3_5 In5_5 3.217638 1_555
In3_6 Pt2_4 3.011556 1_555
In3_6 In5_6 3.217638 1_555
In3_7 Pt2_5 3.011556 1_555
In3_7 In5_7 3.217638 1_555
In4_0 Pt0_0 3.011556 1_555
In4_1 Pt0_1 3.011556 1_555
In4_2 Pt0_2 3.011556 1_555
In4_3 Pt0_3 3.011556 1_555
In4_4 Pt0_4 3.011556 1_555
In4_5 Pt0_5 3.011556 1_555
In4_6 Pt0_6 3.011556 1_555
In4_7 Pt0_7 3.011556 1_555
In5_0 Pt0_0 2.984407 1_555
In5_1 Pt0_1 2.984407 1_555
In5_2 Pt0_2 2.984407 1_555
In5_3 Pt0_3 2.984407 1_555
In5_4 Pt0_4 2.984407 1_555
In5_5 Pt0_5 2.984407 1_555
In5_6 Pt0_6 2.984407 1_555
In5_7 Pt0_7 2.984407 1_555
In6_0 Pt3_0 2.984407 1_555
In6_1 Pt3_1 2.984407 1_555
In6_2 Pt3_2 2.984407 1_555
In6_3 Pt3_3 2.984407 1_555
In6_4 Pt3_4 2.984407 1_555
In6_5 Pt3_5 2.984407 1_555
In6_6 Pt3_6 2.984407 1_555
In6_7 Pt3_7 2.984407 1_555
In7_0 Pt3_0 3.011556 1_555
In7_1 Pt3_1 3.011556 1_555
In7_2 Pt3_2 3.011556 1_555
In7_3 Pt3_3 3.011556 1_555
In7_4 Pt3_4 3.011556 1_555
In7_5 Pt3_5 3.011556 1_555
In7_6 Pt3_6 3.011556 1_555
In7_7 Pt3_7 3.011556 1_555
