# generated using pymatgen
data_NbTe4
_symmetry_space_group_name_H-M   'P 1'
_cell_length_a   9.27727398
_cell_length_b   9.27727398
_cell_length_c   20.90829088
_cell_angle_alpha   90.00000000
_cell_angle_beta   90.00000000
_cell_angle_gamma   90.00000000
_symmetry_Int_Tables_number   1
_chemical_formula_structural   NbTe4
_chemical_formula_sum   'Nb12 Te48'
_cell_volume   1799.53085915
_cell_formula_units_Z   12
loop_
 _symmetry_equiv_pos_site_id
 _symmetry_equiv_pos_as_xyz
  1  'x, y, z'
loop_
 _atom_site_type_symbol
 _atom_site_label
 _atom_site_symmetry_multiplicity
 _atom_site_fract_x
 _atom_site_fract_y
 _atom_site_fract_z
 _atom_site_occupancy
  Nb  Nb0  1  -0.00000000  0.00000000  0.59664040  1
  Nb  Nb1  1  0.50000000  0.50000000  0.92848200  1
  Nb  Nb2  1  -0.00000000  0.00000000  0.90212589  1
  Nb  Nb3  1  0.50000000  0.50000000  0.58048573  1
  Nb  Nb4  1  0.50000000  0.50000000  0.73431690  1
  Nb  Nb5  1  0.50000000  0.50000000  0.08025550  1
  Nb  Nb6  1  -0.00000000  0.00000000  0.40167249  1
  Nb  Nb7  1  0.50000000  0.50000000  0.42875828  1
  Nb  Nb8  1  -0.00000000  0.00000000  0.09645767  1
  Nb  Nb9  1  -0.00000000  0.00000000  0.75015318  1
  Nb  Nb10  1  0.50000000  0.50000000  0.23409584  1
  Nb  Nb11  1  -0.00000000  0.00000000  0.24980174  1
  Te  Te0  1  0.76216800  0.09187142  0.16864010  1
  Te  Te1  1  0.23783200  0.90812858  0.16864010  1
  Te  Te2  1  0.21442367  0.09620330  0.99943680  1
  Te  Te3  1  0.90853418  0.23790960  0.66890627  1
  Te  Te4  1  0.09698654  0.21375988  0.49932783  1
  Te  Te5  1  0.09620330  0.78557633  0.99943680  1
  Te  Te6  1  0.73682020  0.40651496  0.16166090  1
  Te  Te7  1  0.90812858  0.76216800  0.16864010  1
  Te  Te8  1  0.78557633  0.90379670  0.99943680  1
  Te  Te9  1  0.90379670  0.21442367  0.99943680  1
  Te  Te10  1  0.74198134  0.41600305  0.50070225  1
  Te  Te11  1  0.24154396  0.08497124  0.32974567  1
  Te  Te12  1  0.28562656  0.40386779  0.33119748  1
  Te  Te13  1  0.23790960  0.09146582  0.66890627  1
  Te  Te14  1  0.26318080  0.59348504  0.16166090  1
  Te  Te15  1  0.41509292  0.74161030  0.00047007  1
  Te  Te16  1  0.21375988  0.90301346  0.49932783  1
  Te  Te17  1  0.26333235  0.40613794  0.66190450  1
  Te  Te18  1  0.28496865  0.59527010  0.83122498  1
  Te  Te19  1  0.09187142  0.23783200  0.16864010  1
  Te  Te20  1  0.78624012  0.09698654  0.49932783  1
  Te  Te21  1  0.91502876  0.24154396  0.32974567  1
  Te  Te22  1  0.59613221  0.28562656  0.33119748  1
  Te  Te23  1  0.59348504  0.73682020  0.16166090  1
  Te  Te24  1  0.73666765  0.59386206  0.66190450  1
  Te  Te25  1  0.25801866  0.58399695  0.50070225  1
  Te  Te26  1  0.91405625  0.75889844  0.83012200  1
  Te  Te27  1  0.40613794  0.73666765  0.66190450  1
  Te  Te28  1  0.24110156  0.91405625  0.83012200  1
  Te  Te29  1  0.25838970  0.41509292  0.00047007  1
  Te  Te30  1  0.58490708  0.25838970  0.00047007  1
  Te  Te31  1  0.09146582  0.76209040  0.66890627  1
  Te  Te32  1  0.76209040  0.90853418  0.66890627  1
  Te  Te33  1  0.08594375  0.24110156  0.83012200  1
  Te  Te34  1  0.40651496  0.26318080  0.16166090  1
  Te  Te35  1  0.59386206  0.26333235  0.66190450  1
  Te  Te36  1  0.71437344  0.59613221  0.33119748  1
  Te  Te37  1  0.75845604  0.91502876  0.32974567  1
  Te  Te38  1  0.90301346  0.78624012  0.49932783  1
  Te  Te39  1  0.58399695  0.74198134  0.50070225  1
  Te  Te40  1  0.40386779  0.71437344  0.33119748  1
  Te  Te41  1  0.08497124  0.75845604  0.32974567  1
  Te  Te42  1  0.71503135  0.40472990  0.83122498  1
  Te  Te43  1  0.74161030  0.58490708  0.00047007  1
  Te  Te44  1  0.59527010  0.71503135  0.83122498  1
  Te  Te45  1  0.40472990  0.28496865  0.83122498  1
  Te  Te46  1  0.41600305  0.25801866  0.50070225  1
  Te  Te47  1  0.75889844  0.08594375  0.83012200  1
loop_
_geom_bond_atom_site_label_1
_geom_bond_atom_site_label_2
_geom_bond_distance
_geom_bond_site_symmetry_2
Nb0 Te3 2.806163 1_455
Nb0 Te13 2.806163 1_555
Nb0 Te31 2.806163 1_545
Nb0 Te32 2.806163 1_445
Nb0 Te16 2.980280 1_545
Nb0 Te38 2.980280 1_445
Nb0 Te20 2.980280 1_455
Nb0 Te4 2.980280 1_555
Nb1 Te43 2.812509 1_556
Nb1 Te15 2.812509 1_556
Nb1 Te29 2.812509 1_556
Nb1 Te30 2.812509 1_556
Nb1 Te44 2.982593 1_555
Nb1 Te42 2.982593 1_555
Nb1 Te45 2.982593 1_555
Nb1 Te18 2.982593 1_555
Nb2 Te33 2.811638 1_555
Nb2 Te26 2.811638 1_445
Nb2 Te28 2.811638 1_545
Nb2 Te47 2.811638 1_455
Nb2 Te8 2.982174 1_445
Nb2 Te5 2.982174 1_545
Nb2 Te2 2.982174 1_555
Nb2 Te9 2.982174 1_455
Nb3 Te46 2.903382 1_555
Nb3 Te25 2.903382 1_555
Nb3 Te10 2.903382 1_555
Nb3 Te39 2.903382 1_555
Nb3 Te17 2.911525 1_555
Nb3 Te35 2.911525 1_555
Nb3 Te24 2.911525 1_555
Nb3 Te27 2.911525 1_555
Nb4 Te24 2.805586 1_555
Nb4 Te17 2.805586 1_555
Nb4 Te35 2.805586 1_555
Nb4 Te27 2.805586 1_555
Nb4 Te42 2.977624 1_555
Nb4 Te44 2.977624 1_555
Nb4 Te18 2.977624 1_555
Nb4 Te45 2.977624 1_555
Nb5 Te30 2.903024 1_555
Nb5 Te43 2.903024 1_555
Nb5 Te15 2.903024 1_555
Nb5 Te29 2.903024 1_555
Nb5 Te34 2.911378 1_555
Nb5 Te14 2.911378 1_555
Nb5 Te6 2.911385 1_555
Nb5 Te23 2.911385 1_555
Nb6 Te11 2.811500 1_555
Nb6 Te37 2.811500 1_445
Nb6 Te41 2.811500 1_545
Nb6 Te21 2.811500 1_455
Nb6 Te38 2.985177 1_445
Nb6 Te16 2.985177 1_545
Nb6 Te20 2.985177 1_455
Nb6 Te4 2.985177 1_555
Nb7 Te25 2.812409 1_555
Nb7 Te46 2.812409 1_555
Nb7 Te39 2.812409 1_555
Nb7 Te10 2.812409 1_555
Nb7 Te12 2.985234 1_555
Nb7 Te22 2.985234 1_555
Nb7 Te36 2.985234 1_555
Nb7 Te40 2.985234 1_555
Nb8 Te1 2.805799 1_545
Nb8 Te19 2.805799 1_555
Nb8 Te7 2.805799 1_445
Nb8 Te0 2.805799 1_455
Nb8 Te8 2.978040 1_444
Nb8 Te5 2.978040 1_544
Nb8 Te2 2.978040 1_554
Nb8 Te9 2.978040 1_454
Nb9 Te33 2.904215 1_555
Nb9 Te28 2.904215 1_545
Nb9 Te26 2.904215 1_445
Nb9 Te47 2.904215 1_455
Nb9 Te3 2.911574 1_455
Nb9 Te13 2.911574 1_555
Nb9 Te31 2.911574 1_545
Nb9 Te32 2.911574 1_445
Nb10 Te34 2.805858 1_555
Nb10 Te14 2.805858 1_555
Nb10 Te6 2.805865 1_555
Nb10 Te23 2.805865 1_555
Nb10 Te36 2.978682 1_555
Nb10 Te40 2.978682 1_555
Nb10 Te12 2.978682 1_555
Nb10 Te22 2.978682 1_555
Nb11 Te11 2.904617 1_555
Nb11 Te37 2.904617 1_445
Nb11 Te41 2.904617 1_545
Nb11 Te21 2.904617 1_455
Nb11 Te1 2.911088 1_545
Nb11 Te19 2.911088 1_555
Nb11 Te7 2.911088 1_445
Nb11 Te0 2.911088 1_455
Te2 Te29 2.986490 1_556
Te2 Te5 3.083423 1_545
Te2 Te9 3.083423 1_455
Te4 Te46 2.988088 1_555
Te5 Te8 3.083423 1_455
Te8 Te9 3.083423 1_565
Te10 Te20 2.988088 1_555
Te11 Te12 2.986778 1_555
Te12 Te40 3.082440 1_555
Te12 Te22 3.082440 1_555
Te15 Te5 2.986490 1_554
Te16 Te25 2.988088 1_555
Te16 Te38 3.079711 1_455
Te16 Te4 3.079711 1_565
Te18 Te28 2.985425 1_555
Te18 Te45 3.085719 1_555
Te18 Te44 3.085719 1_555
Te20 Te38 3.079711 1_545
Te20 Te4 3.079711 1_655
Te21 Te22 2.986778 1_555
Te22 Te36 3.082440 1_555
Te26 Te44 2.985425 1_555
Te30 Te9 2.986490 1_554
Te33 Te45 2.985425 1_555
Te36 Te37 2.986778 1_555
Te36 Te40 3.082440 1_555
Te38 Te39 2.988088 1_555
Te40 Te41 2.986778 1_555
Te42 Te47 2.985425 1_555
Te42 Te44 3.085719 1_555
Te42 Te45 3.085719 1_555
Te43 Te8 2.986490 1_554
