# generated using pymatgen
data_Ca4Mg4Fe3H22
_symmetry_space_group_name_H-M   'P 1'
_cell_length_a   6.68528900
_cell_length_b   6.68528900
_cell_length_c   6.68528900
_cell_angle_alpha   90.00000000
_cell_angle_beta   90.00000000
_cell_angle_gamma   90.00000000
_symmetry_Int_Tables_number   1
_chemical_formula_structural   Ca4Mg4Fe3H22
_chemical_formula_sum   'Ca4 Mg4 Fe3 H22'
_cell_volume   298.78621636
_cell_formula_units_Z   1
loop_
 _symmetry_equiv_pos_site_id
 _symmetry_equiv_pos_as_xyz
  1  'x, y, z'
loop_
 _atom_site_type_symbol
 _atom_site_label
 _atom_site_symmetry_multiplicity
 _atom_site_fract_x
 _atom_site_fract_y
 _atom_site_fract_z
 _atom_site_occupancy
  Ca  Ca0  1  0.29113900  0.29113900  0.70886100  1
  Ca  Ca1  1  0.29113900  0.70886100  0.29113900  1
  Ca  Ca2  1  0.70886100  0.29113900  0.29113900  1
  Ca  Ca3  1  0.70886100  0.70886100  0.70886100  1
  Mg  Mg0  1  0.78753900  0.78753900  0.21246100  1
  Mg  Mg1  1  0.78753900  0.21246100  0.78753900  1
  Mg  Mg2  1  0.21246100  0.78753900  0.78753900  1
  Mg  Mg3  1  0.21246100  0.21246100  0.21246100  1
  Fe  Fe0  1  0.00000000  0.00000000  0.50000000  1
  Fe  Fe1  1  0.00000000  0.50000000  0.00000000  1
  Fe  Fe2  1  0.50000000  0.00000000  0.00000000  1
  H  H0  1  0.00000000  0.50000000  0.23656800  1
  H  H1  1  0.50000000  0.76343200  0.00000000  1
  H  H2  1  0.76343200  0.00000000  0.50000000  1
  H  H3  1  0.00000000  0.76343200  0.50000000  1
  H  H4  1  0.50000000  0.00000000  0.23656800  1
  H  H5  1  0.76343200  0.50000000  0.00000000  1
  H  H6  1  0.00000000  0.50000000  0.76343200  1
  H  H7  1  0.50000000  0.23656800  0.00000000  1
  H  H8  1  0.00000000  0.23656800  0.50000000  1
  H  H9  1  0.50000000  0.00000000  0.76343200  1
  H  H10  1  0.23656800  0.00000000  0.50000000  1
  H  H11  1  0.23656800  0.50000000  0.00000000  1
  H  H12  1  0.00000000  0.00000000  0.26381100  1
  H  H13  1  0.00000000  0.73618900  0.00000000  1
  H  H14  1  0.73618900  0.00000000  0.00000000  1
  H  H15  1  0.00000000  0.00000000  0.73618900  1
  H  H16  1  0.00000000  0.26381100  0.00000000  1
  H  H17  1  0.26381100  0.00000000  0.00000000  1
  H  H18  1  0.62731700  0.62731700  0.37268300  1
  H  H19  1  0.62731700  0.37268300  0.62731700  1
  H  H20  1  0.37268300  0.62731700  0.62731700  1
  H  H21  1  0.37268300  0.37268300  0.37268300  1
loop_
_geom_bond_atom_site_label_1
_geom_bond_atom_site_label_2
_geom_bond_distance
_geom_bond_site_symmetry_2
Ca0 H21 2.376002 1_555
Ca0 H19 2.376002 1_555
Ca0 H20 2.376002 1_555
Ca0 H8 2.423017 1_555
Ca0 H10 2.423017 1_555
Ca0 H6 2.423017 1_555
Ca0 H9 2.423017 1_555
Ca0 H7 2.423017 1_556
Ca0 H11 2.423017 1_556
Ca1 H21 2.376002 1_555
Ca1 H20 2.376002 1_555
Ca1 H18 2.376002 1_555
Ca1 H0 2.423017 1_555
Ca1 H11 2.423017 1_555
Ca1 H1 2.423017 1_555
Ca1 H3 2.423017 1_555
Ca1 H4 2.423017 1_565
Ca1 H10 2.423017 1_565
Ca2 H21 2.376002 1_555
Ca2 H19 2.376002 1_555
Ca2 H18 2.376002 1_555
Ca2 H7 2.423017 1_555
Ca2 H4 2.423017 1_555
Ca2 H2 2.423017 1_555
Ca2 H5 2.423017 1_555
Ca2 H8 2.423017 1_655
Ca2 H0 2.423017 1_655
Ca3 H18 2.376002 1_555
Ca3 H19 2.376002 1_555
Ca3 H20 2.376002 1_555
Ca3 H3 2.423017 1_655
Ca3 H2 2.423017 1_565
Ca3 H5 2.423017 1_556
Ca3 H9 2.423017 1_565
Ca3 H1 2.423017 1_556
Ca3 H6 2.423017 1_655
Fe0 H12 1.578992 1_555
Fe0 H15 1.578992 1_555
Fe0 H8 1.581525 1_555
Fe0 H2 1.581525 1_455
Fe0 H10 1.581525 1_555
Fe0 H3 1.581525 1_545
Fe1 H13 1.578992 1_555
Fe1 H16 1.578992 1_555
Fe1 H0 1.581525 1_555
Fe1 H6 1.581525 1_554
Fe1 H11 1.581525 1_555
Fe1 H5 1.581525 1_455
Fe2 H17 1.578992 1_555
Fe2 H14 1.578992 1_555
Fe2 H7 1.581525 1_555
Fe2 H4 1.581525 1_555
Fe2 H9 1.581525 1_554
Fe2 H1 1.581525 1_545
H12 Mg3 2.037820 1_555
H12 Mg0 2.037820 1_445
H13 Mg2 2.037820 1_554
H13 Mg0 2.037820 1_455
H14 Mg0 2.037820 1_545
H14 Mg1 2.037820 1_554
H15 Mg1 2.037820 1_455
H15 Mg2 2.037820 1_545
H16 Mg3 2.037820 1_555
H16 Mg1 2.037820 1_454
H17 Mg3 2.037820 1_555
H17 Mg2 2.037820 1_544
H18 Mg0 1.855252 1_555
H19 Mg1 1.855252 1_555
H20 Mg2 1.855252 1_555
H21 Mg3 1.855252 1_555
