# generated using pymatgen
data_CaRe2H6C(NO5)2
_symmetry_space_group_name_H-M   'P 1'
_cell_length_a   7.44432400
_cell_length_b   9.25117321
_cell_length_c   9.31243224
_cell_angle_alpha   111.56349882
_cell_angle_beta   91.29682901
_cell_angle_gamma   104.93102741
_symmetry_Int_Tables_number   1
_chemical_formula_structural   CaRe2H6C(NO5)2
_chemical_formula_sum   'Ca2 Re4 H12 C2 N4 O20'
_cell_volume   571.37724680
_cell_formula_units_Z   2
loop_
 _symmetry_equiv_pos_site_id
 _symmetry_equiv_pos_as_xyz
  1  'x, y, z'
loop_
 _atom_site_type_symbol
 _atom_site_label
 _atom_site_symmetry_multiplicity
 _atom_site_fract_x
 _atom_site_fract_y
 _atom_site_fract_z
 _atom_site_occupancy
  Ca  Ca0  1  0.41893800  0.78389800  0.51618900  1
  Ca  Ca1  1  0.58106200  0.21610200  0.48381100  1
  Re  Re0  1  0.16272400  0.38450600  0.63903500  1
  Re  Re1  1  0.83727600  0.61549400  0.36096500  1
  Re  Re2  1  0.28305100  0.32671200  0.17106100  1
  Re  Re3  1  0.71694900  0.67328800  0.82893900  1
  H  H0  1  0.15698800  0.72012000  0.01442100  1
  H  H1  1  0.84301200  0.27988000  0.98557900  1
  H  H2  1  0.37395200  0.72596000  0.09287900  1
  H  H3  1  0.62604800  0.27404000  0.90712100  1
  H  H4  1  0.98186700  0.88078500  0.17039000  1
  H  H5  1  0.01813300  0.11921500  0.82961000  1
  H  H6  1  0.07488600  0.00868800  0.36307100  1
  H  H7  1  0.92511400  0.99131200  0.63692900  1
  H  H8  1  0.14928600  0.85266600  0.76961400  1
  H  H9  1  0.85071400  0.14733400  0.23038600  1
  H  H10  1  0.34345500  0.98437700  0.83958300  1
  H  H11  1  0.65654500  0.01562300  0.16041700  1
  C  C0  1  0.24578200  0.87865800  0.24426000  1
  C  C1  1  0.75421800  0.12134200  0.75574000  1
  N  N0  1  0.26177600  0.77103900  0.10490300  1
  N  N1  1  0.73822400  0.22896100  0.89509700  1
  N  N2  1  0.08777200  0.92555600  0.25863500  1
  N  N3  1  0.91222800  0.07444400  0.74136500  1
  O  O0  1  0.27190300  0.53196000  0.56821500  1
  O  O1  1  0.72809700  0.46804000  0.43178500  1
  O  O2  1  0.26690600  0.22477000  0.57549200  1
  O  O3  1  0.73309400  0.77523000  0.42450800  1
  O  O4  1  0.92345000  0.30722500  0.56506400  1
  O  O5  1  0.07655000  0.69277500  0.43493600  1
  O  O6  1  0.18746000  0.46962200  0.84233100  1
  O  O7  1  0.81254000  0.53037800  0.15766900  1
  O  O8  1  0.37477500  0.53890400  0.25627800  1
  O  O9  1  0.62522500  0.46109600  0.74372200  1
  O  O10  1  0.37920500  0.23819900  0.27869100  1
  O  O11  1  0.62079500  0.76180100  0.72130900  1
  O  O12  1  0.03658300  0.26931200  0.16350300  1
  O  O13  1  0.96341700  0.73068800  0.83649700  1
  O  O14  1  0.33602200  0.25039200  0.98046500  1
  O  O15  1  0.66397800  0.74960800  0.01953500  1
  O  O16  1  0.26731200  0.90717200  0.74143700  1
  O  O17  1  0.73268800  0.09282800  0.25856300  1
  O  O18  1  0.37615600  0.93459700  0.35906000  1
  O  O19  1  0.62384400  0.06540300  0.64094000  1
loop_
_geom_bond_atom_site_label_1
_geom_bond_atom_site_label_2
_geom_bond_distance
_geom_bond_site_symmetry_2
Ca0 O18 2.427633 1_555
Ca0 O16 2.446779 1_555
Ca0 O19 2.471310 1_565
Ca0 O5 2.473136 1_555
Ca0 O11 2.502798 1_555
Ca0 O3 2.518228 1_555
Ca0 O0 2.530711 1_555
Ca0 O8 2.578947 1_555
Ca1 O19 2.427633 1_555
Ca1 O17 2.446779 1_555
Ca1 O18 2.471310 1_545
Ca1 O4 2.473136 1_555
Ca1 O10 2.502798 1_555
Ca1 O2 2.518228 1_555
Ca1 O1 2.530711 1_555
Ca1 O9 2.578947 1_555
H0 N0 1.014659 1_555
H1 N1 1.014659 1_555
H2 N0 1.016450 1_555
H3 N1 1.016450 1_555
H4 N2 1.010266 1_655
H5 N3 1.010266 1_455
H6 N2 1.019298 1_545
H7 N3 1.019298 1_565
H8 O16 0.987159 1_555
H9 O17 0.987159 1_555
H10 O16 0.977173 1_555
H11 O17 0.977173 1_555
C0 O18 1.280710 1_555
C0 N0 1.344584 1_555
C0 N2 1.348038 1_555
C1 O19 1.280710 1_555
C1 N1 1.344584 1_555
C1 N3 1.348038 1_555
O0 Re0 1.752311 1_555
O1 Re1 1.752311 1_555
O2 Re0 1.761813 1_555
O3 Re1 1.761813 1_555
O4 Re0 1.756320 1_655
O5 Re1 1.756320 1_455
O6 Re0 1.746938 1_555
O7 Re1 1.746938 1_555
O8 Re2 1.757594 1_555
O9 Re3 1.757594 1_555
O10 Re2 1.749383 1_555
O11 Re3 1.749383 1_555
O12 Re2 1.765783 1_555
O13 Re3 1.765783 1_555
O14 Re2 1.748802 1_556
O15 Re3 1.748802 1_554
