# generated using pymatgen
data_Ho5(Ge5Ir2)2
_symmetry_space_group_name_H-M   'P 1'
_cell_length_a   12.92456693
_cell_length_b   12.92456579
_cell_length_c   4.30215619
_cell_angle_alpha   90.00000133
_cell_angle_beta   89.99999920
_cell_angle_gamma   90.00002593
_symmetry_Int_Tables_number   1
_chemical_formula_structural   Ho5(Ge5Ir2)2
_chemical_formula_sum   'Ho10 Ge20 Ir8'
_cell_volume   718.65116655
_cell_formula_units_Z   2
loop_
 _symmetry_equiv_pos_site_id
 _symmetry_equiv_pos_as_xyz
  1  'x, y, z'
loop_
 _atom_site_type_symbol
 _atom_site_label
 _atom_site_symmetry_multiplicity
 _atom_site_fract_x
 _atom_site_fract_y
 _atom_site_fract_z
 _atom_site_occupancy
  Ho  Ho0  1  0.50000018  0.50000095  0.00000012  1
  Ho  Ho1  1  0.00000115  -0.00000057  0.00000001  1
  Ho  Ho2  1  0.67330246  0.17330177  0.49999994  1
  Ho  Ho3  1  0.32669857  0.82669654  0.50000004  1
  Ho  Ho4  1  0.17329650  0.32670484  0.50000053  1
  Ho  Ho5  1  0.82670249  0.67329638  0.50000006  1
  Ho  Ho6  1  0.88470677  0.38471753  0.49999969  1
  Ho  Ho7  1  0.11529512  0.61528942  0.49999974  1
  Ho  Ho8  1  0.38473609  0.11526692  0.49999983  1
  Ho  Ho9  1  0.61526083  0.88472489  0.50000020  1
  Ge  Ge0  1  0.56718826  0.06718672  0.00000001  1
  Ge  Ge1  1  0.43281177  0.93281052  -0.00000009  1
  Ge  Ge2  1  0.06718984  0.43281137  0.00000003  1
  Ge  Ge3  1  0.93280917  0.56719287  -0.00000013  1
  Ge  Ge4  1  0.66432162  0.70032974  -0.00000012  1
  Ge  Ge5  1  0.33567975  0.29967181  0.00000021  1
  Ge  Ge6  1  0.16432220  0.79966794  -0.00000009  1
  Ge  Ge7  1  0.83567704  0.20033081  0.00000001  1
  Ge  Ge8  1  0.29967315  0.66432294  -0.00000010  1
  Ge  Ge9  1  0.70032836  0.33568151  -0.00000011  1
  Ge  Ge10  1  0.20033225  0.16432073  -0.00000013  1
  Ge  Ge11  1  0.79966805  0.83567577  0.00000016  1
  Ge  Ge12  1  0.84412364  0.00541716  0.50000007  1
  Ge  Ge13  1  0.15587580  0.99457513  0.49999990  1
  Ge  Ge14  1  0.34412970  0.49457210  0.50000001  1
  Ge  Ge15  1  0.65587131  0.50543161  0.50000005  1
  Ge  Ge16  1  0.99457173  0.84412363  0.49999994  1
  Ge  Ge17  1  0.00542405  0.15587159  0.50000014  1
  Ge  Ge18  1  0.50542686  0.34412979  0.50000019  1
  Ge  Ge19  1  0.49457389  0.65587488  0.49999985  1
  Ir  Ir0  1  0.75439079  0.01962297  0.00000000  1
  Ir  Ir1  1  0.24560891  0.98037239  -0.00000008  1
  Ir  Ir2  1  0.25438708  0.48037320  -0.00000001  1
  Ir  Ir3  1  0.74561162  0.51962976  0.00000004  1
  Ir  Ir4  1  0.98037264  0.75438771  -0.00000010  1
  Ir  Ir5  1  0.01962880  0.24561320  0.00000008  1
  Ir  Ir6  1  0.51962675  0.25439266  0.00000021  1
  Ir  Ir7  1  0.48037584  0.74560880  -0.00000009  1
loop_
_geom_bond_atom_site_label_1
_geom_bond_atom_site_label_2
_geom_bond_distance
_geom_bond_site_symmetry_2
Ho0 Ir7 3.184492 1_555
Ho0 Ir6 3.184500 1_555
Ho0 Ir3 3.184543 1_555
Ho0 Ir2 3.184563 1_555
Ho1 Ir1 3.184494 1_545
Ho1 Ir0 3.184524 1_455
Ho1 Ir4 3.184546 1_445
Ho1 Ir5 3.184571 1_555
Ho2 Ir6 3.109748 1_555
Ho2 Ir6 3.109749 1_556
Ho2 Ir0 3.109763 1_555
Ho2 Ir0 3.109763 1_556
Ho3 Ir1 3.109744 1_556
Ho3 Ir1 3.109745 1_555
Ho3 Ir7 3.109747 1_556
Ho3 Ir7 3.109748 1_555
Ho4 Ir5 3.109684 1_556
Ho4 Ir2 3.109684 1_556
Ho4 Ir5 3.109687 1_555
Ho4 Ir2 3.109688 1_555
Ho5 Ir3 3.109673 1_556
Ho5 Ir3 3.109673 1_555
Ho5 Ir4 3.109704 1_556
Ho5 Ir4 3.109705 1_555
Ho6 Ir3 3.301431 1_555
Ho6 Ir3 3.301433 1_556
Ho6 Ir5 3.301562 1_655
Ho6 Ir5 3.301564 1_656
Ho7 Ir2 3.301436 1_555
Ho7 Ir2 3.301437 1_556
Ho7 Ir4 3.301524 1_455
Ho7 Ir4 3.301524 1_456
Ho8 Ir6 3.301498 1_555
Ho8 Ir6 3.301500 1_556
Ho8 Ir1 3.301535 1_545
Ho8 Ir1 3.301536 1_546
Ho9 Ir7 3.301392 1_556
Ho9 Ir7 3.301393 1_555
Ho9 Ir0 3.301579 1_566
Ho9 Ir0 3.301580 1_565
Ge0 Ge1 2.456143 1_545
Ge0 Ir0 2.496386 1_555
Ge0 Ir6 2.496422 1_555
Ge0 Ho2 2.896391 1_555
Ge0 Ho2 2.896391 1_554
Ge0 Ho8 3.251769 1_555
Ge0 Ho8 3.251770 1_554
Ge0 Ho9 3.251840 1_544
Ge0 Ho9 3.251841 1_545
Ge1 Ir7 2.496377 1_555
Ge1 Ir1 2.496384 1_555
Ge1 Ho3 2.896378 1_554
Ge1 Ho3 2.896379 1_555
Ge1 Ho9 3.251753 1_554
Ge1 Ho9 3.251754 1_555
Ge1 Ho8 3.251797 1_565
Ge1 Ho8 3.251798 1_564
Ge2 Ge3 2.456231 1_455
Ge2 Ir2 2.496313 1_555
Ge2 Ir5 2.496322 1_555
Ge2 Ho4 2.896292 1_554
Ge2 Ho4 2.896295 1_555
Ge2 Ho7 3.252072 1_555
Ge2 Ho7 3.252074 1_554
Ge2 Ho6 3.252091 1_455
Ge2 Ho6 3.252093 1_454
Ge3 Ir4 2.496288 1_555
Ge3 Ir3 2.496321 1_555
Ge3 Ho5 2.896274 1_554
Ge3 Ho5 2.896275 1_555
Ge3 Ho6 3.252040 1_555
Ge3 Ho6 3.252041 1_554
Ge3 Ho7 3.252126 1_655
Ge3 Ho7 3.252126 1_654
Ge4 Ir7 2.448387 1_555
Ge4 Ir3 2.560909 1_555
Ge4 Ho5 3.025519 1_554
Ge4 Ho5 3.025520 1_555
Ge4 Ho9 3.272457 1_554
Ge4 Ho9 3.272459 1_555
Ge4 Ho0 3.348763 1_555
Ge5 Ir6 2.448402 1_555
Ge5 Ir2 2.560940 1_555
Ge5 Ho4 3.025539 1_554
Ge5 Ho4 3.025541 1_555
Ge5 Ho8 3.272537 1_555
Ge5 Ho8 3.272539 1_554
Ge5 Ho0 3.348758 1_555
Ge6 Ir4 2.448437 1_455
Ge6 Ge8 2.473904 1_555
Ge6 Ir1 2.560944 1_555
Ge6 Ho3 3.025471 1_554
Ge6 Ho3 3.025472 1_555
Ge6 Ho7 3.272216 1_555
Ge6 Ho7 3.272217 1_554
Ge6 Ho1 3.348788 1_565
Ge7 Ir5 2.448472 1_655
Ge7 Ge9 2.473935 1_555
Ge7 Ir0 2.560981 1_555
Ge7 Ho2 3.025456 1_555
Ge7 Ho2 3.025456 1_554
Ge7 Ho6 3.272299 1_555
Ge7 Ho6 3.272301 1_554
Ge7 Ho1 3.348812 1_655
Ge8 Ir2 2.448458 1_555
Ge8 Ir7 2.560919 1_555
Ge8 Ho3 3.025441 1_554
Ge8 Ho3 3.025442 1_555
Ge8 Ho7 3.272228 1_555
Ge8 Ho7 3.272229 1_554
Ge8 Ho0 3.348752 1_555
Ge9 Ir3 2.448430 1_555
Ge9 Ir6 2.560922 1_555
Ge9 Ho2 3.025497 1_554
Ge9 Ho2 3.025498 1_555
Ge9 Ho6 3.272237 1_555
Ge9 Ho6 3.272238 1_554
Ge9 Ho0 3.348742 1_555
Ge10 Ir1 2.448411 1_545
Ge10 Ge5 2.473927 1_555
Ge10 Ir5 2.560964 1_555
Ge10 Ho4 3.025550 1_554
Ge10 Ho4 3.025554 1_555
Ge10 Ho8 3.272522 1_555
Ge10 Ho8 3.272522 1_554
Ge10 Ho1 3.348785 1_555
Ge11 Ir0 2.448399 1_565
Ge11 Ge4 2.473871 1_555
Ge11 Ir4 2.560954 1_555
Ge11 Ho5 3.025507 1_555
Ge11 Ho5 3.025508 1_554
Ge11 Ho9 3.272542 1_554
Ge11 Ho9 3.272542 1_555
Ge11 Ho1 3.348824 1_665
Ge12 Ir0 2.450691 1_556
Ge12 Ir0 2.450691 1_555
Ge12 Ge16 2.850746 1_545
Ge12 Ge17 2.850866 1_655
Ge12 Ho1 2.948025 1_656
Ge12 Ho1 2.948025 1_655
Ge12 Ho2 3.095566 1_555
Ge12 Ho9 3.344062 1_545
Ge13 Ir1 2.450690 1_555
Ge13 Ir1 2.450690 1_556
Ge13 Ge17 2.850806 1_565
Ge13 Ge16 2.850874 1_455
Ge13 Ho1 2.948002 1_565
Ge13 Ho1 2.948002 1_566
Ge13 Ho3 3.095526 1_555
Ge13 Ho8 3.344031 1_565
Ge14 Ir2 2.450744 1_556
Ge14 Ir2 2.450744 1_555
Ge14 Ge18 2.850729 1_555
Ge14 Ge19 2.850798 1_555
Ge14 Ho0 2.947966 1_555
Ge14 Ho0 2.947967 1_556
Ge14 Ho4 3.095518 1_555
Ge14 Ho7 3.343892 1_555
Ge15 Ir3 2.450729 1_556
Ge15 Ir3 2.450729 1_555
Ge15 Ge19 2.850740 1_555
Ge15 Ge18 2.850791 1_555
Ge15 Ho0 2.947972 1_555
Ge15 Ho0 2.947973 1_556
Ge15 Ho5 3.095477 1_555
Ge15 Ho6 3.343882 1_555
Ge16 Ir4 2.450703 1_556
Ge16 Ir4 2.450703 1_555
Ge16 Ho1 2.948013 1_665
Ge16 Ho1 2.948014 1_666
Ge16 Ho5 3.095481 1_555
Ge16 Ho7 3.343924 1_655
Ge17 Ir5 2.450743 1_556
Ge17 Ir5 2.450744 1_555
Ge17 Ho1 2.947979 1_556
Ge17 Ho1 2.947980 1_555
Ge17 Ho4 3.095565 1_555
Ge17 Ho6 3.344021 1_455
Ge18 Ir6 2.450711 1_555
Ge18 Ir6 2.450712 1_556
Ge18 Ho0 2.947971 1_556
Ge18 Ho0 2.947972 1_555
Ge18 Ho2 3.095547 1_555
Ge18 Ho8 3.344054 1_555
Ge19 Ir7 2.450690 1_555
Ge19 Ir7 2.450690 1_556
Ge19 Ho0 2.947995 1_555
Ge19 Ho0 2.947997 1_556
Ge19 Ho3 3.095486 1_555
Ge19 Ho9 3.343884 1_555
