# generated using pymatgen
data_KEr3F10
_symmetry_space_group_name_H-M   'P 1'
_cell_length_a   8.18344663
_cell_length_b   8.18344663
_cell_length_c   27.20730035
_cell_angle_alpha   81.41552307
_cell_angle_beta   81.41552307
_cell_angle_gamma   60.00153101
_symmetry_Int_Tables_number   1
_chemical_formula_structural   KEr3F10
_chemical_formula_sum   'K8 Er24 F80'
_cell_volume   1554.34163881
_cell_formula_units_Z   8
loop_
 _symmetry_equiv_pos_site_id
 _symmetry_equiv_pos_as_xyz
  1  'x, y, z'
loop_
 _atom_site_type_symbol
 _atom_site_label
 _atom_site_symmetry_multiplicity
 _atom_site_fract_x
 _atom_site_fract_y
 _atom_site_fract_z
 _atom_site_occupancy
  K  K0  1  0.65886900  0.65886900  0.49711200  1
  K  K1  1  0.49504600  0.49504600  0.99504200  1
  K  K2  1  0.78960800  0.78960800  0.12182400  1
  K  K3  1  0.28720600  0.28720600  0.61535500  1
  K  K4  1  0.91361800  0.91361800  0.74583700  1
  K  K5  1  0.41068600  0.41068600  0.24526800  1
  K  K6  1  0.03607700  0.03607700  0.37195800  1
  K  K7  1  0.20553200  0.20553200  0.87119600  1
  Er  Er0  1  0.54677600  0.02476500  0.36948500  1
  Er  Er1  1  0.78911600  0.78911600  0.61754000  1
  Er  Er2  1  0.00391800  0.00391800  0.99764300  1
  Er  Er3  1  0.89621000  0.41720000  0.74804400  1
  Er  Er4  1  0.02476500  0.54677600  0.36948500  1
  Er  Er5  1  0.48540900  0.00076400  0.99943500  1
  Er  Er6  1  0.54494900  0.54494900  0.37010300  1
  Er  Er7  1  0.27972800  0.27972800  0.11828700  1
  Er  Er8  1  0.69896400  0.69896400  0.86953200  1
  Er  Er9  1  0.80119600  0.27984900  0.11806300  1
  Er  Er10  1  0.90253700  0.41958300  0.24846500  1
  Er  Er11  1  0.15509400  0.67361300  0.49900800  1
  Er  Er12  1  0.41720000  0.89621000  0.74804400  1
  Er  Er13  1  0.69756100  0.21848800  0.86901900  1
  Er  Er14  1  0.27984900  0.80119600  0.11806300  1
  Er  Er15  1  0.41958300  0.90253700  0.24846500  1
  Er  Er16  1  0.00076400  0.48540900  0.99943500  1
  Er  Er17  1  0.27214500  0.79098600  0.61831800  1
  Er  Er18  1  0.90194700  0.90194700  0.24697400  1
  Er  Er19  1  0.41811000  0.41811000  0.74661700  1
  Er  Er20  1  0.15448400  0.15448400  0.49897400  1
  Er  Er21  1  0.21848800  0.69756100  0.86901900  1
  Er  Er22  1  0.67361300  0.15509400  0.49900800  1
  Er  Er23  1  0.79098600  0.27214500  0.61831800  1
  F  F0  1  0.59307300  0.92353900  0.68164100  1
  F  F1  1  0.59118600  0.26928400  0.68119900  1
  F  F2  1  0.91814500  0.26385700  0.68499500  1
  F  F3  1  0.76961900  0.09162100  0.18159300  1
  F  F4  1  0.98183100  0.43086300  0.08624200  1
  F  F5  1  0.84939100  0.51172900  0.59909300  1
  F  F6  1  0.42563500  0.09262400  0.18290100  1
  F  F7  1  0.86343100  0.86343100  0.33712000  1
  F  F8  1  0.51882300  0.51882300  0.59928400  1
  F  F9  1  0.71523000  0.26835300  0.78050200  1
  F  F10  1  0.12722400  0.46205200  0.76291800  1
  F  F11  1  0.18433700  0.52634600  0.93572900  1
  F  F12  1  0.18474000  0.18474000  0.26708200  1
  F  F13  1  0.85726200  0.18292600  0.93198900  1
  F  F14  1  0.27874400  0.83495000  0.53094700  1
  F  F15  1  0.85077000  0.17908500  0.26478100  1
  F  F16  1  0.04033900  0.71704900  0.01622800  1
  F  F17  1  0.40259300  0.40259300  0.83672600  1
  F  F18  1  0.42345700  0.76522900  0.18411900  1
  F  F19  1  0.09262400  0.42563500  0.18290100  1
  F  F20  1  0.71010900  0.71010900  0.01862400  1
  F  F21  1  0.68090300  0.02017400  0.43410300  1
  F  F22  1  0.12894900  0.12894900  0.76561500  1
  F  F23  1  0.43086300  0.98183100  0.08624200  1
  F  F24  1  0.69685700  0.69685700  0.39409500  1
  F  F25  1  0.26385700  0.91814500  0.68499500  1
  F  F26  1  0.99318700  0.64446900  0.85328600  1
  F  F27  1  0.43286200  0.43286200  0.51719400  1
  F  F28  1  0.11131400  0.11131400  0.58721600  1
  F  F29  1  0.53228600  0.53228600  0.89329200  1
  F  F30  1  0.17908500  0.85077000  0.26478100  1
  F  F31  1  0.11247300  0.11247300  0.14090900  1
  F  F32  1  0.26489300  0.60473000  0.35253000  1
  F  F33  1  0.26928400  0.59118600  0.68119900  1
  F  F34  1  0.56765400  0.56765400  0.10252600  1
  F  F35  1  0.52432600  0.84931800  0.93496000  1
  F  F36  1  0.02017400  0.68090300  0.43410300  1
  F  F37  1  0.64446900  0.99318700  0.85328600  1
  F  F38  1  0.84931800  0.52432600  0.93496000  1
  F  F39  1  0.71703500  0.71703500  0.78051900  1
  F  F40  1  0.17235000  0.17235000  0.97566800  1
  F  F41  1  0.46205200  0.12722400  0.76291800  1
  F  F42  1  0.41879000  0.86381600  0.33721400  1
  F  F43  1  0.26835300  0.71523000  0.78050200  1
  F  F44  1  0.97837000  0.97837000  0.85063600  1
  F  F45  1  0.92353900  0.59307300  0.68164100  1
  F  F46  1  0.02683300  0.58654900  0.28030400  1
  F  F47  1  0.56893200  0.23801900  0.10187700  1
  F  F48  1  0.83495000  0.27874400  0.53094700  1
  F  F49  1  0.35228600  0.68112700  0.43513500  1
  F  F50  1  0.66278900  0.11330300  0.58597600  1
  F  F51  1  0.30082300  0.85206000  0.03018300  1
  F  F52  1  0.58173400  0.58173400  0.28158600  1
  F  F53  1  0.11330300  0.66278900  0.58597600  1
  F  F54  1  0.30121000  0.30121000  0.03148700  1
  F  F55  1  0.10507000  0.42989000  0.51681600  1
  F  F56  1  0.23801900  0.56893200  0.10187700  1
  F  F57  1  0.09162100  0.76961900  0.18159300  1
  F  F58  1  0.02165200  0.35178100  0.43442200  1
  F  F59  1  0.86381600  0.41879000  0.33721400  1
  F  F60  1  0.76522900  0.42345700  0.18411900  1
  F  F61  1  0.39976100  0.84531100  0.83602200  1
  F  F62  1  0.51172900  0.84939100  0.59909300  1
  F  F63  1  0.58482700  0.58482700  0.72454900  1
  F  F64  1  0.60473000  0.26489300  0.35253000  1
  F  F65  1  0.84531100  0.39976100  0.83602200  1
  F  F66  1  0.52634600  0.18433700  0.93572900  1
  F  F67  1  0.74739700  0.74739700  0.22406700  1
  F  F68  1  0.35178100  0.02165200  0.43442200  1
  F  F69  1  0.85206000  0.30082300  0.03018300  1
  F  F70  1  0.42989000  0.10507000  0.51681600  1
  F  F71  1  0.18292600  0.85726200  0.93198900  1
  F  F72  1  0.83328800  0.83328800  0.53070600  1
  F  F73  1  0.00168800  0.00168800  0.47553600  1
  F  F74  1  0.58654900  0.02683300  0.28030400  1
  F  F75  1  0.94157200  0.94157200  0.64102300  1
  F  F76  1  0.27305100  0.27305100  0.35268700  1
  F  F77  1  0.71704900  0.04033900  0.01622800  1
  F  F78  1  0.68112700  0.35228600  0.43513500  1
  F  F79  1  0.98431100  0.98431100  0.08501200  1
loop_
_geom_bond_atom_site_label_1
_geom_bond_atom_site_label_2
_geom_bond_distance
_geom_bond_site_symmetry_2
Er0 F21 2.193665 1_555
Er0 F76 2.198219 1_555
Er0 F68 2.203182 1_555
Er0 F64 2.212517 1_555
Er0 F7 2.340569 1_545
Er0 F24 2.360302 1_545
Er0 F42 2.366829 1_545
Er0 F74 2.398125 1_555
Er1 F5 2.189656 1_555
Er1 F62 2.189656 1_555
Er1 F45 2.190483 1_555
Er1 F0 2.190483 1_555
Er1 F72 2.337433 1_555
Er1 F75 2.356629 1_555
Er1 F50 2.384711 1_565
Er1 F53 2.384711 1_655
Er2 F16 2.201496 1_546
Er2 F77 2.201496 1_456
Er2 F13 2.208586 1_455
Er2 F71 2.208586 1_545
Er2 F79 2.345206 1_446
Er2 F51 2.350754 1_546
Er2 F69 2.350754 1_456
Er2 F40 2.359007 1_555
Er3 F45 2.193265 1_555
Er3 F10 2.199782 1_655
Er3 F22 2.205230 1_655
Er3 F2 2.207932 1_555
Er3 F63 2.347928 1_555
Er3 F9 2.355721 1_555
Er3 F65 2.362882 1_555
Er3 F39 2.369397 1_555
Er4 F36 2.193665 1_555
Er4 F76 2.198219 1_555
Er4 F58 2.203182 1_555
Er4 F32 2.212517 1_555
Er4 F7 2.340569 1_455
Er4 F24 2.360302 1_455
Er4 F59 2.366829 1_455
Er4 F46 2.398125 1_555
Er5 F35 2.191385 1_545
Er5 F77 2.196270 1_556
Er5 F20 2.203114 1_546
Er5 F66 2.219414 1_555
Er5 F23 2.333767 1_546
Er5 F40 2.362093 1_555
Er5 F51 2.370534 1_546
Er5 F54 2.370538 1_556
Er6 F64 2.203753 1_555
Er6 F32 2.203753 1_555
Er6 F49 2.203904 1_555
Er6 F78 2.203904 1_555
Er6 F24 2.355132 1_555
Er6 F42 2.358081 1_555
Er6 F59 2.358081 1_555
Er6 F52 2.374646 1_555
Er7 F47 2.199845 1_555
Er7 F56 2.199845 1_555
Er7 F6 2.203523 1_555
Er7 F19 2.203523 1_555
Er7 F54 2.328510 1_555
Er7 F31 2.344344 1_555
Er7 F4 2.351688 1_455
Er7 F23 2.351688 1_545
Er8 F37 2.204308 1_555
Er8 F26 2.204308 1_555
Er8 F38 2.204818 1_555
Er8 F35 2.204818 1_555
Er8 F29 2.339408 1_555
Er8 F61 2.380955 1_555
Er8 F65 2.380955 1_555
Er8 F39 2.391004 1_555
Er9 F34 2.195752 1_555
Er9 F60 2.196456 1_555
Er9 F47 2.206660 1_555
Er9 F3 2.212905 1_555
Er9 F31 2.341130 1_655
Er9 F79 2.350819 1_545
Er9 F69 2.360362 1_555
Er9 F4 2.363717 1_555
Er10 F15 2.183278 1_555
Er10 F19 2.196936 1_655
Er10 F60 2.205348 1_555
Er10 F12 2.214459 1_655
Er10 F67 2.358679 1_555
Er10 F52 2.373222 1_555
Er10 F46 2.378678 1_655
Er10 F59 2.387426 1_555
Er11 F36 2.196756 1_555
Er11 F55 2.202063 1_555
Er11 F49 2.204079 1_555
Er11 F27 2.204526 1_555
Er11 F53 2.334456 1_555
Er11 F14 2.337333 1_555
Er11 F73 2.355650 1_565
Er11 F72 2.367245 1_455
Er12 F0 2.193265 1_555
Er12 F41 2.199782 1_565
Er12 F22 2.205230 1_565
Er12 F25 2.207932 1_555
Er12 F63 2.347928 1_555
Er12 F43 2.355721 1_555
Er12 F61 2.362882 1_555
Er12 F39 2.369397 1_555
Er13 F66 2.194637 1_555
Er13 F44 2.197055 1_545
Er13 F37 2.205340 1_545
Er13 F13 2.206166 1_555
Er13 F17 2.338785 1_555
Er13 F65 2.353807 1_555
Er13 F29 2.372001 1_555
Er13 F9 2.376770 1_555
Er14 F34 2.195752 1_555
Er14 F18 2.196456 1_555
Er14 F56 2.206660 1_555
Er14 F57 2.212905 1_555
Er14 F31 2.341130 1_565
Er14 F79 2.350819 1_455
Er14 F51 2.360362 1_555
Er14 F23 2.363717 1_555
Er15 F30 2.183278 1_555
Er15 F6 2.196936 1_565
Er15 F18 2.205348 1_555
Er15 F12 2.214459 1_565
Er15 F67 2.358679 1_555
Er15 F52 2.373222 1_555
Er15 F74 2.378678 1_565
Er15 F42 2.387426 1_555
Er16 F38 2.191385 1_455
Er16 F16 2.196270 1_556
Er16 F20 2.203114 1_456
Er16 F11 2.219414 1_555
Er16 F4 2.333767 1_456
Er16 F40 2.362093 1_555
Er16 F69 2.370534 1_456
Er16 F54 2.370538 1_556
Er17 F33 2.189085 1_555
Er17 F25 2.198787 1_555
Er17 F8 2.200043 1_555
Er17 F62 2.214121 1_555
Er17 F14 2.347101 1_555
Er17 F28 2.353778 1_565
Er17 F53 2.354835 1_555
Er17 F75 2.369238 1_455
Er18 F57 2.194591 1_655
Er18 F3 2.194591 1_565
Er18 F30 2.207115 1_655
Er18 F15 2.207115 1_565
Er18 F46 2.338552 1_655
Er18 F74 2.338552 1_565
Er18 F67 2.378608 1_555
Er18 F7 2.419062 1_555
Er19 F1 2.197014 1_555
Er19 F33 2.197014 1_555
Er19 F10 2.206586 1_555
Er19 F41 2.206586 1_555
Er19 F63 2.335684 1_555
Er19 F9 2.369830 1_555
Er19 F43 2.369830 1_555
Er19 F17 2.423417 1_555
Er20 F70 2.198938 1_555
Er20 F55 2.198938 1_555
Er20 F68 2.200318 1_555
Er20 F58 2.200318 1_555
Er20 F14 2.356802 1_545
Er20 F48 2.356802 1_455
Er20 F73 2.360749 1_555
Er20 F28 2.373177 1_555
Er21 F11 2.194637 1_555
Er21 F44 2.197055 1_455
Er21 F26 2.205340 1_455
Er21 F71 2.206166 1_555
Er21 F17 2.338785 1_555
Er21 F61 2.353807 1_555
Er21 F29 2.372001 1_555
Er21 F43 2.376770 1_555
Er22 F21 2.196756 1_555
Er22 F70 2.202063 1_555
Er22 F78 2.204079 1_555
Er22 F27 2.204526 1_555
Er22 F50 2.334456 1_555
Er22 F48 2.337333 1_555
Er22 F73 2.355650 1_655
Er22 F72 2.367245 1_545
Er23 F1 2.189085 1_555
Er23 F2 2.198787 1_555
Er23 F8 2.200043 1_555
Er23 F5 2.214121 1_555
Er23 F48 2.347101 1_555
Er23 F28 2.353778 1_655
Er23 F50 2.354835 1_555
Er23 F75 2.369238 1_545
F4 K2 2.793989 1_555
F7 K6 2.772407 1_665
F9 K4 2.756797 1_545
F14 K0 2.767550 1_555
F17 K7 2.788946 1_555
F23 K2 2.793989 1_555
F24 K0 2.761422 1_555
F28 K3 2.731232 1_555
F29 K1 2.727383 1_555
F39 K4 2.783508 1_555
F40 K7 2.799930 1_555
F42 K6 2.790848 1_565
F43 K4 2.756797 1_455
F46 K5 2.800415 1_555
F48 K0 2.767550 1_555
F50 K3 2.709851 1_555
F51 K1 2.777218 1_554
F52 K5 2.771300 1_555
F53 K3 2.709851 1_555
F54 K1 2.755452 1_554
F59 K6 2.790848 1_655
F61 K7 2.799079 1_565
F65 K7 2.799079 1_655
F67 K2 2.742700 1_555
F69 K1 2.777218 1_554
F72 K0 2.779607 1_555
F73 K6 2.775903 1_555
F74 K5 2.800415 1_555
F75 K4 2.810643 1_555
F79 K2 2.768825 1_555
