# generated using pymatgen
data_NbFeO4
_symmetry_space_group_name_H-M   'P 1'
_cell_length_a   9.43545409
_cell_length_b   5.07556894
_cell_length_c   5.64967805
_cell_angle_alpha   89.47949667
_cell_angle_beta   90.22244864
_cell_angle_gamma   90.13321302
_symmetry_Int_Tables_number   1
_chemical_formula_structural   NbFeO4
_chemical_formula_sum   'Nb4 Fe4 O16'
_cell_volume   270.55085068
_cell_formula_units_Z   4
loop_
 _symmetry_equiv_pos_site_id
 _symmetry_equiv_pos_as_xyz
  1  'x, y, z'
loop_
 _atom_site_type_symbol
 _atom_site_label
 _atom_site_symmetry_multiplicity
 _atom_site_fract_x
 _atom_site_fract_y
 _atom_site_fract_z
 _atom_site_occupancy
  Nb  Nb0  1  0.24509800  0.76170600  0.33857700  1
  Nb  Nb1  1  0.50223700  0.26090200  0.16571100  1
  Nb  Nb2  1  0.74620100  0.26832800  0.66605100  1
  Nb  Nb3  1  0.00311800  0.76721800  0.83464800  1
  Fe  Fe0  1  0.25405700  0.24043900  0.67952500  1
  Fe  Fe1  1  0.49647500  0.74244500  0.82972300  1
  Fe  Fe2  1  0.75184200  0.74491900  0.32207000  1
  Fe  Fe3  1  0.99600600  0.24332800  0.18031700  1
  O  O0  1  0.11505900  0.07705300  0.90086800  1
  O  O1  1  0.11334500  0.57954400  0.13454700  1
  O  O2  1  0.13962200  0.07702500  0.40128000  1
  O  O3  1  0.13682800  0.58036800  0.63414400  1
  O  O4  1  0.36788400  0.41764900  0.37440600  1
  O  O5  1  0.36547900  0.90600500  0.62863400  1
  O  O6  1  0.38149300  0.92579600  0.12595700  1
  O  O7  1  0.39129800  0.42487100  0.86957800  1
  O  O8  1  0.60846700  0.07452500  0.86122600  1
  O  O9  1  0.61150700  0.58216500  0.09064600  1
  O  O10  1  0.63710700  0.08114100  0.36538800  1
  O  O11  1  0.63826500  0.57965000  0.59439100  1
  O  O12  1  0.85925200  0.41055300  0.37689700  1
  O  O13  1  0.86696400  0.92350300  0.62271700  1
  O  O14  1  0.88288900  0.42061100  0.87992200  1
  O  O15  1  0.88950700  0.91025600  0.12277700  1
loop_
_geom_bond_atom_site_label_1
_geom_bond_atom_site_label_2
_geom_bond_distance
_geom_bond_site_symmetry_2
Nb0 O2 1.922952 1_565
Nb0 O1 1.931807 1_555
Nb0 O6 1.944655 1_555
Nb0 O4 2.105675 1_555
Nb0 O5 2.124966 1_555
Nb0 O3 2.158731 1_555
Nb1 O4 1.914023 1_555
Nb1 O10 1.923551 1_555
Nb1 O9 1.970961 1_555
Nb1 O6 2.058455 1_545
Nb1 O7 2.133681 1_554
Nb1 O8 2.214976 1_554
Nb2 O11 1.921090 1_555
Nb2 O14 1.928989 1_555
Nb2 O8 1.964147 1_555
Nb2 O12 2.077543 1_555
Nb2 O13 2.107287 1_545
Nb2 O10 2.204274 1_555
Nb3 O13 1.920619 1_455
Nb3 O0 1.930929 1_565
Nb3 O3 1.952038 1_555
Nb3 O15 2.089184 1_456
Nb3 O14 2.105232 1_455
Nb3 O1 2.195770 1_556
Fe0 O7 1.925582 1_555
Fe0 O0 1.990072 1_555
Fe0 O5 2.022068 1_545
Fe0 O3 2.065096 1_555
Fe0 O2 2.081178 1_555
Fe0 O4 2.217155 1_555
Fe1 O5 1.866630 1_555
Fe1 O7 1.902989 1_555
Fe1 O9 1.995697 1_556
Fe1 O8 1.996217 1_565
Fe1 O11 2.068623 1_555
Fe1 O6 2.211601 1_556
Fe2 O15 1.910055 1_555
Fe2 O12 1.999801 1_555
Fe2 O9 2.036239 1_555
Fe2 O10 2.040173 1_565
Fe2 O11 2.050442 1_555
Fe2 O13 2.212612 1_555
Fe3 O12 1.911066 1_555
Fe3 O15 1.993207 1_545
Fe3 O2 2.019948 1_655
Fe3 O1 2.046988 1_655
Fe3 O0 2.123457 1_654
Fe3 O14 2.189003 1_554
