# generated using pymatgen
data_La3Cu4(P2O)2
_symmetry_space_group_name_H-M   'P 1'
_cell_length_a   13.75078563
_cell_length_b   13.75078563
_cell_length_c   13.75078563
_cell_angle_alpha   163.06464605
_cell_angle_beta   163.06464605
_cell_angle_gamma   24.03904736
_symmetry_Int_Tables_number   1
_chemical_formula_structural   La3Cu4(P2O)2
_chemical_formula_sum   'La3 Cu4 P4 O2'
_cell_volume   220.56395760
_cell_formula_units_Z   1
loop_
 _symmetry_equiv_pos_site_id
 _symmetry_equiv_pos_as_xyz
  1  'x, y, z'
loop_
 _atom_site_type_symbol
 _atom_site_label
 _atom_site_symmetry_multiplicity
 _atom_site_fract_x
 _atom_site_fract_y
 _atom_site_fract_z
 _atom_site_occupancy
  La  La0  1  0.29596300  0.29596300  0.00000000  1
  La  La1  1  0.70403700  0.70403700  0.00000000  1
  La  La2  1  0.00000000  0.00000000  0.00000000  1
  Cu  Cu0  1  0.90613100  0.40613100  0.50000000  1
  Cu  Cu1  1  0.59386900  0.09386900  0.50000000  1
  Cu  Cu2  1  0.09386900  0.59386900  0.50000000  1
  Cu  Cu3  1  0.40613100  0.90613100  0.50000000  1
  P  P0  1  0.45797500  0.45797500  0.00000000  1
  P  P1  1  0.13809600  0.13809600  0.00000000  1
  P  P2  1  0.86190400  0.86190400  0.00000000  1
  P  P3  1  0.54202500  0.54202500  0.00000000  1
  O  O0  1  0.25000000  0.75000000  0.50000000  1
  O  O1  1  0.75000000  0.25000000  0.50000000  1
loop_
_geom_bond_atom_site_label_1
_geom_bond_atom_site_label_2
_geom_bond_distance
_geom_bond_site_symmetry_2
La0 O0 2.372436 1_544
La0 O0 2.372436 1_555
La0 O1 2.372436 1_454
La0 O1 2.372436 1_555
La1 O1 2.372436 1_554
La1 O1 2.372436 1_565
La1 O0 2.372436 1_655
La1 O0 2.372436 1_554
La2 P0 3.078580 1_556
La2 P0 3.078580 1_444
La2 P3 3.078580 1_444
La2 P3 3.078580 1_545
La2 P0 3.078580 1_545
La2 P3 3.078580 1_455
La2 P0 3.078580 1_455
La2 P3 3.078580 1_556
Cu0 P2 2.348439 1_556
Cu0 P2 2.348439 1_545
Cu0 P0 2.458583 1_555
Cu0 P0 2.458583 1_656
Cu0 La2 3.236553 1_655
Cu0 La2 3.236553 1_666
Cu1 P1 2.348439 1_656
Cu1 P1 2.348439 1_555
Cu1 P3 2.458583 1_556
Cu1 P3 2.458583 1_545
Cu1 La2 3.236553 1_555
Cu1 La2 3.236553 1_656
Cu2 P1 2.348439 1_555
Cu2 P1 2.348439 1_566
Cu2 P3 2.458583 1_455
Cu2 P3 2.458583 1_556
Cu2 La2 3.236553 1_555
Cu2 La2 3.236553 1_566
Cu3 P2 2.348439 1_556
Cu3 P2 2.348439 1_455
Cu3 P0 2.458583 1_555
Cu3 P0 2.458583 1_566
Cu3 La2 3.236553 1_565
Cu3 La2 3.236553 1_666
P0 P3 2.260831 1_555
