# generated using pymatgen
data_Zn(BH4)2
_symmetry_space_group_name_H-M   'P 1'
_cell_length_a   4.20355101
_cell_length_b   5.61882269
_cell_length_c   8.00221050
_cell_angle_alpha   90.00000000
_cell_angle_beta   90.00000000
_cell_angle_gamma   90.00000000
_symmetry_Int_Tables_number   1
_chemical_formula_structural   Zn(BH4)2
_chemical_formula_sum   'Zn2 B4 H16'
_cell_volume   189.00427217
_cell_formula_units_Z   2
loop_
 _symmetry_equiv_pos_site_id
 _symmetry_equiv_pos_as_xyz
  1  'x, y, z'
loop_
 _atom_site_type_symbol
 _atom_site_label
 _atom_site_symmetry_multiplicity
 _atom_site_fract_x
 _atom_site_fract_y
 _atom_site_fract_z
 _atom_site_occupancy
  Zn  Zn0  1  -0.00000000  0.30149880  0.01018612  1
  Zn  Zn1  1  -0.00000000  0.69850120  0.51018612  1
  B  B0  1  0.50000000  0.89590039  0.47245564  1
  B  B1  1  -0.00000000  0.53564403  0.24642414  1
  B  B2  1  -0.00000000  0.46435597  0.74642414  1
  B  B3  1  0.50000000  0.10409961  0.97245564  1
  H  H0  1  0.50000000  0.30802779  0.92157038  1
  H  H1  1  0.72339772  0.06445325  0.07072809  1
  H  H2  1  0.75245038  0.48064915  0.17779620  1
  H  H3  1  -0.00000000  0.24872016  0.75384098  1
  H  H4  1  -0.00000000  0.42391175  0.37957196  1
  H  H5  1  0.24754962  0.48064915  0.17779620  1
  H  H6  1  0.27660228  0.06445325  0.07072809  1
  H  H7  1  -0.00000000  0.75127984  0.25384098  1
  H  H8  1  0.50000000  0.03502812  0.35994621  1
  H  H9  1  0.24754962  0.51935085  0.67779620  1
  H  H10  1  0.50000000  0.96497188  0.85994621  1
  H  H11  1  0.50000000  0.69197221  0.42157038  1
  H  H12  1  -0.00000000  0.57608825  0.87957196  1
  H  H13  1  0.72339772  0.93554675  0.57072809  1
  H  H14  1  0.27660228  0.93554675  0.57072809  1
  H  H15  1  0.75245038  0.51935085  0.67779620  1
loop_
_geom_bond_atom_site_label_1
_geom_bond_atom_site_label_2
_geom_bond_distance
_geom_bond_site_symmetry_2
B0 H8 1.192347 1_565
B0 H11 1.216038 1_555
B0 H14 1.244944 1_555
B0 H13 1.244944 1_555
B1 H7 1.213072 1_555
B1 H5 1.216512 1_555
B1 H2 1.216512 1_455
B1 H4 1.236681 1_555
B2 H3 1.213072 1_555
B2 H9 1.216512 1_555
B2 H15 1.216512 1_455
B2 H12 1.236681 1_555
B3 H10 1.192347 1_545
B3 H0 1.216038 1_555
B3 H6 1.244944 1_556
B3 H1 1.244944 1_556
H0 Zn0 2.218481 1_556
H0 Zn0 2.218481 1_656
H1 Zn0 1.833197 1_655
H2 Zn0 1.973588 1_655
H3 Zn0 2.072653 1_556
H4 Zn1 1.863570 1_555
H5 Zn0 1.973588 1_555
H6 Zn0 1.833197 1_555
H7 Zn1 2.072653 1_555
H9 Zn1 1.973588 1_555
H11 Zn1 2.218481 1_555
H11 Zn1 2.218481 1_655
H12 Zn0 1.863570 1_556
H13 Zn1 1.833197 1_655
H14 Zn1 1.833197 1_555
H15 Zn1 1.973588 1_655
