# generated using pymatgen
data_SbH3OF6
_symmetry_space_group_name_H-M   'P 1'
_cell_length_a   8.85682795
_cell_length_b   8.85682795
_cell_length_c   8.85682795
_cell_angle_alpha   109.47122063
_cell_angle_beta   109.47122063
_cell_angle_gamma   109.47122063
_symmetry_Int_Tables_number   1
_chemical_formula_structural   SbH3OF6
_chemical_formula_sum   'Sb4 H12 O4 F24'
_cell_volume   534.82627335
_cell_formula_units_Z   4
loop_
 _symmetry_equiv_pos_site_id
 _symmetry_equiv_pos_as_xyz
  1  'x, y, z'
loop_
 _atom_site_type_symbol
 _atom_site_label
 _atom_site_symmetry_multiplicity
 _atom_site_fract_x
 _atom_site_fract_y
 _atom_site_fract_z
 _atom_site_occupancy
  Sb  Sb0  1  0.50000000  0.00000000  0.01495400  1
  Sb  Sb1  1  0.00000000  0.01495400  0.50000000  1
  Sb  Sb2  1  0.01495400  0.50000000  0.00000000  1
  Sb  Sb3  1  0.48504600  0.48504600  0.48504600  1
  H  H0  1  0.37588100  0.97896500  0.48927900  1
  H  H1  1  0.60308400  0.12411900  0.61339800  1
  H  H2  1  0.52103500  0.89691600  0.51031500  1
  H  H3  1  0.12411900  0.61339800  0.60308400  1
  H  H4  1  0.89691600  0.51031500  0.52103500  1
  H  H5  1  0.97896500  0.48927900  0.37588100  1
  H  H6  1  0.51031500  0.52103500  0.89691600  1
  H  H7  1  0.48927900  0.37588100  0.97896500  1
  H  H8  1  0.61339800  0.60308400  0.12411900  1
  H  H9  1  0.98968500  0.88660200  0.01072100  1
  H  H10  1  0.01072100  0.98968500  0.88660200  1
  H  H11  1  0.88660200  0.01072100  0.98968500  1
  O  O0  1  0.50000000  0.00000000  0.50684200  1
  O  O1  1  0.00000000  0.50684200  0.50000000  1
  O  O2  1  0.50684200  0.50000000  0.00000000  1
  O  O3  1  0.99315800  0.99315800  0.99315800  1
  F  F0  1  0.66546900  0.20606300  0.25783600  1
  F  F1  1  0.54059500  0.83453100  0.09236700  1
  F  F2  1  0.29393700  0.95940500  0.05177200  1
  F  F3  1  0.83453100  0.09236700  0.54059500  1
  F  F4  1  0.95940500  0.05177200  0.29393700  1
  F  F5  1  0.20606300  0.25783600  0.66546900  1
  F  F6  1  0.05177200  0.29393700  0.95940500  1
  F  F7  1  0.25783600  0.66546900  0.20606300  1
  F  F8  1  0.09236700  0.54059500  0.83453100  1
  F  F9  1  0.44822800  0.40763300  0.24216400  1
  F  F10  1  0.24216400  0.44822800  0.40763300  1
  F  F11  1  0.40763300  0.24216400  0.44822800  1
  F  F12  1  0.33103900  0.80181000  0.76006000  1
  F  F13  1  0.47077100  0.16896100  0.92902100  1
  F  F14  1  0.69819000  0.02922900  0.95825000  1
  F  F15  1  0.16896100  0.92902100  0.47077100  1
  F  F16  1  0.02922900  0.95825000  0.69819000  1
  F  F17  1  0.80181000  0.76006000  0.33103900  1
  F  F18  1  0.95825000  0.69819000  0.02922900  1
  F  F19  1  0.76006000  0.33103900  0.80181000  1
  F  F20  1  0.92902100  0.47077100  0.16896100  1
  F  F21  1  0.54175000  0.57097900  0.73994000  1
  F  F22  1  0.73994000  0.54175000  0.57097900  1
  F  F23  1  0.57097900  0.73994000  0.54175000  1
loop_
_geom_bond_atom_site_label_1
_geom_bond_atom_site_label_2
_geom_bond_distance
_geom_bond_site_symmetry_2
H0 O0 0.998755 1_565
H1 O0 0.998755 1_555
H2 O0 0.998758 1_565
H3 O1 0.998755 1_555
H4 O1 0.998758 1_655
H5 O1 0.998755 1_655
H6 O2 0.998758 1_556
H7 O2 0.998755 1_556
H8 O2 0.998755 1_555
H9 O3 0.998753 1_554
H10 O3 0.998753 1_455
H11 O3 0.998753 1_545
F0 Sb0 1.898407 1_555
F1 Sb0 1.898410 1_565
F2 Sb0 1.898401 1_565
F3 Sb1 1.898410 1_655
F4 Sb1 1.898401 1_655
F5 Sb1 1.898407 1_555
F6 Sb2 1.898401 1_556
F7 Sb2 1.898407 1_555
F8 Sb2 1.898410 1_556
F9 Sb3 1.898410 1_555
F10 Sb3 1.898410 1_555
F11 Sb3 1.898410 1_555
F12 H3 1.670959 1_555
F12 Sb0 1.942132 1_566
F13 H7 1.670959 1_555
F13 Sb0 1.942132 1_556
F14 H11 1.670960 1_555
F14 Sb0 1.942132 1_556
F15 H0 1.670959 1_555
F15 Sb1 1.942132 1_565
F16 H10 1.670960 1_555
F16 Sb1 1.942132 1_565
F17 H8 1.670959 1_555
F17 Sb1 1.942132 1_665
F18 H9 1.670960 1_555
F18 Sb2 1.942132 1_655
F19 H1 1.670959 1_555
F19 Sb2 1.942132 1_656
F20 H5 1.670959 1_555
F20 Sb2 1.942132 1_655
F21 H6 1.670956 1_555
F21 Sb3 1.942132 1_555
F22 H4 1.670956 1_555
F22 Sb3 1.942132 1_555
F23 H2 1.670956 1_555
F23 Sb3 1.942132 1_555
