# generated using pymatgen
data_NdAlGe2O7
_symmetry_space_group_name_H-M   'P 1'
_cell_length_a   6.54036719
_cell_length_b   7.23711124
_cell_length_c   12.74562528
_cell_angle_alpha   62.45202028
_cell_angle_beta   90.00000000
_cell_angle_gamma   90.00000000
_symmetry_Int_Tables_number   1
_chemical_formula_structural   NdAlGe2O7
_chemical_formula_sum   'Nd4 Al4 Ge8 O28'
_cell_volume   534.89425795
_cell_formula_units_Z   4
loop_
 _symmetry_equiv_pos_site_id
 _symmetry_equiv_pos_as_xyz
  1  'x, y, z'
loop_
 _atom_site_type_symbol
 _atom_site_label
 _atom_site_symmetry_multiplicity
 _atom_site_fract_x
 _atom_site_fract_y
 _atom_site_fract_z
 _atom_site_occupancy
  Nd  Nd0  1  0.85214028  0.76347820  0.47409742  1
  Nd  Nd1  1  0.35214028  0.23652180  0.02590258  1
  Nd  Nd2  1  0.14785972  0.23652180  0.52590258  1
  Nd  Nd3  1  0.64785972  0.76347820  0.97409742  1
  Al  Al0  1  0.60215537  0.78708528  0.22988785  1
  Al  Al1  1  0.89784463  0.78708528  0.72988785  1
  Al  Al2  1  0.39784463  0.21291472  0.77011215  1
  Al  Al3  1  0.10215537  0.21291472  0.27011215  1
  Ge  Ge0  1  0.15748568  0.79111338  0.95054422  1
  Ge  Ge1  1  0.58960649  0.30203412  0.27987093  1
  Ge  Ge2  1  0.34251432  0.79111338  0.45054422  1
  Ge  Ge3  1  0.84251432  0.20888662  0.04945578  1
  Ge  Ge4  1  0.41039351  0.69796588  0.72012907  1
  Ge  Ge5  1  0.91039351  0.30203412  0.77987093  1
  Ge  Ge6  1  0.08960649  0.69796588  0.22012907  1
  Ge  Ge7  1  0.65748568  0.20888662  0.54945578  1
  O  O0  1  0.62080493  0.57239986  0.19751124  1
  O  O1  1  0.12080493  0.42760014  0.30248876  1
  O  O2  1  0.37919507  0.42760014  0.80248876  1
  O  O3  1  0.87919507  0.57239986  0.69751124  1
  O  O4  1  0.81832427  0.16032562  0.31237910  1
  O  O5  1  0.31832427  0.83967438  0.18762090  1
  O  O6  1  0.18167573  0.83967438  0.68762090  1
  O  O7  1  0.68167573  0.16032562  0.81237910  1
  O  O8  1  0.38299746  0.22366739  0.22296209  1
  O  O9  1  0.88299746  0.77633261  0.27703791  1
  O  O10  1  0.61700254  0.77633261  0.77703791  1
  O  O11  1  0.11700254  0.22366739  0.72296209  1
  O  O12  1  0.82458185  0.40668723  0.52480664  1
  O  O13  1  0.32458185  0.59331277  0.97519336  1
  O  O14  1  0.17541815  0.59331277  0.47519336  1
  O  O15  1  0.67541815  0.40668723  0.02480664  1
  O  O16  1  -0.00250167  0.24750335  0.92643630  1
  O  O17  1  0.49749833  0.75249665  0.57356370  1
  O  O18  1  0.00250167  0.75249665  0.07356370  1
  O  O19  1  0.50250167  0.24750335  0.42643630  1
  O  O20  1  0.66116679  0.00448836  0.08501041  1
  O  O21  1  0.16116679  0.99551164  0.41498959  1
  O  O22  1  0.33883321  0.99551164  0.91498959  1
  O  O23  1  0.83883321  0.00448836  0.58501041  1
  O  O24  1  0.05096050  0.20239319  0.13572034  1
  O  O25  1  0.55096050  0.79760681  0.36427966  1
  O  O26  1  0.94903950  0.79760681  0.86427966  1
  O  O27  1  0.44903950  0.20239319  0.63572034  1
loop_
_geom_bond_atom_site_label_1
_geom_bond_atom_site_label_2
_geom_bond_distance
_geom_bond_site_symmetry_2
Nd0 O12 2.360922 1_555
Nd0 O25 2.362327 1_555
Nd0 O14 2.443643 1_655
Nd0 O9 2.478230 1_555
Nd0 O21 2.510437 1_655
Nd0 O3 2.531756 1_555
Nd0 O17 2.626854 1_555
Nd0 O4 2.658999 1_565
Nd0 O23 2.707220 1_565
Nd1 O13 2.360922 1_554
Nd1 O24 2.362327 1_555
Nd1 O15 2.443643 1_555
Nd1 O8 2.478230 1_555
Nd1 O20 2.510437 1_555
Nd1 O2 2.531756 1_554
Nd1 O16 2.626854 1_554
Nd1 O5 2.658999 1_545
Nd1 O22 2.707220 1_544
Nd2 O14 2.360922 1_555
Nd2 O27 2.362327 1_555
Nd2 O12 2.443643 1_455
Nd2 O11 2.478230 1_555
Nd2 O23 2.510437 1_455
Nd2 O1 2.531756 1_555
Nd2 O19 2.626854 1_555
Nd2 O6 2.658999 1_545
Nd2 O21 2.707220 1_545
Nd3 O15 2.360922 1_556
Nd3 O26 2.362327 1_555
Nd3 O13 2.443643 1_555
Nd3 O10 2.478230 1_555
Nd3 O22 2.510437 1_555
Nd3 O0 2.531756 1_556
Nd3 O18 2.626854 1_656
Nd3 O7 2.658999 1_565
Nd3 O20 2.707220 1_566
Al0 O25 1.781182 1_555
Al0 O0 1.786676 1_555
Al0 O20 1.829441 1_565
Al0 O5 1.921325 1_555
Al0 O9 1.922972 1_555
Al1 O26 1.781182 1_555
Al1 O3 1.786676 1_555
Al1 O23 1.829441 1_565
Al1 O6 1.921325 1_655
Al1 O10 1.922972 1_555
Al2 O27 1.781182 1_555
Al2 O2 1.786676 1_555
Al2 O22 1.829441 1_545
Al2 O7 1.921325 1_555
Al2 O11 1.922972 1_555
Al3 O24 1.781182 1_555
Al3 O1 1.786676 1_555
Al3 O21 1.829441 1_545
Al3 O4 1.921325 1_455
Al3 O8 1.922972 1_555
Ge0 O13 1.710637 1_555
Ge0 O26 1.738371 1_455
Ge0 O18 1.777292 1_556
Ge0 O22 1.783332 1_555
Ge1 O8 1.747655 1_555
Ge1 O4 1.751602 1_555
Ge1 O0 1.752776 1_555
Ge1 O19 1.813300 1_555
Ge2 O14 1.710637 1_555
Ge2 O25 1.738371 1_555
Ge2 O17 1.777292 1_555
Ge2 O21 1.783332 1_555
Ge3 O15 1.710637 1_555
Ge3 O24 1.738371 1_655
Ge3 O16 1.777292 1_654
Ge3 O20 1.783332 1_555
Ge4 O10 1.747655 1_555
Ge4 O6 1.751602 1_555
Ge4 O2 1.752776 1_555
Ge4 O17 1.813300 1_555
Ge5 O11 1.747655 1_655
Ge5 O7 1.751602 1_555
Ge5 O3 1.752776 1_555
Ge5 O16 1.813300 1_655
Ge6 O9 1.747655 1_455
Ge6 O5 1.751602 1_555
Ge6 O1 1.752776 1_555
Ge6 O18 1.813300 1_555
Ge7 O12 1.710637 1_555
Ge7 O27 1.738371 1_555
Ge7 O19 1.777292 1_555
Ge7 O23 1.783332 1_555
