# generated using pymatgen
data_Ba10Mg3ZrTa6O30
_symmetry_space_group_name_H-M   'P 1'
_cell_length_a   5.88524702
_cell_length_b   5.88524716
_cell_length_c   59.15431921
_cell_angle_alpha   60.16865020
_cell_angle_beta   60.16864929
_cell_angle_gamma   60.00000263
_symmetry_Int_Tables_number   1
_chemical_formula_structural   Ba10Mg3ZrTa6O30
_chemical_formula_sum   'Ba20 Mg6 Zr2 Ta12 O60'
_cell_volume   1452.45692207
_cell_formula_units_Z   2
loop_
 _symmetry_equiv_pos_site_id
 _symmetry_equiv_pos_as_xyz
  1  'x, y, z'
loop_
 _atom_site_type_symbol
 _atom_site_label
 _atom_site_symmetry_multiplicity
 _atom_site_fract_x
 _atom_site_fract_y
 _atom_site_fract_z
 _atom_site_occupancy
  Ba  Ba0  1  0.25435638  0.25435638  0.02369309  1
  Ba  Ba1  1  0.25081954  0.25081954  0.12475414  1
  Ba  Ba2  1  0.24640722  0.24640722  0.22607783  1
  Ba  Ba3  1  0.75359278  0.75359278  0.07392217  1
  Ba  Ba4  1  0.23601997  0.23601997  0.32919401  1
  Ba  Ba5  1  0.74918046  0.74918046  0.17524586  1
  Ba  Ba6  1  0.23143341  0.23143341  0.43056998  1
  Ba  Ba7  1  0.74564362  0.74564362  0.27630691  1
  Ba  Ba8  1  0.72406680  0.72406680  0.38277996  1
  Ba  Ba9  1  0.24487886  0.24487886  0.52653634  1
  Ba  Ba10  1  0.24978941  0.24978941  0.62506318  1
  Ba  Ba11  1  0.74077485  0.74077485  0.47776755  1
  Ba  Ba12  1  0.74878182  0.74878182  0.57536545  1
  Ba  Ba13  1  0.25121818  0.25121818  0.72463455  1
  Ba  Ba14  1  0.25922515  0.25922515  0.82223245  1
  Ba  Ba15  1  0.75021059  0.75021059  0.67493682  1
  Ba  Ba16  1  0.27593320  0.27593320  0.91722004  1
  Ba  Ba17  1  0.75512114  0.75512114  0.77346366  1
  Ba  Ba18  1  0.76856659  0.76856659  0.86943002  1
  Ba  Ba19  1  0.76398003  0.76398003  0.97080599  1
  Mg  Mg0  1  0.98026177  0.98026177  0.40592147  1
  Mg  Mg1  1  0.99481013  0.99481013  0.50155696  1
  Mg  Mg2  1  0.99951885  0.99951885  0.60014435  1
  Mg  Mg3  1  0.00048115  0.00048115  0.69985565  1
  Mg  Mg4  1  0.00518987  0.00518987  0.79844304  1
  Mg  Mg5  1  0.01973823  0.01973823  0.89407853  1
  Zr  Zr0  1  0.00140042  0.00140042  0.09957988  1
  Zr  Zr1  1  0.99859958  0.99859958  0.20042012  1
  Ta  Ta0  1  0.00435453  0.00435453  0.99869364  1
  Ta  Ta1  1  0.50314348  0.50314348  0.04905696  1
  Ta  Ta2  1  0.99564547  0.99564547  0.30130636  1
  Ta  Ta3  1  0.50000000  0.50000000  0.15000000  1
  Ta  Ta4  1  0.49685652  0.49685652  0.25094304  1
  Ta  Ta5  1  0.49109071  0.49109071  0.35267279  1
  Ta  Ta6  1  0.49332685  0.49332685  0.45200194  1
  Ta  Ta7  1  0.49830401  0.49830401  0.55050880  1
  Ta  Ta8  1  0.50000000  0.50000000  0.65000000  1
  Ta  Ta9  1  0.50169599  0.50169599  0.74949120  1
  Ta  Ta10  1  0.50667315  0.50667315  0.84799806  1
  Ta  Ta11  1  0.50890929  0.50890929  0.94732721  1
  O  O0  1  0.25954201  0.25954201  0.07374979  1
  O  O1  1  0.24559102  0.74838106  0.02576469  1
  O  O2  1  0.25954201  0.74341805  0.07374979  1
  O  O3  1  0.74838106  0.24559102  0.02576469  1
  O  O4  1  0.74341805  0.25954201  0.07374979  1
  O  O5  1  0.74838106  0.74838106  0.02576469  1
  O  O6  1  0.25561331  0.25561331  0.17452488  1
  O  O7  1  0.25647545  0.74438669  0.12547512  1
  O  O8  1  0.25561331  0.74352455  0.17452488  1
  O  O9  1  0.74438669  0.25647545  0.12547512  1
  O  O10  1  0.74352455  0.25561331  0.17452488  1
  O  O11  1  0.74438669  0.74438669  0.12547512  1
  O  O12  1  0.25161894  0.25161894  0.27423531  1
  O  O13  1  0.25658195  0.74045799  0.22625021  1
  O  O14  1  0.74045799  0.25658195  0.22625021  1
  O  O15  1  0.25161894  0.75440898  0.27423531  1
  O  O16  1  0.75440898  0.25161894  0.27423531  1
  O  O17  1  0.74045799  0.74045799  0.22625021  1
  O  O18  1  0.26903273  0.26903273  0.37057985  1
  O  O19  1  0.25910938  0.76309296  0.32147047  1
  O  O20  1  0.76309296  0.25910938  0.32147047  1
  O  O21  1  0.26903273  0.75613610  0.37057985  1
  O  O22  1  0.75613610  0.26903273  0.37057985  1
  O  O23  1  0.76309296  0.76309296  0.32147047  1
  O  O24  1  0.25984313  0.25984313  0.47328211  1
  O  O25  1  0.26738260  0.74492653  0.42427643  1
  O  O26  1  0.74492653  0.26738260  0.42427643  1
  O  O27  1  0.25984313  0.74749267  0.47328211  1
  O  O28  1  0.74749267  0.25984313  0.47328211  1
  O  O29  1  0.74492653  0.74492653  0.42427643  1
  O  O30  1  0.25872892  0.25872892  0.57388434  1
  O  O31  1  0.26106971  0.74221828  0.52544937  1
  O  O32  1  0.25872892  0.74369879  0.57388434  1
  O  O33  1  0.74221828  0.26106971  0.52544937  1
  O  O34  1  0.74369879  0.25872892  0.57388434  1
  O  O35  1  0.74221828  0.74221828  0.52544937  1
  O  O36  1  0.25832964  0.74149836  0.62586736  1
  O  O37  1  0.25850164  0.25850164  0.67413264  1
  O  O38  1  0.74149836  0.25832964  0.62586736  1
  O  O39  1  0.25850164  0.74167036  0.67413264  1
  O  O40  1  0.74167036  0.25850164  0.67413264  1
  O  O41  1  0.74149836  0.74149836  0.62586736  1
  O  O42  1  0.25778172  0.25778172  0.77455063  1
  O  O43  1  0.25630121  0.74127108  0.72611566  1
  O  O44  1  0.74127108  0.25630121  0.72611566  1
  O  O45  1  0.25778172  0.73893029  0.77455063  1
  O  O46  1  0.73893029  0.25778172  0.77455063  1
  O  O47  1  0.74127108  0.74127108  0.72611566  1
  O  O48  1  0.25250733  0.74015687  0.82671789  1
  O  O49  1  0.25507347  0.25507347  0.87572357  1
  O  O50  1  0.25507347  0.73261740  0.87572357  1
  O  O51  1  0.74015687  0.25250733  0.82671789  1
  O  O52  1  0.74015687  0.74015687  0.82671789  1
  O  O53  1  0.73261740  0.25507347  0.87572357  1
  O  O54  1  0.24386390  0.73096727  0.92942015  1
  O  O55  1  0.23690704  0.23690704  0.97852953  1
  O  O56  1  0.73096727  0.24386390  0.92942015  1
  O  O57  1  0.23690704  0.74089062  0.97852953  1
  O  O58  1  0.74089062  0.23690704  0.97852953  1
  O  O59  1  0.73096727  0.73096727  0.92942015  1
loop_
_geom_bond_atom_site_label_1
_geom_bond_atom_site_label_2
_geom_bond_distance
_geom_bond_site_symmetry_2
Ba0 O58 2.777608 1_554
Ba0 O57 2.777608 1_554
Ba0 O55 2.777608 1_554
Ba0 O3 2.944348 1_455
Ba0 O3 2.944348 1_555
Ba0 O1 2.944348 1_545
Ba0 O1 2.944348 1_555
Ba0 O5 2.944348 1_455
Ba0 O5 2.944348 1_545
Ba0 O4 2.991746 1_455
Ba0 O0 2.991746 1_555
Ba0 O2 2.991746 1_545
Ba1 O9 2.943117 1_455
Ba1 O9 2.943117 1_555
Ba1 O7 2.943117 1_545
Ba1 O7 2.943117 1_555
Ba1 O11 2.943117 1_455
Ba1 O11 2.943117 1_545
Ba1 O4 2.966948 1_555
Ba1 O2 2.966948 1_555
Ba1 O0 2.966948 1_555
Ba1 O10 2.972492 1_455
Ba1 O6 2.972492 1_555
Ba1 O8 2.972492 1_545
Ba2 O16 2.879567 1_455
Ba2 O15 2.879567 1_545
Ba2 O12 2.879567 1_555
Ba2 O14 2.943145 1_455
Ba2 O13 2.943145 1_545
Ba2 O17 2.943145 1_455
Ba2 O17 2.943145 1_545
Ba2 O14 2.943146 1_555
Ba2 O13 2.943146 1_555
Ba2 O10 2.996661 1_555
Ba2 O8 2.996661 1_555
Ba2 O6 2.996661 1_555
Ba3 O1 2.879567 1_655
Ba3 O3 2.879567 1_565
Ba3 O5 2.879567 1_555
Ba3 O2 2.943145 1_655
Ba3 O4 2.943145 1_565
Ba3 O0 2.943145 1_655
Ba3 O0 2.943145 1_565
Ba3 O2 2.943146 1_555
Ba3 O4 2.943146 1_555
Ba3 O7 2.996661 1_555
Ba3 O9 2.996661 1_555
Ba3 O11 2.996661 1_555
Ba4 O22 2.655772 1_455
Ba4 O21 2.655772 1_545
Ba4 O18 2.655773 1_555
Ba4 O20 2.966325 1_555
Ba4 O19 2.966325 1_555
Ba4 O20 2.966325 1_455
Ba4 O19 2.966325 1_545
Ba4 O23 2.966325 1_545
Ba4 O23 2.966325 1_455
Ba4 O16 3.162389 1_555
Ba4 O15 3.162389 1_555
Ba4 O12 3.162389 1_555
Ba5 O8 2.943117 1_655
Ba5 O8 2.943117 1_555
Ba5 O10 2.943117 1_565
Ba5 O10 2.943117 1_555
Ba5 O6 2.943117 1_655
Ba5 O6 2.943117 1_565
Ba5 O13 2.966948 1_555
Ba5 O14 2.966948 1_555
Ba5 O17 2.966948 1_555
Ba5 O7 2.972492 1_655
Ba5 O11 2.972492 1_555
Ba5 O9 2.972492 1_565
Ba6 O28 2.703365 1_455
Ba6 O27 2.703366 1_545
Ba6 O24 2.703366 1_555
Ba6 O26 2.959345 1_555
Ba6 O25 2.959345 1_555
Ba6 O29 2.959346 1_545
Ba6 O29 2.959346 1_455
Ba6 O26 2.959346 1_455
Ba6 O25 2.959346 1_545
Ba6 O22 3.343276 1_555
Ba6 O21 3.343276 1_555
Ba6 O18 3.343276 1_555
Ba7 O19 2.777608 1_555
Ba7 O20 2.777608 1_555
Ba7 O23 2.777608 1_555
Ba7 O15 2.944348 1_655
Ba7 O15 2.944348 1_555
Ba7 O16 2.944348 1_565
Ba7 O16 2.944348 1_555
Ba7 O12 2.944348 1_655
Ba7 O12 2.944348 1_565
Ba7 O13 2.991746 1_655
Ba7 O17 2.991746 1_555
Ba7 O14 2.991746 1_565
Ba8 O25 2.582705 1_555
Ba8 O29 2.582705 1_555
Ba8 O26 2.582705 1_555
Ba8 O21 3.001657 1_555
Ba8 O22 3.001657 1_555
Ba8 O21 3.001657 1_655
Ba8 O18 3.001657 1_655
Ba8 O18 3.001657 1_565
Ba8 O22 3.001657 1_565
Ba9 O34 2.884250 1_455
Ba9 O32 2.884250 1_545
Ba9 O30 2.884250 1_555
Ba9 O33 2.943791 1_555
Ba9 O31 2.943791 1_555
Ba9 O33 2.943791 1_455
Ba9 O31 2.943791 1_545
Ba9 O35 2.943791 1_455
Ba9 O35 2.943791 1_545
Ba9 O28 3.065143 1_555
Ba9 O27 3.065143 1_555
Ba9 O24 3.065143 1_555
Ba10 O38 2.943437 1_555
Ba10 O36 2.943437 1_555
Ba10 O41 2.943437 1_455
Ba10 O41 2.943437 1_545
Ba10 O38 2.943437 1_455
Ba10 O36 2.943437 1_545
Ba10 O40 2.954577 1_455
Ba10 O39 2.954577 1_545
Ba10 O37 2.954577 1_555
Ba10 O34 2.976041 1_555
Ba10 O32 2.976041 1_555
Ba10 O30 2.976042 1_555
Ba11 O35 2.829063 1_555
Ba11 O31 2.829063 1_555
Ba11 O33 2.829063 1_555
Ba11 O27 2.950926 1_655
Ba11 O28 2.950927 1_565
Ba11 O27 2.950927 1_555
Ba11 O28 2.950927 1_555
Ba11 O24 2.950927 1_655
Ba11 O24 2.950927 1_565
Ba11 O25 3.140112 1_655
Ba11 O26 3.140112 1_565
Ba11 O29 3.140113 1_555
Ba12 O32 2.943940 1_555
Ba12 O34 2.943940 1_555
Ba12 O30 2.943941 1_655
Ba12 O30 2.943941 1_565
Ba12 O32 2.943941 1_655
Ba12 O34 2.943941 1_565
Ba12 O36 2.945387 1_555
Ba12 O38 2.945387 1_555
Ba12 O41 2.945387 1_555
Ba12 O31 2.991684 1_655
Ba12 O33 2.991684 1_565
Ba12 O35 2.991684 1_555
Ba13 O44 2.943940 1_555
Ba13 O43 2.943940 1_555
Ba13 O47 2.943941 1_455
Ba13 O47 2.943941 1_545
Ba13 O44 2.943941 1_455
Ba13 O43 2.943941 1_545
Ba13 O40 2.945387 1_555
Ba13 O39 2.945387 1_555
Ba13 O37 2.945387 1_555
Ba13 O46 2.991684 1_455
Ba13 O45 2.991684 1_545
Ba13 O42 2.991684 1_555
Ba14 O42 2.829063 1_555
Ba14 O46 2.829063 1_555
Ba14 O45 2.829063 1_555
Ba14 O51 2.950926 1_455
Ba14 O48 2.950927 1_545
Ba14 O51 2.950927 1_555
Ba14 O48 2.950927 1_555
Ba14 O52 2.950927 1_455
Ba14 O52 2.950927 1_545
Ba14 O53 3.140112 1_455
Ba14 O50 3.140112 1_545
Ba14 O49 3.140113 1_555
Ba15 O39 2.943437 1_555
Ba15 O40 2.943437 1_555
Ba15 O37 2.943437 1_655
Ba15 O37 2.943437 1_565
Ba15 O39 2.943437 1_655
Ba15 O40 2.943437 1_565
Ba15 O36 2.954577 1_655
Ba15 O38 2.954577 1_565
Ba15 O41 2.954577 1_555
Ba15 O43 2.976041 1_555
Ba15 O44 2.976041 1_555
Ba15 O47 2.976042 1_555
Ba16 O53 2.582705 1_555
Ba16 O49 2.582705 1_555
Ba16 O50 2.582705 1_555
Ba16 O56 3.001657 1_555
Ba16 O54 3.001657 1_555
Ba16 O56 3.001657 1_455
Ba16 O59 3.001657 1_455
Ba16 O59 3.001657 1_545
Ba16 O54 3.001657 1_545
Ba17 O43 2.884250 1_655
Ba17 O44 2.884250 1_565
Ba17 O47 2.884250 1_555
Ba17 O45 2.943791 1_555
Ba17 O46 2.943791 1_555
Ba17 O45 2.943791 1_655
Ba17 O46 2.943791 1_565
Ba17 O42 2.943791 1_655
Ba17 O42 2.943791 1_565
Ba17 O48 3.065143 1_555
Ba17 O51 3.065143 1_555
Ba17 O52 3.065143 1_555
Ba18 O48 2.703365 1_655
Ba18 O51 2.703366 1_565
Ba18 O52 2.703366 1_555
Ba18 O50 2.959345 1_555
Ba18 O53 2.959345 1_555
Ba18 O49 2.959346 1_565
Ba18 O49 2.959346 1_655
Ba18 O50 2.959346 1_655
Ba18 O53 2.959346 1_565
Ba18 O54 3.343276 1_555
Ba18 O56 3.343276 1_555
Ba18 O59 3.343276 1_555
Ba19 O54 2.655772 1_655
Ba19 O56 2.655772 1_565
Ba19 O59 2.655773 1_555
Ba19 O57 2.966325 1_555
Ba19 O58 2.966325 1_555
Ba19 O57 2.966325 1_655
Ba19 O58 2.966325 1_565
Ba19 O55 2.966325 1_565
Ba19 O55 2.966325 1_655
Ba19 O1 3.162389 1_556
Ba19 O3 3.162389 1_556
Ba19 O5 3.162389 1_556
Mg0 O25 1.985288 1_655
Mg0 O26 1.985288 1_565
Mg0 O29 1.985288 1_555
Mg0 O18 2.442490 1_665
Mg0 O21 2.442490 1_655
Mg0 O22 2.442490 1_565
Mg1 O35 2.108686 1_555
Mg1 O33 2.108686 1_565
Mg1 O31 2.108686 1_655
Mg1 O24 2.214769 1_665
Mg1 O27 2.214769 1_655
Mg1 O28 2.214769 1_565
Mg2 O38 2.152989 1_565
Mg2 O36 2.152989 1_655
Mg2 O41 2.152989 1_555
Mg2 O30 2.163182 1_665
Mg2 O32 2.163182 1_655
Mg2 O34 2.163182 1_565
Mg3 O39 2.152989 1_545
Mg3 O40 2.152989 1_455
Mg3 O37 2.152989 1_555
Mg3 O47 2.163182 1_445
Mg3 O44 2.163182 1_455
Mg3 O43 2.163182 1_545
Mg4 O42 2.108686 1_555
Mg4 O45 2.108686 1_545
Mg4 O46 2.108686 1_455
Mg4 O52 2.214769 1_445
Mg4 O51 2.214769 1_455
Mg4 O48 2.214769 1_545
Mg5 O53 1.985288 1_455
Mg5 O50 1.985288 1_545
Mg5 O49 1.985288 1_555
Mg5 O59 2.442490 1_445
Mg5 O56 2.442490 1_455
Mg5 O54 2.442490 1_545
O0 Ta1 2.032937 1_555
O0 Zr0 2.154035 1_555
O1 Ta1 2.047123 1_555
O1 Ta0 2.138344 1_564
O2 Ta1 2.032937 1_555
O2 Zr0 2.154036 1_565
O3 Ta1 2.047123 1_555
O3 Ta0 2.138344 1_654
O4 Ta1 2.032937 1_555
O4 Zr0 2.154036 1_655
O5 Ta1 2.047123 1_555
O5 Ta0 2.138343 1_664
O6 Ta3 2.039295 1_555
O6 Zr1 2.144730 1_445
O7 Ta3 2.039295 1_555
O7 Zr0 2.144730 1_565
O8 Ta3 2.039295 1_555
O8 Zr1 2.144730 1_455
O9 Ta3 2.039295 1_555
O9 Zr0 2.144730 1_655
O10 Ta3 2.039295 1_555
O10 Zr1 2.144730 1_545
O11 Ta3 2.039295 1_555
O11 Zr0 2.144730 1_665
O12 Ta4 2.047123 1_555
O12 Ta2 2.138343 1_445
O13 Ta4 2.032937 1_555
O13 Zr1 2.154036 1_455
O14 Ta4 2.032937 1_555
O14 Zr1 2.154036 1_545
O15 Ta4 2.047123 1_555
O15 Ta2 2.138344 1_455
O16 Ta4 2.047123 1_555
O16 Ta2 2.138344 1_545
O17 Ta4 2.032937 1_555
O17 Zr1 2.154035 1_555
O18 Ta5 1.868482 1_555
O19 Ta2 1.947786 1_455
O19 Ta5 2.283699 1_555
O20 Ta2 1.947786 1_545
O20 Ta5 2.283699 1_555
O21 Ta5 1.868482 1_555
O22 Ta5 1.868482 1_555
O23 Ta2 1.947785 1_555
O23 Ta5 2.283698 1_555
O24 Ta6 1.951230 1_555
O25 Ta6 2.106010 1_555
O26 Ta6 2.106010 1_555
O27 Ta6 1.951231 1_555
O28 Ta6 1.951231 1_555
O29 Ta6 2.106010 1_555
O30 Ta7 1.999150 1_555
O31 Ta7 2.035979 1_555
O32 Ta7 1.999151 1_555
O33 Ta7 2.035979 1_555
O34 Ta7 1.999151 1_555
O35 Ta7 2.035979 1_555
O36 Ta8 2.015144 1_555
O37 Ta8 2.015144 1_555
O38 Ta8 2.015144 1_555
O39 Ta8 2.015144 1_555
O40 Ta8 2.015144 1_555
O41 Ta8 2.015144 1_555
O42 Ta9 2.035979 1_555
O43 Ta9 1.999151 1_555
O44 Ta9 1.999151 1_555
O45 Ta9 2.035979 1_555
O46 Ta9 2.035979 1_555
O47 Ta9 1.999150 1_555
O48 Ta10 1.951231 1_555
O49 Ta10 2.106010 1_555
O50 Ta10 2.106010 1_555
O51 Ta10 1.951231 1_555
O52 Ta10 1.951230 1_555
O53 Ta10 2.106010 1_555
O54 Ta11 1.868482 1_555
O55 Ta0 1.947785 1_555
O55 Ta11 2.283698 1_555
O56 Ta11 1.868482 1_555
O57 Ta0 1.947786 1_565
O57 Ta11 2.283699 1_555
O58 Ta0 1.947786 1_655
O58 Ta11 2.283699 1_555
O59 Ta11 1.868482 1_555
