# generated using pymatgen
data_Nd(Fe2B)6
_symmetry_space_group_name_H-M   'P 1'
_cell_length_a   6.06933211
_cell_length_b   6.06933211
_cell_length_c   6.06933175
_cell_angle_alpha   104.33974656
_cell_angle_beta   104.33974656
_cell_angle_gamma   104.33976053
_symmetry_Int_Tables_number   1
_chemical_formula_structural   Nd(Fe2B)6
_chemical_formula_sum   'Nd1 Fe12 B6'
_cell_volume   198.16238364
_cell_formula_units_Z   1
loop_
 _symmetry_equiv_pos_site_id
 _symmetry_equiv_pos_as_xyz
  1  'x, y, z'
loop_
 _atom_site_type_symbol
 _atom_site_label
 _atom_site_symmetry_multiplicity
 _atom_site_fract_x
 _atom_site_fract_y
 _atom_site_fract_z
 _atom_site_occupancy
  Nd  Nd0  1  0.00000000  0.00000000  0.00000000  1
  Fe  Fe0  1  0.86914200  0.13085800  0.50000000  1
  Fe  Fe1  1  0.45598700  0.18786400  0.45598700  1
  Fe  Fe2  1  0.45598700  0.45598700  0.18786400  1
  Fe  Fe3  1  0.18786400  0.45598700  0.45598700  1
  Fe  Fe4  1  0.13085800  0.50000000  0.86914200  1
  Fe  Fe5  1  0.50000000  0.86914200  0.13085800  1
  Fe  Fe6  1  0.81213600  0.54401300  0.54401300  1
  Fe  Fe7  1  0.13085800  0.86914200  0.50000000  1
  Fe  Fe8  1  0.86914200  0.50000000  0.13085800  1
  Fe  Fe9  1  0.50000000  0.13085800  0.86914200  1
  Fe  Fe10  1  0.54401300  0.54401300  0.81213600  1
  Fe  Fe11  1  0.54401300  0.81213600  0.54401300  1
  B  B0  1  0.23067600  0.23067600  0.68470800  1
  B  B1  1  0.31529200  0.76932400  0.76932400  1
  B  B2  1  0.76932400  0.31529200  0.76932400  1
  B  B3  1  0.68470800  0.23067600  0.23067600  1
  B  B4  1  0.76932400  0.76932400  0.31529200  1
  B  B5  1  0.23067600  0.68470800  0.23067600  1
loop_
_geom_bond_atom_site_label_1
_geom_bond_atom_site_label_2
_geom_bond_distance
_geom_bond_site_symmetry_2
Fe0 Nd0 3.283782 1_655
Fe0 Nd0 3.283782 1_656
Fe1 Nd0 3.114235 1_555
Fe2 Nd0 3.114235 1_555
Fe3 Nd0 3.114235 1_555
Fe4 Nd0 3.283782 1_556
Fe4 Nd0 3.283782 1_566
Fe5 Nd0 3.283782 1_665
Fe5 Nd0 3.283782 1_565
Fe6 Nd0 3.114235 1_666
Fe7 Nd0 3.283782 1_565
Fe7 Nd0 3.283782 1_566
Fe8 Nd0 3.283782 1_665
Fe8 Nd0 3.283782 1_655
Fe9 Nd0 3.283782 1_556
Fe9 Nd0 3.283782 1_656
Fe10 Nd0 3.114235 1_666
Fe11 Nd0 3.114235 1_666
B0 Fe4 2.052347 1_555
B0 Fe9 2.052347 1_555
B0 Fe0 2.055533 1_455
B0 Fe7 2.055533 1_545
B0 Fe10 2.140757 1_555
B0 Fe3 2.191403 1_555
B0 Fe1 2.191403 1_555
B0 Nd0 3.043918 1_556
B1 Fe4 2.052347 1_555
B1 Fe7 2.052347 1_555
B1 Fe9 2.055533 1_565
B1 Fe5 2.055533 1_556
B1 Fe3 2.140757 1_555
B1 Fe11 2.191403 1_555
B1 Fe10 2.191404 1_555
B1 Nd0 3.043919 1_566
B2 Fe9 2.052347 1_555
B2 Fe0 2.052347 1_555
B2 Fe4 2.055533 1_655
B2 Fe8 2.055533 1_556
B2 Fe1 2.140757 1_555
B2 Fe6 2.191403 1_555
B2 Fe10 2.191404 1_555
B2 Nd0 3.043919 1_656
B3 Fe8 2.052347 1_555
B3 Fe0 2.052347 1_555
B3 Fe5 2.055533 1_545
B3 Fe9 2.055533 1_554
B3 Fe6 2.140757 1_555
B3 Fe1 2.191403 1_555
B3 Fe2 2.191404 1_555
B3 Nd0 3.043919 1_655
B4 Fe5 2.052347 1_555
B4 Fe8 2.052347 1_555
B4 Fe0 2.055533 1_565
B4 Fe7 2.055533 1_655
B4 Fe2 2.140757 1_555
B4 Fe11 2.191403 1_555
B4 Fe6 2.191403 1_555
B4 Nd0 3.043918 1_665
B5 Fe5 2.052347 1_555
B5 Fe7 2.052347 1_555
B5 Fe8 2.055533 1_455
B5 Fe4 2.055533 1_554
B5 Fe11 2.140757 1_555
B5 Fe3 2.191403 1_555
B5 Fe2 2.191404 1_555
B5 Nd0 3.043919 1_565
