# generated using pymatgen
data_Ce5Mg41
_symmetry_space_group_name_H-M   'P 1'
_cell_length_a   10.42913324
_cell_length_b   11.71290588
_cell_length_c   11.71290557
_cell_angle_alpha   78.56818704
_cell_angle_beta   63.56396783
_cell_angle_gamma   63.56396881
_symmetry_Int_Tables_number   1
_chemical_formula_structural   Ce5Mg41
_chemical_formula_sum   'Ce5 Mg41'
_cell_volume   1147.20940440
_cell_formula_units_Z   1
loop_
 _symmetry_equiv_pos_site_id
 _symmetry_equiv_pos_as_xyz
  1  'x, y, z'
loop_
 _atom_site_type_symbol
 _atom_site_label
 _atom_site_symmetry_multiplicity
 _atom_site_fract_x
 _atom_site_fract_y
 _atom_site_fract_z
 _atom_site_occupancy
  Ce  Ce0  1  0.42857580  0.80846759  0.33438080  1
  Ce  Ce1  1  0.57142420  0.19153241  0.66561920  1
  Ce  Ce2  1  0.76295661  0.66561920  0.80846759  1
  Ce  Ce3  1  0.23704339  0.33438080  0.19153241  1
  Ce  Ce4  1  0.00000000  0.00000000  0.00000000  1
  Mg  Mg0  1  0.87808952  0.34347077  0.90035019  1
  Mg  Mg1  1  0.37443435  0.29125286  0.44378896  1
  Mg  Mg2  1  0.50000000  0.00000000  0.00000000  1
  Mg  Mg3  1  0.44612769  0.94057687  0.78739481  1
  Mg  Mg4  1  0.62556565  0.70874714  0.55621104  1
  Mg  Mg5  1  0.18177669  0.44378896  0.70874714  1
  Mg  Mg6  1  0.17409937  0.05942313  0.21260519  1
  Mg  Mg7  1  0.66568721  0.44378896  0.70874714  1
  Mg  Mg8  1  0.08036801  0.71198245  0.83379434  1
  Mg  Mg9  1  0.08583764  0.83379434  0.28801755  1
  Mg  Mg10  1  0.91416236  0.16620566  0.71198245  1
  Mg  Mg11  1  0.21696784  0.12383902  0.44222530  1
  Mg  Mg12  1  0.00964039  0.39368178  0.58703743  1
  Mg  Mg13  1  0.22156029  0.90035019  0.65652923  1
  Mg  Mg14  1  0.78303216  0.87616098  0.55777470  1
  Mg  Mg15  1  0.59667782  0.41296257  0.39368178  1
  Mg  Mg16  1  0.40332218  0.58703743  0.60631822  1
  Mg  Mg17  1  0.20764953  0.16620566  0.71198245  1
  Mg  Mg18  1  0.62614481  0.28801755  0.16620566  1
  Mg  Mg19  1  0.76647750  0.78739481  0.05942313  1
  Mg  Mg20  1  0.10947618  0.70874714  0.55621104  1
  Mg  Mg21  1  0.37385519  0.71198245  0.83379434  1
  Mg  Mg22  1  0.79235047  0.83379434  0.28801755  1
  Mg  Mg23  1  0.77843971  0.09964981  0.34347077  1
  Mg  Mg24  1  0.00000000  0.00000000  0.50000000  1
  Mg  Mg25  1  0.82590063  0.94057687  0.78739481  1
  Mg  Mg26  1  0.91963199  0.28801755  0.16620566  1
  Mg  Mg27  1  0.99035961  0.60631822  0.41296257  1
  Mg  Mg28  1  0.00000000  0.50000000  0.00000000  1
  Mg  Mg29  1  0.34080686  0.44222530  0.87616098  1
  Mg  Mg30  1  0.61329544  0.21260519  0.94057687  1
  Mg  Mg31  1  0.81822331  0.55621104  0.29125286  1
  Mg  Mg32  1  0.89052382  0.29125286  0.44378896  1
  Mg  Mg33  1  0.12191048  0.65652923  0.09964981  1
  Mg  Mg34  1  0.23352250  0.21260519  0.94057687  1
  Mg  Mg35  1  0.33431279  0.55621104  0.29125286  1
  Mg  Mg36  1  0.50000000  0.50000000  0.00000000  1
  Mg  Mg37  1  0.38670456  0.78739481  0.05942313  1
  Mg  Mg38  1  0.55387231  0.05942313  0.21260519  1
  Mg  Mg39  1  0.50000000  0.00000000  0.50000000  1
  Mg  Mg40  1  0.65919314  0.55777470  0.12383902  1
loop_
_geom_bond_atom_site_label_1
_geom_bond_atom_site_label_2
_geom_bond_distance
_geom_bond_site_symmetry_2
Ce0 Mg40 3.433551 1_555
Ce0 Mg11 3.495698 1_565
Ce0 Mg37 3.505262 1_555
Ce0 Mg19 3.505262 1_555
Ce0 Mg13 3.513470 1_555
Ce0 Mg6 3.532804 1_565
Ce0 Mg38 3.532804 1_565
Ce0 Mg16 3.678042 1_555
Ce0 Mg35 3.683988 1_555
Ce0 Mg31 3.683988 1_555
Ce0 Mg20 3.708005 1_555
Ce0 Mg4 3.708005 1_555
Ce0 Mg24 3.721631 1_565
Ce0 Mg39 3.721631 1_565
Ce0 Mg9 3.725592 1_555
Ce0 Mg22 3.725592 1_555
Ce1 Mg29 3.433551 1_555
Ce1 Mg14 3.495698 1_545
Ce1 Mg30 3.505262 1_555
Ce1 Mg34 3.505262 1_555
Ce1 Mg23 3.513470 1_555
Ce1 Mg25 3.532804 1_545
Ce1 Mg3 3.532804 1_545
Ce1 Mg15 3.678042 1_555
Ce1 Mg7 3.683988 1_555
Ce1 Mg5 3.683988 1_555
Ce1 Mg32 3.708005 1_555
Ce1 Mg1 3.708005 1_555
Ce1 Mg24 3.721631 1_655
Ce1 Mg39 3.721631 1_555
Ce1 Mg10 3.725592 1_555
Ce1 Mg17 3.725592 1_555
Ce2 Mg14 3.433551 1_555
Ce2 Mg40 3.495698 1_556
Ce2 Mg25 3.505262 1_555
Ce2 Mg3 3.505262 1_555
Ce2 Mg0 3.513470 1_555
Ce2 Mg19 3.532804 1_556
Ce2 Mg37 3.532804 1_556
Ce2 Mg12 3.678042 1_655
Ce2 Mg20 3.683988 1_655
Ce2 Mg4 3.683988 1_555
Ce2 Mg5 3.708005 1_655
Ce2 Mg7 3.708005 1_555
Ce2 Mg28 3.721631 1_656
Ce2 Mg36 3.721631 1_556
Ce2 Mg8 3.725591 1_655
Ce2 Mg21 3.725592 1_555
Ce3 Mg11 3.433551 1_555
Ce3 Mg29 3.495698 1_554
Ce3 Mg6 3.505262 1_555
Ce3 Mg38 3.505262 1_555
Ce3 Mg33 3.513470 1_555
Ce3 Mg34 3.532804 1_554
Ce3 Mg30 3.532804 1_554
Ce3 Mg27 3.678042 1_455
Ce3 Mg32 3.683988 1_455
Ce3 Mg1 3.683988 1_555
Ce3 Mg31 3.708005 1_455
Ce3 Mg35 3.708005 1_555
Ce3 Mg28 3.721631 1_555
Ce3 Mg36 3.721631 1_555
Ce3 Mg26 3.725591 1_455
Ce3 Mg18 3.725592 1_555
Ce4 Mg23 3.750907 1_455
Ce4 Mg13 3.750907 1_544
Ce4 Mg0 3.750907 1_454
Ce4 Mg33 3.750907 1_545
Ce4 Mg17 3.808652 1_554
Ce4 Mg22 3.808652 1_445
Ce4 Mg10 3.808652 1_454
Ce4 Mg9 3.808652 1_545
Ce4 Mg18 3.808652 1_455
Ce4 Mg21 3.808652 1_544
Ce4 Mg8 3.808652 1_544
Ce4 Mg26 3.808652 1_455
Ce4 Mg38 3.977524 1_455
Ce4 Mg3 3.977524 1_544
Ce4 Mg25 3.977524 1_444
Ce4 Mg6 3.977524 1_555
Ce4 Mg34 3.977524 1_554
Ce4 Mg19 3.977524 1_445
Ce4 Mg30 3.977524 1_454
Ce4 Mg37 3.977524 1_545
Mg0 Mg17 3.114766 1_655
Mg0 Mg10 3.114766 1_555
Mg0 Mg18 3.233442 1_556
Mg0 Mg26 3.233442 1_556
Mg0 Mg40 3.247479 1_556
Mg0 Mg36 3.253522 1_556
Mg0 Mg28 3.253522 1_656
Mg0 Mg12 3.327989 1_655
Mg0 Mg5 3.519629 1_655
Mg0 Mg7 3.519629 1_555
Mg0 Mg30 3.538643 1_555
Mg0 Mg34 3.538643 1_655
Mg1 Mg15 3.024585 1_555
Mg1 Mg11 3.074209 1_555
Mg1 Mg39 3.112194 1_555
Mg1 Mg12 3.127104 1_555
Mg1 Mg18 3.134383 1_555
Mg1 Mg5 3.210905 1_555
Mg1 Mg35 3.210905 1_555
Mg1 Mg17 3.258549 1_555
Mg1 Mg38 3.476484 1_555
Mg1 Mg23 3.519629 1_555
Mg2 Mg25 3.046694 1_544
Mg2 Mg6 3.046694 1_555
Mg2 Mg3 3.046694 1_544
Mg2 Mg38 3.046694 1_555
Mg2 Mg37 3.046694 1_545
Mg2 Mg30 3.046694 1_554
Mg2 Mg34 3.046694 1_554
Mg3 Mg39 3.141184 1_565
Mg3 Mg37 3.274309 1_556
Mg3 Mg34 3.274309 1_565
Mg3 Mg4 3.476484 1_555
Mg4 Mg7 3.210905 1_555
Mg5 Mg8 3.258549 1_555
Mg6 Mg9 3.021337 1_545
Mg10 Mg30 2.981258 1_555
Mg10 Mg25 3.021337 1_545
Mg10 Mg24 3.023473 1_655
Mg10 Mg17 3.060817 1_655
Mg10 Mg12 3.122725 1_655
Mg10 Mg7 3.134383 1_555
Mg10 Mg13 3.233442 1_645
Mg10 Mg11 3.247185 1_655
Mg10 Mg32 3.258549 1_555
Mg11 Mg24 2.975244 1_555
Mg11 Mg39 2.975244 1_555
Mg11 Mg32 3.074209 1_455
Mg11 Mg38 3.190305 1_555
Mg11 Mg6 3.190305 1_555
Mg11 Mg12 3.211926 1_555
Mg11 Mg17 3.247185 1_555
Mg11 Mg13 3.247479 1_545
Mg12 Mg27 2.882157 1_455
Mg12 Mg7 3.024585 1_455
Mg12 Mg5 3.024585 1_555
Mg12 Mg17 3.122725 1_555
Mg12 Mg32 3.127104 1_455
Mg13 Mg21 3.114766 1_555
Mg13 Mg8 3.114766 1_555
Mg13 Mg17 3.233442 1_565
Mg13 Mg39 3.253522 1_565
Mg13 Mg24 3.253522 1_565
Mg13 Mg16 3.327989 1_555
Mg13 Mg20 3.519629 1_555
Mg13 Mg4 3.519629 1_555
Mg13 Mg25 3.538643 1_455
Mg13 Mg3 3.538643 1_555
Mg14 Mg24 2.975244 1_665
Mg14 Mg39 2.975244 1_565
Mg14 Mg4 3.074209 1_555
Mg14 Mg20 3.074209 1_655
Mg14 Mg3 3.190305 1_555
Mg14 Mg25 3.190305 1_555
Mg14 Mg27 3.211926 1_555
Mg14 Mg9 3.247185 1_655
Mg14 Mg22 3.247185 1_555
Mg14 Mg23 3.247479 1_565
Mg15 Mg16 2.882157 1_555
Mg15 Mg32 3.024585 1_555
Mg15 Mg18 3.122725 1_555
Mg15 Mg26 3.122725 1_555
Mg15 Mg35 3.127104 1_555
Mg15 Mg31 3.127104 1_555
Mg15 Mg40 3.211926 1_555
Mg15 Mg23 3.327989 1_555
Mg16 Mg4 3.024585 1_555
Mg16 Mg20 3.024585 1_555
Mg16 Mg21 3.122725 1_555
Mg16 Mg8 3.122725 1_555
Mg16 Mg7 3.127104 1_555
Mg16 Mg5 3.127104 1_555
Mg16 Mg29 3.211926 1_555
Mg17 Mg34 2.981258 1_555
Mg17 Mg3 3.021337 1_545
Mg17 Mg39 3.023473 1_555
Mg17 Mg5 3.134383 1_555
Mg18 Mg38 2.981258 1_555
Mg18 Mg30 3.021337 1_554
Mg18 Mg36 3.023473 1_555
Mg18 Mg26 3.060817 1_555
Mg18 Mg23 3.114766 1_555
Mg18 Mg40 3.247185 1_555
Mg18 Mg35 3.258549 1_555
Mg19 Mg22 2.981258 1_555
Mg19 Mg8 3.021337 1_654
Mg19 Mg2 3.046694 1_565
Mg19 Mg28 3.141185 1_655
Mg19 Mg40 3.190305 1_555
Mg19 Mg25 3.274309 1_554
Mg19 Mg38 3.274309 1_565
Mg19 Mg31 3.476484 1_555
Mg19 Mg33 3.538643 1_655
Mg20 Mg24 3.112194 1_565
Mg20 Mg27 3.127104 1_455
Mg20 Mg8 3.134383 1_555
Mg20 Mg35 3.210905 1_555
Mg20 Mg5 3.210905 1_555
Mg20 Mg9 3.258549 1_555
Mg20 Mg25 3.476484 1_455
Mg21 Mg3 2.981258 1_555
Mg21 Mg37 3.021337 1_556
Mg21 Mg36 3.023473 1_556
Mg21 Mg8 3.060817 1_555
Mg21 Mg4 3.134383 1_555
Mg21 Mg33 3.233442 1_556
Mg21 Mg29 3.247185 1_555
Mg21 Mg7 3.258549 1_555
Mg22 Mg38 3.021337 1_565
Mg22 Mg39 3.023473 1_565
Mg22 Mg9 3.060817 1_655
Mg22 Mg33 3.114766 1_655
Mg22 Mg27 3.122725 1_555
Mg22 Mg31 3.134383 1_555
Mg22 Mg23 3.233442 1_565
Mg22 Mg4 3.258549 1_555
Mg23 Mg26 3.114766 1_555
Mg23 Mg9 3.233442 1_645
Mg23 Mg39 3.253522 1_555
Mg23 Mg24 3.253522 1_655
Mg23 Mg32 3.519629 1_555
Mg23 Mg6 3.538643 1_655
Mg23 Mg38 3.538643 1_555
Mg24 Mg9 3.023473 1_545
Mg24 Mg32 3.112194 1_455
Mg24 Mg6 3.141184 1_555
Mg24 Mg25 3.141184 1_445
Mg25 Mg8 2.981258 1_655
Mg25 Mg30 3.274309 1_565
Mg26 Mg6 2.981258 1_655
Mg26 Mg34 3.021337 1_654
Mg26 Mg28 3.023473 1_655
Mg26 Mg32 3.134383 1_555
Mg26 Mg40 3.247185 1_555
Mg26 Mg31 3.258549 1_555
Mg27 Mg35 3.024585 1_655
Mg27 Mg31 3.024585 1_555
Mg27 Mg9 3.122725 1_655
Mg27 Mg4 3.127104 1_555
Mg27 Mg33 3.327989 1_655
Mg28 Mg40 2.975244 1_455
Mg28 Mg29 2.975244 1_554
Mg28 Mg8 3.023473 1_554
Mg28 Mg5 3.112194 1_554
Mg28 Mg31 3.112194 1_455
Mg28 Mg34 3.141185 1_554
Mg28 Mg33 3.253522 1_555
Mg29 Mg36 2.975244 1_556
Mg29 Mg7 3.074209 1_555
Mg29 Mg5 3.074209 1_555
Mg29 Mg34 3.190305 1_555
Mg29 Mg30 3.190305 1_555
Mg29 Mg8 3.247185 1_555
Mg29 Mg33 3.247479 1_556
Mg30 Mg36 3.141185 1_556
Mg30 Mg38 3.274309 1_556
Mg30 Mg7 3.476484 1_555
Mg31 Mg40 3.074209 1_555
Mg31 Mg4 3.210905 1_555
Mg31 Mg32 3.210905 1_555
Mg31 Mg33 3.519629 1_655
Mg32 Mg7 3.210905 1_555
Mg32 Mg6 3.476484 1_655
Mg33 Mg9 3.114766 1_555
Mg33 Mg8 3.233442 1_554
Mg33 Mg36 3.253522 1_555
Mg33 Mg35 3.519629 1_555
Mg33 Mg37 3.538643 1_555
Mg34 Mg6 3.274309 1_556
Mg34 Mg5 3.476484 1_555
Mg35 Mg40 3.074209 1_555
Mg35 Mg36 3.112194 1_555
Mg35 Mg9 3.134383 1_555
Mg35 Mg37 3.476484 1_555
Mg36 Mg40 2.975244 1_555
Mg36 Mg7 3.112194 1_554
Mg36 Mg37 3.141185 1_555
Mg37 Mg9 2.981258 1_555
Mg37 Mg40 3.190305 1_555
Mg37 Mg6 3.274309 1_565
Mg38 Mg39 3.141184 1_555
Mg39 Mg4 3.112194 1_545
