# generated using pymatgen
data_MgSiO3
_symmetry_space_group_name_H-M   'P 1'
_cell_length_a   5.25041400
_cell_length_b   9.19981200
_cell_length_c   18.57609700
_cell_angle_alpha   90.00000000
_cell_angle_beta   90.00000000
_cell_angle_gamma   90.00000000
_symmetry_Int_Tables_number   1
_chemical_formula_structural   MgSiO3
_chemical_formula_sum   'Mg16 Si16 O48'
_cell_volume   897.27790168
_cell_formula_units_Z   16
loop_
 _symmetry_equiv_pos_site_id
 _symmetry_equiv_pos_as_xyz
  1  'x, y, z'
loop_
 _atom_site_type_symbol
 _atom_site_label
 _atom_site_symmetry_multiplicity
 _atom_site_fract_x
 _atom_site_fract_y
 _atom_site_fract_z
 _atom_site_occupancy
  Mg  Mg0  1  0.93655600  0.49417500  0.85289500  1
  Mg  Mg1  1  0.91253800  0.16669200  0.89345000  1
  Mg  Mg2  1  0.58746200  0.66669200  0.10655000  1
  Mg  Mg3  1  0.08746200  0.33330800  0.39345000  1
  Mg  Mg4  1  0.41253800  0.33330800  0.89345000  1
  Mg  Mg5  1  0.56344400  0.99417500  0.14710500  1
  Mg  Mg6  1  0.91253800  0.66669200  0.60655000  1
  Mg  Mg7  1  0.93655600  0.99417500  0.64710500  1
  Mg  Mg8  1  0.58746200  0.16669200  0.39345000  1
  Mg  Mg9  1  0.43655600  0.00582500  0.85289500  1
  Mg  Mg10  1  0.56344400  0.49417500  0.35289500  1
  Mg  Mg11  1  0.06344400  0.00582500  0.35289500  1
  Mg  Mg12  1  0.08746200  0.83330800  0.10655000  1
  Mg  Mg13  1  0.06344400  0.50582500  0.14710500  1
  Mg  Mg14  1  0.43655600  0.50582500  0.64710500  1
  Mg  Mg15  1  0.41253800  0.83330800  0.60655000  1
  Si  Si0  1  0.07139400  0.23336000  0.22252300  1
  Si  Si1  1  0.42860600  0.23336000  0.72252300  1
  Si  Si2  1  0.27424900  0.65612500  0.47033700  1
  Si  Si3  1  0.22575100  0.15612500  0.52966300  1
  Si  Si4  1  0.57139400  0.26664000  0.22252300  1
  Si  Si5  1  0.92860600  0.76664000  0.77747700  1
  Si  Si6  1  0.72575100  0.84387500  0.97033700  1
  Si  Si7  1  0.72575100  0.34387500  0.52966300  1
  Si  Si8  1  0.77424900  0.84387500  0.47033700  1
  Si  Si9  1  0.22575100  0.65612500  0.97033700  1
  Si  Si10  1  0.77424900  0.34387500  0.02966300  1
  Si  Si11  1  0.07139400  0.73336000  0.27747700  1
  Si  Si12  1  0.57139400  0.76664000  0.27747700  1
  Si  Si13  1  0.27424900  0.15612500  0.02966300  1
  Si  Si14  1  0.42860600  0.73336000  0.77747700  1
  Si  Si15  1  0.92860600  0.26664000  0.72252300  1
  O  O0  1  0.24616100  0.65043000  0.05910900  1
  O  O1  1  0.25383900  0.65043000  0.55910900  1
  O  O2  1  0.04518400  0.76825300  0.44489200  1
  O  O3  1  0.95337300  0.29301200  0.81144300  1
  O  O4  1  0.75383900  0.84957000  0.55910900  1
  O  O5  1  0.33989000  0.62559300  0.29293100  1
  O  O6  1  0.33989000  0.12559300  0.20706900  1
  O  O7  1  0.45337300  0.70698800  0.68855700  1
  O  O8  1  0.68803400  0.62881600  0.80627200  1
  O  O9  1  0.16011000  0.62559300  0.79293100  1
  O  O10  1  0.83989000  0.87440700  0.29293100  1
  O  O11  1  0.25383900  0.15043000  0.94089100  1
  O  O12  1  0.16011000  0.12559300  0.70706900  1
  O  O13  1  0.31196600  0.37118400  0.19372800  1
  O  O14  1  0.73094200  0.49921100  0.57071600  1
  O  O15  1  0.24616100  0.15043000  0.44089100  1
  O  O16  1  0.45481600  0.76825300  0.94489200  1
  O  O17  1  0.54518400  0.23174700  0.05510800  1
  O  O18  1  0.81196600  0.12881600  0.19372800  1
  O  O19  1  0.31196600  0.87118400  0.30627200  1
  O  O20  1  0.18803400  0.87118400  0.80627200  1
  O  O21  1  0.81196600  0.62881600  0.30627200  1
  O  O22  1  0.95481600  0.23174700  0.55510800  1
  O  O23  1  0.76905800  0.49921100  0.07071600  1
  O  O24  1  0.68803400  0.12881600  0.69372800  1
  O  O25  1  0.74616100  0.34957000  0.44089100  1
  O  O26  1  0.04518400  0.26825300  0.05510800  1
  O  O27  1  0.04662700  0.20698800  0.31144300  1
  O  O28  1  0.54662700  0.79301200  0.18855700  1
  O  O29  1  0.54518400  0.73174700  0.44489200  1
  O  O30  1  0.66011000  0.87440700  0.79293100  1
  O  O31  1  0.23094200  0.00078900  0.57071600  1
  O  O32  1  0.26905800  0.50078900  0.42928400  1
  O  O33  1  0.75383900  0.34957000  0.94089100  1
  O  O34  1  0.23094200  0.50078900  0.92928400  1
  O  O35  1  0.26905800  0.00078900  0.07071600  1
  O  O36  1  0.54662700  0.29301200  0.31144300  1
  O  O37  1  0.95481600  0.73174700  0.94489200  1
  O  O38  1  0.74616100  0.84957000  0.05910900  1
  O  O39  1  0.45337300  0.20698800  0.81144300  1
  O  O40  1  0.45481600  0.26825300  0.55510800  1
  O  O41  1  0.76905800  0.99921100  0.42928400  1
  O  O42  1  0.04662700  0.70698800  0.18855700  1
  O  O43  1  0.66011000  0.37440700  0.70706900  1
  O  O44  1  0.95337300  0.79301200  0.68855700  1
  O  O45  1  0.73094200  0.99921100  0.92928400  1
  O  O46  1  0.18803400  0.37118400  0.69372800  1
  O  O47  1  0.83989000  0.37440700  0.20706900  1
loop_
_geom_bond_atom_site_label_1
_geom_bond_atom_site_label_2
_geom_bond_distance
_geom_bond_site_symmetry_2
Mg0 O8 1.996749 1_555
Mg0 O3 2.006407 1_555
Mg0 O9 2.019948 1_655
Mg0 O34 2.099123 1_655
Mg0 O33 2.315626 1_555
Mg1 O3 1.927990 1_555
Mg1 O45 1.930341 1_545
Mg1 O11 2.002543 1_655
Mg1 O33 2.074013 1_555
Mg2 O28 1.927990 1_555
Mg2 O23 1.930341 1_555
Mg2 O0 2.002543 1_555
Mg2 O38 2.074013 1_555
Mg3 O27 1.927990 1_555
Mg3 O32 1.930341 1_555
Mg3 O25 2.002543 1_455
Mg3 O15 2.074013 1_555
Mg4 O39 1.927990 1_555
Mg4 O34 1.930341 1_555
Mg4 O33 2.002543 1_555
Mg4 O11 2.074013 1_555
Mg5 O18 1.996749 1_565
Mg5 O28 2.006407 1_555
Mg5 O6 2.019948 1_565
Mg5 O35 2.099123 1_565
Mg5 O38 2.315626 1_555
Mg6 O44 1.927990 1_555
Mg6 O14 1.930341 1_555
Mg6 O1 2.002543 1_655
Mg6 O4 2.074013 1_555
Mg7 O24 1.996749 1_565
Mg7 O44 2.006407 1_555
Mg7 O12 2.019948 1_665
Mg7 O31 2.099123 1_665
Mg7 O4 2.315626 1_555
Mg8 O36 1.927990 1_555
Mg8 O41 1.930341 1_545
Mg8 O15 2.002543 1_555
Mg8 O25 2.074013 1_555
Mg9 O20 1.996749 1_545
Mg9 O39 2.006407 1_555
Mg9 O30 2.019948 1_545
Mg9 O45 2.099123 1_545
Mg9 O11 2.315626 1_555
Mg10 O21 1.996749 1_555
Mg10 O36 2.006407 1_555
Mg10 O5 2.019948 1_555
Mg10 O32 2.099123 1_555
Mg10 O25 2.315626 1_555
Mg11 O19 1.996749 1_545
Mg11 O27 2.006407 1_555
Mg11 O10 2.019948 1_445
Mg11 O41 2.099123 1_445
Mg11 O15 2.315626 1_555
Mg12 O42 1.927990 1_555
Mg12 O35 1.930341 1_565
Mg12 O38 2.002543 1_455
Mg12 O0 2.074013 1_555
Mg13 O13 1.996749 1_555
Mg13 O42 2.006407 1_555
Mg13 O47 2.019948 1_455
Mg13 O23 2.099123 1_455
Mg13 O0 2.315626 1_555
Mg14 O46 1.996749 1_555
Mg14 O7 2.006407 1_555
Mg14 O43 2.019948 1_555
Mg14 O14 2.099123 1_555
Mg14 O1 2.315626 1_555
Mg15 O7 1.927990 1_555
Mg15 O31 1.930341 1_565
Mg15 O4 2.002543 1_555
Mg15 O1 2.074013 1_555
O0 Si9 1.653346 1_554
O1 Si2 1.653346 1_555
O2 Si8 1.652571 1_455
O2 Si2 1.653475 1_555
O3 Si15 1.674566 1_555
O4 Si8 1.653346 1_555
O5 Si11 1.747185 1_555
O5 Si12 1.801003 1_555
O6 Si0 1.747185 1_555
O6 Si4 1.801003 1_555
O7 Si14 1.674566 1_555
O8 Si14 1.751136 1_555
O8 Si5 1.867955 1_555
O9 Si14 1.747185 1_555
O9 Si5 1.801003 1_455
O10 Si12 1.747185 1_555
O10 Si11 1.801003 1_655
O11 Si13 1.653346 1_556
O12 Si1 1.747185 1_555
O12 Si15 1.801003 1_455
O13 Si4 1.751136 1_555
O13 Si0 1.867955 1_555
O14 Si7 1.620039 1_555
O15 Si3 1.653346 1_555
O16 Si6 1.652571 1_555
O16 Si9 1.653475 1_555
O17 Si13 1.652571 1_555
O17 Si10 1.653475 1_555
O18 Si0 1.751136 1_655
O18 Si4 1.867955 1_555
O19 Si12 1.751136 1_555
O19 Si11 1.867955 1_555
O20 Si5 1.751136 1_455
O20 Si14 1.867955 1_555
O21 Si11 1.751136 1_655
O21 Si12 1.867955 1_555
O22 Si3 1.652571 1_655
O22 Si7 1.653475 1_555
O23 Si10 1.620039 1_555
O24 Si1 1.751136 1_555
O24 Si15 1.867955 1_555
O25 Si7 1.653346 1_555
O26 Si10 1.652571 1_455
O26 Si13 1.653475 1_555
O27 Si0 1.674566 1_555
O28 Si12 1.674566 1_555
O29 Si2 1.652571 1_555
O29 Si8 1.653475 1_555
O30 Si5 1.747185 1_555
O30 Si14 1.801003 1_555
O31 Si3 1.620039 1_555
O32 Si2 1.620039 1_555
O33 Si10 1.653346 1_556
O34 Si9 1.620039 1_555
O35 Si13 1.620039 1_555
O36 Si4 1.674566 1_555
O37 Si9 1.652571 1_655
O37 Si6 1.653475 1_555
O38 Si6 1.653346 1_554
O39 Si1 1.674566 1_555
O40 Si7 1.652571 1_555
O40 Si3 1.653475 1_555
O41 Si8 1.620039 1_555
O42 Si11 1.674566 1_555
O43 Si15 1.747185 1_555
O43 Si1 1.801003 1_555
O44 Si5 1.674566 1_555
O45 Si6 1.620039 1_555
O46 Si15 1.751136 1_455
O46 Si1 1.867955 1_555
O47 Si4 1.747185 1_555
O47 Si0 1.801003 1_655
