# generated using pymatgen
data_LiFe2(PO4)3
_symmetry_space_group_name_H-M   'P 1'
_cell_length_a   4.79956788
_cell_length_b   4.79956788
_cell_length_c   19.52748307
_cell_angle_alpha   89.26848291
_cell_angle_beta   89.26848291
_cell_angle_gamma   66.89652725
_symmetry_Int_Tables_number   1
_chemical_formula_structural   LiFe2(PO4)3
_chemical_formula_sum   'Li2 Fe4 P6 O24'
_cell_volume   413.70619898
_cell_formula_units_Z   2
loop_
 _symmetry_equiv_pos_site_id
 _symmetry_equiv_pos_as_xyz
  1  'x, y, z'
loop_
 _atom_site_type_symbol
 _atom_site_label
 _atom_site_symmetry_multiplicity
 _atom_site_fract_x
 _atom_site_fract_y
 _atom_site_fract_z
 _atom_site_occupancy
  Li  Li0  1  0.99986100  0.99986100  0.33443300  1
  Li  Li1  1  0.00013900  0.00013900  0.66556700  1
  Fe  Fe0  1  0.00542400  0.00542400  0.83163900  1
  Fe  Fe1  1  0.00000000  0.00000000  0.00000000  1
  Fe  Fe2  1  0.00000000  0.00000000  0.50000000  1
  Fe  Fe3  1  0.99457600  0.99457600  0.16836100  1
  P  P0  1  0.64885500  0.64885500  0.75406900  1
  P  P1  1  0.35114500  0.35114500  0.24593100  1
  P  P2  1  0.65127600  0.65127600  0.08264000  1
  P  P3  1  0.35578800  0.35578800  0.57917700  1
  P  P4  1  0.64421200  0.64421200  0.42082300  1
  P  P5  1  0.34872400  0.34872400  0.91736000  1
  O  O0  1  0.29782400  0.77753400  0.75711200  1
  O  O1  1  0.22246600  0.70217600  0.24288800  1
  O  O2  1  0.76760100  0.76760100  0.81548800  1
  O  O3  1  0.29319700  0.77392000  0.42404200  1
  O  O4  1  0.76119700  0.76119700  0.01768600  1
  O  O5  1  0.70680300  0.22608000  0.57595800  1
  O  O6  1  0.77753400  0.29782400  0.75711200  1
  O  O7  1  0.70564700  0.22079600  0.91760200  1
  O  O8  1  0.77392000  0.29319700  0.42404200  1
  O  O9  1  0.74006600  0.74006600  0.35183500  1
  O  O10  1  0.22608000  0.70680300  0.57595800  1
  O  O11  1  0.25729100  0.25729100  0.31582300  1
  O  O12  1  0.70217600  0.22246600  0.24288800  1
  O  O13  1  0.77920400  0.29435300  0.08239800  1
  O  O14  1  0.75633300  0.75633300  0.14756000  1
  O  O15  1  0.22079600  0.70564700  0.91760200  1
  O  O16  1  0.29435300  0.77920400  0.08239800  1
  O  O17  1  0.24366700  0.24366700  0.85244000  1
  O  O18  1  0.74270900  0.74270900  0.68417700  1
  O  O19  1  0.23880300  0.23880300  0.98231400  1
  O  O20  1  0.23881400  0.23881400  0.51687800  1
  O  O21  1  0.23239900  0.23239900  0.18451200  1
  O  O22  1  0.25993400  0.25993400  0.64816500  1
  O  O23  1  0.76118600  0.76118600  0.48312200  1
loop_
_geom_bond_atom_site_label_1
_geom_bond_atom_site_label_2
_geom_bond_distance
_geom_bond_site_symmetry_2
Li0 O11 2.088148 1_665
Li0 O9 2.103220 1_555
Li0 O8 2.244177 1_565
Li0 O3 2.244177 1_655
Li0 O12 2.279691 1_565
Li0 O1 2.279691 1_655
Li1 O18 2.088148 1_445
Li1 O22 2.103220 1_555
Li1 O10 2.244177 1_545
Li1 O5 2.244177 1_455
Li1 O0 2.279691 1_545
Li1 O6 2.279691 1_455
Fe0 O2 1.935500 1_445
Fe0 O17 1.956998 1_555
Fe0 O6 2.016848 1_455
Fe0 O0 2.016848 1_545
Fe0 O7 2.184478 1_455
Fe0 O15 2.184478 1_545
Fe1 O4 1.938383 1_445
Fe1 O19 1.938383 1_554
Fe1 O16 2.132477 1_545
Fe1 O13 2.132477 1_455
Fe1 O7 2.132477 1_454
Fe1 O15 2.132477 1_544
Fe2 O20 1.945899 1_555
Fe2 O23 1.945899 1_445
Fe2 O10 2.036475 1_545
Fe2 O5 2.036475 1_455
Fe2 O8 2.036475 1_455
Fe2 O3 2.036475 1_545
Fe3 O21 1.935500 1_665
Fe3 O14 1.956998 1_555
Fe3 O12 2.016848 1_565
Fe3 O1 2.016848 1_655
Fe3 O16 2.184478 1_655
Fe3 O13 2.184478 1_565
O0 P0 1.550899 1_555
O1 P1 1.550899 1_555
O2 P0 1.542051 1_555
O3 P4 1.550805 1_555
O4 P2 1.532884 1_555
O5 P3 1.550805 1_555
O6 P0 1.550899 1_555
O7 P5 1.576807 1_555
O8 P4 1.550805 1_555
O9 P4 1.540326 1_555
O10 P3 1.550805 1_555
O11 P1 1.548029 1_555
O12 P1 1.550899 1_555
O13 P2 1.576807 1_555
O14 P2 1.532250 1_555
O15 P5 1.576807 1_555
O16 P2 1.576807 1_555
O17 P5 1.532250 1_555
O18 P0 1.548029 1_555
O19 P5 1.532884 1_555
O20 P3 1.546807 1_555
O21 P1 1.542051 1_555
O22 P3 1.540326 1_555
O23 P4 1.546807 1_555
