# generated using pymatgen
data_Cu7S4
_symmetry_space_group_name_H-M   'P 1'
_cell_length_a   7.83072204
_cell_length_b   7.88182350
_cell_length_c   10.78222293
_cell_angle_alpha   90.00000000
_cell_angle_beta   90.00000000
_cell_angle_gamma   90.00000000
_symmetry_Int_Tables_number   1
_chemical_formula_structural   Cu7S4
_chemical_formula_sum   'Cu28 S16'
_cell_volume   665.48277785
_cell_formula_units_Z   4
loop_
 _symmetry_equiv_pos_site_id
 _symmetry_equiv_pos_as_xyz
  1  'x, y, z'
loop_
 _atom_site_type_symbol
 _atom_site_label
 _atom_site_symmetry_multiplicity
 _atom_site_fract_x
 _atom_site_fract_y
 _atom_site_fract_z
 _atom_site_occupancy
  Cu  Cu0  1  0.51461350  0.75000000  0.15953971  1
  Cu  Cu1  1  0.98538650  0.25000000  0.65953971  1
  Cu  Cu2  1  0.41944059  0.75000000  0.82816961  1
  Cu  Cu3  1  0.51445535  0.75000000  0.41079208  1
  Cu  Cu4  1  0.27820545  0.08848127  0.16099719  1
  Cu  Cu5  1  0.01461350  0.75000000  0.34046029  1
  Cu  Cu6  1  0.34156082  0.02088634  0.44078341  1
  Cu  Cu7  1  0.84156082  0.47911366  0.05921659  1
  Cu  Cu8  1  0.72179455  0.91151873  0.83900281  1
  Cu  Cu9  1  0.22179455  0.58848127  0.66099719  1
  Cu  Cu10  1  0.48554465  0.25000000  0.58920792  1
  Cu  Cu11  1  0.65843918  0.52088634  0.55921659  1
  Cu  Cu12  1  0.72179455  0.58848127  0.83900281  1
  Cu  Cu13  1  0.01445535  0.75000000  0.08920792  1
  Cu  Cu14  1  0.15843918  0.97911366  0.94078341  1
  Cu  Cu15  1  0.22179455  0.91151873  0.66099719  1
  Cu  Cu16  1  0.91944059  0.75000000  0.67183039  1
  Cu  Cu17  1  0.34156082  0.47911366  0.44078341  1
  Cu  Cu18  1  0.84156082  0.02088634  0.05921659  1
  Cu  Cu19  1  0.48538650  0.25000000  0.84046029  1
  Cu  Cu20  1  0.58055941  0.25000000  0.17183039  1
  Cu  Cu21  1  0.77820545  0.08848127  0.33900281  1
  Cu  Cu22  1  0.27820545  0.41151873  0.16099719  1
  Cu  Cu23  1  0.77820545  0.41151873  0.33900281  1
  Cu  Cu24  1  0.65843918  0.97911366  0.55921659  1
  Cu  Cu25  1  0.98554465  0.25000000  0.91079208  1
  Cu  Cu26  1  0.15843918  0.52088634  0.94078341  1
  Cu  Cu27  1  0.08055941  0.25000000  0.32816961  1
  S  S0  1  0.20986154  0.25000000  0.51517281  1
  S  S1  1  0.00873125  -0.00015548  0.23079746  1
  S  S2  1  0.79013846  0.75000000  0.48482719  1
  S  S3  1  0.50873125  0.50015548  0.26920254  1
  S  S4  1  0.49126875  0.49984452  0.73079746  1
  S  S5  1  0.73621200  0.75000000  0.01683828  1
  S  S6  1  0.99126875  0.00015548  0.76920254  1
  S  S7  1  0.23621200  0.75000000  0.48316172  1
  S  S8  1  0.99126875  0.49984452  0.76920254  1
  S  S9  1  0.50873125  -0.00015548  0.26920254  1
  S  S10  1  0.26378800  0.25000000  0.98316172  1
  S  S11  1  0.00873125  0.50015548  0.23079746  1
  S  S12  1  0.29013846  0.75000000  0.01517281  1
  S  S13  1  0.49126875  0.00015548  0.73079746  1
  S  S14  1  0.76378800  0.25000000  0.51683828  1
  S  S15  1  0.70986154  0.25000000  0.98482719  1
loop_
_geom_bond_atom_site_label_1
_geom_bond_atom_site_label_2
_geom_bond_distance
_geom_bond_site_symmetry_2
Cu0 S3 2.297408 1_555
Cu0 S9 2.297408 1_565
Cu0 S5 2.319179 1_555
Cu0 S12 2.347948 1_555
Cu1 S6 2.297408 1_555
Cu1 S8 2.297408 1_555
Cu1 S14 2.319179 1_555
Cu1 S0 2.347948 1_655
Cu2 S12 2.256263 1_556
Cu2 S4 2.303511 1_555
Cu2 S13 2.303511 1_565
Cu3 S2 2.301659 1_555
Cu3 S7 2.314357 1_555
Cu3 S3 2.492095 1_555
Cu3 S9 2.492095 1_565
Cu4 S9 2.260073 1_555
Cu4 S10 2.304364 1_554
Cu4 S1 2.346770 1_555
Cu5 S1 2.297408 1_565
Cu5 S11 2.297408 1_555
Cu5 S7 2.319179 1_555
Cu5 S2 2.347948 1_455
Cu6 S0 2.228890 1_555
Cu6 S9 2.272387 1_555
Cu6 S7 2.334074 1_545
Cu7 S15 2.228890 1_554
Cu7 S11 2.272387 1_655
Cu7 S5 2.334074 1_555
Cu8 S13 2.260073 1_565
Cu8 S5 2.304364 1_556
Cu8 S6 2.346770 1_565
Cu9 S8 2.260073 1_455
Cu9 S7 2.304364 1_555
Cu9 S4 2.346770 1_555
Cu10 S0 2.301659 1_555
Cu10 S14 2.314357 1_555
Cu10 S13 2.492095 1_555
Cu10 S4 2.492095 1_555
Cu11 S2 2.228890 1_555
Cu11 S4 2.272387 1_555
Cu11 S14 2.334074 1_555
Cu12 S4 2.260073 1_555
Cu12 S5 2.304364 1_556
Cu12 S8 2.346770 1_555
Cu13 S12 2.301659 1_555
Cu13 S5 2.314357 1_455
Cu13 S1 2.492095 1_565
Cu13 S11 2.492095 1_555
Cu14 S12 2.228890 1_556
Cu14 S6 2.272387 1_465
Cu14 S10 2.334074 1_565
Cu15 S6 2.260073 1_465
Cu15 S7 2.304364 1_555
Cu15 S13 2.346770 1_565
Cu16 S2 2.256263 1_555
Cu16 S8 2.303511 1_555
Cu16 S6 2.303511 1_565
Cu17 S0 2.228890 1_555
Cu17 S3 2.272387 1_555
Cu17 S7 2.334074 1_555
Cu18 S15 2.228890 1_554
Cu18 S1 2.272387 1_655
Cu18 S5 2.334074 1_545
Cu19 S13 2.297408 1_555
Cu19 S4 2.297408 1_555
Cu19 S10 2.319179 1_555
Cu19 S15 2.347948 1_555
Cu20 S15 2.256263 1_554
Cu20 S3 2.303511 1_555
Cu20 S9 2.303511 1_555
Cu21 S1 2.260073 1_655
Cu21 S14 2.304364 1_555
Cu21 S9 2.346770 1_555
Cu22 S3 2.260073 1_555
Cu22 S10 2.304364 1_554
Cu22 S11 2.346770 1_555
Cu23 S11 2.260073 1_655
Cu23 S14 2.304364 1_555
Cu23 S3 2.346770 1_555
Cu24 S2 2.228890 1_555
Cu24 S13 2.272387 1_565
Cu24 S14 2.334074 1_565
Cu25 S15 2.301659 1_555
Cu25 S10 2.314357 1_655
Cu25 S8 2.492095 1_555
Cu25 S6 2.492095 1_555
Cu26 S12 2.228890 1_556
Cu26 S8 2.272387 1_455
Cu26 S10 2.334074 1_555
Cu27 S0 2.256263 1_555
Cu27 S11 2.303511 1_555
Cu27 S1 2.303511 1_555
