# generated using pymatgen
data_Mg5H8O9
_symmetry_space_group_name_H-M   'P 1'
_cell_length_a   3.10489102
_cell_length_b   3.10489110
_cell_length_c   21.16808034
_cell_angle_alpha   90.00038989
_cell_angle_beta   89.99961969
_cell_angle_gamma   120.00128429
_symmetry_Int_Tables_number   1
_chemical_formula_structural   Mg5H8O9
_chemical_formula_sum   'Mg5 H8 O9'
_cell_volume   176.72550069
_cell_formula_units_Z   1
loop_
 _symmetry_equiv_pos_site_id
 _symmetry_equiv_pos_as_xyz
  1  'x, y, z'
loop_
 _atom_site_type_symbol
 _atom_site_label
 _atom_site_symmetry_multiplicity
 _atom_site_fract_x
 _atom_site_fract_y
 _atom_site_fract_z
 _atom_site_occupancy
  Mg  Mg0  1  0.00000032  0.00000037  0.50000004  1
  Mg  Mg1  1  -0.00001833  0.00001819  0.28068260  1
  Mg  Mg2  1  0.00001740  -0.00001799  0.71931775  1
  Mg  Mg3  1  0.33334093  0.66665902  0.05726128  1
  Mg  Mg4  1  0.66665949  0.33334057  0.94273823  1
  H  H0  1  0.66666122  0.33333863  0.59492785  1
  H  H1  1  0.33333841  0.66666185  0.40507250  1
  H  H2  1  0.66667004  0.33333053  0.15202179  1
  H  H3  1  0.33333090  0.66666971  0.84797805  1
  H  H4  1  0.66666004  0.33334017  0.37560393  1
  H  H5  1  0.33333970  0.66666029  0.62439609  1
  H  H6  1  0.33333636  0.66666381  0.18600116  1
  H  H7  1  0.66666344  0.33333661  0.81399890  1
  O  O0  1  0.66666400  0.33333650  0.54944391  1
  O  O1  1  0.33333607  0.66666409  0.45055638  1
  O  O2  1  0.66667222  0.33332774  0.10652146  1
  O  O3  1  0.33332821  0.66667159  0.89347807  1
  O  O4  1  -0.00000003  -0.00000005  -0.00000010  1
  O  O5  1  0.66665096  0.33334912  0.33012254  1
  O  O6  1  0.33334845  0.66665108  0.66987751  1
  O  O7  1  0.33332706  0.66667254  0.23140155  1
  O  O8  1  0.66667214  0.33332764  0.76859852  1
loop_
_geom_bond_atom_site_label_1
_geom_bond_atom_site_label_2
_geom_bond_distance
_geom_bond_site_symmetry_2
Mg0 O1 2.075761 1_555
Mg0 O1 2.075762 1_445
Mg0 O0 2.075762 1_555
Mg0 O0 2.075763 1_445
Mg0 O1 2.075799 1_545
Mg0 O0 2.075802 1_455
Mg1 O7 2.074005 1_555
Mg1 O7 2.074006 1_445
Mg1 O7 2.074110 1_545
Mg1 O5 2.075733 1_445
Mg1 O5 2.075734 1_555
Mg1 O5 2.075735 1_455
Mg2 O8 2.074002 1_445
Mg2 O8 2.074003 1_555
Mg2 O8 2.074107 1_455
Mg2 O6 2.075736 1_445
Mg2 O6 2.075736 1_555
Mg2 O6 2.075739 1_545
Mg3 O2 2.073809 1_565
Mg3 O2 2.073810 1_455
Mg3 O2 2.073836 1_555
Mg3 O4 2.163907 1_555
Mg3 O4 2.163907 1_665
Mg3 O4 2.163999 1_565
Mg4 O3 2.073809 1_655
Mg4 O3 2.073810 1_545
Mg4 O3 2.073835 1_555
Mg4 O4 2.163911 1_666
Mg4 O4 2.163912 1_556
Mg4 O4 2.164000 1_656
H0 O0 0.962808 1_555
H1 O1 0.962806 1_555
H2 O2 0.963155 1_555
H3 O3 0.963148 1_555
H4 O5 0.962754 1_555
H5 O6 0.962754 1_555
H6 O7 0.961039 1_555
H7 O8 0.961039 1_555
