# generated using pymatgen
data_Cs3CdI5
_symmetry_space_group_name_H-M   'P 1'
_cell_length_a   10.13395227
_cell_length_b   11.97089401
_cell_length_c   15.05481035
_cell_angle_alpha   90.00000000
_cell_angle_beta   90.00000000
_cell_angle_gamma   90.00000000
_symmetry_Int_Tables_number   1
_chemical_formula_structural   Cs3CdI5
_chemical_formula_sum   'Cs12 Cd4 I20'
_cell_volume   1826.33620676
_cell_formula_units_Z   4
loop_
 _symmetry_equiv_pos_site_id
 _symmetry_equiv_pos_as_xyz
  1  'x, y, z'
loop_
 _atom_site_type_symbol
 _atom_site_label
 _atom_site_symmetry_multiplicity
 _atom_site_fract_x
 _atom_site_fract_y
 _atom_site_fract_z
 _atom_site_occupancy
  Cs  Cs0  1  0.57844486  0.98272855  0.32950689  1
  Cs  Cs1  1  0.92155514  0.48272855  0.82950689  1
  Cs  Cs2  1  0.57800392  0.75000000  0.04995178  1
  Cs  Cs3  1  0.92155514  0.01727145  0.82950689  1
  Cs  Cs4  1  0.42155514  0.01727145  0.67049311  1
  Cs  Cs5  1  0.07844486  0.98272855  0.17049311  1
  Cs  Cs6  1  0.07800392  0.75000000  0.45004822  1
  Cs  Cs7  1  0.57844486  0.51727145  0.32950689  1
  Cs  Cs8  1  0.07844486  0.51727145  0.17049311  1
  Cs  Cs9  1  0.42199608  0.25000000  0.95004822  1
  Cs  Cs10  1  0.92199608  0.25000000  0.54995178  1
  Cs  Cs11  1  0.42155514  0.48272855  0.67049311  1
  Cd  Cd0  1  0.68891991  0.75000000  0.60821122  1
  Cd  Cd1  1  0.18891991  0.75000000  0.89178878  1
  Cd  Cd2  1  0.31108009  0.25000000  0.39178878  1
  Cd  Cd3  1  0.81108009  0.25000000  0.10821122  1
  I  I0  1  0.95561710  0.75000000  0.99318782  1
  I  I1  1  0.04438290  0.25000000  0.00681218  1
  I  I2  1  0.45561710  0.75000000  0.50681218  1
  I  I3  1  0.62936654  0.75000000  0.78923364  1
  I  I4  1  0.54438290  0.25000000  0.49318782  1
  I  I5  1  0.67509790  0.25000000  0.76413667  1
  I  I6  1  0.12936654  0.75000000  0.71076636  1
  I  I7  1  0.82490210  0.75000000  0.26413667  1
  I  I8  1  0.31301269  0.55052427  0.93819054  1
  I  I9  1  0.17509790  0.25000000  0.73586333  1
  I  I10  1  0.81301269  0.94947573  0.56180946  1
  I  I11  1  0.81301269  0.55052427  0.56180946  1
  I  I12  1  0.31301269  0.94947573  0.93819054  1
  I  I13  1  0.32490210  0.75000000  0.23586333  1
  I  I14  1  0.68698731  0.44947573  0.06180946  1
  I  I15  1  0.18698731  0.05052427  0.43819054  1
  I  I16  1  0.18698731  0.44947573  0.43819054  1
  I  I17  1  0.87063346  0.25000000  0.28923364  1
  I  I18  1  0.37063346  0.25000000  0.21076636  1
  I  I19  1  0.68698731  0.05052427  0.06180946  1
loop_
_geom_bond_atom_site_label_1
_geom_bond_atom_site_label_2
_geom_bond_distance
_geom_bond_site_symmetry_2
Cs0 I7 3.868861 1_555
Cs0 I13 4.043623 1_555
Cs0 I4 4.053150 1_565
Cs0 I2 4.054149 1_555
Cs0 I18 4.226968 1_565
Cs0 I10 4.247348 1_555
Cs0 I19 4.255650 1_565
Cs0 I15 4.367268 1_565
Cs0 I17 4.401356 1_565
Cs1 I5 3.868861 1_555
Cs1 I9 4.043623 1_655
Cs1 I0 4.053150 1_555
Cs1 I1 4.054149 1_656
Cs1 I6 4.226968 1_655
Cs1 I14 4.247348 1_556
Cs1 I11 4.255650 1_555
Cs1 I8 4.367268 1_655
Cs1 I3 4.401356 1_555
Cs2 I19 3.767488 1_565
Cs2 I14 3.767488 1_555
Cs2 I13 3.796374 1_555
Cs2 I0 3.920973 1_554
Cs2 I3 3.959424 1_554
Cs2 I12 3.967928 1_554
Cs2 I8 3.967928 1_554
Cs2 I7 4.081392 1_555
Cs3 I5 3.868861 1_555
Cs3 I9 4.043623 1_655
Cs3 I0 4.053150 1_545
Cs3 I1 4.054149 1_656
Cs3 I6 4.226968 1_645
Cs3 I19 4.247348 1_556
Cs3 I10 4.255650 1_545
Cs3 I12 4.367268 1_645
Cs3 I3 4.401356 1_545
Cs4 I9 3.868861 1_555
Cs4 I5 4.043623 1_555
Cs4 I2 4.053150 1_545
Cs4 I4 4.054149 1_555
Cs4 I3 4.226968 1_545
Cs4 I15 4.247348 1_555
Cs4 I12 4.255650 1_545
Cs4 I10 4.367268 1_545
Cs4 I6 4.401356 1_545
Cs5 I13 3.868861 1_555
Cs5 I7 4.043623 1_455
Cs5 I1 4.053150 1_565
Cs5 I0 4.054149 1_454
Cs5 I17 4.226968 1_465
Cs5 I12 4.247348 1_554
Cs5 I15 4.255650 1_565
Cs5 I19 4.367268 1_465
Cs5 I18 4.401356 1_565
Cs6 I15 3.767488 1_565
Cs6 I16 3.767488 1_555
Cs6 I7 3.796374 1_455
Cs6 I2 3.920973 1_555
Cs6 I6 3.959424 1_555
Cs6 I10 3.967928 1_455
Cs6 I11 3.967928 1_455
Cs6 I13 4.081392 1_555
Cs7 I7 3.868861 1_555
Cs7 I13 4.043623 1_555
Cs7 I4 4.053150 1_555
Cs7 I2 4.054149 1_555
Cs7 I18 4.226968 1_555
Cs7 I11 4.247348 1_555
Cs7 I14 4.255650 1_555
Cs7 I16 4.367268 1_555
Cs7 I17 4.401356 1_555
Cs8 I13 3.868861 1_555
Cs8 I7 4.043623 1_455
Cs8 I1 4.053150 1_555
Cs8 I0 4.054149 1_454
Cs8 I17 4.226968 1_455
Cs8 I8 4.247348 1_554
Cs8 I16 4.255650 1_555
Cs8 I14 4.367268 1_455
Cs8 I18 4.401356 1_555
Cs9 I8 3.767488 1_555
Cs9 I12 3.767488 1_545
Cs9 I5 3.796374 1_555
Cs9 I1 3.920973 1_556
Cs9 I18 3.959424 1_556
Cs9 I19 3.967928 1_556
Cs9 I14 3.967928 1_556
Cs9 I9 4.081392 1_555
Cs10 I10 3.767488 1_545
Cs10 I11 3.767488 1_555
Cs10 I9 3.796374 1_655
Cs10 I4 3.920973 1_555
Cs10 I17 3.959424 1_555
Cs10 I15 3.967928 1_655
Cs10 I16 3.967928 1_655
Cs10 I5 4.081392 1_555
Cs11 I9 3.868861 1_555
Cs11 I5 4.043623 1_555
Cs11 I2 4.053150 1_555
Cs11 I4 4.054149 1_555
Cs11 I3 4.226968 1_555
Cs11 I16 4.247348 1_555
Cs11 I8 4.255650 1_555
Cs11 I11 4.367268 1_555
Cs11 I6 4.401356 1_555
Cd0 I10 2.787743 1_555
Cd0 I11 2.787743 1_555
Cd0 I3 2.791282 1_555
Cd0 I2 2.814277 1_555
Cd1 I12 2.787743 1_555
Cd1 I8 2.787743 1_555
Cd1 I6 2.791282 1_555
Cd1 I0 2.814277 1_455
Cd2 I15 2.787743 1_555
Cd2 I16 2.787743 1_555
Cd2 I18 2.791282 1_555
Cd2 I4 2.814277 1_555
Cd3 I19 2.787743 1_555
Cd3 I14 2.787743 1_555
Cd3 I17 2.791282 1_555
Cd3 I1 2.814277 1_655
