# generated using pymatgen
data_KHgC3(SN)3
_symmetry_space_group_name_H-M   'P 1'
_cell_length_a   4.10727800
_cell_length_b   12.07062700
_cell_length_c   22.30534881
_cell_angle_alpha   58.78445234
_cell_angle_beta   90.00000000
_cell_angle_gamma   90.00000000
_symmetry_Int_Tables_number   1
_chemical_formula_structural   KHgC3(SN)3
_chemical_formula_sum   'K4 Hg4 C12 S12 N12'
_cell_volume   945.74195152
_cell_formula_units_Z   4
loop_
 _symmetry_equiv_pos_site_id
 _symmetry_equiv_pos_as_xyz
  1  'x, y, z'
loop_
 _atom_site_type_symbol
 _atom_site_label
 _atom_site_symmetry_multiplicity
 _atom_site_fract_x
 _atom_site_fract_y
 _atom_site_fract_z
 _atom_site_occupancy
  K  K0  1  0.21085300  0.40524300  0.19017300  1
  K  K1  1  0.78914700  0.59475700  0.80982700  1
  K  K2  1  0.28914700  0.40524300  0.69017300  1
  K  K3  1  0.71085300  0.59475700  0.30982700  1
  Hg  Hg0  1  0.71051700  0.85516200  0.96027500  1
  Hg  Hg1  1  0.78948300  0.85516200  0.46027500  1
  Hg  Hg2  1  0.21051700  0.14483800  0.53972500  1
  Hg  Hg3  1  0.28948300  0.14483800  0.03972500  1
  C  C0  1  0.75353000  0.09720600  0.30191800  1
  C  C1  1  0.75594700  0.35882400  0.55589300  1
  C  C2  1  0.24647000  0.90279400  0.69808200  1
  C  C3  1  0.73212800  0.71607500  0.12690800  1
  C  C4  1  0.23212800  0.28392500  0.37309200  1
  C  C5  1  0.26787200  0.28392500  0.87309200  1
  C  C6  1  0.25353000  0.90279400  0.19808200  1
  C  C7  1  0.74405300  0.35882400  0.05589300  1
  C  C8  1  0.24405300  0.64117600  0.44410700  1
  C  C9  1  0.76787200  0.71607500  0.62690800  1
  C  C10  1  0.25594700  0.64117600  0.94410700  1
  C  C11  1  0.74647000  0.09720600  0.80191800  1
  S  S0  1  0.28244200  0.66912000  0.50908900  1
  S  S1  1  0.26556700  0.12695300  0.43189600  1
  S  S2  1  0.21755800  0.66912000  0.00908900  1
  S  S3  1  0.84179100  0.94287400  0.33209900  1
  S  S4  1  0.23443300  0.12695300  0.93189600  1
  S  S5  1  0.65820900  0.94287400  0.83209900  1
  S  S6  1  0.34179100  0.05712600  0.16790100  1
  S  S7  1  0.15820900  0.05712600  0.66790100  1
  S  S8  1  0.76556700  0.87304700  0.06810400  1
  S  S9  1  0.73443300  0.87304700  0.56810400  1
  S  S10  1  0.71755800  0.33088000  0.49091100  1
  S  S11  1  0.78244200  0.33088000  0.99091100  1
  N  N0  1  0.29155200  0.39538000  0.83065400  1
  N  N1  1  0.20844800  0.39538000  0.33065400  1
  N  N2  1  0.69609500  0.20856900  0.27641700  1
  N  N3  1  0.30390500  0.79143100  0.72358300  1
  N  N4  1  0.19609500  0.79143100  0.22358300  1
  N  N5  1  0.80390500  0.20856900  0.77641700  1
  N  N6  1  0.70844800  0.60462000  0.16934600  1
  N  N7  1  0.28665200  0.62079100  0.89827100  1
  N  N8  1  0.21334800  0.62079100  0.39827100  1
  N  N9  1  0.79155200  0.60462000  0.66934600  1
  N  N10  1  0.78665200  0.37920900  0.60172900  1
  N  N11  1  0.71334800  0.37920900  0.10172900  1
loop_
_geom_bond_atom_site_label_1
_geom_bond_atom_site_label_2
_geom_bond_distance
_geom_bond_site_symmetry_2
K0 N2 2.928301 1_555
K0 N11 2.967931 1_455
K0 N11 2.982079 1_555
K0 N6 3.004279 1_555
K0 N2 3.012121 1_455
K0 N6 3.017754 1_455
K0 N1 3.073480 1_555
K0 S2 3.622919 1_555
K1 N3 2.928301 1_555
K1 N7 2.967931 1_655
K1 N7 2.982079 1_555
K1 N0 3.004279 1_555
K1 N3 3.012121 1_655
K1 N0 3.017754 1_655
K1 N9 3.073480 1_555
K1 S11 3.622919 1_555
K2 N5 2.928301 1_455
K2 N10 2.967931 1_555
K2 N10 2.982079 1_455
K2 N9 3.004279 1_455
K2 N5 3.012121 1_555
K2 N9 3.017754 1_555
K2 N0 3.073480 1_555
K2 S0 3.622919 1_555
K3 N4 2.928301 1_655
K3 N8 2.967931 1_555
K3 N8 2.982079 1_655
K3 N1 3.004279 1_655
K3 N4 3.012121 1_555
K3 N1 3.017754 1_555
K3 N6 3.073480 1_555
K3 S10 3.622919 1_555
Hg0 S5 2.490691 1_555
Hg0 S8 2.533917 1_556
Hg0 S2 2.791692 1_556
Hg0 S2 2.833920 1_656
Hg1 S3 2.490691 1_555
Hg1 S9 2.533917 1_555
Hg1 S0 2.791692 1_655
Hg1 S0 2.833920 1_555
Hg2 S7 2.490691 1_555
Hg2 S1 2.533917 1_555
Hg2 S10 2.791692 1_455
Hg2 S10 2.833920 1_555
Hg3 S6 2.490691 1_555
Hg3 S4 2.533917 1_554
Hg3 S11 2.791692 1_554
Hg3 S11 2.833920 1_454
C0 N2 1.180507 1_555
C0 S3 1.659838 1_545
C1 N10 1.175790 1_555
C1 S10 1.657191 1_555
C2 N3 1.180507 1_555
C2 S7 1.659838 1_565
C3 N6 1.181283 1_555
C3 S8 1.659324 1_555
C4 N1 1.181283 1_555
C4 S1 1.659324 1_555
C5 N0 1.181283 1_555
C5 S4 1.659324 1_555
C6 N4 1.180507 1_555
C6 S6 1.659838 1_565
C7 N11 1.175790 1_555
C7 S11 1.657191 1_554
C8 N8 1.175790 1_555
C8 S0 1.657191 1_555
C9 N9 1.181283 1_555
C9 S9 1.659324 1_555
C10 N7 1.175790 1_555
C10 S2 1.657191 1_556
C11 N5 1.180507 1_555
C11 S5 1.659838 1_545
