# generated using pymatgen
data_Rb8C4O7
_symmetry_space_group_name_H-M   'P 1'
_cell_length_a   15.10341300
_cell_length_b   5.99804300
_cell_length_c   6.02969490
_cell_angle_alpha   65.40159031
_cell_angle_beta   90.00000000
_cell_angle_gamma   90.00000000
_symmetry_Int_Tables_number   1
_chemical_formula_structural   Rb8C4O7
_chemical_formula_sum   'Rb8 C4 O7'
_cell_volume   496.66345403
_cell_formula_units_Z   1
loop_
 _symmetry_equiv_pos_site_id
 _symmetry_equiv_pos_as_xyz
  1  'x, y, z'
loop_
 _atom_site_type_symbol
 _atom_site_label
 _atom_site_symmetry_multiplicity
 _atom_site_fract_x
 _atom_site_fract_y
 _atom_site_fract_z
 _atom_site_occupancy
  Rb  Rb0  1  0.00000000  0.35767100  0.33603900  1
  Rb  Rb1  1  0.50000000  0.40808000  0.40452800  1
  Rb  Rb2  1  0.13212500  0.00612700  0.98929800  1
  Rb  Rb3  1  0.86787500  0.00612700  0.98929800  1
  Rb  Rb4  1  0.62732000  0.00406100  0.08621200  1
  Rb  Rb5  1  0.37268000  0.00406100  0.08621200  1
  Rb  Rb6  1  0.23778200  0.68598000  0.65285100  1
  Rb  Rb7  1  0.76221800  0.68598000  0.65285100  1
  C  C0  1  0.74296500  0.38378200  0.27516100  1
  C  C1  1  0.25703500  0.38378200  0.27516100  1
  C  C2  1  0.50000000  0.81541300  0.58502600  1
  C  C3  1  0.00000000  0.79450500  0.65119800  1
  O  O0  1  0.80022000  0.22225100  0.28747500  1
  O  O1  1  0.19978000  0.22225100  0.28747500  1
  O  O2  1  0.50000000  0.79644000  0.78447600  1
  O  O3  1  0.35981900  0.37267300  0.68515300  1
  O  O4  1  0.64018100  0.37267300  0.68515300  1
  O  O5  1  0.24095500  0.61357100  0.18921700  1
  O  O6  1  0.75904500  0.61357100  0.18921700  1
loop_
_geom_bond_atom_site_label_1
_geom_bond_atom_site_label_2
_geom_bond_distance
_geom_bond_site_symmetry_2
C0 O0 1.277544 1_555
C0 O6 1.277724 1_555
C0 Rb4 3.419997 1_555
C1 O1 1.277544 1_555
C1 O5 1.277724 1_555
C1 Rb5 3.419997 1_555
C2 O2 1.159877 1_555
C2 Rb5 3.345313 1_565
C2 Rb4 3.345313 1_565
C3 Rb0 3.110855 1_565
C3 Rb2 3.450169 1_565
C3 Rb3 3.450169 1_465
O0 Rb3 2.810229 1_554
O0 Rb7 3.103210 1_545
O0 Rb0 3.169855 1_655
O0 Rb4 3.365552 1_555
O1 Rb2 2.810229 1_554
O1 Rb6 3.103210 1_545
O1 Rb0 3.169855 1_555
O1 Rb5 3.365552 1_555
O2 Rb5 3.231869 1_566
O2 Rb4 3.231869 1_566
O3 Rb5 2.514533 1_556
O3 Rb6 2.581088 1_555
O3 Rb1 2.663018 1_555
O4 Rb4 2.514533 1_556
O4 Rb7 2.581088 1_555
O4 Rb1 2.663018 1_555
O5 Rb2 2.708493 1_564
O5 Rb5 2.935743 1_565
O5 Rb6 3.002822 1_555
O5 Rb6 3.079142 1_554
O6 Rb3 2.708493 1_564
O6 Rb4 2.935743 1_565
O6 Rb7 3.002822 1_555
O6 Rb7 3.079142 1_554
