# generated using pymatgen
data_Na2H6Pt
_symmetry_space_group_name_H-M   'P 1'
_cell_length_a   5.13262784
_cell_length_b   5.13262784
_cell_length_c   5.13262784
_cell_angle_alpha   60.00000000
_cell_angle_beta   60.00000000
_cell_angle_gamma   60.00000000
_symmetry_Int_Tables_number   1
_chemical_formula_structural   Na2H6Pt
_chemical_formula_sum   'Na2 H6 Pt1'
_cell_volume   95.61022224
_cell_formula_units_Z   1
loop_
 _symmetry_equiv_pos_site_id
 _symmetry_equiv_pos_as_xyz
  1  'x, y, z'
loop_
 _atom_site_type_symbol
 _atom_site_label
 _atom_site_symmetry_multiplicity
 _atom_site_fract_x
 _atom_site_fract_y
 _atom_site_fract_z
 _atom_site_occupancy
  Na  Na0  1  0.75000000  0.75000000  0.75000000  1
  Na  Na1  1  0.25000000  0.25000000  0.25000000  1
  H  H0  1  0.22553565  0.77446435  0.77446435  1
  H  H1  1  0.22553565  0.22553565  0.77446435  1
  H  H2  1  0.22553565  0.77446435  0.22553565  1
  H  H3  1  0.77446435  0.22553565  0.22553565  1
  H  H4  1  0.77446435  0.77446435  0.22553565  1
  H  H5  1  0.77446435  0.22553565  0.77446435  1
  Pt  Pt0  1  -0.00000000  0.00000000  -0.00000000  1
loop_
_geom_bond_atom_site_label_1
_geom_bond_atom_site_label_2
_geom_bond_distance
_geom_bond_site_symmetry_2
H0 Pt0 1.637080 1_566
H0 Na0 2.572450 1_555
H0 Na1 2.572450 1_556
H0 Na0 2.572450 1_455
H0 Na1 2.572450 1_565
H1 Pt0 1.637080 1_556
H1 Na1 2.572450 1_556
H1 Na0 2.572450 1_545
H1 Na0 2.572450 1_455
H1 Na1 2.572450 1_555
H2 Pt0 1.637080 1_565
H2 Na0 2.572450 1_554
H2 Na0 2.572450 1_455
H2 Na1 2.572450 1_565
H2 Na1 2.572450 1_555
H3 Pt0 1.637080 1_655
H3 Na0 2.572450 1_554
H3 Na0 2.572450 1_545
H3 Na1 2.572450 1_555
H3 Na1 2.572450 1_655
H4 Pt0 1.637080 1_665
H4 Na0 2.572450 1_555
H4 Na0 2.572450 1_554
H4 Na1 2.572450 1_565
H4 Na1 2.572450 1_655
H5 Pt0 1.637080 1_656
H5 Na0 2.572450 1_555
H5 Na1 2.572450 1_556
H5 Na0 2.572450 1_545
H5 Na1 2.572450 1_655
