# generated using pymatgen
data_Mn27Sb26
_symmetry_space_group_name_H-M   'P 1'
_cell_length_a   9.95525800
_cell_length_b   10.77286779
_cell_length_c   11.97180349
_cell_angle_alpha   108.84869693
_cell_angle_beta   112.75065576
_cell_angle_gamma   99.16044529
_symmetry_Int_Tables_number   1
_chemical_formula_structural   Mn27Sb26
_chemical_formula_sum   'Mn27 Sb26'
_cell_volume   1059.49815263
_cell_formula_units_Z   1
loop_
 _symmetry_equiv_pos_site_id
 _symmetry_equiv_pos_as_xyz
  1  'x, y, z'
loop_
 _atom_site_type_symbol
 _atom_site_label
 _atom_site_symmetry_multiplicity
 _atom_site_fract_x
 _atom_site_fract_y
 _atom_site_fract_z
 _atom_site_occupancy
  Mn  Mn0  1  0.00243900  0.99941000  0.99867300  1
  Mn  Mn1  1  0.46160000  0.07616500  0.23042200  1
  Mn  Mn2  1  0.50124900  0.99848100  0.99933400  1
  Mn  Mn3  1  0.92333700  0.15317900  0.46123100  1
  Mn  Mn4  1  0.96075100  0.07686200  0.22721200  1
  Mn  Mn5  1  0.42165600  0.15266000  0.46049100  1
  Mn  Mn6  1  0.38424400  0.22989500  0.69322600  1
  Mn  Mn7  1  0.84832400  0.31542700  0.92633100  1
  Mn  Mn8  1  0.88584200  0.23422900  0.69114600  1
  Mn  Mn9  1  0.30963000  0.38495900  0.15428500  1
  Mn  Mn10  1  0.34858700  0.30680500  0.92339000  1
  Mn  Mn11  1  0.80820400  0.38431600  0.15464900  1
  Mn  Mn12  1  0.76766200  0.46290000  0.38541100  1
  Mn  Mn13  1  0.22680600  0.53679100  0.61484700  1
  Mn  Mn14  1  0.26512800  0.45796100  0.38073500  1
  Mn  Mn15  1  0.69151600  0.61271500  0.84357100  1
  Mn  Mn16  1  0.72966700  0.53690600  0.61643600  1
  Mn  Mn17  1  0.15617600  0.68999900  0.08085400  1
  Mn  Mn18  1  0.19486900  0.61364900  0.84503500  1
  Mn  Mn19  1  0.61784900  0.76972900  0.30936900  1
  Mn  Mn20  1  0.65229800  0.69436100  0.07527400  1
  Mn  Mn21  1  0.07367100  0.84652400  0.53819400  1
  Mn  Mn22  1  0.11695400  0.76912300  0.30920600  1
  Mn  Mn23  1  0.53480200  0.91995000  0.76577200  1
  Mn  Mn24  1  0.57694100  0.84887900  0.54138500  1
  Mn  Mn25  1  0.76397000  0.80976200  0.75732700  1
  Mn  Mn26  1  0.03850000  0.92550200  0.77281400  1
  Sb  Sb0  1  0.64722500  0.04016200  0.44913700  1
  Sb  Sb1  1  0.81742000  0.05748700  0.78498700  1
  Sb  Sb2  1  0.10857600  0.11706100  0.67992100  1
  Sb  Sb3  1  0.27705200  0.11444600  0.01338600  1
  Sb  Sb4  1  0.57229000  0.19262100  0.91024300  1
  Sb  Sb5  1  0.73803100  0.19083400  0.24432400  1
  Sb  Sb6  1  0.03226000  0.27054900  0.13831300  1
  Sb  Sb7  1  0.19821800  0.26596800  0.47396400  1
  Sb  Sb8  1  0.49295500  0.34632900  0.37175300  1
  Sb  Sb9  1  0.65814500  0.34400400  0.70368100  1
  Sb  Sb10  1  0.95384500  0.42338400  0.60135600  1
  Sb  Sb11  1  0.12539200  0.42162400  0.93592000  1
  Sb  Sb12  1  0.41674900  0.49987200  0.83154300  1
  Sb  Sb13  1  0.58391500  0.49863000  0.16558500  1
  Sb  Sb14  1  0.87692600  0.58078200  0.06546600  1
  Sb  Sb15  1  0.04360800  0.57559600  0.39726300  1
  Sb  Sb16  1  0.34272000  0.65565500  0.29763100  1
  Sb  Sb17  1  0.48913200  0.64145300  0.61910300  1
  Sb  Sb18  1  0.80008800  0.73476400  0.53223600  1
  Sb  Sb19  1  0.98084100  0.72279700  0.86597700  1
  Sb  Sb20  1  0.26003100  0.80899700  0.75584800  1
  Sb  Sb21  1  0.42875300  0.80604600  0.09043500  1
  Sb  Sb22  1  0.72509200  0.88367200  0.98054200  1
  Sb  Sb23  1  0.89259300  0.88521200  0.32073000  1
  Sb  Sb24  1  0.18578000  0.96200800  0.21829600  1
  Sb  Sb25  1  0.35251000  0.96060000  0.55214800  1
loop_
_geom_bond_atom_site_label_1
_geom_bond_atom_site_label_2
_geom_bond_distance
_geom_bond_site_symmetry_2
Mn0 Sb3 2.729193 1_566
Mn0 Sb22 2.736903 1_455
Mn0 Mn25 2.737607 1_455
Mn0 Mn26 2.743143 1_555
Mn0 Sb6 2.756749 1_566
Mn0 Sb24 2.759312 1_556
Mn0 Mn4 2.804939 1_466
Mn0 Sb19 2.814753 1_455
Mn0 Sb1 2.843441 1_465
Mn1 Sb21 2.739613 1_545
Mn1 Sb3 2.745563 1_555
Mn1 Sb8 2.747962 1_555
Mn1 Sb5 2.749071 1_555
Mn1 Sb0 2.750160 1_555
Mn1 Sb24 2.752157 1_545
Mn2 Sb4 2.750585 1_565
Mn2 Sb21 2.757057 1_556
Mn2 Sb20 2.758801 1_555
Mn2 Sb3 2.759157 1_566
Mn2 Sb5 2.761012 1_566
Mn2 Sb22 2.762553 1_555
Mn2 Mn23 2.815970 1_555
Mn3 Sb23 2.727539 1_545
Mn3 Sb7 2.736257 1_655
Mn3 Sb5 2.743119 1_555
Mn3 Sb10 2.747525 1_555
Mn3 Sb2 2.749376 1_655
Mn3 Sb0 2.751677 1_555
Mn4 Sb5 2.742479 1_555
Mn4 Sb6 2.746117 1_655
Mn4 Sb24 2.746467 1_645
Mn4 Sb23 2.758910 1_545
Mn4 Sb7 2.764441 1_655
Mn4 Sb22 2.769804 1_544
Mn5 Sb7 2.734719 1_555
Mn5 Sb24 2.736786 1_545
Mn5 Sb0 2.743377 1_555
Mn5 Sb8 2.743939 1_555
Mn5 Sb9 2.746599 1_555
Mn5 Sb25 2.748914 1_545
Mn6 Sb12 2.734906 1_555
Mn6 Sb25 2.738281 1_545
Mn6 Sb2 2.740258 1_555
Mn6 Sb9 2.744329 1_555
Mn6 Sb4 2.750901 1_555
Mn6 Sb7 2.756713 1_555
Mn7 Sb1 2.639400 1_555
Mn7 Sb14 2.706425 1_556
Mn7 Sb6 2.740011 1_656
Mn7 Sb11 2.756019 1_655
Mn7 Sb9 2.756239 1_555
Mn7 Sb4 2.758125 1_555
Mn8 Sb1 2.629155 1_555
Mn8 Sb10 2.702810 1_555
Mn8 Sb2 2.745918 1_655
Mn8 Sb9 2.749782 1_555
Mn8 Sb11 2.754890 1_655
Mn8 Sb0 2.754954 1_555
Mn9 Sb13 2.741626 1_555
Mn9 Sb6 2.745199 1_555
Mn9 Sb3 2.746414 1_555
Mn9 Sb11 2.746554 1_554
Mn9 Sb8 2.747545 1_555
Mn9 Sb16 2.753345 1_555
Mn10 Sb13 2.738462 1_556
Mn10 Sb11 2.739091 1_555
Mn10 Sb4 2.741488 1_555
Mn10 Sb3 2.743797 1_556
Mn10 Sb2 2.755324 1_555
Mn10 Sb12 2.756970 1_555
Mn11 Sb15 2.739529 1_655
Mn11 Sb13 2.741676 1_555
Mn11 Sb5 2.747261 1_555
Mn11 Sb6 2.751103 1_655
Mn11 Sb4 2.752872 1_554
Mn11 Sb14 2.766155 1_555
Mn12 Sb8 2.740578 1_555
Mn12 Sb10 2.748888 1_555
Mn12 Sb15 2.750638 1_655
Mn12 Sb13 2.752371 1_555
Mn12 Sb5 2.769644 1_555
Mn12 Sb18 2.775838 1_555
Mn13 Sb17 2.648841 1_555
Mn13 Sb10 2.716417 1_455
Mn13 Sb15 2.749228 1_555
Mn13 Sb12 2.752433 1_555
Mn13 Sb20 2.760247 1_555
Mn13 Sb7 2.760901 1_555
Mn14 Sb17 2.655857 1_555
Mn14 Sb6 2.719070 1_555
Mn14 Sb16 2.749902 1_555
Mn14 Sb15 2.752039 1_555
Mn14 Sb8 2.752365 1_555
Mn14 Sb7 2.755959 1_555
Mn15 Sb9 2.725048 1_555
Mn15 Sb22 2.737471 1_555
Mn15 Sb12 2.739397 1_555
Mn15 Sb14 2.753622 1_556
Mn15 Sb19 2.807807 1_555
Mn15 Sb17 2.815178 1_555
Mn16 Sb9 2.724518 1_555
Mn16 Sb18 2.740434 1_555
Mn16 Sb10 2.747164 1_555
Mn16 Sb8 2.753845 1_555
Mn16 Sb17 2.810367 1_555
Mn16 Sb19 2.819578 1_555
Mn17 Sb19 2.664567 1_454
Mn17 Sb16 2.726233 1_555
Mn17 Sb21 2.743358 1_555
Mn17 Sb11 2.743838 1_554
Mn17 Sb14 2.751199 1_455
Mn17 Sb24 2.759631 1_555
Mn18 Sb19 2.646837 1_455
Mn18 Sb12 2.723533 1_555
Mn18 Sb11 2.742711 1_555
Mn18 Sb20 2.746366 1_555
Mn18 Sb21 2.754380 1_556
Mn18 Sb10 2.761448 1_455
Mn19 Sb16 2.747903 1_555
Mn19 Sb23 2.750777 1_555
Mn19 Sb0 2.751972 1_565
Mn19 Sb13 2.755790 1_555
Mn19 Sb21 2.765418 1_555
Mn19 Sb18 2.770421 1_555
Mn20 Sb21 2.730756 1_555
Mn20 Sb14 2.737352 1_555
Mn20 Sb12 2.756098 1_554
Mn20 Sb22 2.762282 1_554
Mn20 Sb13 2.768361 1_555
Mn20 Sb23 2.770937 1_555
Mn21 Sb23 2.740742 1_455
Mn21 Sb2 2.742269 1_565
Mn21 Sb20 2.752379 1_555
Mn21 Sb15 2.757596 1_555
Mn21 Sb18 2.760936 1_455
Mn21 Sb25 2.768819 1_555
Mn22 Sb25 2.742512 1_555
Mn22 Sb15 2.742597 1_555
Mn22 Sb24 2.748904 1_555
Mn22 Sb16 2.751568 1_555
Mn22 Sb14 2.753036 1_455
Mn22 Sb23 2.754660 1_455
Mn23 Sb25 2.722637 1_555
Mn23 Sb22 2.733156 1_555
Mn23 Sb20 2.746117 1_555
Mn23 Mn25 2.754509 1_555
Mn23 Mn24 2.761053 1_555
Mn23 Sb4 2.761935 1_565
Mn23 Sb17 2.799189 1_555
Mn23 Sb1 2.848877 1_565
Mn24 Sb18 2.725623 1_555
Mn24 Sb25 2.726860 1_555
Mn24 Sb16 2.748188 1_555
Mn24 Sb0 2.750381 1_565
Mn24 Sb1 2.817631 1_565
Mn24 Sb17 2.823770 1_555
Mn25 Sb1 2.520986 1_565
Mn25 Sb19 2.547606 1_555
Mn25 Sb17 2.547927 1_555
Mn25 Sb22 2.729130 1_555
Mn25 Sb18 2.734748 1_555
Mn26 Sb3 2.731436 1_566
Mn26 Sb18 2.736201 1_455
Mn26 Sb20 2.746518 1_555
Mn26 Sb2 2.758005 1_565
Mn26 Sb1 2.827984 1_465
Mn26 Sb19 2.830517 1_455
