# generated using pymatgen
data_LaYbS3
_symmetry_space_group_name_H-M   'P 1'
_cell_length_a   4.07831700
_cell_length_b   16.68520700
_cell_length_c   21.22540100
_cell_angle_alpha   90.00000000
_cell_angle_beta   90.00000000
_cell_angle_gamma   90.00000000
_symmetry_Int_Tables_number   1
_chemical_formula_structural   LaYbS3
_chemical_formula_sum   'La12 Yb12 S36'
_cell_volume   1444.33681932
_cell_formula_units_Z   12
loop_
 _symmetry_equiv_pos_site_id
 _symmetry_equiv_pos_as_xyz
  1  'x, y, z'
loop_
 _atom_site_type_symbol
 _atom_site_label
 _atom_site_symmetry_multiplicity
 _atom_site_fract_x
 _atom_site_fract_y
 _atom_site_fract_z
 _atom_site_occupancy
  La  La0  1  0.25000000  0.16027700  0.75294200  1
  La  La1  1  0.25000000  0.69765400  0.42534400  1
  La  La2  1  0.75000000  0.67225200  0.09209400  1
  La  La3  1  0.75000000  0.80234600  0.92534400  1
  La  La4  1  0.75000000  0.17225200  0.40790600  1
  La  La5  1  0.75000000  0.33972300  0.25294200  1
  La  La6  1  0.25000000  0.19765400  0.07465600  1
  La  La7  1  0.25000000  0.66027700  0.74705800  1
  La  La8  1  0.25000000  0.32774800  0.90790600  1
  La  La9  1  0.75000000  0.83972300  0.24705800  1
  La  La10  1  0.75000000  0.30234600  0.57465600  1
  La  La11  1  0.25000000  0.82774800  0.59209400  1
  Yb  Yb0  1  0.25000000  0.59644800  0.25391000  1
  Yb  Yb1  1  0.75000000  0.90355200  0.75391000  1
  Yb  Yb2  1  0.25000000  0.56804200  0.91746200  1
  Yb  Yb3  1  0.25000000  0.06804200  0.58253800  1
  Yb  Yb4  1  0.75000000  0.93195800  0.41746200  1
  Yb  Yb5  1  0.75000000  0.05304100  0.92834600  1
  Yb  Yb6  1  0.75000000  0.40355200  0.74609000  1
  Yb  Yb7  1  0.25000000  0.44695900  0.42834600  1
  Yb  Yb8  1  0.75000000  0.43195800  0.08253800  1
  Yb  Yb9  1  0.75000000  0.55304100  0.57165400  1
  Yb  Yb10  1  0.25000000  0.09644800  0.24609000  1
  Yb  Yb11  1  0.25000000  0.94695900  0.07165400  1
  S  S0  1  0.25000000  0.93048500  0.93759600  1
  S  S1  1  0.25000000  0.32293500  0.67512900  1
  S  S2  1  0.25000000  0.23331800  0.31936900  1
  S  S3  1  0.75000000  0.44924700  0.93679500  1
  S  S4  1  0.75000000  0.94924700  0.56320500  1
  S  S5  1  0.25000000  0.05075300  0.43679500  1
  S  S6  1  0.25000000  0.44330200  0.30068500  1
  S  S7  1  0.75000000  0.33990600  0.43821200  1
  S  S8  1  0.75000000  0.17706500  0.17512900  1
  S  S9  1  0.25000000  0.46869900  0.81650200  1
  S  S10  1  0.75000000  0.06951500  0.06240400  1
  S  S11  1  0.75000000  0.53130100  0.18349800  1
  S  S12  1  0.25000000  0.94330200  0.19931500  1
  S  S13  1  0.25000000  0.70448900  0.99232300  1
  S  S14  1  0.25000000  0.82293500  0.82487100  1
  S  S15  1  0.25000000  0.66009400  0.56178800  1
  S  S16  1  0.75000000  0.83990600  0.06178800  1
  S  S17  1  0.75000000  0.79551100  0.49232300  1
  S  S18  1  0.75000000  0.26668200  0.81936900  1
  S  S19  1  0.25000000  0.20448900  0.50767700  1
  S  S20  1  0.25000000  0.73331800  0.18063100  1
  S  S21  1  0.75000000  0.65100000  0.85004700  1
  S  S22  1  0.75000000  0.76668200  0.68063100  1
  S  S23  1  0.25000000  0.43048500  0.56240400  1
  S  S24  1  0.75000000  0.55669800  0.69931500  1
  S  S25  1  0.75000000  0.05669800  0.80068500  1
  S  S26  1  0.25000000  0.34900000  0.14995300  1
  S  S27  1  0.75000000  0.15100000  0.64995300  1
  S  S28  1  0.25000000  0.55075300  0.06320500  1
  S  S29  1  0.75000000  0.56951500  0.43759600  1
  S  S30  1  0.75000000  0.03130100  0.31650200  1
  S  S31  1  0.75000000  0.29551100  0.00767700  1
  S  S32  1  0.75000000  0.67706500  0.32487100  1
  S  S33  1  0.25000000  0.84900000  0.35004700  1
  S  S34  1  0.25000000  0.96869900  0.68349800  1
  S  S35  1  0.25000000  0.16009400  0.93821200  1
loop_
_geom_bond_atom_site_label_1
_geom_bond_atom_site_label_2
_geom_bond_distance
_geom_bond_site_symmetry_2
La0 S25 2.858650 1_555
La0 S25 2.858650 1_455
La0 S27 2.993434 1_455
La0 S27 2.993434 1_555
La0 S18 3.049279 1_555
La0 S18 3.049279 1_455
La0 S1 3.177031 1_555
La0 S34 3.519991 1_545
La1 S15 2.963110 1_555
La1 S29 2.965965 1_555
La1 S29 2.965965 1_455
La1 S32 2.970535 1_555
La1 S32 2.970535 1_455
La1 S17 2.974087 1_455
La1 S17 2.974087 1_555
La1 S33 2.988496 1_555
La2 S16 2.870348 1_555
La2 S28 2.940041 1_655
La2 S28 2.940041 1_555
La2 S20 2.954292 1_555
La2 S20 2.954292 1_655
La2 S13 2.988654 1_654
La2 S13 2.988654 1_554
La2 S11 3.048751 1_555
La3 S16 2.963110 1_556
La3 S0 2.965965 1_555
La3 S0 2.965965 1_655
La3 S14 2.970535 1_555
La3 S14 2.970535 1_655
La3 S13 2.974087 1_655
La3 S13 2.974087 1_555
La3 S21 2.988496 1_555
La4 S7 2.870348 1_555
La4 S5 2.940041 1_555
La4 S5 2.940041 1_655
La4 S2 2.954292 1_555
La4 S2 2.954292 1_655
La4 S19 2.988654 1_555
La4 S19 2.988654 1_655
La4 S30 3.048751 1_555
La5 S6 2.858650 1_655
La5 S6 2.858650 1_555
La5 S26 2.993434 1_555
La5 S26 2.993434 1_655
La5 S2 3.049279 1_655
La5 S2 3.049279 1_555
La5 S8 3.177031 1_555
La5 S11 3.519991 1_555
La6 S35 2.963110 1_554
La6 S10 2.965965 1_555
La6 S10 2.965965 1_455
La6 S8 2.970535 1_455
La6 S8 2.970535 1_555
La6 S31 2.974087 1_455
La6 S31 2.974087 1_555
La6 S26 2.988496 1_555
La7 S24 2.858650 1_455
La7 S24 2.858650 1_555
La7 S21 2.993434 1_455
La7 S21 2.993434 1_555
La7 S22 3.049279 1_455
La7 S22 3.049279 1_555
La7 S14 3.177031 1_555
La7 S9 3.519991 1_555
La8 S35 2.870348 1_555
La8 S3 2.940041 1_455
La8 S3 2.940041 1_555
La8 S18 2.954292 1_455
La8 S18 2.954292 1_555
La8 S31 2.988654 1_556
La8 S31 2.988654 1_456
La8 S9 3.048751 1_555
La9 S12 2.858650 1_655
La9 S12 2.858650 1_555
La9 S33 2.993434 1_555
La9 S33 2.993434 1_655
La9 S20 3.049279 1_555
La9 S20 3.049279 1_655
La9 S32 3.177031 1_555
La9 S30 3.519991 1_565
La10 S7 2.963110 1_555
La10 S23 2.965965 1_555
La10 S23 2.965965 1_655
La10 S1 2.970535 1_555
La10 S1 2.970535 1_655
La10 S19 2.974087 1_655
La10 S19 2.974087 1_555
La10 S27 2.988496 1_555
La11 S15 2.870348 1_555
La11 S4 2.940041 1_455
La11 S4 2.940041 1_555
La11 S22 2.954292 1_455
La11 S22 2.954292 1_555
La11 S17 2.988654 1_455
La11 S17 2.988654 1_555
La11 S34 3.048751 1_555
S0 Yb11 2.858680 1_556
S0 Yb5 2.894515 1_565
S0 Yb5 2.894515 1_465
S1 Yb6 2.869853 1_555
S1 Yb6 2.869853 1_455
S2 Yb10 2.763060 1_555
S3 Yb2 2.873213 1_555
S3 Yb2 2.873213 1_655
S3 Yb8 3.106875 1_556
S4 Yb3 2.873213 1_565
S4 Yb3 2.873213 1_665
S4 Yb4 3.106875 1_555
S5 Yb4 2.873213 1_445
S5 Yb4 2.873213 1_545
S5 Yb3 3.106875 1_555
S6 Yb7 2.710343 1_555
S6 Yb0 2.741369 1_555
S7 Yb7 2.718922 1_555
S7 Yb7 2.718922 1_655
S8 Yb10 2.869853 1_555
S8 Yb10 2.869853 1_655
S9 Yb2 2.709168 1_555
S9 Yb6 2.751966 1_555
S9 Yb6 2.751966 1_455
S10 Yb5 2.858680 1_554
S10 Yb11 2.894515 1_545
S10 Yb11 2.894515 1_645
S11 Yb8 2.709168 1_555
S11 Yb0 2.751966 1_555
S11 Yb0 2.751966 1_655
S12 Yb11 2.710343 1_555
S12 Yb10 2.741369 1_565
S13 Yb2 2.776310 1_555
S14 Yb1 2.869853 1_455
S14 Yb1 2.869853 1_555
S15 Yb9 2.718922 1_555
S15 Yb9 2.718922 1_455
S16 Yb11 2.718922 1_655
S16 Yb11 2.718922 1_555
S17 Yb4 2.776310 1_555
S18 Yb6 2.763060 1_555
S19 Yb3 2.776310 1_555
S20 Yb0 2.763060 1_555
S21 Yb2 2.849843 1_655
S21 Yb2 2.849843 1_555
S22 Yb1 2.763060 1_555
S23 Yb7 2.858680 1_555
S23 Yb9 2.894515 1_555
S23 Yb9 2.894515 1_455
S24 Yb9 2.710343 1_555
S24 Yb6 2.741369 1_555
S25 Yb5 2.710343 1_555
S25 Yb1 2.741369 1_545
S26 Yb8 2.849843 1_555
S26 Yb8 2.849843 1_455
S27 Yb3 2.849843 1_555
S27 Yb3 2.849843 1_655
S28 Yb8 2.873213 1_455
S28 Yb8 2.873213 1_555
S28 Yb2 3.106875 1_554
S29 Yb9 2.858680 1_555
S29 Yb7 2.894515 1_555
S29 Yb7 2.894515 1_655
S30 Yb4 2.709168 1_545
S30 Yb10 2.751966 1_655
S30 Yb10 2.751966 1_555
S31 Yb8 2.776310 1_555
S32 Yb0 2.869853 1_555
S32 Yb0 2.869853 1_655
S33 Yb4 2.849843 1_555
S33 Yb4 2.849843 1_455
S34 Yb3 2.709168 1_565
S34 Yb1 2.751966 1_555
S34 Yb1 2.751966 1_455
S35 Yb5 2.718922 1_455
S35 Yb5 2.718922 1_555
