# generated using pymatgen
data_NaMgFe(SO4)3
_symmetry_space_group_name_H-M   'P 1'
_cell_length_a   8.95886776
_cell_length_b   8.95886776
_cell_length_c   8.95886779
_cell_angle_alpha   57.51167087
_cell_angle_beta   57.51167087
_cell_angle_gamma   57.51167504
_symmetry_Int_Tables_number   1
_chemical_formula_structural   NaMgFe(SO4)3
_chemical_formula_sum   'Na2 Mg2 Fe2 S6 O24'
_cell_volume   479.34878077
_cell_formula_units_Z   2
loop_
 _symmetry_equiv_pos_site_id
 _symmetry_equiv_pos_as_xyz
  1  'x, y, z'
loop_
 _atom_site_type_symbol
 _atom_site_label
 _atom_site_symmetry_multiplicity
 _atom_site_fract_x
 _atom_site_fract_y
 _atom_site_fract_z
 _atom_site_occupancy
  Na  Na0  1  0.00000000  0.00000000  0.00000000  1
  Na  Na1  1  0.50000000  0.50000000  0.50000000  1
  Mg  Mg0  1  0.14790100  0.14790100  0.14790100  1
  Mg  Mg1  1  0.85209900  0.85209900  0.85209900  1
  Fe  Fe0  1  0.35148100  0.35148100  0.35148100  1
  Fe  Fe1  1  0.64851900  0.64851900  0.64851900  1
  S  S0  1  0.75551700  0.04001500  0.45143800  1
  S  S1  1  0.04001500  0.45143800  0.75551700  1
  S  S2  1  0.45143800  0.75551700  0.04001500  1
  S  S3  1  0.54856200  0.24448300  0.95998500  1
  S  S4  1  0.95998500  0.54856200  0.24448300  1
  S  S5  1  0.24448300  0.95998500  0.54856200  1
  O  O0  1  0.27657900  0.12380100  0.51777600  1
  O  O1  1  0.51777600  0.27657900  0.12380100  1
  O  O2  1  0.91307100  0.06961600  0.27200200  1
  O  O3  1  0.12380100  0.51777600  0.27657900  1
  O  O4  1  0.58147500  0.21379000  0.43652300  1
  O  O5  1  0.79376200  0.00658100  0.60834400  1
  O  O6  1  0.06961600  0.27200200  0.91307100  1
  O  O7  1  0.21379000  0.43652300  0.58147500  1
  O  O8  1  0.43652300  0.58147500  0.21379000  1
  O  O9  1  0.39165600  0.20623800  0.99341900  1
  O  O10  1  0.72799800  0.08692900  0.93038400  1
  O  O11  1  0.00658100  0.60834400  0.79376200  1
  O  O12  1  0.99341900  0.39165600  0.20623800  1
  O  O13  1  0.27200200  0.91307100  0.06961600  1
  O  O14  1  0.60834400  0.79376200  0.00658100  1
  O  O15  1  0.56347700  0.41852500  0.78621000  1
  O  O16  1  0.78621000  0.56347700  0.41852500  1
  O  O17  1  0.93038400  0.72799800  0.08692900  1
  O  O18  1  0.20623800  0.99341900  0.39165600  1
  O  O19  1  0.41852500  0.78621000  0.56347700  1
  O  O20  1  0.87619900  0.48222400  0.72342100  1
  O  O21  1  0.08692900  0.93038400  0.72799800  1
  O  O22  1  0.48222400  0.72342100  0.87619900  1
  O  O23  1  0.72342100  0.87619900  0.48222400  1
loop_
_geom_bond_atom_site_label_1
_geom_bond_atom_site_label_2
_geom_bond_distance
_geom_bond_site_symmetry_2
Na0 O6 2.450676 1_554
Na0 O17 2.450676 1_445
Na0 O2 2.450676 1_455
Na0 O21 2.450676 1_544
Na0 O13 2.450676 1_545
Na0 O10 2.450676 1_454
Na1 O7 2.557504 1_555
Na1 O16 2.557504 1_555
Na1 O8 2.557504 1_555
Na1 O15 2.557504 1_555
Na1 O4 2.557504 1_555
Na1 O19 2.557504 1_555
Mg0 O9 2.039537 1_554
Mg0 O18 2.039537 1_545
Mg0 O12 2.039537 1_455
Mg0 O2 2.094923 1_455
Mg0 O6 2.094923 1_554
Mg0 O13 2.094923 1_545
Mg1 O14 2.039537 1_556
Mg1 O5 2.039537 1_565
Mg1 O11 2.039537 1_655
Mg1 O21 2.094923 1_655
Mg1 O17 2.094923 1_556
Mg1 O10 2.094923 1_565
Fe0 O0 1.990568 1_555
Fe0 O1 1.990569 1_555
Fe0 O3 1.990569 1_555
Fe0 O8 2.072213 1_555
Fe0 O7 2.072213 1_555
Fe0 O4 2.072213 1_555
Fe1 O23 1.990568 1_555
Fe1 O22 1.990569 1_555
Fe1 O20 1.990569 1_555
Fe1 O15 2.072213 1_555
Fe1 O16 2.072213 1_555
Fe1 O19 2.072213 1_555
O0 S5 1.498641 1_545
O1 S3 1.498641 1_554
O2 S0 1.467472 1_555
O3 S4 1.498641 1_455
O4 S0 1.505121 1_555
O5 S0 1.462171 1_555
O6 S1 1.467473 1_555
O7 S1 1.505121 1_555
O8 S2 1.505121 1_555
O9 S3 1.462171 1_555
O10 S3 1.467473 1_555
O11 S1 1.462171 1_555
O12 S4 1.462171 1_555
O13 S2 1.467473 1_555
O14 S2 1.462171 1_555
O15 S3 1.505121 1_555
O16 S4 1.505121 1_555
O17 S4 1.467473 1_555
O18 S5 1.462171 1_555
O19 S5 1.505121 1_555
O20 S1 1.498641 1_655
O21 S5 1.467472 1_555
O22 S2 1.498641 1_556
O23 S0 1.498641 1_565
