# generated using pymatgen
data_Np2Se3
_symmetry_space_group_name_H-M   'P 1'
_cell_length_a   22.49590270
_cell_length_b   8.66260553
_cell_length_c   8.66260507
_cell_angle_alpha   90.00000000
_cell_angle_beta   54.71722859
_cell_angle_gamma   54.71722853
_symmetry_Int_Tables_number   1
_chemical_formula_structural   Np2Se3
_chemical_formula_sum   'Np16 Se24'
_cell_volume   973.74526772
_cell_formula_units_Z   8
loop_
 _symmetry_equiv_pos_site_id
 _symmetry_equiv_pos_as_xyz
  1  'x, y, z'
loop_
 _atom_site_type_symbol
 _atom_site_label
 _atom_site_symmetry_multiplicity
 _atom_site_fract_x
 _atom_site_fract_y
 _atom_site_fract_z
 _atom_site_occupancy
  Np  Np0  1  0.99770757  0.38424347  0.25189255  1
  Np  Np1  1  0.99770757  0.12263383  0.75498475  1
  Np  Np2  1  0.08179347  0.62730929  0.37730929  1
  Np  Np3  1  0.16666700  0.25000000  0.63224376  1
  Np  Np4  1  0.33562543  0.37736617  0.24810745  1
  Np  Np5  1  0.25153953  0.87269071  0.12269071  1
  Np  Np6  1  0.16666700  0.75000000  0.86775624  1
  Np  Np7  1  0.33562543  0.11575653  0.74501525  1
  Np  Np8  1  0.49770757  0.25498475  0.62263383  1
  Np  Np9  1  0.66666700  0.36775624  0.25000000  1
  Np  Np10  1  0.58179347  0.87730929  0.12730929  1
  Np  Np11  1  0.49770757  0.75189255  0.88424347  1
  Np  Np12  1  0.66666700  0.13224376  0.75000000  1
  Np  Np13  1  0.75153953  0.62269071  0.37269071  1
  Np  Np14  1  0.83562543  0.24501525  0.61575653  1
  Np  Np15  1  0.83562543  0.74810745  0.87736617  1
  Se  Se0  1  0.12049324  0.49296686  0.99691929  1
  Se  Se1  1  0.05125160  0.34672765  0.49878887  1
  Se  Se2  1  0.28208140  0.15327235  0.15254466  1
  Se  Se3  1  0.05125160  0.99951656  0.34745534  1
  Se  Se4  1  0.28208140  0.50048344  0.00121113  1
  Se  Se5  1  0.21283976  0.00703314  0.85840002  1
  Se  Se6  1  0.12049324  0.64555242  0.64159998  1
  Se  Se7  1  0.21283976  0.85444758  0.50308071  1
  Se  Se8  1  0.44866600  0.49937265  0.99843550  1
  Se  Se9  1  0.38466800  0.34443250  0.50062735  1
  Se  Se10  1  0.62049324  0.14159998  0.14555242  1
  Se  Se11  1  0.38466800  0.00156450  0.34536966  1
  Se  Se12  1  0.62049324  0.49691929  0.99296686  1
  Se  Se13  1  0.55125160  0.99878887  0.84672765  1
  Se  Se14  1  0.44866600  0.65463034  0.65556750  1
  Se  Se15  1  0.55125160  0.84745534  0.49951656  1
  Se  Se16  1  0.78208140  0.50121113  0.00048344  1
  Se  Se17  1  0.71283976  0.35840002  0.50703314  1
  Se  Se18  1  0.94866600  0.15556750  0.15463034  1
  Se  Se19  1  0.71283976  0.00308071  0.35444758  1
  Se  Se20  1  0.94866600  0.49843550  -0.00062735  1
  Se  Se21  1  0.88466800  0.00062735  0.84443250  1
  Se  Se22  1  0.78208140  0.65254466  0.65327235  1
  Se  Se23  1  0.88466800  0.84536966  0.50156450  1
loop_
_geom_bond_atom_site_label_1
_geom_bond_atom_site_label_2
_geom_bond_distance
_geom_bond_site_symmetry_2
Np0 Se5 2.896917 1_654
Np0 Se20 2.916831 1_555
Np0 Se22 2.917682 1_555
Np0 Se1 2.941881 1_655
Np0 Se23 3.002082 1_555
Np0 Se0 3.058192 1_654
Np0 Se18 3.074014 1_555
Np0 Se3 3.123737 1_645
Np1 Se7 2.896917 1_645
Np1 Se18 2.916838 1_556
Np1 Se16 2.917682 1_556
Np1 Se3 2.941891 1_645
Np1 Se21 3.002073 1_555
Np1 Se6 3.058198 1_645
Np1 Se20 3.074025 1_556
Np1 Se1 3.123734 1_655
Np2 Se0 2.913064 1_554
Np2 Se6 2.913064 1_555
Np2 Se1 2.929343 1_555
Np2 Se3 2.929343 1_555
Np2 Se23 3.033261 1_455
Np2 Se21 3.033273 1_465
Np2 Se2 3.073432 1_555
Np2 Se4 3.073434 1_555
Np3 Se20 2.930240 1_456
Np3 Se11 2.930240 1_555
Np3 Se6 2.935574 1_555
Np3 Se7 2.935583 1_545
Np3 Se0 3.028541 1_555
Np3 Se5 3.028549 1_555
Np3 Se2 3.119925 1_555
Np3 Se1 3.119938 1_555
Np4 Se6 2.896917 1_555
Np4 Se9 2.916847 1_555
Np4 Se13 2.917682 1_544
Np4 Se4 2.941882 1_555
Np4 Se8 3.002089 1_554
Np4 Se7 3.058200 1_555
Np4 Se11 3.074019 1_555
Np4 Se2 3.123729 1_555
Np5 Se5 2.913064 1_564
Np5 Se7 2.913064 1_555
Np5 Se2 2.929343 1_565
Np5 Se4 2.929343 1_555
Np5 Se14 3.033277 1_554
Np5 Se8 3.033279 1_554
Np5 Se1 3.073430 1_565
Np5 Se3 3.073436 1_555
Np6 Se9 2.930240 1_555
Np6 Se18 2.930240 1_466
Np6 Se5 2.935573 1_565
Np6 Se0 2.935587 1_555
Np6 Se7 3.028552 1_555
Np6 Se6 3.028565 1_555
Np6 Se3 3.119920 1_556
Np6 Se4 3.119920 1_556
Np7 Se0 2.896917 1_555
Np7 Se11 2.916827 1_555
Np7 Se15 2.917682 1_545
Np7 Se2 2.941890 1_556
Np7 Se14 3.002079 1_545
Np7 Se5 3.058191 1_555
Np7 Se9 3.074025 1_555
Np7 Se4 3.123741 1_556
Np8 Se19 2.896917 1_555
Np8 Se14 2.916838 1_555
Np8 Se4 2.917682 1_556
Np8 Se15 2.941891 1_545
Np8 Se9 3.002073 1_555
Np8 Se10 3.058198 1_555
Np8 Se8 3.074025 1_555
Np8 Se13 3.123734 1_545
Np9 Se14 2.930240 1_555
Np9 Se21 2.930240 1_554
Np9 Se17 2.935573 1_555
Np9 Se12 2.935587 1_554
Np9 Se19 3.028552 1_555
Np9 Se10 3.028565 1_555
Np9 Se15 3.119920 1_555
Np9 Se16 3.119920 1_555
Np10 Se10 2.913064 1_565
Np10 Se12 2.913064 1_554
Np10 Se13 2.929343 1_554
Np10 Se15 2.929343 1_555
Np10 Se11 3.033261 1_565
Np10 Se9 3.033273 1_565
Np10 Se22 3.073431 1_554
Np10 Se16 3.073434 1_555
Np11 Se17 2.896917 1_555
Np11 Se8 2.916831 1_555
Np11 Se2 2.917682 1_566
Np11 Se13 2.941881 1_555
Np11 Se11 3.002082 1_566
Np11 Se12 3.058192 1_555
Np11 Se14 3.074013 1_555
Np11 Se15 3.123737 1_555
Np12 Se23 2.930240 1_545
Np12 Se8 2.930240 1_555
Np12 Se10 2.935573 1_556
Np12 Se19 2.935582 1_555
Np12 Se12 3.028541 1_555
Np12 Se17 3.028549 1_555
Np12 Se22 3.119926 1_545
Np12 Se13 3.119938 1_545
Np13 Se17 2.913064 1_555
Np13 Se19 2.913064 1_565
Np13 Se22 2.929343 1_555
Np13 Se16 2.929343 1_555
Np13 Se18 3.033277 1_555
Np13 Se20 3.033279 1_555
Np13 Se13 3.073430 1_555
Np13 Se15 3.073436 1_555
Np14 Se12 2.896917 1_555
Np14 Se23 2.916828 1_545
Np14 Se3 2.917682 1_645
Np14 Se22 2.941890 1_555
Np14 Se18 3.002079 1_555
Np14 Se17 3.058191 1_555
Np14 Se21 3.074025 1_555
Np14 Se16 3.123741 1_556
Np15 Se10 2.896917 1_566
Np15 Se21 2.916847 1_565
Np15 Se1 2.917682 1_655
Np15 Se16 2.941882 1_556
Np15 Se20 3.002089 1_556
Np15 Se19 3.058200 1_566
Np15 Se23 3.074019 1_555
Np15 Se22 3.123729 1_555
