# generated using pymatgen
data_Ag8GeTe6
_symmetry_space_group_name_H-M   'P 1'
_cell_length_a   8.15433300
_cell_length_b   8.16653808
_cell_length_c   8.30180402
_cell_angle_alpha   61.76634695
_cell_angle_beta   62.09390552
_cell_angle_gamma   63.61810113
_symmetry_Int_Tables_number   1
_chemical_formula_structural   Ag8GeTe6
_chemical_formula_sum   'Ag8 Ge1 Te6'
_cell_volume   412.40359167
_cell_formula_units_Z   1
loop_
 _symmetry_equiv_pos_site_id
 _symmetry_equiv_pos_as_xyz
  1  'x, y, z'
loop_
 _atom_site_type_symbol
 _atom_site_label
 _atom_site_symmetry_multiplicity
 _atom_site_fract_x
 _atom_site_fract_y
 _atom_site_fract_z
 _atom_site_occupancy
  Ag  Ag0  1  0.12032600  0.79680100  0.77945300  1
  Ag  Ag1  1  0.83029500  0.16410400  0.76448400  1
  Ag  Ag2  1  0.78459400  0.79242700  0.41584800  1
  Ag  Ag3  1  0.69008000  0.33734400  0.05958700  1
  Ag  Ag4  1  0.34901400  0.66578500  0.02410500  1
  Ag  Ag5  1  0.98233300  0.99505200  0.44860300  1
  Ag  Ag6  1  0.43120000  0.99938400  0.97364600  1
  Ag  Ag7  1  0.03325600  0.41278100  0.97229100  1
  Ge  Ge0  1  0.50885900  0.51400100  0.45993800  1
  Te  Te0  1  0.01395300  0.99519000  0.04812600  1
  Te  Te1  1  0.75947000  0.74276500  0.78662400  1
  Te  Te2  1  0.42177000  0.39533200  0.84046400  1
  Te  Te3  1  0.88972600  0.40549800  0.36698000  1
  Te  Te4  1  0.40154100  0.89179000  0.37158600  1
  Te  Te5  1  0.35548200  0.35664600  0.37916800  1
loop_
_geom_bond_atom_site_label_1
_geom_bond_atom_site_label_2
_geom_bond_distance
_geom_bond_site_symmetry_2
Ag0 Ag1 2.867781 1_465
Ag0 Ag4 2.909205 1_556
Ag0 Ag5 2.915148 1_455
Ag0 Te0 2.951513 1_556
Ag0 Ag7 3.011127 1_555
Ag0 Te4 3.025401 1_555
Ag0 Te2 3.078970 1_555
Ag0 Te1 3.134004 1_455
Ag1 Te0 2.842927 1_646
Ag1 Te3 2.864977 1_555
Ag1 Ag3 2.920720 1_556
Ag1 Te2 2.937782 1_555
Ag1 Ag5 3.030006 1_545
Ag2 Te1 2.825533 1_555
Ag2 Te0 2.860831 1_655
Ag2 Ag5 2.935883 1_555
Ag2 Te4 3.014917 1_555
Ag2 Te3 3.060102 1_555
Ag3 Te5 2.783110 1_555
Ag3 Ag7 2.819038 1_654
Ag3 Te0 2.872211 1_645
Ag3 Ag4 2.899278 1_555
Ag3 Te1 3.127830 1_554
Ag3 Te2 3.210911 1_554
Ag4 Te5 2.837508 1_555
Ag4 Te0 2.864784 1_555
Ag4 Ag6 2.885606 1_554
Ag4 Te2 2.954511 1_554
Ag4 Te1 3.163084 1_554
Ag5 Te3 2.888825 1_565
Ag5 Te1 2.916484 1_555
Ag5 Te4 2.950861 1_655
Ag5 Te0 3.211587 1_655
Ag6 Te2 2.856587 1_565
Ag6 Te1 2.858449 1_555
Ag6 Te4 2.904994 1_556
Ag6 Te0 3.173947 1_556
Ag7 Te2 2.784895 1_555
Ag7 Te3 2.897836 1_456
Ag7 Te1 2.926866 1_455
Ag7 Te0 3.225527 1_546
Ge0 Te5 2.587229 1_555
Ge0 Te4 2.623506 1_555
Ge0 Te3 2.642732 1_555
Ge0 Te2 2.652963 1_555
