# generated using pymatgen
data_BaSn2(HO2)2
_symmetry_space_group_name_H-M   'P 1'
_cell_length_a   5.89411700
_cell_length_b   7.30907700
_cell_length_c   7.66501825
_cell_angle_alpha   71.87118746
_cell_angle_beta   90.00000000
_cell_angle_gamma   90.00000000
_symmetry_Int_Tables_number   1
_chemical_formula_structural   BaSn2(HO2)2
_chemical_formula_sum   'Ba2 Sn4 H4 O8'
_cell_volume   313.82125067
_cell_formula_units_Z   2
loop_
 _symmetry_equiv_pos_site_id
 _symmetry_equiv_pos_as_xyz
  1  'x, y, z'
loop_
 _atom_site_type_symbol
 _atom_site_label
 _atom_site_symmetry_multiplicity
 _atom_site_fract_x
 _atom_site_fract_y
 _atom_site_fract_z
 _atom_site_occupancy
  Ba  Ba0  1  0.49421100  0.18934900  0.56823000  1
  Ba  Ba1  1  0.99421100  0.81065100  0.43177000  1
  Sn  Sn0  1  0.50404500  0.65209800  0.85391400  1
  Sn  Sn1  1  0.00404500  0.34790200  0.14608600  1
  Sn  Sn2  1  0.50344600  0.08812400  0.11129800  1
  Sn  Sn3  1  0.00344600  0.91187600  0.88870200  1
  H  H0  1  0.50597200  0.63265000  0.52017300  1
  H  H1  1  0.00597200  0.36735000  0.47982700  1
  H  H2  1  0.50219800  0.70910300  0.21287400  1
  H  H3  1  0.00219800  0.29089700  0.78712600  1
  O  O0  1  0.25007700  0.14082600  0.27717400  1
  O  O1  1  0.75007700  0.85917400  0.72282600  1
  O  O2  1  0.25103000  0.85029800  0.72127300  1
  O  O3  1  0.75103000  0.14970200  0.27872700  1
  O  O4  1  0.52000600  0.52976100  0.64011000  1
  O  O5  1  0.02000600  0.47023900  0.35989000  1
  O  O6  1  0.50901500  0.79318300  0.29089300  1
  O  O7  1  0.00901500  0.20681700  0.70910700  1
loop_
_geom_bond_atom_site_label_1
_geom_bond_atom_site_label_2
_geom_bond_distance
_geom_bond_site_symmetry_2
Ba0 O4 2.714847 1_555
Ba0 O0 2.768735 1_555
Ba0 O3 2.774826 1_555
Ba0 O1 2.779001 1_545
Ba0 O2 2.786163 1_545
Ba1 O5 2.714847 1_655
Ba1 O1 2.768735 1_555
Ba1 O2 2.774826 1_655
Ba1 O0 2.779001 1_665
Ba1 O3 2.786163 1_565
H0 O4 0.993628 1_555
H1 O5 0.993628 1_555
H2 O6 0.982655 1_555
H3 O7 0.982655 1_555
O0 Sn2 2.073628 1_555
O0 Sn1 2.111138 1_555
O1 Sn3 2.073628 1_655
O1 Sn0 2.111138 1_555
O2 Sn3 2.082912 1_555
O2 Sn0 2.107058 1_555
O3 Sn2 2.082912 1_555
O3 Sn1 2.107058 1_655
O4 Sn0 2.099050 1_555
O5 Sn1 2.099050 1_555
O6 Sn2 2.167160 1_565
O7 Sn3 2.167160 1_545
