# generated using pymatgen
data_ReC4IO4
_symmetry_space_group_name_H-M   'P 1'
_cell_length_a   12.38941500
_cell_length_b   10.18446500
_cell_length_c   13.27742918
_cell_angle_alpha   72.17634814
_cell_angle_beta   90.00000000
_cell_angle_gamma   90.00000000
_symmetry_Int_Tables_number   1
_chemical_formula_structural   ReC4IO4
_chemical_formula_sum   'Re8 C32 I8 O32'
_cell_volume   1594.92911351
_cell_formula_units_Z   8
loop_
 _symmetry_equiv_pos_site_id
 _symmetry_equiv_pos_as_xyz
  1  'x, y, z'
loop_
 _atom_site_type_symbol
 _atom_site_label
 _atom_site_symmetry_multiplicity
 _atom_site_fract_x
 _atom_site_fract_y
 _atom_site_fract_z
 _atom_site_occupancy
  Re  Re0  1  0.12828100  0.60992700  0.68343800  1
  Re  Re1  1  0.86959300  0.83532900  0.21017400  1
  Re  Re2  1  0.13040700  0.16467100  0.78982600  1
  Re  Re3  1  0.87171900  0.39007300  0.31656200  1
  Re  Re4  1  0.62828100  0.39007300  0.81656200  1
  Re  Re5  1  0.37171900  0.60992700  0.18343800  1
  Re  Re6  1  0.63040700  0.83532900  0.71017400  1
  Re  Re7  1  0.36959300  0.16467100  0.28982600  1
  C  C0  1  0.96427300  0.39793400  0.19058400  1
  C  C1  1  0.78373100  0.24936600  0.28963900  1
  C  C2  1  0.78136300  0.97377500  0.11345300  1
  C  C3  1  0.53572700  0.39793400  0.69058400  1
  C  C4  1  0.46275300  0.74904200  0.09038100  1
  C  C5  1  0.72425000  0.39254100  0.93734200  1
  C  C6  1  0.53962300  0.97277700  0.73948300  1
  C  C7  1  0.27575000  0.60745900  0.06265800  1
  C  C8  1  0.28136300  0.02622500  0.38654700  1
  C  C9  1  0.46037700  0.02722300  0.26051700  1
  C  C10  1  0.71863700  0.97377500  0.61345300  1
  C  C11  1  0.28373100  0.75063400  0.21036100  1
  C  C12  1  0.03572700  0.60206600  0.80941600  1
  C  C13  1  0.77318900  0.83352300  0.33198400  1
  C  C14  1  0.22425000  0.60745900  0.56265800  1
  C  C15  1  0.96636400  0.82259600  0.09252100  1
  C  C16  1  0.72681100  0.83352300  0.83198400  1
  C  C17  1  0.77575000  0.39254100  0.43734200  1
  C  C18  1  0.21626900  0.75063400  0.71036100  1
  C  C19  1  0.71626900  0.24936600  0.78963900  1
  C  C20  1  0.46636400  0.17740400  0.40747900  1
  C  C21  1  0.03363600  0.17740400  0.90747900  1
  C  C22  1  0.03724700  0.74904200  0.59038100  1
  C  C23  1  0.21863700  0.02622500  0.88654700  1
  C  C24  1  0.03962300  0.02722300  0.76051700  1
  C  C25  1  0.96275300  0.25095800  0.40961900  1
  C  C26  1  0.96037700  0.97277700  0.23948300  1
  C  C27  1  0.53363600  0.82259600  0.59252100  1
  C  C28  1  0.27318900  0.16647700  0.16801600  1
  C  C29  1  0.53724700  0.25095800  0.90961900  1
  C  C30  1  0.46427300  0.60206600  0.30941600  1
  C  C31  1  0.22681100  0.16647700  0.66801600  1
  I  I0  1  0.00849300  0.38493400  0.65074700  1
  I  I1  1  0.25323600  0.38812500  0.81993600  1
  I  I2  1  0.74676400  0.61187500  0.18006400  1
  I  I3  1  0.99150700  0.61506600  0.34925300  1
  I  I4  1  0.24676400  0.38812500  0.31993600  1
  I  I5  1  0.50849300  0.61506600  0.84925300  1
  I  I6  1  0.49150700  0.38493400  0.15074700  1
  I  I7  1  0.75323600  0.61187500  0.68006400  1
  O  O0  1  0.72890000  0.05761100  0.05416400  1
  O  O1  1  0.77999900  0.38968700  0.00798700  1
  O  O2  1  0.01668500  0.16561800  0.46571600  1
  O  O3  1  0.77024800  0.16353200  0.77433700  1
  O  O4  1  0.98455400  0.94458800  0.74190700  1
  O  O5  1  0.27024800  0.83646800  0.72566300  1
  O  O6  1  0.01437200  0.40171300  0.11619100  1
  O  O7  1  0.27999900  0.61031300  0.49201300  1
  O  O8  1  0.51668500  0.83438200  0.03428400  1
  O  O9  1  0.72000100  0.38968700  0.50798700  1
  O  O10  1  0.48331500  0.16561800  0.96571600  1
  O  O11  1  0.27110000  0.94238900  0.94583600  1
  O  O12  1  0.28170500  0.16740800  0.59708400  1
  O  O13  1  0.21829500  0.16740800  0.09708400  1
  O  O14  1  0.47715200  0.81704100  0.52452100  1
  O  O15  1  0.78170500  0.83259200  0.90291600  1
  O  O16  1  0.22890000  0.94238900  0.44583600  1
  O  O17  1  0.48562800  0.40171300  0.61619100  1
  O  O18  1  0.72975200  0.16353200  0.27433700  1
  O  O19  1  0.51544600  0.94458800  0.24190700  1
  O  O20  1  0.22975200  0.83646800  0.22566300  1
  O  O21  1  0.02284800  0.81704100  0.02452100  1
  O  O22  1  0.71829500  0.83259200  0.40291600  1
  O  O23  1  0.22000100  0.61031300  0.99201300  1
  O  O24  1  0.98562800  0.59828700  0.88380900  1
  O  O25  1  0.01544600  0.05541200  0.25809300  1
  O  O26  1  0.51437200  0.59828700  0.38380900  1
  O  O27  1  0.97715200  0.18295900  0.97547900  1
  O  O28  1  0.98331500  0.83438200  0.53428400  1
  O  O29  1  0.48455400  0.05541200  0.75809300  1
  O  O30  1  0.52284800  0.18295900  0.47547900  1
  O  O31  1  0.77110000  0.05761100  0.55416400  1
loop_
_geom_bond_atom_site_label_1
_geom_bond_atom_site_label_2
_geom_bond_distance
_geom_bond_site_symmetry_2
C0 O6 1.157203 1_655
C0 Re3 2.009262 1_555
C1 O18 1.166806 1_555
C1 Re3 1.919193 1_555
C2 O0 1.166073 1_565
C2 Re1 1.929690 1_555
C3 O17 1.157203 1_555
C3 Re4 2.009262 1_555
C4 O8 1.166339 1_555
C4 Re5 1.932453 1_555
C5 O1 1.158029 1_556
C5 Re4 2.002677 1_555
C6 O29 1.167105 1_565
C6 Re6 1.926016 1_555
C7 O23 1.158029 1_554
C7 Re5 2.002677 1_555
C8 O16 1.166073 1_545
C8 Re7 1.929690 1_555
C9 O19 1.167105 1_545
C9 Re7 1.926016 1_555
C10 O31 1.166073 1_565
C10 Re6 1.929690 1_555
C11 O20 1.166806 1_555
C11 Re5 1.919193 1_555
C12 O24 1.157203 1_455
C12 Re0 2.009262 1_555
C13 O22 1.159372 1_555
C13 Re1 2.006098 1_555
C14 O7 1.158029 1_555
C14 Re0 2.002677 1_555
C15 O21 1.157308 1_655
C15 Re1 2.004626 1_555
C16 O15 1.159372 1_555
C16 Re6 2.006098 1_555
C17 O9 1.158029 1_555
C17 Re3 2.002677 1_555
C18 O5 1.166806 1_555
C18 Re0 1.919193 1_555
C19 O3 1.166806 1_555
C19 Re4 1.919193 1_555
C20 O30 1.157308 1_555
C20 Re7 2.004626 1_555
C21 O27 1.157308 1_455
C21 Re2 2.004626 1_555
C22 O28 1.166339 1_455
C22 Re0 1.932453 1_555
C23 O11 1.166073 1_545
C23 Re2 1.929690 1_555
C24 O4 1.167105 1_445
C24 Re2 1.926016 1_555
C25 O2 1.166339 1_655
C25 Re3 1.932453 1_555
C26 O25 1.167105 1_665
C26 Re1 1.926016 1_555
C27 O14 1.157308 1_555
C27 Re6 2.004626 1_555
C28 O13 1.159372 1_555
C28 Re7 2.006098 1_555
C29 O10 1.166339 1_555
C29 Re4 1.932453 1_555
C30 O26 1.157203 1_555
C30 Re5 2.009262 1_555
C31 O12 1.159372 1_555
C31 Re2 2.006098 1_555
I0 Re2 2.861421 1_555
I0 Re0 2.872369 1_555
I1 Re2 2.865604 1_555
I1 Re0 2.877119 1_555
I2 Re1 2.865604 1_555
I2 Re3 2.877119 1_555
I3 Re1 2.861421 1_555
I3 Re3 2.872369 1_555
I4 Re7 2.865604 1_555
I4 Re5 2.877119 1_555
I5 Re6 2.861421 1_555
I5 Re4 2.872369 1_555
I6 Re7 2.861421 1_555
I6 Re5 2.872369 1_555
I7 Re6 2.865604 1_555
I7 Re4 2.877119 1_555
