# generated using pymatgen
data_Sc2H10S3O17
_symmetry_space_group_name_H-M   'P 1'
_cell_length_a   6.79736400
_cell_length_b   11.23958117
_cell_length_c   12.40332531
_cell_angle_alpha   91.82327986
_cell_angle_beta   94.85910005
_cell_angle_gamma   101.03964054
_symmetry_Int_Tables_number   1
_chemical_formula_structural   Sc2H10S3O17
_chemical_formula_sum   'Sc4 H20 S6 O34'
_cell_volume   925.61130504
_cell_formula_units_Z   2
loop_
 _symmetry_equiv_pos_site_id
 _symmetry_equiv_pos_as_xyz
  1  'x, y, z'
loop_
 _atom_site_type_symbol
 _atom_site_label
 _atom_site_symmetry_multiplicity
 _atom_site_fract_x
 _atom_site_fract_y
 _atom_site_fract_z
 _atom_site_occupancy
  Sc  Sc0  1  0.41350800  0.23489700  0.76108000  1
  Sc  Sc1  1  0.00000000  0.50000000  0.00000000  1
  Sc  Sc2  1  0.58649200  0.76510300  0.23892000  1
  Sc  Sc3  1  0.00000000  0.50000000  0.50000000  1
  H  H0  1  0.59540500  0.90617300  0.97930300  1
  H  H1  1  0.82338300  0.26331600  0.47919300  1
  H  H2  1  0.76997600  0.13449000  0.79538900  1
  H  H3  1  0.71996900  0.63588100  0.67722000  1
  H  H4  1  0.78601200  0.04767900  0.27749900  1
  H  H5  1  0.37408300  0.93492400  0.12284900  1
  H  H6  1  0.35302700  0.45791300  0.78329400  1
  H  H7  1  0.64697300  0.54208700  0.21670600  1
  H  H8  1  0.71243000  0.38056300  0.07861000  1
  H  H9  1  0.45481000  0.65826500  0.62196300  1
  H  H10  1  0.20353000  0.61397600  0.87581800  1
  H  H11  1  0.62591700  0.06507600  0.87715100  1
  H  H12  1  0.28757000  0.61943700  0.92139000  1
  H  H13  1  0.54519000  0.34173500  0.37803700  1
  H  H14  1  0.17661700  0.73668400  0.52080700  1
  H  H15  1  0.28003100  0.36411900  0.32278000  1
  H  H16  1  0.21398800  0.95232100  0.72250100  1
  H  H17  1  0.23002400  0.86551000  0.20461100  1
  H  H18  1  0.40459500  0.09382700  0.02069700  1
  H  H19  1  0.79647000  0.38602400  0.12418200  1
  S  S0  1  0.15825600  0.23502500  0.96838000  1
  S  S1  1  0.18557900  0.24884800  0.50547800  1
  S  S2  1  0.79500300  0.46741000  0.73167900  1
  S  S3  1  0.81442100  0.75115200  0.49452200  1
  S  S4  1  0.84174400  0.76497500  0.03162000  1
  S  S5  1  0.20499700  0.53259000  0.26832100  1
  O  O0  1  0.39626900  0.00305500  0.01056700  1
  O  O1  1  0.02238600  0.81958400  0.51477000  1
  O  O2  1  0.97700000  0.17153000  0.01013400  1
  O  O3  1  0.17403800  0.18360600  0.85408300  1
  O  O4  1  0.28741200  0.20294000  0.60371700  1
  O  O5  1  0.13594800  0.36800000  0.95749000  1
  O  O6  1  0.58098400  0.60583800  0.18921700  1
  O  O7  1  0.30063300  0.65642000  0.30331900  1
  O  O8  1  0.81470000  0.61855800  0.46682100  1
  O  O9  1  0.30898500  0.64419200  0.62943500  1
  O  O10  1  0.62934000  0.11872000  0.81188000  1
  O  O11  1  0.84925800  0.48047900  0.84901200  1
  O  O12  1  0.41901600  0.39416200  0.81078300  1
  O  O13  1  0.97103800  0.51165900  0.67186000  1
  O  O14  1  0.34926200  0.44223700  0.29285600  1
  O  O15  1  0.34971200  0.23466600  0.03350900  1
  O  O16  1  0.86405200  0.63200000  0.04251000  1
  O  O17  1  0.15074200  0.51952100  0.15098800  1
  O  O18  1  0.69101500  0.35580800  0.37056500  1
  O  O19  1  0.76213400  0.34078800  0.48314000  1
  O  O20  1  0.65028800  0.76533400  0.96649100  1
  O  O21  1  0.69640900  0.75510900  0.58841100  1
  O  O22  1  0.02896200  0.48834100  0.32814000  1
  O  O23  1  0.02300000  0.82847000  0.98986600  1
  O  O24  1  0.23786600  0.65921200  0.51686000  1
  O  O25  1  0.71258800  0.79706000  0.39628300  1
  O  O26  1  0.69936700  0.34358000  0.69668100  1
  O  O27  1  0.65073800  0.55776300  0.70714400  1
  O  O28  1  0.82596200  0.81639400  0.14591700  1
  O  O29  1  0.60373100  0.99694500  0.98943300  1
  O  O30  1  0.18530000  0.38144200  0.53317900  1
  O  O31  1  0.30359100  0.24489100  0.41158900  1
  O  O32  1  0.37066000  0.88128000  0.18812000  1
  O  O33  1  0.97761400  0.18041600  0.48523000  1
loop_
_geom_bond_atom_site_label_1
_geom_bond_atom_site_label_2
_geom_bond_distance
_geom_bond_site_symmetry_2
H0 O29 1.014102 1_555
H1 O19 1.036107 1_555
H1 O33 1.529083 1_555
H2 O10 0.978593 1_555
H3 O27 1.011042 1_555
H5 O32 1.023899 1_555
H5 O0 1.614894 1_565
H6 O12 0.971389 1_555
H7 O6 0.971389 1_555
H9 O9 0.986198 1_555
H10 H12 0.761090 1_555
H10 Sc1 2.394849 1_556
H11 O10 1.023899 1_555
H11 O29 1.614894 1_545
H13 O18 0.986198 1_555
H14 O24 1.036107 1_555
H14 O1 1.529083 1_555
H15 O14 1.011042 1_555
H17 O32 0.978593 1_555
H18 O0 1.014102 1_555
H19 H8 0.761090 1_555
H19 Sc1 2.394849 1_655
O1 S3 1.471097 1_455
O2 S0 1.445811 1_654
O3 S0 1.533835 1_555
O3 Sc0 2.076937 1_555
O4 S1 1.504660 1_555
O4 Sc0 2.056053 1_555
O5 S0 1.539866 1_555
O5 Sc1 1.972540 1_556
O6 Sc2 1.867086 1_555
O7 S5 1.454432 1_555
O7 Sc2 2.306903 1_555
O8 S3 1.519099 1_555
O8 Sc3 2.030115 1_655
O10 Sc0 2.209942 1_555
O11 S2 1.466378 1_555
O11 Sc1 2.041548 1_656
O12 Sc0 1.867086 1_555
O13 S2 1.474994 1_555
O13 Sc3 2.159397 1_655
O14 S5 1.560777 1_555
O15 S0 1.473205 1_554
O16 S4 1.539866 1_555
O16 Sc1 1.972540 1_655
O17 S5 1.466378 1_555
O17 Sc1 2.041548 1_555
O19 Sc3 2.161256 1_655
O20 S4 1.473205 1_556
O21 S3 1.473168 1_555
O22 S5 1.474994 1_555
O22 Sc3 2.159397 1_555
O23 S4 1.445811 1_456
O24 Sc3 2.161256 1_555
O25 S3 1.504660 1_555
O25 Sc2 2.056053 1_555
O26 S2 1.454432 1_555
O26 Sc0 2.306903 1_555
O27 S2 1.560777 1_555
O28 S4 1.533835 1_555
O28 Sc2 2.076937 1_555
O30 S1 1.519099 1_555
O30 Sc3 2.030115 1_555
O31 S1 1.473168 1_555
O32 Sc2 2.209942 1_555
O33 S1 1.471097 1_655
