# generated using pymatgen
data_SN
_symmetry_space_group_name_H-M   'P 1'
_cell_length_a   4.97866500
_cell_length_b   5.29219600
_cell_length_c   27.66821209
_cell_angle_alpha   89.46369014
_cell_angle_beta   90.00000000
_cell_angle_gamma   90.00000000
_symmetry_Int_Tables_number   1
_chemical_formula_structural   SN
_chemical_formula_sum   'S18 N18'
_cell_volume   728.97208031
_cell_formula_units_Z   18
loop_
 _symmetry_equiv_pos_site_id
 _symmetry_equiv_pos_as_xyz
  1  'x, y, z'
loop_
 _atom_site_type_symbol
 _atom_site_label
 _atom_site_symmetry_multiplicity
 _atom_site_fract_x
 _atom_site_fract_y
 _atom_site_fract_z
 _atom_site_occupancy
  S  S0  1  0.52587900  0.56465000  0.88347300  1
  S  S1  1  0.08598500  0.50108900  0.66623600  1
  S  S2  1  0.56553900  0.40833700  0.72516900  1
  S  S3  1  0.10994500  0.91913600  0.02570500  1
  S  S4  1  0.18646800  0.65498000  0.50501200  1
  S  S5  1  0.68646800  0.34502000  0.49498800  1
  S  S6  1  0.29428500  0.02294000  0.79629500  1
  S  S7  1  0.76891500  0.88853000  0.85364800  1
  S  S8  1  0.06553900  0.59166300  0.27483100  1
  S  S9  1  0.58598400  0.49891100  0.33376400  1
  S  S10  1  0.34153600  0.96843400  0.58656300  1
  S  S11  1  0.93509800  0.05975200  0.60744000  1
  S  S12  1  0.02587900  0.43535000  0.11652700  1
  S  S13  1  0.43509800  0.94024800  0.39256000  1
  S  S14  1  0.84153600  0.03156600  0.41343700  1
  S  S15  1  0.26891500  0.11147000  0.14635200  1
  S  S16  1  0.79428500  0.97706000  0.20370500  1
  S  S17  1  0.60994500  0.08086400  0.97429500  1
  N  N0  1  0.23422100  0.60861600  0.87818800  1
  N  N1  1  0.52303600  0.64316100  0.76061700  1
  N  N2  1  0.35298000  0.35607500  0.68251100  1
  N  N3  1  0.92929700  0.46962100  0.52399500  1
  N  N4  1  0.29627600  0.05425300  0.98516300  1
  N  N5  1  0.42929700  0.53037900  0.47600500  1
  N  N6  1  0.52715600  0.06845400  0.83390200  1
  N  N7  1  0.85298000  0.64392500  0.31748900  1
  N  N8  1  0.31522200  0.79139000  0.75704700  1
  N  N9  1  0.02303600  0.35683900  0.23938300  1
  N  N10  1  0.91153500  0.33271900  0.63150600  1
  N  N11  1  0.73422100  0.39138400  0.12181200  1
  N  N12  1  0.32517800  0.70125100  0.56122200  1
  N  N13  1  0.82517800  0.29874900  0.43877800  1
  N  N14  1  0.41153500  0.66728100  0.36849400  1
  N  N15  1  0.81522200  0.20861000  0.24295300  1
  N  N16  1  0.02715600  0.93154600  0.16609800  1
  N  N17  1  0.79627600  0.94574700  0.01483700  1
loop_
_geom_bond_atom_site_label_1
_geom_bond_atom_site_label_2
_geom_bond_distance
_geom_bond_site_symmetry_2
N0 S0 1.477628 1_555
N1 N8 1.301596 1_555
N1 S2 1.604344 1_555
N2 S1 1.597576 1_555
N2 S2 1.611074 1_555
N3 S5 1.597012 1_555
N3 S4 1.693468 1_655
N4 S17 1.596314 1_555
N4 S3 1.617145 1_546
N5 S4 1.597012 1_555
N5 S5 1.693468 1_555
N6 S6 1.577836 1_555
N6 S7 1.626087 1_545
N7 S9 1.597581 1_555
N7 S8 1.611074 1_655
N8 S6 1.648220 1_565
N9 S8 1.604344 1_555
N10 S1 1.577243 1_655
N10 S11 1.600624 1_555
N11 S12 1.477628 1_655
N12 S10 1.586235 1_555
N12 S4 1.721264 1_555
N13 S14 1.586235 1_555
N13 S5 1.721264 1_555
N14 S9 1.577241 1_555
N14 S13 1.600624 1_555
N15 N9 1.301596 1_655
N15 S16 1.648220 1_545
N16 S16 1.577836 1_455
N16 S15 1.626087 1_565
N17 S3 1.596314 1_655
N17 S17 1.617145 1_564
