# generated using pymatgen
data_Na16Be8H15
_symmetry_space_group_name_H-M   'P 1'
_cell_length_a   10.13611623
_cell_length_b   8.35055733
_cell_length_c   27.51651956
_cell_angle_alpha   90.00876542
_cell_angle_beta   91.05546499
_cell_angle_gamma   55.49317917
_symmetry_Int_Tables_number   1
_chemical_formula_structural   Na16Be8H15
_chemical_formula_sum   'Na48 Be24 H45'
_cell_volume   1918.80662264
_cell_formula_units_Z   3
loop_
 _symmetry_equiv_pos_site_id
 _symmetry_equiv_pos_as_xyz
  1  'x, y, z'
loop_
 _atom_site_type_symbol
 _atom_site_label
 _atom_site_symmetry_multiplicity
 _atom_site_fract_x
 _atom_site_fract_y
 _atom_site_fract_z
 _atom_site_occupancy
  Na  Na0  1  0.02960773  0.19379987  0.14142761  1
  Na  Na1  1  0.00982482  0.21905954  0.47527019  1
  Na  Na2  1  0.01247252  0.21448015  0.81122094  1
  Na  Na3  1  0.38173329  0.99854834  0.07298042  1
  Na  Na4  1  0.36048539  0.00224509  0.40532863  1
  Na  Na5  1  0.23434138  0.29313723  0.63985518  1
  Na  Na6  1  0.12800988  0.49667563  0.09267415  1
  Na  Na7  1  0.23305169  0.29954438  0.30799616  1
  Na  Na8  1  0.36199404  0.00247423  0.73740548  1
  Na  Na9  1  0.23677599  0.27653812  0.97191266  1
  Na  Na10  1  0.11513272  0.49880265  0.42684767  1
  Na  Na11  1  0.11646139  0.49728447  0.75916039  1
  Na  Na12  1  0.53505937  0.18554648  0.47437628  1
  Na  Na13  1  0.51252363  0.21605412  0.14364111  1
  Na  Na14  1  0.37379527  0.50668521  0.23933308  1
  Na  Na15  1  0.25618218  0.72372963  0.02667541  1
  Na  Na16  1  0.27079353  0.70117389  0.36148581  1
  Na  Na17  1  0.12563882  0.00083517  0.26524886  1
  Na  Na18  1  0.12343837  0.00019111  0.59420958  1
  Na  Na19  1  0.52804468  0.19491519  0.80615654  1
  Na  Na20  1  0.37617869  0.49724908  0.57207733  1
  Na  Na21  1  0.37171275  0.50051161  0.90412451  1
  Na  Na22  1  0.26988726  0.70428443  0.69314503  1
  Na  Na23  1  0.12662412  0.99603847  0.92599866  1
  Na  Na24  1  0.47846311  0.78670598  0.19284933  1
  Na  Na25  1  0.47714378  0.78788044  0.52518998  1
  Na  Na26  1  0.47603942  0.78755631  0.85717803  1
  Na  Na27  1  0.86259172  0.00231561  0.07179976  1
  Na  Na28  1  0.88364783  0.99715906  0.40543046  1
  Na  Na29  1  0.88161716  0.99725954  0.74020998  1
  Na  Na30  1  0.73723026  0.27690443  0.30506035  1
  Na  Na31  1  0.72888040  0.28632914  0.64337405  1
  Na  Na32  1  0.61646456  0.49746602  0.09381522  1
  Na  Na33  1  0.62842080  0.49704698  0.42646686  1
  Na  Na34  1  0.62672942  0.49735584  0.76031041  1
  Na  Na35  1  0.73232851  0.29850197  0.97402917  1
  Na  Na36  1  0.87140283  0.50063477  0.23822690  1
  Na  Na37  1  0.87217272  0.50344848  0.57165262  1
  Na  Na38  1  0.87311152  0.50668989  0.90598264  1
  Na  Na39  1  0.77014429  0.70252276  0.02768612  1
  Na  Na40  1  0.75516908  0.72488920  0.35983628  1
  Na  Na41  1  0.75558258  0.72466135  0.69474665  1
  Na  Na42  1  0.62659417  0.99671897  0.25919249  1
  Na  Na43  1  0.62619849  0.99851603  0.59672179  1
  Na  Na44  1  0.62602749  0.00013330  0.93098245  1
  Na  Na45  1  0.97646959  0.78683520  0.19083194  1
  Na  Na46  1  0.98122277  0.78303043  0.52597396  1
  Na  Na47  1  0.98013596  0.78488484  0.85893562  1
  Be  Be0  1  0.01748587  0.25186132  0.03087926  1
  Be  Be1  1  0.00386093  0.26247530  0.36136210  1
  Be  Be2  1  0.00713515  0.26106077  0.69638694  1
  Be  Be3  1  0.25995919  0.25006212  0.19832274  1
  Be  Be4  1  0.24902926  0.25536570  0.52474427  1
  Be  Be5  1  0.24933927  0.25543977  0.85960569  1
  Be  Be6  1  0.50363071  0.26086959  0.02776435  1
  Be  Be7  1  0.51921785  0.25169725  0.36490876  1
  Be  Be8  1  0.51019610  0.24831414  0.69586088  1
  Be  Be9  1  0.24509675  0.73562373  0.13800549  1
  Be  Be10  1  0.23582501  0.75392392  0.46998427  1
  Be  Be11  1  0.23823594  0.75131460  0.80227423  1
  Be  Be12  1  0.76484992  0.24583197  0.53284059  1
  Be  Be13  1  0.75698757  0.24873637  0.86423794  1
  Be  Be14  1  0.49565646  0.73736202  0.63651776  1
  Be  Be15  1  0.75245458  0.25429928  0.19304565  1
  Be  Be16  1  0.49835920  0.72655213  0.30450580  1
  Be  Be17  1  0.48185297  0.76232169  0.97120819  1
  Be  Be18  1  0.73596113  0.75167756  0.13607252  1
  Be  Be19  1  0.75089229  0.72760180  0.47094650  1
  Be  Be20  1  0.74645254  0.73594339  0.80524635  1
  Be  Be21  1  0.98211887  0.76127350  0.30470945  1
  Be  Be22  1  0.98364436  0.75723468  0.63834879  1
  Be  Be23  1  0.99804053  0.72740595  0.97062045  1
  H  H0  1  0.11772438  0.24043440  0.06861285  1
  H  H1  1  0.13997592  0.23559577  0.21961963  1
  H  H2  1  0.14480992  0.24642903  0.55673598  1
  H  H3  1  0.14048492  0.24219949  0.88765936  1
  H  H4  1  0.37779701  0.27874200  0.05517017  1
  H  H5  1  0.37219897  0.29065914  0.38199947  1
  H  H6  1  0.12175991  0.78037742  0.10394570  1
  H  H7  1  0.13570473  0.75414792  0.43358272  1
  H  H8  1  0.37280813  0.28376340  0.71955321  1
  H  H9  1  0.13744283  0.75167702  0.76600744  1
  H  H10  1  0.36565689  0.24138590  0.23441763  1
  H  H11  1  0.13716497  0.69973296  0.28912107  1
  H  H12  1  0.39483351  0.20579920  0.54685973  1
  H  H13  1  0.38386392  0.22113573  0.88643101  1
  H  H14  1  0.13123380  0.71266686  0.61995970  1
  H  H15  1  0.12995750  0.71652722  0.94959891  1
  H  H16  1  0.61948935  0.23843985  0.40298512  1
  H  H17  1  0.61794840  0.24608699  0.72948304  1
  H  H18  1  0.64137625  0.24196920  0.22020012  1
  H  H19  1  0.38434739  0.75651547  0.26886273  1
  H  H20  1  0.38288861  0.75659264  0.60175868  1
  H  H21  1  0.39411238  0.73726451  0.93528619  1
  H  H22  1  0.64206531  0.22809292  0.54973297  1
  H  H23  1  0.63859744  0.23660315  0.88743744  1
  H  H24  1  0.35049459  0.78044985  0.11967986  1
  H  H25  1  0.36903106  0.74226352  0.45034583  1
  H  H26  1  0.36746460  0.74547573  0.78124459  1
  H  H27  1  0.61508205  0.78999243  0.44049065  1
  H  H28  1  0.87034125  0.29253145  0.04810237  1
  H  H29  1  0.88063350  0.27701288  0.38947950  1
  H  H30  1  0.87027040  0.28373316  0.71808952  1
  H  H31  1  0.63703159  0.75164423  0.09920253  1
  H  H32  1  0.62093089  0.78167819  0.77191590  1
  H  H33  1  0.88347855  0.22230655  0.22144572  1
  H  H34  1  0.85987835  0.24399435  0.57178217  1
  H  H35  1  0.86654978  0.23913781  0.89908113  1
  H  H36  1  0.63033655  0.71497384  0.61406903  1
  H  H37  1  0.63011867  0.71591594  0.28346970  1
  H  H38  1  0.63686977  0.70102331  0.95575798  1
  H  H39  1  0.89248105  0.73831375  0.60227605  1
  H  H40  1  0.88457066  0.75616858  0.93503000  1
  H  H41  1  0.89386761  0.73725440  0.26869787  1
  H  H42  1  0.86705610  0.74455553  0.11603348  1
  H  H43  1  0.84474815  0.79112979  0.45345417  1
  H  H44  1  0.85228395  0.77700533  0.78539635  1
loop_
_geom_bond_atom_site_label_1
_geom_bond_atom_site_label_2
_geom_bond_distance
_geom_bond_site_symmetry_2
Be0 H0 1.403852 1_555
Be0 H28 1.420044 1_455
Be0 Na9 2.875359 1_554
Be1 H29 1.427317 1_455
Be1 Na30 3.032412 1_455
Be2 H30 1.431750 1_455
Be2 Na5 2.937054 1_555
Be3 H10 1.418592 1_555
Be3 H1 1.424710 1_555
Be4 H12 1.414096 1_555
Be4 H2 1.421279 1_555
Be5 H3 1.412494 1_555
Be5 H13 1.416554 1_555
Be6 H4 1.427409 1_555
Be6 Na9 3.023453 1_554
Be7 H16 1.405812 1_555
Be7 H5 1.422728 1_555
Be7 Na30 2.881098 1_555
Be8 H17 1.410291 1_555
Be8 H8 1.420650 1_555
Be9 H6 1.417218 1_555
Be9 H24 1.417288 1_555
Be10 H7 1.411941 1_555
Be10 H25 1.415069 1_555
Be11 H9 1.413716 1_555
Be11 H26 1.417236 1_555
Be12 H22 1.420260 1_555
Be12 H34 1.421778 1_555
Be13 H35 1.420875 1_555
Be13 H23 1.422610 1_555
Be14 H20 1.413824 1_555
Be14 H36 1.421962 1_555
Be15 H18 1.413833 1_555
Be15 H33 1.416221 1_555
Be16 H19 1.410931 1_555
Be16 H37 1.421496 1_555
Be16 Na30 3.107951 1_555
Be17 H21 1.410725 1_555
Be17 H38 1.422994 1_555
Be18 H31 1.413381 1_555
Be18 H42 1.417999 1_555
Be19 H43 1.416647 1_555
Be19 H27 1.419079 1_555
Be20 H44 1.415991 1_555
Be20 H32 1.418567 1_555
Be21 H41 1.411694 1_555
Be21 H11 1.423945 1_655
Be22 H39 1.412673 1_555
Be22 H14 1.424618 1_655
Be23 H40 1.408966 1_555
Be23 H15 1.421831 1_655
Be23 Na9 3.115523 1_655
H0 Na3 2.262632 1_545
H0 Na6 2.297294 1_555
H0 Na0 2.328966 1_555
H1 Na17 2.402269 1_555
H1 Na36 2.407478 1_455
H1 Na0 2.521122 1_555
H2 Na37 2.394411 1_455
H2 Na18 2.419048 1_555
H2 Na5 2.555592 1_555
H3 Na23 2.385674 1_545
H3 Na38 2.396925 1_455
H3 Na2 2.529973 1_555
H3 Na9 2.577430 1_555
H4 Na3 2.368579 1_545
H4 Na6 2.379585 1_555
H4 Na9 2.683500 1_554
H5 Na7 2.432491 1_555
H5 Na10 2.513939 1_555
H5 Na4 2.560063 1_555
H6 Na27 2.348798 1_465
H6 Na6 2.354389 1_555
H6 Na15 2.444823 1_555
H7 Na10 2.264209 1_555
H7 Na28 2.301929 1_455
H7 Na16 2.328049 1_555
H8 Na11 2.443972 1_555
H8 Na8 2.462684 1_555
H8 Na5 2.558802 1_555
H9 Na11 2.259144 1_555
H9 Na29 2.311082 1_455
H9 Na22 2.339982 1_555
H10 Na14 2.267077 1_555
H10 Na42 2.333650 1_545
H10 Na7 2.345621 1_555
H11 Na16 2.391406 1_555
H11 Na14 2.442954 1_555
H11 Na17 2.536150 1_565
H12 Na43 2.379342 1_545
H12 Na12 2.420497 1_555
H12 Na20 2.433803 1_555
H13 Na21 2.317572 1_555
H13 Na44 2.385602 1_555
H13 Na19 2.611337 1_555
H13 Na9 2.704964 1_555
H14 Na22 2.412426 1_555
H14 Na18 2.461004 1_565
H14 Na20 2.489106 1_555
H15 Na23 2.404385 1_555
H15 Na21 2.434841 1_555
H15 Na15 2.475046 1_556
H16 Na28 2.261493 1_545
H16 Na12 2.297161 1_555
H16 Na33 2.303933 1_555
H17 Na29 2.286162 1_545
H17 Na34 2.310482 1_555
H17 Na19 2.444692 1_555
H18 Na42 2.392093 1_545
H18 Na14 2.403985 1_555
H18 Na13 2.531657 1_555
H18 Na30 2.592091 1_555
H19 Na17 2.231056 1_565
H19 Na14 2.296323 1_555
H19 Na24 2.386350 1_555
H20 Na18 2.239627 1_565
H20 Na20 2.350758 1_555
H20 Na25 2.403581 1_555
H21 Na21 2.279534 1_555
H21 Na23 2.328615 1_555
H21 Na26 2.438539 1_555
H22 Na43 2.393875 1_545
H22 Na20 2.427055 1_555
H22 Na12 2.440449 1_555
H23 Na44 2.375416 1_555
H23 Na21 2.382510 1_555
H23 Na19 2.593939 1_555
H24 Na24 2.391526 1_555
H24 Na3 2.395311 1_555
H24 Na32 2.492135 1_555
H25 Na33 2.345386 1_555
H25 Na25 2.444768 1_555
H25 Na4 2.457424 1_565
H26 Na34 2.327458 1_555
H26 Na8 2.434624 1_565
H26 Na26 2.460397 1_555
H27 Na4 2.337398 1_565
H27 Na33 2.403802 1_555
H27 Na40 2.545250 1_555
H28 Na35 2.435122 1_554
H28 Na32 2.502376 1_555
H28 Na27 2.553937 1_555
H29 Na28 2.360883 1_545
H29 Na33 2.391785 1_555
H29 Na1 2.586534 1_655
H29 Na30 2.717697 1_555
H30 Na34 2.396124 1_555
H30 Na29 2.406770 1_545
H30 Na31 2.477379 1_555
H31 Na32 2.251815 1_555
H31 Na39 2.309067 1_555
H31 Na3 2.314004 1_555
H32 Na34 2.363229 1_555
H32 Na8 2.369750 1_565
H32 Na41 2.443080 1_555
H33 Na36 2.304240 1_555
H33 Na17 2.376211 1_655
H33 Na0 2.611336 1_655
H33 Na30 2.656789 1_555
H34 Na37 2.239545 1_555
H34 Na31 2.309352 1_555
H34 Na18 2.332355 1_655
H35 Na38 2.280339 1_555
H35 Na23 2.341826 1_645
H35 Na35 2.385099 1_555
H36 Na37 2.385385 1_555
H36 Na43 2.392251 1_555
H36 Na41 2.561040 1_555
H37 Na42 2.418801 1_555
H37 Na36 2.427558 1_555
H37 Na40 2.457094 1_555
H38 Na39 2.379703 1_556
H38 Na38 2.441466 1_555
H38 Na44 2.530272 1_565
H39 Na37 2.247105 1_555
H39 Na43 2.317277 1_555
H39 Na46 2.409789 1_555
H40 Na44 2.229526 1_565
H40 Na38 2.294048 1_555
H40 Na47 2.391250 1_555
H41 Na36 2.271847 1_555
H41 Na42 2.329326 1_555
H41 Na45 2.433573 1_555
H42 Na6 2.356482 1_655
H42 Na45 2.439277 1_555
H42 Na27 2.450497 1_565
H43 Na28 2.377003 1_555
H43 Na46 2.385893 1_555
H43 Na10 2.549399 1_655
H44 Na29 2.377206 1_555
H44 Na47 2.403839 1_555
H44 Na11 2.476199 1_655
