# generated using pymatgen
data_Na2Y2B2O7
_symmetry_space_group_name_H-M   'P 1'
_cell_length_a   6.29598900
_cell_length_b   10.35698100
_cell_length_c   10.67899658
_cell_angle_alpha   62.25946243
_cell_angle_beta   90.00000000
_cell_angle_gamma   90.00000000
_symmetry_Int_Tables_number   1
_chemical_formula_structural   Na2Y2B2O7
_chemical_formula_sum   'Na8 Y8 B8 O28'
_cell_volume   616.31469045
_cell_formula_units_Z   4
loop_
 _symmetry_equiv_pos_site_id
 _symmetry_equiv_pos_as_xyz
  1  'x, y, z'
loop_
 _atom_site_type_symbol
 _atom_site_label
 _atom_site_symmetry_multiplicity
 _atom_site_fract_x
 _atom_site_fract_y
 _atom_site_fract_z
 _atom_site_occupancy
  Na  Na0  1  0.76976600  0.45113800  0.61138000  1
  Na  Na1  1  0.26976600  0.04886200  0.38862000  1
  Na  Na2  1  0.23023400  0.54886200  0.38862000  1
  Na  Na3  1  0.73023400  0.95113800  0.61138000  1
  Na  Na4  1  0.44287000  0.23978500  0.52354300  1
  Na  Na5  1  0.94287000  0.26021500  0.47645700  1
  Na  Na6  1  0.55713000  0.76021500  0.47645700  1
  Na  Na7  1  0.05713000  0.73978500  0.52354300  1
  Y  Y0  1  0.95908200  0.31717800  0.98458700  1
  Y  Y1  1  0.45908200  0.18282200  0.01541300  1
  Y  Y2  1  0.04091800  0.68282200  0.01541300  1
  Y  Y3  1  0.54091800  0.81717800  0.98458700  1
  Y  Y4  1  0.58203100  0.41423400  0.18278200  1
  Y  Y5  1  0.08203100  0.08576600  0.81721800  1
  Y  Y6  1  0.41796900  0.58576600  0.81721800  1
  Y  Y7  1  0.91796900  0.91423400  0.18278200  1
  B  B0  1  0.15320600  0.35165700  0.20760700  1
  B  B1  1  0.65320600  0.14834300  0.79239300  1
  B  B2  1  0.84679400  0.64834300  0.79239300  1
  B  B3  1  0.34679400  0.85165700  0.20760700  1
  B  B4  1  0.75302200  0.58115700  0.31493600  1
  B  B5  1  0.25302200  0.91884300  0.68506400  1
  B  B6  1  0.24697800  0.41884300  0.68506400  1
  B  B7  1  0.74697800  0.08115700  0.31493600  1
  O  O0  1  0.64811900  0.16492200  0.36686800  1
  O  O1  1  0.14811900  0.33507800  0.63313200  1
  O  O2  1  0.35188100  0.83507800  0.63313200  1
  O  O3  1  0.85188100  0.66492200  0.36686800  1
  O  O4  1  0.75621300  0.22935500  0.84946800  1
  O  O5  1  0.25621300  0.27064500  0.15053200  1
  O  O6  1  0.24378700  0.77064500  0.15053200  1
  O  O7  1  0.74378700  0.72935500  0.84946800  1
  O  O8  1  0.87603400  0.90225000  0.97489800  1
  O  O9  1  0.37603400  0.59775000  0.02510200  1
  O  O10  1  0.12396600  0.09775000  0.02510200  1
  O  O11  1  0.62396600  0.40225000  0.97489800  1
  O  O12  1  0.25290800  0.86690600  0.31517600  1
  O  O13  1  0.75290800  0.63309400  0.68482400  1
  O  O14  1  0.74709200  0.13309400  0.68482400  1
  O  O15  1  0.24709200  0.36690600  0.31517600  1
  O  O16  1  0.73695000  0.63250700  0.16671500  1
  O  O17  1  0.23695000  0.86749300  0.83328500  1
  O  O18  1  0.26305000  0.36749300  0.83328500  1
  O  O19  1  0.76305000  0.13250700  0.16671500  1
  O  O20  1  0.54157600  0.91363100  0.14876800  1
  O  O21  1  0.04157600  0.58636900  0.85123200  1
  O  O22  1  0.45842400  0.08636900  0.85123200  1
  O  O23  1  0.95842400  0.41363100  0.14876800  1
  O  O24  1  0.83148100  0.94466900  0.39772200  1
  O  O25  1  0.33148100  0.55533100  0.60227800  1
  O  O26  1  0.16851900  0.05533100  0.60227800  1
  O  O27  1  0.66851900  0.44466900  0.39772200  1
loop_
_geom_bond_atom_site_label_1
_geom_bond_atom_site_label_2
_geom_bond_distance
_geom_bond_site_symmetry_2
Na0 O13 2.356642 1_555
Na0 O27 2.399809 1_555
Na0 O4 2.512198 1_555
Na0 O3 2.570146 1_555
Na0 O1 2.629322 1_655
Na1 O12 2.356642 1_545
Na1 O26 2.399809 1_555
Na1 O5 2.512198 1_555
Na1 O2 2.570146 1_545
Na1 O0 2.629322 1_555
Na2 O15 2.356642 1_555
Na2 O25 2.399809 1_555
Na2 O6 2.512198 1_555
Na2 O1 2.570146 1_555
Na2 O3 2.629322 1_455
Na3 O14 2.356642 1_565
Na3 O24 2.399809 1_555
Na3 O7 2.512198 1_555
Na3 O0 2.570146 1_565
Na3 O2 2.629322 1_555
Na4 O15 2.340249 1_555
Na4 O27 2.381647 1_555
Na4 O26 2.417603 1_555
Na4 O14 2.466649 1_555
Na4 O0 2.505618 1_555
Na4 O1 2.619681 1_555
Na5 O14 2.340249 1_555
Na5 O26 2.381647 1_655
Na5 O27 2.417603 1_555
Na5 O15 2.466649 1_655
Na5 O1 2.505618 1_655
Na5 O0 2.619681 1_555
Na6 O13 2.340249 1_555
Na6 O25 2.381647 1_555
Na6 O24 2.417603 1_555
Na6 O12 2.466649 1_555
Na6 O2 2.505618 1_555
Na6 O3 2.619681 1_555
Na7 O12 2.340249 1_555
Na7 O24 2.381647 1_455
Na7 O25 2.417603 1_555
Na7 O13 2.466649 1_455
Na7 O3 2.505618 1_455
Na7 O2 2.619681 1_555
B0 O15 1.364852 1_555
B0 O23 1.391139 1_455
B0 O5 1.404334 1_555
B1 O14 1.364852 1_555
B1 O22 1.391139 1_555
B1 O4 1.404334 1_555
B2 O13 1.364852 1_555
B2 O21 1.391139 1_655
B2 O7 1.404334 1_555
B3 O12 1.364852 1_555
B3 O20 1.391139 1_555
B3 O6 1.404334 1_555
B4 O3 1.376775 1_555
B4 O27 1.378222 1_555
B4 O16 1.419447 1_555
B5 O2 1.376775 1_555
B5 O26 1.378222 1_565
B5 O17 1.419447 1_555
B6 O1 1.376775 1_555
B6 O25 1.378222 1_555
B6 O18 1.419447 1_555
B7 O0 1.376775 1_555
B7 O24 1.378222 1_545
B7 O19 1.419447 1_555
O0 Y4 2.445313 1_555
O1 Y5 2.445313 1_555
O2 Y6 2.445313 1_555
O3 Y7 2.445313 1_555
O4 Y0 2.400546 1_555
O4 Y1 2.465211 1_556
O4 Y5 2.648592 1_655
O5 Y1 2.400546 1_555
O5 Y0 2.465211 1_454
O5 Y4 2.648592 1_555
O6 Y2 2.400546 1_555
O6 Y3 2.465211 1_554
O6 Y7 2.648592 1_455
O7 Y3 2.400546 1_555
O7 Y2 2.465211 1_656
O7 Y6 2.648592 1_555
O8 Y5 2.269495 1_665
O8 Y3 2.270193 1_555
O8 Y7 2.295646 1_556
O8 Y2 2.348248 1_656
O9 Y4 2.269495 1_555
O9 Y2 2.270193 1_555
O9 Y6 2.295646 1_554
O9 Y3 2.348248 1_554
O10 Y7 2.269495 1_445
O10 Y1 2.270193 1_555
O10 Y5 2.295646 1_554
O10 Y0 2.348248 1_454
O11 Y6 2.269495 1_555
O11 Y0 2.270193 1_555
O11 Y4 2.295646 1_556
O11 Y1 2.348248 1_556
O12 Y7 2.457836 1_455
O13 Y6 2.457836 1_555
O14 Y5 2.457836 1_655
O15 Y4 2.457836 1_555
O16 Y3 2.345466 1_554
O16 Y4 2.393789 1_555
O16 Y2 2.400194 1_655
O17 Y2 2.345466 1_556
O17 Y5 2.393789 1_565
O17 Y3 2.400194 1_555
O18 Y1 2.345466 1_556
O18 Y6 2.393789 1_555
O18 Y0 2.400194 1_455
O19 Y0 2.345466 1_554
O19 Y7 2.393789 1_545
O19 Y1 2.400194 1_555
O20 Y3 2.387984 1_554
O20 Y7 2.397891 1_555
O20 Y1 2.524798 1_565
O21 Y2 2.387984 1_556
O21 Y6 2.397891 1_555
O21 Y0 2.524798 1_455
O22 Y1 2.387984 1_556
O22 Y5 2.397891 1_555
O22 Y3 2.524798 1_545
O23 Y0 2.387984 1_554
O23 Y4 2.397891 1_555
O23 Y2 2.524798 1_655
O24 Y7 2.517544 1_555
O25 Y6 2.517544 1_555
O26 Y5 2.517544 1_555
O27 Y4 2.517544 1_555
