# generated using pymatgen
data_RbFeF4
_symmetry_space_group_name_H-M   'P 1'
_cell_length_a   6.33239900
_cell_length_b   7.82044400
_cell_length_c   7.83888700
_cell_angle_alpha   90.00000000
_cell_angle_beta   90.00000000
_cell_angle_gamma   90.00000000
_symmetry_Int_Tables_number   1
_chemical_formula_structural   RbFeF4
_chemical_formula_sum   'Rb4 Fe4 F16'
_cell_volume   388.19870846
_cell_formula_units_Z   4
loop_
 _symmetry_equiv_pos_site_id
 _symmetry_equiv_pos_as_xyz
  1  'x, y, z'
loop_
 _atom_site_type_symbol
 _atom_site_label
 _atom_site_symmetry_multiplicity
 _atom_site_fract_x
 _atom_site_fract_y
 _atom_site_fract_z
 _atom_site_occupancy
  Rb  Rb0  1  0.45056400  0.50000000  0.00000000  1
  Rb  Rb1  1  0.50668200  0.00000000  0.00000000  1
  Rb  Rb2  1  0.49331800  0.50000000  0.50000000  1
  Rb  Rb3  1  0.54943600  0.00000000  0.50000000  1
  Fe  Fe0  1  0.00270000  0.73937500  0.74498000  1
  Fe  Fe1  1  0.00270000  0.26062500  0.25502000  1
  Fe  Fe2  1  0.99730000  0.76062500  0.24498000  1
  Fe  Fe3  1  0.99730000  0.23937500  0.75502000  1
  F  F0  1  0.07847000  0.51236100  0.26104100  1
  F  F1  1  0.06970600  0.75014200  0.99524400  1
  F  F2  1  0.92153000  0.01236100  0.23895900  1
  F  F3  1  0.71724800  0.68223500  0.78299200  1
  F  F4  1  0.06970600  0.24985800  0.00475600  1
  F  F5  1  0.29309200  0.77763700  0.70200000  1
  F  F6  1  0.71724800  0.31776500  0.21700800  1
  F  F7  1  0.93029400  0.74985800  0.49524400  1
  F  F8  1  0.70690800  0.27763700  0.79800000  1
  F  F9  1  0.92153000  0.98763900  0.76104100  1
  F  F10  1  0.29309200  0.22236300  0.29800000  1
  F  F11  1  0.07847000  0.48763900  0.73895900  1
  F  F12  1  0.28275200  0.18223500  0.71700800  1
  F  F13  1  0.93029400  0.25014200  0.50475600  1
  F  F14  1  0.70690800  0.72236300  0.20200000  1
  F  F15  1  0.28275200  0.81776500  0.28299200  1
loop_
_geom_bond_atom_site_label_1
_geom_bond_atom_site_label_2
_geom_bond_distance
_geom_bond_site_symmetry_2
F0 Fe2 2.012363 1_455
F0 Fe1 2.026862 1_555
F0 Rb0 3.122254 1_555
F0 Rb2 3.227872 1_555
F1 Fe0 2.008918 1_555
F1 Fe2 2.012299 1_456
F1 Rb0 3.105593 1_556
F1 Rb1 3.387681 1_566
F2 Fe1 2.012363 1_655
F2 Fe2 2.026862 1_545
F2 Rb3 3.122254 1_555
F2 Rb1 3.227872 1_555
F3 Fe0 1.885703 1_655
F3 Rb0 2.788673 1_556
F3 Rb2 2.993808 1_555
F3 Rb1 3.293510 1_566
F4 Fe1 2.008918 1_555
F4 Fe3 2.012299 1_454
F4 Rb0 3.105593 1_555
F4 Rb1 3.387681 1_555
F5 Fe0 1.893283 1_555
F5 Rb3 2.857689 1_565
F5 Rb2 2.971402 1_555
F5 Rb1 3.210956 1_566
F6 Fe1 1.885703 1_655
F6 Rb0 2.788673 1_555
F6 Rb2 2.993808 1_555
F6 Rb1 3.293510 1_555
F7 Fe2 2.008918 1_555
F7 Fe0 2.012299 1_655
F7 Rb3 3.105593 1_565
F7 Rb2 3.387681 1_555
F8 Fe3 1.893283 1_555
F8 Rb0 2.857689 1_556
F8 Rb1 2.971402 1_556
F8 Rb2 3.210956 1_555
F9 Fe0 2.012363 1_655
F9 Fe3 2.026862 1_565
F9 Rb3 3.122254 1_565
F9 Rb1 3.227872 1_566
F10 Fe1 1.893283 1_555
F10 Rb3 2.857689 1_555
F10 Rb2 2.971402 1_555
F10 Rb1 3.210956 1_555
F11 Fe3 2.012363 1_455
F11 Fe0 2.026862 1_555
F11 Rb0 3.122254 1_556
F11 Rb2 3.227872 1_555
F12 Fe3 1.885703 1_455
F12 Rb3 2.788673 1_555
F12 Rb1 2.993808 1_556
F12 Rb2 3.293510 1_555
F13 Fe3 2.008918 1_555
F13 Fe1 2.012299 1_655
F13 Rb3 3.105593 1_555
F13 Rb2 3.387681 1_555
F14 Fe2 1.893283 1_555
F14 Rb0 2.857689 1_555
F14 Rb1 2.971402 1_565
F14 Rb2 3.210956 1_555
F15 Fe2 1.885703 1_455
F15 Rb3 2.788673 1_565
F15 Rb1 2.993808 1_565
F15 Rb2 3.293510 1_555
