# generated using pymatgen
data_Co7(SbO6)2
_symmetry_space_group_name_H-M   'P 1'
_cell_length_a   6.07879165
_cell_length_b   6.07879165
_cell_length_c   13.30797806
_cell_angle_alpha   78.19000451
_cell_angle_beta   78.19000451
_cell_angle_gamma   90.38679557
_symmetry_Int_Tables_number   1
_chemical_formula_structural   Co7(SbO6)2
_chemical_formula_sum   'Co14 Sb4 O24'
_cell_volume   470.54622728
_cell_formula_units_Z   2
loop_
 _symmetry_equiv_pos_site_id
 _symmetry_equiv_pos_as_xyz
  1  'x, y, z'
loop_
 _atom_site_type_symbol
 _atom_site_label
 _atom_site_symmetry_multiplicity
 _atom_site_fract_x
 _atom_site_fract_y
 _atom_site_fract_z
 _atom_site_occupancy
  Co  Co0  1  0.29504328  0.01928648  0.92095295  1
  Co  Co1  1  0.98071352  0.70495672  0.57904705  1
  Co  Co2  1  0.01928648  0.29504328  0.42095295  1
  Co  Co3  1  0.64223255  0.35776745  0.25000000  1
  Co  Co4  1  0.66069623  0.18482452  0.66034205  1
  Co  Co5  1  0.70495672  0.98071352  0.07904705  1
  Co  Co6  1  0.33930377  0.81517548  0.33965795  1
  Co  Co7  1  0.18482452  0.66069623  0.16034205  1
  Co  Co8  1  0.50000000  0.50000000  0.00000000  1
  Co  Co9  1  0.35776745  0.64223255  0.75000000  1
  Co  Co10  1  0.00000000  0.50000000  0.00000000  1
  Co  Co11  1  0.81517548  0.33930377  0.83965795  1
  Co  Co12  1  0.50000000  0.50000000  0.50000000  1
  Co  Co13  1  0.50000000  0.00000000  0.50000000  1
  Sb  Sb0  1  0.18056420  0.16394576  0.16437844  1
  Sb  Sb1  1  0.81943580  0.83605424  0.83562156  1
  Sb  Sb2  1  0.16394576  0.18056420  0.66437844  1
  Sb  Sb3  1  0.83605424  0.81943580  0.33562156  1
  O  O0  1  0.71826617  0.25089703  0.50483767  1
  O  O1  1  0.08172931  0.06322410  0.32575704  1
  O  O2  1  0.39599141  0.92160832  0.17326033  1
  O  O3  1  0.75518798  0.75575659  0.48995312  1
  O  O4  1  0.07839168  0.60400859  0.32673967  1
  O  O5  1  0.25089703  0.71826617  0.00483767  1
  O  O6  1  0.75575659  0.75518798  0.98995312  1
  O  O7  1  0.04545224  0.60382231  0.83533274  1
  O  O8  1  0.59662933  0.60316476  0.83135810  1
  O  O9  1  0.40337067  0.39683524  0.16864190  1
  O  O10  1  0.24424341  0.24481202  0.01004688  1
  O  O11  1  0.74910297  0.28173383  0.99516233  1
  O  O12  1  0.92160832  0.39599141  0.67326033  1
  O  O13  1  0.39683524  0.40337067  0.66864190  1
  O  O14  1  0.24481202  0.24424341  0.51004688  1
  O  O15  1  0.60400859  0.07839168  0.82673967  1
  O  O16  1  0.06322410  0.08172931  0.82575704  1
  O  O17  1  0.91827069  0.93677590  0.67424296  1
  O  O18  1  0.39617769  0.95454776  0.66466726  1
  O  O19  1  0.60382231  0.04545224  0.33533274  1
  O  O20  1  0.93677590  0.91827069  0.17424296  1
  O  O21  1  0.28173383  0.74910297  0.49516233  1
  O  O22  1  0.60316476  0.59662933  0.33135810  1
  O  O23  1  0.95454776  0.39617769  0.16466726  1
loop_
_geom_bond_atom_site_label_1
_geom_bond_atom_site_label_2
_geom_bond_distance
_geom_bond_site_symmetry_2
Co0 O5 1.923831 1_546
Co0 O10 1.975291 1_556
Co0 O15 2.017689 1_555
Co0 O16 2.067839 1_555
Co1 O21 1.923831 1_655
Co1 O3 1.975291 1_555
Co1 O12 2.017689 1_555
Co1 O17 2.067839 1_555
Co2 O0 1.923831 1_455
Co2 O14 1.975291 1_555
Co2 O4 2.017689 1_555
Co2 O1 2.067839 1_555
Co3 O22 1.969735 1_555
Co3 O9 1.969735 1_555
Co3 O23 1.987812 1_555
Co3 O19 1.987812 1_555
Co4 O0 1.981876 1_555
Co4 O13 2.089520 1_555
Co4 O12 2.089792 1_555
Co4 O18 2.108797 1_545
Co4 O15 2.130530 1_555
Co4 O17 2.189885 1_545
Co5 O11 1.923831 1_564
Co5 O6 1.975291 1_554
Co5 O2 2.017689 1_555
Co5 O20 2.067839 1_555
Co6 O21 1.981876 1_555
Co6 O22 2.089520 1_555
Co6 O4 2.089792 1_555
Co6 O19 2.108797 1_565
Co6 O2 2.130530 1_555
Co6 O1 2.189885 1_565
Co7 O5 1.981876 1_555
Co7 O9 2.089520 1_555
Co7 O2 2.089792 1_555
Co7 O23 2.108797 1_455
Co7 O4 2.130530 1_555
Co7 O20 2.189885 1_455
Co8 O5 2.019815 1_555
Co8 O11 2.019815 1_554
Co8 O10 2.153769 1_555
Co8 O6 2.153769 1_554
Co8 O9 2.157409 1_555
Co8 O8 2.157409 1_554
Co9 O8 1.969735 1_555
Co9 O13 1.969735 1_555
Co9 O18 1.987812 1_555
Co9 O7 1.987812 1_555
Co10 O11 2.034318 1_454
Co10 O5 2.034318 1_555
Co10 O7 2.111994 1_554
Co10 O23 2.111994 1_455
Co10 O6 2.157779 1_454
Co10 O10 2.157779 1_555
Co11 O11 1.981876 1_555
Co11 O8 2.089520 1_555
Co11 O15 2.089792 1_555
Co11 O7 2.108797 1_655
Co11 O12 2.130530 1_555
Co11 O16 2.189885 1_655
Co12 O21 2.019815 1_555
Co12 O0 2.019815 1_555
Co12 O14 2.153769 1_555
Co12 O3 2.153769 1_555
Co12 O22 2.157409 1_555
Co12 O13 2.157409 1_555
Co13 O21 2.034318 1_545
Co13 O0 2.034318 1_555
Co13 O19 2.111994 1_555
Co13 O18 2.111994 1_545
Co13 O3 2.157779 1_545
Co13 O14 2.157779 1_555
O1 Sb3 2.062493 1_445
O1 Sb0 2.068030 1_555
O2 Sb0 1.979159 1_565
O3 Sb3 1.966845 1_555
O4 Sb3 1.979159 1_455
O6 Sb1 1.966845 1_555
O7 Sb1 1.976550 1_455
O8 Sb1 1.969827 1_555
O9 Sb0 1.969827 1_555
O10 Sb0 1.966845 1_555
O12 Sb2 1.979159 1_655
O13 Sb2 1.969827 1_555
O14 Sb2 1.966845 1_555
O15 Sb1 1.979159 1_545
O16 Sb1 2.062493 1_445
O16 Sb2 2.068030 1_555
O17 Sb2 2.062493 1_665
O17 Sb1 2.068030 1_555
O18 Sb2 1.976550 1_565
O19 Sb3 1.976550 1_545
O20 Sb0 2.062493 1_665
O20 Sb3 2.068030 1_555
O22 Sb3 1.969827 1_555
O23 Sb0 1.976550 1_655
