# generated using pymatgen
data_Os3C10(BrO5)2
_symmetry_space_group_name_H-M   'P 1'
_cell_length_a   9.34445841
_cell_length_b   9.34445841
_cell_length_c   14.35729721
_cell_angle_alpha   77.63054859
_cell_angle_beta   77.63054859
_cell_angle_gamma   52.59687690
_symmetry_Int_Tables_number   1
_chemical_formula_structural   Os3C10(BrO5)2
_chemical_formula_sum   'Os6 C20 Br4 O20'
_cell_volume   967.03910453
_cell_formula_units_Z   2
loop_
 _symmetry_equiv_pos_site_id
 _symmetry_equiv_pos_as_xyz
  1  'x, y, z'
loop_
 _atom_site_type_symbol
 _atom_site_label
 _atom_site_symmetry_multiplicity
 _atom_site_fract_x
 _atom_site_fract_y
 _atom_site_fract_z
 _atom_site_occupancy
  Os  Os0  1  0.77908200  0.21361500  0.00202100  1
  Os  Os1  1  0.14866400  0.64642000  0.35517700  1
  Os  Os2  1  0.21361500  0.77908200  0.50202100  1
  Os  Os3  1  0.75106300  0.43655400  0.81227000  1
  Os  Os4  1  0.64642000  0.14866400  0.85517700  1
  Os  Os5  1  0.43655400  0.75106300  0.31227000  1
  C  C0  1  0.52699700  0.42032100  0.02741500  1
  C  C1  1  0.64327100  0.63444000  0.37677300  1
  C  C2  1  0.98501100  0.34811800  0.83621900  1
  C  C3  1  0.02227700  0.01979300  0.95198700  1
  C  C4  1  0.47561400  0.16307200  0.95952300  1
  C  C5  1  0.34811800  0.98501100  0.33621900  1
  C  C6  1  0.72723100  0.09437700  0.11874100  1
  C  C7  1  0.16307200  0.47561400  0.45952300  1
  C  C8  1  0.87368800  0.31098900  0.05217900  1
  C  C9  1  0.01979300  0.02227700  0.45198700  1
  C  C10  1  0.90326700  0.81885700  0.40129200  1
  C  C11  1  0.81885700  0.90326700  0.90129200  1
  C  C12  1  0.61214900  0.10473700  0.20452500  1
  C  C13  1  0.75053400  0.56643300  0.68943800  1
  C  C14  1  0.63444000  0.64327100  0.87677300  1
  C  C15  1  0.42032100  0.52699700  0.52741500  1
  C  C16  1  0.31098900  0.87368800  0.55217900  1
  C  C17  1  0.09437700  0.72723100  0.61874100  1
  C  C18  1  0.56643300  0.75053400  0.18943800  1
  C  C19  1  0.10473700  0.61214900  0.70452500  1
  Br  Br0  1  0.49809300  0.44183700  0.29815100  1
  Br  Br1  1  0.15272300  0.88656400  0.22437900  1
  Br  Br2  1  0.88656400  0.15272300  0.72437900  1
  Br  Br3  1  0.44183700  0.49809300  0.79815100  1
  O  O0  1  0.75172100  0.92249000  0.42744300  1
  O  O1  1  0.75873900  0.64433200  0.61619000  1
  O  O2  1  0.94379800  0.78487900  0.68997400  1
  O  O3  1  0.91210400  0.16740000  0.41860600  1
  O  O4  1  0.64433200  0.75873900  0.11619000  1
  O  O5  1  0.10686300  0.56314400  0.26608900  1
  O  O6  1  0.77454000  0.56098400  0.41335100  1
  O  O7  1  0.56098400  0.77454000  0.91335100  1
  O  O8  1  0.92249000  0.75172100  0.92744300  1
  O  O9  1  0.28985700  0.12996800  0.35015700  1
  O  O10  1  0.37748500  0.53993300  0.04533200  1
  O  O11  1  0.12996800  0.28985700  0.85015700  1
  O  O12  1  0.16613400  0.37262900  0.52236800  1
  O  O13  1  0.37262900  0.16613400  0.02236800  1
  O  O14  1  0.53993300  0.37748500  0.54533200  1
  O  O15  1  0.56314400  0.10686300  0.76608900  1
  O  O16  1  0.93000700  0.36240300  0.09040000  1
  O  O17  1  0.78487900  0.94379800  0.18997400  1
  O  O18  1  0.16740000  0.91210400  0.91860600  1
  O  O19  1  0.36240300  0.93000700  0.59040000  1
loop_
_geom_bond_atom_site_label_1
_geom_bond_atom_site_label_2
_geom_bond_distance
_geom_bond_site_symmetry_2
C0 O10 1.157377 1_555
C0 Os0 1.954217 1_555
C1 O6 1.162014 1_555
C1 Os5 1.885009 1_555
C2 O11 1.159661 1_655
C2 Os3 1.893636 1_555
C3 O18 1.162620 1_545
C3 Os0 1.954112 1_456
C4 O13 1.160446 1_556
C4 Os4 1.900246 1_555
C5 O9 1.159661 1_565
C5 Os5 1.893636 1_555
C6 O17 1.419396 1_545
C6 Os0 1.947436 1_555
C7 O12 1.160446 1_555
C7 Os1 1.900246 1_555
C8 O16 1.163075 1_555
C8 Os0 1.912784 1_555
C9 O3 1.162620 1_455
C9 Os2 1.954112 1_545
C10 O0 1.160233 1_555
C10 Os1 1.900240 1_655
C11 O8 1.160233 1_555
C11 Os4 1.900240 1_565
C12 O17 1.397071 1_545
C12 C6 1.428246 1_555
C13 O1 1.160600 1_555
C13 Os3 1.913766 1_555
C14 O7 1.162014 1_555
C14 Os3 1.885009 1_555
C15 O14 1.157377 1_555
C15 Os2 1.954217 1_555
C16 O19 1.163075 1_555
C16 Os2 1.912784 1_555
C17 O2 1.419396 1_455
C17 C19 1.428246 1_555
C17 Os2 1.947436 1_555
C18 O4 1.160600 1_555
C18 Os5 1.913766 1_555
C19 O2 1.397071 1_455
Br0 Os5 2.627482 1_555
Br0 Os1 2.632237 1_555
Br1 Os1 2.613625 1_555
Br1 Os5 2.626709 1_555
Br2 Os4 2.613625 1_555
Br2 Os3 2.626709 1_555
Br3 Os3 2.627482 1_555
Br3 Os4 2.632237 1_555
O5 Os1 1.844955 1_555
O15 Os4 1.844955 1_555
