# generated using pymatgen
data_Cs4Ru2Cl10O
_symmetry_space_group_name_H-M   'P 1'
_cell_length_a   11.99702500
_cell_length_b   12.69454200
_cell_length_c   14.18961900
_cell_angle_alpha   90.00000000
_cell_angle_beta   90.00000000
_cell_angle_gamma   90.00000000
_symmetry_Int_Tables_number   1
_chemical_formula_structural   Cs4Ru2Cl10O
_chemical_formula_sum   'Cs16 Ru8 Cl40 O4'
_cell_volume   2161.03268344
_cell_formula_units_Z   4
loop_
 _symmetry_equiv_pos_site_id
 _symmetry_equiv_pos_as_xyz
  1  'x, y, z'
loop_
 _atom_site_type_symbol
 _atom_site_label
 _atom_site_symmetry_multiplicity
 _atom_site_fract_x
 _atom_site_fract_y
 _atom_site_fract_z
 _atom_site_occupancy
  Cs  Cs0  1  0.28952800  0.89392800  0.63590700  1
  Cs  Cs1  1  0.47795600  0.78455500  0.36137900  1
  Cs  Cs2  1  0.21047200  0.89392800  0.13590700  1
  Cs  Cs3  1  0.02204400  0.28455500  0.63862100  1
  Cs  Cs4  1  0.78952800  0.60607200  0.63590700  1
  Cs  Cs5  1  0.02204400  0.78455500  0.86137900  1
  Cs  Cs6  1  0.71047200  0.10607200  0.36409300  1
  Cs  Cs7  1  0.21047200  0.39392800  0.36409300  1
  Cs  Cs8  1  0.71047200  0.60607200  0.13590700  1
  Cs  Cs9  1  0.28952800  0.39392800  0.86409300  1
  Cs  Cs10  1  0.47795600  0.28455500  0.13862100  1
  Cs  Cs11  1  0.52204400  0.71544500  0.86137900  1
  Cs  Cs12  1  0.52204400  0.21544500  0.63862100  1
  Cs  Cs13  1  0.78952800  0.10607200  0.86409300  1
  Cs  Cs14  1  0.97795600  0.71544500  0.36137900  1
  Cs  Cs15  1  0.97795600  0.21544500  0.13862100  1
  Ru  Ru0  1  0.41466400  0.55300000  0.59404200  1
  Ru  Ru1  1  0.91466400  0.94700000  0.59404200  1
  Ru  Ru2  1  0.58533600  0.44700000  0.40595800  1
  Ru  Ru3  1  0.58533600  0.94700000  0.09404200  1
  Ru  Ru4  1  0.91466400  0.44700000  0.90595800  1
  Ru  Ru5  1  0.08533600  0.55300000  0.09404200  1
  Ru  Ru6  1  0.41466400  0.05300000  0.90595800  1
  Ru  Ru7  1  0.08533600  0.05300000  0.40595800  1
  Cl  Cl0  1  0.96886900  0.98229900  0.28378400  1
  Cl  Cl1  1  0.51911100  0.71442700  0.60176000  1
  Cl  Cl2  1  0.78339500  0.36729700  0.01121100  1
  Cl  Cl3  1  0.51911100  0.21442700  0.89824000  1
  Cl  Cl4  1  0.28339500  0.13270300  0.01121100  1
  Cl  Cl5  1  0.48088900  0.28557300  0.39824000  1
  Cl  Cl6  1  0.29950600  0.89885200  0.89585900  1
  Cl  Cl7  1  0.71660500  0.86729700  0.98878900  1
  Cl  Cl8  1  0.19627400  0.62382000  0.21658600  1
  Cl  Cl9  1  0.70049400  0.10114800  0.10414100  1
  Cl  Cl10  1  0.19627400  0.12382000  0.28341400  1
  Cl  Cl11  1  0.30372600  0.62382000  0.71658600  1
  Cl  Cl12  1  0.01911100  0.28557300  0.89824000  1
  Cl  Cl13  1  0.80372600  0.87618000  0.71658600  1
  Cl  Cl14  1  0.28339500  0.63270300  0.48878900  1
  Cl  Cl15  1  0.03113100  0.01770100  0.71621600  1
  Cl  Cl16  1  0.20049400  0.89885200  0.39585900  1
  Cl  Cl17  1  0.80372600  0.37618000  0.78341400  1
  Cl  Cl18  1  0.29950600  0.39885200  0.60414100  1
  Cl  Cl19  1  0.79950600  0.60114800  0.89585900  1
  Cl  Cl20  1  0.69627400  0.37618000  0.28341400  1
  Cl  Cl21  1  0.96886900  0.48229900  0.21621600  1
  Cl  Cl22  1  0.48088900  0.78557300  0.10176000  1
  Cl  Cl23  1  0.98088900  0.21442700  0.39824000  1
  Cl  Cl24  1  0.46886900  0.51770100  0.28378400  1
  Cl  Cl25  1  0.78339500  0.86729700  0.48878900  1
  Cl  Cl26  1  0.03113100  0.51770100  0.78378400  1
  Cl  Cl27  1  0.30372600  0.12382000  0.78341400  1
  Cl  Cl28  1  0.21660500  0.13270300  0.51121100  1
  Cl  Cl29  1  0.71660500  0.36729700  0.51121100  1
  Cl  Cl30  1  0.79950600  0.10114800  0.60414100  1
  Cl  Cl31  1  0.21660500  0.63270300  0.98878900  1
  Cl  Cl32  1  0.01911100  0.78557300  0.60176000  1
  Cl  Cl33  1  0.46886900  0.01770100  0.21621600  1
  Cl  Cl34  1  0.53113100  0.98229900  0.78378400  1
  Cl  Cl35  1  0.20049400  0.39885200  0.10414100  1
  Cl  Cl36  1  0.69627400  0.87618000  0.21658600  1
  Cl  Cl37  1  0.53113100  0.48229900  0.71621600  1
  Cl  Cl38  1  0.98088900  0.71442700  0.10176000  1
  Cl  Cl39  1  0.70049400  0.60114800  0.39585900  1
  O  O0  1  0.50000000  0.00000000  0.00000000  1
  O  O1  1  0.50000000  0.50000000  0.50000000  1
  O  O2  1  0.00000000  0.50000000  0.00000000  1
  O  O3  1  0.00000000  0.00000000  0.50000000  1
loop_
_geom_bond_atom_site_label_1
_geom_bond_atom_site_label_2
_geom_bond_distance
_geom_bond_site_symmetry_2
Cl0 Ru7 2.400675 1_665
Cl0 Cs14 3.563698 1_555
Cl0 Cs15 3.607549 1_565
Cl0 Cs6 3.657507 1_565
Cl0 Cs2 3.750046 1_655
Cl1 Ru0 2.404481 1_555
Cl1 Cs4 3.556916 1_555
Cl1 Cs1 3.559585 1_555
Cl1 Cs0 3.607410 1_555
Cl1 Cs11 3.684085 1_555
Cl2 Ru4 2.394657 1_554
Cl2 Cs15 3.526013 1_555
Cl2 Cs8 3.617170 1_555
Cl2 Cs13 3.919184 1_554
Cl3 Ru6 2.404481 1_555
Cl3 Cs13 3.556916 1_555
Cl3 Cs10 3.559585 1_556
Cl3 Cs9 3.607410 1_555
Cl3 Cs12 3.684085 1_555
Cl4 Ru6 2.394657 1_554
Cl4 Cs10 3.526013 1_555
Cl4 Cs2 3.617170 1_545
Cl4 Cs9 3.919184 1_554
Cl5 Ru2 2.404481 1_555
Cl5 Cs7 3.556916 1_555
Cl5 Cs12 3.559585 1_555
Cl5 Cs6 3.607410 1_555
Cl5 Cs10 3.684085 1_555
Cl6 Ru6 2.399675 1_565
Cl6 Cs2 3.570289 1_556
Cl6 Cs11 3.576032 1_555
Cl6 Cs5 3.664013 1_555
Cl6 Cs0 3.691091 1_555
Cl7 Ru3 2.394657 1_556
Cl7 Cs11 3.526013 1_555
Cl7 Cs13 3.617170 1_565
Cl7 Cs8 3.919184 1_556
Cl8 Ru5 2.367113 1_555
Cl8 Cs14 3.526206 1_455
Cl8 Cs7 3.595393 1_555
Cl8 Cs2 3.618968 1_555
Cl9 Ru3 2.399675 1_545
Cl9 Cs13 3.570289 1_554
Cl9 Cs10 3.576032 1_555
Cl9 Cs15 3.664013 1_555
Cl9 Cs6 3.691091 1_555
Cl10 Ru7 2.367113 1_555
Cl10 Cs15 3.526206 1_455
Cl10 Cs2 3.595393 1_545
Cl10 Cs7 3.618968 1_555
Cl11 Ru0 2.367113 1_555
Cl11 Cs11 3.526206 1_555
Cl11 Cs9 3.595393 1_555
Cl11 Cs0 3.618968 1_555
Cl12 Ru4 2.404481 1_455
Cl12 Cs9 3.556916 1_555
Cl12 Cs15 3.559585 1_456
Cl12 Cs13 3.607410 1_455
Cl12 Cs3 3.684085 1_555
Cl13 Ru1 2.367113 1_555
Cl13 Cs5 3.526206 1_655
Cl13 Cs13 3.595393 1_565
Cl13 Cs4 3.618968 1_555
Cl14 Ru0 2.394657 1_555
Cl14 Cs1 3.526013 1_555
Cl14 Cs7 3.617170 1_555
Cl14 Cs0 3.919184 1_555
Cl15 Ru1 2.400675 1_445
Cl15 Cs3 3.563698 1_555
Cl15 Cs5 3.607549 1_545
Cl15 Cs0 3.657507 1_545
Cl15 Cs13 3.750046 1_455
Cl16 Ru7 2.399675 1_565
Cl16 Cs0 3.570289 1_555
Cl16 Cs14 3.576032 1_455
Cl16 Cs1 3.664013 1_555
Cl16 Cs2 3.691091 1_555
Cl17 Ru4 2.367113 1_555
Cl17 Cs3 3.526206 1_655
Cl17 Cs4 3.595393 1_555
Cl17 Cs13 3.618968 1_555
Cl18 Ru0 2.399675 1_555
Cl18 Cs7 3.570289 1_555
Cl18 Cs12 3.576032 1_555
Cl18 Cs3 3.664013 1_555
Cl18 Cs9 3.691091 1_555
Cl19 Ru4 2.399675 1_555
Cl19 Cs8 3.570289 1_556
Cl19 Cs5 3.576032 1_655
Cl19 Cs11 3.664013 1_555
Cl19 Cs4 3.691091 1_555
Cl20 Ru2 2.367113 1_555
Cl20 Cs10 3.526206 1_555
Cl20 Cs8 3.595393 1_555
Cl20 Cs6 3.618968 1_555
Cl21 Ru5 2.400675 1_655
Cl21 Cs15 3.563698 1_555
Cl21 Cs14 3.607549 1_555
Cl21 Cs8 3.657507 1_555
Cl21 Cs7 3.750046 1_655
Cl22 Ru3 2.404481 1_555
Cl22 Cs2 3.556916 1_555
Cl22 Cs11 3.559585 1_554
Cl22 Cs8 3.607410 1_555
Cl22 Cs1 3.684085 1_555
Cl23 Ru7 2.404481 1_655
Cl23 Cs6 3.556916 1_555
Cl23 Cs3 3.559585 1_655
Cl23 Cs7 3.607410 1_655
Cl23 Cs15 3.684085 1_555
Cl24 Ru2 2.400675 1_555
Cl24 Cs1 3.563698 1_555
Cl24 Cs10 3.607549 1_555
Cl24 Cs7 3.657507 1_555
Cl24 Cs8 3.750046 1_555
Cl25 Ru1 2.394657 1_555
Cl25 Cs14 3.526013 1_555
Cl25 Cs6 3.617170 1_565
Cl25 Cs4 3.919184 1_555
Cl26 Ru4 2.400675 1_455
Cl26 Cs5 3.563698 1_555
Cl26 Cs3 3.607549 1_555
Cl26 Cs9 3.657507 1_555
Cl26 Cs4 3.750046 1_455
Cl27 Ru6 2.367113 1_555
Cl27 Cs12 3.526206 1_555
Cl27 Cs0 3.595393 1_545
Cl27 Cs9 3.618968 1_555
Cl28 Ru7 2.394657 1_555
Cl28 Cs3 3.526013 1_555
Cl28 Cs0 3.617170 1_545
Cl28 Cs7 3.919184 1_555
Cl29 Ru2 2.394657 1_555
Cl29 Cs12 3.526013 1_555
Cl29 Cs4 3.617170 1_555
Cl29 Cs6 3.919184 1_555
Cl30 Ru1 2.399675 1_545
Cl30 Cs6 3.570289 1_555
Cl30 Cs3 3.576032 1_655
Cl30 Cs12 3.664013 1_555
Cl30 Cs13 3.691091 1_555
Cl31 Ru5 2.394657 1_556
Cl31 Cs5 3.526013 1_555
Cl31 Cs9 3.617170 1_555
Cl31 Cs2 3.919184 1_556
Cl32 Ru1 2.404481 1_455
Cl32 Cs0 3.556916 1_555
Cl32 Cs14 3.559585 1_455
Cl32 Cs4 3.607410 1_455
Cl32 Cs5 3.684085 1_555
Cl33 Ru3 2.400675 1_545
Cl33 Cs10 3.563698 1_555
Cl33 Cs1 3.607549 1_545
Cl33 Cs2 3.657507 1_545
Cl33 Cs6 3.750046 1_555
Cl34 Ru6 2.400675 1_565
Cl34 Cs11 3.563698 1_555
Cl34 Cs12 3.607549 1_565
Cl34 Cs13 3.657507 1_565
Cl34 Cs0 3.750046 1_555
Cl35 Ru5 2.399675 1_555
Cl35 Cs9 3.570289 1_554
Cl35 Cs15 3.576032 1_455
Cl35 Cs10 3.664013 1_555
Cl35 Cs7 3.691091 1_555
Cl36 Ru3 2.367113 1_555
Cl36 Cs1 3.526206 1_555
Cl36 Cs6 3.595393 1_565
Cl36 Cs8 3.618968 1_555
Cl37 Ru0 2.400675 1_555
Cl37 Cs12 3.563698 1_555
Cl37 Cs11 3.607549 1_555
Cl37 Cs4 3.657507 1_555
Cl37 Cs9 3.750046 1_555
Cl38 Ru5 2.404481 1_655
Cl38 Cs8 3.556916 1_555
Cl38 Cs5 3.559585 1_654
Cl38 Cs2 3.607410 1_655
Cl38 Cs14 3.684085 1_555
Cl39 Ru2 2.399675 1_555
Cl39 Cs4 3.570289 1_555
Cl39 Cs1 3.576032 1_555
Cl39 Cs14 3.664013 1_555
Cl39 Cs8 3.691091 1_555
O0 Ru3 1.811484 1_545
O0 Ru6 1.811484 1_554
O1 Ru2 1.811484 1_555
O1 Ru0 1.811484 1_555
O2 Ru5 1.811484 1_555
O2 Ru4 1.811484 1_454
O3 Ru7 1.811484 1_555
O3 Ru1 1.811484 1_445
