# generated using pymatgen
data_Ti3Fe7O15
_symmetry_space_group_name_H-M   'P 1'
_cell_length_a   5.50106000
_cell_length_b   8.92983256
_cell_length_c   11.71415758
_cell_angle_alpha   75.14625319
_cell_angle_beta   81.52458682
_cell_angle_gamma   74.57109235
_symmetry_Int_Tables_number   1
_chemical_formula_structural   Ti3Fe7O15
_chemical_formula_sum   'Ti6 Fe14 O30'
_cell_volume   534.22677684
_cell_formula_units_Z   2
loop_
 _symmetry_equiv_pos_site_id
 _symmetry_equiv_pos_as_xyz
  1  'x, y, z'
loop_
 _atom_site_type_symbol
 _atom_site_label
 _atom_site_symmetry_multiplicity
 _atom_site_fract_x
 _atom_site_fract_y
 _atom_site_fract_z
 _atom_site_occupancy
  Ti  Ti0  1  0.35360600  0.97206000  0.91232700  1
  Ti  Ti1  1  0.74900600  0.76589700  0.31379000  1
  Ti  Ti2  1  0.15677800  0.57324200  0.70944600  1
  Ti  Ti3  1  0.14822900  0.07060000  0.21112700  1
  Ti  Ti4  1  0.54462200  0.37214400  0.10894000  1
  Ti  Ti5  1  0.95087300  0.17356000  0.51843800  1
  Fe  Fe0  1  0.05704200  0.82984500  0.48701900  1
  Fe  Fe1  1  0.55880600  0.86704100  0.61208100  1
  Fe  Fe2  1  0.45999100  0.62796300  0.88512000  1
  Fe  Fe3  1  0.95419300  0.67407400  0.00891300  1
  Fe  Fe4  1  0.84712000  0.92904500  0.78944200  1
  Fe  Fe5  1  0.85782200  0.43043200  0.28361500  1
  Fe  Fe6  1  0.35242100  0.47011700  0.41264900  1
  Fe  Fe7  1  0.24935700  0.72815400  0.18742700  1
  Fe  Fe8  1  0.26074900  0.22781600  0.68405000  1
  Fe  Fe9  1  0.75283800  0.27244700  0.81215100  1
  Fe  Fe10  1  0.64575500  0.53079900  0.59051400  1
  Fe  Fe11  1  0.64510200  0.03006200  0.08811500  1
  Fe  Fe12  1  0.04616700  0.32797500  0.98495400  1
  Fe  Fe13  1  0.45153400  0.12995600  0.38825800  1
  O  O0  1  0.95406200  0.93755300  0.19272400  1
  O  O1  1  0.67304800  0.90547900  0.42021600  1
  O  O2  1  0.53296300  0.84267800  0.78680300  1
  O  O3  1  0.33506000  0.73587300  0.60162000  1
  O  O4  1  0.06490300  0.70578800  0.82602500  1
  O  O5  1  0.93332600  0.64482100  0.18328000  1
  O  O6  1  0.85373100  0.98649100  0.60930800  1
  O  O7  1  0.71860500  0.88309400  0.97002300  1
  O  O8  1  0.75020300  0.52294400  0.00231100  1
  O  O9  1  0.46862500  0.86498600  0.21381600  1
  O  O10  1  0.46997700  0.50431500  0.22093300  1
  O  O11  1  0.31975200  0.44070300  0.58396900  1
  O  O12  1  0.26071800  0.78345400  0.00987100  1
  O  O13  1  0.11435100  0.68301900  0.36471000  1
  O  O14  1  0.14780000  0.32653000  0.39667800  1
  O  O15  1  0.86750900  0.66742000  0.62324400  1
  O  O16  1  0.87134300  0.29592000  0.62718000  1
  O  O17  1  0.73662800  0.23642900  0.98769400  1
  O  O18  1  0.64621900  0.58916200  0.40325000  1
  O  O19  1  0.50898900  0.47618500  0.77537000  1
  O  O20  1  0.54774200  0.12684100  0.79943700  1
  O  O21  1  0.26453600  0.45777800  0.02201700  1
  O  O22  1  0.27652100  0.10730800  0.02510300  1
  O  O23  1  0.13795600  0.03969300  0.37486600  1
  O  O24  1  0.05232200  0.38455100  0.81047800  1
  O  O25  1  0.93012600  0.27018300  0.17054400  1
  O  O26  1  0.67019000  0.26124700  0.41795100  1
  O  O27  1  0.46280800  0.18000700  0.20833700  1
  O  O28  1  0.31719200  0.07689600  0.56334300  1
  O  O29  1  0.07078200  0.05942300  0.82052200  1
loop_
_geom_bond_atom_site_label_1
_geom_bond_atom_site_label_2
_geom_bond_distance
_geom_bond_site_symmetry_2
Fe0 O3 2.046988 1_555
Fe0 O23 2.108287 1_565
Fe0 O13 2.116900 1_555
Fe0 O15 2.205633 1_455
Fe0 O6 2.232116 1_455
Fe0 O1 2.233342 1_455
Fe1 O3 1.946048 1_555
Fe1 O28 1.988507 1_565
Fe1 O2 1.989723 1_555
Fe1 O15 2.100903 1_555
Fe1 O6 2.158362 1_555
Fe1 O1 2.206147 1_555
Fe2 O19 2.039442 1_555
Fe2 O2 2.074835 1_555
Fe2 O8 2.121816 1_556
Fe2 O12 2.241300 1_556
Fe2 O4 2.253667 1_555
Fe2 O21 2.269131 1_556
Fe3 O7 1.954983 1_554
Fe3 O5 1.981604 1_555
Fe3 O8 1.992850 1_555
Fe3 O4 2.106418 1_654
Fe3 O12 2.164489 1_655
Fe3 O21 2.199885 1_655
Fe4 O4 2.008982 1_655
Fe4 O29 2.028160 1_665
Fe4 O6 2.037007 1_555
Fe4 O2 2.078365 1_555
Fe4 O20 2.084983 1_565
Fe4 O7 2.100334 1_555
Fe5 O5 2.084378 1_555
Fe5 O14 2.089218 1_655
Fe5 O25 2.115178 1_555
Fe5 O26 2.226259 1_555
Fe5 O18 2.233331 1_555
Fe5 O10 2.234040 1_555
Fe6 O11 1.943542 1_555
Fe6 O14 1.974621 1_555
Fe6 O13 1.997393 1_555
Fe6 O18 2.134484 1_555
Fe6 O26 2.185462 1_555
Fe6 O10 2.209161 1_555
Fe7 O12 2.006322 1_555
Fe7 O10 2.017366 1_555
Fe7 O9 2.032555 1_555
Fe7 O13 2.074194 1_555
Fe7 O5 2.076129 1_455
Fe7 O0 2.133709 1_455
Fe8 O11 2.041381 1_555
Fe8 O20 2.092662 1_555
Fe8 O28 2.130016 1_555
Fe8 O16 2.218603 1_455
Fe8 O29 2.240560 1_555
Fe8 O24 2.274917 1_555
Fe9 O19 1.940358 1_555
Fe9 O20 1.978665 1_555
Fe9 O17 1.990487 1_555
Fe9 O24 2.138849 1_655
Fe9 O16 2.141804 1_555
Fe9 O29 2.207249 1_655
Fe10 O15 2.071976 1_555
Fe10 O16 2.105707 1_555
Fe10 O18 2.120515 1_555
Fe10 O19 2.160216 1_555
Fe10 O3 2.164005 1_555
Fe10 O11 2.170065 1_555
Fe11 O17 2.059358 1_554
Fe11 O7 2.069571 1_544
Fe11 O0 2.102513 1_545
Fe11 O9 2.123878 1_545
Fe11 O22 2.137216 1_555
Fe11 O27 2.148923 1_555
Fe12 O24 1.973059 1_555
Fe12 O22 2.020348 1_556
Fe12 O21 2.031677 1_556
Fe12 O17 2.068800 1_455
Fe12 O8 2.073399 1_456
Fe12 O25 2.142709 1_456
Fe13 O26 2.006267 1_555
Fe13 O1 2.023178 1_545
Fe13 O27 2.034437 1_555
Fe13 O28 2.053884 1_555
Fe13 O14 2.088642 1_555
Fe13 O23 2.129409 1_555
O0 Ti3 1.863688 1_665
O0 Ti1 2.228736 1_555
O1 Ti1 1.910102 1_555
O2 Ti0 2.075393 1_555
O3 Ti2 2.029421 1_555
O4 Ti2 1.956600 1_555
O5 Ti1 2.083643 1_555
O6 Ti5 1.898639 1_565
O7 Ti0 2.096542 1_555
O8 Ti4 2.045500 1_555
O9 Ti1 1.951514 1_555
O9 Ti3 2.177963 1_565
O10 Ti4 1.913095 1_555
O11 Ti2 2.074594 1_555
O12 Ti0 1.924179 1_554
O13 Ti1 2.068421 1_455
O14 Ti5 2.099254 1_455
O15 Ti2 1.893491 1_655
O16 Ti5 1.817387 1_555
O17 Ti4 2.088253 1_556
O18 Ti1 1.833269 1_555
O19 Ti2 2.075079 1_555
O20 Ti0 2.057104 1_545
O21 Ti4 1.852526 1_555
O22 Ti0 1.940128 1_544
O22 Ti3 2.158148 1_555
O23 Ti3 1.860987 1_555
O23 Ti5 2.276548 1_455
O24 Ti2 1.965276 1_555
O25 Ti3 1.854147 1_655
O25 Ti4 2.221238 1_555
O26 Ti5 1.950057 1_555
O27 Ti4 1.932416 1_555
O27 Ti3 2.194724 1_555
O28 Ti5 2.058331 1_455
O29 Ti0 1.898152 1_545
