# generated using pymatgen
data_MnAgO4
_symmetry_space_group_name_H-M   'P 1'
_cell_length_a   8.40932400
_cell_length_b   5.63414200
_cell_length_c   8.92128529
_cell_angle_alpha   53.38063974
_cell_angle_beta   90.00000000
_cell_angle_gamma   90.00000000
_symmetry_Int_Tables_number   1
_chemical_formula_structural   MnAgO4
_chemical_formula_sum   'Mn4 Ag4 O16'
_cell_volume   339.25331170
_cell_formula_units_Z   4
loop_
 _symmetry_equiv_pos_site_id
 _symmetry_equiv_pos_as_xyz
  1  'x, y, z'
loop_
 _atom_site_type_symbol
 _atom_site_label
 _atom_site_symmetry_multiplicity
 _atom_site_fract_x
 _atom_site_fract_y
 _atom_site_fract_z
 _atom_site_occupancy
  Mn  Mn0  1  0.68766700  0.40323900  0.83946100  1
  Mn  Mn1  1  0.81233300  0.40323900  0.33946100  1
  Mn  Mn2  1  0.18766700  0.59676100  0.66053900  1
  Mn  Mn3  1  0.31233300  0.59676100  0.16053900  1
  Ag  Ag0  1  0.96701400  0.91432800  0.83485800  1
  Ag  Ag1  1  0.53298600  0.91432800  0.33485800  1
  Ag  Ag2  1  0.46701400  0.08567200  0.66514200  1
  Ag  Ag3  1  0.03298600  0.08567200  0.16514200  1
  O  O0  1  0.85173000  0.20625200  0.90679500  1
  O  O1  1  0.72383200  0.73085000  0.78395400  1
  O  O2  1  0.44244200  0.76261500  0.99280600  1
  O  O3  1  0.94244200  0.23738500  0.50719400  1
  O  O4  1  0.05755800  0.76261500  0.49280600  1
  O  O5  1  0.27616800  0.26915000  0.21604600  1
  O  O6  1  0.55755800  0.23738500  0.00719400  1
  O  O7  1  0.38257800  0.56315900  0.34414300  1
  O  O8  1  0.11742200  0.56315900  0.84414300  1
  O  O9  1  0.14827000  0.79374800  0.09320500  1
  O  O10  1  0.88257800  0.43684100  0.15585700  1
  O  O11  1  0.22383200  0.26915000  0.71604600  1
  O  O12  1  0.77616800  0.73085000  0.28395400  1
  O  O13  1  0.35173000  0.79374800  0.59320500  1
  O  O14  1  0.61742200  0.43684100  0.65585700  1
  O  O15  1  0.64827000  0.20625200  0.40679500  1
loop_
_geom_bond_atom_site_label_1
_geom_bond_atom_site_label_2
_geom_bond_distance
_geom_bond_site_symmetry_2
Mn0 O6 1.625220 1_556
Mn0 O1 1.629195 1_555
Mn0 O14 1.642506 1_555
Mn0 O0 1.643386 1_555
Mn1 O3 1.625220 1_555
Mn1 O12 1.629195 1_555
Mn1 O10 1.642506 1_555
Mn1 O15 1.643386 1_555
Mn2 O4 1.625220 1_555
Mn2 O11 1.629195 1_555
Mn2 O8 1.642506 1_555
Mn2 O13 1.643386 1_555
Mn3 O2 1.625220 1_554
Mn3 O5 1.629195 1_555
Mn3 O7 1.642506 1_555
Mn3 O9 1.643386 1_555
Ag0 O0 2.305679 1_565
Ag0 O8 2.307757 1_655
Ag0 O3 2.356517 1_565
Ag0 O1 2.452940 1_555
Ag0 O9 2.495779 1_656
Ag0 O10 2.598368 1_556
Ag0 O11 2.693736 1_665
Ag1 O15 2.305679 1_565
Ag1 O7 2.307757 1_555
Ag1 O6 2.356517 1_565
Ag1 O12 2.452940 1_555
Ag1 O13 2.495779 1_555
Ag1 O14 2.598368 1_555
Ag1 O5 2.693736 1_565
Ag2 O13 2.305679 1_545
Ag2 O14 2.307757 1_555
Ag2 O2 2.356517 1_545
Ag2 O11 2.452940 1_555
Ag2 O15 2.495779 1_555
Ag2 O7 2.598368 1_555
Ag2 O1 2.693736 1_545
Ag3 O9 2.305679 1_545
Ag3 O10 2.307757 1_455
Ag3 O4 2.356517 1_545
Ag3 O5 2.452940 1_555
Ag3 O0 2.495779 1_454
Ag3 O8 2.598368 1_554
Ag3 O12 2.693736 1_445
