# generated using pymatgen
data_Pt4(O3F8)3
_symmetry_space_group_name_H-M   'P 1'
_cell_length_a   9.92629620
_cell_length_b   9.32298220
_cell_length_c   9.46130821
_cell_angle_alpha   108.53243018
_cell_angle_beta   107.29352417
_cell_angle_gamma   114.06680992
_symmetry_Int_Tables_number   1
_chemical_formula_structural   Pt4(O3F8)3
_chemical_formula_sum   'Pt4 O9 F24'
_cell_volume   659.44553153
_cell_formula_units_Z   1
loop_
 _symmetry_equiv_pos_site_id
 _symmetry_equiv_pos_as_xyz
  1  'x, y, z'
loop_
 _atom_site_type_symbol
 _atom_site_label
 _atom_site_symmetry_multiplicity
 _atom_site_fract_x
 _atom_site_fract_y
 _atom_site_fract_z
 _atom_site_occupancy
  Pt  Pt0  1  0.51052800  0.99875400  0.49193200  1
  Pt  Pt1  1  0.00709600  0.01479400  0.01591300  1
  Pt  Pt2  1  0.48999900  0.50046900  0.98709100  1
  Pt  Pt3  1  0.02505300  0.47153900  0.48650300  1
  O  O0  1  0.49659000  0.96141400  0.92893400  1
  O  O1  1  0.38954400  0.44222000  0.42379500  1
  O  O2  1  0.50936800  0.50727700  0.55846500  1
  O  O3  1  0.50653000  0.02802000  0.06628200  1
  O  O4  1  0.78971200  0.43145600  0.32976400  1
  O  O5  1  0.11954700  0.48786000  0.82773200  1
  O  O6  1  0.80149500  0.51333700  0.24897000  1
  O  O7  1  0.89723300  0.66439500  0.64449200  1
  O  O8  1  0.14662800  0.90689800  0.42533500  1
  F  F0  1  0.16005200  0.72623900  0.66897500  1
  F  F1  1  0.08424100  0.55788900  0.34209700  1
  F  F2  1  0.21711300  0.45821300  0.57418200  1
  F  F3  1  0.44246700  0.67836200  0.98476500  1
  F  F4  1  0.25324400  0.31439200  0.83122000  1
  F  F5  1  0.33596400  0.83566700  0.25844700  1
  F  F6  1  0.06095700  0.25684700  0.09622000  1
  F  F7  1  0.07675500  0.05677400  0.24534900  1
  F  F8  1  0.46828200  0.80203400  0.53482600  1
  F  F9  1  0.53450400  0.47092600  0.80022400  1
  F  F10  1  0.31629700  0.01907400  0.55641500  1
  F  F11  1  0.78039300  0.92684000  0.96990800  1
  F  F12  1  0.23109600  0.09314400  0.05588900  1
  F  F13  1  0.67750900  0.98539000  0.43919700  1
  F  F14  1  0.45547800  0.52165900  0.17864500  1
  F  F15  1  0.55536600  0.19998800  0.45381900  1
  F  F16  1  0.94609000  0.98369200  0.79220100  1
  F  F17  1  0.95171700  0.76959500  0.93233300  1
  F  F18  1  0.68224300  0.16580400  0.72702900  1
  F  F19  1  0.72505900  0.69277100  0.14057200  1
  F  F20  1  0.53532100  0.31946600  0.99193500  1
  F  F21  1  0.76862600  0.66281300  0.53806100  1
  F  F22  1  0.97538500  0.38461300  0.66253000  1
  F  F23  1  0.88852200  0.21757500  0.31215400  1
loop_
_geom_bond_atom_site_label_1
_geom_bond_atom_site_label_2
_geom_bond_distance
_geom_bond_site_symmetry_2
O0 O3 1.202021 1_566
O1 O2 1.193894 1_555
O4 O6 1.237753 1_555
O4 Pt3 2.161503 1_655
F0 Pt3 1.959111 1_555
F1 Pt3 1.910660 1_555
F2 Pt3 1.912215 1_555
F3 Pt2 1.904977 1_555
F4 Pt2 1.922326 1_555
F5 Pt0 1.906463 1_555
F6 Pt1 1.907917 1_555
F7 Pt1 1.921023 1_555
F8 Pt0 1.910817 1_555
F9 Pt2 1.910737 1_555
F10 O8 1.401935 1_545
F10 Pt0 2.247001 1_545
F11 Pt1 1.900414 1_666
F12 Pt1 1.902693 1_555
F13 Pt0 1.905879 1_555
F14 Pt2 1.907329 1_554
F15 Pt0 1.921540 1_545
F16 Pt1 1.906678 1_666
F17 Pt1 1.928928 1_666
F18 Pt0 1.912365 1_545
F19 Pt2 1.919877 1_554
F20 Pt2 1.925666 1_555
F21 O7 1.361923 1_555
F22 O5 1.416940 1_655
F22 Pt3 2.166521 1_655
F23 Pt3 1.932552 1_655
