# generated using pymatgen
data_Mg3V2O6
_symmetry_space_group_name_H-M   'P 1'
_cell_length_a   5.94293100
_cell_length_b   6.08008538
_cell_length_c   15.15351417
_cell_angle_alpha   90.91192324
_cell_angle_beta   90.58694975
_cell_angle_gamma   118.94754316
_symmetry_Int_Tables_number   1
_chemical_formula_structural   Mg3V2O6
_chemical_formula_sum   'Mg12 V8 O24'
_cell_volume   478.97930973
_cell_formula_units_Z   4
loop_
 _symmetry_equiv_pos_site_id
 _symmetry_equiv_pos_as_xyz
  1  'x, y, z'
loop_
 _atom_site_type_symbol
 _atom_site_label
 _atom_site_symmetry_multiplicity
 _atom_site_fract_x
 _atom_site_fract_y
 _atom_site_fract_z
 _atom_site_occupancy
  Mg  Mg0  1  0.68588500  0.86673700  0.85976600  1
  Mg  Mg1  1  0.54473600  0.57909400  0.00871500  1
  Mg  Mg2  1  0.00911700  0.50774700  0.62424600  1
  Mg  Mg3  1  0.67445200  0.34192600  0.82837700  1
  Mg  Mg4  1  0.35762300  0.21197300  0.19487900  1
  Mg  Mg5  1  0.19991600  0.90380400  0.33568600  1
  Mg  Mg6  1  0.99505000  0.99541200  0.50325300  1
  Mg  Mg7  1  0.65259100  0.81651900  0.68814300  1
  Mg  Mg8  1  0.33250600  0.67338200  0.17055200  1
  Mg  Mg9  1  0.96057000  0.42600400  0.36914700  1
  Mg  Mg10  1  0.83847700  0.67195400  0.17086700  1
  Mg  Mg11  1  0.27487000  0.07001600  0.01920000  1
  V  V0  1  0.17239400  0.34554900  0.82835900  1
  V  V1  1  0.49085500  0.99085200  0.50169200  1
  V  V2  1  0.34332300  0.17089200  0.66502400  1
  V  V3  1  0.17050200  0.83373000  0.83051900  1
  V  V4  1  0.65761100  0.81796000  0.33188000  1
  V  V5  1  0.49088000  0.48804100  0.49476900  1
  V  V6  1  0.99406500  0.48248200  0.00089600  1
  V  V7  1  0.82945000  0.16063000  0.16702600  1
  O  O0  1  0.33228600  0.66909300  0.91615700  1
  O  O1  1  0.84083000  0.66334400  0.91942100  1
  O  O2  1  0.01195200  0.51429300  0.75906700  1
  O  O3  1  0.87024100  0.21346200  0.90767600  1
  O  O4  1  0.64158300  0.32119000  0.58391200  1
  O  O5  1  0.49142600  0.49051800  0.75399700  1
  O  O6  1  0.33789600  0.17915800  0.89967700  1
  O  O7  1  0.19343800  0.33146400  0.58028900  1
  O  O8  1  0.50158400  0.99655300  0.75837200  1
  O  O9  1  0.32858900  0.15533300  0.43223000  1
  O  O10  1  0.18743500  0.86520500  0.58631900  1
  O  O11  1  0.00278500  0.99654300  0.75633600  1
  O  O12  1  0.79141300  0.10586700  0.42161700  1
  O  O13  1  0.00137400  0.00671600  0.24724100  1
  O  O14  1  0.65425300  0.81441600  0.56341100  1
  O  O15  1  0.82939100  0.67225700  0.41000100  1
  O  O16  1  0.49979200  0.99928700  0.25050300  1
  O  O17  1  0.66826600  0.84346700  0.09897700  1
  O  O18  1  0.32928800  0.67640500  0.41074400  1
  O  O19  1  0.52271800  0.54303700  0.24517800  1
  O  O20  1  0.13284200  0.77356700  0.08638600  1
  O  O21  1  0.99769000  0.49338200  0.24007800  1
  O  O22  1  0.17787000  0.33060200  0.07924700  1
  O  O23  1  0.64685200  0.32346900  0.08349700  1
loop_
_geom_bond_atom_site_label_1
_geom_bond_atom_site_label_2
_geom_bond_distance
_geom_bond_site_symmetry_2
Mg0 O3 1.967431 1_565
Mg0 O0 2.053096 1_555
Mg0 O1 2.077318 1_555
Mg0 O8 2.241511 1_555
Mg0 O11 2.299412 1_655
Mg0 O5 2.534407 1_555
Mg1 O17 1.939250 1_555
Mg1 O1 2.094765 1_554
Mg1 O0 2.125486 1_554
Mg1 O23 2.241222 1_555
Mg1 O22 2.255882 1_555
Mg2 O7 1.980189 1_555
Mg2 O4 1.995823 1_455
Mg2 O10 1.999902 1_555
Mg2 O2 2.042504 1_555
Mg3 O5 2.056282 1_555
Mg3 O2 2.065869 1_655
Mg3 O3 2.070970 1_555
Mg3 O6 2.075928 1_555
Mg3 O8 2.099712 1_545
Mg3 O1 2.171608 1_555
Mg4 O19 1.902478 1_555
Mg4 O16 2.043114 1_545
Mg4 O13 2.043940 1_555
Mg4 O23 2.287078 1_555
Mg4 O22 2.340828 1_555
Mg5 O9 1.959002 1_565
Mg5 O16 2.061249 1_555
Mg5 O13 2.070986 1_565
Mg5 O18 2.203984 1_555
Mg5 O15 2.280209 1_455
Mg5 O21 2.591631 1_455
Mg6 O14 2.014015 1_555
Mg6 O12 2.056324 1_565
Mg6 O9 2.060135 1_665
Mg6 O10 2.096855 1_655
Mg6 O7 2.119320 1_665
Mg6 O15 2.199361 1_555
Mg7 O14 1.890127 1_555
Mg7 O8 2.017308 1_555
Mg7 O5 2.021582 1_555
Mg7 O11 2.076541 1_655
Mg8 O19 2.013523 1_555
Mg8 O20 2.024625 1_555
Mg8 O21 2.058797 1_455
Mg8 O17 2.076045 1_555
Mg8 O16 2.091553 1_555
Mg8 O22 2.265082 1_555
Mg9 O12 1.898149 1_555
Mg9 O21 1.997172 1_555
Mg9 O18 2.056355 1_655
Mg9 O15 2.083993 1_555
Mg10 O19 2.012799 1_555
Mg10 O20 2.026268 1_655
Mg10 O21 2.045587 1_555
Mg10 O17 2.081386 1_555
Mg10 O13 2.100964 1_665
Mg10 O23 2.254599 1_555
Mg11 O20 1.897645 1_545
Mg11 O6 1.916409 1_554
Mg11 O22 2.125920 1_555
Mg11 O23 2.195777 1_555
O0 V3 2.134937 1_555
O0 V0 2.150375 1_555
O0 V6 2.206363 1_456
O1 V6 2.133646 1_556
O1 V3 2.204627 1_655
O2 V3 1.993235 1_555
O2 V0 2.006260 1_555
O3 V6 1.988061 1_556
O3 V0 1.998253 1_655
O4 V2 2.000035 1_555
O4 V1 2.131810 1_545
O4 V5 2.134096 1_555
O5 V0 2.024628 1_555
O5 V2 2.146071 1_555
O6 V0 2.033490 1_555
O6 V3 2.094031 1_545
O7 V5 2.041474 1_555
O7 V2 2.062432 1_555
O8 V3 2.059054 1_555
O8 V2 2.234881 1_565
O9 V5 1.987973 1_555
O9 V1 1.996064 1_545
O10 V2 1.993770 1_565
O10 V1 2.055424 1_555
O11 V3 2.050530 1_555
O11 V0 2.131487 1_565
O11 V2 2.271876 1_565
O12 V1 2.003541 1_545
O12 V4 2.024928 1_545
O13 V7 2.081717 1_455
O13 V4 2.228613 1_445
O14 V1 1.997542 1_555
O14 V5 2.002742 1_555
O15 V4 2.027921 1_555
O15 V5 2.206629 1_555
O16 V7 2.151871 1_565
O16 V4 2.153214 1_555
O17 V7 1.956502 1_565
O18 V4 2.104996 1_555
O18 V1 2.142091 1_555
O18 V5 2.222865 1_555
O19 V4 1.942752 1_555
O20 V6 1.995717 1_455
O21 V7 2.065475 1_555
O22 V6 2.107226 1_455
O22 V7 2.270155 1_455
O23 V7 2.193573 1_555
O23 V6 2.218019 1_555
