# generated using pymatgen
data_KV2P2H4O13
_symmetry_space_group_name_H-M   'P 1'
_cell_length_a   6.25666400
_cell_length_b   6.29715820
_cell_length_c   6.91683119
_cell_angle_alpha   89.93162679
_cell_angle_beta   105.92772158
_cell_angle_gamma   91.07055749
_symmetry_Int_Tables_number   1
_chemical_formula_structural   KV2P2H4O13
_chemical_formula_sum   'K1 V2 P2 H4 O13'
_cell_volume   262.00737899
_cell_formula_units_Z   1
loop_
 _symmetry_equiv_pos_site_id
 _symmetry_equiv_pos_as_xyz
  1  'x, y, z'
loop_
 _atom_site_type_symbol
 _atom_site_label
 _atom_site_symmetry_multiplicity
 _atom_site_fract_x
 _atom_site_fract_y
 _atom_site_fract_z
 _atom_site_occupancy
  K  K0  1  0.00000000  0.00000000  0.00000000  1
  V  V0  1  0.28620400  0.75497200  0.59807200  1
  V  V1  1  0.71379600  0.24502800  0.40192800  1
  P  P0  1  0.24973300  0.25009700  0.50125200  1
  P  P1  1  0.75026700  0.74990300  0.49874800  1
  H  H0  1  0.50673300  0.72454500  0.03587200  1
  H  H1  1  0.49326700  0.27545500  0.96412800  1
  H  H2  1  0.25354600  0.63622000  0.98322000  1
  H  H3  1  0.74645400  0.36378000  0.01678000  1
  O  O0  1  0.28780400  0.06072700  0.64919600  1
  O  O1  1  0.71219600  0.93927300  0.35080400  1
  O  O2  1  0.60467500  0.76899100  0.64705500  1
  O  O3  1  0.39532500  0.23100900  0.35294500  1
  O  O4  1  0.30686300  0.44966400  0.63582400  1
  O  O5  1  0.69313700  0.55033600  0.36417600  1
  O  O6  1  0.99108100  0.74713800  0.63608200  1
  O  O7  1  0.00891900  0.25286200  0.36391800  1
  O  O8  1  0.35915300  0.74004100  0.94311900  1
  O  O9  1  0.64084700  0.25995900  0.05688100  1
  O  O10  1  0.21597900  0.75999500  0.35611700  1
  O  O11  1  0.78402100  0.24000500  0.64388300  1
  O  O12  1  0.00000000  0.50000000  0.00000000  1
loop_
_geom_bond_atom_site_label_1
_geom_bond_atom_site_label_2
_geom_bond_distance
_geom_bond_site_symmetry_2
K0 O10 2.901402 1_545
K0 O11 2.901402 1_454
K0 O9 2.916891 1_455
K0 O8 2.916891 1_544
K0 O7 2.967122 1_555
K0 O6 2.967122 1_444
K0 O12 3.148579 1_555
K0 O12 3.148579 1_545
K0 O3 3.279273 1_555
K0 O2 3.279273 1_444
H0 O8 0.975600 1_554
H1 O9 0.975600 1_556
H2 O8 1.012404 1_555
H2 K0 2.831102 1_566
H3 O9 1.012404 1_555
H3 K0 2.831102 1_655
O0 P0 1.549144 1_555
O0 V0 1.957351 1_545
O1 P1 1.549144 1_555
O1 V1 1.957351 1_565
O2 P1 1.553631 1_555
O2 V0 1.927661 1_555
O3 P0 1.553631 1_555
O3 V1 1.927661 1_555
O4 P0 1.541714 1_555
O4 V0 1.941840 1_555
O5 P1 1.541714 1_555
O5 V1 1.941840 1_555
O6 P1 1.545373 1_555
O6 V0 1.934960 1_655
O7 P0 1.545373 1_555
O7 V1 1.934960 1_455
O8 V0 2.305727 1_555
O9 V1 2.305727 1_555
O10 V0 1.609867 1_555
O11 V1 1.609867 1_555
