# generated using pymatgen
data_Rb3(Cu4Se3)2
_symmetry_space_group_name_H-M   'P 1'
_cell_length_a   9.44663889
_cell_length_b   9.44663889
_cell_length_c   10.22797606
_cell_angle_alpha   73.56632284
_cell_angle_beta   73.56632284
_cell_angle_gamma   24.36568182
_symmetry_Int_Tables_number   1
_chemical_formula_structural   Rb3(Cu4Se3)2
_chemical_formula_sum   'Rb3 Cu8 Se6'
_cell_volume   360.44044100
_cell_formula_units_Z   1
loop_
 _symmetry_equiv_pos_site_id
 _symmetry_equiv_pos_as_xyz
  1  'x, y, z'
loop_
 _atom_site_type_symbol
 _atom_site_label
 _atom_site_symmetry_multiplicity
 _atom_site_fract_x
 _atom_site_fract_y
 _atom_site_fract_z
 _atom_site_occupancy
  Rb  Rb0  1  0.31021212  0.31021212  0.30385065  1
  Rb  Rb1  1  0.68978788  0.68978788  0.69614935  1
  Rb  Rb2  1  0.50000000  0.50000000  0.00000000  1
  Cu  Cu0  1  0.07679948  0.07679948  0.46896209  1
  Cu  Cu1  1  0.30187678  0.30187678  0.91290602  1
  Cu  Cu2  1  0.48142208  0.48142208  0.63595489  1
  Cu  Cu3  1  0.10585197  0.10585197  0.21841018  1
  Cu  Cu4  1  0.51857792  0.51857792  0.36404511  1
  Cu  Cu5  1  0.92320052  0.92320052  0.53103791  1
  Cu  Cu6  1  0.69812322  0.69812322  0.08709398  1
  Cu  Cu7  1  0.89414803  0.89414803  0.78158982  1
  Se  Se0  1  0.16136974  0.16136974  0.97916696  1
  Se  Se1  1  0.83863026  0.83863026  0.02083304  1
  Se  Se2  1  0.96513828  0.96513828  0.29060344  1
  Se  Se3  1  0.34649568  0.34649568  0.64983610  1
  Se  Se4  1  0.65350432  0.65350432  0.35016390  1
  Se  Se5  1  0.03486172  0.03486172  0.70939656  1
loop_
_geom_bond_atom_site_label_1
_geom_bond_atom_site_label_2
_geom_bond_distance
_geom_bond_site_symmetry_2
Rb0 Se1 3.427761 1_545
Rb0 Se1 3.427761 1_455
Rb0 Se4 3.432284 1_455
Rb0 Se4 3.432284 1_545
Rb0 Se2 3.457502 1_545
Rb0 Se2 3.457502 1_455
Rb0 Se3 3.787373 1_555
Rb1 Se0 3.427761 1_655
Rb1 Se0 3.427761 1_565
Rb1 Se3 3.432284 1_655
Rb1 Se3 3.432284 1_565
Rb1 Se5 3.457502 1_655
Rb1 Se5 3.457502 1_565
Rb1 Se4 3.787373 1_555
Rb2 Se5 3.480734 1_654
Rb2 Se5 3.480734 1_564
Rb2 Se2 3.480734 1_545
Rb2 Se2 3.480734 1_455
Rb2 Se1 3.540239 1_455
Rb2 Se1 3.540239 1_545
Rb2 Se0 3.540239 1_564
Rb2 Se0 3.540239 1_654
Cu0 Se5 2.354745 1_555
Cu0 Se4 2.541838 1_455
Cu0 Se4 2.541838 1_545
Cu1 Se1 2.467220 1_456
Cu1 Se1 2.467220 1_546
Cu1 Se0 2.484878 1_555
Cu1 Se3 2.575913 1_555
Cu2 Se5 2.437533 1_655
Cu2 Se5 2.437533 1_565
Cu2 Se3 2.454466 1_555
Cu3 Se0 2.363611 1_554
Cu3 Se2 2.487488 1_445
Cu3 Se4 2.692785 1_455
Cu3 Se4 2.692785 1_545
Cu4 Se2 2.437533 1_455
Cu4 Se2 2.437533 1_545
Cu4 Se4 2.454466 1_555
Cu5 Se2 2.354745 1_555
Cu5 Se3 2.541838 1_565
Cu5 Se3 2.541838 1_655
Cu6 Se0 2.467220 1_564
Cu6 Se0 2.467220 1_654
Cu6 Se1 2.484878 1_555
Cu6 Se4 2.575913 1_555
Cu7 Se1 2.363611 1_556
Cu7 Se5 2.487488 1_665
Cu7 Se3 2.692785 1_655
Cu7 Se3 2.692785 1_565
