# generated using pymatgen
data_ZnAu2(CN)4
_symmetry_space_group_name_H-M   'P 1'
_cell_length_a   8.51607140
_cell_length_b   8.51607140
_cell_length_c   20.90041100
_cell_angle_alpha   90.00000000
_cell_angle_beta   90.00000000
_cell_angle_gamma   119.99999534
_symmetry_Int_Tables_number   1
_chemical_formula_structural   ZnAu2(CN)4
_chemical_formula_sum   'Zn6 Au12 C24 N24'
_cell_volume   1312.69571176
_cell_formula_units_Z   6
loop_
 _symmetry_equiv_pos_site_id
 _symmetry_equiv_pos_as_xyz
  1  'x, y, z'
loop_
 _atom_site_type_symbol
 _atom_site_label
 _atom_site_symmetry_multiplicity
 _atom_site_fract_x
 _atom_site_fract_y
 _atom_site_fract_z
 _atom_site_occupancy
  Zn  Zn0  1  0.50000000  0.50000000  0.70860700  1
  Zn  Zn1  1  0.50000000  0.50000000  0.95806000  1
  Zn  Zn2  1  0.50000000  0.00000000  0.62472600  1
  Zn  Zn3  1  0.50000000  0.00000000  0.37527400  1
  Zn  Zn4  1  0.00000000  0.50000000  0.04194000  1
  Zn  Zn5  1  0.00000000  0.50000000  0.29139300  1
  Au  Au0  1  0.00581800  0.31934500  0.53922200  1
  Au  Au1  1  0.68647300  0.68065500  0.46077800  1
  Au  Au2  1  0.99418200  0.31352700  0.79411200  1
  Au  Au3  1  0.68065500  0.99418200  0.12744500  1
  Au  Au4  1  0.99418200  0.68065500  0.53922200  1
  Au  Au5  1  0.31352700  0.31934500  0.46077800  1
  Au  Au6  1  0.68065500  0.68647300  0.20588800  1
  Au  Au7  1  0.31934500  0.00581800  0.12744500  1
  Au  Au8  1  0.31934500  0.31352700  0.20588800  1
  Au  Au9  1  0.00581800  0.68647300  0.79411200  1
  Au  Au10  1  0.31352700  0.99418200  0.87255500  1
  Au  Au11  1  0.68647300  0.00581800  0.87255500  1
  C  C0  1  0.39351800  0.20950100  0.27735200  1
  C  C1  1  0.20950100  0.81598300  0.94401900  1
  C  C2  1  0.79049900  0.18401700  0.94401900  1
  C  C3  1  0.77674500  0.59720100  0.13671800  1
  C  C4  1  0.82045600  0.59720100  0.86328200  1
  C  C5  1  0.20950100  0.39351800  0.38931500  1
  C  C6  1  0.39351800  0.18401700  0.05598100  1
  C  C7  1  0.40279900  0.17954400  0.80338400  1
  C  C8  1  0.59720100  0.77674500  0.52994900  1
  C  C9  1  0.18401700  0.39351800  0.61068500  1
  C  C10  1  0.40279900  0.22325500  0.52994900  1
  C  C11  1  0.18401700  0.79049900  0.72264800  1
  C  C12  1  0.60648200  0.81598300  0.05598100  1
  C  C13  1  0.81598300  0.20950100  0.72264800  1
  C  C14  1  0.17954400  0.40279900  0.86328200  1
  C  C15  1  0.22325500  0.40279900  0.13671800  1
  C  C16  1  0.81598300  0.60648200  0.61068500  1
  C  C17  1  0.82045600  0.22325500  0.47005100  1
  C  C18  1  0.77674500  0.17954400  0.19661600  1
  C  C19  1  0.22325500  0.82045600  0.19661600  1
  C  C20  1  0.17954400  0.77674500  0.47005100  1
  C  C21  1  0.59720100  0.82045600  0.80338400  1
  C  C22  1  0.60648200  0.79049900  0.27735200  1
  C  C23  1  0.79049900  0.60648200  0.38931500  1
  N  N0  1  0.55301200  0.71077100  0.76338300  1
  N  N1  1  0.71077100  0.55301200  0.90328400  1
  N  N2  1  0.43414700  0.29132300  0.01537700  1
  N  N3  1  0.29132300  0.43414700  0.65129000  1
  N  N4  1  0.44698800  0.28922900  0.76338300  1
  N  N5  1  0.56585300  0.70867700  0.01537700  1
  N  N6  1  0.15775900  0.44698800  0.09671600  1
  N  N7  1  0.28922900  0.44698800  0.90328400  1
  N  N8  1  0.29132300  0.85717700  0.68204400  1
  N  N9  1  0.43414700  0.14282300  0.31795600  1
  N  N10  1  0.14282300  0.43414700  0.34871000  1
  N  N11  1  0.71077100  0.15775900  0.43004900  1
  N  N12  1  0.15775900  0.71077100  0.23661700  1
  N  N13  1  0.28922900  0.84224100  0.43004900  1
  N  N14  1  0.70867700  0.56585300  0.65129000  1
  N  N15  1  0.84224100  0.55301200  0.09671600  1
  N  N16  1  0.84224100  0.28922900  0.23661700  1
  N  N17  1  0.55301200  0.84224100  0.56995100  1
  N  N18  1  0.44698800  0.15775900  0.56995100  1
  N  N19  1  0.70867700  0.14282300  0.68204400  1
  N  N20  1  0.85717700  0.56585300  0.34871000  1
  N  N21  1  0.85717700  0.29132300  0.98462300  1
  N  N22  1  0.56585300  0.85717700  0.31795600  1
  N  N23  1  0.14282300  0.70867700  0.98462300  1
loop_
_geom_bond_atom_site_label_1
_geom_bond_atom_site_label_2
_geom_bond_distance
_geom_bond_site_symmetry_2
Au0 C17 1.989919 1_455
Au0 C9 1.993552 1_555
Au1 C8 1.989919 1_555
Au1 C23 1.993552 1_555
Au2 C14 1.989904 1_655
Au2 C13 1.993567 1_555
Au3 C18 1.989919 1_565
Au3 C12 1.993567 1_555
Au4 C20 1.989919 1_655
Au4 C16 1.993552 1_555
Au5 C10 1.989919 1_555
Au5 C5 1.993552 1_555
Au6 C3 1.989904 1_555
Au6 C22 1.993567 1_555
Au7 C19 1.989919 1_545
Au7 C6 1.993567 1_555
Au8 C15 1.989904 1_555
Au8 C0 1.993567 1_555
Au9 C4 1.989904 1_455
Au9 C11 1.993567 1_555
Au10 C7 1.989919 1_565
Au10 C1 1.993567 1_555
Au11 C21 1.989919 1_545
Au11 C2 1.993567 1_555
C0 N9 1.165681 1_555
C1 N23 1.165677 1_555
C2 N21 1.165677 1_555
C3 N15 1.166881 1_555
C4 N1 1.166881 1_555
C5 N10 1.165696 1_555
C6 N2 1.165676 1_555
C7 N4 1.166866 1_555
C8 N17 1.166881 1_555
C9 N3 1.165691 1_555
C10 N18 1.166881 1_555
C11 N8 1.165677 1_555
C12 N5 1.165676 1_555
C13 N19 1.165677 1_555
C14 N7 1.166881 1_555
C15 N6 1.166881 1_555
C16 N14 1.165691 1_555
C17 N11 1.166881 1_555
C18 N16 1.166866 1_555
C19 N12 1.166866 1_555
C20 N13 1.166881 1_555
C21 N0 1.166866 1_555
C22 N22 1.165681 1_555
C23 N20 1.165696 1_555
N0 Zn0 1.981401 1_555
N1 Zn1 1.981401 1_555
N2 Zn1 1.977646 1_554
N3 Zn0 1.977646 1_555
N4 Zn0 1.981401 1_555
N5 Zn1 1.977646 1_554
N6 Zn4 1.981401 1_555
N7 Zn1 1.981401 1_555
N8 Zn2 1.977657 1_565
N9 Zn3 1.977652 1_555
N10 Zn5 1.977640 1_555
N11 Zn3 1.981389 1_555
N12 Zn5 1.981401 1_555
N13 Zn3 1.981389 1_565
N14 Zn0 1.977646 1_555
N15 Zn4 1.981401 1_655
N16 Zn5 1.981401 1_655
N17 Zn2 1.981389 1_565
N18 Zn2 1.981389 1_555
N19 Zn2 1.977657 1_555
N20 Zn5 1.977640 1_655
N21 Zn4 1.977645 1_656
N22 Zn3 1.977652 1_565
N23 Zn4 1.977645 1_556
