# generated using pymatgen
data_Cs2HgBr4
_symmetry_space_group_name_H-M   'P 1'
_cell_length_a   7.97773399
_cell_length_b   10.38992449
_cell_length_c   14.09203799
_cell_angle_alpha   90.00000000
_cell_angle_beta   90.00000000
_cell_angle_gamma   90.00000000
_symmetry_Int_Tables_number   1
_chemical_formula_structural   Cs2HgBr4
_chemical_formula_sum   'Cs8 Hg4 Br16'
_cell_volume   1168.06160247
_cell_formula_units_Z   4
loop_
 _symmetry_equiv_pos_site_id
 _symmetry_equiv_pos_as_xyz
  1  'x, y, z'
loop_
 _atom_site_type_symbol
 _atom_site_label
 _atom_site_symmetry_multiplicity
 _atom_site_fract_x
 _atom_site_fract_y
 _atom_site_fract_z
 _atom_site_occupancy
  Cs  Cs0  1  0.25000000  0.98219584  0.16914454  1
  Cs  Cs1  1  0.75000000  0.38613671  0.08053347  1
  Cs  Cs2  1  0.75000000  0.51780416  0.66914454  1
  Cs  Cs3  1  0.25000000  0.11386329  0.58053347  1
  Cs  Cs4  1  0.25000000  0.61386329  0.91946653  1
  Cs  Cs5  1  0.25000000  0.48219584  0.33085546  1
  Cs  Cs6  1  0.75000000  0.88613671  0.41946653  1
  Cs  Cs7  1  0.75000000  0.01780416  0.83085546  1
  Hg  Hg0  1  0.25000000  0.71903679  0.57708857  1
  Hg  Hg1  1  0.75000000  0.28096321  0.42291143  1
  Hg  Hg2  1  0.25000000  0.21903679  0.92291143  1
  Hg  Hg3  1  0.75000000  0.78096321  0.07708857  1
  Br  Br0  1  0.25000000  0.96902630  0.90372631  1
  Br  Br1  1  0.25000000  0.32130271  0.09681639  1
  Br  Br2  1  0.51828103  0.32716341  0.84728445  1
  Br  Br3  1  0.75000000  0.17869729  0.59681639  1
  Br  Br4  1  0.25000000  0.46902630  0.59627369  1
  Br  Br5  1  0.98171897  0.82716341  0.65271555  1
  Br  Br6  1  0.48171897  0.17283659  0.34728445  1
  Br  Br7  1  0.01828103  0.17283659  0.34728445  1
  Br  Br8  1  0.98171897  0.32716341  0.84728445  1
  Br  Br9  1  0.01828103  0.67283659  0.15271555  1
  Br  Br10  1  0.75000000  0.67869729  0.90318361  1
  Br  Br11  1  0.25000000  0.82130271  0.40318361  1
  Br  Br12  1  0.75000000  0.03097370  0.09627369  1
  Br  Br13  1  0.51828103  0.82716341  0.65271555  1
  Br  Br14  1  0.75000000  0.53097370  0.40372631  1
  Br  Br15  1  0.48171897  0.67283659  0.15271555  1
loop_
_geom_bond_atom_site_label_1
_geom_bond_atom_site_label_2
_geom_bond_distance
_geom_bond_site_symmetry_2
Br0 Hg2 2.611622 1_565
Br0 Cs4 3.696777 1_555
Br0 Cs0 3.742786 1_556
Br0 Cs7 4.149991 1_565
Br0 Cs7 4.149991 1_465
Br1 Hg2 2.671103 1_554
Br1 Cs0 3.667762 1_545
Br1 Cs5 3.697547 1_555
Br1 Cs4 3.935197 1_554
Br1 Cs1 4.051848 1_555
Br1 Cs1 4.051848 1_455
Br2 Hg2 2.641716 1_555
Br2 Cs2 3.693578 1_555
Br2 Cs7 3.715118 1_555
Br2 Cs4 3.806396 1_555
Br2 Cs1 3.820575 1_556
Br3 Hg1 2.671103 1_555
Br3 Cs2 3.667762 1_555
Br3 Cs7 3.697547 1_555
Br3 Cs6 3.935197 1_545
Br3 Cs3 4.051848 1_555
Br3 Cs3 4.051848 1_655
Br4 Hg0 2.611622 1_555
Br4 Cs3 3.696777 1_555
Br4 Cs5 3.742786 1_555
Br4 Cs2 4.149991 1_555
Br4 Cs2 4.149991 1_455
Br5 Hg0 2.641716 1_655
Br5 Cs7 3.693578 1_565
Br5 Cs2 3.715118 1_555
Br5 Cs3 3.806396 1_665
Br5 Cs6 3.820575 1_555
Br6 Hg1 2.641716 1_555
Br6 Cs0 3.693578 1_545
Br6 Cs5 3.715118 1_555
Br6 Cs6 3.806396 1_545
Br6 Cs3 3.820575 1_555
Br7 Hg1 2.641716 1_455
Br7 Cs0 3.693578 1_545
Br7 Cs5 3.715118 1_555
Br7 Cs6 3.806396 1_445
Br7 Cs3 3.820575 1_555
Br8 Hg2 2.641716 1_655
Br8 Cs2 3.693578 1_555
Br8 Cs7 3.715118 1_555
Br8 Cs4 3.806396 1_655
Br8 Cs1 3.820575 1_556
Br9 Hg3 2.641716 1_455
Br9 Cs5 3.693578 1_555
Br9 Cs0 3.715118 1_555
Br9 Cs1 3.806396 1_455
Br9 Cs4 3.820575 1_554
Br10 Hg3 2.671103 1_556
Br10 Cs7 3.667762 1_565
Br10 Cs2 3.697547 1_555
Br10 Cs1 3.935197 1_556
Br10 Cs4 4.051848 1_655
Br10 Cs4 4.051848 1_555
Br11 Hg0 2.671103 1_555
Br11 Cs5 3.667762 1_555
Br11 Cs0 3.697547 1_555
Br11 Cs3 3.935197 1_565
Br11 Cs6 4.051848 1_555
Br11 Cs6 4.051848 1_455
Br12 Hg3 2.611622 1_545
Br12 Cs1 3.696777 1_555
Br12 Cs7 3.742786 1_554
Br12 Cs0 4.149991 1_545
Br12 Cs0 4.149991 1_645
Br13 Hg0 2.641716 1_555
Br13 Cs7 3.693578 1_565
Br13 Cs2 3.715118 1_555
Br13 Cs3 3.806396 1_565
Br13 Cs6 3.820575 1_555
Br14 Hg1 2.611622 1_555
Br14 Cs6 3.696777 1_555
Br14 Cs2 3.742786 1_555
Br14 Cs5 4.149991 1_655
Br14 Cs5 4.149991 1_555
Br15 Hg3 2.641716 1_555
Br15 Cs5 3.693578 1_555
Br15 Cs0 3.715118 1_555
Br15 Cs1 3.806396 1_555
Br15 Cs4 3.820575 1_554
