# generated using pymatgen
data_BePH3O5
_symmetry_space_group_name_H-M   'P 1'
_cell_length_a   5.16851200
_cell_length_b   8.70517600
_cell_length_c   8.94835400
_cell_angle_alpha   90.00000000
_cell_angle_beta   90.00000000
_cell_angle_gamma   90.00000000
_symmetry_Int_Tables_number   1
_chemical_formula_structural   BePH3O5
_chemical_formula_sum   'Be4 P4 H12 O20'
_cell_volume   402.61156107
_cell_formula_units_Z   4
loop_
 _symmetry_equiv_pos_site_id
 _symmetry_equiv_pos_as_xyz
  1  'x, y, z'
loop_
 _atom_site_type_symbol
 _atom_site_label
 _atom_site_symmetry_multiplicity
 _atom_site_fract_x
 _atom_site_fract_y
 _atom_site_fract_z
 _atom_site_occupancy
  Be  Be0  1  0.51549600  0.16653800  0.89930800  1
  Be  Be1  1  0.01549600  0.33346200  0.39930800  1
  Be  Be2  1  0.51549600  0.66653800  0.60069200  1
  Be  Be3  1  0.01549600  0.83346200  0.10069200  1
  P  P0  1  0.98102500  0.18732100  0.08332400  1
  P  P1  1  0.48102500  0.31267900  0.58332400  1
  P  P2  1  0.98102500  0.68732100  0.41667600  1
  P  P3  1  0.48102500  0.81267900  0.91667600  1
  H  H0  1  0.23478800  0.01476700  0.72319800  1
  H  H1  1  0.01119700  0.05848800  0.61527500  1
  H  H2  1  0.67162500  0.15777300  0.42116800  1
  H  H3  1  0.17162500  0.34222700  0.92116800  1
  H  H4  1  0.51119700  0.44151200  0.11527500  1
  H  H5  1  0.73478800  0.48523300  0.22319800  1
  H  H6  1  0.23478800  0.51476700  0.77680200  1
  H  H7  1  0.01119700  0.55848800  0.88472500  1
  H  H8  1  0.67162500  0.65777300  0.07883200  1
  H  H9  1  0.17162500  0.84222700  0.57883200  1
  H  H10  1  0.51119700  0.94151200  0.38472500  1
  H  H11  1  0.73478800  0.98523300  0.27680200  1
  O  O0  1  0.08715900  0.97140000  0.66903700  1
  O  O1  1  0.00213800  0.01517400  0.10304100  1
  O  O2  1  0.74575800  0.23842900  0.99303800  1
  O  O3  1  0.22894200  0.24480600  0.98498300  1
  O  O4  1  0.49008300  0.22799700  0.73151700  1
  O  O5  1  0.99008300  0.27200300  0.23151700  1
  O  O6  1  0.72894200  0.25519400  0.48498300  1
  O  O7  1  0.24575800  0.26157100  0.49303800  1
  O  O8  1  0.50213800  0.48482600  0.60304100  1
  O  O9  1  0.58715900  0.52860000  0.16903700  1
  O  O10  1  0.08715900  0.47140000  0.83096300  1
  O  O11  1  0.00213800  0.51517400  0.39695900  1
  O  O12  1  0.74575800  0.73842900  0.50696200  1
  O  O13  1  0.22894200  0.74480600  0.51501700  1
  O  O14  1  0.49008300  0.72799700  0.76848300  1
  O  O15  1  0.99008300  0.77200300  0.26848300  1
  O  O16  1  0.72894200  0.75519400  0.01501700  1
  O  O17  1  0.24575800  0.76157100  0.00696200  1
  O  O18  1  0.50213800  0.98482600  0.89695900  1
  O  O19  1  0.58715900  0.02860000  0.33096300  1
loop_
_geom_bond_atom_site_label_1
_geom_bond_atom_site_label_2
_geom_bond_distance
_geom_bond_site_symmetry_2
Be0 O18 1.583480 1_545
Be0 O2 1.584768 1_555
Be0 O4 1.599328 1_555
Be0 O3 1.801528 1_555
Be1 O11 1.583480 1_555
Be1 O7 1.584768 1_555
Be1 O5 1.599328 1_455
Be1 O6 1.801528 1_455
Be2 O8 1.583480 1_555
Be2 O12 1.584768 1_555
Be2 O14 1.599328 1_555
Be2 O13 1.801528 1_555
Be3 O1 1.583480 1_565
Be3 O17 1.584768 1_555
Be3 O15 1.599328 1_455
Be3 O16 1.801528 1_455
H0 O0 0.979597 1_545
H1 O0 0.979961 1_545
H2 O6 1.064455 1_555
H2 O19 1.451406 1_555
H3 O3 1.064455 1_555
H3 O10 1.451406 1_555
H4 O9 0.979961 1_555
H5 O9 0.979597 1_555
H6 O10 0.979597 1_555
H7 O10 0.979961 1_555
H8 O16 1.064455 1_555
H8 O9 1.451406 1_555
H9 O13 1.064455 1_555
H9 O0 1.451406 1_555
H10 O19 0.979961 1_565
H11 O19 0.979597 1_565
O1 P0 1.512861 1_455
O2 P0 1.526194 1_556
O3 P0 1.633000 1_456
O4 P1 1.517930 1_555
O5 P0 1.517930 1_555
O6 P1 1.633000 1_555
O7 P1 1.526194 1_555
O8 P1 1.512861 1_555
O11 P2 1.512861 1_455
O12 P2 1.526194 1_555
O13 P2 1.633000 1_455
O14 P3 1.517930 1_555
O15 P2 1.517930 1_555
O16 P3 1.633000 1_554
O17 P3 1.526194 1_554
O18 P3 1.512861 1_555
