# generated using pymatgen
data_Na2SrLa2Ti5O15
_symmetry_space_group_name_H-M   'P 1'
_cell_length_a   19.92554262
_cell_length_b   19.92554262
_cell_length_c   5.52378409
_cell_angle_alpha   82.21772694
_cell_angle_beta   82.21772694
_cell_angle_gamma   15.95458915
_symmetry_Int_Tables_number   1
_chemical_formula_structural   Na2SrLa2Ti5O15
_chemical_formula_sum   'Na4 Sr2 La4 Ti10 O30'
_cell_volume   597.16554575
_cell_formula_units_Z   2
loop_
 _symmetry_equiv_pos_site_id
 _symmetry_equiv_pos_as_xyz
  1  'x, y, z'
loop_
 _atom_site_type_symbol
 _atom_site_label
 _atom_site_symmetry_multiplicity
 _atom_site_fract_x
 _atom_site_fract_y
 _atom_site_fract_z
 _atom_site_occupancy
  Na  Na0  1  0.74879900  0.05159500  0.59870800  1
  Na  Na1  1  0.15258600  0.44746900  0.19854000  1
  Na  Na2  1  0.55253100  0.84741400  0.80146000  1
  Na  Na3  1  0.94840500  0.25120100  0.40129200  1
  Sr  Sr0  1  0.35009100  0.64990900  0.00000000  1
  Sr  Sr1  1  0.85167900  0.14832100  0.50000000  1
  La  La0  1  0.05422500  0.34670600  0.30786100  1
  La  La1  1  0.44945700  0.75215400  0.90347700  1
  La  La2  1  0.24784600  0.55054300  0.09652300  1
  La  La3  1  0.65329400  0.94577500  0.69213900  1
  Ti  Ti0  1  0.00376600  0.29835700  0.85461900  1
  Ti  Ti1  1  0.39948800  0.70289900  0.45201100  1
  Ti  Ti2  1  0.79937700  0.09966300  0.04950000  1
  Ti  Ti3  1  0.20277400  0.49775600  0.64670100  1
  Ti  Ti4  1  0.60541700  0.89590300  0.25382800  1
  Ti  Ti5  1  0.70164300  0.99623400  0.14538100  1
  Ti  Ti6  1  0.10409700  0.39458300  0.74617200  1
  Ti  Ti7  1  0.50224400  0.79722600  0.35329900  1
  Ti  Ti8  1  0.90033700  0.20062300  0.95050000  1
  Ti  Ti9  1  0.29710100  0.60051200  0.54798900  1
  O  O0  1  0.03673800  0.86955100  0.78569300  1
  O  O1  1  0.38538800  0.61461200  0.50000000  1
  O  O2  1  0.42302100  0.28684200  0.36957200  1
  O  O3  1  0.07313000  0.83065600  0.27932300  1
  O  O4  1  0.79745600  0.00054400  0.10160400  1
  O  O5  1  0.31287400  0.17574800  0.03723100  1
  O  O6  1  0.82425200  0.68712600  0.96276900  1
  O  O7  1  0.47349500  0.23311600  0.87679200  1
  O  O8  1  0.00539400  0.39470600  0.79413300  1
  O  O9  1  0.20204600  0.39719300  0.70199600  1
  O  O10  1  0.71315800  0.57697900  0.63042800  1
  O  O11  1  0.36746300  0.12361400  0.53056600  1
  O  O12  1  0.22643300  0.08356000  0.56610700  1
  O  O13  1  0.87638600  0.63253700  0.46943400  1
  O  O14  1  0.40654400  0.79401300  0.39352000  1
  O  O15  1  0.60280700  0.79795400  0.29800400  1
  O  O16  1  0.13044900  0.96326200  0.21430700  1
  O  O17  1  0.76688400  0.52650500  0.12320800  1
  O  O18  1  0.62980100  0.47973500  0.16832300  1
  O  O19  1  0.27632400  0.03334900  0.07134300  1
  O  O20  1  0.81789700  0.18210300  0.00000000  1
  O  O21  1  0.99945600  0.20254400  0.89839600  1
  O  O22  1  0.52026500  0.37019900  0.83167700  1
  O  O23  1  0.16934400  0.92687000  0.72067700  1
  O  O24  1  0.66623400  0.44300600  0.68162800  1
  O  O25  1  0.20598700  0.59345600  0.60648000  1
  O  O26  1  0.91644000  0.77356700  0.43389300  1
  O  O27  1  0.55699400  0.33376600  0.31837200  1
  O  O28  1  0.60529400  0.99460600  0.20586700  1
  O  O29  1  0.96665100  0.72367600  0.92865700  1
loop_
_geom_bond_atom_site_label_1
_geom_bond_atom_site_label_2
_geom_bond_distance
_geom_bond_site_symmetry_2
Na0 O25 2.531526 1_645
Na0 O27 2.557411 1_555
Na0 O7 2.569565 1_555
Na0 O26 2.763088 1_545
Na0 O4 2.766526 1_555
Na0 O0 2.777136 1_645
Na0 O22 2.780203 1_555
Na0 O4 2.785504 1_556
Na0 O2 2.796147 1_555
Na0 O3 2.926453 1_645
Na0 O25 2.999754 1_555
Na0 O29 3.038784 1_545
Na1 O28 2.504480 1_545
Na1 O29 2.510469 1_454
Na1 O13 2.522706 1_455
Na1 O2 2.751054 1_555
Na1 O5 2.755345 1_555
Na1 O9 2.758870 1_554
Na1 O9 2.792479 1_555
Na1 O6 2.801464 1_454
Na1 O26 2.808744 1_455
Na2 O8 2.504480 1_655
Na2 O19 2.510469 1_566
Na2 O11 2.522706 1_565
Na2 O10 2.751054 1_555
Na2 O6 2.755345 1_555
Na2 O15 2.758870 1_556
Na2 O15 2.792479 1_555
Na2 O5 2.801464 1_566
Na2 O12 2.808744 1_565
Na3 O14 2.531526 1_645
Na3 O24 2.557411 1_555
Na3 O17 2.569565 1_555
Na3 O12 2.763088 1_655
Na3 O21 2.766526 1_555
Na3 O16 2.777136 1_645
Na3 O18 2.780203 1_555
Na3 O21 2.785504 1_554
Na3 O10 2.796147 1_555
Na3 O23 2.926453 1_645
Na3 O14 2.999754 1_555
Na3 O19 3.038784 1_655
La0 O5 2.435749 1_555
La0 O12 2.450360 1_555
La0 O15 2.496730 1_455
La0 O8 2.697193 1_555
La0 O11 2.734147 1_555
La0 O13 2.738920 1_455
La0 O19 2.790241 1_555
La0 O17 2.793609 1_455
La0 O8 2.852606 1_554
La0 O15 3.034934 1_545
La0 O10 3.063560 1_455
La0 O6 3.120144 1_454
La1 O10 2.465509 1_555
La1 O21 2.489991 1_465
La1 O18 2.506390 1_556
La1 O14 2.714268 1_556
La1 O23 2.738833 1_555
La1 O19 2.743330 1_566
La1 O24 2.747721 1_555
La1 O17 2.758513 1_556
La1 O14 2.829539 1_555
La1 O16 2.937770 1_556
La1 O21 3.040856 1_555
La1 O12 3.050808 1_565
La2 O2 2.465509 1_555
La2 O4 2.489991 1_465
La2 O22 2.506390 1_554
La2 O25 2.714268 1_554
La2 O3 2.738833 1_555
La2 O29 2.743330 1_454
La2 O27 2.747721 1_555
La2 O7 2.758513 1_554
La2 O25 2.829539 1_555
La2 O0 2.937770 1_554
La2 O4 3.040856 1_555
La2 O26 3.050808 1_455
La3 O6 2.435749 1_555
La3 O26 2.450360 1_555
La3 O9 2.496730 1_565
La3 O28 2.697193 1_555
La3 O13 2.734147 1_555
La3 O11 2.738920 1_565
La3 O29 2.790241 1_555
La3 O7 2.793609 1_565
La3 O28 2.852606 1_556
La3 O9 3.034934 1_655
La3 O2 3.063560 1_565
La3 O5 3.120144 1_566
O0 Ti2 1.938553 1_466
O0 Ti9 1.989460 1_555
O0 Sr1 2.599413 1_465
O0 Sr0 2.755310 1_556
O1 Ti1 2.011917 1_555
O1 Ti9 2.011917 1_555
O1 Sr1 2.578850 1_555
O1 Sr0 2.768782 1_555
O1 Sr0 2.768782 1_556
O1 Sr1 2.951710 1_465
O2 Ti3 1.929172 1_555
O2 Ti5 2.036506 1_545
O3 Ti9 1.935132 1_555
O3 Ti2 1.976245 1_465
O3 Sr0 2.605006 1_555
O3 Sr1 2.818834 1_465
O4 Ti5 1.973636 1_545
O4 Ti2 1.993332 1_555
O5 Ti6 1.983736 1_554
O5 Ti4 2.020277 1_545
O6 Ti4 1.983736 1_556
O6 Ti6 2.020277 1_655
O7 Ti5 1.953092 1_546
O7 Ti3 1.965485 1_555
O8 Ti0 1.934282 1_555
O8 Ti6 1.946264 1_555
O9 Ti6 1.983456 1_555
O9 Ti3 1.999388 1_555
O10 Ti7 1.929172 1_555
O10 Ti0 2.036506 1_655
O11 Ti6 1.916512 1_555
O11 Ti4 1.987778 1_545
O12 Ti7 1.976895 1_545
O12 Ti0 1.989886 1_555
O13 Ti4 1.916512 1_555
O13 Ti6 1.987778 1_655
O14 Ti1 1.933871 1_555
O14 Ti7 1.950845 1_555
O15 Ti4 1.983456 1_555
O15 Ti7 1.999388 1_555
O16 Ti8 1.938553 1_464
O16 Ti1 1.989460 1_555
O16 Sr1 2.599413 1_465
O16 Sr0 2.755310 1_555
O17 Ti0 1.953092 1_654
O17 Ti7 1.965485 1_555
O18 Ti8 1.960157 1_554
O18 Ti1 1.996880 1_555
O18 Sr0 2.762893 1_555
O18 Sr1 3.047372 1_555
O19 Ti0 1.927135 1_554
O19 Ti7 2.003233 1_545
O20 Ti8 1.981405 1_554
O20 Ti2 1.981405 1_555
O20 Sr0 2.587229 1_555
O20 Sr1 2.768204 1_555
O20 Sr1 2.768204 1_554
O20 Sr0 2.943331 1_645
O21 Ti0 1.973636 1_655
O21 Ti8 1.993332 1_555
O22 Ti2 1.960157 1_556
O22 Ti9 1.996880 1_555
O22 Sr0 2.762893 1_556
O22 Sr1 3.047372 1_555
O23 Ti1 1.935132 1_555
O23 Ti8 1.976245 1_465
O23 Sr0 2.605006 1_556
O23 Sr1 2.818834 1_465
O24 Ti1 1.948008 1_555
O24 Ti8 1.975410 1_555
O24 Sr1 2.829729 1_555
O24 Sr0 2.965581 1_556
O25 Ti9 1.933871 1_555
O25 Ti3 1.950845 1_555
O26 Ti3 1.976895 1_655
O26 Ti5 1.989886 1_555
O27 Ti9 1.948008 1_555
O27 Ti2 1.975410 1_555
O27 Sr1 2.829729 1_555
O27 Sr0 2.965581 1_555
O28 Ti5 1.934282 1_555
O28 Ti4 1.946264 1_555
O29 Ti5 1.927135 1_556
O29 Ti3 2.003233 1_655
