# generated using pymatgen
data_Ge7H18O23
_symmetry_space_group_name_H-M   'P 1'
_cell_length_a   7.66870700
_cell_length_b   7.76648130
_cell_length_c   7.95282103
_cell_angle_alpha   90.07157807
_cell_angle_beta   91.03678555
_cell_angle_gamma   90.25229761
_symmetry_Int_Tables_number   1
_chemical_formula_structural   Ge7H18O23
_chemical_formula_sum   'Ge7 H18 O23'
_cell_volume   473.57847399
_cell_formula_units_Z   1
loop_
 _symmetry_equiv_pos_site_id
 _symmetry_equiv_pos_as_xyz
  1  'x, y, z'
loop_
 _atom_site_type_symbol
 _atom_site_label
 _atom_site_symmetry_multiplicity
 _atom_site_fract_x
 _atom_site_fract_y
 _atom_site_fract_z
 _atom_site_occupancy
  Ge  Ge0  1  0.86271100  0.15028500  0.87714900  1
  Ge  Ge1  1  0.13256900  0.88762100  0.86060000  1
  Ge  Ge2  1  0.86311800  0.86756000  0.13062900  1
  Ge  Ge3  1  0.14360100  0.14365800  0.14349400  1
  Ge  Ge4  1  0.99942700  0.49841300  0.00892400  1
  Ge  Ge5  1  0.49928400  0.00783200  0.99357200  1
  Ge  Ge6  1  0.00114200  0.99731100  0.48477800  1
  H  H0  1  0.04224100  0.42862700  0.53069200  1
  H  H1  1  0.03123000  0.63401500  0.56892200  1
  H  H2  1  0.27470800  0.60443900  0.91987300  1
  H  H3  1  0.47556200  0.42918700  0.03239100  1
  H  H4  1  0.54892900  0.62217300  0.03098700  1
  H  H5  1  0.53238000  0.00497100  0.39007800  1
  H  H6  1  0.56563700  0.96188600  0.58196300  1
  H  H7  1  0.73689100  0.44229000  0.31443000  1
  H  H8  1  0.62296600  0.28154900  0.27318100  1
  H  H9  1  0.78665100  0.21600800  0.55303800  1
  H  H10  1  0.67051200  0.56224900  0.69249200  1
  H  H11  1  0.52423500  0.69266000  0.72285700  1
  H  H12  1  0.40302200  0.15738500  0.56246300  1
  H  H13  1  0.45341400  0.26916800  0.73639600  1
  H  H14  1  0.36305900  0.37592900  0.58346400  1
  H  H15  1  0.42916000  0.61318800  0.36078400  1
  H  H16  1  0.34726500  0.77452300  0.45414000  1
  H  H17  1  0.20227700  0.59811200  0.42327000  1
  O  O0  1  0.87906400  0.12787900  0.11586200  1
  O  O1  1  0.88089200  0.89232300  0.87985600  1
  O  O2  1  0.11429600  0.13118800  0.88028900  1
  O  O3  1  0.12039700  0.89548000  0.11206500  1
  O  O4  1  0.87485800  0.38712200  0.85457200  1
  O  O5  1  0.62009600  0.14704100  0.85813800  1
  O  O6  1  0.86541700  0.13877900  0.61749500  1
  O  O7  1  0.14907200  0.63103500  0.88187700  1
  O  O8  1  0.37238200  0.88475700  0.84926500  1
  O  O9  1  0.10921600  0.85805600  0.62611500  1
  O  O10  1  0.86544600  0.62895000  0.12820100  1
  O  O11  1  0.62088200  0.86304700  0.11714800  1
  O  O12  1  0.85380900  0.87811800  0.36376600  1
  O  O13  1  0.13912300  0.38016000  0.13967700  1
  O  O14  1  0.38753600  0.14323500  0.13392500  1
  O  O15  1  0.13879300  0.13841600  0.37819900  1
  O  O16  1  0.05868900  0.54409400  0.48473900  1
  O  O17  1  0.46904400  0.53976400  0.97427300  1
  O  O18  1  0.47674500  0.00058600  0.50075300  1
  O  O19  1  0.65271100  0.36247500  0.36402000  1
  O  O20  1  0.57543400  0.62362200  0.63408400  1
  O  O21  1  0.36490000  0.26490300  0.64145500  1
  O  O22  1  0.32090800  0.67694400  0.37653300  1
loop_
_geom_bond_atom_site_label_1
_geom_bond_atom_site_label_2
_geom_bond_distance
_geom_bond_site_symmetry_2
Ge0 O4 1.850458 1_555
Ge0 O5 1.864005 1_555
Ge0 O0 1.908531 1_556
Ge0 O2 1.935388 1_655
Ge0 O1 2.009030 1_545
Ge0 O6 2.067286 1_555
Ge1 O8 1.843123 1_555
Ge1 O9 1.883832 1_555
Ge1 O2 1.903921 1_565
Ge1 O1 1.939364 1_455
Ge1 O7 2.004513 1_555
Ge1 O3 2.004586 1_556
Ge2 O10 1.853405 1_555
Ge2 O12 1.858482 1_555
Ge2 O11 1.858964 1_555
Ge2 O3 1.992081 1_655
Ge2 O1 2.010864 1_554
Ge2 O0 2.028597 1_565
Ge3 O13 1.837539 1_555
Ge3 O15 1.868089 1_555
Ge3 O14 1.873606 1_555
Ge3 O3 1.950242 1_545
Ge3 O0 2.039698 1_455
Ge3 O2 2.103269 1_554
Ge4 O10 1.739355 1_555
Ge4 O13 1.744468 1_655
Ge4 O4 1.764689 1_554
Ge4 O7 1.852804 1_654
Ge5 O11 1.754614 1_546
Ge5 O14 1.767989 1_556
Ge5 O8 1.768186 1_545
Ge5 O5 1.793759 1_555
Ge6 O12 1.734621 1_455
Ge6 O15 1.748777 1_565
Ge6 O9 1.759896 1_555
Ge6 O6 1.857809 1_465
H0 O16 0.977323 1_555
H1 O16 0.992729 1_555
H2 O7 1.026457 1_555
H2 O17 1.626127 1_555
H3 O17 0.976827 1_554
H4 O17 0.987012 1_554
H5 O18 0.985616 1_555
H6 O18 0.979036 1_565
H7 O19 0.981237 1_555
H8 O19 0.980100 1_555
H9 O6 0.990021 1_555
H10 O20 0.982826 1_555
H11 O20 0.975202 1_555
H12 O21 1.088524 1_555
H12 O18 1.434600 1_555
H13 O21 1.006549 1_555
H14 O21 0.978413 1_555
H15 O22 0.978393 1_555
H16 O22 0.994525 1_555
H17 O22 1.161266 1_555
H17 O16 1.281953 1_555
