# generated using pymatgen
data_NaCoPO4
_symmetry_space_group_name_H-M   'P 1'
_cell_length_a   10.26329818
_cell_length_b   10.26329818
_cell_length_c   24.09426400
_cell_angle_alpha   90.00000000
_cell_angle_beta   90.00000000
_cell_angle_gamma   120.00000115
_symmetry_Int_Tables_number   1
_chemical_formula_structural   NaCoPO4
_chemical_formula_sum   'Na24 Co24 P24 O96'
_cell_volume   2197.95190160
_cell_formula_units_Z   24
loop_
 _symmetry_equiv_pos_site_id
 _symmetry_equiv_pos_as_xyz
  1  'x, y, z'
loop_
 _atom_site_type_symbol
 _atom_site_label
 _atom_site_symmetry_multiplicity
 _atom_site_fract_x
 _atom_site_fract_y
 _atom_site_fract_z
 _atom_site_occupancy
  Na  Na0  1  0.96816900  0.96208300  0.58864500  1
  Na  Na1  1  0.50516700  0.06420800  0.74795300  1
  Na  Na2  1  0.04732200  0.51422000  0.25377700  1
  Na  Na3  1  0.53310200  0.04732200  0.08711000  1
  Na  Na4  1  0.51422000  0.46689800  0.42044300  1
  Na  Na5  1  0.51043800  0.54743700  0.25409100  1
  Na  Na6  1  0.48956200  0.45256300  0.75409100  1
  Na  Na7  1  0.48578000  0.53310200  0.92044300  1
  Na  Na8  1  0.06420800  0.55904200  0.91461900  1
  Na  Na9  1  0.96208300  0.99391400  0.75531200  1
  Na  Na10  1  0.99391400  0.03183100  0.92197800  1
  Na  Na11  1  0.44095800  0.50516700  0.58128600  1
  Na  Na12  1  0.55904200  0.49483300  0.08128600  1
  Na  Na13  1  0.03183100  0.03791700  0.08864500  1
  Na  Na14  1  0.93579200  0.44095800  0.41461900  1
  Na  Na15  1  0.49483300  0.93579200  0.24795300  1
  Na  Na16  1  0.46689800  0.95267800  0.58711000  1
  Na  Na17  1  0.45256300  0.96300100  0.92075700  1
  Na  Na18  1  0.00608600  0.96816900  0.42197800  1
  Na  Na19  1  0.95267800  0.48578000  0.75377700  1
  Na  Na20  1  0.54743700  0.03699900  0.42075700  1
  Na  Na21  1  0.96300100  0.51043800  0.08742400  1
  Na  Na22  1  0.03791700  0.00608600  0.25531200  1
  Na  Na23  1  0.03699900  0.48956200  0.58742400  1
  Co  Co0  1  0.14845600  0.83391100  0.68257000  1
  Co  Co1  1  0.88282700  0.69903300  0.17916100  1
  Co  Co2  1  0.65709300  0.32864100  0.65032700  1
  Co  Co3  1  0.38088600  0.17277300  0.20876300  1
  Co  Co4  1  0.32864100  0.67154800  0.81699400  1
  Co  Co5  1  0.68545500  0.85154400  0.01590300  1
  Co  Co6  1  0.16608900  0.31454500  0.34923700  1
  Co  Co7  1  0.69903300  0.81620600  0.34582800  1
  Co  Co8  1  0.61911400  0.82722700  0.70876300  1
  Co  Co9  1  0.20811300  0.38088600  0.04209600  1
  Co  Co10  1  0.79188700  0.61911400  0.54209600  1
  Co  Co11  1  0.81620600  0.11717300  0.51249400  1
  Co  Co12  1  0.18379400  0.88282700  0.01249400  1
  Co  Co13  1  0.83391100  0.68545500  0.84923700  1
  Co  Co14  1  0.67154800  0.34290700  0.98366000  1
  Co  Co15  1  0.34290700  0.67135900  0.15032700  1
  Co  Co16  1  0.31454500  0.14845600  0.51590300  1
  Co  Co17  1  0.17277300  0.79188700  0.37542900  1
  Co  Co18  1  0.32845200  0.65709300  0.48366000  1
  Co  Co19  1  0.30096700  0.18379400  0.84582800  1
  Co  Co20  1  0.82722700  0.20811300  0.87542900  1
  Co  Co21  1  0.85154400  0.16608900  0.18257000  1
  Co  Co22  1  0.67135900  0.32845200  0.31699400  1
  Co  Co23  1  0.11717300  0.30096700  0.67916100  1
  P  P0  1  0.34853700  0.13188000  0.33978800  1
  P  P1  1  0.83668100  0.14728700  0.31276200  1
  P  P2  1  0.31060600  0.16331900  0.64609600  1
  P  P3  1  0.21159000  0.88169900  0.14401500  1
  P  P4  1  0.88169900  0.67010800  0.31068200  1
  P  P5  1  0.86812000  0.21665700  0.00645500  1
  P  P6  1  0.14728700  0.31060600  0.47942900  1
  P  P7  1  0.16331900  0.85271300  0.81276200  1
  P  P8  1  0.35993100  0.67279900  0.34782600  1
  P  P9  1  0.78334300  0.65146300  0.67312200  1
  P  P10  1  0.68939400  0.83668100  0.14609600  1
  P  P11  1  0.67279900  0.31286800  0.51449300  1
  P  P12  1  0.21665700  0.34853700  0.17312200  1
  P  P13  1  0.68713200  0.35993100  0.18116000  1
  P  P14  1  0.65146300  0.86812000  0.83978800  1
  P  P15  1  0.64006900  0.32720100  0.84782600  1
  P  P16  1  0.13188000  0.78334300  0.50645500  1
  P  P17  1  0.32720100  0.68713200  0.01449300  1
  P  P18  1  0.78841000  0.11830100  0.64401500  1
  P  P19  1  0.85271300  0.68939400  0.97942900  1
  P  P20  1  0.32989200  0.21159000  0.97734900  1
  P  P21  1  0.67010800  0.78841000  0.47734900  1
  P  P22  1  0.31286800  0.64006900  0.68116000  1
  P  P23  1  0.11830100  0.32989200  0.81068200  1
  O  O0  1  0.21628000  0.72044000  0.98196400  1
  O  O1  1  0.67766500  0.99027000  0.88353800  1
  O  O2  1  0.13890800  0.97178400  0.84390900  1
  O  O3  1  0.99027000  0.31260500  0.05020400  1
  O  O4  1  0.73305300  0.67319200  0.30283200  1
  O  O5  1  0.31614600  0.27043200  0.91948600  1
  O  O6  1  0.48335300  0.83345300  0.01305300  1
  O  O7  1  0.23903100  0.91799300  0.75577500  1
  O  O8  1  0.33119600  0.55044100  0.98841700  1
  O  O9  1  0.72956800  0.04571400  0.58615300  1
  O  O10  1  0.55044100  0.21924500  0.15508400  1
  O  O11  1  0.05791200  0.20643100  0.16830100  1
  O  O12  1  0.71068700  0.70414600  0.96931400  1
  O  O13  1  0.19458900  0.18817000  0.01337900  1
  O  O14  1  0.27956000  0.49584000  0.64863000  1
  O  O15  1  0.78372000  0.27956000  0.48196400  1
  O  O16  1  0.91571900  0.29952200  0.94943000  1
  O  O17  1  0.63517200  0.37108500  0.24085800  1
  O  O18  1  0.71676400  0.20409900  0.02520400  1
  O  O19  1  0.32103900  0.23903100  0.58910800  1
  O  O20  1  0.99345800  0.28931300  0.30264700  1
  O  O21  1  0.37108500  0.73591300  0.40752500  1
  O  O22  1  0.85148100  0.05791200  0.00163400  1
  O  O23  1  0.08428100  0.70047800  0.44943000  1
  O  O24  1  0.26694700  0.32680800  0.80283200  1
  O  O25  1  0.33195800  0.85242100  0.17173200  1
  O  O26  1  0.62891500  0.26408700  0.90752500  1
  O  O27  1  0.35010000  0.51664700  0.34638700  1
  O  O28  1  0.81183000  0.00641900  0.68004600  1
  O  O29  1  0.66804200  0.14757900  0.67173200  1
  O  O30  1  0.00641900  0.19458900  0.84671300  1
  O  O31  1  0.32233500  0.00973000  0.38353800  1
  O  O32  1  0.02821600  0.16712400  0.51057600  1
  O  O33  1  0.73591300  0.36482800  0.57419200  1
  O  O34  1  0.14757900  0.47953700  0.83839800  1
  O  O35  1  0.76096900  0.08200700  0.25577500  1
  O  O36  1  0.52046300  0.66804200  0.50506500  1
  O  O37  1  0.73213300  0.18601100  0.34732300  1
  O  O38  1  0.47953700  0.33195800  0.00506500  1
  O  O39  1  0.26408700  0.63517200  0.07419200  1
  O  O40  1  0.81398900  0.54612300  0.01399000  1
  O  O41  1  0.27043200  0.95428600  0.08615300  1
  O  O42  1  0.70414600  0.99345800  0.13598000  1
  O  O43  1  0.95428600  0.68385400  0.25281900  1
  O  O44  1  0.51664700  0.16654700  0.51305300  1
  O  O45  1  0.54612300  0.73213300  0.18065600  1
  O  O46  1  0.61619800  0.91571900  0.78276400  1
  O  O47  1  0.32680800  0.05986000  0.96949900  1
  O  O48  1  0.83287600  0.86109200  0.17724200  1
  O  O49  1  0.70047800  0.61619800  0.61609700  1
  O  O50  1  0.79356900  0.85148100  0.83496700  1
  O  O51  1  0.67896100  0.76096900  0.08910800  1
  O  O52  1  0.51266600  0.71676400  0.85853700  1
  O  O53  1  0.05986000  0.73305300  0.13616600  1
  O  O54  1  0.21924500  0.66880400  0.32175100  1
  O  O55  1  0.68385400  0.72956800  0.41948600  1
  O  O56  1  0.18817000  0.99358100  0.18004600  1
  O  O57  1  0.94014000  0.26694700  0.63616600  1
  O  O58  1  0.67319200  0.94014000  0.46949900  1
  O  O59  1  0.28323600  0.79590100  0.52520400  1
  O  O60  1  0.45387700  0.26786700  0.68065600  1
  O  O61  1  0.20643100  0.14851900  0.33496700  1
  O  O62  1  0.86109200  0.02821600  0.34390900  1
  O  O63  1  0.68739500  0.67766500  0.71687100  1
  O  O64  1  0.97178400  0.83287600  0.01057600  1
  O  O65  1  0.99358100  0.80541100  0.34671300  1
  O  O66  1  0.44955900  0.78075500  0.65508400  1
  O  O67  1  0.94208800  0.79356900  0.66830100  1
  O  O68  1  0.00654200  0.71068700  0.80264700  1
  O  O69  1  0.78075500  0.33119600  0.82175100  1
  O  O70  1  0.38380200  0.08428100  0.28276400  1
  O  O71  1  0.20409900  0.48733400  0.19187100  1
  O  O72  1  0.28931300  0.29585400  0.46931400  1
  O  O73  1  0.36482800  0.62891500  0.74085800  1
  O  O74  1  0.64990000  0.48335300  0.84638700  1
  O  O75  1  0.50416000  0.78372000  0.31529700  1
  O  O76  1  0.29585400  0.00654200  0.63598000  1
  O  O77  1  0.08200700  0.32103900  0.42244100  1
  O  O78  1  0.16712400  0.13890800  0.67724200  1
  O  O79  1  0.66880400  0.44955900  0.48841700  1
  O  O80  1  0.48733400  0.28323600  0.35853700  1
  O  O81  1  0.04571400  0.31614600  0.75281900  1
  O  O82  1  0.85242100  0.52046300  0.33839800  1
  O  O83  1  0.79590100  0.51266600  0.69187100  1
  O  O84  1  0.31260500  0.32233500  0.21687100  1
  O  O85  1  0.14851900  0.94208800  0.50163400  1
  O  O86  1  0.80541100  0.81183000  0.51337900  1
  O  O87  1  0.18601100  0.45387700  0.51399000  1
  O  O88  1  0.72044000  0.50416000  0.14863000  1
  O  O89  1  0.26786700  0.81398900  0.84732300  1
  O  O90  1  0.91799300  0.67896100  0.92244100  1
  O  O91  1  0.49584000  0.21628000  0.81529700  1
  O  O92  1  0.00973000  0.68739500  0.55020400  1
  O  O93  1  0.29952200  0.38380200  0.11609700  1
  O  O94  1  0.16654700  0.64990000  0.67972000  1
  O  O95  1  0.83345300  0.35010000  0.17972000  1
loop_
_geom_bond_atom_site_label_1
_geom_bond_atom_site_label_2
_geom_bond_distance
_geom_bond_site_symmetry_2
Na0 O86 2.425106 1_555
Na0 O67 2.506678 1_555
Na0 O32 2.655110 1_665
Na0 O85 2.871111 1_655
Na0 O78 2.883429 1_665
Na0 O28 2.891649 1_565
Na0 O9 2.973050 1_565
Na1 O91 2.286348 1_555
Na1 O29 2.338559 1_555
Na1 O7 2.376819 1_545
Na1 O46 2.461959 1_545
Na1 O60 2.894056 1_555
Na2 O71 2.309543 1_555
Na2 O54 2.348074 1_555
Na2 O43 2.367655 1_455
Na2 O20 2.396707 1_455
Na2 O95 2.672431 1_455
Na2 O82 2.879343 1_455
Na3 O18 2.309538 1_555
Na3 O10 2.348074 1_555
Na3 O41 2.367654 1_545
Na3 O42 2.396716 1_545
Na3 O6 2.672431 1_545
Na3 O25 2.879360 1_545
Na4 O80 2.309536 1_555
Na4 O79 2.348074 1_555
Na4 O55 2.367654 1_555
Na4 O72 2.396722 1_555
Na4 O27 2.672415 1_555
Na4 O36 2.879360 1_555
Na5 O4 2.305702 1_555
Na5 O84 2.360807 1_555
Na5 O45 2.482698 1_555
Na5 O27 2.689449 1_555
Na5 O17 2.708048 1_555
Na5 O75 2.866360 1_555
Na6 O24 2.305702 1_555
Na6 O63 2.360807 1_555
Na6 O60 2.482698 1_555
Na6 O74 2.689449 1_555
Na6 O73 2.708048 1_555
Na6 O91 2.866360 1_555
Na7 O52 2.309536 1_555
Na7 O8 2.348074 1_555
Na7 O5 2.367654 1_555
Na7 O12 2.396722 1_555
Na7 O74 2.672415 1_555
Na7 O38 2.879360 1_556
Na8 O0 2.286361 1_555
Na8 O34 2.338564 1_555
Na8 O90 2.376802 1_455
Na8 O16 2.461959 1_455
Na8 O89 2.894031 1_555
Na9 O28 2.425106 1_565
Na9 O50 2.506660 1_555
Na9 O78 2.655127 1_665
Na9 O67 2.871111 1_555
Na9 O2 2.883429 1_655
Na9 O30 2.891649 1_665
Na9 O81 2.973050 1_665
Na10 O30 2.425088 1_655
Na10 O22 2.506678 1_556
Na10 O2 2.655110 1_645
Na10 O50 2.871111 1_545
Na10 O64 2.883447 1_546
Na10 O13 2.891649 1_656
Na10 O5 2.973050 1_655
Na11 O14 2.286340 1_555
Na11 O36 2.338559 1_555
Na11 O19 2.376821 1_555
Na11 O49 2.461959 1_555
Na11 O87 2.894026 1_555
Na12 O88 2.286340 1_555
Na12 O38 2.338559 1_555
Na12 O51 2.376821 1_555
Na12 O93 2.461959 1_555
Na12 O40 2.894026 1_555
Na13 O13 2.425106 1_555
Na13 O11 2.506678 1_555
Na13 O64 2.655110 1_445
Na13 O22 2.871111 1_455
Na13 O48 2.883429 1_445
Na13 O56 2.891649 1_545
Na13 O41 2.973050 1_545
Na14 O15 2.286361 1_555
Na14 O82 2.338564 1_555
Na14 O77 2.376802 1_655
Na14 O23 2.461959 1_655
Na14 O37 2.894031 1_555
Na15 O75 2.286348 1_555
Na15 O25 2.338559 1_555
Na15 O35 2.376819 1_565
Na15 O70 2.461959 1_565
Na15 O45 2.894056 1_555
Na16 O59 2.309538 1_555
Na16 O66 2.348074 1_555
Na16 O9 2.367654 1_565
Na16 O76 2.396716 1_565
Na16 O44 2.672431 1_565
Na16 O29 2.879360 1_565
Na17 O47 2.305707 1_565
Na17 O1 2.360798 1_555
Na17 O89 2.482683 1_555
Na17 O6 2.689449 1_556
Na17 O26 2.708045 1_565
Na17 O0 2.866372 1_555
Na18 O65 2.425088 1_455
Na18 O85 2.506678 1_555
Na18 O62 2.655110 1_465
Na18 O61 2.871111 1_565
Na18 O32 2.883447 1_565
Na18 O86 2.891649 1_455
Na18 O55 2.973050 1_455
Na19 O83 2.309543 1_555
Na19 O69 2.348074 1_555
Na19 O81 2.367655 1_655
Na19 O68 2.396707 1_655
Na19 O94 2.672431 1_655
Na19 O34 2.879343 1_655
Na20 O58 2.305707 1_545
Na20 O31 2.360798 1_555
Na20 O37 2.482683 1_555
Na20 O44 2.689449 1_555
Na20 O21 2.708045 1_545
Na20 O15 2.866372 1_555
Na21 O53 2.305715 1_655
Na21 O3 2.360807 1_555
Na21 O40 2.482688 1_555
Na21 O95 2.689449 1_555
Na21 O39 2.708045 1_655
Na21 O88 2.866360 1_555
Na22 O56 2.425106 1_545
Na22 O61 2.506660 1_555
Na22 O48 2.655127 1_445
Na22 O11 2.871111 1_555
Na22 O62 2.883429 1_455
Na22 O65 2.891649 1_445
Na22 O43 2.973050 1_445
Na23 O57 2.305715 1_455
Na23 O92 2.360807 1_555
Na23 O87 2.482688 1_555
Na23 O94 2.689449 1_555
Na23 O33 2.708045 1_455
Na23 O14 2.866360 1_555
Co0 O67 1.974506 1_455
Co0 O7 1.979320 1_555
Co0 O94 1.989096 1_555
Co0 O76 2.001873 1_565
Co1 O43 1.956040 1_555
Co1 O53 1.965184 1_655
Co1 O48 1.970808 1_555
Co1 O88 1.996402 1_555
Co2 O33 1.963920 1_555
Co2 O83 1.976869 1_555
Co2 O29 1.985117 1_555
Co2 O60 1.993024 1_555
Co3 O84 1.990277 1_555
Co3 O70 2.007991 1_555
Co3 O10 2.024484 1_555
Co3 O56 2.033611 1_545
Co3 O17 2.497973 1_555
Co4 O73 1.963943 1_555
Co4 O52 1.976859 1_555
Co4 O34 1.985111 1_555
Co4 O89 1.993015 1_555
Co5 O22 1.974506 1_565
Co5 O51 1.979318 1_555
Co5 O6 1.989096 1_555
Co5 O12 2.001854 1_554
Co6 O61 1.974511 1_555
Co6 O77 1.979301 1_555
Co6 O27 1.989096 1_555
Co6 O20 2.001876 1_455
Co7 O55 1.956040 1_555
Co7 O4 1.965205 1_555
Co7 O62 1.970808 1_565
Co7 O75 1.996402 1_555
Co8 O63 1.990277 1_555
Co8 O46 2.007991 1_555
Co8 O66 2.024484 1_555
Co8 O28 2.033611 1_565
Co8 O73 2.497973 1_555
Co9 O3 1.990277 1_455
Co9 O93 2.007996 1_555
Co9 O8 2.024484 1_554
Co9 O13 2.033611 1_555
Co9 O39 2.497981 1_555
Co10 O92 1.990277 1_655
Co10 O49 2.007996 1_555
Co10 O79 2.024484 1_555
Co10 O86 2.033611 1_555
Co10 O33 2.497981 1_555
Co11 O9 1.956062 1_555
Co11 O58 1.965187 1_545
Co11 O32 1.970807 1_655
Co11 O15 1.996394 1_555
Co12 O41 1.956062 1_555
Co12 O47 1.965187 1_564
Co12 O64 1.970807 1_455
Co12 O0 1.996394 1_554
Co13 O50 1.974511 1_555
Co13 O90 1.979301 1_555
Co13 O74 1.989096 1_555
Co13 O68 2.001876 1_655
Co14 O26 1.963920 1_555
Co14 O18 1.976863 1_556
Co14 O38 1.985117 1_556
Co14 O40 1.993030 1_556
Co15 O39 1.963920 1_555
Co15 O71 1.976869 1_555
Co15 O25 1.985117 1_555
Co15 O45 1.993024 1_555
Co16 O85 1.974506 1_545
Co16 O19 1.979318 1_555
Co16 O44 1.989096 1_555
Co16 O72 2.001854 1_555
Co17 O31 1.990279 1_565
Co17 O23 2.007993 1_555
Co17 O54 2.024468 1_555
Co17 O65 2.033603 1_455
Co17 O21 2.497981 1_555
Co18 O21 1.963920 1_555
Co18 O59 1.976863 1_555
Co18 O36 1.985117 1_555
Co18 O87 1.993030 1_555
Co19 O5 1.956040 1_555
Co19 O24 1.965205 1_555
Co19 O2 1.970808 1_545
Co19 O91 1.996402 1_555
Co20 O1 1.990279 1_545
Co20 O16 2.007993 1_555
Co20 O69 2.024468 1_555
Co20 O30 2.033603 1_655
Co20 O26 2.497981 1_555
Co21 O11 1.974506 1_655
Co21 O35 1.979320 1_555
Co21 O95 1.989096 1_555
Co21 O42 2.001873 1_545
Co22 O17 1.963943 1_555
Co22 O80 1.976859 1_555
Co22 O82 1.985111 1_555
Co22 O37 1.993015 1_555
Co23 O81 1.956040 1_555
Co23 O57 1.965184 1_455
Co23 O78 1.970808 1_555
Co23 O14 1.996402 1_555
O0 P17 1.554446 1_556
O1 P14 1.555001 1_555
O2 P7 1.557424 1_555
O3 P5 1.554985 1_555
O4 P4 1.553227 1_555
O5 P20 1.553549 1_555
O6 P17 1.555030 1_555
O7 P7 1.554791 1_555
O8 P17 1.556300 1_556
O9 P18 1.553524 1_555
O10 P13 1.556300 1_555
O11 P12 1.555273 1_555
O12 P19 1.558131 1_555
O13 P20 1.551122 1_554
O14 P22 1.554458 1_555
O15 P11 1.554446 1_555
O16 P5 1.560220 1_556
O17 P13 1.558036 1_555
O18 P5 1.559987 1_555
O19 P2 1.554810 1_555
O20 P1 1.558125 1_555
O21 P8 1.558059 1_555
O22 P5 1.555273 1_555
O23 P16 1.560220 1_555
O24 P23 1.553227 1_555
O25 P3 1.560013 1_555
O26 P15 1.558059 1_555
O27 P8 1.555029 1_555
O28 P18 1.551127 1_555
O29 P18 1.560013 1_555
O30 P23 1.551132 1_555
O31 P0 1.555001 1_555
O32 P6 1.557424 1_555
O33 P11 1.558059 1_555
O34 P23 1.559993 1_555
O35 P1 1.554791 1_555
O36 P21 1.559996 1_555
O37 P1 1.558582 1_555
O38 P20 1.559996 1_554
O39 P17 1.558059 1_555
O40 P19 1.558573 1_554
O41 P3 1.553524 1_555
O42 P10 1.558125 1_555
O43 P4 1.553544 1_555
O44 P11 1.555030 1_555
O45 P10 1.558563 1_555
O46 P14 1.560195 1_555
O47 P20 1.553227 1_555
O48 P10 1.557413 1_555
O49 P9 1.560220 1_555
O50 P14 1.555273 1_555
O51 P10 1.554810 1_555
O52 P14 1.559982 1_555
O53 P3 1.553224 1_555
O54 P8 1.556291 1_555
O55 P21 1.553549 1_555
O56 P3 1.551127 1_555
O57 P18 1.553224 1_555
O58 P21 1.553227 1_555
O59 P16 1.559987 1_555
O60 P2 1.558563 1_555
O61 P0 1.555273 1_555
O62 P1 1.557424 1_555
O63 P9 1.554985 1_555
O64 P19 1.557424 1_554
O65 P4 1.551132 1_555
O66 P22 1.556300 1_555
O67 P9 1.555273 1_555
O68 P7 1.558125 1_555
O69 P15 1.556291 1_555
O70 P0 1.560195 1_555
O71 P12 1.559977 1_555
O72 P6 1.558131 1_555
O73 P22 1.558036 1_555
O74 P15 1.555029 1_555
O75 P8 1.554446 1_555
O76 P2 1.558125 1_555
O77 P6 1.554815 1_555
O78 P2 1.557413 1_555
O79 P11 1.556300 1_555
O80 P0 1.559982 1_555
O81 P23 1.553544 1_555
O82 P4 1.559993 1_555
O83 P9 1.559977 1_555
O84 P12 1.554985 1_555
O85 P16 1.555273 1_555
O86 P21 1.551122 1_555
O87 P6 1.558573 1_555
O88 P13 1.554458 1_555
O89 P7 1.558582 1_555
O90 P19 1.554815 1_555
O91 P15 1.554446 1_555
O92 P16 1.554985 1_555
O93 P12 1.560220 1_555
O94 P22 1.555030 1_555
O95 P13 1.555030 1_555
