# generated using pymatgen
data_H2W2O7
_symmetry_space_group_name_H-M   'P 1'
_cell_length_a   6.94349800
_cell_length_b   7.05534451
_cell_length_c   7.23755651
_cell_angle_alpha   111.46348951
_cell_angle_beta   90.46609426
_cell_angle_gamma   114.68382941
_symmetry_Int_Tables_number   1
_chemical_formula_structural   H2W2O7
_chemical_formula_sum   'H4 W4 O14'
_cell_volume   294.33953769
_cell_formula_units_Z   2
loop_
 _symmetry_equiv_pos_site_id
 _symmetry_equiv_pos_as_xyz
  1  'x, y, z'
loop_
 _atom_site_type_symbol
 _atom_site_label
 _atom_site_symmetry_multiplicity
 _atom_site_fract_x
 _atom_site_fract_y
 _atom_site_fract_z
 _atom_site_occupancy
  H  H0  1  0.61072100  0.63116300  0.00070700  1
  H  H1  1  0.28576800  0.82203400  0.38773800  1
  H  H2  1  0.37601200  0.13826800  0.06042700  1
  H  H3  1  0.87051000  0.30088900  0.77187900  1
  W  W0  1  0.96284700  0.55408900  0.52466500  1
  W  W1  1  0.05817100  0.07267300  0.55610700  1
  W  W2  1  0.47204800  0.52096900  0.42368800  1
  W  W3  1  0.95984200  0.95712000  0.00864100  1
  O  O0  1  0.72641800  0.65121200  0.91927500  1
  O  O1  1  0.15188600  0.81356400  0.43612700  1
  O  O2  1  0.12579700  0.11403000  0.81989600  1
  O  O3  1  0.67447400  0.36175300  0.39987000  1
  O  O4  1  0.06729200  0.73153800  0.79745200  1
  O  O5  1  0.48306900  0.60793900  0.22073400  1
  O  O6  1  0.27990400  0.14117300  0.15768500  1
  O  O7  1  0.91055400  0.27593000  0.63784000  1
  O  O8  1  0.93136800  0.98230400  0.27842700  1
  O  O9  1  0.46976000  0.74481200  0.63526900  1
  O  O10  1  0.81429500  0.10330000  0.99531400  1
  O  O11  1  0.32167800  0.28113800  0.55692400  1
  O  O12  1  0.82111000  0.76340500  0.53264100  1
  O  O13  1  0.12647400  0.43069700  0.37869500  1
loop_
_geom_bond_atom_site_label_1
_geom_bond_atom_site_label_2
_geom_bond_distance
_geom_bond_site_symmetry_2
H0 O0 0.993240 1_554
H1 O1 0.982146 1_555
H2 O6 0.974547 1_555
H3 O7 0.984737 1_555
O0 W3 1.934717 1_556
O1 W0 2.085694 1_455
O1 W1 2.088170 1_565
O2 W1 1.847681 1_555
O2 W3 2.118101 1_446
O3 W0 1.862986 1_555
O3 W2 2.109046 1_555
O4 W0 1.844112 1_455
O4 W3 2.157782 1_456
O5 W2 1.778262 1_555
O6 W3 2.077085 1_445
O6 W2 2.421496 1_555
O7 W1 2.018348 1_655
O7 W0 2.289170 1_555
O8 W3 1.914418 1_555
O8 W1 1.945593 1_665
O9 W2 1.758094 1_555
O10 W3 1.742431 1_546
O11 W1 1.804649 1_555
O11 W2 2.148970 1_555
O12 W1 2.055190 1_665
O12 W0 2.074910 1_555
O12 W2 2.222874 1_555
O13 W0 1.826858 1_455
O13 W2 2.197348 1_555
