# generated using pymatgen
data_Ce9B3C6Br5
_symmetry_space_group_name_H-M   'P 1'
_cell_length_a   3.70506779
_cell_length_b   7.99463855
_cell_length_c   31.50217072
_cell_angle_alpha   90.03795912
_cell_angle_beta   90.00021487
_cell_angle_gamma   90.00061349
_symmetry_Int_Tables_number   1
_chemical_formula_structural   Ce9B3C6Br5
_chemical_formula_sum   'Ce18 B6 C12 Br10'
_cell_volume   933.11544316
_cell_formula_units_Z   2
loop_
 _symmetry_equiv_pos_site_id
 _symmetry_equiv_pos_as_xyz
  1  'x, y, z'
loop_
 _atom_site_type_symbol
 _atom_site_label
 _atom_site_symmetry_multiplicity
 _atom_site_fract_x
 _atom_site_fract_y
 _atom_site_fract_z
 _atom_site_occupancy
  Ce  Ce0  1  0.24999803  0.91872675  0.59633804  1
  Ce  Ce1  1  0.75002430  0.44975109  0.74999077  1
  Ce  Ce2  1  0.74999697  0.05519764  0.80225129  1
  Ce  Ce3  1  0.74999593  0.80521469  0.01043921  1
  Ce  Ce4  1  0.24999591  0.34454583  0.86961715  1
  Ce  Ce5  1  0.25000024  0.19391582  0.98986333  1
  Ce  Ce6  1  0.75000151  0.08122518  0.40374523  1
  Ce  Ce7  1  0.25000139  0.94467098  0.19792751  1
  Ce  Ce8  1  0.25000193  0.94536900  0.30186860  1
  Ce  Ce9  1  0.25000759  0.19417196  0.51017065  1
  Ce  Ce10  1  0.24999994  0.55081114  0.24990430  1
  Ce  Ce11  1  0.24998422  0.34492142  0.63061729  1
  Ce  Ce12  1  0.74999407  0.05455279  0.69774643  1
  Ce  Ce13  1  0.74999760  0.65641992  0.36917545  1
  Ce  Ce14  1  0.74999938  0.80475476  0.48958254  1
  Ce  Ce15  1  0.24999996  0.91838617  0.90376604  1
  Ce  Ce16  1  0.74999597  0.65579656  0.13057239  1
  Ce  Ce17  1  0.74999783  0.08114462  0.09643569  1
  B  B0  1  0.75000456  0.78725615  0.24988103  1
  B  B1  1  0.24999600  0.84746215  0.07821538  1
  B  B2  1  0.24999839  0.84719600  0.42177213  1
  B  B3  1  0.74999898  0.15224893  0.57804499  1
  B  B4  1  0.75000614  0.15206131  0.92203738  1
  B  B5  1  0.25002151  0.21332218  0.75001252  1
  C  C0  1  0.24999384  0.28127796  0.79524065  1
  C  C1  1  0.74999819  0.01569452  0.54338575  1
  C  C2  1  0.25000211  0.98327433  0.45651576  1
  C  C3  1  0.25000142  0.87351857  0.12640816  1
  C  C4  1  0.74999793  0.71873364  0.20472505  1
  C  C5  1  0.24999998  0.87424760  0.37349361  1
  C  C6  1  0.74999754  0.01568108  0.95659438  1
  C  C7  1  0.74998795  0.12674276  0.87379485  1
  C  C8  1  0.24999714  0.98375747  0.04360662  1
  C  C9  1  0.74999609  0.71918594  0.29502884  1
  C  C10  1  0.75000659  0.12706965  0.62632002  1
  C  C11  1  0.24999873  0.28085733  0.70477792  1
  Br  Br0  1  0.24999910  0.58445978  0.54706375  1
  Br  Br1  1  0.74999761  0.67103678  0.65159022  1
  Br  Br2  1  0.24999727  0.32914429  0.15162977  1
  Br  Br3  1  0.25000103  0.32898472  0.34839196  1
  Br  Br4  1  0.74999991  0.22326131  0.25001669  1
  Br  Br5  1  0.75000138  0.67106801  0.84845280  1
  Br  Br6  1  0.24999884  0.58420573  0.95292887  1
  Br  Br7  1  0.75000102  0.41550130  0.04720276  1
  Br  Br8  1  0.75000254  0.41558024  0.45283834  1
  Br  Br9  1  0.25000548  0.77759395  0.75001793  1
loop_
_geom_bond_atom_site_label_1
_geom_bond_atom_site_label_2
_geom_bond_distance
_geom_bond_site_symmetry_2
B0 C9 1.523149 1_555
B0 C4 1.524009 1_555
B0 Ce10 2.646711 1_555
B0 Ce10 2.646715 1_655
B0 Ce7 2.774332 1_655
B0 Ce7 2.774357 1_555
B0 Ce8 2.776508 1_655
B0 Ce8 2.776547 1_555
B1 C3 1.532265 1_555
B1 C8 1.541921 1_555
B1 Ce17 2.692592 1_565
B1 Ce17 2.692613 1_465
B1 Ce3 2.846682 1_455
B1 Ce3 2.846697 1_555
B1 Ce16 2.916079 1_455
B1 Ce16 2.916091 1_555
B2 C5 1.536320 1_555
B2 C2 1.542683 1_555
B2 Ce6 2.693756 1_565
B2 Ce6 2.693765 1_465
B2 Ce14 2.848019 1_555
B2 Ce14 2.848019 1_455
B2 Ce13 2.915476 1_455
B2 Ce13 2.915501 1_555
B3 C10 1.534165 1_555
B3 C1 1.543488 1_555
B3 Ce0 2.692722 1_545
B3 Ce0 2.692742 1_645
B3 Ce9 2.849014 1_555
B3 Ce9 2.849061 1_655
B3 Ce11 2.922959 1_655
B3 Ce11 2.923057 1_555
B4 C7 1.533032 1_555
B4 C6 1.541248 1_555
B4 Ce15 2.692904 1_645
B4 Ce15 2.692905 1_545
B4 Ce5 2.847475 1_655
B4 Ce5 2.847518 1_555
B4 Ce4 2.920629 1_655
B4 Ce4 2.920690 1_555
B5 C11 1.524180 1_555
B5 C0 1.524513 1_555
B5 Ce1 2.646614 1_555
B5 Ce1 2.646628 1_455
B5 Ce2 2.782178 1_555
B5 Ce2 2.782289 1_455
B5 Ce12 2.784042 1_555
B5 Ce12 2.784151 1_455
C0 Ce4 2.396668 1_555
C0 Ce2 2.597668 1_455
C0 Ce2 2.597711 1_555
C0 Ce1 2.698165 1_455
C0 Ce1 2.698308 1_555
C1 Ce14 2.390159 1_545
C1 Ce9 2.562138 1_555
C1 Ce9 2.562172 1_655
C1 Ce0 2.610969 1_545
C1 Ce0 2.610971 1_645
C2 Ce9 2.386613 1_565
C2 Ce14 2.560436 1_455
C2 Ce14 2.560438 1_555
C2 Ce6 2.609662 1_565
C2 Ce6 2.609668 1_465
C3 Ce7 2.323350 1_555
C3 Ce16 2.545409 1_555
C3 Ce16 2.545411 1_455
C3 Ce17 2.660943 1_565
C3 Ce17 2.660981 1_465
C4 Ce16 2.389219 1_555
C4 Ce7 2.596325 1_655
C4 Ce7 2.596333 1_555
C4 Ce10 2.694852 1_555
C4 Ce10 2.694875 1_655
C5 Ce8 2.327247 1_555
C5 Ce13 2.546114 1_455
C5 Ce13 2.546129 1_555
C5 Ce6 2.660074 1_565
C5 Ce6 2.660096 1_465
C6 Ce3 2.390006 1_546
C6 Ce5 2.560990 1_655
C6 Ce5 2.561003 1_555
C6 Ce15 2.608581 1_545
C6 Ce15 2.608615 1_645
C7 Ce2 2.324858 1_555
C7 Ce4 2.545867 1_555
C7 Ce4 2.545884 1_655
C7 Ce15 2.664556 1_545
C7 Ce15 2.664637 1_645
C8 Ce5 2.385999 1_564
C8 Ce3 2.561051 1_455
C8 Ce3 2.561072 1_555
C8 Ce17 2.608824 1_565
C8 Ce17 2.608841 1_465
C9 Ce13 2.389396 1_555
C9 Ce8 2.597607 1_555
C9 Ce8 2.597609 1_655
C9 Ce10 2.694794 1_555
C9 Ce10 2.694841 1_655
C10 Ce12 2.323946 1_555
C10 Ce11 2.546144 1_655
C10 Ce11 2.546292 1_555
C10 Ce0 2.663859 1_645
C10 Ce0 2.663873 1_545
C11 Ce11 2.392035 1_555
C11 Ce12 2.598787 1_455
C11 Ce12 2.598791 1_555
C11 Ce1 2.698306 1_455
C11 Ce1 2.698409 1_555
Br0 Ce0 3.089562 1_555
Br0 Ce14 3.133170 1_555
Br0 Ce14 3.133183 1_455
Br0 Ce11 3.256077 1_555
Br0 Ce9 3.328910 1_555
Br1 Ce0 3.222906 1_655
Br1 Ce0 3.222921 1_555
Br1 Ce11 3.265486 1_655
Br1 Ce11 3.265508 1_555
Br1 Ce12 3.392501 1_565
Br1 Ce1 3.570144 1_555
Br2 Ce17 3.222013 1_455
Br2 Ce17 3.222047 1_555
Br2 Ce16 3.270147 1_555
Br2 Ce16 3.270181 1_455
Br2 Ce7 3.403070 1_545
Br2 Ce10 3.566173 1_555
Br3 Ce6 3.224968 1_455
Br3 Ce6 3.224987 1_555
Br3 Ce13 3.272706 1_555
Br3 Ce13 3.272755 1_455
Br3 Ce8 3.398187 1_545
Br3 Ce10 3.574673 1_555
Br4 Ce10 3.207661 1_655
Br4 Ce10 3.207694 1_555
Br4 Ce8 3.322720 1_545
Br4 Ce8 3.322748 1_645
Br4 Ce7 3.328676 1_545
Br4 Ce7 3.328715 1_645
Br5 Ce15 3.220691 1_655
Br5 Ce15 3.220729 1_555
Br5 Ce4 3.270018 1_555
Br5 Ce4 3.270024 1_655
Br5 Ce2 3.399287 1_565
Br5 Ce1 3.569914 1_555
Br6 Ce15 3.088979 1_555
Br6 Ce3 3.135547 1_556
Br6 Ce3 3.135590 1_456
Br6 Ce4 3.248441 1_555
Br6 Ce5 3.330825 1_555
Br7 Ce17 3.091306 1_555
Br7 Ce5 3.135049 1_554
Br7 Ce5 3.135076 1_654
Br7 Ce16 3.252909 1_555
Br7 Ce3 3.324624 1_555
Br8 Ce6 3.087311 1_555
Br8 Ce9 3.135467 1_555
Br8 Ce9 3.135503 1_655
Br8 Ce13 3.264993 1_555
Br8 Ce14 3.318936 1_555
Br9 Ce1 3.209530 1_455
Br9 Ce1 3.209643 1_555
Br9 Ce12 3.324247 1_565
Br9 Ce12 3.324314 1_465
Br9 Ce2 3.325634 1_565
Br9 Ce2 3.325703 1_465
