# generated using pymatgen
data_NiBiB
_symmetry_space_group_name_H-M   'P 1'
_cell_length_a   4.11495700
_cell_length_b   4.11495700
_cell_length_c   4.11495700
_cell_angle_alpha   60.00000000
_cell_angle_beta   60.00000000
_cell_angle_gamma   60.00000000
_symmetry_Int_Tables_number   1
_chemical_formula_structural   NiBiB
_chemical_formula_sum   'Ni1 Bi1 B1'
_cell_volume   49.26981217
_cell_formula_units_Z   1
loop_
 _symmetry_equiv_pos_site_id
 _symmetry_equiv_pos_as_xyz
  1  'x, y, z'
loop_
 _atom_site_type_symbol
 _atom_site_label
 _atom_site_symmetry_multiplicity
 _atom_site_fract_x
 _atom_site_fract_y
 _atom_site_fract_z
 _atom_site_occupancy
  Ni  Ni0  1  0.75000000  0.75000000  0.75000000  1
  Bi  Bi0  1  0.50000000  0.50000000  0.50000000  1
  B  B0  1  0.00000000  0.00000000  0.00000000  1
loop_
_geom_bond_atom_site_label_1
_geom_bond_atom_site_label_2
_geom_bond_distance
_geom_bond_site_symmetry_2
Bi0 Ni0 2.519886 1_455
Bi0 Ni0 2.519886 1_545
Bi0 Ni0 2.519886 1_555
Bi0 Ni0 2.519886 1_554
B0 Ni0 2.519886 1_544
B0 Ni0 2.519886 1_454
B0 Ni0 2.519886 1_444
B0 Ni0 2.519886 1_445
