# generated using pymatgen
data_CsSO2F
_symmetry_space_group_name_H-M   'P 1'
_cell_length_a   6.78145000
_cell_length_b   8.15099000
_cell_length_c   8.23595300
_cell_angle_alpha   90.00000000
_cell_angle_beta   90.00000000
_cell_angle_gamma   90.00000000
_symmetry_Int_Tables_number   1
_chemical_formula_structural   CsSO2F
_chemical_formula_sum   'Cs4 S4 O8 F4'
_cell_volume   455.24667648
_cell_formula_units_Z   4
loop_
 _symmetry_equiv_pos_site_id
 _symmetry_equiv_pos_as_xyz
  1  'x, y, z'
loop_
 _atom_site_type_symbol
 _atom_site_label
 _atom_site_symmetry_multiplicity
 _atom_site_fract_x
 _atom_site_fract_y
 _atom_site_fract_z
 _atom_site_occupancy
  Cs  Cs0  1  0.75000000  0.88355700  0.64496600  1
  Cs  Cs1  1  0.25000000  0.11644300  0.35503400  1
  Cs  Cs2  1  0.75000000  0.61644300  0.14496600  1
  Cs  Cs3  1  0.25000000  0.38355700  0.85503400  1
  S  S0  1  0.75000000  0.13720400  0.06595800  1
  S  S1  1  0.25000000  0.86279600  0.93404200  1
  S  S2  1  0.75000000  0.36279600  0.56595800  1
  S  S3  1  0.25000000  0.63720400  0.43404200  1
  O  O0  1  0.06933800  0.76554500  0.90352500  1
  O  O1  1  0.56933800  0.23445500  0.09647500  1
  O  O2  1  0.93066200  0.26554500  0.59647500  1
  O  O3  1  0.43066200  0.73445500  0.40352500  1
  O  O4  1  0.43066200  0.76554500  0.90352500  1
  O  O5  1  0.93066200  0.23445500  0.09647500  1
  O  O6  1  0.06933800  0.73445500  0.40352500  1
  O  O7  1  0.56933800  0.26554500  0.59647500  1
  F  F0  1  0.25000000  0.50946100  0.25462800  1
  F  F1  1  0.75000000  0.49053900  0.74537200  1
  F  F2  1  0.75000000  0.00946100  0.24537200  1
  F  F3  1  0.25000000  0.99053900  0.75462800  1
loop_
_geom_bond_atom_site_label_1
_geom_bond_atom_site_label_2
_geom_bond_distance
_geom_bond_site_symmetry_2
Cs0 O6 3.181329 1_655
Cs0 O3 3.181329 1_555
Cs0 O0 3.185856 1_655
Cs0 O4 3.185856 1_555
Cs0 F1 3.308497 1_555
Cs0 O2 3.369699 1_565
Cs0 O7 3.369699 1_565
Cs0 F2 3.447332 1_565
Cs0 F3 3.615679 1_555
Cs0 F3 3.615679 1_655
Cs0 S0 4.036882 1_566
Cs1 O7 3.181329 1_555
Cs1 O2 3.181329 1_455
Cs1 O1 3.185856 1_555
Cs1 O5 3.185856 1_455
Cs1 F0 3.308497 1_555
Cs1 O6 3.369699 1_545
Cs1 O3 3.369699 1_545
Cs1 F3 3.447332 1_545
Cs1 F2 3.615679 1_555
Cs1 F2 3.615679 1_455
Cs1 S1 4.036882 1_544
Cs2 O0 3.181329 1_654
Cs2 O4 3.181329 1_554
Cs2 O6 3.185856 1_655
Cs2 O3 3.185856 1_555
Cs2 F2 3.308497 1_565
Cs2 O1 3.369699 1_555
Cs2 O5 3.369699 1_555
Cs2 F1 3.447332 1_554
Cs2 F0 3.615679 1_655
Cs2 F0 3.615679 1_555
Cs2 S2 4.036882 1_555
Cs3 O5 3.181329 1_456
Cs3 O1 3.181329 1_556
Cs3 O7 3.185856 1_555
Cs3 O2 3.185856 1_455
Cs3 F3 3.308497 1_545
Cs3 O0 3.369699 1_555
Cs3 O4 3.369699 1_555
Cs3 F0 3.447332 1_556
Cs3 F1 3.615679 1_555
Cs3 F1 3.615679 1_455
Cs3 S3 4.036882 1_555
O0 S1 1.480717 1_555
O1 S0 1.480717 1_555
O2 S2 1.480717 1_555
O3 S3 1.480717 1_555
O4 S1 1.480717 1_555
O5 S0 1.480717 1_555
O6 S3 1.480717 1_555
O7 S2 1.480717 1_555
F0 S3 1.807650 1_555
F1 S2 1.807650 1_555
F2 S0 1.807650 1_555
F3 S1 1.807650 1_555
