# generated using pymatgen
data_Gd2InGe2
_symmetry_space_group_name_H-M   'P 1'
_cell_length_a   7.44550500
_cell_length_b   7.44550500
_cell_length_c   4.23086816
_cell_angle_alpha   90.00000000
_cell_angle_beta   90.00000000
_cell_angle_gamma   89.99904670
_symmetry_Int_Tables_number   1
_chemical_formula_structural   Gd2InGe2
_chemical_formula_sum   'Gd4 In2 Ge4'
_cell_volume   234.54048101
_cell_formula_units_Z   2
loop_
 _symmetry_equiv_pos_site_id
 _symmetry_equiv_pos_as_xyz
  1  'x, y, z'
loop_
 _atom_site_type_symbol
 _atom_site_label
 _atom_site_symmetry_multiplicity
 _atom_site_fract_x
 _atom_site_fract_y
 _atom_site_fract_z
 _atom_site_occupancy
  Gd  Gd0  1  0.17940050  0.32059950  0.50000000  1
  Gd  Gd1  1  0.67941031  0.17941031  0.50000000  1
  Gd  Gd2  1  0.82059950  0.67940050  0.50000000  1
  Gd  Gd3  1  0.32058969  0.82058969  0.50000000  1
  In  In0  1  0.50000000  0.50000000  -0.00000000  1
  In  In1  1  0.00000000  -0.00000000  -0.00000000  1
  Ge  Ge0  1  0.11918289  0.61918289  -0.00000000  1
  Ge  Ge1  1  0.38081831  0.11918169  -0.00000000  1
  Ge  Ge2  1  0.61918169  0.88081831  -0.00000000  1
  Ge  Ge3  1  0.88081711  0.38081711  0.00000000  1
loop_
_geom_bond_atom_site_label_1
_geom_bond_atom_site_label_2
_geom_bond_distance
_geom_bond_site_symmetry_2
Gd0 Ge1 2.995485 1_555
Gd0 Ge1 2.995485 1_556
Gd0 Ge3 3.101328 1_455
Gd0 Ge3 3.101328 1_456
Gd0 Ge0 3.101328 1_556
Gd0 Ge0 3.101328 1_555
Gd0 In1 3.457922 1_555
Gd0 In1 3.457922 1_556
Gd0 In0 3.457922 1_555
Gd0 In0 3.457922 1_556
Gd1 Ge3 2.995428 1_556
Gd1 Ge3 2.995428 1_555
Gd1 Ge1 3.101397 1_555
Gd1 Ge1 3.101397 1_556
Gd1 Ge2 3.101397 1_545
Gd1 Ge2 3.101397 1_546
Gd1 In0 3.457869 1_555
Gd1 In0 3.457869 1_556
Gd1 In1 3.457869 1_656
Gd1 In1 3.457869 1_655
Gd2 Ge2 2.995485 1_556
Gd2 Ge2 2.995485 1_555
Gd2 Ge3 3.101328 1_556
Gd2 Ge3 3.101328 1_555
Gd2 Ge0 3.101328 1_656
Gd2 Ge0 3.101328 1_655
Gd2 In0 3.457922 1_555
Gd2 In0 3.457922 1_556
Gd2 In1 3.457922 1_665
Gd2 In1 3.457922 1_666
Gd3 Ge0 2.995428 1_555
Gd3 Ge0 2.995428 1_556
Gd3 Ge1 3.101397 1_565
Gd3 Ge1 3.101397 1_566
Gd3 Ge2 3.101397 1_556
Gd3 Ge2 3.101397 1_555
Gd3 In1 3.457869 1_566
Gd3 In1 3.457869 1_565
Gd3 In0 3.457869 1_555
Gd3 In0 3.457869 1_556
Ge0 Ge3 2.509902 1_455
Ge0 In1 2.970978 1_565
Ge0 In0 2.970978 1_555
Ge1 Ge2 2.509834 1_545
Ge1 In0 2.971012 1_555
Ge1 In1 2.971012 1_555
Ge2 In1 2.971012 1_665
Ge2 In0 2.971012 1_555
Ge3 In1 2.970978 1_655
Ge3 In0 2.970978 1_555
