# generated using pymatgen
data_Rb14Si6Ge4O17
_symmetry_space_group_name_H-M   'P 1'
_cell_length_a   8.01408800
_cell_length_b   14.74205800
_cell_length_c   33.08476141
_cell_angle_alpha   77.78233892
_cell_angle_beta   90.00000000
_cell_angle_gamma   90.00000000
_symmetry_Int_Tables_number   1
_chemical_formula_structural   Rb14Si6Ge4O17
_chemical_formula_sum   'Rb56 Si24 Ge16 O68'
_cell_volume   3820.24012373
_cell_formula_units_Z   4
loop_
 _symmetry_equiv_pos_site_id
 _symmetry_equiv_pos_as_xyz
  1  'x, y, z'
loop_
 _atom_site_type_symbol
 _atom_site_label
 _atom_site_symmetry_multiplicity
 _atom_site_fract_x
 _atom_site_fract_y
 _atom_site_fract_z
 _atom_site_occupancy
  Rb  Rb0  1  0.51446700  0.95146400  0.89159800  1
  Rb  Rb1  1  0.86210300  0.29906100  0.63985500  1
  Rb  Rb2  1  0.86483900  0.64366500  0.47118300  1
  Rb  Rb3  1  0.44716300  0.44704700  0.88893800  1
  Rb  Rb4  1  0.94756800  0.79558300  0.75741100  1
  Rb  Rb5  1  0.01446700  0.54853600  0.60840200  1
  Rb  Rb6  1  0.94846900  0.32067600  0.88306200  1
  Rb  Rb7  1  0.01019300  0.29436700  0.75787000  1
  Rb  Rb8  1  0.63647600  0.07374200  0.21532100  1
  Rb  Rb9  1  0.13789700  0.70093900  0.36014500  1
  Rb  Rb10  1  0.48553300  0.04853600  0.10840200  1
  Rb  Rb11  1  0.45762000  0.94946400  0.56730300  1
  Rb  Rb12  1  0.04238000  0.44946400  0.06730300  1
  Rb  Rb13  1  0.05153100  0.67932400  0.11693800  1
  Rb  Rb14  1  0.53103500  0.67782600  0.62941900  1
  Rb  Rb15  1  0.55153100  0.82067600  0.38306200  1
  Rb  Rb16  1  0.44846900  0.17932400  0.61693800  1
  Rb  Rb17  1  0.05243200  0.20441700  0.24258900  1
  Rb  Rb18  1  0.55283700  0.55295300  0.11106200  1
  Rb  Rb19  1  0.98845500  0.00817900  0.93274300  1
  Rb  Rb20  1  0.51154500  0.50817900  0.43274300  1
  Rb  Rb21  1  0.51019300  0.20563300  0.74213000  1
  Rb  Rb22  1  0.46896500  0.32217400  0.37058100  1
  Rb  Rb23  1  0.95762000  0.55053600  0.93269700  1
  Rb  Rb24  1  0.90248300  0.92134800  0.28730300  1
  Rb  Rb25  1  0.86352400  0.57374200  0.71532100  1
  Rb  Rb26  1  0.09883700  0.79099800  0.64491800  1
  Rb  Rb27  1  0.36352400  0.92625800  0.78467900  1
  Rb  Rb28  1  0.90116300  0.20900200  0.35508200  1
  Rb  Rb29  1  0.63516100  0.14366500  0.97118300  1
  Rb  Rb30  1  0.48980700  0.79436700  0.25787000  1
  Rb  Rb31  1  0.59883700  0.70900200  0.85508200  1
  Rb  Rb32  1  0.40116300  0.29099800  0.14491800  1
  Rb  Rb33  1  0.13049000  0.12406600  0.46617900  1
  Rb  Rb34  1  0.98980700  0.70563300  0.24213000  1
  Rb  Rb35  1  0.13516100  0.35633500  0.52881700  1
  Rb  Rb36  1  0.13647600  0.42625800  0.28467900  1
  Rb  Rb37  1  0.54238000  0.05053600  0.43269700  1
  Rb  Rb38  1  0.01154500  0.99182100  0.06725700  1
  Rb  Rb39  1  0.44756800  0.70441700  0.74258900  1
  Rb  Rb40  1  0.86951000  0.87593400  0.53382100  1
  Rb  Rb41  1  0.09751700  0.07865200  0.71269700  1
  Rb  Rb42  1  0.48845500  0.49182100  0.56725700  1
  Rb  Rb43  1  0.40248300  0.57865200  0.21269700  1
  Rb  Rb44  1  0.98553300  0.45146400  0.39159800  1
  Rb  Rb45  1  0.05283700  0.94704700  0.38893800  1
  Rb  Rb46  1  0.94716300  0.05295300  0.61106200  1
  Rb  Rb47  1  0.63049000  0.37593400  0.03382100  1
  Rb  Rb48  1  0.36951000  0.62406600  0.96617900  1
  Rb  Rb49  1  0.36210300  0.20093900  0.86014500  1
  Rb  Rb50  1  0.59751700  0.42134800  0.78730300  1
  Rb  Rb51  1  0.36483900  0.85633500  0.02881700  1
  Rb  Rb52  1  0.63789700  0.79906100  0.13985500  1
  Rb  Rb53  1  0.55243200  0.29558300  0.25741100  1
  Rb  Rb54  1  0.03103500  0.82217400  0.87058100  1
  Rb  Rb55  1  0.96896500  0.17782600  0.12941900  1
  Si  Si0  1  0.85764200  0.56070800  0.82599900  1
  Si  Si1  1  0.64235800  0.06070800  0.32599900  1
  Si  Si2  1  0.89619600  0.93535500  0.17608600  1
  Si  Si3  1  0.39619600  0.56464500  0.32391400  1
  Si  Si4  1  0.22753700  0.01338500  0.20189700  1
  Si  Si5  1  0.73831400  0.64672600  0.34550800  1
  Si  Si6  1  0.14235800  0.43929200  0.17400100  1
  Si  Si7  1  0.29315000  0.14522800  0.34022900  1
  Si  Si8  1  0.27246300  0.51338500  0.70189700  1
  Si  Si9  1  0.31773800  0.97431400  0.30091300  1
  Si  Si10  1  0.60380400  0.43535500  0.67608600  1
  Si  Si11  1  0.26168600  0.35327400  0.65449200  1
  Si  Si12  1  0.18226200  0.47431400  0.80091300  1
  Si  Si13  1  0.20685000  0.64522800  0.84022900  1
  Si  Si14  1  0.68226200  0.02568600  0.69908700  1
  Si  Si15  1  0.23831400  0.85327400  0.15449200  1
  Si  Si16  1  0.81773800  0.52568600  0.19908700  1
  Si  Si17  1  0.70685000  0.85477200  0.65977100  1
  Si  Si18  1  0.72753700  0.48661500  0.29810300  1
  Si  Si19  1  0.10380400  0.06464500  0.82391400  1
  Si  Si20  1  0.76168600  0.14672600  0.84550800  1
  Si  Si21  1  0.35764200  0.93929200  0.67400100  1
  Si  Si22  1  0.79315000  0.35477200  0.15977100  1
  Si  Si23  1  0.77246300  0.98661500  0.79810300  1
  Ge  Ge0  1  0.28754400  0.67728200  0.47398200  1
  Ge  Ge1  1  0.76699000  0.64731400  0.02146000  1
  Ge  Ge2  1  0.47555600  0.24742400  0.49160700  1
  Ge  Ge3  1  0.78754400  0.82271800  0.02601800  1
  Ge  Ge4  1  0.73570700  0.77438300  0.95530000  1
  Ge  Ge5  1  0.76429300  0.27438300  0.45530000  1
  Ge  Ge6  1  0.26699000  0.85268600  0.47854000  1
  Ge  Ge7  1  0.23570700  0.72561700  0.54470000  1
  Ge  Ge8  1  0.02444400  0.74742400  0.99160700  1
  Ge  Ge9  1  0.97555600  0.25257600  0.00839300  1
  Ge  Ge10  1  0.71245600  0.32271800  0.52601800  1
  Ge  Ge11  1  0.73301000  0.14731400  0.52146000  1
  Ge  Ge12  1  0.26429300  0.22561700  0.04470000  1
  Ge  Ge13  1  0.21245600  0.17728200  0.97398200  1
  Ge  Ge14  1  0.23301000  0.35268600  0.97854000  1
  Ge  Ge15  1  0.52444400  0.75257600  0.50839300  1
  O  O0  1  0.76530100  0.11610700  0.29080800  1
  O  O1  1  0.50436100  0.13654600  0.33967800  1
  O  O2  1  0.29571600  0.75151000  0.17851400  1
  O  O3  1  0.77208800  0.50089300  0.86743900  1
  O  O4  1  0.77862700  0.87544900  0.21132200  1
  O  O5  1  0.20428400  0.25151000  0.67851400  1
  O  O6  1  0.76131700  0.75318400  0.68495400  1
  O  O7  1  0.27671000  0.97950900  0.25149400  1
  O  O8  1  0.47900600  0.50413400  0.69938600  1
  O  O9  1  0.81390400  0.56634000  0.31995800  1
  O  O10  1  0.69509600  0.50206800  0.63723900  1
  O  O11  1  0.72329000  0.02049100  0.74850600  1
  O  O12  1  0.22791200  0.49910700  0.13256100  1
  O  O13  1  0.27862700  0.62455100  0.28867800  1
  O  O14  1  0.75195800  0.62211400  0.17161800  1
  O  O15  1  0.97697800  0.48751800  0.80390000  1
  O  O16  1  0.31390400  0.93366000  0.18004200  1
  O  O17  1  0.72605500  0.38311700  0.11266600  1
  O  O18  1  0.97134300  0.13609700  0.84219200  1
  O  O19  1  0.74804200  0.12211400  0.67161800  1
  O  O20  1  0.26131700  0.74681600  0.81504600  1
  O  O21  1  0.79278500  0.38390700  0.31777000  1
  O  O22  1  0.77671000  0.52049100  0.24850600  1
  O  O23  1  0.26530100  0.38389300  0.20919200  1
  O  O24  1  0.52302200  0.98751800  0.30390000  1
  O  O25  1  0.25195800  0.87788600  0.32838200  1
  O  O26  1  0.23469900  0.88389300  0.70919200  1
  O  O27  1  0.24804200  0.37788600  0.82838200  1
  O  O28  1  0.70721500  0.88390700  0.81777000  1
  O  O29  1  0.52099400  0.49586600  0.30061400  1
  O  O30  1  0.77390100  0.93459000  0.68660900  1
  O  O31  1  0.73868300  0.25318400  0.18495400  1
  O  O32  1  0.29747400  0.88395200  0.10667200  1
  O  O33  1  0.79571600  0.74849000  0.32148600  1
  O  O34  1  0.02865700  0.86390300  0.15780800  1
  O  O35  1  0.27394500  0.61688300  0.88733400  1
  O  O36  1  0.30490400  0.49793200  0.36276100  1
  O  O37  1  0.22609900  0.06541000  0.31339100  1
  O  O38  1  0.00436100  0.36345400  0.16032200  1
  O  O39  1  0.70428400  0.24849000  0.82148600  1
  O  O40  1  0.72791200  0.00089300  0.36743900  1
  O  O41  1  0.99563900  0.63654600  0.83967800  1
  O  O42  1  0.18609600  0.43366000  0.68004200  1
  O  O43  1  0.72609900  0.43459000  0.18660900  1
  O  O44  1  0.68609600  0.06634000  0.81995800  1
  O  O45  1  0.20252600  0.38395200  0.60667200  1
  O  O46  1  0.80490400  0.00206800  0.13723900  1
  O  O47  1  0.79747400  0.61604800  0.39332800  1
  O  O48  1  0.73469900  0.61610700  0.79080800  1
  O  O49  1  0.47134300  0.36390300  0.65780800  1
  O  O50  1  0.23868300  0.24681600  0.31504600  1
  O  O51  1  0.52865700  0.63609700  0.34219200  1
  O  O52  1  0.22605500  0.11688300  0.38733400  1
  O  O53  1  0.27208800  0.99910700  0.63256100  1
  O  O54  1  0.97900600  0.99586600  0.80061400  1
  O  O55  1  0.27390100  0.56541000  0.81339100  1
  O  O56  1  0.70252600  0.11604800  0.89332800  1
  O  O57  1  0.49563900  0.86345400  0.66032200  1
  O  O58  1  0.29278500  0.11609300  0.18223000  1
  O  O59  1  0.22329000  0.47950900  0.75149400  1
  O  O60  1  0.47697800  0.01248200  0.69610000  1
  O  O61  1  0.20721500  0.61609300  0.68223000  1
  O  O62  1  0.22137300  0.12455100  0.78867800  1
  O  O63  1  0.02302200  0.51248200  0.19610000  1
  O  O64  1  0.19509600  0.99793200  0.86276100  1
  O  O65  1  0.02099400  0.00413400  0.19938600  1
  O  O66  1  0.72137300  0.37544900  0.71132200  1
  O  O67  1  0.77394500  0.88311700  0.61266600  1
loop_
_geom_bond_atom_site_label_1
_geom_bond_atom_site_label_2
_geom_bond_distance
_geom_bond_site_symmetry_2
Ge0 Ge15 2.582154 1_555
Ge0 Ge7 2.619177 1_555
Ge0 Ge6 2.627044 1_555
Ge0 Rb2 3.427740 1_455
Ge0 Rb20 3.569096 1_555
Ge0 Rb9 3.897276 1_555
Ge0 Rb15 3.911723 1_555
Ge0 Rb42 4.002478 1_555
Ge1 Ge4 2.574431 1_554
Ge1 Ge8 2.606466 1_654
Ge1 Ge3 2.627044 1_555
Ge1 Rb18 3.452999 1_555
Ge1 Rb12 3.715655 1_655
Ge1 Rb48 3.724900 1_554
Ge1 Rb23 3.842787 1_554
Ge1 Rb13 4.003995 1_655
Ge1 Rb47 4.083751 1_555
Ge2 Ge5 2.598696 1_555
Ge2 Rb33 3.508531 1_555
Ge2 Rb35 3.517353 1_555
Ge2 Rb37 3.860644 1_555
Ge2 Rb22 3.922054 1_555
Ge2 Rb20 3.934995 1_555
Ge2 Rb16 4.060408 1_555
Ge3 Ge8 2.582154 1_654
Ge3 Ge4 2.619177 1_554
Ge3 Rb51 3.427740 1_555
Ge3 Rb38 3.569096 1_655
Ge3 Rb52 3.897276 1_555
Ge3 Rb13 3.911723 1_655
Ge3 Rb19 4.002478 1_564
Ge4 Ge8 2.598696 1_655
Ge4 Rb0 3.474438 1_555
Ge4 Rb54 3.621949 1_655
Ge4 Rb48 3.649001 1_555
Ge4 Rb31 3.805076 1_555
Ge4 Rb19 3.930698 1_565
Ge4 Rb23 3.956804 1_555
Ge5 Rb44 3.474438 1_555
Ge5 Rb22 3.621949 1_555
Ge5 Rb33 3.649001 1_655
Ge5 Rb28 3.805076 1_555
Ge5 Rb20 3.930698 1_555
Ge5 Rb37 3.956804 1_555
Ge6 Ge7 2.574431 1_555
Ge6 Rb45 3.452999 1_555
Ge6 Rb37 3.715655 1_565
Ge6 Rb40 3.724900 1_455
Ge6 Rb11 3.842787 1_555
Ge6 Rb15 4.003995 1_555
Ge6 Rb33 4.083751 1_565
Ge7 Rb5 3.474438 1_555
Ge7 Rb14 3.621949 1_555
Ge7 Rb40 3.649001 1_455
Ge7 Rb26 3.805076 1_555
Ge7 Rb42 3.930698 1_555
Ge7 Rb11 3.956804 1_555
Ge8 Rb48 3.508531 1_555
Ge8 Rb51 3.517353 1_556
Ge8 Rb23 3.860644 1_455
Ge8 Rb54 3.922054 1_555
Ge8 Rb19 3.934995 1_465
Ge8 Rb13 4.060408 1_556
Ge9 Rb47 3.508531 1_555
Ge9 Rb29 3.517353 1_554
Ge9 Rb12 3.860644 1_655
Ge9 Rb55 3.922054 1_555
Ge9 Rb38 3.934995 1_645
Ge9 Rb6 4.060408 1_554
Ge10 Ge2 2.582154 1_555
Ge10 Ge5 2.619177 1_555
Ge10 Ge11 2.627044 1_555
Ge10 Rb35 3.427740 1_655
Ge10 Rb42 3.569096 1_555
Ge10 Rb1 3.897276 1_555
Ge10 Rb16 3.911723 1_555
Ge10 Rb20 4.002478 1_555
Ge11 Ge5 2.574431 1_555
Ge11 Ge2 2.606466 1_555
Ge11 Rb46 3.452999 1_555
Ge11 Rb11 3.715655 1_545
Ge11 Rb33 3.724900 1_655
Ge11 Rb37 3.842787 1_555
Ge11 Rb16 4.003995 1_555
Ge11 Rb40 4.083751 1_545
Ge12 Ge14 2.574431 1_554
Ge12 Ge9 2.598696 1_455
Ge12 Ge13 2.619177 1_554
Ge12 Rb10 3.474438 1_555
Ge12 Rb55 3.621949 1_455
Ge12 Rb47 3.649001 1_555
Ge12 Rb32 3.805076 1_555
Ge12 Rb38 3.930698 1_545
Ge12 Rb12 3.956804 1_555
Ge13 Ge9 2.582154 1_456
Ge13 Ge14 2.627044 1_555
Ge13 Rb29 3.427740 1_555
Ge13 Rb19 3.569096 1_455
Ge13 Rb49 3.897276 1_555
Ge13 Rb6 3.911723 1_455
Ge13 Rb38 4.002478 1_546
Ge14 Ge9 2.606466 1_456
Ge14 Rb3 3.452999 1_555
Ge14 Rb23 3.715655 1_455
Ge14 Rb47 3.724900 1_556
Ge14 Rb12 3.842787 1_556
Ge14 Rb6 4.003995 1_455
Ge14 Rb48 4.083751 1_555
Ge15 Ge7 2.598696 1_555
Ge15 Ge6 2.606466 1_555
Ge15 Rb40 3.508531 1_555
Ge15 Rb2 3.517353 1_555
Ge15 Rb11 3.860644 1_555
Ge15 Rb14 3.922054 1_555
Ge15 Rb42 3.934995 1_555
Ge15 Rb15 4.060408 1_555
O0 Si1 1.609616 1_555
O0 Rb8 2.890238 1_555
O0 Rb17 2.942087 1_655
O0 Rb28 2.969086 1_555
O0 Rb24 3.099438 1_545
O0 Rb53 3.145516 1_555
O1 Si7 1.697884 1_555
O1 Si1 1.700580 1_555
O1 Rb37 3.085456 1_555
O1 Rb22 3.130282 1_555
O1 Rb53 3.217523 1_555
O2 Si15 1.609116 1_555
O2 Rb43 2.699091 1_555
O2 Rb52 3.044315 1_555
O2 Rb13 3.166999 1_555
O2 Rb34 3.208586 1_455
O2 Rb30 3.227047 1_555
O3 Si0 1.617311 1_555
O3 Rb3 2.770880 1_555
O3 Rb23 2.841939 1_555
O3 Rb6 2.956762 1_555
O3 Rb50 3.417250 1_555
O4 Si2 1.609647 1_555
O4 Rb30 2.894624 1_555
O4 Rb24 2.912436 1_555
O4 Rb34 3.015026 1_555
O4 Rb52 3.042665 1_555
O4 Rb8 3.166130 1_565
O5 Si11 1.609116 1_555
O5 Rb41 2.699091 1_555
O5 Rb1 3.044315 1_455
O5 Rb16 3.166999 1_555
O5 Rb21 3.208586 1_555
O5 Rb7 3.227047 1_555
O6 Si17 1.612279 1_555
O6 Rb25 2.748320 1_555
O6 Rb14 2.979912 1_555
O6 Rb4 2.999917 1_555
O6 Rb26 3.011530 1_655
O6 Rb39 3.145622 1_555
O7 Si9 1.653558 1_555
O7 Si4 1.658440 1_565
O7 Rb30 3.188542 1_555
O7 Rb24 3.271595 1_455
O7 Rb8 3.312289 1_565
O8 Si8 1.664380 1_555
O8 Si10 1.718557 1_555
O8 Rb50 3.057714 1_555
O8 Rb14 3.095182 1_555
O8 Rb25 3.325050 1_555
O9 Si18 1.656185 1_555
O9 Si5 1.705837 1_555
O9 Rb44 2.945970 1_555
O9 Rb34 3.255188 1_555
O10 Si10 1.618447 1_555
O10 Rb5 2.766543 1_655
O10 Rb14 2.867990 1_555
O10 Rb42 2.876475 1_555
O10 Rb1 3.262774 1_555
O10 Rb25 3.281353 1_555
O11 Si14 1.653558 1_555
O11 Si23 1.658440 1_545
O11 Rb21 3.188542 1_555
O11 Rb41 3.271595 1_655
O11 Rb27 3.312289 1_545
O12 Si6 1.617311 1_555
O12 Rb18 2.770880 1_555
O12 Rb12 2.841939 1_555
O12 Rb13 2.956762 1_555
O12 Rb43 3.417250 1_555
O13 Si3 1.609647 1_555
O13 Rb34 2.894624 1_455
O13 Rb43 2.912436 1_555
O13 Rb30 3.015026 1_555
O13 Rb9 3.042665 1_555
O13 Rb36 3.166130 1_555
O14 Si16 1.605561 1_555
O14 Rb52 2.753953 1_555
O14 Rb18 2.909388 1_555
O14 Rb13 3.016976 1_655
O14 Rb43 3.119796 1_555
O14 Rb34 3.436183 1_555
O15 Si12 1.662036 1_655
O15 Si0 1.716765 1_555
O15 Rb25 3.074779 1_555
O15 Rb6 3.199179 1_555
O15 Rb50 3.275314 1_555
O15 Rb7 3.511888 1_655
O16 Si4 1.656185 1_565
O16 Si15 1.705837 1_555
O16 Rb10 2.945970 1_565
O16 Rb30 3.255188 1_555
O17 Si22 1.617682 1_555
O17 Rb47 2.742135 1_555
O17 Rb18 2.853473 1_555
O17 Rb12 3.002388 1_655
O17 Rb32 3.024702 1_555
O18 Si20 1.693213 1_555
O18 Si19 1.694620 1_655
O18 Rb7 3.250953 1_655
O18 Rb6 3.289913 1_555
O18 Rb49 3.363583 1_655
O19 Si14 1.605561 1_555
O19 Rb1 2.753953 1_555
O19 Rb46 2.909388 1_555
O19 Rb16 3.016976 1_555
O19 Rb41 3.119796 1_655
O19 Rb21 3.436183 1_555
O20 Si13 1.612279 1_555
O20 Rb27 2.748320 1_555
O20 Rb54 2.979912 1_555
O20 Rb39 2.999917 1_555
O20 Rb31 3.011530 1_555
O20 Rb4 3.145622 1_455
O21 Si18 1.603870 1_555
O21 Rb28 2.753091 1_555
O21 Rb36 2.980881 1_655
O21 Rb22 3.153207 1_555
O21 Rb44 3.220838 1_555
O21 Rb53 3.239459 1_555
O22 Si16 1.653558 1_555
O22 Si18 1.658440 1_555
O22 Rb34 3.188542 1_555
O22 Rb43 3.271595 1_555
O22 Rb36 3.312289 1_655
O23 Si6 1.609616 1_555
O23 Rb36 2.890238 1_555
O23 Rb53 2.942087 1_555
O23 Rb32 2.969086 1_555
O23 Rb43 3.099438 1_555
O23 Rb17 3.145516 1_555
O24 Si9 1.662036 1_555
O24 Si1 1.716765 1_565
O24 Rb8 3.074779 1_565
O24 Rb15 3.199179 1_555
O24 Rb24 3.275314 1_555
O24 Rb30 3.511888 1_555
O25 Si9 1.605561 1_555
O25 Rb9 2.753953 1_555
O25 Rb45 2.909388 1_555
O25 Rb15 3.016976 1_555
O25 Rb24 3.119796 1_455
O25 Rb30 3.436183 1_555
O26 Si21 1.609616 1_555
O26 Rb27 2.890238 1_555
O26 Rb4 2.942087 1_455
O26 Rb26 2.969086 1_555
O26 Rb41 3.099438 1_565
O26 Rb39 3.145516 1_555
O27 Si12 1.605561 1_555
O27 Rb49 2.753953 1_555
O27 Rb3 2.909388 1_555
O27 Rb6 3.016976 1_455
O27 Rb50 3.119796 1_555
O27 Rb7 3.436183 1_555
O28 Si23 1.603870 1_555
O28 Rb31 2.753091 1_555
O28 Rb27 2.980881 1_555
O28 Rb54 3.153207 1_655
O28 Rb0 3.220838 1_555
O28 Rb4 3.239459 1_555
O29 Si18 1.664380 1_555
O29 Si3 1.718557 1_555
O29 Rb43 3.057714 1_555
O29 Rb22 3.095182 1_555
O29 Rb36 3.325050 1_555
O30 Si14 1.657687 1_565
O30 Si17 1.704102 1_555
O30 Rb46 3.061713 1_565
O30 Rb4 3.097079 1_555
O31 Si22 1.612279 1_555
O31 Rb8 2.748320 1_555
O31 Rb55 2.979912 1_555
O31 Rb53 2.999917 1_555
O31 Rb32 3.011530 1_555
O31 Rb17 3.145622 1_655
O32 Si15 1.621591 1_555
O32 Rb51 2.745158 1_555
O32 Rb10 2.867130 1_565
O32 Rb38 2.932981 1_555
O32 Rb52 3.103691 1_555
O33 Si5 1.609116 1_555
O33 Rb24 2.699091 1_555
O33 Rb9 3.044315 1_655
O33 Rb15 3.166999 1_555
O33 Rb30 3.208586 1_555
O33 Rb34 3.227047 1_555
O34 Si15 1.693213 1_555
O34 Si2 1.694620 1_455
O34 Rb34 3.250953 1_455
O34 Rb13 3.289913 1_555
O34 Rb52 3.363583 1_455
O35 Si13 1.617682 1_555
O35 Rb48 2.742135 1_555
O35 Rb3 2.853473 1_555
O35 Rb23 3.002388 1_455
O35 Rb31 3.024702 1_555
O36 Si3 1.618447 1_555
O36 Rb44 2.766543 1_455
O36 Rb22 2.867990 1_555
O36 Rb20 2.876475 1_555
O36 Rb9 3.262774 1_555
O36 Rb36 3.281353 1_555
O37 Si9 1.657687 1_545
O37 Si7 1.704102 1_555
O37 Rb45 3.061713 1_545
O37 Rb17 3.097079 1_555
O38 Si22 1.697884 1_455
O38 Si6 1.700580 1_555
O38 Rb12 3.085456 1_555
O38 Rb55 3.130282 1_455
O38 Rb17 3.217523 1_555
O39 Si20 1.609116 1_555
O39 Rb50 2.699091 1_555
O39 Rb49 3.044315 1_555
O39 Rb6 3.166999 1_555
O39 Rb7 3.208586 1_655
O39 Rb21 3.227047 1_555
O40 Si1 1.617311 1_555
O40 Rb45 2.770880 1_645
O40 Rb37 2.841939 1_555
O40 Rb15 2.956762 1_545
O40 Rb24 3.417250 1_545
O41 Si13 1.697884 1_655
O41 Si0 1.700580 1_555
O41 Rb23 3.085456 1_555
O41 Rb54 3.130282 1_655
O41 Rb4 3.217523 1_555
O42 Si8 1.656185 1_555
O42 Si11 1.705837 1_555
O42 Rb5 2.945970 1_555
O42 Rb7 3.255188 1_555
O43 Si16 1.657687 1_555
O43 Si22 1.704102 1_555
O43 Rb18 3.061713 1_555
O43 Rb53 3.097079 1_555
O44 Si23 1.656185 1_545
O44 Si20 1.705837 1_555
O44 Rb0 2.945970 1_545
O44 Rb21 3.255188 1_555
O45 Si11 1.621591 1_555
O45 Rb35 2.745158 1_555
O45 Rb5 2.867130 1_555
O45 Rb42 2.932981 1_555
O45 Rb1 3.103691 1_455
O46 Si2 1.618447 1_545
O46 Rb10 2.766543 1_555
O46 Rb55 2.867990 1_555
O46 Rb38 2.876475 1_645
O46 Rb52 3.262774 1_545
O46 Rb8 3.281353 1_555
O47 Si5 1.621591 1_555
O47 Rb2 2.745158 1_555
O47 Rb44 2.867130 1_555
O47 Rb20 2.932981 1_555
O47 Rb9 3.103691 1_655
O48 Si0 1.609616 1_555
O48 Rb25 2.890238 1_555
O48 Rb39 2.942087 1_555
O48 Rb31 2.969086 1_555
O48 Rb50 3.099438 1_555
O48 Rb4 3.145516 1_555
O49 Si11 1.693213 1_555
O49 Si10 1.694620 1_555
O49 Rb21 3.250953 1_555
O49 Rb16 3.289913 1_555
O49 Rb1 3.363583 1_555
O50 Si7 1.612279 1_555
O50 Rb36 2.748320 1_555
O50 Rb22 2.979912 1_555
O50 Rb17 2.999917 1_555
O50 Rb28 3.011530 1_455
O50 Rb53 3.145622 1_555
O51 Si5 1.693213 1_555
O51 Si3 1.694620 1_555
O51 Rb30 3.250953 1_555
O51 Rb15 3.289913 1_555
O51 Rb9 3.363583 1_555
O52 Si7 1.617682 1_555
O52 Rb33 2.742135 1_555
O52 Rb45 2.853473 1_545
O52 Rb37 3.002388 1_555
O52 Rb28 3.024702 1_455
O53 Si21 1.617311 1_555
O53 Rb46 2.770880 1_465
O53 Rb11 2.841939 1_555
O53 Rb16 2.956762 1_565
O53 Rb41 3.417250 1_565
O54 Si23 1.664380 1_555
O54 Si19 1.718557 1_665
O54 Rb41 3.057714 1_665
O54 Rb54 3.095182 1_655
O54 Rb27 3.325050 1_655
O55 Si12 1.657687 1_555
O55 Si13 1.704102 1_555
O55 Rb3 3.061713 1_555
O55 Rb39 3.097079 1_555
O56 Si20 1.621591 1_555
O56 Rb29 2.745158 1_555
O56 Rb0 2.867130 1_545
O56 Rb19 2.932981 1_555
O56 Rb49 3.103691 1_555
O57 Si17 1.697884 1_555
O57 Si21 1.700580 1_555
O57 Rb11 3.085456 1_555
O57 Rb14 3.130282 1_555
O57 Rb39 3.217523 1_555
O58 Si4 1.603870 1_555
O58 Rb32 2.753091 1_555
O58 Rb8 2.980881 1_555
O58 Rb55 3.153207 1_455
O58 Rb10 3.220838 1_555
O58 Rb17 3.239459 1_555
O59 Si12 1.653558 1_555
O59 Si8 1.658440 1_555
O59 Rb7 3.188542 1_555
O59 Rb50 3.271595 1_555
O59 Rb25 3.312289 1_455
O60 Si14 1.662036 1_555
O60 Si21 1.716765 1_545
O60 Rb27 3.074779 1_545
O60 Rb16 3.199179 1_555
O60 Rb41 3.275314 1_555
O60 Rb21 3.511888 1_555
O61 Si8 1.603870 1_555
O61 Rb26 2.753091 1_555
O61 Rb25 2.980881 1_455
O61 Rb14 3.153207 1_555
O61 Rb5 3.220838 1_555
O61 Rb39 3.239459 1_555
O62 Si19 1.609647 1_555
O62 Rb21 2.894624 1_555
O62 Rb41 2.912436 1_555
O62 Rb7 3.015026 1_555
O62 Rb49 3.042665 1_555
O62 Rb27 3.166130 1_545
O63 Si16 1.662036 1_455
O63 Si6 1.716765 1_555
O63 Rb36 3.074779 1_555
O63 Rb13 3.199179 1_555
O63 Rb43 3.275314 1_555
O63 Rb34 3.511888 1_455
O64 Si19 1.618447 1_565
O64 Rb0 2.766543 1_555
O64 Rb54 2.867990 1_555
O64 Rb19 2.876475 1_465
O64 Rb49 3.262774 1_565
O64 Rb27 3.281353 1_555
O65 Si4 1.664380 1_555
O65 Si2 1.718557 1_445
O65 Rb24 3.057714 1_445
O65 Rb55 3.095182 1_455
O65 Rb8 3.325050 1_455
O66 Si10 1.609647 1_555
O66 Rb7 2.894624 1_655
O66 Rb50 2.912436 1_555
O66 Rb21 3.015026 1_555
O66 Rb1 3.042665 1_555
O66 Rb25 3.166130 1_555
O67 Si17 1.617682 1_555
O67 Rb40 2.742135 1_555
O67 Rb46 2.853473 1_565
O67 Rb11 3.002388 1_555
O67 Rb26 3.024702 1_655
