# generated using pymatgen
data_K2BiH5(CO2)5
_symmetry_space_group_name_H-M   'P 1'
_cell_length_a   7.24695102
_cell_length_b   7.24695102
_cell_length_c   12.38186480
_cell_angle_alpha   87.46476176
_cell_angle_beta   87.46476176
_cell_angle_gamma   112.34991120
_symmetry_Int_Tables_number   1
_chemical_formula_structural   K2BiH5(CO2)5
_chemical_formula_sum   'K4 Bi2 H10 C10 O20'
_cell_volume   599.52327161
_cell_formula_units_Z   2
loop_
 _symmetry_equiv_pos_site_id
 _symmetry_equiv_pos_as_xyz
  1  'x, y, z'
loop_
 _atom_site_type_symbol
 _atom_site_label
 _atom_site_symmetry_multiplicity
 _atom_site_fract_x
 _atom_site_fract_y
 _atom_site_fract_z
 _atom_site_occupancy
  K  K0  1  0.95487700  0.24920400  0.88120500  1
  K  K1  1  0.75079600  0.04512300  0.61879500  1
  K  K2  1  0.04512300  0.75079600  0.11879500  1
  K  K3  1  0.24920400  0.95487700  0.38120500  1
  Bi  Bi0  1  0.16981600  0.83018400  0.75000000  1
  Bi  Bi1  1  0.83018400  0.16981600  0.25000000  1
  H  H0  1  0.65092400  0.65419500  0.93246900  1
  H  H1  1  0.34580500  0.34907600  0.56753100  1
  H  H2  1  0.34907600  0.34580500  0.06753100  1
  H  H3  1  0.65419500  0.65092400  0.43246900  1
  H  H4  1  0.51400400  0.22512500  0.95636900  1
  H  H5  1  0.77487500  0.48599600  0.54363100  1
  H  H6  1  0.48599600  0.77487500  0.04363100  1
  H  H7  1  0.22512500  0.51400400  0.45636900  1
  H  H8  1  0.50547600  0.49452400  0.75000000  1
  H  H9  1  0.49452400  0.50547600  0.25000000  1
  C  C0  1  0.79774900  0.70062400  0.88587200  1
  C  C1  1  0.29937600  0.20225100  0.61412800  1
  C  C2  1  0.20225100  0.29937600  0.11412800  1
  C  C3  1  0.70062400  0.79774900  0.38587200  1
  C  C4  1  0.42977100  0.11394200  0.89874500  1
  C  C5  1  0.88605800  0.57022900  0.60125500  1
  C  C6  1  0.57022900  0.88605800  0.10125500  1
  C  C7  1  0.11394200  0.42977100  0.39874500  1
  C  C8  1  0.41296200  0.58703800  0.75000000  1
  C  C9  1  0.58703800  0.41296200  0.25000000  1
  O  O0  1  0.83908100  0.83953900  0.81115400  1
  O  O1  1  0.16046100  0.16091900  0.68884600  1
  O  O2  1  0.16091900  0.16046100  0.18884600  1
  O  O3  1  0.83953900  0.83908100  0.31115400  1
  O  O4  1  0.91360100  0.61296300  0.90907200  1
  O  O5  1  0.38703700  0.08639900  0.59092800  1
  O  O6  1  0.08639900  0.38703700  0.09092800  1
  O  O7  1  0.61296300  0.91360100  0.40907200  1
  O  O8  1  0.24120300  0.02621300  0.91927600  1
  O  O9  1  0.97378700  0.75879700  0.58072400  1
  O  O10  1  0.75879700  0.97378700  0.08072400  1
  O  O11  1  0.02621300  0.24120300  0.41927600  1
  O  O12  1  0.52599300  0.08363800  0.81856900  1
  O  O13  1  0.91636200  0.47400700  0.68143100  1
  O  O14  1  0.47400700  0.91636200  0.18143100  1
  O  O15  1  0.08363800  0.52599300  0.31856900  1
  O  O16  1  0.41793700  0.69017300  0.66346200  1
  O  O17  1  0.30982700  0.58206300  0.83653800  1
  O  O18  1  0.58206300  0.30982700  0.33653800  1
  O  O19  1  0.69017300  0.41793700  0.16346200  1
loop_
_geom_bond_atom_site_label_1
_geom_bond_atom_site_label_2
_geom_bond_distance
_geom_bond_site_symmetry_2
K0 O17 2.788998 1_655
K0 O4 2.798004 1_555
K0 O6 2.893743 1_656
K0 O0 2.944130 1_545
K0 O1 2.974497 1_655
K0 O13 2.983448 1_555
K0 O12 3.026681 1_555
K0 O10 3.033503 1_546
K0 O8 3.115861 1_655
K1 O16 2.788998 1_545
K1 O5 2.798004 1_555
K1 O7 2.893743 1_545
K1 O1 2.944130 1_655
K1 O0 2.974497 1_545
K1 O12 2.983448 1_555
K1 O13 3.026681 1_555
K1 O11 3.033503 1_655
K1 O9 3.115861 1_545
K2 O19 2.788998 1_455
K2 O6 2.798004 1_555
K2 O4 2.893743 1_454
K2 O2 2.944130 1_565
K2 O3 2.974497 1_455
K2 O15 2.983448 1_555
K2 O14 3.026681 1_555
K2 O8 3.033503 1_564
K2 O10 3.115861 1_455
K3 O18 2.788998 1_565
K3 O7 2.798004 1_555
K3 O5 2.893743 1_565
K3 O3 2.944130 1_455
K3 O2 2.974497 1_565
K3 O14 2.983448 1_555
K3 O15 3.026681 1_555
K3 O9 3.033503 1_455
K3 O11 3.115861 1_565
Bi0 O1 2.508039 1_565
Bi0 O0 2.508039 1_455
Bi0 O8 2.545427 1_565
Bi0 O9 2.545427 1_455
Bi0 O16 2.593098 1_555
Bi0 O17 2.593098 1_555
Bi0 O4 2.642776 1_455
Bi0 O5 2.642776 1_565
Bi0 O13 2.735555 1_455
Bi0 O12 2.735555 1_565
Bi1 O2 2.508039 1_655
Bi1 O3 2.508039 1_545
Bi1 O11 2.545427 1_655
Bi1 O10 2.545427 1_545
Bi1 O19 2.593098 1_555
Bi1 O18 2.593098 1_555
Bi1 O7 2.642776 1_545
Bi1 O6 2.642776 1_655
Bi1 O14 2.735555 1_545
Bi1 O15 2.735555 1_655
C0 H0 1.111079 1_555
C0 O4 1.265623 1_555
C0 O0 1.273909 1_555
C1 H1 1.111079 1_555
C1 O5 1.265623 1_555
C1 O1 1.273909 1_555
C2 H2 1.111079 1_555
C2 O6 1.265623 1_555
C2 O2 1.273909 1_555
C3 H3 1.111079 1_555
C3 O7 1.265623 1_555
C3 O3 1.273909 1_555
C4 H4 1.116351 1_555
C4 O12 1.262735 1_555
C4 O8 1.276905 1_555
C5 H5 1.116351 1_555
C5 O13 1.262735 1_555
C5 O9 1.276905 1_555
C6 H6 1.116351 1_555
C6 O14 1.262735 1_555
C6 O10 1.276905 1_555
C7 H7 1.116351 1_555
C7 O15 1.262735 1_555
C7 O11 1.276905 1_555
C8 H8 1.113932 1_555
C8 O17 1.270151 1_555
C8 O16 1.270151 1_555
C9 H9 1.113932 1_555
C9 O18 1.270151 1_555
C9 O19 1.270151 1_555
