# generated using pymatgen
data_Fe2C9O7F4
_symmetry_space_group_name_H-M   'P 1'
_cell_length_a   9.00926700
_cell_length_b   11.20359600
_cell_length_c   12.43384400
_cell_angle_alpha   90.00000000
_cell_angle_beta   90.00000000
_cell_angle_gamma   90.00000000
_symmetry_Int_Tables_number   1
_chemical_formula_structural   Fe2C9O7F4
_chemical_formula_sum   'Fe8 C36 O28 F16'
_cell_volume   1255.02481212
_cell_formula_units_Z   4
loop_
 _symmetry_equiv_pos_site_id
 _symmetry_equiv_pos_as_xyz
  1  'x, y, z'
loop_
 _atom_site_type_symbol
 _atom_site_label
 _atom_site_symmetry_multiplicity
 _atom_site_fract_x
 _atom_site_fract_y
 _atom_site_fract_z
 _atom_site_occupancy
  Fe  Fe0  1  0.82912500  0.25000000  0.08261000  1
  Fe  Fe1  1  0.67087500  0.75000000  0.58261000  1
  Fe  Fe2  1  0.17087500  0.75000000  0.91739000  1
  Fe  Fe3  1  0.35088400  0.75000000  0.07058800  1
  Fe  Fe4  1  0.85088400  0.75000000  0.42941200  1
  Fe  Fe5  1  0.64911600  0.25000000  0.92941200  1
  Fe  Fe6  1  0.14911600  0.25000000  0.57058800  1
  Fe  Fe7  1  0.32912500  0.25000000  0.41739000  1
  C  C0  1  0.72200600  0.75000000  0.72236300  1
  C  C1  1  0.37430400  0.25000000  0.57221000  1
  C  C2  1  0.94926700  0.25000000  0.56397200  1
  C  C3  1  0.03945000  0.87194700  0.90231400  1
  C  C4  1  0.55073300  0.75000000  0.06397200  1
  C  C5  1  0.83813000  0.86657600  0.55139300  1
  C  C6  1  0.66300900  0.12958400  0.83156600  1
  C  C7  1  0.33813000  0.86657600  0.94860700  1
  C  C8  1  0.46055000  0.12805300  0.40231400  1
  C  C9  1  0.66300900  0.37041600  0.83156600  1
  C  C10  1  0.87430400  0.25000000  0.92779000  1
  C  C11  1  0.83699100  0.87041600  0.33156600  1
  C  C12  1  0.66187000  0.36657600  0.05139300  1
  C  C13  1  0.27799400  0.25000000  0.27763700  1
  C  C14  1  0.83699100  0.62958400  0.33156600  1
  C  C15  1  0.66187000  0.13342400  0.05139300  1
  C  C16  1  0.46055000  0.37194700  0.40231400  1
  C  C17  1  0.16187000  0.36657600  0.44860700  1
  C  C18  1  0.16187000  0.13342400  0.44860700  1
  C  C19  1  0.05073300  0.75000000  0.43602800  1
  C  C20  1  0.77799400  0.25000000  0.22236300  1
  C  C21  1  0.12569600  0.75000000  0.07221000  1
  C  C22  1  0.03945000  0.62805300  0.90231400  1
  C  C23  1  0.96055000  0.37194700  0.09768600  1
  C  C24  1  0.16300900  0.12958400  0.66843400  1
  C  C25  1  0.53945000  0.87194700  0.59768600  1
  C  C26  1  0.16300900  0.37041600  0.66843400  1
  C  C27  1  0.22200600  0.75000000  0.77763700  1
  C  C28  1  0.83813000  0.63342400  0.55139300  1
  C  C29  1  0.33699100  0.62958400  0.16843400  1
  C  C30  1  0.33699100  0.87041600  0.16843400  1
  C  C31  1  0.33813000  0.63342400  0.94860700  1
  C  C32  1  0.96055000  0.12805300  0.09768600  1
  C  C33  1  0.44926700  0.25000000  0.93602800  1
  C  C34  1  0.62569600  0.75000000  0.42779000  1
  C  C35  1  0.53945000  0.62805300  0.59768600  1
  O  O0  1  0.45743500  0.94991200  0.60997100  1
  O  O1  1  0.52850200  0.75000000  0.36459800  1
  O  O2  1  0.54256500  0.44991200  0.39002900  1
  O  O3  1  0.25255900  0.75000000  0.68746200  1
  O  O4  1  0.82615100  0.55367300  0.26930800  1
  O  O5  1  0.04256500  0.44991200  0.10997100  1
  O  O6  1  0.95743500  0.94991200  0.89002900  1
  O  O7  1  0.54256500  0.05008800  0.39002900  1
  O  O8  1  0.95743500  0.55008800  0.89002900  1
  O  O9  1  0.67886200  0.75000000  0.06186900  1
  O  O10  1  0.74744100  0.25000000  0.31253800  1
  O  O11  1  0.82113800  0.25000000  0.56186900  1
  O  O12  1  0.47149800  0.25000000  0.63540200  1
  O  O13  1  0.75255900  0.75000000  0.81253800  1
  O  O14  1  0.04256500  0.05008800  0.10997100  1
  O  O15  1  0.17886200  0.75000000  0.43813100  1
  O  O16  1  0.32615100  0.55367300  0.23069200  1
  O  O17  1  0.32113800  0.25000000  0.93813100  1
  O  O18  1  0.97149800  0.25000000  0.86459800  1
  O  O19  1  0.24744100  0.25000000  0.18746200  1
  O  O20  1  0.32615100  0.94632700  0.23069200  1
  O  O21  1  0.82615100  0.94632700  0.26930800  1
  O  O22  1  0.67384900  0.44632700  0.76930800  1
  O  O23  1  0.02850200  0.75000000  0.13540200  1
  O  O24  1  0.45743500  0.55008800  0.60997100  1
  O  O25  1  0.17384900  0.44632700  0.73069200  1
  O  O26  1  0.17384900  0.05367300  0.73069200  1
  O  O27  1  0.67384900  0.05367300  0.76930800  1
  F  F0  1  0.45245000  0.62511000  0.87609500  1
  F  F1  1  0.80249300  0.98299600  0.52934300  1
  F  F2  1  0.04755000  0.12511000  0.37609500  1
  F  F3  1  0.95245000  0.62511000  0.62390500  1
  F  F4  1  0.30249300  0.98299600  0.97065700  1
  F  F5  1  0.19750700  0.48299600  0.47065700  1
  F  F6  1  0.45245000  0.87489000  0.87609500  1
  F  F7  1  0.69750700  0.01700400  0.02934300  1
  F  F8  1  0.19750700  0.01700400  0.47065700  1
  F  F9  1  0.54755000  0.37489000  0.12390500  1
  F  F10  1  0.95245000  0.87489000  0.62390500  1
  F  F11  1  0.80249300  0.51700400  0.52934300  1
  F  F12  1  0.69750700  0.48299600  0.02934300  1
  F  F13  1  0.30249300  0.51700400  0.97065700  1
  F  F14  1  0.54755000  0.12511000  0.12390500  1
  F  F15  1  0.04755000  0.37489000  0.37609500  1
loop_
_geom_bond_atom_site_label_1
_geom_bond_atom_site_label_2
_geom_bond_distance
_geom_bond_site_symmetry_2
C0 O13 1.154516 1_555
C0 Fe1 1.797690 1_555
C1 O12 1.176483 1_555
C1 Fe7 1.967569 1_555
C1 Fe6 2.028879 1_555
C2 O11 1.154644 1_555
C2 Fe6 1.802371 1_655
C3 O6 1.154244 1_455
C3 Fe2 1.817614 1_555
C4 O9 1.154644 1_555
C4 Fe3 1.802371 1_555
C5 F1 1.370951 1_555
C5 F10 1.371984 1_555
C5 Fe4 2.004839 1_555
C5 Fe1 2.031517 1_555
C6 O27 1.154161 1_555
C6 Fe5 1.820944 1_555
C7 F4 1.370951 1_555
C7 F6 1.371984 1_555
C7 Fe3 2.004839 1_556
C7 Fe2 2.031517 1_555
C8 O7 1.154244 1_555
C8 Fe7 1.817614 1_555
C9 O22 1.154161 1_555
C9 Fe5 1.820944 1_555
C10 O18 1.176483 1_555
C10 Fe0 1.967569 1_556
C10 Fe5 2.028879 1_555
C11 O21 1.154161 1_555
C11 Fe4 1.820944 1_555
C12 F12 1.370951 1_555
C12 F9 1.371984 1_555
C12 Fe5 2.004839 1_554
C12 Fe0 2.031517 1_555
C13 O19 1.154516 1_555
C13 Fe7 1.797690 1_555
C14 O4 1.154161 1_555
C14 Fe4 1.820944 1_555
C15 F7 1.370951 1_555
C15 F14 1.371984 1_555
C15 Fe5 2.004839 1_554
C15 Fe0 2.031517 1_555
C16 O2 1.154244 1_555
C16 Fe7 1.817614 1_555
C17 F5 1.370951 1_555
C17 F15 1.371984 1_555
C17 Fe6 2.004839 1_555
C17 Fe7 2.031517 1_555
C18 F8 1.370951 1_555
C18 F2 1.371984 1_555
C18 Fe6 2.004839 1_555
C18 Fe7 2.031517 1_555
C19 O15 1.154644 1_555
C19 Fe4 1.802371 1_455
C20 O10 1.154516 1_555
C20 Fe0 1.797690 1_555
C21 O23 1.176483 1_555
C21 Fe2 1.967569 1_554
C21 Fe3 2.028879 1_555
C22 O8 1.154244 1_455
C22 Fe2 1.817614 1_555
C23 O5 1.154244 1_655
C23 Fe0 1.817614 1_555
C24 O26 1.154161 1_555
C24 Fe6 1.820944 1_555
C25 O0 1.154244 1_555
C25 Fe1 1.817614 1_555
C26 O25 1.154161 1_555
C26 Fe6 1.820944 1_555
C27 O3 1.154516 1_555
C27 Fe2 1.797690 1_555
C28 F11 1.370951 1_555
C28 F3 1.371984 1_555
C28 Fe4 2.004839 1_555
C28 Fe1 2.031517 1_555
C29 O16 1.154161 1_555
C29 Fe3 1.820944 1_555
C30 O20 1.154161 1_555
C30 Fe3 1.820944 1_555
C31 F13 1.370951 1_555
C31 F0 1.371984 1_555
C31 Fe3 2.004839 1_556
C31 Fe2 2.031517 1_555
C32 O14 1.154244 1_655
C32 Fe0 1.817614 1_555
C33 O17 1.154644 1_555
C33 Fe5 1.802371 1_555
C34 O1 1.176483 1_555
C34 Fe1 1.967569 1_555
C34 Fe4 2.028879 1_555
C35 O24 1.154244 1_555
C35 Fe1 1.817614 1_555
