# generated using pymatgen
data_Sb(PO3)4
_symmetry_space_group_name_H-M   'P 1'
_cell_length_a   8.80793200
_cell_length_b   7.53647200
_cell_length_c   15.77000244
_cell_angle_alpha   68.10465674
_cell_angle_beta   90.00000000
_cell_angle_gamma   90.00000000
_symmetry_Int_Tables_number   1
_chemical_formula_structural   Sb(PO3)4
_chemical_formula_sum   'Sb4 P16 O48'
_cell_volume   971.31328611
_cell_formula_units_Z   4
loop_
 _symmetry_equiv_pos_site_id
 _symmetry_equiv_pos_as_xyz
  1  'x, y, z'
loop_
 _atom_site_type_symbol
 _atom_site_label
 _atom_site_symmetry_multiplicity
 _atom_site_fract_x
 _atom_site_fract_y
 _atom_site_fract_z
 _atom_site_occupancy
  Sb  Sb0  1  0.15717200  0.68689400  0.85436600  1
  Sb  Sb1  1  0.65717200  0.31310600  0.64563400  1
  Sb  Sb2  1  0.34282800  0.68689400  0.35436600  1
  Sb  Sb3  1  0.84282800  0.31310600  0.14563400  1
  P  P0  1  0.23813600  0.77258500  0.04620000  1
  P  P1  1  0.27197300  0.36446400  0.57102300  1
  P  P2  1  0.47051300  0.10090400  0.18600800  1
  P  P3  1  0.77197300  0.63553600  0.92897700  1
  P  P4  1  0.02948700  0.10090400  0.68600800  1
  P  P5  1  0.52948700  0.89909600  0.81399200  1
  P  P6  1  0.55029300  0.34430500  0.28500700  1
  P  P7  1  0.44970700  0.65569500  0.71499300  1
  P  P8  1  0.22802700  0.36446400  0.07102300  1
  P  P9  1  0.05029300  0.65569500  0.21499300  1
  P  P10  1  0.94970700  0.34430500  0.78500700  1
  P  P11  1  0.26186400  0.77258500  0.54620000  1
  P  P12  1  0.76186400  0.22741500  0.95380000  1
  P  P13  1  0.72802700  0.63553600  0.42897700  1
  P  P14  1  0.97051300  0.89909600  0.31399200  1
  P  P15  1  0.73813600  0.22741500  0.45380000  1
  O  O0  1  0.60261700  0.09541600  0.77579500  1
  O  O1  1  0.13495800  0.88851800  0.34015400  1
  O  O2  1  0.93992400  0.79985300  0.24013500  1
  O  O3  1  0.37717600  0.79662600  0.62285700  1
  O  O4  1  0.86504200  0.11148200  0.65984600  1
  O  O5  1  0.59560400  0.73596800  0.36998400  1
  O  O6  1  0.87079500  0.10602600  0.46454100  1
  O  O7  1  0.63495800  0.11148200  0.15984600  1
  O  O8  1  0.10261700  0.90458400  0.72420500  1
  O  O9  1  0.21101100  0.42179600  0.96804100  1
  O  O10  1  0.12282400  0.79662600  0.12285700  1
  O  O11  1  0.36504200  0.88851800  0.84015400  1
  O  O12  1  0.40439600  0.26403200  0.63001600  1
  O  O13  1  0.33188000  0.57691700  0.78999400  1
  O  O14  1  0.95872300  0.50151400  0.20102200  1
  O  O15  1  0.28309500  0.54349700  0.09440200  1
  O  O16  1  0.71101100  0.57820400  0.53195900  1
  O  O17  1  0.87717600  0.20337400  0.87714300  1
  O  O18  1  0.12582600  0.22982500  0.59851700  1
  O  O19  1  0.37417400  0.22982500  0.09851700  1
  O  O20  1  0.89738300  0.09541600  0.27579500  1
  O  O21  1  0.83188000  0.42308300  0.71000600  1
  O  O22  1  0.78898900  0.57820400  0.03195900  1
  O  O23  1  0.12881100  0.78732000  0.96752200  1
  O  O24  1  0.66812000  0.42308300  0.21000600  1
  O  O25  1  0.54127700  0.50151400  0.70102200  1
  O  O26  1  0.28898900  0.42179600  0.46804100  1
  O  O27  1  0.62282400  0.20337400  0.37714300  1
  O  O28  1  0.12920500  0.89397400  0.53545900  1
  O  O29  1  0.09560400  0.26403200  0.13001600  1
  O  O30  1  0.37079500  0.89397400  0.03545900  1
  O  O31  1  0.45872300  0.49848600  0.29897800  1
  O  O32  1  0.62881100  0.21268000  0.53247800  1
  O  O33  1  0.87118900  0.21268000  0.03247800  1
  O  O34  1  0.90439600  0.73596800  0.86998400  1
  O  O35  1  0.21690500  0.54349700  0.59440200  1
  O  O36  1  0.37118900  0.78732000  0.46752200  1
  O  O37  1  0.62920500  0.10602600  0.96454100  1
  O  O38  1  0.87417400  0.77017500  0.40148300  1
  O  O39  1  0.04127700  0.49848600  0.79897800  1
  O  O40  1  0.06007600  0.20014700  0.75986500  1
  O  O41  1  0.16812000  0.57691700  0.28999400  1
  O  O42  1  0.78309500  0.45650300  0.40559800  1
  O  O43  1  0.56007600  0.79985300  0.74013500  1
  O  O44  1  0.71690500  0.45650300  0.90559800  1
  O  O45  1  0.43992400  0.20014700  0.25986500  1
  O  O46  1  0.39738300  0.90458400  0.22420500  1
  O  O47  1  0.62582600  0.77017500  0.90148300  1
loop_
_geom_bond_atom_site_label_1
_geom_bond_atom_site_label_2
_geom_bond_distance
_geom_bond_site_symmetry_2
O0 P5 1.517278 1_545
O0 Sb1 2.150397 1_555
O1 P14 1.499988 1_455
O1 Sb2 2.336113 1_555
O2 P9 1.613647 1_655
O2 P14 1.624289 1_555
O3 P7 1.580001 1_555
O3 P11 1.639861 1_555
O4 P4 1.499988 1_655
O4 Sb1 2.336113 1_555
O5 P13 1.507860 1_555
O5 Sb2 2.285255 1_555
O6 P15 1.454420 1_555
O7 P2 1.499988 1_555
O7 Sb3 2.336113 1_555
O8 P4 1.517278 1_565
O8 Sb0 2.150397 1_555
O9 P8 1.524226 1_556
O9 Sb0 2.181489 1_555
O10 P9 1.580001 1_555
O10 P0 1.639861 1_555
O11 P5 1.499988 1_555
O11 Sb0 2.336113 1_555
O12 P1 1.507860 1_555
O12 Sb1 2.285255 1_555
O13 P7 1.518139 1_555
O13 Sb0 2.170941 1_555
O14 P9 1.496727 1_655
O14 Sb3 2.178577 1_555
O15 P8 1.600861 1_555
O15 P0 1.654287 1_555
O16 P13 1.524226 1_555
O16 Sb1 2.181489 1_555
O17 P10 1.580001 1_555
O17 P12 1.639861 1_555
O18 P1 1.595777 1_555
O18 P4 1.602466 1_555
O19 P8 1.595777 1_555
O19 P2 1.602466 1_555
O20 P14 1.517278 1_545
O20 Sb3 2.150397 1_555
O21 P10 1.518139 1_555
O21 Sb1 2.170941 1_555
O22 P3 1.524226 1_554
O22 Sb3 2.181489 1_555
O23 P0 1.541513 1_556
O23 Sb0 2.197015 1_555
O24 P6 1.518139 1_555
O24 Sb3 2.170941 1_555
O25 P7 1.496727 1_555
O25 Sb1 2.178577 1_555
O26 P1 1.524226 1_555
O26 Sb2 2.181489 1_555
O27 P6 1.580001 1_555
O27 P15 1.639861 1_555
O28 P11 1.454420 1_555
O29 P8 1.507860 1_555
O29 Sb3 2.285255 1_455
O30 P0 1.454420 1_555
O31 P6 1.496727 1_555
O31 Sb2 2.178577 1_555
O32 P15 1.541513 1_555
O32 Sb1 2.197015 1_555
O33 P12 1.541513 1_554
O33 Sb3 2.197015 1_555
O34 P3 1.507860 1_555
O34 Sb0 2.285255 1_655
O35 P1 1.600861 1_555
O35 P11 1.654287 1_555
O36 P11 1.541513 1_555
O36 Sb2 2.197015 1_555
O37 P12 1.454420 1_555
O38 P13 1.595777 1_555
O38 P14 1.602466 1_555
O39 P10 1.496727 1_455
O39 Sb0 2.178577 1_555
O40 P10 1.613647 1_455
O40 P4 1.624289 1_555
O41 P9 1.518139 1_555
O41 Sb2 2.170941 1_555
O42 P13 1.600861 1_555
O42 P15 1.654287 1_555
O43 P7 1.613647 1_555
O43 P5 1.624289 1_555
O44 P3 1.600861 1_555
O44 P12 1.654287 1_555
O45 P6 1.613647 1_555
O45 P2 1.624289 1_555
O46 P2 1.517278 1_565
O46 Sb2 2.150397 1_555
O47 P3 1.595777 1_555
O47 P5 1.602466 1_555
