# generated using pymatgen
data_ZnPH7C2N4O5
_symmetry_space_group_name_H-M   'P 1'
_cell_length_a   5.15398900
_cell_length_b   10.73243700
_cell_length_c   13.81910809
_cell_angle_alpha   83.97752936
_cell_angle_beta   90.00000000
_cell_angle_gamma   90.00000000
_symmetry_Int_Tables_number   1
_chemical_formula_structural   ZnPH7C2N4O5
_chemical_formula_sum   'Zn4 P4 H28 C8 N16 O20'
_cell_volume   760.18319077
_cell_formula_units_Z   4
loop_
 _symmetry_equiv_pos_site_id
 _symmetry_equiv_pos_as_xyz
  1  'x, y, z'
loop_
 _atom_site_type_symbol
 _atom_site_label
 _atom_site_symmetry_multiplicity
 _atom_site_fract_x
 _atom_site_fract_y
 _atom_site_fract_z
 _atom_site_occupancy
  Zn  Zn0  1  0.20370200  0.64211400  0.99931800  1
  Zn  Zn1  1  0.70370200  0.85788600  0.00068200  1
  Zn  Zn2  1  0.79629800  0.35788600  0.00068200  1
  Zn  Zn3  1  0.29629800  0.14211400  0.99931800  1
  P  P0  1  0.22502300  0.88150000  0.12580200  1
  P  P1  1  0.72502300  0.61850000  0.87419800  1
  P  P2  1  0.77497700  0.11850000  0.87419800  1
  P  P3  1  0.27497700  0.38150000  0.12580200  1
  H  H0  1  0.99749000  0.93053900  0.44624500  1
  H  H1  1  0.49749000  0.56946100  0.55375500  1
  H  H2  1  0.00251000  0.06946100  0.55375500  1
  H  H3  1  0.50251000  0.43053900  0.44624500  1
  H  H4  1  0.15550300  0.88618800  0.34001900  1
  H  H5  1  0.65550300  0.61381200  0.65998100  1
  H  H6  1  0.84449700  0.11381200  0.65998100  1
  H  H7  1  0.34449700  0.38618800  0.34001900  1
  H  H8  1  0.45329700  0.98454300  0.26923000  1
  H  H9  1  0.95329700  0.51545700  0.73077000  1
  H  H10  1  0.54670300  0.01545700  0.73077000  1
  H  H11  1  0.04670300  0.48454300  0.26923000  1
  H  H12  1  0.90145900  0.26829800  0.34861900  1
  H  H13  1  0.40145900  0.23170200  0.65138100  1
  H  H14  1  0.09854100  0.73170200  0.65138100  1
  H  H15  1  0.59854100  0.76829800  0.34861900  1
  H  H16  1  0.63724900  0.21170900  0.42547600  1
  H  H17  1  0.13724900  0.28829100  0.57452400  1
  H  H18  1  0.36275100  0.78829100  0.57452400  1
  H  H19  1  0.86275100  0.71170900  0.42547600  1
  H  H20  1  0.98073700  0.18073600  0.20998200  1
  H  H21  1  0.48073700  0.31926400  0.79001800  1
  H  H22  1  0.01926300  0.81926400  0.79001800  1
  H  H23  1  0.51926300  0.68073600  0.20998200  1
  H  H24  1  0.77151800  0.06291800  0.17225700  1
  H  H25  1  0.27151800  0.43708200  0.82774300  1
  H  H26  1  0.22848200  0.93708200  0.82774300  1
  H  H27  1  0.72848200  0.56291800  0.17225700  1
  C  C0  1  0.31144700  0.03749700  0.39849800  1
  C  C1  1  0.81144700  0.46250300  0.60150200  1
  C  C2  1  0.68855300  0.96250300  0.60150200  1
  C  C3  1  0.18855300  0.53749700  0.39849800  1
  C  C4  1  0.68518200  0.12900400  0.30207200  1
  C  C5  1  0.18518200  0.37099600  0.69792800  1
  C  C6  1  0.31481800  0.87099600  0.69792800  1
  C  C7  1  0.81481800  0.62900400  0.30207200  1
  N  N0  1  0.14653500  0.94084200  0.39711600  1
  N  N1  1  0.64653500  0.55915800  0.60288400  1
  N  N2  1  0.85346500  0.05915800  0.60288400  1
  N  N3  1  0.35346500  0.44084200  0.39711600  1
  N  N4  1  0.48679800  0.04580400  0.32055000  1
  N  N5  1  0.98679800  0.45419600  0.67945000  1
  N  N6  1  0.51320200  0.95419600  0.67945000  1
  N  N7  1  0.01320200  0.54580400  0.32055000  1
  N  N8  1  0.74766300  0.21021500  0.36474200  1
  N  N9  1  0.24766300  0.28978500  0.63525800  1
  N  N10  1  0.25233700  0.78978500  0.63525800  1
  N  N11  1  0.75233700  0.71021500  0.36474200  1
  N  N12  1  0.82138400  0.12353500  0.22112500  1
  N  N13  1  0.32138400  0.37646500  0.77887500  1
  N  N14  1  0.17861600  0.87646500  0.77887500  1
  N  N15  1  0.67861600  0.62353500  0.22112500  1
  O  O0  1  0.42995300  0.60832300  0.89268800  1
  O  O1  1  0.92995300  0.89167700  0.10731200  1
  O  O2  1  0.57004700  0.39167700  0.10731200  1
  O  O3  1  0.07004700  0.10832300  0.89268800  1
  O  O4  1  0.35069100  0.79692100  0.04951400  1
  O  O5  1  0.85069100  0.70307900  0.95048600  1
  O  O6  1  0.64930900  0.20307900  0.95048600  1
  O  O7  1  0.14930900  0.29692100  0.04951400  1
  O  O8  1  0.14221400  0.51243500  0.10668300  1
  O  O9  1  0.64221400  0.98756500  0.89331700  1
  O  O10  1  0.85778600  0.48756500  0.89331700  1
  O  O11  1  0.35778600  0.01243500  0.10668300  1
  O  O12  1  0.29079500  0.82476300  0.22957500  1
  O  O13  1  0.79079500  0.67523700  0.77042500  1
  O  O14  1  0.70920500  0.17523700  0.77042500  1
  O  O15  1  0.20920500  0.32476300  0.22957500  1
  O  O16  1  0.31231000  0.11298500  0.46195100  1
  O  O17  1  0.81231000  0.38701500  0.53804900  1
  O  O18  1  0.68769000  0.88701500  0.53804900  1
  O  O19  1  0.18769000  0.61298500  0.46195100  1
loop_
_geom_bond_atom_site_label_1
_geom_bond_atom_site_label_2
_geom_bond_distance
_geom_bond_site_symmetry_2
H0 N0 1.023474 1_655
H1 N1 1.023474 1_555
H2 N2 1.023474 1_455
H3 N3 1.023474 1_555
H4 N0 1.032418 1_555
H5 N1 1.032418 1_555
H6 N2 1.032418 1_555
H7 N3 1.032418 1_555
H8 N4 1.030968 1_565
H9 N5 1.030968 1_555
H10 N6 1.030968 1_545
H11 N7 1.030968 1_555
H12 N8 1.018531 1_555
H13 N9 1.018531 1_555
H14 N10 1.018531 1_555
H15 N11 1.018531 1_555
H16 N8 1.015545 1_555
H17 N9 1.015545 1_555
H18 N10 1.015545 1_555
H19 N11 1.015545 1_555
H20 N12 1.027276 1_555
H21 N13 1.027276 1_555
H22 N14 1.027276 1_555
H23 N15 1.027276 1_555
H24 N12 1.018591 1_555
H25 N13 1.018591 1_555
H26 N14 1.018591 1_555
H27 N15 1.018591 1_555
C0 O16 1.254733 1_555
C0 N0 1.342768 1_545
C0 N4 1.401739 1_555
C1 O17 1.254733 1_555
C1 N1 1.342768 1_555
C1 N5 1.401739 1_555
C2 O18 1.254733 1_555
C2 N2 1.342768 1_565
C2 N6 1.401739 1_555
C3 O19 1.254733 1_555
C3 N3 1.342768 1_555
C3 N7 1.401739 1_555
C4 N12 1.327141 1_555
C4 N8 1.331089 1_555
C4 N4 1.363870 1_555
C5 N13 1.327141 1_555
C5 N9 1.331089 1_555
C5 N5 1.363870 1_455
C6 N14 1.327141 1_555
C6 N10 1.331089 1_555
C6 N6 1.363870 1_555
C7 N15 1.327141 1_555
C7 N11 1.331089 1_555
C7 N7 1.363870 1_655
O0 P1 1.544071 1_555
O0 Zn0 1.942866 1_555
O1 P0 1.544071 1_655
O1 Zn1 1.942866 1_555
O2 P3 1.544071 1_555
O2 Zn2 1.942866 1_555
O3 P2 1.544071 1_455
O3 Zn3 1.942866 1_555
O4 P0 1.598658 1_555
O4 Zn0 2.014291 1_554
O4 Zn1 2.025119 1_555
O5 P1 1.598658 1_555
O5 Zn1 2.014291 1_556
O5 Zn0 2.025119 1_655
O6 P2 1.598658 1_555
O6 Zn2 2.014291 1_556
O6 Zn3 2.025119 1_555
O7 P3 1.598658 1_555
O7 Zn3 2.014291 1_554
O7 Zn2 2.025119 1_455
O8 P3 1.560397 1_555
O8 Zn0 1.950766 1_554
O9 P2 1.560397 1_565
O9 Zn1 1.950766 1_556
O10 P1 1.560397 1_555
O10 Zn2 1.950766 1_556
O11 P0 1.560397 1_545
O11 Zn3 1.950766 1_554
O12 P0 1.535893 1_555
O13 P1 1.535893 1_555
O14 P2 1.535893 1_555
O15 P3 1.535893 1_555
