# generated using pymatgen
data_La2Ga12Pd
_symmetry_space_group_name_H-M   'P 1'
_cell_length_a   6.14977740
_cell_length_b   6.14977740
_cell_length_c   15.55928847
_cell_angle_alpha   90.00000000
_cell_angle_beta   90.00000000
_cell_angle_gamma   90.00000000
_symmetry_Int_Tables_number   1
_chemical_formula_structural   La2Ga12Pd
_chemical_formula_sum   'La4 Ga24 Pd2'
_cell_volume   588.44858791
_cell_formula_units_Z   2
loop_
 _symmetry_equiv_pos_site_id
 _symmetry_equiv_pos_as_xyz
  1  'x, y, z'
loop_
 _atom_site_type_symbol
 _atom_site_label
 _atom_site_symmetry_multiplicity
 _atom_site_fract_x
 _atom_site_fract_y
 _atom_site_fract_z
 _atom_site_occupancy
  La  La0  1  0.00000000  0.50000000  0.75490783  1
  La  La1  1  0.00000000  0.50000000  0.24509217  1
  La  La2  1  0.50000000  0.00000000  0.75490783  1
  La  La3  1  0.50000000  0.00000000  0.24509217  1
  Ga  Ga0  1  0.24988930  0.25011070  0.91311838  1
  Ga  Ga1  1  0.75011070  0.74988930  0.91311838  1
  Ga  Ga2  1  0.30323949  0.80323949  0.42561377  1
  Ga  Ga3  1  0.19676051  0.69676051  0.57438623  1
  Ga  Ga4  1  0.25011070  0.75011070  0.91311838  1
  Ga  Ga5  1  0.80323949  0.69676051  0.42561377  1
  Ga  Ga6  1  0.00000000  0.00000000  0.66084220  1
  Ga  Ga7  1  0.69676051  0.19676051  0.42561377  1
  Ga  Ga8  1  0.30323949  0.19676051  0.57438623  1
  Ga  Ga9  1  0.00000000  0.00000000  0.81914187  1
  Ga  Ga10  1  0.50000000  0.50000000  0.33915780  1
  Ga  Ga11  1  0.80323949  0.30323949  0.57438623  1
  Ga  Ga12  1  0.69676051  0.80323949  0.57438623  1
  Ga  Ga13  1  0.00000000  0.00000000  0.18085813  1
  Ga  Ga14  1  0.74988930  0.75011070  0.08688162  1
  Ga  Ga15  1  0.50000000  0.50000000  0.66084220  1
  Ga  Ga16  1  0.74988930  0.24988930  0.91311838  1
  Ga  Ga17  1  0.25011070  0.24988930  0.08688162  1
  Ga  Ga18  1  0.24988930  0.74988930  0.08688162  1
  Ga  Ga19  1  0.50000000  0.50000000  0.18085813  1
  Ga  Ga20  1  0.19676051  0.30323949  0.42561377  1
  Ga  Ga21  1  0.50000000  0.50000000  0.81914187  1
  Ga  Ga22  1  0.75011070  0.25011070  0.08688162  1
  Ga  Ga23  1  0.00000000  0.00000000  0.33915780  1
  Pd  Pd0  1  0.00000000  0.50000000  0.00000000  1
  Pd  Pd1  1  0.50000000  0.00000000  0.00000000  1
loop_
_geom_bond_atom_site_label_1
_geom_bond_atom_site_label_2
_geom_bond_distance
_geom_bond_site_symmetry_2
Ga0 Pd0 2.559432 1_556
Ga0 Pd1 2.561067 1_556
Ga0 Ga9 2.620214 1_555
Ga0 Ga21 2.620214 1_555
Ga0 La0 3.283744 1_555
Ga0 La2 3.285019 1_555
Ga1 Pd0 2.559432 1_656
Ga1 Pd1 2.561067 1_566
Ga1 Ga9 2.620214 1_665
Ga1 Ga21 2.620214 1_555
Ga1 La0 3.283744 1_655
Ga1 La2 3.285019 1_565
Ga2 Ga3 2.493161 1_555
Ga2 Ga23 2.598348 1_565
Ga2 La3 3.289020 1_565
Ga3 Ga6 2.598348 1_565
Ga3 La0 3.289020 1_555
Ga4 Pd1 2.559432 1_566
Ga4 Pd0 2.561067 1_556
Ga4 Ga9 2.620214 1_565
Ga4 La2 3.283744 1_565
Ga4 La0 3.285019 1_555
Ga5 La1 3.289020 1_655
Ga6 Ga9 2.463030 1_555
Ga6 Ga8 2.598348 1_555
Ga6 La0 3.405444 1_545
Ga6 La0 3.405444 1_555
Ga6 La2 3.405444 1_455
Ga6 La2 3.405444 1_555
Ga7 La3 3.289020 1_555
Ga8 La2 3.289020 1_555
Ga9 La0 3.233236 1_545
Ga9 La0 3.233236 1_555
Ga9 La2 3.233236 1_455
Ga9 La2 3.233236 1_555
Ga10 Ga19 2.463030 1_555
Ga10 Ga7 2.598348 1_555
Ga10 Ga20 2.598348 1_555
Ga10 Ga2 2.598348 1_555
Ga10 Ga5 2.598348 1_555
Ga10 La1 3.405444 1_555
Ga10 La1 3.405444 1_655
Ga10 La3 3.405444 1_555
Ga10 La3 3.405444 1_565
Ga11 Ga7 2.493161 1_555
Ga11 Ga6 2.598348 1_655
Ga11 Ga15 2.598348 1_555
Ga11 La0 3.289020 1_655
Ga12 Ga5 2.493161 1_555
Ga12 Ga6 2.598348 1_665
Ga12 Ga15 2.598348 1_555
Ga12 La2 3.289020 1_565
Ga13 Ga23 2.463030 1_555
Ga13 Ga17 2.620214 1_555
Ga13 Ga22 2.620214 1_455
Ga13 Ga18 2.620214 1_545
Ga13 Ga14 2.620214 1_445
Ga13 La3 3.233236 1_555
Ga13 La1 3.233236 1_555
Ga13 La1 3.233236 1_545
Ga13 La3 3.233236 1_455
Ga14 Pd1 2.559432 1_565
Ga14 Pd0 2.561067 1_655
Ga14 Ga19 2.620214 1_555
Ga14 La3 3.283744 1_565
Ga14 La1 3.285019 1_655
Ga15 Ga21 2.463030 1_555
Ga15 Ga8 2.598348 1_555
Ga15 Ga3 2.598348 1_555
Ga15 La0 3.405444 1_555
Ga15 La2 3.405444 1_565
Ga15 La0 3.405444 1_655
Ga15 La2 3.405444 1_555
Ga16 Pd1 2.559432 1_556
Ga16 Pd0 2.561067 1_656
Ga16 Ga9 2.620214 1_655
Ga16 Ga21 2.620214 1_555
Ga16 La2 3.283744 1_555
Ga16 La0 3.285019 1_655
Ga17 Pd1 2.559432 1_555
Ga17 Pd0 2.561067 1_555
Ga17 Ga19 2.620214 1_555
Ga17 La3 3.283744 1_555
Ga17 La1 3.285019 1_555
Ga18 Pd0 2.559432 1_555
Ga18 Pd1 2.561067 1_565
Ga18 Ga19 2.620214 1_555
Ga18 La1 3.283744 1_555
Ga18 La3 3.285019 1_565
Ga19 Ga22 2.620214 1_555
Ga19 La3 3.233236 1_555
Ga19 La3 3.233236 1_565
Ga19 La1 3.233236 1_555
Ga19 La1 3.233236 1_655
Ga20 Ga8 2.493161 1_555
Ga20 Ga23 2.598348 1_555
Ga20 La1 3.289020 1_555
Ga21 Ga4 2.620214 1_555
Ga21 La0 3.233236 1_555
Ga21 La2 3.233236 1_565
Ga21 La0 3.233236 1_655
Ga21 La2 3.233236 1_555
Ga22 Pd0 2.559432 1_655
Ga22 Pd1 2.561067 1_555
Ga22 La1 3.283744 1_655
Ga22 La3 3.285019 1_555
Ga23 Ga5 2.598348 1_445
Ga23 Ga7 2.598348 1_455
Ga23 La1 3.405444 1_555
Ga23 La1 3.405444 1_545
Ga23 La3 3.405444 1_455
Ga23 La3 3.405444 1_555
