# generated using pymatgen
data_Y3Al19Ni5
_symmetry_space_group_name_H-M   'P 1'
_cell_length_a   8.29014705
_cell_length_b   8.29014705
_cell_length_c   27.26328900
_cell_angle_alpha   90.00000000
_cell_angle_beta   90.00000000
_cell_angle_gamma   151.30033841
_symmetry_Int_Tables_number   1
_chemical_formula_structural   Y3Al19Ni5
_chemical_formula_sum   'Y6 Al38 Ni10'
_cell_volume   899.79056884
_cell_formula_units_Z   2
loop_
 _symmetry_equiv_pos_site_id
 _symmetry_equiv_pos_as_xyz
  1  'x, y, z'
loop_
 _atom_site_type_symbol
 _atom_site_label
 _atom_site_symmetry_multiplicity
 _atom_site_fract_x
 _atom_site_fract_y
 _atom_site_fract_z
 _atom_site_occupancy
  Y  Y0  1  0.11234900  0.88765100  0.25000000  1
  Y  Y1  1  0.33360300  0.66639700  0.13515900  1
  Y  Y2  1  0.88765100  0.11234900  0.75000000  1
  Y  Y3  1  0.66639700  0.33360300  0.86484100  1
  Y  Y4  1  0.33360300  0.66639700  0.36484100  1
  Y  Y5  1  0.66639700  0.33360300  0.63515900  1
  Al  Al0  1  0.90638100  0.09361900  0.96340800  1
  Al  Al1  1  0.56665300  0.43334700  0.53109100  1
  Al  Al2  1  0.43334700  0.56665300  0.46890900  1
  Al  Al3  1  0.26549600  0.73450400  0.47100900  1
  Al  Al4  1  0.03615400  0.96384600  0.89884100  1
  Al  Al5  1  0.92029500  0.07970500  0.20174300  1
  Al  Al6  1  0.09361900  0.90638100  0.03659200  1
  Al  Al7  1  0.27649400  0.72350600  0.69331300  1
  Al  Al8  1  0.46445300  0.53554700  0.67407500  1
  Al  Al9  1  0.30600100  0.69399900  0.25000000  1
  Al  Al10  1  0.27649400  0.72350600  0.80668700  1
  Al  Al11  1  0.29067300  0.70932700  0.58816500  1
  Al  Al12  1  0.12931300  0.87068700  0.36453800  1
  Al  Al13  1  0.72350600  0.27649400  0.19331300  1
  Al  Al14  1  0.96384600  0.03615400  0.39884100  1
  Al  Al15  1  0.53554700  0.46445300  0.17407500  1
  Al  Al16  1  0.70932700  0.29067300  0.08816500  1
  Al  Al17  1  0.07970500  0.92029500  0.79825700  1
  Al  Al18  1  0.26549600  0.73450400  0.02899100  1
  Al  Al19  1  0.29067300  0.70932700  0.91183500  1
  Al  Al20  1  0.73450400  0.26549600  0.97100900  1
  Al  Al21  1  0.87068700  0.12931300  0.63546200  1
  Al  Al22  1  0.73450400  0.26549600  0.52899100  1
  Al  Al23  1  0.70932700  0.29067300  0.41183500  1
  Al  Al24  1  0.53554700  0.46445300  0.32592500  1
  Al  Al25  1  0.90638100  0.09361900  0.53659200  1
  Al  Al26  1  0.72350600  0.27649400  0.30668700  1
  Al  Al27  1  0.12931300  0.87068700  0.13546200  1
  Al  Al28  1  0.69399900  0.30600100  0.75000000  1
  Al  Al29  1  0.07970500  0.92029500  0.70174300  1
  Al  Al30  1  0.92029500  0.07970500  0.29825700  1
  Al  Al31  1  0.96384600  0.03615400  0.10115900  1
  Al  Al32  1  0.87068700  0.12931300  0.86453800  1
  Al  Al33  1  0.09361900  0.90638100  0.46340800  1
  Al  Al34  1  0.46445300  0.53554700  0.82592500  1
  Al  Al35  1  0.43334700  0.56665300  0.03109100  1
  Al  Al36  1  0.03615400  0.96384600  0.60115900  1
  Al  Al37  1  0.56665300  0.43334700  0.96890900  1
  Ni  Ni0  1  0.15845100  0.84154900  0.95807700  1
  Ni  Ni1  1  0.44587800  0.55412200  0.91545300  1
  Ni  Ni2  1  0.84154900  0.15845100  0.04192300  1
  Ni  Ni3  1  0.54528000  0.45472000  0.75000000  1
  Ni  Ni4  1  0.44587800  0.55412200  0.58454700  1
  Ni  Ni5  1  0.55412200  0.44587800  0.41545300  1
  Ni  Ni6  1  0.55412200  0.44587800  0.08454700  1
  Ni  Ni7  1  0.45472000  0.54528000  0.25000000  1
  Ni  Ni8  1  0.84154900  0.15845100  0.45807700  1
  Ni  Ni9  1  0.15845100  0.84154900  0.54192300  1
loop_
_geom_bond_atom_site_label_1
_geom_bond_atom_site_label_2
_geom_bond_distance
_geom_bond_site_symmetry_2
Al0 Ni2 2.380457 1_556
Al0 Ni1 2.516625 1_655
Al0 Ni1 2.516625 1_545
Al0 Al32 2.755825 1_555
Al0 Al20 2.768626 1_555
Al1 Ni4 2.426439 1_555
Al1 Ni9 2.546188 1_655
Al1 Ni9 2.546188 1_545
Al1 Al22 2.696798 1_555
Al1 Y5 3.258361 1_555
Al2 Ni5 2.426439 1_555
Al2 Ni8 2.546188 1_565
Al2 Ni8 2.546188 1_455
Al2 Al3 2.696798 1_555
Al2 Y4 3.258361 1_555
Al3 Ni8 2.416251 1_455
Al3 Ni8 2.416251 1_565
Al3 Ni9 2.587353 1_555
Al3 Al33 2.768626 1_555
Al3 Y4 3.094335 1_555
Al4 Ni0 2.543071 1_555
Al4 Ni1 2.555284 1_455
Al4 Ni1 2.555284 1_565
Al4 Y3 3.075330 1_565
Al4 Y3 3.075330 1_455
Al5 Ni7 2.501651 1_655
Al5 Ni7 2.501651 1_545
Al5 Y1 3.075064 1_545
Al5 Y1 3.075064 1_655
Al5 Y0 3.353791 1_645
Al6 Ni0 2.380457 1_554
Al6 Ni6 2.516625 1_455
Al6 Ni6 2.516625 1_565
Al7 Al8 3.064404 1_555
Al7 Y2 3.130194 1_455
Al7 Y2 3.130194 1_565
Al7 Y5 3.140513 1_455
Al7 Y5 3.140513 1_565
Al8 Ni3 2.443440 1_555
Al8 Ni4 2.458997 1_555
Al8 Y2 3.166743 1_565
Al8 Y2 3.166743 1_455
Al8 Y5 3.412929 1_555
Al9 Ni7 2.388873 1_555
Al9 Y0 3.110632 1_555
Al9 Y4 3.162180 1_555
Al9 Y1 3.162180 1_555
Al10 Al19 2.875714 1_555
Al10 Al28 2.892402 1_565
Al10 Al28 2.892402 1_455
Al10 Al32 2.999731 1_455
Al10 Al32 2.999731 1_565
Al10 Al34 3.064404 1_555
Al10 Al7 3.090948 1_555
Al10 Y2 3.130194 1_455
Al10 Y2 3.130194 1_565
Al10 Y3 3.140513 1_455
Al10 Y3 3.140513 1_565
Al10 Al17 3.169365 1_555
Al11 Ni9 2.469871 1_555
Al11 Ni4 2.495008 1_555
Al11 Al21 2.745215 1_455
Al11 Al21 2.745215 1_565
Al11 Al22 2.763742 1_455
Al11 Al22 2.763742 1_565
Al11 Al7 2.875714 1_555
Al11 Y5 3.138162 1_455
Al11 Y5 3.138162 1_565
Al12 Al23 2.745215 1_565
Al12 Al23 2.745215 1_455
Al12 Al33 2.755825 1_555
Al12 Al24 2.756502 1_455
Al12 Al24 2.756502 1_565
Al12 Ni5 2.758111 1_455
Al12 Ni5 2.758111 1_565
Al12 Al14 2.817629 1_465
Al12 Al26 2.999731 1_565
Al12 Al26 2.999731 1_455
Al12 Y0 3.134549 1_555
Al12 Y4 3.281520 1_555
Al13 Al16 2.875714 1_555
Al13 Al9 2.892402 1_655
Al13 Al9 2.892402 1_545
Al13 Al27 2.999731 1_545
Al13 Al27 2.999731 1_655
Al13 Al15 3.064404 1_555
Al13 Al26 3.090948 1_555
Al13 Y0 3.130194 1_545
Al13 Y0 3.130194 1_655
Al13 Y1 3.140513 1_545
Al13 Y1 3.140513 1_655
Al13 Al5 3.169365 1_555
Al14 Ni8 2.543071 1_555
Al14 Ni5 2.555284 1_655
Al14 Ni5 2.555284 1_545
Al14 Y4 3.075330 1_655
Al14 Y4 3.075330 1_545
Al15 Ni7 2.443440 1_555
Al15 Ni6 2.458997 1_555
Al15 Al27 2.756502 1_655
Al15 Al27 2.756502 1_545
Al15 Y0 3.166743 1_655
Al15 Y0 3.166743 1_545
Al15 Y1 3.412929 1_555
Al16 Ni2 2.469871 1_555
Al16 Ni6 2.495008 1_555
Al16 Al27 2.745215 1_545
Al16 Al27 2.745215 1_655
Al16 Al18 2.763742 1_545
Al16 Al18 2.763742 1_655
Al16 Y1 3.138162 1_545
Al16 Y1 3.138162 1_655
Al17 Ni3 2.501651 1_455
Al17 Ni3 2.501651 1_565
Al17 Y3 3.075064 1_565
Al17 Y3 3.075064 1_455
Al17 Y2 3.353791 1_465
Al18 Ni2 2.416251 1_565
Al18 Ni2 2.416251 1_455
Al18 Ni0 2.587353 1_554
Al18 Al20 2.639746 1_454
Al18 Al20 2.639746 1_564
Al18 Al35 2.696798 1_555
Al18 Al6 2.768626 1_555
Al18 Y1 3.094335 1_555
Al19 Ni0 2.469871 1_555
Al19 Ni1 2.495008 1_555
Al19 Al32 2.745215 1_455
Al19 Al32 2.745215 1_565
Al19 Al20 2.763742 1_455
Al19 Al20 2.763742 1_565
Al19 Y3 3.138162 1_455
Al19 Y3 3.138162 1_565
Al20 Ni0 2.416251 1_655
Al20 Ni0 2.416251 1_545
Al20 Ni2 2.587353 1_556
Al20 Al37 2.696798 1_555
Al20 Y3 3.094335 1_555
Al21 Al25 2.755825 1_555
Al21 Al8 2.756502 1_545
Al21 Al8 2.756502 1_655
Al21 Ni4 2.758111 1_545
Al21 Ni4 2.758111 1_655
Al21 Al36 2.817629 1_645
Al21 Al7 2.999731 1_655
Al21 Al7 2.999731 1_545
Al21 Y2 3.134549 1_555
Al21 Y5 3.281520 1_555
Al22 Ni9 2.416251 1_655
Al22 Ni9 2.416251 1_545
Al22 Ni8 2.587353 1_555
Al22 Al3 2.639746 1_655
Al22 Al3 2.639746 1_545
Al22 Al25 2.768626 1_555
Al22 Y5 3.094335 1_555
Al23 Ni8 2.469871 1_555
Al23 Ni5 2.495008 1_555
Al23 Al3 2.763742 1_545
Al23 Al3 2.763742 1_655
Al23 Al26 2.875714 1_555
Al23 Y4 3.138162 1_545
Al23 Y4 3.138162 1_655
Al24 Ni7 2.443440 1_555
Al24 Ni5 2.458997 1_555
Al24 Al26 3.064404 1_555
Al24 Y0 3.166743 1_655
Al24 Y0 3.166743 1_545
Al24 Y4 3.412929 1_555
Al25 Ni8 2.380457 1_555
Al25 Ni4 2.516625 1_655
Al25 Ni4 2.516625 1_545
Al26 Al9 2.892402 1_655
Al26 Al9 2.892402 1_545
Al26 Y0 3.130194 1_545
Al26 Y0 3.130194 1_655
Al26 Y4 3.140513 1_545
Al26 Y4 3.140513 1_655
Al26 Al30 3.169365 1_555
Al27 Al6 2.755825 1_555
Al27 Ni6 2.758111 1_455
Al27 Ni6 2.758111 1_565
Al27 Al31 2.817629 1_465
Al27 Y0 3.134549 1_555
Al27 Y1 3.281520 1_555
Al28 Ni3 2.388873 1_555
Al28 Al7 2.892402 1_545
Al28 Al7 2.892402 1_655
Al28 Y2 3.110632 1_555
Al28 Y3 3.162180 1_555
Al28 Y5 3.162180 1_555
Al29 Ni3 2.501651 1_455
Al29 Ni3 2.501651 1_565
Al29 Y5 3.075064 1_565
Al29 Y5 3.075064 1_455
Al29 Al7 3.169365 1_555
Al29 Y2 3.353791 1_465
Al30 Ni7 2.501651 1_545
Al30 Ni7 2.501651 1_655
Al30 Y4 3.075064 1_545
Al30 Y4 3.075064 1_655
Al30 Y0 3.353791 1_645
Al31 Ni2 2.543071 1_555
Al31 Ni6 2.555284 1_655
Al31 Ni6 2.555284 1_545
Al31 Y1 3.075330 1_655
Al31 Y1 3.075330 1_545
Al32 Al34 2.756502 1_545
Al32 Al34 2.756502 1_655
Al32 Ni1 2.758111 1_545
Al32 Ni1 2.758111 1_655
Al32 Al4 2.817629 1_645
Al32 Y2 3.134549 1_555
Al32 Y3 3.281520 1_555
Al33 Ni9 2.380457 1_555
Al33 Ni5 2.516625 1_455
Al33 Ni5 2.516625 1_565
Al34 Ni3 2.443440 1_555
Al34 Ni1 2.458997 1_555
Al34 Y2 3.166743 1_565
Al34 Y2 3.166743 1_455
Al34 Y3 3.412929 1_555
Al35 Ni6 2.426439 1_555
Al35 Ni2 2.546188 1_565
Al35 Ni2 2.546188 1_455
Al35 Y1 3.258361 1_555
Al36 Ni9 2.543071 1_555
Al36 Ni4 2.555284 1_455
Al36 Ni4 2.555284 1_565
Al36 Y5 3.075330 1_565
Al36 Y5 3.075330 1_455
Al37 Ni1 2.426439 1_555
Al37 Ni0 2.546188 1_655
Al37 Ni0 2.546188 1_545
Al37 Y3 3.258361 1_555
Ni0 Y3 3.270965 1_455
Ni0 Y3 3.270965 1_565
Ni2 Y1 3.270965 1_545
Ni2 Y1 3.270965 1_655
Ni3 Y2 3.260760 1_565
Ni3 Y2 3.260760 1_455
Ni7 Y0 3.260760 1_655
Ni7 Y0 3.260760 1_545
Ni8 Y4 3.270965 1_545
Ni8 Y4 3.270965 1_655
Ni9 Y5 3.270965 1_455
Ni9 Y5 3.270965 1_565
