# generated using pymatgen
data_KBi2F7
_symmetry_space_group_name_H-M   'P 1'
_cell_length_a   4.32134500
_cell_length_b   4.32506108
_cell_length_c   20.90270637
_cell_angle_alpha   85.02401489
_cell_angle_beta   85.05670377
_cell_angle_gamma   67.37748048
_symmetry_Int_Tables_number   1
_chemical_formula_structural   KBi2F7
_chemical_formula_sum   'K2 Bi4 F14'
_cell_volume   358.66262101
_cell_formula_units_Z   2
loop_
 _symmetry_equiv_pos_site_id
 _symmetry_equiv_pos_as_xyz
  1  'x, y, z'
loop_
 _atom_site_type_symbol
 _atom_site_label
 _atom_site_symmetry_multiplicity
 _atom_site_fract_x
 _atom_site_fract_y
 _atom_site_fract_z
 _atom_site_occupancy
  K  K0  1  0.63099100  0.65035600  0.16111900  1
  K  K1  1  0.35240100  0.37955200  0.33160700  1
  Bi  Bi0  1  0.92887700  0.08858000  0.99884700  1
  Bi  Bi1  1  0.85719600  0.10380000  0.50315800  1
  Bi  Bi2  1  0.54806700  0.76116700  0.67101200  1
  Bi  Bi3  1  0.23591700  0.41662500  0.83176200  1
  F  F0  1  0.72170400  0.58997400  0.03635300  1
  F  F1  1  0.99485400  0.99621200  0.10530100  1
  F  F2  1  0.69142200  0.64359700  0.52455900  1
  F  F3  1  0.68545200  0.75400300  0.27293600  1
  F  F4  1  0.93774300  0.09195800  0.40056700  1
  F  F5  1  0.46787100  0.21124000  0.72220100  1
  F  F6  1  0.34727700  0.30185700  0.47203900  1
  F  F7  1  0.46139200  0.18528700  0.59862600  1
  F  F8  1  0.16363800  0.88516700  0.87937900  1
  F  F9  1  0.06725300  0.84292200  0.63057100  1
  F  F10  1  0.15140200  0.82698500  0.75483900  1
  F  F11  1  0.76923800  0.50731700  0.78791900  1
  F  F12  1  0.82545500  0.48562500  0.91239800  1
  F  F13  1  0.37518700  0.25110700  0.98314100  1
loop_
_geom_bond_atom_site_label_1
_geom_bond_atom_site_label_2
_geom_bond_distance
_geom_bond_site_symmetry_2
Bi0 F0 2.190699 1_556
Bi0 F1 2.249399 1_546
Bi0 F13 2.264567 1_555
Bi0 F13 2.283738 1_655
Bi0 F12 2.329038 1_555
Bi0 F0 2.671638 1_546
Bi0 F8 2.701315 1_645
Bi1 F4 2.144541 1_555
Bi1 F6 2.170411 1_555
Bi1 F2 2.236783 1_555
Bi1 F2 2.358444 1_545
Bi1 F7 2.470204 1_555
Bi1 F6 2.589127 1_655
Bi2 F5 2.198326 1_565
Bi2 F9 2.200532 1_555
Bi2 F7 2.209546 1_565
Bi2 F10 2.298483 1_555
Bi2 F9 2.470805 1_655
Bi2 F5 2.655338 1_555
Bi2 F11 2.687049 1_555
Bi3 F11 2.169864 1_455
Bi3 F10 2.230746 1_555
Bi3 F8 2.237007 1_555
Bi3 F12 2.289319 1_455
Bi3 F5 2.512122 1_555
Bi3 F8 2.544327 1_545
Bi3 F11 2.564040 1_555
F0 K0 2.624207 1_555
F1 K0 2.694765 1_555
F1 K0 2.870926 1_655
F1 K0 2.944862 1_565
F3 K0 2.465143 1_555
F3 K1 2.709738 1_555
F3 K1 2.858515 1_565
F3 K1 3.017807 1_655
F4 K1 2.791832 1_655
F4 K1 2.814248 1_555
F4 K1 3.295488 1_645
F6 K1 2.924627 1_555
