# generated using pymatgen
data_Nd(BO2)3
_symmetry_space_group_name_H-M   'P 1'
_cell_length_a   7.54788600
_cell_length_b   12.56618100
_cell_length_c   16.34830900
_cell_angle_alpha   90.00000000
_cell_angle_beta   90.00000000
_cell_angle_gamma   90.00000000
_symmetry_Int_Tables_number   1
_chemical_formula_structural   Nd(BO2)3
_chemical_formula_sum   'Nd16 B48 O96'
_cell_volume   1550.60607373
_cell_formula_units_Z   16
loop_
 _symmetry_equiv_pos_site_id
 _symmetry_equiv_pos_as_xyz
  1  'x, y, z'
loop_
 _atom_site_type_symbol
 _atom_site_label
 _atom_site_symmetry_multiplicity
 _atom_site_fract_x
 _atom_site_fract_y
 _atom_site_fract_z
 _atom_site_occupancy
  Nd  Nd0  1  0.75000000  0.06973400  0.82963100  1
  Nd  Nd1  1  0.25000000  0.22317700  0.37391400  1
  Nd  Nd2  1  0.75000000  0.41393600  0.95275300  1
  Nd  Nd3  1  0.75000000  0.77682300  0.62608600  1
  Nd  Nd4  1  0.25000000  0.91393600  0.54724700  1
  Nd  Nd5  1  0.25000000  0.93026600  0.17036900  1
  Nd  Nd6  1  0.75000000  0.00496000  0.12036400  1
  Nd  Nd7  1  0.25000000  0.27682300  0.87391400  1
  Nd  Nd8  1  0.25000000  0.99504000  0.87963600  1
  Nd  Nd9  1  0.75000000  0.49504000  0.62036400  1
  Nd  Nd10  1  0.75000000  0.08606400  0.45275300  1
  Nd  Nd11  1  0.75000000  0.72317700  0.12608600  1
  Nd  Nd12  1  0.25000000  0.50496000  0.37963600  1
  Nd  Nd13  1  0.25000000  0.56973400  0.67036900  1
  Nd  Nd14  1  0.75000000  0.43026600  0.32963100  1
  Nd  Nd15  1  0.25000000  0.58606400  0.04724700  1
  B  B0  1  0.42682400  0.34445200  0.05952400  1
  B  B1  1  0.93784700  0.18067800  0.97202500  1
  B  B2  1  0.57773100  0.64576000  0.38914900  1
  B  B3  1  0.42893600  0.18722500  0.71700800  1
  B  B4  1  0.42682400  0.15554800  0.55952400  1
  B  B5  1  0.43784700  0.68067800  0.52797500  1
  B  B6  1  0.06215300  0.81932200  0.02797500  1
  B  B7  1  0.06215300  0.68067800  0.52797500  1
  B  B8  1  0.57317600  0.84445200  0.44047600  1
  B  B9  1  0.42565800  0.51888500  0.84475600  1
  B  B10  1  0.57434200  0.48111500  0.15524400  1
  B  B11  1  0.07317600  0.34445200  0.05952400  1
  B  B12  1  0.56215300  0.31932200  0.47202500  1
  B  B13  1  0.93155500  0.37000600  0.75658000  1
  B  B14  1  0.92893600  0.81277500  0.28299200  1
  B  B15  1  0.07106400  0.31277500  0.21700800  1
  B  B16  1  0.07317600  0.15554800  0.55952400  1
  B  B17  1  0.42226900  0.35424000  0.61085100  1
  B  B18  1  0.42893600  0.31277500  0.21700800  1
  B  B19  1  0.06844500  0.87000600  0.74342000  1
  B  B20  1  0.07773100  0.14576000  0.11085100  1
  B  B21  1  0.56844500  0.12999400  0.25658000  1
  B  B22  1  0.56215300  0.18067800  0.97202500  1
  B  B23  1  0.43155500  0.62999400  0.24342000  1
  B  B24  1  0.57317600  0.65554800  0.94047600  1
  B  B25  1  0.92682400  0.65554800  0.94047600  1
  B  B26  1  0.43784700  0.81932200  0.02797500  1
  B  B27  1  0.06844500  0.62999400  0.24342000  1
  B  B28  1  0.57773100  0.85424000  0.88914900  1
  B  B29  1  0.92893600  0.68722500  0.78299200  1
  B  B30  1  0.42565800  0.98111500  0.34475600  1
  B  B31  1  0.93784700  0.31932200  0.47202500  1
  B  B32  1  0.42226900  0.14576000  0.11085100  1
  B  B33  1  0.92565800  0.01888500  0.65524400  1
  B  B34  1  0.92682400  0.84445200  0.44047600  1
  B  B35  1  0.57106400  0.81277500  0.28299200  1
  B  B36  1  0.92565800  0.48111500  0.15524400  1
  B  B37  1  0.07773100  0.35424000  0.61085100  1
  B  B38  1  0.07434200  0.51888500  0.84475600  1
  B  B39  1  0.92226900  0.85424000  0.88914900  1
  B  B40  1  0.07106400  0.18722500  0.71700800  1
  B  B41  1  0.56844500  0.37000600  0.75658000  1
  B  B42  1  0.57434200  0.01888500  0.65524400  1
  B  B43  1  0.92226900  0.64576000  0.38914900  1
  B  B44  1  0.07434200  0.98111500  0.34475600  1
  B  B45  1  0.57106400  0.68722500  0.78299200  1
  B  B46  1  0.93155500  0.12999400  0.25658000  1
  B  B47  1  0.43155500  0.87000600  0.74342000  1
  O  O0  1  0.05767500  0.56755800  0.16683000  1
  O  O1  1  0.57262600  0.73408400  0.86999400  1
  O  O2  1  0.75000000  0.84957600  0.25521700  1
  O  O3  1  0.55580600  0.10058300  0.71830900  1
  O  O4  1  0.48487700  0.29180700  0.98307100  1
  O  O5  1  0.25000000  0.69818500  0.55918800  1
  O  O6  1  0.25000000  0.86385900  0.77416100  1
  O  O7  1  0.57262600  0.76591600  0.36999400  1
  O  O8  1  0.01284100  0.26823600  0.77469800  1
  O  O9  1  0.45067700  0.56639900  0.92682600  1
  O  O10  1  0.51284100  0.76823600  0.72530200  1
  O  O11  1  0.06074900  0.87499700  0.94980900  1
  O  O12  1  0.75000000  0.96737200  0.66150600  1
  O  O13  1  0.55767500  0.06755800  0.33317000  1
  O  O14  1  0.98715900  0.76823600  0.72530200  1
  O  O15  1  0.03497000  0.08151800  0.18508700  1
  O  O16  1  0.75000000  0.36385900  0.72583900  1
  O  O17  1  0.93925100  0.12500300  0.05019100  1
  O  O18  1  0.46503000  0.08151800  0.18508700  1
  O  O19  1  0.55580600  0.39941700  0.21830900  1
  O  O20  1  0.43925100  0.62500300  0.44980900  1
  O  O21  1  0.75000000  0.61073000  0.42007300  1
  O  O22  1  0.53497000  0.58151800  0.31491300  1
  O  O23  1  0.01284100  0.23176400  0.27469800  1
  O  O24  1  0.75000000  0.53262800  0.16150600  1
  O  O25  1  0.46362800  0.12804200  0.90722700  1
  O  O26  1  0.94419400  0.39941700  0.21830900  1
  O  O27  1  0.01512300  0.20819300  0.48307100  1
  O  O28  1  0.98487700  0.70819300  0.01692900  1
  O  O29  1  0.07262600  0.23408400  0.63000600  1
  O  O30  1  0.25000000  0.03262800  0.33849400  1
  O  O31  1  0.42737400  0.23408400  0.63000600  1
  O  O32  1  0.98715900  0.73176400  0.22530200  1
  O  O33  1  0.44419400  0.60058300  0.78169100  1
  O  O34  1  0.25000000  0.38927000  0.57992700  1
  O  O35  1  0.54932300  0.06639900  0.57317400  1
  O  O36  1  0.96362800  0.87195800  0.09277300  1
  O  O37  1  0.56074900  0.37499700  0.55019100  1
  O  O38  1  0.25000000  0.63614100  0.27416100  1
  O  O39  1  0.46503000  0.41848200  0.68508700  1
  O  O40  1  0.42737400  0.26591600  0.13000600  1
  O  O41  1  0.54932300  0.43360100  0.07317400  1
  O  O42  1  0.25000000  0.10878900  0.54714800  1
  O  O43  1  0.51284100  0.73176400  0.22530200  1
  O  O44  1  0.03637200  0.12804200  0.90722700  1
  O  O45  1  0.55767500  0.43244200  0.83317000  1
  O  O46  1  0.04932300  0.93360100  0.42682600  1
  O  O47  1  0.04932300  0.56639900  0.92682600  1
  O  O48  1  0.94419400  0.10058300  0.71830900  1
  O  O49  1  0.53637200  0.62804200  0.59277300  1
  O  O50  1  0.75000000  0.65042400  0.75521700  1
  O  O51  1  0.05580600  0.60058300  0.78169100  1
  O  O52  1  0.96503000  0.91848200  0.81491300  1
  O  O53  1  0.53637200  0.87195800  0.09277300  1
  O  O54  1  0.25000000  0.80181500  0.05918800  1
  O  O55  1  0.93925100  0.37499700  0.55019100  1
  O  O56  1  0.96362800  0.62804200  0.59277300  1
  O  O57  1  0.25000000  0.34957600  0.24478300  1
  O  O58  1  0.05580600  0.89941700  0.28169100  1
  O  O59  1  0.48715900  0.26823600  0.77469800  1
  O  O60  1  0.95067700  0.06639900  0.57317400  1
  O  O61  1  0.25000000  0.11073000  0.07992700  1
  O  O62  1  0.96503000  0.58151800  0.31491300  1
  O  O63  1  0.25000000  0.46737200  0.83849400  1
  O  O64  1  0.07262600  0.26591600  0.13000600  1
  O  O65  1  0.75000000  0.88927000  0.92007300  1
  O  O66  1  0.51512300  0.70819300  0.01692900  1
  O  O67  1  0.01512300  0.29180700  0.98307100  1
  O  O68  1  0.75000000  0.19818500  0.94081200  1
  O  O69  1  0.25000000  0.15042400  0.74478300  1
  O  O70  1  0.05767500  0.93244200  0.66683000  1
  O  O71  1  0.94232500  0.43244200  0.83317000  1
  O  O72  1  0.06074900  0.62500300  0.44980900  1
  O  O73  1  0.75000000  0.30181500  0.44081200  1
  O  O74  1  0.94232500  0.06755800  0.33317000  1
  O  O75  1  0.48487700  0.20819300  0.48307100  1
  O  O76  1  0.44232500  0.93244200  0.66683000  1
  O  O77  1  0.98487700  0.79180700  0.51692900  1
  O  O78  1  0.51512300  0.79180700  0.51692900  1
  O  O79  1  0.75000000  0.60878900  0.95285200  1
  O  O80  1  0.43925100  0.87499700  0.94980900  1
  O  O81  1  0.92737400  0.76591600  0.36999400  1
  O  O82  1  0.44419400  0.89941700  0.28169100  1
  O  O83  1  0.03497000  0.41848200  0.68508700  1
  O  O84  1  0.03637200  0.37195800  0.40722700  1
  O  O85  1  0.53497000  0.91848200  0.81491300  1
  O  O86  1  0.45067700  0.93360100  0.42682600  1
  O  O87  1  0.75000000  0.89121100  0.45285200  1
  O  O88  1  0.56074900  0.12500300  0.05019100  1
  O  O89  1  0.92737400  0.73408400  0.86999400  1
  O  O90  1  0.75000000  0.13614100  0.22583900  1
  O  O91  1  0.44232500  0.56755800  0.16683000  1
  O  O92  1  0.25000000  0.39121100  0.04714800  1
  O  O93  1  0.95067700  0.43360100  0.07317400  1
  O  O94  1  0.48715900  0.23176400  0.27469800  1
  O  O95  1  0.46362800  0.37195800  0.40722700  1
loop_
_geom_bond_atom_site_label_1
_geom_bond_atom_site_label_2
_geom_bond_distance
_geom_bond_site_symmetry_2
Nd0 O48 2.368722 1_555
Nd0 O3 2.368722 1_555
Nd0 O68 2.430883 1_555
Nd0 O85 2.510897 1_545
Nd0 O52 2.510897 1_545
Nd0 O25 2.611171 1_555
Nd0 O44 2.611171 1_655
Nd0 O65 2.707183 1_545
Nd1 O94 2.418026 1_555
Nd1 O23 2.418026 1_555
Nd1 O30 2.463495 1_555
Nd1 O75 2.522482 1_555
Nd1 O27 2.522482 1_555
Nd1 O95 2.528241 1_555
Nd1 O84 2.528241 1_555
Nd1 O57 2.641874 1_555
Nd2 O71 2.446080 1_555
Nd2 O45 2.446080 1_555
Nd2 O79 2.448559 1_555
Nd2 O93 2.496206 1_556
Nd2 O41 2.496206 1_556
Nd2 O4 2.570103 1_555
Nd2 O67 2.570103 1_655
Nd2 O68 2.718185 1_555
Nd3 O10 2.418026 1_555
Nd3 O14 2.418026 1_555
Nd3 O12 2.463495 1_555
Nd3 O77 2.522482 1_555
Nd3 O78 2.522482 1_555
Nd3 O56 2.528241 1_555
Nd3 O49 2.528241 1_555
Nd3 O50 2.641874 1_555
Nd4 O76 2.446080 1_555
Nd4 O70 2.446080 1_555
Nd4 O42 2.448559 1_565
Nd4 O86 2.496206 1_555
Nd4 O46 2.496206 1_555
Nd4 O78 2.570103 1_555
Nd4 O77 2.570103 1_455
Nd4 O5 2.718185 1_555
Nd5 O82 2.368722 1_555
Nd5 O58 2.368722 1_555
Nd5 O54 2.430883 1_555
Nd5 O15 2.510897 1_565
Nd5 O18 2.510897 1_565
Nd5 O53 2.611171 1_555
Nd5 O36 2.611171 1_455
Nd5 O61 2.707183 1_565
Nd6 O36 2.365747 1_545
Nd6 O53 2.365747 1_545
Nd6 O17 2.373197 1_555
Nd6 O88 2.373197 1_555
Nd6 O90 2.385521 1_555
Nd6 O18 2.582941 1_555
Nd6 O15 2.582941 1_655
Nd6 O2 2.944983 1_545
Nd7 O59 2.418026 1_555
Nd7 O8 2.418026 1_555
Nd7 O63 2.463495 1_555
Nd7 O67 2.522482 1_555
Nd7 O4 2.522482 1_555
Nd7 O44 2.528241 1_555
Nd7 O25 2.528241 1_555
Nd7 O69 2.641874 1_555
Nd8 O25 2.365747 1_565
Nd8 O44 2.365747 1_565
Nd8 O80 2.373197 1_555
Nd8 O11 2.373197 1_555
Nd8 O6 2.385521 1_555
Nd8 O52 2.582941 1_455
Nd8 O85 2.582941 1_555
Nd8 O69 2.944983 1_565
Nd9 O56 2.365747 1_555
Nd9 O49 2.365747 1_555
Nd9 O55 2.373197 1_555
Nd9 O37 2.373197 1_555
Nd9 O16 2.385521 1_555
Nd9 O39 2.582941 1_555
Nd9 O83 2.582941 1_655
Nd9 O50 2.944983 1_555
Nd10 O74 2.446080 1_555
Nd10 O13 2.446080 1_555
Nd10 O87 2.448559 1_545
Nd10 O60 2.496206 1_555
Nd10 O35 2.496206 1_555
Nd10 O27 2.570103 1_655
Nd10 O75 2.570103 1_555
Nd10 O73 2.718185 1_555
Nd11 O32 2.418026 1_555
Nd11 O43 2.418026 1_555
Nd11 O24 2.463495 1_555
Nd11 O28 2.522482 1_555
Nd11 O66 2.522482 1_555
Nd11 O36 2.528241 1_555
Nd11 O53 2.528241 1_555
Nd11 O2 2.641874 1_555
Nd12 O95 2.365747 1_555
Nd12 O84 2.365747 1_555
Nd12 O20 2.373197 1_555
Nd12 O72 2.373197 1_555
Nd12 O38 2.385521 1_555
Nd12 O62 2.582941 1_455
Nd12 O22 2.582941 1_555
Nd12 O57 2.944983 1_555
Nd13 O33 2.368722 1_555
Nd13 O51 2.368722 1_555
Nd13 O5 2.430883 1_555
Nd13 O83 2.510897 1_555
Nd13 O39 2.510897 1_555
Nd13 O49 2.611171 1_555
Nd13 O56 2.611171 1_455
Nd13 O34 2.707183 1_555
Nd14 O26 2.368722 1_555
Nd14 O19 2.368722 1_555
Nd14 O73 2.430883 1_555
Nd14 O22 2.510897 1_555
Nd14 O62 2.510897 1_555
Nd14 O95 2.611171 1_555
Nd14 O84 2.611171 1_655
Nd14 O21 2.707183 1_555
Nd15 O91 2.446080 1_555
Nd15 O0 2.446080 1_555
Nd15 O92 2.448559 1_555
Nd15 O47 2.496206 1_554
Nd15 O9 2.496206 1_554
Nd15 O66 2.570103 1_555
Nd15 O28 2.570103 1_455
Nd15 O54 2.718185 1_555
B0 O41 1.469587 1_555
B0 O92 1.472234 1_555
B0 O4 1.480485 1_554
B0 O40 1.517132 1_555
B1 O44 1.453518 1_655
B1 O17 1.456903 1_556
B1 O68 1.522851 1_555
B1 O67 1.524118 1_655
B2 O21 1.462891 1_555
B2 O20 1.464237 1_555
B2 O22 1.492907 1_555
B2 O7 1.542515 1_555
B3 O3 1.450120 1_555
B3 O59 1.455661 1_555
B3 O69 1.498042 1_555
B3 O31 1.539451 1_555
B4 O35 1.469587 1_555
B4 O42 1.472234 1_555
B4 O75 1.480485 1_555
B4 O31 1.517132 1_555
B5 O49 1.453518 1_555
B5 O20 1.456903 1_555
B5 O5 1.522851 1_555
B5 O78 1.524118 1_555
B6 O36 1.453518 1_455
B6 O11 1.456903 1_554
B6 O54 1.522851 1_555
B6 O28 1.524118 1_455
B7 O56 1.453518 1_455
B7 O72 1.456903 1_555
B7 O5 1.522851 1_555
B7 O77 1.524118 1_455
B8 O86 1.469587 1_555
B8 O87 1.472234 1_555
B8 O78 1.480485 1_555
B8 O7 1.517132 1_555
B9 O33 1.461684 1_555
B9 O63 1.478978 1_555
B9 O9 1.480651 1_555
B9 O45 1.486185 1_555
B10 O19 1.461684 1_555
B10 O24 1.478978 1_555
B10 O41 1.480651 1_555
B10 O91 1.486185 1_555
B11 O93 1.469587 1_455
B11 O92 1.472234 1_555
B11 O67 1.480485 1_554
B11 O64 1.517132 1_555
B12 O95 1.453518 1_555
B12 O37 1.456903 1_555
B12 O73 1.522851 1_555
B12 O75 1.524118 1_555
B13 O8 1.449015 1_655
B13 O16 1.461647 1_555
B13 O71 1.479856 1_555
B13 O83 1.531804 1_655
B14 O58 1.450120 1_655
B14 O32 1.455661 1_555
B14 O2 1.498042 1_555
B14 O81 1.539451 1_555
B15 O26 1.450120 1_455
B15 O23 1.455661 1_555
B15 O57 1.498042 1_555
B15 O64 1.539451 1_555
B16 O60 1.469587 1_455
B16 O42 1.472234 1_555
B16 O27 1.480485 1_555
B16 O29 1.517132 1_555
B17 O34 1.462891 1_555
B17 O37 1.464237 1_555
B17 O39 1.492907 1_555
B17 O31 1.542515 1_555
B18 O19 1.450120 1_555
B18 O94 1.455661 1_555
B18 O57 1.498042 1_555
B18 O40 1.539451 1_555
B19 O14 1.449015 1_455
B19 O6 1.461647 1_555
B19 O70 1.479856 1_555
B19 O52 1.531804 1_455
B20 O61 1.462891 1_555
B20 O17 1.464237 1_455
B20 O15 1.492907 1_555
B20 O64 1.542515 1_555
B21 O94 1.449015 1_555
B21 O90 1.461647 1_555
B21 O13 1.479856 1_555
B21 O18 1.531804 1_555
B22 O25 1.453518 1_555
B22 O88 1.456903 1_556
B22 O68 1.522851 1_555
B22 O4 1.524118 1_555
B23 O43 1.449015 1_555
B23 O38 1.461647 1_555
B23 O91 1.479856 1_555
B23 O22 1.531804 1_555
B24 O9 1.469587 1_555
B24 O79 1.472234 1_555
B24 O66 1.480485 1_556
B24 O1 1.517132 1_555
B25 O47 1.469587 1_655
B25 O79 1.472234 1_555
B25 O28 1.480485 1_556
B25 O89 1.517132 1_555
B26 O53 1.453518 1_555
B26 O80 1.456903 1_554
B26 O54 1.522851 1_555
B26 O66 1.524118 1_555
B27 O32 1.449015 1_455
B27 O38 1.461647 1_555
B27 O0 1.479856 1_555
B27 O62 1.531804 1_455
B28 O65 1.462891 1_555
B28 O80 1.464237 1_555
B28 O85 1.492907 1_555
B28 O1 1.542515 1_555
B29 O51 1.450120 1_655
B29 O14 1.455661 1_555
B29 O50 1.498042 1_555
B29 O89 1.539451 1_555
B30 O82 1.461684 1_555
B30 O30 1.478978 1_565
B30 O86 1.480651 1_555
B30 O13 1.486185 1_565
B31 O84 1.453518 1_655
B31 O55 1.456903 1_555
B31 O73 1.522851 1_555
B31 O27 1.524118 1_655
B32 O61 1.462891 1_555
B32 O88 1.464237 1_555
B32 O18 1.492907 1_555
B32 O40 1.542515 1_555
B33 O48 1.461684 1_555
B33 O12 1.478978 1_545
B33 O60 1.480651 1_555
B33 O70 1.486185 1_645
B34 O46 1.469587 1_655
B34 O87 1.472234 1_555
B34 O77 1.480485 1_555
B34 O81 1.517132 1_555
B35 O82 1.450120 1_555
B35 O43 1.455661 1_555
B35 O2 1.498042 1_555
B35 O7 1.539451 1_555
B36 O26 1.461684 1_555
B36 O24 1.478978 1_555
B36 O93 1.480651 1_555
B36 O0 1.486185 1_655
B37 O34 1.462891 1_555
B37 O55 1.464237 1_455
B37 O83 1.492907 1_555
B37 O29 1.542515 1_555
B38 O51 1.461684 1_555
B38 O63 1.478978 1_555
B38 O47 1.480651 1_555
B38 O71 1.486185 1_455
B39 O65 1.462891 1_555
B39 O11 1.464237 1_655
B39 O52 1.492907 1_555
B39 O89 1.542515 1_555
B40 O48 1.450120 1_455
B40 O8 1.455661 1_555
B40 O69 1.498042 1_555
B40 O29 1.539451 1_555
B41 O59 1.449015 1_555
B41 O16 1.461647 1_555
B41 O45 1.479856 1_555
B41 O39 1.531804 1_555
B42 O3 1.461684 1_555
B42 O12 1.478978 1_545
B42 O35 1.480651 1_555
B42 O76 1.486185 1_545
B43 O21 1.462891 1_555
B43 O72 1.464237 1_655
B43 O62 1.492907 1_555
B43 O81 1.542515 1_555
B44 O58 1.461684 1_555
B44 O30 1.478978 1_565
B44 O46 1.480651 1_555
B44 O74 1.486185 1_465
B45 O33 1.450120 1_555
B45 O10 1.455661 1_555
B45 O50 1.498042 1_555
B45 O1 1.539451 1_555
B46 O23 1.449015 1_655
B46 O90 1.461647 1_555
B46 O74 1.479856 1_555
B46 O15 1.531804 1_655
B47 O10 1.449015 1_555
B47 O6 1.461647 1_555
B47 O76 1.479856 1_555
B47 O85 1.531804 1_555
