# generated using pymatgen
data_Li3(WO3)8
_symmetry_space_group_name_H-M   'P 1'
_cell_length_a   7.59295200
_cell_length_b   7.59295200
_cell_length_c   7.59295200
_cell_angle_alpha   90.00000000
_cell_angle_beta   90.00000000
_cell_angle_gamma   90.00000000
_symmetry_Int_Tables_number   1
_chemical_formula_structural   Li3(WO3)8
_chemical_formula_sum   'Li3 W8 O24'
_cell_volume   437.75585478
_cell_formula_units_Z   1
loop_
 _symmetry_equiv_pos_site_id
 _symmetry_equiv_pos_as_xyz
  1  'x, y, z'
loop_
 _atom_site_type_symbol
 _atom_site_label
 _atom_site_symmetry_multiplicity
 _atom_site_fract_x
 _atom_site_fract_y
 _atom_site_fract_z
 _atom_site_occupancy
  Li  Li0  1  0.00000000  0.50000000  0.50000000  1
  Li  Li1  1  0.50000000  0.50000000  0.00000000  1
  Li  Li2  1  0.50000000  0.00000000  0.50000000  1
  W  W0  1  0.24922800  0.24922800  0.24922800  1
  W  W1  1  0.24922800  0.75077200  0.24922800  1
  W  W2  1  0.24922800  0.24922800  0.75077200  1
  W  W3  1  0.24922800  0.75077200  0.75077200  1
  W  W4  1  0.75077200  0.75077200  0.75077200  1
  W  W5  1  0.75077200  0.75077200  0.24922800  1
  W  W6  1  0.75077200  0.24922800  0.75077200  1
  W  W7  1  0.75077200  0.24922800  0.24922800  1
  O  O0  1  0.20734300  0.30031700  0.50000000  1
  O  O1  1  0.00000000  0.28849400  0.78855900  1
  O  O2  1  0.20734300  0.69968300  0.50000000  1
  O  O3  1  0.21144100  0.00000000  0.28849400  1
  O  O4  1  0.00000000  0.71150600  0.78855900  1
  O  O5  1  0.30031700  0.50000000  0.79265700  1
  O  O6  1  0.21144100  0.00000000  0.71150600  1
  O  O7  1  0.50000000  0.79265700  0.69968300  1
  O  O8  1  0.30031700  0.50000000  0.20734300  1
  O  O9  1  0.28849400  0.78855900  0.00000000  1
  O  O10  1  0.50000000  0.20734300  0.69968300  1
  O  O11  1  0.28849400  0.21144100  0.00000000  1
  O  O12  1  0.71150600  0.78855900  0.00000000  1
  O  O13  1  0.50000000  0.79265700  0.30031700  1
  O  O14  1  0.71150600  0.21144100  0.00000000  1
  O  O15  1  0.69968300  0.50000000  0.79265700  1
  O  O16  1  0.50000000  0.20734300  0.30031700  1
  O  O17  1  0.78855900  0.00000000  0.28849400  1
  O  O18  1  0.69968300  0.50000000  0.20734300  1
  O  O19  1  0.00000000  0.28849400  0.21144100  1
  O  O20  1  0.78855900  0.00000000  0.71150600  1
  O  O21  1  0.79265700  0.30031700  0.50000000  1
  O  O22  1  0.00000000  0.71150600  0.21144100  1
  O  O23  1  0.79265700  0.69968300  0.50000000  1
loop_
_geom_bond_atom_site_label_1
_geom_bond_atom_site_label_2
_geom_bond_distance
_geom_bond_site_symmetry_2
Li0 O23 2.185721 1_455
Li0 O2 2.185721 1_555
Li0 O0 2.185721 1_555
Li0 O21 2.185721 1_455
Li1 O18 2.185721 1_555
Li1 O15 2.185721 1_554
Li1 O8 2.185721 1_555
Li1 O5 2.185721 1_554
Li2 O7 2.185721 1_545
Li2 O10 2.185721 1_555
Li2 O13 2.185721 1_545
Li2 O16 2.185721 1_555
O0 W2 1.969065 1_555
O0 W0 1.969065 1_555
O1 W2 1.937085 1_555
O1 W6 1.937085 1_455
O2 W3 1.969065 1_555
O2 W1 1.969065 1_555
O3 W0 1.937085 1_555
O3 W1 1.937085 1_545
O4 W3 1.937085 1_555
O4 W4 1.937085 1_455
O5 W3 1.969065 1_555
O5 W2 1.969065 1_555
O6 W2 1.937085 1_555
O6 W3 1.937085 1_545
O7 W4 1.969065 1_555
O7 W3 1.969065 1_555
O8 W1 1.969065 1_555
O8 W0 1.969065 1_555
O9 W1 1.937085 1_555
O9 W3 1.937085 1_554
O10 W6 1.969065 1_555
O10 W2 1.969065 1_555
O11 W0 1.937085 1_555
O11 W2 1.937085 1_554
O12 W5 1.937085 1_555
O12 W4 1.937085 1_554
O13 W5 1.969065 1_555
O13 W1 1.969065 1_555
O14 W7 1.937085 1_555
O14 W6 1.937085 1_554
O15 W4 1.969065 1_555
O15 W6 1.969065 1_555
O16 W7 1.969065 1_555
O16 W0 1.969065 1_555
O17 W7 1.937085 1_555
O17 W5 1.937085 1_545
O18 W5 1.969065 1_555
O18 W7 1.969065 1_555
O19 W0 1.937085 1_555
O19 W7 1.937085 1_455
O20 W6 1.937085 1_555
O20 W4 1.937085 1_545
O21 W6 1.969065 1_555
O21 W7 1.969065 1_555
O22 W1 1.937085 1_555
O22 W5 1.937085 1_455
O23 W4 1.969065 1_555
O23 W5 1.969065 1_555
