# generated using pymatgen
data_Zr2N2O
_symmetry_space_group_name_H-M   'P 1'
_cell_length_a   8.78026610
_cell_length_b   8.78839471
_cell_length_c   8.79713801
_cell_angle_alpha   109.49301557
_cell_angle_beta   109.44290392
_cell_angle_gamma   109.38314514
_symmetry_Int_Tables_number   1
_chemical_formula_structural   Zr2N2O
_chemical_formula_sum   'Zr16 N16 O8'
_cell_volume   523.16951875
_cell_formula_units_Z   8
loop_
 _symmetry_equiv_pos_site_id
 _symmetry_equiv_pos_as_xyz
  1  'x, y, z'
loop_
 _atom_site_type_symbol
 _atom_site_label
 _atom_site_symmetry_multiplicity
 _atom_site_fract_x
 _atom_site_fract_y
 _atom_site_fract_z
 _atom_site_occupancy
  Zr  Zr0  1  0.02963458  0.24387910  0.78276433  1
  Zr  Zr1  1  0.51710656  0.51066875  0.01324056  1
  Zr  Zr2  1  0.74867783  0.21835104  0.96886295  1
  Zr  Zr3  1  0.25099712  0.29474341  0.53703873  1
  Zr  Zr4  1  0.71676325  0.47493328  0.75449098  1
  Zr  Zr5  1  0.22014938  0.96754770  0.75535450  1
  Zr  Zr6  1  0.00636410  0.00266442  0.99131451  1
  Zr  Zr7  1  0.46480708  0.74641767  0.70895002  1
  Zr  Zr8  1  0.53824781  0.25267835  0.28421896  1
  Zr  Zr9  1  0.49222894  0.98499588  0.49396549  1
  Zr  Zr10  1  0.98821396  0.48577212  0.49190063  1
  Zr  Zr11  1  0.78102362  0.03533366  0.25620348  1
  Zr  Zr12  1  0.28147704  0.52991152  0.25090671  1
  Zr  Zr13  1  0.74453230  0.71170010  0.46375088  1
  Zr  Zr14  1  0.25117914  0.78993685  0.04081528  1
  Zr  Zr15  1  0.96436510  0.74510112  0.20660189  1
  N  N0  1  0.46732413  0.01373224  0.74148775  1
  N  N1  1  0.51024045  0.54352692  0.77196354  1
  N  N2  1  0.96557049  0.73118120  0.95818871  1
  N  N3  1  0.22827957  0.48963562  0.45798966  1
  N  N4  1  0.77180284  0.50955100  0.54350223  1
  N  N5  1  0.98950604  0.26032209  0.53410298  1
  N  N6  1  0.95839668  0.96998437  0.72688015  1
  N  N7  1  0.54819409  0.77525553  0.51627973  1
  N  N8  1  0.22857377  0.76097055  0.27302479  1
  N  N9  1  0.02813159  0.27117199  0.03947712  1
  N  N10  1  0.27067721  0.04153619  0.02942101  1
  N  N11  1  0.48307998  0.45296050  0.22210755  1
  N  N12  1  0.76214900  0.27208014  0.22739525  1
  N  N13  1  0.53358907  0.98948200  0.26365971  1
  N  N14  1  0.73348585  0.77201636  0.23969506  1
  N  N15  1  0.74029016  0.46610359  0.01126333  1
  O  O0  1  0.25884457  0.53313885  0.98006094  1
  O  O1  1  0.27067789  0.22915383  0.76356238  1
  O  O2  1  0.23600022  0.72691364  0.77157273  1
  O  O3  1  0.72837265  0.95214562  0.97069743  1
  O  O4  1  0.77149731  0.24045288  0.72301302  1
  O  O5  1  0.45123075  0.22499928  0.48944370  1
  O  O6  1  0.05079265  0.03894287  0.27388648  1
  O  O7  1  0.01752525  0.74010679  0.47094487  1
loop_
_geom_bond_atom_site_label_1
_geom_bond_atom_site_label_2
_geom_bond_distance
_geom_bond_site_symmetry_2
N0 Zr5 2.124676 1_545
N0 Zr2 2.167616 1_555
N0 Zr9 2.199930 1_545
N0 Zr7 2.261419 1_545
N1 Zr4 2.127081 1_555
N1 Zr7 2.151837 1_555
N1 Zr3 2.186758 1_555
N1 Zr1 2.219833 1_556
N2 Zr4 2.119002 1_555
N2 Zr15 2.151409 1_556
N2 Zr14 2.181773 1_656
N2 Zr6 2.192029 1_665
N3 Zr3 2.094364 1_555
N3 Zr12 2.132902 1_555
N3 Zr7 2.188955 1_555
N3 Zr10 2.216080 1_455
N4 Zr10 2.152859 1_555
N4 Zr4 2.155835 1_555
N4 Zr13 2.169814 1_555
N4 Zr8 2.209293 1_555
N5 Zr10 2.136990 1_555
N5 Zr11 2.151590 1_555
N5 Zr0 2.159136 1_655
N5 Zr3 2.204067 1_655
N6 Zr0 2.105511 1_665
N6 Zr6 2.119658 1_665
N6 Zr13 2.192520 1_555
N6 Zr5 2.235662 1_655
N7 Zr9 2.110964 1_555
N7 Zr7 2.112537 1_555
N7 Zr13 2.120040 1_555
N7 Zr12 2.287507 1_555
N8 Zr9 2.106766 1_555
N8 Zr15 2.137965 1_455
N8 Zr12 2.190818 1_555
N8 Zr14 2.204674 1_555
N9 Zr12 2.154946 1_555
N9 Zr2 2.158399 1_454
N9 Zr6 2.182644 1_554
N9 Zr0 2.195046 1_554
N10 Zr5 2.117241 1_544
N10 Zr6 2.119980 1_554
N10 Zr8 2.193548 1_555
N10 Zr14 2.199235 1_545
N11 Zr1 2.146959 1_555
N11 Zr12 2.152601 1_555
N11 Zr8 2.159383 1_555
N11 Zr13 2.240486 1_555
N12 Zr10 2.101350 1_555
N12 Zr2 2.115825 1_554
N12 Zr8 2.152299 1_555
N12 Zr11 2.230134 1_555
N13 Zr11 2.101911 1_565
N13 Zr14 2.156424 1_555
N13 Zr9 2.184460 1_555
N13 Zr8 2.244497 1_565
N14 Zr1 2.093736 1_555
N14 Zr11 2.155169 1_565
N14 Zr13 2.186226 1_555
N14 Zr15 2.217068 1_555
N15 Zr2 2.113788 1_554
N15 Zr1 2.126348 1_555
N15 Zr15 2.137985 1_555
N15 Zr4 2.228930 1_554
O0 Zr14 2.168707 1_556
O0 Zr0 2.204350 1_555
O0 Zr1 2.271851 1_556
O0 Zr12 2.334744 1_556
O1 Zr5 2.163037 1_545
O1 Zr0 2.220304 1_555
O1 Zr3 2.221869 1_555
O1 Zr1 2.298525 1_556
O2 Zr14 2.190879 1_556
O2 Zr5 2.212591 1_555
O2 Zr7 2.222643 1_555
O2 Zr10 2.274651 1_455
O3 Zr7 2.196189 1_555
O3 Zr11 2.198573 1_566
O3 Zr6 2.262727 1_665
O3 Zr2 2.292520 1_565
O4 Zr0 2.136654 1_655
O4 Zr4 2.217940 1_555
O4 Zr9 2.269487 1_545
O4 Zr2 2.301846 1_555
O5 Zr3 2.162407 1_555
O5 Zr8 2.233917 1_555
O5 Zr9 2.265066 1_545
O5 Zr4 2.293625 1_555
O6 Zr3 2.167395 1_555
O6 Zr15 2.230487 1_445
O6 Zr6 2.275102 1_554
O6 Zr11 2.310241 1_455
O7 Zr5 2.181524 1_555
O7 Zr15 2.233086 1_455
O7 Zr10 2.240773 1_455
O7 Zr13 2.302819 1_455
