# generated using pymatgen
data_LiLaTiO4
_symmetry_space_group_name_H-M   'P 1'
_cell_length_a   3.77593800
_cell_length_b   3.77593800
_cell_length_c   12.34503300
_cell_angle_alpha   90.00000000
_cell_angle_beta   90.00000000
_cell_angle_gamma   90.00000000
_symmetry_Int_Tables_number   1
_chemical_formula_structural   LiLaTiO4
_chemical_formula_sum   'Li2 La2 Ti2 O8'
_cell_volume   176.01187305
_cell_formula_units_Z   2
loop_
 _symmetry_equiv_pos_site_id
 _symmetry_equiv_pos_as_xyz
  1  'x, y, z'
loop_
 _atom_site_type_symbol
 _atom_site_label
 _atom_site_symmetry_multiplicity
 _atom_site_fract_x
 _atom_site_fract_y
 _atom_site_fract_z
 _atom_site_occupancy
  Li  Li0  1  0.50000000  0.50000000  0.50000000  1
  Li  Li1  1  0.00000000  0.00000000  0.50000000  1
  La  La0  1  0.00000000  0.50000000  0.11709800  1
  La  La1  1  0.50000000  0.00000000  0.88290200  1
  Ti  Ti0  1  0.00000000  0.50000000  0.70602700  1
  Ti  Ti1  1  0.50000000  0.00000000  0.29397300  1
  O  O0  1  0.00000000  0.50000000  0.92503300  1
  O  O1  1  0.50000000  0.00000000  0.07496700  1
  O  O2  1  0.00000000  0.50000000  0.56068100  1
  O  O3  1  0.50000000  0.00000000  0.43931900  1
  O  O4  1  0.00000000  0.00000000  0.74549600  1
  O  O5  1  0.50000000  0.50000000  0.74549600  1
  O  O6  1  0.50000000  0.50000000  0.25450400  1
  O  O7  1  0.00000000  0.00000000  0.25450400  1
loop_
_geom_bond_atom_site_label_1
_geom_bond_atom_site_label_2
_geom_bond_distance
_geom_bond_site_symmetry_2
Li0 O2 2.031155 1_555
Li0 O2 2.031155 1_655
Li0 O3 2.031155 1_555
Li0 O3 2.031155 1_565
Li1 O2 2.031155 1_555
Li1 O2 2.031155 1_545
Li1 O3 2.031155 1_555
Li1 O3 2.031155 1_455
La0 O0 2.371049 1_554
La0 O7 2.538070 1_565
La0 O6 2.538070 1_455
La0 O6 2.538070 1_555
La0 O7 2.538070 1_555
La0 O1 2.720178 1_555
La0 O1 2.720178 1_565
La0 O1 2.720178 1_465
La0 O1 2.720178 1_455
La1 O1 2.371049 1_556
La1 O4 2.538070 1_555
La1 O5 2.538070 1_555
La1 O4 2.538070 1_655
La1 O5 2.538070 1_545
La1 O0 2.720178 1_545
La1 O0 2.720178 1_555
La1 O0 2.720178 1_655
La1 O0 2.720178 1_645
O0 Ti0 2.703636 1_555
O1 Ti1 2.703636 1_555
O2 Ti0 1.794301 1_555
O3 Ti1 1.794301 1_555
O4 Ti0 1.949830 1_555
O4 Ti0 1.949830 1_545
O5 Ti0 1.949830 1_555
O5 Ti0 1.949830 1_655
O6 Ti1 1.949830 1_565
O6 Ti1 1.949830 1_555
O7 Ti1 1.949830 1_455
O7 Ti1 1.949830 1_555
