# generated using pymatgen
data_Pu2InNi2
_symmetry_space_group_name_H-M   'P 1'
_cell_length_a   14.64917600
_cell_length_b   14.64917600
_cell_length_c   6.96309000
_cell_angle_alpha   90.00000000
_cell_angle_beta   90.00000000
_cell_angle_gamma   90.00000000
_symmetry_Int_Tables_number   1
_chemical_formula_structural   Pu2InNi2
_chemical_formula_sum   'Pu32 In16 Ni32'
_cell_volume   1494.26767698
_cell_formula_units_Z   16
loop_
 _symmetry_equiv_pos_site_id
 _symmetry_equiv_pos_as_xyz
  1  'x, y, z'
loop_
 _atom_site_type_symbol
 _atom_site_label
 _atom_site_symmetry_multiplicity
 _atom_site_fract_x
 _atom_site_fract_y
 _atom_site_fract_z
 _atom_site_occupancy
  Pu  Pu0_0  1  0.33267400  0.08267400  0.25000000  1
  Pu  Pu0_1  1  0.33267400  0.08267400  0.75000000  1
  Pu  Pu0_2  1  0.33267400  0.58267400  0.25000000  1
  Pu  Pu0_3  1  0.33267400  0.58267400  0.75000000  1
  Pu  Pu0_4  1  0.83267400  0.08267400  0.25000000  1
  Pu  Pu0_5  1  0.83267400  0.08267400  0.75000000  1
  Pu  Pu0_6  1  0.83267400  0.58267400  0.25000000  1
  Pu  Pu0_7  1  0.83267400  0.58267400  0.75000000  1
  Pu  Pu1_0  1  0.08267400  0.16732600  0.25000000  1
  Pu  Pu1_1  1  0.08267400  0.16732600  0.75000000  1
  Pu  Pu1_2  1  0.08267400  0.66732600  0.25000000  1
  Pu  Pu1_3  1  0.08267400  0.66732600  0.75000000  1
  Pu  Pu1_4  1  0.58267400  0.16732600  0.25000000  1
  Pu  Pu1_5  1  0.58267400  0.16732600  0.75000000  1
  Pu  Pu1_6  1  0.58267400  0.66732600  0.25000000  1
  Pu  Pu1_7  1  0.58267400  0.66732600  0.75000000  1
  Pu  Pu2_0  1  0.41732600  0.33267400  0.25000000  1
  Pu  Pu2_1  1  0.41732600  0.33267400  0.75000000  1
  Pu  Pu2_2  1  0.41732600  0.83267400  0.25000000  1
  Pu  Pu2_3  1  0.41732600  0.83267400  0.75000000  1
  Pu  Pu2_4  1  0.91732600  0.33267400  0.25000000  1
  Pu  Pu2_5  1  0.91732600  0.33267400  0.75000000  1
  Pu  Pu2_6  1  0.91732600  0.83267400  0.25000000  1
  Pu  Pu2_7  1  0.91732600  0.83267400  0.75000000  1
  Pu  Pu3_0  1  0.16732600  0.41732600  0.25000000  1
  Pu  Pu3_1  1  0.16732600  0.41732600  0.75000000  1
  Pu  Pu3_2  1  0.16732600  0.91732600  0.25000000  1
  Pu  Pu3_3  1  0.16732600  0.91732600  0.75000000  1
  Pu  Pu3_4  1  0.66732600  0.41732600  0.25000000  1
  Pu  Pu3_5  1  0.66732600  0.41732600  0.75000000  1
  Pu  Pu3_6  1  0.66732600  0.91732600  0.25000000  1
  Pu  Pu3_7  1  0.66732600  0.91732600  0.75000000  1
  In  In0_0  1  0.00000000  0.00000000  0.00000000  1
  In  In0_1  1  0.00000000  0.00000000  0.50000000  1
  In  In0_2  1  0.00000000  0.50000000  0.00000000  1
  In  In0_3  1  0.00000000  0.50000000  0.50000000  1
  In  In0_4  1  0.50000000  0.00000000  0.00000000  1
  In  In0_5  1  0.50000000  0.00000000  0.50000000  1
  In  In0_6  1  0.50000000  0.50000000  0.00000000  1
  In  In0_7  1  0.50000000  0.50000000  0.50000000  1
  In  In1_0  1  0.25000000  0.25000000  0.00000000  1
  In  In1_1  1  0.25000000  0.25000000  0.50000000  1
  In  In1_2  1  0.25000000  0.75000000  0.00000000  1
  In  In1_3  1  0.25000000  0.75000000  0.50000000  1
  In  In1_4  1  0.75000000  0.25000000  0.00000000  1
  In  In1_5  1  0.75000000  0.25000000  0.50000000  1
  In  In1_6  1  0.75000000  0.75000000  0.00000000  1
  In  In1_7  1  0.75000000  0.75000000  0.50000000  1
  Ni  Ni0_0  1  0.18368650  0.06631350  0.00000000  1
  Ni  Ni0_1  1  0.18368650  0.06631350  0.50000000  1
  Ni  Ni0_2  1  0.18368650  0.56631350  0.00000000  1
  Ni  Ni0_3  1  0.18368650  0.56631350  0.50000000  1
  Ni  Ni0_4  1  0.68368650  0.06631350  0.00000000  1
  Ni  Ni0_5  1  0.68368650  0.06631350  0.50000000  1
  Ni  Ni0_6  1  0.68368650  0.56631350  0.00000000  1
  Ni  Ni0_7  1  0.68368650  0.56631350  0.50000000  1
  Ni  Ni1_0  1  0.43368650  0.18368650  0.00000000  1
  Ni  Ni1_1  1  0.43368650  0.18368650  0.50000000  1
  Ni  Ni1_2  1  0.43368650  0.68368650  0.00000000  1
  Ni  Ni1_3  1  0.43368650  0.68368650  0.50000000  1
  Ni  Ni1_4  1  0.93368650  0.18368650  0.00000000  1
  Ni  Ni1_5  1  0.93368650  0.18368650  0.50000000  1
  Ni  Ni1_6  1  0.93368650  0.68368650  0.00000000  1
  Ni  Ni1_7  1  0.93368650  0.68368650  0.50000000  1
  Ni  Ni2_0  1  0.31631350  0.43368650  0.00000000  1
  Ni  Ni2_1  1  0.31631350  0.43368650  0.50000000  1
  Ni  Ni2_2  1  0.31631350  0.93368650  0.00000000  1
  Ni  Ni2_3  1  0.31631350  0.93368650  0.50000000  1
  Ni  Ni2_4  1  0.81631350  0.43368650  0.00000000  1
  Ni  Ni2_5  1  0.81631350  0.43368650  0.50000000  1
  Ni  Ni2_6  1  0.81631350  0.93368650  0.00000000  1
  Ni  Ni2_7  1  0.81631350  0.93368650  0.50000000  1
  Ni  Ni3_0  1  0.06631350  0.31631350  0.00000000  1
  Ni  Ni3_1  1  0.06631350  0.31631350  0.50000000  1
  Ni  Ni3_2  1  0.06631350  0.81631350  0.00000000  1
  Ni  Ni3_3  1  0.06631350  0.81631350  0.50000000  1
  Ni  Ni3_4  1  0.56631350  0.31631350  0.00000000  1
  Ni  Ni3_5  1  0.56631350  0.31631350  0.50000000  1
  Ni  Ni3_6  1  0.56631350  0.81631350  0.00000000  1
  Ni  Ni3_7  1  0.56631350  0.81631350  0.50000000  1
loop_
_geom_bond_atom_site_label_1
_geom_bond_atom_site_label_2
_geom_bond_distance
_geom_bond_site_symmetry_2
In0_0 Ni1_4 2.860839 1_455
In0_0 Ni0_0 2.860839 1_555
In0_0 Ni2_6 2.860839 1_445
In0_0 Ni3_2 2.860839 1_545
In0_0 Pu1_0 3.241202 1_555
In0_0 Pu1_1 3.241202 1_554
In0_0 Pu3_2 3.241202 1_545
In0_0 Pu3_3 3.241202 1_544
In0_0 Pu0_4 3.241202 1_455
In0_0 Pu2_6 3.241202 1_445
In0_0 Pu0_5 3.241202 1_454
In0_0 Pu2_7 3.241202 1_444
In0_0 In0_1 3.481545 1_555
In0_0 In0_1 3.481545 1_554
In0_1 Ni1_5 2.860839 1_455
In0_1 Ni0_1 2.860839 1_555
In0_1 Ni2_7 2.860839 1_445
In0_1 Ni3_3 2.860839 1_545
In0_1 Pu1_0 3.241202 1_555
In0_1 Pu1_1 3.241202 1_555
In0_1 Pu3_2 3.241202 1_545
In0_1 Pu3_3 3.241202 1_545
In0_1 Pu0_4 3.241202 1_455
In0_1 Pu2_7 3.241202 1_445
In0_1 Pu0_5 3.241202 1_455
In0_1 Pu2_6 3.241202 1_445
In0_2 Ni1_6 2.860839 1_455
In0_2 Ni0_2 2.860839 1_555
In0_2 Ni2_4 2.860839 1_455
In0_2 Ni3_0 2.860839 1_555
In0_2 Pu1_2 3.241202 1_555
In0_2 Pu1_3 3.241202 1_554
In0_2 Pu3_0 3.241202 1_555
In0_2 Pu3_1 3.241202 1_554
In0_2 Pu0_6 3.241202 1_455
In0_2 Pu0_7 3.241202 1_454
In0_2 Pu2_4 3.241202 1_455
In0_2 Pu2_5 3.241202 1_454
In0_2 In0_3 3.481545 1_554
In0_2 In0_3 3.481545 1_555
In0_3 Ni1_7 2.860839 1_455
In0_3 Ni0_3 2.860839 1_555
In0_3 Ni2_5 2.860839 1_455
In0_3 Ni3_1 2.860839 1_555
In0_3 Pu1_3 3.241202 1_555
In0_3 Pu1_2 3.241202 1_555
In0_3 Pu3_0 3.241202 1_555
In0_3 Pu3_1 3.241202 1_555
In0_3 Pu0_6 3.241202 1_455
In0_3 Pu0_7 3.241202 1_455
In0_3 Pu2_5 3.241202 1_455
In0_3 Pu2_4 3.241202 1_455
In0_4 Ni0_4 2.860839 1_555
In0_4 Ni1_0 2.860839 1_555
In0_4 Ni3_6 2.860839 1_545
In0_4 Ni2_2 2.860839 1_545
In0_4 Pu1_4 3.241202 1_555
In0_4 Pu1_5 3.241202 1_554
In0_4 Pu3_7 3.241202 1_544
In0_4 Pu3_6 3.241202 1_545
In0_4 Pu2_3 3.241202 1_544
In0_4 Pu2_2 3.241202 1_545
In0_4 Pu0_0 3.241202 1_555
In0_4 Pu0_1 3.241202 1_554
In0_4 In0_5 3.481545 1_554
In0_4 In0_5 3.481545 1_555
In0_5 Ni0_5 2.860839 1_555
In0_5 Ni1_1 2.860839 1_555
In0_5 Ni3_7 2.860839 1_545
In0_5 Ni2_3 2.860839 1_545
In0_5 Pu1_4 3.241202 1_555
In0_5 Pu1_5 3.241202 1_555
In0_5 Pu3_6 3.241202 1_545
In0_5 Pu3_7 3.241202 1_545
In0_5 Pu2_3 3.241202 1_545
In0_5 Pu2_2 3.241202 1_545
In0_5 Pu0_0 3.241202 1_555
In0_5 Pu0_1 3.241202 1_555
In0_6 Ni1_2 2.860839 1_555
In0_6 Ni0_6 2.860839 1_555
In0_6 Ni3_4 2.860839 1_555
In0_6 Ni2_0 2.860839 1_555
In0_6 Pu1_6 3.241202 1_555
In0_6 Pu1_7 3.241202 1_554
In0_6 Pu3_5 3.241202 1_554
In0_6 Pu3_4 3.241202 1_555
In0_6 Pu0_3 3.241202 1_554
In0_6 Pu0_2 3.241202 1_555
In0_6 Pu2_1 3.241202 1_554
In0_6 Pu2_0 3.241202 1_555
In0_6 In0_7 3.481545 1_555
In0_6 In0_7 3.481545 1_554
In0_7 Ni1_3 2.860839 1_555
In0_7 Ni0_7 2.860839 1_555
In0_7 Ni2_1 2.860839 1_555
In0_7 Ni3_5 2.860839 1_555
In0_7 Pu1_6 3.241202 1_555
In0_7 Pu1_7 3.241202 1_555
In0_7 Pu3_5 3.241202 1_555
In0_7 Pu3_4 3.241202 1_555
In0_7 Pu0_3 3.241202 1_555
In0_7 Pu0_2 3.241202 1_555
In0_7 Pu2_1 3.241202 1_555
In0_7 Pu2_0 3.241202 1_555
In1_0 Ni3_0 2.860839 1_555
In1_0 Ni2_0 2.860839 1_555
In1_0 Ni0_0 2.860839 1_555
In1_0 Ni1_0 2.860839 1_555
In1_0 Pu2_1 3.241202 1_554
In1_0 Pu0_1 3.241202 1_554
In1_0 Pu2_0 3.241202 1_555
In1_0 Pu0_0 3.241202 1_555
In1_0 Pu1_0 3.241202 1_555
In1_0 Pu3_1 3.241202 1_554
In1_0 Pu1_1 3.241202 1_554
In1_0 Pu3_0 3.241202 1_555
In1_0 In1_1 3.481545 1_554
In1_0 In1_1 3.481545 1_555
In1_1 Ni3_1 2.860839 1_555
In1_1 Ni2_1 2.860839 1_555
In1_1 Ni0_1 2.860839 1_555
In1_1 Ni1_1 2.860839 1_555
In1_1 Pu2_0 3.241202 1_555
In1_1 Pu0_0 3.241202 1_555
In1_1 Pu2_1 3.241202 1_555
In1_1 Pu0_1 3.241202 1_555
In1_1 Pu1_0 3.241202 1_555
In1_1 Pu1_1 3.241202 1_555
In1_1 Pu3_1 3.241202 1_555
In1_1 Pu3_0 3.241202 1_555
In1_2 Ni2_2 2.860839 1_555
In1_2 Ni3_2 2.860839 1_555
In1_2 Ni1_2 2.860839 1_555
In1_2 Ni0_2 2.860839 1_555
In1_2 Pu2_3 3.241202 1_554
In1_2 Pu2_2 3.241202 1_555
In1_2 Pu3_3 3.241202 1_554
In1_2 Pu3_2 3.241202 1_555
In1_2 Pu0_2 3.241202 1_555
In1_2 Pu0_3 3.241202 1_554
In1_2 Pu1_2 3.241202 1_555
In1_2 Pu1_3 3.241202 1_554
In1_2 In1_3 3.481545 1_555
In1_2 In1_3 3.481545 1_554
In1_3 Ni2_3 2.860839 1_555
In1_3 Ni3_3 2.860839 1_555
In1_3 Ni1_3 2.860839 1_555
In1_3 Ni0_3 2.860839 1_555
In1_3 Pu2_2 3.241202 1_555
In1_3 Pu2_3 3.241202 1_555
In1_3 Pu3_2 3.241202 1_555
In1_3 Pu3_3 3.241202 1_555
In1_3 Pu0_2 3.241202 1_555
In1_3 Pu0_3 3.241202 1_555
In1_3 Pu1_2 3.241202 1_555
In1_3 Pu1_3 3.241202 1_555
In1_4 Ni2_4 2.860839 1_555
In1_4 Ni3_4 2.860839 1_555
In1_4 Ni1_4 2.860839 1_555
In1_4 Ni0_4 2.860839 1_555
In1_4 Pu2_5 3.241202 1_554
In1_4 Pu2_4 3.241202 1_555
In1_4 Pu0_4 3.241202 1_555
In1_4 Pu0_5 3.241202 1_554
In1_4 Pu3_4 3.241202 1_555
In1_4 Pu3_5 3.241202 1_554
In1_4 Pu1_5 3.241202 1_554
In1_4 Pu1_4 3.241202 1_555
In1_4 In1_5 3.481545 1_555
In1_4 In1_5 3.481545 1_554
In1_5 Ni2_5 2.860839 1_555
In1_5 Ni3_5 2.860839 1_555
In1_5 Ni1_5 2.860839 1_555
In1_5 Ni0_5 2.860839 1_555
In1_5 Pu2_4 3.241202 1_555
In1_5 Pu2_5 3.241202 1_555
In1_5 Pu0_4 3.241202 1_555
In1_5 Pu0_5 3.241202 1_555
In1_5 Pu3_4 3.241202 1_555
In1_5 Pu3_5 3.241202 1_555
In1_5 Pu1_5 3.241202 1_555
In1_5 Pu1_4 3.241202 1_555
In1_6 Ni2_6 2.860839 1_555
In1_6 Ni3_6 2.860839 1_555
In1_6 Ni1_6 2.860839 1_555
In1_6 Ni0_6 2.860839 1_555
In1_6 Pu2_7 3.241202 1_554
In1_6 Pu2_6 3.241202 1_555
In1_6 Pu0_7 3.241202 1_554
In1_6 Pu3_6 3.241202 1_555
In1_6 Pu3_7 3.241202 1_554
In1_6 Pu0_6 3.241202 1_555
In1_6 Pu1_6 3.241202 1_555
In1_6 Pu1_7 3.241202 1_554
In1_6 In1_7 3.481545 1_554
In1_6 In1_7 3.481545 1_555
In1_7 Ni2_7 2.860839 1_555
In1_7 Ni3_7 2.860839 1_555
In1_7 Ni1_7 2.860839 1_555
In1_7 Ni0_7 2.860839 1_555
In1_7 Pu2_6 3.241202 1_555
In1_7 Pu2_7 3.241202 1_555
In1_7 Pu0_7 3.241202 1_555
In1_7 Pu3_6 3.241202 1_555
In1_7 Pu0_6 3.241202 1_555
In1_7 Pu3_7 3.241202 1_555
In1_7 Pu1_6 3.241202 1_555
In1_7 Pu1_7 3.241202 1_555
Ni0_0 Pu1_0 2.722060 1_555
Ni0_0 Pu1_1 2.722060 1_554
Ni0_0 Ni2_2 2.747642 1_545
Ni0_0 Pu0_0 2.802004 1_555
Ni0_0 Pu0_1 2.802004 1_554
Ni0_0 Pu3_2 2.802004 1_545
Ni0_0 Pu3_3 2.802004 1_544
Ni0_1 Pu1_0 2.722060 1_555
Ni0_1 Pu1_1 2.722060 1_555
Ni0_1 Ni2_3 2.747642 1_545
Ni0_1 Pu0_0 2.802004 1_555
Ni0_1 Pu0_1 2.802004 1_555
Ni0_1 Pu3_2 2.802004 1_545
Ni0_1 Pu3_3 2.802004 1_545
Ni0_2 Pu1_2 2.722060 1_555
Ni0_2 Pu1_3 2.722060 1_554
Ni0_2 Ni2_0 2.747642 1_555
Ni0_2 Pu0_2 2.802004 1_555
Ni0_2 Pu0_3 2.802004 1_554
Ni0_2 Pu3_0 2.802004 1_555
Ni0_2 Pu3_1 2.802004 1_554
Ni0_3 Pu1_2 2.722060 1_555
Ni0_3 Pu1_3 2.722060 1_555
Ni0_3 Ni2_1 2.747642 1_555
Ni0_3 Pu0_2 2.802004 1_555
Ni0_3 Pu0_3 2.802004 1_555
Ni0_3 Pu3_0 2.802004 1_555
Ni0_3 Pu3_1 2.802004 1_555
Ni0_4 Pu1_4 2.722060 1_555
Ni0_4 Pu1_5 2.722060 1_554
Ni0_4 Ni2_6 2.747642 1_545
Ni0_4 Pu0_4 2.802004 1_555
Ni0_4 Pu0_5 2.802004 1_554
Ni0_4 Pu3_7 2.802004 1_544
Ni0_4 Pu3_6 2.802004 1_545
Ni0_5 Pu1_4 2.722060 1_555
Ni0_5 Pu1_5 2.722060 1_555
Ni0_5 Ni2_7 2.747642 1_545
Ni0_5 Pu0_4 2.802004 1_555
Ni0_5 Pu0_5 2.802004 1_555
Ni0_5 Pu3_6 2.802004 1_545
Ni0_5 Pu3_7 2.802004 1_545
Ni0_6 Pu1_7 2.722060 1_554
Ni0_6 Pu1_6 2.722060 1_555
Ni0_6 Ni2_4 2.747642 1_555
Ni0_6 Pu0_6 2.802004 1_555
Ni0_6 Pu0_7 2.802004 1_554
Ni0_6 Pu3_5 2.802004 1_554
Ni0_6 Pu3_4 2.802004 1_555
Ni0_7 Pu1_6 2.722060 1_555
Ni0_7 Pu1_7 2.722060 1_555
Ni0_7 Ni2_5 2.747642 1_555
Ni0_7 Pu0_6 2.802004 1_555
Ni0_7 Pu0_7 2.802004 1_555
Ni0_7 Pu3_5 2.802004 1_555
Ni0_7 Pu3_4 2.802004 1_555
Ni1_0 Pu0_0 2.722060 1_555
Ni1_0 Pu0_1 2.722060 1_554
Ni1_0 Ni3_4 2.747642 1_555
Ni1_0 Pu2_1 2.802004 1_554
Ni1_0 Pu2_0 2.802004 1_555
Ni1_0 Pu1_5 2.802004 1_554
Ni1_0 Pu1_4 2.802004 1_555
Ni1_1 Pu0_0 2.722060 1_555
Ni1_1 Pu0_1 2.722060 1_555
Ni1_1 Ni3_5 2.747642 1_555
Ni1_1 Pu2_0 2.802004 1_555
Ni1_1 Pu2_1 2.802004 1_555
Ni1_1 Pu1_5 2.802004 1_555
Ni1_1 Pu1_4 2.802004 1_555
Ni1_2 Pu0_2 2.722060 1_555
Ni1_2 Pu0_3 2.722060 1_554
Ni1_2 Ni3_6 2.747642 1_555
Ni1_2 Pu2_3 2.802004 1_554
Ni1_2 Pu2_2 2.802004 1_555
Ni1_2 Pu1_6 2.802004 1_555
Ni1_2 Pu1_7 2.802004 1_554
Ni1_3 Pu0_3 2.722060 1_555
Ni1_3 Pu0_2 2.722060 1_555
Ni1_3 Ni3_7 2.747642 1_555
Ni1_3 Pu2_3 2.802004 1_555
Ni1_3 Pu2_2 2.802004 1_555
Ni1_3 Pu1_7 2.802004 1_555
Ni1_3 Pu1_6 2.802004 1_555
Ni1_4 Pu0_4 2.722060 1_555
Ni1_4 Pu0_5 2.722060 1_554
Ni1_4 Ni3_0 2.747642 1_655
Ni1_4 Pu2_5 2.802004 1_554
Ni1_4 Pu2_4 2.802004 1_555
Ni1_4 Pu1_0 2.802004 1_655
Ni1_4 Pu1_1 2.802004 1_654
Ni1_5 Pu0_4 2.722060 1_555
Ni1_5 Pu0_5 2.722060 1_555
Ni1_5 Ni3_1 2.747642 1_655
Ni1_5 Pu2_5 2.802004 1_555
Ni1_5 Pu2_4 2.802004 1_555
Ni1_5 Pu1_0 2.802004 1_655
Ni1_5 Pu1_1 2.802004 1_655
Ni1_6 Pu0_7 2.722060 1_554
Ni1_6 Pu0_6 2.722060 1_555
Ni1_6 Ni3_2 2.747642 1_655
Ni1_6 Pu2_7 2.802004 1_554
Ni1_6 Pu2_6 2.802004 1_555
Ni1_6 Pu1_3 2.802004 1_654
Ni1_6 Pu1_2 2.802004 1_655
Ni1_7 Pu0_7 2.722060 1_555
Ni1_7 Pu0_6 2.722060 1_555
Ni1_7 Ni3_3 2.747642 1_655
Ni1_7 Pu2_6 2.802004 1_555
Ni1_7 Pu2_7 2.802004 1_555
Ni1_7 Pu1_3 2.802004 1_655
Ni1_7 Pu1_2 2.802004 1_655
Ni2_0 Pu2_1 2.722060 1_554
Ni2_0 Pu2_0 2.722060 1_555
Ni2_0 Pu3_1 2.802004 1_554
Ni2_0 Pu3_0 2.802004 1_555
Ni2_0 Pu0_3 2.802004 1_554
Ni2_0 Pu0_2 2.802004 1_555
Ni2_1 Pu2_1 2.722060 1_555
Ni2_1 Pu2_0 2.722060 1_555
Ni2_1 Pu3_1 2.802004 1_555
Ni2_1 Pu3_0 2.802004 1_555
Ni2_1 Pu0_3 2.802004 1_555
Ni2_1 Pu0_2 2.802004 1_555
Ni2_2 Pu2_2 2.722060 1_555
Ni2_2 Pu2_3 2.722060 1_554
Ni2_2 Pu3_3 2.802004 1_554
Ni2_2 Pu3_2 2.802004 1_555
Ni2_2 Pu0_0 2.802004 1_565
Ni2_2 Pu0_1 2.802004 1_564
Ni2_3 Pu2_2 2.722060 1_555
Ni2_3 Pu2_3 2.722060 1_555
Ni2_3 Pu3_2 2.802004 1_555
Ni2_3 Pu3_3 2.802004 1_555
Ni2_3 Pu0_0 2.802004 1_565
Ni2_3 Pu0_1 2.802004 1_565
Ni2_4 Pu2_4 2.722060 1_555
Ni2_4 Pu2_5 2.722060 1_554
Ni2_4 Pu3_4 2.802004 1_555
Ni2_4 Pu3_5 2.802004 1_554
Ni2_4 Pu0_6 2.802004 1_555
Ni2_4 Pu0_7 2.802004 1_554
Ni2_5 Pu2_4 2.722060 1_555
Ni2_5 Pu2_5 2.722060 1_555
Ni2_5 Pu3_4 2.802004 1_555
Ni2_5 Pu3_5 2.802004 1_555
Ni2_5 Pu0_6 2.802004 1_555
Ni2_5 Pu0_7 2.802004 1_555
Ni2_6 Pu2_7 2.722060 1_554
Ni2_6 Pu2_6 2.722060 1_555
Ni2_6 Pu3_7 2.802004 1_554
Ni2_6 Pu3_6 2.802004 1_555
Ni2_6 Pu0_4 2.802004 1_565
Ni2_6 Pu0_5 2.802004 1_564
Ni2_7 Pu2_7 2.722060 1_555
Ni2_7 Pu2_6 2.722060 1_555
Ni2_7 Pu3_7 2.802004 1_555
Ni2_7 Pu3_6 2.802004 1_555
Ni2_7 Pu0_4 2.802004 1_565
Ni2_7 Pu0_5 2.802004 1_565
Ni3_0 Pu3_0 2.722060 1_555
Ni3_0 Pu3_1 2.722060 1_554
Ni3_0 Pu1_1 2.802004 1_554
Ni3_0 Pu1_0 2.802004 1_555
Ni3_0 Pu2_5 2.802004 1_454
Ni3_0 Pu2_4 2.802004 1_455
Ni3_1 Pu3_0 2.722060 1_555
Ni3_1 Pu3_1 2.722060 1_555
Ni3_1 Pu1_0 2.802004 1_555
Ni3_1 Pu1_1 2.802004 1_555
Ni3_1 Pu2_5 2.802004 1_455
Ni3_1 Pu2_4 2.802004 1_455
Ni3_2 Pu3_3 2.722060 1_554
Ni3_2 Pu3_2 2.722060 1_555
Ni3_2 Pu1_2 2.802004 1_555
Ni3_2 Pu1_3 2.802004 1_554
Ni3_2 Pu2_6 2.802004 1_455
Ni3_2 Pu2_7 2.802004 1_454
Ni3_3 Pu3_3 2.722060 1_555
Ni3_3 Pu3_2 2.722060 1_555
Ni3_3 Pu1_2 2.802004 1_555
Ni3_3 Pu1_3 2.802004 1_555
Ni3_3 Pu2_6 2.802004 1_455
Ni3_3 Pu2_7 2.802004 1_455
Ni3_4 Pu3_4 2.722060 1_555
Ni3_4 Pu3_5 2.722060 1_554
Ni3_4 Pu1_5 2.802004 1_554
Ni3_4 Pu1_4 2.802004 1_555
Ni3_4 Pu2_1 2.802004 1_554
Ni3_4 Pu2_0 2.802004 1_555
Ni3_5 Pu3_4 2.722060 1_555
Ni3_5 Pu3_5 2.722060 1_555
Ni3_5 Pu1_5 2.802004 1_555
Ni3_5 Pu1_4 2.802004 1_555
Ni3_5 Pu2_1 2.802004 1_555
Ni3_5 Pu2_0 2.802004 1_555
Ni3_6 Pu3_6 2.722060 1_555
Ni3_6 Pu3_7 2.722060 1_554
Ni3_6 Pu1_7 2.802004 1_554
Ni3_6 Pu1_6 2.802004 1_555
Ni3_6 Pu2_2 2.802004 1_555
Ni3_6 Pu2_3 2.802004 1_554
Ni3_7 Pu3_7 2.722060 1_555
Ni3_7 Pu3_6 2.722060 1_555
Ni3_7 Pu1_7 2.802004 1_555
Ni3_7 Pu1_6 2.802004 1_555
Ni3_7 Pu2_2 2.802004 1_555
Ni3_7 Pu2_3 2.802004 1_555
