# generated using pymatgen
data_Re8Pb8O27
_symmetry_space_group_name_H-M   'P 1'
_cell_length_a   7.48603260
_cell_length_b   7.48599507
_cell_length_c   59.86864762
_cell_angle_alpha   59.98882330
_cell_angle_beta   59.98914625
_cell_angle_gamma   60.00004647
_symmetry_Int_Tables_number   1
_chemical_formula_structural   Re8Pb8O27
_chemical_formula_sum   'Re32 Pb32 O108'
_cell_volume   2371.99366808
_cell_formula_units_Z   4
loop_
 _symmetry_equiv_pos_site_id
 _symmetry_equiv_pos_as_xyz
  1  'x, y, z'
loop_
 _atom_site_type_symbol
 _atom_site_label
 _atom_site_symmetry_multiplicity
 _atom_site_fract_x
 _atom_site_fract_y
 _atom_site_fract_z
 _atom_site_occupancy
  Re  Re0  1  0.50062800  0.50060600  0.99976500  1
  Re  Re1  1  0.50025300  0.50022400  0.06245900  1
  Re  Re2  1  0.49972300  0.49972500  0.12510100  1
  Re  Re3  1  0.49948700  0.00009800  0.18761600  1
  Re  Re4  1  0.50022400  0.99987600  0.06245900  1
  Re  Re5  1  0.99985500  0.50021500  0.06246100  1
  Re  Re6  1  0.49947500  0.49946800  0.18761800  1
  Re  Re7  1  0.50023100  0.99990200  0.31245600  1
  Re  Re8  1  0.50007600  0.50003200  0.24998200  1
  Re  Re9  1  0.00010200  0.49947600  0.18761900  1
  Re  Re10  1  0.50021100  0.50022900  0.31245700  1
  Re  Re11  1  0.50000000  0.50002700  0.37499400  1
  Re  Re12  1  0.99990600  0.50022500  0.31245500  1
  Re  Re13  1  0.49844800  0.49843300  0.43798900  1
  Re  Re14  1  0.49845200  0.99920800  0.43798900  1
  Re  Re15  1  0.49977600  0.99946000  0.56262200  1
  Re  Re16  1  0.49938000  0.49936900  0.50023100  1
  Re  Re17  1  0.99919100  0.49845200  0.43799000  1
  Re  Re18  1  0.49978500  0.49977800  0.56262200  1
  Re  Re19  1  0.50005800  0.50005700  0.62498100  1
  Re  Re20  1  0.99945600  0.49977800  0.56262200  1
  Re  Re21  1  0.50009700  0.50010700  0.68749400  1
  Re  Re22  1  0.49988700  0.99994500  0.81253200  1
  Re  Re23  1  0.49983600  0.49987200  0.75005200  1
  Re  Re24  1  0.50009800  0.99985700  0.68749100  1
  Re  Re25  1  0.99986000  0.50009500  0.68749300  1
  Re  Re26  1  0.49989300  0.49991300  0.81253000  1
  Re  Re27  1  0.50038200  0.50035300  0.87486100  1
  Re  Re28  1  0.50143600  0.00084800  0.93703600  1
  Re  Re29  1  0.99995800  0.49989700  0.81253100  1
  Re  Re30  1  0.50141000  0.50141900  0.93704100  1
  Re  Re31  1  0.00084300  0.50142700  0.93704000  1
  Pb  Pb0  1  0.00109700  0.00111500  0.00030500  1
  Pb  Pb1  1  0.00111200  0.49536300  0.00030300  1
  Pb  Pb2  1  0.49533500  0.00112300  0.00030500  1
  Pb  Pb3  1  0.00198500  0.00201500  0.12530900  1
  Pb  Pb4  1  0.00156600  0.00163400  0.06189900  1
  Pb  Pb5  1  0.49350500  0.00202400  0.12530700  1
  Pb  Pb6  1  0.00216900  0.00212400  0.25023100  1
  Pb  Pb7  1  0.49387500  0.00213900  0.25022900  1
  Pb  Pb8  1  0.00231500  0.00233600  0.18662500  1
  Pb  Pb9  1  0.00200000  0.49351500  0.12530800  1
  Pb  Pb10  1  0.00633600  0.00635500  0.43512400  1
  Pb  Pb11  1  0.49499500  0.99984500  0.37566200  1
  Pb  Pb12  1  0.99757600  0.99758000  0.50054600  1
  Pb  Pb13  1  0.00212100  0.00212900  0.31169900  1
  Pb  Pb14  1  0.00214800  0.49390300  0.25022800  1
  Pb  Pb15  1  0.99853900  0.99855800  0.56304700  1
  Pb  Pb16  1  0.99760000  0.50046000  0.50054800  1
  Pb  Pb17  1  0.99983600  0.99985400  0.37566600  1
  Pb  Pb18  1  0.50045000  0.99760300  0.50054900  1
  Pb  Pb19  1  0.99984300  0.49500100  0.37566300  1
  Pb  Pb20  1  0.49974900  0.00011500  0.62499700  1
  Pb  Pb21  1  0.00067400  0.00055800  0.81226900  1
  Pb  Pb22  1  0.00017200  0.00014800  0.62499600  1
  Pb  Pb23  1  0.50023800  0.99975500  0.75005200  1
  Pb  Pb24  1  0.00166200  0.00166800  0.87440400  1
  Pb  Pb25  1  0.00014200  0.49976500  0.62499400  1
  Pb  Pb26  1  0.99983000  0.99948500  0.75003300  1
  Pb  Pb27  1  0.50142800  0.00166200  0.87440100  1
  Pb  Pb28  1  0.99969000  0.50035100  0.75003300  1
  Pb  Pb29  1  0.99989200  0.99973400  0.68758400  1
  Pb  Pb30  1  0.00168400  0.50146200  0.87440100  1
  Pb  Pb31  1  0.00106800  0.00107200  0.93710000  1
  O  O0  1  0.18373000  0.56678700  0.02283700  1
  O  O1  1  0.18317200  0.18317600  0.07073800  1
  O  O2  1  0.56677200  0.18373200  0.02283800  1
  O  O3  1  0.18316700  0.56775100  0.07073900  1
  O  O4  1  0.56678500  0.56677600  0.02283800  1
  O  O5  1  0.56775000  0.18317300  0.07073800  1
  O  O6  1  0.43367600  0.43367500  0.10202200  1
  O  O7  1  0.43380000  0.81389300  0.05480200  1
  O  O8  1  0.18324400  0.18324200  0.19584400  1
  O  O9  1  0.18172800  0.56783900  0.14782400  1
  O  O10  1  0.81389300  0.43378200  0.05480300  1
  O  O11  1  0.43367800  0.81647700  0.10202100  1
  O  O12  1  0.18324300  0.56677500  0.19584200  1
  O  O13  1  0.56784800  0.18173000  0.14782200  1
  O  O14  1  0.81648100  0.43367000  0.10202300  1
  O  O15  1  0.81388800  0.81389700  0.05480300  1
  O  O16  1  0.56679200  0.18322300  0.19584500  1
  O  O17  1  0.56784900  0.56783400  0.14782300  1
  O  O18  1  0.43566900  0.43568500  0.22680800  1
  O  O19  1  0.18257700  0.18256900  0.32085600  1
  O  O20  1  0.43471500  0.81588300  0.17919100  1
  O  O21  1  0.18339900  0.56657000  0.27293400  1
  O  O22  1  0.81587500  0.43473600  0.17919000  1
  O  O23  1  0.87552500  0.87552900  0.10917500  1
  O  O24  1  0.43567400  0.81417800  0.22680900  1
  O  O25  1  0.56653500  0.18341500  0.27293800  1
  O  O26  1  0.18255700  0.56802100  0.32085800  1
  O  O27  1  0.81416200  0.43570000  0.22680400  1
  O  O28  1  0.81587400  0.81587500  0.17918900  1
  O  O29  1  0.56799900  0.18256700  0.32085800  1
  O  O30  1  0.56652900  0.56656100  0.27293700  1
  O  O31  1  0.43466200  0.43465700  0.35185800  1
  O  O32  1  0.17990900  0.56997000  0.39751800  1
  O  O33  1  0.43454100  0.81552500  0.30430200  1
  O  O34  1  0.19032600  0.19032500  0.44459900  1
  O  O35  1  0.81554400  0.43451100  0.30430000  1
  O  O36  1  0.87506500  0.87508800  0.23434800  1
  O  O37  1  0.56999100  0.17991000  0.39751800  1
  O  O38  1  0.12979300  0.12979500  0.51382500  1
  O  O39  1  0.43468000  0.81581300  0.35185600  1
  O  O40  1  0.19032100  0.56255900  0.44460000  1
  O  O41  1  0.81583000  0.43464400  0.35185900  1
  O  O42  1  0.56256100  0.19032800  0.44459900  1
  O  O43  1  0.81553200  0.81553500  0.30430200  1
  O  O44  1  0.56997900  0.56999000  0.39751700  1
  O  O45  1  0.43959200  0.43958400  0.47628100  1
  O  O46  1  0.18472000  0.56268200  0.52373900  1
  O  O47  1  0.43643500  0.81712100  0.42866600  1
  O  O48  1  0.18507100  0.18507200  0.57086500  1
  O  O49  1  0.56268300  0.18472100  0.52373800  1
  O  O50  1  0.81711600  0.43642800  0.42866800  1
  O  O51  1  0.87482300  0.87482500  0.35944000  1
  O  O52  1  0.43959300  0.81057100  0.47627900  1
  O  O53  1  0.12517500  0.12515000  0.64056100  1
  O  O54  1  0.18506400  0.56293400  0.57086700  1
  O  O55  1  0.81056500  0.43959800  0.47627900  1
  O  O56  1  0.56268100  0.56268500  0.52374000  1
  O  O57  1  0.81711500  0.81711800  0.42866700  1
  O  O58  1  0.56294100  0.18505600  0.57086800  1
  O  O59  1  0.43664900  0.81318800  0.55462200  1
  O  O60  1  0.43685600  0.43684900  0.60171000  1
  O  O61  1  0.18764400  0.18764500  0.69520300  1
  O  O62  1  0.18630600  0.56335300  0.64837400  1
  O  O63  1  0.81318100  0.43666800  0.55462200  1
  O  O64  1  0.89276400  0.89277700  0.47771100  1
  O  O65  1  0.18764300  0.56309100  0.69520300  1
  O  O66  1  0.56335300  0.18628700  0.64837200  1
  O  O67  1  0.12483500  0.12481300  0.76569100  1
  O  O68  1  0.43686100  0.81261900  0.60171100  1
  O  O69  1  0.81318200  0.81318300  0.55462200  1
  O  O70  1  0.81260600  0.43686000  0.60170900  1
  O  O71  1  0.56308600  0.18764500  0.69520300  1
  O  O72  1  0.56335900  0.56336800  0.64837200  1
  O  O73  1  0.43673000  0.43672100  0.72661900  1
  O  O74  1  0.18634200  0.18634200  0.82050200  1
  O  O75  1  0.43701900  0.81242400  0.67976700  1
  O  O76  1  0.18730900  0.56300700  0.77333500  1
  O  O77  1  0.81241200  0.43704000  0.67976700  1
  O  O78  1  0.18634700  0.56331000  0.82049900  1
  O  O79  1  0.56298800  0.18731000  0.77333500  1
  O  O80  1  0.87590100  0.87590100  0.60903400  1
  O  O81  1  0.11996800  0.11996100  0.89251100  1
  O  O82  1  0.43671400  0.81359900  0.72661900  1
  O  O83  1  0.81242100  0.81242600  0.67976600  1
  O  O84  1  0.81359800  0.43673400  0.72661900  1
  O  O85  1  0.56329800  0.18634400  0.82050100  1
  O  O86  1  0.56300200  0.56300400  0.77333500  1
  O  O87  1  0.43670800  0.81475600  0.80422200  1
  O  O88  1  0.18115300  0.18116000  0.94670000  1
  O  O89  1  0.43722000  0.43723500  0.85135100  1
  O  O90  1  0.18993700  0.55916600  0.89896800  1
  O  O91  1  0.81473200  0.43674200  0.80422400  1
  O  O92  1  0.87494400  0.87493600  0.73439800  1
  O  O93  1  0.18115000  0.56409100  0.94670100  1
  O  O94  1  0.55913800  0.18996000  0.89897200  1
  O  O95  1  0.43721200  0.81474400  0.85135300  1
  O  O96  1  0.81473400  0.81473300  0.80422400  1
  O  O97  1  0.56406400  0.18116400  0.94670100  1
  O  O98  1  0.81474400  0.43722300  0.85135000  1
  O  O99  1  0.55914200  0.55915900  0.89897000  1
  O  O100  1  0.43444900  0.43442400  0.97685700  1
  O  O101  1  0.43775800  0.81151800  0.92990000  1
  O  O102  1  0.81153700  0.43773200  0.92989900  1
  O  O103  1  0.87373100  0.87372700  0.85985300  1
  O  O104  1  0.43445400  0.81625300  0.97685500  1
  O  O105  1  0.81626300  0.43443600  0.97685700  1
  O  O106  1  0.81152700  0.81152900  0.92989900  1
  O  O107  1  0.85708700  0.85710000  0.99109100  1
loop_
_geom_bond_atom_site_label_1
_geom_bond_atom_site_label_2
_geom_bond_distance
_geom_bond_site_symmetry_2
O0 Re5 2.001880 1_455
O0 Re0 2.003146 1_554
O0 Pb1 2.696711 1_555
O0 Pb0 2.696766 1_565
O1 Re5 2.002099 1_455
O1 Re4 2.002153 1_545
O1 Pb4 2.694792 1_555
O1 Pb3 2.706885 1_555
O2 Re4 2.001713 1_545
O2 Re0 2.003012 1_554
O2 Pb2 2.696669 1_555
O2 Pb0 2.696763 1_655
O3 Re5 2.002277 1_455
O3 Re1 2.002367 1_555
O3 Pb4 2.694919 1_565
O3 Pb9 2.706772 1_555
O4 Re1 2.001767 1_555
O4 Re0 2.003227 1_554
O4 Pb1 2.696809 1_655
O4 Pb2 2.696872 1_565
O5 Re4 2.002158 1_545
O5 Re1 2.002168 1_555
O5 Pb4 2.694518 1_655
O5 Pb5 2.706756 1_555
O6 Re1 1.998448 1_555
O6 Re2 2.002331 1_555
O6 Pb5 2.693820 1_555
O6 Pb9 2.693990 1_555
O7 Re1 1.988601 1_555
O7 Re4 1.988616 1_555
O7 Pb4 2.701879 1_565
O7 Pb2 2.718337 1_565
O8 Re9 1.997492 1_555
O8 Re3 1.997555 1_555
O8 Pb6 2.698947 1_555
O8 Pb8 2.702394 1_555
O9 Re2 2.004524 1_555
O9 Re9 2.005613 1_555
O9 Pb3 2.692558 1_565
O9 Pb9 2.692590 1_555
O10 Re1 1.988444 1_555
O10 Re5 1.988562 1_555
O10 Pb4 2.701319 1_655
O10 Pb1 2.718437 1_655
O11 Re4 1.998432 1_555
O11 Re2 2.002451 1_555
O11 Pb5 2.693913 1_565
O11 Pb3 2.694086 1_565
O12 Re9 1.997446 1_555
O12 Re6 1.997479 1_555
O12 Pb14 2.698938 1_555
O12 Pb8 2.702234 1_565
O13 Re2 2.004480 1_555
O13 Re3 2.005573 1_555
O13 Pb3 2.692325 1_655
O13 Pb5 2.692497 1_555
O14 Re5 1.998397 1_555
O14 Re2 2.002475 1_555
O14 Pb9 2.693776 1_655
O14 Pb3 2.693805 1_655
O15 Re4 1.988621 1_555
O15 Re5 1.988685 1_555
O15 Pb4 2.701554 1_665
O15 Pb0 2.718358 1_665
O16 Re6 1.997499 1_555
O16 Re3 1.997620 1_555
O16 Pb7 2.698780 1_555
O16 Pb8 2.701983 1_655
O17 Re2 2.004595 1_555
O17 Re6 2.005605 1_555
O17 Pb9 2.692412 1_655
O17 Pb5 2.692610 1_565
O18 Re6 1.986801 1_555
O18 Re8 1.989804 1_555
O18 Pb14 2.707991 1_555
O18 Pb7 2.708144 1_555
O19 Re7 2.004360 1_545
O19 Re12 2.004365 1_455
O19 Pb13 2.693773 1_555
O19 Pb17 2.720441 1_445
O20 Re3 2.000098 1_565
O20 Re6 2.000279 1_555
O20 Pb5 2.690451 1_565
O20 Pb8 2.699336 1_565
O21 Re12 1.996834 1_455
O21 Re8 2.000381 1_555
O21 Pb6 2.703159 1_565
O21 Pb14 2.703291 1_555
O22 Re9 2.000187 1_655
O22 Re6 2.000223 1_555
O22 Pb9 2.690369 1_655
O22 Pb8 2.699307 1_655
O23 Pb4 2.310586 1_665
O23 Pb9 2.334871 1_655
O23 Pb3 2.334910 1_665
O23 Pb5 2.334927 1_565
O24 Re3 1.986902 1_565
O24 Re8 1.989774 1_555
O24 Pb6 2.707937 1_565
O24 Pb7 2.708016 1_565
O25 Re7 1.996731 1_545
O25 Re8 2.000094 1_555
O25 Pb7 2.703566 1_555
O25 Pb6 2.703707 1_655
O26 Re10 2.004339 1_555
O26 Re12 2.004423 1_455
O26 Pb13 2.693462 1_565
O26 Pb19 2.720197 1_455
O27 Re9 1.986603 1_655
O27 Re8 1.989541 1_555
O27 Pb14 2.708395 1_655
O27 Pb6 2.708412 1_655
O28 Re3 2.000118 1_565
O28 Re9 2.000180 1_655
O28 Pb3 2.690245 1_665
O28 Pb8 2.699243 1_665
O29 Re7 2.004323 1_545
O29 Re10 2.004386 1_555
O29 Pb13 2.693570 1_655
O29 Pb11 2.720159 1_545
O30 Re10 1.996820 1_555
O30 Re8 2.000124 1_555
O30 Pb7 2.703362 1_565
O30 Pb14 2.703643 1_655
O31 Re10 1.992677 1_555
O31 Re11 1.998098 1_555
O31 Pb11 2.713557 1_545
O31 Pb19 2.713612 1_455
O32 Re11 2.013388 1_555
O32 Re17 2.033563 1_455
O32 Pb19 2.664468 1_455
O32 Pb17 2.664480 1_455
O33 Re10 1.994512 1_555
O33 Re7 1.994522 1_555
O33 Pb7 2.699441 1_565
O33 Pb13 2.699855 1_565
O34 Re14 1.969073 1_545
O34 Re17 1.969102 1_455
O34 Pb12 2.792084 1_445
O35 Re12 1.994591 1_555
O35 Re10 1.994680 1_555
O35 Pb14 2.699319 1_655
O35 Pb13 2.699572 1_655
O36 Pb14 2.329781 1_655
O36 Pb7 2.329831 1_565
O36 Pb6 2.329912 1_665
O36 Pb8 2.332433 1_665
O37 Re11 2.013511 1_555
O37 Re14 2.033489 1_545
O37 Pb17 2.664276 1_545
O37 Pb11 2.664654 1_545
O38 Pb18 2.268274 1_545
O38 Pb16 2.268303 1_455
O38 Pb12 2.268305 1_445
O38 Pb15 2.405696 1_445
O39 Re7 1.992630 1_555
O39 Re11 1.998055 1_555
O39 Pb11 2.713492 1_555
O39 Pb17 2.713803 1_455
O40 Re17 1.969046 1_455
O40 Re13 1.969070 1_555
O40 Pb16 2.792120 1_455
O41 Re12 1.992786 1_555
O41 Re11 1.998268 1_555
O41 Pb17 2.713428 1_545
O41 Pb19 2.713485 1_555
O42 Re13 1.968939 1_555
O42 Re14 1.968982 1_545
O42 Pb18 2.792201 1_545
O43 Re7 1.994522 1_555
O43 Re12 1.994570 1_555
O43 Pb6 2.699326 1_665
O43 Pb13 2.699456 1_665
O44 Re11 2.013564 1_555
O44 Re13 2.033518 1_555
O44 Pb11 2.664302 1_555
O44 Pb19 2.664378 1_555
O45 Re13 1.953750 1_555
O45 Re16 1.985140 1_555
O45 Pb18 2.758936 1_545
O45 Pb16 2.759007 1_455
O46 Re20 1.972603 1_455
O46 Re16 1.997145 1_555
O46 Pb16 2.711416 1_455
O46 Pb12 2.711593 1_455
O47 Re13 2.009538 1_555
O47 Re14 2.009541 1_555
O47 Pb11 2.645548 1_555
O47 Pb10 2.695272 1_565
O48 Re20 1.993463 1_455
O48 Re15 1.993464 1_545
O48 Pb22 2.697387 1_555
O48 Pb15 2.715820 1_445
O49 Re15 1.972633 1_545
O49 Re16 1.997049 1_555
O49 Pb18 2.711355 1_545
O49 Pb12 2.711575 1_545
O50 Re13 2.009451 1_555
O50 Re17 2.009454 1_555
O50 Pb19 2.645588 1_555
O50 Pb10 2.695110 1_655
O51 Pb19 2.321547 1_555
O51 Pb11 2.321590 1_555
O51 Pb17 2.321722 1_555
O51 Pb13 2.333313 1_665
O52 Re14 1.953669 1_555
O52 Re16 1.985305 1_555
O52 Pb12 2.759174 1_455
O52 Pb18 2.759393 1_555
O53 Pb22 2.289091 1_555
O53 Pb20 2.289395 1_555
O53 Pb25 2.289627 1_555
O53 Pb29 2.298221 1_445
O54 Re18 1.993538 1_555
O54 Re20 1.993556 1_455
O54 Pb25 2.697260 1_555
O54 Pb15 2.716008 1_455
O55 Re17 1.953614 1_555
O55 Re16 1.985234 1_555
O55 Pb12 2.759159 1_545
O55 Pb16 2.759388 1_555
O56 Re18 1.972542 1_555
O56 Re16 1.997311 1_555
O56 Pb18 2.711691 1_555
O56 Pb16 2.711729 1_555
O57 Re17 2.009399 1_555
O57 Re14 2.009418 1_555
O57 Pb17 2.645404 1_555
O57 Pb10 2.695372 1_665
O58 Re18 1.993516 1_555
O58 Re15 1.993559 1_545
O58 Pb20 2.697328 1_555
O58 Pb15 2.715849 1_545
O59 Re15 1.987617 1_555
O59 Re18 1.987670 1_555
O59 Pb18 2.693688 1_555
O59 Pb15 2.725937 1_455
O60 Re19 1.982795 1_555
O60 Re18 1.984059 1_555
O60 Pb25 2.722363 1_555
O60 Pb20 2.722497 1_555
O61 Re25 1.985233 1_455
O61 Re24 1.985271 1_545
O61 Pb29 2.724460 1_445
O61 Pb26 2.733972 1_445
O62 Re25 1.984675 1_455
O62 Re19 1.990724 1_555
O62 Pb22 2.721942 1_565
O62 Pb25 2.722003 1_555
O63 Re20 1.987551 1_555
O63 Re18 1.987631 1_555
O63 Pb16 2.693756 1_555
O63 Pb15 2.725918 1_545
O64 Pb10 2.081414 1_665
O64 Pb12 2.421085 1_555
O64 Pb16 2.421208 1_555
O64 Pb18 2.421219 1_555
O65 Re25 1.985287 1_455
O65 Re21 1.985290 1_555
O65 Pb29 2.724629 1_455
O65 Pb28 2.733884 1_455
O66 Re24 1.984641 1_545
O66 Re19 1.990774 1_555
O66 Pb20 2.721878 1_555
O66 Pb22 2.722074 1_655
O67 Pb21 2.276472 1_555
O67 Pb23 2.294461 1_545
O67 Pb28 2.295267 1_455
O67 Pb26 2.295642 1_445
O68 Re19 1.982680 1_555
O68 Re15 1.984085 1_555
O68 Pb20 2.722125 1_565
O68 Pb22 2.722250 1_565
O69 Re20 1.987647 1_555
O69 Re15 1.987669 1_555
O69 Pb12 2.693820 1_555
O69 Pb15 2.726070 1_555
O70 Re19 1.982651 1_555
O70 Re20 1.984023 1_555
O70 Pb22 2.722414 1_655
O70 Pb25 2.722420 1_655
O71 Re21 1.985323 1_555
O71 Re24 1.985361 1_545
O71 Pb29 2.725694 1_545
O71 Pb23 2.734715 1_545
O72 Re21 1.984816 1_555
O72 Re19 1.990631 1_555
O72 Pb20 2.721665 1_565
O72 Pb25 2.721928 1_655
O73 Re21 1.984585 1_555
O73 Re23 1.991116 1_555
O73 Pb23 2.723202 1_545
O73 Pb28 2.723545 1_455
O74 Re22 1.988613 1_545
O74 Re29 1.988632 1_455
O74 Pb24 2.687370 1_555
O74 Pb21 2.722719 1_555
O75 Re24 1.983844 1_555
O75 Re21 1.983886 1_555
O75 Pb29 2.725704 1_455
O75 Pb20 2.730811 1_565
O76 Re23 1.982692 1_555
O76 Re29 1.989521 1_455
O76 Pb26 2.721252 1_455
O76 Pb28 2.722545 1_455
O77 Re21 1.983906 1_555
O77 Re25 1.983911 1_555
O77 Pb29 2.726835 1_545
O77 Pb25 2.730978 1_655
O78 Re29 1.988602 1_455
O78 Re26 1.988618 1_555
O78 Pb30 2.687395 1_555
O78 Pb21 2.722302 1_565
O79 Re23 1.982860 1_555
O79 Re22 1.989580 1_545
O79 Pb23 2.721640 1_545
O79 Pb26 2.723590 1_545
O80 Pb15 2.247587 1_555
O80 Pb25 2.298965 1_655
O80 Pb20 2.299083 1_565
O80 Pb22 2.299456 1_665
O81 Pb31 2.179261 1_555
O81 Pb24 2.334232 1_555
O81 Pb27 2.334274 1_555
O81 Pb30 2.334500 1_555
O82 Re24 1.984724 1_555
O82 Re23 1.991131 1_555
O82 Pb26 2.722476 1_455
O82 Pb23 2.724342 1_555
O83 Re24 1.983947 1_555
O83 Re25 1.983992 1_555
O83 Pb29 2.726944 1_555
O83 Pb22 2.730865 1_665
O84 Re25 1.984653 1_555
O84 Re23 1.991335 1_555
O84 Pb28 2.723437 1_555
O84 Pb26 2.724770 1_545
O85 Re22 1.988700 1_545
O85 Re26 1.988724 1_555
O85 Pb27 2.687259 1_555
O85 Pb21 2.723121 1_655
O86 Re23 1.982876 1_555
O86 Re26 1.989495 1_555
O86 Pb28 2.722531 1_555
O86 Pb23 2.722772 1_555
O87 Re26 1.993486 1_555
O87 Re22 1.993513 1_555
O87 Pb23 2.699005 1_555
O87 Pb21 2.716356 1_565
O88 Re31 2.015494 1_555
O88 Re28 2.015602 1_555
O88 Pb0 2.663715 1_556
O88 Pb31 2.707923 1_555
O89 Re26 1.969891 1_555
O89 Re27 1.995581 1_555
O89 Pb30 2.713162 1_555
O89 Pb27 2.713400 1_555
O90 Re31 1.945427 1_555
O90 Re27 1.983690 1_555
O90 Pb30 2.766516 1_555
O90 Pb24 2.766538 1_565
O91 Re29 1.993521 1_555
O91 Re26 1.993523 1_555
O91 Pb28 2.699988 1_555
O91 Pb21 2.717320 1_655
O92 Pb29 2.288006 1_555
O92 Pb26 2.289029 1_555
O92 Pb28 2.289442 1_555
O92 Pb23 2.290201 1_555
O93 Re31 2.015458 1_555
O93 Re30 2.015466 1_555
O93 Pb1 2.663581 1_556
O93 Pb31 2.707954 1_565
O94 Re28 1.945120 1_555
O94 Re27 1.983461 1_555
O94 Pb24 2.766739 1_655
O94 Pb27 2.767039 1_555
O95 Re22 1.969855 1_555
O95 Re27 1.995701 1_555
O95 Pb27 2.713056 1_565
O95 Pb24 2.713265 1_565
O96 Re29 1.993503 1_555
O96 Re22 1.993553 1_555
O96 Pb26 2.699892 1_555
O96 Pb21 2.716952 1_665
O97 Re30 2.015445 1_555
O97 Re28 2.015503 1_555
O97 Pb2 2.663677 1_556
O97 Pb31 2.708120 1_655
O98 Re29 1.969800 1_555
O98 Re27 1.995607 1_555
O98 Pb24 2.713291 1_655
O98 Pb30 2.713472 1_655
O99 Re30 1.945390 1_555
O99 Re27 1.983682 1_555
O99 Pb27 2.766545 1_565
O99 Pb30 2.766841 1_655
O100 Re0 1.994157 1_555
O100 Re30 2.011263 1_555
O100 Pb2 2.703053 1_556
O100 Pb1 2.703239 1_556
O101 Re30 1.975746 1_555
O101 Re28 1.975762 1_565
O101 Pb31 2.729409 1_565
O101 Pb27 2.767024 1_565
O102 Re30 1.975882 1_555
O102 Re31 1.975894 1_655
O102 Pb31 2.729188 1_655
O102 Pb30 2.766902 1_655
O103 Pb30 2.275826 1_655
O103 Pb24 2.275928 1_665
O103 Pb27 2.276078 1_565
O103 Pb21 2.325639 1_665
O104 Re0 1.994285 1_555
O104 Re28 2.011421 1_565
O104 Pb2 2.703400 1_566
O104 Pb0 2.703426 1_566
O105 Re0 1.994213 1_555
O105 Re31 2.011318 1_655
O105 Pb0 2.703163 1_656
O105 Pb1 2.703297 1_656
O106 Re28 1.975721 1_565
O106 Re31 1.975760 1_655
O106 Pb31 2.729403 1_665
O106 Pb24 2.766797 1_665
O107 Pb0 2.231784 1_666
O107 Pb1 2.231787 1_656
O107 Pb2 2.231884 1_566
O107 Pb31 2.638778 1_665
