# generated using pymatgen
data_K3(Na13In24)2
_symmetry_space_group_name_H-M   'P 1'
_cell_length_a   16.41824200
_cell_length_b   16.41824200
_cell_length_c   16.41824200
_cell_angle_alpha   90.00000000
_cell_angle_beta   90.00000000
_cell_angle_gamma   90.00000000
_symmetry_Int_Tables_number   1
_chemical_formula_structural   K3(Na13In24)2
_chemical_formula_sum   'K6 Na52 In96'
_cell_volume   4425.67948334
_cell_formula_units_Z   2
loop_
 _symmetry_equiv_pos_site_id
 _symmetry_equiv_pos_as_xyz
  1  'x, y, z'
loop_
 _atom_site_type_symbol
 _atom_site_label
 _atom_site_symmetry_multiplicity
 _atom_site_fract_x
 _atom_site_fract_y
 _atom_site_fract_z
 _atom_site_occupancy
  K  K0  1  0.50000000  0.50000000  0.00000000  1
  K  K1  1  0.50000000  0.00000000  0.50000000  1
  K  K2  1  0.00000000  0.50000000  0.50000000  1
  K  K3  1  0.50000000  0.00000000  0.00000000  1
  K  K4  1  0.00000000  0.00000000  0.50000000  1
  K  K5  1  0.00000000  0.50000000  0.00000000  1
  Na  Na0  1  0.68908400  0.31091600  0.31091600  1
  Na  Na1  1  0.63609700  0.50000000  0.20406800  1
  Na  Na2  1  0.63609700  0.50000000  0.79593200  1
  Na  Na3  1  0.81091600  0.18908400  0.18908400  1
  Na  Na4  1  0.79593200  0.36390300  0.50000000  1
  Na  Na5  1  0.86390300  0.29593200  0.00000000  1
  Na  Na6  1  0.20406800  0.36390300  0.50000000  1
  Na  Na7  1  0.68908400  0.31091600  0.68908400  1
  Na  Na8  1  0.79593200  0.63609700  0.50000000  1
  Na  Na9  1  0.86390300  0.70406800  0.00000000  1
  Na  Na10  1  0.18908400  0.81091600  0.81091600  1
  Na  Na11  1  0.81091600  0.81091600  0.18908400  1
  Na  Na12  1  0.36390300  0.50000000  0.79593200  1
  Na  Na13  1  0.18908400  0.18908400  0.81091600  1
  Na  Na14  1  0.20406800  0.63609700  0.50000000  1
  Na  Na15  1  0.81091600  0.18908400  0.81091600  1
  Na  Na16  1  0.00000000  0.75000000  0.50000000  1
  Na  Na17  1  0.50000000  0.20406800  0.63609700  1
  Na  Na18  1  0.31091600  0.68908400  0.68908400  1
  Na  Na19  1  0.50000000  0.79593200  0.63609700  1
  Na  Na20  1  0.25000000  0.00000000  0.50000000  1
  Na  Na21  1  0.50000000  0.20406800  0.36390300  1
  Na  Na22  1  0.68908400  0.68908400  0.31091600  1
  Na  Na23  1  0.00000000  0.50000000  0.75000000  1
  Na  Na24  1  0.70406800  0.00000000  0.86390300  1
  Na  Na25  1  0.00000000  0.13609700  0.70406800  1
  Na  Na26  1  0.50000000  0.75000000  0.00000000  1
  Na  Na27  1  0.29593200  0.00000000  0.86390300  1
  Na  Na28  1  0.00000000  0.50000000  0.25000000  1
  Na  Na29  1  0.31091600  0.31091600  0.68908400  1
  Na  Na30  1  0.25000000  0.50000000  0.00000000  1
  Na  Na31  1  0.13609700  0.29593200  0.00000000  1
  Na  Na32  1  0.29593200  0.00000000  0.13609700  1
  Na  Na33  1  0.81091600  0.81091600  0.81091600  1
  Na  Na34  1  0.18908400  0.18908400  0.18908400  1
  Na  Na35  1  0.31091600  0.31091600  0.31091600  1
  Na  Na36  1  0.00000000  0.13609700  0.29593200  1
  Na  Na37  1  0.13609700  0.70406800  0.00000000  1
  Na  Na38  1  0.00000000  0.25000000  0.50000000  1
  Na  Na39  1  0.75000000  0.00000000  0.50000000  1
  Na  Na40  1  0.50000000  0.25000000  0.00000000  1
  Na  Na41  1  0.36390300  0.50000000  0.20406800  1
  Na  Na42  1  0.50000000  0.00000000  0.75000000  1
  Na  Na43  1  0.50000000  0.00000000  0.25000000  1
  Na  Na44  1  0.70406800  0.00000000  0.13609700  1
  Na  Na45  1  0.68908400  0.68908400  0.68908400  1
  Na  Na46  1  0.50000000  0.79593200  0.36390300  1
  Na  Na47  1  0.31091600  0.68908400  0.31091600  1
  Na  Na48  1  0.18908400  0.81091600  0.18908400  1
  Na  Na49  1  0.00000000  0.86390300  0.29593200  1
  Na  Na50  1  0.75000000  0.50000000  0.00000000  1
  Na  Na51  1  0.00000000  0.86390300  0.70406800  1
  In  In0  1  0.16675600  0.82989000  0.59506800  1
  In  In1  1  0.09293600  0.00000000  0.15368200  1
  In  In2  1  0.50000000  0.59293600  0.65368200  1
  In  In3  1  0.09293600  0.00000000  0.84631800  1
  In  In4  1  0.33324400  0.09506800  0.32989000  1
  In  In5  1  0.00000000  0.15368200  0.90706400  1
  In  In6  1  0.40706400  0.34631800  0.50000000  1
  In  In7  1  0.67011000  0.66675600  0.90493200  1
  In  In8  1  0.17011000  0.59506800  0.16675600  1
  In  In9  1  0.40706400  0.65368200  0.50000000  1
  In  In10  1  0.82989000  0.59506800  0.83324400  1
  In  In11  1  0.66675600  0.90493200  0.67011000  1
  In  In12  1  0.66260300  0.18098400  0.50000000  1
  In  In13  1  0.15368200  0.90706400  0.00000000  1
  In  In14  1  0.34631800  0.50000000  0.40706400  1
  In  In15  1  0.33739700  0.18098400  0.50000000  1
  In  In16  1  0.59506800  0.16675600  0.82989000  1
  In  In17  1  0.40493200  0.16675600  0.17011000  1
  In  In18  1  0.33324400  0.90493200  0.67011000  1
  In  In19  1  0.40493200  0.16675600  0.82989000  1
  In  In20  1  0.32989000  0.66675600  0.90493200  1
  In  In21  1  0.83739700  0.00000000  0.68098400  1
  In  In22  1  0.17011000  0.40493200  0.83324400  1
  In  In23  1  0.59506800  0.83324400  0.82989000  1
  In  In24  1  0.65368200  0.50000000  0.59293600  1
  In  In25  1  0.32989000  0.33324400  0.09506800  1
  In  In26  1  0.50000000  0.40706400  0.34631800  1
  In  In27  1  0.16260300  0.00000000  0.31901600  1
  In  In28  1  0.67011000  0.33324400  0.09506800  1
  In  In29  1  0.67011000  0.66675600  0.09506800  1
  In  In30  1  0.18098400  0.50000000  0.33739700  1
  In  In31  1  0.50000000  0.59293600  0.34631800  1
  In  In32  1  0.68098400  0.16260300  0.00000000  1
  In  In33  1  0.90706400  0.00000000  0.15368200  1
  In  In34  1  0.68098400  0.83739700  0.00000000  1
  In  In35  1  0.66675600  0.90493200  0.32989000  1
  In  In36  1  0.65368200  0.50000000  0.40706400  1
  In  In37  1  0.50000000  0.66260300  0.81901600  1
  In  In38  1  0.59293600  0.34631800  0.50000000  1
  In  In39  1  0.15368200  0.09293600  0.00000000  1
  In  In40  1  0.09506800  0.67011000  0.66675600  1
  In  In41  1  0.09506800  0.67011000  0.33324400  1
  In  In42  1  0.83324400  0.17011000  0.40493200  1
  In  In43  1  0.16675600  0.82989000  0.40493200  1
  In  In44  1  0.50000000  0.33739700  0.18098400  1
  In  In45  1  0.40493200  0.83324400  0.82989000  1
  In  In46  1  0.31901600  0.83739700  0.00000000  1
  In  In47  1  0.90493200  0.67011000  0.66675600  1
  In  In48  1  0.90493200  0.32989000  0.33324400  1
  In  In49  1  0.82989000  0.59506800  0.16675600  1
  In  In50  1  0.81901600  0.50000000  0.66260300  1
  In  In51  1  0.90493200  0.67011000  0.33324400  1
  In  In52  1  0.83324400  0.82989000  0.59506800  1
  In  In53  1  0.00000000  0.84631800  0.09293600  1
  In  In54  1  0.90493200  0.32989000  0.66675600  1
  In  In55  1  0.00000000  0.15368200  0.09293600  1
  In  In56  1  0.50000000  0.66260300  0.18098400  1
  In  In57  1  0.82989000  0.40493200  0.83324400  1
  In  In58  1  0.50000000  0.33739700  0.81901600  1
  In  In59  1  0.00000000  0.68098400  0.16260300  1
  In  In60  1  0.16260300  0.00000000  0.68098400  1
  In  In61  1  0.84631800  0.09293600  0.00000000  1
  In  In62  1  0.16675600  0.17011000  0.59506800  1
  In  In63  1  0.32989000  0.66675600  0.09506800  1
  In  In64  1  0.83324400  0.17011000  0.59506800  1
  In  In65  1  0.17011000  0.40493200  0.16675600  1
  In  In66  1  0.66675600  0.09506800  0.32989000  1
  In  In67  1  0.82989000  0.40493200  0.16675600  1
  In  In68  1  0.32989000  0.33324400  0.90493200  1
  In  In69  1  0.66260300  0.81901600  0.50000000  1
  In  In70  1  0.16675600  0.17011000  0.40493200  1
  In  In71  1  0.66675600  0.09506800  0.67011000  1
  In  In72  1  0.90706400  0.00000000  0.84631800  1
  In  In73  1  0.33324400  0.90493200  0.32989000  1
  In  In74  1  0.18098400  0.50000000  0.66260300  1
  In  In75  1  0.59506800  0.16675600  0.17011000  1
  In  In76  1  0.83739700  0.00000000  0.31901600  1
  In  In77  1  0.00000000  0.84631800  0.90706400  1
  In  In78  1  0.34631800  0.50000000  0.59293600  1
  In  In79  1  0.33739700  0.81901600  0.50000000  1
  In  In80  1  0.00000000  0.31901600  0.83739700  1
  In  In81  1  0.00000000  0.31901600  0.16260300  1
  In  In82  1  0.17011000  0.59506800  0.83324400  1
  In  In83  1  0.59506800  0.83324400  0.17011000  1
  In  In84  1  0.00000000  0.68098400  0.83739700  1
  In  In85  1  0.67011000  0.33324400  0.90493200  1
  In  In86  1  0.09506800  0.32989000  0.66675600  1
  In  In87  1  0.31901600  0.16260300  0.00000000  1
  In  In88  1  0.84631800  0.90706400  0.00000000  1
  In  In89  1  0.59293600  0.65368200  0.50000000  1
  In  In90  1  0.33324400  0.09506800  0.67011000  1
  In  In91  1  0.50000000  0.40706400  0.65368200  1
  In  In92  1  0.83324400  0.82989000  0.40493200  1
  In  In93  1  0.40493200  0.83324400  0.17011000  1
  In  In94  1  0.81901600  0.50000000  0.33739700  1
  In  In95  1  0.09506800  0.32989000  0.33324400  1
loop_
_geom_bond_atom_site_label_1
_geom_bond_atom_site_label_2
_geom_bond_distance
_geom_bond_site_symmetry_2
K0 Na1 4.027196 1_555
K0 Na41 4.027196 1_555
K0 Na12 4.027196 1_554
K0 Na2 4.027196 1_554
K0 Na50 4.104560 1_555
K0 Na30 4.104560 1_555
K0 Na26 4.104560 1_555
K0 Na40 4.104560 1_555
K1 Na17 4.027196 1_555
K1 Na21 4.027196 1_555
K1 Na19 4.027196 1_545
K1 Na46 4.027196 1_545
K1 Na42 4.104560 1_555
K1 Na20 4.104560 1_555
K1 Na43 4.104560 1_555
K1 Na39 4.104560 1_555
K2 Na6 4.027196 1_555
K2 Na14 4.027196 1_555
K2 Na8 4.027196 1_455
K2 Na4 4.027196 1_455
K2 Na23 4.104560 1_555
K2 Na38 4.104560 1_555
K2 Na16 4.104560 1_555
K2 Na28 4.104560 1_555
K3 Na32 4.027196 1_555
K3 Na44 4.027196 1_555
K3 Na27 4.027196 1_554
K3 Na24 4.027196 1_554
K3 Na42 4.104560 1_554
K3 Na26 4.104560 1_545
K3 Na43 4.104560 1_555
K3 Na40 4.104560 1_555
K4 Na25 4.027196 1_555
K4 Na36 4.027196 1_555
K4 Na51 4.027196 1_545
K4 Na49 4.027196 1_545
K4 Na16 4.104560 1_545
K4 Na20 4.104560 1_555
K4 Na38 4.104560 1_555
K4 Na39 4.104560 1_455
K5 Na5 4.027196 1_455
K5 Na37 4.027196 1_555
K5 Na9 4.027196 1_455
K5 Na31 4.027196 1_555
K5 Na50 4.104560 1_455
K5 Na30 4.104560 1_555
K5 Na28 4.104560 1_555
K5 Na23 4.104560 1_554
Na0 Na3 3.464565 1_555
Na0 Na4 3.670381 1_555
Na0 Na1 3.670381 1_555
Na0 Na21 3.670381 1_555
Na1 Na22 3.670381 1_555
Na1 Na50 3.837012 1_555
Na2 Na7 3.670381 1_555
Na2 Na45 3.670381 1_555
Na2 Na50 3.837012 1_556
Na3 Na44 3.670381 1_555
Na3 Na5 3.670381 1_555
Na3 Na36 3.670381 1_655
Na4 Na7 3.670381 1_555
Na5 Na50 3.837012 1_555
Na10 Na18 3.464565 1_555
Na10 Na51 3.670381 1_555
Na10 Na27 3.670381 1_565
Na10 Na37 3.670381 1_556
Na11 Na22 3.464565 1_555
Na11 Na44 3.670381 1_565
Na11 Na9 3.670381 1_555
Na11 Na49 3.670381 1_655
Na12 Na29 3.670381 1_555
Na12 Na18 3.670381 1_555
Na12 Na30 3.837012 1_556
Na13 Na29 3.464565 1_555
Na13 Na25 3.670381 1_555
Na13 Na27 3.670381 1_555
Na13 Na31 3.670381 1_556
Na14 Na47 3.670381 1_555
Na14 Na18 3.670381 1_555
Na14 Na16 3.837012 1_555
Na15 Na7 3.464565 1_555
Na15 Na24 3.670381 1_555
Na15 Na25 3.670381 1_655
Na15 Na5 3.670381 1_556
Na16 Na8 3.837012 1_455
Na16 Na51 3.837012 1_555
Na16 Na49 3.837012 1_555
Na17 Na29 3.670381 1_555
Na17 Na7 3.670381 1_555
Na17 Na42 3.837012 1_555
Na18 Na19 3.670381 1_555
Na19 Na45 3.670381 1_555
Na19 Na42 3.837012 1_565
Na21 Na35 3.670381 1_555
Na21 Na43 3.837012 1_555
Na22 Na8 3.670381 1_555
Na22 Na46 3.670381 1_555
Na24 Na33 3.670381 1_545
Na24 Na42 3.837012 1_555
Na25 Na38 3.837012 1_555
Na27 Na42 3.837012 1_555
Na29 Na6 3.670381 1_555
Na30 Na41 3.837012 1_555
Na30 Na37 3.837012 1_555
Na30 Na31 3.837012 1_555
Na31 Na34 3.670381 1_555
Na32 Na48 3.670381 1_545
Na32 Na34 3.670381 1_555
Na32 Na43 3.837012 1_555
Na33 Na45 3.464565 1_555
Na33 Na51 3.670381 1_655
Na33 Na9 3.670381 1_556
Na34 Na35 3.464565 1_555
Na34 Na36 3.670381 1_555
Na35 Na41 3.670381 1_555
Na35 Na6 3.670381 1_555
Na36 Na38 3.837012 1_555
Na37 Na48 3.670381 1_555
Na38 Na6 3.837012 1_555
Na38 Na4 3.837012 1_455
Na41 Na47 3.670381 1_555
Na43 Na46 3.837012 1_545
Na43 Na44 3.837012 1_555
Na45 Na8 3.670381 1_555
Na46 Na47 3.670381 1_555
Na47 Na48 3.464565 1_555
Na48 Na49 3.670381 1_555
Na50 Na9 3.837012 1_555
In0 In40 3.106824 1_555
In0 In43 3.121699 1_555
In0 In60 3.129655 1_565
In0 In79 3.212044 1_555
In0 In18 3.241547 1_555
In0 Na51 3.318169 1_555
In0 Na16 3.413569 1_555
In0 Na20 3.479153 1_565
In0 Na10 3.576348 1_555
In0 Na14 3.596526 1_555
In0 Na18 3.650889 1_555
In0 K4 4.210980 1_565
In1 In27 2.945637 1_555
In1 In33 3.051691 1_455
In1 In53 3.112776 1_545
In1 In13 3.112776 1_545
In1 In39 3.112776 1_555
In1 In55 3.112776 1_555
In1 Na32 3.345319 1_555
In1 Na34 3.530895 1_555
In1 Na48 3.530895 1_545
In1 Na36 3.574299 1_555
In1 Na49 3.574299 1_545
In2 In37 2.945637 1_555
In2 In91 3.051691 1_555
In2 In9 3.112776 1_555
In2 In89 3.112776 1_555
In2 In24 3.112776 1_555
In2 In78 3.112776 1_555
In2 Na19 3.345319 1_555
In2 Na18 3.530895 1_555
In2 Na45 3.530895 1_555
In2 Na2 3.574299 1_555
In2 Na12 3.574299 1_555
In3 In60 2.945637 1_555
In3 In72 3.051691 1_455
In3 In77 3.112776 1_545
In3 In39 3.112776 1_556
In3 In5 3.112776 1_555
In3 Na27 3.345319 1_555
In3 Na13 3.530895 1_555
In3 Na10 3.530895 1_545
In3 Na25 3.574299 1_555
In3 Na51 3.574299 1_545
In4 In73 3.121699 1_545
In4 In70 3.241547 1_555
In4 Na21 3.318169 1_555
In4 Na43 3.413569 1_555
In4 Na20 3.479153 1_555
In4 Na35 3.576348 1_555
In4 Na32 3.596526 1_555
In4 Na34 3.650889 1_555
In4 K1 4.210980 1_555
In5 In80 2.945637 1_555
In5 In55 3.051691 1_556
In5 In61 3.112776 1_456
In5 In72 3.112776 1_455
In5 Na25 3.345319 1_555
In5 Na13 3.530895 1_555
In5 Na15 3.530895 1_455
In5 Na31 3.574299 1_556
In5 Na5 3.574299 1_456
In6 In91 3.112776 1_555
In6 In78 3.112776 1_555
In6 Na6 3.345319 1_555
In6 Na35 3.530895 1_555
In6 Na29 3.530895 1_555
In6 Na17 3.574299 1_555
In6 Na21 3.574299 1_555
In7 Na2 3.318169 1_555
In7 Na50 3.413569 1_556
In7 Na26 3.479153 1_556
In7 Na45 3.576348 1_555
In7 Na9 3.596526 1_556
In7 Na33 3.650889 1_555
In7 K0 4.210980 1_556
In8 Na37 3.318169 1_555
In8 Na30 3.413569 1_555
In8 Na28 3.479153 1_555
In8 Na48 3.576348 1_555
In8 Na41 3.596526 1_555
In8 Na47 3.650889 1_555
In8 K5 4.210980 1_555
In9 Na14 3.345319 1_555
In9 Na47 3.530895 1_555
In9 Na18 3.530895 1_555
In9 Na46 3.574299 1_555
In9 Na19 3.574299 1_555
In10 In7 3.106824 1_555
In10 In57 3.121699 1_555
In10 In84 3.129655 1_655
In10 In50 3.212044 1_555
In10 In47 3.241547 1_555
In10 Na9 3.318169 1_556
In10 Na50 3.413569 1_556
In10 Na23 3.479153 1_655
In10 Na33 3.576348 1_555
In10 Na2 3.596526 1_555
In10 Na45 3.650889 1_555
In10 K5 4.210980 1_656
In11 In23 3.106824 1_555
In11 In71 3.121699 1_565
In11 In69 3.129655 1_555
In11 In21 3.212044 1_565
In11 In52 3.241547 1_555
In11 Na19 3.318169 1_555
In11 Na42 3.413569 1_565
In11 Na39 3.479153 1_565
In11 Na45 3.576348 1_555
In11 Na24 3.596526 1_565
In11 Na33 3.650889 1_555
In11 K1 4.210980 1_565
In12 In38 2.945637 1_555
In12 In71 3.129655 1_555
In12 In66 3.129655 1_555
In12 In42 3.212044 1_555
In12 In64 3.212044 1_555
In12 Na39 3.299758 1_555
In12 Na21 3.501938 1_555
In12 Na17 3.501938 1_555
In12 Na4 3.716329 1_555
In12 Na0 3.791737 1_555
In12 Na7 3.791737 1_555
In12 K1 3.994560 1_555
In13 In46 2.945637 1_555
In13 In39 3.051691 1_565
In13 In77 3.112776 1_554
In13 In53 3.112776 1_555
In13 In3 3.112776 1_564
In13 Na37 3.345319 1_555
In13 Na48 3.530895 1_555
In13 Na10 3.530895 1_554
In13 Na32 3.574299 1_565
In13 Na27 3.574299 1_564
In14 In30 2.945637 1_555
In14 In78 3.051691 1_555
In14 In31 3.112776 1_555
In14 In9 3.112776 1_555
In14 In6 3.112776 1_555
In14 In26 3.112776 1_555
In14 Na41 3.345319 1_555
In14 Na35 3.530895 1_555
In14 Na47 3.530895 1_555
In14 Na14 3.574299 1_555
In14 Na6 3.574299 1_555
In15 In6 2.945637 1_555
In15 In90 3.129655 1_555
In15 In4 3.129655 1_555
In15 In70 3.212044 1_555
In15 In62 3.212044 1_555
In15 Na20 3.299758 1_555
In15 Na17 3.501938 1_555
In15 Na21 3.501938 1_555
In15 Na6 3.716329 1_555
In15 Na35 3.791737 1_555
In15 Na29 3.791737 1_555
In15 K1 3.994560 1_555
In16 In71 3.106824 1_555
In16 In19 3.121699 1_555
In16 In32 3.129655 1_556
In16 In58 3.212044 1_555
In16 In85 3.241547 1_555
In16 Na24 3.318169 1_555
In16 Na42 3.413569 1_555
In16 Na40 3.479153 1_556
In16 Na15 3.576348 1_555
In16 Na17 3.596526 1_555
In16 Na7 3.650889 1_555
In16 K3 4.210980 1_556
In17 In4 3.106824 1_555
In17 In75 3.121699 1_555
In17 In87 3.129655 1_555
In17 In44 3.212044 1_555
In17 In25 3.241547 1_555
In17 Na32 3.318169 1_555
In17 Na43 3.413569 1_555
In17 Na40 3.479153 1_555
In17 Na34 3.576348 1_555
In17 Na21 3.596526 1_555
In17 Na35 3.650889 1_555
In17 K3 4.210980 1_555
In18 In45 3.106824 1_555
In18 In90 3.121699 1_565
In18 In79 3.129655 1_555
In18 In60 3.212044 1_565
In18 Na19 3.318169 1_555
In18 Na42 3.413569 1_565
In18 Na20 3.479153 1_565
In18 Na18 3.576348 1_555
In18 Na27 3.596526 1_565
In18 Na10 3.650889 1_555
In18 K1 4.210980 1_565
In19 In90 3.106824 1_555
In19 In87 3.129655 1_556
In19 In58 3.212044 1_555
In19 In68 3.241547 1_555
In19 Na27 3.318169 1_555
In19 Na42 3.413569 1_555
In19 Na40 3.479153 1_556
In19 Na13 3.576348 1_555
In19 Na17 3.596526 1_555
In19 Na29 3.650889 1_555
In19 K3 4.210980 1_556
In20 In82 3.106824 1_555
In20 In63 3.121699 1_556
In20 In37 3.129655 1_555
In20 In46 3.212044 1_556
In20 In45 3.241547 1_555
In20 Na12 3.318169 1_555
In20 Na30 3.413569 1_556
In20 Na26 3.479153 1_556
In20 Na18 3.576348 1_555
In20 Na37 3.596526 1_556
In20 Na10 3.650889 1_555
In20 K0 4.210980 1_556
In21 In72 2.945637 1_555
In21 In52 3.129655 1_545
In21 In64 3.129655 1_555
In21 In71 3.212044 1_555
In21 Na39 3.299758 1_555
In21 Na25 3.501938 1_655
In21 Na51 3.501938 1_645
In21 Na24 3.716329 1_555
In21 Na15 3.791737 1_555
In21 Na33 3.791737 1_545
In21 K4 3.994560 1_655
In22 In68 3.106824 1_555
In22 In82 3.121699 1_555
In22 In80 3.129655 1_555
In22 In74 3.212044 1_555
In22 In86 3.241547 1_555
In22 Na31 3.318169 1_556
In22 Na30 3.413569 1_556
In22 Na23 3.479153 1_555
In22 Na13 3.576348 1_555
In22 Na12 3.596526 1_555
In22 Na29 3.650889 1_555
In22 K5 4.210980 1_556
In23 In45 3.121699 1_555
In23 In34 3.129655 1_556
In23 In37 3.212044 1_555
In23 In7 3.241547 1_555
In23 Na24 3.318169 1_565
In23 Na42 3.413569 1_565
In23 Na26 3.479153 1_556
In23 Na33 3.576348 1_555
In23 Na19 3.596526 1_555
In23 Na45 3.650889 1_555
In23 K3 4.210980 1_566
In24 In50 2.945637 1_555
In24 In36 3.051691 1_555
In24 In89 3.112776 1_555
In24 In38 3.112776 1_555
In24 In91 3.112776 1_555
In24 Na2 3.345319 1_555
In24 Na7 3.530895 1_555
In24 Na45 3.530895 1_555
In24 Na4 3.574299 1_555
In24 Na8 3.574299 1_555
In25 In65 3.106824 1_555
In25 In68 3.121699 1_554
In25 In44 3.129655 1_555
In25 In87 3.212044 1_555
In25 Na41 3.318169 1_555
In25 Na30 3.413569 1_555
In25 Na40 3.479153 1_555
In25 Na35 3.576348 1_555
In25 Na31 3.596526 1_555
In25 Na34 3.650889 1_555
In25 K0 4.210980 1_555
In26 In44 2.945637 1_555
In26 In31 3.051691 1_555
In26 In36 3.112776 1_555
In26 In6 3.112776 1_555
In26 In38 3.112776 1_555
In26 Na21 3.345319 1_555
In26 Na35 3.530895 1_555
In26 Na0 3.530895 1_555
In26 Na1 3.574299 1_555
In26 Na41 3.574299 1_555
In27 In43 3.129655 1_545
In27 In70 3.129655 1_555
In27 In4 3.212044 1_555
In27 In73 3.212044 1_545
In27 Na20 3.299758 1_555
In27 Na36 3.501938 1_555
In27 Na49 3.501938 1_545
In27 Na32 3.716329 1_555
In27 Na34 3.791737 1_555
In27 Na48 3.791737 1_545
In27 K4 3.994560 1_555
In28 In67 3.106824 1_555
In28 In85 3.121699 1_554
In28 In44 3.129655 1_555
In28 In32 3.212044 1_555
In28 In75 3.241547 1_555
In28 Na1 3.318169 1_555
In28 Na50 3.413569 1_555
In28 Na40 3.479153 1_555
In28 Na0 3.576348 1_555
In28 Na5 3.596526 1_555
In28 Na3 3.650889 1_555
In28 K0 4.210980 1_555
In29 In49 3.106824 1_555
In29 In7 3.121699 1_554
In29 In56 3.129655 1_555
In29 In34 3.212044 1_555
In29 In83 3.241547 1_555
In29 Na1 3.318169 1_555
In29 Na50 3.413569 1_555
In29 Na26 3.479153 1_555
In29 Na22 3.576348 1_555
In29 Na9 3.596526 1_555
In29 Na11 3.650889 1_555
In29 K0 4.210980 1_555
In30 In95 3.129655 1_555
In30 In41 3.129655 1_555
In30 In65 3.212044 1_555
In30 In8 3.212044 1_555
In30 Na28 3.299758 1_555
In30 Na6 3.501938 1_555
In30 Na14 3.501938 1_555
In30 Na41 3.716329 1_555
In30 Na35 3.791737 1_555
In30 Na47 3.791737 1_555
In30 K2 3.994560 1_555
In31 In56 2.945637 1_555
In31 In9 3.112776 1_555
In31 In36 3.112776 1_555
In31 In89 3.112776 1_555
In31 Na46 3.345319 1_555
In31 Na47 3.530895 1_555
In31 Na22 3.530895 1_555
In31 Na1 3.574299 1_555
In31 Na41 3.574299 1_555
In32 In61 2.945637 1_555
In32 In75 3.129655 1_555
In32 In85 3.212044 1_554
In32 Na40 3.299758 1_555
In32 Na44 3.501938 1_555
In32 Na24 3.501938 1_554
In32 Na5 3.716329 1_555
In32 Na3 3.791737 1_555
In32 Na15 3.791737 1_554
In32 K3 3.994560 1_555
In33 In76 2.945637 1_555
In33 In61 3.112776 1_555
In33 In53 3.112776 1_645
In33 In88 3.112776 1_545
In33 In55 3.112776 1_655
In33 Na44 3.345319 1_555
In33 Na3 3.530895 1_555
In33 Na11 3.530895 1_545
In33 Na36 3.574299 1_655
In33 Na49 3.574299 1_645
In34 In88 2.945637 1_555
In34 In83 3.129655 1_555
In34 In7 3.212044 1_554
In34 Na26 3.299758 1_555
In34 Na44 3.501938 1_565
In34 Na24 3.501938 1_564
In34 Na9 3.716329 1_555
In34 Na11 3.791737 1_555
In34 Na33 3.791737 1_554
In34 K3 3.994560 1_565
In35 In83 3.106824 1_555
In35 In66 3.121699 1_565
In35 In69 3.129655 1_555
In35 In76 3.212044 1_565
In35 In92 3.241547 1_555
In35 Na46 3.318169 1_555
In35 Na43 3.413569 1_565
In35 Na39 3.479153 1_565
In35 Na22 3.576348 1_555
In35 Na44 3.596526 1_565
In35 Na11 3.650889 1_555
In35 K1 4.210980 1_565
In36 In94 2.945637 1_555
In36 In89 3.112776 1_555
In36 In38 3.112776 1_555
In36 Na1 3.345319 1_555
In36 Na0 3.530895 1_555
In36 Na22 3.530895 1_555
In36 Na8 3.574299 1_555
In36 Na4 3.574299 1_555
In37 In7 3.129655 1_555
In37 In45 3.212044 1_555
In37 Na26 3.299758 1_556
In37 Na12 3.501938 1_555
In37 Na2 3.501938 1_555
In37 Na19 3.716329 1_555
In37 Na18 3.791737 1_555
In37 Na45 3.791737 1_555
In37 K0 3.994560 1_556
In38 In6 3.051691 1_555
In38 In91 3.112776 1_555
In38 Na4 3.345319 1_555
In38 Na0 3.530895 1_555
In38 Na7 3.530895 1_555
In38 Na17 3.574299 1_555
In38 Na21 3.574299 1_555
In39 In87 2.945637 1_555
In39 In5 3.112776 1_554
In39 In55 3.112776 1_555
In39 Na31 3.345319 1_555
In39 Na34 3.530895 1_555
In39 Na13 3.530895 1_554
In39 Na32 3.574299 1_555
In39 Na27 3.574299 1_554
In40 In47 3.121699 1_455
In40 In74 3.129655 1_555
In40 In84 3.212044 1_555
In40 In82 3.241547 1_555
In40 Na14 3.318169 1_555
In40 Na16 3.413569 1_555
In40 Na23 3.479153 1_555
In40 Na18 3.576348 1_555
In40 Na51 3.596526 1_555
In40 Na10 3.650889 1_555
In40 K2 4.210980 1_555
In41 In43 3.106824 1_555
In41 In51 3.121699 1_455
In41 In59 3.212044 1_555
In41 In8 3.241547 1_555
In41 Na14 3.318169 1_555
In41 Na16 3.413569 1_555
In41 Na28 3.479153 1_555
In41 Na47 3.576348 1_555
In41 Na49 3.596526 1_555
In41 Na48 3.650889 1_555
In41 K2 4.210980 1_555
In42 In48 3.106824 1_555
In42 In64 3.121699 1_555
In42 In76 3.129655 1_555
In42 In66 3.241547 1_555
In42 Na36 3.318169 1_655
In42 Na38 3.413569 1_655
In42 Na39 3.479153 1_555
In42 Na3 3.576348 1_555
In42 Na4 3.596526 1_555
In42 Na0 3.650889 1_555
In42 K4 4.210980 1_655
In43 In79 3.212044 1_555
In43 In73 3.241547 1_555
In43 Na49 3.318169 1_555
In43 Na16 3.413569 1_555
In43 Na20 3.479153 1_565
In43 Na48 3.576348 1_555
In43 Na14 3.596526 1_555
In43 Na47 3.650889 1_555
In43 K4 4.210980 1_565
In44 In75 3.212044 1_555
In44 Na40 3.299758 1_555
In44 Na1 3.501938 1_555
In44 Na41 3.501938 1_555
In44 Na21 3.716329 1_555
In44 Na35 3.791737 1_555
In44 Na0 3.791737 1_555
In44 K0 3.994560 1_555
In45 In46 3.129655 1_556
In45 Na27 3.318169 1_565
In45 Na42 3.413569 1_565
In45 Na26 3.479153 1_556
In45 Na10 3.576348 1_555
In45 Na19 3.596526 1_555
In45 Na18 3.650889 1_555
In45 K3 4.210980 1_566
In46 In93 3.129655 1_555
In46 In63 3.212044 1_555
In46 Na26 3.299758 1_555
In46 Na27 3.501938 1_564
In46 Na32 3.501938 1_565
In46 Na37 3.716329 1_555
In46 Na48 3.791737 1_555
In46 Na10 3.791737 1_554
In46 K3 3.994560 1_565
In47 In52 3.106824 1_555
In47 In50 3.129655 1_555
In47 In84 3.212044 1_655
In47 Na8 3.318169 1_555
In47 Na16 3.413569 1_655
In47 Na23 3.479153 1_655
In47 Na45 3.576348 1_555
In47 Na51 3.596526 1_655
In47 Na33 3.650889 1_555
In47 K2 4.210980 1_655
In48 In95 3.121699 1_655
In48 In94 3.129655 1_555
In48 In81 3.212044 1_655
In48 In67 3.241547 1_555
In48 Na4 3.318169 1_555
In48 Na38 3.413569 1_655
In48 Na28 3.479153 1_655
In48 Na0 3.576348 1_555
In48 Na36 3.596526 1_655
In48 Na3 3.650889 1_555
In48 K2 4.210980 1_655
In49 In67 3.121699 1_555
In49 In59 3.129655 1_655
In49 In94 3.212044 1_555
In49 In51 3.241547 1_555
In49 Na9 3.318169 1_555
In49 Na50 3.413569 1_555
In49 Na28 3.479153 1_655
In49 Na11 3.576348 1_555
In49 Na1 3.596526 1_555
In49 Na22 3.650889 1_555
In49 K5 4.210980 1_655
In50 In54 3.129655 1_555
In50 In57 3.212044 1_555
In50 Na23 3.299758 1_655
In50 Na4 3.501938 1_555
In50 Na8 3.501938 1_555
In50 Na2 3.716329 1_555
In50 Na7 3.791737 1_555
In50 Na45 3.791737 1_555
In50 K2 3.994560 1_655
In51 In92 3.106824 1_555
In51 In94 3.129655 1_555
In51 In59 3.212044 1_655
In51 Na8 3.318169 1_555
In51 Na16 3.413569 1_655
In51 Na28 3.479153 1_655
In51 Na22 3.576348 1_555
In51 Na49 3.596526 1_655
In51 Na11 3.650889 1_555
In51 K2 4.210980 1_655
In52 In92 3.121699 1_555
In52 In69 3.212044 1_555
In52 Na51 3.318169 1_655
In52 Na16 3.413569 1_655
In52 Na39 3.479153 1_565
In52 Na33 3.576348 1_555
In52 Na8 3.596526 1_555
In52 Na45 3.650889 1_555
In52 K4 4.210980 1_665
In53 In59 2.945637 1_555
In53 In77 3.051691 1_554
In53 In88 3.112776 1_455
In53 Na49 3.345319 1_555
In53 Na48 3.530895 1_555
In53 Na11 3.530895 1_455
In53 Na37 3.574299 1_555
In53 Na9 3.574299 1_455
In54 In64 3.106824 1_555
In54 In86 3.121699 1_655
In54 In80 3.212044 1_655
In54 In57 3.241547 1_555
In54 Na4 3.318169 1_555
In54 Na38 3.413569 1_655
In54 Na23 3.479153 1_655
In54 Na7 3.576348 1_555
In54 Na25 3.596526 1_655
In54 Na15 3.650889 1_555
In54 K2 4.210980 1_655
In55 In81 2.945637 1_555
In55 In61 3.112776 1_455
In55 Na36 3.345319 1_555
In55 Na34 3.530895 1_555
In55 Na3 3.530895 1_455
In55 Na31 3.574299 1_555
In55 Na5 3.574299 1_455
In56 In63 3.129655 1_555
In56 In93 3.212044 1_555
In56 In83 3.212044 1_555
In56 Na26 3.299758 1_555
In56 Na41 3.501938 1_555
In56 Na1 3.501938 1_555
In56 Na46 3.716329 1_555
In56 Na47 3.791737 1_555
In56 Na22 3.791737 1_555
In56 K0 3.994560 1_555
In57 In85 3.106824 1_555
In57 In80 3.129655 1_655
In57 Na5 3.318169 1_556
In57 Na50 3.413569 1_556
In57 Na23 3.479153 1_655
In57 Na15 3.576348 1_555
In57 Na2 3.596526 1_555
In57 Na7 3.650889 1_555
In57 K5 4.210980 1_656
In58 In91 2.945637 1_555
In58 In68 3.129655 1_555
In58 In85 3.129655 1_555
In58 Na40 3.299758 1_556
In58 Na2 3.501938 1_555
In58 Na12 3.501938 1_555
In58 Na17 3.716329 1_555
In58 Na29 3.791737 1_555
In58 Na7 3.791737 1_555
In58 K0 3.994560 1_556
In59 In8 3.129655 1_555
In59 Na28 3.299758 1_555
In59 Na37 3.501938 1_555
In59 Na9 3.501938 1_455
In59 Na49 3.716329 1_555
In59 Na48 3.791737 1_555
In59 Na11 3.791737 1_455
In59 K5 3.994560 1_555
In60 In62 3.129655 1_555
In60 In90 3.212044 1_555
In60 Na20 3.299758 1_555
In60 Na25 3.501938 1_555
In60 Na51 3.501938 1_545
In60 Na27 3.716329 1_555
In60 Na13 3.791737 1_555
In60 Na10 3.791737 1_545
In60 K4 3.994560 1_555
In61 In88 3.051691 1_545
In61 In72 3.112776 1_554
In61 Na5 3.345319 1_555
In61 Na3 3.530895 1_555
In61 Na15 3.530895 1_554
In61 Na44 3.574299 1_555
In61 Na24 3.574299 1_554
In62 In86 3.106824 1_555
In62 In70 3.121699 1_555
In62 In90 3.241547 1_555
In62 Na25 3.318169 1_555
In62 Na38 3.413569 1_555
In62 Na20 3.479153 1_555
In62 Na13 3.576348 1_555
In62 Na6 3.596526 1_555
In62 Na29 3.650889 1_555
In62 K4 4.210980 1_555
In63 In8 3.106824 1_555
In63 In93 3.241547 1_555
In63 Na41 3.318169 1_555
In63 Na30 3.413569 1_555
In63 Na26 3.479153 1_555
In63 Na47 3.576348 1_555
In63 Na37 3.596526 1_555
In63 Na48 3.650889 1_555
In63 K0 4.210980 1_555
In64 In71 3.241547 1_555
In64 Na25 3.318169 1_655
In64 Na38 3.413569 1_655
In64 Na39 3.479153 1_555
In64 Na15 3.576348 1_555
In64 Na4 3.596526 1_555
In64 Na7 3.650889 1_555
In64 K4 4.210980 1_655
In65 In8 3.121699 1_555
In65 In81 3.129655 1_555
In65 In95 3.241547 1_555
In65 Na31 3.318169 1_555
In65 Na30 3.413569 1_555
In65 Na28 3.479153 1_555
In65 Na34 3.576348 1_555
In65 Na41 3.596526 1_555
In65 Na35 3.650889 1_555
In65 K5 4.210980 1_555
In66 In75 3.106824 1_555
In66 In76 3.212044 1_555
In66 Na21 3.318169 1_555
In66 Na43 3.413569 1_555
In66 Na39 3.479153 1_555
In66 Na0 3.576348 1_555
In66 Na44 3.596526 1_555
In66 Na3 3.650889 1_555
In66 K1 4.210980 1_555
In67 In81 3.129655 1_655
In67 In94 3.212044 1_555
In67 Na5 3.318169 1_555
In67 Na50 3.413569 1_555
In67 Na28 3.479153 1_655
In67 Na3 3.576348 1_555
In67 Na1 3.596526 1_555
In67 Na0 3.650889 1_555
In67 K5 4.210980 1_655
In68 In87 3.212044 1_556
In68 Na12 3.318169 1_555
In68 Na30 3.413569 1_556
In68 Na40 3.479153 1_556
In68 Na29 3.576348 1_555
In68 Na31 3.596526 1_556
In68 Na13 3.650889 1_555
In68 K0 4.210980 1_556
In69 In89 2.945637 1_555
In69 In92 3.212044 1_555
In69 Na39 3.299758 1_565
In69 Na46 3.501938 1_555
In69 Na19 3.501938 1_555
In69 Na8 3.716329 1_555
In69 Na22 3.791737 1_555
In69 Na45 3.791737 1_555
In69 K1 3.994560 1_565
In70 In95 3.106824 1_555
In70 Na36 3.318169 1_555
In70 Na38 3.413569 1_555
In70 Na20 3.479153 1_555
In70 Na34 3.576348 1_555
In70 Na6 3.596526 1_555
In70 Na35 3.650889 1_555
In70 K4 4.210980 1_555
In71 Na17 3.318169 1_555
In71 Na42 3.413569 1_555
In71 Na39 3.479153 1_555
In71 Na7 3.576348 1_555
In71 Na24 3.596526 1_555
In71 Na15 3.650889 1_555
In71 K1 4.210980 1_555
In72 In77 3.112776 1_645
In72 In88 3.112776 1_546
In72 Na24 3.345319 1_555
In72 Na15 3.530895 1_555
In72 Na33 3.530895 1_545
In72 Na51 3.574299 1_645
In72 Na25 3.574299 1_655
In73 In93 3.106824 1_555
In73 In79 3.129655 1_555
In73 Na46 3.318169 1_555
In73 Na43 3.413569 1_565
In73 Na20 3.479153 1_565
In73 Na47 3.576348 1_555
In73 Na32 3.596526 1_565
In73 Na48 3.650889 1_555
In73 K1 4.210980 1_565
In74 In78 2.945637 1_555
In74 In86 3.129655 1_555
In74 In82 3.212044 1_555
In74 Na23 3.299758 1_555
In74 Na6 3.501938 1_555
In74 Na14 3.501938 1_555
In74 Na12 3.716329 1_555
In74 Na29 3.791737 1_555
In74 Na18 3.791737 1_555
In74 K2 3.994560 1_555
In75 Na44 3.318169 1_555
In75 Na43 3.413569 1_555
In75 Na40 3.479153 1_555
In75 Na3 3.576348 1_555
In75 Na21 3.596526 1_555
In75 Na0 3.650889 1_555
In75 K3 4.210980 1_555
In76 In92 3.129655 1_545
In76 Na39 3.299758 1_555
In76 Na36 3.501938 1_655
In76 Na49 3.501938 1_645
In76 Na44 3.716329 1_555
In76 Na3 3.791737 1_555
In76 Na11 3.791737 1_545
In76 K4 3.994560 1_655
In77 In84 2.945637 1_555
In77 In88 3.112776 1_456
In77 Na51 3.345319 1_555
In77 Na10 3.530895 1_555
In77 Na33 3.530895 1_455
In77 Na37 3.574299 1_556
In77 Na9 3.574299 1_456
In78 In9 3.112776 1_555
In78 In91 3.112776 1_555
In78 Na12 3.345319 1_555
In78 Na29 3.530895 1_555
In78 Na18 3.530895 1_555
In78 Na14 3.574299 1_555
In78 Na6 3.574299 1_555
In79 In9 2.945637 1_555
In79 Na20 3.299758 1_565
In79 Na46 3.501938 1_555
In79 Na19 3.501938 1_555
In79 Na14 3.716329 1_555
In79 Na47 3.791737 1_555
In79 Na18 3.791737 1_555
In79 K1 3.994560 1_565
In80 In86 3.212044 1_555
In80 Na23 3.299758 1_555
In80 Na31 3.501938 1_556
In80 Na5 3.501938 1_456
In80 Na25 3.716329 1_555
In80 Na13 3.791737 1_555
In80 Na15 3.791737 1_455
In80 K5 3.994560 1_556
In81 In95 3.212044 1_555
In81 Na28 3.299758 1_555
In81 Na31 3.501938 1_555
In81 Na5 3.501938 1_455
In81 Na36 3.716329 1_555
In81 Na34 3.791737 1_555
In81 Na3 3.791737 1_455
In81 K5 3.994560 1_555
In82 In84 3.129655 1_555
In82 Na37 3.318169 1_556
In82 Na30 3.413569 1_556
In82 Na23 3.479153 1_555
In82 Na10 3.576348 1_555
In82 Na12 3.596526 1_555
In82 Na18 3.650889 1_555
In82 K5 4.210980 1_556
In83 In93 3.121699 1_555
In83 Na44 3.318169 1_565
In83 Na43 3.413569 1_565
In83 Na26 3.479153 1_555
In83 Na11 3.576348 1_555
In83 Na46 3.596526 1_555
In83 Na22 3.650889 1_555
In83 K3 4.210980 1_565
In84 Na23 3.299758 1_555
In84 Na37 3.501938 1_556
In84 Na9 3.501938 1_456
In84 Na51 3.716329 1_555
In84 Na10 3.791737 1_555
In84 Na33 3.791737 1_455
In84 K5 3.994560 1_556
In85 Na2 3.318169 1_555
In85 Na50 3.413569 1_556
In85 Na40 3.479153 1_556
In85 Na7 3.576348 1_555
In85 Na5 3.596526 1_556
In85 Na15 3.650889 1_555
In85 K0 4.210980 1_556
In86 Na6 3.318169 1_555
In86 Na38 3.413569 1_555
In86 Na23 3.479153 1_555
In86 Na29 3.576348 1_555
In86 Na25 3.596526 1_555
In86 Na13 3.650889 1_555
In86 K2 4.210980 1_555
In87 Na40 3.299758 1_555
In87 Na32 3.501938 1_555
In87 Na27 3.501938 1_554
In87 Na31 3.716329 1_555
In87 Na34 3.791737 1_555
In87 Na13 3.791737 1_554
In87 K3 3.994560 1_555
In88 Na9 3.345319 1_555
In88 Na11 3.530895 1_555
In88 Na33 3.530895 1_554
In88 Na44 3.574299 1_565
In88 Na24 3.574299 1_564
In89 In9 3.051691 1_555
In89 Na8 3.345319 1_555
In89 Na22 3.530895 1_555
In89 Na45 3.530895 1_555
In89 Na19 3.574299 1_555
In89 Na46 3.574299 1_555
In90 Na17 3.318169 1_555
In90 Na42 3.413569 1_555
In90 Na20 3.479153 1_555
In90 Na29 3.576348 1_555
In90 Na27 3.596526 1_555
In90 Na13 3.650889 1_555
In90 K1 4.210980 1_555
In91 Na17 3.345319 1_555
In91 Na29 3.530895 1_555
In91 Na7 3.530895 1_555
In91 Na12 3.574299 1_555
In91 Na2 3.574299 1_555
In92 Na49 3.318169 1_655
In92 Na16 3.413569 1_655
In92 Na39 3.479153 1_565
In92 Na11 3.576348 1_555
In92 Na8 3.596526 1_555
In92 Na22 3.650889 1_555
In92 K4 4.210980 1_665
In93 Na32 3.318169 1_565
In93 Na43 3.413569 1_565
In93 Na26 3.479153 1_555
In93 Na48 3.576348 1_555
In93 Na46 3.596526 1_555
In93 Na47 3.650889 1_555
In93 K3 4.210980 1_565
In94 Na28 3.299758 1_655
In94 Na4 3.501938 1_555
In94 Na8 3.501938 1_555
In94 Na1 3.716329 1_555
In94 Na0 3.791737 1_555
In94 Na22 3.791737 1_555
In94 K2 3.994560 1_655
In95 Na6 3.318169 1_555
In95 Na38 3.413569 1_555
In95 Na28 3.479153 1_555
In95 Na35 3.576348 1_555
In95 Na36 3.596526 1_555
In95 Na34 3.650889 1_555
In95 K2 4.210980 1_555
