# generated using pymatgen
data_NiH18C4S6(N2O)4
_symmetry_space_group_name_H-M   'P 1'
_cell_length_a   9.57014384
_cell_length_b   12.01425488
_cell_length_c   20.22618452
_cell_angle_alpha   90.00000000
_cell_angle_beta   90.00000000
_cell_angle_gamma   90.00000000
_symmetry_Int_Tables_number   1
_chemical_formula_structural   NiH18C4S6(N2O)4
_chemical_formula_sum   'Ni4 H72 C16 S24 N32 O16'
_cell_volume   2325.56922371
_cell_formula_units_Z   4
loop_
 _symmetry_equiv_pos_site_id
 _symmetry_equiv_pos_as_xyz
  1  'x, y, z'
loop_
 _atom_site_type_symbol
 _atom_site_label
 _atom_site_symmetry_multiplicity
 _atom_site_fract_x
 _atom_site_fract_y
 _atom_site_fract_z
 _atom_site_occupancy
  Ni  Ni0  1  0.44215402  0.54279744  0.09635622  1
  Ni  Ni1  1  0.94215402  0.95720256  0.90364378  1
  Ni  Ni2  1  0.05784598  0.45720256  0.59635622  1
  Ni  Ni3  1  0.55784598  0.04279744  0.40364378  1
  H  H0  1  0.06088895  0.99128324  0.54149614  1
  H  H1  1  0.22161116  0.46140424  0.35818165  1
  H  H2  1  0.72642536  0.38890457  0.93359535  1
  H  H3  1  0.22885064  0.34096269  0.81435206  1
  H  H4  1  0.59551512  0.27985939  0.57396115  1
  H  H5  1  0.77357464  0.61109543  0.43359535  1
  H  H6  1  0.18620981  0.89440479  0.81181380  1
  H  H7  1  0.17347636  0.82500355  0.32131255  1
  H  H8  1  0.26072952  0.94071821  0.34594032  1
  H  H9  1  0.06557853  0.36822487  0.84728891  1
  H  H10  1  0.82652364  0.32500355  0.17868745  1
  H  H11  1  0.06033681  0.05747230  0.46705690  1
  H  H12  1  0.72309212  0.17636254  0.65105186  1
  H  H13  1  0.27690788  0.67636254  0.84894814  1
  H  H14  1  0.43966319  0.94252770  0.96705690  1
  H  H15  1  0.90296087  0.76218688  0.99196072  1
  H  H16  1  0.93465801  0.65956234  0.22088698  1
  H  H17  1  0.06995882  0.05721634  0.03453158  1
  H  H18  1  0.09551512  0.22014061  0.42603885  1
  H  H19  1  0.56783008  0.71433744  0.84230807  1
  H  H20  1  0.56534199  0.34043766  0.72088698  1
  H  H21  1  0.69328351  0.52115882  0.24910561  1
  H  H22  1  0.56557853  0.13177513  0.15271109  1
  H  H23  1  0.43004118  0.94278366  0.53453158  1
  H  H24  1  0.90448488  0.72014061  0.07396115  1
  H  H25  1  0.43911105  0.00871676  0.04149614  1
  H  H26  1  0.78966881  0.24287652  0.38737198  1
  H  H27  1  0.40448488  0.77985939  0.92603885  1
  H  H28  1  0.30671649  0.02115882  0.25089439  1
  H  H29  1  0.77690788  0.82363746  0.15105186  1
  H  H30  1  0.71033119  0.75712348  0.88737198  1
  H  H31  1  0.00666480  0.53754842  0.23963663  1
  H  H32  1  0.59703913  0.23781312  0.49196072  1
  H  H33  1  0.27838884  0.53859576  0.85818165  1
  H  H34  1  0.09703913  0.26218688  0.50803928  1
  H  H35  1  0.06783008  0.78566256  0.15769193  1
  H  H36  1  0.76072952  0.55928179  0.65405968  1
  H  H37  1  0.93004118  0.55721634  0.46546842  1
  H  H38  1  0.22309212  0.32363746  0.34894814  1
  H  H39  1  0.68620981  0.60559521  0.18818620  1
  H  H40  1  0.22642536  0.11109543  0.06640465  1
  H  H41  1  0.67347636  0.67499645  0.67868745  1
  H  H42  1  0.27114936  0.65903731  0.31435206  1
  H  H43  1  0.99333520  0.03754842  0.26036337  1
  H  H44  1  0.28966881  0.25712348  0.61262802  1
  H  H45  1  0.19328351  0.97884118  0.75089439  1
  H  H46  1  0.56995882  0.44278366  0.96546842  1
  H  H47  1  0.93966319  0.55747230  0.03294310  1
  H  H48  1  0.77838884  0.96140424  0.14181835  1
  H  H49  1  0.43216992  0.21433744  0.65769193  1
  H  H50  1  0.43442147  0.63177513  0.34728891  1
  H  H51  1  0.49333520  0.46245158  0.73963663  1
  H  H52  1  0.43465801  0.84043766  0.77911302  1
  H  H53  1  0.77114936  0.84096269  0.68564794  1
  H  H54  1  0.72885064  0.15903731  0.18564794  1
  H  H55  1  0.93442147  0.86822487  0.65271109  1
  H  H56  1  0.21033119  0.74287652  0.11262802  1
  H  H57  1  0.40296087  0.73781312  0.00803928  1
  H  H58  1  0.06534199  0.15956234  0.27911302  1
  H  H59  1  0.81379019  0.39440479  0.68818620  1
  H  H60  1  0.72161116  0.03859576  0.64181835  1
  H  H61  1  0.50666480  0.96245158  0.76036337  1
  H  H62  1  0.56088895  0.50871676  0.45850386  1
  H  H63  1  0.31379019  0.10559521  0.31181380  1
  H  H64  1  0.93216992  0.28566256  0.34230807  1
  H  H65  1  0.32652364  0.17499645  0.82131255  1
  H  H66  1  0.93911105  0.49128324  0.95850386  1
  H  H67  1  0.73927048  0.44071821  0.15405968  1
  H  H68  1  0.56033681  0.44252770  0.53294310  1
  H  H69  1  0.80671649  0.47884118  0.74910561  1
  H  H70  1  0.23927048  0.05928179  0.84594032  1
  H  H71  1  0.27357464  0.88890457  0.56640465  1
  C  C0  1  0.14522932  0.38138338  0.43693892  1
  C  C1  1  0.37630512  0.37435286  0.67568239  1
  C  C2  1  0.13525994  0.20844697  0.85926958  1
  C  C3  1  0.75160644  0.49213366  0.50526981  1
  C  C4  1  0.86474006  0.70844697  0.64073042  1
  C  C5  1  0.12369488  0.62564714  0.17568239  1
  C  C6  1  0.64522932  0.11861662  0.56306108  1
  C  C7  1  0.62369488  0.87435286  0.82431761  1
  C  C8  1  0.24839356  0.99213366  0.99473019  1
  C  C9  1  0.87630512  0.12564714  0.32431761  1
  C  C10  1  0.74839356  0.50786634  0.00526981  1
  C  C11  1  0.36474006  0.79155303  0.35926958  1
  C  C12  1  0.35477068  0.61861662  0.93693892  1
  C  C13  1  0.85477068  0.88138338  0.06306108  1
  C  C14  1  0.63525994  0.29155303  0.14073042  1
  C  C15  1  0.25160644  0.00786634  0.49473019  1
  S  S0  1  0.83365369  0.99434542  0.01249571  1
  S  S1  1  0.26526143  0.48460533  0.66455340  1
  S  S2  1  0.16937770  0.90259678  0.93931161  1
  S  S3  1  0.97907125  0.16268528  0.89081532  1
  S  S4  1  0.76526143  0.01539467  0.33544660  1
  S  S5  1  0.33365369  0.50565458  0.98750429  1
  S  S6  1  0.66937770  0.59740322  0.06068839  1
  S  S7  1  0.02092875  0.66268528  0.60918468  1
  S  S8  1  0.16634631  0.49434542  0.48750429  1
  S  S9  1  0.23473857  0.51539467  0.16455340  1
  S  S10  1  0.33062230  0.09740322  0.43931161  1
  S  S11  1  0.42561942  0.85702671  0.14573090  1
  S  S12  1  0.53287148  0.73414580  0.19283453  1
  S  S13  1  0.57438058  0.35702671  0.35426910  1
  S  S14  1  0.07438058  0.14297329  0.64573090  1
  S  S15  1  0.96712852  0.26585420  0.69283453  1
  S  S16  1  0.83062230  0.40259678  0.56068839  1
  S  S17  1  0.47907125  0.33731472  0.10918468  1
  S  S18  1  0.03287148  0.76585420  0.80716547  1
  S  S19  1  0.46712852  0.23414580  0.30716547  1
  S  S20  1  0.52092875  0.83731472  0.39081532  1
  S  S21  1  0.92561942  0.64297329  0.85426910  1
  S  S22  1  0.66634631  0.00565458  0.51249571  1
  S  S23  1  0.73473857  0.98460533  0.83544660  1
  N  N0  1  0.25167679  0.85615638  0.34973554  1
  N  N1  1  0.38888897  0.99660098  0.99695561  1
  N  N2  1  0.90054741  0.78397662  0.04121144  1
  N  N3  1  0.61111103  0.49660098  0.50304439  1
  N  N4  1  0.14984623  0.31677649  0.84486296  1
  N  N5  1  0.87638943  0.21953896  0.35957647  1
  N  N6  1  0.62361057  0.78046104  0.85957647  1
  N  N7  1  0.75167679  0.64384362  0.65026446  1
  N  N8  1  0.24832321  0.14384362  0.84973554  1
  N  N9  1  0.52659822  0.88335512  0.77522936  1
  N  N10  1  0.59945259  0.21602338  0.54121144  1
  N  N11  1  0.47340178  0.38335512  0.72477064  1
  N  N12  1  0.97340178  0.11664488  0.27522936  1
  N  N13  1  0.35015377  0.68322351  0.34486296  1
  N  N14  1  0.12361057  0.71953896  0.14042353  1
  N  N15  1  0.32346323  0.94318272  0.53616901  1
  N  N16  1  0.82869009  0.88978507  0.12962320  1
  N  N17  1  0.67130991  0.11021493  0.62962320  1
  N  N18  1  0.17130991  0.38978507  0.37037680  1
  N  N19  1  0.32869009  0.61021493  0.87037680  1
  N  N20  1  0.74832321  0.35615638  0.15026446  1
  N  N21  1  0.67653677  0.44318272  0.96383099  1
  N  N22  1  0.09945259  0.28397662  0.45878856  1
  N  N23  1  0.88888897  0.50339902  0.00304439  1
  N  N24  1  0.37638943  0.28046104  0.64042353  1
  N  N25  1  0.17653677  0.05681728  0.03616901  1
  N  N26  1  0.02659822  0.61664488  0.22477064  1
  N  N27  1  0.64984623  0.18322351  0.15513704  1
  N  N28  1  0.82346323  0.55681728  0.46383099  1
  N  N29  1  0.11111103  0.00339902  0.49695561  1
  N  N30  1  0.85015377  0.81677649  0.65513704  1
  N  N31  1  0.40054741  0.71602338  0.95878856  1
  O  O0  1  0.47932877  0.44803789  0.37499614  1
  O  O1  1  0.24941757  0.94070484  0.78496994  1
  O  O2  1  0.25058243  0.05929516  0.28496994  1
  O  O3  1  0.97932877  0.05196211  0.62500386  1
  O  O4  1  0.63929067  0.30232156  0.41392635  1
  O  O5  1  0.68481148  0.39884390  0.30953204  1
  O  O6  1  0.86070933  0.69767844  0.91392635  1
  O  O7  1  0.18481148  0.10115610  0.69046796  1
  O  O8  1  0.81518852  0.60115610  0.80953204  1
  O  O9  1  0.13929067  0.19767844  0.58607365  1
  O  O10  1  0.52067123  0.94803789  0.12500386  1
  O  O11  1  0.02067123  0.55196211  0.87499614  1
  O  O12  1  0.31518852  0.89884390  0.19046796  1
  O  O13  1  0.36070933  0.80232156  0.08607365  1
  O  O14  1  0.74941757  0.55929516  0.21503006  1
  O  O15  1  0.75058243  0.44070484  0.71503006  1
loop_
_geom_bond_atom_site_label_1
_geom_bond_atom_site_label_2
_geom_bond_distance
_geom_bond_site_symmetry_2
Ni0 S6 2.383186 1_555
Ni0 S9 2.439519 1_555
Ni0 S5 2.474800 1_554
Ni0 S17 2.507336 1_555
Ni1 S2 2.383186 1_655
Ni1 S23 2.439519 1_555
Ni1 S0 2.474800 1_556
Ni1 S3 2.507336 1_565
Ni2 S16 2.383186 1_455
Ni2 S1 2.439519 1_555
Ni2 S8 2.474800 1_555
Ni2 S7 2.507336 1_555
Ni3 S10 2.383186 1_555
Ni3 S4 2.439519 1_555
Ni3 S22 2.474800 1_555
Ni3 S20 2.507336 1_545
H0 N29 1.031402 1_565
H1 N18 1.016344 1_555
H2 N21 1.013506 1_555
H3 N4 1.018300 1_555
H4 N10 1.014099 1_555
H5 N28 1.013506 1_555
H6 O1 0.984953 1_555
H6 S18 2.132510 1_555
H7 N0 1.015218 1_555
H8 N0 1.022520 1_555
H9 N4 1.017271 1_555
H10 N20 1.015218 1_555
H11 N29 1.011863 1_555
H12 N17 1.031992 1_555
H13 N19 1.031992 1_555
H14 N1 1.011863 1_555
H15 N2 1.030237 1_556
H16 N26 1.022852 1_655
H17 N25 1.020515 1_555
H18 N22 1.014099 1_555
H19 N6 1.018860 1_555
H20 N11 1.022852 1_555
H21 O14 0.986684 1_555
H22 N27 1.017271 1_555
H23 N15 1.020515 1_555
H24 N2 1.014099 1_555
H25 N1 1.031402 1_544
H26 N5 1.040895 1_555
H26 O4 1.694007 1_555
H27 N31 1.014099 1_555
H28 O2 0.986684 1_555
H29 N16 1.031992 1_555
H30 N6 1.040895 1_555
H30 O6 1.694007 1_555
H31 N26 1.014812 1_555
H32 N10 1.030237 1_555
H33 N19 1.016344 1_555
H34 N22 1.030237 1_555
H35 N14 1.018860 1_555
H36 N7 1.022520 1_555
H37 N28 1.020515 1_555
H38 N18 1.031992 1_555
H39 O14 0.984953 1_555
H39 S12 2.132510 1_555
H40 N25 1.013506 1_555
H41 N7 1.015218 1_555
H42 N13 1.018300 1_555
H43 N12 1.014812 1_555
H44 N24 1.040895 1_555
H44 O9 1.694007 1_555
H45 O1 0.986684 1_555
H46 N21 1.020515 1_555
H47 N23 1.011863 1_555
H48 N16 1.016344 1_555
H49 N24 1.018860 1_555
H50 N13 1.017271 1_555
H51 N11 1.014812 1_555
H52 N9 1.022852 1_555
H53 N30 1.018300 1_555
H54 N27 1.018300 1_555
H55 N30 1.017271 1_555
H56 N14 1.040895 1_555
H56 O13 1.694007 1_555
H57 N31 1.030237 1_554
H58 N12 1.022852 1_455
H59 O15 0.984953 1_555
H59 S15 2.132510 1_555
H60 N17 1.016344 1_555
H61 N9 1.014812 1_555
H62 N3 1.031402 1_555
H63 O2 0.984953 1_555
H63 S19 2.132510 1_555
H64 N5 1.018860 1_555
H65 N8 1.015218 1_555
H66 N23 1.031402 1_556
H67 N20 1.022520 1_555
H68 N3 1.011863 1_555
H69 O15 0.986684 1_555
H70 N8 1.022520 1_555
H71 N15 1.013506 1_555
C0 N22 1.325428 1_555
C0 N18 1.372955 1_555
C0 S8 1.711349 1_555
C1 N24 1.334564 1_555
C1 N11 1.364167 1_555
C1 S1 1.713061 1_555
C2 N4 1.341005 1_555
C2 N8 1.345513 1_555
C2 S3 1.715707 1_455
C3 N28 1.333912 1_555
C3 N3 1.346385 1_555
C3 S16 1.727840 1_555
C4 N30 1.341005 1_555
C4 N7 1.345513 1_555
C4 S7 1.715707 1_655
C5 N14 1.334564 1_555
C5 N26 1.364167 1_555
C5 S9 1.713061 1_555
C6 N10 1.325428 1_555
C6 N17 1.372955 1_555
C6 S22 1.711349 1_555
C7 N6 1.334564 1_555
C7 N9 1.364167 1_555
C7 S23 1.713061 1_555
C8 N25 1.333912 1_566
C8 N1 1.346385 1_555
C8 S2 1.727840 1_555
C9 N5 1.334564 1_555
C9 N12 1.364167 1_555
C9 S4 1.713061 1_555
C10 N21 1.333912 1_554
C10 N23 1.346385 1_555
C10 S6 1.727840 1_555
C11 N13 1.341005 1_555
C11 N0 1.345513 1_555
C11 S20 1.715707 1_555
C12 N31 1.325428 1_555
C12 N19 1.372955 1_555
C12 S5 1.711349 1_555
C13 N2 1.325428 1_555
C13 N16 1.372955 1_555
C13 S0 1.711349 1_555
C14 N27 1.341005 1_555
C14 N20 1.345513 1_555
C14 S17 1.715707 1_555
C15 N15 1.333912 1_545
C15 N29 1.346385 1_555
C15 S10 1.727840 1_555
S11 S12 2.034883 1_555
S13 S19 2.034883 1_555
S14 S15 2.034883 1_455
S18 S21 2.034883 1_455
O0 S13 1.482844 1_555
O3 S14 1.482844 1_655
O4 S13 1.507923 1_555
O5 S13 1.479219 1_555
O6 S21 1.507923 1_555
O7 S14 1.479219 1_555
O8 S21 1.479219 1_555
O9 S14 1.507923 1_555
O10 S11 1.482844 1_555
O11 S21 1.482844 1_455
O12 S11 1.479219 1_555
O13 S11 1.507923 1_555
