# generated using pymatgen
data_Te3Pd13
_symmetry_space_group_name_H-M   'P 1'
_cell_length_a   9.05356789
_cell_length_b   9.05496302
_cell_length_c   9.05383727
_cell_angle_alpha   59.99372403
_cell_angle_beta   59.99757364
_cell_angle_gamma   60.00195654
_symmetry_Int_Tables_number   1
_chemical_formula_structural   Te3Pd13
_chemical_formula_sum   'Te6 Pd26'
_cell_volume   524.80985771
_cell_formula_units_Z   2
loop_
 _symmetry_equiv_pos_site_id
 _symmetry_equiv_pos_as_xyz
  1  'x, y, z'
loop_
 _atom_site_type_symbol
 _atom_site_label
 _atom_site_symmetry_multiplicity
 _atom_site_fract_x
 _atom_site_fract_y
 _atom_site_fract_z
 _atom_site_occupancy
  Te  Te0  1  0.87496433  0.87513074  0.87484893  1
  Te  Te1  1  0.50005068  0.49999135  -0.00001927  1
  Te  Te2  1  0.49999440  0.49997668  0.50003306  1
  Te  Te3  1  0.49991846  0.00003694  0.49997997  1
  Te  Te4  1  -0.00000145  0.49999963  0.49997384  1
  Te  Te5  1  0.12506396  0.12488811  0.12513676  1
  Pd  Pd0  1  0.76073557  0.76071307  0.76068864  1
  Pd  Pd1  1  0.37502044  0.37500961  0.37500921  1
  Pd  Pd2  1  0.13771181  0.61230646  0.13768439  1
  Pd  Pd3  1  0.76068028  0.21797031  0.76065887  1
  Pd  Pd4  1  -0.00000298  -0.00000384  0.00001383  1
  Pd  Pd5  1  0.78220161  0.23928080  0.23927692  1
  Pd  Pd6  1  0.61230969  0.13767806  0.13770573  1
  Pd  Pd7  1  0.76074958  0.76073855  0.21779076  1
  Pd  Pd8  1  0.61229469  0.13767758  0.61231417  1
  Pd  Pd9  1  0.86232393  0.38768125  0.86230610  1
  Pd  Pd10  1  0.13769841  0.61228870  0.61231792  1
  Pd  Pd11  1  0.23926268  0.23928992  0.23932614  1
  Pd  Pd12  1  0.23931259  0.78203961  0.23934250  1
  Pd  Pd13  1  0.61230314  0.61231169  0.13770311  1
  Pd  Pd14  1  -0.00000505  -0.00000957  0.50000386  1
  Pd  Pd15  1  0.86228538  0.86233205  0.38767691  1
  Pd  Pd16  1  0.62498932  0.62501630  0.62498022  1
  Pd  Pd17  1  0.38770676  0.86230313  0.38768306  1
  Pd  Pd18  1  0.86229137  0.38770171  0.38768623  1
  Pd  Pd19  1  -0.00000473  0.49999903  0.00000482  1
  Pd  Pd20  1  0.38768846  0.38768955  0.86231196  1
  Pd  Pd21  1  0.38770559  0.86231724  0.86228569  1
  Pd  Pd22  1  0.23926117  0.23926260  0.78220614  1
  Pd  Pd23  1  0.21780512  0.76071474  0.76073154  1
  Pd  Pd24  1  0.13768221  0.13767574  0.61233779  1
  Pd  Pd25  1  0.50000358  -0.00000675  0.00000219  1
loop_
_geom_bond_atom_site_label_1
_geom_bond_atom_site_label_2
_geom_bond_distance
_geom_bond_site_symmetry_2
Pd0 Te0 2.534297 1_555
Pd0 Pd16 3.009983 1_555
Pd0 Pd14 3.069610 1_665
Pd0 Pd19 3.069914 1_656
Pd0 Pd25 3.070422 1_566
Pd1 Te2 2.772035 1_555
Pd1 Te1 2.772175 1_555
Pd1 Te3 2.772230 1_555
Pd1 Te4 2.772274 1_555
Pd1 Pd12 3.009234 1_555
Pd1 Pd22 3.009961 1_555
Pd1 Pd5 3.010005 1_555
Pd1 Pd11 3.010051 1_555
Pd1 Pd8 3.038182 1_555
Pd1 Pd13 3.038205 1_555
Pd1 Pd2 3.038529 1_555
Pd1 Pd10 3.038647 1_555
Pd1 Pd24 3.038764 1_555
Pd1 Pd6 3.038950 1_555
Pd2 Te4 2.681304 1_555
Pd2 Te1 2.681796 1_555
Pd2 Pd4 2.869302 1_565
Pd3 Te0 2.534665 1_545
Pd3 Pd4 3.070470 1_656
Pd4 Te0 2.772761 1_444
Pd4 Te5 2.772900 1_555
Pd4 Pd6 2.868982 1_455
Pd4 Pd9 2.869267 1_454
Pd4 Pd7 3.069491 1_445
Pd4 Pd5 3.070180 1_455
Pd5 Te5 2.534541 1_655
Pd6 Te3 2.681158 1_555
Pd6 Te1 2.681908 1_555
Pd7 Te0 2.534993 1_554
Pd8 Te2 2.681844 1_555
Pd8 Te3 2.682064 1_555
Pd9 Te1 2.681309 1_556
Pd9 Te4 2.681600 1_655
Pd10 Te2 2.681476 1_555
Pd10 Te4 2.681915 1_555
Pd10 Pd19 2.868831 1_556
Pd10 Pd14 2.869431 1_565
Pd11 Te5 2.534173 1_555
Pd11 Pd14 3.069792 1_555
Pd11 Pd19 3.069990 1_555
Pd11 Pd25 3.070591 1_555
Pd12 Te5 2.534731 1_565
Pd12 Pd25 3.070274 1_565
Pd12 Pd4 3.070296 1_565
Pd12 Pd14 3.070473 1_565
Pd13 Te2 2.681598 1_555
Pd13 Te1 2.681667 1_555
Pd13 Pd19 2.868985 1_655
Pd13 Pd25 2.869251 1_565
Pd14 Te0 2.770819 1_445
Pd14 Te5 2.770982 1_555
Pd14 Pd8 2.869071 1_455
Pd14 Pd17 2.869154 1_545
Pd14 Pd15 2.869210 1_445
Pd14 Pd24 2.869294 1_555
Pd14 Pd18 2.869501 1_455
Pd14 Pd5 3.069559 1_455
Pd14 Pd23 3.069667 1_545
Pd14 Pd3 3.070608 1_455
Pd15 Te3 2.682025 1_565
Pd15 Te4 2.682075 1_655
Pd15 Pd4 2.868633 1_665
Pd15 Pd16 3.038378 1_555
Pd16 Te1 2.771968 1_556
Pd16 Te2 2.772159 1_555
Pd16 Te4 2.772180 1_655
Pd16 Te3 2.772584 1_565
Pd16 Pd3 3.009352 1_555
Pd16 Pd7 3.009906 1_555
Pd16 Pd23 3.010027 1_555
Pd16 Pd17 3.038185 1_555
Pd16 Pd20 3.038479 1_555
Pd16 Pd9 3.038702 1_555
Pd16 Pd21 3.038767 1_555
Pd16 Pd18 3.038781 1_555
Pd17 Te3 2.681313 1_565
Pd17 Te2 2.682031 1_555
Pd17 Pd25 2.868773 1_565
Pd18 Te2 2.681474 1_555
Pd18 Te4 2.681625 1_655
Pd18 Pd19 2.868787 1_655
Pd19 Te5 2.773251 1_555
Pd19 Te0 2.773405 1_454
Pd19 Pd20 2.868994 1_554
Pd19 Pd9 2.869138 1_454
Pd19 Pd2 2.869259 1_555
Pd19 Pd5 3.069527 1_455
Pd19 Pd23 3.069609 1_554
Pd19 Pd7 3.070058 1_455
Pd19 Pd22 3.070115 1_554
Pd20 Te2 2.681228 1_555
Pd20 Te1 2.681919 1_556
Pd20 Pd25 2.869356 1_556
Pd21 Te3 2.681417 1_565
Pd21 Te1 2.681988 1_556
Pd21 Pd4 2.869146 1_566
Pd21 Pd25 2.869206 1_566
Pd22 Te5 2.534911 1_556
Pd22 Pd4 3.069644 1_556
Pd22 Pd25 3.069701 1_556
Pd23 Te0 2.534382 1_455
Pd23 Pd4 3.070279 1_566
Pd24 Te3 2.681052 1_555
Pd24 Te4 2.682002 1_555
Pd24 Pd4 2.868722 1_556
Pd25 Te5 2.771666 1_555
Pd25 Te0 2.771822 1_544
Pd25 Pd8 2.868829 1_554
Pd25 Pd6 2.869233 1_555
Pd25 Pd7 3.069679 1_545
Pd25 Pd3 3.070322 1_554
