# generated using pymatgen
data_NaP(HO2)2
_symmetry_space_group_name_H-M   'P 1'
_cell_length_a   6.58600449
_cell_length_b   9.37937005
_cell_length_c   6.25516872
_cell_angle_alpha   103.55413264
_cell_angle_beta   107.67848903
_cell_angle_gamma   93.18206097
_symmetry_Int_Tables_number   1
_chemical_formula_structural   NaP(HO2)2
_chemical_formula_sum   'Na4 P4 H8 O16'
_cell_volume   354.53396701
_cell_formula_units_Z   4
loop_
 _symmetry_equiv_pos_site_id
 _symmetry_equiv_pos_as_xyz
  1  'x, y, z'
loop_
 _atom_site_type_symbol
 _atom_site_label
 _atom_site_symmetry_multiplicity
 _atom_site_fract_x
 _atom_site_fract_y
 _atom_site_fract_z
 _atom_site_occupancy
  Na  Na0  1  0.16850392  0.86843736  0.57272886  1
  Na  Na1  1  0.83149608  0.13156264  0.42727114  1
  Na  Na2  1  0.44513358  0.59107169  0.75768151  1
  Na  Na3  1  0.55486642  0.40892831  0.24231849  1
  P  P0  1  0.72413503  0.90995591  0.74603801  1
  P  P1  1  0.27586497  0.09004409  0.25396199  1
  P  P2  1  0.09840896  0.78419490  0.01108818  1
  P  P3  1  0.90159104  0.21580510  0.98891182  1
  H  H0  1  0.65843614  0.73071064  0.29074582  1
  H  H1  1  0.34156386  0.26928936  0.70925418  1
  H  H2  1  0.80749542  0.65314356  0.17162350  1
  H  H3  1  0.19250458  0.34685644  0.82837650  1
  H  H4  1  0.21362787  0.57530213  0.29281128  1
  H  H5  1  0.78637213  0.42469787  0.70718872  1
  H  H6  1  0.87461096  0.56879194  0.66901898  1
  H  H7  1  0.12538904  0.43120806  0.33098102  1
  O  O0  1  0.88102995  0.85613783  0.95482576  1
  O  O1  1  0.11897005  0.14386217  0.04517424  1
  O  O2  1  0.82808574  0.91709234  0.56755099  1
  O  O3  1  0.17191426  0.08290766  0.43244901  1
  O  O4  1  0.50947126  0.82511221  0.67731587  1
  O  O5  1  0.49052874  0.17488779  0.32268413  1
  O  O6  1  0.09350791  0.71541697  0.20088136  1
  O  O7  1  0.90649209  0.28458303  0.79911864  1
  O  O8  1  0.12686155  0.69608360  0.79453373  1
  O  O9  1  0.87313845  0.30391640  0.20546627  1
  O  O10  1  0.28260619  0.92472633  0.11054955  1
  O  O11  1  0.71739381  0.07527367  0.88945045  1
  O  O12  1  0.65947255  0.64241366  0.17325911  1
  O  O13  1  0.34052745  0.35758634  0.82674089  1
  O  O14  1  0.73974693  0.50868979  0.64508895  1
  O  O15  1  0.26025307  0.49131021  0.35491105  1
loop_
_geom_bond_atom_site_label_1
_geom_bond_atom_site_label_2
_geom_bond_distance
_geom_bond_site_symmetry_2
Na0 O4 2.229249 1_555
Na0 O2 2.304835 1_455
Na0 O6 2.317925 1_555
Na0 O3 2.377247 1_565
Na0 O8 2.417984 1_555
Na1 O5 2.229249 1_555
Na1 O3 2.304835 1_655
Na1 O7 2.317925 1_555
Na1 O2 2.377247 1_545
Na1 O9 2.417984 1_555
Na2 O14 2.366277 1_555
Na2 O15 2.368730 1_555
Na2 O4 2.407135 1_555
Na2 O8 2.415226 1_555
Na2 O13 2.431825 1_555
Na2 O12 2.468020 1_556
Na3 O15 2.366277 1_555
Na3 O14 2.368730 1_555
Na3 O5 2.407135 1_555
Na3 O9 2.415226 1_555
Na3 O12 2.431825 1_555
Na3 O13 2.468020 1_554
H0 O12 0.971795 1_555
H1 O13 0.971795 1_555
H2 O12 0.977891 1_555
H3 O13 0.977891 1_555
H4 O15 0.981655 1_555
H4 O6 1.696162 1_555
H5 O14 0.981655 1_555
H5 O7 1.696162 1_555
H6 O14 0.976332 1_555
H7 O15 0.976332 1_555
O0 P2 1.594171 1_656
O0 P0 1.604825 1_555
O1 P3 1.594171 1_454
O1 P1 1.604825 1_555
O2 P0 1.487903 1_555
O3 P1 1.487903 1_555
O4 P0 1.470532 1_555
O5 P1 1.470532 1_555
O6 P2 1.485443 1_555
O7 P3 1.485443 1_555
O8 P2 1.483115 1_556
O9 P3 1.483115 1_554
O10 P2 1.604937 1_555
O10 P1 1.609607 1_565
O11 P3 1.604937 1_555
O11 P0 1.609607 1_545
