# generated using pymatgen
data_K3UO2F5
_symmetry_space_group_name_H-M   'P 1'
_cell_length_a   11.08385546
_cell_length_b   11.08385546
_cell_length_c   11.08385546
_cell_angle_alpha   131.44177004
_cell_angle_beta   131.44177004
_cell_angle_gamma   71.11213234
_symmetry_Int_Tables_number   1
_chemical_formula_structural   K3UO2F5
_chemical_formula_sum   'K12 U4 O8 F20'
_cell_volume   749.17550632
_cell_formula_units_Z   4
loop_
 _symmetry_equiv_pos_site_id
 _symmetry_equiv_pos_as_xyz
  1  'x, y, z'
loop_
 _atom_site_type_symbol
 _atom_site_label
 _atom_site_symmetry_multiplicity
 _atom_site_fract_x
 _atom_site_fract_y
 _atom_site_fract_z
 _atom_site_occupancy
  K  K0  1  0.34546587  0.82411626  0.94816783  1
  K  K1  1  0.57411626  0.12594843  0.97865040  1
  K  K2  1  0.14729903  0.59546587  0.02134960  1
  K  K3  1  0.87594843  0.39729903  0.05183217  1
  K  K4  1  0.40453413  0.42588374  0.55183217  1
  K  K5  1  0.17588374  0.12405157  0.52134960  1
  K  K6  1  0.60270097  0.65453413  0.47865040  1
  K  K7  1  0.87405157  0.85270097  0.44816783  1
  K  K8  1  0.00000000  -0.00000000  -0.00000000  1
  K  K9  1  0.75000000  0.25000000  0.50000000  1
  K  K10  1  0.50000000  0.50000000  -0.00000000  1
  K  K11  1  0.25000000  0.75000000  0.50000000  1
  U  U0  1  0.97919961  0.47919961  0.50000000  1
  U  U1  1  0.22919961  0.22919961  0.00000000  1
  U  U2  1  0.77080039  0.77080039  0.00000000  1
  U  U3  1  0.52080039  0.02080039  0.50000000  1
  O  O0  1  0.03251049  0.27492912  0.85019701  1
  O  O1  1  0.02492912  0.67473211  0.74241863  1
  O  O2  1  0.93231348  0.28251049  0.25758137  1
  O  O3  1  0.42473211  0.18231348  0.14980299  1
  O  O4  1  0.71748951  0.97507088  0.64980299  1
  O  O5  1  0.72507088  0.57526789  0.75758137  1
  O  O6  1  0.81768652  0.96748951  0.24241863  1
  O  O7  1  0.32526789  0.06768652  0.35019701  1
  F  F0  1  0.42561092  0.75025752  0.21534772  1
  F  F1  1  0.50025752  0.78490879  0.82464660  1
  F  F2  1  0.96026219  0.67561092  0.17535340  1
  F  F3  1  0.53490879  0.21026219  0.78465228  1
  F  F4  1  0.32438908  0.49974248  0.28465228  1
  F  F5  1  0.24974248  0.46509121  0.67535340  1
  F  F6  1  0.78973781  0.57438908  0.32464660  1
  F  F7  1  0.21509121  0.03973781  0.71534772  1
  F  F8  1  0.39445686  0.89445686  0.50000000  1
  F  F9  1  0.64445686  0.64445686  0.00000000  1
  F  F10  1  0.35554314  0.35554314  0.00000000  1
  F  F11  1  0.10554314  0.60554314  0.50000000  1
  F  F12  1  0.10998608  0.98411046  0.83580883  1
  F  F13  1  0.73411046  0.39830162  0.37412338  1
  F  F14  1  0.02417724  0.35998608  0.62587662  1
  F  F15  1  0.14830162  0.27417724  0.16419117  1
  F  F16  1  0.64001392  0.26588954  0.66419117  1
  F  F17  1  0.01588954  0.85169838  0.12587662  1
  F  F18  1  0.72582276  0.89001392  0.87412338  1
  F  F19  1  0.60169838  0.97582276  0.33580883  1
loop_
_geom_bond_atom_site_label_1
_geom_bond_atom_site_label_2
_geom_bond_distance
_geom_bond_site_symmetry_2
K0 O1 2.941059 1_555
K0 O3 3.072952 1_566
K1 O3 2.941059 1_556
K1 O2 3.072952 1_556
K2 O0 2.941064 1_554
K2 O1 3.072949 1_554
K3 O2 2.941069 1_555
K3 O0 3.072950 1_654
K4 O5 2.941059 1_555
K4 O7 3.072952 1_555
K5 O7 2.941059 1_555
K5 O6 3.072952 1_445
K6 O4 2.941064 1_555
K6 O5 3.072949 1_555
K7 O6 2.941069 1_555
K7 O4 3.072950 1_555
K8 O1 2.828318 1_544
K8 O2 2.828318 1_455
K8 O4 2.828318 1_444
K8 O7 2.828318 1_555
K9 O3 2.828318 1_555
K9 O0 2.828318 1_655
K9 O6 2.828318 1_545
K9 O5 2.828318 1_555
O0 U1 1.836732 1_556
O1 U0 1.836732 1_455
O2 U0 1.836732 1_555
O3 U1 1.836732 1_555
O4 U3 1.836732 1_565
O5 U2 1.836732 1_556
O6 U2 1.836732 1_555
O7 U3 1.836732 1_555
F0 U3 2.275488 1_565
F0 K10 2.536032 1_555
F0 K2 2.616460 1_555
F0 K6 2.943336 1_555
F0 K0 3.079791 1_554
F1 U2 2.275485 1_556
F1 K11 2.536037 1_555
F1 K0 2.616465 1_555
F1 K4 2.943326 1_555
F1 K1 3.079801 1_565
F2 U2 2.275485 1_555
F2 K11 2.536037 1_655
F2 K3 2.616454 1_555
F2 K7 2.943327 1_555
F2 K2 3.079812 1_655
F3 U3 2.275493 1_555
F3 K10 2.536034 1_556
F3 K1 2.616454 1_555
F3 K5 2.943325 1_555
F3 K3 3.079810 1_556
F4 U1 2.275488 1_555
F4 K11 2.536032 1_555
F4 K6 2.616460 1_555
F4 K2 2.943336 1_555
F4 K4 3.079791 1_555
F5 U0 2.275485 1_455
F5 K10 2.536037 1_556
F5 K4 2.616465 1_555
F5 K0 2.943326 1_555
F5 K5 3.079801 1_555
F6 U0 2.275485 1_555
F6 K10 2.536037 1_555
F6 K7 2.616454 1_555
F6 K3 2.943327 1_555
F6 K6 3.079812 1_555
F7 U1 2.275493 1_556
F7 K11 2.536034 1_545
F7 K5 2.616454 1_555
F7 K1 2.943325 1_555
F7 K7 3.079810 1_445
F8 U3 2.278539 1_565
F8 K11 2.605203 1_555
F8 K6 2.893325 1_555
F8 K5 2.893331 1_565
F8 K2 3.162188 1_555
F8 K1 3.162189 1_565
F9 U2 2.278539 1_555
F9 K10 2.605203 1_555
F9 K4 2.893331 1_554
F9 K7 2.893331 1_555
F9 K3 3.162181 1_555
F9 K0 3.162189 1_554
F10 U1 2.278539 1_555
F10 K10 2.605203 1_555
F10 K2 2.893325 1_555
F10 K1 2.893331 1_554
F10 K6 3.162188 1_555
F10 K5 3.162189 1_554
F11 U0 2.278539 1_455
F11 K11 2.605203 1_555
F11 K0 2.893331 1_555
F11 K3 2.893331 1_455
F11 K7 3.162181 1_455
F11 K4 3.162189 1_555
F12 U1 2.243693 1_566
F12 K7 2.594144 1_455
F12 K0 2.670588 1_555
F12 K8 2.683755 1_566
F13 U0 2.243688 1_555
F13 K6 2.594153 1_555
F13 K1 2.670583 1_554
F13 K9 2.683765 1_555
F14 U0 2.243703 1_455
F14 K5 2.594149 1_555
F14 K2 2.670578 1_556
F14 K9 2.683749 1_455
F15 U1 2.243693 1_555
F15 K4 2.594146 1_555
F15 K3 2.670593 1_455
F15 K8 2.683755 1_555
F16 U3 2.243693 1_555
F16 K3 2.594144 1_556
F16 K4 2.670588 1_555
F16 K9 2.683755 1_555
F17 U2 2.243688 1_455
F17 K2 2.594153 1_555
F17 K5 2.670583 1_565
F17 K8 2.683765 1_565
F18 U2 2.243703 1_556
F18 K1 2.594149 1_565
F18 K6 2.670578 1_555
F18 K8 2.683749 1_666
F19 U3 2.243693 1_565
F19 K0 2.594146 1_554
F19 K7 2.670593 1_555
F19 K9 2.683755 1_565
