# generated using pymatgen
data_AgH8C4S3(OF)3
_symmetry_space_group_name_H-M   'P 1'
_cell_length_a   21.95253200
_cell_length_b   9.24323400
_cell_length_c   11.19340883
_cell_angle_alpha   89.82066069
_cell_angle_beta   90.00000000
_cell_angle_gamma   90.00000000
_symmetry_Int_Tables_number   1
_chemical_formula_structural   AgH8C4S3(OF)3
_chemical_formula_sum   'Ag8 H64 C32 S24 O24 F24'
_cell_volume   2271.27021414
_cell_formula_units_Z   8
loop_
 _symmetry_equiv_pos_site_id
 _symmetry_equiv_pos_as_xyz
  1  'x, y, z'
loop_
 _atom_site_type_symbol
 _atom_site_label
 _atom_site_symmetry_multiplicity
 _atom_site_fract_x
 _atom_site_fract_y
 _atom_site_fract_z
 _atom_site_occupancy
  Ag  Ag0  1  0.75491200  0.75753600  0.24790200  1
  Ag  Ag1  1  0.25369300  0.73834000  0.16232000  1
  Ag  Ag2  1  0.25491200  0.24246400  0.25209800  1
  Ag  Ag3  1  0.24508800  0.24246400  0.75209800  1
  Ag  Ag4  1  0.75369300  0.26166000  0.33768000  1
  Ag  Ag5  1  0.74508800  0.75753600  0.74790200  1
  Ag  Ag6  1  0.24630700  0.73834000  0.66232000  1
  Ag  Ag7  1  0.74630700  0.26166000  0.83768000  1
  H  H0  1  0.26023600  0.95987400  0.43764500  1
  H  H1  1  0.38997000  0.07254400  0.78121500  1
  H  H2  1  0.57638900  0.66326100  0.52854700  1
  H  H3  1  0.10857800  0.88405400  0.23499500  1
  H  H4  1  0.39164300  0.40224300  0.33255200  1
  H  H5  1  0.32115200  0.53023800  0.45751800  1
  H  H6  1  0.37622400  0.02221700  0.62784800  1
  H  H7  1  0.39142200  0.88405400  0.73499500  1
  H  H8  1  0.09450700  0.70213800  0.55068800  1
  H  H9  1  0.89295700  0.42778500  0.86455500  1
  H  H10  1  0.10704300  0.57221500  0.13544500  1
  H  H11  1  0.11146300  0.88999900  0.57339800  1
  H  H12  1  0.58954400  0.78578200  0.65028000  1
  H  H13  1  0.92361100  0.66326100  0.02854700  1
  H  H14  1  0.59450700  0.29786200  0.94931200  1
  H  H15  1  0.90549300  0.29786200  0.44931200  1
  H  H16  1  0.87806800  0.48646200  0.71308200  1
  H  H17  1  0.24505300  0.46232900  0.47035800  1
  H  H18  1  0.67884800  0.46976200  0.54248200  1
  H  H19  1  0.11003000  0.07254400  0.28121500  1
  H  H20  1  0.81586300  0.97425300  0.54446500  1
  H  H21  1  0.23976400  0.95987400  0.93764500  1
  H  H22  1  0.07638900  0.33673900  0.97145300  1
  H  H23  1  0.61146300  0.11000100  0.92660200  1
  H  H24  1  0.25494700  0.46232900  0.97035800  1
  H  H25  1  0.12193200  0.51353800  0.28691800  1
  H  H26  1  0.73976400  0.04012600  0.56235500  1
  H  H27  1  0.60857800  0.11594600  0.26500500  1
  H  H28  1  0.41045600  0.21421800  0.34972000  1
  H  H29  1  0.42361100  0.33673900  0.47145300  1
  H  H30  1  0.18413700  0.02574700  0.45553500  1
  H  H31  1  0.91045600  0.78578200  0.15028000  1
  H  H32  1  0.10627900  0.38142000  0.17548500  1
  H  H33  1  0.74505300  0.53767100  0.02964200  1
  H  H34  1  0.60704300  0.42778500  0.36455500  1
  H  H35  1  0.62193200  0.48646200  0.21308200  1
  H  H36  1  0.08954400  0.21421800  0.84972000  1
  H  H37  1  0.17884800  0.53023800  0.95751800  1
  H  H38  1  0.61003000  0.92745600  0.21878500  1
  H  H39  1  0.08305600  0.82915400  0.43072600  1
  H  H40  1  0.60627900  0.61858000  0.32451500  1
  H  H41  1  0.89372100  0.61858000  0.82451500  1
  H  H42  1  0.75494700  0.53767100  0.52964200  1
  H  H43  1  0.87622400  0.97778300  0.87215200  1
  H  H44  1  0.89142200  0.11594600  0.76500500  1
  H  H45  1  0.40549300  0.70213800  0.05068800  1
  H  H46  1  0.76023600  0.04012600  0.06235500  1
  H  H47  1  0.89164300  0.59775700  0.16744800  1
  H  H48  1  0.91694400  0.17084600  0.56927400  1
  H  H49  1  0.39295700  0.57221500  0.63544500  1
  H  H50  1  0.12377600  0.02221700  0.12784800  1
  H  H51  1  0.58305600  0.17084600  0.06927400  1
  H  H52  1  0.60835700  0.59775700  0.66744800  1
  H  H53  1  0.37806800  0.51353800  0.78691800  1
  H  H54  1  0.82115200  0.46976200  0.04248200  1
  H  H55  1  0.68413700  0.97425300  0.04446500  1
  H  H56  1  0.39372100  0.38142000  0.67548500  1
  H  H57  1  0.41694400  0.82915400  0.93072600  1
  H  H58  1  0.38853700  0.88999900  0.07339800  1
  H  H59  1  0.88853700  0.11000100  0.42660200  1
  H  H60  1  0.62377600  0.97778300  0.37215200  1
  H  H61  1  0.88997000  0.92745600  0.71878500  1
  H  H62  1  0.31586300  0.02574700  0.95553500  1
  H  H63  1  0.10835700  0.40224300  0.83255200  1
  C  C0  1  0.61116200  0.19827900  0.99166900  1
  C  C1  1  0.12945100  0.99048300  0.22175200  1
  C  C2  1  0.05183400  0.27764100  0.52865300  1
  C  C3  1  0.87054900  0.00951700  0.77824800  1
  C  C4  1  0.70747800  0.55344000  0.50154500  1
  C  C5  1  0.37054900  0.99048300  0.72175200  1
  C  C6  1  0.38883800  0.80172100  0.00833100  1
  C  C7  1  0.88883800  0.19827900  0.49166900  1
  C  C8  1  0.44816600  0.27764100  0.02865300  1
  C  C9  1  0.11116200  0.80172100  0.50833100  1
  C  C10  1  0.95488500  0.21952400  0.13217700  1
  C  C11  1  0.62697100  0.51266600  0.30806600  1
  C  C12  1  0.87302900  0.51266600  0.80806600  1
  C  C13  1  0.12697100  0.48733400  0.19193400  1
  C  C14  1  0.55183400  0.72235900  0.97134700  1
  C  C15  1  0.89402800  0.68855900  0.10444900  1
  C  C16  1  0.29252200  0.44656000  0.49845500  1
  C  C17  1  0.45488500  0.78047600  0.36782300  1
  C  C18  1  0.60597200  0.68855900  0.60444900  1
  C  C19  1  0.21242700  0.94384300  0.41176700  1
  C  C20  1  0.79252200  0.55344000  0.00154500  1
  C  C21  1  0.20747800  0.44656000  0.99845500  1
  C  C22  1  0.10597200  0.31144100  0.89555100  1
  C  C23  1  0.94816600  0.72235900  0.47134700  1
  C  C24  1  0.71242700  0.05615700  0.08823300  1
  C  C25  1  0.39402800  0.31144100  0.39555100  1
  C  C26  1  0.78757300  0.05615700  0.58823300  1
  C  C27  1  0.04511500  0.78047600  0.86782300  1
  C  C28  1  0.37302900  0.48733400  0.69193400  1
  C  C29  1  0.62945100  0.00951700  0.27824800  1
  C  C30  1  0.54511500  0.21952400  0.63217700  1
  C  C31  1  0.28757300  0.94384300  0.91176700  1
  S  S0  1  0.81784000  0.72998400  0.05168800  1
  S  S1  1  0.79214300  0.52307500  0.84005600  1
  S  S2  1  0.31784000  0.27001600  0.44831200  1
  S  S3  1  0.78935400  0.02191500  0.74921600  1
  S  S4  1  0.21064600  0.97808500  0.25078400  1
  S  S5  1  0.18848300  0.76548000  0.46051700  1
  S  S6  1  0.63598500  0.69601600  0.96593900  1
  S  S7  1  0.28935400  0.97808500  0.75078400  1
  S  S8  1  0.13598500  0.30398400  0.53406100  1
  S  S9  1  0.36401500  0.30398400  0.03406100  1
  S  S10  1  0.70785700  0.52307500  0.34005600  1
  S  S11  1  0.68848300  0.23452000  0.03948300  1
  S  S12  1  0.68216000  0.72998400  0.55168800  1
  S  S13  1  0.86401500  0.69601600  0.46593900  1
  S  S14  1  0.62925100  0.19212600  0.62136700  1
  S  S15  1  0.81151700  0.23452000  0.53948300  1
  S  S16  1  0.29214300  0.47692500  0.65994400  1
  S  S17  1  0.20785700  0.47692500  0.15994400  1
  S  S18  1  0.31151700  0.76548000  0.96051700  1
  S  S19  1  0.71064600  0.02191500  0.24921600  1
  S  S20  1  0.12925100  0.80787400  0.87863300  1
  S  S21  1  0.18216000  0.27001600  0.94831200  1
  S  S22  1  0.87074900  0.19212600  0.12136700  1
  S  S23  1  0.37074900  0.80787400  0.37863300  1
  O  O0  1  0.63771100  0.04113500  0.65509100  1
  O  O1  1  0.13771100  0.95886500  0.84490900  1
  O  O2  1  0.65364200  0.29779100  0.70685600  1
  O  O3  1  0.36228900  0.95886500  0.34490900  1
  O  O4  1  0.85780100  0.22731000  0.99668200  1
  O  O5  1  0.35624400  0.45135700  0.07657800  1
  O  O6  1  0.84603300  0.72133100  0.58992100  1
  O  O7  1  0.64219900  0.22731000  0.49668200  1
  O  O8  1  0.86228900  0.04113500  0.15509100  1
  O  O9  1  0.65633500  0.80950900  0.88255500  1
  O  O10  1  0.34635800  0.70220900  0.29314400  1
  O  O11  1  0.15633500  0.19049100  0.61744500  1
  O  O12  1  0.34603300  0.27866900  0.91007900  1
  O  O13  1  0.34366500  0.19049100  0.11744500  1
  O  O14  1  0.84635800  0.29779100  0.20685600  1
  O  O15  1  0.65396700  0.72133100  0.08992100  1
  O  O16  1  0.14375600  0.45135700  0.57657800  1
  O  O17  1  0.64375600  0.54864300  0.92342200  1
  O  O18  1  0.14219900  0.77269000  0.00331800  1
  O  O19  1  0.85624400  0.54864300  0.42342200  1
  O  O20  1  0.84366500  0.80950900  0.38255500  1
  O  O21  1  0.35780100  0.77269000  0.50331800  1
  O  O22  1  0.15364200  0.70220900  0.79314400  1
  O  O23  1  0.15396700  0.27866900  0.41007900  1
  F  F0  1  0.97447700  0.69849900  0.36313700  1
  F  F1  1  0.48481300  0.86849200  0.44522100  1
  F  F2  1  0.52410700  0.19085600  0.74368700  1
  F  F3  1  0.47011500  0.64119600  0.39552800  1
  F  F4  1  0.51518700  0.13150800  0.55477900  1
  F  F5  1  0.01518700  0.86849200  0.94522100  1
  F  F6  1  0.53803000  0.85987400  0.00502600  1
  F  F7  1  0.03803000  0.14012600  0.49497400  1
  F  F8  1  0.02410700  0.80914400  0.75631300  1
  F  F9  1  0.02552300  0.30150100  0.63686300  1
  F  F10  1  0.47447700  0.30150100  0.13686300  1
  F  F11  1  0.97589300  0.19085600  0.24368700  1
  F  F12  1  0.52645800  0.63015400  0.05166100  1
  F  F13  1  0.52988500  0.35880400  0.60447200  1
  F  F14  1  0.02645800  0.36984600  0.44833900  1
  F  F15  1  0.47354200  0.36984600  0.94833900  1
  F  F16  1  0.46197000  0.14012600  0.99497400  1
  F  F17  1  0.52552300  0.69849900  0.86313700  1
  F  F18  1  0.02988500  0.64119600  0.89552800  1
  F  F19  1  0.97354200  0.63015400  0.55166100  1
  F  F20  1  0.47589300  0.80914400  0.25631300  1
  F  F21  1  0.98481300  0.13150800  0.05477900  1
  F  F22  1  0.96197000  0.85987400  0.50502600  1
  F  F23  1  0.97011500  0.35880400  0.10447200  1
loop_
_geom_bond_atom_site_label_1
_geom_bond_atom_site_label_2
_geom_bond_distance
_geom_bond_site_symmetry_2
Ag0 O20 2.510603 1_555
Ag0 S0 2.607768 1_555
Ag0 S10 2.610313 1_555
Ag0 S19 2.629923 1_565
Ag0 O15 2.855415 1_555
Ag1 O10 2.528031 1_555
Ag1 S18 2.602534 1_554
Ag1 S4 2.607299 1_555
Ag1 S17 2.617668 1_555
Ag2 O13 2.510603 1_555
Ag2 S2 2.607768 1_555
Ag2 S17 2.610313 1_555
Ag2 S4 2.629923 1_545
Ag2 O23 2.855415 1_555
Ag3 O11 2.510603 1_555
Ag3 S21 2.607768 1_555
Ag3 S16 2.610313 1_555
Ag3 S7 2.629923 1_545
Ag3 O12 2.855415 1_555
Ag4 O14 2.528031 1_555
Ag4 S15 2.602534 1_555
Ag4 S19 2.607299 1_555
Ag4 S10 2.617668 1_555
Ag5 O9 2.510603 1_555
Ag5 S12 2.607768 1_555
Ag5 S1 2.610313 1_555
Ag5 S3 2.629923 1_565
Ag5 O6 2.855415 1_555
Ag6 O22 2.528031 1_555
Ag6 S5 2.602534 1_555
Ag6 S7 2.607299 1_555
Ag6 S16 2.617668 1_555
Ag7 O2 2.528031 1_555
Ag7 S11 2.602534 1_556
Ag7 S3 2.607299 1_555
Ag7 S1 2.617668 1_555
C0 H51 1.094615 1_556
C0 H23 1.095459 1_555
C0 H14 1.096813 1_555
C0 S11 1.811330 1_556
C1 H3 1.094889 1_555
C1 H19 1.096940 1_565
C1 H50 1.097476 1_565
C1 S4 1.815373 1_555
C2 F14 1.356493 1_555
C2 F9 1.360524 1_555
C2 F7 1.361102 1_555
C3 H44 1.094889 1_555
C3 H61 1.096940 1_545
C3 H43 1.097476 1_545
C3 S3 1.815373 1_555
C4 H18 1.095900 1_555
C4 H42 1.098075 1_555
C4 S12 1.814541 1_555
C4 S10 1.830160 1_555
C5 H7 1.094889 1_555
C5 H1 1.096940 1_565
C5 H6 1.097476 1_565
C5 S7 1.815373 1_555
C6 H57 1.094615 1_554
C6 H58 1.095459 1_555
C6 H45 1.096813 1_555
C6 S18 1.811330 1_554
C7 H48 1.094615 1_555
C7 H59 1.095459 1_555
C7 H15 1.096813 1_555
C7 S15 1.811330 1_555
C8 F15 1.356493 1_554
C8 F10 1.360524 1_555
C8 F16 1.361102 1_554
C9 H39 1.094615 1_555
C9 H11 1.095459 1_555
C9 H8 1.096813 1_555
C9 S5 1.811330 1_555
C10 F11 1.356016 1_555
C10 F21 1.359588 1_555
C10 F23 1.364861 1_555
C11 H40 1.095345 1_555
C11 H35 1.096767 1_555
C11 H34 1.097106 1_555
C11 S10 1.814010 1_555
C12 H41 1.095345 1_555
C12 H16 1.096767 1_555
C12 H9 1.097106 1_555
C12 S1 1.814010 1_555
C13 H32 1.095345 1_555
C13 H25 1.096767 1_555
C13 H10 1.097106 1_555
C13 S17 1.814010 1_555
C14 F12 1.356493 1_556
C14 F17 1.360524 1_555
C14 F6 1.361102 1_556
C15 H13 1.095215 1_555
C15 H47 1.095782 1_555
C15 H31 1.097132 1_555
C15 S0 1.814194 1_555
C16 H5 1.095900 1_555
C16 H17 1.098075 1_555
C16 S2 1.814541 1_555
C16 S16 1.830160 1_555
C17 F20 1.356016 1_555
C17 F1 1.359588 1_555
C17 F3 1.364861 1_555
C18 H2 1.095215 1_555
C18 H52 1.095782 1_555
C18 H12 1.097132 1_555
C18 S12 1.814194 1_555
C19 H30 1.095975 1_565
C19 H0 1.098927 1_555
C19 S5 1.812863 1_555
C19 S4 1.828976 1_555
C20 H54 1.095900 1_555
C20 H33 1.098075 1_555
C20 S0 1.814541 1_555
C20 S1 1.830160 1_554
C21 H37 1.095900 1_555
C21 H24 1.098075 1_555
C21 S21 1.814541 1_555
C21 S17 1.830160 1_556
C22 H22 1.095215 1_555
C22 H63 1.095782 1_555
C22 H36 1.097132 1_555
C22 S21 1.814194 1_555
C23 F19 1.356493 1_555
C23 F0 1.360524 1_555
C23 F22 1.361102 1_555
C24 H55 1.095975 1_545
C24 H46 1.098927 1_555
C24 S11 1.812863 1_555
C24 S19 1.828976 1_555
C25 H29 1.095215 1_555
C25 H4 1.095782 1_555
C25 H28 1.097132 1_555
C25 S2 1.814194 1_555
C26 H20 1.095975 1_545
C26 H26 1.098927 1_555
C26 S15 1.812863 1_555
C26 S3 1.828976 1_555
C27 F8 1.356016 1_555
C27 F5 1.359588 1_555
C27 F18 1.364861 1_555
C28 H56 1.095345 1_555
C28 H53 1.096767 1_555
C28 H49 1.097106 1_555
C28 S16 1.814010 1_555
C29 H27 1.094889 1_555
C29 H38 1.096940 1_545
C29 H60 1.097476 1_545
C29 S19 1.815373 1_555
C30 F2 1.356016 1_555
C30 F4 1.359588 1_555
C30 F13 1.364861 1_555
C31 H62 1.095975 1_565
C31 H21 1.098927 1_555
C31 S18 1.812863 1_555
C31 S7 1.828976 1_555
O0 S14 1.456542 1_555
O1 S20 1.456542 1_555
O2 S14 1.470425 1_555
O3 S23 1.456542 1_555
O4 S22 1.459985 1_556
O5 S9 1.454389 1_555
O6 S13 1.462378 1_555
O7 S14 1.459985 1_555
O8 S22 1.456542 1_555
O9 S6 1.471420 1_555
O10 S23 1.470425 1_555
O11 S8 1.471420 1_555
O12 S9 1.462378 1_556
O13 S9 1.471420 1_555
O14 S22 1.470425 1_555
O15 S6 1.462378 1_554
O16 S8 1.454389 1_555
O17 S6 1.454389 1_555
O18 S20 1.459985 1_554
O19 S13 1.454389 1_555
O20 S13 1.471420 1_555
O21 S23 1.459985 1_555
O22 S20 1.470425 1_555
O23 S8 1.462378 1_555
