# generated using pymatgen
data_La2Cu2O5
_symmetry_space_group_name_H-M   'P 1'
_cell_length_a   3.76783150
_cell_length_b   7.21586167
_cell_length_c   27.00196920
_cell_angle_alpha   87.23848659
_cell_angle_beta   85.95679036
_cell_angle_gamma   74.84619586
_symmetry_Int_Tables_number   1
_chemical_formula_structural   La2Cu2O5
_chemical_formula_sum   'La12 Cu12 O30'
_cell_volume   706.50496678
_cell_formula_units_Z   6
loop_
 _symmetry_equiv_pos_site_id
 _symmetry_equiv_pos_as_xyz
  1  'x, y, z'
loop_
 _atom_site_type_symbol
 _atom_site_label
 _atom_site_symmetry_multiplicity
 _atom_site_fract_x
 _atom_site_fract_y
 _atom_site_fract_z
 _atom_site_occupancy
  La  La0  1  0.36894106  0.49195189  0.23115115  1
  La  La1  1  0.12922800  0.84750530  0.40275495  1
  La  La2  1  0.62807519  0.50902039  0.76840748  1
  La  La3  1  0.08593819  0.00608481  0.26860639  1
  La  La4  1  0.63670087  0.67442274  0.63500133  1
  La  La5  1  0.91092076  0.99262860  0.73212481  1
  La  La6  1  0.86121270  0.15465805  0.59743944  1
  La  La7  1  0.38400888  0.65127268  0.09709651  1
  La  La8  1  0.06435116  0.17208920  0.13432625  1
  La  La9  1  0.37125864  0.32618283  0.36523530  1
  La  La10  1  0.94094359  0.82678896  0.86586254  1
  La  La11  1  0.62250007  0.34759612  0.90226620  1
  Cu  Cu0  1  0.74053131  0.66537174  0.31940105  1
  Cu  Cu1  1  0.74394932  0.98081902  0.03992708  1
  Cu  Cu2  1  0.56401456  0.16159502  0.47112969  1
  Cu  Cu3  1  0.80289053  0.65719366  0.97115533  1
  Cu  Cu4  1  0.43119304  0.84097091  0.52912181  1
  Cu  Cu5  1  0.26948557  0.16780585  0.81976219  1
  Cu  Cu6  1  0.72317378  0.83440377  0.18077495  1
  Cu  Cu7  1  0.77217826  0.51635000  0.46037382  1
  Cu  Cu8  1  0.26058338  0.33073560  0.68119389  1
  Cu  Cu9  1  0.22838229  0.48619348  0.54021098  1
  Cu  Cu10  1  0.25242729  0.01368077  0.96036887  1
  Cu  Cu11  1  0.20475306  0.33616109  0.02845247  1
  O  O0  1  0.50534892  0.68027095  0.91288370  1
  O  O1  1  0.26260535  0.08649378  0.89000824  1
  O  O2  1  0.60170333  0.88209871  0.46135998  1
  O  O3  1  0.73266728  0.74544913  0.24977269  1
  O  O4  1  0.73020380  0.91185323  0.11057312  1
  O  O5  1  0.22238678  0.83467386  0.18109851  1
  O  O6  1  0.26615951  0.24945828  0.75031969  1
  O  O7  1  0.24308860  0.41178445  0.61122187  1
  O  O8  1  0.88369921  0.49354094  0.16189011  1
  O  O9  1  0.77026718  0.16592517  0.81980126  1
  O  O10  1  0.30390752  0.44674841  0.46423213  1
  O  O11  1  0.38832869  0.12093226  0.53894691  1
  O  O12  1  0.21213793  0.04638689  0.03574706  1
  O  O13  1  0.54420832  0.00464852  0.33745323  1
  O  O14  1  0.05841613  0.37845363  0.96069701  1
  O  O15  1  0.95042675  0.61770312  0.03866962  1
  O  O16  1  0.76033539  0.58790940  0.38975684  1
  O  O17  1  0.45322500  0.83518157  0.79136872  1
  O  O18  1  0.09725001  0.81969298  0.58742032  1
  O  O19  1  0.10948896  0.50662448  0.83740614  1
  O  O20  1  0.90405807  0.18046510  0.41268061  1
  O  O21  1  0.45806894  0.99394053  0.66322473  1
  O  O22  1  0.90990546  0.33144272  0.29111594  1
  O  O23  1  0.78711034  0.94262416  0.96458757  1
  O  O24  1  0.70009201  0.54957921  0.53562395  1
  O  O25  1  0.49878037  0.31728847  0.08689620  1
  O  O26  1  0.08520895  0.66662651  0.70921173  1
  O  O27  1  0.75691547  0.33772847  0.68172568  1
  O  O28  1  0.24156555  0.66348537  0.31896223  1
  O  O29  1  0.53339368  0.16497922  0.20846374  1
loop_
_geom_bond_atom_site_label_1
_geom_bond_atom_site_label_2
_geom_bond_distance
_geom_bond_site_symmetry_2
La0 O29 2.376415 1_555
La0 O8 2.599523 1_555
La0 O3 2.640476 1_455
La0 O3 2.640719 1_555
La0 O22 2.677335 1_555
La0 O28 2.682558 1_555
La0 O8 2.703625 1_455
La0 O5 2.704929 1_555
La0 O22 2.725118 1_455
La1 O20 2.351243 1_465
La1 O2 2.419138 1_455
La1 O2 2.530465 1_555
La1 O16 2.627428 1_555
La1 O28 2.631005 1_555
La1 O16 2.656568 1_455
La1 O13 2.680522 1_565
La1 O13 2.881376 1_465
La1 O10 3.201215 1_555
La2 O17 2.372742 1_555
La2 O19 2.605867 1_555
La2 O27 2.654533 1_555
La2 O6 2.663643 1_655
La2 O26 2.664908 1_555
La2 O6 2.668973 1_555
La2 O19 2.686761 1_655
La2 O26 2.697342 1_655
La2 O9 2.724407 1_555
La3 O22 2.363840 1_455
La3 O13 2.622760 1_555
La3 O3 2.657790 1_445
La3 O13 2.663904 1_455
La3 O5 2.674930 1_545
La3 O29 2.690610 1_555
La3 O3 2.693495 1_545
La3 O28 2.708286 1_545
La3 O29 2.708419 1_455
La4 O21 2.373861 1_555
La4 O18 2.450577 1_555
La4 O18 2.503499 1_655
La4 O7 2.621190 1_655
La4 O27 2.628587 1_555
La4 O26 2.700225 1_655
La4 O26 2.792733 1_555
La4 O7 2.815033 1_555
La4 O24 2.845908 1_555
La5 O26 2.371296 1_655
La5 O21 2.609632 1_555
La5 O6 2.635293 1_665
La5 O17 2.664028 1_655
La5 O6 2.672682 1_565
La5 O21 2.679366 1_655
La5 O9 2.685364 1_565
La5 O17 2.698883 1_555
La5 O27 2.723803 1_565
La6 O18 2.368868 1_645
La6 O11 2.416669 1_655
La6 O11 2.527641 1_555
La6 O7 2.586552 1_555
La6 O27 2.640333 1_555
La6 O21 2.673871 1_545
La6 O7 2.681234 1_655
La6 O21 2.925564 1_645
La6 O24 3.171030 1_555
La7 O25 2.360758 1_555
La7 O15 2.413225 1_455
La7 O15 2.528644 1_555
La7 O4 2.604737 1_555
La7 O5 2.634417 1_555
La7 O8 2.655824 1_555
La7 O4 2.693375 1_455
La7 O8 2.893905 1_455
La7 O12 3.165934 1_565
La8 O8 2.380553 1_455
La8 O25 2.426722 1_555
La8 O25 2.523345 1_455
La8 O5 2.632364 1_545
La8 O4 2.643614 1_445
La8 O29 2.737027 1_455
La8 O29 2.752257 1_555
La8 O4 2.767281 1_545
La8 O12 2.824486 1_555
La9 O13 2.383022 1_555
La9 O20 2.430267 1_555
La9 O20 2.523002 1_455
La9 O28 2.625871 1_555
La9 O16 2.633710 1_455
La9 O22 2.734482 1_455
La9 O22 2.754283 1_555
La9 O16 2.803411 1_555
La9 O10 2.824852 1_555
La10 O19 2.380378 1_655
La10 O0 2.430541 1_555
La10 O0 2.515575 1_655
La10 O1 2.611973 1_665
La10 O9 2.635485 1_565
La10 O17 2.697633 1_655
La10 O1 2.801423 1_565
La10 O17 2.806774 1_555
La10 O23 2.807927 1_555
La11 O0 2.352464 1_555
La11 O14 2.413922 1_655
La11 O14 2.523813 1_555
La11 O9 2.590674 1_555
La11 O1 2.637654 1_555
La11 O1 2.654792 1_655
La11 O19 2.691534 1_555
La11 O19 2.864420 1_655
Cu0 O28 1.883504 1_655
Cu0 O28 1.884498 1_555
Cu0 O3 1.940045 1_555
Cu0 O16 1.955223 1_555
Cu0 O13 2.428101 1_565
Cu0 O22 2.470086 1_555
Cu1 O12 1.936910 1_665
Cu1 O12 1.944941 1_565
Cu1 O4 1.948660 1_555
Cu1 O23 2.055428 1_554
Cu1 O15 2.531979 1_555
Cu2 O11 1.938144 1_555
Cu2 O20 1.984006 1_555
Cu2 O2 2.013334 1_545
Cu2 O10 2.040468 1_555
Cu3 O15 1.929675 1_556
Cu3 O0 1.971346 1_555
Cu3 O14 2.013993 1_655
Cu3 O23 2.044337 1_555
Cu4 O2 1.931380 1_555
Cu4 O18 1.970577 1_555
Cu4 O11 2.013093 1_565
Cu4 O24 2.086664 1_555
Cu5 O9 1.883433 1_555
Cu5 O9 1.884490 1_455
Cu5 O6 1.938103 1_555
Cu5 O1 1.958697 1_555
Cu5 O19 2.422590 1_555
Cu5 O17 2.462036 1_545
Cu6 O5 1.882097 1_655
Cu6 O5 1.885777 1_555
Cu6 O3 1.940748 1_555
Cu6 O4 1.950606 1_555
Cu6 O29 2.442345 1_565
Cu6 O8 2.444413 1_555
Cu7 O10 1.943012 1_655
Cu7 O10 1.951513 1_555
Cu7 O16 1.951814 1_555
Cu7 O24 2.048160 1_555
Cu7 O2 2.548860 1_555
Cu8 O27 1.884228 1_455
Cu8 O27 1.884994 1_555
Cu8 O6 1.929237 1_555
Cu8 O7 1.951174 1_555
Cu8 O21 2.410925 1_545
Cu8 O26 2.480396 1_555
Cu9 O24 1.933904 1_455
Cu9 O24 1.942144 1_555
Cu9 O7 1.966758 1_555
Cu9 O10 2.074261 1_555
Cu9 O11 2.546852 1_555
Cu10 O23 1.945740 1_445
Cu10 O1 1.947082 1_555
Cu10 O23 1.954777 1_545
Cu10 O12 2.050711 1_556
Cu10 O14 2.541265 1_555
Cu11 O14 1.935150 1_554
Cu11 O25 1.970585 1_555
Cu11 O15 2.029915 1_455
Cu11 O12 2.083842 1_555
