# generated using pymatgen
data_Ti10O11
_symmetry_space_group_name_H-M   'P 1'
_cell_length_a   6.70541200
_cell_length_b   6.80382116
_cell_length_c   10.42604434
_cell_angle_alpha   94.78692280
_cell_angle_beta   105.58172584
_cell_angle_gamma   109.18298834
_symmetry_Int_Tables_number   1
_chemical_formula_structural   Ti10O11
_chemical_formula_sum   'Ti20 O22'
_cell_volume   424.96116754
_cell_formula_units_Z   2
loop_
 _symmetry_equiv_pos_site_id
 _symmetry_equiv_pos_as_xyz
  1  'x, y, z'
loop_
 _atom_site_type_symbol
 _atom_site_label
 _atom_site_symmetry_multiplicity
 _atom_site_fract_x
 _atom_site_fract_y
 _atom_site_fract_z
 _atom_site_occupancy
  Ti  Ti0  1  0.50000000  0.00000000  0.50000000  1
  Ti  Ti1  1  0.50000000  0.00000000  0.00000000  1
  Ti  Ti2  1  0.12616600  0.18323500  0.94505200  1
  Ti  Ti3  1  0.33507400  0.09006700  0.73981200  1
  Ti  Ti4  1  0.97531700  0.27982900  0.70295000  1
  Ti  Ti5  1  0.12926300  0.19196700  0.43301400  1
  Ti  Ti6  1  0.75863000  0.36157000  0.38890700  1
  Ti  Ti7  1  0.97631700  0.28322700  0.19659000  1
  Ti  Ti8  1  0.60938700  0.46927600  0.15430900  1
  Ti  Ti9  1  0.75714300  0.34099900  0.88921700  1
  Ti  Ti10  1  0.39061300  0.53072400  0.84569100  1
  Ti  Ti11  1  0.59807700  0.46882600  0.63620900  1
  Ti  Ti12  1  0.24137000  0.63843000  0.61109300  1
  Ti  Ti13  1  0.40192300  0.53117400  0.36379100  1
  Ti  Ti14  1  0.02468300  0.72017100  0.29705000  1
  Ti  Ti15  1  0.24285700  0.65900100  0.11078300  1
  Ti  Ti16  1  0.87383400  0.81676500  0.05494800  1
  Ti  Ti17  1  0.02368300  0.71677300  0.80341000  1
  Ti  Ti18  1  0.87073700  0.80803300  0.56698600  1
  Ti  Ti19  1  0.66492600  0.90993300  0.26018800  1
  O  O0  1  0.09807200  0.48503000  0.40235400  1
  O  O1  1  0.90103400  0.52241800  0.09511600  1
  O  O2  1  0.09896600  0.47758200  0.90488400  1
  O  O3  1  0.72299300  0.62901400  0.84807000  1
  O  O4  1  0.90192800  0.51497000  0.59764600  1
  O  O5  1  0.54286100  0.73456400  0.56637000  1
  O  O6  1  0.73240500  0.66293600  0.35656000  1
  O  O7  1  0.36439900  0.82199500  0.30784000  1
  O  O8  1  0.53860400  0.71445700  0.05558300  1
  O  O9  1  0.17142000  0.90116000  0.00905400  1
  O  O10  1  0.36893100  0.81787200  0.80387700  1
  O  O11  1  0.99887300  0.99867800  0.75374300  1
  O  O12  1  0.17675100  0.90684100  0.51950500  1
  O  O13  1  0.82324900  0.09315900  0.48049500  1
  O  O14  1  0.00112700  0.00132200  0.24625700  1
  O  O15  1  0.63106900  0.18212800  0.19612300  1
  O  O16  1  0.82858000  0.09884000  0.99094600  1
  O  O17  1  0.46139600  0.28554300  0.94441700  1
  O  O18  1  0.63560100  0.17800500  0.69216000  1
  O  O19  1  0.26759500  0.33706400  0.64344000  1
  O  O20  1  0.45713900  0.26543600  0.43363000  1
  O  O21  1  0.27700700  0.37098600  0.15193000  1
loop_
_geom_bond_atom_site_label_1
_geom_bond_atom_site_label_2
_geom_bond_distance
_geom_bond_site_symmetry_2
O0 Ti13 2.110020 1_555
O0 Ti6 2.111476 1_455
O0 Ti5 2.113358 1_555
O0 Ti14 2.127768 1_555
O0 Ti12 2.141818 1_555
O0 Ti7 2.232682 1_455
O1 Ti15 2.125459 1_655
O1 Ti8 2.134706 1_555
O1 Ti16 2.135038 1_555
O1 Ti7 2.136103 1_555
O1 Ti9 2.173768 1_554
O1 Ti14 2.187843 1_655
O2 Ti9 2.125459 1_455
O2 Ti10 2.134706 1_555
O2 Ti2 2.135038 1_555
O2 Ti17 2.136103 1_555
O2 Ti15 2.173768 1_556
O2 Ti4 2.187843 1_455
O3 Ti17 2.097187 1_655
O3 Ti10 2.098376 1_555
O3 Ti9 2.111622 1_555
O3 Ti11 2.184690 1_555
O3 Ti16 2.196853 1_556
O4 Ti11 2.110020 1_555
O4 Ti12 2.111476 1_655
O4 Ti18 2.113358 1_555
O4 Ti4 2.127768 1_555
O4 Ti6 2.141818 1_555
O4 Ti17 2.232682 1_655
O5 Ti0 2.065387 1_565
O5 Ti18 2.086423 1_555
O5 Ti12 2.102506 1_555
O5 Ti11 2.109758 1_555
O5 Ti13 2.202154 1_555
O6 Ti13 2.124990 1_555
O6 Ti14 2.137670 1_655
O6 Ti19 2.139103 1_555
O6 Ti18 2.142826 1_555
O6 Ti6 2.160897 1_555
O6 Ti8 2.179597 1_555
O7 Ti0 2.049421 1_565
O7 Ti15 2.059455 1_555
O7 Ti19 2.112058 1_555
O7 Ti14 2.119864 1_555
O7 Ti13 2.181700 1_555
O8 Ti16 2.125540 1_555
O8 Ti15 2.136340 1_555
O8 Ti8 2.147558 1_555
O8 Ti1 2.148269 1_565
O8 Ti19 2.202812 1_555
O8 Ti10 2.213112 1_554
O9 Ti16 2.084767 1_455
O9 Ti1 2.112851 1_565
O9 Ti15 2.146247 1_555
O9 Ti2 2.169865 1_564
O9 Ti17 2.178412 1_554
O10 Ti12 2.059790 1_555
O10 Ti10 2.079163 1_555
O10 Ti3 2.080569 1_565
O10 Ti1 2.094051 1_566
O10 Ti17 2.186191 1_555
O11 Ti18 2.039452 1_555
O11 Ti2 2.060760 1_665
O11 Ti4 2.070576 1_565
O11 Ti17 2.074572 1_655
O11 Ti3 2.181669 1_665
O12 Ti0 2.120541 1_565
O12 Ti18 2.145278 1_455
O12 Ti12 2.241306 1_555
O12 Ti5 2.285087 1_565
O12 Ti3 2.302037 1_565
O12 Ti14 2.327843 1_555
O13 Ti0 2.120541 1_555
O13 Ti5 2.145278 1_655
O13 Ti6 2.241306 1_555
O13 Ti18 2.285087 1_545
O13 Ti19 2.302037 1_545
O13 Ti4 2.327843 1_555
O14 Ti5 2.039452 1_555
O14 Ti16 2.060760 1_445
O14 Ti14 2.070576 1_545
O14 Ti7 2.074572 1_455
O14 Ti19 2.181669 1_445
O15 Ti6 2.059790 1_555
O15 Ti8 2.079163 1_555
O15 Ti19 2.080569 1_545
O15 Ti1 2.094051 1_555
O15 Ti7 2.186191 1_555
O16 Ti2 2.084767 1_655
O16 Ti1 2.112851 1_556
O16 Ti9 2.146247 1_555
O16 Ti16 2.169865 1_546
O16 Ti7 2.178412 1_556
O17 Ti2 2.125540 1_555
O17 Ti9 2.136340 1_555
O17 Ti10 2.147558 1_555
O17 Ti1 2.148269 1_556
O17 Ti3 2.202812 1_555
O17 Ti8 2.213112 1_556
O18 Ti0 2.049421 1_555
O18 Ti9 2.059455 1_555
O18 Ti3 2.112058 1_555
O18 Ti4 2.119864 1_555
O18 Ti11 2.181700 1_555
O19 Ti11 2.124990 1_555
O19 Ti4 2.137670 1_455
O19 Ti3 2.139103 1_555
O19 Ti5 2.142826 1_555
O19 Ti12 2.160897 1_555
O19 Ti10 2.179597 1_555
O20 Ti0 2.065387 1_555
O20 Ti5 2.086423 1_555
O20 Ti6 2.102506 1_555
O20 Ti13 2.109758 1_555
O20 Ti11 2.202154 1_555
O21 Ti7 2.097187 1_455
O21 Ti8 2.098376 1_555
O21 Ti15 2.111622 1_555
O21 Ti13 2.184690 1_555
O21 Ti2 2.196853 1_554
