# generated using pymatgen
data_Fe3WC14(SO7)2
_symmetry_space_group_name_H-M   'P 1'
_cell_length_a   11.65363665
_cell_length_b   11.65363665
_cell_length_c   9.04386589
_cell_angle_alpha   84.13343003
_cell_angle_beta   84.13343003
_cell_angle_gamma   79.15348386
_symmetry_Int_Tables_number   1
_chemical_formula_structural   Fe3WC14(SO7)2
_chemical_formula_sum   'Fe6 W2 C28 S4 O28'
_cell_volume   1195.62656160
_cell_formula_units_Z   2
loop_
 _symmetry_equiv_pos_site_id
 _symmetry_equiv_pos_as_xyz
  1  'x, y, z'
loop_
 _atom_site_type_symbol
 _atom_site_label
 _atom_site_symmetry_multiplicity
 _atom_site_fract_x
 _atom_site_fract_y
 _atom_site_fract_z
 _atom_site_occupancy
  Fe  Fe0  1  0.85248900  0.85248900  0.43686000  1
  Fe  Fe1  1  0.25984000  0.02916400  0.78793300  1
  Fe  Fe2  1  0.14751100  0.14751100  0.56314000  1
  Fe  Fe3  1  0.97083600  0.74016000  0.21206700  1
  Fe  Fe4  1  0.74016000  0.97083600  0.21206700  1
  Fe  Fe5  1  0.02916400  0.25984000  0.78793300  1
  W  W0  1  0.36579500  0.36579500  0.75198500  1
  W  W1  1  0.63420500  0.63420500  0.24801500  1
  C  C0  1  0.26163100  0.87145400  0.79372300  1
  C  C1  1  0.99221100  0.58500000  0.27723700  1
  C  C2  1  0.22753600  0.22753600  0.41907300  1
  C  C3  1  0.71008200  0.51868400  0.41559900  1
  C  C4  1  0.27058300  0.03066000  0.98283300  1
  C  C5  1  0.52327000  0.52327000  0.22389900  1
  C  C6  1  0.80072000  0.98786900  0.51835900  1
  C  C7  1  0.77246400  0.77246400  0.58092700  1
  C  C8  1  0.00778900  0.41500000  0.72276300  1
  C  C9  1  0.96934000  0.72941700  0.01716700  1
  C  C10  1  0.01213100  0.19928000  0.48164100  1
  C  C11  1  0.47673000  0.47673000  0.77610100  1
  C  C12  1  0.03066000  0.27058300  0.98283300  1
  C  C13  1  0.87145400  0.26163100  0.79372300  1
  C  C14  1  0.48131600  0.28991800  0.58440100  1
  C  C15  1  0.74646600  0.54951500  0.08520300  1
  C  C16  1  0.19928000  0.01213100  0.48164100  1
  C  C17  1  0.45048500  0.25353400  0.91479700  1
  C  C18  1  0.12854600  0.73836900  0.20627700  1
  C  C19  1  0.51868400  0.71008200  0.41559900  1
  C  C20  1  0.54951500  0.74646600  0.08520300  1
  C  C21  1  0.73836900  0.12854600  0.20627700  1
  C  C22  1  0.25353400  0.45048500  0.91479700  1
  C  C23  1  0.98786900  0.80072000  0.51835900  1
  C  C24  1  0.41500000  0.00778900  0.72276300  1
  C  C25  1  0.72941700  0.96934000  0.01716700  1
  C  C26  1  0.28991800  0.48131600  0.58440100  1
  C  C27  1  0.58500000  0.99221100  0.27723700  1
  S  S0  1  0.22496300  0.22496300  0.74204600  1
  S  S1  1  0.06280500  0.06280500  0.77811500  1
  S  S2  1  0.93719500  0.93719500  0.22188500  1
  S  S3  1  0.77503700  0.77503700  0.25795400  1
  O  O0  1  0.26061200  0.77210300  0.80627500  1
  O  O1  1  0.25289500  0.54632700  0.48703700  1
  O  O2  1  0.27524800  0.03558900  0.10897700  1
  O  O3  1  0.53995200  0.53995200  0.79387900  1
  O  O4  1  0.46004800  0.46004800  0.20612100  1
  O  O5  1  0.80654200  0.49857600  0.99325800  1
  O  O6  1  0.45367300  0.74710500  0.51296300  1
  O  O7  1  0.19345800  0.50142400  0.00674200  1
  O  O8  1  0.99024800  0.51271700  0.67894400  1
  O  O9  1  0.72243900  0.72243900  0.67552400  1
  O  O10  1  0.48728300  0.00975200  0.32105600  1
  O  O11  1  0.27756100  0.27756100  0.32447600  1
  O  O12  1  0.96441100  0.72475200  0.89102300  1
  O  O13  1  0.03558900  0.27524800  0.10897700  1
  O  O14  1  0.23066000  0.92720500  0.42102800  1
  O  O15  1  0.22789700  0.73938800  0.19372500  1
  O  O16  1  0.51271700  0.99024800  0.67894400  1
  O  O17  1  0.49857600  0.80654200  0.99325800  1
  O  O18  1  0.92720500  0.23066000  0.42102800  1
  O  O19  1  0.50142400  0.19345800  0.00674200  1
  O  O20  1  0.07279500  0.76934000  0.57897200  1
  O  O21  1  0.72475200  0.96441100  0.89102300  1
  O  O22  1  0.74710500  0.45367300  0.51296300  1
  O  O23  1  0.73938800  0.22789700  0.19372500  1
  O  O24  1  0.77210300  0.26061200  0.80627500  1
  O  O25  1  0.00975200  0.48728300  0.32105600  1
  O  O26  1  0.76934000  0.07279500  0.57897200  1
  O  O27  1  0.54632700  0.25289500  0.48703700  1
loop_
_geom_bond_atom_site_label_1
_geom_bond_atom_site_label_2
_geom_bond_distance
_geom_bond_site_symmetry_2
Fe0 S3 2.269579 1_555
Fe0 S2 2.304533 1_555
Fe1 S0 2.244050 1_555
Fe1 S1 2.264898 1_555
Fe2 S0 2.269579 1_555
Fe2 S1 2.304533 1_555
Fe3 S3 2.244050 1_555
Fe3 S2 2.264898 1_555
Fe4 S3 2.244050 1_555
Fe4 S2 2.264898 1_555
Fe5 S0 2.244050 1_555
Fe5 S1 2.264898 1_555
C0 O0 1.153933 1_555
C0 Fe1 1.829521 1_565
C1 O25 1.154254 1_655
C1 Fe3 1.822519 1_555
C2 O11 1.155695 1_555
C2 Fe2 1.807640 1_555
C3 O22 1.163513 1_555
C3 W1 2.073682 1_555
C4 O2 1.155420 1_556
C4 Fe1 1.781888 1_555
C5 O4 1.168001 1_555
C5 W1 2.033349 1_555
C6 O26 1.160793 1_565
C6 Fe0 1.784620 1_555
C7 O9 1.155695 1_555
C7 Fe0 1.807640 1_555
C8 O8 1.154254 1_455
C8 Fe5 1.822519 1_555
C9 O12 1.155420 1_554
C9 Fe3 1.781888 1_555
C10 O18 1.160793 1_455
C10 Fe2 1.784620 1_555
C11 O3 1.168001 1_555
C11 W0 2.033349 1_555
C12 O13 1.155420 1_556
C12 Fe5 1.781888 1_555
C13 O24 1.153933 1_555
C13 Fe5 1.829521 1_655
C14 O27 1.163513 1_555
C14 W0 2.073682 1_555
C15 O5 1.165966 1_554
C15 W1 2.066647 1_555
C16 O14 1.160793 1_545
C16 Fe2 1.784620 1_555
C17 O19 1.165966 1_556
C17 W0 2.066647 1_555
C18 O15 1.153933 1_555
C18 Fe3 1.829521 1_455
C19 O6 1.163513 1_555
C19 W1 2.073682 1_555
C20 O17 1.165966 1_554
C20 W1 2.066647 1_555
C21 O23 1.153933 1_555
C21 Fe4 1.829521 1_545
C22 O7 1.165966 1_556
C22 W0 2.066647 1_555
C23 O20 1.160793 1_655
C23 Fe0 1.784620 1_555
C24 O16 1.154254 1_545
C24 Fe1 1.822519 1_555
C25 O21 1.155420 1_554
C25 Fe4 1.781888 1_555
C26 O1 1.163513 1_555
C26 W0 2.073682 1_555
C27 O10 1.154254 1_565
C27 Fe4 1.822519 1_555
S0 W0 2.543470 1_555
S3 W1 2.543470 1_555
