# generated using pymatgen
data_ZnH4SeO6
_symmetry_space_group_name_H-M   'P 1'
_cell_length_a   9.09416000
_cell_length_b   10.33076100
_cell_length_c   10.53141700
_cell_angle_alpha   90.00000000
_cell_angle_beta   90.00000000
_cell_angle_gamma   90.00000000
_symmetry_Int_Tables_number   1
_chemical_formula_structural   ZnH4SeO6
_chemical_formula_sum   'Zn8 H32 Se8 O48'
_cell_volume   989.42234566
_cell_formula_units_Z   8
loop_
 _symmetry_equiv_pos_site_id
 _symmetry_equiv_pos_as_xyz
  1  'x, y, z'
loop_
 _atom_site_type_symbol
 _atom_site_label
 _atom_site_symmetry_multiplicity
 _atom_site_fract_x
 _atom_site_fract_y
 _atom_site_fract_z
 _atom_site_occupancy
  Zn  Zn0  1  0.83569900  0.87204800  0.66889300  1
  Zn  Zn1  1  0.66430100  0.87204800  0.16889300  1
  Zn  Zn2  1  0.16430100  0.62795200  0.16889300  1
  Zn  Zn3  1  0.33569900  0.62795200  0.66889300  1
  Zn  Zn4  1  0.16430100  0.12795200  0.33110700  1
  Zn  Zn5  1  0.66430100  0.37204800  0.33110700  1
  Zn  Zn6  1  0.83569900  0.37204800  0.83110700  1
  Zn  Zn7  1  0.33569900  0.12795200  0.83110700  1
  H  H0  1  0.33107200  0.82453200  0.08750300  1
  H  H1  1  0.85229900  0.43882400  0.51656100  1
  H  H2  1  0.38182600  0.46101400  0.09522500  1
  H  H3  1  0.30812000  0.87040300  0.67391800  1
  H  H4  1  0.66892800  0.17546800  0.91249700  1
  H  H5  1  0.83107200  0.67546800  0.08750300  1
  H  H6  1  0.16892800  0.82453200  0.58750300  1
  H  H7  1  0.35229900  0.06117600  0.51656100  1
  H  H8  1  0.64770100  0.93882400  0.48343900  1
  H  H9  1  0.33107200  0.32453200  0.41249700  1
  H  H10  1  0.80812000  0.12959700  0.82608200  1
  H  H11  1  0.19188000  0.87040300  0.17391800  1
  H  H12  1  0.88182600  0.53898600  0.40477500  1
  H  H13  1  0.83107200  0.17546800  0.41249700  1
  H  H14  1  0.14770100  0.56117600  0.48343900  1
  H  H15  1  0.38182600  0.96101400  0.40477500  1
  H  H16  1  0.30812000  0.37040300  0.82608200  1
  H  H17  1  0.66892800  0.67546800  0.58750300  1
  H  H18  1  0.64770100  0.43882400  0.01656100  1
  H  H19  1  0.80812000  0.62959700  0.67391800  1
  H  H20  1  0.19188000  0.37040300  0.32608200  1
  H  H21  1  0.61817400  0.03898600  0.59522500  1
  H  H22  1  0.69188000  0.12959700  0.32608200  1
  H  H23  1  0.69188000  0.62959700  0.17391800  1
  H  H24  1  0.14770100  0.06117600  0.01656100  1
  H  H25  1  0.16892800  0.32453200  0.91249700  1
  H  H26  1  0.35229900  0.56117600  0.98343900  1
  H  H27  1  0.11817400  0.46101400  0.59522500  1
  H  H28  1  0.85229900  0.93882400  0.98343900  1
  H  H29  1  0.11817400  0.96101400  0.90477500  1
  H  H30  1  0.88182600  0.03898600  0.09522500  1
  H  H31  1  0.61817400  0.53898600  0.90477500  1
  Se  Se0  1  0.96839600  0.34578500  0.13522500  1
  Se  Se1  1  0.46839600  0.15421500  0.13522500  1
  Se  Se2  1  0.03160400  0.65421500  0.86477500  1
  Se  Se3  1  0.53160400  0.34578500  0.63522500  1
  Se  Se4  1  0.03160400  0.15421500  0.63522500  1
  Se  Se5  1  0.46839600  0.65421500  0.36477500  1
  Se  Se6  1  0.53160400  0.84578500  0.86477500  1
  Se  Se7  1  0.96839600  0.84578500  0.36477500  1
  O  O0  1  0.85536300  0.44875300  0.42404900  1
  O  O1  1  0.35536300  0.05124700  0.42404900  1
  O  O2  1  0.50303400  0.69513300  0.81103100  1
  O  O3  1  0.91131100  0.55575900  0.78935900  1
  O  O4  1  0.08868900  0.44424100  0.21064100  1
  O  O5  1  0.99696600  0.69513300  0.31103100  1
  O  O6  1  0.14463700  0.05124700  0.92404900  1
  O  O7  1  0.77373700  0.19200500  0.89145300  1
  O  O8  1  0.49959000  0.35564100  0.47810000  1
  O  O9  1  0.41131100  0.94424100  0.78935900  1
  O  O10  1  0.27373700  0.30799500  0.89145300  1
  O  O11  1  0.85536300  0.94875300  0.07595100  1
  O  O12  1  0.79422200  0.39124900  0.15997300  1
  O  O13  1  0.58868900  0.05575900  0.21064100  1
  O  O14  1  0.41131100  0.44424100  0.71064100  1
  O  O15  1  0.72626300  0.19200500  0.39145300  1
  O  O16  1  0.00303400  0.80486700  0.81103100  1
  O  O17  1  0.29422200  0.60875100  0.34002700  1
  O  O18  1  0.77373700  0.69200500  0.60854700  1
  O  O19  1  0.35536300  0.55124700  0.07595100  1
  O  O20  1  0.20577800  0.60875100  0.84002700  1
  O  O21  1  0.20577800  0.10875100  0.65997300  1
  O  O22  1  0.50041000  0.64435900  0.52190000  1
  O  O23  1  0.29422200  0.10875100  0.15997300  1
  O  O24  1  0.49959000  0.85564100  0.02190000  1
  O  O25  1  0.91131100  0.05575900  0.71064100  1
  O  O26  1  0.49696600  0.30486700  0.18896900  1
  O  O27  1  0.70577800  0.89124900  0.84002700  1
  O  O28  1  0.64463700  0.44875300  0.92404900  1
  O  O29  1  0.22626300  0.30799500  0.39145300  1
  O  O30  1  0.72626300  0.69200500  0.10854700  1
  O  O31  1  0.50303400  0.19513300  0.68896900  1
  O  O32  1  0.00041000  0.85564100  0.52190000  1
  O  O33  1  0.00303400  0.30486700  0.68896900  1
  O  O34  1  0.64463700  0.94875300  0.57595100  1
  O  O35  1  0.50041000  0.14435900  0.97810000  1
  O  O36  1  0.70577800  0.39124900  0.65997300  1
  O  O37  1  0.27373700  0.80799500  0.60854700  1
  O  O38  1  0.08868900  0.94424100  0.28935900  1
  O  O39  1  0.22626300  0.80799500  0.10854700  1
  O  O40  1  0.79422200  0.89124900  0.34002700  1
  O  O41  1  0.49696600  0.80486700  0.31103100  1
  O  O42  1  0.14463700  0.55124700  0.57595100  1
  O  O43  1  0.99959000  0.14435900  0.47810000  1
  O  O44  1  0.99696600  0.19513300  0.18896900  1
  O  O45  1  0.00041000  0.35564100  0.97810000  1
  O  O46  1  0.58868900  0.55575900  0.28935900  1
  O  O47  1  0.99959000  0.64435900  0.02190000  1
loop_
_geom_bond_atom_site_label_1
_geom_bond_atom_site_label_2
_geom_bond_distance
_geom_bond_site_symmetry_2
H0 O39 0.993377 1_555
H0 O24 1.711509 1_555
H1 O0 0.980063 1_555
H2 O19 0.983905 1_555
H3 O37 0.993680 1_555
H3 O9 1.714816 1_555
H4 O7 0.993377 1_555
H4 O35 1.711509 1_555
H5 O30 0.993377 1_555
H5 O47 1.711509 1_555
H6 O37 0.993377 1_555
H6 O32 1.711509 1_555
H7 O1 0.980063 1_555
H8 O34 0.980063 1_555
H9 O29 0.993377 1_555
H9 O8 1.711509 1_555
H10 O7 0.993680 1_555
H10 O25 1.714816 1_555
H11 O39 0.993680 1_555
H11 O38 1.714816 1_555
H12 O0 0.983905 1_555
H13 O15 0.993377 1_555
H13 O43 1.711509 1_555
H14 O42 0.980063 1_555
H15 O1 0.983905 1_565
H16 O10 0.993680 1_555
H16 O14 1.714816 1_555
H17 O18 0.993377 1_555
H17 O22 1.711509 1_555
H18 O28 0.980063 1_554
H19 O18 0.993680 1_555
H19 O3 1.714816 1_555
H20 O29 0.993680 1_555
H20 O4 1.714816 1_555
H21 O34 0.983905 1_545
H22 O15 0.993680 1_555
H22 O13 1.714816 1_555
H23 O30 0.993680 1_555
H23 O46 1.714816 1_555
H24 O6 0.980063 1_554
H25 O10 0.993377 1_555
H25 O45 1.711509 1_555
H26 O19 0.980063 1_556
H27 O42 0.983905 1_555
H28 O11 0.980063 1_556
H29 O6 0.983905 1_565
H30 O11 0.983905 1_545
H31 O28 0.983905 1_555
O0 Zn5 2.145944 1_555
O1 Zn4 2.145944 1_555
O2 Se6 1.676332 1_555
O2 Zn3 2.244598 1_555
O3 Se2 1.691778 1_655
O3 Zn6 2.065930 1_555
O4 Se0 1.691778 1_455
O4 Zn2 2.065930 1_555
O5 Se7 1.676332 1_555
O5 Zn2 2.244598 1_655
O6 Zn7 2.145944 1_555
O7 Zn6 2.044737 1_555
O8 Se3 1.683248 1_555
O8 Zn5 2.160764 1_555
O9 Se6 1.691778 1_555
O9 Zn7 2.065930 1_565
O10 Zn7 2.044737 1_555
O11 Zn1 2.145944 1_555
O12 Se0 1.672565 1_555
O12 Zn5 2.164155 1_555
O13 Se1 1.691778 1_555
O13 Zn1 2.065930 1_545
O14 Se3 1.691778 1_555
O14 Zn3 2.065930 1_555
O15 Zn5 2.044737 1_555
O16 Se2 1.676332 1_555
O16 Zn0 2.244598 1_455
O17 Se5 1.672565 1_555
O17 Zn2 2.164155 1_555
O18 Zn0 2.044737 1_555
O19 Zn2 2.145944 1_555
O20 Se2 1.672565 1_555
O20 Zn3 2.164155 1_555
O21 Se4 1.672565 1_555
O21 Zn7 2.164155 1_555
O22 Se5 1.683248 1_555
O22 Zn3 2.160764 1_555
O23 Se1 1.672565 1_555
O23 Zn4 2.164155 1_555
O24 Se6 1.683248 1_554
O24 Zn1 2.160764 1_555
O25 Se4 1.691778 1_655
O25 Zn0 2.065930 1_545
O26 Se1 1.676332 1_555
O26 Zn5 2.244598 1_555
O27 Se6 1.672565 1_555
O27 Zn0 2.164155 1_555
O28 Zn6 2.145944 1_555
O29 Zn4 2.044737 1_555
O30 Zn1 2.044737 1_555
O31 Se3 1.676332 1_555
O31 Zn7 2.244598 1_555
O32 Se7 1.683248 1_455
O32 Zn0 2.160764 1_455
O33 Se4 1.676332 1_555
O33 Zn6 2.244598 1_455
O34 Zn0 2.145944 1_555
O35 Se1 1.683248 1_556
O35 Zn7 2.160764 1_555
O36 Se3 1.672565 1_555
O36 Zn6 2.164155 1_555
O37 Zn3 2.044737 1_555
O38 Se7 1.691778 1_455
O38 Zn4 2.065930 1_565
O39 Zn2 2.044737 1_555
O40 Se7 1.672565 1_555
O40 Zn1 2.164155 1_555
O41 Se5 1.676332 1_555
O41 Zn1 2.244598 1_555
O42 Zn3 2.145944 1_555
O43 Se4 1.683248 1_655
O43 Zn4 2.160764 1_655
O44 Se0 1.676332 1_555
O44 Zn4 2.244598 1_655
O45 Se0 1.683248 1_456
O45 Zn6 2.160764 1_455
O46 Se5 1.691778 1_555
O46 Zn5 2.065930 1_555
O47 Se2 1.683248 1_654
O47 Zn2 2.160764 1_655
