# generated using pymatgen
data_In10(Pb2S7)3
_symmetry_space_group_name_H-M   'P 1'
_cell_length_a   3.89623600
_cell_length_b   14.14514207
_cell_length_c   15.97340987
_cell_angle_alpha   95.28545127
_cell_angle_beta   89.99503208
_cell_angle_gamma   97.88855960
_symmetry_Int_Tables_number   1
_chemical_formula_structural   In10(Pb2S7)3
_chemical_formula_sum   'In10 Pb6 S21'
_cell_volume   868.23074278
_cell_formula_units_Z   1
loop_
 _symmetry_equiv_pos_site_id
 _symmetry_equiv_pos_as_xyz
  1  'x, y, z'
loop_
 _atom_site_type_symbol
 _atom_site_label
 _atom_site_symmetry_multiplicity
 _atom_site_fract_x
 _atom_site_fract_y
 _atom_site_fract_z
 _atom_site_occupancy
  In  In0  1  0.68878000  0.37632600  0.48381600  1
  In  In1  1  0.51756600  0.02573000  0.12949700  1
  In  In2  1  0.21104200  0.42946900  0.69183500  1
  In  In3  1  0.78895800  0.57053100  0.30816500  1
  In  In4  1  0.90449500  0.80085800  0.01891700  1
  In  In5  1  0.73124000  0.47122500  0.89351200  1
  In  In6  1  0.31122000  0.62367400  0.51618400  1
  In  In7  1  0.26876000  0.52877500  0.10648800  1
  In  In8  1  0.09550500  0.19914200  0.98108300  1
  In  In9  1  0.48243400  0.97427000  0.87050300  1
  Pb  Pb0  1  0.06489300  0.14733500  0.70566800  1
  Pb  Pb1  1  0.14238100  0.27386900  0.24118500  1
  Pb  Pb2  1  0.93510700  0.85266500  0.29433200  1
  Pb  Pb3  1  0.85761900  0.72613100  0.75881500  1
  Pb  Pb4  1  0.04506900  0.09925700  0.43102700  1
  Pb  Pb5  1  0.95493100  0.90074300  0.56897300  1
  S  S0  1  0.47006800  0.93124000  0.40684200  1
  S  S1  1  0.60451800  0.20309600  0.09559600  1
  S  S2  1  0.52993200  0.06876000  0.59315800  1
  S  S3  1  0.33010400  0.65444500  0.23835400  1
  S  S4  1  0.27663500  0.56256900  0.81192600  1
  S  S5  1  0.23015800  0.47301600  0.40125000  1
  S  S6  1  0.72336500  0.43743100  0.18807400  1
  S  S7  1  0.58320900  0.15878300  0.87431900  1
  S  S8  1  0.61954800  0.23686000  0.36709300  1
  S  S9  1  0.80576000  0.60811800  0.02450100  1
  S  S10  1  0.03043500  0.05222400  0.23605000  1
  S  S11  1  0.66989600  0.34555500  0.76164600  1
  S  S12  1  0.19424000  0.39188200  0.97549900  1
  S  S13  1  0.39548200  0.79690400  0.90440400  1
  S  S14  1  0.00000000  0.00000000  0.00000000  1
  S  S15  1  0.84729600  0.69957800  0.43494000  1
  S  S16  1  0.38045200  0.76314000  0.63290700  1
  S  S17  1  0.96956500  0.94777600  0.76395000  1
  S  S18  1  0.41679100  0.84121700  0.12568100  1
  S  S19  1  0.15270400  0.30042200  0.56506000  1
  S  S20  1  0.76984200  0.52698400  0.59875000  1
loop_
_geom_bond_atom_site_label_1
_geom_bond_atom_site_label_2
_geom_bond_distance
_geom_bond_site_symmetry_2
In0 S8 2.572386 1_555
In0 S19 2.615370 1_555
In0 S19 2.625644 1_655
In0 S20 2.665759 1_555
In0 S5 2.756670 1_655
In0 S5 2.794023 1_555
In1 S18 2.580540 1_545
In1 S10 2.589952 1_655
In1 S10 2.591677 1_555
In1 S1 2.592178 1_555
In1 S14 2.827152 1_655
In1 S14 2.852764 1_555
In2 S4 2.548001 1_555
In2 S11 2.579608 1_455
In2 S11 2.583669 1_555
In2 S19 2.586430 1_555
In2 S20 2.845640 1_455
In2 S20 2.899429 1_555
In3 S6 2.548001 1_555
In3 S3 2.579608 1_655
In3 S3 2.583669 1_555
In3 S15 2.586430 1_555
In3 S5 2.845640 1_655
In3 S5 2.899429 1_555
In4 S18 2.593608 1_655
In4 S18 2.638728 1_555
In4 S13 2.649236 1_654
In4 S13 2.689520 1_554
In4 S9 2.710305 1_555
In4 S14 2.834383 1_665
In5 S11 2.616754 1_555
In5 S12 2.641602 1_555
In5 S12 2.656292 1_655
In5 S9 2.703898 1_556
In5 S4 2.727537 1_655
In5 S4 2.728360 1_555
In6 S16 2.572386 1_555
In6 S15 2.615370 1_555
In6 S15 2.625644 1_455
In6 S5 2.665759 1_555
In6 S20 2.756670 1_455
In6 S20 2.794023 1_555
In7 S3 2.616754 1_555
In7 S9 2.641602 1_555
In7 S9 2.656292 1_455
In7 S12 2.703898 1_554
In7 S6 2.727537 1_455
In7 S6 2.728360 1_555
In8 S7 2.593608 1_455
In8 S7 2.638728 1_555
In8 S1 2.649236 1_456
In8 S1 2.689520 1_556
In8 S12 2.710305 1_555
In8 S14 2.834383 1_556
In9 S7 2.580540 1_565
In9 S17 2.589952 1_455
In9 S17 2.591677 1_555
In9 S13 2.592178 1_555
In9 S14 2.827152 1_566
In9 S14 2.852764 1_666
Pb0 S2 2.793982 1_455
Pb0 S2 2.816443 1_555
Pb0 S17 3.028051 1_445
Pb1 S8 2.870040 1_555
Pb1 S8 2.892945 1_455
Pb1 S10 3.098986 1_555
Pb1 S1 3.117319 1_555
Pb1 S1 3.130200 1_455
Pb1 S6 3.181245 1_555
Pb1 S6 3.183787 1_455
Pb2 S0 2.793982 1_655
Pb2 S0 2.816443 1_555
Pb2 S10 3.028051 1_665
Pb3 S16 2.870040 1_555
Pb3 S16 2.892945 1_655
Pb3 S17 3.098986 1_555
Pb3 S13 3.117319 1_555
Pb3 S13 3.130200 1_655
Pb3 S4 3.181245 1_555
Pb3 S4 3.183787 1_655
Pb4 S8 2.971953 1_455
Pb4 S8 3.001903 1_555
Pb4 S0 3.030871 1_445
Pb4 S0 3.074178 1_545
Pb4 S10 3.123063 1_555
Pb5 S16 2.971953 1_655
Pb5 S16 3.001903 1_555
Pb5 S2 3.030871 1_665
Pb5 S2 3.074178 1_565
Pb5 S17 3.123063 1_555
