# generated using pymatgen
data_Fe3C
_symmetry_space_group_name_H-M   'P 1'
_cell_length_a   4.65716400
_cell_length_b   5.04730000
_cell_length_c   7.04132900
_cell_angle_alpha   90.00000000
_cell_angle_beta   90.00000000
_cell_angle_gamma   90.00000000
_symmetry_Int_Tables_number   1
_chemical_formula_structural   Fe3C
_chemical_formula_sum   'Fe12 C4'
_cell_volume   165.51421077
_cell_formula_units_Z   4
loop_
 _symmetry_equiv_pos_site_id
 _symmetry_equiv_pos_as_xyz
  1  'x, y, z'
loop_
 _atom_site_type_symbol
 _atom_site_label
 _atom_site_symmetry_multiplicity
 _atom_site_fract_x
 _atom_site_fract_y
 _atom_site_fract_z
 _atom_site_occupancy
  Fe  Fe0  1  0.34729400  0.16863600  0.42247800  1
  Fe  Fe1  1  0.15270600  0.66863600  0.07752200  1
  Fe  Fe2  1  0.84729400  0.33136400  0.92247800  1
  Fe  Fe3  1  0.33966400  0.45020900  0.75000000  1
  Fe  Fe4  1  0.15270600  0.66863600  0.42247800  1
  Fe  Fe5  1  0.34729400  0.16863600  0.07752200  1
  Fe  Fe6  1  0.16033600  0.95020900  0.75000000  1
  Fe  Fe7  1  0.65270600  0.83136400  0.92247800  1
  Fe  Fe8  1  0.84729400  0.33136400  0.57752200  1
  Fe  Fe9  1  0.66033600  0.54979100  0.25000000  1
  Fe  Fe10  1  0.65270600  0.83136400  0.57752200  1
  Fe  Fe11  1  0.83966400  0.04979100  0.25000000  1
  C  C0  1  0.00000000  0.00000000  0.50000000  1
  C  C1  1  0.50000000  0.50000000  0.50000000  1
  C  C2  1  0.50000000  0.50000000  0.00000000  1
  C  C3  1  0.00000000  0.00000000  0.00000000  1
loop_
_geom_bond_atom_site_label_1
_geom_bond_atom_site_label_2
_geom_bond_distance
_geom_bond_site_symmetry_2
C0 Fe4 1.897622 1_545
C0 Fe8 1.897622 1_455
C0 Fe10 1.907466 1_445
C0 Fe0 1.907466 1_555
C0 Fe6 1.928602 1_545
C0 Fe11 1.928602 1_455
C1 Fe0 1.897622 1_555
C1 Fe10 1.897622 1_555
C1 Fe8 1.907466 1_555
C1 Fe4 1.907466 1_555
C1 Fe3 1.928602 1_555
C1 Fe9 1.928602 1_555
C2 Fe5 1.897622 1_555
C2 Fe7 1.897622 1_554
C2 Fe1 1.907466 1_555
C2 Fe2 1.907466 1_554
C2 Fe3 1.928602 1_554
C2 Fe9 1.928602 1_555
C3 Fe1 1.897622 1_545
C3 Fe2 1.897622 1_454
C3 Fe7 1.907466 1_444
C3 Fe5 1.907466 1_555
C3 Fe6 1.928602 1_544
C3 Fe11 1.928602 1_455
