# generated using pymatgen
data_CuH10SO9
_symmetry_space_group_name_H-M   'P 1'
_cell_length_a   5.88020000
_cell_length_b   6.80109342
_cell_length_c   11.86091793
_cell_angle_alpha   100.52374064
_cell_angle_beta   100.20038985
_cell_angle_gamma   97.31171015
_symmetry_Int_Tables_number   1
_chemical_formula_structural   CuH10SO9
_chemical_formula_sum   'Cu2 H20 S2 O18'
_cell_volume   452.70226710
_cell_formula_units_Z   2
loop_
 _symmetry_equiv_pos_site_id
 _symmetry_equiv_pos_as_xyz
  1  'x, y, z'
loop_
 _atom_site_type_symbol
 _atom_site_label
 _atom_site_symmetry_multiplicity
 _atom_site_fract_x
 _atom_site_fract_y
 _atom_site_fract_z
 _atom_site_occupancy
  Cu  Cu0  1  0.00000000  0.00000000  0.00000000  1
  Cu  Cu1  1  0.00000000  0.00000000  0.50000000  1
  H  H0  1  0.44873500  0.28302800  0.58710900  1
  H  H1  1  0.41734800  0.59299700  0.82839300  1
  H  H2  1  0.96808100  0.16505300  0.77476700  1
  H  H3  1  0.03191900  0.83494700  0.22523300  1
  H  H4  1  0.52945200  0.24970700  0.81634600  1
  H  H5  1  0.73077100  0.86335700  0.26623500  1
  H  H6  1  0.96451600  0.67514800  0.55405900  1
  H  H7  1  0.66566700  0.78948200  0.43127400  1
  H  H8  1  0.58265200  0.40700300  0.17160700  1
  H  H9  1  0.02261500  0.32385600  0.94808800  1
  H  H10  1  0.50318200  0.99986200  0.76065800  1
  H  H11  1  0.97738500  0.67614400  0.05191200  1
  H  H12  1  0.49681800  0.00013800  0.23934200  1
  H  H13  1  0.47054800  0.75029300  0.18365400  1
  H  H14  1  0.26922900  0.13664300  0.73376500  1
  H  H15  1  0.55126500  0.71697200  0.41289100  1
  H  H16  1  0.33433300  0.21051800  0.56872600  1
  H  H17  1  0.95026400  0.28932900  0.67028100  1
  H  H18  1  0.04973600  0.71067100  0.32971900  1
  H  H19  1  0.03548400  0.32485200  0.44594100  1
  S  S0  1  0.73556800  0.65907900  0.76069400  1
  S  S1  1  0.26443200  0.34092100  0.23930600  1
  O  O0  1  0.57807600  0.88107900  0.21232800  1
  O  O1  1  0.04738500  0.25191000  0.15156400  1
  O  O2  1  0.94035600  0.19106900  0.90360000  1
  O  O3  1  0.98043000  0.82470700  0.30437300  1
  O  O4  1  0.77089200  0.50040200  0.66943300  1
  O  O5  1  0.43697400  0.46366800  0.16882000  1
  O  O6  1  0.54716400  0.92612500  0.98259200  1
  O  O7  1  0.08865600  0.77810500  0.54535900  1
  O  O8  1  0.95261500  0.74809000  0.84843600  1
  O  O9  1  0.60280900  0.80832900  0.71908400  1
  O  O10  1  0.56302600  0.53633200  0.83118000  1
  O  O11  1  0.22910800  0.49959800  0.33056700  1
  O  O12  1  0.91134400  0.22189500  0.45464100  1
  O  O13  1  0.45283600  0.07387500  0.01740800  1
  O  O14  1  0.39719100  0.19167100  0.28091600  1
  O  O15  1  0.01957000  0.17529300  0.69562700  1
  O  O16  1  0.05964400  0.80893100  0.09640000  1
  O  O17  1  0.42192400  0.11892100  0.78767200  1
loop_
_geom_bond_atom_site_label_1
_geom_bond_atom_site_label_2
_geom_bond_distance
_geom_bond_site_symmetry_2
Cu0 O16 1.906755 1_545
Cu0 O2 1.906755 1_454
Cu0 O8 2.195592 1_444
Cu0 O1 2.195592 1_555
Cu0 O6 2.610027 1_444
Cu0 O13 2.610027 1_555
Cu1 O7 1.798937 1_545
Cu1 O12 1.798937 1_455
Cu1 H7 2.206572 1_445
Cu1 H16 2.206572 1_555
H0 H16 0.753393 1_555
H1 O10 0.980845 1_555
H2 O15 1.047280 1_655
H2 O2 1.545872 1_555
H3 O3 1.047280 1_455
H3 O16 1.545872 1_555
H4 O17 0.988343 1_555
H5 O0 1.040139 1_555
H5 O3 1.528178 1_555
H6 O7 0.978151 1_655
H8 O5 0.980845 1_555
H9 O2 0.975871 1_455
H10 O17 1.022040 1_565
H10 O9 1.531378 1_555
H11 O16 0.975871 1_655
H12 O0 1.022040 1_545
H12 O14 1.531378 1_555
H13 O0 0.988343 1_555
H14 O17 1.040139 1_555
H14 O15 1.528178 1_555
H15 H7 0.753393 1_555
H17 O15 0.990048 1_655
H18 O3 0.990048 1_455
H19 O12 0.978151 1_455
O1 S1 1.476887 1_555
O4 S0 1.445484 1_555
O5 S1 1.662833 1_555
O8 S0 1.476887 1_555
O9 S0 1.459991 1_555
O10 S0 1.662833 1_555
O11 S1 1.445484 1_555
O13 O6 1.248738 1_544
O14 S1 1.459991 1_555
