# generated using pymatgen
data_Cu3(BiI4)4
_symmetry_space_group_name_H-M   'P 1'
_cell_length_a   8.74937052
_cell_length_b   8.74937052
_cell_length_c   15.29347930
_cell_angle_alpha   74.54833693
_cell_angle_beta   74.54833693
_cell_angle_gamma   59.40079209
_symmetry_Int_Tables_number   1
_chemical_formula_structural   Cu3(BiI4)4
_chemical_formula_sum   'Cu3 Bi4 I16'
_cell_volume   959.14027679
_cell_formula_units_Z   1
loop_
 _symmetry_equiv_pos_site_id
 _symmetry_equiv_pos_as_xyz
  1  'x, y, z'
loop_
 _atom_site_type_symbol
 _atom_site_label
 _atom_site_symmetry_multiplicity
 _atom_site_fract_x
 _atom_site_fract_y
 _atom_site_fract_z
 _atom_site_occupancy
  Cu  Cu0  1  0.30723900  0.30723900  0.05829200  1
  Cu  Cu1  1  0.58259200  0.58259200  0.30758300  1
  Cu  Cu2  1  0.79343400  0.79343400  0.07087200  1
  Bi  Bi0  1  0.01050200  0.01050200  0.99229900  1
  Bi  Bi1  1  0.26147300  0.26147300  0.75887500  1
  Bi  Bi2  1  0.50218300  0.99424300  0.49391100  1
  Bi  Bi3  1  0.99424300  0.50218300  0.49391100  1
  I  I0  1  0.38285100  0.38285100  0.87703500  1
  I  I1  1  0.62789800  0.62789800  0.62121700  1
  I  I2  1  0.38122200  0.87440300  0.87267300  1
  I  I3  1  0.87440300  0.38122200  0.87267300  1
  I  I4  1  0.62209800  0.12068800  0.62858000  1
  I  I5  1  0.87585300  0.87585300  0.37742400  1
  I  I6  1  0.86932900  0.86932900  0.88908600  1
  I  I7  1  0.13017600  0.13017600  0.12884800  1
  I  I8  1  0.87701400  0.36626000  0.37377800  1
  I  I9  1  0.12068800  0.62209800  0.62858000  1
  I  I10  1  0.36626000  0.87701400  0.37377800  1
  I  I11  1  0.12216000  0.12216000  0.62252500  1
  I  I12  1  0.11911500  0.61971600  0.12055700  1
  I  I13  1  0.37933300  0.37933300  0.36895800  1
  I  I14  1  0.61971600  0.11911500  0.12055700  1
  I  I15  1  0.61771700  0.61771700  0.13548600  1
loop_
_geom_bond_atom_site_label_1
_geom_bond_atom_site_label_2
_geom_bond_distance
_geom_bond_site_symmetry_2
Cu0 I7 2.574135 1_555
Cu0 I0 2.655331 1_554
Cu0 I12 2.657325 1_555
Cu0 I14 2.657325 1_555
Cu1 I15 2.519974 1_555
Cu1 I10 2.578365 1_555
Cu1 I8 2.578365 1_555
Cu1 I13 2.940615 1_555
Cu2 I15 2.547753 1_555
Cu2 I6 2.663187 1_554
Cu2 I12 2.671388 1_655
Cu2 I14 2.671388 1_565
Bi0 I6 3.028852 1_445
Bi0 I2 3.058179 1_545
Bi0 I3 3.058179 1_455
Bi0 Cu2 3.146101 1_446
Bi0 I7 3.162308 1_556
Bi0 I12 3.248504 1_546
Bi0 I14 3.248504 1_456
Bi1 I0 2.952029 1_555
Bi1 I4 3.073186 1_555
Bi1 I9 3.073186 1_555
Bi1 I2 3.132807 1_545
Bi1 I3 3.132807 1_455
Bi1 I11 3.397212 1_555
Bi2 I10 3.041707 1_555
Bi2 I5 3.060648 1_555
Bi2 I1 3.082354 1_555
Bi2 I11 3.174358 1_565
Bi2 I4 3.180203 1_565
Bi2 I13 3.183711 1_565
Bi3 I8 3.041707 1_555
Bi3 I5 3.060648 1_555
Bi3 I1 3.082354 1_555
Bi3 I11 3.174358 1_655
Bi3 I9 3.180203 1_655
Bi3 I13 3.183711 1_655
