# generated using pymatgen
data_KPF6
_symmetry_space_group_name_H-M   'P 1'
_cell_length_a   5.14676958
_cell_length_b   5.53524043
_cell_length_c   5.14676802
_cell_angle_alpha   62.29564528
_cell_angle_beta   59.99999776
_cell_angle_gamma   62.29564923
_symmetry_Int_Tables_number   1
_chemical_formula_structural   KPF6
_chemical_formula_sum   'K1 P1 F6'
_cell_volume   107.13200227
_cell_formula_units_Z   1
loop_
 _symmetry_equiv_pos_site_id
 _symmetry_equiv_pos_as_xyz
  1  'x, y, z'
loop_
 _atom_site_type_symbol
 _atom_site_label
 _atom_site_symmetry_multiplicity
 _atom_site_fract_x
 _atom_site_fract_y
 _atom_site_fract_z
 _atom_site_occupancy
  K  K0  1  0.50000000  0.50000000  0.50000000  1
  P  P0  1  0.00000000  0.00000000  0.00000000  1
  F  F0  1  0.08133798  0.20026932  0.08133798  1
  F  F1  1  0.08133798  0.20026932  0.63705373  1
  F  F2  1  0.63705373  0.20026932  0.08133798  1
  F  F3  1  0.36294627  0.79973068  0.91866202  1
  F  F4  1  0.91866202  0.79973068  0.36294627  1
  F  F5  1  0.91866202  0.79973068  0.91866202  1
loop_
_geom_bond_atom_site_label_1
_geom_bond_atom_site_label_2
_geom_bond_distance
_geom_bond_site_symmetry_2
F0 P0 1.617900 1_555
F0 K0 2.934113 1_554
F0 K0 2.934113 1_455
F1 P0 1.617903 1_556
F1 K0 2.934111 1_455
F1 K0 2.934115 1_555
F2 P0 1.617903 1_655
F2 K0 2.934110 1_554
F2 K0 2.934115 1_555
F3 P0 1.617903 1_566
F3 K0 2.934110 1_556
F3 K0 2.934115 1_555
F4 P0 1.617903 1_665
F4 K0 2.934111 1_655
F4 K0 2.934115 1_555
F5 P0 1.617900 1_666
F5 K0 2.934113 1_556
F5 K0 2.934113 1_655
