# generated using pymatgen
data_Tb(BO2)3
_symmetry_space_group_name_H-M   'P 1'
_cell_length_a   7.44562500
_cell_length_b   12.35736800
_cell_length_c   16.07657400
_cell_angle_alpha   90.00000000
_cell_angle_beta   90.00000000
_cell_angle_gamma   90.00000000
_symmetry_Int_Tables_number   1
_chemical_formula_structural   Tb(BO2)3
_chemical_formula_sum   'Tb16 B48 O96'
_cell_volume   1479.17869556
_cell_formula_units_Z   16
loop_
 _symmetry_equiv_pos_site_id
 _symmetry_equiv_pos_as_xyz
  1  'x, y, z'
loop_
 _atom_site_type_symbol
 _atom_site_label
 _atom_site_symmetry_multiplicity
 _atom_site_fract_x
 _atom_site_fract_y
 _atom_site_fract_z
 _atom_site_occupancy
  Tb  Tb0  1  0.25000000  0.41252200  0.54853000  1
  Tb  Tb1  1  0.75000000  0.23031200  0.12758600  1
  Tb  Tb2  1  0.25000000  0.76968800  0.87241400  1
  Tb  Tb3  1  0.75000000  0.58747800  0.45147000  1
  Tb  Tb4  1  0.25000000  0.49218100  0.87975100  1
  Tb  Tb5  1  0.75000000  0.56651600  0.82789200  1
  Tb  Tb6  1  0.75000000  0.50781900  0.12024900  1
  Tb  Tb7  1  0.25000000  0.73031200  0.37241400  1
  Tb  Tb8  1  0.75000000  0.99218100  0.62024900  1
  Tb  Tb9  1  0.25000000  0.43348400  0.17210800  1
  Tb  Tb10  1  0.75000000  0.93348400  0.32789200  1
  Tb  Tb11  1  0.25000000  0.06651600  0.67210800  1
  Tb  Tb12  1  0.25000000  0.00781900  0.37975100  1
  Tb  Tb13  1  0.75000000  0.91252200  0.95147000  1
  Tb  Tb14  1  0.75000000  0.26968800  0.62758600  1
  Tb  Tb15  1  0.25000000  0.08747800  0.04853000  1
  B  B0  1  0.57280200  0.34496700  0.44273100  1
  B  B1  1  0.06857400  0.12814500  0.24254500  1
  B  B2  1  0.43896900  0.17816200  0.53120100  1
  B  B3  1  0.06857400  0.37185500  0.74254500  1
  B  B4  1  0.42301500  0.48186500  0.34698400  1
  B  B5  1  0.07280200  0.84496700  0.05726900  1
  B  B6  1  0.92322000  0.14357300  0.39030800  1
  B  B7  1  0.42965300  0.68670700  0.71727800  1
  B  B8  1  0.06103100  0.32183800  0.03120100  1
  B  B9  1  0.07034700  0.68670700  0.71727800  1
  B  B10  1  0.43896900  0.32183800  0.03120100  1
  B  B11  1  0.57678000  0.14357300  0.39030800  1
  B  B12  1  0.56103100  0.67816200  0.96879900  1
  B  B13  1  0.92301500  0.98186500  0.15301600  1
  B  B14  1  0.57034700  0.18670700  0.78272200  1
  B  B15  1  0.42322000  0.64357300  0.10969200  1
  B  B16  1  0.93896900  0.67816200  0.96879900  1
  B  B17  1  0.07034700  0.81329300  0.21727800  1
  B  B18  1  0.92965300  0.18670700  0.78272200  1
  B  B19  1  0.92965300  0.31329300  0.28272200  1
  B  B20  1  0.92719800  0.34496700  0.44273100  1
  B  B21  1  0.42301500  0.01813500  0.84698400  1
  B  B22  1  0.56857400  0.87185500  0.75745500  1
  B  B23  1  0.57678000  0.35642700  0.89030800  1
  B  B24  1  0.56857400  0.62814500  0.25745500  1
  B  B25  1  0.43142600  0.37185500  0.74254500  1
  B  B26  1  0.07698500  0.01813500  0.84698400  1
  B  B27  1  0.93896900  0.82183800  0.46879900  1
  B  B28  1  0.42965300  0.81329300  0.21727800  1
  B  B29  1  0.42719800  0.65503300  0.55726900  1
  B  B30  1  0.92719800  0.15503300  0.94273100  1
  B  B31  1  0.07678000  0.85642700  0.60969200  1
  B  B32  1  0.56103100  0.82183800  0.46879900  1
  B  B33  1  0.92301500  0.51813500  0.65301600  1
  B  B34  1  0.07678000  0.64357300  0.10969200  1
  B  B35  1  0.57698500  0.98186500  0.15301600  1
  B  B36  1  0.57280200  0.15503300  0.94273100  1
  B  B37  1  0.57034700  0.31329300  0.28272200  1
  B  B38  1  0.42719800  0.84496700  0.05726900  1
  B  B39  1  0.92322000  0.35642700  0.89030800  1
  B  B40  1  0.06103100  0.17816200  0.53120100  1
  B  B41  1  0.93142600  0.87185500  0.75745500  1
  B  B42  1  0.93142600  0.62814500  0.25745500  1
  B  B43  1  0.43142600  0.12814500  0.24254500  1
  B  B44  1  0.07698500  0.48186500  0.34698400  1
  B  B45  1  0.07280200  0.65503300  0.55726900  1
  B  B46  1  0.57698500  0.51813500  0.65301600  1
  B  B47  1  0.42322000  0.85642700  0.60969200  1
  O  O0  1  0.75000000  0.80293300  0.43553400  1
  O  O1  1  0.75000000  0.35417500  0.25549900  1
  O  O2  1  0.07263400  0.76522100  0.12894900  1
  O  O3  1  0.56354300  0.93535700  0.83527600  1
  O  O4  1  0.25000000  0.19706700  0.56446600  1
  O  O5  1  0.47954700  0.79076800  0.97921100  1
  O  O6  1  0.05717900  0.06817400  0.92986000  1
  O  O7  1  0.43537400  0.37740800  0.95161800  1
  O  O8  1  0.25000000  0.89295000  0.57790600  1
  O  O9  1  0.54062700  0.37614500  0.09585600  1
  O  O10  1  0.75000000  0.39295000  0.92209400  1
  O  O11  1  0.56462600  0.62259200  0.04838200  1
  O  O12  1  0.43660600  0.39851700  0.28196900  1
  O  O13  1  0.56462600  0.87740800  0.54838200  1
  O  O14  1  0.75000000  0.03856200  0.15906700  1
  O  O15  1  0.25000000  0.96143800  0.84093300  1
  O  O16  1  0.52045300  0.29076800  0.52078900  1
  O  O17  1  0.48068900  0.73028100  0.27615800  1
  O  O18  1  0.55717900  0.93182600  0.07014000  1
  O  O19  1  0.56339400  0.89851700  0.21803100  1
  O  O20  1  0.25000000  0.36294900  0.77551400  1
  O  O21  1  0.93645700  0.56464300  0.33527600  1
  O  O22  1  0.01931100  0.73028100  0.27615800  1
  O  O23  1  0.07263400  0.73477900  0.62894900  1
  O  O24  1  0.06339400  0.10148300  0.78196900  1
  O  O25  1  0.47954700  0.70923200  0.47921100  1
  O  O26  1  0.93660600  0.89851700  0.21803100  1
  O  O27  1  0.93537400  0.62259200  0.04838200  1
  O  O28  1  0.03495000  0.57787900  0.18488300  1
  O  O29  1  0.93660600  0.60148300  0.71803100  1
  O  O30  1  0.04062700  0.87614500  0.40414400  1
  O  O31  1  0.43645700  0.06464300  0.16472400  1
  O  O32  1  0.25000000  0.60362500  0.54801800  1
  O  O33  1  0.53495000  0.07787900  0.31511700  1
  O  O34  1  0.01931100  0.76971900  0.77615800  1
  O  O35  1  0.25000000  0.53856200  0.34093300  1
  O  O36  1  0.45937300  0.62385500  0.90414400  1
  O  O37  1  0.57263400  0.23477900  0.87105100  1
  O  O38  1  0.25000000  0.30293300  0.06446600  1
  O  O39  1  0.93645700  0.93535700  0.83527600  1
  O  O40  1  0.54062700  0.12385500  0.59585600  1
  O  O41  1  0.75000000  0.86294900  0.72448600  1
  O  O42  1  0.25000000  0.89637500  0.04801800  1
  O  O43  1  0.42736600  0.76522100  0.12894900  1
  O  O44  1  0.51931100  0.23028100  0.22384200  1
  O  O45  1  0.95937300  0.12385500  0.59585600  1
  O  O46  1  0.95937300  0.37614500  0.09585600  1
  O  O47  1  0.98068900  0.26971900  0.72384200  1
  O  O48  1  0.75000000  0.69706700  0.93553400  1
  O  O49  1  0.94282100  0.93182600  0.07014000  1
  O  O50  1  0.94282100  0.56817400  0.57014000  1
  O  O51  1  0.52045300  0.20923200  0.02078900  1
  O  O52  1  0.75000000  0.10362500  0.95198200  1
  O  O53  1  0.43645700  0.43535700  0.66472400  1
  O  O54  1  0.98068900  0.23028100  0.22384200  1
  O  O55  1  0.44282100  0.43182600  0.42986000  1
  O  O56  1  0.06462600  0.12259200  0.45161800  1
  O  O57  1  0.96505000  0.42212100  0.81511700  1
  O  O58  1  0.92736600  0.26522100  0.37105100  1
  O  O59  1  0.25000000  0.13705100  0.27551400  1
  O  O60  1  0.75000000  0.63705100  0.22448600  1
  O  O61  1  0.42736600  0.73477900  0.62894900  1
  O  O62  1  0.46505000  0.57787900  0.18488300  1
  O  O63  1  0.25000000  0.64582500  0.74450100  1
  O  O64  1  0.75000000  0.46143800  0.65906700  1
  O  O65  1  0.97954700  0.29076800  0.52078900  1
  O  O66  1  0.96505000  0.07787900  0.31511700  1
  O  O67  1  0.57263400  0.26522100  0.37105100  1
  O  O68  1  0.75000000  0.39637500  0.45198200  1
  O  O69  1  0.56354300  0.56464300  0.33527600  1
  O  O70  1  0.93537400  0.87740800  0.54838200  1
  O  O71  1  0.43537400  0.12259200  0.45161800  1
  O  O72  1  0.92736600  0.23477900  0.87105100  1
  O  O73  1  0.03495000  0.92212100  0.68488300  1
  O  O74  1  0.53495000  0.42212100  0.81511700  1
  O  O75  1  0.04062700  0.62385500  0.90414400  1
  O  O76  1  0.97954700  0.20923200  0.02078900  1
  O  O77  1  0.44282100  0.06817400  0.92986000  1
  O  O78  1  0.25000000  0.60705000  0.07790600  1
  O  O79  1  0.43660600  0.10148300  0.78196900  1
  O  O80  1  0.02045300  0.70923200  0.47921100  1
  O  O81  1  0.56339400  0.60148300  0.71803100  1
  O  O82  1  0.05717900  0.43182600  0.42986000  1
  O  O83  1  0.45937300  0.87614500  0.40414400  1
  O  O84  1  0.06339400  0.39851700  0.28196900  1
  O  O85  1  0.02045300  0.79076800  0.97921100  1
  O  O86  1  0.06462600  0.37740800  0.95161800  1
  O  O87  1  0.75000000  0.10705000  0.42209400  1
  O  O88  1  0.46505000  0.92212100  0.68488300  1
  O  O89  1  0.06354300  0.06464300  0.16472400  1
  O  O90  1  0.48068900  0.76971900  0.77615800  1
  O  O91  1  0.06354300  0.43535700  0.66472400  1
  O  O92  1  0.75000000  0.14582500  0.75549900  1
  O  O93  1  0.55717900  0.56817400  0.57014000  1
  O  O94  1  0.51931100  0.26971900  0.72384200  1
  O  O95  1  0.25000000  0.85417500  0.24450100  1
loop_
_geom_bond_atom_site_label_1
_geom_bond_atom_site_label_2
_geom_bond_distance
_geom_bond_site_symmetry_2
B0 O55 1.459969 1_555
B0 O68 1.471859 1_555
B0 O16 1.474884 1_555
B0 O67 1.516268 1_555
B1 O54 1.453125 1_455
B1 O59 1.455261 1_555
B1 O89 1.477303 1_555
B1 O66 1.530091 1_455
B2 O40 1.450410 1_555
B2 O71 1.452306 1_555
B2 O4 1.523221 1_555
B2 O16 1.527224 1_555
B3 O47 1.453125 1_455
B3 O20 1.455261 1_555
B3 O91 1.477303 1_555
B3 O57 1.530091 1_455
B4 O35 1.469630 1_555
B4 O12 1.470899 1_555
B4 O69 1.475321 1_555
B4 O55 1.476243 1_555
B5 O49 1.459969 1_455
B5 O42 1.471859 1_555
B5 O85 1.474884 1_554
B5 O2 1.516268 1_555
B6 O87 1.458847 1_555
B6 O56 1.465347 1_655
B6 O66 1.489046 1_555
B6 O58 1.535107 1_555
B7 O90 1.446621 1_555
B7 O81 1.449430 1_555
B7 O63 1.495330 1_555
B7 O61 1.539369 1_555
B8 O46 1.450410 1_455
B8 O86 1.452306 1_554
B8 O38 1.523221 1_555
B8 O76 1.527224 1_455
B9 O34 1.446621 1_555
B9 O29 1.449430 1_455
B9 O63 1.495330 1_555
B9 O23 1.539369 1_555
B10 O9 1.450410 1_555
B10 O7 1.452306 1_554
B10 O38 1.523221 1_555
B10 O51 1.527224 1_555
B11 O87 1.458847 1_555
B11 O71 1.465347 1_555
B11 O33 1.489046 1_555
B11 O67 1.535107 1_555
B12 O36 1.450410 1_555
B12 O11 1.452306 1_556
B12 O48 1.523221 1_555
B12 O5 1.527224 1_555
B13 O14 1.469630 1_565
B13 O26 1.470899 1_555
B13 O89 1.475321 1_665
B13 O49 1.476243 1_555
B14 O94 1.446621 1_555
B14 O79 1.449430 1_555
B14 O92 1.495330 1_555
B14 O37 1.539369 1_555
B15 O78 1.458847 1_555
B15 O11 1.465347 1_555
B15 O62 1.489046 1_555
B15 O43 1.535107 1_555
B16 O75 1.450410 1_655
B16 O27 1.452306 1_556
B16 O48 1.523221 1_555
B16 O85 1.527224 1_655
B17 O22 1.446621 1_555
B17 O26 1.449430 1_455
B17 O95 1.495330 1_555
B17 O2 1.539369 1_555
B18 O47 1.446621 1_555
B18 O24 1.449430 1_655
B18 O92 1.495330 1_555
B18 O72 1.539369 1_555
B19 O54 1.446621 1_555
B19 O84 1.449430 1_655
B19 O1 1.495330 1_555
B19 O58 1.539369 1_555
B20 O82 1.459969 1_655
B20 O68 1.471859 1_555
B20 O65 1.474884 1_555
B20 O58 1.516268 1_555
B21 O15 1.469630 1_545
B21 O79 1.470899 1_555
B21 O3 1.475321 1_545
B21 O77 1.476243 1_555
B22 O90 1.453125 1_555
B22 O41 1.455261 1_555
B22 O3 1.477303 1_555
B22 O88 1.530091 1_555
B23 O10 1.458847 1_555
B23 O7 1.465347 1_555
B23 O74 1.489046 1_555
B23 O37 1.535107 1_555
B24 O17 1.453125 1_555
B24 O60 1.455261 1_555
B24 O69 1.477303 1_555
B24 O62 1.530091 1_555
B25 O94 1.453125 1_555
B25 O20 1.455261 1_555
B25 O53 1.477303 1_555
B25 O74 1.530091 1_555
B26 O15 1.469630 1_545
B26 O24 1.470899 1_555
B26 O39 1.475321 1_445
B26 O6 1.476243 1_555
B27 O30 1.450410 1_655
B27 O70 1.452306 1_555
B27 O0 1.523221 1_555
B27 O80 1.527224 1_655
B28 O17 1.446621 1_555
B28 O19 1.449430 1_555
B28 O95 1.495330 1_555
B28 O43 1.539369 1_555
B29 O93 1.459969 1_555
B29 O32 1.471859 1_555
B29 O25 1.474884 1_555
B29 O61 1.516268 1_555
B30 O6 1.459969 1_655
B30 O52 1.471859 1_555
B30 O76 1.474884 1_556
B30 O72 1.516268 1_555
B31 O8 1.458847 1_555
B31 O70 1.465347 1_455
B31 O73 1.489046 1_555
B31 O23 1.535107 1_555
B32 O83 1.450410 1_555
B32 O13 1.452306 1_555
B32 O0 1.523221 1_555
B32 O25 1.527224 1_555
B33 O64 1.469630 1_555
B33 O29 1.470899 1_555
B33 O91 1.475321 1_655
B33 O50 1.476243 1_555
B34 O78 1.458847 1_555
B34 O27 1.465347 1_455
B34 O28 1.489046 1_555
B34 O2 1.535107 1_555
B35 O14 1.469630 1_565
B35 O19 1.470899 1_555
B35 O31 1.475321 1_565
B35 O18 1.476243 1_555
B36 O77 1.459969 1_555
B36 O52 1.471859 1_555
B36 O51 1.474884 1_556
B36 O37 1.516268 1_555
B37 O44 1.446621 1_555
B37 O12 1.449430 1_555
B37 O1 1.495330 1_555
B37 O67 1.539369 1_555
B38 O18 1.459969 1_555
B38 O42 1.471859 1_555
B38 O5 1.474884 1_554
B38 O43 1.516268 1_555
B39 O10 1.458847 1_555
B39 O86 1.465347 1_655
B39 O57 1.489046 1_555
B39 O72 1.535107 1_555
B40 O45 1.450410 1_455
B40 O56 1.452306 1_555
B40 O4 1.523221 1_555
B40 O65 1.527224 1_455
B41 O34 1.453125 1_655
B41 O41 1.455261 1_555
B41 O39 1.477303 1_555
B41 O73 1.530091 1_655
B42 O22 1.453125 1_655
B42 O60 1.455261 1_555
B42 O21 1.477303 1_555
B42 O28 1.530091 1_655
B43 O44 1.453125 1_555
B43 O59 1.455261 1_555
B43 O31 1.477303 1_555
B43 O33 1.530091 1_555
B44 O35 1.469630 1_555
B44 O84 1.470899 1_555
B44 O21 1.475321 1_455
B44 O82 1.476243 1_555
B45 O50 1.459969 1_455
B45 O32 1.471859 1_555
B45 O80 1.474884 1_555
B45 O23 1.516268 1_555
B46 O64 1.469630 1_555
B46 O81 1.470899 1_555
B46 O53 1.475321 1_555
B46 O93 1.476243 1_555
B47 O8 1.458847 1_555
B47 O13 1.465347 1_555
B47 O88 1.489046 1_555
B47 O61 1.535107 1_555
O0 Tb10 2.365864 1_555
O0 Tb3 2.674755 1_555
O1 Tb1 2.563512 1_555
O1 Tb6 2.886632 1_555
O3 Tb13 2.344441 1_555
O4 Tb11 2.365864 1_555
O4 Tb0 2.674755 1_555
O5 Tb2 2.436555 1_555
O5 Tb13 2.552949 1_555
O6 Tb15 2.399539 1_556
O7 Tb4 2.291608 1_555
O8 Tb11 2.625603 1_565
O9 Tb6 2.287268 1_555
O9 Tb1 2.436807 1_555
O9 Tb9 2.585977 1_555
O10 Tb5 2.625603 1_555
O11 Tb6 2.291608 1_555
O12 Tb9 2.288353 1_555
O13 Tb8 2.291608 1_555
O14 Tb1 2.422972 1_555
O15 Tb2 2.422972 1_555
O16 Tb14 2.436555 1_555
O16 Tb0 2.552949 1_555
O17 Tb7 2.311901 1_555
O18 Tb13 2.399539 1_554
O19 Tb10 2.288353 1_555
O20 Tb4 2.314848 1_555
O21 Tb3 2.344441 1_555
O22 Tb7 2.311901 1_555
O24 Tb11 2.288353 1_555
O25 Tb7 2.436555 1_555
O25 Tb3 2.552949 1_555
O26 Tb10 2.288353 1_555
O27 Tb6 2.291608 1_555
O28 Tb9 2.406209 1_555
O28 Tb6 2.516062 1_455
O29 Tb5 2.288353 1_555
O30 Tb12 2.287268 1_565
O30 Tb7 2.436807 1_555
O30 Tb10 2.585977 1_455
O31 Tb15 2.344441 1_555
O32 Tb0 2.361544 1_555
O33 Tb10 2.406209 1_545
O33 Tb12 2.516062 1_555
O34 Tb2 2.311901 1_555
O35 Tb7 2.422972 1_555
O36 Tb4 2.287268 1_555
O36 Tb2 2.436807 1_555
O36 Tb5 2.585977 1_555
O38 Tb9 2.365864 1_555
O38 Tb15 2.674755 1_555
O39 Tb13 2.344441 1_555
O40 Tb8 2.287268 1_545
O40 Tb14 2.436807 1_555
O40 Tb11 2.585977 1_555
O41 Tb8 2.314848 1_555
O42 Tb15 2.361544 1_565
O44 Tb1 2.311901 1_555
O45 Tb8 2.287268 1_545
O45 Tb14 2.436807 1_555
O45 Tb11 2.585977 1_655
O46 Tb6 2.287268 1_555
O46 Tb1 2.436807 1_555
O46 Tb9 2.585977 1_655
O47 Tb14 2.311901 1_555
O48 Tb5 2.365864 1_555
O48 Tb13 2.674755 1_555
O49 Tb13 2.399539 1_554
O50 Tb3 2.399539 1_555
O51 Tb1 2.436555 1_555
O51 Tb15 2.552949 1_555
O52 Tb13 2.361544 1_545
O53 Tb0 2.344441 1_555
O54 Tb1 2.311901 1_555
O55 Tb0 2.399539 1_555
O56 Tb12 2.291608 1_555
O57 Tb5 2.406209 1_555
O57 Tb4 2.516062 1_655
O59 Tb12 2.314848 1_555
O60 Tb6 2.314848 1_555
O62 Tb9 2.406209 1_555
O62 Tb6 2.516062 1_555
O63 Tb2 2.563512 1_555
O63 Tb4 2.886632 1_555
O64 Tb14 2.422972 1_555
O65 Tb14 2.436555 1_555
O65 Tb0 2.552949 1_655
O66 Tb10 2.406209 1_545
O66 Tb12 2.516062 1_655
O68 Tb3 2.361544 1_555
O69 Tb3 2.344441 1_555
O70 Tb8 2.291608 1_555
O71 Tb12 2.291608 1_555
O73 Tb11 2.406209 1_565
O73 Tb8 2.516062 1_455
O74 Tb5 2.406209 1_555
O74 Tb4 2.516062 1_555
O75 Tb4 2.287268 1_555
O75 Tb2 2.436807 1_555
O75 Tb5 2.585977 1_455
O76 Tb1 2.436555 1_555
O76 Tb15 2.552949 1_655
O77 Tb15 2.399539 1_556
O78 Tb9 2.625603 1_555
O79 Tb11 2.288353 1_555
O80 Tb7 2.436555 1_555
O80 Tb3 2.552949 1_455
O81 Tb5 2.288353 1_555
O82 Tb0 2.399539 1_555
O83 Tb12 2.287268 1_565
O83 Tb7 2.436807 1_555
O83 Tb10 2.585977 1_555
O84 Tb9 2.288353 1_555
O85 Tb2 2.436555 1_555
O85 Tb13 2.552949 1_455
O86 Tb4 2.291608 1_555
O87 Tb10 2.625603 1_545
O88 Tb11 2.406209 1_565
O88 Tb8 2.516062 1_555
O89 Tb15 2.344441 1_555
O90 Tb2 2.311901 1_555
O91 Tb0 2.344441 1_555
O92 Tb14 2.563512 1_555
O92 Tb8 2.886632 1_545
O93 Tb3 2.399539 1_555
O94 Tb14 2.311901 1_555
O95 Tb7 2.563512 1_555
O95 Tb12 2.886632 1_565
