# generated using pymatgen
data_Rb(WO3)6
_symmetry_space_group_name_H-M   'P 1'
_cell_length_a   7.51787300
_cell_length_b   7.73016000
_cell_length_c   13.02209900
_cell_angle_alpha   90.00000000
_cell_angle_beta   90.00000000
_cell_angle_gamma   90.00000000
_symmetry_Int_Tables_number   1
_chemical_formula_structural   Rb(WO3)6
_chemical_formula_sum   'Rb2 W12 O36'
_cell_volume   756.77096421
_cell_formula_units_Z   2
loop_
 _symmetry_equiv_pos_site_id
 _symmetry_equiv_pos_as_xyz
  1  'x, y, z'
loop_
 _atom_site_type_symbol
 _atom_site_label
 _atom_site_symmetry_multiplicity
 _atom_site_fract_x
 _atom_site_fract_y
 _atom_site_fract_z
 _atom_site_occupancy
  Rb  Rb0  1  0.00000000  0.00000000  0.00000000  1
  Rb  Rb1  1  0.50000000  0.50000000  0.50000000  1
  W  W0  1  0.75311400  0.25161300  0.24662900  1
  W  W1  1  0.25311400  0.24838700  0.25337100  1
  W  W2  1  0.25311400  0.24838700  0.74662900  1
  W  W3  1  0.24688600  0.74838700  0.24662900  1
  W  W4  1  0.00677200  0.75031400  0.50000000  1
  W  W5  1  0.99322800  0.24968600  0.50000000  1
  W  W6  1  0.75311400  0.25161300  0.75337100  1
  W  W7  1  0.74688600  0.75161300  0.74662900  1
  W  W8  1  0.74688600  0.75161300  0.25337100  1
  W  W9  1  0.50677200  0.74968600  0.00000000  1
  W  W10  1  0.49322800  0.25031400  0.00000000  1
  W  W11  1  0.24688600  0.74838700  0.75337100  1
  O  O0  1  0.75009000  0.00066100  0.24984500  1
  O  O1  1  0.68275100  0.75239200  0.10670000  1
  O  O2  1  0.68132400  0.24813800  0.10520200  1
  O  O3  1  0.50142100  0.25230400  0.28797200  1
  O  O4  1  0.49857900  0.74769600  0.28797200  1
  O  O5  1  0.31867600  0.75186200  0.10520200  1
  O  O6  1  0.31724900  0.24760800  0.10670000  1
  O  O7  1  0.24991000  0.99933900  0.75015500  1
  O  O8  1  0.25009000  0.49933900  0.25015500  1
  O  O9  1  0.24991000  0.99933900  0.24984500  1
  O  O10  1  0.18275100  0.74760800  0.60670000  1
  O  O11  1  0.18275100  0.74760800  0.39330000  1
  O  O12  1  0.18132400  0.25186200  0.39479800  1
  O  O13  1  0.18132400  0.25186200  0.60520200  1
  O  O14  1  0.00142100  0.24769600  0.78797200  1
  O  O15  1  0.00142100  0.24769600  0.21202800  1
  O  O16  1  0.00000000  0.00000000  0.50000000  1
  O  O17  1  0.00000000  0.50000000  0.50000000  1
  O  O18  1  0.99857900  0.75230400  0.78797200  1
  O  O19  1  0.99857900  0.75230400  0.21202800  1
  O  O20  1  0.81867600  0.74813800  0.60520200  1
  O  O21  1  0.81867600  0.74813800  0.39479800  1
  O  O22  1  0.81724900  0.25239200  0.39330000  1
  O  O23  1  0.81724900  0.25239200  0.60670000  1
  O  O24  1  0.75009000  0.00066100  0.75015500  1
  O  O25  1  0.74991000  0.50066100  0.74984500  1
  O  O26  1  0.74991000  0.50066100  0.25015500  1
  O  O27  1  0.68275100  0.75239200  0.89330000  1
  O  O28  1  0.68132400  0.24813800  0.89479800  1
  O  O29  1  0.50142100  0.25230400  0.71202800  1
  O  O30  1  0.50000000  0.00000000  0.00000000  1
  O  O31  1  0.50000000  0.50000000  0.00000000  1
  O  O32  1  0.49857900  0.74769600  0.71202800  1
  O  O33  1  0.31867600  0.75186200  0.89479800  1
  O  O34  1  0.31724900  0.24760800  0.89330000  1
  O  O35  1  0.25009000  0.49933900  0.74984500  1
loop_
_geom_bond_atom_site_label_1
_geom_bond_atom_site_label_2
_geom_bond_distance
_geom_bond_site_symmetry_2
O0 W8 1.925879 1_545
O0 W0 1.940484 1_555
O1 W9 1.918679 1_555
O1 W8 1.969893 1_555
O1 Rb0 3.358956 1_665
O2 W0 1.919317 1_555
O2 W10 1.968928 1_555
O2 Rb0 3.360914 1_655
O3 W1 1.920588 1_555
O3 W0 1.967303 1_555
O3 Rb1 3.360015 1_555
O4 W8 1.920588 1_555
O4 W3 1.967303 1_555
O4 Rb1 3.360015 1_555
O5 W3 1.919317 1_555
O5 W9 1.968928 1_555
O5 Rb0 3.360914 1_565
O6 W10 1.918679 1_555
O6 W1 1.969893 1_555
O6 Rb0 3.358956 1_555
O7 W2 1.925879 1_565
O7 W11 1.940484 1_555
O8 W3 1.925879 1_555
O8 W1 1.940484 1_555
O9 W1 1.925879 1_565
O9 W3 1.940484 1_555
O10 W4 1.918679 1_555
O10 W11 1.969893 1_555
O10 Rb1 3.358956 1_555
O11 W4 1.918679 1_555
O11 W3 1.969893 1_555
O11 Rb1 3.358956 1_555
O12 W1 1.919317 1_555
O12 W5 1.968928 1_455
O12 Rb1 3.360914 1_555
O13 W2 1.919317 1_555
O13 W5 1.968928 1_455
O13 Rb1 3.360914 1_555
O14 W6 1.920588 1_455
O14 W2 1.967303 1_555
O14 Rb0 3.360015 1_556
O15 W0 1.920588 1_455
O15 W1 1.967303 1_555
O15 Rb0 3.360015 1_555
O16 W5 1.930784 1_455
O16 W4 1.930784 1_545
O17 W4 1.935637 1_555
O17 W5 1.935637 1_455
O18 W11 1.920588 1_655
O18 W7 1.967303 1_555
O18 Rb0 3.360015 1_666
O19 W3 1.920588 1_655
O19 W8 1.967303 1_555
O19 Rb0 3.360015 1_665
O20 W7 1.919317 1_555
O20 W4 1.968928 1_655
O20 Rb1 3.360914 1_555
O21 W8 1.919317 1_555
O21 W4 1.968928 1_655
O21 Rb1 3.360914 1_555
O22 W5 1.918679 1_555
O22 W0 1.969893 1_555
O22 Rb1 3.358956 1_555
O23 W5 1.918679 1_555
O23 W6 1.969893 1_555
O23 Rb1 3.358956 1_555
O24 W7 1.925879 1_545
O24 W6 1.940484 1_555
O25 W6 1.925879 1_555
O25 W7 1.940484 1_555
O26 W0 1.925879 1_555
O26 W8 1.940484 1_555
O27 W9 1.918679 1_556
O27 W7 1.969893 1_555
O27 Rb0 3.358956 1_666
O28 W6 1.919317 1_555
O28 W10 1.968928 1_556
O28 Rb0 3.360914 1_656
O29 W2 1.920588 1_555
O29 W6 1.967303 1_555
O29 Rb1 3.360015 1_555
O30 W10 1.935637 1_555
O30 W9 1.935637 1_545
O31 W9 1.930784 1_555
O31 W10 1.930784 1_555
O32 W7 1.920588 1_555
O32 W11 1.967303 1_555
O32 Rb1 3.360015 1_555
O33 W11 1.919317 1_555
O33 W9 1.968928 1_556
O33 Rb0 3.360914 1_566
O34 W10 1.918679 1_556
O34 W2 1.969893 1_555
O34 Rb0 3.358956 1_556
O35 W11 1.925879 1_555
O35 W2 1.940484 1_555
