# generated using pymatgen
data_Nd10Si10BrN17O9
_symmetry_space_group_name_H-M   'P 1'
_cell_length_a   10.48512787
_cell_length_b   11.19050159
_cell_length_c   11.58971769
_cell_angle_alpha   90.05788290
_cell_angle_beta   90.11522819
_cell_angle_gamma   90.05538553
_symmetry_Int_Tables_number   1
_chemical_formula_structural   Nd10Si10BrN17O9
_chemical_formula_sum   'Nd20 Si20 Br2 N34 O18'
_cell_volume   1359.86200019
_cell_formula_units_Z   2
loop_
 _symmetry_equiv_pos_site_id
 _symmetry_equiv_pos_as_xyz
  1  'x, y, z'
loop_
 _atom_site_type_symbol
 _atom_site_label
 _atom_site_symmetry_multiplicity
 _atom_site_fract_x
 _atom_site_fract_y
 _atom_site_fract_z
 _atom_site_occupancy
  Nd  Nd0  1  0.00656591  0.99988884  0.83058160  1
  Nd  Nd1  1  0.89342435  0.36782984  0.00031634  1
  Nd  Nd2  1  0.86226133  0.11338286  0.50241524  1
  Nd  Nd3  1  0.86190205  0.60236940  0.75945000  1
  Nd  Nd4  1  0.86241014  0.60311573  0.24211780  1
  Nd  Nd5  1  0.64046130  0.09801995  0.23943463  1
  Nd  Nd6  1  0.63536296  0.10222977  0.76128687  1
  Nd  Nd7  1  0.63749055  0.61676419  0.49733729  1
  Nd  Nd8  1  0.62399456  0.87030281  0.00378945  1
  Nd  Nd9  1  0.50123454  0.49868477  0.17290391  1
  Nd  Nd10  1  0.49725865  0.49713372  0.82687892  1
  Nd  Nd11  1  0.35723976  0.12999649  0.99627552  1
  Nd  Nd12  1  0.37507365  0.38120382  0.50277329  1
  Nd  Nd13  1  0.35899291  0.89663627  0.23516250  1
  Nd  Nd14  1  0.35480035  0.90033837  0.76436697  1
  Nd  Nd15  1  0.14139788  0.39986779  0.76877056  1
  Nd  Nd16  1  0.14232471  0.40097300  0.23030684  1
  Nd  Nd17  1  0.12449958  0.88008271  0.49803262  1
  Nd  Nd18  1  0.12973936  0.62781653  0.99973736  1
  Nd  Nd19  1  0.00846597  0.00074763  0.16933892  1
  Si  Si0  1  0.88519559  0.25448559  0.24600040  1
  Si  Si1  1  0.88265264  0.25435634  0.75471402  1
  Si  Si2  1  0.85015517  0.85673945  0.36438582  1
  Si  Si3  1  0.84761384  0.85573612  0.63765619  1
  Si  Si4  1  0.78525690  0.11073689  0.00028240  1
  Si  Si5  1  0.71320652  0.60803679  0.99961815  1
  Si  Si6  1  0.65048487  0.35519833  0.63528282  1
  Si  Si7  1  0.65367641  0.35354344  0.36422369  1
  Si  Si8  1  0.61617256  0.76055256  0.24363119  1
  Si  Si9  1  0.61428739  0.75537727  0.75605813  1
  Si  Si10  1  0.38505440  0.24443890  0.24543378  1
  Si  Si11  1  0.38300836  0.23909591  0.75467975  1
  Si  Si12  1  0.34892202  0.64667082  0.63487578  1
  Si  Si13  1  0.35213609  0.64522673  0.36578453  1
  Si  Si14  1  0.28234734  0.39041792  0.00005444  1
  Si  Si15  1  0.21324642  0.89256751  0.99972561  1
  Si  Si16  1  0.15109722  0.14814494  0.36483871  1
  Si  Si17  1  0.14853009  0.14726956  0.63319592  1
  Si  Si18  1  0.11714246  0.73855608  0.24486779  1
  Si  Si19  1  0.11502559  0.73816168  0.75473218  1
  Br  Br0  1  0.94768725  0.53386434  0.50102045  1
  Br  Br1  1  0.54336770  0.03359915  0.49940378  1
  N  N0  1  0.98054718  0.81119321  0.28683045  1
  N  N1  1  0.97524060  0.80853679  0.71774839  1
  N  N2  1  0.89658850  0.88758419  0.50170640  1
  N  N3  1  0.82987583  0.18253432  0.12232304  1
  N  N4  1  0.82932320  0.18382346  0.87923013  1
  N  N5  1  0.76893192  0.25110816  0.64992686  1
  N  N6  1  0.77410558  0.25087057  0.35278868  1
  N  N7  1  0.72661452  0.75256717  0.64972549  1
  N  N8  1  0.73101242  0.75247102  0.35008120  1
  N  N9  1  0.67355260  0.68061740  0.12226135  1
  N  N10  1  0.67108633  0.68340095  0.87873083  1
  N  N11  1  0.60417062  0.38852660  0.49897826  1
  N  N12  1  0.58200474  0.89998216  0.19736852  1
  N  N13  1  0.52721030  0.30431344  0.28320569  1
  N  N14  1  0.52097540  0.30816298  0.71219718  1
  N  N15  1  0.47756843  0.68962193  0.28085802  1
  N  N16  1  0.47151559  0.69347913  0.72331390  1
  N  N17  1  0.41477954  0.09997445  0.80277327  1
  N  N18  1  0.40710204  0.61805711  0.50113705  1
  N  N19  1  0.33660802  0.32139996  0.12261241  1
  N  N20  1  0.33445739  0.32374364  0.87625249  1
  N  N21  1  0.26843790  0.25025237  0.64769537  1
  N  N22  1  0.27292760  0.24974948  0.35218673  1
  N  N23  1  0.22817179  0.74956052  0.64583594  1
  N  N24  1  0.23300640  0.74946082  0.35182562  1
  N  N25  1  0.17370617  0.81804573  0.12328728  1
  N  N26  1  0.17273338  0.81897831  0.87557801  1
  N  N27  1  0.15159619  0.03368411  0.00017215  1
  N  N28  1  0.11995272  0.40506497  0.00127620  1
  N  N29  1  0.09242793  0.12053572  0.49824682  1
  N  N30  1  0.08131071  0.59951555  0.19956761  1
  N  N31  1  0.08155428  0.59869798  0.80022521  1
  N  N32  1  0.02928798  0.19501115  0.27639051  1
  N  N33  1  0.02397099  0.19249436  0.71937631  1
  O  O0  1  0.91218300  0.39363215  0.20309744  1
  O  O1  1  0.91180064  0.39316984  0.79722666  1
  O  O2  1  0.86948374  0.58174330  0.99728200  1
  O  O3  1  0.84465159  0.97259188  0.99966192  1
  O  O4  1  0.81541381  0.99086510  0.68985538  1
  O  O5  1  0.82093873  0.99350979  0.31425445  1
  O  O6  1  0.68231955  0.48831649  0.30944587  1
  O  O7  1  0.67942700  0.49001289  0.69023209  1
  O  O8  1  0.64676851  0.47319474  0.99881622  1
  O  O9  1  0.62848759  0.08786088  0.00006550  1
  O  O10  1  0.58361358  0.89397072  0.79913806  1
  O  O11  1  0.41336952  0.10633865  0.20000829  1
  O  O12  1  0.37548791  0.90680421  0.99957681  1
  O  O13  1  0.34826243  0.52805980  0.00112454  1
  O  O14  1  0.31794720  0.50850951  0.68198834  1
  O  O15  1  0.32056706  0.50712357  0.31835835  1
  O  O16  1  0.18574457  0.01112267  0.31730757  1
  O  O17  1  0.18001843  0.00875332  0.67909903  1
loop_
_geom_bond_atom_site_label_1
_geom_bond_atom_site_label_2
_geom_bond_distance
_geom_bond_site_symmetry_2
Nd0 O17 2.532297 1_565
Nd0 O4 2.583301 1_455
Nd0 O3 2.613248 1_455
Nd1 O0 2.375298 1_555
Nd1 O1 2.379233 1_554
Nd1 O2 2.407450 1_554
Nd1 O8 2.843383 1_554
Nd2 O5 2.594598 1_545
Nd2 O4 2.617108 1_545
Nd3 O7 2.423257 1_555
Nd3 O1 2.439148 1_555
Nd3 O2 2.767274 1_555
Nd4 O6 2.414142 1_555
Nd4 O0 2.444062 1_555
Nd4 O2 2.848519 1_554
Nd5 O5 2.387540 1_545
Nd5 O11 2.425525 1_555
Nd5 O9 2.779014 1_555
Nd6 O4 2.410643 1_545
Nd6 O10 2.432853 1_545
Nd6 O9 2.773284 1_556
Nd7 O6 2.651059 1_555
Nd7 O7 2.684545 1_555
Nd8 O10 2.423333 1_554
Nd8 O9 2.435422 1_565
Nd8 O3 2.580854 1_554
Nd8 O12 2.638199 1_554
Nd9 O6 2.472142 1_555
Nd9 O15 2.540095 1_555
Nd9 O8 2.548087 1_554
Nd9 O13 2.575604 1_555
Nd10 O7 2.484951 1_555
Nd10 O14 2.521714 1_555
Nd10 O8 2.547435 1_555
Nd10 O13 2.578936 1_556
Nd11 O11 2.446982 1_556
Nd11 O12 2.505461 1_545
Nd11 O9 2.883594 1_556
Nd12 O14 2.589039 1_555
Nd12 O15 2.623557 1_555
Nd13 O16 2.420026 1_565
Nd13 O11 2.449127 1_565
Nd13 O12 2.738663 1_554
Nd14 O17 2.409647 1_565
Nd14 O10 2.433070 1_555
Nd14 O12 2.735076 1_555
Nd15 O1 2.431593 1_455
Nd15 O14 2.433515 1_555
Nd16 O0 2.434252 1_455
Nd16 O15 2.435326 1_555
Nd17 O17 2.608303 1_565
Nd17 O16 2.638116 1_565
Nd18 O13 2.549720 1_556
Nd18 O2 2.776688 1_455
Nd19 O16 2.529005 1_555
Nd19 O5 2.589741 1_445
Nd19 O3 2.626927 1_444
Br0 Nd3 3.221030 1_555
Br0 Nd4 3.224740 1_555
Br0 Nd7 3.383228 1_555
Br1 Nd5 3.263340 1_555
Br1 Nd6 3.273299 1_555
Br1 Nd2 3.460054 1_555
N0 Si2 1.715295 1_555
N0 Si18 1.718355 1_655
N0 Nd19 2.538832 1_665
N0 Nd4 2.685917 1_555
N0 Nd17 2.973741 1_655
N1 Si3 1.711348 1_555
N1 Si19 1.718281 1_655
N1 Nd0 2.528735 1_655
N1 Nd3 2.639670 1_555
N1 Nd17 3.097151 1_655
N2 Si3 1.696266 1_555
N2 Si2 1.698386 1_555
N2 Nd17 2.391695 1_655
N2 Nd2 2.552658 1_565
N3 Si4 1.690944 1_555
N3 Si0 1.741481 1_555
N3 Nd5 2.586665 1_555
N3 Nd1 2.598093 1_555
N3 Nd19 2.819067 1_655
N4 Si4 1.689644 1_556
N4 Si1 1.738651 1_555
N4 Nd1 2.578530 1_556
N4 Nd6 2.611673 1_555
N4 Nd0 2.831526 1_645
N5 Si1 1.700583 1_555
N5 Si6 1.711829 1_555
N5 Nd2 2.502011 1_555
N5 Nd6 2.531765 1_555
N6 Si0 1.701751 1_555
N6 Si7 1.713270 1_555
N6 Nd2 2.496083 1_555
N6 Nd5 2.568782 1_555
N7 Si9 1.706656 1_555
N7 Si3 1.720539 1_555
N7 Nd7 2.507424 1_555
N7 Nd3 2.540875 1_555
N8 Si2 1.716237 1_555
N8 Si8 1.724703 1_555
N8 Nd7 2.487880 1_555
N8 Nd4 2.502876 1_555
N9 Si5 1.689271 1_554
N9 Si8 1.772757 1_555
N9 Nd4 2.568589 1_555
N9 Nd8 2.581897 1_555
N9 Nd9 2.784504 1_555
N10 Si5 1.694067 1_555
N10 Si9 1.739141 1_555
N10 Nd8 2.591867 1_556
N10 Nd3 2.597765 1_555
N10 Nd10 2.830825 1_555
N11 Si7 1.692404 1_555
N11 Si6 1.693790 1_555
N11 Nd12 2.403922 1_555
N11 Nd7 2.577636 1_555
N12 Si8 1.688881 1_555
N12 Nd8 2.310910 1_555
N12 Nd5 2.349179 1_565
N12 Nd13 2.380111 1_555
N13 Si10 1.690291 1_555
N13 Si7 1.713482 1_555
N13 Nd9 2.538677 1_555
N13 Nd5 2.646138 1_555
N13 Nd12 3.126520 1_555
N14 Si6 1.708817 1_555
N14 Si11 1.712868 1_555
N14 Nd10 2.509372 1_555
N14 Nd6 2.660474 1_555
N14 Nd12 2.981775 1_555
N15 Si8 1.711490 1_555
N15 Si13 1.717622 1_555
N15 Nd9 2.487821 1_555
N15 Nd13 2.682951 1_555
N16 Si9 1.691136 1_555
N16 Si12 1.723234 1_555
N16 Nd10 2.519212 1_555
N16 Nd14 2.662361 1_555
N17 Si11 1.687428 1_555
N17 Nd11 2.347464 1_555
N17 Nd14 2.361919 1_545
N17 Nd6 2.363358 1_555
N18 Si12 1.697150 1_555
N18 Si13 1.697960 1_555
N18 Nd7 2.416200 1_555
N18 Nd12 2.671466 1_555
N19 Si14 1.713939 1_555
N19 Si10 1.739661 1_555
N19 Nd16 2.551862 1_555
N19 Nd11 2.602744 1_554
N19 Nd9 2.691122 1_555
N20 Si14 1.707554 1_556
N20 Si11 1.772798 1_555
N20 Nd15 2.523955 1_555
N20 Nd11 2.588160 1_555
N20 Nd10 2.646863 1_555
N21 Si17 1.712590 1_555
N21 Si11 1.729360 1_555
N21 Nd12 2.495595 1_555
N21 Nd15 2.560004 1_555
N22 Si10 1.709476 1_555
N22 Si16 1.715906 1_555
N22 Nd12 2.518173 1_555
N22 Nd16 2.595347 1_555
N23 Si12 1.716963 1_555
N23 Si19 1.738561 1_555
N23 Nd17 2.499997 1_555
N23 Nd14 2.545694 1_555
N24 Si13 1.717366 1_555
N24 Si18 1.738026 1_555
N24 Nd13 2.508612 1_555
N24 Nd17 2.511634 1_555
N25 Si15 1.709449 1_554
N25 Si18 1.770140 1_555
N25 Nd13 2.492629 1_555
N25 Nd18 2.604571 1_554
N25 Nd19 2.734061 1_565
N26 Si15 1.709770 1_555
N26 Si19 1.771605 1_555
N26 Nd14 2.478585 1_555
N26 Nd18 2.618584 1_555
N26 Nd0 2.722377 1_555
N27 Si15 1.706929 1_544
N27 Nd11 2.410155 1_554
N27 Nd19 2.498844 1_555
N27 Nd0 2.510780 1_544
N28 Si14 1.710842 1_555
N28 Nd1 2.411056 1_455
N28 Nd18 2.494797 1_554
N28 Nd16 2.664719 1_555
N28 Nd15 2.705062 1_554
N29 Si16 1.693787 1_555
N29 Si17 1.696085 1_555
N29 Nd2 2.415158 1_455
N29 Nd17 2.712043 1_545
N30 Si18 1.683493 1_555
N30 Nd16 2.340079 1_555
N30 Nd4 2.348926 1_455
N30 Nd18 2.393280 1_554
N31 Si19 1.684694 1_555
N31 Nd15 2.340782 1_555
N31 Nd3 2.350541 1_455
N31 Nd18 2.387797 1_555
N32 Si0 1.688160 1_455
N32 Si16 1.718773 1_555
N32 Nd19 2.511057 1_555
N32 Nd16 2.646110 1_555
N33 Si1 1.687120 1_455
N33 Si17 1.721896 1_555
N33 Nd0 2.519077 1_545
N33 Nd15 2.686607 1_555
O0 Si0 1.659280 1_555
O1 Si1 1.657144 1_555
O2 Si5 1.665344 1_555
O3 Si4 1.667208 1_566
O4 Si3 1.663302 1_555
O5 Si2 1.666109 1_555
O6 Si7 1.664232 1_555
O7 Si6 1.664350 1_555
O8 Si5 1.661384 1_555
O9 Si4 1.663313 1_555
O10 Si9 1.660769 1_555
O11 Si10 1.659361 1_555
O12 Si15 1.708418 1_555
O13 Si14 1.687646 1_555
O14 Si12 1.671967 1_555
O15 Si13 1.672317 1_555
O16 Si16 1.669361 1_555
O17 Si17 1.672330 1_555
