# generated using pymatgen
data_Cd3H2CSeO8
_symmetry_space_group_name_H-M   'P 1'
_cell_length_a   6.68934200
_cell_length_b   10.57444100
_cell_length_c   10.65092000
_cell_angle_alpha   90.00000000
_cell_angle_beta   90.00000000
_cell_angle_gamma   90.00000000
_symmetry_Int_Tables_number   1
_chemical_formula_structural   Cd3H2CSeO8
_chemical_formula_sum   'Cd12 H8 C4 Se4 O32'
_cell_volume   753.40403425
_cell_formula_units_Z   4
loop_
 _symmetry_equiv_pos_site_id
 _symmetry_equiv_pos_as_xyz
  1  'x, y, z'
loop_
 _atom_site_type_symbol
 _atom_site_label
 _atom_site_symmetry_multiplicity
 _atom_site_fract_x
 _atom_site_fract_y
 _atom_site_fract_z
 _atom_site_occupancy
  Cd  Cd0  1  0.52953800  0.33257100  0.54549500  1
  Cd  Cd1  1  0.02953800  0.16742900  0.95450500  1
  Cd  Cd2  1  0.47046200  0.66742900  0.04549500  1
  Cd  Cd3  1  0.97046200  0.83257100  0.45450500  1
  Cd  Cd4  1  0.47046200  0.66742900  0.45450500  1
  Cd  Cd5  1  0.97046200  0.83257100  0.04549500  1
  Cd  Cd6  1  0.52953800  0.33257100  0.95450500  1
  Cd  Cd7  1  0.02953800  0.16742900  0.54549500  1
  Cd  Cd8  1  0.74879800  0.12648700  0.25000000  1
  Cd  Cd9  1  0.24879800  0.37351300  0.25000000  1
  Cd  Cd10  1  0.25120200  0.87351300  0.75000000  1
  Cd  Cd11  1  0.75120200  0.62648700  0.75000000  1
  H  H0  1  0.64214000  0.09647500  0.48987800  1
  H  H1  1  0.14214000  0.40352500  0.01012200  1
  H  H2  1  0.35786000  0.90352500  0.98987800  1
  H  H3  1  0.85786000  0.59647500  0.51012200  1
  H  H4  1  0.35786000  0.90352500  0.51012200  1
  H  H5  1  0.85786000  0.59647500  0.98987800  1
  H  H6  1  0.64214000  0.09647500  0.01012200  1
  H  H7  1  0.14214000  0.40352500  0.48987800  1
  C  C0  1  0.37452900  0.14824400  0.75000000  1
  C  C1  1  0.87452900  0.35175600  0.75000000  1
  C  C2  1  0.62547100  0.85175600  0.25000000  1
  C  C3  1  0.12547100  0.64824400  0.25000000  1
  Se  Se0  1  0.24762200  0.02559300  0.25000000  1
  Se  Se1  1  0.74762200  0.47440700  0.25000000  1
  Se  Se2  1  0.75237800  0.97440700  0.75000000  1
  Se  Se3  1  0.25237800  0.52559300  0.75000000  1
  O  O0  1  0.38100700  0.16440900  0.25000000  1
  O  O1  1  0.88100700  0.33559100  0.25000000  1
  O  O2  1  0.61899300  0.83559100  0.75000000  1
  O  O3  1  0.11899300  0.66440900  0.75000000  1
  O  O4  1  0.07384600  0.03991700  0.12888100  1
  O  O5  1  0.57384600  0.46008300  0.37111900  1
  O  O6  1  0.92615400  0.96008300  0.62888100  1
  O  O7  1  0.42615400  0.53991700  0.87111900  1
  O  O8  1  0.92615400  0.96008300  0.87111900  1
  O  O9  1  0.42615400  0.53991700  0.62888100  1
  O  O10  1  0.07384600  0.03991700  0.37111900  1
  O  O11  1  0.57384600  0.46008300  0.12888100  1
  O  O12  1  0.45284100  0.26174500  0.75000000  1
  O  O13  1  0.95284100  0.23825500  0.75000000  1
  O  O14  1  0.54715900  0.73825500  0.25000000  1
  O  O15  1  0.04715900  0.76174500  0.25000000  1
  O  O16  1  0.71058800  0.17349000  0.46282100  1
  O  O17  1  0.21058800  0.32651000  0.03717900  1
  O  O18  1  0.28941200  0.82651000  0.96282100  1
  O  O19  1  0.78941200  0.67349000  0.53717900  1
  O  O20  1  0.28941200  0.82651000  0.53717900  1
  O  O21  1  0.78941200  0.67349000  0.96282100  1
  O  O22  1  0.71058800  0.17349000  0.03717900  1
  O  O23  1  0.21058800  0.32651000  0.46282100  1
  O  O24  1  0.33804700  0.09177900  0.64412100  1
  O  O25  1  0.83804700  0.40822100  0.85587900  1
  O  O26  1  0.66195300  0.90822100  0.14412100  1
  O  O27  1  0.16195300  0.59177900  0.35587900  1
  O  O28  1  0.66195300  0.90822100  0.35587900  1
  O  O29  1  0.16195300  0.59177900  0.14412100  1
  O  O30  1  0.33804700  0.09177900  0.85587900  1
  O  O31  1  0.83804700  0.40822100  0.64412100  1
loop_
_geom_bond_atom_site_label_1
_geom_bond_atom_site_label_2
_geom_bond_distance
_geom_bond_site_symmetry_2
Cd0 O16 2.252093 1_555
Cd0 O23 2.309023 1_555
Cd0 O5 2.314169 1_555
Cd0 O12 2.359778 1_555
Cd0 O31 2.449968 1_555
Cd0 O9 2.464633 1_555
Cd1 O17 2.252093 1_556
Cd1 O22 2.309023 1_456
Cd1 O4 2.314169 1_556
Cd1 O13 2.359778 1_455
Cd1 O30 2.449968 1_555
Cd1 O8 2.464633 1_445
Cd2 O18 2.252093 1_554
Cd2 O21 2.309023 1_554
Cd2 O7 2.314169 1_554
Cd2 O14 2.359778 1_555
Cd2 O29 2.449968 1_555
Cd2 O11 2.464633 1_555
Cd3 O19 2.252093 1_555
Cd3 O20 2.309023 1_655
Cd3 O6 2.314169 1_555
Cd3 O15 2.359778 1_655
Cd3 O28 2.449968 1_555
Cd3 O10 2.464633 1_665
Cd4 O20 2.252093 1_555
Cd4 O19 2.309023 1_555
Cd4 O9 2.314169 1_555
Cd4 O14 2.359778 1_555
Cd4 O27 2.449968 1_555
Cd4 O5 2.464633 1_555
Cd5 O21 2.252093 1_554
Cd5 O18 2.309023 1_654
Cd5 O8 2.314169 1_554
Cd5 O15 2.359778 1_655
Cd5 O26 2.449968 1_555
Cd5 O4 2.464633 1_665
Cd6 O22 2.252093 1_556
Cd6 O17 2.309023 1_556
Cd6 O11 2.314169 1_556
Cd6 O12 2.359778 1_555
Cd6 O25 2.449968 1_555
Cd6 O7 2.464633 1_555
Cd7 O23 2.252093 1_555
Cd7 O16 2.309023 1_455
Cd7 O10 2.314169 1_555
Cd7 O13 2.359778 1_455
Cd7 O24 2.449968 1_555
Cd7 O6 2.464633 1_445
Cd8 O16 2.334626 1_555
Cd8 O22 2.334626 1_555
Cd8 O1 2.381463 1_555
Cd8 O0 2.492746 1_555
Cd8 O28 2.633679 1_545
Cd8 O26 2.633679 1_545
Cd8 O10 2.688869 1_655
Cd8 O4 2.688869 1_655
Cd9 O23 2.334626 1_555
Cd9 O17 2.334626 1_555
Cd9 O0 2.381463 1_555
Cd9 O1 2.492746 1_455
Cd9 O27 2.633679 1_555
Cd9 O29 2.633679 1_555
Cd9 O5 2.688869 1_555
Cd9 O11 2.688869 1_555
Cd10 O18 2.334626 1_555
Cd10 O20 2.334626 1_555
Cd10 O3 2.381463 1_555
Cd10 O2 2.492746 1_555
Cd10 O30 2.633679 1_565
Cd10 O24 2.633679 1_565
Cd10 O8 2.688869 1_455
Cd10 O6 2.688869 1_455
Cd11 O21 2.334626 1_555
Cd11 O19 2.334626 1_555
Cd11 O2 2.381463 1_555
Cd11 O3 2.492746 1_655
Cd11 O25 2.633679 1_555
Cd11 O31 2.633679 1_555
Cd11 O7 2.688869 1_555
Cd11 O9 2.688869 1_555
H0 O16 0.977716 1_555
H1 O17 0.977716 1_555
H2 O18 0.977716 1_555
H3 O19 0.977716 1_555
H4 O20 0.977716 1_555
H5 O21 0.977716 1_555
H6 O22 0.977716 1_555
H7 O23 0.977716 1_555
C0 O30 1.299151 1_555
C0 O24 1.299151 1_555
C0 O12 1.309553 1_555
C1 O25 1.299151 1_555
C1 O31 1.299151 1_555
C1 O13 1.309553 1_555
C2 O28 1.299151 1_555
C2 O26 1.299151 1_555
C2 O14 1.309553 1_555
C3 O29 1.299151 1_555
C3 O27 1.299151 1_555
C3 O15 1.309553 1_555
O0 Se0 1.717807 1_555
O1 Se1 1.717807 1_555
O2 Se2 1.717807 1_555
O3 Se3 1.717807 1_555
O4 Se0 1.743101 1_555
O5 Se1 1.743101 1_555
O6 Se2 1.743101 1_555
O7 Se3 1.743101 1_555
O8 Se2 1.743101 1_555
O9 Se3 1.743101 1_555
O10 Se0 1.743101 1_555
O11 Se1 1.743101 1_555
