# generated using pymatgen
data_Bi34Ir3Br37
_symmetry_space_group_name_H-M   'P 1'
_cell_length_a   13.09892400
_cell_length_b   13.20020943
_cell_length_c   17.39003165
_cell_angle_alpha   90.81055607
_cell_angle_beta   89.88218960
_cell_angle_gamma   118.94272326
_symmetry_Int_Tables_number   1
_chemical_formula_structural   Bi34Ir3Br37
_chemical_formula_sum   'Bi34 Ir3 Br37'
_cell_volume   2631.03410928
_cell_formula_units_Z   1
loop_
 _symmetry_equiv_pos_site_id
 _symmetry_equiv_pos_as_xyz
  1  'x, y, z'
loop_
 _atom_site_type_symbol
 _atom_site_label
 _atom_site_symmetry_multiplicity
 _atom_site_fract_x
 _atom_site_fract_y
 _atom_site_fract_z
 _atom_site_occupancy
  Bi  Bi0  1  0.85953200  0.02203300  0.41868500  1
  Bi  Bi1  1  0.14348300  0.14587300  0.42589600  1
  Bi  Bi2  1  0.11686300  0.98134700  0.57219000  1
  Bi  Bi3  1  0.60859100  0.14307400  0.57545300  1
  Bi  Bi4  1  0.79766800  0.27879300  0.76054300  1
  Bi  Bi5  1  0.19068600  0.53166600  0.91258300  1
  Bi  Bi6  1  0.00626000  0.14999900  0.57520100  1
  Bi  Bi7  1  0.50313800  0.21224300  0.23558400  1
  Bi  Bi8  1  0.05143600  0.18780800  0.09162800  1
  Bi  Bi9  1  0.94819500  0.81153100  0.90878500  1
  Bi  Bi10  1  0.47844700  0.19624800  0.75723700  1
  Bi  Bi11  1  0.32819200  0.55176400  0.75702300  1
  Bi  Bi12  1  0.69386800  0.21124900  0.13690800  1
  Bi  Bi13  1  0.17975400  0.66986300  0.77287400  1
  Bi  Bi14  1  0.84076000  0.87664500  0.56226900  1
  Bi  Bi15  1  0.86533100  0.04790000  0.90473700  1
  Bi  Bi16  1  0.18555600  0.13322100  0.90878600  1
  Bi  Bi17  1  0.19450500  0.70916500  0.23718600  1
  Bi  Bi18  1  0.99563100  0.86881600  0.41448500  1
  Bi  Bi19  1  0.38585800  0.85162500  0.42878900  1
  Bi  Bi20  1  0.28188300  0.48522800  0.23999400  1
  Bi  Bi21  1  0.46327900  0.61109600  0.42604200  1
  Bi  Bi22  1  0.84922300  0.46277800  0.57602500  1
  Bi  Bi23  1  0.53080100  0.38555700  0.57482800  1
  Bi  Bi24  1  0.71714400  0.51923900  0.75829700  1
  Bi  Bi25  1  0.46168000  0.63672000  0.90729500  1
  Bi  Bi26  1  0.36361800  0.80086200  0.89458600  1
  Bi  Bi27  1  0.14492900  0.54004900  0.42555700  1
  Bi  Bi28  1  0.80823600  0.45529300  0.07976500  1
  Bi  Bi29  1  0.51069400  0.80568200  0.24263500  1
  Bi  Bi30  1  0.81458800  0.86747700  0.09061000  1
  Bi  Bi31  1  0.69539800  0.47080500  0.22864300  1
  Bi  Bi32  1  0.13367600  0.94981400  0.09497400  1
  Bi  Bi33  1  0.53285700  0.33019200  0.08246400  1
  Ir  Ir0  1  0.00055600  0.00006500  0.99986100  1
  Ir  Ir1  1  0.33099200  0.66653800  0.33526600  1
  Ir  Ir2  1  0.66446900  0.33109900  0.66664400  1
  Br  Br0  1  0.08817700  0.73546300  0.00854600  1
  Br  Br1  1  0.35206900  0.66339400  0.10890400  1
  Br  Br2  1  0.05461300  0.47624000  0.16696500  1
  Br  Br3  1  0.92607200  0.68253800  0.66526100  1
  Br  Br4  1  0.55522700  0.57157500  0.17336600  1
  Br  Br5  1  0.73710200  0.65424300  0.99414000  1
  Br  Br6  1  0.19622200  0.14564500  0.20492900  1
  Br  Br7  1  0.72211000  0.53818800  0.46863400  1
  Br  Br8  1  0.58163800  0.60079700  0.66340400  1
  Br  Br9  1  0.87361000  0.48172900  0.86603000  1
  Br  Br10  1  0.69422500  0.77366200  0.34155800  1
  Br  Br11  1  0.91913200  0.26776500  0.99128900  1
  Br  Br12  1  0.01479900  0.40903300  0.66373800  1
  Br  Br13  1  0.45545000  0.18172200  0.46610000  1
  Br  Br14  1  0.60768600  0.01178400  0.34661400  1
  Br  Br15  1  0.27330900  0.46449700  0.53357700  1
  Br  Br16  1  0.39538900  0.98615500  0.66090000  1
  Br  Br17  1  0.60582000  0.12264900  0.86246400  1
  Br  Br18  1  0.05833700  0.20781700  0.80282200  1
  Br  Br19  1  0.94707700  0.80224100  0.20188800  1
  Br  Br20  1  0.84699100  0.06263000  0.19800400  1
  Br  Br21  1  0.22762300  0.92270600  0.33955800  1
  Br  Br22  1  0.78828500  0.84236200  0.80306300  1
  Br  Br23  1  0.98639400  0.60353700  0.33932300  1
  Br  Br24  1  0.31336000  0.24712200  0.66754400  1
  Br  Br25  1  0.53735100  0.81032700  0.53640500  1
  Br  Br26  1  0.81801900  0.26394600  0.46982600  1
  Br  Br27  1  0.51989100  0.39774100  0.86521700  1
  Br  Br28  1  0.35639400  0.08933500  0.99894800  1
  Br  Br29  1  0.65220400  0.91964400  0.00311300  1
  Br  Br30  1  0.15631300  0.93751200  0.80575500  1
  Br  Br31  1  0.27139600  0.34392200  0.01192600  1
  Br  Br32  1  0.75858700  0.06793900  0.66840500  1
  Br  Br33  1  0.18440600  0.72906400  0.53486900  1
  Br  Br34  1  0.39870300  0.38621500  0.34301300  1
  Br  Br35  1  0.07825900  0.31160100  0.33647100  1
  Br  Br36  1  0.41218300  0.94640200  0.17354500  1
loop_
_geom_bond_atom_site_label_1
_geom_bond_atom_site_label_2
_geom_bond_distance
_geom_bond_site_symmetry_2
Bi0 Bi14 3.107182 1_545
Bi0 Br10 3.202025 1_545
Bi1 Br35 3.137640 1_555
Bi3 Ir2 2.710322 1_555
Bi3 Br16 2.961239 1_545
Bi3 Br13 2.989003 1_555
Bi3 Br26 3.044864 1_555
Bi3 Br32 3.066170 1_555
Bi4 Ir2 2.719722 1_555
Bi4 Br17 2.962552 1_555
Bi4 Br9 2.969838 1_555
Bi4 Br32 3.012369 1_555
Bi4 Br12 3.034564 1_655
Bi6 Br32 3.309428 1_455
Bi7 Br36 3.278603 1_545
Bi8 Ir0 2.725148 1_554
Bi8 Br31 2.964273 1_555
Bi8 Br6 2.976031 1_555
Bi8 Br11 2.999496 1_454
Bi8 Br20 3.017839 1_455
Bi9 Ir0 2.722743 1_665
Bi9 Br5 2.945080 1_555
Bi9 Br22 2.965702 1_555
Bi9 Br30 3.013934 1_655
Bi9 Br0 3.037177 1_656
Bi10 Ir2 2.730103 1_555
Bi10 Br16 2.938896 1_545
Bi10 Br17 2.950902 1_555
Bi10 Br24 3.001521 1_555
Bi10 Br27 3.059476 1_555
Bi11 Bi25 3.030187 1_555
Bi11 Bi13 3.034181 1_555
Bi11 Bi5 3.189119 1_555
Bi11 Br8 3.466817 1_555
Bi12 Bi7 3.033151 1_555
Bi13 Bi26 3.026072 1_555
Bi13 Bi5 3.103330 1_555
Bi14 Bi2 3.190297 1_655
Bi14 Bi6 3.190340 1_665
Bi14 Bi18 3.302237 1_555
Bi15 Ir0 2.719696 1_655
Bi15 Br22 2.954207 1_545
Bi15 Br18 2.985106 1_655
Bi15 Br29 3.012391 1_546
Bi15 Br11 3.014366 1_555
Bi16 Ir0 2.722259 1_555
Bi16 Br18 2.965527 1_555
Bi16 Br30 2.990819 1_545
Bi16 Br31 3.009528 1_556
Bi16 Br28 3.016045 1_555
Bi17 Ir1 2.726800 1_555
Bi17 Br2 2.958450 1_555
Bi17 Br23 2.983531 1_455
Bi17 Br21 3.159227 1_555
Bi17 Br36 3.256462 1_555
Bi17 Br1 3.278911 1_555
Bi18 Br21 3.058768 1_655
Bi19 Ir1 2.706227 1_555
Bi19 Br25 2.971274 1_555
Bi19 Br33 2.985994 1_555
Bi19 Br14 3.012895 1_565
Bi19 Br21 3.085626 1_555
Bi20 Ir1 2.699788 1_555
Bi20 Br34 3.045081 1_555
Bi20 Br35 3.058694 1_555
Bi20 Br1 3.102181 1_555
Bi20 Br2 3.187292 1_555
Bi20 Br4 3.395891 1_555
Bi21 Ir1 2.702142 1_555
Bi21 Br15 2.975989 1_555
Bi21 Br25 2.989361 1_555
Bi21 Br34 3.010915 1_555
Bi21 Br10 3.114919 1_555
Bi22 Ir2 2.711431 1_555
Bi22 Br3 2.981493 1_555
Bi22 Br7 2.986718 1_555
Bi22 Br12 3.011214 1_655
Bi22 Br26 3.048615 1_555
Bi23 Ir2 2.719193 1_555
Bi23 Br8 2.989610 1_555
Bi23 Br7 2.991480 1_555
Bi23 Br24 3.013022 1_555
Bi23 Br13 3.013681 1_555
Bi24 Ir2 2.723630 1_555
Bi24 Br27 2.959597 1_555
Bi24 Br8 2.990745 1_555
Bi24 Br9 2.996653 1_555
Bi24 Br3 3.020693 1_555
Bi25 Bi26 3.016931 1_555
Bi25 Bi5 3.125694 1_555
Bi26 Bi5 3.177102 1_555
Bi27 Ir1 2.704277 1_555
Bi27 Br33 2.954198 1_555
Bi27 Br23 2.999397 1_455
Bi27 Br15 3.006724 1_555
Bi27 Br35 3.095289 1_555
Bi29 Ir1 2.718978 1_555
Bi29 Br14 2.968193 1_565
Bi29 Br36 2.991408 1_555
Bi29 Br1 3.061452 1_555
Bi29 Br10 3.152546 1_555
Bi30 Ir0 2.724618 1_664
Bi30 Br29 2.962155 1_555
Bi30 Br5 2.979194 1_554
Bi30 Br19 3.000916 1_555
Bi30 Br20 3.018774 1_565
Bi31 Br4 2.910662 1_555
Bi31 Bi7 3.114011 1_555
Bi32 Ir0 2.716387 1_564
Bi32 Br19 2.949775 1_455
Bi32 Br6 2.970942 1_565
Bi32 Br0 2.978477 1_555
Bi32 Br28 3.091624 1_564
Bi33 Bi7 3.031889 1_555
Bi33 Br28 3.214163 1_554
