# generated using pymatgen
data_Na7Zr4Si5PO24
_symmetry_space_group_name_H-M   'P 1'
_cell_length_a   9.23334700
_cell_length_b   9.24001998
_cell_length_c   9.27093084
_cell_angle_alpha   60.83706791
_cell_angle_beta   60.28308702
_cell_angle_gamma   60.18384451
_symmetry_Int_Tables_number   1
_chemical_formula_structural   Na7Zr4Si5PO24
_chemical_formula_sum   'Na7 Zr4 Si5 P1 O24'
_cell_volume   564.74860466
_cell_formula_units_Z   1
loop_
 _symmetry_equiv_pos_site_id
 _symmetry_equiv_pos_as_xyz
  1  'x, y, z'
loop_
 _atom_site_type_symbol
 _atom_site_label
 _atom_site_symmetry_multiplicity
 _atom_site_fract_x
 _atom_site_fract_y
 _atom_site_fract_z
 _atom_site_occupancy
  Na  Na0  1  0.99052700  0.00548000  0.99718400  1
  Na  Na1  1  0.25936100  0.89532300  0.21229100  1
  Na  Na2  1  0.89288700  0.60613200  0.24592200  1
  Na  Na3  1  0.46058300  0.68322800  0.56299600  1
  Na  Na4  1  0.57881400  0.25292500  0.34086600  1
  Na  Na5  1  0.12147300  0.39775800  0.73285800  1
  Na  Na6  1  0.74389700  0.12580200  0.75430400  1
  Zr  Zr0  1  0.85398700  0.84206000  0.44346100  1
  Zr  Zr1  1  0.65431600  0.64088900  0.06156500  1
  Zr  Zr2  1  0.34948700  0.35628900  0.94121100  1
  Zr  Zr3  1  0.14920700  0.14854100  0.55473500  1
  Si  Si0  1  0.55252600  0.96547700  0.23335400  1
  Si  Si1  1  0.24900000  0.53527100  0.25975600  1
  Si  Si2  1  0.96448400  0.24492000  0.24263700  1
  Si  Si3  1  0.03527700  0.75034200  0.76293800  1
  Si  Si4  1  0.75281500  0.46365800  0.73679900  1
  P  P0  1  0.44965500  0.03773300  0.75891800  1
  O  O0  1  0.48299000  0.88737300  0.92664500  1
  O  O1  1  0.87201500  0.72397500  0.94882300  1
  O  O2  1  0.73322300  0.94072900  0.24942300  1
  O  O3  1  0.73854300  0.52777000  0.88088800  1
  O  O4  1  0.38159300  0.00997600  0.40730700  1
  O  O5  1  0.55788900  0.77965000  0.24327100  1
  O  O6  1  0.08627800  0.72380700  0.26596000  1
  O  O7  1  0.43120400  0.56186900  0.21222200  1
  O  O8  1  0.78403900  0.41462100  0.22494100  1
  O  O9  1  0.98052400  0.77144200  0.60747900  1
  O  O10  1  0.06319100  0.92973400  0.72393100  1
  O  O11  1  0.78334100  0.61963700  0.54473500  1
  O  O12  1  0.22353000  0.37325000  0.44598800  1
  O  O13  1  0.93099500  0.06869300  0.28300000  1
  O  O14  1  0.00185000  0.23130600  0.40583100  1
  O  O15  1  0.21795100  0.57931700  0.76618900  1
  O  O16  1  0.57486300  0.43366700  0.77466200  1
  O  O17  1  0.91944900  0.27621600  0.73764800  1
  O  O18  1  0.44152700  0.21295200  0.75243200  1
  O  O19  1  0.60666200  0.99443200  0.59336400  1
  O  O20  1  0.25236500  0.48192300  0.11318000  1
  O  O21  1  0.27193400  0.06429400  0.75466900  1
  O  O22  1  0.13696300  0.26168900  0.06393200  1
  O  O23  1  0.52278500  0.12444900  0.05488000  1
loop_
_geom_bond_atom_site_label_1
_geom_bond_atom_site_label_2
_geom_bond_distance
_geom_bond_site_symmetry_2
Na0 O2 2.452071 1_546
Na0 O21 2.554056 1_655
Na0 O17 2.558308 1_555
Na0 O10 2.633168 1_645
Na0 O6 2.709236 1_646
Na0 O13 2.722077 1_556
Na1 O0 2.428878 1_554
Na1 O6 2.505000 1_555
Na1 O5 2.525603 1_555
Na1 O13 2.532090 1_465
Na1 O7 2.673990 1_555
Na1 O22 2.797780 1_565
Na2 O11 2.479197 1_555
Na2 O1 2.490792 1_554
Na2 O8 2.545022 1_555
Na2 O6 2.619506 1_655
Na2 O5 2.691481 1_555
Na2 O2 2.692726 1_555
Na2 O20 2.717948 1_655
Na2 O14 2.866144 1_655
Na3 O16 2.346220 1_555
Na3 O15 2.383632 1_555
Na3 O5 2.443171 1_555
Na3 O4 2.517437 1_565
Na3 O11 2.666559 1_555
Na4 O19 2.405753 1_545
Na4 O7 2.419392 1_555
Na4 O8 2.491866 1_555
Na4 O12 2.684536 1_555
Na4 O13 2.723162 1_555
Na4 O2 2.857980 1_545
Na5 O12 2.429515 1_555
Na5 O15 2.442882 1_555
Na5 O17 2.587524 1_455
Na5 O21 2.622845 1_555
Na5 O18 2.625520 1_555
Na5 O22 2.741829 1_556
Na5 O9 2.843698 1_455
Na5 O3 2.898282 1_455
Na6 O18 2.498419 1_555
Na6 O23 2.506903 1_556
Na6 O17 2.523066 1_555
Na6 O16 2.525833 1_555
Na6 O10 2.532945 1_645
Na6 O14 2.944688 1_655
O0 P0 1.544904 1_565
O0 Zr1 2.203786 1_556
O1 Si3 1.637709 1_655
O1 Zr1 2.095687 1_556
O2 Si0 1.640729 1_555
O2 Zr0 2.165639 1_555
O3 Si4 1.634578 1_555
O3 Zr1 2.027195 1_556
O4 Si0 1.654775 1_545
O4 Zr3 2.043866 1_555
O5 Si0 1.650835 1_555
O5 Zr1 2.181113 1_555
O6 Si1 1.644588 1_555
O6 Zr0 2.103512 1_455
O7 Si1 1.629568 1_555
O7 Zr1 2.092137 1_555
O8 Si2 1.638255 1_555
O8 Zr1 2.078961 1_555
O9 Si3 1.649640 1_655
O9 Zr0 2.034531 1_555
O10 Si3 1.641047 1_555
O10 Zr3 2.109448 1_565
O11 Si4 1.653032 1_555
O11 Zr0 2.091937 1_555
O12 Si1 1.644983 1_555
O12 Zr3 2.118809 1_555
O13 Si2 1.636851 1_555
O13 Zr0 2.121267 1_545
O14 Si2 1.647052 1_455
O14 Zr3 2.034784 1_555
O15 Si3 1.642096 1_555
O15 Zr2 2.135590 1_555
O16 Si4 1.638882 1_555
O16 Zr2 2.108034 1_555
O17 Si4 1.647965 1_555
O17 Zr3 2.159203 1_655
O18 P0 1.555397 1_555
O18 Zr2 2.281355 1_555
O19 P0 1.559854 1_565
O19 Zr0 2.166052 1_555
O20 Si1 1.638990 1_555
O20 Zr2 2.011136 1_554
O21 P0 1.552001 1_555
O21 Zr3 2.263801 1_555
O22 Si2 1.638424 1_455
O22 Zr2 2.105277 1_554
O23 Si0 1.628339 1_545
O23 Zr2 2.079158 1_554
