# generated using pymatgen
data_V2CuO6
_symmetry_space_group_name_H-M   'P 1'
_cell_length_a   3.54595787
_cell_length_b   4.97674656
_cell_length_c   6.46871623
_cell_angle_alpha   107.90946706
_cell_angle_beta   93.06584421
_cell_angle_gamma   112.94858871
_symmetry_Int_Tables_number   1
_chemical_formula_structural   V2CuO6
_chemical_formula_sum   'V2 Cu1 O6'
_cell_volume   98.04917894
_cell_formula_units_Z   1
loop_
 _symmetry_equiv_pos_site_id
 _symmetry_equiv_pos_as_xyz
  1  'x, y, z'
loop_
 _atom_site_type_symbol
 _atom_site_label
 _atom_site_symmetry_multiplicity
 _atom_site_fract_x
 _atom_site_fract_y
 _atom_site_fract_z
 _atom_site_occupancy
  V  V0  1  0.20539916  0.38146204  0.65317034  1
  V  V1  1  0.79062014  0.61862886  0.34685410  1
  Cu  Cu0  1  0.99795944  0.99947767  0.99981122  1
  O  O0  1  0.03104174  0.05509287  0.72168396  1
  O  O1  1  0.96512954  0.94494524  0.27825291  1
  O  O2  1  0.40497917  0.68846868  0.89060182  1
  O  O3  1  0.59076827  0.31168868  0.10948850  1
  O  O4  1  0.29865560  0.61307989  0.43126718  1
  O  O5  1  0.69745095  0.38715807  0.56886997  1
loop_
_geom_bond_atom_site_label_1
_geom_bond_atom_site_label_2
_geom_bond_distance
_geom_bond_site_symmetry_2
Cu0 O1 1.905208 1_556
Cu0 O0 1.905451 1_665
Cu0 O2 1.986639 1_555
Cu0 O3 1.987919 1_666
Cu0 O2 2.481215 1_655
Cu0 O3 2.486667 1_566
O0 V0 1.704649 1_555
O0 V1 2.533719 1_445
O1 V1 1.704742 1_555
O1 V0 2.534241 1_665
O2 V0 1.670775 1_555
O3 V1 1.670376 1_555
O4 V1 1.848177 1_555
O4 V1 1.867372 1_455
O4 V0 2.066325 1_555
O5 V0 1.848024 1_555
O5 V0 1.867249 1_655
O5 V1 2.066450 1_555
