# generated using pymatgen
data_Cu2AsClO4
_symmetry_space_group_name_H-M   'P 1'
_cell_length_a   6.66016400
_cell_length_b   4.91838300
_cell_length_c   6.93260490
_cell_angle_alpha   88.17074804
_cell_angle_beta   90.00000000
_cell_angle_gamma   90.00000000
_symmetry_Int_Tables_number   1
_chemical_formula_structural   Cu2AsClO4
_chemical_formula_sum   'Cu4 As2 Cl2 O8'
_cell_volume   226.97725643
_cell_formula_units_Z   2
loop_
 _symmetry_equiv_pos_site_id
 _symmetry_equiv_pos_as_xyz
  1  'x, y, z'
loop_
 _atom_site_type_symbol
 _atom_site_label
 _atom_site_symmetry_multiplicity
 _atom_site_fract_x
 _atom_site_fract_y
 _atom_site_fract_z
 _atom_site_occupancy
  Cu  Cu0  1  0.75000000  0.64125300  0.26676000  1
  Cu  Cu1  1  0.25000000  0.35874700  0.73324000  1
  Cu  Cu2  1  0.00000000  0.00000000  0.00000000  1
  Cu  Cu3  1  0.50000000  0.00000000  0.00000000  1
  As  As0  1  0.25000000  0.49183500  0.23970600  1
  As  As1  1  0.75000000  0.50816500  0.76029400  1
  Cl  Cl0  1  0.75000000  0.16760400  0.24456300  1
  Cl  Cl1  1  0.25000000  0.83239600  0.75543700  1
  O  O0  1  0.45797000  0.70079700  0.19989300  1
  O  O1  1  0.95797000  0.29920300  0.80010700  1
  O  O2  1  0.25000000  0.23756600  0.06333300  1
  O  O3  1  0.04203000  0.70079700  0.19989300  1
  O  O4  1  0.75000000  0.67795200  0.54647400  1
  O  O5  1  0.25000000  0.32204800  0.45352600  1
  O  O6  1  0.54203000  0.29920300  0.80010700  1
  O  O7  1  0.75000000  0.76243400  0.93666700  1
loop_
_geom_bond_atom_site_label_1
_geom_bond_atom_site_label_2
_geom_bond_distance
_geom_bond_site_symmetry_2
Cu0 O4 1.953258 1_555
Cu0 O0 2.018636 1_555
Cu0 O3 2.018636 1_655
Cu0 O7 2.346263 1_554
Cu1 O5 1.953258 1_555
Cu1 O6 2.018636 1_555
Cu1 O1 2.018636 1_455
Cu1 O2 2.346263 1_556
Cu2 O3 2.008517 1_545
Cu2 O1 2.008517 1_454
Cu2 O7 2.088814 1_444
Cu2 O2 2.088814 1_555
Cu3 O6 2.008517 1_554
Cu3 O0 2.008517 1_545
Cu3 O7 2.088814 1_544
Cu3 O2 2.088814 1_555
As0 O5 1.677983 1_555
As0 O3 1.741520 1_555
As0 O0 1.741520 1_555
As0 O2 1.776699 1_555
As1 O4 1.677983 1_555
As1 O6 1.741520 1_555
As1 O1 1.741520 1_555
As1 O7 1.776699 1_555
Cl0 Cu0 2.339560 1_555
Cl0 Cu3 2.532925 1_555
Cl0 Cu2 2.532925 1_655
Cl0 Cu0 2.588457 1_545
Cl1 Cu1 2.339560 1_555
Cl1 Cu3 2.532925 1_566
Cl1 Cu2 2.532925 1_566
Cl1 Cu1 2.588457 1_565
