# generated using pymatgen
data_KDyH2C2SO9
_symmetry_space_group_name_H-M   'P 1'
_cell_length_a   8.65153900
_cell_length_b   6.59708800
_cell_length_c   14.88120209
_cell_angle_alpha   67.94975069
_cell_angle_beta   90.00000000
_cell_angle_gamma   90.00000000
_symmetry_Int_Tables_number   1
_chemical_formula_structural   KDyH2C2SO9
_chemical_formula_sum   'K4 Dy4 H8 C8 S4 O36'
_cell_volume   787.21877080
_cell_formula_units_Z   4
loop_
 _symmetry_equiv_pos_site_id
 _symmetry_equiv_pos_as_xyz
  1  'x, y, z'
loop_
 _atom_site_type_symbol
 _atom_site_label
 _atom_site_symmetry_multiplicity
 _atom_site_fract_x
 _atom_site_fract_y
 _atom_site_fract_z
 _atom_site_occupancy
  K  K0  1  0.65507800  0.03674500  0.69580800  1
  K  K1  1  0.84492200  0.03674500  0.19580800  1
  K  K2  1  0.15507800  0.96325500  0.80419200  1
  K  K3  1  0.34492200  0.96325500  0.30419200  1
  Dy  Dy0  1  0.73864500  0.33457800  0.41114600  1
  Dy  Dy1  1  0.23864500  0.66542200  0.08885400  1
  Dy  Dy2  1  0.76135500  0.33457800  0.91114600  1
  Dy  Dy3  1  0.26135500  0.66542200  0.58885400  1
  H  H0  1  0.54469100  0.03482600  0.07332400  1
  H  H1  1  0.04469100  0.96517400  0.42667600  1
  H  H2  1  0.46889400  0.73325000  0.92189500  1
  H  H3  1  0.45530900  0.96517400  0.92667600  1
  H  H4  1  0.96889400  0.26675000  0.57810500  1
  H  H5  1  0.95530900  0.03482600  0.57332400  1
  H  H6  1  0.53110600  0.26675000  0.07810500  1
  H  H7  1  0.03110600  0.73325000  0.42189500  1
  C  C0  1  0.97076900  0.63157900  0.73211900  1
  C  C1  1  0.02923100  0.36842100  0.26788100  1
  C  C2  1  0.96618200  0.41209900  0.71978500  1
  C  C3  1  0.03381800  0.58790100  0.28021500  1
  C  C4  1  0.46618200  0.58790100  0.78021500  1
  C  C5  1  0.52923100  0.63157900  0.23211900  1
  C  C6  1  0.53381800  0.41209900  0.21978500  1
  C  C7  1  0.47076900  0.36842100  0.76788100  1
  S  S0  1  0.16292600  0.25656300  0.97771400  1
  S  S1  1  0.66292600  0.74343700  0.52228600  1
  S  S2  1  0.33707400  0.25656300  0.47771400  1
  S  S3  1  0.83707400  0.74343700  0.02228600  1
  O  O0  1  0.77067100  0.95534300  0.95567600  1
  O  O1  1  0.44344500  0.77879100  0.17315400  1
  O  O2  1  0.76706300  0.56347300  0.99827500  1
  O  O3  1  0.73293700  0.56347300  0.49827500  1
  O  O4  1  0.89272100  0.64938700  0.80055900  1
  O  O5  1  0.05655500  0.77879100  0.67315400  1
  O  O6  1  0.44426800  0.39193900  0.15543800  1
  O  O7  1  0.90631500  0.17985200  0.54954300  1
  O  O8  1  0.94344500  0.22120900  0.32684600  1
  O  O9  1  0.10727900  0.35061300  0.19944100  1
  O  O10  1  0.69529000  0.70977600  0.62399400  1
  O  O11  1  0.12330000  0.73247100  0.22511100  1
  O  O12  1  0.39272100  0.35061300  0.69944100  1
  O  O13  1  0.99128200  0.25251500  0.99388100  1
  O  O14  1  0.59368500  0.17985200  0.04954300  1
  O  O15  1  0.37670000  0.73247100  0.72511100  1
  O  O16  1  0.62330000  0.26752900  0.27488900  1
  O  O17  1  0.80471000  0.70977600  0.12399400  1
  O  O18  1  0.09368500  0.82014800  0.45045700  1
  O  O19  1  0.30471000  0.29022400  0.37600600  1
  O  O20  1  0.94426800  0.60806100  0.34456200  1
  O  O21  1  0.60727900  0.64938700  0.30055900  1
  O  O22  1  0.26706300  0.43652700  0.50172500  1
  O  O23  1  0.72932900  0.95534300  0.45567600  1
  O  O24  1  0.05573200  0.39193900  0.65543800  1
  O  O25  1  0.55573200  0.60806100  0.84456200  1
  O  O26  1  0.23293700  0.43652700  0.00172500  1
  O  O27  1  0.27067100  0.04465700  0.54432400  1
  O  O28  1  0.87670000  0.26752900  0.77488900  1
  O  O29  1  0.50871800  0.25251500  0.49388100  1
  O  O30  1  0.00871800  0.74748500  0.00611900  1
  O  O31  1  0.22932900  0.04465700  0.04432400  1
  O  O32  1  0.19529000  0.29022400  0.87600600  1
  O  O33  1  0.40631500  0.82014800  0.95045700  1
  O  O34  1  0.55655500  0.22120900  0.82684600  1
  O  O35  1  0.49128200  0.74748500  0.50611900  1
loop_
_geom_bond_atom_site_label_1
_geom_bond_atom_site_label_2
_geom_bond_distance
_geom_bond_site_symmetry_2
K0 O10 2.765279 1_545
K0 O34 2.791363 1_555
K0 O28 2.953730 1_555
K0 O7 2.968243 1_555
K0 O25 2.989380 1_545
K0 O15 3.059845 1_545
K0 O29 3.073678 1_555
K0 O12 3.086483 1_555
K0 O4 3.193160 1_545
K1 O17 2.765279 1_545
K1 O8 2.791363 1_555
K1 O16 2.953730 1_555
K1 O14 2.968243 1_555
K1 O20 2.989380 1_545
K1 O11 3.059845 1_645
K1 O13 3.073678 1_554
K1 O9 3.086483 1_655
K1 O21 3.193160 1_545
K2 O32 2.765279 1_565
K2 O5 2.791363 1_555
K2 O15 2.953730 1_555
K2 O33 2.968243 1_555
K2 O24 2.989380 1_565
K2 O28 3.059845 1_465
K2 O30 3.073678 1_556
K2 O4 3.086483 1_455
K2 O12 3.193160 1_565
K3 O19 2.765279 1_565
K3 O1 2.791363 1_555
K3 O11 2.953730 1_555
K3 O18 2.968243 1_555
K3 O6 2.989380 1_565
K3 O16 3.059845 1_565
K3 O35 3.073678 1_555
K3 O21 3.086483 1_555
K3 O9 3.193160 1_565
Dy0 O29 2.294662 1_555
Dy0 O3 2.331063 1_555
Dy0 O23 2.336676 1_545
Dy0 O21 2.397269 1_555
Dy0 O7 2.410254 1_555
Dy0 O16 2.444656 1_555
Dy0 O8 2.444782 1_555
Dy0 O20 2.461567 1_555
Dy1 O30 2.294662 1_555
Dy1 O26 2.331063 1_555
Dy1 O31 2.336676 1_565
Dy1 O9 2.397269 1_555
Dy1 O33 2.410254 1_554
Dy1 O11 2.444656 1_555
Dy1 O1 2.444782 1_555
Dy1 O6 2.461567 1_555
Dy2 O13 2.294662 1_555
Dy2 O2 2.331063 1_555
Dy2 O0 2.336676 1_545
Dy2 O4 2.397269 1_555
Dy2 O14 2.410254 1_556
Dy2 O28 2.444656 1_555
Dy2 O34 2.444782 1_555
Dy2 O25 2.461567 1_555
Dy3 O35 2.294662 1_555
Dy3 O22 2.331063 1_555
Dy3 O27 2.336676 1_565
Dy3 O12 2.397269 1_555
Dy3 O18 2.410254 1_555
Dy3 O15 2.444656 1_555
Dy3 O5 2.444782 1_555
Dy3 O24 2.461567 1_555
H0 O14 0.982880 1_555
H1 O18 0.982880 1_555
H2 O33 0.992658 1_555
H3 O33 0.982880 1_555
H4 O7 0.992658 1_555
H5 O7 0.982880 1_555
H6 O14 0.992658 1_555
H7 O18 0.992658 1_555
C0 O4 1.263670 1_555
C0 O5 1.274407 1_655
C1 O9 1.263670 1_555
C1 O8 1.274407 1_455
C2 O28 1.262595 1_555
C2 O24 1.276896 1_655
C3 O11 1.262595 1_555
C3 O20 1.276896 1_455
C4 O15 1.262595 1_555
C4 O25 1.276896 1_555
C5 O21 1.263670 1_555
C5 O1 1.274407 1_555
C6 O16 1.262595 1_555
C6 O6 1.276896 1_555
C7 O12 1.263670 1_555
C7 O34 1.274407 1_555
O0 S3 1.492126 1_556
O2 S3 1.490839 1_556
O3 S1 1.490839 1_555
O10 S1 1.471784 1_555
O13 S0 1.502980 1_655
O17 S3 1.471784 1_555
O19 S2 1.471784 1_555
O22 S2 1.490839 1_555
O23 S1 1.492126 1_555
O26 S0 1.490839 1_554
O27 S2 1.492126 1_555
O29 S2 1.502980 1_555
O30 S3 1.502980 1_455
O31 S0 1.492126 1_554
O32 S0 1.471784 1_555
O35 S1 1.502980 1_555
