# generated using pymatgen
data_Tb4Ga6FeGe6
_symmetry_space_group_name_H-M   'P 1'
_cell_length_a   7.45074391
_cell_length_b   7.45074391
_cell_length_c   7.45074391
_cell_angle_alpha   109.47122063
_cell_angle_beta   109.47122063
_cell_angle_gamma   109.47122063
_symmetry_Int_Tables_number   1
_chemical_formula_structural   Tb4Ga6FeGe6
_chemical_formula_sum   'Tb4 Ga6 Fe1 Ge6'
_cell_volume   318.40290254
_cell_formula_units_Z   1
loop_
 _symmetry_equiv_pos_site_id
 _symmetry_equiv_pos_as_xyz
  1  'x, y, z'
loop_
 _atom_site_type_symbol
 _atom_site_label
 _atom_site_symmetry_multiplicity
 _atom_site_fract_x
 _atom_site_fract_y
 _atom_site_fract_z
 _atom_site_occupancy
  Tb  Tb0  1  0.00000000  0.00000000  0.50000000  1
  Tb  Tb1  1  0.50000000  0.50000000  0.50000000  1
  Tb  Tb2  1  0.00000000  0.50000000  0.00000000  1
  Tb  Tb3  1  0.50000000  0.00000000  0.00000000  1
  Ga  Ga0  1  0.75000000  0.50000000  0.25000000  1
  Ga  Ga1  1  0.50000000  0.75000000  0.25000000  1
  Ga  Ga2  1  0.75000000  0.25000000  0.50000000  1
  Ga  Ga3  1  0.25000000  0.75000000  0.50000000  1
  Ga  Ga4  1  0.25000000  0.50000000  0.75000000  1
  Ga  Ga5  1  0.50000000  0.25000000  0.75000000  1
  Fe  Fe0  1  0.00000000  0.00000000  0.00000000  1
  Ge  Ge0  1  0.28788800  0.28788800  0.00000000  1
  Ge  Ge1  1  0.00000000  0.28788800  0.28788800  1
  Ge  Ge2  1  0.00000000  0.71211200  0.71211200  1
  Ge  Ge3  1  0.71211200  0.71211200  0.00000000  1
  Ge  Ge4  1  0.28788800  0.00000000  0.28788800  1
  Ge  Ge5  1  0.71211200  0.00000000  0.71211200  1
loop_
_geom_bond_atom_site_label_1
_geom_bond_atom_site_label_2
_geom_bond_distance
_geom_bond_site_symmetry_2
Ga0 Ge2 2.820695 1_655
Ga0 Ge3 2.820695 1_555
Ga0 Ge0 2.820695 1_555
Ga0 Ge1 2.820695 1_655
Ga0 Tb2 3.041753 1_655
Ga0 Tb3 3.041753 1_555
Ga0 Tb1 3.041753 1_555
Ga0 Tb0 3.041753 1_665
Ga1 Ge3 2.820695 1_555
Ga1 Ge5 2.820695 1_565
Ga1 Ge4 2.820695 1_565
Ga1 Ge0 2.820695 1_555
Ga1 Tb2 3.041753 1_555
Ga1 Tb3 3.041753 1_565
Ga1 Tb1 3.041753 1_555
Ga1 Tb0 3.041753 1_665
Ga2 Ge2 2.820695 1_655
Ga2 Ge1 2.820695 1_655
Ga2 Ge5 2.820695 1_555
Ga2 Ge4 2.820695 1_555
Ga2 Tb2 3.041753 1_656
Ga2 Tb3 3.041753 1_555
Ga2 Tb1 3.041753 1_555
Ga2 Tb0 3.041753 1_655
Ga3 Ge5 2.820695 1_565
Ga3 Ge2 2.820695 1_555
Ga3 Ge1 2.820695 1_555
Ga3 Ge4 2.820695 1_565
Ga3 Tb2 3.041753 1_555
Ga3 Tb1 3.041753 1_555
Ga3 Tb0 3.041753 1_565
Ga3 Tb3 3.041753 1_566
Ga4 Ge3 2.820695 1_556
Ga4 Ge2 2.820695 1_555
Ga4 Ge0 2.820695 1_556
Ga4 Ge1 2.820695 1_555
Ga4 Tb2 3.041753 1_556
Ga4 Tb0 3.041753 1_555
Ga4 Tb1 3.041753 1_555
Ga4 Tb3 3.041753 1_566
Ga5 Ge5 2.820695 1_555
Ga5 Ge3 2.820695 1_556
Ga5 Ge0 2.820695 1_556
Ga5 Ge4 2.820695 1_555
Ga5 Tb2 3.041753 1_656
Ga5 Tb0 3.041753 1_555
Ga5 Tb3 3.041753 1_556
Ga5 Tb1 3.041753 1_555
Fe0 Ge4 2.476809 1_555
Fe0 Ge0 2.476809 1_555
Fe0 Ge1 2.476809 1_555
Fe0 Ge2 2.476809 1_544
Fe0 Ge3 2.476809 1_445
Fe0 Ge5 2.476809 1_454
Ge0 Tb3 3.059169 1_555
Ge0 Tb0 3.059169 1_554
Ge0 Tb1 3.059169 1_555
Ge0 Tb2 3.059169 1_555
Ge1 Tb1 3.059169 1_555
Ge1 Tb2 3.059169 1_555
Ge1 Tb3 3.059169 1_455
Ge1 Tb0 3.059169 1_555
Ge2 Tb1 3.059169 1_455
Ge2 Tb3 3.059169 1_566
Ge2 Tb0 3.059169 1_565
Ge2 Tb2 3.059169 1_556
Ge3 Tb1 3.059169 1_554
Ge3 Tb0 3.059169 1_665
Ge3 Tb2 3.059169 1_655
Ge3 Tb3 3.059169 1_565
Ge4 Tb3 3.059169 1_555
Ge4 Tb2 3.059169 1_545
Ge4 Tb1 3.059169 1_555
Ge4 Tb0 3.059169 1_555
Ge5 Tb3 3.059169 1_556
Ge5 Tb0 3.059169 1_655
Ge5 Tb1 3.059169 1_545
Ge5 Tb2 3.059169 1_656
