# generated using pymatgen
data_KCa2Be2Al(Si2O5)6
_symmetry_space_group_name_H-M   'P 1'
_cell_length_a   10.47966448
_cell_length_b   10.47966448
_cell_length_c   14.09466300
_cell_angle_alpha   90.00000000
_cell_angle_beta   90.00000000
_cell_angle_gamma   119.96705842
_symmetry_Int_Tables_number   1
_chemical_formula_structural   KCa2Be2Al(Si2O5)6
_chemical_formula_sum   'K2 Ca4 Be4 Al2 Si24 O60'
_cell_volume   1340.98570981
_cell_formula_units_Z   2
loop_
 _symmetry_equiv_pos_site_id
 _symmetry_equiv_pos_as_xyz
  1  'x, y, z'
loop_
 _atom_site_type_symbol
 _atom_site_label
 _atom_site_symmetry_multiplicity
 _atom_site_fract_x
 _atom_site_fract_y
 _atom_site_fract_z
 _atom_site_occupancy
  K  K0  1  0.00000000  0.00000000  0.75018000  1
  K  K1  1  0.00000000  0.00000000  0.25018000  1
  Ca  Ca0  1  0.32534900  0.64992300  0.24985800  1
  Ca  Ca1  1  0.35007700  0.67465100  0.74985800  1
  Ca  Ca2  1  0.67465100  0.35007700  0.24985800  1
  Ca  Ca3  1  0.64992300  0.32534900  0.74985800  1
  Be  Be0  1  0.50000000  0.00000000  0.74935700  1
  Be  Be1  1  0.00000000  0.50000000  0.24935700  1
  Be  Be2  1  0.50000000  0.50000000  0.25030300  1
  Be  Be3  1  0.50000000  0.50000000  0.75030300  1
  Al  Al0  1  0.50000000  0.00000000  0.25032800  1
  Al  Al1  1  0.00000000  0.50000000  0.75032800  1
  Si  Si0  1  0.25949600  0.34345300  0.61159500  1
  Si  Si1  1  0.25486700  0.33774700  0.38918600  1
  Si  Si2  1  0.08212500  0.33485000  0.89194600  1
  Si  Si3  1  0.08215600  0.33476100  0.11285600  1
  Si  Si4  1  0.65654700  0.74050400  0.11159500  1
  Si  Si5  1  0.66225300  0.74513300  0.88918600  1
  Si  Si6  1  0.66515000  0.91787500  0.39194600  1
  Si  Si7  1  0.66523900  0.91784400  0.61285600  1
  Si  Si8  1  0.74566800  0.08221700  0.10779900  1
  Si  Si9  1  0.74108200  0.08331300  0.88657800  1
  Si  Si10  1  0.08221700  0.74566800  0.60779900  1
  Si  Si11  1  0.08331300  0.74108200  0.38657800  1
  Si  Si12  1  0.91778300  0.25433200  0.60779900  1
  Si  Si13  1  0.91668700  0.25891800  0.38657800  1
  Si  Si14  1  0.25433200  0.91778300  0.10779900  1
  Si  Si15  1  0.25891800  0.91668700  0.88657800  1
  Si  Si16  1  0.33485000  0.08212500  0.39194600  1
  Si  Si17  1  0.33476100  0.08215600  0.61285600  1
  Si  Si18  1  0.34345300  0.25949600  0.11159500  1
  Si  Si19  1  0.33774700  0.25486700  0.88918600  1
  Si  Si20  1  0.91784400  0.66523900  0.11285600  1
  Si  Si21  1  0.91787500  0.66515000  0.89194600  1
  Si  Si22  1  0.74050400  0.65654700  0.61159500  1
  Si  Si23  1  0.74513300  0.66225300  0.38918600  1
  O  O0  1  0.19677900  0.27379100  0.13214200  1
  O  O1  1  0.19022800  0.26853500  0.87043000  1
  O  O2  1  0.29313300  0.39009100  0.49979300  1
  O  O3  1  0.08447200  0.28886300  0.63199200  1
  O  O4  1  0.07918700  0.27656700  0.36887900  1
  O  O5  1  0.35857100  0.46904600  0.31818200  1
  O  O6  1  0.36197000  0.47685600  0.68174000  1
  O  O7  1  0.09528700  0.38611300  0.00191100  1
  O  O8  1  0.52314400  0.63803000  0.18174000  1
  O  O9  1  0.53095400  0.64142900  0.81818200  1
  O  O10  1  0.60990900  0.70686700  0.99979300  1
  O  O11  1  0.12304600  0.47523300  0.82298500  1
  O  O12  1  0.11006800  0.46754400  0.18240000  1
  O  O13  1  0.72620900  0.80322100  0.63214200  1
  O  O14  1  0.73146500  0.80977200  0.37043000  1
  O  O15  1  0.71113700  0.91552800  0.13199200  1
  O  O16  1  0.72343300  0.92081300  0.86887900  1
  O  O17  1  0.11508100  0.63863400  0.31712100  1
  O  O18  1  0.61388700  0.90471300  0.50191100  1
  O  O19  1  0.12364400  0.64741100  0.67766800  1
  O  O20  1  0.52476700  0.87695400  0.32298500  1
  O  O21  1  0.53245600  0.88993200  0.68240000  1
  O  O22  1  0.79881400  0.08341100  0.36581200  1
  O  O23  1  0.81235100  0.07956000  0.63072700  1
  O  O24  1  0.10003500  0.70879700  0.49831200  1
  O  O25  1  0.35258900  0.87635600  0.17766800  1
  O  O26  1  0.36136600  0.88491900  0.81712100  1
  O  O27  1  0.70879700  0.10003500  0.99831200  1
  O  O28  1  0.92044000  0.18764900  0.13072700  1
  O  O29  1  0.91658900  0.20118600  0.86581200  1
  O  O30  1  0.08341100  0.79881400  0.86581200  1
  O  O31  1  0.07956000  0.81235100  0.13072700  1
  O  O32  1  0.29120300  0.89996500  0.99831200  1
  O  O33  1  0.64741100  0.12364400  0.17766800  1
  O  O34  1  0.63863400  0.11508100  0.81712100  1
  O  O35  1  0.89996500  0.29120300  0.49831200  1
  O  O36  1  0.20118600  0.91658900  0.36581200  1
  O  O37  1  0.18764900  0.92044000  0.63072700  1
  O  O38  1  0.47523300  0.12304600  0.32298500  1
  O  O39  1  0.46754400  0.11006800  0.68240000  1
  O  O40  1  0.88491900  0.36136600  0.31712100  1
  O  O41  1  0.38611300  0.09528700  0.50191100  1
  O  O42  1  0.87635600  0.35258900  0.67766800  1
  O  O43  1  0.28886300  0.08447200  0.13199200  1
  O  O44  1  0.27656700  0.07918700  0.86887900  1
  O  O45  1  0.26853500  0.19022800  0.37043000  1
  O  O46  1  0.27379100  0.19677900  0.63214200  1
  O  O47  1  0.88993200  0.53245600  0.18240000  1
  O  O48  1  0.87695400  0.52476700  0.82298500  1
  O  O49  1  0.39009100  0.29313300  0.99979300  1
  O  O50  1  0.47685600  0.36197000  0.18174000  1
  O  O51  1  0.46904600  0.35857100  0.81818200  1
  O  O52  1  0.90471300  0.61388700  0.00191100  1
  O  O53  1  0.64142900  0.53095400  0.31818200  1
  O  O54  1  0.63803000  0.52314400  0.68174000  1
  O  O55  1  0.91552800  0.71113700  0.63199200  1
  O  O56  1  0.92081300  0.72343300  0.36887900  1
  O  O57  1  0.70686700  0.60990900  0.49979300  1
  O  O58  1  0.80322100  0.72620900  0.13214200  1
  O  O59  1  0.80977200  0.73146500  0.87043000  1
loop_
_geom_bond_atom_site_label_1
_geom_bond_atom_site_label_2
_geom_bond_distance
_geom_bond_site_symmetry_2
K0 O37 3.005813 1_545
K0 O23 3.005813 1_455
K0 O1 3.026838 1_555
K0 O59 3.026838 1_445
K0 O46 3.056474 1_555
K0 O13 3.056474 1_445
K0 O44 3.079802 1_555
K0 O16 3.079802 1_445
K0 O29 3.115546 1_455
K0 O30 3.115546 1_545
K0 O55 3.169441 1_445
K0 O3 3.169441 1_555
K1 O28 3.005813 1_455
K1 O31 3.005813 1_545
K1 O45 3.026838 1_555
K1 O14 3.026838 1_445
K1 O0 3.056474 1_555
K1 O58 3.056474 1_445
K1 O56 3.079802 1_445
K1 O4 3.079802 1_555
K1 O36 3.115546 1_545
K1 O22 3.115546 1_455
K1 O15 3.169441 1_445
K1 O43 3.169441 1_555
Ca0 O5 2.302369 1_555
Ca0 O12 2.310663 1_555
Ca0 O8 2.343506 1_555
Ca0 O17 2.346901 1_555
Ca0 O25 2.463923 1_555
Ca0 O20 2.474507 1_555
Ca1 O9 2.302369 1_555
Ca1 O21 2.310663 1_555
Ca1 O6 2.343506 1_555
Ca1 O26 2.346901 1_555
Ca1 O19 2.463923 1_555
Ca1 O11 2.474507 1_555
Ca2 O53 2.302369 1_555
Ca2 O47 2.310663 1_555
Ca2 O50 2.343506 1_555
Ca2 O40 2.346901 1_555
Ca2 O33 2.463923 1_555
Ca2 O38 2.474507 1_555
Ca3 O51 2.302369 1_555
Ca3 O39 2.310663 1_555
Ca3 O54 2.343506 1_555
Ca3 O34 2.346901 1_555
Ca3 O42 2.463923 1_555
Ca3 O48 2.474507 1_555
Be0 O34 1.651376 1_555
Be0 O26 1.651376 1_545
Be0 O21 1.651899 1_545
Be0 O39 1.651899 1_555
Be1 O17 1.651376 1_555
Be1 O40 1.651376 1_455
Be1 O47 1.651899 1_455
Be1 O12 1.651899 1_555
Be2 O50 1.653662 1_555
Be2 O8 1.653662 1_555
Be2 O53 1.654377 1_555
Be2 O5 1.654377 1_555
Be3 O6 1.653662 1_555
Be3 O54 1.653662 1_555
Be3 O9 1.654377 1_555
Be3 O51 1.654377 1_555
Al0 O38 1.764429 1_555
Al0 O20 1.764429 1_545
Al0 O33 1.764806 1_555
Al0 O25 1.764806 1_545
Al1 O11 1.764429 1_555
Al1 O48 1.764429 1_455
Al1 O19 1.764806 1_555
Al1 O42 1.764806 1_455
O0 Si3 1.640668 1_555
O0 Si18 1.642866 1_555
O1 Si2 1.626309 1_555
O1 Si19 1.643648 1_555
O2 Si1 1.634730 1_555
O2 Si0 1.635299 1_555
O3 Si12 1.633153 1_455
O3 Si0 1.651038 1_555
O4 Si13 1.637622 1_455
O4 Si1 1.644172 1_555
O5 Si1 1.606877 1_555
O6 Si0 1.607900 1_555
O7 Si2 1.623531 1_554
O7 Si3 1.637016 1_555
O8 Si4 1.607900 1_555
O9 Si5 1.606877 1_555
O10 Si5 1.634730 1_555
O10 Si4 1.635299 1_556
O11 Si2 1.631784 1_555
O12 Si3 1.605010 1_555
O13 Si7 1.640668 1_555
O13 Si22 1.642866 1_555
O14 Si6 1.626309 1_555
O14 Si23 1.643648 1_555
O15 Si8 1.633153 1_565
O15 Si4 1.651038 1_555
O16 Si9 1.637622 1_565
O16 Si5 1.644172 1_555
O17 Si11 1.605913 1_555
O18 Si6 1.623531 1_555
O18 Si7 1.637016 1_555
O19 Si10 1.632527 1_555
O20 Si6 1.631784 1_555
O21 Si7 1.605010 1_555
O22 Si6 1.636960 1_545
O22 Si13 1.650667 1_555
O23 Si12 1.630384 1_555
O23 Si7 1.643840 1_545
O24 Si10 1.624087 1_555
O24 Si11 1.638467 1_555
O25 Si14 1.632527 1_555
O26 Si15 1.605913 1_555
O27 Si8 1.624087 1_556
O27 Si9 1.638467 1_555
O28 Si8 1.630384 1_555
O28 Si3 1.643840 1_655
O29 Si2 1.636960 1_655
O29 Si9 1.650667 1_555
O30 Si21 1.636960 1_455
O30 Si15 1.650667 1_555
O31 Si14 1.630384 1_555
O31 Si20 1.643840 1_455
O32 Si14 1.624087 1_556
O32 Si15 1.638467 1_555
O33 Si8 1.632527 1_555
O34 Si9 1.605913 1_555
O35 Si12 1.624087 1_555
O35 Si13 1.638467 1_555
O36 Si16 1.636960 1_565
O36 Si11 1.650667 1_555
O37 Si10 1.630384 1_555
O37 Si17 1.643840 1_565
O38 Si16 1.631784 1_555
O39 Si17 1.605010 1_555
O40 Si13 1.605913 1_555
O41 Si16 1.623531 1_555
O41 Si17 1.637016 1_555
O42 Si12 1.632527 1_555
O43 Si14 1.633153 1_545
O43 Si18 1.651038 1_555
O44 Si15 1.637622 1_545
O44 Si19 1.644172 1_555
O45 Si16 1.626309 1_555
O45 Si1 1.643648 1_555
O46 Si17 1.640668 1_555
O46 Si0 1.642866 1_555
O47 Si20 1.605010 1_555
O48 Si21 1.631784 1_555
O49 Si19 1.634730 1_555
O49 Si18 1.635299 1_556
O50 Si18 1.607900 1_555
O51 Si19 1.606877 1_555
O52 Si21 1.623531 1_554
O52 Si20 1.637016 1_555
O53 Si23 1.606877 1_555
O54 Si22 1.607900 1_555
O55 Si10 1.633153 1_655
O55 Si22 1.651038 1_555
O56 Si11 1.637622 1_655
O56 Si23 1.644172 1_555
O57 Si23 1.634730 1_555
O57 Si22 1.635299 1_555
O58 Si20 1.640668 1_555
O58 Si4 1.642866 1_555
O59 Si21 1.626309 1_555
O59 Si5 1.643648 1_555
