# generated using pymatgen
data_KSn2F5
_symmetry_space_group_name_H-M   'P 1'
_cell_length_a   7.39214918
_cell_length_b   7.39214899
_cell_length_c   56.58494959
_cell_angle_alpha   90.00000000
_cell_angle_beta   90.00000000
_cell_angle_gamma   120.00000090
_symmetry_Int_Tables_number   1
_chemical_formula_structural   KSn2F5
_chemical_formula_sum   'K18 Sn36 F90'
_cell_volume   2677.76829605
_cell_formula_units_Z   18
loop_
 _symmetry_equiv_pos_site_id
 _symmetry_equiv_pos_as_xyz
  1  'x, y, z'
loop_
 _atom_site_type_symbol
 _atom_site_label
 _atom_site_symmetry_multiplicity
 _atom_site_fract_x
 _atom_site_fract_y
 _atom_site_fract_z
 _atom_site_occupancy
  K  K0  1  0.33333300  0.66666700  0.05698616  1
  K  K1  1  0.33333300  0.66666700  0.22491546  1
  K  K2  1  0.33333300  0.66666700  0.39233306  1
  K  K3  1  0.33333300  0.66666700  0.55641364  1
  K  K4  1  0.33333300  0.66666700  0.72261700  1
  K  K5  1  0.33333300  0.66666700  0.88941300  1
  K  K6  1  0.66666700  0.33333300  0.06178661  1
  K  K7  1  0.66666700  0.33333300  0.22974441  1
  K  K8  1  0.00000000  0.00000000  0.22318310  1
  K  K9  1  0.66666700  0.33333300  0.39697104  1
  K  K10  1  0.66666700  0.33333300  0.55979501  1
  K  K11  1  0.00000000  0.00000000  0.39047309  1
  K  K12  1  0.00000000  0.00000000  0.55366970  1
  K  K13  1  0.66666700  0.33333300  0.89307920  1
  K  K14  1  0.66666700  0.33333300  0.72528944  1
  K  K15  1  0.00000000  0.00000000  0.05498533  1
  K  K16  1  0.00000000  0.00000000  0.71908411  1
  K  K17  1  0.00000000  0.00000000  0.88608982  1
  Sn  Sn0  1  0.99221913  0.66836528  0.99924784  1
  Sn  Sn1  1  0.99216193  0.66338356  0.16629550  1
  Sn  Sn2  1  0.01927983  0.67845644  0.33386798  1
  Sn  Sn3  1  0.00007578  0.66160919  0.50105054  1
  Sn  Sn4  1  0.00103371  0.66174211  0.66754202  1
  Sn  Sn5  1  0.02229091  0.68276896  0.83264950  1
  Sn  Sn6  1  0.32835561  0.99286132  0.11230952  1
  Sn  Sn7  1  0.32713728  0.99335546  0.27874768  1
  Sn  Sn8  1  0.32827703  0.99394894  0.44608622  1
  Sn  Sn9  1  0.32857397  0.99372614  0.61245140  1
  Sn  Sn10  1  0.32651010  0.99355479  0.77900276  1
  Sn  Sn11  1  0.32744523  0.99352785  0.94586751  1
  Sn  Sn12  1  0.00713868  0.33549429  0.11230952  1
  Sn  Sn13  1  0.00664454  0.33378181  0.27874768  1
  Sn  Sn14  1  0.00605106  0.33432809  0.44608622  1
  Sn  Sn15  1  0.00627386  0.33484783  0.61245140  1
  Sn  Sn16  1  0.00644521  0.33295531  0.77900276  1
  Sn  Sn17  1  0.00647215  0.33391738  0.94586751  1
  Sn  Sn18  1  0.67614616  0.00778087  0.99924784  1
  Sn  Sn19  1  0.67122163  0.00783807  0.16629550  1
  Sn  Sn20  1  0.65917660  0.98072017  0.33386798  1
  Sn  Sn21  1  0.66153342  0.99992422  0.50105054  1
  Sn  Sn22  1  0.66070840  0.99896629  0.66754202  1
  Sn  Sn23  1  0.66047806  0.97770909  0.83264950  1
  Sn  Sn24  1  0.33163472  0.32385384  0.99924784  1
  Sn  Sn25  1  0.33661644  0.32877837  0.16629550  1
  Sn  Sn26  1  0.33839081  0.33846658  0.50105054  1
  Sn  Sn27  1  0.32154356  0.34082340  0.33386798  1
  Sn  Sn28  1  0.33825789  0.33929160  0.66754202  1
  Sn  Sn29  1  0.31723104  0.33952194  0.83264950  1
  Sn  Sn30  1  0.66450571  0.67164439  0.11230952  1
  Sn  Sn31  1  0.66621819  0.67286272  0.27874768  1
  Sn  Sn32  1  0.66567191  0.67172297  0.44608622  1
  Sn  Sn33  1  0.66515217  0.67142603  0.61245140  1
  Sn  Sn34  1  0.66704469  0.67348990  0.77900276  1
  Sn  Sn35  1  0.66608262  0.67255477  0.94586751  1
  F  F0  1  0.21655757  0.99587319  0.00849326  1
  F  F1  1  0.21714016  0.99575941  0.17453014  1
  F  F2  1  0.22596476  0.99675706  0.34124694  1
  F  F3  1  0.22352324  0.00062779  0.67418135  1
  F  F4  1  0.22330373  0.00009253  0.50747481  1
  F  F5  1  0.22546119  0.99843207  0.84276922  1
  F  F6  1  0.30849937  0.97867840  0.07580434  1
  F  F7  1  0.30923004  0.97945685  0.40965255  1
  F  F8  1  0.30981371  0.97967329  0.24217387  1
  F  F9  1  0.30835655  0.98150015  0.74295044  1
  F  F10  1  0.30837157  0.98034986  0.57645122  1
  F  F11  1  0.30694642  0.97945873  0.91003318  1
  F  F12  1  0.02132160  0.32982097  0.07580434  1
  F  F13  1  0.02032671  0.33014042  0.24217387  1
  F  F14  1  0.02054315  0.32977319  0.40965255  1
  F  F15  1  0.01965014  0.32802171  0.57645122  1
  F  F16  1  0.01849985  0.32685640  0.74295044  1
  F  F17  1  0.02054127  0.32748769  0.91003318  1
  F  F18  1  0.00412681  0.22068438  0.00849326  1
  F  F19  1  0.00424059  0.22138075  0.17453014  1
  F  F20  1  0.00324294  0.22920770  0.34124694  1
  F  F21  1  0.99990747  0.22321119  0.50747481  1
  F  F22  1  0.99937221  0.22289545  0.67418135  1
  F  F23  1  0.00156793  0.22702912  0.84276922  1
  F  F24  1  0.33333300  0.66666700  0.10670911  1
  F  F25  1  0.33333300  0.66666700  0.33816370  1
  F  F26  1  0.33333300  0.66666700  0.27298043  1
  F  F27  1  0.33333300  0.66666700  0.50575042  1
  F  F28  1  0.33333300  0.66666700  0.44030323  1
  F  F29  1  0.33333300  0.66666700  0.60720891  1
  F  F30  1  0.33333300  0.66666700  0.67267961  1
  F  F31  1  0.33333300  0.66666700  0.77448287  1
  F  F32  1  0.33333300  0.66666700  0.94159184  1
  F  F33  1  0.33333300  0.66666700  0.83864806  1
  F  F34  1  0.37273346  0.36200152  0.03544243  1
  F  F35  1  0.37150140  0.36044738  0.20223731  1
  F  F36  1  0.35927252  0.35285167  0.53696283  1
  F  F37  1  0.36902686  0.35837707  0.36926880  1
  F  F38  1  0.36901421  0.36013328  0.86903134  1
  F  F39  1  0.35803649  0.35290592  0.70340623  1
  F  F40  1  0.44127895  0.33264090  0.10492116  1
  F  F41  1  0.44332005  0.33274345  0.27095836  1
  F  F42  1  0.44297934  0.33237893  0.60622161  1
  F  F43  1  0.44309928  0.33274442  0.43832745  1
  F  F44  1  0.44306388  0.33319280  0.77300446  1
  F  F45  1  0.44135783  0.33334193  0.93949561  1
  F  F46  1  0.67017903  0.69150063  0.07580434  1
  F  F47  1  0.66985958  0.69018629  0.24217387  1
  F  F48  1  0.67022681  0.69076996  0.40965255  1
  F  F49  1  0.67197829  0.69162843  0.57645122  1
  F  F50  1  0.67314360  0.69164345  0.74295044  1
  F  F51  1  0.67251231  0.69305358  0.91003318  1
  F  F52  1  0.77931562  0.78344243  0.00849326  1
  F  F53  1  0.77861925  0.78285984  0.17453014  1
  F  F54  1  0.77079230  0.77403524  0.34124694  1
  F  F55  1  0.77710455  0.77647676  0.67418135  1
  F  F56  1  0.77678881  0.77669627  0.50747481  1
  F  F57  1  0.77297088  0.77453881  0.84276922  1
  F  F58  1  0.00000000  0.00000000  0.10937088  1
  F  F59  1  0.00000000  0.00000000  0.27446296  1
  F  F60  1  0.66666700  0.33333300  0.50346242  1
  F  F61  1  0.00000000  0.00000000  0.44191802  1
  F  F62  1  0.66666700  0.33333300  0.67044915  1
  F  F63  1  0.00000000  0.00000000  0.60996901  1
  F  F64  1  0.00000000  0.00000000  0.77646079  1
  F  F65  1  0.00000000  0.00000000  0.94425426  1
  F  F66  1  0.66735910  0.10863806  0.10492116  1
  F  F67  1  0.66725655  0.11057661  0.27095836  1
  F  F68  1  0.66725558  0.11035486  0.43832745  1
  F  F69  1  0.66762107  0.11060042  0.60622161  1
  F  F70  1  0.66680720  0.10987108  0.77300446  1
  F  F71  1  0.66665807  0.10801590  0.93949561  1
  F  F72  1  0.89136194  0.55872105  0.10492116  1
  F  F73  1  0.88942339  0.55667995  0.27095836  1
  F  F74  1  0.88964514  0.55690072  0.43832745  1
  F  F75  1  0.88939958  0.55702066  0.60622161  1
  F  F76  1  0.89012892  0.55693612  0.77300446  1
  F  F77  1  0.89198410  0.55864217  0.93949561  1
  F  F78  1  0.63799848  0.01073193  0.03544243  1
  F  F79  1  0.64162293  0.01064979  0.36926880  1
  F  F80  1  0.63955262  0.01105402  0.20223731  1
  F  F81  1  0.64714833  0.00642085  0.53696283  1
  F  F82  1  0.64709408  0.00513057  0.70340623  1
  F  F83  1  0.63986672  0.00888093  0.86903134  1
  F  F84  1  0.98926807  0.62726654  0.03544243  1
  F  F85  1  0.98894598  0.62849860  0.20223731  1
  F  F86  1  0.98935021  0.63097314  0.36926880  1
  F  F87  1  0.99357915  0.64072748  0.53696283  1
  F  F88  1  0.99486943  0.64196351  0.70340623  1
  F  F89  1  0.99111907  0.63098579  0.86903134  1
loop_
_geom_bond_atom_site_label_1
_geom_bond_atom_site_label_2
_geom_bond_distance
_geom_bond_site_symmetry_2
F0 Sn24 2.193857 1_564
F0 Sn0 2.206840 1_454
F0 K15 3.087598 1_565
F1 Sn25 2.209766 1_565
F1 Sn1 2.221152 1_455
F1 K8 3.194824 1_565
F2 Sn2 2.109503 1_555
F2 Sn27 2.312005 1_565
F3 Sn4 2.236409 1_545
F3 Sn28 2.237071 1_555
F3 K16 3.029567 1_555
F4 Sn26 2.232598 1_555
F4 Sn3 2.233127 1_545
F4 K12 3.091330 1_555
F5 Sn5 2.126944 1_555
F5 Sn29 2.331316 1_565
F5 K17 2.967489 1_565
F6 Sn6 2.069790 1_555
F6 K0 2.628801 1_555
F6 K15 2.640571 1_565
F6 K6 2.751547 1_565
F7 Sn8 2.065527 1_555
F7 K2 2.598149 1_555
F7 K11 2.602541 1_565
F7 K9 2.725332 1_565
F8 Sn7 2.072829 1_555
F8 K1 2.596112 1_555
F8 K8 2.601233 1_565
F8 K7 2.718736 1_565
F9 Sn10 2.043445 1_555
F9 K4 2.684003 1_555
F9 K16 2.711079 1_565
F9 K14 2.808859 1_565
F10 Sn9 2.041313 1_555
F10 K3 2.669130 1_555
F10 K12 2.685186 1_565
F10 K10 2.792985 1_565
F11 Sn11 2.032122 1_555
F11 K5 2.682673 1_555
F11 K17 2.711364 1_565
F11 K13 2.806802 1_565
F12 Sn12 2.069790 1_555
F12 K0 2.628805 1_555
F12 K15 2.640571 1_555
F12 K6 2.751543 1_455
F13 Sn13 2.072829 1_555
F13 K1 2.596116 1_555
F13 K8 2.601232 1_555
F13 K7 2.718733 1_455
F14 Sn14 2.065527 1_555
F14 K2 2.598153 1_555
F14 K11 2.602541 1_555
F14 K9 2.725328 1_455
F15 Sn15 2.041313 1_555
F15 K3 2.669134 1_555
F15 K12 2.685186 1_555
F15 K10 2.792981 1_455
F16 Sn16 2.043445 1_555
F16 K4 2.684007 1_555
F16 K16 2.711079 1_555
F16 K14 2.808855 1_455
F17 Sn17 2.032122 1_555
F17 K5 2.682677 1_555
F17 K17 2.711364 1_555
F17 K13 2.806799 1_455
F18 Sn18 2.193857 1_454
F18 Sn24 2.206840 1_554
F18 K15 3.087598 1_555
F19 Sn19 2.209766 1_455
F19 Sn25 2.221152 1_555
F19 K8 3.194823 1_555
F20 Sn27 2.109503 1_555
F20 Sn20 2.312005 1_445
F21 Sn21 2.232598 1_545
F21 Sn26 2.233127 1_655
F21 K12 3.091330 1_655
F22 Sn28 2.236409 1_655
F22 Sn22 2.237071 1_545
F22 K16 3.029567 1_655
F23 Sn29 2.126944 1_555
F23 Sn23 2.331316 1_445
F23 K17 2.967489 1_555
F24 Sn6 2.450460 1_555
F24 Sn12 2.450464 1_555
F24 Sn30 2.450468 1_555
F24 K0 2.813571 1_555
F25 Sn2 2.378758 1_555
F25 Sn20 2.378762 1_555
F25 Sn27 2.378765 1_555
F25 K2 3.065171 1_555
F26 Sn7 2.459895 1_555
F26 Sn13 2.459899 1_555
F26 Sn31 2.459903 1_555
F26 K1 2.719754 1_555
F27 Sn3 2.459428 1_555
F27 Sn21 2.459432 1_555
F27 Sn26 2.459436 1_555
F27 K3 2.866776 1_555
F28 Sn8 2.460080 1_555
F28 Sn14 2.460083 1_555
F28 Sn32 2.460087 1_555
F28 K2 2.714390 1_555
F29 Sn9 2.453450 1_555
F29 Sn15 2.453454 1_555
F29 Sn33 2.453457 1_555
F29 K3 2.874248 1_555
F30 Sn4 2.455675 1_555
F30 Sn22 2.455679 1_555
F30 Sn28 2.455683 1_555
F30 K4 2.825705 1_555
F31 Sn10 2.455368 1_555
F31 Sn16 2.455372 1_555
F31 Sn34 2.455376 1_555
F31 K4 2.934828 1_555
F32 Sn11 2.450231 1_555
F32 Sn17 2.450235 1_555
F32 Sn35 2.450238 1_555
F32 K5 2.952537 1_555
F33 Sn5 2.385309 1_555
F33 Sn23 2.385313 1_555
F33 Sn29 2.385316 1_555
F33 K5 2.872532 1_555
F34 Sn24 2.068994 1_554
F34 K0 2.701658 1_555
F34 K6 2.729208 1_555
F34 K15 2.932962 1_555
F35 Sn25 2.048691 1_555
F35 K1 2.736598 1_555
F35 K7 2.767829 1_555
F35 K8 2.954420 1_555
F36 Sn26 2.036696 1_555
F36 K3 2.659752 1_555
F36 K10 2.679777 1_555
F36 K12 2.796990 1_555
F37 Sn27 2.026603 1_555
F37 K2 2.750942 1_555
F37 K9 2.782018 1_555
F37 K11 2.944914 1_555
F38 Sn29 2.085550 1_555
F38 K5 2.670548 1_555
F38 K13 2.677327 1_555
F38 K17 2.863194 1_555
F39 Sn28 2.033507 1_555
F39 K4 2.649154 1_555
F39 K14 2.662573 1_555
F39 K16 2.773602 1_555
F40 Sn30 2.245528 1_555
F40 Sn6 2.254683 1_545
F40 K6 2.953767 1_555
F41 Sn7 2.251959 1_545
F41 Sn31 2.255610 1_555
F41 K7 2.856101 1_555
F42 Sn33 2.233123 1_555
F42 Sn9 2.233661 1_545
F42 K10 3.102246 1_555
F43 Sn32 2.248538 1_555
F43 Sn8 2.249359 1_545
F43 K9 2.863629 1_555
F44 Sn10 2.235571 1_545
F44 Sn34 2.240415 1_555
F44 K14 3.165459 1_555
F45 Sn35 2.238687 1_555
F45 Sn11 2.243607 1_545
F45 K13 3.110050 1_555
F46 Sn30 2.069790 1_555
F46 K0 2.628808 1_555
F46 K15 2.640571 1_665
F46 K6 2.751550 1_555
F47 Sn31 2.072829 1_555
F47 K1 2.596119 1_555
F47 K8 2.601232 1_665
F47 K7 2.718740 1_555
F48 Sn32 2.065527 1_555
F48 K2 2.598156 1_555
F48 K11 2.602541 1_665
F48 K9 2.725335 1_555
F49 Sn33 2.041313 1_555
F49 K3 2.669137 1_555
F49 K12 2.685186 1_665
F49 K10 2.792988 1_555
F50 Sn34 2.043445 1_555
F50 K4 2.684010 1_555
F50 K16 2.711079 1_665
F50 K14 2.808862 1_555
F51 Sn35 2.032122 1_555
F51 K5 2.682680 1_555
F51 K17 2.711364 1_665
F51 K13 2.806806 1_555
F52 Sn0 2.193857 1_554
F52 Sn18 2.206840 1_564
F52 K15 3.087598 1_665
F53 Sn1 2.209766 1_555
F53 Sn19 2.221152 1_565
F53 K8 3.194823 1_665
F54 Sn20 2.109503 1_555
F54 Sn2 2.312005 1_655
F55 Sn22 2.236409 1_555
F55 Sn4 2.237071 1_655
F55 K16 3.029567 1_665
F56 Sn3 2.232598 1_655
F56 Sn21 2.233127 1_555
F56 K12 3.091330 1_665
F57 Sn23 2.126944 1_555
F57 Sn5 2.331317 1_655
F57 K17 2.967489 1_665
F58 Sn12 2.459691 1_555
F58 Sn30 2.459691 1_445
F58 Sn6 2.459691 1_545
F58 K15 3.077404 1_555
F59 Sn13 2.455177 1_555
F59 Sn31 2.455177 1_445
F59 Sn7 2.455177 1_545
F59 K8 2.901668 1_555
F60 Sn21 2.449659 1_545
F60 Sn3 2.449662 1_655
F60 Sn26 2.449666 1_555
F60 K10 3.187577 1_555
F61 Sn14 2.460674 1_555
F61 Sn32 2.460674 1_445
F61 Sn8 2.460674 1_545
F61 K11 2.911009 1_555
F62 Sn22 2.455478 1_545
F62 Sn4 2.455482 1_655
F62 Sn28 2.455486 1_555
F62 K14 3.103135 1_555
F63 Sn15 2.456405 1_555
F63 Sn33 2.456405 1_445
F63 Sn9 2.456405 1_545
F63 K12 3.185694 1_555
F64 Sn16 2.442022 1_555
F64 Sn34 2.442022 1_445
F64 Sn10 2.442022 1_545
F64 K16 3.246657 1_555
F65 Sn17 2.446500 1_555
F65 Sn35 2.446500 1_445
F65 Sn11 2.446500 1_545
F66 Sn6 2.245529 1_545
F66 Sn12 2.254683 1_655
F66 K6 2.953763 1_555
F67 Sn13 2.251959 1_655
F67 Sn7 2.255610 1_545
F67 K7 2.856096 1_555
F68 Sn8 2.248538 1_545
F68 Sn14 2.249359 1_655
F68 K9 2.863625 1_555
F69 Sn9 2.233123 1_545
F69 Sn15 2.233661 1_655
F69 K10 3.102242 1_555
F70 Sn16 2.235571 1_655
F70 Sn10 2.240415 1_545
F70 K14 3.165455 1_555
F71 Sn11 2.238687 1_545
F71 Sn17 2.243607 1_655
F71 K13 3.110046 1_555
F72 Sn12 2.245529 1_655
F72 Sn30 2.254683 1_555
F72 K6 2.953765 1_555
F73 Sn31 2.251959 1_555
F73 Sn13 2.255610 1_655
F73 K7 2.856099 1_555
F74 Sn14 2.248538 1_655
F74 Sn32 2.249359 1_555
F74 K9 2.863627 1_555
F75 Sn15 2.233123 1_655
F75 Sn33 2.233661 1_555
F75 K10 3.102244 1_555
F76 Sn34 2.235571 1_555
F76 Sn16 2.240415 1_655
F76 K14 3.165457 1_555
F77 Sn17 2.238687 1_655
F77 Sn35 2.243607 1_555
F77 K13 3.110048 1_555
F78 Sn18 2.068994 1_554
F78 K0 2.701654 1_545
F78 K6 2.729202 1_555
F78 K15 2.932962 1_655
F79 Sn20 2.026603 1_545
F79 K2 2.750938 1_545
F79 K9 2.782012 1_555
F79 K11 2.944914 1_655
F80 Sn19 2.048691 1_555
F80 K1 2.736594 1_545
F80 K7 2.767823 1_555
F80 K8 2.954420 1_655
F81 Sn21 2.036696 1_545
F81 K3 2.659749 1_545
F81 K10 2.679771 1_555
F81 K12 2.796990 1_655
F82 Sn22 2.033507 1_545
F82 K4 2.649151 1_545
F82 K14 2.662567 1_555
F82 K16 2.773602 1_655
F83 Sn23 2.085550 1_545
F83 K5 2.670544 1_545
F83 K13 2.677320 1_555
F83 K17 2.863194 1_655
F84 Sn0 2.068994 1_554
F84 K0 2.701652 1_655
F84 K6 2.729205 1_555
F84 K15 2.932962 1_665
F85 Sn1 2.048691 1_555
F85 K1 2.736592 1_655
F85 K7 2.767826 1_555
F85 K8 2.954420 1_665
F86 Sn2 2.026603 1_655
F86 K2 2.750936 1_655
F86 K9 2.782015 1_555
F86 K11 2.944914 1_665
F87 Sn3 2.036696 1_655
F87 K3 2.659746 1_655
F87 K10 2.679774 1_555
F87 K12 2.796990 1_665
F88 Sn4 2.033507 1_655
F88 K4 2.649148 1_655
F88 K14 2.662570 1_555
F88 K16 2.773602 1_665
F89 Sn5 2.085550 1_655
F89 K5 2.670541 1_655
F89 K13 2.677323 1_555
F89 K17 2.863194 1_665
