# generated using pymatgen
data_CdH8C2S2(BrN2)2
_symmetry_space_group_name_H-M   'P 1'
_cell_length_a   6.12160000
_cell_length_b   13.17260100
_cell_length_c   13.81066600
_cell_angle_alpha   90.00000000
_cell_angle_beta   90.00000000
_cell_angle_gamma   90.00000000
_symmetry_Int_Tables_number   1
_chemical_formula_structural   CdH8C2S2(BrN2)2
_chemical_formula_sum   'Cd4 H32 C8 S8 Br8 N16'
_cell_volume   1113.65611953
_cell_formula_units_Z   4
loop_
 _symmetry_equiv_pos_site_id
 _symmetry_equiv_pos_as_xyz
  1  'x, y, z'
loop_
 _atom_site_type_symbol
 _atom_site_label
 _atom_site_symmetry_multiplicity
 _atom_site_fract_x
 _atom_site_fract_y
 _atom_site_fract_z
 _atom_site_occupancy
  Cd  Cd0  1  0.71767600  0.15501300  0.25000000  1
  Cd  Cd1  1  0.78232400  0.65501300  0.25000000  1
  Cd  Cd2  1  0.28232400  0.84498700  0.75000000  1
  Cd  Cd3  1  0.21767600  0.34498700  0.75000000  1
  H  H0  1  0.61829100  0.12306400  0.65163000  1
  H  H1  1  0.88170900  0.62306400  0.84837000  1
  H  H2  1  0.38170900  0.87693600  0.15163000  1
  H  H3  1  0.11829100  0.37693600  0.34837000  1
  H  H4  1  0.38170900  0.87693600  0.34837000  1
  H  H5  1  0.11829100  0.37693600  0.15163000  1
  H  H6  1  0.61829100  0.12306400  0.84837000  1
  H  H7  1  0.88170900  0.62306400  0.65163000  1
  H  H8  1  0.89093800  0.10434400  0.61691800  1
  H  H9  1  0.60906200  0.60434400  0.88308200  1
  H  H10  1  0.10906200  0.89565600  0.11691800  1
  H  H11  1  0.39093800  0.39565600  0.38308200  1
  H  H12  1  0.10906200  0.89565600  0.38308200  1
  H  H13  1  0.39093800  0.39565600  0.11691800  1
  H  H14  1  0.89093800  0.10434400  0.88308200  1
  H  H15  1  0.60906200  0.60434400  0.61691800  1
  H  H16  1  0.35103100  0.14211400  0.54356800  1
  H  H17  1  0.14896900  0.64211400  0.95643200  1
  H  H18  1  0.64896900  0.85788600  0.04356800  1
  H  H19  1  0.85103100  0.35788600  0.45643200  1
  H  H20  1  0.64896900  0.85788600  0.45643200  1
  H  H21  1  0.85103100  0.35788600  0.04356800  1
  H  H22  1  0.35103100  0.14211400  0.95643200  1
  H  H23  1  0.14896900  0.64211400  0.54356800  1
  H  H24  1  0.39792300  0.13803500  0.41848100  1
  H  H25  1  0.10207700  0.63803500  0.08151900  1
  H  H26  1  0.60207700  0.86196500  0.91848100  1
  H  H27  1  0.89792300  0.36196500  0.58151900  1
  H  H28  1  0.60207700  0.86196500  0.58151900  1
  H  H29  1  0.89792300  0.36196500  0.91848100  1
  H  H30  1  0.39792300  0.13803500  0.08151900  1
  H  H31  1  0.10207700  0.63803500  0.41848100  1
  C  C0  1  0.66945400  0.11995600  0.50555500  1
  C  C1  1  0.83054600  0.61995600  0.99444500  1
  C  C2  1  0.33054600  0.88004400  0.00555500  1
  C  C3  1  0.16945400  0.38004400  0.49444500  1
  C  C4  1  0.33054600  0.88004400  0.49444500  1
  C  C5  1  0.16945400  0.38004400  0.00555500  1
  C  C6  1  0.66945400  0.11995600  0.99444500  1
  C  C7  1  0.83054600  0.61995600  0.50555500  1
  S  S0  1  0.86618400  0.10441200  0.41764100  1
  S  S1  1  0.63381600  0.60441200  0.08235900  1
  S  S2  1  0.13381600  0.89558800  0.91764100  1
  S  S3  1  0.36618400  0.39558800  0.58235900  1
  S  S4  1  0.13381600  0.89558800  0.58235900  1
  S  S5  1  0.36618400  0.39558800  0.91764100  1
  S  S6  1  0.86618400  0.10441200  0.08235900  1
  S  S7  1  0.63381600  0.60441200  0.41764100  1
  Br  Br0  1  0.74482500  0.36127500  0.25000000  1
  Br  Br1  1  0.75517500  0.86127500  0.25000000  1
  Br  Br2  1  0.25517500  0.63872500  0.75000000  1
  Br  Br3  1  0.24482500  0.13872500  0.75000000  1
  Br  Br4  1  0.28628200  0.12247100  0.25000000  1
  Br  Br5  1  0.21371800  0.62247100  0.25000000  1
  Br  Br6  1  0.71371800  0.87752900  0.75000000  1
  Br  Br7  1  0.78628200  0.37752900  0.75000000  1
  N  N0  1  0.73230700  0.11631900  0.59811700  1
  N  N1  1  0.76769300  0.61631900  0.90188300  1
  N  N2  1  0.26769300  0.88368100  0.09811700  1
  N  N3  1  0.23230700  0.38368100  0.40188300  1
  N  N4  1  0.26769300  0.88368100  0.40188300  1
  N  N5  1  0.23230700  0.38368100  0.09811700  1
  N  N6  1  0.73230700  0.11631900  0.90188300  1
  N  N7  1  0.76769300  0.61631900  0.59811700  1
  N  N8  1  0.45786400  0.13558800  0.48742900  1
  N  N9  1  0.04213600  0.63558800  0.01257100  1
  N  N10  1  0.54213600  0.86441200  0.98742900  1
  N  N11  1  0.95786400  0.36441200  0.51257100  1
  N  N12  1  0.54213600  0.86441200  0.51257100  1
  N  N13  1  0.95786400  0.36441200  0.98742900  1
  N  N14  1  0.45786400  0.13558800  0.01257100  1
  N  N15  1  0.04213600  0.63558800  0.48742900  1
loop_
_geom_bond_atom_site_label_1
_geom_bond_atom_site_label_2
_geom_bond_distance
_geom_bond_site_symmetry_2
Cd0 S0 2.575086 1_555
Cd0 S6 2.575086 1_555
Cd1 S7 2.575086 1_555
Cd1 S1 2.575086 1_555
Cd2 S4 2.575086 1_555
Cd2 S2 2.575086 1_555
Cd3 S3 2.575086 1_555
Cd3 S5 2.575086 1_555
H0 N0 1.020411 1_555
H1 N1 1.020411 1_555
H2 N2 1.020411 1_555
H3 N3 1.020411 1_555
H4 N4 1.020411 1_555
H5 N5 1.020411 1_555
H6 N6 1.020411 1_555
H7 N7 1.020411 1_555
H8 N0 1.017492 1_555
H9 N1 1.017492 1_555
H10 N2 1.017492 1_555
H11 N3 1.017492 1_555
H12 N4 1.017492 1_555
H13 N5 1.017492 1_555
H14 N6 1.017492 1_555
H15 N7 1.017492 1_555
H16 N8 1.017943 1_555
H17 N9 1.017943 1_556
H18 N10 1.017943 1_554
H19 N11 1.017943 1_555
H20 N12 1.017943 1_555
H21 N13 1.017943 1_554
H22 N14 1.017943 1_556
H23 N15 1.017943 1_555
H24 N8 1.020979 1_555
H25 N9 1.020979 1_555
H26 N10 1.020979 1_555
H27 N11 1.020979 1_555
H28 N12 1.020979 1_555
H29 N13 1.020979 1_555
H30 N14 1.020979 1_555
H31 N15 1.020979 1_555
C0 N8 1.335211 1_555
C0 N0 1.335851 1_555
C0 S0 1.722333 1_555
C1 N9 1.335211 1_656
C1 N1 1.335851 1_555
C1 S1 1.722333 1_556
C2 N10 1.335211 1_554
C2 N2 1.335851 1_555
C2 S2 1.722333 1_554
C3 N11 1.335211 1_455
C3 N3 1.335851 1_555
C3 S3 1.722333 1_555
C4 N12 1.335211 1_555
C4 N4 1.335851 1_555
C4 S4 1.722333 1_555
C5 N13 1.335211 1_454
C5 N5 1.335851 1_555
C5 S5 1.722333 1_554
C6 N14 1.335211 1_556
C6 N6 1.335851 1_555
C6 S6 1.722333 1_556
C7 N15 1.335211 1_655
C7 N7 1.335851 1_555
C7 S7 1.722333 1_555
Br0 Cd0 2.722085 1_555
Br1 Cd1 2.722085 1_555
Br2 Cd2 2.722085 1_555
Br3 Cd3 2.722085 1_555
Br4 Cd0 2.675386 1_555
Br5 Cd1 2.675386 1_455
Br6 Cd2 2.675386 1_555
Br7 Cd3 2.675386 1_655
