# generated using pymatgen
data_Cu19Se11
_symmetry_space_group_name_H-M   'P 1'
_cell_length_a   3.97500800
_cell_length_b   4.11183651
_cell_length_c   36.10754169
_cell_angle_alpha   90.89038246
_cell_angle_beta   92.55180595
_cell_angle_gamma   117.59654791
_symmetry_Int_Tables_number   1
_chemical_formula_structural   Cu19Se11
_chemical_formula_sum   'Cu19 Se11'
_cell_volume   522.06605892
_cell_formula_units_Z   1
loop_
 _symmetry_equiv_pos_site_id
 _symmetry_equiv_pos_as_xyz
  1  'x, y, z'
loop_
 _atom_site_type_symbol
 _atom_site_label
 _atom_site_symmetry_multiplicity
 _atom_site_fract_x
 _atom_site_fract_y
 _atom_site_fract_z
 _atom_site_occupancy
  Cu  Cu0  1  0.05196900  0.11324000  0.08308600  1
  Cu  Cu1  1  0.75063200  0.49180200  0.15816000  1
  Cu  Cu2  1  0.88764000  0.76495600  0.22353300  1
  Cu  Cu3  1  0.54567100  0.09299800  0.25274800  1
  Cu  Cu4  1  0.23775800  0.44679700  0.34106300  1
  Cu  Cu5  1  0.23806700  0.59126200  0.40891200  1
  Cu  Cu6  1  0.92217700  0.95532300  0.43203100  1
  Cu  Cu7  1  0.67085000  0.37783100  0.52157900  1
  Cu  Cu8  1  0.76259100  0.52902300  0.64845700  1
  Cu  Cu9  1  0.49569900  0.97064900  0.73750200  1
  Cu  Cu10  1  0.39742500  0.80195800  0.60181600  1
  Cu  Cu11  1  0.20450700  0.46894200  0.83646700  1
  Cu  Cu12  1  0.13303700  0.25045100  0.69115700  1
  Cu  Cu13  1  0.93249300  0.94555800  0.94186100  1
  Cu  Cu14  1  0.84885100  0.73710600  0.78892800  1
  Cu  Cu15  1  0.87914700  0.84559100  0.86356300  1
  Cu  Cu16  1  0.55968900  0.21292200  0.88955000  1
  Cu  Cu17  1  0.61919700  0.31274500  0.96985300  1
  Cu  Cu18  1  0.30570500  0.67893200  0.99071700  1
  Se  Se0  1  0.98661500  0.04711300  0.01246700  1
  Se  Se1  1  0.72670500  0.46706500  0.09293300  1
  Se  Se2  1  0.43639300  0.88271000  0.18361900  1
  Se  Se3  1  0.20687900  0.42168700  0.27426200  1
  Se  Se4  1  0.91402700  0.81755200  0.36263000  1
  Se  Se5  1  0.60512800  0.31552400  0.45266700  1
  Se  Se6  1  0.34708500  0.73556500  0.53660600  1
  Se  Se7  1  0.07912700  0.16997800  0.62439100  1
  Se  Se8  1  0.81548500  0.61430500  0.71858300  1
  Se  Se9  1  0.53003300  0.09534200  0.80628700  1
  Se  Se10  1  0.24141500  0.57707800  0.90857600  1
loop_
_geom_bond_atom_site_label_1
_geom_bond_atom_site_label_2
_geom_bond_distance
_geom_bond_site_symmetry_2
Cu0 Se1 2.383766 1_455
Cu0 Se1 2.391738 1_555
Cu0 Se1 2.396898 1_445
Cu0 Se0 2.548985 1_455
Cu1 Se1 2.351583 1_555
Cu1 Se2 2.439912 1_545
Cu1 Cu2 2.523148 1_555
Cu1 Se2 2.555532 1_655
Cu1 Se2 2.627802 1_555
Cu2 Se2 2.474877 1_555
Cu2 Cu3 2.493039 1_665
Cu2 Se2 2.528369 1_655
Cu2 Cu3 2.561674 1_565
Cu2 Cu3 2.707987 1_555
Cu2 Se3 2.913843 1_655
Cu2 Se3 2.953292 1_665
Cu2 Se3 3.106927 1_555
Cu3 Se3 2.415066 1_655
Cu3 Se3 2.447540 1_555
Cu3 Se2 2.579756 1_545
Cu3 Se3 2.598493 1_545
Cu4 Se3 2.407846 1_555
Cu4 Se4 2.454360 1_445
Cu4 Se4 2.477226 1_555
Cu4 Cu5 2.511673 1_555
Cu4 Se4 2.540923 1_455
Cu5 Cu6 2.496050 1_445
Cu5 Se4 2.506909 1_455
Cu5 Cu6 2.512055 1_455
Cu5 Cu6 2.513980 1_555
Cu5 Se5 2.700643 1_555
Cu5 Se5 2.806819 1_455
Cu5 Se4 3.001660 1_555
Cu5 Se5 3.019346 1_565
Cu6 Se5 2.473010 1_565
Cu6 Se5 2.477325 1_555
Cu6 Se5 2.485762 1_665
Cu6 Se4 2.556002 1_555
Cu7 Se6 2.421916 1_655
Cu7 Se6 2.425455 1_545
Cu7 Se6 2.430150 1_555
Cu7 Se5 2.487073 1_555
Cu8 Se7 2.509246 1_655
Cu8 Se7 2.519808 1_555
Cu8 Se7 2.525937 1_665
Cu8 Se8 2.536785 1_555
Cu9 Se8 2.449733 1_555
Cu9 Se8 2.461358 1_455
Cu9 Se8 2.470547 1_565
Cu9 Se9 2.513060 1_565
Cu10 Se6 2.355003 1_555
Cu10 Se7 2.475783 1_555
Cu10 Se7 2.502615 1_665
Cu10 Se7 2.526361 1_565
Cu11 Cu15 2.513728 1_445
Cu11 Cu15 2.533506 1_555
Cu11 Se9 2.570478 1_455
Cu11 Se9 2.573099 1_565
Cu11 Se10 2.620675 1_555
Cu11 Cu15 2.636227 1_455
Cu11 Se9 2.671495 1_555
Cu12 Se7 2.414678 1_555
Cu12 Se8 2.555876 1_555
Cu12 Se8 2.559064 1_445
Cu12 Se8 2.574346 1_455
Cu13 Cu17 2.556284 1_555
Cu13 Se0 2.560270 1_566
Cu13 Cu17 2.576959 1_665
Cu13 Cu17 2.580442 1_565
Cu13 Se10 2.639954 1_665
Cu13 Se10 2.654527 1_655
Cu13 Se10 2.660742 1_555
Cu13 Cu15 2.834861 1_555
Cu14 Se9 2.437259 1_565
Cu14 Se9 2.446657 1_555
Cu14 Se9 2.453406 1_665
Cu14 Se8 2.567523 1_555
Cu14 Cu15 2.712907 1_555
Cu15 Cu16 2.526224 1_555
Cu15 Cu16 2.534578 1_665
Cu15 Cu16 2.571640 1_565
Cu15 Se10 2.693447 1_655
Cu15 Se10 2.848924 1_555
Cu15 Se9 2.896240 1_565
Cu15 Se10 3.064102 1_665
Cu15 Se9 3.179063 1_665
Cu16 Se10 2.444739 1_545
Cu16 Se10 2.469881 1_655
Cu16 Se10 2.472874 1_555
Cu16 Cu17 2.905816 1_555
Cu17 Cu18 2.459286 1_545
Cu17 Cu18 2.484799 1_555
Cu17 Cu18 2.501261 1_655
Cu17 Se0 2.650211 1_556
Cu17 Se0 2.781286 1_456
Cu17 Se0 3.031202 1_566
Cu17 Se10 3.102079 1_555
Cu17 Se10 3.203982 1_655
Cu18 Se0 2.464549 1_456
Cu18 Se0 2.492369 1_566
Cu18 Se0 2.519573 1_466
Cu18 Se10 2.971880 1_555
