# generated using pymatgen
data_CSe(ClF)3
_symmetry_space_group_name_H-M   'P 1'
_cell_length_a   7.73986500
_cell_length_b   19.53011900
_cell_length_c   19.69018900
_cell_angle_alpha   90.00000000
_cell_angle_beta   90.00000000
_cell_angle_gamma   90.00000000
_symmetry_Int_Tables_number   1
_chemical_formula_structural   CSe(ClF)3
_chemical_formula_sum   'C16 Se16 Cl48 F48'
_cell_volume   2976.37850902
_cell_formula_units_Z   16
loop_
 _symmetry_equiv_pos_site_id
 _symmetry_equiv_pos_as_xyz
  1  'x, y, z'
loop_
 _atom_site_type_symbol
 _atom_site_label
 _atom_site_symmetry_multiplicity
 _atom_site_fract_x
 _atom_site_fract_y
 _atom_site_fract_z
 _atom_site_occupancy
  C  C0  1  0.82123300  0.92306700  0.40331600  1
  C  C1  1  0.32123300  0.57693300  0.59668400  1
  C  C2  1  0.59534800  0.69738700  0.41054400  1
  C  C3  1  0.32123300  0.92306700  0.09668400  1
  C  C4  1  0.67876700  0.42306700  0.40331600  1
  C  C5  1  0.17876700  0.42306700  0.09668400  1
  C  C6  1  0.67876700  0.07693300  0.90331600  1
  C  C7  1  0.09534800  0.69738700  0.08945600  1
  C  C8  1  0.82123300  0.57693300  0.90331600  1
  C  C9  1  0.90465200  0.19738700  0.41054400  1
  C  C10  1  0.90465200  0.30261300  0.91054400  1
  C  C11  1  0.40465200  0.30261300  0.58945600  1
  C  C12  1  0.40465200  0.19738700  0.08945600  1
  C  C13  1  0.09534800  0.80261300  0.58945600  1
  C  C14  1  0.59534800  0.80261300  0.91054400  1
  C  C15  1  0.17876700  0.07693300  0.59668400  1
  Se  Se0  1  0.90784900  0.43360300  0.34180500  1
  Se  Se1  1  0.40784900  0.06639700  0.65819500  1
  Se  Se2  1  0.91025800  0.74273100  0.15737100  1
  Se  Se3  1  0.08974200  0.24273100  0.34262900  1
  Se  Se4  1  0.08974200  0.25726900  0.84262900  1
  Se  Se5  1  0.58974200  0.25726900  0.65737100  1
  Se  Se6  1  0.09215100  0.56639700  0.65819500  1
  Se  Se7  1  0.91025800  0.75726900  0.65737100  1
  Se  Se8  1  0.41025800  0.74273100  0.34262900  1
  Se  Se9  1  0.40784900  0.43360300  0.15819500  1
  Se  Se10  1  0.59215100  0.56639700  0.84180500  1
  Se  Se11  1  0.90784900  0.06639700  0.84180500  1
  Se  Se12  1  0.58974200  0.24273100  0.15737100  1
  Se  Se13  1  0.09215100  0.93360300  0.15819500  1
  Se  Se14  1  0.59215100  0.93360300  0.34180500  1
  Se  Se15  1  0.41025800  0.75726900  0.84262900  1
  Cl  Cl0  1  0.94335700  0.65922100  0.23301800  1
  Cl  Cl1  1  0.51556300  0.47270400  0.90065500  1
  Cl  Cl2  1  0.51556300  0.02729600  0.40065500  1
  Cl  Cl3  1  0.75302600  0.48992400  0.26067500  1
  Cl  Cl4  1  0.75302600  0.01007600  0.76067500  1
  Cl  Cl5  1  0.44335700  0.65922100  0.26698200  1
  Cl  Cl6  1  0.24697400  0.98992400  0.23932500  1
  Cl  Cl7  1  0.48443700  0.52729600  0.09934500  1
  Cl  Cl8  1  0.24697400  0.51007600  0.73932500  1
  Cl  Cl9  1  0.01556300  0.02729600  0.09934500  1
  Cl  Cl10  1  0.85544400  0.31648000  0.27784400  1
  Cl  Cl11  1  0.01556300  0.47270400  0.59934500  1
  Cl  Cl12  1  0.05664300  0.34077900  0.76698200  1
  Cl  Cl13  1  0.98443700  0.52729600  0.40065500  1
  Cl  Cl14  1  0.30466500  0.19286200  0.40130700  1
  Cl  Cl15  1  0.25302600  0.01007600  0.73932500  1
  Cl  Cl16  1  0.19533500  0.69286200  0.40130700  1
  Cl  Cl17  1  0.08402200  0.35573300  0.42212100  1
  Cl  Cl18  1  0.94335700  0.84077900  0.73301800  1
  Cl  Cl19  1  0.35544400  0.18352000  0.72215600  1
  Cl  Cl20  1  0.41597800  0.64426700  0.92212100  1
  Cl  Cl21  1  0.69533500  0.80713800  0.59869300  1
  Cl  Cl22  1  0.74697400  0.98992400  0.26067500  1
  Cl  Cl23  1  0.44335700  0.84077900  0.76698200  1
  Cl  Cl24  1  0.80466500  0.30713800  0.59869300  1
  Cl  Cl25  1  0.14455600  0.81648000  0.22215600  1
  Cl  Cl26  1  0.48443700  0.97270400  0.59934500  1
  Cl  Cl27  1  0.14455600  0.68352000  0.72215600  1
  Cl  Cl28  1  0.80466500  0.19286200  0.09869300  1
  Cl  Cl29  1  0.19533500  0.80713800  0.90130700  1
  Cl  Cl30  1  0.30466500  0.30713800  0.90130700  1
  Cl  Cl31  1  0.05664300  0.15922100  0.26698200  1
  Cl  Cl32  1  0.25302600  0.48992400  0.23932500  1
  Cl  Cl33  1  0.41597800  0.85573300  0.42212100  1
  Cl  Cl34  1  0.91597800  0.64426700  0.57787900  1
  Cl  Cl35  1  0.64455600  0.68352000  0.77784400  1
  Cl  Cl36  1  0.35544400  0.31648000  0.22215600  1
  Cl  Cl37  1  0.98443700  0.97270400  0.90065500  1
  Cl  Cl38  1  0.55664300  0.15922100  0.23301800  1
  Cl  Cl39  1  0.08402200  0.14426700  0.92212100  1
  Cl  Cl40  1  0.64455600  0.81648000  0.27784400  1
  Cl  Cl41  1  0.58402200  0.35573300  0.07787900  1
  Cl  Cl42  1  0.91597800  0.85573300  0.07787900  1
  Cl  Cl43  1  0.74697400  0.51007600  0.76067500  1
  Cl  Cl44  1  0.58402200  0.14426700  0.57787900  1
  Cl  Cl45  1  0.69533500  0.69286200  0.09869300  1
  Cl  Cl46  1  0.55664300  0.34077900  0.73301800  1
  Cl  Cl47  1  0.85544400  0.18352000  0.77784400  1
  F  F0  1  0.77482900  0.59081700  0.96726400  1
  F  F1  1  0.74581000  0.21690900  0.39269600  1
  F  F2  1  0.22517100  0.09081700  0.53273600  1
  F  F3  1  0.74581000  0.28309100  0.89269600  1
  F  F4  1  0.41878400  0.87273000  0.12175300  1
  F  F5  1  0.58121600  0.12727000  0.87824700  1
  F  F6  1  0.41817700  0.12919000  0.09330300  1
  F  F7  1  0.59120400  0.01793100  0.90174300  1
  F  F8  1  0.90879600  0.51793100  0.90174300  1
  F  F9  1  0.77482900  0.90918300  0.46726400  1
  F  F10  1  0.58121600  0.37273000  0.37824700  1
  F  F11  1  0.41817700  0.37081000  0.59330300  1
  F  F12  1  0.44019700  0.21765500  0.02614800  1
  F  F13  1  0.08121600  0.12727000  0.62175300  1
  F  F14  1  0.05980300  0.78234500  0.52614800  1
  F  F15  1  0.91817700  0.37081000  0.90669700  1
  F  F16  1  0.55980300  0.78234500  0.97385200  1
  F  F17  1  0.44019700  0.28234500  0.52614800  1
  F  F18  1  0.24581000  0.21690900  0.10730400  1
  F  F19  1  0.75419000  0.71690900  0.39269600  1
  F  F20  1  0.55980300  0.71765500  0.47385200  1
  F  F21  1  0.91878400  0.87273000  0.37824700  1
  F  F22  1  0.72517100  0.40918300  0.46726400  1
  F  F23  1  0.25419000  0.71690900  0.10730400  1
  F  F24  1  0.75419000  0.78309100  0.89269600  1
  F  F25  1  0.40879600  0.98206900  0.09825700  1
  F  F26  1  0.94019700  0.28234500  0.97385200  1
  F  F27  1  0.91817700  0.12919000  0.40669700  1
  F  F28  1  0.40879600  0.51793100  0.59825700  1
  F  F29  1  0.08182300  0.87081000  0.59330300  1
  F  F30  1  0.09120400  0.01793100  0.59825700  1
  F  F31  1  0.90879600  0.98206900  0.40174300  1
  F  F32  1  0.27482900  0.59081700  0.53273600  1
  F  F33  1  0.09120400  0.48206900  0.09825700  1
  F  F34  1  0.27482900  0.90918300  0.03273600  1
  F  F35  1  0.25419000  0.78309100  0.60730400  1
  F  F36  1  0.94019700  0.21765500  0.47385200  1
  F  F37  1  0.24581000  0.28309100  0.60730400  1
  F  F38  1  0.58182300  0.62919000  0.40669700  1
  F  F39  1  0.41878400  0.62727000  0.62175300  1
  F  F40  1  0.08182300  0.62919000  0.09330300  1
  F  F41  1  0.22517100  0.40918300  0.03273600  1
  F  F42  1  0.05980300  0.71765500  0.02614800  1
  F  F43  1  0.58182300  0.87081000  0.90669700  1
  F  F44  1  0.08121600  0.37273000  0.12175300  1
  F  F45  1  0.91878400  0.62727000  0.87824700  1
  F  F46  1  0.59120400  0.48206900  0.40174300  1
  F  F47  1  0.72517100  0.09081700  0.96726400  1
loop_
_geom_bond_atom_site_label_1
_geom_bond_atom_site_label_2
_geom_bond_distance
_geom_bond_site_symmetry_2
C0 F21 1.334237 1_555
C0 F9 1.337152 1_555
C0 F31 1.337200 1_555
C0 Se14 2.157084 1_555
C1 F39 1.334237 1_555
C1 F32 1.337152 1_555
C1 F28 1.337200 1_555
C1 Se6 2.157084 1_555
C2 F19 1.334290 1_555
C2 F20 1.336507 1_555
C2 F38 1.338149 1_555
C2 Se8 2.150527 1_555
C3 F4 1.334237 1_555
C3 F34 1.337152 1_555
C3 F25 1.337200 1_555
C3 Se13 2.157084 1_555
C4 F10 1.334237 1_555
C4 F22 1.337152 1_555
C4 F46 1.337200 1_555
C4 Se0 2.157084 1_555
C5 F44 1.334237 1_555
C5 F41 1.337152 1_555
C5 F33 1.337200 1_555
C5 Se9 2.157084 1_555
C6 F5 1.334237 1_555
C6 F47 1.337152 1_555
C6 F7 1.337200 1_555
C6 Se11 2.157084 1_555
C7 F23 1.334290 1_555
C7 F42 1.336507 1_555
C7 F40 1.338149 1_555
C7 Se2 2.150527 1_455
C8 F45 1.334237 1_555
C8 F0 1.337152 1_555
C8 F8 1.337200 1_555
C8 Se10 2.157084 1_555
C9 F1 1.334290 1_555
C9 F36 1.336507 1_555
C9 F27 1.338149 1_555
C9 Se3 2.150527 1_655
C10 F3 1.334290 1_555
C10 F26 1.336507 1_555
C10 F15 1.338149 1_555
C10 Se4 2.150527 1_655
C11 F37 1.334290 1_555
C11 F17 1.336507 1_555
C11 F11 1.338149 1_555
C11 Se5 2.150527 1_555
C12 F18 1.334290 1_555
C12 F12 1.336507 1_555
C12 F6 1.338149 1_555
C12 Se12 2.150527 1_555
C13 F35 1.334290 1_555
C13 F14 1.336507 1_555
C13 F29 1.338149 1_555
C13 Se7 2.150527 1_455
C14 F24 1.334290 1_555
C14 F16 1.336507 1_555
C14 F43 1.338149 1_555
C14 Se15 2.150527 1_555
C15 F13 1.334237 1_555
C15 F2 1.337152 1_555
C15 F30 1.337200 1_555
C15 Se1 2.157084 1_555
Cl0 Se2 2.223574 1_555
Cl1 Se10 2.245535 1_555
Cl2 Se14 2.245535 1_545
Cl3 Se0 2.279856 1_555
Cl4 Se11 2.279856 1_555
Cl5 Se8 2.223574 1_555
Cl6 Se13 2.279856 1_555
Cl7 Se9 2.245535 1_555
Cl8 Se6 2.279856 1_555
Cl9 Se13 2.245535 1_545
Cl10 Se0 2.642524 1_555
Cl10 Se3 2.643921 1_655
Cl11 Se6 2.245535 1_555
Cl12 Se4 2.223574 1_555
Cl13 Se0 2.245535 1_555
Cl14 Se3 2.247360 1_555
Cl15 Se1 2.279856 1_555
Cl16 Se8 2.247360 1_555
Cl17 Se0 2.583233 1_455
Cl17 Se3 2.706002 1_555
Cl18 Se7 2.223574 1_555
Cl19 Se1 2.642524 1_555
Cl19 Se5 2.643921 1_555
Cl20 Se10 2.583233 1_555
Cl20 Se15 2.706002 1_555
Cl21 Se7 2.247360 1_555
Cl22 Se14 2.279856 1_555
Cl23 Se15 2.223574 1_555
Cl24 Se5 2.247360 1_555
Cl25 Se13 2.642524 1_555
Cl25 Se2 2.643921 1_455
Cl26 Se1 2.245535 1_565
Cl27 Se6 2.642524 1_555
Cl27 Se7 2.643921 1_455
Cl28 Se12 2.247360 1_555
Cl29 Se15 2.247360 1_555
Cl30 Se4 2.247360 1_555
Cl31 Se3 2.223574 1_555
Cl32 Se9 2.279856 1_555
Cl33 Se14 2.583233 1_555
Cl33 Se8 2.706002 1_555
Cl34 Se6 2.583233 1_655
Cl34 Se7 2.706002 1_555
Cl35 Se10 2.642524 1_555
Cl35 Se15 2.643921 1_555
Cl36 Se9 2.642524 1_555
Cl36 Se12 2.643921 1_555
Cl37 Se11 2.245535 1_565
Cl38 Se12 2.223574 1_555
Cl39 Se11 2.583233 1_455
Cl39 Se4 2.706002 1_555
Cl40 Se14 2.642524 1_555
Cl40 Se8 2.643921 1_555
Cl41 Se9 2.583233 1_555
Cl41 Se12 2.706002 1_555
Cl42 Se13 2.583233 1_655
Cl42 Se2 2.706002 1_555
Cl43 Se10 2.279856 1_555
Cl44 Se1 2.583233 1_555
Cl44 Se5 2.706002 1_555
Cl45 Se2 2.247360 1_555
Cl46 Se5 2.223574 1_555
Cl47 Se11 2.642524 1_555
Cl47 Se4 2.643921 1_655
