# generated using pymatgen
data_Ca2Cu2Si3(HO3)4
_symmetry_space_group_name_H-M   'P 1'
_cell_length_a   13.30996100
_cell_length_b   5.45221000
_cell_length_c   7.10363101
_cell_angle_alpha   86.80726539
_cell_angle_beta   90.00000000
_cell_angle_gamma   90.00000000
_symmetry_Int_Tables_number   1
_chemical_formula_structural   Ca2Cu2Si3(HO3)4
_chemical_formula_sum   'Ca4 Cu4 Si6 H8 O24'
_cell_volume   514.70114194
_cell_formula_units_Z   2
loop_
 _symmetry_equiv_pos_site_id
 _symmetry_equiv_pos_as_xyz
  1  'x, y, z'
loop_
 _atom_site_type_symbol
 _atom_site_label
 _atom_site_symmetry_multiplicity
 _atom_site_fract_x
 _atom_site_fract_y
 _atom_site_fract_z
 _atom_site_occupancy
  Ca  Ca0  1  0.60546600  0.95557000  0.12303900  1
  Ca  Ca1  1  0.10546600  0.04443000  0.87696100  1
  Ca  Ca2  1  0.39453400  0.04443000  0.87696100  1
  Ca  Ca3  1  0.89453400  0.95557000  0.12303900  1
  Cu  Cu0  1  0.75000000  0.77683900  0.48138500  1
  Cu  Cu1  1  0.25000000  0.22316100  0.51861500  1
  Cu  Cu2  1  0.75000000  0.29248600  0.56016900  1
  Cu  Cu3  1  0.25000000  0.70751400  0.43983100  1
  Si  Si0  1  0.57701300  0.53889300  0.77751000  1
  Si  Si1  1  0.07701300  0.46110700  0.22249000  1
  Si  Si2  1  0.42298700  0.46110700  0.22249000  1
  Si  Si3  1  0.92298700  0.53889300  0.77751000  1
  Si  Si4  1  0.75000000  0.44765400  0.08556500  1
  Si  Si5  1  0.25000000  0.55234600  0.91443500  1
  H  H0  1  0.59005300  0.99256800  0.64082500  1
  H  H1  1  0.09005300  0.00743200  0.35917500  1
  H  H2  1  0.40994700  0.00743200  0.35917500  1
  H  H3  1  0.90994700  0.99256800  0.64082500  1
  H  H4  1  0.59245000  0.19427300  0.45841300  1
  H  H5  1  0.09245000  0.80572700  0.54158700  1
  H  H6  1  0.40755000  0.80572700  0.54158700  1
  H  H7  1  0.90755000  0.19427300  0.45841300  1
  O  O0  1  0.75000000  0.20647700  0.22734300  1
  O  O1  1  0.25000000  0.79352300  0.77265700  1
  O  O2  1  0.64950300  0.41751600  0.95115000  1
  O  O3  1  0.14950300  0.58248400  0.04885000  1
  O  O4  1  0.35049700  0.58248400  0.04885000  1
  O  O5  1  0.85049700  0.41751600  0.95115000  1
  O  O6  1  0.65127000  0.54644800  0.58491600  1
  O  O7  1  0.15127000  0.45355200  0.41508400  1
  O  O8  1  0.34873000  0.45355200  0.41508400  1
  O  O9  1  0.84873000  0.54644800  0.58491600  1
  O  O10  1  0.75000000  0.71584200  0.17591700  1
  O  O11  1  0.25000000  0.28415800  0.82408300  1
  O  O12  1  0.54952100  0.82789800  0.81377300  1
  O  O13  1  0.04952100  0.17210200  0.18622700  1
  O  O14  1  0.45047900  0.17210200  0.18622700  1
  O  O15  1  0.95047900  0.82789800  0.81377300  1
  O  O16  1  0.51258100  0.64830100  0.25101200  1
  O  O17  1  0.01258100  0.35169900  0.74898800  1
  O  O18  1  0.48741900  0.35169900  0.74898800  1
  O  O19  1  0.98741900  0.64830100  0.25101200  1
  O  O20  1  0.63097000  0.05936900  0.52240300  1
  O  O21  1  0.13097000  0.94063100  0.47759700  1
  O  O22  1  0.36903000  0.94063100  0.47759700  1
  O  O23  1  0.86903000  0.05936900  0.52240300  1
loop_
_geom_bond_atom_site_label_1
_geom_bond_atom_site_label_2
_geom_bond_distance
_geom_bond_site_symmetry_2
Ca0 O16 2.234236 1_555
Ca0 O10 2.344262 1_555
Ca0 O14 2.430989 1_565
Ca0 O12 2.456782 1_554
Ca0 O0 2.496817 1_565
Ca0 O2 2.799178 1_564
Ca1 O17 2.234236 1_555
Ca1 O11 2.344262 1_555
Ca1 O15 2.430989 1_445
Ca1 O13 2.456782 1_556
Ca1 O1 2.496817 1_545
Ca1 O3 2.799178 1_546
Ca2 O18 2.234236 1_555
Ca2 O11 2.344262 1_555
Ca2 O12 2.430989 1_545
Ca2 O14 2.456782 1_556
Ca2 O1 2.496817 1_545
Ca2 O4 2.799178 1_546
Ca3 O19 2.234236 1_555
Ca3 O10 2.344262 1_555
Ca3 O13 2.430989 1_665
Ca3 O15 2.456782 1_554
Ca3 O0 2.496817 1_565
Ca3 O5 2.799178 1_564
Cu0 O9 1.934607 1_555
Cu0 O6 1.934607 1_555
Cu0 O10 2.213502 1_555
Cu0 O23 2.240028 1_565
Cu0 O20 2.240028 1_565
Cu1 O8 1.934607 1_555
Cu1 O7 1.934607 1_555
Cu1 O11 2.213502 1_555
Cu1 O21 2.240028 1_545
Cu1 O22 2.240028 1_545
Cu2 O9 1.924090 1_555
Cu2 O6 1.924090 1_555
Cu2 O23 2.057999 1_555
Cu2 O20 2.057999 1_555
Cu2 O0 2.435814 1_555
Cu3 O8 1.924090 1_555
Cu3 O7 1.924090 1_555
Cu3 O21 2.057999 1_555
Cu3 O22 2.057999 1_555
Cu3 O1 2.435814 1_555
H0 O20 1.050132 1_565
H0 O12 1.575945 1_555
H1 O21 1.050132 1_545
H1 O13 1.575945 1_555
H2 O22 1.050132 1_545
H2 O14 1.575945 1_555
H3 O23 1.050132 1_565
H3 O15 1.575945 1_555
H4 O20 0.986530 1_555
H5 O21 0.986530 1_555
H6 O22 0.986530 1_555
H7 O23 0.986530 1_555
O0 Si4 1.611179 1_555
O1 Si5 1.611179 1_555
O2 Si4 1.656922 1_556
O2 Si0 1.673138 1_555
O3 Si5 1.656922 1_554
O3 Si1 1.673138 1_555
O4 Si5 1.656922 1_554
O4 Si2 1.673138 1_555
O5 Si4 1.656922 1_556
O5 Si3 1.673138 1_555
O6 Si0 1.686420 1_555
O7 Si1 1.686420 1_555
O8 Si2 1.686420 1_555
O9 Si3 1.686420 1_555
O10 Si4 1.629282 1_555
O11 Si5 1.629282 1_555
O12 Si0 1.651771 1_555
O13 Si1 1.651771 1_555
O14 Si2 1.651771 1_555
O15 Si3 1.651771 1_555
O16 Si2 1.589903 1_555
O17 Si3 1.589903 1_455
O18 Si0 1.589903 1_555
O19 Si1 1.589903 1_655
