# generated using pymatgen
data_Ba3Yb(BO3)3
_symmetry_space_group_name_H-M   'P 1'
_cell_length_a   9.52605917
_cell_length_b   9.52605917
_cell_length_c   18.12647800
_cell_angle_alpha   90.00000000
_cell_angle_beta   90.00000000
_cell_angle_gamma   119.99999424
_symmetry_Int_Tables_number   1
_chemical_formula_structural   Ba3Yb(BO3)3
_chemical_formula_sum   'Ba18 Yb6 B18 O54'
_cell_volume   1424.52683467
_cell_formula_units_Z   6
loop_
 _symmetry_equiv_pos_site_id
 _symmetry_equiv_pos_as_xyz
  1  'x, y, z'
loop_
 _atom_site_type_symbol
 _atom_site_label
 _atom_site_symmetry_multiplicity
 _atom_site_fract_x
 _atom_site_fract_y
 _atom_site_fract_z
 _atom_site_occupancy
  Ba  Ba0  1  0.68784800  0.68784800  0.87531600  1
  Ba  Ba1  1  0.00000000  0.68784800  0.37531600  1
  Ba  Ba2  1  0.68784800  0.00000000  0.37531600  1
  Ba  Ba3  1  0.31215200  0.00000000  0.87531600  1
  Ba  Ba4  1  0.00000000  0.31215200  0.87531600  1
  Ba  Ba5  1  0.31215200  0.31215200  0.37531600  1
  Ba  Ba6  1  0.64586800  0.64586800  0.62669800  1
  Ba  Ba7  1  0.00000000  0.64586800  0.12669800  1
  Ba  Ba8  1  0.64586800  0.00000000  0.12669800  1
  Ba  Ba9  1  0.35413200  0.00000000  0.62669800  1
  Ba  Ba10  1  0.00000000  0.35413200  0.62669800  1
  Ba  Ba11  1  0.35413200  0.35413200  0.12669800  1
  Ba  Ba12  1  0.00000000  0.00000000  0.21183800  1
  Ba  Ba13  1  0.66666700  0.33333300  0.78422000  1
  Ba  Ba14  1  0.33333300  0.66666700  0.78422000  1
  Ba  Ba15  1  0.66666700  0.33333300  0.28422000  1
  Ba  Ba16  1  0.00000000  0.00000000  0.71183800  1
  Ba  Ba17  1  0.33333300  0.66666700  0.28422000  1
  Yb  Yb0  1  0.33333300  0.66666700  0.99591200  1
  Yb  Yb1  1  0.66666700  0.33333300  0.49591200  1
  Yb  Yb2  1  0.33333300  0.66666700  0.49591200  1
  Yb  Yb3  1  0.66666700  0.33333300  0.99591200  1
  Yb  Yb4  1  0.00000000  0.00000000  0.50319500  1
  Yb  Yb5  1  0.00000000  0.00000000  0.00319500  1
  B  B0  1  0.32222800  0.32222800  0.57646200  1
  B  B1  1  0.65621200  0.65621200  0.41760100  1
  B  B2  1  0.00000000  0.65621200  0.91760100  1
  B  B3  1  0.65621200  0.00000000  0.91760100  1
  B  B4  1  0.34378800  0.00000000  0.41760100  1
  B  B5  1  0.00000000  0.34378800  0.41760100  1
  B  B6  1  0.34378800  0.34378800  0.91760100  1
  B  B7  1  0.66825900  0.66825900  0.24923400  1
  B  B8  1  0.00000000  0.66825900  0.74923400  1
  B  B9  1  0.66825900  0.00000000  0.74923400  1
  B  B10  1  0.33174100  0.00000000  0.24923400  1
  B  B11  1  0.00000000  0.33174100  0.24923400  1
  B  B12  1  0.33174100  0.33174100  0.74923400  1
  B  B13  1  0.67777200  0.67777200  0.07646200  1
  B  B14  1  0.00000000  0.67777200  0.57646200  1
  B  B15  1  0.67777200  0.00000000  0.57646200  1
  B  B16  1  0.32222800  0.00000000  0.07646200  1
  B  B17  1  0.00000000  0.32222800  0.07646200  1
  O  O0  1  0.14525100  0.67927700  0.57022900  1
  O  O1  1  0.00000000  0.52264600  0.74677600  1
  O  O2  1  0.52264600  0.00000000  0.74677600  1
  O  O3  1  0.47735400  0.00000000  0.24677600  1
  O  O4  1  0.00000000  0.47735400  0.24677600  1
  O  O5  1  0.81396400  0.14593200  0.75085600  1
  O  O6  1  0.79996600  0.79996600  0.43061200  1
  O  O7  1  0.34294700  0.48854300  0.91089800  1
  O  O8  1  0.85440400  0.34294700  0.41089800  1
  O  O9  1  0.48854300  0.14559600  0.41089800  1
  O  O10  1  0.51145700  0.85440400  0.91089800  1
  O  O11  1  0.14559600  0.65705300  0.91089800  1
  O  O12  1  0.65705300  0.51145700  0.41089800  1
  O  O13  1  0.14559600  0.48854300  0.41089800  1
  O  O14  1  0.34294700  0.85440400  0.41089800  1
  O  O15  1  0.51145700  0.65705300  0.41089800  1
  O  O16  1  0.48854300  0.34294700  0.91089800  1
  O  O17  1  0.85440400  0.51145700  0.91089800  1
  O  O18  1  0.65705300  0.14559600  0.91089800  1
  O  O19  1  0.20003400  0.20003400  0.93061200  1
  O  O20  1  0.00000000  0.20003400  0.43061200  1
  O  O21  1  0.20003400  0.00000000  0.43061200  1
  O  O22  1  0.79996600  0.00000000  0.93061200  1
  O  O23  1  0.00000000  0.79996600  0.93061200  1
  O  O24  1  0.17870900  0.17870900  0.58897700  1
  O  O25  1  0.00000000  0.17870900  0.08897700  1
  O  O26  1  0.17870900  0.00000000  0.08897700  1
  O  O27  1  0.82129100  0.00000000  0.58897700  1
  O  O28  1  0.00000000  0.82129100  0.58897700  1
  O  O29  1  0.82129100  0.82129100  0.08897700  1
  O  O30  1  0.32072300  0.46597400  0.57022900  1
  O  O31  1  0.85474900  0.32072300  0.07022900  1
  O  O32  1  0.46597400  0.14525100  0.07022900  1
  O  O33  1  0.53402600  0.85474900  0.57022900  1
  O  O34  1  0.52264600  0.52264600  0.24677600  1
  O  O35  1  0.67927700  0.53402600  0.07022900  1
  O  O36  1  0.14525100  0.46597400  0.07022900  1
  O  O37  1  0.32072300  0.85474900  0.07022900  1
  O  O38  1  0.53402600  0.67927700  0.07022900  1
  O  O39  1  0.46597400  0.32072300  0.57022900  1
  O  O40  1  0.85474900  0.53402600  0.57022900  1
  O  O41  1  0.67927700  0.14525100  0.57022900  1
  O  O42  1  0.18603600  0.33196800  0.75085600  1
  O  O43  1  0.85406800  0.18603600  0.25085600  1
  O  O44  1  0.33196800  0.14593200  0.25085600  1
  O  O45  1  0.66803200  0.85406800  0.75085600  1
  O  O46  1  0.14593200  0.81396400  0.75085600  1
  O  O47  1  0.81396400  0.66803200  0.25085600  1
  O  O48  1  0.14593200  0.33196800  0.25085600  1
  O  O49  1  0.18603600  0.85406800  0.25085600  1
  O  O50  1  0.66803200  0.81396400  0.25085600  1
  O  O51  1  0.33196800  0.18603600  0.75085600  1
  O  O52  1  0.85406800  0.66803200  0.75085600  1
  O  O53  1  0.47735400  0.47735400  0.74677600  1
loop_
_geom_bond_atom_site_label_1
_geom_bond_atom_site_label_2
_geom_bond_distance
_geom_bond_site_symmetry_2
Ba0 O22 2.794928 1_565
Ba0 O23 2.794928 1_655
Ba0 O45 2.816272 1_555
Ba0 O52 2.816272 1_555
Ba0 O17 2.902211 1_555
Ba0 O10 2.902211 1_555
Ba0 O16 2.928746 1_555
Ba0 O7 2.928746 1_555
Ba0 O53 3.074010 1_555
Ba1 O6 2.794928 1_455
Ba1 O21 2.794928 1_565
Ba1 O47 2.816272 1_455
Ba1 O49 2.816272 1_555
Ba1 O14 2.902211 1_555
Ba1 O12 2.902211 1_455
Ba1 O13 2.928746 1_555
Ba1 O8 2.928746 1_455
Ba1 O4 3.074010 1_555
Ba2 O6 2.794928 1_545
Ba2 O20 2.794928 1_655
Ba2 O50 2.816272 1_545
Ba2 O43 2.816272 1_555
Ba2 O8 2.902211 1_555
Ba2 O15 2.902211 1_545
Ba2 O9 2.928746 1_555
Ba2 O14 2.928746 1_545
Ba2 O3 3.074010 1_555
Ba3 O19 2.794928 1_555
Ba3 O23 2.794928 1_545
Ba3 O51 2.816272 1_555
Ba3 O46 2.816272 1_545
Ba3 O11 2.902211 1_545
Ba3 O16 2.902211 1_555
Ba3 O10 2.928746 1_545
Ba3 O18 2.928746 1_555
Ba3 O2 3.074010 1_555
Ba4 O19 2.794928 1_555
Ba4 O22 2.794928 1_455
Ba4 O42 2.816272 1_555
Ba4 O5 2.816272 1_455
Ba4 O18 2.902211 1_455
Ba4 O7 2.902211 1_555
Ba4 O17 2.928746 1_455
Ba4 O11 2.928746 1_555
Ba4 O1 3.074010 1_555
Ba5 O20 2.794928 1_555
Ba5 O21 2.794928 1_555
Ba5 O48 2.816272 1_555
Ba5 O44 2.816272 1_555
Ba5 O9 2.902211 1_555
Ba5 O13 2.902211 1_555
Ba5 O15 2.928746 1_555
Ba5 O12 2.928746 1_555
Ba5 O34 3.074010 1_555
Ba6 O53 2.704525 1_555
Ba6 O33 2.874397 1_555
Ba6 O40 2.874397 1_555
Ba6 O30 2.875785 1_555
Ba6 O39 2.875785 1_555
Ba6 O52 2.936728 1_555
Ba6 O45 2.936728 1_555
Ba6 O27 3.000508 1_565
Ba6 O28 3.000508 1_655
Ba7 O4 2.704525 1_555
Ba7 O35 2.874397 1_455
Ba7 O37 2.874397 1_555
Ba7 O36 2.875784 1_555
Ba7 O31 2.875785 1_455
Ba7 O47 2.936728 1_455
Ba7 O49 2.936728 1_555
Ba7 O29 3.000507 1_455
Ba7 O26 3.000508 1_565
Ba8 O3 2.704525 1_555
Ba8 O38 2.874397 1_545
Ba8 O31 2.874397 1_555
Ba8 O32 2.875784 1_555
Ba8 O37 2.875785 1_545
Ba8 O50 2.936728 1_545
Ba8 O43 2.936728 1_555
Ba8 O29 3.000507 1_545
Ba8 O25 3.000508 1_655
Ba9 O2 2.704525 1_555
Ba9 O39 2.874397 1_555
Ba9 O0 2.874397 1_545
Ba9 O33 2.875784 1_545
Ba9 O41 2.875785 1_555
Ba9 O51 2.936728 1_555
Ba9 O46 2.936728 1_545
Ba9 O24 3.000507 1_555
Ba9 O28 3.000508 1_545
Ba10 O1 2.704525 1_555
Ba10 O30 2.874397 1_555
Ba10 O41 2.874397 1_455
Ba10 O40 2.875784 1_455
Ba10 O0 2.875785 1_555
Ba10 O42 2.936728 1_555
Ba10 O5 2.936728 1_455
Ba10 O24 3.000507 1_555
Ba10 O27 3.000508 1_455
Ba11 O34 2.704525 1_555
Ba11 O36 2.874397 1_555
Ba11 O32 2.874397 1_555
Ba11 O35 2.875785 1_555
Ba11 O38 2.875785 1_555
Ba11 O48 2.936728 1_555
Ba11 O44 2.936728 1_555
Ba11 O25 3.000508 1_555
Ba11 O26 3.000508 1_555
Ba12 O25 2.803183 1_555
Ba12 O26 2.803183 1_555
Ba12 O29 2.803183 1_445
Ba12 O43 2.834966 1_455
Ba12 O49 2.834966 1_545
Ba12 O44 2.834966 1_555
Ba12 O48 2.834966 1_555
Ba12 O47 2.834966 1_445
Ba12 O50 2.834966 1_445
Ba13 O5 2.833096 1_555
Ba13 O52 2.833104 1_555
Ba13 O51 2.833104 1_555
Ba13 O2 2.840659 1_555
Ba13 O1 2.840660 1_655
Ba13 O53 2.840667 1_555
Ba13 O18 2.883679 1_555
Ba13 O17 2.883682 1_555
Ba13 O16 2.883685 1_555
Ba14 O46 2.833096 1_555
Ba14 O45 2.833104 1_555
Ba14 O42 2.833104 1_555
Ba14 O1 2.840659 1_555
Ba14 O2 2.840660 1_565
Ba14 O53 2.840667 1_555
Ba14 O11 2.883679 1_555
Ba14 O10 2.883682 1_555
Ba14 O7 2.883685 1_555
Ba15 O43 2.833096 1_555
Ba15 O44 2.833104 1_555
Ba15 O47 2.833104 1_555
Ba15 O4 2.840659 1_655
Ba15 O3 2.840660 1_555
Ba15 O34 2.840667 1_555
Ba15 O8 2.883679 1_555
Ba15 O9 2.883682 1_555
Ba15 O12 2.883685 1_555
Ba16 O28 2.803183 1_545
Ba16 O27 2.803183 1_455
Ba16 O24 2.803183 1_555
Ba16 O5 2.834966 1_455
Ba16 O46 2.834966 1_545
Ba16 O52 2.834966 1_445
Ba16 O45 2.834966 1_445
Ba16 O51 2.834966 1_555
Ba16 O42 2.834966 1_555
Ba17 O49 2.833096 1_555
Ba17 O48 2.833104 1_555
Ba17 O50 2.833104 1_555
Ba17 O3 2.840659 1_565
Ba17 O4 2.840660 1_555
Ba17 O34 2.840667 1_555
Ba17 O14 2.883679 1_555
Ba17 O13 2.883682 1_555
Ba17 O15 2.883685 1_555
B0 O39 1.381186 1_555
B0 O30 1.381186 1_555
B0 O24 1.385864 1_555
B1 O15 1.388295 1_555
B1 O12 1.388295 1_555
B1 O6 1.389570 1_555
B2 O11 1.388295 1_555
B2 O17 1.388295 1_455
B2 O23 1.389570 1_555
B3 O18 1.388295 1_555
B3 O10 1.388295 1_545
B3 O22 1.389570 1_555
B4 O14 1.388295 1_545
B4 O9 1.388295 1_555
B4 O21 1.389570 1_555
B5 O8 1.388295 1_455
B5 O13 1.388295 1_555
B5 O20 1.389570 1_555
B6 O16 1.388295 1_555
B6 O7 1.388295 1_555
B6 O19 1.389570 1_555
B7 O34 1.387834 1_555
B7 O47 1.389388 1_555
B7 O50 1.389388 1_555
B8 O1 1.387833 1_555
B8 O52 1.389388 1_455
B8 O46 1.389388 1_555
B9 O2 1.387833 1_555
B9 O45 1.389388 1_545
B9 O5 1.389388 1_555
B10 O3 1.387833 1_555
B10 O44 1.389388 1_555
B10 O49 1.389388 1_545
B11 O4 1.387833 1_555
B11 O48 1.389388 1_555
B11 O43 1.389388 1_455
B12 O53 1.387834 1_555
B12 O42 1.389388 1_555
B12 O51 1.389388 1_555
B13 O38 1.381186 1_555
B13 O35 1.381186 1_555
B13 O29 1.385864 1_555
B14 O0 1.381186 1_555
B14 O40 1.381186 1_455
B14 O28 1.385863 1_555
B15 O41 1.381186 1_555
B15 O33 1.381186 1_545
B15 O27 1.385863 1_555
B16 O37 1.381186 1_545
B16 O32 1.381186 1_555
B16 O26 1.385863 1_555
B17 O31 1.381186 1_455
B17 O36 1.381186 1_555
B17 O25 1.385863 1_555
O0 Yb2 2.292262 1_555
O6 Yb4 2.315613 1_665
O7 Yb0 2.327591 1_555
O8 Yb1 2.327584 1_555
O9 Yb1 2.327587 1_555
O10 Yb0 2.327587 1_555
O11 Yb0 2.327584 1_555
O12 Yb1 2.327591 1_555
O13 Yb2 2.327587 1_555
O14 Yb2 2.327584 1_555
O15 Yb2 2.327591 1_555
O16 Yb3 2.327591 1_555
O17 Yb3 2.327587 1_555
O18 Yb3 2.327584 1_555
O19 Yb5 2.315613 1_556
O20 Yb4 2.315613 1_555
O21 Yb4 2.315613 1_555
O22 Yb5 2.315613 1_656
O23 Yb5 2.315613 1_566
O24 Yb4 2.305631 1_555
O25 Yb5 2.305631 1_555
O26 Yb5 2.305631 1_555
O27 Yb4 2.305631 1_655
O28 Yb4 2.305631 1_565
O29 Yb5 2.305631 1_665
O30 Yb2 2.292269 1_555
O31 Yb3 2.292262 1_554
O32 Yb3 2.292266 1_554
O33 Yb2 2.292266 1_555
O35 Yb3 2.292269 1_554
O36 Yb0 2.292266 1_554
O37 Yb0 2.292262 1_554
O38 Yb0 2.292269 1_554
O39 Yb1 2.292269 1_555
O40 Yb1 2.292266 1_555
O41 Yb1 2.292262 1_555
