# generated using pymatgen
data_KLiSO4
_symmetry_space_group_name_H-M   'P 1'
_cell_length_a   5.21389070
_cell_length_b   5.21389070
_cell_length_c   8.81270000
_cell_angle_alpha   90.00000000
_cell_angle_beta   90.00000000
_cell_angle_gamma   120.00000887
_symmetry_Int_Tables_number   1
_chemical_formula_structural   KLiSO4
_chemical_formula_sum   'K2 Li2 S2 O8'
_cell_volume   207.47387788
_cell_formula_units_Z   2
loop_
 _symmetry_equiv_pos_site_id
 _symmetry_equiv_pos_as_xyz
  1  'x, y, z'
loop_
 _atom_site_type_symbol
 _atom_site_label
 _atom_site_symmetry_multiplicity
 _atom_site_fract_x
 _atom_site_fract_y
 _atom_site_fract_z
 _atom_site_occupancy
  K  K0  1  0.00000000  0.00000000  0.18028800  1
  K  K1  1  0.00000000  0.00000000  0.68028800  1
  Li  Li0  1  0.33333300  0.66666700  0.49323400  1
  Li  Li1  1  0.66666700  0.33333300  0.99323400  1
  S  S0  1  0.33333300  0.66666700  0.88305600  1
  S  S1  1  0.66666700  0.33333300  0.38305600  1
  O  O0  1  0.94022900  0.33945100  0.43801500  1
  O  O1  1  0.60077800  0.66054900  0.93801500  1
  O  O2  1  0.66054900  0.60077800  0.43801500  1
  O  O3  1  0.39922200  0.05977100  0.43801500  1
  O  O4  1  0.33333300  0.66666700  0.71387800  1
  O  O5  1  0.66666700  0.33333300  0.21387800  1
  O  O6  1  0.33945100  0.94022900  0.93801500  1
  O  O7  1  0.05977100  0.39922200  0.93801500  1
loop_
_geom_bond_atom_site_label_1
_geom_bond_atom_site_label_2
_geom_bond_distance
_geom_bond_site_symmetry_2
K0 O1 2.887845 1_444
K0 O7 2.887845 1_554
K0 O6 2.887845 1_544
K0 O2 2.989942 1_445
K0 O3 2.989942 1_555
K0 O0 2.989942 1_455
K0 O5 3.024758 1_455
K0 O5 3.024762 1_555
K0 O5 3.024762 1_445
K1 O2 2.887845 1_445
K1 O3 2.887845 1_555
K1 O0 2.887845 1_455
K1 O1 2.989942 1_445
K1 O7 2.989942 1_555
K1 O6 2.989942 1_545
K1 O4 3.024758 1_545
K1 O4 3.024762 1_555
K1 O4 3.024762 1_445
Li0 O4 1.944469 1_555
Li0 O3 1.962543 1_565
Li0 O0 1.962545 1_455
Li0 O2 1.962548 1_555
Li1 O5 1.944469 1_556
Li1 O7 1.962543 1_655
Li1 O6 1.962545 1_545
Li1 O1 1.962548 1_555
O0 S1 1.491475 1_555
O1 S0 1.491480 1_555
O2 S1 1.491480 1_555
O3 S1 1.491477 1_555
O4 S0 1.490915 1_555
O5 S1 1.490915 1_555
O6 S0 1.491475 1_555
O7 S0 1.491477 1_555
