# generated using pymatgen
data_Li4Re6S11
_symmetry_space_group_name_H-M   'P 1'
_cell_length_a   9.66125200
_cell_length_b   11.90277100
_cell_length_c   14.20382900
_cell_angle_alpha   90.00000000
_cell_angle_beta   90.00000000
_cell_angle_gamma   90.00000000
_symmetry_Int_Tables_number   1
_chemical_formula_structural   Li4Re6S11
_chemical_formula_sum   'Li16 Re24 S44'
_cell_volume   1633.37883426
_cell_formula_units_Z   4
loop_
 _symmetry_equiv_pos_site_id
 _symmetry_equiv_pos_as_xyz
  1  'x, y, z'
loop_
 _atom_site_type_symbol
 _atom_site_label
 _atom_site_symmetry_multiplicity
 _atom_site_fract_x
 _atom_site_fract_y
 _atom_site_fract_z
 _atom_site_occupancy
  Li  Li0  1  0.97820500  0.64369400  0.77888600  1
  Li  Li1  1  0.52179500  0.14369400  0.77888600  1
  Li  Li2  1  0.97820500  0.14369400  0.72111400  1
  Li  Li3  1  0.66795100  0.64780700  0.34428300  1
  Li  Li4  1  0.83204900  0.14780700  0.34428300  1
  Li  Li5  1  0.66795100  0.14780700  0.15571700  1
  Li  Li6  1  0.83204900  0.64780700  0.15571700  1
  Li  Li7  1  0.47820500  0.35630600  0.27888600  1
  Li  Li8  1  0.02179500  0.35630600  0.22111400  1
  Li  Li9  1  0.16795100  0.35219300  0.84428300  1
  Li  Li10  1  0.33204900  0.85219300  0.84428300  1
  Li  Li11  1  0.52179500  0.64369400  0.72111400  1
  Li  Li12  1  0.02179500  0.85630600  0.27888600  1
  Li  Li13  1  0.33204900  0.35219300  0.65571700  1
  Li  Li14  1  0.16795100  0.85219300  0.65571700  1
  Li  Li15  1  0.47820500  0.85630600  0.22111400  1
  Re  Re0  1  0.64594400  0.41781500  0.05330400  1
  Re  Re1  1  0.35405600  0.08218500  0.55330400  1
  Re  Re2  1  0.89167700  0.52182400  0.60813500  1
  Re  Re3  1  0.14594400  0.58218500  0.55330400  1
  Re  Re4  1  0.57062800  0.13205300  0.44986300  1
  Re  Re5  1  0.92937200  0.13205300  0.05013700  1
  Re  Re6  1  0.10832300  0.97817600  0.10813500  1
  Re  Re7  1  0.39167700  0.97817600  0.39186500  1
  Re  Re8  1  0.07062800  0.86794700  0.94986300  1
  Re  Re9  1  0.64594400  0.91781500  0.44669600  1
  Re  Re10  1  0.60832300  0.52182400  0.89186500  1
  Re  Re11  1  0.14594400  0.08218500  0.94669600  1
  Re  Re12  1  0.35405600  0.58218500  0.94669600  1
  Re  Re13  1  0.57062800  0.63205300  0.05013700  1
  Re  Re14  1  0.42937200  0.36794700  0.94986300  1
  Re  Re15  1  0.85405600  0.91781500  0.05330400  1
  Re  Re16  1  0.85405600  0.41781500  0.44669600  1
  Re  Re17  1  0.10832300  0.47817600  0.39186500  1
  Re  Re18  1  0.42937200  0.86794700  0.55013700  1
  Re  Re19  1  0.92937200  0.63205300  0.44986300  1
  Re  Re20  1  0.07062800  0.36794700  0.55013700  1
  Re  Re21  1  0.39167700  0.47817600  0.10813500  1
  Re  Re22  1  0.89167700  0.02182400  0.89186500  1
  Re  Re23  1  0.60832300  0.02182400  0.60813500  1
  S  S0  1  0.25000000  0.92500100  0.25000000  1
  S  S1  1  0.16791500  0.19838400  0.62580800  1
  S  S2  1  0.66791500  0.30161600  0.37419200  1
  S  S3  1  0.70163000  0.56482800  0.50400000  1
  S  S4  1  0.52798300  0.21853100  0.60093500  1
  S  S5  1  0.66476700  0.32724300  0.90333200  1
  S  S6  1  0.33523300  0.17275700  0.40333200  1
  S  S7  1  0.16476700  0.17275700  0.09666800  1
  S  S8  1  0.70163000  0.06482800  0.99600000  1
  S  S9  1  0.52798300  0.71853100  0.89906500  1
  S  S10  1  0.09874800  0.47186200  0.69643300  1
  S  S11  1  0.97201700  0.21853100  0.89906500  1
  S  S12  1  0.83208500  0.80161600  0.37419200  1
  S  S13  1  0.75000000  0.07499900  0.75000000  1
  S  S14  1  0.66476700  0.82724300  0.59666800  1
  S  S15  1  0.59874800  0.52813800  0.19643300  1
  S  S16  1  0.90125200  0.52813800  0.30356700  1
  S  S17  1  0.59874800  0.02813800  0.30356700  1
  S  S18  1  0.79837000  0.56482800  0.99600000  1
  S  S19  1  0.20163000  0.43517200  0.00400000  1
  S  S20  1  0.90125200  0.02813800  0.19643300  1
  S  S21  1  0.40125200  0.97186200  0.69643300  1
  S  S22  1  0.16476700  0.67275700  0.40333200  1
  S  S23  1  0.16791500  0.69838400  0.87419200  1
  S  S24  1  0.75000000  0.57499900  0.75000000  1
  S  S25  1  0.40125200  0.47186200  0.80356700  1
  S  S26  1  0.83523300  0.32724300  0.59666800  1
  S  S27  1  0.79837000  0.06482800  0.50400000  1
  S  S28  1  0.29837000  0.43517200  0.49600000  1
  S  S29  1  0.33208500  0.69838400  0.62580800  1
  S  S30  1  0.33523300  0.67275700  0.09666800  1
  S  S31  1  0.66791500  0.80161600  0.12580800  1
  S  S32  1  0.25000000  0.42500100  0.25000000  1
  S  S33  1  0.33208500  0.19838400  0.87419200  1
  S  S34  1  0.97201700  0.71853100  0.60093500  1
  S  S35  1  0.02798300  0.28146900  0.39906500  1
  S  S36  1  0.47201700  0.78146900  0.39906500  1
  S  S37  1  0.09874800  0.97186200  0.80356700  1
  S  S38  1  0.20163000  0.93517200  0.49600000  1
  S  S39  1  0.29837000  0.93517200  0.00400000  1
  S  S40  1  0.83523300  0.82724300  0.90333200  1
  S  S41  1  0.83208500  0.30161600  0.12580800  1
  S  S42  1  0.02798300  0.78146900  0.10093500  1
  S  S43  1  0.47201700  0.28146900  0.10093500  1
loop_
_geom_bond_atom_site_label_1
_geom_bond_atom_site_label_2
_geom_bond_distance
_geom_bond_site_symmetry_2
Li0 S23 2.369720 1_655
Li0 S24 2.387009 1_555
Li0 S10 2.628884 1_655
Li0 S34 2.680621 1_555
Li1 S33 2.369720 1_555
Li1 S13 2.387009 1_555
Li1 S21 2.628884 1_545
Li1 S4 2.680621 1_555
Li2 S1 2.369720 1_655
Li2 S13 2.387009 1_555
Li2 S37 2.628884 1_645
Li2 S11 2.680621 1_555
Li3 S12 2.459004 1_555
Li3 S3 2.495576 1_555
Li3 S36 2.592278 1_555
Li3 S15 2.624130 1_555
Li3 S16 2.728329 1_555
Li4 S2 2.459004 1_555
Li4 S27 2.495576 1_555
Li4 S35 2.592278 1_655
Li4 S20 2.624130 1_555
Li4 S17 2.728329 1_555
Li5 S41 2.459004 1_555
Li5 S8 2.495576 1_554
Li5 S43 2.592278 1_555
Li5 S17 2.624130 1_555
Li5 S20 2.728329 1_555
Li6 S31 2.459004 1_555
Li6 S18 2.495576 1_554
Li6 S42 2.592278 1_655
Li6 S16 2.624130 1_555
Li6 S15 2.728329 1_555
Li7 S2 2.369720 1_555
Li7 S32 2.387009 1_555
Li7 S15 2.628884 1_555
Li7 S43 2.680621 1_555
Li8 S41 2.369720 1_455
Li8 S32 2.387009 1_555
Li8 S16 2.628884 1_455
Li8 S35 2.680621 1_555
Li9 S33 2.459004 1_555
Li9 S19 2.495576 1_556
Li9 S11 2.592278 1_455
Li9 S10 2.624130 1_555
Li9 S25 2.728329 1_555
Li10 S23 2.459004 1_555
Li10 S39 2.495576 1_556
Li10 S9 2.592278 1_555
Li10 S21 2.624130 1_555
Li10 S37 2.728329 1_555
Li11 S29 2.369720 1_555
Li11 S24 2.387009 1_555
Li11 S25 2.628884 1_555
Li11 S9 2.680621 1_555
Li12 S12 2.369720 1_455
Li12 S0 2.387009 1_555
Li12 S20 2.628884 1_465
Li12 S42 2.680621 1_555
Li13 S1 2.459004 1_555
Li13 S28 2.495576 1_555
Li13 S4 2.592278 1_555
Li13 S25 2.624130 1_555
Li13 S10 2.728329 1_555
Li14 S29 2.459004 1_555
Li14 S38 2.495576 1_555
Li14 S34 2.592278 1_455
Li14 S37 2.624130 1_555
Li14 S21 2.728329 1_555
Li15 S31 2.369720 1_555
Li15 S0 2.387009 1_555
Li15 S17 2.628884 1_565
Li15 S36 2.680621 1_555
Re0 S5 2.394354 1_554
Re0 S18 2.427578 1_554
Re0 S43 2.432094 1_555
Re0 S15 2.462779 1_555
Re0 S41 2.491501 1_555
Re1 S6 2.394354 1_555
Re1 S38 2.427578 1_545
Re1 S4 2.432094 1_555
Re1 S21 2.462779 1_545
Re1 S1 2.491501 1_555
Re2 S26 2.384954 1_555
Re2 S3 2.412680 1_555
Re2 S10 2.434924 1_655
Re2 S34 2.468781 1_555
Re2 S24 2.516840 1_555
Re3 S22 2.394354 1_555
Re3 S28 2.427578 1_555
Re3 S34 2.432094 1_455
Re3 S10 2.462779 1_555
Re3 S29 2.491501 1_555
Re4 S4 2.415310 1_555
Re4 S6 2.417349 1_555
Re4 S17 2.433434 1_555
Re4 S27 2.464295 1_555
Re4 S2 2.472263 1_555
Re5 S11 2.415310 1_554
Re5 S7 2.417349 1_655
Re5 S20 2.433434 1_555
Re5 S8 2.464295 1_554
Re5 S41 2.472263 1_555
Re6 S7 2.384954 1_565
Re6 S39 2.412680 1_555
Re6 S20 2.434924 1_465
Re6 S42 2.468781 1_555
Re6 S0 2.516840 1_555
Re7 S6 2.384954 1_565
Re7 S38 2.412680 1_555
Re7 S17 2.434924 1_565
Re7 S36 2.468781 1_555
Re7 S0 2.516840 1_555
Re8 S42 2.415310 1_556
Re8 S40 2.417349 1_455
Re8 S37 2.433434 1_555
Re8 S39 2.464295 1_556
Re8 S23 2.472263 1_555
Re9 S14 2.394354 1_555
Re9 S27 2.427578 1_565
Re9 S36 2.432094 1_555
Re9 S17 2.462779 1_565
Re9 S12 2.491501 1_555
Re10 S5 2.384954 1_555
Re10 S18 2.412680 1_555
Re10 S25 2.434924 1_555
Re10 S9 2.468781 1_555
Re10 S24 2.516840 1_555
Re11 S7 2.394354 1_556
Re11 S39 2.427578 1_546
Re11 S11 2.432094 1_455
Re11 S37 2.462779 1_545
Re11 S33 2.491501 1_555
Re12 S30 2.394354 1_556
Re12 S19 2.427578 1_556
Re12 S9 2.432094 1_555
Re12 S25 2.462779 1_555
Re12 S23 2.491501 1_555
Re13 S9 2.415310 1_554
Re13 S30 2.417349 1_555
Re13 S15 2.433434 1_555
Re13 S18 2.464295 1_554
Re13 S31 2.472263 1_555
Re14 S43 2.415310 1_556
Re14 S5 2.417349 1_555
Re14 S25 2.433434 1_555
Re14 S19 2.464295 1_556
Re14 S33 2.472263 1_555
Re15 S40 2.394354 1_554
Re15 S8 2.427578 1_564
Re15 S42 2.432094 1_655
Re15 S20 2.462779 1_565
Re15 S31 2.491501 1_555
Re16 S26 2.394354 1_555
Re16 S3 2.427578 1_555
Re16 S35 2.432094 1_655
Re16 S16 2.462779 1_555
Re16 S2 2.491501 1_555
Re17 S22 2.384954 1_555
Re17 S28 2.412680 1_555
Re17 S16 2.434924 1_455
Re17 S35 2.468781 1_555
Re17 S32 2.516840 1_555
Re18 S36 2.415310 1_555
Re18 S14 2.417349 1_555
Re18 S21 2.433434 1_555
Re18 S38 2.464295 1_555
Re18 S29 2.472263 1_555
Re19 S34 2.415310 1_555
Re19 S22 2.417349 1_655
Re19 S16 2.433434 1_555
Re19 S3 2.464295 1_555
Re19 S12 2.472263 1_555
Re20 S35 2.415310 1_555
Re20 S26 2.417349 1_455
Re20 S10 2.433434 1_555
Re20 S28 2.464295 1_555
Re20 S1 2.472263 1_555
Re21 S30 2.384954 1_555
Re21 S19 2.412680 1_555
Re21 S15 2.434924 1_555
Re21 S43 2.468781 1_555
Re21 S32 2.516840 1_555
Re22 S40 2.384954 1_545
Re22 S8 2.412680 1_555
Re22 S37 2.434924 1_645
Re22 S11 2.468781 1_555
Re22 S13 2.516840 1_555
Re23 S14 2.384954 1_545
Re23 S27 2.412680 1_555
Re23 S21 2.434924 1_545
Re23 S4 2.468781 1_555
Re23 S13 2.516840 1_555
