# generated using pymatgen
data_H3ClO5
_symmetry_space_group_name_H-M   'P 1'
_cell_length_a   6.32079800
_cell_length_b   7.53478700
_cell_length_c   8.70457400
_cell_angle_alpha   90.00000000
_cell_angle_beta   90.00000000
_cell_angle_gamma   90.00000000
_symmetry_Int_Tables_number   1
_chemical_formula_structural   H3ClO5
_chemical_formula_sum   'H12 Cl4 O20'
_cell_volume   414.56288013
_cell_formula_units_Z   4
loop_
 _symmetry_equiv_pos_site_id
 _symmetry_equiv_pos_as_xyz
  1  'x, y, z'
loop_
 _atom_site_type_symbol
 _atom_site_label
 _atom_site_symmetry_multiplicity
 _atom_site_fract_x
 _atom_site_fract_y
 _atom_site_fract_z
 _atom_site_occupancy
  H  H0  1  0.25000000  0.53746600  0.18157500  1
  H  H1  1  0.25000000  0.96253400  0.68157500  1
  H  H2  1  0.75000000  0.46253400  0.81842500  1
  H  H3  1  0.75000000  0.03746600  0.31842500  1
  H  H4  1  0.25000000  0.73717200  0.75802100  1
  H  H5  1  0.25000000  0.90784900  0.87838000  1
  H  H6  1  0.25000000  0.76282800  0.25802100  1
  H  H7  1  0.25000000  0.59215100  0.37838000  1
  H  H8  1  0.75000000  0.09215100  0.12162000  1
  H  H9  1  0.75000000  0.26282800  0.24197900  1
  H  H10  1  0.75000000  0.40784900  0.62162000  1
  H  H11  1  0.75000000  0.23717200  0.74197900  1
  Cl  Cl0  1  0.25000000  0.31213000  0.94839200  1
  Cl  Cl1  1  0.25000000  0.18787000  0.44839200  1
  Cl  Cl2  1  0.75000000  0.68787000  0.05160800  1
  Cl  Cl3  1  0.75000000  0.81213000  0.55160800  1
  O  O0  1  0.25000000  0.46237800  0.84461300  1
  O  O1  1  0.25000000  0.03762200  0.34461300  1
  O  O2  1  0.75000000  0.53762200  0.15538700  1
  O  O3  1  0.75000000  0.96237800  0.65538700  1
  O  O4  1  0.25000000  0.37547700  0.11106800  1
  O  O5  1  0.25000000  0.12452300  0.61106800  1
  O  O6  1  0.75000000  0.62452300  0.88893200  1
  O  O7  1  0.75000000  0.87547700  0.38893200  1
  O  O8  1  0.06205300  0.20338100  0.92857400  1
  O  O9  1  0.43794700  0.29661900  0.42857400  1
  O  O10  1  0.56205300  0.79661900  0.07142600  1
  O  O11  1  0.93794700  0.70338100  0.57142600  1
  O  O12  1  0.93794700  0.79661900  0.07142600  1
  O  O13  1  0.56205300  0.70338100  0.57142600  1
  O  O14  1  0.43794700  0.20338100  0.92857400  1
  O  O15  1  0.06205300  0.29661900  0.42857400  1
  O  O16  1  0.25000000  0.86501800  0.77249800  1
  O  O17  1  0.25000000  0.63498200  0.27249800  1
  O  O18  1  0.75000000  0.13498200  0.22750200  1
  O  O19  1  0.75000000  0.36501800  0.72750200  1
loop_
_geom_bond_atom_site_label_1
_geom_bond_atom_site_label_2
_geom_bond_distance
_geom_bond_site_symmetry_2
H0 O17 1.079936 1_555
H0 O4 1.366169 1_555
H1 O16 1.079936 1_555
H1 O5 1.366169 1_565
H2 O19 1.079936 1_555
H2 O6 1.366169 1_555
H3 O18 1.079936 1_555
H3 O7 1.366169 1_545
H4 O16 0.971500 1_555
H5 O16 0.976526 1_555
H6 O17 0.971500 1_555
H7 O17 0.976526 1_555
H8 O18 0.976526 1_555
H9 O18 0.971500 1_555
H10 O19 0.976526 1_555
H11 O19 0.971500 1_555
Cl0 O0 1.448332 1_555
Cl0 O14 1.453431 1_555
Cl0 O8 1.453431 1_555
Cl0 O4 1.494305 1_556
Cl1 O1 1.448332 1_555
Cl1 O9 1.453431 1_555
Cl1 O15 1.453431 1_555
Cl1 O5 1.494305 1_555
Cl2 O2 1.448332 1_555
Cl2 O12 1.453431 1_555
Cl2 O10 1.453431 1_555
Cl2 O6 1.494305 1_554
Cl3 O3 1.448332 1_555
Cl3 O13 1.453431 1_555
Cl3 O11 1.453431 1_555
Cl3 O7 1.494305 1_555
