# generated using pymatgen
data_Ca(H2N)2
_symmetry_space_group_name_H-M   'P 1'
_cell_length_a   7.23373867
_cell_length_b   6.28343419
_cell_length_c   6.34317120
_cell_angle_alpha   69.85264249
_cell_angle_beta   90.00000000
_cell_angle_gamma   90.00000000
_symmetry_Int_Tables_number   1
_chemical_formula_structural   Ca(H2N)2
_chemical_formula_sum   'Ca4 H16 N8'
_cell_volume   270.67239833
_cell_formula_units_Z   4
loop_
 _symmetry_equiv_pos_site_id
 _symmetry_equiv_pos_as_xyz
  1  'x, y, z'
loop_
 _atom_site_type_symbol
 _atom_site_label
 _atom_site_symmetry_multiplicity
 _atom_site_fract_x
 _atom_site_fract_y
 _atom_site_fract_z
 _atom_site_occupancy
  Ca  Ca0  1  0.37712754  0.99755427  0.75026659  1
  Ca  Ca1  1  0.87712754  0.50244573  0.24973341  1
  Ca  Ca2  1  0.62287246  0.00244573  0.24973341  1
  Ca  Ca3  1  0.12287246  0.49755427  0.75026659  1
  H  H0  1  0.02984423  0.88562575  0.93129137  1
  H  H1  1  0.52984423  0.61437425  0.06870863  1
  H  H2  1  0.97015577  0.11437425  0.06870863  1
  H  H3  1  0.47015577  0.38562575  0.93129137  1
  H  H4  1  0.18515094  0.75547297  0.11246792  1
  H  H5  1  0.68515094  0.74452703  0.88753208  1
  H  H6  1  0.81484906  0.24452703  0.88753208  1
  H  H7  1  0.31484906  0.25547297  0.11246792  1
  H  H8  1  0.23529868  0.33969582  0.37175004  1
  H  H9  1  0.73529868  0.16030418  0.62824996  1
  H  H10  1  0.76470132  0.66030418  0.62824996  1
  H  H11  1  0.26470132  0.83969582  0.37175004  1
  H  H12  1  0.08686622  0.13925201  0.46559693  1
  H  H13  1  0.58686622  0.36074799  0.53440307  1
  H  H14  1  0.91313378  0.86074799  0.53440307  1
  H  H15  1  0.41313378  0.63925201  0.46559693  1
  N  N0  1  0.11570661  0.74769706  0.97467422  1
  N  N1  1  0.61570661  0.75230294  0.02532578  1
  N  N2  1  0.88429339  0.25230294  0.02532578  1
  N  N3  1  0.38429339  0.24769706  0.97467422  1
  N  N4  1  0.14028892  0.27578874  0.49746738  1
  N  N5  1  0.64028892  0.22421126  0.50253262  1
  N  N6  1  0.85971108  0.72421126  0.50253262  1
  N  N7  1  0.35971108  0.77578874  0.49746738  1
loop_
_geom_bond_atom_site_label_1
_geom_bond_atom_site_label_2
_geom_bond_distance
_geom_bond_site_symmetry_2
Ca0 N3 2.457755 1_565
Ca0 N7 2.463372 1_555
Ca0 N0 2.554918 1_555
Ca0 N1 2.558354 1_556
Ca0 N5 2.565116 1_565
Ca0 N4 2.575220 1_565
Ca1 N2 2.457755 1_555
Ca1 N6 2.463372 1_555
Ca1 N1 2.554918 1_555
Ca1 N0 2.558354 1_654
Ca1 N4 2.565116 1_655
Ca1 N5 2.575220 1_555
Ca2 N1 2.457755 1_545
Ca2 N5 2.463372 1_555
Ca2 N2 2.554918 1_555
Ca2 N3 2.558354 1_554
Ca2 N7 2.565116 1_545
Ca2 N6 2.575220 1_545
Ca3 N0 2.457755 1_555
Ca3 N4 2.463372 1_555
Ca3 N3 2.554918 1_555
Ca3 N2 2.558354 1_456
Ca3 N6 2.565116 1_455
Ca3 N7 2.575220 1_555
H0 N0 1.023874 1_555
H1 N1 1.023874 1_555
H2 N2 1.023874 1_555
H3 N3 1.023874 1_555
H4 N0 1.023775 1_554
H5 N1 1.023775 1_556
H6 N2 1.023775 1_556
H7 N3 1.023775 1_554
H8 N4 1.024171 1_555
H9 N5 1.024171 1_555
H10 N6 1.024171 1_555
H11 N7 1.024171 1_555
H12 N4 1.022600 1_555
H13 N5 1.022600 1_555
H14 N6 1.022600 1_555
H15 N7 1.022600 1_555
