# generated using pymatgen
data_W25O73
_symmetry_space_group_name_H-M   'P 1'
_cell_length_a   3.86089624
_cell_length_b   12.25859102
_cell_length_c   60.11928129
_cell_angle_alpha   93.74101350
_cell_angle_beta   90.00000000
_cell_angle_gamma   90.00000000
_symmetry_Int_Tables_number   1
_chemical_formula_structural   W25O73
_chemical_formula_sum   'W50 O146'
_cell_volume   2839.33130588
_cell_formula_units_Z   2
loop_
 _symmetry_equiv_pos_site_id
 _symmetry_equiv_pos_as_xyz
  1  'x, y, z'
loop_
 _atom_site_type_symbol
 _atom_site_label
 _atom_site_symmetry_multiplicity
 _atom_site_fract_x
 _atom_site_fract_y
 _atom_site_fract_z
 _atom_site_occupancy
  W  W0  1  0.51748196  0.21142393  0.14987105  1
  W  W1  1  0.51570617  0.08276747  0.83091086  1
  W  W2  1  0.49746786  0.87650118  0.56769881  1
  W  W3  1  0.49020216  0.41208146  0.41102668  1
  W  W4  1  0.50979784  0.58791854  0.58897332  1
  W  W5  1  0.48438152  0.23474805  0.49504364  1
  W  W6  1  0.48361773  0.12583563  0.68971265  1
  W  W7  1  0.49020216  0.08791854  0.08897332  1
  W  W8  1  0.51706723  0.04079282  0.22940746  1
  W  W9  1  0.48429383  0.91723253  0.16908914  1
  W  W10  1  0.51320749  0.79427880  0.10819088  1
  W  W11  1  0.48426108  0.75000000  0.25000000  1
  W  W12  1  0.51573892  0.25000000  0.75000000  1
  W  W13  1  0.51428904  0.49719676  0.87109372  1
  W  W14  1  0.48361773  0.37416437  0.81028735  1
  W  W15  1  0.48429383  0.58276747  0.33091086  1
  W  W16  1  0.50253214  0.37650118  0.06769881  1
  W  W17  1  0.50253214  0.12349882  0.43230119  1
  W  W18  1  0.51706723  0.45920718  0.27059254  1
  W  W19  1  0.48215558  0.33512161  0.21043772  1
  W  W20  1  0.48571096  0.99719676  0.37109372  1
  W  W21  1  0.49746786  0.62349882  0.93230119  1
  W  W22  1  0.48293277  0.54079282  0.72940746  1
  W  W23  1  0.48293277  0.95920718  0.77059254  1
  W  W24  1  0.49633870  0.52953044  0.47299904  1
  W  W25  1  0.48251804  0.71142393  0.64987105  1
  W  W26  1  0.50366130  0.47046956  0.52700096  1
  W  W27  1  0.51428904  0.00280324  0.62890628  1
  W  W28  1  0.49633870  0.97046956  0.02700096  1
  W  W29  1  0.48679251  0.29427880  0.60819088  1
  W  W30  1  0.50366130  0.02953044  0.97299904  1
  W  W31  1  0.48571096  0.50280324  0.12890628  1
  W  W32  1  0.51075576  0.16710770  0.54692734  1
  W  W33  1  0.51784442  0.66487839  0.78956228  1
  W  W34  1  0.48924424  0.66710770  0.04692734  1
  W  W35  1  0.51075576  0.33289230  0.95307266  1
  W  W36  1  0.48438152  0.26525195  0.00495636  1
  W  W37  1  0.51561848  0.73474805  0.99504364  1
  W  W38  1  0.51638227  0.62583563  0.18971265  1
  W  W39  1  0.48251804  0.78857607  0.85012895  1
  W  W40  1  0.48215558  0.16487839  0.28956228  1
  W  W41  1  0.51784442  0.83512161  0.71043772  1
  W  W42  1  0.51638227  0.87416437  0.31028735  1
  W  W43  1  0.50979784  0.91208146  0.91102668  1
  W  W44  1  0.51320749  0.70572120  0.39180912  1
  W  W45  1  0.51561848  0.76525195  0.50495636  1
  W  W46  1  0.51570617  0.41723253  0.66908914  1
  W  W47  1  0.48679251  0.20572120  0.89180912  1
  W  W48  1  0.48924424  0.83289230  0.45307266  1
  W  W49  1  0.51748196  0.28857607  0.35012895  1
  O  O0  1  0.00493878  0.87388941  0.31134924  1
  O  O1  1  0.50060878  0.44000667  0.59683342  1
  O  O2  1  0.50056273  0.27258312  0.67871992  1
  O  O3  1  0.50046319  0.47962858  0.19869200  1
  O  O4  1  0.50122989  0.43388890  0.84219460  1
  O  O5  1  0.99472980  0.41447879  0.41302058  1
  O  O6  1  0.49989951  0.22974565  0.07558857  1
  O  O7  1  0.50420826  0.88290969  0.48712028  1
  O  O8  1  0.00590394  0.04155630  0.22923524  1
  O  O9  1  0.50127640  0.27122332  0.17901394  1
  O  O10  1  0.00408828  0.17050182  0.54506104  1
  O  O11  1  0.49872360  0.77122332  0.67901394  1
  O  O12  1  0.00014225  0.12389976  0.43455657  1
  O  O13  1  0.49943727  0.72741688  0.32128008  1
  O  O14  1  0.00493878  0.62611059  0.18865076  1
  O  O15  1  0.49877011  0.56611110  0.15780540  1
  O  O16  1  0.50083431  0.68620855  0.21943990  1
  O  O17  1  0.49874568  0.35374897  0.63738763  1
  O  O18  1  0.49697841  0.31963777  0.03409619  1
  O  O19  1  0.49579174  0.38290969  0.98712028  1
  O  O20  1  0.49963484  0.35686776  0.13801827  1
  O  O21  1  0.00622806  0.74523093  0.99532505  1
  O  O22  1  0.49821840  0.73911981  0.07481051  1
  O  O23  1  0.50011206  0.18910290  0.21981167  1
  O  O24  1  0.99495056  0.33498949  0.20954508  1
  O  O25  1  0.49995228  0.10116761  0.26006666  1
  O  O26  1  0.50056273  0.22741688  0.82128008  1
  O  O27  1  0.49972175  0.35387864  0.88389622  1
  O  O28  1  0.50420826  0.61709031  0.01287972  1
  O  O29  1  0.50027825  0.85387864  0.38389622  1
  O  O30  1  0.49586864  0.09970401  0.00720661  1
  O  O31  1  0.00527020  0.91447879  0.91302058  1
  O  O32  1  0.49916569  0.31379145  0.78056010  1
  O  O33  1  0.99512603  0.91765483  0.16788783  1
  O  O34  1  0.00504944  0.66501051  0.79045492  1
  O  O35  1  0.50083431  0.81379145  0.28056010  1
  O  O36  1  0.51120686  0.97381097  0.94427683  1
  O  O37  1  0.49953681  0.52037142  0.80130800  1
  O  O38  1  0.50004772  0.89883239  0.73993334  1
  O  O39  1  0.50536813  0.19140795  0.97079090  1
  O  O40  1  0.48879314  0.47381097  0.44427683  1
  O  O41  1  0.49953681  0.97962858  0.69869200  1
  O  O42  1  0.50273529  0.84925805  0.88244672  1
  O  O43  1  0.00408828  0.32949818  0.95493896  1
  O  O44  1  0.99377194  0.24523093  0.49532505  1
  O  O45  1  0.00370321  0.49834937  0.87279607  1
  O  O46  1  0.49821840  0.76088019  0.42518949  1
  O  O47  1  0.50010049  0.72974565  0.57558857  1
  O  O48  1  0.50178160  0.26088019  0.92518949  1
  O  O49  1  0.99641682  0.20781586  0.89363075  1
  O  O50  1  0.51120686  0.52618903  0.55572317  1
  O  O51  1  0.99563864  0.78893136  0.85173207  1
  O  O52  1  0.00014225  0.37610024  0.06544343  1
  O  O53  1  0.00622806  0.75476907  0.50467495  1
  O  O54  1  0.00504944  0.83498949  0.70954508  1
  O  O55  1  0.50011206  0.31089710  0.28018833  1
  O  O56  1  0.99629679  0.99834937  0.37279607  1
  O  O57  1  0.00358318  0.70781586  0.39363075  1
  O  O58  1  0.50189496  0.02395235  0.55490408  1
  O  O59  1  0.49923006  0.39496493  0.73924971  1
  O  O60  1  0.00487397  0.41765483  0.66788783  1
  O  O61  1  0.50027825  0.64612136  0.11610378  1
  O  O62  1  0.50125432  0.64625103  0.36261237  1
  O  O63  1  0.49943727  0.77258312  0.17871992  1
  O  O64  1  0.50092146  0.06188531  0.40359287  1
  O  O65  1  0.00527020  0.58552121  0.58697942  1
  O  O66  1  0.49939122  0.94000667  0.09683342  1
  O  O67  1  0.49810504  0.52395235  0.05490408  1
  O  O68  1  0.50189496  0.47604765  0.94509592  1
  O  O69  1  0.99409606  0.54155630  0.72923524  1
  O  O70  1  0.49907854  0.93811469  0.59640713  1
  O  O71  1  0.99578657  0.96909832  0.02539326  1
  O  O72  1  0.99377194  0.25476907  0.00467495  1
  O  O73  1  0.99591172  0.67050182  0.04506104  1
  O  O74  1  0.00483439  0.25000000  0.75000000  1
  O  O75  1  0.50004772  0.60116761  0.76006666  1
  O  O76  1  0.50046319  0.02037142  0.30130800  1
  O  O77  1  0.49923006  0.10503507  0.76075029  1
  O  O78  1  0.50413136  0.90029599  0.99279339  1
  O  O79  1  0.50536813  0.30859205  0.52920910  1
  O  O80  1  0.00421343  0.46909832  0.52539326  1
  O  O81  1  0.49877011  0.93388890  0.34219460  1
  O  O82  1  -0.00014225  0.87610024  0.56544343  1
  O  O83  1  0.49945467  0.56380622  0.65779493  1
  O  O84  1  0.00358318  0.79218414  0.10636925  1
  O  O85  1  0.49697841  0.18036223  0.46590381  1
  O  O86  1  0.50054533  0.43619378  0.34220507  1
  O  O87  1  0.49988794  0.68910290  0.71981167  1
  O  O88  1  0.50053613  0.48113949  0.69850531  1
  O  O89  1  0.50076994  0.60503507  0.26075029  1
  O  O90  1  0.49874568  0.14625103  0.86261237  1
  O  O91  1  0.00370321  0.00165063  0.62720393  1
  O  O92  1  0.50122989  0.06611110  0.65780540  1
  O  O93  1  0.49726471  0.15074195  0.11755328  1
  O  O94  1  0.99495056  0.16501051  0.29045492  1
  O  O95  1  0.99641682  0.29218414  0.60636925  1
  O  O96  1  0.50125432  0.85374897  0.13738763  1
  O  O97  1  0.99506122  0.12611059  0.68865076  1
  O  O98  1  0.00487397  0.08234517  0.83211217  1
  O  O99  1  0.49872360  0.72877668  0.82098606  1
  O  O100  1  0.00590394  0.45844370  0.27076476  1
  O  O101  1  0.49907854  0.56188531  0.90359287  1
  O  O102  1  0.00421343  0.03090168  0.97460674  1
  O  O103  1  0.50302159  0.81963777  0.53409619  1
  O  O104  1  0.49972175  0.14612136  0.61610378  1
  O  O105  1  0.50054533  0.06380622  0.15779493  1
  O  O106  1  0.99591172  0.82949818  0.45493896  1
  O  O107  1  0.50053613  0.01886051  0.80149469  1
  O  O108  1  0.49586864  0.40029599  0.49279339  1
  O  O109  1  0.49579174  0.11709031  0.51287972  1
  O  O110  1  0.49989951  0.27025435  0.42441143  1
  O  O111  1  0.50302159  0.68036223  0.96590381  1
  O  O112  1  0.50273529  0.65074195  0.61755328  1
  O  O113  1  0.49810504  0.97604765  0.44509592  1
  O  O114  1  0.00436136  0.28893136  0.35173207  1
  O  O115  1  0.49726471  0.34925805  0.38244672  1
  O  O116  1  0.49988794  0.81089710  0.78018833  1
  O  O117  1  0.50010049  0.77025435  0.92441143  1
  O  O118  1  0.49939122  0.55999333  0.40316658  1
  O  O119  1  0.99409606  0.95844370  0.77076476  1
  O  O120  1  0.50036516  0.64313224  0.86198173  1
  O  O121  1  0.49463187  0.80859205  0.02920910  1
  O  O122  1  0.99563864  0.71106864  0.64826793  1
  O  O123  1  0.49463187  0.69140795  0.47079090  1
  O  O124  1  0.49916569  0.18620855  0.71943990  1
  O  O125  1  0.99472980  0.08552121  0.08697942  1
  O  O126  1  0.99578657  0.53090168  0.47460674  1
  O  O127  1  0.50127640  0.22877668  0.32098606  1
  O  O128  1  0.99629679  0.50165063  0.12720393  1
  O  O129  1  0.49946387  0.51886051  0.30149469  1
  O  O130  1  0.48879314  0.02618903  0.05572317  1
  O  O131  1  0.49995228  0.39883239  0.23993334  1
  O  O132  1  0.49963484  0.14313224  0.36198173  1
  O  O133  1  0.49945467  0.93619378  0.84220507  1
  O  O134  1  0.99512603  0.58234517  0.33211217  1
  O  O135  1  0.50060878  0.05999333  0.90316658  1
  O  O136  1  0.49946387  0.98113949  0.19850531  1
  O  O137  1  0.99506122  0.37388941  0.81134924  1
  O  O138  1  0.99516561  0.75000000  0.25000000  1
  O  O139  1  0.00436136  0.21106864  0.14826793  1
  O  O140  1  0.50413136  0.59970401  0.50720661  1
  O  O141  1  0.50076994  0.89496493  0.23924971  1
  O  O142  1  0.50036516  0.85686776  0.63801827  1
  O  O143  1  0.50092146  0.43811469  0.09640713  1
  O  O144  1  0.50178160  0.23911981  0.57481051  1
  O  O145  1  -0.00014225  0.62389976  0.93455657  1
loop_
_geom_bond_atom_site_label_1
_geom_bond_atom_site_label_2
_geom_bond_distance
_geom_bond_site_symmetry_2
O0 W42 1.887356 1_455
O0 W42 1.975672 1_555
O1 W4 1.903688 1_555
O1 W29 1.954361 1_555
O2 W46 1.901804 1_555
O2 W6 1.957621 1_555
O3 W38 1.906244 1_555
O3 W19 1.950618 1_555
O4 W13 1.856720 1_555
O4 W14 2.009237 1_555
O5 W3 1.916825 1_655
O5 W3 1.951717 1_555
O6 W16 1.890212 1_555
O6 W7 1.963214 1_555
O7 W45 1.853066 1_555
O7 W48 2.098900 1_555
O8 W8 1.887403 1_455
O8 W8 1.973601 1_555
O9 W0 1.855631 1_555
O9 W19 1.998723 1_555
O10 W32 1.908621 1_455
O10 W32 1.960003 1_555
O11 W25 1.855631 1_555
O11 W41 1.998723 1_555
O12 W17 1.925984 1_455
O12 W17 1.944393 1_555
O13 W15 1.901804 1_555
O13 W42 1.957621 1_555
O14 W38 1.887356 1_455
O14 W38 1.975672 1_555
O15 W31 1.856720 1_555
O15 W38 2.009237 1_555
O16 W38 1.890172 1_555
O16 W11 1.950287 1_555
O17 W29 1.856785 1_555
O17 W46 2.012142 1_555
O18 W36 1.833976 1_555
O18 W16 2.093721 1_555
O19 W36 1.853066 1_556
O19 W35 2.098900 1_555
O20 W31 1.905585 1_555
O20 W0 1.963968 1_555
O21 W37 1.898547 1_455
O21 W37 1.970898 1_555
O22 W34 1.843207 1_555
O22 W10 2.076234 1_555
O23 W19 1.912610 1_555
O23 W8 1.944053 1_555
O24 W19 1.881811 1_655
O24 W19 1.980573 1_555
O25 W40 1.891666 1_555
O25 W8 1.942043 1_555
O26 W1 1.901804 1_555
O26 W14 1.957621 1_555
O27 W47 1.907913 1_555
O27 W13 1.964343 1_555
O28 W37 1.853066 1_554
O28 W34 2.098900 1_555
O29 W44 1.907913 1_555
O29 W20 1.964343 1_555
O30 W28 2.042538 1_545
O30 W36 2.043158 1_555
O30 W30 2.177012 1_554
O31 W43 1.916825 1_455
O31 W43 1.951717 1_555
O32 W14 1.890172 1_555
O32 W12 1.950287 1_555
O33 W9 1.890027 1_655
O33 W9 1.973611 1_555
O34 W33 1.881811 1_455
O34 W33 1.980573 1_555
O35 W42 1.890172 1_555
O35 W11 1.950287 1_555
O36 W30 1.815263 1_565
O36 W43 2.090732 1_555
O37 W14 1.906244 1_555
O37 W33 1.950618 1_555
O38 W41 1.891666 1_555
O38 W23 1.942043 1_555
O39 W30 1.997460 1_555
O39 W35 2.093878 1_555
O39 W36 2.191413 1_556
O40 W24 1.815263 1_555
O40 W3 2.090732 1_555
O41 W6 1.906244 1_565
O41 W41 1.950618 1_555
O42 W43 1.836682 1_555
O42 W39 2.036120 1_555
O43 W35 1.908621 1_455
O43 W35 1.960003 1_555
O44 W5 1.898547 1_655
O44 W5 1.970898 1_555
O45 W13 1.892350 1_455
O45 W13 1.973977 1_555
O46 W48 1.843207 1_555
O46 W44 2.076234 1_555
O47 W2 1.890212 1_555
O47 W4 1.963214 1_555
O48 W35 1.843207 1_555
O48 W47 2.076234 1_555
O49 W47 1.896531 1_655
O49 W47 1.970726 1_555
O50 W26 1.815263 1_555
O50 W4 2.090732 1_555
O51 W39 1.882250 1_655
O51 W39 1.983439 1_555
O52 W16 1.925984 1_455
O52 W16 1.944393 1_555
O53 W45 1.898547 1_455
O53 W45 1.970898 1_555
O54 W41 1.881811 1_455
O54 W41 1.980573 1_555
O55 W40 1.912610 1_555
O55 W18 1.944053 1_555
O56 W20 1.892350 1_655
O56 W20 1.973977 1_555
O57 W44 1.896531 1_455
O57 W44 1.970726 1_555
O58 W32 1.849480 1_555
O58 W2 2.010131 1_545
O59 W22 1.920360 1_555
O59 W12 1.931218 1_555
O60 W46 1.890027 1_455
O60 W46 1.973611 1_555
O61 W10 1.907913 1_555
O61 W31 1.964343 1_555
O62 W44 1.856785 1_555
O62 W15 2.012142 1_555
O63 W9 1.901804 1_555
O63 W38 1.957621 1_555
O64 W17 1.838263 1_555
O64 W20 2.060955 1_545
O65 W4 1.916825 1_455
O65 W4 1.951717 1_555
O66 W7 1.903688 1_565
O66 W10 1.954361 1_555
O67 W34 1.849480 1_555
O67 W16 2.010131 1_555
O68 W35 1.849480 1_555
O68 W21 2.010131 1_555
O69 W22 1.887403 1_655
O69 W22 1.973601 1_555
O70 W2 1.838263 1_555
O70 W27 2.060955 1_565
O71 W28 1.930755 1_555
O71 W28 1.935014 1_655
O72 W36 1.898547 1_655
O72 W36 1.970898 1_555
O73 W34 1.908621 1_655
O73 W34 1.960003 1_555
O74 W12 1.888347 1_455
O74 W12 1.972549 1_555
O75 W33 1.891666 1_555
O75 W22 1.942043 1_555
O76 W42 1.906244 1_545
O76 W40 1.950618 1_555
O77 W23 1.920360 1_545
O77 W12 1.931218 1_555
O78 W30 2.042538 1_565
O78 W37 2.043158 1_555
O78 W28 2.177012 1_556
O79 W26 1.997460 1_555
O79 W32 2.093878 1_555
O79 W5 2.191413 1_555
O80 W26 1.930755 1_555
O80 W26 1.935014 1_455
O81 W20 1.856720 1_555
O81 W42 2.009237 1_555
O82 W2 1.925984 1_555
O82 W2 1.944393 1_455
O83 W25 1.902183 1_555
O83 W46 1.962810 1_555
O84 W10 1.896531 1_455
O84 W10 1.970726 1_555
O85 W5 1.833976 1_555
O85 W17 2.093721 1_555
O86 W49 1.902183 1_555
O86 W15 1.962810 1_555
O87 W41 1.912610 1_555
O87 W22 1.944053 1_555
O88 W46 1.887826 1_555
O88 W22 1.952835 1_555
O89 W18 1.920360 1_555
O89 W11 1.931218 1_555
O90 W47 1.856785 1_555
O90 W1 2.012142 1_555
O91 W27 1.892350 1_455
O91 W27 1.973977 1_555
O92 W27 1.856720 1_555
O92 W6 2.009237 1_555
O93 W7 1.836682 1_555
O93 W0 2.036120 1_555
O94 W40 1.881811 1_655
O94 W40 1.980573 1_555
O95 W29 1.896531 1_655
O95 W29 1.970726 1_555
O96 W10 1.856785 1_555
O96 W9 2.012142 1_555
O97 W6 1.887356 1_655
O97 W6 1.975672 1_555
O98 W1 1.890027 1_455
O98 W1 1.973611 1_555
O99 W39 1.855631 1_555
O99 W33 1.998723 1_555
O100 W18 1.887403 1_455
O100 W18 1.973601 1_555
O101 W21 1.838263 1_555
O101 W13 2.060955 1_555
O102 W30 1.930755 1_555
O102 W30 1.935014 1_455
O103 W45 1.833976 1_555
O103 W2 2.093721 1_555
O104 W29 1.907913 1_555
O104 W27 1.964343 1_555
O105 W0 1.902183 1_555
O105 W9 1.962810 1_545
O106 W48 1.908621 1_655
O106 W48 1.960003 1_555
O107 W1 1.887826 1_555
O107 W23 1.952835 1_545
O108 W24 2.042538 1_555
O108 W5 2.043158 1_555
O108 W26 2.177012 1_555
O109 W5 1.853066 1_555
O109 W32 2.098900 1_555
O110 W17 1.890212 1_555
O110 W3 1.963214 1_555
O111 W37 1.833976 1_555
O111 W21 2.093721 1_555
O112 W4 1.836682 1_555
O112 W25 2.036120 1_555
O113 W48 1.849480 1_555
O113 W17 2.010131 1_565
O114 W49 1.882250 1_455
O114 W49 1.983439 1_555
O115 W3 1.836682 1_555
O115 W49 2.036120 1_555
O116 W33 1.912610 1_555
O116 W23 1.944053 1_555
O117 W21 1.890212 1_555
O117 W43 1.963214 1_555
O118 W3 1.903688 1_555
O118 W44 1.954361 1_555
O119 W23 1.887403 1_655
O119 W23 1.973601 1_555
O120 W13 1.905585 1_555
O120 W39 1.963968 1_555
O121 W28 1.997460 1_555
O121 W34 2.093878 1_555
O121 W37 2.191413 1_554
O122 W25 1.882250 1_655
O122 W25 1.983439 1_555
O123 W24 1.997460 1_555
O123 W48 2.093878 1_555
O123 W45 2.191413 1_555
O124 W6 1.890172 1_555
O124 W12 1.950287 1_555
O125 W7 1.916825 1_655
O125 W7 1.951717 1_555
O126 W24 1.930755 1_555
O126 W24 1.935014 1_655
O127 W49 1.855631 1_555
O127 W40 1.998723 1_555
O128 W31 1.892350 1_655
O128 W31 1.973977 1_555
O129 W15 1.887826 1_555
O129 W18 1.952835 1_555
O130 W28 1.815263 1_545
O130 W7 2.090732 1_555
O131 W19 1.891666 1_555
O131 W18 1.942043 1_555
O132 W20 1.905585 1_545
O132 W49 1.963968 1_555
O133 W39 1.902183 1_555
O133 W1 1.962810 1_565
O134 W15 1.890027 1_655
O134 W15 1.973611 1_555
O135 W43 1.903688 1_545
O135 W47 1.954361 1_555
O136 W9 1.887826 1_555
O136 W8 1.952835 1_565
O137 W14 1.887356 1_655
O137 W14 1.975672 1_555
O138 W11 1.888347 1_655
O138 W11 1.972549 1_555
O139 W0 1.882250 1_455
O139 W0 1.983439 1_555
O140 W26 2.042538 1_555
O140 W45 2.043158 1_555
O140 W24 2.177012 1_555
O141 W8 1.920360 1_565
O141 W11 1.931218 1_555
O142 W27 1.905585 1_565
O142 W25 1.963968 1_555
O143 W16 1.838263 1_555
O143 W31 2.060955 1_555
O144 W32 1.843207 1_555
O144 W29 2.076234 1_555
O145 W21 1.925984 1_555
O145 W21 1.944393 1_455
