# generated using pymatgen
data_Hg2SbF6
_symmetry_space_group_name_H-M   'P 1'
_cell_length_a   7.55783995
_cell_length_b   7.55783995
_cell_length_c   8.00209467
_cell_angle_alpha   62.98248548
_cell_angle_beta   62.98248548
_cell_angle_gamma   90.09603976
_symmetry_Int_Tables_number   1
_chemical_formula_structural   Hg2SbF6
_chemical_formula_sum   'Hg4 Sb2 F12'
_cell_volume   350.08103998
_cell_formula_units_Z   2
loop_
 _symmetry_equiv_pos_site_id
 _symmetry_equiv_pos_as_xyz
  1  'x, y, z'
loop_
 _atom_site_type_symbol
 _atom_site_label
 _atom_site_symmetry_multiplicity
 _atom_site_fract_x
 _atom_site_fract_y
 _atom_site_fract_z
 _atom_site_occupancy
  Hg  Hg0  1  0.00000000  0.00000000  0.50000000  1
  Hg  Hg1  1  0.00000000  0.00000000  0.00000000  1
  Hg  Hg2  1  0.50000000  0.00000000  0.00000000  1
  Hg  Hg3  1  0.00000000  0.50000000  0.50000000  1
  Sb  Sb0  1  0.37473900  0.62526100  0.75000000  1
  Sb  Sb1  1  0.62526100  0.37473900  0.25000000  1
  F  F0  1  0.19491000  0.80509000  0.75000000  1
  F  F1  1  0.55358300  0.80431300  0.75257100  1
  F  F2  1  0.52944300  0.78122200  0.43702300  1
  F  F3  1  0.78122200  0.52944300  0.93702300  1
  F  F4  1  0.55463300  0.44536700  0.75000000  1
  F  F5  1  0.19568700  0.44641700  0.74742900  1
  F  F6  1  0.80431300  0.55358300  0.25257100  1
  F  F7  1  0.44536700  0.55463300  0.25000000  1
  F  F8  1  0.21877800  0.47055700  0.06297700  1
  F  F9  1  0.47055700  0.21877800  0.56297700  1
  F  F10  1  0.44641700  0.19568700  0.24742900  1
  F  F11  1  0.80509000  0.19491000  0.25000000  1
loop_
_geom_bond_atom_site_label_1
_geom_bond_atom_site_label_2
_geom_bond_distance
_geom_bond_site_symmetry_2
F0 Sb0 1.923694 1_555
F1 Sb0 1.924357 1_555
F2 Sb0 1.918793 1_555
F3 Sb1 1.918793 1_556
F4 Sb0 1.924390 1_555
F5 Sb0 1.924357 1_555
F6 Sb1 1.924357 1_555
F7 Sb1 1.924390 1_555
F8 Sb0 1.918793 1_554
F9 Sb1 1.918793 1_555
F10 Sb1 1.924357 1_555
F11 Sb1 1.923694 1_555
