# generated using pymatgen
data_Na2TiSiO5
_symmetry_space_group_name_H-M   'P 1'
_cell_length_a   10.15382600
_cell_length_b   10.15382600
_cell_length_c   9.25448200
_cell_angle_alpha   90.00000000
_cell_angle_beta   90.00000000
_cell_angle_gamma   90.00000000
_symmetry_Int_Tables_number   1
_chemical_formula_structural   Na2TiSiO5
_chemical_formula_sum   'Na16 Ti8 Si8 O40'
_cell_volume   954.13878257
_cell_formula_units_Z   8
loop_
 _symmetry_equiv_pos_site_id
 _symmetry_equiv_pos_as_xyz
  1  'x, y, z'
loop_
 _atom_site_type_symbol
 _atom_site_label
 _atom_site_symmetry_multiplicity
 _atom_site_fract_x
 _atom_site_fract_y
 _atom_site_fract_z
 _atom_site_occupancy
  Na  Na0  1  0.49879500  0.75317600  0.50000000  1
  Na  Na1  1  0.23942500  0.75205300  0.75058200  1
  Na  Na2  1  0.24695000  0.99959300  0.00000000  1
  Na  Na3  1  0.99959300  0.75305000  0.50000000  1
  Na  Na4  1  0.23942500  0.75205300  0.24941800  1
  Na  Na5  1  0.75205300  0.76057500  0.25058200  1
  Na  Na6  1  0.24682400  0.49879500  0.00000000  1
  Na  Na7  1  0.75305000  0.00040700  0.00000000  1
  Na  Na8  1  0.76057500  0.24794700  0.24941800  1
  Na  Na9  1  0.75205300  0.76057500  0.74941800  1
  Na  Na10  1  0.50120500  0.24682400  0.50000000  1
  Na  Na11  1  0.76057500  0.24794700  0.75058200  1
  Na  Na12  1  0.24794700  0.23942500  0.74941800  1
  Na  Na13  1  0.00040700  0.24695000  0.50000000  1
  Na  Na14  1  0.75317600  0.50120500  0.00000000  1
  Na  Na15  1  0.24794700  0.23942500  0.25058200  1
  Ti  Ti0  1  0.53498700  0.24041800  0.00000000  1
  Ti  Ti1  1  0.96545400  0.75917400  0.00000000  1
  Ti  Ti2  1  0.46501300  0.75958200  0.00000000  1
  Ti  Ti3  1  0.03454600  0.24082600  0.00000000  1
  Ti  Ti4  1  0.24041800  0.46501300  0.50000000  1
  Ti  Ti5  1  0.24082600  0.96545400  0.50000000  1
  Ti  Ti6  1  0.75958200  0.53498700  0.50000000  1
  Ti  Ti7  1  0.75917400  0.03454600  0.50000000  1
  Si  Si0  1  0.00000000  0.00000000  0.75000000  1
  Si  Si1  1  0.00000000  0.00000000  0.25000000  1
  Si  Si2  1  0.50000000  0.00000000  0.24816000  1
  Si  Si3  1  0.50000000  0.00000000  0.75184000  1
  Si  Si4  1  0.00000000  0.50000000  0.25184000  1
  Si  Si5  1  0.50000000  0.50000000  0.25000000  1
  Si  Si6  1  0.50000000  0.50000000  0.75000000  1
  Si  Si7  1  0.00000000  0.50000000  0.74816000  1
  O  O0  1  0.62189000  0.04834600  0.35099300  1
  O  O1  1  0.95353100  0.12555800  0.14925300  1
  O  O2  1  0.37824100  0.44884200  0.35132900  1
  O  O3  1  0.45100700  0.12563000  0.85089100  1
  O  O4  1  0.12555800  0.04646900  0.64925300  1
  O  O5  1  0.12563000  0.54899300  0.35089100  1
  O  O6  1  0.44884200  0.62175900  0.14867100  1
  O  O7  1  0.95353100  0.12555800  0.85074700  1
  O  O8  1  0.62175900  0.55115800  0.35132900  1
  O  O9  1  0.87437000  0.45100700  0.64910900  1
  O  O10  1  0.04646900  0.87444200  0.14925300  1
  O  O11  1  0.04834600  0.37811000  0.85099300  1
  O  O12  1  0.20125800  0.20882400  0.00000000  1
  O  O13  1  0.87444200  0.95353100  0.64925300  1
  O  O14  1  0.95165400  0.62189000  0.14900700  1
  O  O15  1  0.04834600  0.37811000  0.14900700  1
  O  O16  1  0.70126000  0.20739200  0.00000000  1
  O  O17  1  0.79117600  0.20125800  0.50000000  1
  O  O18  1  0.54899300  0.87437000  0.85089100  1
  O  O19  1  0.95165400  0.62189000  0.85099300  1
  O  O20  1  0.54899300  0.87437000  0.14910900  1
  O  O21  1  0.37811000  0.95165400  0.35099300  1
  O  O22  1  0.79874200  0.79117600  0.00000000  1
  O  O23  1  0.62175900  0.55115800  0.64867100  1
  O  O24  1  0.79260800  0.70126000  0.50000000  1
  O  O25  1  0.55115800  0.37824100  0.85132900  1
  O  O26  1  0.45100700  0.12563000  0.14910900  1
  O  O27  1  0.55115800  0.37824100  0.14867100  1
  O  O28  1  0.87437000  0.45100700  0.35089100  1
  O  O29  1  0.12555800  0.04646900  0.35074700  1
  O  O30  1  0.37811000  0.95165400  0.64900700  1
  O  O31  1  0.12563000  0.54899300  0.64910900  1
  O  O32  1  0.37824100  0.44884200  0.64867100  1
  O  O33  1  0.87444200  0.95353100  0.35074700  1
  O  O34  1  0.62189000  0.04834600  0.64900700  1
  O  O35  1  0.29874000  0.79260800  0.00000000  1
  O  O36  1  0.04646900  0.87444200  0.85074700  1
  O  O37  1  0.20739200  0.29874000  0.50000000  1
  O  O38  1  0.20882400  0.79874200  0.50000000  1
  O  O39  1  0.44884200  0.62175900  0.85132900  1
loop_
_geom_bond_atom_site_label_1
_geom_bond_atom_site_label_2
_geom_bond_distance
_geom_bond_site_symmetry_2
Na0 O30 2.732163 1_555
Na0 O21 2.732163 1_555
Na0 O23 2.767592 1_555
Na0 O8 2.767592 1_555
Na0 O38 2.980445 1_555
Na0 O24 3.029541 1_555
Na1 O38 2.387275 1_555
Na1 O35 2.420795 1_556
Na1 O36 2.498451 1_555
Na1 O31 2.543249 1_555
Na1 O30 2.640870 1_555
Na1 O39 2.672282 1_555
Na2 O35 2.166480 1_555
Na2 O12 2.174564 1_565
Na2 O10 2.768859 1_555
Na2 O36 2.768859 1_554
Na2 O26 2.799106 1_565
Na2 O3 2.799106 1_564
Na3 O24 2.166480 1_555
Na3 O38 2.174564 1_655
Na3 O13 2.768859 1_555
Na3 O33 2.768859 1_555
Na3 O31 2.799106 1_655
Na3 O5 2.799106 1_655
Na4 O38 2.387275 1_555
Na4 O35 2.420795 1_555
Na4 O10 2.498451 1_555
Na4 O5 2.543249 1_555
Na4 O21 2.640870 1_555
Na4 O6 2.672282 1_555
Na5 O22 2.387275 1_555
Na5 O24 2.420795 1_555
Na5 O33 2.498451 1_555
Na5 O20 2.543249 1_555
Na5 O14 2.640870 1_555
Na5 O8 2.672282 1_555
Na6 O15 2.732163 1_555
Na6 O11 2.732163 1_554
Na6 O39 2.767592 1_554
Na6 O6 2.767592 1_555
Na6 O12 2.980445 1_555
Na6 O35 3.029541 1_555
Na7 O16 2.166480 1_555
Na7 O22 2.174564 1_545
Na7 O1 2.768859 1_555
Na7 O7 2.768859 1_554
Na7 O20 2.799106 1_545
Na7 O18 2.799106 1_544
Na8 O17 2.387275 1_555
Na8 O16 2.420795 1_555
Na8 O1 2.498451 1_555
Na8 O28 2.543249 1_555
Na8 O0 2.640870 1_555
Na8 O27 2.672282 1_555
Na9 O22 2.387275 1_556
Na9 O24 2.420795 1_555
Na9 O13 2.498451 1_555
Na9 O18 2.543249 1_555
Na9 O19 2.640870 1_555
Na9 O23 2.672282 1_555
Na10 O34 2.732163 1_555
Na10 O0 2.732163 1_555
Na10 O32 2.767592 1_555
Na10 O2 2.767592 1_555
Na10 O17 2.980445 1_555
Na10 O37 3.029541 1_555
Na11 O17 2.387275 1_555
Na11 O16 2.420795 1_556
Na11 O7 2.498451 1_555
Na11 O9 2.543249 1_555
Na11 O34 2.640870 1_555
Na11 O25 2.672282 1_555
Na12 O12 2.387275 1_556
Na12 O37 2.420795 1_555
Na12 O4 2.498451 1_555
Na12 O3 2.543249 1_555
Na12 O11 2.640870 1_555
Na12 O32 2.672282 1_555
Na13 O37 2.166480 1_555
Na13 O17 2.174564 1_455
Na13 O4 2.768859 1_555
Na13 O29 2.768859 1_555
Na13 O9 2.799106 1_455
Na13 O28 2.799106 1_455
Na14 O19 2.732163 1_554
Na14 O14 2.732163 1_555
Na14 O27 2.767592 1_555
Na14 O25 2.767592 1_554
Na14 O22 2.980445 1_555
Na14 O16 3.029541 1_555
Na15 O12 2.387275 1_555
Na15 O37 2.420795 1_555
Na15 O29 2.498451 1_555
Na15 O26 2.543249 1_555
Na15 O15 2.640870 1_555
Na15 O2 2.672282 1_555
O0 Si2 1.636590 1_555
O0 Ti7 1.965794 1_555
O1 Si1 1.648419 1_655
O1 Ti3 1.988575 1_655
O2 Si5 1.636363 1_555
O2 Ti4 1.969364 1_555
O3 Si3 1.647716 1_555
O3 Ti0 1.997449 1_556
O4 Si0 1.648419 1_555
O4 Ti5 1.988575 1_545
O5 Si4 1.647716 1_555
O5 Ti4 1.997449 1_555
O6 Si5 1.636363 1_555
O6 Ti2 1.969364 1_555
O7 Si0 1.648419 1_655
O7 Ti3 1.988575 1_656
O8 Si5 1.636363 1_555
O8 Ti6 1.969364 1_555
O9 Si7 1.647716 1_655
O9 Ti6 1.997449 1_555
O10 Si1 1.648419 1_565
O10 Ti1 1.988575 1_455
O11 Si7 1.636590 1_555
O11 Ti3 1.965794 1_556
O12 Ti3 1.723670 1_555
O13 Si0 1.648419 1_665
O13 Ti7 1.988575 1_565
O14 Si4 1.636590 1_655
O14 Ti1 1.965794 1_555
O15 Si4 1.636590 1_555
O15 Ti3 1.965794 1_555
O16 Ti0 1.721288 1_555
O17 Ti7 1.723670 1_555
O18 Si3 1.647716 1_565
O18 Ti2 1.997449 1_556
O19 Si7 1.636590 1_655
O19 Ti1 1.965794 1_556
O20 Si2 1.647716 1_565
O20 Ti2 1.997449 1_555
O21 Si2 1.636590 1_565
O21 Ti5 1.965794 1_555
O22 Ti1 1.723670 1_555
O23 Si6 1.636363 1_555
O23 Ti6 1.969364 1_555
O24 Ti6 1.721288 1_555
O25 Si6 1.636363 1_555
O25 Ti0 1.969364 1_556
O26 Si2 1.647716 1_555
O26 Ti0 1.997449 1_555
O27 Si5 1.636363 1_555
O27 Ti0 1.969364 1_555
O28 Si4 1.647716 1_655
O28 Ti6 1.997449 1_555
O29 Si1 1.648419 1_555
O29 Ti5 1.988575 1_545
O30 Si3 1.636590 1_565
O30 Ti5 1.965794 1_555
O31 Si7 1.647716 1_555
O31 Ti4 1.997449 1_555
O32 Si6 1.636363 1_555
O32 Ti4 1.969364 1_555
O33 Si1 1.648419 1_665
O33 Ti7 1.988575 1_565
O34 Si3 1.636590 1_555
O34 Ti7 1.965794 1_555
O35 Ti2 1.721288 1_555
O36 Si0 1.648419 1_565
O36 Ti1 1.988575 1_456
O37 Ti4 1.721288 1_555
O38 Ti5 1.723670 1_555
O39 Si6 1.636363 1_555
O39 Ti2 1.969364 1_556
