# generated using pymatgen
data_Y12Ni6Pb
_symmetry_space_group_name_H-M   'P 1'
_cell_length_a   8.44789626
_cell_length_b   8.44789510
_cell_length_c   8.44790810
_cell_angle_alpha   109.46977249
_cell_angle_beta   109.47111119
_cell_angle_gamma   109.46990525
_symmetry_Int_Tables_number   1
_chemical_formula_structural   Y12Ni6Pb
_chemical_formula_sum   'Y12 Ni6 Pb1'
_cell_volume   464.13014025
_cell_formula_units_Z   1
loop_
 _symmetry_equiv_pos_site_id
 _symmetry_equiv_pos_as_xyz
  1  'x, y, z'
loop_
 _atom_site_type_symbol
 _atom_site_label
 _atom_site_symmetry_multiplicity
 _atom_site_fract_x
 _atom_site_fract_y
 _atom_site_fract_z
 _atom_site_occupancy
  Y  Y0  1  0.81057368  0.50526193  0.69468850  1
  Y  Y1  1  0.69466886  0.18938873  0.88405929  1
  Y  Y2  1  0.18942344  0.88411424  0.69468961  1
  Y  Y3  1  0.30532930  0.18938917  0.49471918  1
  Y  Y4  1  0.69466663  0.81060744  0.50527433  1
  Y  Y5  1  0.49471381  0.30529160  0.18942008  1
  Y  Y6  1  0.81057379  0.11588574  0.30531181  1
  Y  Y7  1  0.88412898  0.69470700  0.18941954  1
  Y  Y8  1  0.11586946  0.30529193  0.81057664  1
  Y  Y9  1  0.30533151  0.81060824  0.11593941  1
  Y  Y10  1  0.50528541  0.69470810  0.81057647  1
  Y  Y11  1  0.18942462  0.49473634  0.30531062  1
  Ni  Ni0  1  0.61964365  0.11964170  0.50000350  1
  Ni  Ni1  1  0.50000283  0.61973484  0.11972790  1
  Ni  Ni2  1  0.50000436  0.38026742  0.88026218  1
  Ni  Ni3  1  0.38036184  0.88035976  0.50001250  1
  Ni  Ni4  1  0.11971336  0.50000277  0.61971728  1
  Ni  Ni5  1  0.88028731  0.50000631  0.38029135  1
  Pb  Pb0  1  -0.00000084  -0.00000127  -0.00000120  1
loop_
_geom_bond_atom_site_label_1
_geom_bond_atom_site_label_2
_geom_bond_distance
_geom_bond_site_symmetry_2
Ni0 Ni3 2.334226 1_545
Ni0 Y6 2.660022 1_555
Ni0 Y0 2.660103 1_555
Ni0 Y4 2.895005 1_545
Ni0 Y1 2.895037 1_555
Ni0 Y3 2.895037 1_555
Ni0 Y9 2.895190 1_545
Ni0 Y5 3.529630 1_555
Ni0 Y8 3.529677 1_655
Ni1 Ni2 2.335997 1_554
Ni1 Y9 2.659470 1_555
Ni1 Y4 2.659580 1_555
Ni1 Y10 2.895786 1_554
Ni1 Y7 2.895828 1_555
Ni1 Y5 2.895855 1_555
Ni1 Y8 2.895979 1_554
Ni1 Y11 3.529301 1_555
Ni1 Y6 3.529322 1_565
Ni2 Y1 2.659460 1_555
Ni2 Y3 2.659557 1_555
Ni2 Y10 2.895821 1_555
Ni2 Y5 2.895867 1_556
Ni2 Y8 2.895907 1_555
Ni2 Y7 2.895946 1_556
Ni2 Y0 3.529174 1_555
Ni2 Y2 3.529373 1_545
Ni3 Y2 2.659978 1_555
Ni3 Y11 2.660125 1_555
Ni3 Y4 2.895022 1_555
Ni3 Y3 2.895052 1_565
Ni3 Y1 2.895096 1_565
Ni3 Y9 2.895161 1_555
Ni3 Y10 3.529501 1_555
Ni3 Y7 3.529753 1_455
Ni4 Ni5 2.335572 1_455
Ni4 Y8 2.659650 1_555
Ni4 Y10 2.659755 1_555
Ni4 Y0 2.895641 1_455
Ni4 Y2 2.895680 1_555
Ni4 Y11 2.895693 1_555
Ni4 Y6 2.895821 1_455
Ni4 Y3 3.529746 1_555
Ni4 Y9 3.529793 1_556
Ni5 Y7 2.659665 1_555
Ni5 Y5 2.659765 1_555
Ni5 Y0 2.895645 1_555
Ni5 Y11 2.895685 1_655
Ni5 Y6 2.895734 1_555
Ni5 Y2 2.895761 1_655
Ni5 Y4 3.529669 1_555
Ni5 Y1 3.529880 1_554
Pb0 Y7 3.504703 1_445
Pb0 Y8 3.504723 1_554
Pb0 Y10 3.504818 1_444
Pb0 Y5 3.504830 1_555
Pb0 Y1 3.504842 1_454
Pb0 Y9 3.504861 1_545
Pb0 Y2 3.504887 1_544
Pb0 Y6 3.504924 1_455
Pb0 Y3 3.504959 1_555
Pb0 Y4 3.504989 1_444
Pb0 Y0 3.505019 1_444
Pb0 Y11 3.505026 1_555
