# generated using pymatgen
data_Ba3Y2Cu2PtO10
_symmetry_space_group_name_H-M   'P 1'
_cell_length_a   6.95376387
_cell_length_b   6.95376387
_cell_length_c   7.53128702
_cell_angle_alpha   75.95408310
_cell_angle_beta   75.95408310
_cell_angle_gamma   49.99291618
_symmetry_Int_Tables_number   1
_chemical_formula_structural   Ba3Y2Cu2PtO10
_chemical_formula_sum   'Ba3 Y2 Cu2 Pt1 O10'
_cell_volume   268.75746883
_cell_formula_units_Z   1
loop_
 _symmetry_equiv_pos_site_id
 _symmetry_equiv_pos_as_xyz
  1  'x, y, z'
loop_
 _atom_site_type_symbol
 _atom_site_label
 _atom_site_symmetry_multiplicity
 _atom_site_fract_x
 _atom_site_fract_y
 _atom_site_fract_z
 _atom_site_occupancy
  Ba  Ba0  1  0.15321900  0.15321900  0.45955800  1
  Ba  Ba1  1  0.00000000  0.00000000  0.00000000  1
  Ba  Ba2  1  0.84678100  0.84678100  0.54044200  1
  Y  Y0  1  0.31125500  0.31125500  0.87373000  1
  Y  Y1  1  0.68874500  0.68874500  0.12627000  1
  Cu  Cu0  1  0.41057300  0.41057300  0.19988300  1
  Cu  Cu1  1  0.58942700  0.58942700  0.80011700  1
  Pt  Pt0  1  0.50000000  0.50000000  0.50000000  1
  O  O0  1  0.33252200  0.33252200  0.55208500  1
  O  O1  1  0.66747800  0.66747800  0.44791500  1
  O  O2  1  0.91148800  0.45411400  0.87529100  1
  O  O3  1  0.54588600  0.08851200  0.12470900  1
  O  O4  1  0.08851200  0.54588600  0.12470900  1
  O  O5  1  0.45411400  0.91148800  0.87529100  1
  O  O6  1  0.73755700  0.29644300  0.28236300  1
  O  O7  1  0.70355700  0.26244300  0.71763700  1
  O  O8  1  0.29644300  0.73755700  0.28236300  1
  O  O9  1  0.26244300  0.70355700  0.71763700  1
loop_
_geom_bond_atom_site_label_1
_geom_bond_atom_site_label_2
_geom_bond_distance
_geom_bond_site_symmetry_2
Ba0 O0 2.537140 1_555
Ba0 O6 2.941626 1_455
Ba0 O8 2.941626 1_545
Ba0 O1 2.943762 1_545
Ba0 O1 2.943762 1_455
Ba0 O7 2.974028 1_455
Ba0 O9 2.974028 1_545
Ba0 O4 3.105886 1_555
Ba0 O3 3.105886 1_555
Ba1 O6 2.740278 1_455
Ba1 O8 2.740278 1_545
Ba1 O9 2.740278 1_544
Ba1 O7 2.740278 1_454
Ba1 O5 2.752205 1_544
Ba1 O2 2.752205 1_454
Ba1 O4 2.752205 1_545
Ba1 O3 2.752205 1_455
Ba2 O1 2.537140 1_555
Ba2 O9 2.941626 1_655
Ba2 O7 2.941626 1_565
Ba2 O0 2.943762 1_655
Ba2 O0 2.943762 1_565
Ba2 O8 2.974028 1_655
Ba2 O6 2.974028 1_565
Ba2 O2 3.105886 1_555
Ba2 O5 3.105886 1_555
Cu0 O3 1.966939 1_555
Cu0 O4 1.966939 1_555
Cu0 O8 2.076494 1_555
Cu0 O6 2.076494 1_555
Cu0 O0 2.570258 1_555
Cu1 O2 1.966939 1_555
Cu1 O5 1.966939 1_555
Cu1 O9 2.076494 1_555
Cu1 O7 2.076494 1_555
Cu1 O1 2.570258 1_555
O0 Pt0 2.041288 1_555
O0 Y0 2.364764 1_555
O1 Pt0 2.041288 1_555
O1 Y1 2.364764 1_555
O2 Y0 2.270209 1_655
O2 Y1 2.336769 1_556
O3 Y1 2.270209 1_545
O3 Y0 2.336769 1_554
O4 Y1 2.270209 1_455
O4 Y0 2.336769 1_554
O5 Y0 2.270209 1_565
O5 Y1 2.336769 1_556
O6 Pt0 2.055352 1_555
O6 Y1 2.526961 1_555
O7 Pt0 2.055352 1_555
O7 Y0 2.526961 1_555
O8 Pt0 2.055352 1_555
O8 Y1 2.526961 1_555
O9 Pt0 2.055352 1_555
O9 Y0 2.526961 1_555
