# generated using pymatgen
data_Na10EuSn12
_symmetry_space_group_name_H-M   'P 1'
_cell_length_a   9.72019573
_cell_length_b   9.72019573
_cell_length_c   9.72019573
_cell_angle_alpha   109.47122063
_cell_angle_beta   109.47122063
_cell_angle_gamma   109.47122063
_symmetry_Int_Tables_number   1
_chemical_formula_structural   Na10EuSn12
_chemical_formula_sum   'Na10 Eu1 Sn12'
_cell_volume   706.97350697
_cell_formula_units_Z   1
loop_
 _symmetry_equiv_pos_site_id
 _symmetry_equiv_pos_as_xyz
  1  'x, y, z'
loop_
 _atom_site_type_symbol
 _atom_site_label
 _atom_site_symmetry_multiplicity
 _atom_site_fract_x
 _atom_site_fract_y
 _atom_site_fract_z
 _atom_site_occupancy
  Na  Na0  1  0.38947183  0.38947183  0.38947183  1
  Na  Na1  1  0.50000000  0.25000000  0.75000000  1
  Na  Na2  1  0.75000000  0.25000000  0.50000000  1
  Na  Na3  1  0.75000000  0.50000000  0.25000000  1
  Na  Na4  1  -0.00000000  0.61052817  -0.00000000  1
  Na  Na5  1  0.25000000  0.50000000  0.75000000  1
  Na  Na6  1  0.00000000  0.00000000  0.61052817  1
  Na  Na7  1  0.50000000  0.75000000  0.25000000  1
  Na  Na8  1  0.25000000  0.75000000  0.50000000  1
  Na  Na9  1  0.61052817  0.00000000  -0.00000000  1
  Eu  Eu0  1  0.00000000  -0.00000000  -0.00000000  1
  Sn  Sn0  1  0.18286272  0.81211971  0.81211971  1
  Sn  Sn1  1  0.62925699  0.62925699  0.81713728  1
  Sn  Sn2  1  0.18788029  0.37074301  0.00000000  1
  Sn  Sn3  1  0.37074301  -0.00000000  0.18788029  1
  Sn  Sn4  1  0.81211971  0.81211971  0.18286272  1
  Sn  Sn5  1  0.37074301  0.18788029  0.00000000  1
  Sn  Sn6  1  0.81713728  0.62925699  0.62925699  1
  Sn  Sn7  1  0.18788029  0.00000000  0.37074301  1
  Sn  Sn8  1  0.62925699  0.81713728  0.62925699  1
  Sn  Sn9  1  0.00000000  0.37074301  0.18788029  1
  Sn  Sn10  1  0.81211971  0.18286272  0.81211971  1
  Sn  Sn11  1  0.00000000  0.18788029  0.37074301  1
loop_
_geom_bond_atom_site_label_1
_geom_bond_atom_site_label_2
_geom_bond_distance
_geom_bond_site_symmetry_2
Na0 Sn6 3.406646 1_555
Na0 Sn1 3.406646 1_555
Na0 Sn8 3.406646 1_555
Na0 Sn11 3.544281 1_555
Na0 Sn5 3.544281 1_555
Na0 Sn2 3.544281 1_555
Na0 Sn3 3.544281 1_555
Na0 Sn9 3.544281 1_555
Na0 Sn7 3.544281 1_555
Na1 Sn5 3.218095 1_556
Na1 Sn1 3.218095 1_555
Na1 Sn10 3.218095 1_555
Na1 Sn7 3.218095 1_555
Na2 Sn6 3.218095 1_555
Na2 Sn3 3.218095 1_555
Na2 Sn10 3.218095 1_555
Na2 Sn11 3.218095 1_655
Na3 Sn6 3.218095 1_555
Na3 Sn9 3.218095 1_655
Na3 Sn4 3.218095 1_555
Na3 Sn5 3.218095 1_555
Na4 Sn10 3.406646 1_454
Na4 Sn2 3.406646 1_555
Na4 Sn9 3.406646 1_555
Na4 Sn1 3.544281 1_454
Na4 Sn4 3.544281 1_455
Na4 Sn0 3.544281 1_554
Na4 Sn6 3.544281 1_454
Na4 Sn3 3.544281 1_565
Na4 Sn7 3.544281 1_565
Na5 Sn2 3.218095 1_556
Na5 Sn1 3.218095 1_555
Na5 Sn11 3.218095 1_555
Na5 Sn0 3.218095 1_555
Na6 Sn7 3.406646 1_555
Na6 Sn4 3.406646 1_445
Na6 Sn11 3.406646 1_555
Na6 Sn10 3.544281 1_455
Na6 Sn2 3.544281 1_556
Na6 Sn5 3.544281 1_556
Na6 Sn6 3.544281 1_445
Na6 Sn8 3.544281 1_445
Na6 Sn0 3.544281 1_545
Na7 Sn4 3.218095 1_555
Na7 Sn3 3.218095 1_565
Na7 Sn8 3.218095 1_555
Na7 Sn2 3.218095 1_555
Na8 Sn8 3.218095 1_555
Na8 Sn7 3.218095 1_565
Na8 Sn9 3.218095 1_555
Na8 Sn0 3.218095 1_555
Na9 Sn0 3.406646 1_544
Na9 Sn3 3.406646 1_555
Na9 Sn5 3.406646 1_555
Na9 Sn11 3.544281 1_655
Na9 Sn1 3.544281 1_544
Na9 Sn8 3.544281 1_544
Na9 Sn10 3.544281 1_554
Na9 Sn4 3.544281 1_545
Na9 Sn9 3.544281 1_655
Eu0 Sn4 3.454603 1_445
Eu0 Sn3 3.454603 1_555
Eu0 Sn2 3.454603 1_555
Eu0 Sn9 3.454603 1_555
Eu0 Sn7 3.454603 1_555
Eu0 Sn1 3.454603 1_444
Eu0 Sn5 3.454603 1_555
Eu0 Sn11 3.454603 1_555
Eu0 Sn8 3.454603 1_444
Eu0 Sn6 3.454603 1_444
Eu0 Sn10 3.454603 1_454
Eu0 Sn0 3.454603 1_544
Eu0 Na9 3.785742 1_455
Eu0 Na4 3.785742 1_545
Eu0 Na6 3.785742 1_554
Eu0 Na0 3.785742 1_555
Sn0 Sn6 2.902582 1_455
Sn0 Sn5 2.982226 1_566
Sn0 Sn3 2.982226 1_566
Sn1 Sn4 2.902582 1_556
Sn1 Sn8 2.982226 1_555
Sn1 Sn6 2.982226 1_555
Sn2 Sn5 2.902582 1_555
Sn2 Sn9 2.982226 1_555
Sn3 Sn7 2.902582 1_555
Sn3 Sn5 2.982226 1_555
Sn4 Sn7 2.982226 1_665
Sn6 Sn8 2.982226 1_555
Sn10 Sn8 2.902582 1_545
Sn10 Sn2 2.982226 1_656
Sn10 Sn9 2.982226 1_656
Sn11 Sn9 2.902582 1_555
Sn11 Sn4 2.982226 1_445
Sn11 Sn7 2.982226 1_555
