# generated using pymatgen
data_LaH24C3N3(Cl2O)3
_symmetry_space_group_name_H-M   'P 1'
_cell_length_a   8.72138400
_cell_length_b   11.73312700
_cell_length_c   17.86837300
_cell_angle_alpha   90.00000000
_cell_angle_beta   90.00000000
_cell_angle_gamma   90.00000000
_symmetry_Int_Tables_number   1
_chemical_formula_structural   LaH24C3N3(Cl2O)3
_chemical_formula_sum   'La4 H96 C12 N12 Cl24 O12'
_cell_volume   1828.45463633
_cell_formula_units_Z   4
loop_
 _symmetry_equiv_pos_site_id
 _symmetry_equiv_pos_as_xyz
  1  'x, y, z'
loop_
 _atom_site_type_symbol
 _atom_site_label
 _atom_site_symmetry_multiplicity
 _atom_site_fract_x
 _atom_site_fract_y
 _atom_site_fract_z
 _atom_site_occupancy
  La  La0  1  0.25000000  0.90526300  0.98234000  1
  La  La1  1  0.25000000  0.59473700  0.48234000  1
  La  La2  1  0.75000000  0.40526300  0.51766000  1
  La  La3  1  0.75000000  0.09473700  0.01766000  1
  H  H0  1  0.84057100  0.13273400  0.19424700  1
  H  H1  1  0.35278200  0.45739200  0.17363500  1
  H  H2  1  0.84633000  0.79294700  0.53358500  1
  H  H3  1  0.85277800  0.99651200  0.55776800  1
  H  H4  1  0.35277800  0.00348800  0.44223200  1
  H  H5  1  0.25000000  0.32549500  0.88739200  1
  H  H6  1  0.15496400  0.03417500  0.22292500  1
  H  H7  1  0.25000000  0.43574600  0.30053900  1
  H  H8  1  0.84503600  0.96582500  0.77707500  1
  H  H9  1  0.34633000  0.20705300  0.46641500  1
  H  H10  1  0.15836700  0.13307500  0.06841600  1
  H  H11  1  0.84163300  0.86692500  0.93158400  1
  H  H12  1  0.15526200  0.31608700  0.27409800  1
  H  H13  1  0.35239600  0.65743900  0.77577800  1
  H  H14  1  0.75000000  0.96496300  0.47337200  1
  H  H15  1  0.25000000  0.55556900  0.66586600  1
  H  H16  1  0.64722200  0.50348800  0.05776800  1
  H  H17  1  0.65526200  0.81608700  0.22590200  1
  H  H18  1  0.65836700  0.63307500  0.43158400  1
  H  H19  1  0.34503600  0.46582500  0.72292500  1
  H  H20  1  0.34473800  0.31608700  0.27409800  1
  H  H21  1  0.65526200  0.68391300  0.72590200  1
  H  H22  1  0.15526200  0.18391300  0.77409800  1
  H  H23  1  0.64722200  0.99651200  0.55776800  1
  H  H24  1  0.85239600  0.15743900  0.72422200  1
  H  H25  1  0.65496400  0.53417500  0.27707500  1
  H  H26  1  0.15836700  0.36692500  0.56841600  1
  H  H27  1  0.65942900  0.36726600  0.69424700  1
  H  H28  1  0.64760400  0.34256100  0.22422200  1
  H  H29  1  0.75000000  0.05556900  0.83413400  1
  H  H30  1  0.34503600  0.03417500  0.22292500  1
  H  H31  1  0.34473800  0.18391300  0.77409800  1
  H  H32  1  0.85278200  0.95739200  0.32636500  1
  H  H33  1  0.84473800  0.68391300  0.72590200  1
  H  H34  1  0.65496400  0.96582500  0.77707500  1
  H  H35  1  0.65942900  0.13273400  0.19424700  1
  H  H36  1  0.84473800  0.81608700  0.22590200  1
  H  H37  1  0.34163300  0.36692500  0.56841600  1
  H  H38  1  0.64721800  0.54260800  0.82636500  1
  H  H39  1  0.75000000  0.44099500  0.16700000  1
  H  H40  1  0.84069800  0.26432100  0.87899600  1
  H  H41  1  0.75000000  0.67450500  0.11260800  1
  H  H42  1  0.75000000  0.66942600  0.85192500  1
  H  H43  1  0.35278200  0.04260800  0.67363500  1
  H  H44  1  0.14721800  0.45739200  0.17363500  1
  H  H45  1  0.65930200  0.23567900  0.37899600  1
  H  H46  1  0.15930200  0.76432100  0.62100400  1
  H  H47  1  0.84503600  0.53417500  0.27707500  1
  H  H48  1  0.85239600  0.34256100  0.22422200  1
  H  H49  1  0.34163300  0.13307500  0.06841600  1
  H  H50  1  0.84163300  0.63307500  0.43158400  1
  H  H51  1  0.85277800  0.50348800  0.05776800  1
  H  H52  1  0.65930200  0.26432100  0.87899600  1
  H  H53  1  0.34069800  0.76432100  0.62100400  1
  H  H54  1  0.75000000  0.82549500  0.61260800  1
  H  H55  1  0.25000000  0.46496300  0.02662800  1
  H  H56  1  0.75000000  0.53503700  0.97337200  1
  H  H57  1  0.35239600  0.84256100  0.27577800  1
  H  H58  1  0.64721800  0.95739200  0.32636500  1
  H  H59  1  0.25000000  0.55900500  0.83300000  1
  H  H60  1  0.75000000  0.05900500  0.66700000  1
  H  H61  1  0.25000000  0.17450500  0.38739200  1
  H  H62  1  0.75000000  0.93574600  0.19946100  1
  H  H63  1  0.84633000  0.70705300  0.03358500  1
  H  H64  1  0.15367000  0.29294700  0.96641500  1
  H  H65  1  0.14721800  0.04260800  0.67363500  1
  H  H66  1  0.25000000  0.94443100  0.16586600  1
  H  H67  1  0.35277800  0.49651200  0.94223200  1
  H  H68  1  0.75000000  0.83057400  0.35192500  1
  H  H69  1  0.75000000  0.44443100  0.33413400  1
  H  H70  1  0.85278200  0.54260800  0.82636500  1
  H  H71  1  0.34057100  0.63273400  0.30575300  1
  H  H72  1  0.84057100  0.36726600  0.69424700  1
  H  H73  1  0.25000000  0.33057400  0.14807500  1
  H  H74  1  0.15367000  0.20705300  0.46641500  1
  H  H75  1  0.75000000  0.56425400  0.69946100  1
  H  H76  1  0.25000000  0.16942600  0.64807500  1
  H  H77  1  0.14722200  0.00348800  0.44223200  1
  H  H78  1  0.34633000  0.29294700  0.96641500  1
  H  H79  1  0.34057100  0.86726600  0.80575300  1
  H  H80  1  0.25000000  0.94099500  0.33300000  1
  H  H81  1  0.14760400  0.65743900  0.77577800  1
  H  H82  1  0.25000000  0.06425400  0.80053900  1
  H  H83  1  0.84069800  0.23567900  0.37899600  1
  H  H84  1  0.65836700  0.86692500  0.93158400  1
  H  H85  1  0.34069800  0.73567900  0.12100400  1
  H  H86  1  0.65367000  0.79294700  0.53358500  1
  H  H87  1  0.64760400  0.15743900  0.72422200  1
  H  H88  1  0.65367000  0.70705300  0.03358500  1
  H  H89  1  0.15496400  0.46582500  0.72292500  1
  H  H90  1  0.15930200  0.73567900  0.12100400  1
  H  H91  1  0.25000000  0.03503700  0.52662800  1
  H  H92  1  0.14722200  0.49651200  0.94223200  1
  H  H93  1  0.15942900  0.86726600  0.80575300  1
  H  H94  1  0.14760400  0.84256100  0.27577800  1
  H  H95  1  0.15942900  0.63273400  0.30575300  1
  C  C0  1  0.75000000  0.54343000  0.03427600  1
  C  C1  1  0.25000000  0.45657000  0.96572400  1
  C  C2  1  0.25000000  0.40603400  0.18388800  1
  C  C3  1  0.75000000  0.59396600  0.81611200  1
  C  C4  1  0.25000000  0.04343000  0.46572400  1
  C  C5  1  0.25000000  0.60391600  0.77968500  1
  C  C6  1  0.75000000  0.95657000  0.53427600  1
  C  C7  1  0.25000000  0.89608400  0.27968500  1
  C  C8  1  0.75000000  0.39608400  0.22031500  1
  C  C9  1  0.25000000  0.09396600  0.68388800  1
  C  C10  1  0.75000000  0.90603400  0.31611200  1
  C  C11  1  0.75000000  0.10391600  0.72031500  1
  N  N0  1  0.75000000  0.48110100  0.28162500  1
  N  N1  1  0.25000000  0.98110100  0.21837500  1
  N  N2  1  0.75000000  0.86783800  0.23697700  1
  N  N3  1  0.25000000  0.33399800  0.94492400  1
  N  N4  1  0.75000000  0.01889900  0.78162500  1
  N  N5  1  0.25000000  0.36783800  0.26302300  1
  N  N6  1  0.75000000  0.63216200  0.73697700  1
  N  N7  1  0.75000000  0.66600200  0.05507600  1
  N  N8  1  0.75000000  0.83399800  0.55507600  1
  N  N9  1  0.25000000  0.16600200  0.44492400  1
  N  N10  1  0.25000000  0.51889900  0.71837500  1
  N  N11  1  0.25000000  0.13216200  0.76302300  1
  Cl  Cl0  1  0.96636300  0.56753600  0.58495900  1
  Cl  Cl1  1  0.46636300  0.43246400  0.41504100  1
  Cl  Cl2  1  0.52575400  0.26464400  0.06156800  1
  Cl  Cl3  1  0.01179000  0.33971800  0.79304500  1
  Cl  Cl4  1  0.47424600  0.76464400  0.43843200  1
  Cl  Cl5  1  0.02575400  0.76464400  0.43843200  1
  Cl  Cl6  1  0.03363700  0.06753600  0.91504100  1
  Cl  Cl7  1  0.53363700  0.93246400  0.08495900  1
  Cl  Cl8  1  0.96636300  0.93246400  0.08495900  1
  Cl  Cl9  1  0.01179000  0.16028200  0.29304500  1
  Cl  Cl10  1  0.48821000  0.16028200  0.29304500  1
  Cl  Cl11  1  0.97424600  0.26464400  0.06156800  1
  Cl  Cl12  1  0.51179000  0.66028200  0.20695500  1
  Cl  Cl13  1  0.46636300  0.06753600  0.91504100  1
  Cl  Cl14  1  0.51179000  0.83971800  0.70695500  1
  Cl  Cl15  1  0.98821000  0.66028200  0.20695500  1
  Cl  Cl16  1  0.48821000  0.33971800  0.79304500  1
  Cl  Cl17  1  0.03363700  0.43246400  0.41504100  1
  Cl  Cl18  1  0.47424600  0.73535600  0.93843200  1
  Cl  Cl19  1  0.53363700  0.56753600  0.58495900  1
  Cl  Cl20  1  0.52575400  0.23535600  0.56156800  1
  Cl  Cl21  1  0.98821000  0.83971800  0.70695500  1
  Cl  Cl22  1  0.97424600  0.23535600  0.56156800  1
  Cl  Cl23  1  0.02575400  0.73535600  0.93843200  1
  O  O0  1  0.75000000  0.39631000  0.66690400  1
  O  O1  1  0.25000000  0.72860600  0.59775100  1
  O  O2  1  0.25000000  0.08325400  0.06939300  1
  O  O3  1  0.75000000  0.91674600  0.93060700  1
  O  O4  1  0.75000000  0.10369000  0.16690400  1
  O  O5  1  0.25000000  0.89631000  0.83309600  1
  O  O6  1  0.25000000  0.41674600  0.56939300  1
  O  O7  1  0.75000000  0.27139400  0.40224900  1
  O  O8  1  0.75000000  0.22860600  0.90224900  1
  O  O9  1  0.75000000  0.58325400  0.43060700  1
  O  O10  1  0.25000000  0.60369000  0.33309600  1
  O  O11  1  0.25000000  0.77139400  0.09775100  1
loop_
_geom_bond_atom_site_label_1
_geom_bond_atom_site_label_2
_geom_bond_distance
_geom_bond_site_symmetry_2
La0 O11 2.592258 1_556
La0 O2 2.604024 1_566
La0 O5 2.668816 1_555
La1 O1 2.592258 1_555
La1 O6 2.604024 1_555
La1 O10 2.668816 1_555
La2 O7 2.592258 1_555
La2 O9 2.604024 1_555
La2 O0 2.668816 1_555
La3 O8 2.592258 1_554
La3 O3 2.604024 1_544
La3 O4 2.668816 1_555
H0 O4 0.989335 1_555
H2 N8 1.041766 1_555
H5 N3 1.032833 1_555
H6 N1 1.039894 1_545
H7 N5 1.041257 1_555
H8 N4 1.039894 1_565
H9 N9 1.041766 1_555
H10 O2 0.990292 1_555
H11 O3 0.990292 1_555
H12 N5 1.044288 1_555
H15 N10 1.032198 1_555
H17 N2 1.044288 1_555
H18 O9 0.990292 1_555
H19 N10 1.039894 1_555
H20 N5 1.044288 1_555
H21 N6 1.044288 1_555
H22 N11 1.044288 1_555
H25 N0 1.039894 1_555
H26 O6 0.990292 1_555
H27 O0 0.989335 1_555
H29 N4 1.032198 1_555
H30 N1 1.039894 1_545
H31 N11 1.044288 1_555
H33 N6 1.044288 1_555
H34 N4 1.039894 1_565
H35 O4 0.989335 1_555
H36 N2 1.044288 1_555
H37 O6 0.990292 1_555
H40 O8 0.986882 1_555
H41 N7 1.032833 1_555
H45 O7 0.986882 1_555
H46 O1 0.986882 1_555
H47 N0 1.039894 1_555
H49 O2 0.990292 1_555
H50 O9 0.990292 1_555
H52 O8 0.986882 1_555
H53 O1 0.986882 1_555
H54 N8 1.032833 1_555
H61 N9 1.032833 1_555
H62 N2 1.041257 1_555
H63 N7 1.041766 1_555
H64 N3 1.041766 1_555
H66 N1 1.032198 1_555
H69 N0 1.032198 1_555
H71 O10 0.989335 1_555
H72 O0 0.989335 1_555
H74 N9 1.041766 1_555
H75 N6 1.041257 1_555
H78 N3 1.041766 1_555
H79 O5 0.989335 1_555
H82 N11 1.041257 1_555
H83 O7 0.986882 1_555
H84 O3 0.990292 1_555
H85 O11 0.986882 1_555
H86 N8 1.041766 1_555
H88 N7 1.041766 1_555
H89 N10 1.039894 1_555
H90 O11 0.986882 1_555
H93 O5 0.989335 1_555
H95 O10 0.989335 1_555
C0 H56 1.092702 1_554
C0 H51 1.095127 1_555
C0 H16 1.095127 1_555
C0 N7 1.485401 1_555
C1 H55 1.092702 1_556
C1 H67 1.095127 1_555
C1 H92 1.095127 1_555
C1 N3 1.485401 1_555
C2 H73 1.092428 1_555
C2 H1 1.095543 1_555
C2 H44 1.095543 1_555
C2 N5 1.483334 1_555
C3 H42 1.092428 1_555
C3 H38 1.095543 1_555
C3 H70 1.095543 1_555
C3 N6 1.483334 1_555
C4 H91 1.092702 1_555
C4 H4 1.095127 1_555
C4 H77 1.095127 1_555
C4 N9 1.485401 1_555
C5 H59 1.088678 1_555
C5 H13 1.093965 1_555
C5 H81 1.093965 1_555
C5 N10 1.481614 1_555
C6 H14 1.092702 1_555
C6 H23 1.095127 1_555
C6 H3 1.095127 1_555
C6 N8 1.485401 1_555
C7 H80 1.088678 1_555
C7 H57 1.093965 1_555
C7 H94 1.093965 1_555
C7 N1 1.481614 1_555
C8 H39 1.088678 1_555
C8 H48 1.093965 1_555
C8 H28 1.093965 1_555
C8 N0 1.481614 1_555
C9 H76 1.092428 1_555
C9 H43 1.095543 1_555
C9 H65 1.095543 1_555
C9 N11 1.483334 1_555
C10 H68 1.092428 1_555
C10 H58 1.095543 1_555
C10 H32 1.095543 1_555
C10 N2 1.483334 1_555
C11 H60 1.088678 1_555
C11 H24 1.093965 1_555
C11 H87 1.093965 1_555
C11 N4 1.481614 1_555
Cl0 La2 2.938005 1_555
Cl0 La1 3.095691 1_655
Cl1 La1 2.938005 1_555
Cl1 La2 3.095691 1_555
Cl2 La3 2.900801 1_555
Cl4 La1 2.900801 1_555
Cl5 La1 2.900801 1_555
Cl6 La0 2.938005 1_545
Cl6 La3 3.095691 1_456
Cl7 La3 2.938005 1_565
Cl7 La0 3.095691 1_554
Cl8 La3 2.938005 1_565
Cl8 La0 3.095691 1_654
Cl11 La3 2.900801 1_555
Cl13 La0 2.938005 1_545
Cl13 La3 3.095691 1_556
Cl17 La1 2.938005 1_555
Cl17 La2 3.095691 1_455
Cl18 La0 2.900801 1_555
Cl19 La2 2.938005 1_555
Cl19 La1 3.095691 1_555
Cl20 La2 2.900801 1_555
Cl22 La2 2.900801 1_555
Cl23 La0 2.900801 1_555
