# generated using pymatgen
data_Ag9(BiO3)2
_symmetry_space_group_name_H-M   'P 1'
_cell_length_a   8.97927788
_cell_length_b   8.97927788
_cell_length_c   25.15106500
_cell_angle_alpha   90.00000000
_cell_angle_beta   90.00000000
_cell_angle_gamma   104.33890034
_symmetry_Int_Tables_number   1
_chemical_formula_structural   Ag9(BiO3)2
_chemical_formula_sum   'Ag36 Bi8 O24'
_cell_volume   1964.69330793
_cell_formula_units_Z   4
loop_
 _symmetry_equiv_pos_site_id
 _symmetry_equiv_pos_as_xyz
  1  'x, y, z'
loop_
 _atom_site_type_symbol
 _atom_site_label
 _atom_site_symmetry_multiplicity
 _atom_site_fract_x
 _atom_site_fract_y
 _atom_site_fract_z
 _atom_site_occupancy
  Ag  Ag0  1  0.73415900  0.26584100  0.15451000  1
  Ag  Ag1  1  0.52344500  0.47655500  0.15180200  1
  Ag  Ag2  1  0.37310900  0.37310900  0.50000000  1
  Ag  Ag3  1  0.00000000  0.50000000  0.50000000  1
  Ag  Ag4  1  0.62570800  0.12112600  0.25000000  1
  Ag  Ag5  1  0.63068700  0.87041000  0.34211800  1
  Ag  Ag6  1  0.26584100  0.73415900  0.84549000  1
  Ag  Ag7  1  0.12959000  0.36931300  0.34211800  1
  Ag  Ag8  1  0.52344500  0.47655500  0.34819800  1
  Ag  Ag9  1  0.87041000  0.63068700  0.65788200  1
  Ag  Ag10  1  0.12959000  0.36931300  0.15788200  1
  Ag  Ag11  1  0.62689100  0.62689100  0.50000000  1
  Ag  Ag12  1  0.63499400  0.61506200  0.25000000  1
  Ag  Ag13  1  0.63828300  0.36171700  0.44627000  1
  Ag  Ag14  1  0.47655500  0.52344500  0.65180200  1
  Ag  Ag15  1  0.36171700  0.63828300  0.94627000  1
  Ag  Ag16  1  0.36931300  0.12959000  0.84211800  1
  Ag  Ag17  1  0.73415900  0.26584100  0.34549000  1
  Ag  Ag18  1  0.12112600  0.62570800  0.75000000  1
  Ag  Ag19  1  0.36931300  0.12959000  0.65788200  1
  Ag  Ag20  1  0.36171700  0.63828300  0.55373000  1
  Ag  Ag21  1  0.47655500  0.52344500  0.84819800  1
  Ag  Ag22  1  0.62689100  0.62689100  0.00000000  1
  Ag  Ag23  1  0.36500600  0.38493800  0.75000000  1
  Ag  Ag24  1  0.50000000  0.00000000  0.00000000  1
  Ag  Ag25  1  0.87887400  0.37429200  0.25000000  1
  Ag  Ag26  1  0.63828300  0.36171700  0.05373000  1
  Ag  Ag27  1  0.87041000  0.63068700  0.84211800  1
  Ag  Ag28  1  0.37429200  0.87887400  0.75000000  1
  Ag  Ag29  1  0.61506200  0.63499400  0.75000000  1
  Ag  Ag30  1  0.26584100  0.73415900  0.65451000  1
  Ag  Ag31  1  0.63068700  0.87041000  0.15788200  1
  Ag  Ag32  1  0.38493800  0.36500600  0.25000000  1
  Ag  Ag33  1  0.37310900  0.37310900  0.00000000  1
  Ag  Ag34  1  0.00000000  0.50000000  0.00000000  1
  Ag  Ag35  1  0.50000000  0.00000000  0.50000000  1
  Bi  Bi0  1  0.32156200  0.05965700  0.12057300  1
  Bi  Bi1  1  0.05965700  0.32156200  0.62057300  1
  Bi  Bi2  1  0.94034300  0.67843800  0.12057300  1
  Bi  Bi3  1  0.67843800  0.94034300  0.87942700  1
  Bi  Bi4  1  0.67843800  0.94034300  0.62057300  1
  Bi  Bi5  1  0.05965700  0.32156200  0.87942700  1
  Bi  Bi6  1  0.32156200  0.05965700  0.37942700  1
  Bi  Bi7  1  0.94034300  0.67843800  0.37942700  1
  O  O0  1  0.46761900  0.93983400  0.65742100  1
  O  O1  1  0.57841700  0.84603900  0.95153800  1
  O  O2  1  0.06016600  0.53238100  0.84257900  1
  O  O3  1  0.84603900  0.57841700  0.04846200  1
  O  O4  1  0.57841700  0.84603900  0.54846200  1
  O  O5  1  0.68060200  0.72811200  0.84417800  1
  O  O6  1  0.84603900  0.57841700  0.45153800  1
  O  O7  1  0.42158300  0.15396100  0.04846200  1
  O  O8  1  0.31939800  0.27188800  0.34417800  1
  O  O9  1  0.93983400  0.46761900  0.34257900  1
  O  O10  1  0.31939800  0.27188800  0.15582200  1
  O  O11  1  0.27188800  0.31939800  0.65582200  1
  O  O12  1  0.53238100  0.06016600  0.34257900  1
  O  O13  1  0.27188800  0.31939800  0.84417800  1
  O  O14  1  0.72811200  0.68060200  0.15582200  1
  O  O15  1  0.72811200  0.68060200  0.34417800  1
  O  O16  1  0.42158300  0.15396100  0.45153800  1
  O  O17  1  0.68060200  0.72811200  0.65582200  1
  O  O18  1  0.53238100  0.06016600  0.15742100  1
  O  O19  1  0.15396100  0.42158300  0.54846200  1
  O  O20  1  0.15396100  0.42158300  0.95153800  1
  O  O21  1  0.06016600  0.53238100  0.65742100  1
  O  O22  1  0.93983400  0.46761900  0.15742100  1
  O  O23  1  0.46761900  0.93983400  0.84257900  1
loop_
_geom_bond_atom_site_label_1
_geom_bond_atom_site_label_2
_geom_bond_distance
_geom_bond_site_symmetry_2
Ag0 O22 2.245308 1_555
Ag0 O18 2.245308 1_555
Ag1 O14 2.253162 1_555
Ag1 O10 2.253162 1_555
Ag2 O19 2.443673 1_555
Ag2 O16 2.443673 1_555
Ag3 O6 2.091599 1_455
Ag3 O19 2.091599 1_555
Ag4 O18 2.489258 1_555
Ag4 O12 2.489258 1_555
Ag5 O15 2.100294 1_555
Ag5 O12 2.104156 1_565
Ag6 O23 2.245308 1_555
Ag6 O2 2.245308 1_555
Ag7 O8 2.100294 1_555
Ag7 O9 2.104156 1_455
Ag8 O15 2.253162 1_555
Ag8 O8 2.253162 1_555
Ag9 O17 2.100294 1_555
Ag9 O21 2.104156 1_655
Ag10 O10 2.100294 1_555
Ag10 O22 2.104156 1_455
Ag11 O6 2.443673 1_555
Ag11 O4 2.443673 1_555
Ag12 O15 2.532263 1_555
Ag12 O14 2.532263 1_555
Ag13 O6 2.342194 1_555
Ag13 O16 2.342194 1_555
Ag14 O17 2.253162 1_555
Ag14 O11 2.253162 1_555
Ag15 O1 2.342194 1_555
Ag15 O20 2.342194 1_555
Ag16 O13 2.100294 1_555
Ag16 O23 2.104156 1_545
Ag17 O9 2.245308 1_555
Ag17 O12 2.245308 1_555
Ag18 O21 2.489258 1_555
Ag18 O2 2.489258 1_555
Ag19 O11 2.100294 1_555
Ag19 O0 2.104156 1_545
Ag20 O4 2.342194 1_555
Ag20 O19 2.342194 1_555
Ag21 O5 2.253162 1_555
Ag21 O13 2.253162 1_555
Ag22 O3 2.443673 1_555
Ag22 O1 2.443673 1_554
Ag23 O13 2.532263 1_555
Ag23 O11 2.532263 1_555
Ag24 O7 2.091599 1_555
Ag24 O1 2.091599 1_544
Ag25 O22 2.489258 1_555
Ag25 O9 2.489258 1_555
Ag26 O3 2.342194 1_555
Ag26 O7 2.342194 1_555
Ag27 O5 2.100294 1_555
Ag27 O2 2.104156 1_655
Ag28 O0 2.489258 1_555
Ag28 O23 2.489258 1_555
Ag29 O17 2.532263 1_555
Ag29 O5 2.532263 1_555
Ag30 O0 2.245308 1_555
Ag30 O21 2.245308 1_555
Ag31 O14 2.100294 1_555
Ag31 O18 2.104156 1_565
Ag32 O8 2.532263 1_555
Ag32 O10 2.532263 1_555
Ag33 O20 2.443673 1_554
Ag33 O7 2.443673 1_555
Ag34 O3 2.091599 1_455
Ag34 O20 2.091599 1_554
Ag35 O4 2.091599 1_545
Ag35 O16 2.091599 1_555
Bi0 O10 2.106255 1_555
Bi0 O7 2.106266 1_555
Bi0 O18 2.106677 1_555
Bi1 O11 2.106255 1_555
Bi1 O19 2.106266 1_555
Bi1 O21 2.106677 1_555
Bi2 O14 2.106255 1_555
Bi2 O3 2.106266 1_555
Bi2 O22 2.106677 1_555
Bi3 O5 2.106255 1_555
Bi3 O1 2.106266 1_555
Bi3 O23 2.106677 1_555
Bi4 O17 2.106255 1_555
Bi4 O4 2.106266 1_555
Bi4 O0 2.106677 1_555
Bi5 O13 2.106255 1_555
Bi5 O20 2.106266 1_555
Bi5 O2 2.106677 1_555
Bi6 O8 2.106255 1_555
Bi6 O16 2.106266 1_555
Bi6 O12 2.106677 1_555
Bi7 O15 2.106255 1_555
Bi7 O6 2.106266 1_555
Bi7 O9 2.106677 1_555
