# generated using pymatgen
data_KPb2Cl5
_symmetry_space_group_name_H-M   'P 1'
_cell_length_a   7.98938157
_cell_length_b   8.87203494
_cell_length_c   12.56416424
_cell_angle_alpha   89.85923549
_cell_angle_beta   90.00000000
_cell_angle_gamma   90.00000000
_symmetry_Int_Tables_number   1
_chemical_formula_structural   KPb2Cl5
_chemical_formula_sum   'K4 Pb8 Cl20'
_cell_volume   890.57131255
_cell_formula_units_Z   4
loop_
 _symmetry_equiv_pos_site_id
 _symmetry_equiv_pos_as_xyz
  1  'x, y, z'
loop_
 _atom_site_type_symbol
 _atom_site_label
 _atom_site_symmetry_multiplicity
 _atom_site_fract_x
 _atom_site_fract_y
 _atom_site_fract_z
 _atom_site_occupancy
  K  K0  1  0.45124191  0.50953218  0.67102781  1
  K  K1  1  0.95124191  0.49046782  0.82897219  1
  K  K2  1  0.54875809  0.49046782  0.32897219  1
  K  K3  1  0.04875809  0.50953218  0.17102781  1
  Pb  Pb0  1  0.49842060  0.00953745  0.67472907  1
  Pb  Pb1  1  0.99842060  0.99046255  0.82527093  1
  Pb  Pb2  1  0.50157940  0.99046255  0.32527093  1
  Pb  Pb3  1  0.00157940  0.00953745  0.17472907  1
  Pb  Pb4  1  0.06659527  0.25541526  0.49415446  1
  Pb  Pb5  1  0.56659527  0.74458474  0.00584554  1
  Pb  Pb6  1  0.93340473  0.74458474  0.50584554  1
  Pb  Pb7  1  0.43340473  0.25541526  0.99415446  1
  Cl  Cl0  1  0.33547926  0.95767107  0.89992431  1
  Cl  Cl1  1  0.83547926  0.04232893  0.60007569  1
  Cl  Cl2  1  0.66452074  0.04232893  0.10007569  1
  Cl  Cl3  1  0.16452074  0.95767107  0.39992431  1
  Cl  Cl4  1  0.45963998  0.22137716  0.49786186  1
  Cl  Cl5  1  0.95963998  0.77862284  0.00213814  1
  Cl  Cl6  1  0.54036002  0.77862284  0.50213814  1
  Cl  Cl7  1  0.04036002  0.22137716  0.99786186  1
  Cl  Cl8  1  0.32134247  0.54121108  0.91877183  1
  Cl  Cl9  1  0.82134247  0.45878892  0.58122817  1
  Cl  Cl10  1  0.67865753  0.45878892  0.08122817  1
  Cl  Cl11  1  0.17865753  0.54121108  0.41877183  1
  Cl  Cl12  1  0.18890776  0.23600749  0.71962677  1
  Cl  Cl13  1  0.68890776  0.76399251  0.78037323  1
  Cl  Cl14  1  0.81109224  0.76399251  0.28037323  1
  Cl  Cl15  1  0.31109224  0.23600749  0.21962677  1
  Cl  Cl16  1  0.15323837  0.76743551  0.68876676  1
  Cl  Cl17  1  0.65323837  0.23256449  0.81123324  1
  Cl  Cl18  1  0.84676163  0.23256449  0.31123324  1
  Cl  Cl19  1  0.34676163  0.76743551  0.18876676  1
loop_
_geom_bond_atom_site_label_1
_geom_bond_atom_site_label_2
_geom_bond_distance
_geom_bond_site_symmetry_2
Cl0 Pb1 2.866133 1_455
Cl0 Pb5 2.956719 1_556
Cl0 Pb7 3.001194 1_565
Cl0 Pb0 3.147298 1_565
Cl1 Pb0 2.866133 1_555
Cl1 Pb4 2.956719 1_655
Cl1 Pb6 3.001194 1_545
Cl1 Pb1 3.147298 1_545
Cl2 Pb3 2.866133 1_655
Cl2 Pb7 2.956719 1_554
Cl2 Pb5 3.001194 1_545
Cl2 Pb2 3.147298 1_545
Cl3 Pb2 2.866133 1_555
Cl3 Pb6 2.956719 1_455
Cl3 Pb4 3.001194 1_565
Cl3 Pb3 3.147298 1_565
Cl4 Pb0 2.923342 1_555
Cl4 Pb2 3.005565 1_545
Cl4 Pb4 3.155005 1_555
Cl4 K2 3.268692 1_555
Cl4 K0 3.361732 1_555
Cl5 Pb1 2.923342 1_554
Cl5 Pb3 3.005565 1_665
Cl5 Pb5 3.155005 1_555
Cl5 K3 3.268692 1_655
Cl5 K1 3.361732 1_554
Cl6 Pb2 2.923342 1_555
Cl6 Pb0 3.005565 1_565
Cl6 Pb6 3.155005 1_555
Cl6 K0 3.268692 1_555
Cl6 K2 3.361732 1_555
Cl7 Pb3 2.923342 1_556
Cl7 Pb1 3.005565 1_445
Cl7 Pb7 3.155005 1_555
Cl7 K1 3.268692 1_455
Cl7 K3 3.361732 1_556
Cl8 Pb7 2.848865 1_555
Cl8 Pb5 2.881234 1_556
Cl8 K1 3.197068 1_455
Cl8 K0 3.293817 1_555
Cl9 Pb6 2.848865 1_555
Cl9 Pb4 2.881234 1_655
Cl9 K0 3.197068 1_555
Cl9 K1 3.293817 1_555
Cl10 Pb5 2.848865 1_555
Cl10 Pb7 2.881234 1_554
Cl10 K3 3.197068 1_655
Cl10 K2 3.293817 1_555
Cl11 Pb4 2.848865 1_555
Cl11 Pb6 2.881234 1_455
Cl11 K2 3.197068 1_555
Cl11 K3 3.293817 1_555
Cl12 Pb1 2.968079 1_445
Cl12 Pb4 3.001222 1_555
Cl12 Pb0 3.236616 1_555
Cl12 K1 3.256499 1_455
Cl12 K0 3.263016 1_555
Cl13 Pb0 2.968079 1_565
Cl13 Pb5 3.001222 1_556
Cl13 Pb1 3.236616 1_555
Cl13 K0 3.256499 1_555
Cl13 K1 3.263016 1_555
Cl14 Pb3 2.968079 1_665
Cl14 Pb6 3.001222 1_555
Cl14 Pb2 3.236616 1_555
Cl14 K3 3.256499 1_655
Cl14 K2 3.263016 1_555
Cl15 Pb2 2.968079 1_545
Cl15 Pb7 3.001222 1_554
Cl15 Pb3 3.236616 1_555
Cl15 K2 3.256499 1_555
Cl15 K3 3.263016 1_555
Cl16 Pb1 2.898844 1_455
Cl16 Pb6 2.900011 1_455
Cl16 K0 3.310018 1_555
Cl16 K1 3.424097 1_455
Cl17 Pb0 2.898844 1_555
Cl17 Pb7 2.900011 1_555
Cl17 K1 3.310018 1_555
Cl17 K0 3.424097 1_555
Cl18 Pb3 2.898844 1_655
Cl18 Pb4 2.900011 1_655
Cl18 K2 3.310018 1_555
Cl18 K3 3.424097 1_655
Cl19 Pb2 2.898844 1_555
Cl19 Pb5 2.900011 1_555
Cl19 K3 3.310018 1_555
Cl19 K2 3.424097 1_555
