# generated using pymatgen
data_SrTiFe(PO4)3
_symmetry_space_group_name_H-M   'P 1'
_cell_length_a   9.08380195
_cell_length_b   9.08380195
_cell_length_c   9.08380225
_cell_angle_alpha   56.48482721
_cell_angle_beta   56.48482721
_cell_angle_gamma   56.48483330
_symmetry_Int_Tables_number   1
_chemical_formula_structural   SrTiFe(PO4)3
_chemical_formula_sum   'Sr2 Ti2 Fe2 P6 O24'
_cell_volume   486.94898664
_cell_formula_units_Z   2
loop_
 _symmetry_equiv_pos_site_id
 _symmetry_equiv_pos_as_xyz
  1  'x, y, z'
loop_
 _atom_site_type_symbol
 _atom_site_label
 _atom_site_symmetry_multiplicity
 _atom_site_fract_x
 _atom_site_fract_y
 _atom_site_fract_z
 _atom_site_occupancy
  Sr  Sr0  1  0.99834800  0.99834800  0.99834800  1
  Sr  Sr1  1  0.49834800  0.49834800  0.49834800  1
  Ti  Ti0  1  0.14931300  0.14931300  0.14931300  1
  Ti  Ti1  1  0.64931300  0.64931300  0.64931300  1
  Fe  Fe0  1  0.35034000  0.35034000  0.35034000  1
  Fe  Fe1  1  0.85034000  0.85034000  0.85034000  1
  P  P0  1  0.74895900  0.03781400  0.46500500  1
  P  P1  1  0.03781400  0.46500500  0.74895900  1
  P  P2  1  0.46500500  0.74895900  0.03781400  1
  P  P3  1  0.53781400  0.24895900  0.96500500  1
  P  P4  1  0.96500500  0.53781400  0.24895900  1
  P  P5  1  0.24895900  0.96500500  0.53781400  1
  O  O0  1  0.26790700  0.13358900  0.51467500  1
  O  O1  1  0.51467500  0.26790700  0.13358900  1
  O  O2  1  0.92806400  0.06131800  0.28338600  1
  O  O3  1  0.13358900  0.51467500  0.26790700  1
  O  O4  1  0.57558900  0.21707000  0.43409800  1
  O  O5  1  0.76790700  0.01467500  0.63358900  1
  O  O6  1  0.06131800  0.28338600  0.92806400  1
  O  O7  1  0.21707000  0.43409800  0.57558900  1
  O  O8  1  0.43409800  0.57558900  0.21707000  1
  O  O9  1  0.36300700  0.22898300  0.99253300  1
  O  O10  1  0.71707000  0.07558900  0.93409800  1
  O  O11  1  0.99253300  0.36300700  0.22898300  1
  O  O12  1  0.01467500  0.63358900  0.76790700  1
  O  O13  1  0.28338600  0.92806400  0.06131800  1
  O  O14  1  0.63358900  0.76790700  0.01467500  1
  O  O15  1  0.56131800  0.42806400  0.78338600  1
  O  O16  1  0.78338600  0.56131800  0.42806400  1
  O  O17  1  0.93409800  0.71707000  0.07558900  1
  O  O18  1  0.22898300  0.99253300  0.36300700  1
  O  O19  1  0.42806400  0.78338600  0.56131800  1
  O  O20  1  0.86300700  0.49253300  0.72898300  1
  O  O21  1  0.07558900  0.93409800  0.71707000  1
  O  O22  1  0.49253300  0.72898300  0.86300700  1
  O  O23  1  0.72898300  0.86300700  0.49253300  1
loop_
_geom_bond_atom_site_label_1
_geom_bond_atom_site_label_2
_geom_bond_distance
_geom_bond_site_symmetry_2
Fe0 O0 1.952875 1_555
Fe0 O1 1.952875 1_555
Fe0 O3 1.952875 1_555
Fe0 O8 2.048808 1_555
Fe0 O7 2.048808 1_555
Fe0 O4 2.048808 1_555
Fe1 O14 1.952875 1_556
Fe1 O5 1.952875 1_565
Fe1 O12 1.952875 1_655
Fe1 O21 2.048808 1_655
Fe1 O17 2.048808 1_556
Fe1 O10 2.048808 1_565
O0 P5 1.521383 1_545
O1 P3 1.521383 1_554
O2 P0 1.563605 1_555
O2 Ti0 2.038968 1_655
O2 Sr0 2.616419 1_544
O3 P4 1.521383 1_455
O4 P0 1.536874 1_555
O4 Sr1 2.564399 1_555
O5 P0 1.521383 1_555
O6 P1 1.563605 1_555
O6 Ti0 2.038968 1_556
O6 Sr0 2.616419 1_445
O7 P1 1.536874 1_555
O7 Sr1 2.564399 1_555
O8 P2 1.536874 1_555
O8 Sr1 2.564399 1_555
O9 P3 1.564135 1_555
O9 Ti0 1.918423 1_556
O10 P3 1.536874 1_555
O10 Sr0 2.564399 1_545
O11 P4 1.564135 1_555
O11 Ti0 1.918423 1_655
O12 P1 1.521383 1_555
O13 P2 1.563605 1_555
O13 Ti0 2.038968 1_565
O13 Sr0 2.616419 1_454
O14 P2 1.521383 1_555
O15 P3 1.563605 1_555
O15 Ti1 2.038968 1_555
O15 Sr1 2.616419 1_555
O16 P4 1.563605 1_555
O16 Ti1 2.038968 1_555
O16 Sr1 2.616419 1_555
O17 P4 1.536874 1_555
O17 Sr0 2.564399 1_554
O18 P5 1.564135 1_555
O18 Ti0 1.918423 1_565
O19 P5 1.563605 1_555
O19 Ti1 2.038968 1_555
O19 Sr1 2.616419 1_555
O20 P1 1.564135 1_655
O20 Ti1 1.918423 1_555
O21 P5 1.536874 1_555
O21 Sr0 2.564399 1_455
O22 P2 1.564135 1_556
O22 Ti1 1.918423 1_555
O23 P0 1.564135 1_565
O23 Ti1 1.918423 1_555
