# generated using pymatgen
data_Ba5Si3
_symmetry_space_group_name_H-M   'P 1'
_cell_length_a   8.54285382
_cell_length_b   8.54285382
_cell_length_c   16.64057964
_cell_angle_alpha   90.00000000
_cell_angle_beta   90.00000000
_cell_angle_gamma   90.00000000
_symmetry_Int_Tables_number   1
_chemical_formula_structural   Ba5Si3
_chemical_formula_sum   'Ba20 Si12'
_cell_volume   1214.43534946
_cell_formula_units_Z   4
loop_
 _symmetry_equiv_pos_site_id
 _symmetry_equiv_pos_as_xyz
  1  'x, y, z'
loop_
 _atom_site_type_symbol
 _atom_site_label
 _atom_site_symmetry_multiplicity
 _atom_site_fract_x
 _atom_site_fract_y
 _atom_site_fract_z
 _atom_site_occupancy
  Ba  Ba0  1  0.05269508  0.91932608  0.10951472  1
  Ba  Ba1  1  0.91932608  0.44730492  0.10951472  1
  Ba  Ba2  1  0.25000000  0.25000000  0.71930092  1
  Ba  Ba3  1  0.08067392  0.94730492  0.39048528  1
  Ba  Ba4  1  0.41932608  0.94730492  0.89048528  1
  Ba  Ba5  1  0.94730492  0.41932608  0.39048528  1
  Ba  Ba6  1  0.41932608  0.55269508  0.39048528  1
  Ba  Ba7  1  0.91932608  0.05269508  0.60951472  1
  Ba  Ba8  1  0.08067392  0.55269508  0.89048528  1
  Ba  Ba9  1  0.94730492  0.08067392  0.89048528  1
  Ba  Ba10  1  0.25000000  0.25000000  0.21930092  1
  Ba  Ba11  1  0.58067392  0.44730492  0.60951472  1
  Ba  Ba12  1  0.05269508  0.58067392  0.60951472  1
  Ba  Ba13  1  0.55269508  0.08067392  0.39048528  1
  Ba  Ba14  1  0.55269508  0.41932608  0.89048528  1
  Ba  Ba15  1  0.58067392  0.05269508  0.10951472  1
  Ba  Ba16  1  0.75000000  0.75000000  0.28069908  1
  Ba  Ba17  1  0.75000000  0.75000000  0.78069908  1
  Ba  Ba18  1  0.44730492  0.58067392  0.10951472  1
  Ba  Ba19  1  0.44730492  0.91932608  0.60951472  1
  Si  Si0  1  0.85126626  0.35126626  0.75000000  1
  Si  Si1  1  0.14873374  0.85126626  0.75000000  1
  Si  Si2  1  0.75000000  0.75000000  0.98967659  1
  Si  Si3  1  0.35126626  0.85126626  0.25000000  1
  Si  Si4  1  0.25000000  0.25000000  0.01032341  1
  Si  Si5  1  0.85126626  0.14873374  0.25000000  1
  Si  Si6  1  0.35126626  0.64873374  0.75000000  1
  Si  Si7  1  0.64873374  0.14873374  0.75000000  1
  Si  Si8  1  0.14873374  0.64873374  0.25000000  1
  Si  Si9  1  0.64873374  0.35126626  0.25000000  1
  Si  Si10  1  0.25000000  0.25000000  0.51032341  1
  Si  Si11  1  0.75000000  0.75000000  0.48967659  1
loop_
_geom_bond_atom_site_label_1
_geom_bond_atom_site_label_2
_geom_bond_distance
_geom_bond_site_symmetry_2
Ba0 Si8 3.388491 1_555
Ba0 Si5 3.502425 1_465
Ba0 Si3 3.508415 1_555
Ba0 Si2 3.571548 1_454
Ba0 Si4 3.680436 1_565
Ba1 Si9 3.388491 1_555
Ba1 Si8 3.502425 1_655
Ba1 Si5 3.508415 1_555
Ba1 Si2 3.571548 1_554
Ba1 Si4 3.680436 1_655
Ba2 Si10 3.477507 1_555
Ba2 Si1 3.551396 1_545
Ba2 Si0 3.551396 1_455
Ba2 Si6 3.551396 1_555
Ba2 Si7 3.551396 1_555
Ba3 Si3 3.388491 1_555
Ba3 Si5 3.502425 1_465
Ba3 Si8 3.508415 1_555
Ba3 Si10 3.571548 1_565
Ba3 Si11 3.680436 1_455
Ba4 Si1 3.388491 1_555
Ba4 Si7 3.502425 1_565
Ba4 Si6 3.508415 1_555
Ba4 Si4 3.571548 1_566
Ba4 Si2 3.680436 1_555
Ba5 Si5 3.388491 1_555
Ba5 Si8 3.502425 1_655
Ba5 Si9 3.508415 1_555
Ba5 Si10 3.571548 1_655
Ba5 Si11 3.680436 1_555
Ba6 Si8 3.388491 1_555
Ba6 Si9 3.502425 1_555
Ba6 Si3 3.508415 1_555
Ba6 Si10 3.571548 1_555
Ba6 Si11 3.680436 1_555
Ba7 Si7 3.388491 1_555
Ba7 Si1 3.502425 1_645
Ba7 Si0 3.508415 1_555
Ba7 Si11 3.571548 1_545
Ba7 Si10 3.680436 1_655
Ba8 Si6 3.388491 1_555
Ba8 Si0 3.502425 1_455
Ba8 Si1 3.508415 1_555
Ba8 Si4 3.571548 1_556
Ba8 Si2 3.680436 1_455
Ba9 Si0 3.388491 1_555
Ba9 Si1 3.502425 1_645
Ba9 Si7 3.508415 1_555
Ba9 Si4 3.571548 1_656
Ba9 Si2 3.680436 1_545
Ba10 Si4 3.477507 1_555
Ba10 Si8 3.551396 1_555
Ba10 Si5 3.551396 1_455
Ba10 Si3 3.551396 1_545
Ba10 Si9 3.551396 1_555
Ba11 Si0 3.388491 1_555
Ba11 Si6 3.502425 1_555
Ba11 Si7 3.508415 1_555
Ba11 Si11 3.571548 1_555
Ba11 Si10 3.680436 1_555
Ba12 Si1 3.388491 1_555
Ba12 Si0 3.502425 1_455
Ba12 Si6 3.508415 1_555
Ba12 Si11 3.571548 1_455
Ba12 Si10 3.680436 1_555
Ba13 Si9 3.388491 1_555
Ba13 Si3 3.502425 1_545
Ba13 Si5 3.508415 1_555
Ba13 Si10 3.571548 1_555
Ba13 Si11 3.680436 1_545
Ba14 Si7 3.388491 1_555
Ba14 Si6 3.502425 1_555
Ba14 Si0 3.508415 1_555
Ba14 Si4 3.571548 1_556
Ba14 Si2 3.680436 1_555
Ba15 Si5 3.388491 1_555
Ba15 Si3 3.502425 1_545
Ba15 Si9 3.508415 1_555
Ba15 Si2 3.571548 1_544
Ba15 Si4 3.680436 1_555
Ba16 Si11 3.477507 1_555
Ba16 Si5 3.551396 1_565
Ba16 Si8 3.551396 1_655
Ba16 Si9 3.551396 1_555
Ba16 Si3 3.551396 1_555
Ba17 Si2 3.477507 1_555
Ba17 Si1 3.551396 1_655
Ba17 Si7 3.551396 1_565
Ba17 Si0 3.551396 1_555
Ba17 Si6 3.551396 1_555
Ba18 Si3 3.388491 1_555
Ba18 Si9 3.502425 1_555
Ba18 Si8 3.508415 1_555
Ba18 Si2 3.571548 1_554
Ba18 Si4 3.680436 1_555
Ba19 Si6 3.388491 1_555
Ba19 Si7 3.502425 1_565
Ba19 Si1 3.508415 1_555
Ba19 Si11 3.571548 1_555
Ba19 Si10 3.680436 1_565
Si0 Si7 2.446880 1_555
Si1 Si6 2.446880 1_555
Si3 Si8 2.446880 1_555
Si5 Si9 2.446880 1_555
