# generated using pymatgen
data_CsScAsO4F
_symmetry_space_group_name_H-M   'P 1'
_cell_length_a   10.35439000
_cell_length_b   10.50696000
_cell_length_c   10.74090000
_cell_angle_alpha   90.00000000
_cell_angle_beta   90.00000000
_cell_angle_gamma   90.00000000
_symmetry_Int_Tables_number   1
_chemical_formula_structural   CsScAsO4F
_chemical_formula_sum   'Cs8 Sc8 As8 O32 F8'
_cell_volume   1168.53646894
_cell_formula_units_Z   8
loop_
 _symmetry_equiv_pos_site_id
 _symmetry_equiv_pos_as_xyz
  1  'x, y, z'
loop_
 _atom_site_type_symbol
 _atom_site_label
 _atom_site_symmetry_multiplicity
 _atom_site_fract_x
 _atom_site_fract_y
 _atom_site_fract_z
 _atom_site_occupancy
  Cs  Cs0  1  0.08395500  0.56446600  0.11964000  1
  Cs  Cs1  1  0.24788800  0.88943500  0.65939800  1
  Cs  Cs2  1  0.25211200  0.88943500  0.15939800  1
  Cs  Cs3  1  0.41604500  0.56446600  0.61964000  1
  Cs  Cs4  1  0.58395500  0.06446600  0.38036000  1
  Cs  Cs5  1  0.74788800  0.38943500  0.84060200  1
  Cs  Cs6  1  0.75211200  0.38943500  0.34060200  1
  Cs  Cs7  1  0.91604500  0.06446600  0.88036000  1
  Sc  Sc0  1  0.07215000  0.20053400  0.18492600  1
  Sc  Sc1  1  0.23342200  0.25562000  0.93685300  1
  Sc  Sc2  1  0.26657800  0.25562000  0.43685300  1
  Sc  Sc3  1  0.42785000  0.20053400  0.68492600  1
  Sc  Sc4  1  0.57215000  0.70053400  0.31507400  1
  Sc  Sc5  1  0.73342200  0.75562000  0.56314700  1
  Sc  Sc6  1  0.76657800  0.75562000  0.06314700  1
  Sc  Sc7  1  0.92785000  0.70053400  0.81507400  1
  As  As0  1  0.96994900  0.77745500  0.38171000  1
  As  As1  1  0.55551000  0.04834400  0.94094600  1
  As  As2  1  0.94449000  0.04834400  0.44094600  1
  As  As3  1  0.53005100  0.77745500  0.88171000  1
  As  As4  1  0.46994900  0.27745500  0.11829000  1
  As  As5  1  0.05551000  0.54834400  0.55905400  1
  As  As6  1  0.44449000  0.54834400  0.05905400  1
  As  As7  1  0.03005100  0.27745500  0.61829000  1
  O  O0  1  0.93874500  0.41921800  0.55036600  1
  O  O1  1  0.06984200  0.16938400  0.48900900  1
  O  O2  1  0.56292600  0.09229300  0.78639600  1
  O  O3  1  0.16441900  0.60196300  0.45639900  1
  O  O4  1  0.55462400  0.84300300  0.55169600  1
  O  O5  1  0.52513200  0.30804800  0.55833700  1
  O  O6  1  0.33843200  0.12706900  0.54442300  1
  O  O7  1  0.17208600  0.37021000  0.58696100  1
  O  O8  1  0.32791400  0.37021000  0.08696100  1
  O  O9  1  0.16156800  0.12706900  0.04442300  1
  O  O10  1  0.97486800  0.30804800  0.05833700  1
  O  O11  1  0.94537600  0.84300300  0.05169600  1
  O  O12  1  0.33558100  0.60196300  0.95639900  1
  O  O13  1  0.93707400  0.09229300  0.28639600  1
  O  O14  1  0.43015800  0.16938400  0.98900900  1
  O  O15  1  0.56125500  0.41921800  0.05036600  1
  O  O16  1  0.43874500  0.91921800  0.94963400  1
  O  O17  1  0.56984200  0.66938400  0.01099100  1
  O  O18  1  0.06292600  0.59229300  0.71360400  1
  O  O19  1  0.66441900  0.10196300  0.04360100  1
  O  O20  1  0.05462400  0.34300300  0.94830400  1
  O  O21  1  0.02513200  0.80804800  0.94166300  1
  O  O22  1  0.83843200  0.62706900  0.95557700  1
  O  O23  1  0.67208600  0.87021000  0.91303900  1
  O  O24  1  0.82791400  0.87021000  0.41303900  1
  O  O25  1  0.66156800  0.62706900  0.45557700  1
  O  O26  1  0.47486800  0.80804800  0.44166300  1
  O  O27  1  0.44537600  0.34300300  0.44830400  1
  O  O28  1  0.83558100  0.10196300  0.54360100  1
  O  O29  1  0.43707400  0.59229300  0.21360400  1
  O  O30  1  0.93015800  0.66938400  0.51099100  1
  O  O31  1  0.06125500  0.91921800  0.44963400  1
  F  F0  1  0.12026400  0.34666700  0.30212000  1
  F  F1  1  0.24181800  0.14569000  0.77993700  1
  F  F2  1  0.25818200  0.14569000  0.27993700  1
  F  F3  1  0.37973600  0.34666700  0.80212000  1
  F  F4  1  0.62026400  0.84666700  0.19788000  1
  F  F5  1  0.74181800  0.64569000  0.72006300  1
  F  F6  1  0.75818200  0.64569000  0.22006300  1
  F  F7  1  0.87973600  0.84666700  0.69788000  1
loop_
_geom_bond_atom_site_label_1
_geom_bond_atom_site_label_2
_geom_bond_distance
_geom_bond_site_symmetry_2
Cs0 O20 2.982185 1_554
Cs0 O10 2.994656 1_455
Cs0 F0 3.036403 1_555
Cs0 O22 3.162426 1_454
Cs0 O12 3.165084 1_554
Cs0 O21 3.251978 1_554
Cs0 O8 3.266490 1_555
Cs1 O6 2.939062 1_565
Cs1 O31 2.984731 1_555
Cs1 F1 2.988233 1_565
Cs2 O9 2.939062 1_565
Cs2 O16 2.984731 1_554
Cs2 F2 2.988233 1_565
Cs3 O27 2.982185 1_555
Cs3 O5 2.994656 1_555
Cs3 F3 3.036403 1_555
Cs3 O25 3.162426 1_555
Cs3 O3 3.165084 1_555
Cs3 O26 3.251978 1_555
Cs3 O7 3.266490 1_555
Cs4 O4 2.982185 1_545
Cs4 O26 2.994656 1_545
Cs4 F4 3.036403 1_545
Cs4 O6 3.162426 1_555
Cs4 O28 3.165084 1_555
Cs4 O5 3.251978 1_555
Cs4 O24 3.266490 1_545
Cs5 O22 2.939062 1_555
Cs5 O15 2.984731 1_556
Cs5 F5 2.988233 1_555
Cs6 O25 2.939062 1_555
Cs6 O0 2.984731 1_555
Cs6 F6 2.988233 1_555
Cs7 O11 2.982185 1_546
Cs7 O21 2.994656 1_645
Cs7 F7 3.036403 1_545
Cs7 O9 3.162426 1_656
Cs7 O19 3.165084 1_556
Cs7 O10 3.251978 1_556
Cs7 O23 3.266490 1_545
As0 O24 1.796091 1_555
As0 O30 1.840463 1_555
As0 O31 1.909106 1_655
As1 O19 1.674756 1_556
As1 O2 1.724746 1_555
As1 O16 1.819658 1_545
As1 O14 1.889058 1_555
As1 O23 2.247206 1_545
As2 O28 1.674756 1_555
As2 O13 1.724746 1_555
As2 O31 1.819658 1_645
As2 O1 1.889058 1_655
As2 O24 2.247206 1_545
As3 O23 1.796091 1_555
As3 O17 1.840463 1_556
As3 O16 1.909106 1_555
As4 O8 1.796091 1_555
As4 O14 1.840463 1_554
As4 O15 1.909106 1_555
As5 O3 1.674756 1_555
As5 O18 1.724746 1_555
As5 O0 1.819658 1_455
As5 O30 1.889058 1_455
As5 O7 2.247206 1_555
As6 O12 1.674756 1_554
As6 O29 1.724746 1_555
As6 O15 1.819658 1_555
As6 O17 1.889058 1_555
As6 O8 2.247206 1_555
As7 O7 1.796091 1_555
As7 O1 1.840463 1_555
As7 O0 1.909106 1_455
O1 Sc2 2.298805 1_555
O2 Sc3 2.106517 1_555
O4 Sc5 2.070161 1_555
O5 Sc3 2.034569 1_555
O6 Sc2 1.926869 1_555
O6 Sc3 1.931456 1_555
O7 Sc2 2.237493 1_555
O8 Sc1 2.237493 1_554
O9 Sc1 1.926869 1_554
O9 Sc0 1.931456 1_555
O10 Sc0 2.034569 1_655
O11 Sc6 2.070161 1_555
O13 Sc0 2.106517 1_655
O14 Sc1 2.298805 1_555
O17 Sc6 2.298805 1_555
O18 Sc7 2.106517 1_455
O20 Sc1 2.070161 1_555
O21 Sc7 2.034569 1_455
O22 Sc6 1.926869 1_556
O22 Sc7 1.931456 1_555
O23 Sc6 2.237493 1_556
O24 Sc5 2.237493 1_555
O25 Sc5 1.926869 1_555
O25 Sc4 1.931456 1_555
O26 Sc4 2.034569 1_555
O27 Sc2 2.070161 1_555
O29 Sc4 2.106517 1_555
O30 Sc5 2.298805 1_555
F0 Sc0 2.046995 1_555
F0 Sc2 2.303170 1_555
F1 Sc1 2.045065 1_555
F1 Sc3 2.254754 1_555
F2 Sc2 2.045065 1_555
F2 Sc0 2.254754 1_555
F3 Sc3 2.046995 1_555
F3 Sc1 2.303170 1_555
F4 Sc4 2.046995 1_555
F4 Sc6 2.303170 1_555
F5 Sc5 2.045065 1_555
F5 Sc7 2.254754 1_555
F6 Sc6 2.045065 1_555
F6 Sc4 2.254754 1_555
F7 Sc7 2.046995 1_555
F7 Sc5 2.303170 1_555
