# generated using pymatgen
data_Cs3NaPb4
_symmetry_space_group_name_H-M   'P 1'
_cell_length_a   9.51323766
_cell_length_b   9.51323766
_cell_length_c   11.13758083
_cell_angle_alpha   90.00000000
_cell_angle_beta   90.00000000
_cell_angle_gamma   133.78853787
_symmetry_Int_Tables_number   1
_chemical_formula_structural   Cs3NaPb4
_chemical_formula_sum   'Cs6 Na2 Pb8'
_cell_volume   727.65213600
_cell_formula_units_Z   2
loop_
 _symmetry_equiv_pos_site_id
 _symmetry_equiv_pos_as_xyz
  1  'x, y, z'
loop_
 _atom_site_type_symbol
 _atom_site_label
 _atom_site_symmetry_multiplicity
 _atom_site_fract_x
 _atom_site_fract_y
 _atom_site_fract_z
 _atom_site_occupancy
  Cs  Cs0  1  0.61165252  0.38834748  0.55407921  1
  Cs  Cs1  1  0.61165252  0.38834748  0.94592079  1
  Cs  Cs2  1  0.38834748  0.61165252  0.44592079  1
  Cs  Cs3  1  0.38834748  0.61165252  0.05407921  1
  Cs  Cs4  1  0.76513859  0.23486141  0.25000000  1
  Cs  Cs5  1  0.23486141  0.76513859  0.75000000  1
  Na  Na0  1  0.00000000  -0.00000000  0.50000000  1
  Na  Na1  1  0.00000000  -0.00000000  0.00000000  1
  Pb  Pb0  1  0.26299432  0.16848442  0.25000000  1
  Pb  Pb1  1  0.82815125  0.17184875  0.88693098  1
  Pb  Pb2  1  0.82815125  0.17184875  0.61306902  1
  Pb  Pb3  1  0.16848442  0.26299432  0.75000000  1
  Pb  Pb4  1  0.73700568  0.83151558  0.75000000  1
  Pb  Pb5  1  0.17184875  0.82815125  0.38693098  1
  Pb  Pb6  1  0.83151558  0.73700568  0.25000000  1
  Pb  Pb7  1  0.17184875  0.82815125  0.11306902  1
loop_
_geom_bond_atom_site_label_1
_geom_bond_atom_site_label_2
_geom_bond_distance
_geom_bond_site_symmetry_2
Cs0 Pb2 3.845317 1_555
Cs0 Pb3 4.123075 1_555
Cs0 Pb4 4.123075 1_555
Cs0 Pb6 4.152664 1_555
Cs0 Pb0 4.152664 1_555
Cs0 Pb5 4.302641 1_545
Cs0 Pb5 4.302641 1_655
Cs1 Pb1 3.845317 1_555
Cs1 Pb3 4.123075 1_555
Cs1 Pb4 4.123075 1_555
Cs1 Pb6 4.152664 1_556
Cs1 Pb0 4.152664 1_556
Cs1 Pb7 4.302641 1_656
Cs1 Pb7 4.302641 1_546
Cs2 Pb5 3.845317 1_555
Cs2 Pb6 4.123075 1_555
Cs2 Pb0 4.123075 1_555
Cs2 Pb4 4.152664 1_555
Cs2 Pb3 4.152664 1_555
Cs2 Pb2 4.302641 1_455
Cs2 Pb2 4.302641 1_565
Cs3 Pb7 3.845317 1_555
Cs3 Pb6 4.123075 1_555
Cs3 Pb0 4.123075 1_555
Cs3 Pb4 4.152664 1_554
Cs3 Pb3 4.152664 1_554
Cs3 Pb1 4.302641 1_454
Cs3 Pb1 4.302641 1_564
Cs4 Pb2 4.191374 1_555
Cs4 Pb1 4.191374 1_554
Cs4 Pb5 4.350694 1_545
Cs4 Pb7 4.350694 1_545
Cs4 Pb7 4.350694 1_655
Cs4 Pb5 4.350694 1_655
Cs4 Pb0 4.363922 1_555
Cs4 Pb6 4.363922 1_555
Cs5 Pb7 4.191374 1_556
Cs5 Pb5 4.191374 1_555
Cs5 Pb2 4.350694 1_455
Cs5 Pb1 4.350694 1_565
Cs5 Pb2 4.350694 1_565
Cs5 Pb1 4.350694 1_455
Cs5 Pb3 4.363922 1_555
Cs5 Pb4 4.363922 1_555
Na0 Pb2 3.260409 1_455
Na0 Pb5 3.260409 1_545
Na0 Pb4 3.321371 1_445
Na0 Pb6 3.321371 1_445
Na0 Pb3 3.321371 1_555
Na0 Pb0 3.321371 1_555
Na1 Pb1 3.260409 1_454
Na1 Pb7 3.260409 1_545
Na1 Pb3 3.321371 1_554
Na1 Pb6 3.321371 1_445
Na1 Pb0 3.321371 1_555
Na1 Pb4 3.321371 1_444
Pb0 Pb7 3.110443 1_545
Pb0 Pb5 3.110443 1_545
Pb0 Pb6 3.221655 1_445
Pb1 Pb2 3.050160 1_555
Pb1 Pb3 3.110443 1_655
Pb1 Pb4 3.110443 1_545
Pb2 Pb3 3.110443 1_655
Pb2 Pb4 3.110443 1_545
Pb3 Pb4 3.221655 1_445
Pb5 Pb7 3.050160 1_555
Pb5 Pb6 3.110443 1_455
Pb6 Pb7 3.110443 1_655
