# generated using pymatgen
data_KSr3La8Mn12O36
_symmetry_space_group_name_H-M   'P 1'
_cell_length_a   16.67674200
_cell_length_b   5.52132200
_cell_length_c   7.83233625
_cell_angle_alpha   89.41859304
_cell_angle_beta   90.00000000
_cell_angle_gamma   90.00000000
_symmetry_Int_Tables_number   1
_chemical_formula_structural   KSr3La8Mn12O36
_chemical_formula_sum   'K1 Sr3 La8 Mn12 O36'
_cell_volume   721.14608344
_cell_formula_units_Z   1
loop_
 _symmetry_equiv_pos_site_id
 _symmetry_equiv_pos_as_xyz
  1  'x, y, z'
loop_
 _atom_site_type_symbol
 _atom_site_label
 _atom_site_symmetry_multiplicity
 _atom_site_fract_x
 _atom_site_fract_y
 _atom_site_fract_z
 _atom_site_occupancy
  K  K0  1  0.16663300  0.00000000  0.50000000  1
  Sr  Sr0  1  0.83272600  0.00000000  0.00000000  1
  Sr  Sr1  1  0.66756600  0.50000000  0.50000000  1
  Sr  Sr2  1  0.50050900  0.00000000  0.00000000  1
  La  La0  1  0.83376600  0.00000000  0.50000000  1
  La  La1  1  0.33207600  0.50000000  0.50000000  1
  La  La2  1  0.66659000  0.50000000  0.00000000  1
  La  La3  1  0.16576700  0.00000000  0.00000000  1
  La  La4  1  0.50194100  0.00000000  0.50000000  1
  La  La5  1  0.00142400  0.50000000  0.50000000  1
  La  La6  1  0.33203700  0.50000000  0.00000000  1
  La  La7  1  0.99907200  0.50000000  0.00000000  1
  Mn  Mn0  1  0.00052500  0.00049900  0.25057000  1
  Mn  Mn1  1  0.50016300  0.50064000  0.75071200  1
  Mn  Mn2  1  0.83266900  0.50037900  0.24947900  1
  Mn  Mn3  1  0.83266900  0.49962100  0.75052100  1
  Mn  Mn4  1  0.66670000  0.99988800  0.74992200  1
  Mn  Mn5  1  0.66670000  0.00011200  0.25007800  1
  Mn  Mn6  1  0.50016300  0.49936000  0.24928800  1
  Mn  Mn7  1  0.33292800  0.00045000  0.74938200  1
  Mn  Mn8  1  0.33292800  0.99955000  0.25061800  1
  Mn  Mn9  1  0.16696300  0.49970500  0.25305700  1
  Mn  Mn10  1  0.16696300  0.50029500  0.74694300  1
  Mn  Mn11  1  0.00052500  0.99950100  0.74943000  1
  O  O0  1  0.90995500  0.22924000  0.72191200  1
  O  O1  1  0.98734500  0.00000000  0.00000000  1
  O  O2  1  0.90995500  0.77076000  0.27808800  1
  O  O3  1  0.74202500  0.72464000  0.22434800  1
  O  O4  1  0.92540000  0.72305600  0.72498500  1
  O  O5  1  0.82215500  0.50000000  0.50000000  1
  O  O6  1  0.85013600  0.50000000  0.00000000  1
  O  O7  1  0.74202500  0.27536000  0.77565200  1
  O  O8  1  0.92540000  0.27694400  0.27501500  1
  O  O9  1  0.57463500  0.22608600  0.72386300  1
  O  O10  1  0.75721000  0.23016600  0.23119400  1
  O  O11  1  0.65383300  0.00000000  0.00000000  1
  O  O12  1  0.68327800  0.00000000  0.50000000  1
  O  O13  1  0.57463500  0.77391400  0.27613700  1
  O  O14  1  0.75721000  0.76983400  0.76880600  1
  O  O15  1  0.40762300  0.72236700  0.23065700  1
  O  O16  1  0.58937400  0.73019400  0.72977200  1
  O  O17  1  0.48208300  0.50000000  0.50000000  1
  O  O18  1  0.51668600  0.50000000  0.00000000  1
  O  O19  1  0.40762300  0.27763300  0.76934300  1
  O  O20  1  0.58937400  0.26980600  0.27022800  1
  O  O21  1  0.24646900  0.23904300  0.74212000  1
  O  O22  1  0.42297500  0.23138300  0.23289700  1
  O  O23  1  0.31689600  0.00000000  0.00000000  1
  O  O24  1  0.35196400  0.00000000  0.50000000  1
  O  O25  1  0.24646900  0.76095700  0.25788000  1
  O  O26  1  0.42297500  0.76861700  0.76710300  1
  O  O27  1  0.07395200  0.72319800  0.22199000  1
  O  O28  1  0.26132300  0.71867900  0.73629400  1
  O  O29  1  0.14986900  0.50000000  0.50000000  1
  O  O30  1  0.18183900  0.50000000  0.00000000  1
  O  O31  1  0.07395200  0.27680200  0.77801000  1
  O  O32  1  0.26132300  0.28132100  0.26370600  1
  O  O33  1  0.08780000  0.23505000  0.21356200  1
  O  O34  1  0.00642700  0.00000000  0.50000000  1
  O  O35  1  0.08780000  0.76495000  0.78643800  1
loop_
_geom_bond_atom_site_label_1
_geom_bond_atom_site_label_2
_geom_bond_distance
_geom_bond_site_symmetry_2
K0 O34 2.671714 1_555
K0 O25 2.676115 1_545
K0 O21 2.676115 1_555
K0 O29 2.774781 1_545
K0 O29 2.774781 1_555
K0 O28 2.876304 1_545
K0 O32 2.876304 1_555
K0 O33 2.895986 1_555
K0 O35 2.895986 1_545
K0 O31 3.087649 1_555
K0 O27 3.087649 1_545
K0 O24 3.090717 1_555
La0 O2 2.506392 1_545
La0 O0 2.506392 1_555
La0 O12 2.509650 1_555
La0 O10 2.761029 1_555
La0 O14 2.761029 1_545
La0 O5 2.767443 1_545
La0 O5 2.767443 1_555
La0 O8 2.779194 1_555
La0 O4 2.779194 1_545
La0 O34 2.879423 1_655
La0 O3 3.062692 1_545
La0 O7 3.062692 1_555
La1 O17 2.501628 1_555
La1 O28 2.514082 1_555
La1 O32 2.514082 1_555
La1 O15 2.737238 1_555
La1 O19 2.737238 1_555
La1 O21 2.766750 1_555
La1 O25 2.766750 1_555
La1 O24 2.780513 1_565
La1 O24 2.780513 1_555
La1 O22 2.989515 1_555
La1 O26 2.989515 1_555
La1 O29 3.038619 1_555
La2 O18 2.499910 1_555
La2 O3 2.500566 1_555
La2 O7 2.500566 1_554
La2 O11 2.768846 1_555
La2 O11 2.768846 1_565
La2 O20 2.774640 1_555
La2 O16 2.774640 1_554
La2 O10 2.779874 1_555
La2 O14 2.779874 1_554
La2 O6 3.060949 1_555
La2 O9 3.063166 1_554
La2 O13 3.063166 1_555
La3 O33 2.493353 1_555
La3 O35 2.493353 1_544
La3 O23 2.520339 1_555
La3 O25 2.752956 1_545
La3 O21 2.752956 1_554
La3 O27 2.765753 1_545
La3 O31 2.765753 1_554
La3 O30 2.773642 1_555
La3 O30 2.773642 1_545
La3 O1 2.975498 1_455
La3 O32 3.046834 1_555
La3 O28 3.046834 1_544
La4 O13 2.479240 1_545
La4 O9 2.479240 1_555
La4 O24 2.501128 1_555
La4 O20 2.744003 1_555
La4 O16 2.744003 1_545
La4 O26 2.772853 1_545
La4 O22 2.772853 1_555
La4 O17 2.780453 1_545
La4 O17 2.780453 1_555
La4 O12 3.024110 1_555
La4 O15 3.056114 1_545
La4 O19 3.056114 1_555
La5 O29 2.475579 1_555
La5 O4 2.504675 1_455
La5 O8 2.504675 1_455
La5 O2 2.744079 1_455
La5 O0 2.744079 1_455
La5 O34 2.761921 1_565
La5 O34 2.761921 1_555
La5 O27 2.769215 1_555
La5 O31 2.769215 1_555
La5 O5 2.989623 1_455
La5 O35 3.052009 1_555
La5 O33 3.052009 1_555
La6 O30 2.504813 1_555
La6 O15 2.530826 1_555
La6 O19 2.530826 1_554
La6 O28 2.657803 1_554
La6 O32 2.657803 1_555
La6 O23 2.772184 1_555
La6 O23 2.772184 1_565
La6 O26 2.787850 1_554
La6 O22 2.787850 1_555
La6 O21 2.872449 1_554
La6 O25 2.872449 1_555
La6 O18 3.079344 1_555
La7 O31 2.478837 1_654
La7 O27 2.478837 1_655
La7 O6 2.483767 1_555
La7 O33 2.660400 1_655
La7 O35 2.660400 1_654
La7 O4 2.759013 1_554
La7 O8 2.759013 1_555
La7 O1 2.767579 1_555
La7 O1 2.767579 1_565
La7 O2 3.041994 1_555
La7 O0 3.041994 1_554
La7 O30 3.047958 1_655
Mn0 O34 1.956072 1_555
Mn0 O33 1.967709 1_555
Mn0 O1 1.974848 1_455
Mn0 O27 1.975016 1_545
Mn0 O2 1.982738 1_445
Mn0 O8 1.985426 1_455
Mn1 O16 1.960226 1_555
Mn1 O26 1.966345 1_555
Mn1 O18 1.971823 1_556
Mn1 O9 1.972584 1_555
Mn1 O19 1.978737 1_555
Mn1 O17 1.986713 1_555
Mn2 O10 1.958139 1_555
Mn2 O3 1.962665 1_555
Mn2 O5 1.969963 1_555
Mn2 O6 1.975618 1_555
Mn2 O2 1.986665 1_555
Mn2 O8 1.987062 1_555
Mn3 O14 1.958139 1_555
Mn3 O7 1.962665 1_555
Mn3 O5 1.969963 1_555
Mn3 O6 1.975618 1_556
Mn3 O0 1.986665 1_555
Mn3 O4 1.987062 1_555
Mn4 O11 1.970420 1_566
Mn4 O12 1.976894 1_565
Mn4 O14 1.977322 1_555
Mn4 O16 1.977354 1_555
Mn4 O7 1.984480 1_565
Mn4 O9 1.988353 1_565
Mn5 O11 1.970420 1_555
Mn5 O12 1.976894 1_555
Mn5 O10 1.977322 1_555
Mn5 O20 1.977354 1_555
Mn5 O3 1.984480 1_545
Mn5 O13 1.988353 1_545
Mn6 O20 1.960226 1_555
Mn6 O22 1.966345 1_555
Mn6 O18 1.971823 1_555
Mn6 O13 1.972584 1_555
Mn6 O15 1.978737 1_555
Mn6 O17 1.986713 1_555
Mn7 O21 1.953476 1_555
Mn7 O28 1.964704 1_545
Mn7 O26 1.977169 1_545
Mn7 O24 1.978900 1_555
Mn7 O19 1.980698 1_555
Mn7 O23 1.981025 1_556
Mn8 O25 1.953476 1_555
Mn8 O32 1.964704 1_565
Mn8 O22 1.977169 1_565
Mn8 O24 1.978900 1_565
Mn8 O15 1.980698 1_555
Mn8 O23 1.981025 1_565
Mn9 O29 1.955053 1_555
Mn9 O25 1.959905 1_555
Mn9 O32 1.983700 1_555
Mn9 O27 1.995442 1_555
Mn9 O33 1.995740 1_555
Mn9 O30 1.997477 1_555
Mn10 O29 1.955053 1_555
Mn10 O21 1.959905 1_555
Mn10 O28 1.983700 1_555
Mn10 O31 1.995442 1_555
Mn10 O35 1.995740 1_555
Mn10 O30 1.997477 1_556
Mn11 O34 1.956072 1_565
Mn11 O35 1.967709 1_555
Mn11 O1 1.974848 1_466
Mn11 O31 1.975016 1_565
Mn11 O0 1.982738 1_465
Mn11 O4 1.985426 1_455
O0 Sr0 2.819371 1_556
O1 Sr0 2.578541 1_555
O2 Sr0 2.819371 1_565
O3 Sr0 2.762760 1_565
O3 Sr1 2.772580 1_555
O4 Sr0 3.071370 1_566
O5 Sr1 2.578041 1_555
O6 Sr0 2.775887 1_555
O6 Sr0 2.775887 1_565
O7 Sr0 2.762760 1_556
O7 Sr1 2.772580 1_555
O8 Sr0 3.071370 1_555
O9 Sr2 2.776559 1_556
O9 Sr1 2.776614 1_555
O10 Sr0 2.554728 1_555
O10 Sr1 2.991795 1_555
O11 Sr2 2.556945 1_555
O11 Sr0 2.983352 1_555
O12 Sr1 2.773068 1_545
O12 Sr1 2.773068 1_555
O13 Sr2 2.776559 1_565
O13 Sr1 2.776614 1_555
O14 Sr0 2.554728 1_566
O14 Sr1 2.991795 1_555
O15 Sr2 2.820787 1_565
O16 Sr1 2.569227 1_555
O16 Sr2 2.993168 1_566
O17 Sr1 3.093252 1_555
O18 Sr2 2.773811 1_555
O18 Sr2 2.773811 1_565
O19 Sr2 2.820787 1_556
O20 Sr1 2.569227 1_555
O20 Sr2 2.993168 1_555
O22 Sr2 2.584324 1_555
O23 Sr2 3.062067 1_555
O26 Sr2 2.584324 1_566
