# generated using pymatgen
data_Ca3BCNCl2
_symmetry_space_group_name_H-M   'P 1'
_cell_length_a   3.85115100
_cell_length_b   11.23645700
_cell_length_c   13.90299400
_cell_angle_alpha   90.00000000
_cell_angle_beta   90.00000000
_cell_angle_gamma   90.00000000
_symmetry_Int_Tables_number   1
_chemical_formula_structural   Ca3BCNCl2
_chemical_formula_sum   'Ca12 B4 C4 N4 Cl8'
_cell_volume   601.62832754
_cell_formula_units_Z   4
loop_
 _symmetry_equiv_pos_site_id
 _symmetry_equiv_pos_as_xyz
  1  'x, y, z'
loop_
 _atom_site_type_symbol
 _atom_site_label
 _atom_site_symmetry_multiplicity
 _atom_site_fract_x
 _atom_site_fract_y
 _atom_site_fract_z
 _atom_site_occupancy
  Ca  Ca0  1  0.75000000  0.06824400  0.36322500  1
  Ca  Ca1  1  0.75000000  0.79934800  0.81325800  1
  Ca  Ca2  1  0.25000000  0.20065200  0.18674200  1
  Ca  Ca3  1  0.25000000  0.29934800  0.68674200  1
  Ca  Ca4  1  0.75000000  0.70065200  0.31325800  1
  Ca  Ca5  1  0.25000000  0.56824400  0.13677500  1
  Ca  Ca6  1  0.25000000  0.13795400  0.89586800  1
  Ca  Ca7  1  0.25000000  0.93175600  0.63677500  1
  Ca  Ca8  1  0.75000000  0.43175600  0.86322500  1
  Ca  Ca9  1  0.75000000  0.86204600  0.10413200  1
  Ca  Ca10  1  0.25000000  0.36204600  0.39586800  1
  Ca  Ca11  1  0.75000000  0.63795400  0.60413200  1
  B  B0  1  0.25000000  0.89715000  0.24352900  1
  B  B1  1  0.75000000  0.39715000  0.25647100  1
  B  B2  1  0.25000000  0.60285000  0.74352900  1
  B  B3  1  0.75000000  0.10285000  0.75647100  1
  C  C0  1  0.75000000  0.27732700  0.29363200  1
  C  C1  1  0.75000000  0.22267300  0.79363200  1
  C  C2  1  0.25000000  0.77732700  0.20636800  1
  C  C3  1  0.25000000  0.72267300  0.70636800  1
  N  N0  1  0.25000000  0.48591400  0.77001900  1
  N  N1  1  0.75000000  0.98591400  0.72998100  1
  N  N2  1  0.25000000  0.01408600  0.27001900  1
  N  N3  1  0.75000000  0.51408600  0.22998100  1
  Cl  Cl0  1  0.25000000  0.60595900  0.44659900  1
  Cl  Cl1  1  0.75000000  0.10595900  0.05340100  1
  Cl  Cl2  1  0.25000000  0.36004500  0.01190900  1
  Cl  Cl3  1  0.25000000  0.89404100  0.94659900  1
  Cl  Cl4  1  0.75000000  0.63995500  0.98809100  1
  Cl  Cl5  1  0.75000000  0.86004500  0.48809100  1
  Cl  Cl6  1  0.75000000  0.39404100  0.55340100  1
  Cl  Cl7  1  0.25000000  0.13995500  0.51190900  1
loop_
_geom_bond_atom_site_label_1
_geom_bond_atom_site_label_2
_geom_bond_distance
_geom_bond_site_symmetry_2
Ca0 N2 2.399453 1_555
Ca0 N2 2.399453 1_655
Ca0 Cl5 2.913180 1_545
Ca0 Cl7 2.937727 1_655
Ca0 Cl7 2.937727 1_555
Ca1 N1 2.394816 1_555
Ca1 Cl3 2.876923 1_655
Ca1 Cl3 2.876923 1_555
Ca1 Cl4 3.019278 1_555
Ca2 N2 2.394816 1_555
Ca2 Cl1 2.876923 1_455
Ca2 Cl1 2.876923 1_555
Ca2 Cl2 3.019278 1_555
Ca3 N0 2.394816 1_555
Ca3 Cl6 2.876923 1_555
Ca3 Cl6 2.876923 1_455
Ca3 Cl7 3.019278 1_555
Ca4 N3 2.394816 1_555
Ca4 Cl0 2.876923 1_655
Ca4 Cl0 2.876923 1_555
Ca4 Cl5 3.019278 1_555
Ca5 N3 2.399453 1_555
Ca5 N3 2.399453 1_455
Ca5 Cl2 2.913180 1_555
Ca5 Cl4 2.937727 1_454
Ca5 Cl4 2.937727 1_554
Ca6 Cl3 2.830018 1_545
Ca6 Cl1 2.938363 1_556
Ca6 Cl1 2.938363 1_456
Ca6 Cl2 2.971598 1_556
Ca7 N1 2.399453 1_555
Ca7 N1 2.399453 1_455
Ca7 Cl7 2.913180 1_565
Ca7 Cl5 2.937727 1_555
Ca7 Cl5 2.937727 1_455
Ca8 N0 2.399453 1_655
Ca8 N0 2.399453 1_555
Ca8 Cl4 2.913180 1_555
Ca8 Cl2 2.937727 1_556
Ca8 Cl2 2.937727 1_656
Ca9 Cl1 2.830018 1_565
Ca9 Cl3 2.938363 1_554
Ca9 Cl3 2.938363 1_654
Ca9 Cl4 2.971598 1_554
Ca10 Cl0 2.830018 1_555
Ca10 Cl6 2.938363 1_555
Ca10 Cl6 2.938363 1_455
Ca10 Cl7 2.971598 1_555
Ca11 Cl6 2.830018 1_555
Ca11 Cl0 2.938363 1_555
Ca11 Cl0 2.938363 1_655
Ca11 Cl5 2.971598 1_555
B0 N2 1.364585 1_565
B0 C2 1.442110 1_555
B0 Ca9 2.760328 1_455
B0 Ca9 2.760328 1_555
B1 N3 1.364585 1_555
B1 C0 1.442110 1_555
B1 Ca10 2.760328 1_655
B1 Ca10 2.760328 1_555
B2 N0 1.364585 1_555
B2 C3 1.442110 1_555
B2 Ca11 2.760328 1_455
B2 Ca11 2.760328 1_555
B3 N1 1.364585 1_545
B3 C1 1.442110 1_555
B3 Ca6 2.760328 1_555
B3 Ca6 2.760328 1_655
C0 Ca0 2.540789 1_555
C0 Ca10 2.575728 1_655
C0 Ca10 2.575728 1_555
C0 Ca2 2.580423 1_655
C0 Ca2 2.580423 1_555
C1 Ca8 2.540789 1_555
C1 Ca6 2.575728 1_555
C1 Ca6 2.575728 1_655
C1 Ca3 2.580423 1_655
C1 Ca3 2.580423 1_555
C2 Ca5 2.540789 1_555
C2 Ca9 2.575728 1_455
C2 Ca9 2.575728 1_555
C2 Ca4 2.580423 1_455
C2 Ca4 2.580423 1_555
C3 Ca7 2.540789 1_555
C3 Ca11 2.575728 1_455
C3 Ca11 2.575728 1_555
C3 Ca1 2.580423 1_455
C3 Ca1 2.580423 1_555
