# generated using pymatgen
data_Sm5Se9
_symmetry_space_group_name_H-M   'P 1'
_cell_length_a   9.10511400
_cell_length_b   9.25827920
_cell_length_c   9.34943775
_cell_angle_alpha   112.78937855
_cell_angle_beta   101.02101565
_cell_angle_gamma   90.42873778
_symmetry_Int_Tables_number   1
_chemical_formula_structural   Sm5Se9
_chemical_formula_sum   'Sm10 Se18'
_cell_volume   710.30876092
_cell_formula_units_Z   2
loop_
 _symmetry_equiv_pos_site_id
 _symmetry_equiv_pos_as_xyz
  1  'x, y, z'
loop_
 _atom_site_type_symbol
 _atom_site_label
 _atom_site_symmetry_multiplicity
 _atom_site_fract_x
 _atom_site_fract_y
 _atom_site_fract_z
 _atom_site_occupancy
  Sm  Sm0  1  0.69484900  0.63724400  0.74111600  1
  Sm  Sm1  1  0.30515100  0.36275600  0.25888400  1
  Sm  Sm2  1  0.48530600  0.23839100  0.72088500  1
  Sm  Sm3  1  0.10393900  0.96055000  0.27472600  1
  Sm  Sm4  1  0.30599700  0.85209600  0.73892600  1
  Sm  Sm5  1  0.90718600  0.56505800  0.28609700  1
  Sm  Sm6  1  0.09281400  0.43494200  0.71390300  1
  Sm  Sm7  1  0.69400300  0.14790400  0.26107400  1
  Sm  Sm8  1  0.89606100  0.03945000  0.72527400  1
  Sm  Sm9  1  0.51469400  0.76160900  0.27911500  1
  Se  Se0  1  0.63735400  0.50844700  0.99624200  1
  Se  Se1  1  0.45514500  0.15969300  0.99791800  1
  Se  Se2  1  0.54485500  0.84030700  0.00208200  1
  Se  Se3  1  0.77141100  0.29561900  0.63076300  1
  Se  Se4  1  0.36264600  0.49155300  0.00375800  1
  Se  Se5  1  0.41788500  0.09167200  0.35970900  1
  Se  Se6  1  0.58211500  0.90832800  0.64029100  1
  Se  Se7  1  0.03742700  0.36866000  0.99965000  1
  Se  Se8  1  0.13985400  0.04614800  0.00004200  1
  Se  Se9  1  0.22858900  0.70438100  0.36923700  1
  Se  Se10  1  0.86014600  0.95385200  0.99995800  1
  Se  Se11  1  0.37164800  0.50382200  0.62561300  1
  Se  Se12  1  0.01540900  0.29469500  0.35788200  1
  Se  Se13  1  0.96257300  0.63134000  0.00035000  1
  Se  Se14  1  0.17174500  0.10491300  0.63059900  1
  Se  Se15  1  0.82825500  0.89508700  0.36940100  1
  Se  Se16  1  0.98459100  0.70530500  0.64211800  1
  Se  Se17  1  0.62835200  0.49617800  0.37438700  1
loop_
_geom_bond_atom_site_label_1
_geom_bond_atom_site_label_2
_geom_bond_distance
_geom_bond_site_symmetry_2
Se0 Se4 2.521012 1_556
Se0 Sm2 2.897347 1_555
Se0 Sm5 3.160632 1_556
Se0 Sm0 3.171290 1_555
Se0 Sm9 3.178324 1_556
Se1 Sm7 2.993479 1_556
Se1 Sm2 3.007632 1_555
Se1 Sm1 3.018542 1_556
Se1 Sm4 3.026608 1_545
Se2 Sm4 2.993479 1_554
Se2 Sm9 3.007632 1_555
Se2 Sm0 3.018542 1_554
Se2 Sm7 3.026608 1_565
Se3 Sm2 2.990186 1_555
Se3 Sm8 2.995687 1_555
Se3 Sm6 3.021418 1_655
Se3 Sm0 3.055177 1_555
Se3 Sm7 3.115433 1_555
Se4 Sm9 2.897347 1_555
Se4 Sm6 3.160632 1_554
Se4 Sm1 3.171290 1_555
Se4 Sm2 3.178324 1_554
Se5 Sm3 2.934039 1_545
Se5 Sm7 2.946329 1_555
Se5 Sm9 3.032032 1_545
Se5 Sm2 3.044052 1_555
Se5 Sm1 3.121310 1_555
Se6 Sm8 2.934039 1_565
Se6 Sm4 2.946329 1_555
Se6 Sm2 3.032032 1_565
Se6 Sm9 3.044052 1_555
Se6 Sm0 3.121310 1_555
Se7 Sm5 3.059230 1_456
Se7 Sm6 3.090104 1_555
Se7 Sm1 3.108885 1_556
Se7 Sm8 3.185737 1_455
Se8 Sm3 3.037138 1_545
Se8 Sm8 3.037245 1_454
Se8 Sm4 3.087219 1_544
Se8 Sm1 3.124083 1_555
Se9 Sm9 2.990186 1_555
Se9 Sm3 2.995687 1_555
Se9 Sm5 3.021418 1_455
Se9 Sm1 3.055177 1_555
Se9 Sm4 3.115433 1_555
Se10 Sm8 3.037138 1_565
Se10 Sm3 3.037245 1_656
Se10 Sm7 3.087219 1_566
Se10 Sm0 3.124083 1_555
Se11 Sm6 2.952707 1_555
Se11 Sm0 3.008184 1_555
Se11 Sm2 3.047084 1_555
Se11 Sm4 3.082399 1_555
Se11 Sm1 3.090913 1_555
Se12 Sm5 2.961825 1_455
Se12 Sm6 3.000564 1_555
Se12 Sm7 3.033987 1_455
Se12 Sm3 3.039455 1_545
Se12 Sm1 3.094194 1_555
Se13 Se7 2.528476 1_654
Se13 Sm6 3.059230 1_654
Se13 Sm5 3.090104 1_555
Se13 Sm0 3.108885 1_554
Se13 Sm3 3.185737 1_655
Se14 Sm2 2.934011 1_555
Se14 Sm8 2.948549 1_455
Se14 Sm6 2.976991 1_555
Se14 Sm3 2.999184 1_545
Se14 Sm4 3.066687 1_545
Se15 Sm9 2.934011 1_555
Se15 Sm3 2.948549 1_655
Se15 Sm5 2.976991 1_555
Se15 Sm8 2.999184 1_565
Se15 Sm7 3.066687 1_565
Se16 Sm6 2.961825 1_655
Se16 Sm5 3.000564 1_555
Se16 Sm4 3.033987 1_655
Se16 Sm8 3.039455 1_565
Se16 Sm0 3.094194 1_555
Se17 Sm5 2.952707 1_555
Se17 Sm1 3.008184 1_555
Se17 Sm9 3.047084 1_555
Se17 Sm7 3.082399 1_555
Se17 Sm0 3.090913 1_555
