# generated using pymatgen
data_Zr5I18
_symmetry_space_group_name_H-M   'P 1'
_cell_length_a   7.95100288
_cell_length_b   70.45823016
_cell_length_c   10.47307936
_cell_angle_alpha   40.34235513
_cell_angle_beta   112.16443172
_cell_angle_gamma   120.41194697
_symmetry_Int_Tables_number   1
_chemical_formula_structural   Zr5I18
_chemical_formula_sum   'Zr15 I54'
_cell_volume   3275.14999226
_cell_formula_units_Z   3
loop_
 _symmetry_equiv_pos_site_id
 _symmetry_equiv_pos_as_xyz
  1  'x, y, z'
loop_
 _atom_site_type_symbol
 _atom_site_label
 _atom_site_symmetry_multiplicity
 _atom_site_fract_x
 _atom_site_fract_y
 _atom_site_fract_z
 _atom_site_occupancy
  Zr  Zr0  1  0.99837641  0.89369054  0.95342527  1
  Zr  Zr1  1  0.99940340  0.82914673  0.54499239  1
  Zr  Zr2  1  0.00468648  0.72919060  0.44186913  1
  Zr  Zr3  1  0.00507686  0.66730313  0.00414117  1
  Zr  Zr4  1  0.00267849  0.61141905  0.50318340  1
  Zr  Zr5  1  0.00114218  0.55743561  0.98610452  1
  Zr  Zr6  1  0.99936147  0.49933700  0.50769146  1
  Zr  Zr7  1  0.99957013  0.38865434  0.50218073  1
  Zr  Zr8  1  0.99840851  0.44493680  0.99590825  1
  Zr  Zr9  1  0.99621221  0.27730017  0.49956215  1
  Zr  Zr10  1  0.99809822  0.33218905  0.00726514  1
  Zr  Zr11  1  0.00289256  0.99479841  0.04665355  1
  Zr  Zr12  1  0.99075095  0.15964295  0.55735511  1
  Zr  Zr13  1  0.99312324  0.22185400  0.99603210  1
  Zr  Zr14  1  0.99863021  0.06006218  0.45411782  1
  I  I0  1  0.31284000  0.95030500  0.76088273  1
  I  I1  1  0.30845565  0.97332321  0.23471946  1
  I  I2  1  0.30644518  0.84198948  0.73534546  1
  I  I3  1  0.00065530  0.99551733  0.75171518  1
  I  I4  1  0.69304421  0.91522060  0.76495780  1
  I  I5  1  0.28027257  0.86080490  0.25166083  1
  I  I6  1  0.68729533  0.93835470  0.24063240  1
  I  I7  1  0.29825930  0.72740624  0.75211905  1
  I  I8  1  0.99959733  0.88054025  0.76397265  1
  I  I9  1  0.68515511  0.80639958  0.73835906  1
  I  I10  1  0.31396982  0.74809585  0.27041142  1
  I  I11  1  0.70953152  0.82829775  0.25570845  1
  I  I12  1  0.99913316  0.89355179  0.24638936  1
  I  I13  1  0.30956823  0.61833283  0.74613053  1
  I  I14  1  0.99648363  0.77134499  0.74240362  1
  I  I15  1  0.71191095  0.69376347  0.75956017  1
  I  I16  1  0.30121845  0.63736858  0.26099754  1
  I  I17  1  0.00052496  0.78349450  0.26242565  1
  I  I18  1  0.69279274  0.71270802  0.27218238  1
  I  I19  1  0.30512980  0.50727160  0.74460588  1
  I  I20  1  0.99675510  0.65967811  0.76738430  1
  I  I21  1  0.69548742  0.58316988  0.75233084  1
  I  I22  1  0.29760570  0.52770658  0.24961012  1
  I  I23  1  0.00578276  0.67324083  0.25399215  1
  I  I24  1  0.69559798  0.60356454  0.26571896  1
  I  I25  1  0.30496113  0.39553198  0.74439577  1
  I  I26  1  0.99738948  0.54828159  0.75744548  1
  I  I27  1  0.69556316  0.47241249  0.75067659  1
  I  I28  1  0.30104894  0.41701109  0.24831836  1
  I  I29  1  0.69765440  0.49357787  0.25564627  1
  I  I30  1  0.00068832  0.56244114  0.24270872  1
  I  I31  1  0.30162396  0.28590089  0.73380528  1
  I  I32  1  0.99702032  0.43723468  0.75650221  1
  I  I33  1  0.70024335  0.36139634  0.75098330  1
  I  I34  1  0.30210808  0.30573797  0.24722917  1
  I  I35  1  0.69383991  0.38219433  0.25581762  1
  I  I36  1  0.00119158  0.45133464  0.24530018  1
  I  I37  1  0.30508631  0.17634720  0.72488292  1
  I  I38  1  0.99598522  0.32644456  0.75487792  1
  I  I39  1  0.69522889  0.25136787  0.73877716  1
  I  I40  1  0.28668412  0.19554112  0.24014373  1
  I  I41  1  0.69131976  0.27080634  0.25325403  1
  I  I42  1  0.00219169  0.34072450  0.24101575  1
  I  I43  1  0.99613182  0.21590761  0.74678476  1
  I  I44  1  0.28930194  0.06040689  0.74413704  1
  I  I45  1  0.68348079  0.14069522  0.73129811  1
  I  I46  1  0.31175684  0.08289219  0.25908420  1
  I  I47  1  0.70005708  0.16151883  0.24744209  1
  I  I48  1  0.99579357  0.22915587  0.23250931  1
  I  I49  1  0.99361226  0.10515086  0.73811187  1
  I  I50  1  0.71883284  0.02780436  0.75018368  1
  I  I51  1  0.69090561  0.04681645  0.26595116  1
  I  I52  1  0.00023647  0.11757642  0.25884977  1
  I  I53  1  0.00394568  0.00845151  0.23419935  1
loop_
_geom_bond_atom_site_label_1
_geom_bond_atom_site_label_2
_geom_bond_distance
_geom_bond_site_symmetry_2
I0 Zr0 2.770298 1_455
I1 Zr11 2.763999 1_555
I2 Zr1 2.755760 1_455
I3 Zr14 2.970802 1_465
I3 Zr11 3.043880 1_556
I4 Zr0 2.763956 1_555
I5 Zr1 3.014593 1_455
I5 Zr0 3.015247 1_454
I6 Zr11 2.768918 1_655
I7 Zr3 2.818406 1_556
I7 Zr2 3.158123 1_555
I8 Zr0 2.760709 1_555
I9 Zr1 2.780063 1_555
I10 Zr2 2.723124 1_555
I11 Zr0 3.010520 1_554
I11 Zr1 3.059832 1_555
I12 Zr1 2.957053 1_555
I12 Zr0 3.058531 1_554
I13 Zr5 2.880892 1_555
I13 Zr4 2.943932 1_555
I14 Zr1 2.822457 1_555
I15 Zr3 2.843476 1_656
I15 Zr2 3.165579 1_655
I16 Zr4 2.913829 1_555
I16 Zr3 2.971351 1_555
I17 Zr2 2.700461 1_555
I18 Zr2 2.749864 1_655
I19 Zr8 2.922700 1_455
I19 Zr6 2.926864 1_455
I20 Zr3 2.883089 1_656
I20 Zr2 3.163989 1_655
I21 Zr5 2.897025 1_655
I21 Zr4 2.950579 1_655
I22 Zr6 2.953956 1_455
I22 Zr5 2.972962 1_554
I23 Zr4 2.897563 1_555
I23 Zr3 2.945767 1_555
I24 Zr4 2.932768 1_655
I24 Zr3 2.978614 1_655
I25 Zr7 2.932714 1_455
I25 Zr10 2.960512 1_456
I26 Zr5 2.903943 1_655
I26 Zr4 2.952902 1_655
I27 Zr6 2.923893 1_555
I27 Zr8 2.935299 1_555
I28 Zr7 2.944309 1_455
I28 Zr8 2.952086 1_454
I29 Zr6 2.959156 1_555
I29 Zr5 2.970144 1_654
I30 Zr6 2.938660 1_455
I30 Zr5 2.966502 1_554
I31 Zr9 2.926405 1_455
I31 Zr13 2.984501 1_455
I32 Zr6 2.917145 1_555
I32 Zr8 2.937430 1_555
I33 Zr7 2.926679 1_555
I33 Zr10 2.960698 1_556
I34 Zr10 2.910248 1_455
I34 Zr9 2.959430 1_455
I35 Zr8 2.934015 1_554
I35 Zr7 2.951468 1_555
I36 Zr7 2.932380 1_455
I36 Zr8 2.960880 1_454
I37 Zr12 2.751561 1_455
I38 Zr7 2.909392 1_555
I38 Zr10 2.956596 1_556
I39 Zr9 2.908785 1_555
I39 Zr13 2.970576 1_555
I40 Zr13 2.841591 1_454
I40 Zr12 3.167717 1_455
I41 Zr10 2.892741 1_555
I41 Zr9 2.949278 1_555
I42 Zr10 2.918942 1_455
I42 Zr9 2.956448 1_455
I43 Zr9 2.887989 1_555
I43 Zr13 2.952063 1_555
I44 Zr11 3.008835 1_546
I44 Zr14 3.053954 1_455
I45 Zr12 2.723672 1_555
I46 Zr14 2.780669 1_455
I47 Zr13 2.823488 1_554
I47 Zr12 3.144736 1_555
I48 Zr13 2.879323 1_554
I48 Zr12 3.172977 1_555
I49 Zr12 2.702155 1_555
I50 Zr14 3.012000 1_555
I50 Zr11 3.028069 1_646
I51 Zr14 2.755844 1_555
I52 Zr14 2.817500 1_455
I53 Zr11 2.764636 1_545
