# generated using pymatgen
data_Sn5(Mo3S4)12
_symmetry_space_group_name_H-M   'P 1'
_cell_length_a   11.33231000
_cell_length_b   11.45719749
_cell_length_c   14.62332172
_cell_angle_alpha   74.84545416
_cell_angle_beta   74.95246741
_cell_angle_gamma   70.28775037
_symmetry_Int_Tables_number   1
_chemical_formula_structural   Sn5(Mo3S4)12
_chemical_formula_sum   'Sn5 Mo36 S48'
_cell_volume   1694.23407377
_cell_formula_units_Z   1
loop_
 _symmetry_equiv_pos_site_id
 _symmetry_equiv_pos_as_xyz
  1  'x, y, z'
loop_
 _atom_site_type_symbol
 _atom_site_label
 _atom_site_symmetry_multiplicity
 _atom_site_fract_x
 _atom_site_fract_y
 _atom_site_fract_z
 _atom_site_occupancy
  Sn  Sn0  1  0.66688500  0.66674700  0.33332200  1
  Sn  Sn1  1  0.33311500  0.33325300  0.66667800  1
  Sn  Sn2  1  0.50000000  0.50000000  0.00000000  1
  Sn  Sn3  1  0.16641200  0.16662100  0.33315500  1
  Sn  Sn4  1  0.83358800  0.83337900  0.66684500  1
  Mo  Mo0  1  0.98442400  0.56941800  0.11095500  1
  Mo  Mo1  1  0.65060100  0.23394900  0.44512700  1
  Mo  Mo2  1  0.31648300  0.90200500  0.78075900  1
  Mo  Mo3  1  0.80328300  0.24202800  0.26936200  1
  Mo  Mo4  1  0.46914400  0.90884100  0.60279600  1
  Mo  Mo5  1  0.13460300  0.57752900  0.93639400  1
  Mo  Mo6  1  0.11926500  0.34315600  0.04728800  1
  Mo  Mo7  1  0.78758200  0.01015100  0.38150600  1
  Mo  Mo8  1  0.45295500  0.67801400  0.71500100  1
  Mo  Mo9  1  0.04492500  0.82466600  0.28409800  1
  Mo  Mo10  1  0.71381400  0.48814700  0.61878100  1
  Mo  Mo11  1  0.38012800  0.15576600  0.95179100  1
  Mo  Mo12  1  0.48387400  0.06821300  0.11269300  1
  Mo  Mo13  1  0.15053600  0.73408100  0.44509000  1
  Mo  Mo14  1  0.81693000  0.40103800  0.77914500  1
  Mo  Mo15  1  0.36159700  0.92364600  0.06475400  1
  Mo  Mo16  1  0.03052800  0.59139900  0.39702900  1
  Mo  Mo17  1  0.69642300  0.25712600  0.73128600  1
  Mo  Mo18  1  0.30357700  0.74287400  0.26871400  1
  Mo  Mo19  1  0.96947200  0.40860100  0.60297100  1
  Mo  Mo20  1  0.63840300  0.07635400  0.93524600  1
  Mo  Mo21  1  0.18307000  0.59896200  0.22085500  1
  Mo  Mo22  1  0.84946400  0.26591900  0.55491000  1
  Mo  Mo23  1  0.51612600  0.93178700  0.88730700  1
  Mo  Mo24  1  0.61987200  0.84423400  0.04820900  1
  Mo  Mo25  1  0.28618600  0.51185300  0.38121900  1
  Mo  Mo26  1  0.95507500  0.17533400  0.71590200  1
  Mo  Mo27  1  0.54704500  0.32198600  0.28499900  1
  Mo  Mo28  1  0.21241800  0.98984900  0.61849400  1
  Mo  Mo29  1  0.88073500  0.65684400  0.95271200  1
  Mo  Mo30  1  0.86539700  0.42247100  0.06360600  1
  Mo  Mo31  1  0.53085600  0.09115900  0.39720400  1
  Mo  Mo32  1  0.19671700  0.75797200  0.73063800  1
  Mo  Mo33  1  0.68351700  0.09799500  0.21924100  1
  Mo  Mo34  1  0.34939900  0.76605100  0.55487300  1
  Mo  Mo35  1  0.01557600  0.43058200  0.88904500  1
  S  S0  1  0.97606700  0.35608300  0.20464300  1
  S  S1  1  0.64259600  0.02240300  0.53836600  1
  S  S2  1  0.30906400  0.68955000  0.87183500  1
  S  S3  1  0.22267000  0.48122100  0.08432800  1
  S  S4  1  0.89027100  0.14825100  0.41759200  1
  S  S5  1  0.55580500  0.81532600  0.75079200  1
  S  S6  1  0.66697900  0.90800000  0.33318700  1
  S  S7  1  0.33349300  0.57496500  0.66674200  1
  S  S8  1  0.99997400  0.23740000  0.99995600  1
  S  S9  1  0.91204800  0.04034000  0.21528500  1
  S  S10  1  0.58022700  0.70723500  0.54565100  1
  S  S11  1  0.24684900  0.37415200  0.87971200  1
  S  S12  1  0.25233700  0.12551000  0.12046300  1
  S  S13  1  0.92015500  0.79287800  0.45370700  1
  S  S14  1  0.58604300  0.45951200  0.78760500  1
  S  S15  1  0.50039200  0.25861400  0.00019700  1
  S  S16  1  0.16669700  0.92530800  0.33318100  1
  S  S17  1  0.83344600  0.59175200  0.66652900  1
  S  S18  1  0.94337500  0.68588900  0.24888000  1
  S  S19  1  0.61011900  0.35181000  0.58229900  1
  S  S20  1  0.28066300  0.01758000  0.91511300  1
  S  S21  1  0.19267600  0.80958000  0.13041900  1
  S  S22  1  0.85680700  0.47798500  0.46169400  1
  S  S23  1  0.52415800  0.14421800  0.79551800  1
  S  S24  1  0.47584200  0.85578200  0.20448200  1
  S  S25  1  0.14319300  0.52201500  0.53830600  1
  S  S26  1  0.80732400  0.19042000  0.86958100  1
  S  S27  1  0.71933700  0.98242000  0.08488700  1
  S  S28  1  0.38988100  0.64819000  0.41770100  1
  S  S29  1  0.05662500  0.31411100  0.75112000  1
  S  S30  1  0.16655400  0.40824800  0.33347100  1
  S  S31  1  0.83330300  0.07469200  0.66681900  1
  S  S32  1  0.49960800  0.74138600  0.99980300  1
  S  S33  1  0.41395700  0.54048800  0.21239500  1
  S  S34  1  0.07984500  0.20712200  0.54629300  1
  S  S35  1  0.74766300  0.87449000  0.87953700  1
  S  S36  1  0.75315100  0.62584800  0.12028800  1
  S  S37  1  0.41977300  0.29276500  0.45434900  1
  S  S38  1  0.08795200  0.95966000  0.78471500  1
  S  S39  1  0.00002600  0.76260000  0.00004400  1
  S  S40  1  0.66650700  0.42503500  0.33325800  1
  S  S41  1  0.33302100  0.09200000  0.66681300  1
  S  S42  1  0.44419500  0.18467400  0.24920800  1
  S  S43  1  0.10972900  0.85174900  0.58240800  1
  S  S44  1  0.77733000  0.51877900  0.91567200  1
  S  S45  1  0.69093600  0.31045000  0.12816500  1
  S  S46  1  0.35740400  0.97759700  0.46163400  1
  S  S47  1  0.02393300  0.64391700  0.79535700  1
loop_
_geom_bond_atom_site_label_1
_geom_bond_atom_site_label_2
_geom_bond_distance
_geom_bond_site_symmetry_2
Mo0 S39 2.408065 1_655
Mo0 S36 2.454150 1_555
Mo0 S0 2.489602 1_555
Mo0 S3 2.506288 1_655
Mo0 S18 2.562492 1_555
Mo1 S40 2.396301 1_555
Mo1 S37 2.447448 1_555
Mo1 S1 2.469407 1_555
Mo1 S4 2.518493 1_555
Mo1 S19 2.564783 1_555
Mo2 S41 2.401394 1_565
Mo2 S38 2.436149 1_555
Mo2 S2 2.467953 1_555
Mo2 S5 2.515378 1_555
Mo2 S20 2.522255 1_565
Mo3 S40 2.398294 1_555
Mo3 S4 2.449904 1_555
Mo3 S9 2.451979 1_555
Mo3 S45 2.518752 1_555
Mo3 S0 2.560167 1_555
Mo4 S41 2.398575 1_565
Mo4 S5 2.444903 1_555
Mo4 S10 2.473825 1_555
Mo4 S46 2.513818 1_555
Mo4 S1 2.562594 1_565
Mo5 S39 2.408656 1_556
Mo5 S3 2.454274 1_556
Mo5 S11 2.489471 1_555
Mo5 S47 2.506868 1_555
Mo5 S2 2.560525 1_555
Mo6 S8 2.409148 1_454
Mo6 S0 2.455060 1_455
Mo6 S3 2.489324 1_555
Mo6 S11 2.504644 1_554
Mo6 S12 2.557980 1_555
Mo7 S6 2.397866 1_545
Mo7 S1 2.456965 1_555
Mo7 S9 2.475228 1_555
Mo7 S4 2.476622 1_555
Mo7 S13 2.548565 1_545
Mo8 S7 2.394706 1_555
Mo8 S2 2.451022 1_555
Mo8 S5 2.468113 1_555
Mo8 S10 2.522453 1_555
Mo8 S14 2.561979 1_555
Mo9 S16 2.401972 1_555
Mo9 S21 2.436755 1_555
Mo9 S18 2.467359 1_455
Mo9 S13 2.517467 1_455
Mo9 S9 2.522421 1_465
Mo10 S17 2.396862 1_555
Mo10 S22 2.448666 1_555
Mo10 S19 2.470814 1_555
Mo10 S14 2.517909 1_555
Mo10 S10 2.570956 1_555
Mo11 S15 2.401533 1_556
Mo11 S23 2.445303 1_555
Mo11 S20 2.454900 1_555
Mo11 S12 2.517556 1_556
Mo11 S11 2.559497 1_555
Mo12 S15 2.395686 1_555
Mo12 S12 2.459812 1_555
Mo12 S24 2.472159 1_545
Mo12 S27 2.475442 1_545
Mo12 S42 2.547486 1_555
Mo13 S16 2.398376 1_555
Mo13 S13 2.443937 1_455
Mo13 S25 2.472698 1_555
Mo13 S28 2.515349 1_555
Mo13 S43 2.564426 1_555
Mo14 S17 2.399150 1_555
Mo14 S14 2.450077 1_555
Mo14 S26 2.453104 1_555
Mo14 S29 2.519634 1_655
Mo14 S44 2.557658 1_555
Mo15 S32 2.402337 1_554
Mo15 S20 2.435733 1_564
Mo15 S12 2.464816 1_565
Mo15 S24 2.513876 1_555
Mo15 S21 2.524175 1_555
Mo16 S30 2.395207 1_555
Mo16 S18 2.450371 1_455
Mo16 S13 2.468672 1_455
Mo16 S25 2.521188 1_555
Mo16 S22 2.564153 1_455
Mo17 S31 2.397390 1_555
Mo17 S19 2.456616 1_555
Mo17 S26 2.473262 1_555
Mo17 S14 2.475191 1_555
Mo17 S23 2.546133 1_555
Mo18 S16 2.397390 1_555
Mo18 S28 2.456616 1_555
Mo18 S21 2.473262 1_555
Mo18 S33 2.475191 1_555
Mo18 S24 2.546133 1_555
Mo19 S17 2.395207 1_555
Mo19 S29 2.450371 1_655
Mo19 S34 2.468672 1_655
Mo19 S22 2.521188 1_555
Mo19 S25 2.564153 1_655
Mo20 S15 2.402337 1_556
Mo20 S27 2.435733 1_546
Mo20 S35 2.464816 1_545
Mo20 S23 2.513876 1_555
Mo20 S26 2.524175 1_555
Mo21 S30 2.399150 1_555
Mo21 S33 2.450077 1_555
Mo21 S21 2.453104 1_555
Mo21 S18 2.519634 1_455
Mo21 S3 2.557658 1_555
Mo22 S31 2.398376 1_555
Mo22 S34 2.443937 1_655
Mo22 S22 2.472698 1_555
Mo22 S19 2.515349 1_555
Mo22 S4 2.564426 1_555
Mo23 S32 2.395686 1_555
Mo23 S35 2.459812 1_555
Mo23 S23 2.472159 1_565
Mo23 S20 2.475442 1_565
Mo23 S5 2.547486 1_555
Mo24 S32 2.401533 1_554
Mo24 S24 2.445303 1_555
Mo24 S27 2.454900 1_555
Mo24 S35 2.517556 1_554
Mo24 S36 2.559497 1_555
Mo25 S30 2.396862 1_555
Mo25 S25 2.448666 1_555
Mo25 S28 2.470814 1_555
Mo25 S33 2.517909 1_555
Mo25 S37 2.570956 1_555
Mo26 S31 2.401972 1_555
Mo26 S26 2.436755 1_555
Mo26 S29 2.467359 1_655
Mo26 S34 2.517467 1_655
Mo26 S38 2.522421 1_645
Mo27 S40 2.394706 1_555
Mo27 S45 2.451022 1_555
Mo27 S42 2.468113 1_555
Mo27 S37 2.522453 1_555
Mo27 S33 2.561979 1_555
Mo28 S41 2.397866 1_565
Mo28 S46 2.456965 1_555
Mo28 S38 2.475228 1_555
Mo28 S43 2.476622 1_555
Mo28 S34 2.548565 1_565
Mo29 S39 2.409148 1_656
Mo29 S47 2.455060 1_655
Mo29 S44 2.489324 1_555
Mo29 S36 2.504644 1_556
Mo29 S35 2.557980 1_555
Mo30 S8 2.408656 1_554
Mo30 S44 2.454274 1_554
Mo30 S36 2.489471 1_555
Mo30 S0 2.506868 1_555
Mo30 S45 2.560525 1_555
Mo31 S6 2.398575 1_545
Mo31 S42 2.444903 1_555
Mo31 S37 2.473825 1_555
Mo31 S1 2.513818 1_555
Mo31 S46 2.562594 1_545
Mo32 S7 2.398294 1_555
Mo32 S43 2.449904 1_555
Mo32 S38 2.451979 1_555
Mo32 S2 2.518752 1_555
Mo32 S47 2.560167 1_555
Mo33 S6 2.401394 1_545
Mo33 S9 2.436149 1_555
Mo33 S45 2.467953 1_555
Mo33 S42 2.515378 1_555
Mo33 S27 2.522255 1_545
Mo34 S7 2.396301 1_555
Mo34 S10 2.447448 1_555
Mo34 S46 2.469407 1_555
Mo34 S43 2.518493 1_555
Mo34 S28 2.564783 1_555
Mo35 S8 2.408065 1_455
Mo35 S11 2.454150 1_555
Mo35 S47 2.489602 1_555
Mo35 S44 2.506288 1_455
Mo35 S29 2.562492 1_555
S0 Sn3 3.116053 1_655
S1 Sn4 3.118746 1_545
S2 Sn2 3.117432 1_556
S3 Sn2 3.122367 1_555
S4 Sn3 3.108640 1_655
S5 Sn4 3.123959 1_555
S6 Sn0 2.763927 1_555
S7 Sn1 2.771035 1_555
S10 Sn0 3.111725 1_555
S11 Sn1 3.122984 1_555
S12 Sn3 3.118936 1_555
S13 Sn4 3.123063 1_555
S14 Sn2 3.112611 1_556
S15 Sn2 2.763361 1_555
S16 Sn3 2.763584 1_565
S17 Sn4 2.770124 1_555
S18 Sn0 3.115008 1_555
S19 Sn1 3.118254 1_555
S22 Sn0 3.109433 1_555
S23 Sn1 3.122316 1_555
S24 Sn0 3.122316 1_555
S25 Sn1 3.109433 1_555
S28 Sn0 3.118254 1_555
S29 Sn1 3.115008 1_555
S30 Sn3 2.770124 1_555
S31 Sn4 2.763584 1_545
S32 Sn2 2.763361 1_556
S33 Sn2 3.112611 1_555
S34 Sn3 3.123063 1_555
S35 Sn4 3.118936 1_555
S36 Sn0 3.122984 1_555
S37 Sn1 3.111725 1_555
S40 Sn0 2.771035 1_555
S41 Sn1 2.763927 1_555
S42 Sn3 3.123959 1_555
S43 Sn4 3.108640 1_455
S44 Sn2 3.122367 1_556
S45 Sn2 3.117432 1_555
S46 Sn3 3.118746 1_565
S47 Sn4 3.116053 1_455
