# generated using pymatgen
data_Na2S
_symmetry_space_group_name_H-M   'P 1'
_cell_length_a   4.59499800
_cell_length_b   4.59499879
_cell_length_c   4.59499800
_cell_angle_alpha   60.00000565
_cell_angle_beta   60.00000001
_cell_angle_gamma   60.00000149
_symmetry_Int_Tables_number   1
_chemical_formula_structural   Na2S
_chemical_formula_sum   'Na2 S1'
_cell_volume   68.60267970
_cell_formula_units_Z   1
loop_
 _symmetry_equiv_pos_site_id
 _symmetry_equiv_pos_as_xyz
  1  'x, y, z'
loop_
 _atom_site_type_symbol
 _atom_site_label
 _atom_site_symmetry_multiplicity
 _atom_site_fract_x
 _atom_site_fract_y
 _atom_site_fract_z
 _atom_site_occupancy
  Na  Na0  1  0.25000000  0.25000000  0.25000000  1
  Na  Na1  1  0.75000000  0.75000000  0.75000000  1
  S  S0  1  0.00000000  0.00000000  0.00000000  1
loop_
_geom_bond_atom_site_label_1
_geom_bond_atom_site_label_2
_geom_bond_distance
_geom_bond_site_symmetry_2
Na0 S0 2.813850 1_655
Na0 S0 2.813850 1_556
Na0 S0 2.813850 1_555
Na0 S0 2.813851 1_565
Na1 S0 2.813850 1_566
Na1 S0 2.813850 1_665
Na1 S0 2.813850 1_666
Na1 S0 2.813851 1_656
