# generated using pymatgen
data_Nb4Co2PdSe12
_symmetry_space_group_name_H-M   'P 1'
_cell_length_a   6.91668127
_cell_length_b   6.91668127
_cell_length_c   19.37395128
_cell_angle_alpha   72.43083978
_cell_angle_beta   72.43083978
_cell_angle_gamma   28.76547212
_symmetry_Int_Tables_number   1
_chemical_formula_structural   Nb4Co2PdSe12
_chemical_formula_sum   'Nb4 Co2 Pd1 Se12'
_cell_volume   423.81853936
_cell_formula_units_Z   1
loop_
 _symmetry_equiv_pos_site_id
 _symmetry_equiv_pos_as_xyz
  1  'x, y, z'
loop_
 _atom_site_type_symbol
 _atom_site_label
 _atom_site_symmetry_multiplicity
 _atom_site_fract_x
 _atom_site_fract_y
 _atom_site_fract_z
 _atom_site_occupancy
  Nb  Nb0  1  0.74341100  0.74341100  0.59528300  1
  Nb  Nb1  1  0.25658900  0.25658900  0.40471700  1
  Nb  Nb2  1  0.62043100  0.62043100  0.85107400  1
  Nb  Nb3  1  0.37956900  0.37956900  0.14892600  1
  Co  Co0  1  0.77236200  0.77236200  0.28307400  1
  Co  Co1  1  0.22763800  0.22763800  0.71692600  1
  Pd  Pd0  1  0.00000000  0.00000000  0.00000000  1
  Se  Se0  1  0.86966600  0.86966600  0.45417000  1
  Se  Se1  1  0.03478700  0.03478700  0.11835500  1
  Se  Se2  1  0.80947900  0.80947900  0.76679600  1
  Se  Se3  1  0.40016100  0.40016100  0.28107100  1
  Se  Se4  1  0.19024200  0.19024200  0.92749400  1
  Se  Se5  1  0.59983900  0.59983900  0.71892900  1
  Se  Se6  1  0.13033400  0.13033400  0.54583000  1
  Se  Se7  1  0.80975800  0.80975800  0.07250600  1
  Se  Se8  1  0.37679800  0.37679800  0.61255700  1
  Se  Se9  1  0.96521300  0.96521300  0.88164500  1
  Se  Se10  1  0.19052100  0.19052100  0.23320400  1
  Se  Se11  1  0.62320200  0.62320200  0.38744300  1
loop_
_geom_bond_atom_site_label_1
_geom_bond_atom_site_label_2
_geom_bond_distance
_geom_bond_site_symmetry_2
Nb0 Se5 2.562682 1_555
Nb0 Se8 2.575130 1_565
Nb0 Se8 2.575130 1_655
Nb0 Se6 2.659028 1_565
Nb0 Se6 2.659028 1_655
Nb0 Se0 2.730165 1_555
Nb1 Se3 2.562682 1_555
Nb1 Se11 2.575130 1_545
Nb1 Se11 2.575130 1_455
Nb1 Se0 2.659028 1_455
Nb1 Se0 2.659028 1_545
Nb1 Se6 2.730165 1_555
Nb2 Se2 2.550544 1_555
Nb2 Se9 2.619314 1_455
Nb2 Se9 2.619314 1_545
Nb2 Se4 2.623385 1_565
Nb2 Se4 2.623385 1_655
Nb2 Se5 2.659114 1_555
Nb3 Se10 2.550544 1_555
Nb3 Se1 2.619314 1_565
Nb3 Se1 2.619314 1_655
Nb3 Se7 2.623385 1_455
Nb3 Se7 2.623385 1_545
Nb3 Se3 2.659114 1_555
Co0 Se11 2.358953 1_555
Co0 Se10 2.397572 1_565
Co0 Se10 2.397572 1_655
Co0 Se3 2.417543 1_565
Co0 Se3 2.417543 1_655
Co1 Se8 2.358953 1_555
Co1 Se2 2.397572 1_455
Co1 Se2 2.397572 1_545
Co1 Se5 2.417543 1_545
Co1 Se5 2.417543 1_455
Pd0 Se1 2.478168 1_555
Pd0 Se9 2.478168 1_444
Pd0 Se4 2.497978 1_554
Pd0 Se7 2.497978 1_445
