# generated using pymatgen
data_Mg4(BiO2)9
_symmetry_space_group_name_H-M   'P 1'
_cell_length_a   8.71322100
_cell_length_b   8.78750754
_cell_length_c   8.85214366
_cell_angle_alpha   110.54831963
_cell_angle_beta   110.64067179
_cell_angle_gamma   106.73113390
_symmetry_Int_Tables_number   1
_chemical_formula_structural   Mg4(BiO2)9
_chemical_formula_sum   'Mg4 Bi9 O18'
_cell_volume   524.32240299
_cell_formula_units_Z   1
loop_
 _symmetry_equiv_pos_site_id
 _symmetry_equiv_pos_as_xyz
  1  'x, y, z'
loop_
 _atom_site_type_symbol
 _atom_site_label
 _atom_site_symmetry_multiplicity
 _atom_site_fract_x
 _atom_site_fract_y
 _atom_site_fract_z
 _atom_site_occupancy
  Mg  Mg0  1  0.28596500  0.09385100  0.81019200  1
  Mg  Mg1  1  0.91826600  0.20741100  0.72041200  1
  Mg  Mg2  1  0.18938000  0.31169600  0.51491000  1
  Mg  Mg3  1  0.69895700  0.89234600  0.19263300  1
  Bi  Bi0  1  0.49143700  0.15839500  0.31227300  1
  Bi  Bi1  1  0.00525500  0.03558700  0.03421800  1
  Bi  Bi2  1  0.70055300  0.48828900  0.81165000  1
  Bi  Bi3  1  0.75805700  0.29631100  0.11387500  1
  Bi  Bi4  1  0.20045900  0.65173000  0.82768000  1
  Bi  Bi5  1  0.40247100  0.53317300  0.18782700  1
  Bi  Bi6  1  0.88539400  0.74542000  0.53121700  1
  Bi  Bi7  1  0.13913800  0.79839000  0.29568200  1
  Bi  Bi8  1  0.49719400  0.83139900  0.68037000  1
  O  O0  1  0.59729200  0.99903400  0.00636100  1
  O  O1  1  0.71536300  0.27282800  0.61685500  1
  O  O2  1  0.54051100  0.27816800  0.88763400  1
  O  O3  1  0.91655800  0.20228000  0.94391900  1
  O  O4  1  0.63051000  0.38736000  0.29406900  1
  O  O5  1  0.11608500  0.36980900  0.71074800  1
  O  O6  1  0.99972200  0.59884500  0.98755100  1
  O  O7  1  0.36136100  0.59547500  0.68689400  1
  O  O8  1  0.86512300  0.67686300  0.24767200  1
  O  O9  1  0.34917600  0.28081600  0.41007700  1
  O  O10  1  0.27568700  0.63232900  0.34108600  1
  O  O11  1  0.42885900  0.72035400  0.07832500  1
  O  O12  1  0.65314700  0.78492700  0.39924000  1
  O  O13  1  0.23843400  0.86154900  0.60839000  1
  O  O14  1  0.95575700  0.07922200  0.28143600  1
  O  O15  1  0.25064600  0.05347900  0.01017000  1
  O  O16  1  0.78955600  0.77198800  0.78886600  1
  O  O17  1  0.02368400  0.03567600  0.66276800  1
loop_
_geom_bond_atom_site_label_1
_geom_bond_atom_site_label_2
_geom_bond_distance
_geom_bond_site_symmetry_2
Mg0 O17 1.985818 1_555
Mg0 O13 1.990361 1_545
Mg0 O2 2.023061 1_555
Mg0 O15 2.028886 1_556
Mg1 O5 1.946333 1_655
Mg1 O17 1.992359 1_655
Mg1 O3 1.999944 1_555
Mg1 O1 2.027039 1_555
Mg2 O9 1.955790 1_555
Mg2 O5 2.005195 1_555
Mg2 O14 2.065000 1_455
Mg2 O7 2.087309 1_555
Mg3 O11 2.011555 1_555
Mg3 O14 2.014807 1_565
Mg3 O0 2.217233 1_555
Mg3 O12 2.430008 1_555
Bi0 O9 2.076991 1_555
Bi0 O4 2.122293 1_555
Bi0 O1 2.312107 1_555
Bi0 O15 2.367145 1_555
Bi1 O3 2.102411 1_454
Bi1 O16 2.167703 1_444
Bi1 O15 2.189187 1_555
Bi1 O14 2.300812 1_455
Bi2 O1 2.140218 1_555
Bi2 O6 2.186730 1_555
Bi2 O2 2.420117 1_555
Bi2 O16 2.491438 1_555
Bi3 O2 2.134199 1_554
Bi3 O0 2.213621 1_545
Bi3 O4 2.299005 1_555
Bi3 O3 2.470370 1_554
Bi4 O5 2.089031 1_555
Bi4 O11 2.122205 1_556
Bi4 O7 2.227427 1_555
Bi4 O6 2.648922 1_455
Bi5 O12 2.144047 1_555
Bi5 O10 2.145020 1_555
Bi5 O11 2.180974 1_555
Bi5 O4 2.732883 1_555
Bi6 O17 2.114193 1_665
Bi6 O12 2.145436 1_555
Bi6 O8 2.293212 1_555
Bi6 O16 2.652323 1_555
Bi6 O13 2.681836 1_655
Bi6 O4 2.700417 1_555
Bi7 O8 2.125907 1_455
Bi7 O10 2.186504 1_555
Bi7 O6 2.251744 1_454
Bi7 O13 2.382375 1_555
Bi8 O7 2.102782 1_555
Bi8 O13 2.238119 1_555
Bi8 O0 2.399956 1_556
Bi8 O10 2.467122 1_555
Bi8 O16 2.660288 1_555
