# generated using pymatgen
data_Eu(GePt)2
_symmetry_space_group_name_H-M   'P 1'
_cell_length_a   4.72310000
_cell_length_b   9.37373500
_cell_length_c   10.30099956
_cell_angle_alpha   88.74359154
_cell_angle_beta   90.00000000
_cell_angle_gamma   90.00000000
_symmetry_Int_Tables_number   1
_chemical_formula_structural   Eu(GePt)2
_chemical_formula_sum   'Eu4 Ge8 Pt8'
_cell_volume   455.94741277
_cell_formula_units_Z   4
loop_
 _symmetry_equiv_pos_site_id
 _symmetry_equiv_pos_as_xyz
  1  'x, y, z'
loop_
 _atom_site_type_symbol
 _atom_site_label
 _atom_site_symmetry_multiplicity
 _atom_site_fract_x
 _atom_site_fract_y
 _atom_site_fract_z
 _atom_site_occupancy
  Eu  Eu0  1  0.75848000  0.62984500  0.75490600  1
  Eu  Eu1  1  0.74152000  0.12984500  0.75490600  1
  Eu  Eu2  1  0.25848000  0.87015500  0.24509400  1
  Eu  Eu3  1  0.24152000  0.37015500  0.24509400  1
  Ge  Ge0  1  0.73551100  0.37400200  0.99938700  1
  Ge  Ge1  1  0.68857600  0.10847700  0.38217800  1
  Ge  Ge2  1  0.31142400  0.89152300  0.61782200  1
  Ge  Ge3  1  0.26448900  0.62599800  0.00061300  1
  Ge  Ge4  1  0.76448900  0.87400200  0.99938700  1
  Ge  Ge5  1  0.18857600  0.39152300  0.61782200  1
  Ge  Ge6  1  0.23551100  0.12599800  0.00061300  1
  Ge  Ge7  1  0.81142400  0.60847700  0.38217800  1
  Pt  Pt0  1  0.17626400  0.14080800  0.49993400  1
  Pt  Pt1  1  0.23692500  0.37892400  0.87522000  1
  Pt  Pt2  1  0.76307500  0.62107600  0.12478000  1
  Pt  Pt3  1  0.82373600  0.85919200  0.50006600  1
  Pt  Pt4  1  0.67626400  0.35919200  0.50006600  1
  Pt  Pt5  1  0.73692500  0.12107600  0.12478000  1
  Pt  Pt6  1  0.32373600  0.64080800  0.49993400  1
  Pt  Pt7  1  0.26307500  0.87892400  0.87522000  1
loop_
_geom_bond_atom_site_label_1
_geom_bond_atom_site_label_2
_geom_bond_distance
_geom_bond_site_symmetry_2
Eu0 Pt6 3.333655 1_555
Eu0 Ge5 3.354029 1_655
Eu0 Pt3 3.370533 1_555
Eu0 Ge4 3.440040 1_555
Eu0 Ge0 3.441021 1_555
Eu0 Ge3 3.441958 1_556
Eu0 Pt1 3.470854 1_655
Eu0 Ge3 3.480685 1_656
Eu0 Ge2 3.509593 1_555
Eu0 Pt7 3.548109 1_555
Eu0 Pt7 3.576882 1_655
Eu0 Pt1 3.606731 1_555
Eu0 Pt4 3.710870 1_555
Eu0 Pt6 3.744953 1_655
Eu0 Ge5 3.790555 1_555
Eu0 Pt2 3.809218 1_556
Eu0 Ge2 3.831365 1_655
Eu0 Ge7 3.857190 1_555
Eu1 Pt0 3.333655 1_655
Eu1 Ge2 3.354029 1_545
Eu1 Pt4 3.370533 1_555
Eu1 Ge0 3.440040 1_555
Eu1 Ge4 3.441021 1_545
Eu1 Ge6 3.441958 1_656
Eu1 Pt7 3.470854 1_545
Eu1 Ge6 3.480685 1_556
Eu1 Ge5 3.509593 1_655
Eu1 Pt1 3.548109 1_655
Eu1 Pt1 3.576882 1_555
Eu1 Pt7 3.606731 1_645
Eu1 Pt3 3.710870 1_545
Eu1 Pt0 3.744953 1_555
Eu1 Ge2 3.790555 1_645
Eu1 Pt5 3.809218 1_556
Eu1 Ge5 3.831365 1_555
Eu1 Ge1 3.857190 1_555
Eu2 Pt3 3.333655 1_455
Eu2 Ge1 3.354029 1_565
Eu2 Pt6 3.370533 1_555
Eu2 Ge3 3.440040 1_555
Eu2 Ge6 3.441021 1_565
Eu2 Ge4 3.441958 1_454
Eu2 Pt5 3.470854 1_565
Eu2 Ge4 3.480685 1_554
Eu2 Ge7 3.509593 1_455
Eu2 Pt2 3.548109 1_455
Eu2 Pt2 3.576882 1_555
Eu2 Pt5 3.606731 1_465
Eu2 Pt0 3.710870 1_565
Eu2 Pt3 3.744953 1_555
Eu2 Ge1 3.790555 1_465
Eu2 Pt7 3.809218 1_554
Eu2 Ge7 3.831365 1_555
Eu2 Ge2 3.857190 1_555
Eu3 Pt4 3.333655 1_555
Eu3 Ge7 3.354029 1_455
Eu3 Pt0 3.370533 1_555
Eu3 Ge6 3.440040 1_555
Eu3 Ge3 3.441021 1_555
Eu3 Ge0 3.441958 1_554
Eu3 Pt2 3.470854 1_455
Eu3 Ge0 3.480685 1_454
Eu3 Ge1 3.509593 1_555
Eu3 Pt5 3.548109 1_555
Eu3 Pt5 3.576882 1_455
Eu3 Pt2 3.606731 1_555
Eu3 Pt6 3.710870 1_555
Eu3 Pt4 3.744953 1_455
Eu3 Ge7 3.790555 1_555
Eu3 Pt1 3.809218 1_554
Eu3 Ge1 3.831365 1_455
Eu3 Ge5 3.857190 1_555
Ge0 Pt5 2.674912 1_556
Ge0 Pt2 2.679635 1_556
Ge0 Pt1 2.679723 1_555
Ge0 Pt1 2.691468 1_655
Ge1 Pt0 2.623928 1_655
Ge1 Pt5 2.661313 1_555
Ge1 Pt4 2.669523 1_555
Ge1 Pt3 2.686648 1_545
Ge1 Pt0 2.726591 1_555
Ge2 Pt3 2.623928 1_455
Ge2 Pt7 2.661313 1_555
Ge2 Pt6 2.669523 1_555
Ge2 Pt0 2.686648 1_565
Ge2 Pt3 2.726591 1_555
Ge3 Pt7 2.674912 1_554
Ge3 Pt1 2.679635 1_554
Ge3 Pt2 2.679723 1_555
Ge3 Pt2 2.691468 1_455
Ge4 Pt2 2.674912 1_556
Ge4 Pt5 2.679635 1_566
Ge4 Pt7 2.679723 1_655
Ge4 Pt7 2.691468 1_555
Ge5 Pt4 2.623928 1_555
Ge5 Pt1 2.661313 1_555
Ge5 Pt0 2.669523 1_555
Ge5 Pt6 2.686648 1_555
Ge5 Pt4 2.726591 1_455
Ge6 Pt1 2.674912 1_554
Ge6 Pt7 2.679635 1_544
Ge6 Pt5 2.679723 1_455
Ge6 Pt5 2.691468 1_555
Ge7 Pt6 2.623928 1_555
Ge7 Pt2 2.661313 1_555
Ge7 Pt3 2.669523 1_555
Ge7 Pt4 2.686648 1_555
Ge7 Pt6 2.726591 1_655
