# generated using pymatgen
data_CdI2
_symmetry_space_group_name_H-M   'P 1'
_cell_length_a   4.28574424
_cell_length_b   4.28574412
_cell_length_c   64.28903906
_cell_angle_alpha   90.00000000
_cell_angle_beta   90.00000000
_cell_angle_gamma   119.99998491
_symmetry_Int_Tables_number   1
_chemical_formula_structural   CdI2
_chemical_formula_sum   'Cd9 I18'
_cell_volume   1022.63374607
_cell_formula_units_Z   9
loop_
 _symmetry_equiv_pos_site_id
 _symmetry_equiv_pos_as_xyz
  1  'x, y, z'
loop_
 _atom_site_type_symbol
 _atom_site_label
 _atom_site_symmetry_multiplicity
 _atom_site_fract_x
 _atom_site_fract_y
 _atom_site_fract_z
 _atom_site_occupancy
  Cd  Cd0  1  0.00000000  -0.00000000  0.80565390  1
  Cd  Cd1  1  0.00000000  -0.00000000  0.91637777  1
  Cd  Cd2  1  0.00000000  -0.00000000  0.58363650  1
  Cd  Cd3  1  0.33333300  0.66666700  0.69464080  1
  Cd  Cd4  1  0.66666700  0.33333300  0.02754510  1
  Cd  Cd5  1  0.00000000  -0.00000000  0.13902101  1
  Cd  Cd6  1  0.00000000  -0.00000000  0.36100099  1
  Cd  Cd7  1  0.66666700  0.33333300  0.47211483  1
  Cd  Cd8  1  0.66666700  0.33333300  0.25000645  1
  I  I0  1  0.00000000  -0.00000000  0.22308619  1
  I  I1  1  0.66666700  0.33333300  0.33425591  1
  I  I2  1  0.66666700  0.33333300  0.55687798  1
  I  I3  1  0.00000000  -0.00000000  0.72156439  1
  I  I4  1  0.00000000  -0.00000000  0.44538859  1
  I  I5  1  0.33333300  0.66666700  0.27692154  1
  I  I6  1  0.33333300  0.66666700  0.05431671  1
  I  I7  1  0.33333300  0.66666700  0.61039398  1
  I  I8  1  0.66666700  0.33333300  0.88961437  1
  I  I9  1  0.33333300  0.66666700  0.94313163  1
  I  I10  1  0.66666700  0.33333300  0.11223189  1
  I  I11  1  0.00000000  -0.00000000  0.00079897  1
  I  I12  1  0.33333300  0.66666700  0.16577762  1
  I  I13  1  0.66666700  0.33333300  0.77889500  1
  I  I14  1  0.33333300  0.66666700  0.38776518  1
  I  I15  1  0.33333300  0.66666700  0.83241395  1
  I  I16  1  0.66666700  0.33333300  0.66773254  1
  I  I17  1  0.33333300  0.66666700  0.49883921  1
loop_
_geom_bond_atom_site_label_1
_geom_bond_atom_site_label_2
_geom_bond_distance
_geom_bond_site_symmetry_2
Cd0 I13 3.013630 1_455
Cd0 I13 3.013634 1_445
Cd0 I13 3.013634 1_555
Cd0 I15 3.013672 1_545
Cd0 I15 3.013676 1_555
Cd0 I15 3.013676 1_445
Cd1 I9 3.013445 1_545
Cd1 I9 3.013449 1_555
Cd1 I9 3.013449 1_445
Cd1 I8 3.013795 1_455
Cd1 I8 3.013799 1_445
Cd1 I8 3.013799 1_555
Cd2 I7 3.013578 1_545
Cd2 I7 3.013582 1_555
Cd2 I7 3.013582 1_445
Cd2 I2 3.013616 1_455
Cd2 I2 3.013620 1_445
Cd2 I2 3.013620 1_555
Cd3 I16 3.019122 1_565
Cd3 I16 3.019122 1_455
Cd3 I16 3.019128 1_555
Cd3 I3 3.019687 1_565
Cd3 I3 3.019690 1_555
Cd3 I3 3.019690 1_665
Cd4 I11 3.013162 1_655
Cd4 I11 3.013165 1_665
Cd4 I11 3.013165 1_555
Cd4 I6 3.014097 1_545
Cd4 I6 3.014097 1_655
Cd4 I6 3.014103 1_555
Cd5 I12 3.013546 1_545
Cd5 I12 3.013550 1_555
Cd5 I12 3.013550 1_445
Cd5 I10 3.014740 1_455
Cd5 I10 3.014743 1_445
Cd5 I10 3.014743 1_555
Cd6 I1 3.013123 1_455
Cd6 I1 3.013127 1_445
Cd6 I1 3.013127 1_555
Cd6 I14 3.013824 1_545
Cd6 I14 3.013828 1_555
Cd6 I14 3.013828 1_445
Cd7 I17 3.012364 1_545
Cd7 I17 3.012364 1_655
Cd7 I17 3.012370 1_555
Cd7 I4 3.012432 1_655
Cd7 I4 3.012436 1_665
Cd7 I4 3.012436 1_555
Cd8 I5 3.019374 1_545
Cd8 I5 3.019374 1_655
Cd8 I5 3.019380 1_555
Cd8 I0 3.019564 1_655
Cd8 I0 3.019567 1_665
Cd8 I0 3.019567 1_555
