# generated using pymatgen
data_CuPt
_symmetry_space_group_name_H-M   'P 1'
_cell_length_a   9.05314718
_cell_length_b   9.05314718
_cell_length_c   9.05314774
_cell_angle_alpha   35.03000502
_cell_angle_beta   35.03000502
_cell_angle_gamma   35.02998753
_symmetry_Int_Tables_number   1
_chemical_formula_structural   CuPt
_chemical_formula_sum   'Cu8 Pt8'
_cell_volume   218.29621153
_cell_formula_units_Z   8
loop_
 _symmetry_equiv_pos_site_id
 _symmetry_equiv_pos_as_xyz
  1  'x, y, z'
loop_
 _atom_site_type_symbol
 _atom_site_label
 _atom_site_symmetry_multiplicity
 _atom_site_fract_x
 _atom_site_fract_y
 _atom_site_fract_z
 _atom_site_occupancy
  Cu  Cu0_0  1  0.00000000  0.00000000  0.00000000  1
  Cu  Cu0_1  1  0.00000000  0.00000000  0.50000000  1
  Cu  Cu0_2  1  0.00000000  0.50000000  0.00000000  1
  Cu  Cu0_3  1  0.00000000  0.50000000  0.50000000  1
  Cu  Cu0_4  1  0.50000000  0.00000000  0.00000000  1
  Cu  Cu0_5  1  0.50000000  0.00000000  0.50000000  1
  Cu  Cu0_6  1  0.50000000  0.50000000  0.00000000  1
  Cu  Cu0_7  1  0.50000000  0.50000000  0.50000000  1
  Pt  Pt0_0  1  0.25000000  0.25000000  0.25000000  1
  Pt  Pt0_1  1  0.25000000  0.25000000  0.75000000  1
  Pt  Pt0_2  1  0.25000000  0.75000000  0.25000000  1
  Pt  Pt0_3  1  0.25000000  0.75000000  0.75000000  1
  Pt  Pt0_4  1  0.75000000  0.25000000  0.25000000  1
  Pt  Pt0_5  1  0.75000000  0.25000000  0.75000000  1
  Pt  Pt0_6  1  0.75000000  0.75000000  0.25000000  1
  Pt  Pt0_7  1  0.75000000  0.75000000  0.75000000  1
loop_
_geom_bond_atom_site_label_1
_geom_bond_atom_site_label_2
_geom_bond_distance
_geom_bond_site_symmetry_2
Cu0_0 Pt0_3 2.641651 1_544
Cu0_0 Pt0_4 2.641651 1_455
Cu0_0 Pt0_2 2.641651 1_545
Cu0_0 Pt0_5 2.641651 1_454
Cu0_0 Pt0_1 2.641651 1_554
Cu0_0 Pt0_6 2.641651 1_445
Cu0_0 Cu0_6 2.724593 1_455
Cu0_0 Cu0_6 2.724593 1_545
Cu0_0 Cu0_3 2.724595 1_545
Cu0_0 Cu0_5 2.724595 1_455
Cu0_0 Cu0_3 2.724595 1_554
Cu0_0 Cu0_5 2.724595 1_554
Cu0_1 Pt0_5 2.641651 1_455
Cu0_1 Pt0_3 2.641651 1_545
Cu0_1 Pt0_4 2.641651 1_455
Cu0_1 Pt0_2 2.641651 1_545
Cu0_1 Pt0_7 2.641651 1_445
Cu0_1 Pt0_0 2.641651 1_555
Cu0_1 Cu0_7 2.724593 1_545
Cu0_1 Cu0_7 2.724593 1_455
Cu0_1 Cu0_4 2.724595 1_555
Cu0_1 Cu0_2 2.724595 1_555
Cu0_1 Cu0_4 2.724595 1_456
Cu0_1 Cu0_2 2.724595 1_546
Cu0_2 Pt0_7 2.641651 1_454
Cu0_2 Pt0_6 2.641651 1_455
Cu0_2 Pt0_0 2.641651 1_555
Cu0_2 Pt0_1 2.641651 1_554
Cu0_2 Pt0_4 2.641651 1_455
Cu0_2 Pt0_3 2.641651 1_554
Cu0_2 Cu0_4 2.724593 1_555
Cu0_2 Cu0_4 2.724593 1_465
Cu0_2 Cu0_7 2.724595 1_455
Cu0_2 Cu0_7 2.724595 1_554
Cu0_3 Pt0_1 2.641651 1_555
Cu0_3 Pt0_6 2.641651 1_455
Cu0_3 Pt0_0 2.641651 1_555
Cu0_3 Pt0_7 2.641651 1_455
Cu0_3 Pt0_2 2.641651 1_555
Cu0_3 Pt0_5 2.641651 1_455
Cu0_3 Cu0_5 2.724593 1_555
Cu0_3 Cu0_5 2.724593 1_465
Cu0_3 Cu0_6 2.724595 1_555
Cu0_3 Cu0_6 2.724595 1_456
Cu0_4 Pt0_7 2.641651 1_544
Cu0_4 Pt0_0 2.641651 1_555
Cu0_4 Pt0_6 2.641651 1_545
Cu0_4 Pt0_1 2.641651 1_554
Cu0_4 Pt0_2 2.641651 1_545
Cu0_4 Pt0_5 2.641651 1_554
Cu0_4 Cu0_7 2.724595 1_554
Cu0_4 Cu0_7 2.724595 1_545
Cu0_5 Pt0_1 2.641651 1_555
Cu0_5 Pt0_0 2.641651 1_555
Cu0_5 Pt0_6 2.641651 1_545
Cu0_5 Pt0_7 2.641651 1_545
Cu0_5 Pt0_4 2.641651 1_555
Cu0_5 Pt0_3 2.641651 1_545
Cu0_5 Cu0_6 2.724595 1_555
Cu0_5 Cu0_6 2.724595 1_546
Cu0_6 Pt0_3 2.641651 1_554
Cu0_6 Pt0_4 2.641651 1_555
Cu0_6 Pt0_5 2.641651 1_554
Cu0_6 Pt0_2 2.641651 1_555
Cu0_6 Pt0_0 2.641651 1_555
Cu0_6 Pt0_7 2.641651 1_554
Cu0_7 Pt0_4 2.641651 1_555
Cu0_7 Pt0_2 2.641651 1_555
Cu0_7 Pt0_5 2.641651 1_555
Cu0_7 Pt0_3 2.641651 1_555
Cu0_7 Pt0_6 2.641651 1_555
Cu0_7 Pt0_1 2.641651 1_555
Pt0_0 Pt0_6 2.724593 1_455
Pt0_0 Pt0_6 2.724593 1_545
Pt0_0 Pt0_3 2.724595 1_545
Pt0_0 Pt0_5 2.724595 1_455
Pt0_0 Pt0_3 2.724595 1_554
Pt0_0 Pt0_5 2.724595 1_554
Pt0_1 Pt0_7 2.724593 1_455
Pt0_1 Pt0_7 2.724593 1_545
Pt0_1 Pt0_2 2.724595 1_546
Pt0_1 Pt0_4 2.724595 1_555
Pt0_1 Pt0_4 2.724595 1_456
Pt0_1 Pt0_2 2.724595 1_555
Pt0_2 Pt0_4 2.724593 1_465
Pt0_2 Pt0_4 2.724593 1_555
Pt0_2 Pt0_7 2.724595 1_455
Pt0_2 Pt0_7 2.724595 1_554
Pt0_3 Pt0_5 2.724593 1_555
Pt0_3 Pt0_5 2.724593 1_465
Pt0_3 Pt0_6 2.724595 1_555
Pt0_3 Pt0_6 2.724595 1_456
Pt0_4 Pt0_7 2.724595 1_554
Pt0_4 Pt0_7 2.724595 1_545
Pt0_5 Pt0_6 2.724595 1_555
Pt0_5 Pt0_6 2.724595 1_546
