# generated using pymatgen
data_K6Fe24S26Cl
_symmetry_space_group_name_H-M   'P 1'
_cell_length_a   12.15326441
_cell_length_b   12.15326441
_cell_length_c   12.15326441
_cell_angle_alpha   131.65042062
_cell_angle_beta   131.65042062
_cell_angle_gamma   70.78171304
_symmetry_Int_Tables_number   1
_chemical_formula_structural   K6Fe24S26Cl
_chemical_formula_sum   'K6 Fe24 S26 Cl1'
_cell_volume   981.67454645
_cell_formula_units_Z   1
loop_
 _symmetry_equiv_pos_site_id
 _symmetry_equiv_pos_as_xyz
  1  'x, y, z'
loop_
 _atom_site_type_symbol
 _atom_site_label
 _atom_site_symmetry_multiplicity
 _atom_site_fract_x
 _atom_site_fract_y
 _atom_site_fract_z
 _atom_site_occupancy
  K  K0  1  0.29941300  0.00000000  0.29941300  1
  K  K1  1  0.15366100  0.15366100  0.00000000  1
  K  K2  1  0.00000000  0.29941300  0.29941300  1
  K  K3  1  0.70058700  0.00000000  0.70058700  1
  K  K4  1  0.84633900  0.84633900  0.00000000  1
  K  K5  1  0.00000000  0.70058700  0.70058700  1
  Fe  Fe0  1  0.69722400  0.43491800  0.00000000  1
  Fe  Fe1  1  0.05311600  0.81555300  0.50133700  1
  Fe  Fe2  1  0.55177900  0.05311600  0.23756200  1
  Fe  Fe3  1  0.30277600  0.56508200  0.00000000  1
  Fe  Fe4  1  0.31421700  0.55177900  0.49866300  1
  Fe  Fe5  1  0.18444700  0.68578300  0.23756200  1
  Fe  Fe6  1  0.94688400  0.44822100  0.76243800  1
  Fe  Fe7  1  0.44822100  0.68578300  0.50133700  1
  Fe  Fe8  1  0.55177900  0.31421700  0.49866300  1
  Fe  Fe9  1  0.31421700  0.81555300  0.76243800  1
  Fe  Fe10  1  0.05311600  0.55177900  0.23756200  1
  Fe  Fe11  1  0.68578300  0.18444700  0.23756200  1
  Fe  Fe12  1  0.81555300  0.05311600  0.50133700  1
  Fe  Fe13  1  0.43491800  0.43491800  0.73769400  1
  Fe  Fe14  1  0.81555300  0.31421700  0.76243800  1
  Fe  Fe15  1  0.56508200  0.56508200  0.26230600  1
  Fe  Fe16  1  0.43491800  0.69722400  0.00000000  1
  Fe  Fe17  1  0.69722400  0.69722400  0.26230600  1
  Fe  Fe18  1  0.56508200  0.30277600  0.00000000  1
  Fe  Fe19  1  0.94688400  0.18444700  0.49866300  1
  Fe  Fe20  1  0.68578300  0.44822100  0.50133700  1
  Fe  Fe21  1  0.30277600  0.30277600  0.73769400  1
  Fe  Fe22  1  0.18444700  0.94688400  0.49866300  1
  Fe  Fe23  1  0.44822100  0.94688400  0.76243800  1
  S  S0  1  0.50493600  0.25092700  0.25400900  1
  S  S1  1  0.62452300  0.12452300  0.50000000  1
  S  S2  1  0.11744200  0.11744200  0.46691300  1
  S  S3  1  0.00308200  0.74907300  0.25400900  1
  S  S4  1  0.34947100  0.34947100  0.46691300  1
  S  S5  1  0.99691800  0.25092700  0.74599100  1
  S  S6  1  0.74907300  0.00308200  0.25400900  1
  S  S7  1  0.25092700  0.99691800  0.74599100  1
  S  S8  1  0.49506400  0.74907300  0.74599100  1
  S  S9  1  0.65052900  0.11744200  0.00000000  1
  S  S10  1  0.37547700  0.87547700  0.50000000  1
  S  S11  1  0.37630100  0.37630100  0.00000000  1
  S  S12  1  0.87547700  0.37547700  0.50000000  1
  S  S13  1  0.12452300  0.62452300  0.50000000  1
  S  S14  1  0.65052900  0.65052900  0.53308700  1
  S  S15  1  0.50000000  0.74829500  0.24829500  1
  S  S16  1  0.25170500  0.50000000  0.75170500  1
  S  S17  1  0.62369900  0.62369900  0.00000000  1
  S  S18  1  0.88255800  0.34947100  0.00000000  1
  S  S19  1  0.11744200  0.65052900  0.00000000  1
  S  S20  1  0.74907300  0.49506400  0.74599100  1
  S  S21  1  0.25092700  0.50493600  0.25400900  1
  S  S22  1  0.74829500  0.50000000  0.24829500  1
  S  S23  1  0.88255800  0.88255800  0.53308700  1
  S  S24  1  0.50000000  0.25170500  0.75170500  1
  S  S25  1  0.34947100  0.88255800  0.00000000  1
  Cl  Cl0  1  0.00000000  0.00000000  0.00000000  1
loop_
_geom_bond_atom_site_label_1
_geom_bond_atom_site_label_2
_geom_bond_distance
_geom_bond_site_symmetry_2
K0 S1 3.174100 1_555
K0 S10 3.174100 1_545
K0 S24 3.203759 1_555
K0 S15 3.203759 1_545
K0 S25 3.334060 1_545
K0 S4 3.334060 1_555
K0 S19 3.334060 1_545
K0 S2 3.334060 1_555
K1 S21 3.179237 1_555
K1 S0 3.179237 1_555
K1 S7 3.179237 1_544
K1 S5 3.179237 1_454
K1 S4 3.370003 1_555
K1 S25 3.370003 1_545
K1 S23 3.370003 1_444
K1 S18 3.370003 1_455
K2 S13 3.174100 1_555
K2 S12 3.174100 1_455
K2 S16 3.203759 1_555
K2 S22 3.203759 1_455
K2 S18 3.334060 1_455
K2 S4 3.334060 1_555
K2 S2 3.334060 1_555
K2 S9 3.334060 1_455
K3 S1 3.174100 1_555
K3 S10 3.174100 1_545
K3 S24 3.203759 1_555
K3 S15 3.203759 1_545
K3 S14 3.334060 1_545
K3 S23 3.334060 1_545
K3 S18 3.334060 1_556
K3 S9 3.334060 1_556
K4 S20 3.179237 1_554
K4 S8 3.179237 1_554
K4 S6 3.179237 1_565
K4 S3 3.179237 1_655
K4 S9 3.370003 1_565
K4 S19 3.370003 1_655
K4 S2 3.370003 1_665
K4 S14 3.370003 1_554
K5 S13 3.174100 1_555
K5 S12 3.174100 1_455
K5 S16 3.203759 1_555
K5 S22 3.203759 1_455
K5 S23 3.334060 1_455
K5 S14 3.334060 1_455
K5 S25 3.334060 1_556
K5 S19 3.334060 1_556
Fe0 S18 2.147531 1_555
Fe0 S17 2.170860 1_555
Fe0 S24 2.185866 1_554
Fe0 S22 2.185866 1_555
Fe1 S23 2.154736 1_455
Fe1 S3 2.173399 1_555
Fe1 S7 2.180611 1_555
Fe1 S13 2.187599 1_555
Fe2 S25 2.154737 1_545
Fe2 S6 2.173393 1_555
Fe2 S0 2.180605 1_555
Fe2 S1 2.187610 1_555
Fe3 S19 2.147531 1_555
Fe3 S11 2.170860 1_555
Fe3 S15 2.185866 1_555
Fe3 S16 2.185866 1_554
Fe4 S4 2.154737 1_555
Fe4 S8 2.173393 1_555
Fe4 S21 2.180605 1_555
Fe4 S13 2.187610 1_555
Fe5 S19 2.154731 1_555
Fe5 S21 2.173393 1_555
Fe5 S3 2.180617 1_555
Fe5 S10 2.187605 1_555
Fe6 S19 2.154737 1_656
Fe6 S5 2.173393 1_555
Fe6 S20 2.180605 1_555
Fe6 S12 2.187610 1_555
Fe7 S14 2.154737 1_555
Fe7 S21 2.173393 1_555
Fe7 S8 2.180605 1_555
Fe7 S10 2.187610 1_555
Fe8 S4 2.154737 1_555
Fe8 S20 2.173393 1_555
Fe8 S0 2.180605 1_555
Fe8 S1 2.187610 1_555
Fe9 S25 2.154731 1_556
Fe9 S8 2.173393 1_555
Fe9 S7 2.180617 1_555
Fe9 S13 2.187605 1_555
Fe10 S18 2.154737 1_455
Fe10 S3 2.173393 1_555
Fe10 S21 2.180605 1_555
Fe10 S13 2.187610 1_555
Fe11 S9 2.154731 1_555
Fe11 S0 2.173393 1_555
Fe11 S6 2.180617 1_555
Fe11 S12 2.187605 1_555
Fe12 S23 2.154736 1_545
Fe12 S6 2.173399 1_555
Fe12 S5 2.180611 1_555
Fe12 S1 2.187599 1_555
Fe13 S4 2.147531 1_555
Fe13 S17 2.170860 1_556
Fe13 S24 2.185866 1_555
Fe13 S16 2.185866 1_555
Fe14 S18 2.154731 1_556
Fe14 S20 2.173393 1_555
Fe14 S5 2.180617 1_555
Fe14 S1 2.187605 1_555
Fe15 S14 2.147531 1_555
Fe15 S11 2.170860 1_555
Fe15 S15 2.185866 1_555
Fe15 S22 2.185866 1_555
Fe16 S25 2.147531 1_555
Fe16 S17 2.170860 1_555
Fe16 S16 2.185866 1_554
Fe16 S15 2.185866 1_555
Fe17 S23 2.147531 1_555
Fe17 S17 2.170860 1_555
Fe17 S15 2.185866 1_555
Fe17 S22 2.185866 1_555
Fe18 S9 2.147531 1_555
Fe18 S11 2.170860 1_555
Fe18 S22 2.185866 1_555
Fe18 S24 2.185866 1_554
Fe19 S2 2.154736 1_655
Fe19 S5 2.173399 1_555
Fe19 S6 2.180611 1_555
Fe19 S12 2.187599 1_555
Fe20 S14 2.154737 1_555
Fe20 S0 2.173393 1_555
Fe20 S20 2.180605 1_555
Fe20 S12 2.187610 1_555
Fe21 S2 2.147531 1_555
Fe21 S11 2.170860 1_556
Fe21 S16 2.185866 1_555
Fe21 S24 2.185866 1_555
Fe22 S2 2.154736 1_565
Fe22 S7 2.173399 1_555
Fe22 S3 2.180611 1_555
Fe22 S10 2.187599 1_555
Fe23 S9 2.154737 1_566
Fe23 S7 2.173393 1_555
Fe23 S8 2.180605 1_555
Fe23 S10 2.187610 1_555
Cl0 K2 2.980372 1_555
Cl0 K0 2.980372 1_555
Cl0 K5 2.980372 1_544
Cl0 K3 2.980372 1_454
Cl0 K1 3.044819 1_555
Cl0 K4 3.044819 1_445
