# generated using pymatgen
data_BaNa2Al4(SiO4)4
_symmetry_space_group_name_H-M   'P 1'
_cell_length_a   10.73497896
_cell_length_b   10.73497896
_cell_length_c   10.07509731
_cell_angle_alpha   62.09484681
_cell_angle_beta   62.09484681
_cell_angle_gamma   47.54565893
_symmetry_Int_Tables_number   1
_chemical_formula_structural   BaNa2Al4(SiO4)4
_chemical_formula_sum   'Ba2 Na4 Al8 Si8 O32'
_cell_volume   736.14858504
_cell_formula_units_Z   2
loop_
 _symmetry_equiv_pos_site_id
 _symmetry_equiv_pos_as_xyz
  1  'x, y, z'
loop_
 _atom_site_type_symbol
 _atom_site_label
 _atom_site_symmetry_multiplicity
 _atom_site_fract_x
 _atom_site_fract_y
 _atom_site_fract_z
 _atom_site_occupancy
  Ba  Ba0  1  0.75169900  0.24673700  0.25005100  1
  Ba  Ba1  1  0.24673700  0.75169900  0.75005100  1
  Na  Na0  1  0.96420600  0.53743100  0.82258300  1
  Na  Na1  1  0.53743100  0.96420600  0.32258300  1
  Na  Na2  1  0.46299400  0.03764900  0.67518800  1
  Na  Na3  1  0.03764900  0.46299400  0.17518800  1
  Al  Al0  1  0.73354800  0.08469200  0.65266800  1
  Al  Al1  1  0.58756600  0.22856000  0.02875500  1
  Al  Al2  1  0.68584400  0.62519000  0.64795700  1
  Al  Al3  1  0.62519000  0.68584400  0.14795700  1
  Al  Al4  1  0.22856000  0.58756600  0.52875500  1
  Al  Al5  1  0.08469200  0.73354800  0.15266800  1
  Al  Al6  1  0.18792800  0.12557200  0.03862600  1
  Al  Al7  1  0.12557200  0.18792800  0.53862600  1
  Si  Si0  1  0.86242100  0.82118400  0.46600800  1
  Si  Si1  1  0.82118400  0.86242100  0.96600800  1
  Si  Si2  1  0.91951100  0.26271900  0.85324800  1
  Si  Si3  1  0.76217400  0.41973200  0.46468900  1
  Si  Si4  1  0.36251600  0.32342100  0.84764700  1
  Si  Si5  1  0.32342100  0.36251600  0.34764700  1
  Si  Si6  1  0.41973200  0.76217400  0.96468900  1
  Si  Si7  1  0.26271900  0.91951100  0.35324800  1
  O  O0  1  0.93051600  0.87351700  0.27802500  1
  O  O1  1  0.87351700  0.93051600  0.77802500  1
  O  O2  1  0.00035300  0.23974900  0.97428400  1
  O  O3  1  0.75116900  0.99558800  0.52883200  1
  O  O4  1  0.95457600  0.35969300  0.44751100  1
  O  O5  1  0.66376400  0.01529300  0.05466700  1
  O  O6  1  0.75314500  0.25470500  0.52969800  1
  O  O7  1  0.75848800  0.24700800  0.96128800  1
  O  O8  1  0.85314300  0.45812400  0.74369900  1
  O  O9  1  0.52001400  0.16209800  0.76429200  1
  O  O10  1  0.74059000  0.50020100  0.28533000  1
  O  O11  1  0.50283600  0.24498900  0.22404900  1
  O  O12  1  0.78349500  0.72199000  0.00418800  1
  O  O13  1  0.61981700  0.56269000  0.57202400  1
  O  O14  1  0.72199000  0.78349500  0.50418800  1
  O  O15  1  0.43164100  0.37471400  0.91549400  1
  O  O16  1  0.56269000  0.61981700  0.07202400  1
  O  O17  1  0.37471400  0.43164100  0.41549400  1
  O  O18  1  0.50020100  0.74059000  0.78533000  1
  O  O19  1  0.24498900  0.50283600  0.72404900  1
  O  O20  1  0.45812400  0.85314300  0.24369900  1
  O  O21  1  0.16209800  0.52001400  0.26429200  1
  O  O22  1  0.25470500  0.75314500  0.02969800  1
  O  O23  1  0.24700800  0.75848800  0.46128800  1
  O  O24  1  0.35969300  0.95457600  0.94751100  1
  O  O25  1  0.01529300  0.66376400  0.55466700  1
  O  O26  1  0.23974900  0.00035300  0.47428400  1
  O  O27  1  0.99558800  0.75116900  0.02883200  1
  O  O28  1  0.28392500  0.22402700  0.48818700  1
  O  O29  1  0.12114300  0.06422000  0.24276600  1
  O  O30  1  0.22402700  0.28392500  0.98818700  1
  O  O31  1  0.06422000  0.12114300  0.74276600  1
loop_
_geom_bond_atom_site_label_1
_geom_bond_atom_site_label_2
_geom_bond_distance
_geom_bond_site_symmetry_2
Ba0 O2 2.798770 1_654
Ba0 O11 2.816642 1_555
Ba0 O10 2.823391 1_555
Ba0 O3 2.841757 1_545
Ba0 O6 2.866009 1_555
Ba0 O7 2.874602 1_554
Ba0 O0 2.980457 1_545
Ba0 O29 2.990828 1_655
Ba0 O17 3.005730 1_555
Ba0 O16 3.014337 1_555
Ba1 O26 2.798770 1_565
Ba1 O19 2.816642 1_555
Ba1 O18 2.823391 1_555
Ba1 O27 2.841757 1_456
Ba1 O22 2.866009 1_556
Ba1 O23 2.874602 1_555
Ba1 O1 2.980457 1_455
Ba1 O31 2.990828 1_565
Ba1 O15 3.005730 1_555
Ba1 O13 3.014337 1_555
Na0 O25 2.370244 1_655
Na0 O8 2.380867 1_555
Na0 O12 2.432784 1_556
Na0 O19 2.498376 1_655
Na0 O2 2.647250 1_655
Na0 O30 2.797857 1_655
Na1 O5 2.370244 1_565
Na1 O20 2.380867 1_555
Na1 O14 2.432784 1_555
Na1 O11 2.498376 1_565
Na1 O26 2.647250 1_565
Na1 O28 2.797857 1_565
Na2 O9 2.388785 1_555
Na2 O24 2.397862 1_545
Na2 O28 2.432565 1_555
Na2 O3 2.532981 1_545
Na2 O18 2.635000 1_545
Na2 O14 2.796014 1_545
Na3 O21 2.388785 1_555
Na3 O4 2.397862 1_455
Na3 O30 2.432565 1_554
Na3 O27 2.532981 1_455
Na3 O10 2.635000 1_455
Na3 O12 2.796014 1_455
Al0 O1 1.747724 1_545
Al0 O6 1.751581 1_555
Al0 O9 1.760700 1_555
Al0 O3 1.777435 1_545
Al1 O7 1.750729 1_554
Al1 O5 1.758112 1_555
Al1 O15 1.769803 1_554
Al1 O11 1.778476 1_555
Al2 O8 1.739637 1_555
Al2 O18 1.764092 1_555
Al2 O13 1.779842 1_555
Al2 O14 1.787931 1_555
Al3 O20 1.739637 1_555
Al3 O10 1.764092 1_555
Al3 O16 1.779842 1_555
Al3 O12 1.787931 1_555
Al4 O23 1.750729 1_555
Al4 O25 1.758112 1_555
Al4 O17 1.769803 1_555
Al4 O19 1.778476 1_555
Al5 O0 1.747724 1_455
Al5 O22 1.751581 1_555
Al5 O21 1.760700 1_555
Al5 O27 1.777435 1_455
Al6 O24 1.742337 1_544
Al6 O2 1.767309 1_554
Al6 O29 1.779673 1_555
Al6 O30 1.787327 1_554
Al7 O4 1.742337 1_455
Al7 O26 1.767309 1_555
Al7 O31 1.779673 1_555
Al7 O28 1.787327 1_555
O0 Si0 1.643043 1_555
O1 Si1 1.643043 1_555
O2 Si2 1.649614 1_455
O3 Si0 1.647803 1_555
O4 Si3 1.638305 1_555
O5 Si1 1.600643 1_544
O6 Si3 1.631906 1_555
O7 Si2 1.631512 1_555
O8 Si2 1.636263 1_555
O9 Si4 1.625559 1_555
O10 Si3 1.651042 1_555
O11 Si5 1.672466 1_555
O12 Si1 1.649009 1_554
O13 Si3 1.643297 1_555
O14 Si0 1.649009 1_555
O15 Si4 1.643109 1_555
O16 Si6 1.643297 1_554
O17 Si5 1.643109 1_555
O18 Si6 1.651042 1_555
O19 Si4 1.672466 1_555
O20 Si7 1.636263 1_555
O21 Si5 1.625559 1_555
O22 Si6 1.631906 1_554
O23 Si7 1.631512 1_555
O24 Si6 1.638305 1_555
O25 Si0 1.600643 1_455
O26 Si7 1.649614 1_545
O27 Si1 1.647803 1_554
O28 Si5 1.647281 1_555
O29 Si7 1.655212 1_545
O30 Si4 1.647281 1_555
O31 Si2 1.655212 1_455
