# generated using pymatgen
data_Bi8(P2O9)3
_symmetry_space_group_name_H-M   'P 1'
_cell_length_a   7.58198300
_cell_length_b   8.66650333
_cell_length_c   22.71606554
_cell_angle_alpha   82.89146480
_cell_angle_beta   86.49017919
_cell_angle_gamma   70.53695850
_symmetry_Int_Tables_number   1
_chemical_formula_structural   Bi8(P2O9)3
_chemical_formula_sum   'Bi16 P12 O54'
_cell_volume   1396.22455527
_cell_formula_units_Z   2
loop_
 _symmetry_equiv_pos_site_id
 _symmetry_equiv_pos_as_xyz
  1  'x, y, z'
loop_
 _atom_site_type_symbol
 _atom_site_label
 _atom_site_symmetry_multiplicity
 _atom_site_fract_x
 _atom_site_fract_y
 _atom_site_fract_z
 _atom_site_occupancy
  Bi  Bi0  1  0.49406400  0.03089100  0.28981700  1
  Bi  Bi1  1  0.22748000  0.35585800  0.56985000  1
  Bi  Bi2  1  0.73056200  0.64108600  0.81228500  1
  Bi  Bi3  1  0.33606200  0.94583700  0.99903400  1
  Bi  Bi4  1  0.28158000  0.45379100  0.40204100  1
  Bi  Bi5  1  0.97400600  0.22828500  0.33955900  1
  Bi  Bi6  1  0.07977100  0.68706700  0.67851600  1
  Bi  Bi7  1  0.63300900  0.56515100  0.65673900  1
  Bi  Bi8  1  0.68326800  0.11715000  0.00826300  1
  Bi  Bi9  1  0.22380400  0.39681700  0.20398100  1
  Bi  Bi10  1  0.87953600  0.77514900  0.51342900  1
  Bi  Bi11  1  0.60017500  0.06638800  0.85123200  1
  Bi  Bi12  1  0.15116000  0.34320100  0.05421700  1
  Bi  Bi13  1  0.76960900  0.64822900  0.38648600  1
  Bi  Bi14  1  0.42989400  0.94660200  0.71257300  1
  Bi  Bi15  1  0.77901000  0.23869100  0.16941100  1
  P  P0  1  0.68999100  0.53538700  0.26115400  1
  P  P1  1  0.40003000  0.88938800  0.55252400  1
  P  P2  1  0.04591600  0.24343200  0.92418800  1
  P  P3  1  0.64011200  0.56233900  0.04172500  1
  P  P4  1  0.21175700  0.82800300  0.36764200  1
  P  P5  1  0.94008100  0.18159400  0.69317000  1
  P  P6  1  0.01416100  0.82456800  0.26110100  1
  P  P7  1  0.75543000  0.13492300  0.61784000  1
  P  P8  1  0.46198100  0.52903800  0.96281400  1
  P  P9  1  0.02589800  0.84642100  0.12532700  1
  P  P10  1  0.57595300  0.08341100  0.41069700  1
  P  P11  1  0.29517900  0.40945900  0.73662300  1
  O  O0  1  0.83067800  0.97171700  0.10934300  1
  O  O1  1  0.41344800  0.19429900  0.44786400  1
  O  O2  1  0.13648200  0.52450400  0.77405800  1
  O  O3  1  0.51973700  0.18042400  0.21087000  1
  O  O4  1  0.77886000  0.41392400  0.07546300  1
  O  O5  1  0.22105400  0.50671500  0.49206000  1
  O  O6  1  0.40773500  0.70400200  0.37399400  1
  O  O7  1  0.23054600  0.23982800  0.29002400  1
  O  O8  1  0.62075100  0.73225300  0.05295700  1
  O  O9  1  0.80853200  0.84039500  0.83300700  1
  O  O10  1  0.10368600  0.03655300  0.71458500  1
  O  O11  1  0.50823100  0.48790900  0.23524500  1
  O  O12  1  0.02152400  0.56354100  0.60215600  1
  O  O13  1  0.19764600  0.99580200  0.38465500  1
  O  O14  1  0.53608900  0.48037400  0.17000500  1
  O  O15  1  0.27242500  0.76369500  0.56711400  1
  O  O16  1  0.60548200  0.97946600  0.95073300  1
  O  O17  1  0.90241700  0.34657400  0.71366400  1
  O  O18  1  0.17134900  0.86654900  0.29492600  1
  O  O19  1  0.31950100  0.81072300  0.50082100  1
  O  O20  1  0.89162700  0.13409900  0.92267200  1
  O  O21  1  0.93365600  0.20625800  0.61770600  1
  O  O22  1  0.43694700  0.53367500  0.03784200  1
  O  O23  1  0.81110700  0.18572300  0.86231400  1
  O  O24  1  0.05277700  0.89229000  0.19544100  1
  O  O25  1  0.67492300  0.53639900  0.97000600  1
  O  O26  1  0.06433100  0.75006200  0.39445500  1
  O  O27  1  0.18582100  0.88919500  0.09215400  1
  O  O28  1  0.84305800  0.05631200  0.48056300  1
  O  O29  1  0.75509700  0.12455000  0.69234700  1
  O  O30  1  0.04661700  0.64207100  0.27161000  1
  O  O31  1  0.40075700  0.12811400  0.04742700  1
  O  O32  1  0.76721800  0.12957300  0.42076200  1
  O  O33  1  0.58941800  0.39131700  0.80029800  1
  O  O34  1  0.81903900  0.96325500  0.60161900  1
  O  O35  1  0.01961500  0.41062400  0.38699600  1
  O  O36  1  0.49344500  0.45035700  0.74209100  1
  O  O37  1  0.82790600  0.93878000  0.28383200  1
  O  O38  1  0.11441100  0.26127400  0.14383700  1
  O  O39  1  0.47062200  0.35800600  0.95110300  1
  O  O40  1  0.74169000  0.70145000  0.71016700  1
  O  O41  1  0.03722100  0.66783300  0.13027500  1
  O  O42  1  0.57966700  0.26698200  0.59526800  1
  O  O43  1  0.80632200  0.58468300  0.47599200  1
  O  O44  1  0.62443200  0.90129400  0.43811100  1
  O  O45  1  0.33810800  0.68123900  0.93066000  1
  O  O46  1  0.45919600  0.83389200  0.79838900  1
  O  O47  1  0.33899100  0.22427400  0.75333300  1
  O  O48  1  0.86278900  0.38221700  0.23635400  1
  O  O49  1  0.67888000  0.45808700  0.32921600  1
  O  O50  1  0.60488000  0.77673300  0.56985600  1
  O  O51  1  0.36327700  0.75081900  0.67345600  1
  O  O52  1  0.23977700  0.11575500  0.90941500  1
  O  O53  1  0.04615400  0.19647100  0.99961500  1
loop_
_geom_bond_atom_site_label_1
_geom_bond_atom_site_label_2
_geom_bond_distance
_geom_bond_site_symmetry_2
Bi0 O3 2.117459 1_555
Bi0 O7 2.204729 1_555
Bi0 O37 2.387643 1_545
Bi1 O5 2.056832 1_555
Bi1 O12 2.128429 1_555
Bi1 O42 2.600984 1_555
Bi2 O9 2.114345 1_555
Bi2 O46 2.186989 1_555
Bi2 O40 2.316678 1_555
Bi2 O33 2.762285 1_555
Bi3 O31 2.226369 1_566
Bi3 O16 2.346221 1_555
Bi3 O52 2.359982 1_565
Bi3 O27 2.415318 1_556
Bi3 O53 2.524215 1_565
Bi3 O8 2.585706 1_556
Bi4 O5 2.139968 1_555
Bi4 O35 2.193566 1_555
Bi4 O1 2.278228 1_555
Bi4 O26 2.538198 1_555
Bi4 O6 2.643609 1_555
Bi5 O35 2.146896 1_655
Bi5 O7 2.212090 1_655
Bi5 O13 2.325775 1_645
Bi5 O49 2.451005 1_555
Bi5 O48 2.589470 1_555
Bi5 O32 2.596500 1_555
Bi6 O12 2.284375 1_555
Bi6 O51 2.384210 1_555
Bi6 O2 2.415350 1_555
Bi6 O40 2.585867 1_455
Bi7 O40 2.161769 1_555
Bi7 O51 2.186097 1_555
Bi7 O36 2.416941 1_555
Bi7 O50 2.489645 1_555
Bi7 O17 2.563496 1_555
Bi8 O16 2.104473 1_544
Bi8 O31 2.245131 1_555
Bi8 O39 2.446500 1_554
Bi8 O20 2.450593 1_554
Bi8 O0 2.601771 1_545
Bi9 O7 2.231976 1_555
Bi9 O38 2.262662 1_555
Bi9 O3 2.396288 1_555
Bi9 O11 2.690537 1_555
Bi9 O30 2.708364 1_555
Bi9 O41 2.724654 1_555
Bi9 O14 2.739851 1_555
Bi9 O48 2.830271 1_455
Bi10 O43 2.184477 1_555
Bi10 O50 2.374495 1_555
Bi10 O28 2.386905 1_565
Bi10 O44 2.529166 1_555
Bi10 O12 2.572877 1_655
Bi10 O34 2.660607 1_555
Bi11 O9 2.135827 1_545
Bi11 O23 2.215094 1_555
Bi11 O16 2.290730 1_545
Bi12 O38 2.104978 1_555
Bi12 O31 2.182760 1_555
Bi12 O53 2.230543 1_554
Bi12 O4 2.707414 1_455
Bi13 O43 2.050557 1_555
Bi13 O35 2.286737 1_655
Bi13 O44 2.503339 1_555
Bi13 O49 2.505338 1_555
Bi13 O6 2.649487 1_555
Bi13 O26 2.684817 1_655
Bi14 O46 2.059319 1_555
Bi14 O51 2.218759 1_555
Bi14 O10 2.331767 1_565
Bi14 O47 2.547816 1_565
Bi14 O40 2.602200 1_555
Bi15 O14 2.283146 1_555
Bi15 O3 2.307265 1_555
Bi15 O48 2.318648 1_555
Bi15 O4 2.461266 1_555
Bi15 O38 2.639188 1_655
Bi15 O0 2.735071 1_545
O0 P9 1.548860 1_655
O1 P10 1.561679 1_555
O2 P11 1.565282 1_555
O4 P3 1.517062 1_555
O6 P4 1.518999 1_555
O8 P3 1.483049 1_555
O10 P5 1.496287 1_455
O11 O14 1.490511 1_555
O11 P0 1.718134 1_555
O13 P4 1.518533 1_555
O15 O19 1.562216 1_555
O15 P1 1.675179 1_555
O17 P5 1.489624 1_555
O18 P6 1.616605 1_555
O18 P4 1.670677 1_555
O19 P1 1.667444 1_555
O20 O23 1.490446 1_555
O20 P2 1.737570 1_655
O21 P7 1.662524 1_555
O21 P5 1.702732 1_555
O22 P3 1.649050 1_555
O22 P8 1.707243 1_554
O24 P6 1.580904 1_555
O24 P9 1.728215 1_555
O25 P8 1.655583 1_555
O25 P3 1.665192 1_556
O26 P4 1.547467 1_555
O27 P9 1.514607 1_555
O28 O32 1.489299 1_555
O29 P5 1.636903 1_555
O29 P7 1.683637 1_555
O30 P6 1.507786 1_555
O32 P10 1.662878 1_555
O33 O36 1.497281 1_555
O34 P7 1.489152 1_565
O36 P11 1.670222 1_555
O37 P6 1.531779 1_655
O39 P8 1.517521 1_555
O41 P9 1.511642 1_555
O42 P7 1.506890 1_555
O44 P10 1.553112 1_565
O45 P8 1.474947 1_555
O47 P11 1.529558 1_555
O48 P0 1.652796 1_555
O49 P0 1.616054 1_555
O50 P1 1.577900 1_555
O52 P2 1.563689 1_555
O53 P2 1.711344 1_555
