# generated using pymatgen
data_Mn2GeS4
_symmetry_space_group_name_H-M   'P 1'
_cell_length_a   6.02910326
_cell_length_b   7.38706107
_cell_length_c   12.76598866
_cell_angle_alpha   90.00628103
_cell_angle_beta   90.03439555
_cell_angle_gamma   89.98771721
_symmetry_Int_Tables_number   1
_chemical_formula_structural   Mn2GeS4
_chemical_formula_sum   'Mn8 Ge4 S16'
_cell_volume   568.56323753
_cell_formula_units_Z   4
loop_
 _symmetry_equiv_pos_site_id
 _symmetry_equiv_pos_as_xyz
  1  'x, y, z'
loop_
 _atom_site_type_symbol
 _atom_site_label
 _atom_site_symmetry_multiplicity
 _atom_site_fract_x
 _atom_site_fract_y
 _atom_site_fract_z
 _atom_site_occupancy
  Mn  Mn0  1  0.50184000  0.25061200  0.22947900  1
  Mn  Mn1  1  0.99874600  0.25008600  0.72870700  1
  Mn  Mn2  1  0.49573800  0.75063200  0.76972100  1
  Mn  Mn3  1  0.49971000  0.00113100  0.50056600  1
  Mn  Mn4  1  0.00462300  0.74964500  0.26898700  1
  Mn  Mn5  1  0.99991900  0.00167600  0.00106700  1
  Mn  Mn6  1  0.99927900  0.49789900  0.00123700  1
  Mn  Mn7  1  0.50052500  0.49860200  0.50058700  1
  Ge  Ge0  1  0.91788000  0.75011500  0.58920000  1
  Ge  Ge1  1  0.08280400  0.24963000  0.40981900  1
  Ge  Ge2  1  0.41581400  0.25011900  0.91029500  1
  Ge  Ge3  1  0.58331400  0.75073300  0.09048300  1
  S  S0  1  0.75078700  0.98815700  0.66733600  1
  S  S1  1  0.74315900  0.75020700  0.93041200  1
  S  S2  1  0.78465700  0.25012200  0.90689100  1
  S  S3  1  0.71367600  0.24959000  0.40665400  1
  S  S4  1  0.75032100  0.98914000  0.16818200  1
  S  S5  1  0.24534300  0.01434300  0.83189900  1
  S  S6  1  0.25341000  0.48529900  0.33173600  1
  S  S7  1  0.28720300  0.74967900  0.59275600  1
  S  S8  1  0.75679600  0.74953700  0.42938500  1
  S  S9  1  0.75139100  0.51213600  0.66745700  1
  S  S10  1  0.21432100  0.74967000  0.09270500  1
  S  S11  1  0.24532200  0.48561800  0.83182000  1
  S  S12  1  0.25622100  0.24976000  0.07148700  1
  S  S13  1  0.75032000  0.51230000  0.16843200  1
  S  S14  1  0.25317000  0.01367400  0.33195000  1
  S  S15  1  0.24371200  0.24988700  0.57075000  1
loop_
_geom_bond_atom_site_label_1
_geom_bond_atom_site_label_2
_geom_bond_distance
_geom_bond_site_symmetry_2
Mn0 S12 2.501478 1_555
Mn0 S4 2.566565 1_545
Mn0 S13 2.567403 1_555
Mn0 S3 2.596841 1_555
Mn0 S6 2.637007 1_555
Mn0 S14 2.650747 1_555
Mn1 S15 2.500213 1_655
Mn1 S9 2.565227 1_555
Mn1 S0 2.567495 1_545
Mn1 S2 2.616073 1_555
Mn1 S11 2.639753 1_655
Mn1 S5 2.641125 1_655
Mn2 S1 2.535694 1_555
Mn2 S7 2.584777 1_555
Mn2 S5 2.589181 1_565
Mn2 S11 2.596814 1_555
Mn2 S0 2.675010 1_555
Mn2 S9 2.680439 1_555
Mn3 S3 2.544298 1_555
Mn3 S7 2.545626 1_545
Mn3 S15 2.561587 1_555
Mn3 S8 2.585049 1_545
Mn3 S0 2.613306 1_545
Mn3 S14 2.616798 1_555
Mn4 S8 2.535559 1_455
Mn4 S10 2.581901 1_555
Mn4 S14 2.587496 1_565
Mn4 S6 2.588902 1_555
Mn4 S13 2.659116 1_455
Mn4 S4 2.670899 1_455
Mn5 S2 2.548656 1_554
Mn5 S10 2.550024 1_645
Mn5 S12 2.560016 1_655
Mn5 S1 2.580679 1_544
Mn5 S4 2.613132 1_545
Mn5 S5 2.620310 1_654
Mn6 S2 2.544372 1_554
Mn6 S10 2.549939 1_655
Mn6 S12 2.561543 1_655
Mn6 S1 2.583259 1_554
Mn6 S13 2.612231 1_555
Mn6 S11 2.624902 1_654
Mn7 S3 2.544298 1_555
Mn7 S7 2.545372 1_555
Mn7 S15 2.564857 1_555
Mn7 S8 2.579319 1_555
Mn7 S9 2.613772 1_555
Mn7 S6 2.621443 1_555
Ge0 S7 2.227124 1_655
Ge0 S9 2.257968 1_555
Ge0 S0 2.258763 1_555
Ge0 S8 2.259038 1_555
Ge1 S3 2.225853 1_455
Ge1 S14 2.254203 1_555
Ge1 S6 2.254941 1_555
Ge1 S15 2.271454 1_555
Ge2 S2 2.224243 1_555
Ge2 S11 2.254989 1_555
Ge2 S5 2.256234 1_555
Ge2 S12 2.272149 1_556
Ge3 S10 2.224910 1_555
Ge3 S4 2.257980 1_555
Ge3 S13 2.259363 1_555
Ge3 S1 2.259842 1_554
