# generated using pymatgen
data_Ni19Se20
_symmetry_space_group_name_H-M   'P 1'
_cell_length_a   7.41592800
_cell_length_b   9.03097245
_cell_length_c   10.98859045
_cell_angle_alpha   66.39096319
_cell_angle_beta   80.56396500
_cell_angle_gamma   66.08169612
_symmetry_Int_Tables_number   1
_chemical_formula_structural   Ni19Se20
_chemical_formula_sum   'Ni19 Se20'
_cell_volume   616.43042820
_cell_formula_units_Z   1
loop_
 _symmetry_equiv_pos_site_id
 _symmetry_equiv_pos_as_xyz
  1  'x, y, z'
loop_
 _atom_site_type_symbol
 _atom_site_label
 _atom_site_symmetry_multiplicity
 _atom_site_fract_x
 _atom_site_fract_y
 _atom_site_fract_z
 _atom_site_occupancy
  Ni  Ni0  1  0.00000000  0.50000000  0.00000000  1
  Ni  Ni1  1  0.40545200  0.08662600  0.20577500  1
  Ni  Ni2  1  0.50000000  0.50000000  0.00000000  1
  Ni  Ni3  1  0.79137200  0.70401800  0.39873200  1
  Ni  Ni4  1  0.90290700  0.60504300  0.19761600  1
  Ni  Ni5  1  0.90794000  0.09116400  0.18962500  1
  Ni  Ni6  1  0.20862800  0.29598200  0.60126800  1
  Ni  Ni7  1  0.29727600  0.20182600  0.39796600  1
  Ni  Ni8  1  0.30382700  0.70399100  0.40055900  1
  Ni  Ni9  1  0.39324100  0.60370600  0.19764700  1
  Ni  Ni10  1  0.59454800  0.91337400  0.79422500  1
  Ni  Ni11  1  0.70272400  0.79817400  0.60203400  1
  Ni  Ni12  1  0.80544100  0.19585200  0.39616100  1
  Ni  Ni13  1  0.69617300  0.29600900  0.59944100  1
  Ni  Ni14  1  0.09709300  0.39495700  0.80238400  1
  Ni  Ni15  1  0.19455900  0.80414800  0.60383900  1
  Ni  Ni16  1  0.09206000  0.90883600  0.81037500  1
  Ni  Ni17  1  0.50000000  0.00000000  0.00000000  1
  Ni  Ni18  1  0.60675900  0.39629400  0.80235300  1
  Se  Se0  1  0.64773200  0.68828400  0.03361400  1
  Se  Se1  1  0.05329700  0.27949400  0.23043600  1
  Se  Se2  1  0.25282600  0.91331300  0.16959300  1
  Se  Se3  1  0.15246300  0.67967800  0.03068600  1
  Se  Se4  1  0.44691800  0.88310000  0.44092600  1
  Se  Se5  1  0.65152900  0.51393300  0.36583800  1
  Se  Se6  1  0.55274100  0.27968500  0.22995800  1
  Se  Se7  1  0.84942100  0.48520100  0.63332400  1
  Se  Se8  1  0.75005900  0.91446400  0.16952300  1
  Se  Se9  1  0.04765700  0.11750500  0.56889200  1
  Se  Se10  1  0.15057900  0.51479900  0.36667600  1
  Se  Se11  1  0.95234300  0.88249500  0.43110800  1
  Se  Se12  1  0.24994100  0.08553600  0.83047700  1
  Se  Se13  1  0.44725900  0.72031500  0.77004200  1
  Se  Se14  1  0.34847100  0.48606700  0.63416200  1
  Se  Se15  1  0.55308200  0.11690000  0.55907400  1
  Se  Se16  1  0.84753700  0.32032200  0.96931400  1
  Se  Se17  1  0.74717400  0.08668700  0.83040700  1
  Se  Se18  1  0.94670300  0.72050600  0.76956400  1
  Se  Se19  1  0.35226800  0.31171600  0.96638600  1
loop_
_geom_bond_atom_site_label_1
_geom_bond_atom_site_label_2
_geom_bond_distance
_geom_bond_site_symmetry_2
Ni0 Se16 2.464971 1_454
Ni0 Se3 2.464971 1_555
Ni0 Se18 2.486895 1_454
Ni0 Se1 2.486895 1_555
Ni0 Se0 2.537144 1_455
Ni0 Se19 2.537144 1_554
Ni1 Se2 2.443669 1_545
Ni1 Se8 2.459158 1_545
Ni1 Se4 2.479490 1_545
Ni1 Se6 2.512775 1_555
Ni1 Se1 2.526865 1_555
Ni1 Se19 2.571863 1_554
Ni2 Se16 2.480210 1_554
Ni2 Se3 2.480210 1_555
Ni2 Se6 2.482528 1_555
Ni2 Se13 2.482528 1_554
Ni2 Se19 2.524748 1_554
Ni2 Se0 2.524748 1_555
Ni3 Se8 2.448741 1_555
Ni3 Se5 2.493301 1_555
Ni3 Se4 2.493621 1_555
Ni3 Se11 2.511641 1_555
Ni3 Se7 2.515825 1_555
Ni3 Se10 2.573643 1_655
Ni4 Se8 2.458467 1_555
Ni4 Se3 2.480353 1_655
Ni4 Se10 2.486203 1_655
Ni4 Se0 2.504685 1_555
Ni4 Se5 2.542610 1_555
Ni4 Se1 2.577102 1_655
Ni5 Se8 2.418325 1_545
Ni5 Se16 2.436227 1_554
Ni5 Se2 2.436665 1_645
Ni5 Se11 2.545389 1_545
Ni5 Se1 2.551847 1_655
Ni5 Se6 2.572701 1_555
Ni6 Se12 2.448741 1_555
Ni6 Se14 2.493301 1_555
Ni6 Se15 2.493621 1_555
Ni6 Se9 2.511641 1_555
Ni6 Se10 2.515825 1_555
Ni6 Se7 2.573643 1_455
Ni7 Se10 2.478198 1_555
Ni7 Se15 2.480922 1_555
Ni7 Se1 2.486655 1_555
Ni7 Se4 2.496566 1_545
Ni7 Se6 2.526950 1_555
Ni7 Se9 2.528199 1_555
Ni8 Se2 2.459682 1_555
Ni8 Se4 2.461718 1_555
Ni8 Se11 2.499001 1_455
Ni8 Se14 2.505191 1_555
Ni8 Se5 2.520649 1_555
Ni8 Se10 2.563648 1_555
Ni9 Se2 2.459924 1_555
Ni9 Se3 2.469331 1_555
Ni9 Se10 2.492812 1_555
Ni9 Se0 2.518917 1_555
Ni9 Se5 2.538379 1_555
Ni9 Se6 2.566487 1_555
Ni10 Se17 2.443669 1_565
Ni10 Se12 2.459158 1_565
Ni10 Se15 2.479490 1_565
Ni10 Se13 2.512775 1_555
Ni10 Se18 2.526865 1_555
Ni10 Se0 2.571863 1_556
Ni11 Se7 2.478198 1_555
Ni11 Se4 2.480922 1_555
Ni11 Se18 2.486655 1_555
Ni11 Se15 2.496566 1_565
Ni11 Se13 2.526950 1_555
Ni11 Se11 2.528199 1_555
Ni12 Se11 2.471756 1_545
Ni12 Se15 2.485286 1_555
Ni12 Se1 2.488357 1_655
Ni12 Se6 2.506958 1_555
Ni12 Se9 2.518231 1_655
Ni12 Se5 2.522881 1_555
Ni13 Se17 2.459682 1_555
Ni13 Se15 2.461718 1_555
Ni13 Se9 2.499001 1_655
Ni13 Se5 2.505191 1_555
Ni13 Se14 2.520649 1_555
Ni13 Se7 2.563648 1_555
Ni14 Se12 2.458467 1_555
Ni14 Se16 2.480353 1_455
Ni14 Se7 2.486203 1_455
Ni14 Se19 2.504685 1_555
Ni14 Se14 2.542610 1_555
Ni14 Se18 2.577102 1_455
Ni15 Se9 2.471756 1_565
Ni15 Se4 2.485286 1_555
Ni15 Se18 2.488357 1_455
Ni15 Se13 2.506958 1_555
Ni15 Se11 2.518231 1_455
Ni15 Se14 2.522881 1_555
Ni16 Se12 2.418325 1_565
Ni16 Se3 2.436227 1_556
Ni16 Se17 2.436665 1_465
Ni16 Se9 2.545389 1_565
Ni16 Se18 2.551847 1_455
Ni16 Se13 2.572701 1_555
Ni17 Se19 2.461803 1_554
Ni17 Se0 2.461803 1_545
Ni17 Se2 2.514111 1_545
Ni17 Se17 2.514111 1_554
Ni17 Se12 2.514798 1_554
Ni17 Se8 2.514798 1_545
Ni18 Se17 2.459924 1_555
Ni18 Se16 2.469331 1_555
Ni18 Se7 2.492812 1_555
Ni18 Se19 2.518917 1_555
Ni18 Se14 2.538379 1_555
Ni18 Se13 2.566487 1_555
