# generated using pymatgen
data_DyNi2B2C
_symmetry_space_group_name_H-M   'P 1'
_cell_length_a   5.74460959
_cell_length_b   5.74460959
_cell_length_c   5.74460959
_cell_angle_alpha   144.01851953
_cell_angle_beta   144.01851953
_cell_angle_gamma   51.79960012
_symmetry_Int_Tables_number   1
_chemical_formula_structural   DyNi2B2C
_chemical_formula_sum   'Dy1 Ni2 B2 C1'
_cell_volume   65.07346391
_cell_formula_units_Z   1
loop_
 _symmetry_equiv_pos_site_id
 _symmetry_equiv_pos_as_xyz
  1  'x, y, z'
loop_
 _atom_site_type_symbol
 _atom_site_label
 _atom_site_symmetry_multiplicity
 _atom_site_fract_x
 _atom_site_fract_y
 _atom_site_fract_z
 _atom_site_occupancy
  Dy  Dy0  1  0.00000000  0.00000000  0.00000000  1
  Ni  Ni0  1  0.75000000  0.25000000  0.50000000  1
  Ni  Ni1  1  0.25000000  0.75000000  0.50000000  1
  B  B0  1  0.35573100  0.35573100  0.00000000  1
  B  B1  1  0.64426900  0.64426900  0.00000000  1
  C  C0  1  0.50000000  0.50000000  0.00000000  1
loop_
_geom_bond_atom_site_label_1
_geom_bond_atom_site_label_2
_geom_bond_distance
_geom_bond_site_symmetry_2
B0 C0 1.491054 1_555
B0 Ni0 2.083807 1_454
B0 Ni1 2.083807 1_544
B0 Ni0 2.083807 1_555
B0 Ni1 2.083807 1_555
B1 C0 1.491054 1_555
B1 Ni0 2.083807 1_554
B1 Ni1 2.083807 1_655
B1 Ni1 2.083807 1_554
B1 Ni0 2.083807 1_565
C0 Dy0 2.509238 1_554
C0 Dy0 2.509238 1_655
C0 Dy0 2.509238 1_565
C0 Dy0 2.509238 1_666
