# generated using pymatgen
data_CeAgP2
_symmetry_space_group_name_H-M   'P 1'
_cell_length_a   5.49793699
_cell_length_b   5.49793699
_cell_length_c   11.07511152
_cell_angle_alpha   84.86118355
_cell_angle_beta   84.86118355
_cell_angle_gamma   86.26395369
_symmetry_Int_Tables_number   1
_chemical_formula_structural   CeAgP2
_chemical_formula_sum   'Ce4 Ag4 P8'
_cell_volume   331.53376353
_cell_formula_units_Z   4
loop_
 _symmetry_equiv_pos_site_id
 _symmetry_equiv_pos_as_xyz
  1  'x, y, z'
loop_
 _atom_site_type_symbol
 _atom_site_label
 _atom_site_symmetry_multiplicity
 _atom_site_fract_x
 _atom_site_fract_y
 _atom_site_fract_z
 _atom_site_occupancy
  Ce  Ce0  1  0.68589800  0.88985400  0.15921700  1
  Ce  Ce1  1  0.88985400  0.68589800  0.65921700  1
  Ce  Ce2  1  0.31410200  0.11014600  0.84078300  1
  Ce  Ce3  1  0.11014600  0.31410200  0.34078300  1
  Ag  Ag0  1  0.80829600  0.36354200  0.96096100  1
  Ag  Ag1  1  0.63645800  0.19170400  0.53903900  1
  Ag  Ag2  1  0.19170400  0.63645800  0.03903900  1
  Ag  Ag3  1  0.36354200  0.80829600  0.46096100  1
  P  P0  1  0.82103200  0.89983500  0.90315500  1
  P  P1  1  0.17896800  0.10016500  0.09684500  1
  P  P2  1  0.48693700  0.61825700  0.83797400  1
  P  P3  1  0.10016500  0.17896800  0.59684500  1
  P  P4  1  0.61825700  0.48693700  0.33797400  1
  P  P5  1  0.89983500  0.82103200  0.40315500  1
  P  P6  1  0.51306300  0.38174300  0.16202600  1
  P  P7  1  0.38174300  0.51306300  0.66202600  1
loop_
_geom_bond_atom_site_label_1
_geom_bond_atom_site_label_2
_geom_bond_distance
_geom_bond_site_symmetry_2
Ce0 P6 2.809348 1_565
Ce0 P4 2.855650 1_555
Ce0 P0 2.863112 1_554
Ce0 P6 3.005492 1_555
Ce0 P1 3.015444 1_665
Ce0 P5 3.025497 1_555
Ce0 P1 3.060022 1_565
Ce1 P7 2.809348 1_655
Ce1 P2 2.855650 1_555
Ce1 P5 2.863112 1_555
Ce1 P7 3.005492 1_555
Ce1 P3 3.015444 1_665
Ce1 P0 3.025497 1_555
Ce1 P3 3.060022 1_655
Ce2 P2 2.809348 1_545
Ce2 P7 2.855650 1_555
Ce2 P1 2.863112 1_556
Ce2 P2 3.005492 1_555
Ce2 P0 3.015444 1_445
Ce2 P3 3.025497 1_555
Ce2 P0 3.060022 1_545
Ce3 P4 2.809348 1_455
Ce3 P6 2.855650 1_555
Ce3 P3 2.863112 1_555
Ce3 P4 3.005492 1_555
Ce3 P5 3.015444 1_445
Ce3 P1 3.025497 1_555
Ce3 P5 3.060022 1_455
Ag0 P2 2.589406 1_555
Ag0 P6 2.640960 1_556
Ag0 P0 2.678705 1_545
Ag0 P1 2.879102 1_656
Ag0 Ag2 2.900654 1_656
Ag0 P0 2.964654 1_555
Ag0 Ce2 3.257297 1_655
Ag0 Ce0 3.315980 1_546
Ag0 Ce2 3.545143 1_555
Ag0 Ce1 3.644747 1_555
Ag1 P7 2.589406 1_555
Ag1 P4 2.640960 1_555
Ag1 P3 2.678705 1_655
Ag1 P5 2.879102 1_545
Ag1 Ag3 2.900654 1_545
Ag1 P3 2.964654 1_555
Ag1 Ce1 3.257297 1_545
Ag1 Ce3 3.315980 1_655
Ag1 Ce1 3.545143 1_555
Ag1 Ce2 3.644747 1_555
Ag2 P6 2.589406 1_555
Ag2 P2 2.640960 1_554
Ag2 P1 2.678705 1_565
Ag2 P0 2.879102 1_454
Ag2 P1 2.964654 1_555
Ag2 Ce0 3.257297 1_455
Ag2 Ce2 3.315980 1_564
Ag2 Ce0 3.545143 1_555
Ag2 Ce3 3.644747 1_555
Ag3 P4 2.589406 1_555
Ag3 P7 2.640960 1_555
Ag3 P5 2.678705 1_455
Ag3 P3 2.879102 1_565
Ag3 P5 2.964654 1_555
Ag3 Ce3 3.257297 1_565
Ag3 Ce1 3.315980 1_455
Ag3 Ce3 3.545143 1_555
Ag3 Ce0 3.644747 1_555
P0 P2 2.664581 1_555
P1 P6 2.664581 1_555
P2 P7 2.216654 1_555
P3 P7 2.664581 1_555
P4 P6 2.216654 1_555
P4 P5 2.664581 1_555
