# generated using pymatgen
data_Fe13Co3
_symmetry_space_group_name_H-M   'P 1'
_cell_length_a   5.69266389
_cell_length_b   5.69266348
_cell_length_c   5.69106878
_cell_angle_alpha   89.99999638
_cell_angle_beta   90.00000091
_cell_angle_gamma   90.00000322
_symmetry_Int_Tables_number   1
_chemical_formula_structural   Fe13Co3
_chemical_formula_sum   'Fe13 Co3'
_cell_volume   184.42716417
_cell_formula_units_Z   1
loop_
 _symmetry_equiv_pos_site_id
 _symmetry_equiv_pos_as_xyz
  1  'x, y, z'
loop_
 _atom_site_type_symbol
 _atom_site_label
 _atom_site_symmetry_multiplicity
 _atom_site_fract_x
 _atom_site_fract_y
 _atom_site_fract_z
 _atom_site_occupancy
  Fe  Fe0  1  0.00000003  0.50000011  0.49999987  1
  Fe  Fe1  1  0.24829282  0.75170774  0.75230013  1
  Fe  Fe2  1  0.75170745  0.24829225  0.24769976  1
  Fe  Fe3  1  0.75170739  0.24829224  0.75230026  1
  Fe  Fe4  1  0.75170743  0.75170774  0.75230043  1
  Fe  Fe5  1  0.50000012  0.50000012  0.49999988  1
  Fe  Fe6  1  0.24829278  0.75170804  0.24769985  1
  Fe  Fe7  1  0.24829276  0.24829228  0.75229971  1
  Fe  Fe8  1  0.24829284  0.24829238  0.24769958  1
  Fe  Fe9  1  0.50000048  0.00000003  0.49999995  1
  Fe  Fe10  1  0.00000007  0.50000003  -0.00000003  1
  Fe  Fe11  1  0.75170736  0.75170777  0.24769990  1
  Fe  Fe12  1  0.50000044  0.00000009  -0.00000014  1
  Co  Co0  1  0.49999968  0.50000003  -0.00000002  1
  Co  Co1  1  -0.00000097  0.00000005  0.49999996  1
  Co  Co2  1  -0.00000066  0.00000010  -0.00000010  1
loop_
_geom_bond_atom_site_label_1
_geom_bond_atom_site_label_2
_geom_bond_distance
_geom_bond_site_symmetry_2
Fe0 Fe11 2.472384 1_455
Fe0 Fe7 2.472384 1_555
Fe0 Fe2 2.472384 1_455
Fe0 Fe6 2.472385 1_555
Fe0 Fe1 2.472385 1_555
Fe0 Fe4 2.472385 1_455
Fe0 Fe8 2.472385 1_555
Fe0 Fe3 2.472385 1_455
Fe0 Fe5 2.846331 1_455
Fe0 Fe5 2.846332 1_555
Fe1 Fe12 2.457270 1_566
Fe1 Fe10 2.457272 1_556
Fe1 Fe9 2.472383 1_565
Fe1 Fe5 2.483548 1_555
Fe2 Fe9 2.472380 1_555
Fe2 Fe5 2.483549 1_555
Fe3 Fe9 2.472381 1_555
Fe3 Fe5 2.483550 1_555
Fe4 Fe9 2.472382 1_565
Fe4 Fe5 2.483549 1_555
Fe5 Fe7 2.483548 1_555
Fe5 Fe6 2.483549 1_555
Fe5 Fe8 2.483549 1_555
Fe5 Fe9 2.846331 1_565
Fe5 Fe9 2.846332 1_555
Fe6 Fe9 2.472382 1_565
Fe7 Fe9 2.472382 1_555
Fe8 Fe9 2.472384 1_555
Fe10 Fe4 2.457271 1_454
Fe10 Fe8 2.457271 1_555
Fe10 Fe2 2.457272 1_455
Fe10 Fe3 2.457272 1_454
Fe10 Fe11 2.457273 1_455
Fe10 Fe6 2.457273 1_555
Fe10 Fe7 2.457274 1_554
Fe11 Fe12 2.457269 1_565
Fe11 Fe9 2.472380 1_565
Fe11 Fe5 2.483547 1_555
Fe12 Fe3 2.457267 1_554
Fe12 Fe4 2.457267 1_544
Fe12 Fe2 2.457268 1_555
Fe12 Fe8 2.457270 1_555
Fe12 Fe6 2.457270 1_545
Fe12 Fe7 2.457271 1_554
Co0 Fe8 2.468502 1_555
Co0 Fe1 2.468503 1_554
Co0 Fe6 2.468504 1_555
Co0 Fe7 2.468505 1_554
Co0 Fe4 2.468505 1_554
Co0 Fe3 2.468506 1_554
Co0 Fe2 2.468506 1_555
Co0 Fe11 2.468506 1_555
Co0 Fe5 2.845534 1_555
Co0 Fe5 2.845535 1_554
Co1 Fe2 2.461163 1_455
Co1 Fe11 2.461164 1_445
Co1 Fe3 2.461164 1_455
Co1 Fe4 2.461165 1_445
Co1 Fe7 2.461169 1_555
Co1 Fe6 2.461170 1_545
Co1 Fe1 2.461171 1_545
Co1 Fe8 2.461172 1_555
Co2 Fe3 2.445982 1_454
Co2 Fe4 2.445982 1_444
Co2 Fe2 2.445983 1_455
Co2 Fe11 2.445984 1_445
Co2 Fe6 2.445988 1_545
Co2 Fe8 2.445988 1_555
Co2 Fe1 2.445988 1_544
Co2 Fe7 2.445989 1_554
