# generated using pymatgen
data_Ba(HO)2
_symmetry_space_group_name_H-M   'P 1'
_cell_length_a   8.22762300
_cell_length_b   7.08655100
_cell_length_c   10.46383579
_cell_angle_alpha   60.01461631
_cell_angle_beta   90.00000000
_cell_angle_gamma   90.00000000
_symmetry_Int_Tables_number   1
_chemical_formula_structural   Ba(HO)2
_chemical_formula_sum   'Ba8 H16 O16'
_cell_volume   528.43891674
_cell_formula_units_Z   8
loop_
 _symmetry_equiv_pos_site_id
 _symmetry_equiv_pos_as_xyz
  1  'x, y, z'
loop_
 _atom_site_type_symbol
 _atom_site_label
 _atom_site_symmetry_multiplicity
 _atom_site_fract_x
 _atom_site_fract_y
 _atom_site_fract_z
 _atom_site_occupancy
  Ba  Ba0  1  0.88008700  0.32517200  0.92566100  1
  Ba  Ba1  1  0.61991300  0.32517200  0.42566100  1
  Ba  Ba2  1  0.11991300  0.67482800  0.07433900  1
  Ba  Ba3  1  0.38008700  0.67482800  0.57433900  1
  Ba  Ba4  1  0.96319400  0.92804000  0.34580800  1
  Ba  Ba5  1  0.53680600  0.92804000  0.84580800  1
  Ba  Ba6  1  0.03680600  0.07196000  0.65419200  1
  Ba  Ba7  1  0.46319400  0.07196000  0.15419200  1
  H  H0  1  0.10364000  0.65288000  0.71664500  1
  H  H1  1  0.39636000  0.65288000  0.21664500  1
  H  H2  1  0.89636000  0.34712000  0.28335500  1
  H  H3  1  0.60364000  0.34712000  0.78335500  1
  H  H4  1  0.19109000  0.22899800  0.19789300  1
  H  H5  1  0.30891000  0.22899800  0.69789300  1
  H  H6  1  0.80891000  0.77100200  0.80210700  1
  H  H7  1  0.69109000  0.77100200  0.30210700  1
  H  H8  1  0.19683300  0.17827900  0.92857800  1
  H  H9  1  0.30316700  0.17827900  0.42857800  1
  H  H10  1  0.80316700  0.82172100  0.07142200  1
  H  H11  1  0.69683300  0.82172100  0.57142200  1
  H  H12  1  0.17614200  0.55872100  0.37594100  1
  H  H13  1  0.32385800  0.55872100  0.87594100  1
  H  H14  1  0.82385800  0.44127900  0.62405900  1
  H  H15  1  0.67614200  0.44127900  0.12405900  1
  O  O0  1  0.04081600  0.68869100  0.62709200  1
  O  O1  1  0.45918400  0.68869100  0.12709200  1
  O  O2  1  0.95918400  0.31130900  0.37290800  1
  O  O3  1  0.54081600  0.31130900  0.87290800  1
  O  O4  1  0.14000900  0.25775300  0.10410200  1
  O  O5  1  0.35999100  0.25775300  0.60410200  1
  O  O6  1  0.85999100  0.74224700  0.89589800  1
  O  O7  1  0.64000900  0.74224700  0.39589800  1
  O  O8  1  0.16931000  0.10637400  0.87283100  1
  O  O9  1  0.33069000  0.10637400  0.37283100  1
  O  O10  1  0.83069000  0.89362600  0.12716900  1
  O  O11  1  0.66931000  0.89362600  0.62716900  1
  O  O12  1  0.21812900  0.70763700  0.32044200  1
  O  O13  1  0.28187100  0.70763700  0.82044200  1
  O  O14  1  0.78187100  0.29236300  0.67955800  1
  O  O15  1  0.71812900  0.29236300  0.17955800  1
loop_
_geom_bond_atom_site_label_1
_geom_bond_atom_site_label_2
_geom_bond_distance
_geom_bond_site_symmetry_2
Ba0 H3 2.680181 1_555
Ba0 O4 2.719611 1_656
Ba0 O10 2.741918 1_546
Ba0 H8 2.800779 1_655
Ba0 H6 2.813073 1_555
Ba0 O14 2.817284 1_555
Ba0 O6 2.817794 1_555
Ba0 O3 2.856648 1_555
Ba0 H14 2.873201 1_555
Ba0 O15 2.875850 1_556
Ba0 H0 2.912517 1_655
Ba0 O8 3.037936 1_655
Ba1 H2 2.680181 1_555
Ba1 O5 2.719611 1_555
Ba1 O11 2.741918 1_545
Ba1 H9 2.800779 1_555
Ba1 H7 2.813073 1_555
Ba1 O15 2.817284 1_555
Ba1 O7 2.817794 1_555
Ba1 O2 2.856648 1_555
Ba1 H15 2.873201 1_555
Ba1 O14 2.875850 1_555
Ba1 H1 2.912517 1_555
Ba1 O9 3.037936 1_555
Ba2 H1 2.680181 1_555
Ba2 O6 2.719611 1_454
Ba2 O8 2.741918 1_564
Ba2 H10 2.800779 1_455
Ba2 H4 2.813073 1_555
Ba2 O12 2.817284 1_555
Ba2 O4 2.817794 1_555
Ba2 O1 2.856648 1_555
Ba2 H12 2.873201 1_555
Ba2 O13 2.875850 1_554
Ba2 H2 2.912517 1_455
Ba2 O10 3.037936 1_455
Ba3 H0 2.680181 1_555
Ba3 O7 2.719611 1_555
Ba3 O9 2.741918 1_565
Ba3 H11 2.800779 1_555
Ba3 H5 2.813073 1_555
Ba3 O13 2.817284 1_555
Ba3 O5 2.817794 1_555
Ba3 O0 2.856648 1_555
Ba3 H13 2.873201 1_555
Ba3 O12 2.875850 1_555
Ba3 H3 2.912517 1_555
Ba3 O11 3.037936 1_555
Ba4 O0 2.637760 1_655
Ba4 O10 2.653249 1_555
Ba4 O12 2.706271 1_655
Ba5 O1 2.637760 1_556
Ba5 O11 2.653249 1_555
Ba5 O13 2.706271 1_555
Ba6 O2 2.637760 1_455
Ba6 O8 2.653249 1_555
Ba6 O14 2.706271 1_455
Ba7 O3 2.637760 1_554
Ba7 O9 2.653249 1_555
Ba7 O15 2.706271 1_555
H0 O0 0.985888 1_555
H1 O1 0.985888 1_555
H2 O2 0.985888 1_555
H3 O3 0.985888 1_555
H4 O4 0.990671 1_555
H5 O5 0.990671 1_555
H6 O6 0.990671 1_555
H7 O7 0.990671 1_555
H8 O8 0.973811 1_555
H9 O9 0.973811 1_555
H10 O10 0.973811 1_555
H11 O11 0.973811 1_555
H12 O12 0.978607 1_555
H13 O13 0.978607 1_555
H14 O14 0.978607 1_555
H15 O15 0.978607 1_555
