# generated using pymatgen
data_Ca(H8O5)2
_symmetry_space_group_name_H-M   'P 1'
_cell_length_a   6.40059700
_cell_length_b   6.60256045
_cell_length_c   10.77212317
_cell_angle_alpha   91.07828103
_cell_angle_beta   93.79176095
_cell_angle_gamma   92.77876142
_symmetry_Int_Tables_number   1
_chemical_formula_structural   Ca(H8O5)2
_chemical_formula_sum   'Ca2 H32 O20'
_cell_volume   453.59205353
_cell_formula_units_Z   2
loop_
 _symmetry_equiv_pos_site_id
 _symmetry_equiv_pos_as_xyz
  1  'x, y, z'
loop_
 _atom_site_type_symbol
 _atom_site_label
 _atom_site_symmetry_multiplicity
 _atom_site_fract_x
 _atom_site_fract_y
 _atom_site_fract_z
 _atom_site_occupancy
  Ca  Ca0  1  0.02957200  0.95688900  0.27248100  1
  Ca  Ca1  1  0.00567200  0.97717600  0.74615800  1
  H  H0  1  0.63204300  0.28660000  0.37334700  1
  H  H1  1  0.60490700  0.04792500  0.37894300  1
  H  H2  1  0.37552000  0.87184400  0.44765200  1
  H  H3  1  0.43881800  0.71591500  0.34507800  1
  H  H4  1  0.85432000  0.62326400  0.38665400  1
  H  H5  1  0.26788500  0.36531000  0.34814200  1
  H  H6  1  0.09305900  0.30234900  0.44494700  1
  H  H7  1  0.63565600  0.76117900  0.87509700  1
  H  H8  1  0.47609200  0.03471300  0.87170000  1
  H  H9  1  0.30235200  0.14511200  0.94291800  1
  H  H10  1  0.77610900  0.23914800  0.87939300  1
  H  H11  1  0.95343300  0.41192100  0.87461600  1
  H  H12  1  0.24273500  0.62934800  0.84603200  1
  H  H13  1  0.13344200  0.71239800  0.96341100  1
  H  H14  1  0.33755600  0.71981800  0.63249300  1
  H  H15  1  0.14940700  0.78624700  0.53477000  1
  H  H16  1  0.56006300  0.03044800  0.64898000  1
  H  H17  1  0.70499300  0.14373100  0.55839800  1
  H  H18  1  0.23463200  0.38862800  0.62993500  1
  H  H19  1  0.99459200  0.42997100  0.62863500  1
  H  H20  1  0.69824200  0.61415300  0.64990400  1
  H  H21  1  0.86313300  0.70020700  0.55144700  1
  H  H22  1  0.35383200  0.01503500  0.11510100  1
  H  H23  1  0.35149600  0.24966900  0.14235400  1
  H  H24  1  0.63044000  0.88018600  0.17390600  1
  H  H25  1  0.71031100  0.90492600  0.00384400  1
  H  H26  1  0.04219100  0.60337800  0.12936100  1
  H  H27  1  0.28834300  0.62973100  0.14226000  1
  H  H28  1  0.94996900  0.36414300  0.23620600  1
  H  H29  1  0.89275200  0.31370100  0.09010900  1
  H  H30  1  0.43241100  0.37173200  0.81496700  1
  H  H31  1  0.63008900  0.45679800  0.17031100  1
  O  O0  1  0.70721000  0.16349000  0.40141000  1
  O  O1  1  0.40115500  0.86426100  0.35781300  1
  O  O2  1  0.93502600  0.74340500  0.41940100  1
  O  O3  1  0.12695700  0.28701000  0.35611800  1
  O  O4  1  0.68242700  0.90088800  0.89969600  1
  O  O5  1  0.35297800  0.12701300  0.85845700  1
  O  O6  1  0.92426700  0.27210200  0.90219100  1
  O  O7  1  0.11068100  0.68949300  0.87171700  1
  O  O8  1  0.25842600  0.84680300  0.59756700  1
  O  O9  1  0.69556100  0.10459500  0.64776300  1
  O  O10  1  0.09047700  0.31829800  0.61394400  1
  O  O11  1  0.84857400  0.66376100  0.64320400  1
  O  O12  1  0.26139600  0.12804500  0.11022300  1
  O  O13  1  0.74769700  0.93067500  0.12853300  1
  O  O14  1  0.16104800  0.70692100  0.12166900  1
  O  O15  1  0.87767600  0.41382900  0.15769700  1
  O  O16  1  0.48515700  0.48245500  0.32371700  1
  O  O17  1  0.46134400  0.52086000  0.80373700  1
  O  O18  1  0.44915900  0.53693300  0.66625800  1
  O  O19  1  0.47665700  0.46634000  0.18578300  1
loop_
_geom_bond_atom_site_label_1
_geom_bond_atom_site_label_2
_geom_bond_distance
_geom_bond_site_symmetry_2
Ca0 O2 2.232866 1_455
Ca0 O13 2.297614 1_455
Ca0 O3 2.381422 1_565
Ca0 O14 2.507162 1_555
Ca0 O1 2.597803 1_555
Ca0 O12 2.605485 1_565
Ca1 O9 2.385002 1_465
Ca1 O7 2.447291 1_555
Ca1 O11 2.467303 1_455
Ca1 O8 2.519102 1_555
Ca1 O5 2.601872 1_565
Ca1 O6 2.641867 1_465
Ca1 O10 2.738659 1_565
Ca1 O4 2.766350 1_455
H0 O0 1.005731 1_555
H0 O16 1.708613 1_555
H1 O0 0.996589 1_555
H2 O1 0.992953 1_555
H3 O1 1.028830 1_555
H3 O16 1.599044 1_555
H4 O2 0.972698 1_555
H5 O3 1.027134 1_555
H5 O16 1.597870 1_555
H6 O3 0.999443 1_555
H7 O4 0.981967 1_555
H8 O5 1.023550 1_555
H8 O4 1.639004 1_545
H9 O5 0.992832 1_555
H10 O6 0.976784 1_555
H11 O6 0.988058 1_555
H12 O7 1.003989 1_555
H13 O7 0.996460 1_555
H14 O8 1.062483 1_555
H14 O18 1.471880 1_555
H15 O8 1.002347 1_555
H16 O9 0.975999 1_555
H17 O9 1.006303 1_555
H18 O10 1.015412 1_555
H18 O18 1.667776 1_555
H19 O10 0.998839 1_655
H20 O11 1.008893 1_555
H20 O18 1.671653 1_555
H21 O11 1.030786 1_555
H21 O2 1.550959 1_555
H22 O12 0.974536 1_555
H23 O12 1.007704 1_555
H24 O13 0.971432 1_555
H25 O4 1.123896 1_554
H25 O13 1.354699 1_555
H26 O14 1.006495 1_555
H27 O14 0.996694 1_555
H28 O15 1.005164 1_555
H29 O15 0.986817 1_555
H30 O17 1.004084 1_555
H31 O19 1.011649 1_555
H31 O15 1.637334 1_555
O16 O19 1.484858 1_555
O17 O18 1.483904 1_555
