# generated using pymatgen
data_Cs2H4Pt
_symmetry_space_group_name_H-M   'P 1'
_cell_length_a   6.19076090
_cell_length_b   6.19076090
_cell_length_c   8.85198667
_cell_angle_alpha   90.00000000
_cell_angle_beta   90.00000000
_cell_angle_gamma   90.00000000
_symmetry_Int_Tables_number   1
_chemical_formula_structural   Cs2H4Pt
_chemical_formula_sum   'Cs4 H8 Pt2'
_cell_volume   339.25699677
_cell_formula_units_Z   2
loop_
 _symmetry_equiv_pos_site_id
 _symmetry_equiv_pos_as_xyz
  1  'x, y, z'
loop_
 _atom_site_type_symbol
 _atom_site_label
 _atom_site_symmetry_multiplicity
 _atom_site_fract_x
 _atom_site_fract_y
 _atom_site_fract_z
 _atom_site_occupancy
  Cs  Cs0  1  0.00000000  0.50000000  0.25000000  1
  Cs  Cs1  1  0.50000000  0.00000000  0.75000000  1
  Cs  Cs2  1  0.00000000  0.50000000  0.75000000  1
  Cs  Cs3  1  0.50000000  0.00000000  0.25000000  1
  H  H0  1  0.50000000  0.50000000  0.31349920  1
  H  H1  1  0.00000000  0.00000000  0.81349920  1
  H  H2  1  0.50000000  0.50000000  0.68650080  1
  H  H3  1  0.00000000  0.00000000  0.18650080  1
  H  H4  1  0.31137299  0.68862701  0.50000000  1
  H  H5  1  0.68862701  0.31137299  0.50000000  1
  H  H6  1  0.18862701  0.18862701  0.00000000  1
  H  H7  1  0.81137299  0.81137299  0.00000000  1
  Pt  Pt0  1  0.50000000  0.50000000  0.50000000  1
  Pt  Pt1  1  0.00000000  0.00000000  -0.00000000  1
loop_
_geom_bond_atom_site_label_1
_geom_bond_atom_site_label_2
_geom_bond_distance
_geom_bond_site_symmetry_2
Cs0 H3 3.146002 1_555
Cs0 H0 3.146002 1_555
Cs0 H3 3.146002 1_565
Cs0 H0 3.146002 1_455
Cs0 H6 3.158601 1_555
Cs0 H5 3.158601 1_455
Cs0 H4 3.158601 1_555
Cs0 H7 3.158601 1_455
Cs1 H1 3.146002 1_555
Cs1 H1 3.146002 1_655
Cs1 H2 3.146002 1_555
Cs1 H2 3.146002 1_545
Cs1 H6 3.158601 1_556
Cs1 H5 3.158601 1_555
Cs1 H7 3.158601 1_546
Cs1 H4 3.158601 1_545
Cs2 H1 3.146002 1_565
Cs2 H1 3.146002 1_555
Cs2 H2 3.146002 1_455
Cs2 H2 3.146002 1_555
Cs2 H6 3.158601 1_556
Cs2 H7 3.158601 1_456
Cs2 H5 3.158601 1_455
Cs2 H4 3.158601 1_555
Cs3 H3 3.146002 1_555
Cs3 H0 3.146002 1_555
Cs3 H0 3.146002 1_545
Cs3 H3 3.146002 1_655
Cs3 H6 3.158601 1_555
Cs3 H5 3.158601 1_555
Cs3 H7 3.158601 1_545
Cs3 H4 3.158601 1_545
H0 Pt0 1.650903 1_555
H1 Pt1 1.650903 1_556
H2 Pt0 1.650903 1_555
H3 Pt1 1.650903 1_555
H4 Pt0 1.651440 1_555
H5 Pt0 1.651440 1_555
H6 Pt1 1.651440 1_555
H7 Pt1 1.651440 1_665
