# generated using pymatgen
data_Nb14S5
_symmetry_space_group_name_H-M   'P 1'
_cell_length_a   3.39905683
_cell_length_b   18.64424349
_cell_length_c   19.90428715
_cell_angle_alpha   90.00000000
_cell_angle_beta   90.00000000
_cell_angle_gamma   90.00000000
_symmetry_Int_Tables_number   1
_chemical_formula_structural   Nb14S5
_chemical_formula_sum   'Nb56 S20'
_cell_volume   1261.39126806
_cell_formula_units_Z   4
loop_
 _symmetry_equiv_pos_site_id
 _symmetry_equiv_pos_as_xyz
  1  'x, y, z'
loop_
 _atom_site_type_symbol
 _atom_site_label
 _atom_site_symmetry_multiplicity
 _atom_site_fract_x
 _atom_site_fract_y
 _atom_site_fract_z
 _atom_site_occupancy
  Nb  Nb0  1  0.25000000  0.96688896  0.45556580  1
  Nb  Nb1  1  0.25000000  0.00783000  0.77473947  1
  Nb  Nb2  1  0.25000000  0.44872010  0.38481763  1
  Nb  Nb3  1  0.75000000  0.89766841  0.36407186  1
  Nb  Nb4  1  0.75000000  0.36192631  0.98031587  1
  Nb  Nb5  1  0.75000000  0.54965281  0.44793581  1
  Nb  Nb6  1  0.25000000  0.10233159  0.63592814  1
  Nb  Nb7  1  0.75000000  0.32892236  0.34867031  1
  Nb  Nb8  1  0.25000000  0.75559854  0.79623552  1
  Nb  Nb9  1  0.25000000  0.93003859  0.62088741  1
  Nb  Nb10  1  0.25000000  0.20080547  0.32174756  1
  Nb  Nb11  1  0.25000000  0.45034719  0.55206419  1
  Nb  Nb12  1  0.25000000  0.35911535  0.24247581  1
  Nb  Nb13  1  0.75000000  0.06996141  0.37911259  1
  Nb  Nb14  1  0.75000000  0.55127990  0.61518237  1
  Nb  Nb15  1  0.75000000  0.14088465  0.74247581  1
  Nb  Nb16  1  0.75000000  0.21817121  0.58086488  1
  Nb  Nb17  1  0.75000000  0.05127990  0.88481763  1
  Nb  Nb18  1  0.75000000  0.04965281  0.05206419  1
  Nb  Nb19  1  0.75000000  0.53311104  0.95556580  1
  Nb  Nb20  1  0.75000000  0.86192631  0.51968413  1
  Nb  Nb21  1  0.75000000  0.79919453  0.67825244  1
  Nb  Nb22  1  0.75000000  0.38146697  0.66642457  1
  Nb  Nb23  1  0.75000000  0.99217000  0.22526053  1
  Nb  Nb24  1  0.75000000  0.20219708  0.96559664  1
  Nb  Nb25  1  0.25000000  0.63807369  0.01968413  1
  Nb  Nb26  1  0.25000000  0.17107664  0.84867031  1
  Nb  Nb27  1  0.25000000  0.61853303  0.33357543  1
  Nb  Nb28  1  0.25000000  0.94872010  0.11518237  1
  Nb  Nb29  1  0.25000000  0.13807369  0.48031587  1
  Nb  Nb30  1  0.75000000  0.29919453  0.82174756  1
  Nb  Nb31  1  0.75000000  0.03311104  0.54443420  1
  Nb  Nb32  1  0.25000000  0.95034719  0.94793581  1
  Nb  Nb33  1  0.75000000  0.24440146  0.20376448  1
  Nb  Nb34  1  0.75000000  0.49217000  0.27473947  1
  Nb  Nb35  1  0.25000000  0.70080547  0.17825244  1
  Nb  Nb36  1  0.25000000  0.28182879  0.08086488  1
  Nb  Nb37  1  0.25000000  0.29780292  0.46559664  1
  Nb  Nb38  1  0.75000000  0.70219708  0.53440336  1
  Nb  Nb39  1  0.25000000  0.43003859  0.87911259  1
  Nb  Nb40  1  0.25000000  0.46688896  0.04443420  1
  Nb  Nb41  1  0.25000000  0.67107764  0.65132969  1
  Nb  Nb42  1  0.25000000  0.50783000  0.72526053  1
  Nb  Nb43  1  0.75000000  0.71817121  0.91913512  1
  Nb  Nb44  1  0.75000000  0.39766841  0.13592814  1
  Nb  Nb45  1  0.75000000  0.56996141  0.12088741  1
  Nb  Nb46  1  0.25000000  0.60233159  0.86407186  1
  Nb  Nb47  1  0.75000000  0.88146697  0.83357543  1
  Nb  Nb48  1  0.25000000  0.85911535  0.25752419  1
  Nb  Nb49  1  0.25000000  0.78182879  0.41913512  1
  Nb  Nb50  1  0.25000000  0.79780292  0.03440336  1
  Nb  Nb51  1  0.25000000  0.11853303  0.16642457  1
  Nb  Nb52  1  0.75000000  0.82892236  0.15132969  1
  Nb  Nb53  1  0.25000000  0.25559854  0.70376448  1
  Nb  Nb54  1  0.75000000  0.64088465  0.75752419  1
  Nb  Nb55  1  0.75000000  0.74440146  0.29623552  1
  S  S0  1  0.25000000  0.59757560  0.53352696  1
  S  S1  1  0.75000000  0.40242440  0.46647304  1
  S  S2  1  0.25000000  0.87917679  0.73872934  1
  S  S3  1  0.25000000  0.37917679  0.76127066  1
  S  S4  1  0.25000000  0.79009339  0.58017858  1
  S  S5  1  0.25000000  0.09757560  0.96647304  1
  S  S6  1  0.75000000  0.62082321  0.23872934  1
  S  S7  1  0.75000000  0.90242440  0.03352696  1
  S  S8  1  0.75000000  0.67788211  0.41104548  1
  S  S9  1  0.75000000  0.17788211  0.08895452  1
  S  S10  1  0.75000000  0.01435756  0.67844078  1
  S  S11  1  0.25000000  0.98564244  0.32155922  1
  S  S12  1  0.25000000  0.29009339  0.91982142  1
  S  S13  1  0.25000000  0.48564244  0.17844078  1
  S  S14  1  0.75000000  0.70990661  0.08017858  1
  S  S15  1  0.75000000  0.20990661  0.41982142  1
  S  S16  1  0.25000000  0.82211789  0.91104548  1
  S  S17  1  0.25000000  0.32211789  0.58895452  1
  S  S18  1  0.75000000  0.12082321  0.26127066  1
  S  S19  1  0.75000000  0.51435756  0.82155922  1
loop_
_geom_bond_atom_site_label_1
_geom_bond_atom_site_label_2
_geom_bond_distance
_geom_bond_site_symmetry_2
Nb0 S11 2.690124 1_555
Nb1 S2 2.503442 1_545
Nb1 S10 2.564598 1_455
Nb1 S10 2.564598 1_555
Nb2 S1 2.504995 1_555
Nb2 S1 2.504995 1_455
Nb3 S11 2.508926 1_555
Nb3 S11 2.508926 1_655
Nb4 S12 2.476267 1_655
Nb4 S12 2.476267 1_555
Nb5 S8 2.500958 1_555
Nb5 S0 2.566918 1_655
Nb5 S0 2.566918 1_555
Nb5 S1 2.769649 1_555
Nb6 S10 2.508926 1_455
Nb6 S10 2.508926 1_555
Nb7 S15 2.632382 1_555
Nb7 S1 2.715872 1_555
Nb8 S2 2.572679 1_555
Nb8 S16 2.600056 1_555
Nb9 S2 2.529997 1_555
Nb9 S10 2.583038 1_465
Nb9 S10 2.583038 1_565
Nb9 S4 2.732093 1_555
Nb10 S18 2.561467 1_455
Nb10 S18 2.561467 1_555
Nb10 S15 2.593809 1_555
Nb10 S15 2.593809 1_455
Nb11 S17 2.500958 1_555
Nb11 S1 2.566918 1_555
Nb11 S1 2.566918 1_455
Nb11 S0 2.769649 1_555
Nb12 S13 2.681310 1_555
Nb13 S18 2.529997 1_555
Nb13 S11 2.583038 1_645
Nb13 S11 2.583038 1_545
Nb13 S15 2.732093 1_555
Nb14 S0 2.504995 1_555
Nb14 S0 2.504995 1_655
Nb15 S10 2.681310 1_555
Nb16 S17 2.582672 1_655
Nb16 S17 2.582672 1_555
Nb17 S5 2.504995 1_555
Nb17 S5 2.504995 1_655
Nb18 S9 2.500958 1_555
Nb18 S5 2.566918 1_554
Nb18 S5 2.566918 1_654
Nb18 S7 2.769649 1_545
Nb19 S19 2.690124 1_555
Nb20 S4 2.476267 1_655
Nb20 S4 2.476267 1_555
Nb21 S2 2.561467 1_555
Nb21 S2 2.561467 1_655
Nb21 S4 2.593809 1_555
Nb21 S4 2.593809 1_655
Nb22 S3 2.540507 1_655
Nb22 S3 2.540507 1_555
Nb22 S17 2.547646 1_655
Nb22 S17 2.547646 1_555
Nb23 S18 2.503442 1_565
Nb23 S11 2.564598 1_555
Nb23 S11 2.564598 1_655
Nb24 S9 2.496850 1_556
Nb24 S12 2.530628 1_555
Nb24 S12 2.530628 1_655
Nb24 S5 2.587179 1_555
Nb24 S5 2.587179 1_655
Nb25 S14 2.476267 1_555
Nb25 S14 2.476267 1_455
Nb26 S12 2.632398 1_555
Nb26 S5 2.715862 1_555
Nb27 S6 2.540507 1_555
Nb27 S6 2.540507 1_455
Nb27 S8 2.547646 1_455
Nb27 S8 2.547646 1_555
Nb28 S7 2.504995 1_555
Nb28 S7 2.504995 1_455
Nb29 S15 2.476267 1_555
Nb29 S15 2.476267 1_455
Nb30 S3 2.561467 1_555
Nb30 S3 2.561467 1_655
Nb30 S12 2.593809 1_655
Nb30 S12 2.593809 1_555
Nb31 S10 2.690124 1_555
Nb32 S16 2.500958 1_555
Nb32 S7 2.566918 1_456
Nb32 S7 2.566918 1_556
Nb32 S5 2.769649 1_565
Nb33 S18 2.572679 1_555
Nb33 S9 2.600056 1_555
Nb34 S6 2.503442 1_555
Nb34 S13 2.564598 1_555
Nb34 S13 2.564598 1_655
Nb35 S6 2.561467 1_455
Nb35 S6 2.561467 1_555
Nb35 S14 2.593809 1_555
Nb35 S14 2.593809 1_455
Nb36 S9 2.582672 1_555
Nb36 S9 2.582672 1_455
Nb37 S17 2.496850 1_555
Nb37 S15 2.530628 1_555
Nb37 S15 2.530628 1_455
Nb37 S1 2.587179 1_455
Nb37 S1 2.587179 1_555
Nb38 S8 2.496850 1_555
Nb38 S4 2.530628 1_555
Nb38 S4 2.530628 1_655
Nb38 S0 2.587179 1_555
Nb38 S0 2.587179 1_655
Nb39 S3 2.529997 1_555
Nb39 S19 2.583038 1_455
Nb39 S19 2.583038 1_555
Nb39 S12 2.732093 1_555
Nb40 S13 2.690124 1_555
Nb41 S4 2.632382 1_555
Nb41 S0 2.715872 1_555
Nb42 S3 2.503442 1_555
Nb42 S19 2.564598 1_455
Nb42 S19 2.564598 1_555
Nb43 S16 2.582672 1_555
Nb43 S16 2.582672 1_655
Nb44 S13 2.508926 1_655
Nb44 S13 2.508926 1_555
Nb45 S6 2.529997 1_555
Nb45 S13 2.583038 1_555
Nb45 S13 2.583038 1_655
Nb45 S14 2.732093 1_555
Nb46 S19 2.508926 1_455
Nb46 S19 2.508926 1_555
Nb47 S2 2.540507 1_555
Nb47 S2 2.540507 1_655
Nb47 S16 2.547646 1_555
Nb47 S16 2.547646 1_655
Nb48 S11 2.681310 1_555
Nb49 S8 2.582672 1_555
Nb49 S8 2.582672 1_455
Nb50 S16 2.496850 1_554
Nb50 S14 2.530628 1_455
Nb50 S14 2.530628 1_555
Nb50 S7 2.587179 1_455
Nb50 S7 2.587179 1_555
Nb51 S18 2.540507 1_555
Nb51 S18 2.540507 1_455
Nb51 S9 2.547646 1_555
Nb51 S9 2.547646 1_455
Nb52 S14 2.632382 1_555
Nb52 S7 2.715872 1_555
Nb53 S3 2.572679 1_555
Nb53 S17 2.600056 1_555
Nb54 S19 2.681310 1_555
Nb55 S6 2.572679 1_555
Nb55 S8 2.600056 1_555
