# generated using pymatgen
data_RbEuAsS3
_symmetry_space_group_name_H-M   'P 1'
_cell_length_a   8.36189800
_cell_length_b   8.83975100
_cell_length_c   9.51714255
_cell_angle_alpha   74.65843027
_cell_angle_beta   90.00000000
_cell_angle_gamma   90.00000000
_symmetry_Int_Tables_number   1
_chemical_formula_structural   RbEuAsS3
_chemical_formula_sum   'Rb4 Eu4 As4 S12'
_cell_volume   678.41155249
_cell_formula_units_Z   4
loop_
 _symmetry_equiv_pos_site_id
 _symmetry_equiv_pos_as_xyz
  1  'x, y, z'
loop_
 _atom_site_type_symbol
 _atom_site_label
 _atom_site_symmetry_multiplicity
 _atom_site_fract_x
 _atom_site_fract_y
 _atom_site_fract_z
 _atom_site_occupancy
  Rb  Rb0  1  0.06766300  0.72915500  0.91164200  1
  Rb  Rb1  1  0.56766300  0.77084500  0.08835800  1
  Rb  Rb2  1  0.43233700  0.22915500  0.91164200  1
  Rb  Rb3  1  0.93233700  0.27084500  0.08835800  1
  Eu  Eu0  1  0.28351500  0.02846800  0.43787100  1
  Eu  Eu1  1  0.21648500  0.52846800  0.43787100  1
  Eu  Eu2  1  0.78351500  0.47153200  0.56212900  1
  Eu  Eu3  1  0.71648500  0.97153200  0.56212900  1
  As  As0  1  0.95228700  0.85153000  0.27339000  1
  As  As1  1  0.04771300  0.14847000  0.72661000  1
  As  As2  1  0.54771300  0.35153000  0.27339000  1
  As  As3  1  0.45228700  0.64847000  0.72661000  1
  S  S0  1  0.51023900  0.71902500  0.47997200  1
  S  S1  1  0.58632900  0.10244500  0.25565700  1
  S  S2  1  0.48976100  0.28097500  0.52002800  1
  S  S3  1  0.80253800  0.07532900  0.82202400  1
  S  S4  1  0.69746200  0.57532900  0.82202400  1
  S  S5  1  0.01023900  0.78097500  0.52002800  1
  S  S6  1  0.30253800  0.42467100  0.17797600  1
  S  S7  1  0.98976100  0.21902500  0.47997200  1
  S  S8  1  0.08632900  0.39755500  0.74434300  1
  S  S9  1  0.19746200  0.92467100  0.17797600  1
  S  S10  1  0.41367100  0.89755500  0.74434300  1
  S  S11  1  0.91367100  0.60244500  0.25565700  1
loop_
_geom_bond_atom_site_label_1
_geom_bond_atom_site_label_2
_geom_bond_distance
_geom_bond_site_symmetry_2
Rb0 S11 3.419287 1_456
Rb0 S10 3.444999 1_555
Rb0 S4 3.573903 1_455
Rb0 S9 3.592781 1_556
Rb0 S5 3.664407 1_555
Rb0 S8 3.690718 1_555
Rb0 S3 3.691262 1_465
Rb0 S6 3.730504 1_556
Rb1 S10 3.419287 1_554
Rb1 S11 3.444999 1_555
Rb1 S9 3.573903 1_555
Rb1 S4 3.592781 1_554
Rb1 S0 3.664407 1_555
Rb1 S1 3.690718 1_565
Rb1 S6 3.691262 1_555
Rb1 S3 3.730504 1_564
Rb2 S1 3.419287 1_556
Rb2 S8 3.444999 1_555
Rb2 S3 3.573903 1_555
Rb2 S6 3.592781 1_556
Rb2 S2 3.664407 1_555
Rb2 S10 3.690718 1_545
Rb2 S4 3.691262 1_555
Rb2 S9 3.730504 1_546
Rb3 S8 3.419287 1_654
Rb3 S1 3.444999 1_555
Rb3 S6 3.573903 1_655
Rb3 S3 3.592781 1_554
Rb3 S7 3.664407 1_555
Rb3 S11 3.690718 1_555
Rb3 S9 3.691262 1_645
Rb3 S4 3.730504 1_554
Eu0 S9 2.945936 1_545
Eu0 S10 3.040561 1_545
Eu0 S1 3.040789 1_555
Eu0 S7 3.064108 1_455
Eu0 S2 3.080814 1_555
Eu0 S5 3.116773 1_545
Eu0 S0 3.264540 1_545
Eu1 S6 2.945936 1_555
Eu1 S8 3.040561 1_555
Eu1 S11 3.040789 1_455
Eu1 S0 3.064108 1_555
Eu1 S5 3.080814 1_555
Eu1 S2 3.116773 1_555
Eu1 S7 3.264540 1_455
Eu2 S4 2.945936 1_555
Eu2 S11 3.040561 1_555
Eu2 S8 3.040789 1_655
Eu2 S2 3.064108 1_555
Eu2 S7 3.080814 1_555
Eu2 S0 3.116773 1_555
Eu2 S5 3.264540 1_655
Eu3 S3 2.945936 1_565
Eu3 S1 3.040561 1_565
Eu3 S10 3.040789 1_555
Eu3 S5 3.064108 1_655
Eu3 S0 3.080814 1_555
Eu3 S7 3.116773 1_565
Eu3 S2 3.264540 1_565
As0 S9 2.266048 1_655
As0 S11 2.275417 1_555
As0 S5 2.314935 1_655
As0 Rb3 3.662534 1_565
As0 Rb1 3.823375 1_555
As1 S3 2.266048 1_455
As1 S8 2.275417 1_555
As1 S7 2.314935 1_455
As1 Rb0 3.662534 1_545
As1 Rb2 3.823375 1_555
As2 S6 2.266048 1_555
As2 S1 2.275417 1_555
As2 S2 2.314935 1_555
As2 Rb1 3.662534 1_555
As2 Rb3 3.823375 1_555
As3 S4 2.266048 1_555
As3 S10 2.275417 1_555
As3 S0 2.314935 1_555
As3 Rb2 3.662534 1_555
As3 Rb0 3.823375 1_555
