# generated using pymatgen
data_NaPr9Si6(SO12)2
_symmetry_space_group_name_H-M   'P 1'
_cell_length_a   6.99536200
_cell_length_b   9.92577700
_cell_length_c   17.19458200
_cell_angle_alpha   89.99999000
_cell_angle_beta   90.00000000
_cell_angle_gamma   90.00000000
_symmetry_Int_Tables_number   1
_chemical_formula_structural   NaPr9Si6(SO12)2
_chemical_formula_sum   'Na2 Pr18 Si12 S4 O48'
_cell_volume   1193.89554024
_cell_formula_units_Z   2
loop_
 _symmetry_equiv_pos_site_id
 _symmetry_equiv_pos_as_xyz
  1  'x, y, z'
loop_
 _atom_site_type_symbol
 _atom_site_label
 _atom_site_symmetry_multiplicity
 _atom_site_fract_x
 _atom_site_fract_y
 _atom_site_fract_z
 _atom_site_occupancy
  Na  Na0  1  0.75811100  0.00002100  0.66667800  1
  Na  Na1  1  0.24188900  0.50002100  0.16667800  1
  Pr  Pr0  1  0.99629000  0.87830000  0.87465600  1
  Pr  Pr1  1  0.74855200  0.50061600  0.83342100  1
  Pr  Pr2  1  0.25075400  0.49943100  0.83328300  1
  Pr  Pr3  1  0.99775400  0.37289300  0.62353800  1
  Pr  Pr4  1  0.00371000  0.37830000  0.37465600  1
  Pr  Pr5  1  0.50078100  0.25293700  0.50280600  1
  Pr  Pr6  1  0.00314400  0.24879000  0.00175900  1
  Pr  Pr7  1  0.49979200  0.11932200  0.87503000  1
  Pr  Pr8  1  0.24694200  0.99994200  0.66665900  1
  Pr  Pr9  1  0.74924600  0.99943100  0.33328300  1
  Pr  Pr10  1  0.25144800  0.00061600  0.33342100  1
  Pr  Pr11  1  0.00224600  0.87289300  0.12353800  1
  Pr  Pr12  1  0.49921900  0.75293700  0.00280600  1
  Pr  Pr13  1  0.99685600  0.74879000  0.50175900  1
  Pr  Pr14  1  0.50223000  0.62775600  0.62219500  1
  Pr  Pr15  1  0.50020800  0.61932200  0.37503000  1
  Pr  Pr16  1  0.75305800  0.49994200  0.16665900  1
  Pr  Pr17  1  0.49777000  0.12775600  0.12219500  1
  Si  Si0  1  0.00282400  0.67091100  0.70297900  1
  Si  Si1  1  0.99838000  0.61006000  0.98399000  1
  Si  Si2  1  0.49931300  0.27993000  0.68887300  1
  Si  Si3  1  0.00134900  0.21896000  0.81304200  1
  Si  Si4  1  0.99717600  0.17091100  0.20297900  1
  Si  Si5  1  0.00162000  0.11006000  0.48399000  1
  Si  Si6  1  0.49873400  0.89335400  0.51563800  1
  Si  Si7  1  0.49857600  0.82678700  0.79551400  1
  Si  Si8  1  0.50068700  0.77993000  0.18887300  1
  Si  Si9  1  0.99865100  0.71896000  0.31304200  1
  Si  Si10  1  0.50126600  0.39335400  0.01563800  1
  Si  Si11  1  0.50142400  0.32678700  0.29551400  1
  S  S0  1  0.75676000  0.49845600  0.49740000  1
  S  S1  1  0.75316100  0.00147000  0.00251000  1
  S  S2  1  0.24324000  0.99845600  0.99740000  1
  S  S3  1  0.24683900  0.50147000  0.50251000  1
  O  O0  1  0.80994200  0.68779900  0.94683100  1
  O  O1  1  0.18930000  0.68690500  0.94892800  1
  O  O2  1  0.49741800  0.67361000  0.83359900  1
  O  O3  1  0.00020800  0.67335100  0.79982800  1
  O  O4  1  0.19117400  0.57600300  0.68340000  1
  O  O5  1  0.81193700  0.58013200  0.68133400  1
  O  O6  1  0.99890800  0.46355300  0.93675900  1
  O  O7  1  0.49916600  0.41359200  0.74644700  1
  O  O8  1  0.50300300  0.41279300  0.92001300  1
  O  O9  1  0.99806100  0.36304200  0.76341400  1
  O  O10  1  0.30864000  0.26956500  0.63238100  1
  O  O11  1  0.67819000  0.28703400  0.62810900  1
  O  O12  1  0.81138200  0.23163800  0.86973000  1
  O  O13  1  0.19063000  0.23725000  0.86980900  1
  O  O14  1  0.81070000  0.18690500  0.44892800  1
  O  O15  1  0.19005800  0.18779900  0.44683100  1
  O  O16  1  0.50258200  0.17361000  0.33359900  1
  O  O17  1  0.99979200  0.17335100  0.29982800  1
  O  O18  1  0.49594800  0.13950900  0.73893100  1
  O  O19  1  0.00836800  0.10048300  0.57809000  1
  O  O20  1  0.00827900  0.08263200  0.76116400  1
  O  O21  1  0.18806300  0.08013200  0.18133400  1
  O  O22  1  0.80882600  0.07600300  0.18340000  1
  O  O23  1  0.49583100  0.03869000  0.56078100  1
  O  O24  1  0.00109200  0.96355300  0.43675900  1
  O  O25  1  0.67757300  0.91457200  0.82924400  1
  O  O26  1  0.30798300  0.91657700  0.81860600  1
  O  O27  1  0.50083400  0.91359200  0.24644700  1
  O  O28  1  0.49699700  0.91279300  0.42001300  1
  O  O29  1  0.00193900  0.86304200  0.26341400  1
  O  O30  1  0.49586300  0.82181800  0.70027700  1
  O  O31  1  0.00885900  0.81688300  0.66075100  1
  O  O32  1  0.30849300  0.81339800  0.54891700  1
  O  O33  1  0.67818500  0.79923600  0.54268300  1
  O  O34  1  0.32181000  0.78703400  0.12810900  1
  O  O35  1  0.69136000  0.76956500  0.13238100  1
  O  O36  1  0.18861800  0.73163800  0.36973000  1
  O  O37  1  0.80937000  0.73725000  0.36980900  1
  O  O38  1  0.50405200  0.63950900  0.23893100  1
  O  O39  1  0.99163200  0.60048300  0.07809000  1
  O  O40  1  0.99172100  0.58263200  0.26116400  1
  O  O41  1  0.50416900  0.53869000  0.06078100  1
  O  O42  1  0.69201700  0.41657700  0.31860600  1
  O  O43  1  0.32242700  0.41457200  0.32924400  1
  O  O44  1  0.50413700  0.32181800  0.20027700  1
  O  O45  1  0.99114100  0.31688300  0.16075100  1
  O  O46  1  0.69150700  0.31339800  0.04891700  1
  O  O47  1  0.32181500  0.29923600  0.04268300  1
loop_
_geom_bond_atom_site_label_1
_geom_bond_atom_site_label_2
_geom_bond_distance
_geom_bond_site_symmetry_2
Na0 O20 2.524757 1_655
Na0 O19 2.525730 1_655
Na0 O31 2.528143 1_645
Na0 O18 2.612213 1_555
Na0 O30 2.613023 1_545
Na0 O23 2.613257 1_555
Na1 O40 2.524757 1_455
Na1 O39 2.525730 1_455
Na1 O45 2.528143 1_455
Na1 O38 2.612213 1_555
Na1 O44 2.613023 1_555
Na1 O41 2.613257 1_555
Pr0 S2 2.976745 1_655
Pr0 S1 3.036483 1_566
Pr3 S3 2.999253 1_655
Pr3 S0 3.016526 1_555
Pr4 S0 2.976745 1_455
Pr4 S3 3.036483 1_555
Pr5 S0 3.025547 1_555
Pr5 S3 3.039933 1_555
Pr6 S2 3.000094 1_544
Pr6 S1 3.014042 1_455
Pr7 S2 3.014523 1_545
Pr7 S1 3.051968 1_556
Pr11 S1 2.999253 1_465
Pr11 S2 3.016526 1_554
Pr12 S2 3.025547 1_554
Pr12 S1 3.039933 1_565
Pr13 S0 3.000094 1_555
Pr13 S3 3.014042 1_655
Pr14 S3 2.999682 1_555
Pr14 S0 3.069504 1_555
Pr15 S0 3.014523 1_555
Pr15 S3 3.051968 1_555
Pr17 S1 2.999682 1_555
Pr17 S2 3.069504 1_544
O0 Si1 1.655676 1_555
O0 Pr12 2.463531 1_556
O0 Pr0 2.610521 1_555
O0 Pr1 2.727453 1_555
O1 Si1 1.651953 1_455
O1 Pr12 2.447042 1_556
O1 Pr0 2.657616 1_455
O1 Pr2 2.757079 1_555
O2 Si7 1.655451 1_555
O2 Pr2 2.442613 1_555
O2 Pr1 2.456561 1_555
O2 Pr12 3.014132 1_556
O3 Si0 1.665555 1_555
O3 Pr0 2.407171 1_455
O3 Pr1 2.524351 1_455
O3 Pr2 2.526421 1_555
O4 Si0 1.654320 1_555
O4 Pr14 2.471066 1_555
O4 Pr3 2.637147 1_455
O4 Pr2 2.719043 1_555
O5 Si0 1.653330 1_655
O5 Pr14 2.439519 1_555
O5 Pr3 2.628404 1_555
O5 Pr1 2.767334 1_555
O6 Si1 1.665603 1_555
O6 Pr6 2.407097 1_656
O6 Pr1 2.521845 1_555
O6 Pr2 2.529080 1_655
O7 Si2 1.655341 1_555
O7 Pr2 2.444386 1_555
O7 Pr1 2.454796 1_555
O7 Pr14 3.013920 1_555
O8 Si10 1.655559 1_556
O8 Pr1 2.434595 1_555
O8 Pr2 2.465191 1_555
O8 Pr7 3.013951 1_555
O9 Si3 1.665522 1_655
O9 Pr3 2.407097 1_555
O9 Pr1 2.521925 1_555
O9 Pr2 2.529953 1_655
O10 Si2 1.653243 1_555
O10 Pr3 2.409269 1_455
O10 Pr5 2.607252 1_555
O10 Pr8 2.774132 1_545
O11 Si2 1.631680 1_555
O11 Pr3 2.393692 1_555
O11 Pr5 2.509329 1_555
O12 Si3 1.652837 1_655
O12 Pr7 2.449931 1_555
O12 Pr6 2.642384 1_656
O12 Pr1 2.776844 1_555
O13 Si3 1.654966 1_555
O13 Pr7 2.460785 1_555
O13 Pr6 2.623129 1_556
O13 Pr2 2.709902 1_555
O14 Si5 1.651953 1_655
O14 Pr5 2.447042 1_555
O14 Pr4 2.657616 1_655
O14 Pr9 2.757079 1_545
O15 Si5 1.655676 1_555
O15 Pr5 2.463531 1_555
O15 Pr4 2.610521 1_555
O15 Pr10 2.727453 1_555
O16 Si11 1.655451 1_555
O16 Pr9 2.442613 1_545
O16 Pr10 2.456561 1_555
O16 Pr5 3.014132 1_555
O17 Si4 1.665555 1_555
O17 Pr4 2.407171 1_655
O17 Pr10 2.524351 1_655
O17 Pr9 2.526421 1_545
O18 Si2 1.638306 1_555
O18 Pr7 2.348882 1_555
O18 Pr8 2.549025 1_545
O19 Si5 1.621487 1_555
O19 Pr8 2.469901 1_545
O19 Pr3 2.815522 1_455
O20 Si3 1.621449 1_555
O20 Pr8 2.470129 1_545
O20 Pr0 2.815775 1_445
O21 Si4 1.653330 1_455
O21 Pr17 2.439519 1_555
O21 Pr11 2.628404 1_545
O21 Pr10 2.767334 1_555
O22 Si4 1.654320 1_555
O22 Pr17 2.471066 1_555
O22 Pr11 2.637147 1_645
O22 Pr9 2.719043 1_545
O23 Si6 1.638273 1_545
O23 Pr5 2.348874 1_555
O23 Pr8 2.548247 1_545
O24 Si5 1.665603 1_565
O24 Pr13 2.407097 1_455
O24 Pr10 2.521845 1_565
O24 Pr9 2.529080 1_455
O25 Si7 1.632014 1_555
O25 Pr0 2.389599 1_555
O25 Pr7 2.509322 1_565
O26 Si7 1.652137 1_555
O26 Pr0 2.413988 1_455
O26 Pr7 2.606028 1_565
O26 Pr8 2.773634 1_555
O27 Si8 1.655341 1_555
O27 Pr9 2.444386 1_555
O27 Pr10 2.454796 1_565
O27 Pr17 3.013920 1_565
O28 Si6 1.655559 1_555
O28 Pr10 2.434595 1_565
O28 Pr9 2.465191 1_555
O28 Pr15 3.013951 1_555
O29 Si9 1.665522 1_455
O29 Pr11 2.407097 1_555
O29 Pr10 2.521925 1_565
O29 Pr9 2.529953 1_455
O30 Si7 1.638413 1_555
O30 Pr14 2.348368 1_555
O30 Pr8 2.547966 1_555
O31 Si0 1.621192 1_555
O31 Pr8 2.466907 1_555
O31 Pr13 2.817362 1_455
O32 Si6 1.651762 1_555
O32 Pr13 2.412717 1_455
O32 Pr14 2.611440 1_555
O32 Pr8 2.777138 1_555
O33 Si6 1.632424 1_555
O33 Pr13 2.390667 1_555
O33 Pr14 2.506244 1_555
O34 Si8 1.631680 1_555
O34 Pr11 2.393692 1_555
O34 Pr12 2.509329 1_555
O35 Si8 1.653243 1_555
O35 Pr11 2.409269 1_655
O35 Pr12 2.607252 1_555
O35 Pr16 2.774132 1_555
O36 Si9 1.652837 1_455
O36 Pr15 2.449931 1_555
O36 Pr13 2.642384 1_455
O36 Pr10 2.776844 1_565
O37 Si9 1.654966 1_555
O37 Pr15 2.460785 1_555
O37 Pr13 2.623129 1_555
O37 Pr9 2.709902 1_555
O38 Si8 1.638306 1_555
O38 Pr15 2.348882 1_555
O38 Pr16 2.549025 1_555
O39 Si1 1.621487 1_554
O39 Pr16 2.469901 1_555
O39 Pr11 2.815522 1_655
O40 Si9 1.621449 1_555
O40 Pr16 2.470129 1_555
O40 Pr4 2.815775 1_655
O41 Si10 1.638273 1_555
O41 Pr12 2.348874 1_555
O41 Pr16 2.548247 1_555
O42 Si11 1.652137 1_555
O42 Pr4 2.413988 1_655
O42 Pr15 2.606028 1_555
O42 Pr16 2.773634 1_555
O43 Si11 1.632014 1_555
O43 Pr4 2.389599 1_555
O43 Pr15 2.509322 1_555
O44 Si11 1.638413 1_555
O44 Pr17 2.348368 1_555
O44 Pr16 2.547966 1_555
O45 Si4 1.621192 1_555
O45 Pr16 2.466907 1_555
O45 Pr6 2.817362 1_655
O46 Si10 1.651762 1_555
O46 Pr6 2.412717 1_655
O46 Pr17 2.611440 1_555
O46 Pr16 2.777138 1_555
O47 Si10 1.632424 1_555
O47 Pr6 2.390667 1_555
O47 Pr17 2.506244 1_555
