# generated using pymatgen
data_Yb(ReO4)3
_symmetry_space_group_name_H-M   'P 1'
_cell_length_a   10.24148373
_cell_length_b   10.24148373
_cell_length_c   6.24029700
_cell_angle_alpha   90.00000000
_cell_angle_beta   90.00000000
_cell_angle_gamma   119.99999823
_symmetry_Int_Tables_number   1
_chemical_formula_structural   Yb(ReO4)3
_chemical_formula_sum   'Yb2 Re6 O24'
_cell_volume   566.84152509
_cell_formula_units_Z   2
loop_
 _symmetry_equiv_pos_site_id
 _symmetry_equiv_pos_as_xyz
  1  'x, y, z'
loop_
 _atom_site_type_symbol
 _atom_site_label
 _atom_site_symmetry_multiplicity
 _atom_site_fract_x
 _atom_site_fract_y
 _atom_site_fract_z
 _atom_site_occupancy
  Yb  Yb0  1  0.66666700  0.33333300  0.75000000  1
  Yb  Yb1  1  0.33333300  0.66666700  0.25000000  1
  Re  Re0  1  0.08940100  0.39216000  0.75000000  1
  Re  Re1  1  0.39216000  0.30276000  0.25000000  1
  Re  Re2  1  0.60784000  0.69724000  0.75000000  1
  Re  Re3  1  0.91059900  0.60784000  0.25000000  1
  Re  Re4  1  0.30276000  0.91059900  0.75000000  1
  Re  Re5  1  0.69724000  0.08940100  0.25000000  1
  O  O0  1  0.49199700  0.64857600  0.52071400  1
  O  O1  1  0.35142400  0.84342100  0.52071400  1
  O  O2  1  0.84114800  0.73118500  0.25000000  1
  O  O3  1  0.10996300  0.84114800  0.75000000  1
  O  O4  1  0.26881500  0.10996300  0.25000000  1
  O  O5  1  0.15885200  0.26881500  0.75000000  1
  O  O6  1  0.50800300  0.35142400  0.02071400  1
  O  O7  1  0.89003700  0.15885200  0.25000000  1
  O  O8  1  0.10872800  0.70831100  0.25000000  1
  O  O9  1  0.15657900  0.50800300  0.97928600  1
  O  O10  1  0.15657900  0.50800300  0.52071400  1
  O  O11  1  0.89127200  0.29168900  0.75000000  1
  O  O12  1  0.29168900  0.40041700  0.25000000  1
  O  O13  1  0.70831100  0.59958300  0.75000000  1
  O  O14  1  0.84342100  0.49199700  0.47928600  1
  O  O15  1  0.40041700  0.10872800  0.75000000  1
  O  O16  1  0.64857600  0.15657900  0.02071400  1
  O  O17  1  0.49199700  0.64857600  0.97928600  1
  O  O18  1  0.35142400  0.84342100  0.97928600  1
  O  O19  1  0.64857600  0.15657900  0.47928600  1
  O  O20  1  0.50800300  0.35142400  0.47928600  1
  O  O21  1  0.84342100  0.49199700  0.02071400  1
  O  O22  1  0.73118500  0.89003700  0.75000000  1
  O  O23  1  0.59958300  0.89127200  0.25000000  1
loop_
_geom_bond_atom_site_label_1
_geom_bond_atom_site_label_2
_geom_bond_distance
_geom_bond_site_symmetry_2
O0 Re2 1.764052 1_555
O0 Yb1 2.414484 1_555
O1 Re4 1.764047 1_555
O1 Yb1 2.414476 1_555
O2 Re3 1.732109 1_555
O3 Re4 1.732119 1_555
O4 Re1 1.732117 1_555
O5 Re0 1.732109 1_555
O6 Re1 1.764052 1_555
O6 Yb0 2.414484 1_554
O7 Re5 1.732119 1_555
O8 Re3 1.757341 1_455
O8 Yb1 2.540530 1_555
O9 Re0 1.764052 1_555
O9 Yb1 2.414479 1_556
O10 Re0 1.764052 1_555
O10 Yb1 2.414479 1_555
O11 Re0 1.757341 1_655
O11 Yb0 2.540530 1_555
O12 Re1 1.757333 1_555
O12 Yb1 2.540540 1_555
O13 Re2 1.757333 1_555
O13 Yb0 2.540540 1_555
O14 Re3 1.764052 1_555
O14 Yb0 2.414479 1_555
O15 Re4 1.757342 1_545
O15 Yb0 2.540536 1_555
O16 Re5 1.764047 1_555
O16 Yb0 2.414476 1_554
O17 Re2 1.764052 1_555
O17 Yb1 2.414484 1_556
O18 Re4 1.764047 1_555
O18 Yb1 2.414476 1_556
O19 Re5 1.764047 1_555
O19 Yb0 2.414476 1_555
O20 Re1 1.764052 1_555
O20 Yb0 2.414484 1_555
O21 Re3 1.764052 1_555
O21 Yb0 2.414479 1_554
O22 Re2 1.732117 1_555
O23 Re5 1.757342 1_565
O23 Yb1 2.540536 1_555
