# generated using pymatgen
data_Gd2AlCo2
_symmetry_space_group_name_H-M   'P 1'
_cell_length_a   5.48240123
_cell_length_b   5.48240123
_cell_length_c   5.48240123
_cell_angle_alpha   135.48377453
_cell_angle_beta   121.70273073
_cell_angle_gamma   76.19819025
_symmetry_Int_Tables_number   1
_chemical_formula_structural   Gd2AlCo2
_chemical_formula_sum   'Gd2 Al1 Co2'
_cell_volume   95.69756223
_cell_formula_units_Z   1
loop_
 _symmetry_equiv_pos_site_id
 _symmetry_equiv_pos_as_xyz
  1  'x, y, z'
loop_
 _atom_site_type_symbol
 _atom_site_label
 _atom_site_symmetry_multiplicity
 _atom_site_fract_x
 _atom_site_fract_y
 _atom_site_fract_z
 _atom_site_occupancy
  Gd  Gd0  1  0.70487005  0.20487005  0.50000000  1
  Gd  Gd1  1  0.29512995  0.79512995  0.50000000  1
  Al  Al0  1  -0.00000000  -0.00000000  0.00000000  1
  Co  Co0  1  0.28529158  0.50000000  0.78529158  1
  Co  Co1  1  0.71470842  0.50000000  0.21470842  1
loop_
_geom_bond_atom_site_label_1
_geom_bond_atom_site_label_2
_geom_bond_distance
_geom_bond_site_symmetry_2
Al0 Co1 2.575634 1_444
Al0 Co1 2.575634 1_455
Al0 Co0 2.575634 1_555
Al0 Co0 2.575634 1_544
Al0 Gd1 3.202460 1_545
Al0 Gd0 3.202460 1_454
Al0 Gd1 3.202460 1_444
Al0 Gd0 3.202460 1_555
Al0 Gd0 3.285949 1_444
Al0 Gd1 3.285949 1_544
Al0 Gd1 3.285949 1_555
Al0 Gd0 3.285949 1_455
Co0 Co1 2.293387 1_556
Co0 Gd1 2.958419 1_556
Co0 Gd0 2.958419 1_566
Co0 Gd0 2.958419 1_555
Co0 Gd1 2.958419 1_545
Co0 Gd0 2.967597 1_455
Co0 Gd1 2.967597 1_555
Co1 Gd1 2.958419 1_544
Co1 Gd1 2.958419 1_555
Co1 Gd0 2.958419 1_554
Co1 Gd0 2.958419 1_565
Co1 Gd1 2.967597 1_655
Co1 Gd0 2.967597 1_555
