# generated using pymatgen
data_KLiH4S2(NO3)2
_symmetry_space_group_name_H-M   'P 1'
_cell_length_a   8.56878400
_cell_length_b   5.30237400
_cell_length_c   9.00311978
_cell_angle_alpha   75.15535214
_cell_angle_beta   90.00000000
_cell_angle_gamma   90.00000000
_symmetry_Int_Tables_number   1
_chemical_formula_structural   KLiH4S2(NO3)2
_chemical_formula_sum   'K2 Li2 H8 S4 N4 O12'
_cell_volume   395.40319284
_cell_formula_units_Z   2
loop_
 _symmetry_equiv_pos_site_id
 _symmetry_equiv_pos_as_xyz
  1  'x, y, z'
loop_
 _atom_site_type_symbol
 _atom_site_label
 _atom_site_symmetry_multiplicity
 _atom_site_fract_x
 _atom_site_fract_y
 _atom_site_fract_z
 _atom_site_occupancy
  K  K0  1  0.50001400  0.20239400  0.46458500  1
  K  K1  1  0.00001400  0.79760600  0.53541500  1
  Li  Li0  1  0.80731800  0.09303600  0.84339500  1
  Li  Li1  1  0.30731800  0.90696400  0.15660500  1
  H  H0  1  0.15866100  0.45869900  0.85846100  1
  H  H1  1  0.65866100  0.54130100  0.14153900  1
  H  H2  1  0.29189600  0.48717800  0.71496600  1
  H  H3  1  0.79189600  0.51282200  0.28503400  1
  H  H4  1  0.02280800  0.62693400  0.04768100  1
  H  H5  1  0.52280800  0.37306600  0.95231900  1
  H  H6  1  0.95301100  0.31875800  0.07900600  1
  H  H7  1  0.45301100  0.68124200  0.92099400  1
  S  S0  1  0.19130100  0.08695800  0.79408700  1
  S  S1  1  0.69130100  0.91304200  0.20591300  1
  S  S2  1  0.13263100  0.35813400  0.25343700  1
  S  S3  1  0.63263100  0.64186600  0.74656300  1
  N  N0  1  0.18544000  0.41033100  0.75723000  1
  N  N1  1  0.68544000  0.58966900  0.24277000  1
  N  N2  1  0.05076400  0.43198600  0.07915500  1
  N  N3  1  0.55076400  0.56801400  0.92084500  1
  O  O0  1  0.25743400  0.03010700  0.65663700  1
  O  O1  1  0.75743400  0.96989300  0.34336300  1
  O  O2  1  0.02820900  0.99904500  0.82283500  1
  O  O3  1  0.52820900  0.00095500  0.17716500  1
  O  O4  1  0.28945500  0.98194100  0.93138600  1
  O  O5  1  0.78945500  0.01805900  0.06861400  1
  O  O6  1  0.02065600  0.40022800  0.36831000  1
  O  O7  1  0.52065600  0.59977200  0.63169000  1
  O  O8  1  0.26963600  0.53076200  0.23694900  1
  O  O9  1  0.76963600  0.46923800  0.76305100  1
  O  O10  1  0.17696500  0.08130200  0.28071500  1
  O  O11  1  0.67696500  0.91869800  0.71928500  1
loop_
_geom_bond_atom_site_label_1
_geom_bond_atom_site_label_2
_geom_bond_distance
_geom_bond_site_symmetry_2
K0 O0 2.708411 1_555
K0 O11 2.837718 1_545
K0 O1 2.875026 1_545
K0 O7 2.891132 1_555
K0 N1 2.937370 1_555
K0 O8 3.049626 1_555
K0 O3 3.051477 1_555
K0 O7 3.168846 1_545
K0 O10 3.370435 1_555
K1 O1 2.708411 1_455
K1 O10 2.837718 1_565
K1 O0 2.875026 1_565
K1 O6 2.891132 1_555
K1 N0 2.937370 1_555
K1 O9 3.049626 1_455
K1 O2 3.051477 1_555
K1 O6 3.168846 1_565
K1 O11 3.370435 1_455
Li0 O9 1.966527 1_555
Li0 O5 1.969743 1_556
Li0 O11 1.969754 1_545
Li0 O2 1.977999 1_645
Li1 O8 1.966527 1_555
Li1 O4 1.969743 1_554
Li1 O10 1.969754 1_565
Li1 O3 1.977999 1_565
H0 N0 1.033846 1_555
H1 N1 1.033846 1_555
H2 N0 1.031252 1_555
H3 N1 1.031252 1_555
H4 N2 1.027668 1_555
H5 N3 1.027668 1_555
H6 N2 1.030768 1_655
H7 N3 1.030768 1_555
N0 S0 1.661656 1_555
N1 S1 1.661656 1_555
N2 S2 1.671116 1_555
N3 S3 1.671116 1_555
O0 S0 1.460989 1_555
O1 S1 1.460989 1_555
O2 S0 1.474947 1_565
O3 S1 1.474947 1_545
O4 S0 1.480794 1_565
O5 S1 1.480794 1_545
O6 S2 1.469122 1_555
O7 S3 1.469122 1_555
O8 S2 1.472567 1_555
O9 S3 1.472567 1_555
O10 S2 1.474635 1_555
O11 S3 1.474635 1_555
