# generated using pymatgen
data_ZrAlW
_symmetry_space_group_name_H-M   'P 1'
_cell_length_a   4.50044616
_cell_length_b   4.50044616
_cell_length_c   4.50044616
_cell_angle_alpha   60.00000000
_cell_angle_beta   60.00000000
_cell_angle_gamma   60.00000000
_symmetry_Int_Tables_number   1
_chemical_formula_structural   ZrAlW
_chemical_formula_sum   'Zr1 Al1 W1'
_cell_volume   64.45427303
_cell_formula_units_Z   1
loop_
 _symmetry_equiv_pos_site_id
 _symmetry_equiv_pos_as_xyz
  1  'x, y, z'
loop_
 _atom_site_type_symbol
 _atom_site_label
 _atom_site_symmetry_multiplicity
 _atom_site_fract_x
 _atom_site_fract_y
 _atom_site_fract_z
 _atom_site_occupancy
  Zr  Zr0  1  0.00000000  0.00000000  0.00000000  1
  Al  Al0  1  0.50000000  0.50000000  0.50000000  1
  W  W0  1  0.75000000  0.75000000  0.75000000  1
loop_
_geom_bond_atom_site_label_1
_geom_bond_atom_site_label_2
_geom_bond_distance
_geom_bond_site_symmetry_2
Al0 W0 2.755949 1_554
Al0 W0 2.755949 1_545
Al0 W0 2.755949 1_555
Al0 W0 2.755949 1_455
W0 Zr0 2.755949 1_656
W0 Zr0 2.755949 1_665
W0 Zr0 2.755949 1_666
W0 Zr0 2.755949 1_566
