# generated using pymatgen
data_SbP3C(NCl5)3
_symmetry_space_group_name_H-M   'P 1'
_cell_length_a   9.22573781
_cell_length_b   10.48784118
_cell_length_c   13.20732224
_cell_angle_alpha   85.37582912
_cell_angle_beta   88.95824635
_cell_angle_gamma   76.82856878
_symmetry_Int_Tables_number   1
_chemical_formula_structural   SbP3C(NCl5)3
_chemical_formula_sum   'Sb2 P6 C2 N6 Cl30'
_cell_volume   1240.24621782
_cell_formula_units_Z   2
loop_
 _symmetry_equiv_pos_site_id
 _symmetry_equiv_pos_as_xyz
  1  'x, y, z'
loop_
 _atom_site_type_symbol
 _atom_site_label
 _atom_site_symmetry_multiplicity
 _atom_site_fract_x
 _atom_site_fract_y
 _atom_site_fract_z
 _atom_site_occupancy
  Sb  Sb0  1  0.31313135  0.25261035  0.30800982  1
  Sb  Sb1  1  0.68686865  0.74738965  0.69199018  1
  P  P0  1  0.86452781  0.21649004  0.65038206  1
  P  P1  1  0.59159964  0.70734817  0.21735322  1
  P  P2  1  0.21188893  0.79296637  0.00462929  1
  P  P3  1  0.40840036  0.29265183  0.78264678  1
  P  P4  1  0.13547219  0.78350996  0.34961794  1
  P  P5  1  0.78811107  0.20703363  0.99537071  1
  C  C0  1  0.30661227  0.76227969  0.18841561  1
  C  C1  1  0.69338773  0.23772031  0.81158439  1
  N  N0  1  0.19101581  0.78787891  0.12289892  1
  N  N1  1  0.71554916  0.24032845  0.71128460  1
  N  N2  1  0.44648148  0.73947516  0.15149952  1
  N  N3  1  0.28445084  0.75967155  0.28871540  1
  N  N4  1  0.80898419  0.21212109  0.87710108  1
  N  N5  1  0.55351852  0.26052484  0.84850048  1
  Cl  Cl0  1  0.95356862  0.68884306  0.69567639  1
  Cl  Cl1  1  0.98684587  0.16905985  0.05768438  1
  Cl  Cl2  1  0.30777710  0.07938388  0.43505923  1
  Cl  Cl3  1  0.32109647  0.39795013  0.43626003  1
  Cl  Cl4  1  0.31588589  0.42480517  0.17808831  1
  Cl  Cl5  1  0.98491640  0.34817998  0.66211626  1
  Cl  Cl6  1  0.32134562  0.62904786  0.94825591  1
  Cl  Cl7  1  0.24196226  0.30265285  0.88001219  1
  Cl  Cl8  1  0.63093457  0.53551794  0.29750681  1
  Cl  Cl9  1  0.30935209  0.93138075  0.94460324  1
  Cl  Cl10  1  0.81158986  0.22596915  0.50671553  1
  Cl  Cl11  1  -0.00296143  0.95681698  0.31973416  1
  Cl  Cl12  1  0.31230558  0.10349258  0.17834429  1
  Cl  Cl13  1  0.01508360  0.65182002  0.33788374  1
  Cl  Cl14  1  0.69064791  0.06861925  0.05539676  1
  Cl  Cl15  1  0.41914356  0.80640422  0.69342455  1
  Cl  Cl16  1  0.04643138  0.31115694  0.30432361  1
  Cl  Cl17  1  0.18841014  0.77403085  0.49328447  1
  Cl  Cl18  1  0.61299775  0.83748184  0.31211492  1
  Cl  Cl19  1  0.38700225  0.16251816  0.68788508  1
  Cl  Cl20  1  0.67865438  0.37095214  0.05174409  1
  Cl  Cl21  1  0.68411411  0.57519483  0.82191169  1
  Cl  Cl22  1  0.01315413  0.83094015  0.94231562  1
  Cl  Cl23  1  0.67890353  0.60204987  0.56373997  1
  Cl  Cl24  1  0.00296143  0.04318302  0.68026584  1
  Cl  Cl25  1  0.58085644  0.19359578  0.30657545  1
  Cl  Cl26  1  0.68769442  0.89650742  0.82165571  1
  Cl  Cl27  1  0.75803774  0.69734715  0.11998781  1
  Cl  Cl28  1  0.36906543  0.46448206  0.70249319  1
  Cl  Cl29  1  0.69222290  0.92061612  0.56494077  1
loop_
_geom_bond_atom_site_label_1
_geom_bond_atom_site_label_2
_geom_bond_distance
_geom_bond_site_symmetry_2
C0 N3 1.335746 1_555
C0 N2 1.347338 1_555
C0 N0 1.350473 1_555
C1 N1 1.335746 1_555
C1 N5 1.347338 1_555
C1 N4 1.350473 1_555
N0 P2 1.568489 1_555
N1 P0 1.560194 1_555
N2 P1 1.565870 1_555
N3 P4 1.560194 1_555
N4 P5 1.568489 1_555
N5 P3 1.565870 1_555
Cl0 Sb1 2.396767 1_555
Cl1 P5 1.966421 1_554
Cl2 Sb0 2.380141 1_555
Cl3 Sb0 2.381149 1_555
Cl4 Sb0 2.392937 1_555
Cl5 P0 1.976115 1_555
Cl6 P2 1.979252 1_556
Cl7 P3 1.974585 1_555
Cl8 P1 1.976954 1_555
Cl9 P2 1.981850 1_556
Cl10 P0 1.957008 1_555
Cl11 P4 1.983774 1_555
Cl12 Sb0 2.411729 1_555
Cl13 P4 1.976115 1_555
Cl14 P5 1.981850 1_554
Cl15 Sb1 2.405752 1_555
Cl16 Sb0 2.396767 1_555
Cl17 P4 1.957008 1_555
Cl18 P1 1.968572 1_555
Cl19 P3 1.968572 1_555
Cl20 P5 1.979252 1_554
Cl21 Sb1 2.392937 1_555
Cl22 P2 1.966421 1_556
Cl23 Sb1 2.381149 1_555
Cl24 P0 1.983774 1_455
Cl25 Sb0 2.405752 1_555
Cl26 Sb1 2.411729 1_555
Cl27 P1 1.974585 1_555
Cl28 P3 1.976954 1_555
Cl29 Sb1 2.380141 1_555
