# generated using pymatgen
data_In4Cu9
_symmetry_space_group_name_H-M   'P 1'
_cell_length_a   9.18776700
_cell_length_b   9.18776700
_cell_length_c   9.18776700
_cell_angle_alpha   90.00000000
_cell_angle_beta   90.00000000
_cell_angle_gamma   90.00000000
_symmetry_Int_Tables_number   1
_chemical_formula_structural   In4Cu9
_chemical_formula_sum   'In16 Cu36'
_cell_volume   775.58592505
_cell_formula_units_Z   4
loop_
 _symmetry_equiv_pos_site_id
 _symmetry_equiv_pos_as_xyz
  1  'x, y, z'
loop_
 _atom_site_type_symbol
 _atom_site_label
 _atom_site_symmetry_multiplicity
 _atom_site_fract_x
 _atom_site_fract_y
 _atom_site_fract_z
 _atom_site_occupancy
  In  In0  1  0.19173800  0.53577500  0.19173800  1
  In  In1  1  0.80826200  0.53577500  0.80826200  1
  In  In2  1  0.19173800  0.80826200  0.46422500  1
  In  In3  1  0.87307000  0.12693000  0.87307000  1
  In  In4  1  0.80826200  0.19173800  0.46422500  1
  In  In5  1  0.19173800  0.19173800  0.53577500  1
  In  In6  1  0.80826200  0.80826200  0.53577500  1
  In  In7  1  0.46422500  0.80826200  0.19173800  1
  In  In8  1  0.53577500  0.19173800  0.19173800  1
  In  In9  1  0.46422500  0.19173800  0.80826200  1
  In  In10  1  0.12693000  0.12693000  0.12693000  1
  In  In11  1  0.80826200  0.46422500  0.19173800  1
  In  In12  1  0.53577500  0.80826200  0.80826200  1
  In  In13  1  0.12693000  0.87307000  0.87307000  1
  In  In14  1  0.19173800  0.46422500  0.80826200  1
  In  In15  1  0.87307000  0.87307000  0.12693000  1
  Cu  Cu0  1  0.67925600  0.96822700  0.32074400  1
  Cu  Cu1  1  0.32074400  0.67925600  0.96822700  1
  Cu  Cu2  1  0.35858200  0.00000000  0.00000000  1
  Cu  Cu3  1  0.50000000  0.50000000  0.85707200  1
  Cu  Cu4  1  0.33033900  0.33033900  0.33033900  1
  Cu  Cu5  1  0.03177300  0.32074400  0.32074400  1
  Cu  Cu6  1  0.40203200  0.40203200  0.59796800  1
  Cu  Cu7  1  0.03177300  0.67925600  0.67925600  1
  Cu  Cu8  1  0.83109500  0.16890500  0.16890500  1
  Cu  Cu9  1  0.40203200  0.59796800  0.40203200  1
  Cu  Cu10  1  0.50000000  0.85707200  0.50000000  1
  Cu  Cu11  1  0.50000000  0.14292800  0.50000000  1
  Cu  Cu12  1  0.67925600  0.03177300  0.67925600  1
  Cu  Cu13  1  0.66966100  0.33033900  0.66966100  1
  Cu  Cu14  1  0.67925600  0.67925600  0.03177300  1
  Cu  Cu15  1  0.16890500  0.16890500  0.83109500  1
  Cu  Cu16  1  0.67925600  0.32074400  0.96822700  1
  Cu  Cu17  1  0.85707200  0.50000000  0.50000000  1
  Cu  Cu18  1  0.50000000  0.50000000  0.14292800  1
  Cu  Cu19  1  0.32074400  0.03177300  0.32074400  1
  Cu  Cu20  1  0.59796800  0.59796800  0.59796800  1
  Cu  Cu21  1  0.00000000  0.00000000  0.35858200  1
  Cu  Cu22  1  0.64141800  0.00000000  0.00000000  1
  Cu  Cu23  1  0.96822700  0.67925600  0.32074400  1
  Cu  Cu24  1  0.00000000  0.64141800  0.00000000  1
  Cu  Cu25  1  0.66966100  0.66966100  0.33033900  1
  Cu  Cu26  1  0.16890500  0.83109500  0.16890500  1
  Cu  Cu27  1  0.59796800  0.40203200  0.40203200  1
  Cu  Cu28  1  0.32074400  0.96822700  0.67925600  1
  Cu  Cu29  1  0.00000000  0.00000000  0.64141800  1
  Cu  Cu30  1  0.32074400  0.32074400  0.03177300  1
  Cu  Cu31  1  0.14292800  0.50000000  0.50000000  1
  Cu  Cu32  1  0.00000000  0.35858200  0.00000000  1
  Cu  Cu33  1  0.33033900  0.66966100  0.66966100  1
  Cu  Cu34  1  0.96822700  0.32074400  0.67925600  1
  Cu  Cu35  1  0.83109500  0.83109500  0.83109500  1
loop_
_geom_bond_atom_site_label_1
_geom_bond_atom_site_label_2
_geom_bond_distance
_geom_bond_site_symmetry_2
Cu0 Cu10 2.543217 1_555
Cu0 In15 2.665760 1_555
Cu0 Cu8 2.700357 1_565
Cu0 In4 2.712905 1_565
Cu0 In8 2.712905 1_565
Cu0 In6 2.732796 1_555
Cu0 In7 2.732796 1_555
Cu0 Cu25 2.745986 1_555
Cu0 Cu11 2.828667 1_565
Cu0 Cu21 2.981681 1_665
Cu0 Cu22 2.981681 1_565
Cu1 Cu3 2.543217 1_555
Cu1 In13 2.665760 1_555
Cu1 Cu26 2.700357 1_556
Cu1 In7 2.712905 1_556
Cu1 In0 2.712905 1_556
Cu1 In12 2.732796 1_555
Cu1 In14 2.732796 1_555
Cu1 Cu33 2.745986 1_555
Cu1 Cu18 2.828667 1_556
Cu1 Cu2 2.981681 1_566
Cu1 Cu24 2.981681 1_556
Cu2 Cu22 2.598631 1_555
Cu2 In7 2.673741 1_545
Cu2 In9 2.673741 1_554
Cu2 In13 2.692582 1_544
Cu2 In10 2.692582 1_555
Cu2 Cu26 2.802422 1_545
Cu2 In8 2.976103 1_555
Cu2 In12 2.976103 1_544
Cu2 Cu30 2.981681 1_555
Cu2 Cu28 2.981681 1_544
Cu3 Cu6 2.699552 1_555
Cu3 Cu33 2.797258 1_555
Cu3 Cu30 2.828667 1_556
Cu3 In12 2.886301 1_555
Cu3 In1 2.886301 1_555
Cu3 In14 2.886301 1_555
Cu3 In9 2.886301 1_555
Cu4 In0 2.608815 1_555
Cu4 In8 2.608815 1_555
Cu4 In5 2.608815 1_555
Cu4 Cu9 2.629452 1_555
Cu4 Cu6 2.629452 1_555
Cu4 Cu5 2.745986 1_555
Cu4 In10 3.236986 1_555
Cu5 In10 2.665760 1_555
Cu5 Cu8 2.700357 1_455
Cu5 In4 2.712905 1_455
Cu5 In11 2.712905 1_455
Cu5 In5 2.732796 1_555
Cu5 In0 2.732796 1_555
Cu6 Cu9 2.545887 1_555
Cu6 In5 2.791556 1_555
Cu6 In9 2.791556 1_555
Cu6 In14 2.791556 1_555
Cu7 In13 2.665760 1_555
Cu7 In6 2.712905 1_455
Cu7 In1 2.712905 1_455
Cu7 In14 2.732796 1_555
Cu7 In2 2.732796 1_555
Cu8 In8 2.729503 1_555
Cu8 In11 2.729503 1_555
Cu8 In4 2.729503 1_555
Cu8 In3 2.772243 1_554
Cu8 In15 2.772243 1_545
Cu8 In10 2.772243 1_655
Cu9 In0 2.791556 1_555
Cu9 In7 2.791556 1_555
Cu9 In2 2.791556 1_555
Cu10 Cu28 2.543217 1_555
Cu10 Cu11 2.626378 1_565
Cu10 Cu20 2.699552 1_555
Cu10 Cu9 2.699552 1_555
Cu10 Cu33 2.797258 1_555
Cu10 Cu25 2.797258 1_555
Cu10 Cu12 2.828667 1_565
Cu10 Cu19 2.828667 1_565
Cu10 In12 2.886301 1_555
Cu10 In6 2.886301 1_555
Cu10 In2 2.886301 1_555
Cu10 In7 2.886301 1_555
Cu11 Cu12 2.543217 1_555
Cu11 Cu19 2.543217 1_555
Cu11 Cu6 2.699552 1_555
Cu11 Cu27 2.699552 1_555
Cu11 Cu13 2.797258 1_555
Cu11 Cu4 2.797258 1_555
Cu11 Cu28 2.828667 1_545
Cu11 In9 2.886301 1_555
Cu11 In4 2.886301 1_555
Cu11 In8 2.886301 1_555
Cu11 In5 2.886301 1_555
Cu12 In3 2.665760 1_555
Cu12 Cu35 2.700357 1_545
Cu12 In12 2.712905 1_545
Cu12 In6 2.712905 1_545
Cu12 In9 2.732796 1_555
Cu12 In4 2.732796 1_555
Cu12 Cu13 2.745986 1_555
Cu12 Cu29 2.981681 1_655
Cu12 Cu22 2.981681 1_556
Cu13 In1 2.608815 1_555
Cu13 In9 2.608815 1_555
Cu13 In4 2.608815 1_555
Cu13 Cu20 2.629452 1_555
Cu13 Cu6 2.629452 1_555
Cu13 Cu27 2.629452 1_555
Cu13 Cu16 2.745986 1_555
Cu13 Cu34 2.745986 1_555
Cu13 Cu17 2.797258 1_555
Cu13 Cu3 2.797258 1_555
Cu13 In3 3.236986 1_555
Cu14 Cu18 2.543217 1_555
Cu14 In15 2.665760 1_555
Cu14 Cu35 2.700357 1_554
Cu14 In12 2.712905 1_554
Cu14 In1 2.712905 1_554
Cu14 In11 2.732796 1_555
Cu14 In7 2.732796 1_555
Cu14 Cu25 2.745986 1_555
Cu14 Cu3 2.828667 1_554
Cu14 Cu24 2.981681 1_655
Cu14 Cu22 2.981681 1_565
Cu15 Cu28 2.700357 1_545
Cu15 Cu34 2.700357 1_455
Cu15 Cu30 2.700357 1_556
Cu15 In5 2.729503 1_555
Cu15 In9 2.729503 1_555
Cu15 In14 2.729503 1_555
Cu15 In13 2.772243 1_545
Cu15 In3 2.772243 1_455
Cu15 In10 2.772243 1_556
Cu15 Cu2 2.802422 1_556
Cu15 Cu32 2.802422 1_556
Cu15 Cu29 2.802422 1_555
Cu16 Cu3 2.543217 1_555
Cu16 In3 2.665760 1_555
Cu16 Cu8 2.700357 1_556
Cu16 In11 2.712905 1_556
Cu16 In8 2.712905 1_556
Cu16 In1 2.732796 1_555
Cu16 In9 2.732796 1_555
Cu16 Cu18 2.828667 1_556
Cu16 Cu32 2.981681 1_656
Cu16 Cu22 2.981681 1_556
Cu17 Cu34 2.543217 1_555
Cu17 Cu23 2.543217 1_555
Cu17 Cu31 2.626378 1_655
Cu17 Cu20 2.699552 1_555
Cu17 Cu27 2.699552 1_555
Cu17 Cu25 2.797258 1_555
Cu17 Cu7 2.828667 1_655
Cu17 Cu5 2.828667 1_655
Cu17 In6 2.886301 1_555
Cu17 In1 2.886301 1_555
Cu17 In11 2.886301 1_555
Cu17 In4 2.886301 1_555
Cu18 Cu30 2.543217 1_555
Cu18 Cu3 2.626378 1_554
Cu18 Cu27 2.699552 1_555
Cu18 Cu9 2.699552 1_555
Cu18 Cu25 2.797258 1_555
Cu18 Cu4 2.797258 1_555
Cu18 In7 2.886301 1_555
Cu18 In11 2.886301 1_555
Cu18 In8 2.886301 1_555
Cu18 In0 2.886301 1_555
Cu19 In10 2.665760 1_555
Cu19 Cu26 2.700357 1_545
Cu19 In7 2.712905 1_545
Cu19 In2 2.712905 1_545
Cu19 In5 2.732796 1_555
Cu19 In8 2.732796 1_555
Cu19 Cu4 2.745986 1_555
Cu19 Cu2 2.981681 1_555
Cu19 Cu21 2.981681 1_555
Cu20 Cu6 2.545887 1_555
Cu20 Cu9 2.545887 1_555
Cu20 Cu27 2.545887 1_555
Cu20 Cu33 2.629452 1_555
Cu20 Cu25 2.629452 1_555
Cu20 Cu3 2.699552 1_555
Cu20 In6 2.791556 1_555
Cu20 In12 2.791556 1_555
Cu20 In1 2.791556 1_555
Cu21 Cu29 2.598631 1_555
Cu21 In4 2.673741 1_455
Cu21 In2 2.673741 1_545
Cu21 In15 2.692582 1_445
Cu21 In10 2.692582 1_555
Cu21 Cu26 2.802422 1_545
Cu21 Cu8 2.802422 1_455
Cu21 In5 2.976103 1_555
Cu21 In6 2.976103 1_445
Cu21 Cu5 2.981681 1_555
Cu21 Cu23 2.981681 1_445
Cu22 In8 2.673741 1_555
Cu22 In12 2.673741 1_544
Cu22 In3 2.692582 1_554
Cu22 In15 2.692582 1_545
Cu22 Cu8 2.802422 1_555
Cu22 Cu35 2.802422 1_544
Cu22 In7 2.976103 1_545
Cu22 In9 2.976103 1_554
Cu23 In15 2.665760 1_555
Cu23 Cu26 2.700357 1_655
Cu23 In2 2.712905 1_655
Cu23 In0 2.712905 1_655
Cu23 In6 2.732796 1_555
Cu23 In11 2.732796 1_555
Cu23 Cu25 2.745986 1_555
Cu23 Cu31 2.828667 1_655
Cu23 Cu24 2.981681 1_655
Cu24 Cu32 2.598631 1_555
Cu24 In0 2.673741 1_555
Cu24 In1 2.673741 1_454
Cu24 In13 2.692582 1_554
Cu24 In15 2.692582 1_455
Cu24 Cu26 2.802422 1_555
Cu24 Cu35 2.802422 1_454
Cu24 In11 2.976103 1_455
Cu24 In14 2.976103 1_554
Cu24 Cu7 2.981681 1_554
Cu25 In6 2.608815 1_555
Cu25 In7 2.608815 1_555
Cu25 In11 2.608815 1_555
Cu25 Cu27 2.629452 1_555
Cu25 Cu9 2.629452 1_555
Cu25 In15 3.236986 1_555
Cu26 In0 2.729503 1_555
Cu26 In7 2.729503 1_555
Cu26 In2 2.729503 1_555
Cu26 In13 2.772243 1_554
Cu26 In15 2.772243 1_455
Cu26 In10 2.772243 1_565
Cu27 Cu6 2.545887 1_555
Cu27 Cu9 2.545887 1_555
Cu27 Cu4 2.629452 1_555
Cu27 In8 2.791556 1_555
Cu27 In4 2.791556 1_555
Cu27 In11 2.791556 1_555
Cu28 In13 2.665760 1_555
Cu28 In9 2.712905 1_565
Cu28 In5 2.712905 1_565
Cu28 In12 2.732796 1_555
Cu28 In2 2.732796 1_555
Cu28 Cu33 2.745986 1_555
Cu28 Cu29 2.981681 1_565
Cu29 In5 2.673741 1_555
Cu29 In6 2.673741 1_445
Cu29 In13 2.692582 1_545
Cu29 In3 2.692582 1_455
Cu29 Cu35 2.802422 1_445
Cu29 In4 2.976103 1_455
Cu29 In2 2.976103 1_545
Cu29 Cu34 2.981681 1_455
Cu29 Cu7 2.981681 1_545
Cu30 In10 2.665760 1_555
Cu30 In14 2.712905 1_554
Cu30 In9 2.712905 1_554
Cu30 In0 2.732796 1_555
Cu30 In8 2.732796 1_555
Cu30 Cu4 2.745986 1_555
Cu30 Cu32 2.981681 1_555
Cu31 Cu7 2.543217 1_555
Cu31 Cu5 2.543217 1_555
Cu31 Cu6 2.699552 1_555
Cu31 Cu9 2.699552 1_555
Cu31 Cu33 2.797258 1_555
Cu31 Cu4 2.797258 1_555
Cu31 Cu34 2.828667 1_455
Cu31 In14 2.886301 1_555
Cu31 In2 2.886301 1_555
Cu31 In5 2.886301 1_555
Cu31 In0 2.886301 1_555
Cu32 In11 2.673741 1_455
Cu32 In14 2.673741 1_554
Cu32 In3 2.692582 1_454
Cu32 In10 2.692582 1_555
Cu32 Cu8 2.802422 1_455
Cu32 In0 2.976103 1_555
Cu32 In1 2.976103 1_454
Cu32 Cu5 2.981681 1_555
Cu32 Cu34 2.981681 1_454
Cu33 In12 2.608815 1_555
Cu33 In2 2.608815 1_555
Cu33 In14 2.608815 1_555
Cu33 Cu6 2.629452 1_555
Cu33 Cu9 2.629452 1_555
Cu33 Cu7 2.745986 1_555
Cu33 In13 3.236986 1_555
Cu34 In3 2.665760 1_555
Cu34 In14 2.712905 1_655
Cu34 In5 2.712905 1_655
Cu34 In1 2.732796 1_555
Cu34 In4 2.732796 1_555
Cu35 Cu7 2.700357 1_655
Cu35 In6 2.729503 1_555
Cu35 In1 2.729503 1_555
Cu35 In12 2.729503 1_555
Cu35 In15 2.772243 1_556
Cu35 In3 2.772243 1_565
Cu35 In13 2.772243 1_655
