# generated using pymatgen
data_MnC6S2NO5F6
_symmetry_space_group_name_H-M   'P 1'
_cell_length_a   10.31317600
_cell_length_b   10.49274300
_cell_length_c   12.13586600
_cell_angle_alpha   90.00000000
_cell_angle_beta   90.00000000
_cell_angle_gamma   90.00000000
_symmetry_Int_Tables_number   1
_chemical_formula_structural   MnC6S2NO5F6
_chemical_formula_sum   'Mn4 C24 S8 N4 O20 F24'
_cell_volume   1313.26459949
_cell_formula_units_Z   4
loop_
 _symmetry_equiv_pos_site_id
 _symmetry_equiv_pos_as_xyz
  1  'x, y, z'
loop_
 _atom_site_type_symbol
 _atom_site_label
 _atom_site_symmetry_multiplicity
 _atom_site_fract_x
 _atom_site_fract_y
 _atom_site_fract_z
 _atom_site_occupancy
  Mn  Mn0  1  0.75000000  0.94168400  0.14705900  1
  Mn  Mn1  1  0.25000000  0.05831600  0.85294100  1
  Mn  Mn2  1  0.75000000  0.55831600  0.64705900  1
  Mn  Mn3  1  0.25000000  0.44168400  0.35294100  1
  C  C0  1  0.88114800  0.05457800  0.19523000  1
  C  C1  1  0.38114800  0.94542200  0.80477100  1
  C  C2  1  0.37799700  0.16438100  0.91179400  1
  C  C3  1  0.75000000  0.64649900  0.77748700  1
  C  C4  1  0.25000000  0.14649900  0.72251300  1
  C  C5  1  0.25000000  0.35350100  0.22251300  1
  C  C6  1  0.75000000  0.85350100  0.27748700  1
  C  C7  1  0.12200300  0.33561900  0.41179400  1
  C  C8  1  0.11885200  0.94542200  0.80477100  1
  C  C9  1  0.12200300  0.16438100  0.91179400  1
  C  C10  1  0.75000000  0.20355000  0.98720300  1
  C  C11  1  0.88114800  0.44542200  0.69522900  1
  C  C12  1  0.61885200  0.44542200  0.69522900  1
  C  C13  1  0.62200300  0.83561900  0.08820600  1
  C  C14  1  0.87799700  0.83561900  0.08820600  1
  C  C15  1  0.61885200  0.05457800  0.19523000  1
  C  C16  1  0.25000000  0.70355000  0.51279700  1
  C  C17  1  0.75000000  0.29645000  0.48720300  1
  C  C18  1  0.37799700  0.33561900  0.41179400  1
  C  C19  1  0.62200300  0.66438100  0.58820600  1
  C  C20  1  0.11885200  0.55457800  0.30477000  1
  C  C21  1  0.87799700  0.66438100  0.58820600  1
  C  C22  1  0.38114800  0.55457800  0.30477000  1
  C  C23  1  0.25000000  0.79645000  0.01279700  1
  S  S0  1  0.25000000  0.58043100  0.90135100  1
  S  S1  1  0.25000000  0.91956900  0.40135100  1
  S  S2  1  0.25000000  0.54199700  0.53186700  1
  S  S3  1  0.75000000  0.04199700  0.96813300  1
  S  S4  1  0.25000000  0.95800300  0.03186700  1
  S  S5  1  0.75000000  0.41956900  0.09864900  1
  S  S6  1  0.75000000  0.45800300  0.46813300  1
  S  S7  1  0.75000000  0.08043100  0.59864900  1
  N  N0  1  0.75000000  0.26112300  0.08083100  1
  N  N1  1  0.75000000  0.23887700  0.58083100  1
  N  N2  1  0.25000000  0.76112300  0.41916900  1
  N  N3  1  0.25000000  0.73887700  0.91916900  1
  O  O0  1  0.75000000  0.70347500  0.85913600  1
  O  O1  1  0.54326200  0.72935700  0.55095100  1
  O  O2  1  0.25000000  0.29652500  0.14086400  1
  O  O3  1  0.96421700  0.11968700  0.22447300  1
  O  O4  1  0.04326200  0.27064300  0.44904900  1
  O  O5  1  0.45673800  0.22935700  0.94904900  1
  O  O6  1  0.95673800  0.77064300  0.05095100  1
  O  O7  1  0.54326200  0.77064300  0.05095100  1
  O  O8  1  0.75000000  0.79652500  0.35913600  1
  O  O9  1  0.53578300  0.38031300  0.72447300  1
  O  O10  1  0.96421700  0.38031300  0.72447300  1
  O  O11  1  0.25000000  0.20347500  0.64086400  1
  O  O12  1  0.04326200  0.22935700  0.94904900  1
  O  O13  1  0.46421700  0.61968700  0.27552700  1
  O  O14  1  0.03578300  0.88031300  0.77552700  1
  O  O15  1  0.46421700  0.88031300  0.77552700  1
  O  O16  1  0.45673800  0.27064300  0.44904900  1
  O  O17  1  0.53578300  0.11968700  0.22447300  1
  O  O18  1  0.95673800  0.72935700  0.55095100  1
  O  O19  1  0.03578300  0.61968700  0.27552700  1
  F  F0  1  0.36196400  0.55080500  0.99263500  1
  F  F1  1  0.36077300  0.59470400  0.80760100  1
  F  F2  1  0.25000000  0.42738000  0.87453600  1
  F  F3  1  0.63803600  0.44919500  0.00736500  1
  F  F4  1  0.86196400  0.44919500  0.00736500  1
  F  F5  1  0.13922700  0.90529600  0.30760100  1
  F  F6  1  0.25000000  0.73343800  0.11141700  1
  F  F7  1  0.13803600  0.55080500  0.99263500  1
  F  F8  1  0.25000000  0.07262000  0.37453600  1
  F  F9  1  0.13803600  0.94919500  0.49263500  1
  F  F10  1  0.75000000  0.92738000  0.62546400  1
  F  F11  1  0.86077300  0.40529600  0.19239900  1
  F  F12  1  0.63922700  0.09470400  0.69239900  1
  F  F13  1  0.36077300  0.90529600  0.30760100  1
  F  F14  1  0.75000000  0.23343900  0.38858300  1
  F  F15  1  0.86077300  0.09470400  0.69239900  1
  F  F16  1  0.75000000  0.57262000  0.12546400  1
  F  F17  1  0.63803600  0.05080500  0.50736500  1
  F  F18  1  0.63922700  0.40529600  0.19239900  1
  F  F19  1  0.36196400  0.94919500  0.49263500  1
  F  F20  1  0.86196400  0.05080500  0.50736500  1
  F  F21  1  0.13922700  0.59470400  0.80760100  1
  F  F22  1  0.75000000  0.26656200  0.88858300  1
  F  F23  1  0.25000000  0.76656200  0.61141700  1
loop_
_geom_bond_atom_site_label_1
_geom_bond_atom_site_label_2
_geom_bond_distance
_geom_bond_site_symmetry_2
Mn0 S3 2.413080 1_564
Mn1 S4 2.413080 1_546
Mn2 S6 2.413080 1_555
Mn3 S2 2.413080 1_555
C0 O3 1.151787 1_555
C0 Mn0 1.890596 1_545
C1 O15 1.151791 1_555
C1 Mn1 1.890592 1_565
C2 O5 1.152688 1_555
C2 Mn1 1.868488 1_555
C3 O0 1.157261 1_555
C3 Mn2 1.833462 1_555
C4 O11 1.157261 1_555
C4 Mn1 1.833462 1_555
C5 O2 1.157261 1_555
C5 Mn3 1.833462 1_555
C6 O8 1.157261 1_555
C6 Mn0 1.833462 1_555
C7 O4 1.152688 1_555
C7 Mn3 1.868488 1_555
C8 O14 1.151791 1_555
C8 Mn1 1.890592 1_565
C9 O12 1.152688 1_555
C9 Mn1 1.868488 1_555
C10 N0 1.286862 1_556
C10 F22 1.367321 1_555
C10 S3 1.710859 1_555
C11 O10 1.151791 1_555
C11 Mn2 1.890592 1_555
C12 O9 1.151791 1_555
C12 Mn2 1.890592 1_555
C13 O7 1.152688 1_555
C13 Mn0 1.868488 1_555
C14 O6 1.152688 1_555
C14 Mn0 1.868488 1_555
C15 O17 1.151787 1_555
C15 Mn0 1.890596 1_545
C16 N2 1.286862 1_555
C16 F23 1.367321 1_555
C16 S2 1.710859 1_555
C17 N1 1.286862 1_555
C17 F14 1.367316 1_555
C17 S6 1.710859 1_555
C18 O16 1.152688 1_555
C18 Mn3 1.868488 1_555
C19 O1 1.152688 1_555
C19 Mn2 1.868488 1_555
C20 O19 1.151787 1_555
C20 Mn3 1.890596 1_555
C21 O18 1.152688 1_555
C21 Mn2 1.868488 1_555
C22 O13 1.151787 1_555
C22 Mn3 1.890596 1_555
C23 N3 1.286862 1_554
C23 F6 1.367321 1_555
C23 S4 1.710859 1_555
N0 S5 1.676537 1_555
N1 S7 1.676537 1_555
N2 S1 1.676537 1_555
N3 S0 1.676537 1_555
F0 S0 1.630098 1_555
F1 S0 1.619260 1_555
F2 S0 1.638565 1_555
F3 S5 1.630098 1_555
F4 S5 1.630098 1_555
F5 S1 1.619260 1_555
F7 S0 1.630098 1_555
F8 S1 1.638565 1_545
F9 S1 1.630098 1_555
F10 S7 1.638565 1_565
F11 S5 1.619260 1_555
F12 S7 1.619260 1_555
F13 S1 1.619260 1_555
F15 S7 1.619260 1_555
F16 S5 1.638565 1_555
F17 S7 1.630098 1_555
F18 S5 1.619260 1_555
F19 S1 1.630098 1_555
F20 S7 1.630098 1_555
F21 S0 1.619260 1_555
