# generated using pymatgen
data_K3ReH6
_symmetry_space_group_name_H-M   'P 1'
_cell_length_a   6.11947462
_cell_length_b   6.11947462
_cell_length_c   6.11947462
_cell_angle_alpha   60.00000000
_cell_angle_beta   60.00000000
_cell_angle_gamma   60.00000000
_symmetry_Int_Tables_number   1
_chemical_formula_structural   K3ReH6
_chemical_formula_sum   'K3 Re1 H6'
_cell_volume   162.04193314
_cell_formula_units_Z   1
loop_
 _symmetry_equiv_pos_site_id
 _symmetry_equiv_pos_as_xyz
  1  'x, y, z'
loop_
 _atom_site_type_symbol
 _atom_site_label
 _atom_site_symmetry_multiplicity
 _atom_site_fract_x
 _atom_site_fract_y
 _atom_site_fract_z
 _atom_site_occupancy
  K  K0  1  0.75000000  0.75000000  0.75000000  1
  K  K1  1  0.25000000  0.25000000  0.25000000  1
  K  K2  1  0.50000000  0.50000000  0.50000000  1
  Re  Re0  1  0.00000000  0.00000000  0.00000000  1
  H  H0  1  0.79356800  0.79356800  0.20643200  1
  H  H1  1  0.20643200  0.79356800  0.20643200  1
  H  H2  1  0.79356800  0.20643200  0.20643200  1
  H  H3  1  0.20643200  0.20643200  0.79356800  1
  H  H4  1  0.79356800  0.20643200  0.79356800  1
  H  H5  1  0.20643200  0.79356800  0.79356800  1
loop_
_geom_bond_atom_site_label_1
_geom_bond_atom_site_label_2
_geom_bond_distance
_geom_bond_site_symmetry_2
H0 Re0 1.786513 1_665
H0 K2 2.540609 1_555
H0 K1 3.082881 1_655
H0 K1 3.082881 1_565
H0 K0 3.082881 1_555
H0 K0 3.082881 1_554
H1 Re0 1.786513 1_565
H1 K2 2.540609 1_555
H1 K1 3.082881 1_565
H1 K0 3.082881 1_455
H1 K0 3.082881 1_554
H1 K1 3.082881 1_555
H2 Re0 1.786513 1_655
H2 K2 2.540609 1_555
H2 K1 3.082881 1_655
H2 K1 3.082881 1_555
H2 K0 3.082881 1_545
H2 K0 3.082881 1_554
H3 Re0 1.786513 1_556
H3 K2 2.540609 1_555
H3 K1 3.082881 1_556
H3 K0 3.082881 1_455
H3 K0 3.082881 1_545
H3 K1 3.082881 1_555
H4 Re0 1.786513 1_656
H4 K2 2.540609 1_555
H4 K1 3.082881 1_556
H4 K1 3.082881 1_655
H4 K0 3.082881 1_555
H4 K0 3.082881 1_545
H5 Re0 1.786513 1_566
H5 K2 2.540609 1_555
H5 K1 3.082881 1_565
H5 K0 3.082881 1_455
H5 K0 3.082881 1_555
H5 K1 3.082881 1_556
