# generated using pymatgen
data_CaH12(IO7)2
_symmetry_space_group_name_H-M   'P 1'
_cell_length_a   10.45320098
_cell_length_b   10.45320098
_cell_length_c   11.69710388
_cell_angle_alpha   60.23022671
_cell_angle_beta   60.23022671
_cell_angle_gamma   32.06689441
_symmetry_Int_Tables_number   1
_chemical_formula_structural   CaH12(IO7)2
_chemical_formula_sum   'Ca2 H24 I4 O28'
_cell_volume   581.00816616
_cell_formula_units_Z   2
loop_
 _symmetry_equiv_pos_site_id
 _symmetry_equiv_pos_as_xyz
  1  'x, y, z'
loop_
 _atom_site_type_symbol
 _atom_site_label
 _atom_site_symmetry_multiplicity
 _atom_site_fract_x
 _atom_site_fract_y
 _atom_site_fract_z
 _atom_site_occupancy
  Ca  Ca0  1  0.41263100  0.58736900  0.75000000  1
  Ca  Ca1  1  0.58736900  0.41263100  0.25000000  1
  H  H0  1  0.63308700  0.85168300  0.18245400  1
  H  H1  1  0.14831700  0.36691300  0.31754600  1
  H  H2  1  0.36691300  0.14831700  0.81754600  1
  H  H3  1  0.85168300  0.63308700  0.68245400  1
  H  H4  1  0.48723100  0.17581900  0.98222900  1
  H  H5  1  0.82418100  0.51276900  0.51777100  1
  H  H6  1  0.51276900  0.82418100  0.01777100  1
  H  H7  1  0.17581900  0.48723100  0.48222900  1
  H  H8  1  0.21493500  0.69364500  0.55107900  1
  H  H9  1  0.30635500  0.78506500  0.94892100  1
  H  H10  1  0.78506500  0.30635500  0.44892100  1
  H  H11  1  0.69364500  0.21493500  0.05107900  1
  H  H12  1  0.09519500  0.66184700  0.69463800  1
  H  H13  1  0.33815300  0.90480500  0.80536200  1
  H  H14  1  0.90480500  0.33815300  0.30536200  1
  H  H15  1  0.66184700  0.09519500  0.19463800  1
  H  H16  1  0.79848700  0.35327500  0.85088300  1
  H  H17  1  0.64672500  0.20151300  0.64911700  1
  H  H18  1  0.20151300  0.64672500  0.14911700  1
  H  H19  1  0.35327500  0.79848700  0.35088300  1
  H  H20  1  0.90308300  0.12353400  0.85552300  1
  H  H21  1  0.87646600  0.09691700  0.64447700  1
  H  H22  1  0.09691700  0.87646600  0.14447700  1
  H  H23  1  0.12353400  0.90308300  0.35552300  1
  I  I0  1  0.04303600  0.59865000  0.02366600  1
  I  I1  1  0.40135000  0.95696400  0.47633400  1
  I  I2  1  0.95696400  0.40135000  0.97633400  1
  I  I3  1  0.59865000  0.04303600  0.52366600  1
  O  O0  1  0.02708400  0.80498900  0.90501800  1
  O  O1  1  0.19501100  0.97291600  0.59498200  1
  O  O2  1  0.97291600  0.19501100  0.09498200  1
  O  O3  1  0.80498900  0.02708400  0.40501800  1
  O  O4  1  0.13930200  0.51948500  0.16553900  1
  O  O5  1  0.48051500  0.86069800  0.33446100  1
  O  O6  1  0.86069800  0.48051500  0.83446100  1
  O  O7  1  0.51948500  0.13930200  0.66553900  1
  O  O8  1  0.69330800  0.88098800  0.08684700  1
  O  O9  1  0.11901200  0.30669200  0.41315300  1
  O  O10  1  0.30669200  0.11901200  0.91315300  1
  O  O11  1  0.88098800  0.69330800  0.58684700  1
  O  O12  1  0.37881600  0.34191700  0.92763400  1
  O  O13  1  0.65808300  0.62118400  0.57236600  1
  O  O14  1  0.62118400  0.65808300  0.07236600  1
  O  O15  1  0.34191700  0.37881600  0.42763400  1
  O  O16  1  0.94681900  0.62733200  0.88671100  1
  O  O17  1  0.37266800  0.05318100  0.61328900  1
  O  O18  1  0.05318100  0.37266800  0.11328900  1
  O  O19  1  0.62733200  0.94681900  0.38671100  1
  O  O20  1  0.16444700  0.70570000  0.64637100  1
  O  O21  1  0.29430000  0.83555300  0.85362900  1
  O  O22  1  0.83555300  0.29430000  0.35362900  1
  O  O23  1  0.70570000  0.16444700  0.14637100  1
  O  O24  1  0.74811400  0.29609600  0.86725300  1
  O  O25  1  0.70390400  0.25188600  0.63274700  1
  O  O26  1  0.25188600  0.70390400  0.13274700  1
  O  O27  1  0.29609600  0.74811400  0.36725300  1
loop_
_geom_bond_atom_site_label_1
_geom_bond_atom_site_label_2
_geom_bond_distance
_geom_bond_site_symmetry_2
Ca0 O21 2.434114 1_555
Ca0 O20 2.434114 1_555
Ca0 O24 2.445855 1_555
Ca0 O25 2.445855 1_555
Ca0 O1 2.450720 1_555
Ca0 O0 2.450720 1_555
Ca0 O13 2.557170 1_555
Ca0 O12 2.557170 1_555
Ca1 O22 2.434114 1_555
Ca1 O23 2.434114 1_555
Ca1 O27 2.445855 1_555
Ca1 O26 2.445855 1_555
Ca1 O2 2.450720 1_555
Ca1 O3 2.450720 1_555
Ca1 O14 2.557170 1_555
Ca1 O15 2.557170 1_555
H0 O8 1.014061 1_555
H0 O5 1.676184 1_555
H1 O9 1.014061 1_555
H1 O4 1.676184 1_555
H2 O10 1.014061 1_555
H2 O7 1.676184 1_555
H3 O11 1.014061 1_555
H3 O6 1.676184 1_555
H4 O12 0.994702 1_555
H5 O13 0.994702 1_555
H6 O14 0.994702 1_555
H7 O15 0.994702 1_555
H8 O20 0.989664 1_555
H9 O21 0.989664 1_555
H10 O22 0.989664 1_555
H11 O23 0.989664 1_555
H12 O20 0.975956 1_555
H13 O21 0.975956 1_555
H14 O22 0.975956 1_555
H15 O23 0.975956 1_555
H16 O24 0.995399 1_555
H17 O25 0.995399 1_555
H18 O26 0.995399 1_555
H19 O27 0.995399 1_555
H20 O24 0.984554 1_555
H21 O25 0.984554 1_555
H22 O26 0.984554 1_555
H23 O27 0.984554 1_555
I0 O0 1.803826 1_554
I0 O4 1.826087 1_555
I0 O8 1.953904 1_455
I0 O12 1.974130 1_554
I0 O18 1.979159 1_555
I0 O16 2.068760 1_454
I1 O1 1.803826 1_555
I1 O5 1.826087 1_555
I1 O9 1.953904 1_565
I1 O13 1.974130 1_555
I1 O19 1.979159 1_555
I1 O17 2.068760 1_565
I2 O2 1.803826 1_556
I2 O6 1.826087 1_555
I2 O10 1.953904 1_655
I2 O14 1.974130 1_556
I2 O16 1.979159 1_555
I2 O18 2.068760 1_656
I3 O3 1.803826 1_555
I3 O7 1.826087 1_555
I3 O11 1.953904 1_545
I3 O15 1.974130 1_555
I3 O17 1.979159 1_555
I3 O19 2.068760 1_545
