# generated using pymatgen
data_Ca2(Fe2O3)11
_symmetry_space_group_name_H-M   'P 1'
_cell_length_a   21.27992237
_cell_length_b   21.27992237
_cell_length_c   21.27992209
_cell_angle_alpha   16.22030269
_cell_angle_beta   16.22030269
_cell_angle_gamma   16.22030337
_symmetry_Int_Tables_number   1
_chemical_formula_structural   Ca2(Fe2O3)11
_chemical_formula_sum   'Ca2 Fe22 O33'
_cell_volume   655.49699548
_cell_formula_units_Z   1
loop_
 _symmetry_equiv_pos_site_id
 _symmetry_equiv_pos_as_xyz
  1  'x, y, z'
loop_
 _atom_site_type_symbol
 _atom_site_label
 _atom_site_symmetry_multiplicity
 _atom_site_fract_x
 _atom_site_fract_y
 _atom_site_fract_z
 _atom_site_occupancy
  Ca  Ca0  1  0.95135200  0.95135200  0.95135200  1
  Ca  Ca1  1  0.04864800  0.04864800  0.04864800  1
  Fe  Fe0  1  0.00032800  0.99967200  0.50000000  1
  Fe  Fe1  1  0.42367800  0.40621900  0.90939700  1
  Fe  Fe2  1  0.20586900  0.20586900  0.20586900  1
  Fe  Fe3  1  0.79413100  0.79413100  0.79413100  1
  Fe  Fe4  1  0.57632200  0.09060300  0.59378100  1
  Fe  Fe5  1  0.99967200  0.50000000  0.00032800  1
  Fe  Fe6  1  0.11727200  0.11727200  0.11727200  1
  Fe  Fe7  1  0.53013800  0.53013800  0.53013800  1
  Fe  Fe8  1  0.09060300  0.59378100  0.57632200  1
  Fe  Fe9  1  0.00000000  0.66532300  0.33467700  1
  Fe  Fe10  1  0.46986200  0.46986200  0.46986200  1
  Fe  Fe11  1  0.38026300  0.38026300  0.38026300  1
  Fe  Fe12  1  0.33467700  0.00000000  0.66532300  1
  Fe  Fe13  1  0.61973700  0.61973700  0.61973700  1
  Fe  Fe14  1  0.70361300  0.70361300  0.70361300  1
  Fe  Fe15  1  0.90939700  0.42367800  0.40621900  1
  Fe  Fe16  1  0.66532300  0.33467700  0.00000000  1
  Fe  Fe17  1  0.29638700  0.29638700  0.29638700  1
  Fe  Fe18  1  0.88272800  0.88272800  0.88272800  1
  Fe  Fe19  1  0.40621900  0.90939700  0.42367800  1
  Fe  Fe20  1  0.50000000  0.00032800  0.99967200  1
  Fe  Fe21  1  0.59378100  0.57632200  0.09060300  1
  O  O0  1  0.85348000  0.85348000  0.85348000  1
  O  O1  1  0.33012500  0.33012500  0.33012500  1
  O  O2  1  0.26683200  0.70116400  0.24012800  1
  O  O3  1  0.14652000  0.14652000  0.14652000  1
  O  O4  1  0.65394100  0.65461500  0.12885000  1
  O  O5  1  0.35457100  0.95583200  0.59332400  1
  O  O6  1  0.12885000  0.65394100  0.65461500  1
  O  O7  1  0.29883600  0.73316800  0.75987200  1
  O  O8  1  0.95583200  0.59332400  0.35457100  1
  O  O9  1  0.64542900  0.40667600  0.04416800  1
  O  O10  1  0.07069100  0.07334800  0.53683300  1
  O  O11  1  0.46316700  0.92665200  0.92930900  1
  O  O12  1  0.40667600  0.04416800  0.64542900  1
  O  O13  1  0.53683300  0.07069100  0.07334800  1
  O  O14  1  0.92665200  0.92930900  0.46316700  1
  O  O15  1  0.70116400  0.24012800  0.26683200  1
  O  O16  1  0.75987200  0.29883600  0.73316800  1
  O  O17  1  0.92930900  0.46316700  0.92665200  1
  O  O18  1  0.00000000  0.00000000  0.00000000  1
  O  O19  1  0.59332400  0.35457100  0.95583200  1
  O  O20  1  0.24012800  0.26683200  0.70116400  1
  O  O21  1  0.66987500  0.66987500  0.66987500  1
  O  O22  1  0.04416800  0.64542900  0.40667600  1
  O  O23  1  0.26380300  0.26380300  0.26380300  1
  O  O24  1  0.34605900  0.87115000  0.34538500  1
  O  O25  1  0.07334800  0.53683300  0.07069100  1
  O  O26  1  0.65461500  0.12885000  0.65394100  1
  O  O27  1  0.56080800  0.56080800  0.56080800  1
  O  O28  1  0.34538500  0.34605900  0.87115000  1
  O  O29  1  0.87115000  0.34538500  0.34605900  1
  O  O30  1  0.73316800  0.75987200  0.29883600  1
  O  O31  1  0.73619700  0.73619700  0.73619700  1
  O  O32  1  0.43919200  0.43919200  0.43919200  1
loop_
_geom_bond_atom_site_label_1
_geom_bond_atom_site_label_2
_geom_bond_distance
_geom_bond_site_symmetry_2
Ca0 O16 2.318738 1_565
Ca0 O30 2.318738 1_556
Ca0 O7 2.318738 1_655
Ca0 O8 2.512829 1_556
Ca0 O5 2.512829 1_655
Ca0 O19 2.512829 1_565
Ca1 O15 2.318738 1_455
Ca1 O20 2.318738 1_554
Ca1 O2 2.318738 1_545
Ca1 O12 2.512829 1_554
Ca1 O22 2.512829 1_545
Ca1 O9 2.512829 1_455
Fe0 O29 2.141462 1_465
Fe0 O26 2.141462 1_465
Fe0 O24 2.141678 1_555
Fe0 O6 2.141678 1_555
Fe0 O3 2.148141 1_565
Fe0 O0 2.148141 1_455
Fe1 O7 1.952676 1_555
Fe1 O16 2.001792 1_555
Fe1 O13 2.056365 1_556
Fe1 O23 2.066708 1_556
Fe1 O27 2.089569 1_555
Fe1 O25 2.114892 1_556
Fe2 O28 2.010104 1_554
Fe2 O29 2.010104 1_455
Fe2 O24 2.010104 1_545
Fe2 O10 2.088222 1_555
Fe2 O25 2.088222 1_555
Fe2 O13 2.088222 1_555
Fe3 O4 2.010104 1_556
Fe3 O26 2.010104 1_565
Fe3 O6 2.010104 1_655
Fe3 O14 2.088222 1_555
Fe3 O11 2.088222 1_555
Fe3 O17 2.088222 1_555
Fe4 O15 1.952676 1_555
Fe4 O20 2.001792 1_555
Fe4 O11 2.056364 1_545
Fe4 O31 2.066708 1_545
Fe4 O32 2.089570 1_555
Fe4 O14 2.114892 1_545
Fe5 O6 2.141462 1_654
Fe5 O28 2.141462 1_654
Fe5 O29 2.141678 1_555
Fe5 O4 2.141678 1_555
Fe5 O0 2.148141 1_554
Fe5 O3 2.148141 1_655
Fe6 O3 1.842244 1_555
Fe6 O14 1.978128 1_445
Fe6 O17 1.978128 1_454
Fe6 O11 1.978128 1_544
Fe7 O28 1.912776 1_555
Fe7 O24 1.912776 1_555
Fe7 O29 1.912776 1_555
Fe7 O27 1.931812 1_555
Fe8 O20 1.952676 1_555
Fe8 O2 2.001791 1_555
Fe8 O14 2.056365 1_455
Fe8 O31 2.066708 1_455
Fe8 O32 2.089570 1_555
Fe8 O17 2.114891 1_455
Fe9 O21 2.007575 1_455
Fe9 O1 2.007575 1_555
Fe9 O18 2.009468 1_565
Fe9 O22 2.041022 1_555
Fe9 O8 2.041022 1_455
Fe10 O4 1.912776 1_555
Fe10 O6 1.912776 1_555
Fe10 O26 1.912776 1_555
Fe10 O32 1.931812 1_555
Fe11 O9 2.043956 1_555
Fe11 O12 2.043956 1_555
Fe11 O22 2.043957 1_555
Fe11 O20 2.100837 1_555
Fe11 O2 2.100837 1_555
Fe11 O15 2.100837 1_555
Fe12 O1 2.007575 1_555
Fe12 O21 2.007575 1_545
Fe12 O18 2.009468 1_556
Fe12 O5 2.041022 1_545
Fe12 O12 2.041022 1_555
Fe13 O19 2.043956 1_555
Fe13 O8 2.043956 1_555
Fe13 O5 2.043957 1_555
Fe13 O30 2.100837 1_555
Fe13 O7 2.100837 1_555
Fe13 O16 2.100837 1_555
Fe14 O9 1.957833 1_556
Fe14 O22 1.957833 1_655
Fe14 O12 1.957833 1_565
Fe14 O31 2.052369 1_555
Fe14 O21 2.125056 1_555
Fe15 O16 1.952676 1_555
Fe15 O30 2.001792 1_555
Fe15 O25 2.056364 1_655
Fe15 O23 2.066708 1_655
Fe15 O27 2.089570 1_555
Fe15 O10 2.114892 1_655
Fe16 O1 2.007575 1_555
Fe16 O21 2.007575 1_554
Fe16 O18 2.009468 1_655
Fe16 O19 2.041022 1_554
Fe16 O9 2.041022 1_555
Fe17 O19 1.957833 1_554
Fe17 O5 1.957833 1_545
Fe17 O8 1.957833 1_455
Fe17 O23 2.052369 1_555
Fe17 O1 2.125056 1_555
Fe18 O0 1.842244 1_555
Fe18 O10 1.978128 1_665
Fe18 O13 1.978128 1_566
Fe18 O25 1.978128 1_656
Fe19 O30 1.952676 1_555
Fe19 O7 2.001791 1_555
Fe19 O10 2.056365 1_565
Fe19 O23 2.066708 1_565
Fe19 O27 2.089570 1_555
Fe19 O13 2.114891 1_565
Fe20 O24 2.141462 1_546
Fe20 O4 2.141462 1_546
Fe20 O26 2.141678 1_555
Fe20 O28 2.141678 1_555
Fe20 O3 2.148141 1_556
Fe20 O0 2.148141 1_545
Fe21 O2 1.952676 1_555
Fe21 O15 2.001792 1_555
Fe21 O17 2.056365 1_554
Fe21 O31 2.066708 1_554
Fe21 O32 2.089569 1_555
Fe21 O11 2.114892 1_554
