# generated using pymatgen
data_H2WO5
_symmetry_space_group_name_H-M   'P 1'
_cell_length_a   3.95383200
_cell_length_b   7.51197900
_cell_length_c   11.97228128
_cell_angle_alpha   70.82060855
_cell_angle_beta   90.00000000
_cell_angle_gamma   90.00000000
_symmetry_Int_Tables_number   1
_chemical_formula_structural   H2WO5
_chemical_formula_sum   'H8 W4 O20'
_cell_volume   335.85279543
_cell_formula_units_Z   4
loop_
 _symmetry_equiv_pos_site_id
 _symmetry_equiv_pos_as_xyz
  1  'x, y, z'
loop_
 _atom_site_type_symbol
 _atom_site_label
 _atom_site_symmetry_multiplicity
 _atom_site_fract_x
 _atom_site_fract_y
 _atom_site_fract_z
 _atom_site_occupancy
  H  H0  1  0.28108000  0.83554600  0.52742100  1
  H  H1  1  0.78108000  0.16445400  0.97257900  1
  H  H2  1  0.71892000  0.16445400  0.47257900  1
  H  H3  1  0.21892000  0.83554600  0.02742100  1
  H  H4  1  0.55776800  0.68383100  0.13960000  1
  H  H5  1  0.05776800  0.31616900  0.36040000  1
  H  H6  1  0.44223200  0.31616900  0.86040000  1
  H  H7  1  0.94223200  0.68383100  0.63960000  1
  W  W0  1  0.42857800  0.81071900  0.30581400  1
  W  W1  1  0.92857800  0.18928100  0.19418600  1
  W  W2  1  0.57142200  0.18928100  0.69418600  1
  W  W3  1  0.07142200  0.81071900  0.80581400  1
  O  O0  1  0.41512000  0.84378700  0.45210600  1
  O  O1  1  0.91512000  0.15621300  0.04789400  1
  O  O2  1  0.58488000  0.15621300  0.54789400  1
  O  O3  1  0.08488000  0.84378700  0.95210600  1
  O  O4  1  0.92860800  0.89414400  0.27946400  1
  O  O5  1  0.42860800  0.10585600  0.22053600  1
  O  O6  1  0.07139200  0.10585600  0.72053600  1
  O  O7  1  0.57139200  0.89414400  0.77946400  1
  O  O8  1  0.42927700  0.79564400  0.14169500  1
  O  O9  1  0.92927700  0.20435600  0.35830500  1
  O  O10  1  0.57072300  0.20435600  0.85830500  1
  O  O11  1  0.07072300  0.79564400  0.64169500  1
  O  O12  1  0.25354500  0.55035100  0.36569800  1
  O  O13  1  0.75354500  0.44964900  0.13430200  1
  O  O14  1  0.74645500  0.44964900  0.63430200  1
  O  O15  1  0.24645500  0.55035100  0.86569800  1
  O  O16  1  0.62351800  0.55967900  0.36022900  1
  O  O17  1  0.12351800  0.44032100  0.13977100  1
  O  O18  1  0.37648200  0.44032100  0.63977100  1
  O  O19  1  0.87648200  0.55967900  0.86022900  1
loop_
_geom_bond_atom_site_label_1
_geom_bond_atom_site_label_2
_geom_bond_distance
_geom_bond_site_symmetry_2
H0 O0 1.030085 1_555
H0 O11 1.543990 1_555
H1 O1 1.030085 1_556
H1 O10 1.543990 1_555
H2 O2 1.030085 1_555
H2 O9 1.543990 1_555
H3 O3 1.030085 1_554
H3 O8 1.543990 1_555
H4 O8 0.988970 1_555
H5 O9 0.988970 1_455
H6 O10 0.988970 1_555
H7 O11 0.988970 1_655
O0 W0 1.848777 1_555
O1 W1 1.848777 1_555
O2 W2 1.848777 1_555
O3 W3 1.848777 1_555
O4 W0 2.066418 1_655
O4 W0 2.066645 1_555
O4 W1 2.114349 1_565
O5 W1 2.066418 1_555
O5 W1 2.066645 1_455
O5 W0 2.114349 1_545
O6 W2 2.066418 1_455
O6 W2 2.066645 1_555
O6 W3 2.114349 1_545
O7 W3 2.066418 1_555
O7 W3 2.066645 1_655
O7 W2 2.114349 1_565
O8 W0 2.004939 1_555
O9 W1 2.004939 1_555
O10 W2 2.004939 1_555
O11 W3 2.004939 1_555
O12 O16 1.464923 1_555
O12 W0 1.974094 1_555
O13 O17 1.464923 1_655
O13 W1 1.974094 1_555
O14 O18 1.464923 1_555
O14 W2 1.974094 1_555
O15 O19 1.464923 1_455
O15 W3 1.974094 1_555
O16 W0 1.941013 1_555
O17 W1 1.941013 1_455
O18 W2 1.941013 1_555
O19 W3 1.941013 1_655
