# generated using pymatgen
data_BaH5BrO3
_symmetry_space_group_name_H-M   'P 1'
_cell_length_a   4.64538200
_cell_length_b   4.64538200
_cell_length_c   11.87757300
_cell_angle_alpha   90.00000000
_cell_angle_beta   90.00000000
_cell_angle_gamma   90.00000000
_symmetry_Int_Tables_number   1
_chemical_formula_structural   BaH5BrO3
_chemical_formula_sum   'Ba2 H10 Br2 O6'
_cell_volume   256.31296461
_cell_formula_units_Z   2
loop_
 _symmetry_equiv_pos_site_id
 _symmetry_equiv_pos_as_xyz
  1  'x, y, z'
loop_
 _atom_site_type_symbol
 _atom_site_label
 _atom_site_symmetry_multiplicity
 _atom_site_fract_x
 _atom_site_fract_y
 _atom_site_fract_z
 _atom_site_occupancy
  Ba  Ba0  1  0.00000000  0.50000000  0.81196300  1
  Ba  Ba1  1  0.50000000  0.00000000  0.18803700  1
  H  H0  1  0.17934700  0.00000000  0.62718700  1
  H  H1  1  0.82065300  0.00000000  0.62718700  1
  H  H2  1  0.50000000  0.67934700  0.62718700  1
  H  H3  1  0.50000000  0.32065300  0.62718700  1
  H  H4  1  0.32065300  0.50000000  0.37281300  1
  H  H5  1  0.67934700  0.50000000  0.37281300  1
  H  H6  1  0.00000000  0.82065300  0.37281300  1
  H  H7  1  0.00000000  0.17934700  0.37281300  1
  H  H8  1  0.50000000  0.00000000  0.48989700  1
  H  H9  1  0.00000000  0.50000000  0.51010300  1
  Br  Br0  1  0.50000000  0.00000000  0.90529900  1
  Br  Br1  1  0.00000000  0.50000000  0.09470100  1
  O  O0  1  0.00000000  0.00000000  0.67673900  1
  O  O1  1  0.50000000  0.50000000  0.67673900  1
  O  O2  1  0.50000000  0.50000000  0.32326100  1
  O  O3  1  0.00000000  0.00000000  0.32326100  1
  O  O4  1  0.50000000  0.00000000  0.57174000  1
  O  O5  1  0.00000000  0.50000000  0.42826000  1
loop_
_geom_bond_atom_site_label_1
_geom_bond_atom_site_label_2
_geom_bond_distance
_geom_bond_site_symmetry_2
Ba0 O1 2.823926 1_455
Ba0 O0 2.823926 1_555
Ba0 O1 2.823926 1_555
Ba0 O0 2.823926 1_565
Ba0 Br1 3.358241 1_556
Ba0 Br0 3.466813 1_465
Ba0 Br0 3.466813 1_565
Ba0 Br0 3.466813 1_555
Ba0 Br0 3.466813 1_455
Ba1 O3 2.823926 1_555
Ba1 O2 2.823926 1_545
Ba1 O2 2.823926 1_555
Ba1 O3 2.823926 1_655
Ba1 Br0 3.358241 1_554
Ba1 Br1 3.466813 1_555
Ba1 Br1 3.466813 1_655
Ba1 Br1 3.466813 1_645
Ba1 Br1 3.466813 1_545
H0 O0 1.020056 1_555
H0 O4 1.628649 1_555
H1 O0 1.020056 1_655
H1 O4 1.628649 1_555
H2 O1 1.020056 1_555
H2 O4 1.628649 1_565
H3 O1 1.020056 1_555
H3 O4 1.628649 1_555
H4 O2 1.020056 1_555
H4 O5 1.628649 1_555
H5 O2 1.020056 1_555
H5 O5 1.628649 1_655
H6 O3 1.020056 1_565
H6 O5 1.628649 1_555
H7 O3 1.020056 1_555
H7 O5 1.628649 1_555
H8 O4 0.972096 1_555
H9 O5 0.972096 1_555
