# generated using pymatgen
data_Yb8In3
_symmetry_space_group_name_H-M   'P 1'
_cell_length_a   18.77604717
_cell_length_b   18.77604717
_cell_length_c   18.77604777
_cell_angle_alpha   29.58232828
_cell_angle_beta   29.58232828
_cell_angle_gamma   29.58232789
_symmetry_Int_Tables_number   1
_chemical_formula_structural   Yb8In3
_chemical_formula_sum   'Yb32 In12'
_cell_volume   1428.07863821
_cell_formula_units_Z   4
loop_
 _symmetry_equiv_pos_site_id
 _symmetry_equiv_pos_as_xyz
  1  'x, y, z'
loop_
 _atom_site_type_symbol
 _atom_site_label
 _atom_site_symmetry_multiplicity
 _atom_site_fract_x
 _atom_site_fract_y
 _atom_site_fract_z
 _atom_site_occupancy
  Yb  Yb0  1  0.38158100  0.14032100  0.63421300  1
  Yb  Yb1  1  0.63421300  0.38158100  0.14032100  1
  Yb  Yb2  1  0.14032100  0.63421300  0.38158100  1
  Yb  Yb3  1  0.13421300  0.64032100  0.88158100  1
  Yb  Yb4  1  0.88158100  0.13421300  0.64032100  1
  Yb  Yb5  1  0.64032100  0.88158100  0.13421300  1
  Yb  Yb6  1  0.61841900  0.85967900  0.36578700  1
  Yb  Yb7  1  0.36578700  0.61841900  0.85967900  1
  Yb  Yb8  1  0.85967900  0.36578700  0.61841900  1
  Yb  Yb9  1  0.86578700  0.35967900  0.11841900  1
  Yb  Yb10  1  0.11841900  0.86578700  0.35967900  1
  Yb  Yb11  1  0.35967900  0.11841900  0.86578700  1
  Yb  Yb12  1  0.28833700  0.01655200  0.64160300  1
  Yb  Yb13  1  0.64160300  0.28833700  0.01655200  1
  Yb  Yb14  1  0.01655200  0.64160300  0.28833700  1
  Yb  Yb15  1  0.14160300  0.51655200  0.78833700  1
  Yb  Yb16  1  0.78833700  0.14160300  0.51655200  1
  Yb  Yb17  1  0.51655200  0.78833700  0.14160300  1
  Yb  Yb18  1  0.71166300  0.98344800  0.35839700  1
  Yb  Yb19  1  0.35839700  0.71166300  0.98344800  1
  Yb  Yb20  1  0.98344800  0.35839700  0.71166300  1
  Yb  Yb21  1  0.85839700  0.48344800  0.21166300  1
  Yb  Yb22  1  0.21166300  0.85839700  0.48344800  1
  Yb  Yb23  1  0.48344800  0.21166300  0.85839700  1
  Yb  Yb24  1  0.43900400  0.43900400  0.43900400  1
  Yb  Yb25  1  0.93900400  0.93900400  0.93900400  1
  Yb  Yb26  1  0.56099600  0.56099600  0.56099600  1
  Yb  Yb27  1  0.06099600  0.06099600  0.06099600  1
  Yb  Yb28  1  0.27981300  0.27981300  0.27981300  1
  Yb  Yb29  1  0.77981300  0.77981300  0.77981300  1
  Yb  Yb30  1  0.72018700  0.72018700  0.72018700  1
  Yb  Yb31  1  0.22018700  0.22018700  0.22018700  1
  In  In0  1  0.93133300  0.56866700  0.25000000  1
  In  In1  1  0.25000000  0.93133300  0.56866700  1
  In  In2  1  0.56866700  0.25000000  0.93133300  1
  In  In3  1  0.75000000  0.06866700  0.43133300  1
  In  In4  1  0.43133300  0.75000000  0.06866700  1
  In  In5  1  0.06866700  0.43133300  0.75000000  1
  In  In6  1  0.33986700  0.33986700  0.33986700  1
  In  In7  1  0.83986700  0.83986700  0.83986700  1
  In  In8  1  0.66013300  0.66013300  0.66013300  1
  In  In9  1  0.16013300  0.16013300  0.16013300  1
  In  In10  1  0.50000000  0.50000000  0.50000000  1
  In  In11  1  0.00000000  0.00000000  0.00000000  1
loop_
_geom_bond_atom_site_label_1
_geom_bond_atom_site_label_2
_geom_bond_distance
_geom_bond_site_symmetry_2
In0 Yb8 3.326762 1_555
In0 Yb3 3.326762 1_654
In0 Yb6 3.421974 1_555
In0 Yb5 3.421974 1_555
In0 Yb28 3.450835 1_655
In0 Yb31 3.450835 1_655
In0 Yb26 3.482350 1_555
In0 Yb25 3.482350 1_554
In0 Yb14 3.533090 1_655
In0 Yb21 3.533090 1_555
In1 Yb6 3.326761 1_555
In1 Yb4 3.326761 1_465
In1 Yb3 3.421974 1_555
In1 Yb7 3.421974 1_555
In1 Yb28 3.450835 1_565
In1 Yb31 3.450835 1_565
In1 Yb26 3.482350 1_555
In1 Yb25 3.482350 1_455
In1 Yb12 3.533090 1_565
In1 Yb22 3.533090 1_555
In2 Yb5 3.326761 1_546
In2 Yb7 3.326761 1_555
In2 Yb8 3.421974 1_555
In2 Yb4 3.421974 1_555
In2 Yb31 3.450835 1_556
In2 Yb28 3.450835 1_556
In2 Yb25 3.482350 1_545
In2 Yb26 3.482350 1_555
In2 Yb23 3.533090 1_555
In2 Yb13 3.533090 1_556
In3 Yb0 3.326761 1_555
In3 Yb10 3.326761 1_645
In3 Yb9 3.421974 1_555
In3 Yb1 3.421974 1_555
In3 Yb30 3.450835 1_545
In3 Yb29 3.450835 1_545
In3 Yb24 3.482350 1_555
In3 Yb27 3.482350 1_655
In3 Yb18 3.533090 1_545
In3 Yb16 3.533090 1_555
In4 Yb11 3.326761 1_564
In4 Yb1 3.326761 1_555
In4 Yb2 3.421974 1_555
In4 Yb10 3.421974 1_555
In4 Yb29 3.450835 1_554
In4 Yb30 3.450835 1_554
In4 Yb27 3.482350 1_565
In4 Yb24 3.482350 1_555
In4 Yb17 3.533090 1_555
In4 Yb19 3.533090 1_554
In5 Yb2 3.326762 1_555
In5 Yb9 3.326762 1_456
In5 Yb0 3.421974 1_555
In5 Yb11 3.421974 1_555
In5 Yb29 3.450835 1_455
In5 Yb30 3.450835 1_455
In5 Yb24 3.482350 1_555
In5 Yb27 3.482350 1_556
In5 Yb15 3.533090 1_555
In5 Yb20 3.533090 1_455
In6 Yb28 3.232407 1_555
In6 Yb14 3.278470 1_555
In6 Yb12 3.278470 1_555
In6 Yb13 3.278470 1_555
In6 Yb1 3.406588 1_555
In6 Yb2 3.406588 1_555
In6 Yb0 3.406588 1_555
In6 Yb18 3.543793 1_545
In6 Yb19 3.543794 1_554
In6 Yb20 3.543794 1_455
In7 Yb29 3.232407 1_555
In7 Yb15 3.278470 1_655
In7 Yb17 3.278470 1_556
In7 Yb16 3.278470 1_565
In7 Yb4 3.406588 1_565
In7 Yb3 3.406588 1_655
In7 Yb5 3.406588 1_556
In7 Yb23 3.543793 1_565
In7 Yb22 3.543794 1_655
In7 Yb21 3.543794 1_556
In8 Yb30 3.232407 1_555
In8 Yb20 3.278470 1_555
In8 Yb18 3.278470 1_555
In8 Yb19 3.278470 1_555
In8 Yb7 3.406588 1_555
In8 Yb8 3.406588 1_555
In8 Yb6 3.406588 1_555
In8 Yb12 3.543793 1_565
In8 Yb13 3.543794 1_556
In8 Yb14 3.543794 1_655
In9 Yb31 3.232407 1_555
In9 Yb21 3.278470 1_455
In9 Yb23 3.278470 1_554
In9 Yb22 3.278470 1_545
In9 Yb10 3.406588 1_545
In9 Yb9 3.406588 1_455
In9 Yb11 3.406588 1_554
In9 Yb17 3.543793 1_545
In9 Yb16 3.543794 1_455
In9 Yb15 3.543794 1_554
In10 Yb22 3.257875 1_555
In10 Yb16 3.257875 1_555
In10 Yb21 3.257875 1_555
In10 Yb15 3.257875 1_555
In10 Yb17 3.257875 1_555
In10 Yb23 3.257875 1_555
In10 Yb24 3.283111 1_555
In10 Yb26 3.283111 1_555
In11 Yb13 3.257875 1_455
In11 Yb19 3.257875 1_544
In11 Yb14 3.257875 1_545
In11 Yb20 3.257875 1_454
In11 Yb12 3.257875 1_554
In11 Yb18 3.257875 1_445
In11 Yb27 3.283111 1_555
In11 Yb25 3.283111 1_444
