# generated using pymatgen
data_NaH2Pd3
_symmetry_space_group_name_H-M   'P 1'
_cell_length_a   5.15443741
_cell_length_b   5.15443741
_cell_length_c   2.81355967
_cell_angle_alpha   90.00000000
_cell_angle_beta   90.00000000
_cell_angle_gamma   66.51137362
_symmetry_Int_Tables_number   1
_chemical_formula_structural   NaH2Pd3
_chemical_formula_sum   'Na1 H2 Pd3'
_cell_volume   68.55733578
_cell_formula_units_Z   1
loop_
 _symmetry_equiv_pos_site_id
 _symmetry_equiv_pos_as_xyz
  1  'x, y, z'
loop_
 _atom_site_type_symbol
 _atom_site_label
 _atom_site_symmetry_multiplicity
 _atom_site_fract_x
 _atom_site_fract_y
 _atom_site_fract_z
 _atom_site_occupancy
  Na  Na0  1  0.50000000  0.50000000  -0.00000000  1
  H  H0  1  0.78436750  0.78436750  0.00000000  1
  H  H1  1  0.21563250  0.21563250  0.00000000  1
  Pd  Pd0  1  -0.00000000  0.00000000  -0.00000000  1
  Pd  Pd1  1  -0.00000000  0.50000000  0.50000000  1
  Pd  Pd2  1  0.50000000  0.00000000  0.50000000  1
loop_
_geom_bond_atom_site_label_1
_geom_bond_atom_site_label_2
_geom_bond_distance
_geom_bond_site_symmetry_2
Na0 Pd0 2.826571 1_655
Na0 Pd0 2.826571 1_565
Na0 Pd1 2.936169 1_655
Na0 Pd2 2.936169 1_565
Na0 Pd2 2.936169 1_564
Na0 Pd2 2.936169 1_555
Na0 Pd1 2.936169 1_654
Na0 Pd2 2.936169 1_554
Na0 Pd1 2.936169 1_555
Na0 Pd1 2.936169 1_554
H0 Pd0 1.858883 1_665
H0 Pd2 2.015981 1_565
H0 Pd2 2.015981 1_564
H0 Pd1 2.015981 1_654
H0 Pd1 2.015981 1_655
H0 Na0 2.451421 1_555
H1 Pd0 1.858883 1_555
H1 Pd1 2.015981 1_555
H1 Pd2 2.015981 1_555
H1 Pd1 2.015981 1_554
H1 Pd2 2.015981 1_554
H1 Na0 2.451421 1_555
