# generated using pymatgen
data_MgIn2O4
_symmetry_space_group_name_H-M   'P 1'
_cell_length_a   6.36086867
_cell_length_b   6.36086867
_cell_length_c   6.36086867
_cell_angle_alpha   120.34036955
_cell_angle_beta   119.20077942
_cell_angle_gamma   90.40065174
_symmetry_Int_Tables_number   1
_chemical_formula_structural   MgIn2O4
_chemical_formula_sum   'Mg2 In4 O8'
_cell_volume   182.58831577
_cell_formula_units_Z   2
loop_
 _symmetry_equiv_pos_site_id
 _symmetry_equiv_pos_as_xyz
  1  'x, y, z'
loop_
 _atom_site_type_symbol
 _atom_site_label
 _atom_site_symmetry_multiplicity
 _atom_site_fract_x
 _atom_site_fract_y
 _atom_site_fract_z
 _atom_site_occupancy
  Mg  Mg0  1  0.50000000  0.50000000  0.50000000  1
  Mg  Mg1  1  0.50000000  0.00000000  0.00000000  1
  In  In0  1  0.88065300  0.13065300  0.75000000  1
  In  In1  1  0.11934700  0.86934700  0.25000000  1
  In  In2  1  0.00000000  0.50000000  0.50000000  1
  In  In3  1  0.50000000  0.50000000  0.00000000  1
  O  O0  1  0.26721400  0.74289000  0.52432400  1
  O  O1  1  0.71856600  0.74289000  0.97567600  1
  O  O2  1  0.26272300  0.27655400  0.51383000  1
  O  O3  1  0.73727700  0.25110700  0.01383000  1
  O  O4  1  0.26272300  0.74889300  0.98617000  1
  O  O5  1  0.73727700  0.72344600  0.48617000  1
  O  O6  1  0.28143400  0.25711000  0.02432400  1
  O  O7  1  0.73278600  0.25711000  0.47567600  1
loop_
_geom_bond_atom_site_label_1
_geom_bond_atom_site_label_2
_geom_bond_distance
_geom_bond_site_symmetry_2
Mg0 O5 2.128775 1_555
Mg0 O2 2.128775 1_555
Mg0 O7 2.148839 1_555
Mg0 O6 2.148839 1_555
Mg0 O0 2.148839 1_555
Mg0 O1 2.148839 1_555
Mg1 O3 2.128779 1_555
Mg1 O4 2.128779 1_544
Mg1 O1 2.148839 1_544
Mg1 O0 2.148839 1_544
Mg1 O7 2.148839 1_555
Mg1 O6 2.148839 1_555
In0 O6 2.098491 1_656
In0 O7 2.098491 1_555
In0 O3 2.106947 1_556
In0 O5 2.106953 1_545
In1 O0 2.098491 1_555
In1 O1 2.098491 1_454
In1 O4 2.106947 1_554
In1 O2 2.106953 1_565
In2 O0 2.182919 1_555
In2 O7 2.182919 1_455
In2 O5 2.199246 1_455
In2 O2 2.199246 1_555
In2 O3 2.199250 1_455
In2 O4 2.199250 1_555
In3 O1 2.182919 1_554
In3 O6 2.182919 1_555
In3 O4 2.199250 1_554
In3 O3 2.199250 1_555
In3 O2 2.199251 1_554
In3 O5 2.199251 1_555
