# generated using pymatgen
data_Y14(InRh)3
_symmetry_space_group_name_H-M   'P 1'
_cell_length_a   9.71012300
_cell_length_b   9.71012300
_cell_length_c   23.62347100
_cell_angle_alpha   90.00000000
_cell_angle_beta   90.00000000
_cell_angle_gamma   90.00000000
_symmetry_Int_Tables_number   1
_chemical_formula_structural   Y14(InRh)3
_chemical_formula_sum   'Y56 In12 Rh12'
_cell_volume   2227.37413091
_cell_formula_units_Z   4
loop_
 _symmetry_equiv_pos_site_id
 _symmetry_equiv_pos_as_xyz
  1  'x, y, z'
loop_
 _atom_site_type_symbol
 _atom_site_label
 _atom_site_symmetry_multiplicity
 _atom_site_fract_x
 _atom_site_fract_y
 _atom_site_fract_z
 _atom_site_occupancy
  Y  Y0  1  0.79853200  0.00000000  0.55647300  1
  Y  Y1  1  0.20146800  0.00000000  0.55647300  1
  Y  Y2  1  0.68795300  0.81511000  0.85456400  1
  Y  Y3  1  0.50000000  0.19162700  0.21628800  1
  Y  Y4  1  0.29853200  0.50000000  0.94352700  1
  Y  Y5  1  0.00000000  0.79853200  0.44352700  1
  Y  Y6  1  0.00000000  0.50000000  0.53451300  1
  Y  Y7  1  0.50000000  0.50000000  0.39606700  1
  Y  Y8  1  0.31060200  0.50000000  0.26646700  1
  Y  Y9  1  0.31204700  0.18489000  0.85456400  1
  Y  Y10  1  0.50000000  0.50000000  0.60393300  1
  Y  Y11  1  0.31150200  0.31150200  0.50000000  1
  Y  Y12  1  0.50000000  0.00000000  0.96548700  1
  Y  Y13  1  0.00000000  0.00000000  0.89606700  1
  Y  Y14  1  0.81511000  0.31204700  0.14543600  1
  Y  Y15  1  0.00000000  0.69162700  0.28371200  1
  Y  Y16  1  0.18849800  0.18849800  0.00000000  1
  Y  Y17  1  0.69162700  0.00000000  0.71628800  1
  Y  Y18  1  0.50000000  0.70146800  0.05647300  1
  Y  Y19  1  0.00000000  0.81060200  0.76646700  1
  Y  Y20  1  0.18849800  0.81150200  0.00000000  1
  Y  Y21  1  0.18795300  0.31511000  0.64543600  1
  Y  Y22  1  0.31511000  0.18795300  0.35456400  1
  Y  Y23  1  0.00000000  0.50000000  0.03451300  1
  Y  Y24  1  0.70146800  0.50000000  0.94352700  1
  Y  Y25  1  0.31150200  0.68849800  0.50000000  1
  Y  Y26  1  0.00000000  0.20146800  0.44352700  1
  Y  Y27  1  0.68795300  0.18489000  0.85456400  1
  Y  Y28  1  0.81204700  0.31511000  0.64543600  1
  Y  Y29  1  0.18489000  0.31204700  0.14543600  1
  Y  Y30  1  0.81204700  0.68489000  0.64543600  1
  Y  Y31  1  0.50000000  0.68939800  0.73353300  1
  Y  Y32  1  0.50000000  0.29853200  0.05647300  1
  Y  Y33  1  0.18795300  0.68489000  0.64543600  1
  Y  Y34  1  0.68939800  0.50000000  0.26646700  1
  Y  Y35  1  0.68489000  0.18795300  0.35456400  1
  Y  Y36  1  0.81511000  0.68795300  0.14543600  1
  Y  Y37  1  0.80837300  0.50000000  0.78371200  1
  Y  Y38  1  0.68849800  0.68849800  0.50000000  1
  Y  Y39  1  0.81060200  0.00000000  0.23353300  1
  Y  Y40  1  0.19162700  0.50000000  0.78371200  1
  Y  Y41  1  0.81150200  0.18849800  0.00000000  1
  Y  Y42  1  0.00000000  0.18939800  0.76646700  1
  Y  Y43  1  0.31511000  0.81204700  0.35456400  1
  Y  Y44  1  0.18489000  0.68795300  0.14543600  1
  Y  Y45  1  0.50000000  0.80837300  0.21628800  1
  Y  Y46  1  0.81150200  0.81150200  0.00000000  1
  Y  Y47  1  0.00000000  0.30837300  0.28371200  1
  Y  Y48  1  0.18939800  0.00000000  0.23353300  1
  Y  Y49  1  0.50000000  0.00000000  0.46548700  1
  Y  Y50  1  0.68489000  0.81204700  0.35456400  1
  Y  Y51  1  0.50000000  0.31060200  0.73353300  1
  Y  Y52  1  0.31204700  0.81511000  0.85456400  1
  Y  Y53  1  0.00000000  0.00000000  0.10393300  1
  Y  Y54  1  0.68849800  0.31150200  0.50000000  1
  Y  Y55  1  0.30837300  0.00000000  0.71628800  1
  In  In0  1  0.66066900  0.00000000  0.10478100  1
  In  In1  1  0.00000000  0.00000000  0.65907100  1
  In  In2  1  0.83933100  0.50000000  0.39521900  1
  In  In3  1  0.16066900  0.50000000  0.39521900  1
  In  In4  1  0.00000000  0.66066900  0.89521900  1
  In  In5  1  0.33933100  0.00000000  0.10478100  1
  In  In6  1  0.50000000  0.50000000  0.84092900  1
  In  In7  1  0.50000000  0.50000000  0.15907100  1
  In  In8  1  0.50000000  0.16066900  0.60478100  1
  In  In9  1  0.00000000  0.00000000  0.34092900  1
  In  In10  1  0.50000000  0.83933100  0.60478100  1
  In  In11  1  0.00000000  0.33933100  0.89521900  1
  Rh  Rh0  1  0.00000000  0.50000000  0.19895700  1
  Rh  Rh1  1  0.50000000  0.00000000  0.80104300  1
  Rh  Rh2  1  0.00000000  0.78124500  0.56093900  1
  Rh  Rh3  1  0.21875500  0.00000000  0.43906100  1
  Rh  Rh4  1  0.71875500  0.50000000  0.06093900  1
  Rh  Rh5  1  0.28124500  0.50000000  0.06093900  1
  Rh  Rh6  1  0.00000000  0.21875500  0.56093900  1
  Rh  Rh7  1  0.50000000  0.71875500  0.93906100  1
  Rh  Rh8  1  0.00000000  0.50000000  0.69895700  1
  Rh  Rh9  1  0.50000000  0.28124500  0.93906100  1
  Rh  Rh10  1  0.50000000  0.00000000  0.30104300  1
  Rh  Rh11  1  0.78124500  0.00000000  0.43906100  1
loop_
_geom_bond_atom_site_label_1
_geom_bond_atom_site_label_2
_geom_bond_distance
_geom_bond_site_symmetry_2
Y0 Y54 3.474235 1_555
Y0 Y38 3.474235 1_545
Y1 Y11 3.474235 1_555
Y1 Y25 3.474235 1_545
Y2 Y31 3.604958 1_555
Y2 Y46 3.639300 1_556
Y3 Y39 3.567129 1_555
Y3 Y48 3.567129 1_555
Y3 Y8 3.708565 1_555
Y3 Y34 3.708565 1_555
Y7 Y8 3.571500 1_555
Y10 Y38 3.567713 1_555
Y10 Y25 3.567713 1_555
Y10 Y54 3.567713 1_555
Y10 Y11 3.567713 1_555
Y10 Y31 3.571500 1_555
Y10 Y51 3.571500 1_555
Y10 Y28 3.655869 1_555
Y10 Y30 3.655869 1_555
Y10 Y21 3.655869 1_555
Y10 Y33 3.655869 1_555
Y11 Y26 3.474235 1_555
Y11 Y7 3.567713 1_555
Y11 Y6 3.628199 1_555
Y11 Y49 3.628199 1_555
Y11 Y22 3.639300 1_555
Y11 Y21 3.639300 1_555
Y11 Y54 3.660678 1_555
Y11 Y25 3.660678 1_555
Y12 Y41 3.628199 1_556
Y12 Y46 3.628199 1_546
Y12 Y16 3.628199 1_556
Y12 Y20 3.628199 1_546
Y13 Y16 3.567713 1_556
Y13 Y41 3.567713 1_456
Y13 Y20 3.567713 1_546
Y13 Y46 3.567713 1_446
Y13 Y42 3.571500 1_555
Y13 Y19 3.571500 1_545
Y13 Y52 3.655869 1_545
Y13 Y9 3.655869 1_555
Y13 Y2 3.655869 1_445
Y13 Y27 3.655869 1_455
Y14 Y34 3.604958 1_555
Y14 Y41 3.639300 1_555
Y14 Y53 3.655869 1_655
Y14 Y39 3.676156 1_555
Y15 Y8 3.567129 1_555
Y15 Y34 3.567129 1_455
Y15 Y48 3.708565 1_565
Y15 Y39 3.708565 1_465
Y16 Y32 3.474235 1_555
Y16 Y4 3.474235 1_554
Y16 Y53 3.567713 1_555
Y16 Y23 3.628199 1_555
Y16 Y29 3.639300 1_555
Y16 Y9 3.639300 1_554
Y16 Y20 3.660678 1_545
Y16 Y41 3.660678 1_455
Y17 Y51 3.567129 1_555
Y17 Y31 3.567129 1_545
Y17 Y42 3.708565 1_655
Y17 Y19 3.708565 1_645
Y18 Y46 3.474235 1_555
Y18 Y20 3.474235 1_555
Y19 Y40 3.567129 1_555
Y19 Y37 3.567129 1_455
Y19 Y33 3.604958 1_555
Y19 Y30 3.604958 1_455
Y19 Y52 3.676156 1_555
Y19 Y2 3.676156 1_455
Y19 Y42 3.678156 1_565
Y19 Y55 3.708565 1_565
Y20 Y4 3.474235 1_554
Y20 Y53 3.567713 1_565
Y20 Y23 3.628199 1_555
Y20 Y44 3.639300 1_555
Y20 Y52 3.639300 1_554
Y20 Y46 3.660678 1_455
Y21 Y42 3.604958 1_555
Y21 Y51 3.676156 1_555
Y22 Y48 3.604958 1_555
Y22 Y7 3.655869 1_555
Y22 Y8 3.676156 1_555
Y23 Y46 3.628199 1_455
Y23 Y41 3.628199 1_455
Y24 Y46 3.474235 1_556
Y24 Y41 3.474235 1_556
Y25 Y5 3.474235 1_555
Y25 Y7 3.567713 1_555
Y25 Y6 3.628199 1_555
Y25 Y49 3.628199 1_565
Y25 Y43 3.639300 1_555
Y25 Y33 3.639300 1_555
Y25 Y38 3.660678 1_555
Y26 Y54 3.474235 1_455
Y27 Y51 3.604958 1_555
Y27 Y41 3.639300 1_556
Y27 Y42 3.676156 1_655
Y28 Y42 3.604958 1_655
Y28 Y54 3.639300 1_555
Y28 Y51 3.676156 1_555
Y29 Y8 3.604958 1_555
Y29 Y53 3.655869 1_555
Y29 Y48 3.676156 1_555
Y30 Y38 3.639300 1_555
Y30 Y31 3.676156 1_555
Y31 Y55 3.567129 1_565
Y31 Y52 3.604958 1_555
Y31 Y33 3.676156 1_555
Y31 Y51 3.678156 1_555
Y31 Y40 3.708565 1_555
Y31 Y37 3.708565 1_555
Y32 Y41 3.474235 1_555
Y34 Y47 3.567129 1_655
Y34 Y7 3.571500 1_555
Y34 Y36 3.604958 1_555
Y34 Y50 3.676156 1_555
Y34 Y35 3.676156 1_555
Y34 Y8 3.678156 1_555
Y34 Y45 3.708565 1_555
Y35 Y39 3.604958 1_555
Y35 Y54 3.639300 1_555
Y35 Y7 3.655869 1_555
Y36 Y46 3.639300 1_555
Y36 Y53 3.655869 1_665
Y36 Y39 3.676156 1_565
Y37 Y42 3.567129 1_655
Y37 Y51 3.708565 1_555
Y38 Y5 3.474235 1_655
Y38 Y7 3.567713 1_555
Y38 Y49 3.628199 1_565
Y38 Y6 3.628199 1_655
Y38 Y50 3.639300 1_555
Y38 Y54 3.660678 1_555
Y39 Y45 3.567129 1_545
Y39 Y53 3.571500 1_655
Y39 Y50 3.604958 1_545
Y39 Y48 3.678156 1_655
Y39 Y47 3.708565 1_655
Y40 Y42 3.567129 1_555
Y40 Y51 3.708565 1_555
Y41 Y53 3.567713 1_655
Y41 Y46 3.660678 1_545
Y42 Y9 3.676156 1_555
Y42 Y55 3.708565 1_555
Y43 Y48 3.604958 1_565
Y43 Y7 3.655869 1_555
Y43 Y8 3.676156 1_555
Y44 Y8 3.604958 1_555
Y44 Y53 3.655869 1_565
Y44 Y48 3.676156 1_565
Y45 Y48 3.567129 1_565
Y45 Y8 3.708565 1_555
Y46 Y53 3.567713 1_665
Y47 Y8 3.567129 1_555
Y47 Y48 3.708565 1_555
Y48 Y53 3.571500 1_555
Y49 Y54 3.628199 1_555
Y50 Y7 3.655869 1_555
Y51 Y55 3.567129 1_555
Y51 Y9 3.604958 1_555
Y54 Y7 3.567713 1_555
Y54 Y6 3.628199 1_655
In0 In5 3.120232 1_555
In0 Y53 3.295007 1_655
In0 Y39 3.372046 1_555
In0 Y46 3.409146 1_545
In0 Y41 3.409146 1_555
In0 Y32 3.484142 1_555
In0 Y18 3.484142 1_545
In0 Y14 3.514585 1_555
In0 Y36 3.514585 1_545
In0 Y45 3.582620 1_545
In0 Y3 3.582620 1_555
In0 Y12 3.641711 1_554
In1 Y1 3.114715 1_555
In1 Y0 3.114715 1_455
In1 Y42 3.133514 1_555
In1 Y19 3.133514 1_545
In1 Rh6 3.144217 1_555
In1 Rh2 3.144217 1_545
In1 Y55 3.285280 1_555
In1 Y17 3.285280 1_455
In1 Y33 3.577242 1_545
In1 Y21 3.577242 1_555
In1 Y30 3.577242 1_445
In1 Y28 3.577242 1_455
In2 In3 3.120232 1_655
In2 Y7 3.295007 1_555
In2 Y34 3.372046 1_555
In2 Y38 3.409146 1_555
In2 Y54 3.409146 1_555
In2 Y5 3.484142 1_655
In2 Y26 3.484142 1_655
In2 Y50 3.514585 1_555
In2 Y35 3.514585 1_555
In2 Y47 3.582620 1_655
In2 Y15 3.582620 1_655
In2 Y6 3.641711 1_655
In3 Y7 3.295007 1_555
In3 Y8 3.372046 1_555
In3 Y25 3.409146 1_555
In3 Y11 3.409146 1_555
In3 Y5 3.484142 1_555
In3 Y26 3.484142 1_555
In3 Y43 3.514585 1_555
In3 Y22 3.514585 1_555
In3 Y47 3.582620 1_555
In3 Y15 3.582620 1_555
In3 Y6 3.641711 1_555
In4 Y13 3.295007 1_565
In4 Y19 3.372046 1_555
In4 Y20 3.409146 1_556
In4 Y46 3.409146 1_456
In4 Y4 3.484142 1_555
In4 Y24 3.484142 1_455
In4 Y52 3.514585 1_555
In4 Y2 3.514585 1_455
In4 Y40 3.582620 1_555
In4 Y37 3.582620 1_455
In4 Y23 3.641711 1_556
In5 Y53 3.295007 1_555
In5 Y48 3.372046 1_555
In5 Y16 3.409146 1_555
In5 Y20 3.409146 1_545
In5 Y32 3.484142 1_555
In5 Y18 3.484142 1_545
In5 Y29 3.514585 1_555
In5 Y44 3.514585 1_545
In5 Y45 3.582620 1_545
In5 Y3 3.582620 1_555
In5 Y12 3.641711 1_554
In6 Y24 3.114715 1_555
In6 Y4 3.114715 1_555
In6 Y31 3.133514 1_555
In6 Y51 3.133514 1_555
In6 Rh7 3.144217 1_555
In6 Rh9 3.144217 1_555
In6 Y40 3.285280 1_555
In6 Y37 3.285280 1_555
In6 Y27 3.577242 1_555
In6 Y2 3.577242 1_555
In6 Y9 3.577242 1_555
In6 Y52 3.577242 1_555
In7 Y18 3.114715 1_555
In7 Y32 3.114715 1_555
In7 Y34 3.133514 1_555
In7 Y8 3.133514 1_555
In7 Rh4 3.144217 1_555
In7 Rh5 3.144217 1_555
In7 Y3 3.285280 1_555
In7 Y45 3.285280 1_555
In7 Y44 3.577242 1_555
In7 Y36 3.577242 1_555
In7 Y29 3.577242 1_555
In7 Y14 3.577242 1_555
In8 Y10 3.295007 1_555
In8 Y51 3.372046 1_555
In8 Y54 3.409146 1_555
In8 Y11 3.409146 1_555
In8 Y0 3.484142 1_555
In8 Y1 3.484142 1_555
In8 Y28 3.514585 1_555
In8 Y21 3.514585 1_555
In8 Y17 3.582620 1_555
In8 Y55 3.582620 1_555
In8 Y49 3.641711 1_555
In9 Y26 3.114715 1_555
In9 Y5 3.114715 1_545
In9 Y48 3.133514 1_555
In9 Y39 3.133514 1_455
In9 Rh3 3.144217 1_555
In9 Rh11 3.144217 1_455
In9 Y47 3.285280 1_555
In9 Y15 3.285280 1_545
In9 Y35 3.577242 1_455
In9 Y22 3.577242 1_555
In9 Y50 3.577242 1_445
In9 Y43 3.577242 1_545
In10 In8 3.120232 1_565
In10 Y10 3.295007 1_555
In10 Y31 3.372046 1_555
In10 Y38 3.409146 1_555
In10 Y25 3.409146 1_555
In10 Y0 3.484142 1_565
In10 Y1 3.484142 1_565
In10 Y30 3.514585 1_555
In10 Y33 3.514585 1_555
In10 Y55 3.582620 1_565
In10 Y17 3.582620 1_565
In10 Y49 3.641711 1_565
In11 In4 3.120232 1_555
In11 Y13 3.295007 1_555
In11 Y42 3.372046 1_555
In11 Y16 3.409146 1_556
In11 Y41 3.409146 1_456
In11 Y4 3.484142 1_555
In11 Y24 3.484142 1_455
In11 Y9 3.514585 1_555
In11 Y27 3.514585 1_455
In11 Y40 3.582620 1_555
In11 Y37 3.582620 1_455
In11 Y23 3.641711 1_556
Rh0 Y47 2.733335 1_555
Rh0 Y15 2.733335 1_555
Rh0 Y36 2.855258 1_455
Rh0 Y44 2.855258 1_555
Rh0 Y14 2.855258 1_455
Rh0 Y29 2.855258 1_555
Rh0 Y8 3.411687 1_555
Rh0 Y34 3.411687 1_455
Rh1 Y17 2.733335 1_555
Rh1 Y55 2.733335 1_555
Rh1 Y2 2.855258 1_545
Rh1 Y27 2.855258 1_555
Rh1 Y52 2.855258 1_545
Rh1 Y9 2.855258 1_555
Rh1 Y51 3.411687 1_555
Rh1 Y31 3.411687 1_545
Rh2 Y5 2.778754 1_555
Rh2 Y6 2.801368 1_555
Rh2 Y33 2.861930 1_555
Rh2 Y30 2.861930 1_455
Rh2 Y1 2.889658 1_565
Rh2 Y0 2.889658 1_465
Rh2 Y25 3.468778 1_555
Rh2 Y38 3.468778 1_455
Rh3 Y1 2.778754 1_555
Rh3 Y49 2.801368 1_555
Rh3 Y22 2.861930 1_555
Rh3 Y43 2.861930 1_545
Rh3 Y26 2.889658 1_555
Rh3 Y5 2.889658 1_545
Rh3 Y11 3.468778 1_555
Rh3 Y25 3.468778 1_545
Rh4 Y24 2.778754 1_554
Rh4 Y23 2.801368 1_655
Rh4 Y36 2.861930 1_555
Rh4 Y14 2.861930 1_555
Rh4 Y18 2.889658 1_555
Rh4 Y32 2.889658 1_555
Rh4 Y46 3.468778 1_555
Rh4 Y41 3.468778 1_555
Rh5 Y4 2.778754 1_554
Rh5 Y23 2.801368 1_555
Rh5 Y44 2.861930 1_555
Rh5 Y29 2.861930 1_555
Rh5 Y18 2.889658 1_555
Rh5 Y32 2.889658 1_555
Rh5 Y20 3.468778 1_555
Rh5 Y16 3.468778 1_555
Rh6 Y26 2.778754 1_555
Rh6 Y6 2.801368 1_555
Rh6 Y21 2.861930 1_555
Rh6 Y28 2.861930 1_455
Rh6 Y1 2.889658 1_555
Rh6 Y0 2.889658 1_455
Rh6 Y11 3.468778 1_555
Rh6 Y54 3.468778 1_455
Rh7 Y18 2.778754 1_556
Rh7 Y12 2.801368 1_565
Rh7 Y2 2.861930 1_555
Rh7 Y52 2.861930 1_555
Rh7 Y24 2.889658 1_555
Rh7 Y4 2.889658 1_555
Rh7 Y46 3.468778 1_556
Rh7 Y20 3.468778 1_556
Rh8 Y37 2.733335 1_455
Rh8 Y40 2.733335 1_555
Rh8 Y21 2.855258 1_555
Rh8 Y33 2.855258 1_555
Rh8 Y28 2.855258 1_455
Rh8 Y30 2.855258 1_455
Rh8 Y19 3.411687 1_555
Rh8 Y42 3.411687 1_555
Rh9 Y32 2.778754 1_556
Rh9 Y12 2.801368 1_555
Rh9 Y27 2.861930 1_555
Rh9 Y9 2.861930 1_555
Rh9 Y24 2.889658 1_555
Rh9 Y4 2.889658 1_555
Rh9 Y41 3.468778 1_556
Rh9 Y16 3.468778 1_556
Rh10 Y3 2.733335 1_555
Rh10 Y45 2.733335 1_545
Rh10 Y22 2.855258 1_555
Rh10 Y35 2.855258 1_555
Rh10 Y43 2.855258 1_545
Rh10 Y50 2.855258 1_545
Rh10 Y39 3.411687 1_555
Rh10 Y48 3.411687 1_555
Rh11 Y0 2.778754 1_555
Rh11 Y49 2.801368 1_555
Rh11 Y35 2.861930 1_555
Rh11 Y50 2.861930 1_545
Rh11 Y26 2.889658 1_655
Rh11 Y5 2.889658 1_645
Rh11 Y54 3.468778 1_555
Rh11 Y38 3.468778 1_545
