# generated using pymatgen
data_NaHSO4
_symmetry_space_group_name_H-M   'P 1'
_cell_length_a   7.60294900
_cell_length_b   5.18827500
_cell_length_c   9.47200822
_cell_angle_alpha   67.64228338
_cell_angle_beta   90.00000000
_cell_angle_gamma   90.00000000
_symmetry_Int_Tables_number   1
_chemical_formula_structural   NaHSO4
_chemical_formula_sum   'Na4 H4 S4 O16'
_cell_volume   345.54740352
_cell_formula_units_Z   4
loop_
 _symmetry_equiv_pos_site_id
 _symmetry_equiv_pos_as_xyz
  1  'x, y, z'
loop_
 _atom_site_type_symbol
 _atom_site_label
 _atom_site_symmetry_multiplicity
 _atom_site_fract_x
 _atom_site_fract_y
 _atom_site_fract_z
 _atom_site_occupancy
  Na  Na0  1  0.00926900  0.98689300  0.29851600  1
  Na  Na1  1  0.49073100  0.98689300  0.79851600  1
  Na  Na2  1  0.99073100  0.01310700  0.70148400  1
  Na  Na3  1  0.50926900  0.01310700  0.20148400  1
  H  H0  1  0.96147400  0.61936600  0.12702500  1
  H  H1  1  0.53852600  0.61936600  0.62702500  1
  H  H2  1  0.03852600  0.38063400  0.87297500  1
  H  H3  1  0.46147400  0.38063400  0.37297500  1
  S  S0  1  0.22625900  0.59550200  0.06378800  1
  S  S1  1  0.27374100  0.59550200  0.56378800  1
  S  S2  1  0.77374100  0.40449800  0.93621200  1
  S  S3  1  0.72625900  0.40449800  0.43621200  1
  O  O0  1  0.24316200  0.30142800  0.16562700  1
  O  O1  1  0.25683800  0.30142800  0.66562700  1
  O  O2  1  0.75683800  0.69857200  0.83437300  1
  O  O3  1  0.74316200  0.69857200  0.33437300  1
  O  O4  1  0.17011500  0.63345500  0.90799800  1
  O  O5  1  0.32988500  0.63345500  0.40799800  1
  O  O6  1  0.82988500  0.36654500  0.09200200  1
  O  O7  1  0.67011500  0.36654500  0.59200200  1
  O  O8  1  0.07131300  0.72206700  0.13350300  1
  O  O9  1  0.42868700  0.72206700  0.63350300  1
  O  O10  1  0.92868700  0.27793300  0.86649700  1
  O  O11  1  0.57131300  0.27793300  0.36649700  1
  O  O12  1  0.37984600  0.76361500  0.06210800  1
  O  O13  1  0.12015400  0.76361500  0.56210800  1
  O  O14  1  0.62015400  0.23638500  0.93789200  1
  O  O15  1  0.87984600  0.23638500  0.43789200  1
loop_
_geom_bond_atom_site_label_1
_geom_bond_atom_site_label_2
_geom_bond_distance
_geom_bond_site_symmetry_2
Na0 O15 2.384686 1_465
Na0 O0 2.418061 1_565
Na0 O3 2.461676 1_455
Na0 O13 2.466990 1_555
Na0 O8 2.487399 1_555
Na0 O6 2.575851 1_465
Na1 O14 2.384686 1_565
Na1 O1 2.418061 1_565
Na1 O2 2.461676 1_555
Na1 O12 2.466990 1_556
Na1 O9 2.487399 1_555
Na1 O7 2.575851 1_565
Na2 O13 2.384686 1_645
Na2 O2 2.418061 1_545
Na2 O1 2.461676 1_655
Na2 O15 2.466990 1_555
Na2 O10 2.487399 1_555
Na2 O4 2.575851 1_645
Na3 O12 2.384686 1_545
Na3 O3 2.418061 1_545
Na3 O0 2.461676 1_555
Na3 O14 2.466990 1_554
Na3 O11 2.487399 1_555
Na3 O5 2.575851 1_545
H0 O8 1.004963 1_655
H1 O9 1.004963 1_555
H2 O10 1.004963 1_455
H3 O11 1.004963 1_555
O0 S0 1.468061 1_555
O1 S1 1.468061 1_555
O2 S2 1.468061 1_555
O3 S3 1.468061 1_555
O4 S0 1.475619 1_556
O5 S1 1.475619 1_555
O6 S2 1.475619 1_554
O7 S3 1.475619 1_555
O8 S0 1.607770 1_555
O9 S1 1.607770 1_555
O10 S2 1.607770 1_555
O11 S3 1.607770 1_555
O12 S0 1.453964 1_555
O13 S1 1.453964 1_555
O14 S2 1.453964 1_555
O15 S3 1.453964 1_555
