# generated using pymatgen
data_KTa(CuSe2)2
_symmetry_space_group_name_H-M   'P 1'
_cell_length_a   10.05068467
_cell_length_b   10.05068467
_cell_length_c   7.81533300
_cell_angle_alpha   90.00000000
_cell_angle_beta   90.00000000
_cell_angle_gamma   146.90191819
_symmetry_Int_Tables_number   1
_chemical_formula_structural   KTa(CuSe2)2
_chemical_formula_sum   'K2 Ta2 Cu4 Se8'
_cell_volume   431.11210175
_cell_formula_units_Z   2
loop_
 _symmetry_equiv_pos_site_id
 _symmetry_equiv_pos_as_xyz
  1  'x, y, z'
loop_
 _atom_site_type_symbol
 _atom_site_label
 _atom_site_symmetry_multiplicity
 _atom_site_fract_x
 _atom_site_fract_y
 _atom_site_fract_z
 _atom_site_occupancy
  K  K0  1  0.44745500  0.07923100  0.25000000  1
  K  K1  1  0.07923100  0.44745500  0.75000000  1
  Ta  Ta0  1  0.60848100  0.39182600  0.75000000  1
  Ta  Ta1  1  0.39182600  0.60848100  0.25000000  1
  Cu  Cu0  1  0.10660500  0.89317700  0.75000000  1
  Cu  Cu1  1  0.89317700  0.10660500  0.25000000  1
  Cu  Cu2  1  0.51599400  0.51599400  0.50000000  1
  Cu  Cu3  1  0.51599400  0.51599400  0.00000000  1
  Se  Se0  1  0.25660800  0.25053000  0.75000000  1
  Se  Se1  1  0.25053000  0.25660800  0.25000000  1
  Se  Se2  1  0.46208100  0.04185900  0.75000000  1
  Se  Se3  1  0.04185900  0.46208100  0.25000000  1
  Se  Se4  1  0.64015500  0.85452400  0.99532000  1
  Se  Se5  1  0.85452400  0.64015500  0.00468000  1
  Se  Se6  1  0.64015500  0.85452400  0.50468000  1
  Se  Se7  1  0.85452400  0.64015500  0.49532000  1
loop_
_geom_bond_atom_site_label_1
_geom_bond_atom_site_label_2
_geom_bond_distance
_geom_bond_site_symmetry_2
K0 Se3 3.461388 1_655
K0 Se3 3.567474 1_545
K0 Se1 3.606590 1_555
K0 Se5 3.681363 1_555
K0 Se7 3.681363 1_555
K0 Se7 3.821217 1_445
K0 Se5 3.821217 1_445
K0 Se2 3.940186 1_555
K0 Se2 3.940186 1_554
K1 Se2 3.461388 1_565
K1 Se2 3.567474 1_455
K1 Se0 3.606590 1_555
K1 Se6 3.681363 1_555
K1 Se4 3.681363 1_555
K1 Se6 3.821217 1_445
K1 Se4 3.821217 1_445
K1 Se3 3.940186 1_555
K1 Se3 3.940186 1_556
Cu0 Se2 2.460179 1_565
Cu0 Se7 2.460233 1_455
Cu0 Se5 2.460233 1_456
Cu0 Se0 2.469892 1_565
Cu1 Se3 2.460179 1_655
Cu1 Se4 2.460233 1_544
Cu1 Se6 2.460233 1_545
Cu1 Se1 2.469892 1_655
Cu2 Se6 2.453847 1_555
Cu2 Se7 2.453847 1_555
Cu2 Se1 2.465465 1_555
Cu2 Se0 2.465465 1_555
Cu3 Se5 2.453847 1_555
Cu3 Se4 2.453847 1_554
Cu3 Se1 2.465465 1_555
Cu3 Se0 2.465465 1_554
Se0 Ta0 2.471683 1_555
Se1 Ta1 2.471683 1_555
Se2 Ta0 2.421916 1_555
Se3 Ta1 2.421916 1_555
Se4 Ta1 2.442386 1_556
Se5 Ta0 2.442386 1_554
Se6 Ta1 2.442386 1_555
Se7 Ta0 2.442386 1_555
