# generated using pymatgen
data_Te2WCl6
_symmetry_space_group_name_H-M   'P 1'
_cell_length_a   13.31520900
_cell_length_b   6.97941800
_cell_length_c   13.03381108
_cell_angle_alpha   84.52477664
_cell_angle_beta   90.00000000
_cell_angle_gamma   90.00000000
_symmetry_Int_Tables_number   1
_chemical_formula_structural   Te2WCl6
_chemical_formula_sum   'Te8 W4 Cl24'
_cell_volume   1205.73714083
_cell_formula_units_Z   4
loop_
 _symmetry_equiv_pos_site_id
 _symmetry_equiv_pos_as_xyz
  1  'x, y, z'
loop_
 _atom_site_type_symbol
 _atom_site_label
 _atom_site_symmetry_multiplicity
 _atom_site_fract_x
 _atom_site_fract_y
 _atom_site_fract_z
 _atom_site_occupancy
  Te  Te0  1  0.54632900  0.83895200  0.62118400  1
  Te  Te1  1  0.45367100  0.16104800  0.37881600  1
  Te  Te2  1  0.95367100  0.83895200  0.12118400  1
  Te  Te3  1  0.62563900  0.14337100  0.49685300  1
  Te  Te4  1  0.87436100  0.14337100  0.99685300  1
  Te  Te5  1  0.12563900  0.85662900  0.00314700  1
  Te  Te6  1  0.04632900  0.16104800  0.87881600  1
  Te  Te7  1  0.37436100  0.85662900  0.50314700  1
  W  W0  1  0.13437600  0.35722400  0.33078300  1
  W  W1  1  0.36562400  0.35722400  0.83078300  1
  W  W2  1  0.86562400  0.64277600  0.66921700  1
  W  W3  1  0.63437600  0.64277600  0.16921700  1
  Cl  Cl0  1  0.77911900  0.46759800  0.21700400  1
  Cl  Cl1  1  0.44672000  0.63588900  0.86647200  1
  Cl  Cl2  1  0.27581900  0.07809500  0.79080600  1
  Cl  Cl3  1  0.57972300  0.58809100  0.34330700  1
  Cl  Cl4  1  0.72418100  0.92190500  0.20919400  1
  Cl  Cl5  1  0.18958400  0.30456700  0.49859800  1
  Cl  Cl6  1  0.22088100  0.53240200  0.78299600  1
  Cl  Cl7  1  0.68958400  0.69543300  0.00140200  1
  Cl  Cl8  1  0.49351400  0.82774100  0.13385700  1
  Cl  Cl9  1  0.27911900  0.53240200  0.28299600  1
  Cl  Cl10  1  0.81041600  0.69543300  0.50140200  1
  Cl  Cl11  1  0.94672000  0.36411100  0.63352800  1
  Cl  Cl12  1  0.00648600  0.82774100  0.63385700  1
  Cl  Cl13  1  0.77581900  0.92190500  0.70919400  1
  Cl  Cl14  1  0.99351400  0.17225900  0.36614300  1
  Cl  Cl15  1  0.05328000  0.63588900  0.36647200  1
  Cl  Cl16  1  0.22418100  0.07809500  0.29080600  1
  Cl  Cl17  1  0.31041600  0.30456700  0.99859800  1
  Cl  Cl18  1  0.42027700  0.41190900  0.65669300  1
  Cl  Cl19  1  0.50648600  0.17225900  0.86614300  1
  Cl  Cl20  1  0.55328000  0.36411100  0.13352800  1
  Cl  Cl21  1  0.07972300  0.41190900  0.15669300  1
  Cl  Cl22  1  0.72088100  0.46759800  0.71700400  1
  Cl  Cl23  1  0.92027700  0.58809100  0.84330700  1
loop_
_geom_bond_atom_site_label_1
_geom_bond_atom_site_label_2
_geom_bond_distance
_geom_bond_site_symmetry_2
Te0 Te7 2.754820 1_555
Te0 Te3 2.756522 1_565
Te1 Te3 2.754820 1_555
Te1 Te7 2.756522 1_545
Te2 Te5 2.754820 1_655
Te2 Te4 2.756522 1_564
Te4 Te6 2.754820 1_655
Te5 Te6 2.756522 1_564
Cl0 W3 2.334928 1_555
Cl1 W1 2.310352 1_555
Cl2 W1 2.385455 1_555
Cl3 W3 2.378780 1_555
Cl4 W3 2.385455 1_555
Cl5 W0 2.303518 1_555
Cl6 W1 2.334928 1_555
Cl7 W3 2.303518 1_555
Cl8 W3 2.298547 1_555
Cl9 W0 2.334928 1_555
Cl10 W2 2.303518 1_555
Cl11 W2 2.310352 1_555
Cl12 W2 2.298547 1_455
Cl13 W2 2.385455 1_555
Cl14 W0 2.298547 1_655
Cl15 W0 2.310352 1_555
Cl16 W0 2.385455 1_555
Cl17 W1 2.303518 1_555
Cl18 W1 2.378780 1_555
Cl19 W1 2.298547 1_555
Cl20 W3 2.310352 1_555
Cl21 W0 2.378780 1_555
Cl22 W2 2.334928 1_555
Cl23 W2 2.378780 1_555
