# generated using pymatgen
data_Zr4AlNi2
_symmetry_space_group_name_H-M   'P 1'
_cell_length_a   9.35415439
_cell_length_b   9.35415439
_cell_length_c   9.35415439
_cell_angle_alpha   60.00000000
_cell_angle_beta   60.00000000
_cell_angle_gamma   60.00000000
_symmetry_Int_Tables_number   1
_chemical_formula_structural   Zr4AlNi2
_chemical_formula_sum   'Zr16 Al4 Ni8'
_cell_volume   578.76012641
_cell_formula_units_Z   4
loop_
 _symmetry_equiv_pos_site_id
 _symmetry_equiv_pos_as_xyz
  1  'x, y, z'
loop_
 _atom_site_type_symbol
 _atom_site_label
 _atom_site_symmetry_multiplicity
 _atom_site_fract_x
 _atom_site_fract_y
 _atom_site_fract_z
 _atom_site_occupancy
  Zr  Zr0  1  0.73172300  0.26827700  0.73172300  1
  Zr  Zr1  1  0.12500000  0.12500000  0.12500000  1
  Zr  Zr2  1  0.98172300  0.98172300  0.51827700  1
  Zr  Zr3  1  0.26827700  0.26827700  0.73172300  1
  Zr  Zr4  1  0.98172300  0.51827700  0.51827700  1
  Zr  Zr5  1  0.26827700  0.73172300  0.73172300  1
  Zr  Zr6  1  0.51827700  0.98172300  0.51827700  1
  Zr  Zr7  1  0.73172300  0.26827700  0.26827700  1
  Zr  Zr8  1  0.73172300  0.73172300  0.26827700  1
  Zr  Zr9  1  0.98172300  0.51827700  0.98172300  1
  Zr  Zr10  1  0.51827700  0.51827700  0.98172300  1
  Zr  Zr11  1  0.62500000  0.12500000  0.12500000  1
  Zr  Zr12  1  0.12500000  0.62500000  0.12500000  1
  Zr  Zr13  1  0.12500000  0.12500000  0.62500000  1
  Zr  Zr14  1  0.26827700  0.73172300  0.26827700  1
  Zr  Zr15  1  0.51827700  0.98172300  0.98172300  1
  Al  Al0  1  0.12500000  0.62500000  0.62500000  1
  Al  Al1  1  0.62500000  0.62500000  0.12500000  1
  Al  Al2  1  0.62500000  0.12500000  0.62500000  1
  Al  Al3  1  0.62500000  0.62500000  0.62500000  1
  Ni  Ni0  1  0.21688000  0.92770700  0.92770700  1
  Ni  Ni1  1  0.32229300  0.03312000  0.32229300  1
  Ni  Ni2  1  0.92770700  0.92770700  0.92770700  1
  Ni  Ni3  1  0.32229300  0.32229300  0.03312000  1
  Ni  Ni4  1  0.92770700  0.92770700  0.21688000  1
  Ni  Ni5  1  0.32229300  0.32229300  0.32229300  1
  Ni  Ni6  1  0.92770700  0.21688000  0.92770700  1
  Ni  Ni7  1  0.03312000  0.32229300  0.32229300  1
loop_
_geom_bond_atom_site_label_1
_geom_bond_atom_site_label_2
_geom_bond_distance
_geom_bond_site_symmetry_2
Al0 Zr9 2.731663 1_455
Al0 Zr2 2.731663 1_455
Al0 Zr14 2.731663 1_555
Al0 Zr3 2.731663 1_555
Al0 Zr5 2.731663 1_555
Al0 Zr4 2.731663 1_455
Al1 Zr15 2.731663 1_554
Al1 Zr9 2.731663 1_554
Al1 Zr14 2.731663 1_555
Al1 Zr8 2.731663 1_555
Al1 Zr7 2.731663 1_555
Al1 Zr10 2.731663 1_554
Al2 Zr15 2.731663 1_545
Al2 Zr2 2.731663 1_545
Al2 Zr0 2.731663 1_555
Al2 Zr3 2.731663 1_555
Al2 Zr7 2.731663 1_555
Al2 Zr6 2.731663 1_545
Al3 Zr10 2.731663 1_555
Al3 Zr6 2.731663 1_555
Al3 Zr4 2.731663 1_555
Al3 Zr8 2.731663 1_555
Al3 Zr0 2.731663 1_555
Al3 Zr5 2.731663 1_555
Ni0 Ni4 2.704969 1_456
Ni0 Ni6 2.704969 1_465
Ni0 Ni2 2.704969 1_455
Ni0 Zr1 2.790000 1_566
Ni0 Zr12 2.790008 1_556
Ni0 Zr13 2.790008 1_565
Ni0 Zr3 2.924192 1_565
Ni0 Zr14 2.924192 1_556
Ni0 Zr5 2.924200 1_555
Ni0 Zr15 3.400513 1_555
Ni0 Zr10 3.400519 1_555
Ni0 Zr6 3.400519 1_555
Ni1 Ni7 2.704969 1_555
Ni1 Ni5 2.704969 1_555
Ni1 Ni3 2.704969 1_555
Ni1 Zr1 2.790000 1_555
Ni1 Zr11 2.790008 1_555
Ni1 Zr13 2.790008 1_555
Ni1 Zr2 2.924192 1_445
Ni1 Zr15 2.924192 1_544
Ni1 Zr6 2.924200 1_545
Ni1 Zr14 3.400513 1_545
Ni1 Zr5 3.400519 1_545
Ni1 Zr8 3.400519 1_545
Ni2 Ni4 2.704969 1_556
Ni2 Ni6 2.704969 1_565
Ni2 Zr12 2.790004 1_656
Ni2 Zr13 2.790004 1_665
Ni2 Zr11 2.790004 1_566
Ni2 Zr0 2.924196 1_565
Ni2 Zr8 2.924196 1_556
Ni2 Zr5 2.924196 1_655
Ni2 Zr9 3.400522 1_555
Ni2 Zr15 3.400522 1_555
Ni2 Zr2 3.400522 1_555
Ni3 Ni7 2.704969 1_555
Ni3 Ni5 2.704969 1_555
Ni3 Zr1 2.790000 1_555
Ni3 Zr11 2.790008 1_555
Ni3 Zr12 2.790008 1_555
Ni3 Zr15 2.924192 1_544
Ni3 Zr9 2.924192 1_454
Ni3 Zr10 2.924200 1_554
Ni3 Zr3 3.400513 1_554
Ni3 Zr5 3.400519 1_554
Ni3 Zr0 3.400519 1_554
Ni4 Ni6 2.704969 1_564
Ni4 Zr1 2.790000 1_665
Ni4 Zr12 2.790008 1_655
Ni4 Zr11 2.790008 1_565
Ni4 Zr7 2.924192 1_565
Ni4 Zr14 2.924192 1_655
Ni4 Zr8 2.924200 1_555
Ni4 Zr2 3.400513 1_555
Ni4 Zr4 3.400519 1_555
Ni4 Zr6 3.400519 1_555
Ni5 Ni7 2.704969 1_555
Ni5 Zr11 2.790004 1_555
Ni5 Zr12 2.790004 1_555
Ni5 Zr13 2.790004 1_555
Ni5 Zr4 2.924196 1_455
Ni5 Zr10 2.924196 1_554
Ni5 Zr6 2.924196 1_545
Ni5 Zr14 3.400522 1_555
Ni5 Zr3 3.400522 1_555
Ni5 Zr7 3.400522 1_555
Ni6 Zr1 2.790000 1_656
Ni6 Zr13 2.790008 1_655
Ni6 Zr11 2.790008 1_556
Ni6 Zr7 2.924192 1_556
Ni6 Zr3 2.924192 1_655
Ni6 Zr0 2.924200 1_555
Ni6 Zr9 3.400513 1_555
Ni6 Zr10 3.400519 1_555
Ni6 Zr4 3.400519 1_555
Ni7 Zr1 2.790000 1_555
Ni7 Zr12 2.790008 1_555
Ni7 Zr13 2.790008 1_555
Ni7 Zr2 2.924192 1_445
Ni7 Zr9 2.924192 1_454
Ni7 Zr4 2.924200 1_455
Ni7 Zr7 3.400513 1_455
Ni7 Zr0 3.400519 1_455
Ni7 Zr8 3.400519 1_455
