# generated using pymatgen
data_Mo(HO2)2
_symmetry_space_group_name_H-M   'P 1'
_cell_length_a   3.76432700
_cell_length_b   6.42581882
_cell_length_c   7.70722819
_cell_angle_alpha   67.62006153
_cell_angle_beta   80.11105385
_cell_angle_gamma   75.39841542
_symmetry_Int_Tables_number   1
_chemical_formula_structural   Mo(HO2)2
_chemical_formula_sum   'Mo2 H4 O8'
_cell_volume   166.22066291
_cell_formula_units_Z   2
loop_
 _symmetry_equiv_pos_site_id
 _symmetry_equiv_pos_as_xyz
  1  'x, y, z'
loop_
 _atom_site_type_symbol
 _atom_site_label
 _atom_site_symmetry_multiplicity
 _atom_site_fract_x
 _atom_site_fract_y
 _atom_site_fract_z
 _atom_site_occupancy
  Mo  Mo0  1  0.26459200  0.15337500  0.79067900  1
  Mo  Mo1  1  0.74382500  0.86915500  0.20163000  1
  H  H0  1  0.53641100  0.77791900  0.65808500  1
  H  H1  1  0.93499500  0.46306000  0.11279000  1
  H  H2  1  0.26925700  0.66844700  0.82995400  1
  H  H3  1  0.51054600  0.21112100  0.31599200  1
  O  O0  1  0.32632200  0.24924500  0.54772000  1
  O  O1  1  0.69721800  0.75356100  0.44314000  1
  O  O2  1  0.25088600  0.92045200  0.11675400  1
  O  O3  1  0.77534200  0.06589000  0.86338400  1
  O  O4  1  0.13652300  0.40792200  0.83811400  1
  O  O5  1  0.88678100  0.58793500  0.16170000  1
  O  O6  1  0.41642500  0.78918300  0.77948700  1
  O  O7  1  0.61223400  0.18270200  0.19813800  1
loop_
_geom_bond_atom_site_label_1
_geom_bond_atom_site_label_2
_geom_bond_distance
_geom_bond_site_symmetry_2
Mo0 O0 1.727484 1_555
Mo0 O4 1.743200 1_555
Mo0 O3 1.977815 1_555
Mo0 O3 1.987342 1_455
Mo0 O6 2.296344 1_545
Mo0 O2 2.385110 1_546
Mo1 O1 1.716949 1_555
Mo1 O5 1.877791 1_555
Mo1 O7 1.940512 1_565
Mo1 O2 1.975861 1_655
Mo1 O2 1.980937 1_555
Mo1 O3 2.422424 1_564
H0 O6 0.987247 1_555
H0 O1 1.714814 1_555
H1 O5 0.975876 1_555
H2 O6 0.986407 1_555
H3 O7 0.988218 1_555
