# generated using pymatgen
data_SiO2
_symmetry_space_group_name_H-M   'P 1'
_cell_length_a   7.35416002
_cell_length_b   9.61363910
_cell_length_c   16.10593561
_cell_angle_alpha   72.67448256
_cell_angle_beta   89.50230948
_cell_angle_gamma   88.39741296
_symmetry_Int_Tables_number   1
_chemical_formula_structural   SiO2
_chemical_formula_sum   'Si22 O44'
_cell_volume   1086.60375322
_cell_formula_units_Z   22
loop_
 _symmetry_equiv_pos_site_id
 _symmetry_equiv_pos_as_xyz
  1  'x, y, z'
loop_
 _atom_site_type_symbol
 _atom_site_label
 _atom_site_symmetry_multiplicity
 _atom_site_fract_x
 _atom_site_fract_y
 _atom_site_fract_z
 _atom_site_occupancy
  Si  Si0  1  0.36762128  0.92879074  0.90064153  1
  Si  Si1  1  0.99832956  0.07990644  0.83903013  1
  Si  Si2  1  0.83173340  0.96280511  0.69488693  1
  Si  Si3  1  0.52540975  0.46171865  0.75656078  1
  Si  Si4  1  0.71478285  0.23964276  0.54146880  1
  Si  Si5  1  0.28483187  0.22093113  0.54178944  1
  Si  Si6  1  0.71338989  0.78013671  0.45871866  1
  Si  Si7  1  0.47203750  0.78197864  0.75579195  1
  Si  Si8  1  0.17779037  0.49684642  0.39668496  1
  Si  Si9  1  0.81916130  0.50365322  0.60321350  1
  Si  Si10  1  0.81945925  0.10599888  0.39700633  1
  Si  Si11  1  0.36767694  0.82956636  0.09859274  1
  Si  Si12  1  0.83259797  0.65783894  0.30460793  1
  Si  Si13  1  0.62993246  0.07141463  0.09893267  1
  Si  Si14  1  0.52606149  0.21870165  0.24370746  1
  Si  Si15  1  0.62999266  0.17039766  0.90095681  1
  Si  Si16  1  0.16480736  0.34334724  0.69590410  1
  Si  Si17  1  0.17822727  0.89431888  0.60272646  1
  Si  Si18  1  0.16676595  0.03808319  0.30442599  1
  Si  Si19  1  0.47214644  0.53899764  0.24351700  1
  Si  Si20  1  0.99952293  0.92021514  0.16077525  1
  Si  Si21  1  0.28372186  0.76157078  0.45772878  1
  O  O0  1  0.49997191  0.39301920  0.21523503  1
  O  O1  1  0.49924783  0.93303602  0.13291960  1
  O  O2  1  0.92402917  0.76682079  0.21998426  1
  O  O3  1  0.77457001  0.39720398  0.54538248  1
  O  O4  1  0.15918559  0.98592816  0.89872612  1
  O  O5  1  0.32679063  0.83194197  0.67794206  1
  O  O6  1  0.07368712  0.23362143  0.78029416  1
  O  O7  1  0.50098693  0.60786342  0.78492043  1
  O  O8  1  0.66296698  0.58168605  0.27609640  1
  O  O9  1  0.17881344  0.79708604  0.53712453  1
  O  O10  1  0.18037505  0.33327991  0.46120548  1
  O  O11  1  0.83795027  0.11392735  0.89915991  1
  O  O12  1  0.60215006  0.33462581  0.83919490  1
  O  O13  1  0.97881698  0.88932978  0.64519412  1
  O  O14  1  0.15947885  0.88547538  0.10061581  1
  O  O15  1  0.07648615  0.01570049  0.21899038  1
  O  O16  1  0.01750032  0.46673086  0.64686779  1
  O  O17  1  0.33456579  0.14507588  0.27702039  1
  O  O18  1  0.97892310  0.53342506  0.35352107  1
  O  O19  1  0.49832143  0.06713477  0.86652511  1
  O  O20  1  0.76810831  0.75229053  0.36777299  1
  O  O21  1  0.92234111  0.98494120  0.78031615  1
  O  O22  1  0.22310366  0.60421306  0.45384403  1
  O  O23  1  0.23192122  0.24986454  0.63263747  1
  O  O24  1  0.49970556  0.23901615  0.52539149  1
  O  O25  1  0.66743274  0.48674600  0.67749680  1
  O  O26  1  0.60004020  0.17377386  0.16071587  1
  O  O27  1  0.81852248  0.20544116  0.46136809  1
  O  O28  1  0.76946722  0.94269242  0.45418931  1
  O  O29  1  0.49855632  0.76087600  0.47468498  1
  O  O30  1  0.57912730  0.16257045  -0.00003809  1
  O  O31  1  0.22738045  0.05851102  0.54687405  1
  O  O32  1  0.33263200  0.42070727  0.72501129  1
  O  O33  1  0.66215768  0.85772528  0.72217822  1
  O  O34  1  0.76702221  0.12110681  0.63282642  1
  O  O35  1  0.81755810  0.66765581  0.53931206  1
  O  O36  1  0.01899898  0.10962004  0.35484485  1
  O  O37  1  0.67127387  0.16647216  0.32142911  1
  O  O38  1  0.32809472  0.51305715  0.32181279  1
  O  O39  1  0.39605973  0.66540356  0.16037885  1
  O  O40  1  0.41859910  0.83742079  0.99956098  1
  O  O41  1  0.39668401  0.82683645  0.83858578  1
  O  O42  1  0.23406533  0.88014314  0.36599954  1
  O  O43  1  0.83846372  0.01421494  0.10118174  1
loop_
_geom_bond_atom_site_label_1
_geom_bond_atom_site_label_2
_geom_bond_distance
_geom_bond_site_symmetry_2
O0 Si14 1.606651 1_555
O0 Si19 1.606831 1_555
O1 Si13 1.619171 1_565
O1 Si11 1.619272 1_555
O2 Si12 1.606368 1_555
O2 Si20 1.609757 1_555
O3 Si4 1.608205 1_555
O3 Si9 1.616835 1_555
O4 Si1 1.607070 1_465
O4 Si0 1.611211 1_555
O5 Si17 1.604523 1_555
O5 Si7 1.606142 1_555
O6 Si16 1.605906 1_555
O6 Si1 1.609314 1_455
O7 Si7 1.606668 1_555
O7 Si3 1.606719 1_555
O8 Si12 1.601361 1_555
O8 Si19 1.608209 1_555
O9 Si21 1.604730 1_555
O9 Si17 1.605646 1_555
O10 Si5 1.605359 1_555
O10 Si8 1.605712 1_555
O11 Si1 1.607236 1_555
O11 Si15 1.611407 1_555
O12 Si15 1.604426 1_555
O12 Si3 1.608916 1_555
O13 Si17 1.608636 1_655
O13 Si2 1.608873 1_555
O14 Si20 1.607822 1_455
O14 Si11 1.611777 1_555
O15 Si18 1.606473 1_555
O15 Si20 1.610288 1_445
O16 Si9 1.608761 1_455
O16 Si16 1.609144 1_555
O17 Si18 1.602114 1_555
O17 Si14 1.608909 1_555
O18 Si8 1.609086 1_655
O18 Si12 1.609570 1_555
O19 Si15 1.619168 1_555
O19 Si0 1.619181 1_545
O20 Si6 1.611340 1_555
O20 Si12 1.613110 1_555
O21 Si2 1.606457 1_555
O21 Si1 1.609954 1_565
O22 Si21 1.608021 1_555
O22 Si8 1.616937 1_555
O23 Si5 1.611264 1_555
O23 Si16 1.612904 1_555
O24 Si4 1.605453 1_555
O24 Si5 1.605562 1_555
O25 Si9 1.604375 1_555
O25 Si3 1.605864 1_555
O26 Si13 1.604418 1_555
O26 Si14 1.608502 1_555
O27 Si4 1.604998 1_555
O27 Si10 1.605704 1_555
O28 Si6 1.607861 1_555
O28 Si10 1.616600 1_565
O29 Si21 1.605184 1_555
O29 Si6 1.605462 1_555
O30 Si15 1.614928 1_554
O30 Si13 1.615084 1_555
O31 Si5 1.607320 1_555
O31 Si17 1.616179 1_545
O32 Si16 1.601624 1_555
O32 Si3 1.608315 1_555
O33 Si2 1.601690 1_555
O33 Si7 1.608494 1_555
O34 Si4 1.611791 1_555
O34 Si2 1.613493 1_545
O35 Si6 1.604995 1_555
O35 Si9 1.605595 1_555
O36 Si10 1.608474 1_455
O36 Si18 1.608974 1_555
O37 Si10 1.604184 1_555
O37 Si14 1.605736 1_555
O38 Si8 1.604625 1_555
O38 Si19 1.605905 1_555
O39 Si11 1.604478 1_555
O39 Si19 1.608929 1_555
O40 Si0 1.615187 1_555
O40 Si11 1.615376 1_556
O41 Si0 1.604166 1_555
O41 Si7 1.608576 1_555
O42 Si21 1.611977 1_555
O42 Si18 1.613552 1_565
O43 Si20 1.607509 1_545
O43 Si13 1.611668 1_555
