# generated using pymatgen
data_Cs2Ti2S9
_symmetry_space_group_name_H-M   'P 1'
_cell_length_a   10.38877823
_cell_length_b   10.38877824
_cell_length_c   10.38877753
_cell_angle_alpha   83.38886257
_cell_angle_beta   83.38886260
_cell_angle_gamma   83.38887064
_symmetry_Int_Tables_number   1
_chemical_formula_structural   Cs2Ti2S9
_chemical_formula_sum   'Cs6 Ti6 S27'
_cell_volume   1100.45248019
_cell_formula_units_Z   3
loop_
 _symmetry_equiv_pos_site_id
 _symmetry_equiv_pos_as_xyz
  1  'x, y, z'
loop_
 _atom_site_type_symbol
 _atom_site_label
 _atom_site_symmetry_multiplicity
 _atom_site_fract_x
 _atom_site_fract_y
 _atom_site_fract_z
 _atom_site_occupancy
  Cs  Cs0  1  0.66045042  0.66045042  0.66045042  1
  Cs  Cs1  1  0.44185273  0.78495846  0.17402020  1
  Cs  Cs2  1  0.78495846  0.17402020  0.44185273  1
  Cs  Cs3  1  0.23523052  0.23523052  0.23523052  1
  Cs  Cs4  1  0.17402020  0.44185273  0.78495846  1
  Cs  Cs5  1  0.99852822  0.99852822  0.99852822  1
  Ti  Ti0  1  0.86724691  0.52966562  0.16948739  1
  Ti  Ti1  1  0.99377569  0.72935948  0.33245023  1
  Ti  Ti2  1  0.52966562  0.16948739  0.86724691  1
  Ti  Ti3  1  0.72935948  0.33245023  0.99377569  1
  Ti  Ti4  1  0.33245023  0.99377569  0.72935948  1
  Ti  Ti5  1  0.16948739  0.86724691  0.52966562  1
  S  S0  1  0.91292671  0.31211018  0.11618421  1
  S  S1  1  0.39698825  0.89372816  0.50582571  1
  S  S2  1  0.82097725  0.78665557  0.19673914  1
  S  S3  1  0.70549775  0.51179420  0.35156934  1
  S  S4  1  0.78665557  0.19673914  0.82097725  1
  S  S5  1  0.38409347  0.77957169  0.83424687  1
  S  S6  1  0.17481216  0.55832395  0.32933237  1
  S  S7  1  0.60170444  0.15466895  0.09495576  1
  S  S8  1  0.32933237  0.17481216  0.55832395  1
  S  S9  1  0.01333969  0.70904252  0.57444072  1
  S  S10  1  0.70904252  0.57444072  0.01333969  1
  S  S11  1  0.31211018  0.11618421  0.91292671  1
  S  S12  1  0.51179420  0.35156934  0.70549775  1
  S  S13  1  0.95112833  0.88711588  0.64194487  1
  S  S14  1  0.11618421  0.91292671  0.31211018  1
  S  S15  1  0.35156934  0.70549775  0.51179420  1
  S  S16  1  0.64194487  0.95112833  0.88711588  1
  S  S17  1  0.88711588  0.64194487  0.95112833  1
  S  S18  1  0.15466895  0.09495576  0.60170444  1
  S  S19  1  0.89372816  0.50582571  0.39698825  1
  S  S20  1  0.77957169  0.83424687  0.38409347  1
  S  S21  1  0.19673914  0.82097725  0.78665557  1
  S  S22  1  0.50582571  0.39698825  0.89372816  1
  S  S23  1  0.83424687  0.38409347  0.77957169  1
  S  S24  1  0.57444072  0.01333969  0.70904252  1
  S  S25  1  0.55832395  0.32933237  0.17481216  1
  S  S26  1  0.09495576  0.60170444  0.15466895  1
loop_
_geom_bond_atom_site_label_1
_geom_bond_atom_site_label_2
_geom_bond_distance
_geom_bond_site_symmetry_2
Cs0 S20 3.396602 1_555
Cs0 S5 3.396602 1_555
Cs0 S23 3.396602 1_555
Cs0 S12 3.678309 1_555
Cs0 S3 3.678309 1_555
Cs0 S15 3.678310 1_555
Cs0 S10 3.749858 1_556
Cs0 S9 3.749859 1_655
Cs0 S24 3.749859 1_565
Cs0 S22 3.812307 1_555
Cs0 S19 3.812307 1_555
Cs0 S1 3.812307 1_555
Cs0 S13 4.012543 1_555
Cs0 S17 4.012543 1_555
Cs0 S16 4.012543 1_555
Cs1 S15 3.553603 1_555
Cs1 S5 3.655655 1_554
Cs1 S14 3.682120 1_555
Cs1 S10 3.694636 1_555
Cs1 S1 3.712406 1_555
Cs1 S16 3.794722 1_554
Cs1 S6 3.929600 1_555
Cs1 S2 3.974910 1_555
Cs1 S3 4.138321 1_555
Cs2 S3 3.553604 1_555
Cs2 S20 3.655655 1_545
Cs2 S0 3.682119 1_555
Cs2 S24 3.694636 1_555
Cs2 S19 3.712406 1_555
Cs2 S13 3.794722 1_545
Cs2 S25 3.929600 1_555
Cs2 S4 3.974909 1_555
Cs2 S12 4.138321 1_555
Cs3 S8 3.570048 1_555
Cs3 S25 3.570048 1_555
Cs3 S6 3.570048 1_555
Cs3 S11 3.672755 1_554
Cs3 S14 3.672755 1_545
Cs3 S0 3.672756 1_455
Cs3 S18 3.948245 1_555
Cs3 S7 3.948245 1_555
Cs3 S26 3.948245 1_555
Cs4 S12 3.553604 1_555
Cs4 S23 3.655655 1_455
Cs4 S11 3.682120 1_555
Cs4 S9 3.694636 1_555
Cs4 S22 3.712406 1_555
Cs4 S17 3.794722 1_455
Cs4 S8 3.929600 1_555
Cs4 S21 3.974910 1_555
Cs4 S15 4.138320 1_555
Cs5 S2 3.391750 1_556
Cs5 S21 3.391750 1_655
Cs5 S4 3.391750 1_565
Cs5 S11 3.591267 1_665
Cs5 S14 3.591267 1_656
Cs5 S0 3.591268 1_566
S0 Ti0 2.370816 1_555
S0 Ti3 2.387961 1_554
S1 S15 2.056260 1_555
S1 Ti5 2.392110 1_555
S1 Ti4 2.638074 1_555
S2 S20 2.048832 1_555
S2 Ti1 2.389176 1_555
S2 Ti0 2.699317 1_555
S3 Ti0 2.386499 1_555
S4 Ti3 2.389176 1_555
S4 Ti2 2.699317 1_555
S5 Ti4 2.393447 1_555
S6 Ti1 2.434173 1_455
S7 Ti3 2.463895 1_554
S7 Ti2 2.545036 1_554
S8 Ti4 2.434173 1_545
S9 Ti5 2.411064 1_555
S9 Ti1 2.528156 1_455
S10 S17 2.061779 1_554
S10 Ti0 2.411065 1_555
S10 Ti3 2.528157 1_554
S11 Ti2 2.370816 1_555
S11 Ti4 2.387961 1_545
S12 S22 2.056260 1_555
S12 Ti2 2.386499 1_555
S13 S9 2.061779 1_655
S13 Ti5 2.426429 1_655
S14 Ti5 2.370815 1_555
S14 Ti1 2.387961 1_455
S15 Ti5 2.386500 1_555
S16 S24 2.061779 1_565
S16 Ti2 2.426429 1_565
S17 Ti0 2.426429 1_556
S18 S8 2.063043 1_555
S18 Ti4 2.463895 1_545
S18 Ti5 2.545036 1_545
S19 S3 2.056260 1_555
S19 Ti0 2.392110 1_555
S19 Ti1 2.638074 1_555
S20 Ti1 2.393447 1_555
S21 S5 2.048832 1_555
S21 Ti4 2.389176 1_555
S21 Ti5 2.699317 1_555
S22 Ti2 2.392110 1_555
S22 Ti3 2.638074 1_555
S23 S4 2.048832 1_555
S23 Ti3 2.393446 1_555
S24 Ti2 2.411065 1_555
S24 Ti4 2.528157 1_545
S25 S7 2.063044 1_555
S25 Ti3 2.434173 1_554
S26 S6 2.063043 1_555
S26 Ti1 2.463895 1_455
S26 Ti0 2.545036 1_455
