# generated using pymatgen
data_Tl3(V3S4)8
_symmetry_space_group_name_H-M   'P 1'
_cell_length_a   9.18082700
_cell_length_b   9.41561989
_cell_length_c   12.05310721
_cell_angle_alpha   92.64926413
_cell_angle_beta   96.13869027
_cell_angle_gamma   97.64842254
_symmetry_Int_Tables_number   1
_chemical_formula_structural   Tl3(V3S4)8
_chemical_formula_sum   'Tl3 V24 S32'
_cell_volume   1024.78431361
_cell_formula_units_Z   1
loop_
 _symmetry_equiv_pos_site_id
 _symmetry_equiv_pos_as_xyz
  1  'x, y, z'
loop_
 _atom_site_type_symbol
 _atom_site_label
 _atom_site_symmetry_multiplicity
 _atom_site_fract_x
 _atom_site_fract_y
 _atom_site_fract_z
 _atom_site_occupancy
  Tl  Tl0  1  0.95372500  0.94816800  0.07082700  1
  Tl  Tl1  1  0.54138100  0.56566900  0.43559300  1
  Tl  Tl2  1  0.30936800  0.29522400  0.68865000  1
  V  V0  1  0.33393800  0.94487800  0.00269600  1
  V  V1  1  0.10204400  0.63952600  0.96860800  1
  V  V2  1  0.40116500  0.37833100  0.02568600  1
  V  V3  1  0.37486000  0.31959300  0.24657000  1
  V  V4  1  0.76466800  0.05814900  0.28762400  1
  V  V5  1  0.39729300  0.86132100  0.25822500  1
  V  V6  1  0.06516600  0.65896200  0.25500300  1
  V  V7  1  0.73080300  0.41735300  0.17694300  1
  V  V8  1  0.10760000  0.21386700  0.26953800  1
  V  V9  1  0.14378700  0.09326600  0.46006300  1
  V  V10  1  0.53515800  0.85781700  0.57790200  1
  V  V11  1  0.12225200  0.55193100  0.46920800  1
  V  V12  1  0.81420500  0.38520500  0.48308600  1
  V  V13  1  0.52808800  0.12504500  0.48593800  1
  V  V14  1  0.92333600  0.85387600  0.51505500  1
  V  V15  1  0.85180900  0.94116500  0.75595600  1
  V  V16  1  0.14021000  0.60921100  0.76761800  1
  V  V17  1  0.86629100  0.24739700  0.70137500  1
  V  V18  1  0.63659600  0.25087900  0.82919500  1
  V  V19  1  0.30390700  0.85211100  0.73589400  1
  V  V20  1  0.66872500  0.60685700  0.76604100  1
  V  V21  1  0.58575400  0.66303100  0.00835400  1
  V  V22  1  0.96115500  0.38575600  0.00818000  1
  V  V23  1  0.65494000  0.02878400  0.95827400  1
  S  S0  1  0.87508300  0.60130500  0.08641100  1
  S  S1  1  0.27080800  0.17039800  0.08721300  1
  S  S2  1  0.57108900  0.90733100  0.11879100  1
  S  S3  1  0.15202600  0.44132500  0.18542800  1
  S  S4  1  0.61028800  0.25717600  0.02870800  1
  S  S5  1  0.19631900  0.79303400  0.12516800  1
  S  S6  1  0.51247000  0.54105700  0.17077700  1
  S  S7  1  0.88526300  0.23048900  0.16035100  1
  S  S8  1  0.62527900  0.27105800  0.32959200  1
  S  S9  1  0.98104900  0.91293700  0.33313300  1
  S  S10  1  0.28198500  0.70953700  0.38123100  1
  S  S11  1  0.93923700  0.21085300  0.40872200  1
  S  S12  1  0.31636500  0.07980100  0.32286400  1
  S  S13  1  0.88917200  0.57996900  0.37837100  1
  S  S14  1  0.25828100  0.34918900  0.42508200  1
  S  S15  1  0.61099200  0.92137600  0.40351100  1
  S  S16  1  0.33340500  0.99951400  0.57484900  1
  S  S17  1  0.75438000  0.74826400  0.62361900  1
  S  S18  1  0.03443600  0.42427100  0.62193500  1
  S  S19  1  0.10701600  0.73966800  0.60459000  1
  S  S20  1  0.65833200  0.07201300  0.67263700  1
  S  S21  1  0.65945900  0.37649900  0.63491600  1
  S  S22  1  0.00251400  0.06811300  0.63102300  1
  S  S23  1  0.42498800  0.66354700  0.66991900  1
  S  S24  1  0.07984200  0.84283600  0.84668500  1
  S  S25  1  0.52841300  0.45815200  0.87428800  1
  S  S26  1  0.86614600  0.17059800  0.88675400  1
  S  S27  1  0.34555600  0.71498700  0.90927500  1
  S  S28  1  0.90102500  0.52051400  0.83506600  1
  S  S29  1  0.43660400  0.05307000  0.84916900  1
  S  S30  1  0.70905200  0.81225000  0.88446600  1
  S  S31  1  0.17739500  0.41799900  0.91485300  1
loop_
_geom_bond_atom_site_label_1
_geom_bond_atom_site_label_2
_geom_bond_distance
_geom_bond_site_symmetry_2
S0 V7 2.412122 1_555
S0 V22 2.458023 1_555
S0 V6 2.521275 1_655
S0 V1 2.639651 1_654
S0 V21 2.864570 1_555
S1 V2 2.348539 1_555
S1 V3 2.361383 1_555
S1 V0 2.477182 1_545
S1 V8 2.833086 1_555
S2 V23 2.435621 1_564
S2 V5 2.452521 1_555
S2 V0 2.534257 1_555
S2 V21 2.630357 1_555
S2 V4 2.757479 1_565
S3 V8 2.416081 1_555
S3 V6 2.440794 1_555
S3 V3 2.534156 1_555
S3 V22 2.600115 1_455
S4 V2 2.358095 1_555
S4 V7 2.361131 1_555
S4 V23 2.377717 1_554
S4 V18 2.441216 1_554
S5 V5 2.312112 1_555
S5 V1 2.337666 1_554
S5 V6 2.381888 1_555
S5 V0 2.435694 1_555
S5 Tl0 2.857534 1_455
S6 V2 2.324519 1_555
S6 V21 2.426540 1_555
S6 V7 2.444936 1_555
S6 V3 2.549609 1_555
S6 Tl1 3.169567 1_555
S7 V8 2.335093 1_655
S7 V7 2.416364 1_555
S7 V22 2.497361 1_555
S7 V4 2.515416 1_555
S7 Tl0 2.991689 1_545
S8 V12 2.494004 1_555
S8 V3 2.515102 1_555
S8 V7 2.545871 1_555
S8 V13 2.551475 1_555
S8 V4 2.576783 1_555
S9 V14 2.383443 1_555
S9 V9 2.459975 1_665
S9 V4 2.583791 1_565
S9 V6 2.764166 1_655
S10 V11 2.318601 1_555
S10 V5 2.343090 1_555
S10 V6 2.353067 1_555
S10 Tl1 2.922793 1_555
S11 V12 2.324144 1_555
S11 V4 2.336372 1_555
S11 V9 2.345981 1_655
S11 V8 2.398266 1_655
S12 V5 2.402764 1_545
S12 V9 2.419817 1_555
S12 V8 2.477014 1_555
S12 V3 2.491274 1_555
S12 V13 2.590027 1_555
S13 V12 2.343799 1_555
S13 V11 2.350209 1_655
S13 V6 2.381422 1_655
S13 V7 2.943049 1_555
S13 V14 2.957224 1_555
S14 V8 2.409834 1_555
S14 V11 2.483821 1_555
S14 V3 2.523716 1_555
S14 V9 2.569764 1_555
S14 Tl1 3.069444 1_555
S15 V10 2.362082 1_555
S15 V13 2.370220 1_565
S15 V4 2.388339 1_565
S15 V5 2.472613 1_555
S16 V13 2.388406 1_565
S16 V9 2.393902 1_565
S16 V10 2.420741 1_555
S16 V19 2.455371 1_555
S16 Tl2 3.091548 1_565
S17 V14 2.291502 1_555
S17 V20 2.357800 1_555
S17 V15 2.374408 1_555
S17 V10 2.405482 1_555
S17 Tl1 3.116565 1_555
S18 V11 2.397388 1_555
S18 V17 2.419200 1_455
S18 V16 2.441529 1_555
S18 V12 2.458786 1_455
S18 Tl2 2.994443 1_555
S19 V14 2.316347 1_455
S19 V19 2.370005 1_555
S19 V11 2.377995 1_555
S19 V16 2.378566 1_555
S20 V17 2.336356 1_555
S20 V10 2.356676 1_545
S20 V15 2.448866 1_545
S20 V18 2.512598 1_555
S20 V13 2.535810 1_555
S21 V12 2.431665 1_555
S21 V17 2.470666 1_555
S21 V20 2.610506 1_555
S21 V18 2.687290 1_555
S21 V13 2.944183 1_555
S22 V14 2.383884 1_445
S22 V15 2.404652 1_445
S22 V17 2.406069 1_455
S22 V9 2.553295 1_555
S23 V10 2.352439 1_555
S23 V19 2.367311 1_555
S23 V20 2.540702 1_555
S24 V1 2.483041 1_555
S24 V16 2.509554 1_555
S24 V15 2.560433 1_455
S24 V19 2.563784 1_555
S24 V0 2.863438 1_556
S25 V20 2.317396 1_555
S25 V2 2.368248 1_556
S25 V18 2.371495 1_555
S25 V21 2.422637 1_556
S25 Tl2 3.050107 1_555
S26 V18 2.377792 1_555
S26 V17 2.380156 1_555
S26 V22 2.447327 1_556
S26 V23 2.461838 1_555
S26 V15 2.595099 1_545
S27 V0 2.413806 1_556
S27 V1 2.445494 1_555
S27 V16 2.473031 1_555
S27 V21 2.511249 1_556
S27 V19 2.527902 1_555
S28 V1 2.428969 1_655
S28 V20 2.458882 1_555
S28 V16 2.477258 1_655
S28 V22 2.540328 1_556
S28 V17 2.932571 1_555
S29 V23 2.320719 1_555
S29 V0 2.375316 1_546
S29 V19 2.391726 1_545
S29 V18 2.474628 1_555
S30 V20 2.314237 1_555
S30 V23 2.321938 1_565
S30 V21 2.370068 1_556
S30 V15 2.403089 1_555
S31 V1 2.367277 1_555
S31 V22 2.376455 1_456
S31 V2 2.409987 1_556
S31 V16 2.614699 1_555
