# generated using pymatgen
data_LaAl2Si5N9O
_symmetry_space_group_name_H-M   'P 1'
_cell_length_a   9.41431700
_cell_length_b   9.16313800
_cell_length_c   9.83465775
_cell_angle_alpha   89.87407879
_cell_angle_beta   90.00000000
_cell_angle_gamma   90.00000000
_symmetry_Int_Tables_number   1
_chemical_formula_structural   LaAl2Si5N9O
_chemical_formula_sum   'La4 Al8 Si20 N36 O4'
_cell_volume   848.38161243
_cell_formula_units_Z   4
loop_
 _symmetry_equiv_pos_site_id
 _symmetry_equiv_pos_as_xyz
  1  'x, y, z'
loop_
 _atom_site_type_symbol
 _atom_site_label
 _atom_site_symmetry_multiplicity
 _atom_site_fract_x
 _atom_site_fract_y
 _atom_site_fract_z
 _atom_site_occupancy
  La  La0  1  0.62285300  0.15580800  0.38554700  1
  La  La1  1  0.37714700  0.15580800  0.88554700  1
  La  La2  1  0.86934700  0.35378600  0.39380100  1
  La  La3  1  0.13065300  0.35378600  0.89380100  1
  Al  Al0  1  0.16753500  0.93652800  0.68067700  1
  Al  Al1  1  0.83246500  0.93652800  0.18067700  1
  Al  Al2  1  0.75176600  0.75058900  0.90989100  1
  Al  Al3  1  0.24823400  0.75058900  0.40989100  1
  Al  Al4  1  0.25206100  0.24844700  0.56576300  1
  Al  Al5  1  0.74793900  0.24844700  0.06576300  1
  Al  Al6  1  0.51822700  0.99570300  0.09629900  1
  Al  Al7  1  0.48177300  0.99570300  0.59629900  1
  Si  Si0  1  0.01587300  0.98035900  0.42122000  1
  Si  Si1  1  0.98412700  0.98035900  0.92122000  1
  Si  Si2  1  0.45843600  0.81772800  0.83846200  1
  Si  Si3  1  0.54156400  0.81772800  0.33846200  1
  Si  Si4  1  0.04480200  0.67626000  0.84347100  1
  Si  Si5  1  0.95519800  0.67626000  0.34347100  1
  Si  Si6  1  0.32663800  0.56054000  0.67722500  1
  Si  Si7  1  0.67336200  0.56054000  0.17722500  1
  Si  Si8  1  0.48335600  0.51574800  0.41832100  1
  Si  Si9  1  0.51664400  0.51574800  0.91832100  1
  Si  Si10  1  0.02943600  0.49815100  0.59307600  1
  Si  Si11  1  0.97056400  0.49815100  0.09307600  1
  Si  Si12  1  0.18276600  0.45274500  0.31839700  1
  Si  Si13  1  0.81723400  0.45274500  0.81839700  1
  Si  Si14  1  0.55354800  0.33626100  0.66523100  1
  Si  Si15  1  0.44645200  0.33626100  0.16523100  1
  Si  Si16  1  0.04318800  0.16745100  0.16703900  1
  Si  Si17  1  0.95681200  0.16745100  0.66703900  1
  Si  Si18  1  0.68952400  0.05169800  0.82024600  1
  Si  Si19  1  0.31047600  0.05169800  0.32024600  1
  N  N0  1  0.13746600  0.87713800  0.50986300  1
  N  N1  1  0.86253400  0.87713800  0.00986300  1
  N  N2  1  0.37120900  0.87093700  0.30355500  1
  N  N3  1  0.62879100  0.87093700  0.80355500  1
  N  N4  1  0.08617200  0.85682800  0.83039400  1
  N  N5  1  0.91382800  0.85682800  0.33039400  1
  N  N6  1  0.58322300  0.63793000  0.31697400  1
  N  N7  1  0.41677700  0.63793000  0.81697400  1
  N  N8  1  0.13186000  0.63190000  0.30613300  1
  N  N9  1  0.86814000  0.63190000  0.80613300  1
  N  N10  1  0.62684800  0.62599400  0.01767900  1
  N  N11  1  0.37315200  0.62599400  0.51767900  1
  N  N12  1  0.08705800  0.58210300  0.98844400  1
  N  N13  1  0.91294200  0.58210300  0.48844400  1
  N  N14  1  0.14369900  0.57925300  0.71042100  1
  N  N15  1  0.85630100  0.57925300  0.21042100  1
  N  N16  1  0.63433600  0.42462400  0.80161800  1
  N  N17  1  0.36566400  0.42462400  0.30161800  1
  N  N18  1  0.59389300  0.38954700  0.50117800  1
  N  N19  1  0.40610700  0.38954700  0.00117800  1
  N  N20  1  0.13168100  0.38404700  0.48113300  1
  N  N21  1  0.86831900  0.38404700  0.98113300  1
  N  N22  1  0.63203400  0.36927500  0.18974100  1
  N  N23  1  0.36796600  0.36927500  0.68974100  1
  N  N24  1  0.07468500  0.36229000  0.18978700  1
  N  N25  1  0.92531500  0.36229000  0.68978700  1
  N  N26  1  0.58365900  0.14415900  0.68995500  1
  N  N27  1  0.41634100  0.14415900  0.18995500  1
  N  N28  1  0.14200100  0.14261000  0.69536100  1
  N  N29  1  0.85799900  0.14261000  0.19536100  1
  N  N30  1  0.62489900  0.11720100  0.97712900  1
  N  N31  1  0.37510100  0.11720100  0.47712900  1
  N  N32  1  0.09039800  0.11126700  0.00600700  1
  N  N33  1  0.90960200  0.11126700  0.50600700  1
  N  N34  1  0.12931500  0.07949000  0.30162200  1
  N  N35  1  0.87068500  0.07949000  0.80162200  1
  O  O0  1  0.63687900  0.91320000  0.21685800  1
  O  O1  1  0.36312100  0.91320000  0.71685800  1
  O  O2  1  0.59319700  0.90240400  0.47928100  1
  O  O3  1  0.40680300  0.90240400  0.97928100  1
loop_
_geom_bond_atom_site_label_1
_geom_bond_atom_site_label_2
_geom_bond_distance
_geom_bond_site_symmetry_2
La0 N18 2.442432 1_555
La0 O2 2.511952 1_545
La0 N31 2.524902 1_555
La0 N27 2.737198 1_555
La0 N22 2.743214 1_555
La0 O0 2.779906 1_545
La0 N29 2.900812 1_555
La0 N33 2.975814 1_555
La0 N26 3.018057 1_555
La1 N19 2.442432 1_556
La1 O3 2.511952 1_545
La1 N30 2.524902 1_555
La1 N26 2.737198 1_555
La1 N23 2.743214 1_555
La1 O1 2.779906 1_545
La1 N28 2.900812 1_555
La1 N32 2.975814 1_556
La1 N27 3.018057 1_556
La2 N13 2.328141 1_555
La2 N33 2.507768 1_555
La2 N20 2.629640 1_655
La2 N15 2.742178 1_555
La2 N29 2.753375 1_555
La2 N24 2.787113 1_655
La2 N18 2.819364 1_555
La2 N25 2.959418 1_555
La2 N22 3.006287 1_555
La3 N12 2.328141 1_555
La3 N32 2.507768 1_556
La3 N21 2.629640 1_455
La3 N14 2.742178 1_555
La3 N28 2.753375 1_555
La3 N25 2.787113 1_455
La3 N19 2.819364 1_556
La3 N24 2.959418 1_556
La3 N23 3.006287 1_555
Al0 N0 1.789514 1_555
Al0 N4 1.812000 1_555
Al0 O1 1.887429 1_555
Al0 N28 1.909380 1_565
Al1 N1 1.789514 1_555
Al1 N5 1.812000 1_555
Al1 O0 1.887429 1_555
Al1 N29 1.909380 1_565
Al2 N1 1.844927 1_556
Al2 N9 1.851820 1_555
Al2 N3 1.909189 1_555
Al2 N10 1.950604 1_556
Al3 N0 1.844927 1_555
Al3 N8 1.851820 1_555
Al3 N2 1.909189 1_555
Al3 N11 1.950604 1_555
Al4 N20 1.875209 1_555
Al4 N31 1.884807 1_555
Al4 N28 1.906081 1_555
Al4 N23 1.977128 1_555
Al5 N21 1.875209 1_554
Al5 N30 1.884807 1_554
Al5 N29 1.906081 1_555
Al5 N22 1.977128 1_555
Al6 O3 1.777631 1_554
Al6 O0 1.794744 1_555
Al6 N30 1.901523 1_564
Al6 N27 1.903787 1_565
Al7 O2 1.777631 1_555
Al7 O1 1.794744 1_555
Al7 N31 1.901523 1_565
Al7 N26 1.903787 1_565
N0 Si0 1.720851 1_555
N1 Si1 1.720851 1_554
N2 Si3 1.710828 1_555
N2 Si19 1.760257 1_565
N3 Si2 1.710828 1_555
N3 Si18 1.760257 1_565
N4 Si4 1.704374 1_555
N4 Si1 1.733929 1_455
N5 Si5 1.704374 1_555
N5 Si0 1.733929 1_655
N6 Si3 1.707134 1_555
N6 Si7 1.765277 1_555
N6 Si8 1.768024 1_555
N7 Si2 1.707134 1_555
N7 Si6 1.765277 1_555
N7 Si9 1.768024 1_555
N8 Si12 1.714140 1_555
N8 Si5 1.751227 1_455
N9 Si13 1.714140 1_555
N9 Si4 1.751227 1_655
N10 Si7 1.734747 1_555
N10 Si9 1.748160 1_554
N11 Si6 1.734747 1_555
N11 Si8 1.748160 1_555
N12 Si11 1.688178 1_456
N12 Si4 1.711729 1_555
N13 Si10 1.688178 1_655
N13 Si5 1.711729 1_555
N14 Si10 1.744997 1_555
N14 Si6 1.761352 1_555
N14 Si4 1.836916 1_555
N15 Si11 1.744997 1_555
N15 Si7 1.761352 1_555
N15 Si5 1.836916 1_555
N16 Si14 1.742973 1_555
N16 Si13 1.748890 1_555
N16 Si9 1.801761 1_555
N17 Si15 1.742973 1_555
N17 Si12 1.748890 1_555
N17 Si8 1.801761 1_555
N18 Si14 1.726928 1_555
N18 Si8 1.755004 1_555
N19 Si15 1.726928 1_555
N19 Si9 1.755004 1_554
N20 Si12 1.784537 1_555
N20 Si10 1.799110 1_555
N21 Si13 1.784537 1_555
N21 Si11 1.799110 1_556
N22 Si15 1.789523 1_555
N22 Si7 1.799207 1_555
N23 Si14 1.789523 1_555
N23 Si6 1.799207 1_555
N24 Si12 1.823934 1_555
N24 Si16 1.824050 1_555
N24 Si11 1.846640 1_455
N25 Si13 1.823934 1_555
N25 Si17 1.824050 1_555
N25 Si10 1.846640 1_655
N26 Si14 1.798918 1_555
N26 Si18 1.829819 1_555
N27 Si15 1.798918 1_555
N27 Si19 1.829819 1_555
N28 Si17 1.780072 1_455
N29 Si16 1.780072 1_655
N30 Si18 1.764933 1_555
N31 Si19 1.764933 1_555
N32 Si16 1.724601 1_555
N32 Si1 1.771866 1_444
N33 Si17 1.724601 1_555
N33 Si0 1.771866 1_645
N34 Si19 1.734056 1_555
N34 Si16 1.747639 1_555
N34 Si0 1.828782 1_545
N35 Si18 1.734056 1_555
N35 Si17 1.747639 1_555
N35 Si1 1.828782 1_545
O0 Si3 1.730944 1_555
O1 Si2 1.730944 1_555
O2 Si3 1.661623 1_555
O3 Si2 1.661623 1_555
