# generated using pymatgen
data_CdI2
_symmetry_space_group_name_H-M   'P 1'
_cell_length_a   4.34505834
_cell_length_b   4.34505834
_cell_length_c   80.92837900
_cell_angle_alpha   90.00000000
_cell_angle_beta   90.00000000
_cell_angle_gamma   120.00000516
_symmetry_Int_Tables_number   1
_chemical_formula_structural   CdI2
_chemical_formula_sum   'Cd11 I22'
_cell_volume   1323.19141470
_cell_formula_units_Z   11
loop_
 _symmetry_equiv_pos_site_id
 _symmetry_equiv_pos_as_xyz
  1  'x, y, z'
loop_
 _atom_site_type_symbol
 _atom_site_label
 _atom_site_symmetry_multiplicity
 _atom_site_fract_x
 _atom_site_fract_y
 _atom_site_fract_z
 _atom_site_occupancy
  Cd  Cd0  1  0.33333300  0.66666700  0.84089700  1
  Cd  Cd1  1  0.66666700  0.33333300  0.20454000  1
  Cd  Cd2  1  0.66666700  0.33333300  0.02273300  1
  Cd  Cd3  1  0.33333300  0.66666700  0.11365900  1
  Cd  Cd4  1  0.66666700  0.33333300  0.38639200  1
  Cd  Cd5  1  0.33333300  0.66666700  0.29545900  1
  Cd  Cd6  1  0.33333300  0.66666700  0.56817900  1
  Cd  Cd7  1  0.66666700  0.33333300  0.47727700  1
  Cd  Cd8  1  0.33333300  0.66666700  0.93180800  1
  Cd  Cd9  1  0.66666700  0.33333300  0.74999200  1
  Cd  Cd10  1  0.33333300  0.66666700  0.65906500  1
  I  I0  1  0.00000000  0.00000000  0.09226900  1
  I  I1  1  0.66666700  0.33333300  0.86228000  1
  I  I2  1  0.66666700  0.33333300  0.68044600  1
  I  I3  1  0.00000000  0.00000000  0.45589100  1
  I  I4  1  0.33333300  0.66666700  0.40776900  1
  I  I5  1  0.00000000  0.00000000  0.18316500  1
  I  I6  1  0.00000000  0.00000000  0.63769700  1
  I  I7  1  0.66666700  0.33333300  0.95317600  1
  I  I8  1  0.00000000  0.00000000  0.72860500  1
  I  I9  1  0.00000000  0.00000000  0.54681000  1
  I  I10  1  0.33333300  0.66666700  0.77136500  1
  I  I11  1  0.00000000  0.00000000  0.81953000  1
  I  I12  1  0.33333300  0.66666700  0.04411200  1
  I  I13  1  0.66666700  0.33333300  0.58953900  1
  I  I14  1  0.33333300  0.66666700  0.22590900  1
  I  I15  1  0.00000000  0.00000000  0.91040200  1
  I  I16  1  0.00000000  0.00000000  0.27409300  1
  I  I17  1  0.00000000  0.00000000  0.00138900  1
  I  I18  1  0.00000000  0.00000000  0.36502100  1
  I  I19  1  0.66666700  0.33333300  0.13503200  1
  I  I20  1  0.66666700  0.33333300  0.31684700  1
  I  I21  1  0.33333300  0.66666700  0.49865200  1
loop_
_geom_bond_atom_site_label_1
_geom_bond_atom_site_label_2
_geom_bond_distance
_geom_bond_site_symmetry_2
Cd0 I11 3.046849 1_565
Cd0 I11 3.046852 1_555
Cd0 I11 3.046852 1_665
Cd0 I1 3.047583 1_455
Cd0 I1 3.047583 1_565
Cd0 I1 3.047590 1_555
Cd1 I14 3.046940 1_545
Cd1 I14 3.046940 1_655
Cd1 I14 3.046947 1_555
Cd1 I5 3.047216 1_655
Cd1 I5 3.047219 1_555
Cd1 I5 3.047219 1_665
Cd2 I17 3.045793 1_655
Cd2 I17 3.045796 1_555
Cd2 I17 3.045796 1_665
Cd2 I12 3.047400 1_545
Cd2 I12 3.047400 1_655
Cd2 I12 3.047406 1_555
Cd3 I19 3.047124 1_565
Cd3 I19 3.047124 1_455
Cd3 I19 3.047130 1_555
Cd3 I0 3.047905 1_565
Cd3 I0 3.047908 1_555
Cd3 I0 3.047908 1_665
Cd4 I18 3.047032 1_655
Cd4 I18 3.047035 1_665
Cd4 I18 3.047035 1_555
Cd4 I4 3.047308 1_545
Cd4 I4 3.047308 1_655
Cd4 I4 3.047314 1_555
Cd5 I16 3.046803 1_565
Cd5 I16 3.046806 1_555
Cd5 I16 3.046806 1_665
Cd5 I20 3.047813 1_565
Cd5 I20 3.047813 1_455
Cd5 I20 3.047820 1_555
Cd6 I13 3.046527 1_455
Cd6 I13 3.046527 1_565
Cd6 I13 3.046533 1_555
Cd6 I9 3.046940 1_565
Cd6 I9 3.046943 1_555
Cd6 I9 3.046943 1_665
Cd7 I21 3.047216 1_545
Cd7 I21 3.047216 1_655
Cd7 I21 3.047222 1_555
Cd7 I3 3.047721 1_655
Cd7 I3 3.047724 1_555
Cd7 I3 3.047724 1_665
Cd8 I7 3.046894 1_455
Cd8 I7 3.046894 1_565
Cd8 I7 3.046901 1_555
Cd8 I15 3.048641 1_565
Cd8 I15 3.048644 1_555
Cd8 I15 3.048644 1_665
Cd9 I10 3.047124 1_545
Cd9 I10 3.047124 1_655
Cd9 I10 3.047130 1_555
Cd9 I8 3.047767 1_655
Cd9 I8 3.047770 1_665
Cd9 I8 3.047770 1_555
Cd10 I6 3.046894 1_565
Cd10 I6 3.046897 1_555
Cd10 I6 3.046897 1_665
Cd10 I2 3.047492 1_565
Cd10 I2 3.047492 1_455
Cd10 I2 3.047498 1_555
