# generated using pymatgen
data_Eu2Zr2O7
_symmetry_space_group_name_H-M   'P 1'
_cell_length_a   7.51044711
_cell_length_b   7.51052399
_cell_length_c   7.51049539
_cell_angle_alpha   60.02524324
_cell_angle_beta   60.02521037
_cell_angle_gamma   60.02554880
_symmetry_Int_Tables_number   1
_chemical_formula_structural   Eu2Zr2O7
_chemical_formula_sum   'Eu4 Zr4 O14'
_cell_volume   299.73603487
_cell_formula_units_Z   2
loop_
 _symmetry_equiv_pos_site_id
 _symmetry_equiv_pos_as_xyz
  1  'x, y, z'
loop_
 _atom_site_type_symbol
 _atom_site_label
 _atom_site_symmetry_multiplicity
 _atom_site_fract_x
 _atom_site_fract_y
 _atom_site_fract_z
 _atom_site_occupancy
  Eu  Eu0  1  0.62499518  0.12500958  0.62500357  1
  Eu  Eu1  1  0.62498983  0.62500521  0.12501010  1
  Eu  Eu2  1  0.12499933  0.62500391  0.62499713  1
  Eu  Eu3  1  0.62499960  0.62499846  0.62500014  1
  Zr  Zr0  1  0.12501959  0.12499492  0.12500997  1
  Zr  Zr1  1  0.62497640  0.12500451  0.12499681  1
  Zr  Zr2  1  0.12499727  0.12500910  0.62497847  1
  Zr  Zr3  1  0.12500843  0.62498068  0.12501018  1
  O  O0  1  0.21107745  0.78890282  0.78890864  1
  O  O1  1  0.78892612  0.78887186  0.21108918  1
  O  O2  1  0.78892032  0.21108978  0.78887641  1
  O  O3  1  0.21104091  0.78893282  0.21107038  1
  O  O4  1  0.21104380  0.21106697  0.78894094  1
  O  O5  1  0.78895581  0.21106359  0.21106386  1
  O  O6  1  0.46103621  0.03895486  0.03895519  1
  O  O7  1  0.03897121  0.03893289  0.46104861  1
  O  O8  1  0.03897422  0.46105203  0.03893249  1
  O  O9  1  0.46107531  0.03891551  0.46110590  1
  O  O10  1  0.74996467  0.74998428  0.74998386  1
  O  O11  1  0.46107004  0.46111234  0.03891515  1
  O  O12  1  0.03892895  0.46109218  0.46108259  1
  O  O13  1  0.50002834  0.50002170  0.50002142  1
loop_
_geom_bond_atom_site_label_1
_geom_bond_atom_site_label_2
_geom_bond_distance
_geom_bond_site_symmetry_2
Eu0 O13 2.300430 1_555
Eu0 O10 2.300511 1_545
Eu0 O2 2.559887 1_555
Eu0 O9 2.560088 1_555
Eu0 O5 2.561519 1_555
Eu0 O4 2.561578 1_555
Eu0 O6 2.561594 1_556
Eu0 O7 2.561719 1_655
Eu1 O13 2.300408 1_555
Eu1 O10 2.300500 1_554
Eu1 O1 2.559913 1_555
Eu1 O11 2.560062 1_555
Eu1 O5 2.561551 1_555
Eu1 O3 2.561564 1_555
Eu1 O6 2.561601 1_565
Eu1 O8 2.561775 1_655
Eu2 O13 2.300509 1_555
Eu2 O10 2.300544 1_455
Eu2 O0 2.559960 1_555
Eu2 O12 2.560018 1_555
Eu2 O3 2.561448 1_555
Eu2 O7 2.561489 1_565
Eu2 O8 2.561517 1_556
Eu2 O4 2.561526 1_555
Eu3 O13 2.298719 1_555
Eu3 O10 2.298767 1_555
Eu3 O1 2.561449 1_555
Eu3 O2 2.561453 1_555
Eu3 O11 2.561485 1_556
Eu3 O9 2.561517 1_565
Eu3 O0 2.561517 1_555
Eu3 O12 2.561567 1_655
O0 Zr3 2.089242 1_556
O0 Zr2 2.089290 1_565
O1 Zr3 2.089096 1_655
O1 Zr1 2.089463 1_565
O2 Zr2 2.089068 1_655
O2 Zr1 2.089370 1_556
O3 Zr3 2.087863 1_555
O3 Zr0 2.088892 1_565
O4 Zr2 2.087998 1_555
O4 Zr0 2.088909 1_556
O5 Zr1 2.088232 1_555
O5 Zr0 2.088836 1_655
O6 Zr1 2.087768 1_555
O6 Zr0 2.088546 1_555
O7 Zr2 2.087766 1_555
O7 Zr0 2.088689 1_555
O8 Zr3 2.087814 1_555
O8 Zr0 2.088815 1_555
O9 Zr2 2.089048 1_555
O9 Zr1 2.089260 1_555
O11 Zr3 2.088954 1_555
O11 Zr1 2.089276 1_555
O12 Zr3 2.089040 1_555
O12 Zr2 2.089121 1_555
