# generated using pymatgen
data_Ni4B3
_symmetry_space_group_name_H-M   'P 1'
_cell_length_a   2.98129833
_cell_length_b   6.51163215
_cell_length_c   11.84242663
_cell_angle_alpha   90.00000000
_cell_angle_beta   90.00000000
_cell_angle_gamma   90.00000000
_symmetry_Int_Tables_number   1
_chemical_formula_structural   Ni4B3
_chemical_formula_sum   'Ni16 B12'
_cell_volume   229.89842622
_cell_formula_units_Z   4
loop_
 _symmetry_equiv_pos_site_id
 _symmetry_equiv_pos_as_xyz
  1  'x, y, z'
loop_
 _atom_site_type_symbol
 _atom_site_label
 _atom_site_symmetry_multiplicity
 _atom_site_fract_x
 _atom_site_fract_y
 _atom_site_fract_z
 _atom_site_occupancy
  Ni  Ni0  1  0.25000000  0.50822380  0.64832311  1
  Ni  Ni1  1  0.75000000  0.61878136  0.79928642  1
  Ni  Ni2  1  0.25000000  0.11878136  0.70071358  1
  Ni  Ni3  1  0.75000000  0.25103093  0.05047960  1
  Ni  Ni4  1  0.25000000  0.99177620  0.14832311  1
  Ni  Ni5  1  0.75000000  0.66898395  0.12323657  1
  Ni  Ni6  1  0.25000000  0.74896907  0.94952040  1
  Ni  Ni7  1  0.75000000  0.00822380  0.85167689  1
  Ni  Ni8  1  0.75000000  0.49177620  0.35167689  1
  Ni  Ni9  1  0.25000000  0.75103093  0.44952040  1
  Ni  Ni10  1  0.25000000  0.16898395  0.37676343  1
  Ni  Ni11  1  0.75000000  0.83101605  0.62323657  1
  Ni  Ni12  1  0.75000000  0.88121864  0.29928642  1
  Ni  Ni13  1  0.75000000  0.24896907  0.55047960  1
  Ni  Ni14  1  0.25000000  0.33101605  0.87676343  1
  Ni  Ni15  1  0.25000000  0.38121864  0.20071358  1
  B  B0  1  0.75000000  0.31554773  0.74261412  1
  B  B1  1  0.25000000  0.06319159  0.97452147  1
  B  B2  1  0.75000000  0.52198248  0.96029056  1
  B  B3  1  0.75000000  0.93680841  0.02547853  1
  B  B4  1  0.75000000  0.56319159  0.52547853  1
  B  B5  1  0.25000000  0.47801752  0.03970944  1
  B  B6  1  0.25000000  0.68445227  0.25738588  1
  B  B7  1  0.25000000  0.02198248  0.53970944  1
  B  B8  1  0.75000000  0.97801752  0.46029056  1
  B  B9  1  0.75000000  0.18445227  0.24261412  1
  B  B10  1  0.25000000  0.81554773  0.75738588  1
  B  B11  1  0.25000000  0.43680841  0.47452147  1
loop_
_geom_bond_atom_site_label_1
_geom_bond_atom_site_label_2
_geom_bond_distance
_geom_bond_site_symmetry_2
B0 Ni2 2.027291 1_655
B0 Ni2 2.027291 1_555
B0 Ni1 2.085487 1_555
B0 Ni14 2.180825 1_655
B0 Ni14 2.180825 1_555
B0 Ni0 2.245666 1_655
B0 Ni0 2.245666 1_555
B0 Ni13 2.316273 1_555
B0 Ni7 2.381779 1_555
B1 B3 1.806504 1_546
B1 B3 1.806504 1_446
B1 Ni6 2.067412 1_545
B1 Ni14 2.093251 1_555
B1 Ni4 2.110113 1_546
B1 Ni7 2.113416 1_455
B1 Ni7 2.113416 1_555
B1 Ni3 2.127736 1_456
B1 Ni3 2.127736 1_556
B2 B5 1.785653 1_656
B2 B5 1.785653 1_556
B2 Ni1 2.008166 1_555
B2 Ni3 2.062433 1_556
B2 Ni6 2.103080 1_655
B2 Ni6 2.103080 1_555
B2 Ni5 2.154047 1_556
B2 Ni14 2.178711 1_555
B2 Ni14 2.178711 1_655
B3 Ni3 2.067412 1_565
B3 Ni5 2.093251 1_555
B3 Ni7 2.110113 1_564
B3 Ni4 2.113416 1_655
B3 Ni4 2.113416 1_555
B3 Ni6 2.127736 1_554
B3 Ni6 2.127736 1_654
B4 Ni13 2.067412 1_555
B4 Ni11 2.093251 1_555
B4 Ni8 2.110113 1_555
B4 Ni0 2.113416 1_555
B4 Ni0 2.113416 1_655
B4 Ni9 2.127736 1_655
B4 Ni9 2.127736 1_555
B5 Ni15 2.008166 1_555
B5 Ni6 2.062433 1_554
B5 Ni3 2.103080 1_555
B5 Ni3 2.103080 1_455
B5 Ni14 2.154047 1_554
B5 Ni5 2.178711 1_555
B5 Ni5 2.178711 1_455
B6 Ni12 2.027291 1_555
B6 Ni12 2.027291 1_455
B6 Ni15 2.085487 1_555
B6 Ni5 2.180825 1_555
B6 Ni5 2.180825 1_455
B6 Ni8 2.245666 1_455
B6 Ni8 2.245666 1_555
B6 Ni9 2.316273 1_555
B6 Ni4 2.381779 1_555
B7 B8 1.785653 1_445
B7 B8 1.785653 1_545
B7 Ni2 2.008166 1_555
B7 Ni9 2.062433 1_545
B7 Ni13 2.103080 1_455
B7 Ni13 2.103080 1_555
B7 Ni10 2.154047 1_555
B7 Ni11 2.178711 1_445
B7 Ni11 2.178711 1_545
B8 Ni12 2.008166 1_555
B8 Ni13 2.062433 1_565
B8 Ni9 2.103080 1_555
B8 Ni9 2.103080 1_655
B8 Ni11 2.154047 1_555
B8 Ni10 2.178711 1_565
B8 Ni10 2.178711 1_665
B9 Ni15 2.027291 1_655
B9 Ni15 2.027291 1_555
B9 Ni12 2.085487 1_545
B9 Ni10 2.180825 1_555
B9 Ni10 2.180825 1_655
B9 Ni4 2.245666 1_545
B9 Ni4 2.245666 1_645
B9 Ni3 2.316273 1_555
B9 Ni8 2.381779 1_555
B10 Ni1 2.027291 1_555
B10 Ni1 2.027291 1_455
B10 Ni2 2.085487 1_565
B10 Ni11 2.180825 1_555
B10 Ni11 2.180825 1_455
B10 Ni7 2.245666 1_465
B10 Ni7 2.245666 1_565
B10 Ni6 2.316273 1_555
B10 Ni0 2.381779 1_555
B11 B4 1.806504 1_455
B11 B4 1.806504 1_555
B11 Ni9 2.067412 1_555
B11 Ni10 2.093251 1_555
B11 Ni0 2.110113 1_555
B11 Ni8 2.113416 1_555
B11 Ni8 2.113416 1_455
B11 Ni13 2.127736 1_555
B11 Ni13 2.127736 1_455
