# generated using pymatgen
data_AlBiSeCl4
_symmetry_space_group_name_H-M   'P 1'
_cell_length_a   10.37758294
_cell_length_b   10.37758294
_cell_length_c   10.37758294
_cell_angle_alpha   107.62478336
_cell_angle_beta   107.62478336
_cell_angle_gamma   113.23078273
_symmetry_Int_Tables_number   1
_chemical_formula_structural   AlBiSeCl4
_chemical_formula_sum   'Al4 Bi4 Se4 Cl16'
_cell_volume   857.53581567
_cell_formula_units_Z   4
loop_
 _symmetry_equiv_pos_site_id
 _symmetry_equiv_pos_as_xyz
  1  'x, y, z'
loop_
 _atom_site_type_symbol
 _atom_site_label
 _atom_site_symmetry_multiplicity
 _atom_site_fract_x
 _atom_site_fract_y
 _atom_site_fract_z
 _atom_site_occupancy
  Al  Al0  1  0.71333000  0.58803700  0.73012700  1
  Al  Al1  1  0.41196300  0.14209000  0.12529300  1
  Al  Al2  1  0.85791000  0.98320300  0.26987300  1
  Al  Al3  1  0.01679700  0.28667000  0.87470700  1
  Bi  Bi0  1  0.52690900  0.93002000  0.71553700  1
  Bi  Bi1  1  0.21448200  0.81137200  0.28446300  1
  Bi  Bi2  1  0.06998000  0.78551800  0.59688900  1
  Bi  Bi3  1  0.18862800  0.47309100  0.40311100  1
  Se  Se0  1  0.32424300  0.02587000  0.59105600  1
  Se  Se1  1  0.26681400  0.67575700  0.70162700  1
  Se  Se2  1  0.43481400  0.73318600  0.40894400  1
  Se  Se3  1  0.97413000  0.56518600  0.29837300  1
  Cl  Cl0  1  0.77734400  0.18771800  0.69152000  1
  Cl  Cl1  1  0.49619800  0.08582400  0.30848000  1
  Cl  Cl2  1  0.07676400  0.03294700  0.25854700  1
  Cl  Cl3  1  0.45461700  0.43527900  0.61809900  1
  Cl  Cl4  1  0.64812800  0.86447300  0.05345200  1
  Cl  Cl5  1  0.77440000  0.81821700  0.74145300  1
  Cl  Cl6  1  0.96705300  0.22560000  0.04381800  1
  Cl  Cl7  1  0.81228200  0.50380200  0.58962600  1
  Cl  Cl8  1  0.40532400  0.35187200  0.21634500  1
  Cl  Cl9  1  0.56472100  0.18282000  0.01933800  1
  Cl  Cl10  1  0.81102100  0.59467600  0.94654800  1
  Cl  Cl11  1  0.18178300  0.92323600  0.95618200  1
  Cl  Cl12  1  0.81718000  0.83651800  0.38190100  1
  Cl  Cl13  1  0.91417600  0.22265600  0.41037400  1
  Cl  Cl14  1  0.13552700  0.18897900  0.78365500  1
  Cl  Cl15  1  0.16348200  0.54538300  0.98066200  1
loop_
_geom_bond_atom_site_label_1
_geom_bond_atom_site_label_2
_geom_bond_distance
_geom_bond_site_symmetry_2
Al0 Cl10 2.132861 1_555
Al0 Cl3 2.170053 1_555
Al0 Cl5 2.170723 1_555
Al0 Cl7 2.188050 1_555
Al1 Cl8 2.132861 1_555
Al1 Cl9 2.170053 1_555
Al1 Cl11 2.170724 1_544
Al1 Cl1 2.188050 1_555
Al2 Cl4 2.132861 1_555
Al2 Cl12 2.170053 1_555
Al2 Cl2 2.170723 1_665
Al2 Cl13 2.188050 1_565
Al3 Cl14 2.132861 1_555
Al3 Cl15 2.170053 1_555
Al3 Cl6 2.170733 1_456
Al3 Cl0 2.188050 1_455
Bi0 Se0 2.804417 1_565
Bi0 Se2 2.809262 1_555
Bi0 Se1 2.860711 1_555
Bi0 Cl0 3.046521 1_565
Bi0 Cl5 3.183773 1_555
Bi0 Cl9 3.225872 1_566
Bi1 Se2 2.804433 1_555
Bi1 Se0 2.809257 1_565
Bi1 Se3 2.860712 1_455
Bi1 Cl1 3.046527 1_565
Bi1 Cl2 3.183766 1_565
Bi1 Cl15 3.225876 1_554
Bi2 Se3 2.804421 1_455
Bi2 Se1 2.809275 1_555
Bi2 Se0 2.860712 1_565
Bi2 Cl7 3.046528 1_455
Bi2 Cl11 3.183764 1_555
Bi2 Cl12 3.225864 1_455
Bi3 Se1 2.804414 1_555
Bi3 Se3 2.809259 1_455
Bi3 Se2 2.860711 1_555
Bi3 Cl13 3.046521 1_455
Bi3 Cl6 3.183766 1_455
Bi3 Cl3 3.225872 1_555
