# generated using pymatgen
data_CuI
_symmetry_space_group_name_H-M   'P 1'
_cell_length_a   8.57754300
_cell_length_b   4.28597100
_cell_length_c   7.42916214
_cell_angle_alpha   54.73071509
_cell_angle_beta   90.00000000
_cell_angle_gamma   90.00000000
_symmetry_Int_Tables_number   1
_chemical_formula_structural   CuI
_chemical_formula_sum   'Cu4 I4'
_cell_volume   222.98728488
_cell_formula_units_Z   4
loop_
 _symmetry_equiv_pos_site_id
 _symmetry_equiv_pos_as_xyz
  1  'x, y, z'
loop_
 _atom_site_type_symbol
 _atom_site_label
 _atom_site_symmetry_multiplicity
 _atom_site_fract_x
 _atom_site_fract_y
 _atom_site_fract_z
 _atom_site_occupancy
  Cu  Cu0  1  0.37702700  0.83956000  0.72371600  1
  Cu  Cu1  1  0.62297300  0.83956000  0.22371600  1
  Cu  Cu2  1  0.87033000  0.77162300  0.73937400  1
  Cu  Cu3  1  0.12967000  0.77162300  0.23937400  1
  I  I0  1  0.37367700  0.07719700  0.97788100  1
  I  I1  1  0.62632300  0.07719700  0.47788100  1
  I  I2  1  0.87661900  0.03032000  0.98612800  1
  I  I3  1  0.12338100  0.03032000  0.48612800  1
loop_
_geom_bond_atom_site_label_1
_geom_bond_atom_site_label_2
_geom_bond_distance
_geom_bond_site_symmetry_2
Cu0 I1 2.607155 1_565
Cu0 I0 2.612386 1_565
Cu0 I3 2.617421 1_565
Cu0 I0 2.667869 1_555
Cu1 I0 2.607155 1_564
Cu1 I1 2.612386 1_565
Cu1 I2 2.617421 1_564
Cu1 I1 2.667869 1_555
Cu2 I2 2.594580 1_555
Cu2 I1 2.632788 1_565
Cu2 I2 2.634406 1_565
Cu2 I3 2.659196 1_665
Cu3 I3 2.594580 1_555
Cu3 I0 2.632788 1_564
Cu3 I3 2.634406 1_565
Cu3 I2 2.659196 1_464
