# generated using pymatgen
data_Li2SeO4
_symmetry_space_group_name_H-M   'P 1'
_cell_length_a   8.57074600
_cell_length_b   9.63279839
_cell_length_c   9.97343561
_cell_angle_alpha   97.78953499
_cell_angle_beta   108.43439617
_cell_angle_gamma   113.65767421
_symmetry_Int_Tables_number   1
_chemical_formula_structural   Li2SeO4
_chemical_formula_sum   'Li12 Se6 O24'
_cell_volume   682.10010242
_cell_formula_units_Z   6
loop_
 _symmetry_equiv_pos_site_id
 _symmetry_equiv_pos_as_xyz
  1  'x, y, z'
loop_
 _atom_site_type_symbol
 _atom_site_label
 _atom_site_symmetry_multiplicity
 _atom_site_fract_x
 _atom_site_fract_y
 _atom_site_fract_z
 _atom_site_occupancy
  Li  Li0  1  0.14401500  0.57492400  0.40306900  1
  Li  Li1  1  0.85631800  0.42264200  0.59580300  1
  Li  Li2  1  0.37891600  0.11684700  0.93955600  1
  Li  Li3  1  0.33951600  0.20551600  0.61439700  1
  Li  Li4  1  0.56693200  0.36467600  0.22497300  1
  Li  Li5  1  0.65871300  0.78903900  0.38268500  1
  Li  Li6  1  0.09038500  0.89396400  0.25887500  1
  Li  Li7  1  0.91952500  0.34524500  0.08994300  1
  Li  Li8  1  0.43545900  0.62921200  0.77389300  1
  Li  Li9  1  0.59622700  0.88608300  0.05427700  1
  Li  Li10  1  0.89752800  0.10468500  0.73931300  1
  Li  Li11  1  0.08314300  0.65876900  0.91177000  1
  Se  Se0  1  0.68119900  0.27811600  0.77460600  1
  Se  Se1  1  0.31903100  0.72702500  0.22953900  1
  Se  Se2  1  0.72285500  0.18170100  0.29258400  1
  Se  Se3  1  0.18837800  0.36131100  0.77867800  1
  Se  Se4  1  0.29007100  0.82060600  0.70800000  1
  Se  Se5  1  0.80923400  0.63357300  0.22019500  1
  O  O0  1  0.21524400  0.62700800  0.61143600  1
  O  O1  1  0.57544300  0.20813800  0.58885900  1
  O  O2  1  0.49604300  0.85236400  0.84716800  1
  O  O3  1  0.14517500  0.81195300  0.79549200  1
  O  O4  1  0.77516600  0.36790900  0.38918900  1
  O  O5  1  0.74450900  0.45780300  0.10705900  1
  O  O6  1  0.65785400  0.59635100  0.30150600  1
  O  O7  1  0.92859400  0.97322800  0.51552400  1
  O  O8  1  0.17790100  0.21557000  0.85733300  1
  O  O9  1  0.49877700  0.22146300  0.82082000  1
  O  O10  1  0.06615900  0.02544100  0.47890900  1
  O  O11  1  0.18841900  0.80465900  0.13991400  1
  O  O12  1  0.42763300  0.79479500  0.41545200  1
  O  O13  1  0.33539700  0.39660000  0.69311300  1
  O  O14  1  0.96873300  0.28327000  0.65137800  1
  O  O15  1  0.81855800  0.47387900  0.80992200  1
  O  O16  1  0.18071900  0.53112700  0.19136200  1
  O  O17  1  0.02856900  0.71350100  0.34919900  1
  O  O18  1  0.25715200  0.53730200  0.89392200  1
  O  O19  1  0.49939500  0.78080100  0.18044700  1
  O  O20  1  0.88625000  0.21067300  0.22155700  1
  O  O21  1  0.52077300  0.14274500  0.14376200  1
  O  O22  1  0.81499400  0.20401000  0.86622800  1
  O  O23  1  0.81509700  0.77547200  0.13829300  1
loop_
_geom_bond_atom_site_label_1
_geom_bond_atom_site_label_2
_geom_bond_distance
_geom_bond_site_symmetry_2
Li0 O0 1.900596 1_555
Li0 O17 1.991937 1_555
Li0 O16 2.240598 1_555
Li0 O12 2.453030 1_555
Li1 O4 1.874242 1_555
Li1 O14 1.984944 1_555
Li1 O15 2.277779 1_555
Li1 O1 2.435819 1_555
Li2 O9 1.932684 1_555
Li2 O21 1.934209 1_556
Li2 O8 2.275477 1_555
Li3 O13 1.919278 1_555
Li3 O9 2.023355 1_555
Li3 O10 2.103522 1_555
Li3 O1 2.107310 1_555
Li4 O6 1.984101 1_555
Li4 O4 1.990358 1_555
Li4 O21 2.007990 1_555
Li4 O5 2.196891 1_555
Li5 O6 1.917985 1_555
Li5 O19 2.016667 1_555
Li5 O7 2.093957 1_555
Li5 O12 2.127185 1_555
Li6 O11 1.946167 1_555
Li6 O23 1.997013 1_455
Li6 O17 2.025170 1_555
Li6 O10 2.491737 1_565
Li7 O20 1.971315 1_555
Li7 O16 2.025035 1_655
Li7 O22 2.136964 1_554
Li7 O5 2.207217 1_555
Li8 O2 1.965398 1_555
Li8 O13 1.984139 1_555
Li8 O0 2.052426 1_555
Li8 O18 2.216036 1_555
Li9 O2 1.892628 1_554
Li9 O19 1.905691 1_555
Li9 O23 2.491648 1_555
Li10 O22 1.949143 1_555
Li10 O14 2.001461 1_555
Li10 O8 2.027626 1_655
Li10 O7 2.556617 1_545
Li11 O3 2.007264 1_555
Li11 O15 2.039052 1_455
Li11 O11 2.187139 1_556
Li11 O18 2.266467 1_555
O0 Se4 1.726070 1_555
O1 Se0 1.678405 1_555
O2 Se4 1.743085 1_555
O3 Se4 1.712479 1_555
O4 Se2 1.720357 1_555
O5 Se5 1.667381 1_555
O6 Se5 1.685363 1_555
O8 Se3 1.684122 1_555
O9 Se0 1.671509 1_555
O10 O7 1.273821 1_445
O11 Se1 1.682742 1_555
O12 Se1 1.680267 1_555
O13 Se3 1.687159 1_555
O14 Se3 1.677767 1_655
O15 Se0 1.685853 1_555
O16 Se1 1.683950 1_555
O17 Se5 1.679974 1_455
O18 Se3 1.668499 1_555
O19 Se1 1.674066 1_555
O20 Se2 1.705342 1_555
O21 Se2 1.745064 1_555
O22 Se0 1.682445 1_555
O23 Se5 1.676790 1_555
