# generated using pymatgen
data_CdFeSn(PO4)3
_symmetry_space_group_name_H-M   'P 1'
_cell_length_a   8.90330770
_cell_length_b   8.90330770
_cell_length_c   8.90330824
_cell_angle_alpha   58.72860722
_cell_angle_beta   58.72860722
_cell_angle_gamma   58.72861084
_symmetry_Int_Tables_number   1
_chemical_formula_structural   CdFeSn(PO4)3
_chemical_formula_sum   'Cd2 Fe2 Sn2 P6 O24'
_cell_volume   484.54887575
_cell_formula_units_Z   2
loop_
 _symmetry_equiv_pos_site_id
 _symmetry_equiv_pos_as_xyz
  1  'x, y, z'
loop_
 _atom_site_type_symbol
 _atom_site_label
 _atom_site_symmetry_multiplicity
 _atom_site_fract_x
 _atom_site_fract_y
 _atom_site_fract_z
 _atom_site_occupancy
  Cd  Cd0  1  0.99704600  0.99704600  0.99704600  1
  Cd  Cd1  1  0.49704600  0.49704600  0.49704600  1
  Fe  Fe0  1  0.35252600  0.35252600  0.35252600  1
  Fe  Fe1  1  0.85252600  0.85252600  0.85252600  1
  Sn  Sn0  1  0.14641000  0.14641000  0.14641000  1
  Sn  Sn1  1  0.64641000  0.64641000  0.64641000  1
  P  P0  1  0.74877900  0.04501600  0.45999300  1
  P  P1  1  0.04501600  0.45999300  0.74877900  1
  P  P2  1  0.45999300  0.74877900  0.04501600  1
  P  P3  1  0.54501600  0.24877900  0.95999300  1
  P  P4  1  0.95999300  0.54501600  0.24877900  1
  P  P5  1  0.24877900  0.95999300  0.54501600  1
  O  O0  1  0.30082200  0.11850900  0.50552200  1
  O  O1  1  0.50552200  0.30082200  0.11850900  1
  O  O2  1  0.91732900  0.06080000  0.26904600  1
  O  O3  1  0.11850900  0.50552200  0.30082200  1
  O  O4  1  0.80082200  0.00552200  0.61850900  1
  O  O5  1  0.58296400  0.23156900  0.43877000  1
  O  O6  1  0.06080000  0.26904600  0.91732900  1
  O  O7  1  0.23156900  0.43877000  0.58296400  1
  O  O8  1  0.38635400  0.20350000  0.98504300  1
  O  O9  1  0.43877000  0.58296400  0.23156900  1
  O  O10  1  0.73156900  0.08296400  0.93877000  1
  O  O11  1  0.98504300  0.38635400  0.20350000  1
  O  O12  1  0.00552200  0.61850900  0.80082200  1
  O  O13  1  0.26904600  0.91732900  0.06080000  1
  O  O14  1  0.56080000  0.41732900  0.76904600  1
  O  O15  1  0.61850900  0.80082200  0.00552200  1
  O  O16  1  0.76904600  0.56080000  0.41732900  1
  O  O17  1  0.93877000  0.73156900  0.08296400  1
  O  O18  1  0.41732900  0.76904600  0.56080000  1
  O  O19  1  0.20350000  0.98504300  0.38635400  1
  O  O20  1  0.88635400  0.48504300  0.70350000  1
  O  O21  1  0.08296400  0.93877000  0.73156900  1
  O  O22  1  0.48504300  0.70350000  0.88635400  1
  O  O23  1  0.70350000  0.88635400  0.48504300  1
loop_
_geom_bond_atom_site_label_1
_geom_bond_atom_site_label_2
_geom_bond_distance
_geom_bond_site_symmetry_2
Cd0 O17 2.329187 1_556
Cd0 O10 2.329187 1_565
Cd0 O21 2.329187 1_655
Cd0 O6 2.432075 1_665
Cd0 O13 2.432075 1_656
Cd0 O2 2.432075 1_566
Cd1 O7 2.329187 1_555
Cd1 O5 2.329187 1_555
Cd1 O9 2.329187 1_555
Cd1 O16 2.432075 1_555
Cd1 O18 2.432075 1_555
Cd1 O14 2.432075 1_555
Fe0 O0 1.951090 1_555
Fe0 O3 1.951090 1_555
Fe0 O1 1.951090 1_555
Fe0 O9 2.107575 1_555
Fe0 O5 2.107575 1_555
Fe0 O7 2.107575 1_555
Fe1 O15 1.951090 1_556
Fe1 O12 1.951090 1_655
Fe1 O4 1.951090 1_565
Fe1 O21 2.107575 1_655
Fe1 O10 2.107575 1_565
Fe1 O17 2.107575 1_556
O0 P5 1.524700 1_545
O1 P3 1.524700 1_554
O2 P0 1.576135 1_555
O2 Sn0 2.090689 1_655
O3 P4 1.524700 1_455
O4 P0 1.524700 1_555
O5 P0 1.546606 1_555
O6 P1 1.576135 1_555
O6 Sn0 2.090689 1_556
O7 P1 1.546606 1_555
O8 P3 1.542250 1_555
O8 Sn0 2.017173 1_556
O9 P2 1.546606 1_555
O10 P3 1.546606 1_555
O11 P4 1.542250 1_555
O11 Sn0 2.017173 1_655
O12 P1 1.524700 1_555
O13 P2 1.576135 1_555
O13 Sn0 2.090689 1_565
O14 P3 1.576135 1_555
O14 Sn1 2.090689 1_555
O15 P2 1.524700 1_555
O16 P4 1.576135 1_555
O16 Sn1 2.090689 1_555
O17 P4 1.546606 1_555
O18 P5 1.576135 1_555
O18 Sn1 2.090689 1_555
O19 P5 1.542250 1_555
O19 Sn0 2.017173 1_565
O20 P1 1.542250 1_655
O20 Sn1 2.017173 1_555
O21 P5 1.546606 1_555
O22 P2 1.542250 1_556
O22 Sn1 2.017173 1_555
O23 P0 1.542250 1_565
O23 Sn1 2.017173 1_555
