# generated using pymatgen
data_K3B12H12Br
_symmetry_space_group_name_H-M   'P 1'
_cell_length_a   8.73999337
_cell_length_b   8.73999337
_cell_length_c   8.42390099
_cell_angle_alpha   88.74848708
_cell_angle_beta   88.74848708
_cell_angle_gamma   120.82169217
_symmetry_Int_Tables_number   1
_chemical_formula_structural   K3B12H12Br
_chemical_formula_sum   'K3 B12 H12 Br1'
_cell_volume   552.05838525
_cell_formula_units_Z   1
loop_
 _symmetry_equiv_pos_site_id
 _symmetry_equiv_pos_as_xyz
  1  'x, y, z'
loop_
 _atom_site_type_symbol
 _atom_site_label
 _atom_site_symmetry_multiplicity
 _atom_site_fract_x
 _atom_site_fract_y
 _atom_site_fract_z
 _atom_site_occupancy
  K  K0  1  0.50000000  0.00000000  0.50000000  1
  K  K1  1  0.00000000  0.50000000  0.50000000  1
  K  K2  1  0.50000000  0.50000000  0.50000000  1
  B  B0  1  0.18003600  0.18003600  0.39087300  1
  B  B1  1  0.91478800  0.79395400  0.43615700  1
  B  B2  1  0.79395400  0.91478800  0.43615700  1
  B  B3  1  0.81996400  0.81996400  0.60912700  1
  B  B4  1  0.08521200  0.20604600  0.56384300  1
  B  B5  1  0.20604600  0.08521200  0.56384300  1
  B  B6  1  0.94111600  0.13746500  0.40264000  1
  B  B7  1  0.13746500  0.94111600  0.40264000  1
  B  B8  1  0.83797000  0.83797000  0.79557800  1
  B  B9  1  0.05888400  0.86253500  0.59736000  1
  B  B10  1  0.86253500  0.05888400  0.59736000  1
  B  B11  1  0.16203000  0.16203000  0.20442200  1
  H  H0  1  0.18632300  0.18632300  0.67716900  1
  H  H1  1  0.83333000  0.48950700  0.09099100  1
  H  H2  1  0.48950700  0.83333000  0.09099100  1
  H  H3  1  0.81367700  0.81367700  0.32283100  1
  H  H4  1  0.16667000  0.51049300  0.90900900  1
  H  H5  1  0.51049300  0.16667000  0.90900900  1
  H  H6  1  0.84662000  0.41112800  0.09168100  1
  H  H7  1  0.41112800  0.84662000  0.09168100  1
  H  H8  1  0.02082800  0.02082800  0.33462700  1
  H  H9  1  0.15338000  0.58887200  0.90831900  1
  H  H10  1  0.58887200  0.15338000  0.90831900  1
  H  H11  1  0.97917200  0.97917200  0.66537300  1
  Br  Br0  1  0.00000000  0.00000000  0.00000000  1
loop_
_geom_bond_atom_site_label_1
_geom_bond_atom_site_label_2
_geom_bond_distance
_geom_bond_site_symmetry_2
B0 H8 1.473231 1_555
B0 B11 1.585141 1_555
B0 K2 2.948989 1_555
B1 H3 1.381221 1_555
B1 K1 3.059789 1_655
B1 K2 3.215971 1_555
B2 H3 1.381221 1_555
B2 K0 3.059789 1_565
B2 K2 3.215971 1_555
B3 H11 1.473231 1_555
B3 B8 1.585141 1_555
B3 K2 2.948989 1_555
B4 H0 1.381221 1_555
B4 K1 3.059789 1_555
B4 K2 3.215971 1_555
B5 H0 1.381221 1_555
B5 K0 3.059789 1_555
B5 K2 3.215971 1_555
B6 H8 1.608931 1_655
B6 K1 3.072161 1_655
B7 H8 1.608931 1_565
B7 K0 3.072161 1_565
B8 H11 1.603162 1_555
B8 Br0 2.265897 1_666
B9 H11 1.608931 1_455
B9 K1 3.072161 1_555
B10 H11 1.608931 1_545
B10 K0 3.072161 1_555
B11 H8 1.603162 1_555
B11 Br0 2.265897 1_555
H0 K2 3.033159 1_555
H1 H6 0.751124 1_555
H2 H7 0.751124 1_555
H3 K2 3.033159 1_555
H4 H9 0.751124 1_555
H10 H5 0.751124 1_555
