# generated using pymatgen
data_VS2
_symmetry_space_group_name_H-M   'P 1'
_cell_length_a   4.59204200
_cell_length_b   4.77367665
_cell_length_c   48.29482444
_cell_angle_alpha   87.96302996
_cell_angle_beta   88.32364054
_cell_angle_gamma   88.69896746
_symmetry_Int_Tables_number   1
_chemical_formula_structural   VS2
_chemical_formula_sum   'V8 S16'
_cell_volume   1057.29662257
_cell_formula_units_Z   8
loop_
 _symmetry_equiv_pos_site_id
 _symmetry_equiv_pos_as_xyz
  1  'x, y, z'
loop_
 _atom_site_type_symbol
 _atom_site_label
 _atom_site_symmetry_multiplicity
 _atom_site_fract_x
 _atom_site_fract_y
 _atom_site_fract_z
 _atom_site_occupancy
  V  V0_0  1  0.25409900  0.24399950  0.24807400  1
  V  V0_1  1  0.25409900  0.24399950  0.74807400  1
  V  V0_2  1  0.25409900  0.74399950  0.24807400  1
  V  V0_3  1  0.25409900  0.74399950  0.74807400  1
  V  V0_4  1  0.75409900  0.24399950  0.24807400  1
  V  V0_5  1  0.75409900  0.24399950  0.74807400  1
  V  V0_6  1  0.75409900  0.74399950  0.24807400  1
  V  V0_7  1  0.75409900  0.74399950  0.74807400  1
  S  S0_0  1  0.46608650  0.22309800  0.09545800  1
  S  S0_1  1  0.46608650  0.22309800  0.59545800  1
  S  S0_2  1  0.46608650  0.72309800  0.09545800  1
  S  S0_3  1  0.46608650  0.72309800  0.59545800  1
  S  S0_4  1  0.96608650  0.22309800  0.09545800  1
  S  S0_5  1  0.96608650  0.22309800  0.59545800  1
  S  S0_6  1  0.96608650  0.72309800  0.09545800  1
  S  S0_7  1  0.96608650  0.72309800  0.59545800  1
  S  S1_0  1  0.03842450  0.29405950  0.40534500  1
  S  S1_1  1  0.03842450  0.29405950  0.90534500  1
  S  S1_2  1  0.03842450  0.79405950  0.40534500  1
  S  S1_3  1  0.03842450  0.79405950  0.90534500  1
  S  S1_4  1  0.53842450  0.29405950  0.40534500  1
  S  S1_5  1  0.53842450  0.29405950  0.90534500  1
  S  S1_6  1  0.53842450  0.79405950  0.40534500  1
  S  S1_7  1  0.53842450  0.79405950  0.90534500  1
loop_
_geom_bond_atom_site_label_1
_geom_bond_atom_site_label_2
_geom_bond_distance
_geom_bond_site_symmetry_2
V0_0 V0_4 2.296021 1_555
V0_0 V0_4 2.296021 1_455
V0_0 V0_2 2.386838 1_545
V0_0 V0_2 2.386838 1_555
V0_1 V0_5 2.296021 1_455
V0_1 V0_5 2.296021 1_555
V0_1 V0_3 2.386838 1_545
V0_1 V0_3 2.386838 1_555
V0_2 V0_6 2.296021 1_555
V0_2 V0_6 2.296021 1_455
V0_3 V0_7 2.296021 1_555
V0_3 V0_7 2.296021 1_455
V0_4 V0_6 2.386838 1_545
V0_4 V0_6 2.386838 1_555
V0_5 V0_7 2.386838 1_545
V0_5 V0_7 2.386838 1_555
S0_0 S0_4 2.296021 1_555
S0_0 S0_4 2.296021 1_455
S0_0 S0_2 2.386838 1_555
S0_0 S0_2 2.386838 1_545
S0_1 S0_5 2.296021 1_555
S0_1 S0_5 2.296021 1_455
S0_1 S0_3 2.386838 1_555
S0_1 S0_3 2.386838 1_545
S0_2 S0_6 2.296021 1_555
S0_2 S0_6 2.296021 1_455
S0_3 S0_7 2.296021 1_555
S0_3 S0_7 2.296021 1_455
S0_4 S0_6 2.386838 1_555
S0_4 S0_6 2.386838 1_545
S0_5 S0_7 2.386838 1_545
S0_5 S0_7 2.386838 1_555
S1_0 S1_4 2.296021 1_555
S1_0 S1_4 2.296021 1_455
S1_0 S1_2 2.386838 1_555
S1_0 S1_2 2.386838 1_545
S1_1 S1_5 2.296021 1_555
S1_1 S1_5 2.296021 1_455
S1_1 S1_3 2.386838 1_555
S1_1 S1_3 2.386838 1_545
S1_2 S1_6 2.296021 1_555
S1_2 S1_6 2.296021 1_455
S1_3 S1_7 2.296021 1_555
S1_3 S1_7 2.296021 1_455
S1_4 S1_6 2.386838 1_555
S1_4 S1_6 2.386838 1_545
S1_5 S1_7 2.386838 1_555
S1_5 S1_7 2.386838 1_545
