# generated using pymatgen
data_Th2Co7
_symmetry_space_group_name_H-M   'P 1'
_cell_length_a   4.96984386
_cell_length_b   4.96984386
_cell_length_c   24.89805000
_cell_angle_alpha   90.00000000
_cell_angle_beta   90.00000000
_cell_angle_gamma   119.99999819
_symmetry_Int_Tables_number   1
_chemical_formula_structural   Th2Co7
_chemical_formula_sum   'Th8 Co28'
_cell_volume   532.57584377
_cell_formula_units_Z   4
loop_
 _symmetry_equiv_pos_site_id
 _symmetry_equiv_pos_as_xyz
  1  'x, y, z'
loop_
 _atom_site_type_symbol
 _atom_site_label
 _atom_site_symmetry_multiplicity
 _atom_site_fract_x
 _atom_site_fract_y
 _atom_site_fract_z
 _atom_site_occupancy
  Th  Th0  1  0.33333300  0.66666700  0.17538200  1
  Th  Th1  1  0.33333300  0.66666700  0.32461800  1
  Th  Th2  1  0.33333300  0.66666700  0.46884200  1
  Th  Th3  1  0.33333300  0.66666700  0.03115800  1
  Th  Th4  1  0.66666700  0.33333300  0.96884200  1
  Th  Th5  1  0.66666700  0.33333300  0.67538200  1
  Th  Th6  1  0.66666700  0.33333300  0.53115800  1
  Th  Th7  1  0.66666700  0.33333300  0.82461800  1
  Co  Co0  1  0.00000000  0.00000000  0.66886900  1
  Co  Co1  1  0.16564100  0.33128200  0.91165100  1
  Co  Co2  1  0.16564100  0.83435900  0.91165100  1
  Co  Co3  1  0.83435900  0.16564100  0.41165100  1
  Co  Co4  1  0.83316000  0.16684000  0.25000000  1
  Co  Co5  1  0.66871800  0.83435900  0.91165100  1
  Co  Co6  1  0.33128200  0.16564100  0.41165100  1
  Co  Co7  1  0.83435900  0.66871800  0.41165100  1
  Co  Co8  1  0.33128200  0.16564100  0.08834900  1
  Co  Co9  1  0.83435900  0.66871800  0.08834900  1
  Co  Co10  1  0.83435900  0.16564100  0.08834900  1
  Co  Co11  1  0.33333300  0.66666700  0.66806100  1
  Co  Co12  1  0.33333300  0.66666700  0.83193900  1
  Co  Co13  1  0.33367900  0.16684000  0.25000000  1
  Co  Co14  1  0.00000000  0.00000000  0.33113100  1
  Co  Co15  1  0.16684000  0.33367900  0.75000000  1
  Co  Co16  1  0.83316000  0.66632100  0.25000000  1
  Co  Co17  1  0.00000000  0.00000000  0.00000000  1
  Co  Co18  1  0.66871800  0.83435900  0.58834900  1
  Co  Co19  1  0.00000000  0.00000000  0.16886900  1
  Co  Co20  1  0.66632100  0.83316000  0.75000000  1
  Co  Co21  1  0.00000000  0.00000000  0.83113100  1
  Co  Co22  1  0.16564100  0.83435900  0.58834900  1
  Co  Co23  1  0.16684000  0.83316000  0.75000000  1
  Co  Co24  1  0.66666700  0.33333300  0.33193900  1
  Co  Co25  1  0.16564100  0.33128200  0.58834900  1
  Co  Co26  1  0.00000000  0.00000000  0.50000000  1
  Co  Co27  1  0.66666700  0.33333300  0.16806100  1
loop_
_geom_bond_atom_site_label_1
_geom_bond_atom_site_label_2
_geom_bond_distance
_geom_bond_site_symmetry_2
Co0 Co22 2.460124 1_545
Co0 Co18 2.460124 1_445
Co0 Co25 2.460124 1_555
Co0 Co20 2.478501 1_445
Co0 Co15 2.478501 1_555
Co0 Co23 2.478503 1_545
Co0 Co11 2.869408 1_545
Co0 Co11 2.869413 1_555
Co0 Co11 2.869413 1_445
Co0 Th5 2.873916 1_455
Co0 Th5 2.873921 1_445
Co0 Th5 2.873921 1_555
Co1 Co12 2.454103 1_555
Co1 Co21 2.460124 1_555
Co1 Co2 2.469630 1_545
Co1 Co5 2.469630 1_445
Co1 Co2 2.500214 1_555
Co1 Co5 2.500214 1_555
Co1 Co17 2.621408 1_556
Co1 Th4 2.864004 1_455
Co1 Th4 2.864009 1_555
Co1 Th7 3.297057 1_455
Co1 Th7 3.297061 1_555
Co1 Th3 3.307150 1_556
Co2 Co21 2.460124 1_565
Co2 Co5 2.469630 1_455
Co2 Co5 2.500214 1_555
Co2 Th4 2.864006 1_455
Co2 Th4 2.864006 1_565
Co2 Th7 3.297059 1_565
Co2 Th7 3.297059 1_455
Co2 Th3 3.307148 1_556
Co3 Co7 2.469630 1_545
Co3 Co6 2.469630 1_655
Co3 Co6 2.500214 1_555
Co3 Co7 2.500214 1_555
Co3 Th2 2.864006 1_655
Co3 Th2 2.864006 1_545
Co3 Th1 3.297059 1_545
Co3 Th1 3.297059 1_655
Co3 Th6 3.307148 1_555
Co4 Th0 3.102647 1_545
Co4 Th0 3.102647 1_655
Co4 Th1 3.102647 1_655
Co4 Th1 3.102647 1_545
Co5 Th4 2.864004 1_565
Co5 Th4 2.864009 1_555
Co5 Th7 3.297057 1_565
Co5 Th7 3.297061 1_555
Co5 Th3 3.307150 1_556
Co6 Co7 2.469630 1_445
Co6 Co7 2.500214 1_555
Co6 Th2 2.864004 1_545
Co6 Th2 2.864009 1_555
Co6 Th1 3.297057 1_545
Co6 Th1 3.297061 1_555
Co6 Th6 3.307150 1_555
Co7 Th2 2.864004 1_655
Co7 Th2 2.864009 1_555
Co7 Th1 3.297057 1_655
Co7 Th1 3.297061 1_555
Co7 Th6 3.307150 1_555
Co8 Co9 2.469630 1_445
Co8 Co9 2.500214 1_555
Co8 Th3 2.864004 1_545
Co8 Th3 2.864009 1_555
Co8 Th0 3.297057 1_545
Co8 Th0 3.297061 1_555
Co8 Th4 3.307150 1_554
Co9 Th3 2.864004 1_655
Co9 Th3 2.864009 1_555
Co9 Th0 3.297057 1_655
Co9 Th0 3.297061 1_555
Co9 Th4 3.307150 1_554
Co10 Co27 2.454101 1_555
Co10 Co19 2.460124 1_655
Co10 Co9 2.469630 1_545
Co10 Co8 2.469630 1_655
Co10 Co9 2.500214 1_555
Co10 Co8 2.500214 1_555
Co10 Co17 2.621408 1_655
Co10 Th3 2.864006 1_655
Co10 Th3 2.864006 1_545
Co10 Th0 3.297059 1_545
Co10 Th0 3.297059 1_655
Co10 Th4 3.307148 1_554
Co11 Co22 2.454101 1_555
Co11 Co18 2.454103 1_555
Co11 Co25 2.454103 1_555
Co11 Co23 2.493208 1_555
Co11 Co20 2.493213 1_555
Co11 Co15 2.493213 1_555
Co11 Th5 2.875122 1_455
Co11 Th5 2.875122 1_565
Co11 Th5 2.875130 1_555
Co12 Co2 2.454101 1_555
Co12 Co5 2.454103 1_555
Co12 Co23 2.493208 1_555
Co12 Co20 2.493213 1_555
Co12 Co15 2.493213 1_555
Co12 Co21 2.869408 1_565
Co12 Co21 2.869413 1_665
Co12 Co21 2.869413 1_555
Co12 Th7 2.875122 1_455
Co12 Th7 2.875122 1_565
Co12 Th7 2.875130 1_555
Co13 Co14 2.478501 1_555
Co13 Co19 2.478501 1_555
Co13 Co4 2.482343 1_555
Co13 Co16 2.482343 1_555
Co13 Co4 2.487501 1_455
Co13 Co16 2.487501 1_445
Co13 Co27 2.493213 1_555
Co13 Co24 2.493213 1_555
Co13 Th0 3.102647 1_555
Co13 Th1 3.102647 1_555
Co13 Th0 3.102647 1_545
Co13 Th1 3.102647 1_545
Co14 Co3 2.460124 1_455
Co14 Co6 2.460124 1_555
Co14 Co7 2.460124 1_445
Co14 Co16 2.478501 1_445
Co14 Co4 2.478503 1_455
Co14 Co24 2.869408 1_455
Co14 Co24 2.869413 1_445
Co14 Co24 2.869413 1_555
Co14 Th1 2.873916 1_545
Co14 Th1 2.873921 1_445
Co14 Th1 2.873921 1_555
Co15 Co21 2.478501 1_555
Co15 Co23 2.482343 1_555
Co15 Co20 2.482343 1_555
Co15 Co23 2.487501 1_545
Co15 Co20 2.487501 1_445
Co15 Th7 3.102647 1_555
Co15 Th5 3.102647 1_555
Co15 Th7 3.102647 1_455
Co15 Th5 3.102647 1_455
Co16 Co19 2.478501 1_665
Co16 Co4 2.482343 1_555
Co16 Co4 2.487501 1_565
Co16 Co24 2.493213 1_555
Co16 Co27 2.493213 1_555
Co16 Th0 3.102647 1_555
Co16 Th1 3.102647 1_555
Co16 Th0 3.102647 1_655
Co16 Th1 3.102647 1_655
Co17 Co2 2.621408 1_544
Co17 Co9 2.621408 1_445
Co17 Co8 2.621408 1_555
Co17 Co5 2.621408 1_444
Co17 Th3 2.972360 1_545
Co17 Th4 2.972360 1_454
Co17 Th4 2.972364 1_444
Co17 Th3 2.972364 1_555
Co17 Th3 2.972364 1_445
Co17 Th4 2.972364 1_554
Co18 Co22 2.469630 1_655
Co18 Co25 2.469630 1_665
Co18 Co22 2.500214 1_555
Co18 Co25 2.500214 1_555
Co18 Co26 2.621408 1_665
Co18 Th6 2.864004 1_565
Co18 Th6 2.864009 1_555
Co18 Th5 3.297057 1_565
Co18 Th5 3.297061 1_555
Co18 Th2 3.307150 1_555
Co19 Co8 2.460124 1_555
Co19 Co9 2.460124 1_445
Co19 Co4 2.478503 1_455
Co19 Co27 2.869408 1_455
Co19 Co27 2.869413 1_555
Co19 Co27 2.869413 1_445
Co19 Th0 2.873916 1_545
Co19 Th0 2.873921 1_555
Co19 Th0 2.873921 1_445
Co20 Co21 2.478501 1_665
Co20 Co23 2.482343 1_555
Co20 Co23 2.487501 1_655
Co20 Th7 3.102647 1_555
Co20 Th5 3.102647 1_555
Co20 Th7 3.102647 1_565
Co20 Th5 3.102647 1_565
Co21 Co5 2.460124 1_445
Co21 Co23 2.478503 1_545
Co21 Th7 2.873916 1_455
Co21 Th7 2.873921 1_445
Co21 Th7 2.873921 1_555
Co22 Co25 2.469630 1_565
Co22 Co25 2.500214 1_555
Co22 Co26 2.621408 1_565
Co22 Th6 2.864006 1_455
Co22 Th6 2.864006 1_565
Co22 Th5 3.297059 1_455
Co22 Th5 3.297059 1_565
Co22 Th2 3.307148 1_555
Co23 Th7 3.102647 1_455
Co23 Th5 3.102647 1_455
Co23 Th7 3.102647 1_565
Co23 Th5 3.102647 1_565
Co24 Co3 2.454101 1_555
Co24 Co6 2.454103 1_555
Co24 Co7 2.454103 1_555
Co24 Co4 2.493208 1_555
Co24 Th1 2.875122 1_545
Co24 Th1 2.875122 1_655
Co24 Th1 2.875130 1_555
Co25 Co26 2.621408 1_555
Co25 Th6 2.864004 1_455
Co25 Th6 2.864009 1_555
Co25 Th5 3.297057 1_455
Co25 Th5 3.297061 1_555
Co25 Th2 3.307150 1_555
Co26 Co3 2.621408 1_455
Co26 Co6 2.621408 1_555
Co26 Co7 2.621408 1_445
Co26 Th2 2.972360 1_545
Co26 Th6 2.972360 1_455
Co26 Th6 2.972364 1_445
Co26 Th2 2.972364 1_555
Co26 Th2 2.972364 1_445
Co26 Th6 2.972364 1_555
Co27 Co9 2.454103 1_555
Co27 Co8 2.454103 1_555
Co27 Co4 2.493208 1_555
Co27 Th0 2.875122 1_545
Co27 Th0 2.875122 1_655
Co27 Th0 2.875130 1_555
