# generated using pymatgen
data_Li7Mn16O32
_symmetry_space_group_name_H-M   'P 1'
_cell_length_a   8.38996300
_cell_length_b   8.54672455
_cell_length_c   10.17477913
_cell_angle_alpha   114.51148657
_cell_angle_beta   114.14495276
_cell_angle_gamma   90.05913449
_symmetry_Int_Tables_number   1
_chemical_formula_structural   Li7Mn16O32
_chemical_formula_sum   'Li7 Mn16 O32'
_cell_volume   592.82301774
_cell_formula_units_Z   1
loop_
 _symmetry_equiv_pos_site_id
 _symmetry_equiv_pos_as_xyz
  1  'x, y, z'
loop_
 _atom_site_type_symbol
 _atom_site_label
 _atom_site_symmetry_multiplicity
 _atom_site_fract_x
 _atom_site_fract_y
 _atom_site_fract_z
 _atom_site_occupancy
  Li  Li0  1  0.18285900  0.18336300  0.12906800  1
  Li  Li1  1  0.06974200  0.57026900  0.37606200  1
  Li  Li2  1  0.43143300  0.93589700  0.62391000  1
  Li  Li3  1  0.31287500  0.31368600  0.87269600  1
  Li  Li4  1  0.68569700  0.68422600  0.12892900  1
  Li  Li5  1  0.93568100  0.43067400  0.62230400  1
  Li  Li6  1  0.81647200  0.81706500  0.87379800  1
  Mn  Mn0  1  0.13167200  0.88057900  0.75494200  1
  Mn  Mn1  1  0.74892100  0.75105600  0.50010800  1
  Mn  Mn2  1  0.36830500  0.62480300  0.25207600  1
  Mn  Mn3  1  0.62627700  0.37784000  0.25066700  1
  Mn  Mn4  1  0.75111900  0.24754300  0.99609800  1
  Mn  Mn5  1  0.99719500  0.49760600  0.99428100  1
  Mn  Mn6  1  0.62166700  0.36853100  0.74288700  1
  Mn  Mn7  1  0.87346700  0.12172700  0.74369600  1
  Mn  Mn8  1  0.00342200  0.99304600  0.49900900  1
  Mn  Mn9  1  0.87715400  0.12666100  0.25004900  1
  Mn  Mn10  1  0.25259100  0.24579900  0.50109900  1
  Mn  Mn11  1  0.12389900  0.87093100  0.25021200  1
  Mn  Mn12  1  0.25480300  0.75431400  0.00588500  1
  Mn  Mn13  1  0.50305800  0.00688200  0.00343600  1
  Mn  Mn14  1  0.37804500  0.62771500  0.75608100  1
  Mn  Mn15  1  0.49060000  0.50589100  0.50092400  1
  O  O0  1  0.37346500  0.88997000  0.77454100  1
  O  O1  1  0.48365000  0.72400200  0.48400800  1
  O  O2  1  0.72223200  0.51494000  0.49154200  1
  O  O3  1  0.37148900  0.40588300  0.26749700  1
  O  O4  1  0.60227800  0.61303100  0.25825500  1
  O  O5  1  0.52121100  0.23928600  0.00866800  1
  O  O6  1  0.86746800  0.36385800  0.22167500  1
  O  O7  1  0.73722900  0.02293200  0.00550900  1
  O  O8  1  0.75051100  0.46835200  0.97974700  1
  O  O9  1  0.64292800  0.14268900  0.75360500  1
  O  O10  1  0.97023700  0.23627600  0.97684400  1
  O  O11  1  0.86425900  0.36090800  0.75829700  1
  O  O12  1  0.88578700  0.89232200  0.74037000  1
  O  O13  1  0.77703600  0.98526400  0.51068700  1
  O  O14  1  0.09646600  0.12342400  0.73404100  1
  O  O15  1  0.01494600  0.77974100  0.52083500  1
  O  O16  1  0.00786700  0.21867700  0.48784000  1
  O  O17  1  0.90175400  0.87496400  0.26415200  1
  O  O18  1  0.22379900  0.98509400  0.48125400  1
  O  O19  1  0.11806800  0.10525100  0.26262500  1
  O  O20  1  0.12595900  0.63221200  0.22975500  1
  O  O21  1  0.35174200  0.84817300  0.24001600  1
  O  O22  1  0.02939300  0.76071900  0.01529100  1
  O  O23  1  0.24755400  0.52779600  0.01472800  1
  O  O24  1  0.26581700  0.98073900  0.99666100  1
  O  O25  1  0.15229200  0.63604900  0.77442300  1
  O  O26  1  0.48581200  0.76938600  0.99571900  1
  O  O27  1  0.39230500  0.36327500  0.73626800  1
  O  O28  1  0.27366900  0.51039400  0.52206300  1
  O  O29  1  0.61019500  0.59898800  0.74023900  1
  O  O30  1  0.49268400  0.28313800  0.51242800  1
  O  O31  1  0.64044500  0.14366100  0.23719900  1
loop_
_geom_bond_atom_site_label_1
_geom_bond_atom_site_label_2
_geom_bond_distance
_geom_bond_site_symmetry_2
Li0 O19 1.985992 1_555
Li0 O3 2.013187 1_555
Li0 O10 2.026867 1_454
Li0 O24 2.032777 1_544
Li1 O20 1.986608 1_555
Li1 O28 1.987274 1_555
Li1 O15 1.988436 1_555
Li1 O6 1.993317 1_455
Li2 O18 1.938469 1_555
Li2 O0 1.961677 1_555
Li2 O1 1.967419 1_555
Li2 O9 2.038719 1_565
Li3 O27 1.948074 1_555
Li3 O14 1.981419 1_555
Li3 O5 2.031634 1_556
Li3 O23 2.047722 1_556
Li4 O17 1.982147 1_555
Li4 O4 2.002123 1_555
Li4 O26 2.034887 1_554
Li4 O8 2.087432 1_554
Li5 O11 1.997852 1_555
Li5 O16 2.035872 1_655
Li5 O25 2.053630 1_655
Li5 O2 2.084327 1_555
Li6 O12 1.991145 1_555
Li6 O22 1.992191 1_656
Li6 O7 2.026964 1_566
Li6 O29 2.069655 1_555
Mn0 O15 1.939634 1_555
Mn0 O0 1.953714 1_555
Mn0 O24 2.008704 1_555
Mn0 O12 2.012568 1_455
Mn0 O25 2.180241 1_555
Mn0 O14 2.180920 1_565
Mn1 O13 1.968133 1_555
Mn1 O2 1.991807 1_555
Mn1 O12 2.001009 1_555
Mn1 O4 2.017996 1_555
Mn1 O15 2.158015 1_655
Mn1 O1 2.168617 1_555
Mn2 O1 1.922013 1_555
Mn2 O3 1.940729 1_555
Mn2 O4 1.942224 1_555
Mn2 O20 1.955559 1_555
Mn2 O21 1.964672 1_555
Mn2 O23 1.970072 1_555
Mn3 O31 1.955762 1_555
Mn3 O4 1.992947 1_555
Mn3 O2 2.007190 1_555
Mn3 O5 2.011211 1_555
Mn3 O6 2.157726 1_555
Mn3 O3 2.218747 1_555
Mn4 O6 1.865723 1_556
Mn4 O10 1.925275 1_555
Mn4 O8 1.961898 1_555
Mn4 O7 1.967014 1_556
Mn4 O5 1.987738 1_556
Mn4 O9 2.011496 1_555
Mn5 O20 1.955450 1_656
Mn5 O11 1.962893 1_555
Mn5 O8 2.021331 1_555
Mn5 O23 2.029484 1_656
Mn5 O10 2.169920 1_555
Mn5 O22 2.174441 1_656
Mn6 O27 1.897609 1_555
Mn6 O30 1.924727 1_555
Mn6 O8 1.966029 1_555
Mn6 O11 1.979673 1_555
Mn6 O9 1.982139 1_555
Mn6 O29 1.982883 1_555
Mn7 O14 1.913588 1_655
Mn7 O10 1.934108 1_555
Mn7 O13 1.941679 1_545
Mn7 O12 1.950448 1_545
Mn7 O9 1.982097 1_555
Mn7 O11 1.991124 1_555
Mn8 O15 1.923782 1_555
Mn8 O18 1.928528 1_555
Mn8 O17 1.945767 1_455
Mn8 O13 1.953734 1_455
Mn8 O14 1.956976 1_565
Mn8 O16 1.979447 1_565
Mn9 O31 1.945830 1_555
Mn9 O16 1.980837 1_655
Mn9 O19 1.985938 1_655
Mn9 O7 2.032955 1_555
Mn9 O6 2.160208 1_555
Mn9 O17 2.218920 1_545
Mn10 O27 1.953744 1_555
Mn10 O19 1.985608 1_555
Mn10 O30 1.987715 1_555
Mn10 O16 2.008514 1_555
Mn10 O18 2.156283 1_545
Mn10 O28 2.181482 1_555
Mn11 O18 1.914151 1_555
Mn11 O17 1.925449 1_455
Mn11 O22 1.951697 1_555
Mn11 O19 1.955610 1_565
Mn11 O21 1.961900 1_555
Mn11 O20 1.963912 1_555
Mn12 O25 1.916694 1_554
Mn12 O22 1.932009 1_555
Mn12 O21 1.951398 1_555
Mn12 O23 1.977020 1_555
Mn12 O24 1.979834 1_554
Mn12 O26 1.989546 1_554
Mn13 O0 1.897332 1_544
Mn13 O31 1.949271 1_555
Mn13 O7 1.960203 1_555
Mn13 O5 1.968856 1_555
Mn13 O24 1.972458 1_544
Mn13 O26 2.001274 1_544
Mn14 O28 1.937301 1_555
Mn14 O25 1.976308 1_555
Mn14 O26 1.993298 1_555
Mn14 O29 2.026057 1_555
Mn14 O0 2.171977 1_555
Mn14 O27 2.192082 1_555
Mn15 O28 1.916723 1_555
Mn15 O3 1.934490 1_555
Mn15 O1 1.940686 1_555
Mn15 O30 1.954940 1_555
Mn15 O2 1.987315 1_555
Mn15 O29 1.990217 1_555
