# generated using pymatgen
data_CsAg2(B5O8)3
_symmetry_space_group_name_H-M   'P 1'
_cell_length_a   5.19239800
_cell_length_b   17.99186000
_cell_length_c   22.42853700
_cell_angle_alpha   90.00000000
_cell_angle_beta   90.00000000
_cell_angle_gamma   90.00000000
_symmetry_Int_Tables_number   1
_chemical_formula_structural   CsAg2(B5O8)3
_chemical_formula_sum   'Cs4 Ag8 B60 O96'
_cell_volume   2095.29406468
_cell_formula_units_Z   4
loop_
 _symmetry_equiv_pos_site_id
 _symmetry_equiv_pos_as_xyz
  1  'x, y, z'
loop_
 _atom_site_type_symbol
 _atom_site_label
 _atom_site_symmetry_multiplicity
 _atom_site_fract_x
 _atom_site_fract_y
 _atom_site_fract_z
 _atom_site_occupancy
  Cs  Cs0  1  0.53196000  0.67394300  0.91950100  1
  Cs  Cs1  1  0.46804000  0.17394300  0.58049900  1
  Cs  Cs2  1  0.46804000  0.82605700  0.41950100  1
  Cs  Cs3  1  0.53196000  0.32605700  0.08049900  1
  Ag  Ag0  1  0.95245200  0.66841500  0.18329700  1
  Ag  Ag1  1  0.55528000  0.95195400  0.11954700  1
  Ag  Ag2  1  0.04754800  0.16841500  0.31670300  1
  Ag  Ag3  1  0.44472000  0.45195400  0.38045300  1
  Ag  Ag4  1  0.44472000  0.54804600  0.61954700  1
  Ag  Ag5  1  0.95245200  0.33158500  0.81670300  1
  Ag  Ag6  1  0.04754800  0.83158500  0.68329700  1
  Ag  Ag7  1  0.55528000  0.04804600  0.88045300  1
  B  B0  1  0.26654600  0.71118200  0.57949200  1
  B  B1  1  0.42142200  0.47411600  0.80423200  1
  B  B2  1  0.80794900  0.50000000  0.00000000  1
  B  B3  1  0.13541400  0.43306500  0.23387200  1
  B  B4  1  0.86458600  0.06693500  0.73387200  1
  B  B5  1  0.73428600  0.46059600  0.89706400  1
  B  B6  1  0.13541400  0.56693500  0.76612800  1
  B  B7  1  0.14340700  0.55610700  0.28292900  1
  B  B8  1  0.82656300  0.67394200  0.75069400  1
  B  B9  1  0.51594800  0.73868900  0.27103600  1
  B  B10  1  0.73345400  0.78881800  0.07949200  1
  B  B11  1  0.79046800  0.88236400  0.88284200  1
  B  B12  1  0.43812700  0.10297800  0.03834700  1
  B  B13  1  0.39372900  0.69803000  0.08003300  1
  B  B14  1  0.79046800  0.11763600  0.11715800  1
  B  B15  1  0.42142200  0.52588400  0.19576800  1
  B  B16  1  0.17343700  0.82605800  0.25069400  1
  B  B17  1  0.85479700  0.65754500  0.32256300  1
  B  B18  1  0.85659300  0.05610700  0.21707100  1
  B  B19  1  0.26654600  0.28881800  0.42050800  1
  B  B20  1  0.14520300  0.84245500  0.82256300  1
  B  B21  1  0.19205100  0.00000000  0.50000000  1
  B  B22  1  0.82656300  0.32605800  0.24930600  1
  B  B23  1  0.85659300  0.94389300  0.78292900  1
  B  B24  1  0.48405200  0.23868900  0.22896400  1
  B  B25  1  0.08584300  0.12888700  0.97198800  1
  B  B26  1  0.55802100  0.71662000  0.66725700  1
  B  B27  1  0.56187300  0.39702200  0.53834700  1
  B  B28  1  0.14340700  0.44389300  0.71707100  1
  B  B29  1  0.08584300  0.87111300  0.02801200  1
  B  B30  1  0.20953200  0.61763600  0.38284200  1
  B  B31  1  0.91415700  0.37111300  0.47198800  1
  B  B32  1  0.56187300  0.60297800  0.46165300  1
  B  B33  1  0.92797700  0.90261100  0.54576400  1
  B  B34  1  0.92797700  0.09738900  0.45423600  1
  B  B35  1  0.60627100  0.80197000  0.58003300  1
  B  B36  1  0.39372900  0.30197000  0.91996700  1
  B  B37  1  0.91415700  0.62888700  0.52801200  1
  B  B38  1  0.14520300  0.15754500  0.17743700  1
  B  B39  1  0.43812700  0.89702200  0.96165300  1
  B  B40  1  0.86458600  0.93306500  0.26612800  1
  B  B41  1  0.26571400  0.96059600  0.60293600  1
  B  B42  1  0.07202300  0.40261100  0.95423600  1
  B  B43  1  0.57857800  0.97411600  0.69576800  1
  B  B44  1  0.44197900  0.21662000  0.83274300  1
  B  B45  1  0.16925000  0.00000000  0.00000000  1
  B  B46  1  0.73428600  0.53940400  0.10293600  1
  B  B47  1  0.17343700  0.17394200  0.74930600  1
  B  B48  1  0.48405200  0.76131100  0.77103600  1
  B  B49  1  0.57857800  0.02588400  0.30423200  1
  B  B50  1  0.60627100  0.19803000  0.41996700  1
  B  B51  1  0.73345400  0.21118200  0.92050800  1
  B  B52  1  0.83075000  0.50000000  0.50000000  1
  B  B53  1  0.26571400  0.03940400  0.39706400  1
  B  B54  1  0.44197900  0.78338000  0.16725700  1
  B  B55  1  0.85479700  0.34245500  0.67743700  1
  B  B56  1  0.07202300  0.59738900  0.04576400  1
  B  B57  1  0.20953200  0.38236400  0.61715800  1
  B  B58  1  0.51594800  0.26131100  0.72896400  1
  B  B59  1  0.55802100  0.28338000  0.33274300  1
  O  O0  1  0.36564800  0.22108700  0.44017900  1
  O  O1  1  0.67517300  0.07620100  0.26495200  1
  O  O2  1  0.33791900  0.45215900  0.19525900  1
  O  O3  1  0.92195600  0.60852800  0.27915700  1
  O  O4  1  0.60013200  0.25586500  0.78640600  1
  O  O5  1  0.62067800  0.82479200  0.12719100  1
  O  O6  1  0.66208100  0.04784100  0.69525900  1
  O  O7  1  0.29819200  0.72567800  0.13208400  1
  O  O8  1  0.65393400  0.46737400  0.54697000  1
  O  O9  1  0.72432700  0.06453800  0.15784400  1
  O  O10  1  0.34994600  0.79390700  0.81698600  1
  O  O11  1  0.65005400  0.70609300  0.31698600  1
  O  O12  1  0.26974900  0.35123000  0.95723200  1
  O  O13  1  0.07804400  0.89147200  0.77915700  1
  O  O14  1  0.64425500  0.86611100  0.93215200  1
  O  O15  1  0.66208100  0.95215900  0.30474100  1
  O  O16  1  0.32482700  0.57620100  0.23504800  1
  O  O17  1  0.34606600  0.96737400  0.95303000  1
  O  O18  1  0.70180800  0.77432200  0.63208400  1
  O  O19  1  0.02395000  0.63502700  0.77735200  1
  O  O20  1  0.97605000  0.86497300  0.27735200  1
  O  O21  1  0.73025100  0.14877000  0.45723200  1
  O  O22  1  0.67517300  0.92379900  0.73504800  1
  O  O23  1  0.35463700  0.00257900  0.44542500  1
  O  O24  1  0.67786400  0.64963200  0.50302900  1
  O  O25  1  0.05559700  0.68651800  0.54985300  1
  O  O26  1  0.70180800  0.22567800  0.36791600  1
  O  O27  1  0.02502400  0.93265300  0.49533700  1
  O  O28  1  0.98955200  0.33884600  0.62400000  1
  O  O29  1  0.05113100  0.52037200  0.72289700  1
  O  O30  1  0.64425500  0.13388900  0.06784800  1
  O  O31  1  0.28785700  0.77336700  0.28831700  1
  O  O32  1  0.02395000  0.36497300  0.22264800  1
  O  O33  1  0.73025100  0.85123000  0.54276800  1
  O  O34  1  0.65005400  0.29390700  0.68301400  1
  O  O35  1  0.97605000  0.13502700  0.72264800  1
  O  O36  1  0.94440300  0.81348200  0.04985300  1
  O  O37  1  0.27567300  0.43546200  0.65784400  1
  O  O38  1  0.27567300  0.56453800  0.34215600  1
  O  O39  1  0.67786400  0.35036800  0.49697100  1
  O  O40  1  0.97497600  0.43265300  0.00466300  1
  O  O41  1  0.37932200  0.67520800  0.62719100  1
  O  O42  1  0.00721100  0.05690800  0.97221900  1
  O  O43  1  0.99278900  0.44309200  0.47221900  1
  O  O44  1  0.36564800  0.77891300  0.55982100  1
  O  O45  1  0.60728900  0.54877200  0.15602700  1
  O  O46  1  0.35463700  0.99742100  0.55457500  1
  O  O47  1  0.26974900  0.64877000  0.04276800  1
  O  O48  1  0.94886900  0.97962800  0.22289700  1
  O  O49  1  0.71214300  0.27336700  0.21168300  1
  O  O50  1  0.37932200  0.32479200  0.37280900  1
  O  O51  1  0.02810500  0.92240700  0.60134700  1
  O  O52  1  0.97497600  0.56734700  0.99533700  1
  O  O53  1  0.01044800  0.16115400  0.12400000  1
  O  O54  1  0.32213600  0.85036800  0.00302900  1
  O  O55  1  0.94440300  0.18651800  0.95014700  1
  O  O56  1  0.63435200  0.72108700  0.05982100  1
  O  O57  1  0.60013200  0.74413500  0.21359400  1
  O  O58  1  0.34994600  0.20609300  0.18301400  1
  O  O59  1  0.35574500  0.36611100  0.56784800  1
  O  O60  1  0.65393400  0.53262600  0.45303000  1
  O  O61  1  0.74034100  0.66480800  0.69385300  1
  O  O62  1  0.02810500  0.07759300  0.39865300  1
  O  O63  1  0.97189600  0.57759300  0.10134700  1
  O  O64  1  0.00721100  0.94309200  0.02778100  1
  O  O65  1  0.25965900  0.16480800  0.80614700  1
  O  O66  1  0.92195600  0.39147200  0.72084300  1
  O  O67  1  0.99278900  0.55690800  0.52778100  1
  O  O68  1  0.72432700  0.93546200  0.84215600  1
  O  O69  1  0.39986800  0.24413500  0.28640600  1
  O  O70  1  0.35574500  0.63388900  0.43215200  1
  O  O71  1  0.64536300  0.50257900  0.05457500  1
  O  O72  1  0.01044800  0.83884600  0.87600000  1
  O  O73  1  0.29819200  0.27432200  0.86791600  1
  O  O74  1  0.32482700  0.42379900  0.76495200  1
  O  O75  1  0.05559700  0.31348200  0.45014700  1
  O  O76  1  0.28785700  0.22663300  0.71168300  1
  O  O77  1  0.60728900  0.45122800  0.84397300  1
  O  O78  1  0.94886900  0.02037200  0.77710300  1
  O  O79  1  0.98955200  0.66115400  0.37600000  1
  O  O80  1  0.05113100  0.47962800  0.27710300  1
  O  O81  1  0.62067800  0.17520800  0.87280900  1
  O  O82  1  0.25965900  0.83519200  0.19385300  1
  O  O83  1  0.64536300  0.49742100  0.94542500  1
  O  O84  1  0.33791900  0.54784100  0.80474100  1
  O  O85  1  0.39986800  0.75586500  0.71359400  1
  O  O86  1  0.63435200  0.27891300  0.94017900  1
  O  O87  1  0.07804400  0.10852800  0.22084300  1
  O  O88  1  0.32213600  0.14963200  0.99697100  1
  O  O89  1  0.71214300  0.72663300  0.78831700  1
  O  O90  1  0.97189600  0.42240700  0.89865300  1
  O  O91  1  0.74034100  0.33519200  0.30614700  1
  O  O92  1  0.39271100  0.95122800  0.65602700  1
  O  O93  1  0.34606600  0.03262600  0.04697000  1
  O  O94  1  0.02502400  0.06734700  0.50466300  1
  O  O95  1  0.39271100  0.04877200  0.34397300  1
loop_
_geom_bond_atom_site_label_1
_geom_bond_atom_site_label_2
_geom_bond_distance
_geom_bond_site_symmetry_2
Cs0 O47 3.114864 1_556
Cs0 O89 3.229694 1_555
Cs0 O83 3.281998 1_555
Cs0 O10 3.292170 1_555
Cs0 O56 3.302546 1_556
Cs0 O52 3.444222 1_555
Cs0 O14 3.517744 1_555
Cs0 O84 3.575973 1_555
Cs1 O21 3.114864 1_555
Cs1 O76 3.229694 1_555
Cs1 O46 3.281998 1_545
Cs1 O34 3.292170 1_555
Cs1 O0 3.302546 1_555
Cs1 O94 3.444222 1_555
Cs1 O59 3.517744 1_555
Cs1 O6 3.575973 1_555
Cs2 O33 3.114864 1_555
Cs2 O31 3.229694 1_555
Cs2 O23 3.281998 1_565
Cs2 O11 3.292170 1_555
Cs2 O44 3.302546 1_555
Cs2 O27 3.444222 1_555
Cs2 O70 3.517744 1_555
Cs2 O15 3.575973 1_555
Cs3 O12 3.114864 1_554
Cs3 O49 3.229694 1_555
Cs3 O71 3.281998 1_555
Cs3 O58 3.292170 1_555
Cs3 O86 3.302546 1_554
Cs3 O40 3.444222 1_555
Cs3 O30 3.517744 1_555
Cs3 O2 3.575973 1_555
Ag0 O7 2.367197 1_655
Ag0 O57 2.379995 1_555
Ag0 O3 2.410090 1_555
Ag0 O63 2.461432 1_555
Ag1 O5 2.319289 1_555
Ag1 O9 2.368815 1_565
Ag1 O93 2.436492 1_565
Ag2 O26 2.367197 1_455
Ag2 O69 2.379995 1_555
Ag2 O87 2.410090 1_555
Ag2 O62 2.461432 1_555
Ag3 O50 2.319289 1_555
Ag3 O38 2.368815 1_555
Ag3 O60 2.436492 1_555
Ag4 O41 2.319289 1_555
Ag4 O37 2.368815 1_555
Ag4 O8 2.436492 1_555
Ag5 O73 2.367197 1_655
Ag5 O4 2.379995 1_555
Ag5 O66 2.410090 1_555
Ag5 O90 2.461432 1_555
Ag6 O18 2.367197 1_455
Ag6 O85 2.379995 1_555
Ag6 O13 2.410090 1_555
Ag6 O51 2.461432 1_555
Ag7 O81 2.319289 1_555
Ag7 O68 2.368815 1_545
Ag7 O17 2.436492 1_545
B0 O25 1.355939 1_555
B0 O41 1.380700 1_555
B0 O44 1.394432 1_555
B1 O74 1.359144 1_555
B1 O77 1.376757 1_555
B1 O84 1.395562 1_555
B2 O71 1.487654 1_555
B2 O83 1.487654 1_554
B2 O40 1.493756 1_555
B2 O52 1.493756 1_554
B3 O80 1.354066 1_555
B3 O32 1.378120 1_555
B3 O2 1.404868 1_555
B4 O78 1.354066 1_555
B4 O35 1.378120 1_555
B4 O6 1.404868 1_555
B5 O83 1.352281 1_555
B5 O77 1.371545 1_555
B5 O90 1.412637 1_555
B6 O29 1.354066 1_555
B6 O19 1.378120 1_555
B6 O84 1.404868 1_555
B7 O80 1.462880 1_555
B7 O16 1.473546 1_555
B7 O3 1.489588 1_455
B7 O38 1.503081 1_555
B8 O61 1.361143 1_555
B8 O19 1.377731 1_655
B8 O89 1.401335 1_555
B9 O57 1.363999 1_555
B9 O11 1.375113 1_555
B9 O31 1.393615 1_555
B10 O36 1.355939 1_555
B10 O5 1.380700 1_555
B10 O56 1.394432 1_555
B11 O68 1.365031 1_555
B11 O14 1.372959 1_555
B11 O72 1.393293 1_655
B12 O93 1.366770 1_555
B12 O30 1.375732 1_555
B12 O88 1.388704 1_554
B13 O7 1.362503 1_555
B13 O47 1.377850 1_555
B13 O56 1.392344 1_555
B14 O9 1.365031 1_555
B14 O30 1.372959 1_555
B14 O53 1.393293 1_655
B15 O16 1.359144 1_555
B15 O45 1.376757 1_555
B15 O2 1.395562 1_555
B16 O82 1.361143 1_555
B16 O20 1.377731 1_455
B16 O31 1.401335 1_555
B17 O3 1.359091 1_555
B17 O11 1.381590 1_555
B17 O79 1.389329 1_555
B18 O48 1.462880 1_545
B18 O1 1.473546 1_555
B18 O87 1.489588 1_655
B18 O9 1.503081 1_555
B19 O75 1.355939 1_555
B19 O50 1.380700 1_555
B19 O0 1.394432 1_555
B20 O13 1.359091 1_555
B20 O10 1.381590 1_555
B20 O72 1.389329 1_555
B21 O23 1.487654 1_555
B21 O46 1.487654 1_545
B21 O94 1.493756 1_555
B21 O27 1.493756 1_545
B22 O91 1.361143 1_555
B22 O32 1.377731 1_655
B22 O49 1.401335 1_555
B23 O78 1.462880 1_565
B23 O22 1.473546 1_555
B23 O13 1.489588 1_655
B23 O68 1.503081 1_555
B24 O69 1.363999 1_555
B24 O58 1.375113 1_555
B24 O49 1.393615 1_555
B25 O42 1.357883 1_555
B25 O55 1.361787 1_455
B25 O88 1.399511 1_555
B26 O61 1.456368 1_555
B26 O41 1.491180 1_555
B26 O85 1.501002 1_555
B26 O18 1.502508 1_555
B27 O8 1.366770 1_555
B27 O59 1.375732 1_555
B27 O39 1.388704 1_555
B28 O29 1.462880 1_555
B28 O74 1.473546 1_555
B28 O66 1.489588 1_455
B28 O37 1.503081 1_555
B29 O64 1.357883 1_555
B29 O36 1.361787 1_455
B29 O54 1.399511 1_555
B30 O38 1.365031 1_555
B30 O70 1.372959 1_555
B30 O79 1.393293 1_455
B31 O43 1.357883 1_555
B31 O75 1.361787 1_655
B31 O39 1.399511 1_555
B32 O60 1.366770 1_555
B32 O70 1.375732 1_555
B32 O24 1.388704 1_555
B33 O27 1.351016 1_655
B33 O33 1.383170 1_555
B33 O51 1.396882 1_655
B34 O94 1.351016 1_655
B34 O21 1.383170 1_555
B34 O62 1.396882 1_655
B35 O18 1.362503 1_555
B35 O33 1.377850 1_555
B35 O44 1.392344 1_555
B36 O73 1.362503 1_555
B36 O12 1.377850 1_555
B36 O86 1.392344 1_555
B37 O67 1.357883 1_555
B37 O25 1.361787 1_655
B37 O24 1.399511 1_555
B38 O87 1.359091 1_555
B38 O58 1.381590 1_555
B38 O53 1.389329 1_555
B39 O17 1.366770 1_555
B39 O14 1.375732 1_555
B39 O54 1.388704 1_556
B40 O48 1.354066 1_555
B40 O20 1.378120 1_555
B40 O15 1.404868 1_555
B41 O46 1.352281 1_555
B41 O92 1.371545 1_555
B41 O51 1.412632 1_555
B42 O40 1.351016 1_456
B42 O12 1.383170 1_555
B42 O90 1.396880 1_455
B43 O22 1.359144 1_555
B43 O92 1.376757 1_555
B43 O6 1.395562 1_565
B44 O65 1.456368 1_555
B44 O81 1.491180 1_555
B44 O4 1.501002 1_555
B44 O73 1.502508 1_555
B45 O64 1.464402 1_545
B45 O42 1.464402 1_554
B45 O17 1.515676 1_544
B45 O93 1.515676 1_555
B46 O71 1.352281 1_555
B46 O45 1.371545 1_555
B46 O63 1.412637 1_555
B47 O65 1.361143 1_555
B47 O35 1.377731 1_455
B47 O76 1.401335 1_555
B48 O85 1.363999 1_555
B48 O10 1.375113 1_555
B48 O89 1.393615 1_555
B49 O1 1.359144 1_555
B49 O95 1.376757 1_555
B49 O15 1.395562 1_545
B50 O26 1.362503 1_555
B50 O21 1.377850 1_555
B50 O0 1.392344 1_555
B51 O55 1.355939 1_555
B51 O81 1.380700 1_555
B51 O86 1.394432 1_555
B52 O67 1.464402 1_555
B52 O43 1.464402 1_555
B52 O8 1.515676 1_555
B52 O60 1.515676 1_555
B53 O23 1.352281 1_555
B53 O95 1.371545 1_555
B53 O62 1.412632 1_555
B54 O82 1.456368 1_555
B54 O5 1.491180 1_555
B54 O57 1.501002 1_555
B54 O7 1.502508 1_555
B55 O66 1.359091 1_555
B55 O34 1.381590 1_555
B55 O28 1.389329 1_555
B56 O52 1.351016 1_454
B56 O47 1.383170 1_555
B56 O63 1.396880 1_455
B57 O37 1.365031 1_555
B57 O59 1.372959 1_555
B57 O28 1.393293 1_455
B58 O4 1.363999 1_555
B58 O34 1.375113 1_555
B58 O76 1.393615 1_555
B59 O91 1.456368 1_555
B59 O50 1.491180 1_555
B59 O69 1.501002 1_555
B59 O26 1.502508 1_555
