# generated using pymatgen
data_K2Mn(SnSe3)2
_symmetry_space_group_name_H-M   'P 1'
_cell_length_a   8.42864300
_cell_length_b   8.42864300
_cell_length_c   19.94422600
_cell_angle_alpha   90.00000000
_cell_angle_beta   90.00000000
_cell_angle_gamma   90.00000000
_symmetry_Int_Tables_number   1
_chemical_formula_structural   K2Mn(SnSe3)2
_chemical_formula_sum   'K8 Mn4 Sn8 Se24'
_cell_volume   1416.87815865
_cell_formula_units_Z   4
loop_
 _symmetry_equiv_pos_site_id
 _symmetry_equiv_pos_as_xyz
  1  'x, y, z'
loop_
 _atom_site_type_symbol
 _atom_site_label
 _atom_site_symmetry_multiplicity
 _atom_site_fract_x
 _atom_site_fract_y
 _atom_site_fract_z
 _atom_site_occupancy
  K  K0  1  0.00000000  0.50000000  0.32110400  1
  K  K1  1  0.00000000  0.50000000  0.02588800  1
  K  K2  1  0.50000000  0.00000000  0.17889600  1
  K  K3  1  0.00000000  0.50000000  0.82110400  1
  K  K4  1  0.50000000  0.00000000  0.67889600  1
  K  K5  1  0.50000000  0.00000000  0.97411200  1
  K  K6  1  0.50000000  0.00000000  0.47411200  1
  K  K7  1  0.00000000  0.50000000  0.52588800  1
  Mn  Mn0  1  0.00000000  0.00000000  0.00000000  1
  Mn  Mn1  1  0.50000000  0.50000000  0.50000000  1
  Mn  Mn2  1  0.00000000  0.00000000  0.50000000  1
  Mn  Mn3  1  0.50000000  0.50000000  0.00000000  1
  Sn  Sn0  1  0.00000000  0.00000000  0.33826500  1
  Sn  Sn1  1  0.00000000  0.00000000  0.16173500  1
  Sn  Sn2  1  0.50000000  0.50000000  0.83826500  1
  Sn  Sn3  1  0.50000000  0.50000000  0.66173500  1
  Sn  Sn4  1  0.50000000  0.50000000  0.33826500  1
  Sn  Sn5  1  0.50000000  0.50000000  0.16173500  1
  Sn  Sn6  1  0.00000000  0.00000000  0.83826500  1
  Sn  Sn7  1  0.00000000  0.00000000  0.66173500  1
  Se  Se0  1  0.66278700  0.33721300  0.25000000  1
  Se  Se1  1  0.67752800  0.34455000  0.91762300  1
  Se  Se2  1  0.32247200  0.34455000  0.41762300  1
  Se  Se3  1  0.84455000  0.82247200  0.91762300  1
  Se  Se4  1  0.33721300  0.66278700  0.25000000  1
  Se  Se5  1  0.84455000  0.17752800  0.41762300  1
  Se  Se6  1  0.65545000  0.32247200  0.58237700  1
  Se  Se7  1  0.33721300  0.33721300  0.75000000  1
  Se  Se8  1  0.34455000  0.32247200  0.08237700  1
  Se  Se9  1  0.83721300  0.16278700  0.75000000  1
  Se  Se10  1  0.65545000  0.67752800  0.08237700  1
  Se  Se11  1  0.66278700  0.66278700  0.75000000  1
  Se  Se12  1  0.82247200  0.15545000  0.08237700  1
  Se  Se13  1  0.67752800  0.65545000  0.41762300  1
  Se  Se14  1  0.16278700  0.83721300  0.75000000  1
  Se  Se15  1  0.83721300  0.83721300  0.25000000  1
  Se  Se16  1  0.34455000  0.67752800  0.58237700  1
  Se  Se17  1  0.17752800  0.84455000  0.08237700  1
  Se  Se18  1  0.32247200  0.65545000  0.91762300  1
  Se  Se19  1  0.16278700  0.16278700  0.25000000  1
  Se  Se20  1  0.17752800  0.15545000  0.58237700  1
  Se  Se21  1  0.15545000  0.82247200  0.41762300  1
  Se  Se22  1  0.82247200  0.84455000  0.58237700  1
  Se  Se23  1  0.15545000  0.17752800  0.91762300  1
loop_
_geom_bond_atom_site_label_1
_geom_bond_atom_site_label_2
_geom_bond_distance
_geom_bond_site_symmetry_2
K0 Se0 3.460059 1_455
K0 Se4 3.460059 1_555
K0 Se19 3.460059 1_555
K0 Se15 3.460059 1_455
K0 Se5 3.579086 1_455
K0 Se2 3.579086 1_555
K0 Se21 3.579086 1_555
K0 Se13 3.579086 1_455
K1 Se8 3.455720 1_555
K1 Se17 3.455720 1_555
K1 Se12 3.455720 1_455
K1 Se10 3.455720 1_455
K1 Se18 3.710344 1_554
K1 Se23 3.710344 1_554
K1 Se3 3.710344 1_454
K1 Se1 3.710344 1_454
K2 Se0 3.460059 1_555
K2 Se15 3.460059 1_545
K2 Se19 3.460059 1_555
K2 Se4 3.460059 1_545
K2 Se10 3.579086 1_545
K2 Se8 3.579086 1_555
K2 Se17 3.579086 1_545
K2 Se12 3.579086 1_555
K3 Se7 3.460059 1_555
K3 Se14 3.460059 1_555
K3 Se9 3.460059 1_455
K3 Se11 3.460059 1_455
K3 Se23 3.579086 1_555
K3 Se18 3.579086 1_555
K3 Se1 3.579086 1_455
K3 Se3 3.579086 1_455
K4 Se7 3.460059 1_555
K4 Se11 3.460059 1_545
K4 Se14 3.460059 1_545
K4 Se9 3.460059 1_555
K4 Se20 3.579086 1_555
K4 Se6 3.579086 1_555
K4 Se16 3.579086 1_545
K4 Se22 3.579086 1_545
K5 Se23 3.455720 1_555
K5 Se1 3.455720 1_555
K5 Se3 3.455720 1_545
K5 Se18 3.455720 1_545
K5 Se12 3.710344 1_556
K5 Se17 3.710344 1_546
K5 Se10 3.710344 1_546
K5 Se8 3.710344 1_556
K6 Se13 3.455720 1_545
K6 Se21 3.455720 1_545
K6 Se5 3.455720 1_555
K6 Se2 3.455720 1_555
K6 Se16 3.710344 1_545
K6 Se6 3.710344 1_555
K6 Se20 3.710344 1_555
K6 Se22 3.710344 1_545
K7 Se16 3.455720 1_555
K7 Se20 3.455720 1_555
K7 Se22 3.455720 1_455
K7 Se6 3.455720 1_455
K7 Se5 3.710344 1_455
K7 Se2 3.710344 1_555
K7 Se21 3.710344 1_555
K7 Se13 3.710344 1_455
Mn0 Se17 2.579720 1_545
Mn0 Se12 2.579720 1_455
Mn0 Se23 2.579720 1_554
Mn0 Se3 2.579720 1_444
Mn1 Se2 2.579720 1_555
Mn1 Se13 2.579720 1_555
Mn1 Se16 2.579720 1_555
Mn1 Se6 2.579720 1_555
Mn2 Se21 2.579720 1_545
Mn2 Se5 2.579720 1_455
Mn2 Se20 2.579720 1_555
Mn2 Se22 2.579720 1_445
Mn3 Se10 2.579720 1_555
Mn3 Se8 2.579720 1_555
Mn3 Se1 2.579720 1_554
Mn3 Se18 2.579720 1_554
Se0 Sn4 2.619943 1_555
Se0 Sn5 2.619943 1_555
Se1 Sn2 2.541797 1_555
Se2 Sn4 2.541797 1_555
Se3 Sn6 2.541797 1_665
Se4 Sn4 2.619943 1_555
Se4 Sn5 2.619943 1_555
Se5 Sn0 2.541797 1_655
Se6 Sn3 2.541797 1_555
Se7 Sn3 2.619943 1_555
Se7 Sn2 2.619943 1_555
Se8 Sn5 2.541797 1_555
Se9 Sn7 2.619943 1_655
Se9 Sn6 2.619943 1_655
Se10 Sn5 2.541797 1_555
Se11 Sn3 2.619943 1_555
Se11 Sn2 2.619943 1_555
Se12 Sn1 2.541797 1_655
Se13 Sn4 2.541797 1_555
Se14 Sn7 2.619943 1_565
Se14 Sn6 2.619943 1_565
Se15 Sn0 2.619943 1_665
Se15 Sn1 2.619943 1_665
Se16 Sn3 2.541797 1_555
Se17 Sn1 2.541797 1_565
Se18 Sn2 2.541797 1_555
Se19 Sn0 2.619943 1_555
Se19 Sn1 2.619943 1_555
Se20 Sn7 2.541797 1_555
Se21 Sn0 2.541797 1_565
Se22 Sn7 2.541797 1_665
Se23 Sn6 2.541797 1_555
