# generated using pymatgen
data_Li5H9Pt2
_symmetry_space_group_name_H-M   'P 1'
_cell_length_a   7.22427646
_cell_length_b   7.22429302
_cell_length_c   7.22419078
_cell_angle_alpha   110.00403273
_cell_angle_beta   110.00542818
_cell_angle_gamma   108.41249846
_symmetry_Int_Tables_number   1
_chemical_formula_structural   Li5H9Pt2
_chemical_formula_sum   'Li10 H18 Pt4'
_cell_volume   290.15433082
_cell_formula_units_Z   2
loop_
 _symmetry_equiv_pos_site_id
 _symmetry_equiv_pos_as_xyz
  1  'x, y, z'
loop_
 _atom_site_type_symbol
 _atom_site_label
 _atom_site_symmetry_multiplicity
 _atom_site_fract_x
 _atom_site_fract_y
 _atom_site_fract_z
 _atom_site_occupancy
  Li  Li0  1  0.69257626  0.19257989  0.20235163  1
  Li  Li1  1  0.99023211  0.49022525  0.79765974  1
  Li  Li2  1  0.19256670  0.99022710  0.49998646  1
  Li  Li3  1  0.49022915  0.69257292  0.49999066  1
  Li  Li4  1  0.30742408  0.80742047  0.79764808  1
  Li  Li5  1  0.00976804  0.50977461  0.20234031  1
  Li  Li6  1  0.80743358  0.00977331  0.50001393  1
  Li  Li7  1  0.50977068  0.30742719  0.50000956  1
  Li  Li8  1  0.50000033  0.50000016  0.00000028  1
  Li  Li9  1  0.00000013  0.00000019  0.00000015  1
  H  H0  1  0.43870567  0.13692929  0.84697510  1
  H  H1  1  0.28995431  0.59173422  0.15302181  1
  H  H2  1  0.93869190  0.09171366  0.30175685  1
  H  H3  1  0.78994810  0.63693023  0.69825292  1
  H  H4  1  0.59174229  0.43871655  0.30178637  1
  H  H5  1  0.13693254  0.28996062  0.69819128  1
  H  H6  1  0.63693034  0.93871239  0.84697485  1
  H  H7  1  0.09173196  0.78995434  0.15302209  1
  H  H8  1  0.56129417  0.86307083  0.15302487  1
  H  H9  1  0.71004555  0.40826573  0.84697810  1
  H  H10  1  0.06130722  0.90828615  0.69824279  1
  H  H11  1  0.21005158  0.36306989  0.30174776  1
  H  H12  1  0.40825704  0.56128317  0.69821357  1
  H  H13  1  0.86306695  0.71003907  0.30180902  1
  H  H14  1  0.36306963  0.06128766  0.15302522  1
  H  H15  1  0.90826782  0.21004572  0.84697791  1
  H  H16  1  0.49999996  -0.00000004  0.49999991  1
  H  H17  1  -0.00000005  0.50000020  0.50000002  1
  Pt  Pt0  1  0.65800026  0.15800059  0.81600438  1
  Pt  Pt1  1  0.34199949  0.84200004  0.18399587  1
  Pt  Pt2  1  0.15800565  0.34201305  0.50008353  1
  Pt  Pt3  1  0.84199358  0.65798654  0.49991499  1
loop_
_geom_bond_atom_site_label_1
_geom_bond_atom_site_label_2
_geom_bond_distance
_geom_bond_site_symmetry_2
H0 Pt0 1.642116 1_555
H0 Li4 2.110757 1_545
H0 Li2 2.123867 1_545
H0 Li8 2.290297 1_556
H1 Pt1 1.642101 1_555
H1 Li5 2.110769 1_555
H1 Li3 2.123773 1_555
H1 Li8 2.290328 1_555
H2 Pt2 1.642325 1_655
H2 Li6 2.110839 1_555
H2 Li0 2.123873 1_555
H2 Li9 2.290228 1_655
H3 Pt3 1.642898 1_555
H3 Li7 2.110652 1_555
H3 Li1 2.123915 1_555
H3 Li9 2.290149 1_666
H4 Pt3 1.641809 1_555
H4 Li7 2.110824 1_555
H4 Li0 2.123889 1_555
H4 Li8 2.290296 1_555
H5 Pt2 1.641324 1_555
H5 Li6 2.110670 1_455
H5 Li1 2.123929 1_455
H5 Li8 2.290262 1_556
H6 Pt0 1.642071 1_565
H6 Li4 2.110733 1_555
H6 Li3 2.123866 1_555
H6 Li9 2.290277 1_666
H7 Pt1 1.642104 1_555
H7 Li5 2.110724 1_555
H7 Li2 2.123771 1_555
H7 Li9 2.290302 1_565
H8 Pt1 1.642118 1_555
H8 Li0 2.110760 1_565
H8 Li6 2.123869 1_565
H8 Li8 2.290298 1_555
H9 Pt0 1.642097 1_555
H9 Li1 2.110770 1_555
H9 Li7 2.123771 1_555
H9 Li8 2.290326 1_556
H10 Pt3 1.642327 1_455
H10 Li2 2.110841 1_555
H10 Li4 2.123878 1_555
H10 Li9 2.290228 1_566
H11 Pt2 1.642886 1_555
H11 Li3 2.110652 1_555
H11 Li5 2.123913 1_555
H11 Li9 2.290149 1_555
H12 Pt2 1.641811 1_555
H12 Li3 2.110825 1_555
H12 Li4 2.123887 1_555
H12 Li8 2.290298 1_556
H13 Pt3 1.641313 1_555
H13 Li2 2.110676 1_655
H13 Li5 2.123933 1_655
H13 Li8 2.290257 1_555
H14 Pt1 1.642067 1_545
H14 Li0 2.110737 1_555
H14 Li7 2.123868 1_555
H14 Li9 2.290276 1_555
H15 Pt0 1.642106 1_555
H15 Li1 2.110722 1_555
H15 Li6 2.123770 1_555
H15 Li9 2.290302 1_656
H16 Pt1 1.851629 1_545
H16 Pt0 1.851632 1_555
H16 Li3 2.199644 1_545
H16 Li7 2.199644 1_555
H16 Li2 2.199668 1_545
H16 Li6 2.199669 1_555
H17 Pt3 1.851659 1_455
H17 Pt2 1.851660 1_555
H17 Li0 2.199503 1_455
H17 Li4 2.199503 1_555
H17 Li5 2.199668 1_555
H17 Li1 2.199669 1_455
