# generated using pymatgen
data_BaHo2ZnO5
_symmetry_space_group_name_H-M   'P 1'
_cell_length_a   5.74187300
_cell_length_b   7.12283800
_cell_length_c   12.40011600
_cell_angle_alpha   90.00000000
_cell_angle_beta   90.00000000
_cell_angle_gamma   90.00000000
_symmetry_Int_Tables_number   1
_chemical_formula_structural   BaHo2ZnO5
_chemical_formula_sum   'Ba4 Ho8 Zn4 O20'
_cell_volume   507.14529104
_cell_formula_units_Z   4
loop_
 _symmetry_equiv_pos_site_id
 _symmetry_equiv_pos_as_xyz
  1  'x, y, z'
loop_
 _atom_site_type_symbol
 _atom_site_label
 _atom_site_symmetry_multiplicity
 _atom_site_fract_x
 _atom_site_fract_y
 _atom_site_fract_z
 _atom_site_occupancy
  Ba  Ba0  1  0.75000000  0.07724100  0.10169200  1
  Ba  Ba1  1  0.75000000  0.42275900  0.60169200  1
  Ba  Ba2  1  0.25000000  0.57724100  0.39830800  1
  Ba  Ba3  1  0.25000000  0.92275900  0.89830800  1
  Ho  Ho0  1  0.25000000  0.39981400  0.07438600  1
  Ho  Ho1  1  0.75000000  0.61848700  0.20809400  1
  Ho  Ho2  1  0.75000000  0.88151300  0.70809400  1
  Ho  Ho3  1  0.25000000  0.11848700  0.29190600  1
  Ho  Ho4  1  0.75000000  0.60018600  0.92561400  1
  Ho  Ho5  1  0.75000000  0.89981400  0.42561400  1
  Ho  Ho6  1  0.25000000  0.10018600  0.57438600  1
  Ho  Ho7  1  0.25000000  0.38151300  0.79190600  1
  Zn  Zn0  1  0.25000000  0.80828200  0.15001800  1
  Zn  Zn1  1  0.75000000  0.19171800  0.84998200  1
  Zn  Zn2  1  0.75000000  0.30828200  0.34998200  1
  Zn  Zn3  1  0.25000000  0.69171800  0.65001800  1
  O  O0  1  0.25000000  0.42375800  0.60069900  1
  O  O1  1  0.75000000  0.57624200  0.39930100  1
  O  O2  1  0.75000000  0.92375800  0.89930100  1
  O  O3  1  0.25000000  0.07624200  0.10069900  1
  O  O4  1  0.99989900  0.85887100  0.27538500  1
  O  O5  1  0.49989900  0.14112900  0.72461500  1
  O  O6  1  0.00010100  0.35887100  0.22461500  1
  O  O7  1  0.50010100  0.64112900  0.77538500  1
  O  O8  1  0.00010100  0.14112900  0.72461500  1
  O  O9  1  0.50010100  0.85887100  0.27538500  1
  O  O10  1  0.99989900  0.64112900  0.77538500  1
  O  O11  1  0.49989900  0.35887100  0.22461500  1
  O  O12  1  0.49909900  0.66233100  0.06621400  1
  O  O13  1  0.99909900  0.33766900  0.93378600  1
  O  O14  1  0.50090100  0.16233100  0.43378600  1
  O  O15  1  0.00090100  0.83766900  0.56621400  1
  O  O16  1  0.99909900  0.16233100  0.43378600  1
  O  O17  1  0.49909900  0.83766900  0.56621400  1
  O  O18  1  0.00090100  0.66233100  0.06621400  1
  O  O19  1  0.50090100  0.33766900  0.93378600  1
loop_
_geom_bond_atom_site_label_1
_geom_bond_atom_site_label_2
_geom_bond_distance
_geom_bond_site_symmetry_2
Ba0 O2 2.737447 1_544
Ba0 O3 2.870972 1_655
Ba0 O3 2.870972 1_555
Ba0 O6 2.899941 1_655
Ba0 O11 2.899941 1_555
Ba0 O4 3.019458 1_545
Ba0 O9 3.019458 1_545
Ba0 O13 3.133954 1_554
Ba0 O19 3.133954 1_554
Ba0 O18 3.317077 1_645
Ba0 O12 3.317077 1_545
Ba1 O1 2.737447 1_555
Ba1 O0 2.870972 1_555
Ba1 O0 2.870972 1_655
Ba1 O8 2.899941 1_655
Ba1 O5 2.899941 1_555
Ba1 O7 3.019458 1_555
Ba1 O10 3.019458 1_555
Ba1 O16 3.133954 1_555
Ba1 O14 3.133954 1_555
Ba1 O15 3.317077 1_655
Ba1 O17 3.317077 1_555
Ba2 O0 2.737447 1_555
Ba2 O1 2.870972 1_555
Ba2 O1 2.870972 1_455
Ba2 O4 2.899941 1_455
Ba2 O9 2.899941 1_555
Ba2 O11 3.019458 1_555
Ba2 O6 3.019458 1_555
Ba2 O17 3.133954 1_555
Ba2 O15 3.133954 1_555
Ba2 O14 3.317077 1_555
Ba2 O16 3.317077 1_455
Ba3 O3 2.737447 1_566
Ba3 O2 2.870972 1_555
Ba3 O2 2.870972 1_455
Ba3 O7 2.899941 1_555
Ba3 O10 2.899941 1_455
Ba3 O5 3.019458 1_565
Ba3 O8 3.019458 1_565
Ba3 O12 3.133954 1_556
Ba3 O18 3.133954 1_556
Ba3 O19 3.317077 1_565
Ba3 O13 3.317077 1_465
Ho0 O19 2.304566 1_554
Ho0 O13 2.304566 1_454
Ho0 O3 2.327732 1_555
Ho0 O12 2.356355 1_555
Ho0 O18 2.356355 1_555
Ho0 O11 2.369428 1_555
Ho0 O6 2.369428 1_555
Ho1 O18 2.295259 1_655
Ho1 O12 2.295259 1_555
Ho1 O6 2.350267 1_655
Ho1 O11 2.350267 1_555
Ho1 O4 2.384710 1_555
Ho1 O9 2.384710 1_555
Ho1 O1 2.390007 1_555
Ho2 O15 2.295259 1_655
Ho2 O17 2.295259 1_555
Ho2 O8 2.350267 1_665
Ho2 O5 2.350267 1_565
Ho2 O7 2.384710 1_555
Ho2 O10 2.384710 1_555
Ho2 O2 2.390007 1_555
Ho3 O14 2.295259 1_555
Ho3 O16 2.295259 1_455
Ho3 O9 2.350267 1_545
Ho3 O4 2.350267 1_445
Ho3 O11 2.384710 1_555
Ho3 O6 2.384710 1_555
Ho3 O3 2.390007 1_555
Ho4 O18 2.304566 1_656
Ho4 O12 2.304566 1_556
Ho4 O2 2.327732 1_555
Ho4 O13 2.356355 1_555
Ho4 O19 2.356355 1_555
Ho4 O10 2.369428 1_555
Ho4 O7 2.369428 1_555
Ho5 O15 2.304566 1_655
Ho5 O17 2.304566 1_555
Ho5 O1 2.327732 1_555
Ho5 O16 2.356355 1_565
Ho5 O14 2.356355 1_565
Ho5 O4 2.369428 1_555
Ho5 O9 2.369428 1_555
Ho6 O14 2.304566 1_555
Ho6 O16 2.304566 1_455
Ho6 O0 2.327732 1_555
Ho6 O17 2.356355 1_545
Ho6 O15 2.356355 1_545
Ho6 O8 2.369428 1_555
Ho6 O5 2.369428 1_555
Ho7 O19 2.295259 1_555
Ho7 O13 2.295259 1_455
Ho7 O10 2.350267 1_455
Ho7 O7 2.350267 1_555
Ho7 O5 2.384710 1_555
Ho7 O8 2.384710 1_555
Ho7 O0 2.390007 1_555
O0 Zn3 2.004220 1_555
O1 Zn2 2.004220 1_555
O2 Zn1 2.004220 1_565
O3 Zn0 2.004220 1_545
O4 Zn0 2.146800 1_655
O5 Zn1 2.146800 1_555
O6 Zn2 2.146800 1_455
O7 Zn3 2.146800 1_555
O8 Zn1 2.146800 1_455
O9 Zn0 2.146800 1_555
O10 Zn3 2.146800 1_655
O11 Zn2 2.146800 1_555
O12 Zn0 2.050945 1_555
O13 Zn1 2.050945 1_555
O14 Zn2 2.050945 1_555
O15 Zn3 2.050945 1_555
O16 Zn2 2.050945 1_555
O17 Zn3 2.050945 1_555
O18 Zn0 2.050945 1_555
O19 Zn1 2.050945 1_555
