# generated using pymatgen
data_MgSiO3
_symmetry_space_group_name_H-M   'P 1'
_cell_length_a   4.81638900
_cell_length_b   8.82649400
_cell_length_c   9.59157700
_cell_angle_alpha   90.00000000
_cell_angle_beta   90.00000000
_cell_angle_gamma   90.00000000
_symmetry_Int_Tables_number   1
_chemical_formula_structural   MgSiO3
_chemical_formula_sum   'Mg8 Si8 O24'
_cell_volume   407.75547753
_cell_formula_units_Z   8
loop_
 _symmetry_equiv_pos_site_id
 _symmetry_equiv_pos_as_xyz
  1  'x, y, z'
loop_
 _atom_site_type_symbol
 _atom_site_label
 _atom_site_symmetry_multiplicity
 _atom_site_fract_x
 _atom_site_fract_y
 _atom_site_fract_z
 _atom_site_occupancy
  Mg  Mg0  1  0.72999300  0.66486100  0.75371000  1
  Mg  Mg1  1  0.72593000  0.66417100  0.49822600  1
  Mg  Mg2  1  0.27000700  0.33513900  0.25371000  1
  Mg  Mg3  1  0.77000700  0.16486100  0.25371000  1
  Mg  Mg4  1  0.27407000  0.33582900  0.99822600  1
  Mg  Mg5  1  0.77407000  0.16417100  0.99822600  1
  Mg  Mg6  1  0.22999300  0.83513900  0.75371000  1
  Mg  Mg7  1  0.22593000  0.83582900  0.49822600  1
  Si  Si0  1  0.91100600  0.35904000  0.75835600  1
  Si  Si1  1  0.58899400  0.85904000  0.25835600  1
  Si  Si2  1  0.41100600  0.14096000  0.75835600  1
  Si  Si3  1  0.08899400  0.64096000  0.25835600  1
  Si  Si4  1  0.89165500  0.35630400  0.49263200  1
  Si  Si5  1  0.60834500  0.85630400  0.99263200  1
  Si  Si6  1  0.39165500  0.14369600  0.49263200  1
  Si  Si7  1  0.10834500  0.64369600  0.99263200  1
  O  O0  1  0.46557800  0.20446800  0.12539900  1
  O  O1  1  0.99108100  0.49896100  0.37457900  1
  O  O2  1  0.00891900  0.50103900  0.87457900  1
  O  O3  1  0.03442200  0.70446800  0.62539900  1
  O  O4  1  0.89215700  0.79193500  0.34086100  1
  O  O5  1  0.53442200  0.79553200  0.62539900  1
  O  O6  1  0.49108100  0.00103900  0.37457900  1
  O  O7  1  0.39215700  0.70806500  0.34086100  1
  O  O8  1  0.58564200  0.29519400  0.40813200  1
  O  O9  1  0.86258700  0.65884800  0.12159300  1
  O  O10  1  0.91435800  0.79519400  0.90813200  1
  O  O11  1  0.10784300  0.20806500  0.84086100  1
  O  O12  1  0.08564200  0.20480600  0.40813200  1
  O  O13  1  0.41435800  0.70480600  0.90813200  1
  O  O14  1  0.21404800  0.04173100  0.62651100  1
  O  O15  1  0.36258700  0.84115200  0.12159300  1
  O  O16  1  0.96557800  0.29553200  0.12539900  1
  O  O17  1  0.50891900  0.99896100  0.87457900  1
  O  O18  1  0.78595200  0.95826900  0.12651100  1
  O  O19  1  0.63741300  0.15884800  0.62159300  1
  O  O20  1  0.60784300  0.29193500  0.84086100  1
  O  O21  1  0.28595200  0.54173100  0.12651100  1
  O  O22  1  0.13741300  0.34115200  0.62159300  1
  O  O23  1  0.71404800  0.45826900  0.62651100  1
loop_
_geom_bond_atom_site_label_1
_geom_bond_atom_site_label_2
_geom_bond_distance
_geom_bond_site_symmetry_2
Mg0 O5 1.931878 1_555
Mg0 O3 1.945953 1_655
Mg0 O10 2.075015 1_555
Mg0 O13 2.151555 1_555
Mg0 O23 2.195332 1_555
Mg0 O2 2.289026 1_655
Mg1 O5 1.919116 1_555
Mg1 O3 1.955006 1_655
Mg1 O4 2.047177 1_555
Mg1 O23 2.195498 1_555
Mg1 O7 2.238893 1_555
Mg1 O1 2.272411 1_555
Mg2 O0 1.931878 1_555
Mg2 O16 1.945953 1_455
Mg2 O12 2.075015 1_555
Mg2 O8 2.151555 1_555
Mg2 O21 2.195332 1_555
Mg2 O1 2.289026 1_455
Mg3 O16 1.931878 1_555
Mg3 O0 1.945953 1_555
Mg3 O8 2.075015 1_555
Mg3 O12 2.151555 1_655
Mg3 O18 2.195332 1_545
Mg3 O6 2.289026 1_555
Mg4 O0 1.919116 1_556
Mg4 O16 1.955006 1_456
Mg4 O11 2.047177 1_555
Mg4 O21 2.195498 1_556
Mg4 O20 2.238893 1_555
Mg4 O2 2.272411 1_555
Mg5 O16 1.919116 1_556
Mg5 O0 1.955006 1_556
Mg5 O20 2.047177 1_555
Mg5 O18 2.195498 1_546
Mg5 O11 2.238893 1_655
Mg5 O17 2.272411 1_545
Mg6 O3 1.931878 1_555
Mg6 O5 1.945953 1_555
Mg6 O13 2.075015 1_555
Mg6 O10 2.151555 1_455
Mg6 O14 2.195332 1_565
Mg6 O17 2.289026 1_555
Mg7 O3 1.919116 1_555
Mg7 O5 1.955006 1_555
Mg7 O7 2.047177 1_555
Mg7 O14 2.195498 1_565
Mg7 O4 2.238893 1_455
Mg7 O6 2.272411 1_565
O1 Si3 1.742407 1_655
O1 Si4 1.759813 1_555
O2 Si0 1.742407 1_455
O2 Si7 1.759813 1_555
O4 Si1 1.763265 1_555
O4 Si3 1.816809 1_655
O6 Si1 1.742407 1_545
O6 Si6 1.759813 1_555
O7 Si3 1.763265 1_555
O7 Si1 1.816809 1_555
O8 Si4 1.766393 1_555
O8 Si6 1.821519 1_555
O9 Si3 1.713123 1_655
O9 Si7 1.717257 1_654
O10 Si5 1.766393 1_555
O10 Si7 1.821519 1_655
O11 Si2 1.763265 1_555
O11 Si0 1.816809 1_455
O12 Si6 1.766393 1_555
O12 Si4 1.821519 1_455
O13 Si7 1.766393 1_555
O13 Si5 1.821519 1_555
O14 Si6 1.786247 1_555
O14 Si2 1.807266 1_555
O15 Si1 1.713123 1_555
O15 Si5 1.717257 1_554
O17 Si2 1.742407 1_565
O17 Si5 1.759813 1_555
O18 Si5 1.786247 1_554
O18 Si1 1.807266 1_555
O19 Si2 1.713123 1_555
O19 Si6 1.717257 1_555
O20 Si0 1.763265 1_555
O20 Si2 1.816809 1_555
O21 Si7 1.786247 1_554
O21 Si3 1.807266 1_555
O22 Si0 1.713123 1_455
O22 Si4 1.717257 1_455
O23 Si4 1.786247 1_555
O23 Si0 1.807266 1_555
