# generated using pymatgen
data_Al2NiO4
_symmetry_space_group_name_H-M   'P 1'
_cell_length_a   5.78660246
_cell_length_b   9.96213084
_cell_length_c   5.80888786
_cell_angle_alpha   90.14651089
_cell_angle_beta   59.91702906
_cell_angle_gamma   73.19223147
_symmetry_Int_Tables_number   1
_chemical_formula_structural   Al2NiO4
_chemical_formula_sum   'Al8 Ni4 O16'
_cell_volume   272.94680209
_cell_formula_units_Z   4
loop_
 _symmetry_equiv_pos_site_id
 _symmetry_equiv_pos_as_xyz
  1  'x, y, z'
loop_
 _atom_site_type_symbol
 _atom_site_label
 _atom_site_symmetry_multiplicity
 _atom_site_fract_x
 _atom_site_fract_y
 _atom_site_fract_z
 _atom_site_occupancy
  Al  Al0  1  0.49834200  0.24964900  0.25055800  1
  Al  Al1  1  0.50085600  0.74967900  0.75121200  1
  Al  Al2  1  0.49931900  0.50013700  0.99997400  1
  Al  Al3  1  0.50084400  0.00006500  0.49927200  1
  Al  Al4  1  0.49927400  0.25042200  0.75063100  1
  Al  Al5  1  0.50208500  0.75004200  0.24952500  1
  Al  Al6  1  0.99923200  0.24997500  0.74928300  1
  Al  Al7  1  0.99998400  0.75025000  0.25039100  1
  Ni  Ni0  1  0.87933300  0.93532300  0.80762200  1
  Ni  Ni1  1  0.12707500  0.06438100  0.18320000  1
  Ni  Ni2  1  0.87260900  0.43525900  0.31090300  1
  Ni  Ni3  1  0.12635300  0.56456600  0.68398200  1
  O  O0  1  0.73189400  0.14492500  0.88386300  1
  O  O1  1  0.73885900  0.64490500  0.38385900  1
  O  O2  1  0.26391300  0.35495800  0.61993000  1
  O  O3  1  0.26176100  0.85494800  0.12187000  1
  O  O4  1  0.73707700  0.36845400  0.66157400  1
  O  O5  1  0.73579700  0.86840800  0.15983300  1
  O  O6  1  0.26391900  0.13342000  0.83518200  1
  O  O7  1  0.26700300  0.63308600  0.33560000  1
  O  O8  1  0.73365400  0.36646300  0.10053500  1
  O  O9  1  0.73111100  0.86893600  0.60676000  1
  O  O10  1  0.28988500  0.36856400  0.10729500  1
  O  O11  1  0.29746100  0.86657200  0.60389800  1
  O  O12  1  0.70829800  0.13187900  0.39760000  1
  O  O13  1  0.70894300  0.63179500  0.89830900  1
  O  O14  1  0.26176500  0.13139800  0.39893600  1
  O  O15  1  0.26335600  0.63154000  0.89840300  1
loop_
_geom_bond_atom_site_label_1
_geom_bond_atom_site_label_2
_geom_bond_distance
_geom_bond_site_symmetry_2
Al0 O8 1.923479 1_555
Al0 O10 1.932870 1_555
Al0 O0 1.933761 1_554
Al0 O14 1.938996 1_555
Al0 O2 1.947329 1_555
Al0 O12 1.950190 1_555
Al1 O9 1.921088 1_555
Al1 O11 1.922431 1_555
Al1 O1 1.936701 1_555
Al1 O15 1.941001 1_555
Al1 O13 1.943700 1_555
Al1 O3 1.952643 1_556
Al2 O7 1.921455 1_556
Al2 O15 1.924580 1_555
Al2 O8 1.925382 1_556
Al2 O4 1.926045 1_555
Al2 O10 1.934132 1_556
Al2 O13 1.935548 1_555
Al3 O9 1.924417 1_545
Al3 O6 1.924446 1_555
Al3 O11 1.927496 1_545
Al3 O12 1.928500 1_555
Al3 O5 1.929916 1_545
Al3 O14 1.931556 1_555
Al4 O6 1.924840 1_555
Al4 O2 1.932934 1_555
Al4 O12 1.933377 1_555
Al4 O0 1.935416 1_555
Al4 O4 1.941399 1_555
Al4 O10 1.947290 1_556
Al5 O7 1.922432 1_555
Al5 O13 1.925309 1_554
Al5 O5 1.926115 1_555
Al5 O11 1.932990 1_555
Al5 O3 1.942491 1_555
Al5 O1 1.956846 1_555
Al6 O6 1.919310 1_655
Al6 O8 1.919528 1_556
Al6 O14 1.922356 1_655
Al6 O4 1.922592 1_555
Al6 O2 1.944451 1_655
Al6 O0 1.956415 1_555
Al7 O7 1.929109 1_655
Al7 O15 1.929566 1_654
Al7 O3 1.929724 1_655
Al7 O1 1.931960 1_555
Al7 O5 1.941143 1_555
Al7 O9 1.949042 1_555
Ni0 O9 1.965146 1_555
Ni0 O0 1.967314 1_565
Ni0 O11 1.972492 1_655
Ni0 O5 1.985890 1_556
Ni1 O3 1.965921 1_545
Ni1 O14 1.974715 1_555
Ni1 O12 1.975690 1_455
Ni1 O6 1.975899 1_554
Ni2 O1 1.967833 1_555
Ni2 O10 1.968711 1_655
Ni2 O8 1.977122 1_555
Ni2 O4 1.978539 1_555
Ni3 O2 1.967293 1_555
Ni3 O13 1.969305 1_455
Ni3 O7 1.975077 1_555
Ni3 O15 1.979047 1_555
