# generated using pymatgen
data_Sr2DyGaCu2O7
_symmetry_space_group_name_H-M   'P 1'
_cell_length_a   12.21251300
_cell_length_b   12.21251300
_cell_length_c   12.21251300
_cell_angle_alpha   154.38259217
_cell_angle_beta   153.88478050
_cell_angle_gamma   36.90694348
_symmetry_Int_Tables_number   1
_chemical_formula_structural   Sr2DyGaCu2O7
_chemical_formula_sum   'Sr4 Dy2 Ga2 Cu4 O14'
_cell_volume   346.16550180
_cell_formula_units_Z   2
loop_
 _symmetry_equiv_pos_site_id
 _symmetry_equiv_pos_as_xyz
  1  'x, y, z'
loop_
 _atom_site_type_symbol
 _atom_site_label
 _atom_site_symmetry_multiplicity
 _atom_site_fract_x
 _atom_site_fract_y
 _atom_site_fract_z
 _atom_site_occupancy
  Sr  Sr0  1  0.33357000  0.85107700  0.48696600  1
  Sr  Sr1  1  0.86411000  0.35107700  0.51750700  1
  Sr  Sr2  1  0.13589000  0.65339600  0.48696600  1
  Sr  Sr3  1  0.66643000  0.15339600  0.51750700  1
  Dy  Dy0  1  0.00000000  0.49972200  0.49972200  1
  Dy  Dy1  1  0.50000000  0.99972200  0.49972200  1
  Ga  Ga0  1  0.68166000  0.79109900  0.97275900  1
  Ga  Ga1  1  0.31834000  0.29109900  0.10943900  1
  Cu  Cu0  1  0.07207800  0.07111500  0.00013800  1
  Cu  Cu1  1  0.42902300  0.42806000  0.00013800  1
  Cu  Cu2  1  0.92792200  0.92806000  0.99903800  1
  Cu  Cu3  1  0.57097700  0.57111500  0.99903800  1
  O  O0  1  0.81222300  0.31135700  0.00143200  1
  O  O1  1  0.86845800  0.80027900  0.02110500  1
  O  O2  1  0.31440800  0.31462000  0.49916900  1
  O  O3  1  0.63343600  0.14302100  0.27645700  1
  O  O4  1  0.68559200  0.18476100  0.00021200  1
  O  O5  1  0.19007500  0.68920900  0.00143200  1
  O  O6  1  0.80992500  0.81135700  0.49913400  1
  O  O7  1  0.36656400  0.64302100  0.50958500  1
  O  O8  1  0.68454900  0.68476100  0.49916900  1
  O  O9  1  0.72082600  0.65264800  0.02110500  1
  O  O10  1  0.27917400  0.30027900  0.93182100  1
  O  O11  1  0.31545100  0.81462000  0.00021200  1
  O  O12  1  0.13154200  0.15264800  0.93182100  1
  O  O13  1  0.18777700  0.18920900  0.49913400  1
loop_
_geom_bond_atom_site_label_1
_geom_bond_atom_site_label_2
_geom_bond_distance
_geom_bond_site_symmetry_2
Dy0 O0 2.390087 1_455
Dy0 O13 2.390087 1_555
Dy0 O6 2.400823 1_455
Dy0 O5 2.400823 1_556
Dy0 O4 2.447754 1_455
Dy0 O2 2.447754 1_555
Dy0 O11 2.450807 1_556
Dy0 O8 2.450807 1_455
Dy1 O6 2.390087 1_555
Dy1 O5 2.390087 1_555
Dy1 O13 2.400823 1_565
Dy1 O0 2.400823 1_566
Dy1 O11 2.447754 1_555
Dy1 O8 2.447754 1_555
Dy1 O2 2.450807 1_565
Dy1 O4 2.450807 1_566
Ga0 O9 1.853682 1_556
Ga0 O1 1.853694 1_556
Ga0 O7 1.914788 1_555
Ga0 O3 1.924130 1_566
Ga1 O12 1.853684 1_554
Ga1 O10 1.853694 1_554
Ga1 O3 1.914788 1_555
Ga1 O7 1.924130 1_555
Cu0 O2 1.935062 1_555
Cu0 O11 1.938373 1_545
Cu0 O0 1.948241 1_455
Cu0 O6 1.952003 1_444
Cu0 O12 2.440815 1_554
Cu1 O8 1.935062 1_555
Cu1 O4 1.938373 1_555
Cu1 O5 1.948241 1_555
Cu1 O13 1.952003 1_554
Cu1 O10 2.440804 1_554
Cu2 O4 1.935063 1_566
Cu2 O8 1.938378 1_555
Cu2 O13 1.948238 1_666
Cu2 O5 1.952004 1_656
Cu2 O1 2.440792 1_556
Cu3 O11 1.935061 1_556
Cu3 O2 1.938376 1_555
Cu3 O6 1.948235 1_556
Cu3 O0 1.952001 1_556
Cu3 O9 2.440826 1_556
O0 Sr3 2.802644 1_554
O0 Sr2 2.807007 1_655
O1 Sr0 2.500711 1_655
O1 Sr1 2.637532 1_554
O1 Sr1 2.909991 1_565
O1 Sr0 3.146824 1_554
O2 Sr3 2.817495 1_555
O2 Sr2 2.827740 1_555
O3 Sr1 2.474527 1_555
O3 Sr3 2.474538 1_555
O4 Sr0 2.817495 1_544
O4 Sr1 2.827742 1_555
O5 Sr1 2.802652 1_454
O5 Sr0 2.806998 1_555
O6 Sr2 2.802655 1_655
O6 Sr3 2.806998 1_565
O7 Sr2 2.474525 1_555
O7 Sr0 2.474538 1_555
O8 Sr1 2.817500 1_555
O8 Sr0 2.827734 1_555
O9 Sr2 2.500716 1_655
O9 Sr3 2.637542 1_554
O9 Sr3 2.909990 1_565
O9 Sr2 3.146819 1_554
O10 Sr1 2.500711 1_455
O10 Sr0 2.637537 1_545
O10 Sr0 2.909990 1_556
O10 Sr1 3.146820 1_556
O11 Sr2 2.817503 1_554
O11 Sr3 2.827734 1_565
O12 Sr3 2.500711 1_455
O12 Sr2 2.637542 1_545
O12 Sr2 2.909985 1_556
O12 Sr3 3.146829 1_556
O13 Sr0 2.802644 1_545
O13 Sr1 2.807009 1_455
