# generated using pymatgen
data_H8CS(NO)4
_symmetry_space_group_name_H-M   'P 1'
_cell_length_a   6.12240300
_cell_length_b   7.41038180
_cell_length_c   7.88866756
_cell_angle_alpha   105.96413127
_cell_angle_beta   100.95270404
_cell_angle_gamma   94.40569746
_symmetry_Int_Tables_number   1
_chemical_formula_structural   H8CS(NO)4
_chemical_formula_sum   'H16 C2 S2 N8 O8'
_cell_volume   334.65935204
_cell_formula_units_Z   2
loop_
 _symmetry_equiv_pos_site_id
 _symmetry_equiv_pos_as_xyz
  1  'x, y, z'
loop_
 _atom_site_type_symbol
 _atom_site_label
 _atom_site_symmetry_multiplicity
 _atom_site_fract_x
 _atom_site_fract_y
 _atom_site_fract_z
 _atom_site_occupancy
  H  H0  1  0.63629500  0.90976200  0.33542800  1
  H  H1  1  0.36370500  0.09023800  0.66457200  1
  H  H2  1  0.90685900  0.85531100  0.32922300  1
  H  H3  1  0.09314100  0.14468900  0.67077700  1
  H  H4  1  0.72059100  0.30510400  0.03967800  1
  H  H5  1  0.27940900  0.69489600  0.96032200  1
  H  H6  1  0.55020500  0.42010600  0.16869300  1
  H  H7  1  0.44979500  0.57989400  0.83130700  1
  H  H8  1  0.59897800  0.24305200  0.36334700  1
  H  H9  1  0.40102200  0.75694800  0.63665300  1
  H  H10  1  0.84195200  0.46654500  0.25013100  1
  H  H11  1  0.15804800  0.53345500  0.74986900  1
  H  H12  1  0.08973800  0.25215800  0.19509400  1
  H  H13  1  0.91026200  0.74784200  0.80490600  1
  H  H14  1  0.13158100  0.02126600  0.20269400  1
  H  H15  1  0.86841900  0.97873400  0.79730600  1
  C  C0  1  0.83663100  0.09517000  0.25804700  1
  C  C1  1  0.16336900  0.90483000  0.74195300  1
  S  S0  1  0.73266400  0.34729600  0.71978400  1
  S  S1  1  0.26733600  0.65270400  0.28021600  1
  N  N0  1  0.70387200  0.36124600  0.17548600  1
  N  N1  1  0.29612800  0.63875400  0.82451400  1
  N  N2  1  0.79089700  0.94531000  0.31375800  1
  N  N3  1  0.20910300  0.05469000  0.68624200  1
  N  N4  1  0.02811200  0.12463800  0.20727500  1
  N  N5  1  0.97188800  0.87536200  0.79272500  1
  N  N6  1  0.67358000  0.20998000  0.25063800  1
  N  N7  1  0.32642000  0.79002000  0.74936200  1
  O  O0  1  0.71587500  0.53803300  0.84205600  1
  O  O1  1  0.28412500  0.46196700  0.15794400  1
  O  O2  1  0.73955500  0.20641000  0.82543700  1
  O  O3  1  0.26044500  0.79359000  0.17456300  1
  O  O4  1  0.53233000  0.28672200  0.56687400  1
  O  O5  1  0.46767000  0.71327800  0.43312600  1
  O  O6  1  0.94277600  0.35611000  0.65036700  1
  O  O7  1  0.05722400  0.64389000  0.34963300  1
loop_
_geom_bond_atom_site_label_1
_geom_bond_atom_site_label_2
_geom_bond_distance
_geom_bond_site_symmetry_2
H0 N2 1.021026 1_555
H1 N3 1.021026 1_555
H2 N2 1.023873 1_555
H3 N3 1.023873 1_555
H4 N0 1.065072 1_555
H4 O2 1.677027 1_554
H5 N1 1.065072 1_555
H5 O3 1.677027 1_556
H6 N0 1.065360 1_555
H6 O1 1.672374 1_555
H7 N1 1.065360 1_555
H7 O0 1.672374 1_555
H8 N6 1.053979 1_555
H8 O4 1.682995 1_555
H9 N7 1.053979 1_555
H9 O5 1.682995 1_555
H10 N0 1.061618 1_555
H10 O7 1.689274 1_655
H11 N1 1.061618 1_555
H11 O6 1.689274 1_455
H12 N4 1.026406 1_555
H13 N5 1.026406 1_555
H14 N4 1.028311 1_555
H15 N5 1.028311 1_555
C0 N4 1.330283 1_655
C0 N2 1.331262 1_545
C0 N6 1.363617 1_555
C1 N5 1.330283 1_455
C1 N3 1.331262 1_565
C1 N7 1.363617 1_555
N0 N6 1.420478 1_555
N1 N7 1.420478 1_555
O0 S0 1.499601 1_555
O1 S1 1.499601 1_555
O2 S0 1.502818 1_555
O3 S1 1.502818 1_555
O4 S0 1.488716 1_555
O5 S1 1.488716 1_555
O6 S0 1.494453 1_555
O7 S1 1.494453 1_555
