# generated using pymatgen
data_Sr2La14Mg2Ga14O45
_symmetry_space_group_name_H-M   'P 1'
_cell_length_a   5.53838796
_cell_length_b   5.60051934
_cell_length_c   44.87651463
_cell_angle_alpha   59.99177239
_cell_angle_beta   59.49143938
_cell_angle_gamma   59.99445421
_symmetry_Int_Tables_number   1
_chemical_formula_structural   Sr2La14Mg2Ga14O45
_chemical_formula_sum   'Sr2 La14 Mg2 Ga14 O45'
_cell_volume   980.33361547
_cell_formula_units_Z   1
loop_
 _symmetry_equiv_pos_site_id
 _symmetry_equiv_pos_as_xyz
  1  'x, y, z'
loop_
 _atom_site_type_symbol
 _atom_site_label
 _atom_site_symmetry_multiplicity
 _atom_site_fract_x
 _atom_site_fract_y
 _atom_site_fract_z
 _atom_site_occupancy
  Sr  Sr0  1  0.24958900  0.75594400  0.09276600  1
  Sr  Sr1  1  0.25476100  0.75383600  0.21788100  1
  La  La0  1  0.75003400  0.24384800  0.03297700  1
  La  La1  1  0.77070200  0.25522900  0.15508200  1
  La  La2  1  0.25492700  0.74617900  0.34378100  1
  La  La3  1  0.77266400  0.25253700  0.27919300  1
  La  La4  1  0.25194900  0.74549400  0.46914100  1
  La  La5  1  0.75018500  0.25407200  0.40659200  1
  La  La6  1  0.25111000  0.74471200  0.59430900  1
  La  La7  1  0.74969900  0.25554600  0.53052300  1
  La  La8  1  0.25094400  0.74489700  0.71929900  1
  La  La9  1  0.74959200  0.25522800  0.65559900  1
  La  La10  1  0.24945400  0.74399500  0.84450100  1
  La  La11  1  0.74909300  0.25534500  0.78061500  1
  La  La12  1  0.24791100  0.73204200  0.96885200  1
  La  La13  1  0.74521300  0.25087900  0.90599100  1
  Mg  Mg0  1  0.99178200  0.48978900  0.06439000  1
  Mg  Mg1  1  0.97582800  0.47695400  0.19073500  1
  Ga  Ga0  1  0.51148700  0.01133900  0.99919900  1
  Ga  Ga1  1  0.52121300  0.02935300  0.12287400  1
  Ga  Ga2  1  0.51655500  0.01406800  0.24687000  1
  Ga  Ga3  1  0.50319100  0.00014900  0.37488500  1
  Ga  Ga4  1  0.49985800  0.99973200  0.50015900  1
  Ga  Ga5  1  0.99087600  0.48803800  0.31410500  1
  Ga  Ga6  1  0.50017700  0.00005500  0.62496600  1
  Ga  Ga7  1  0.00135000  0.50064800  0.43725800  1
  Ga  Ga8  1  0.99999900  0.50022900  0.56245800  1
  Ga  Ga9  1  0.49988400  0.99987800  0.75004200  1
  Ga  Ga10  1  0.49952900  0.99992700  0.87478500  1
  Ga  Ga11  1  0.00005700  0.50007200  0.68748600  1
  Ga  Ga12  1  0.99975900  0.49996500  0.81252200  1
  Ga  Ga13  1  0.99822700  0.49542100  0.93718700  1
  O  O0  1  0.25372900  0.20115600  0.03569600  1
  O  O1  1  0.25440400  0.27593800  0.09520600  1
  O  O2  1  0.22989200  0.19243500  0.16266500  1
  O  O3  1  0.78526500  0.70671200  0.02552500  1
  O  O4  1  0.24234100  0.28911500  0.22075600  1
  O  O5  1  0.73423900  0.27093200  0.10302900  1
  O  O6  1  0.22468000  0.17623500  0.29127000  1
  O  O7  1  0.76161600  0.82823900  0.08431000  1
  O  O8  1  0.73308500  0.69185400  0.15514900  1
  O  O9  1  0.24476900  0.31506300  0.34452500  1
  O  O10  1  0.71972700  0.26106300  0.23075200  1
  O  O11  1  0.24541200  0.17258000  0.41613700  1
  O  O12  1  0.77515500  0.82661900  0.20794200  1
  O  O13  1  0.27041500  0.73305100  0.39785600  1
  O  O14  1  0.73316600  0.68808100  0.28248000  1
  O  O15  1  0.23354700  0.31392300  0.47086100  1
  O  O16  1  0.72905400  0.26571900  0.35389900  1
  O  O17  1  0.24920500  0.17189000  0.54107600  1
  O  O18  1  0.76875900  0.82687400  0.33338900  1
  O  O19  1  0.26861000  0.73095500  0.52316400  1
  O  O20  1  0.76489400  0.68537000  0.40460700  1
  O  O21  1  0.23179900  0.31414700  0.59605300  1
  O  O22  1  0.73075800  0.26852300  0.47696100  1
  O  O23  1  0.24969900  0.17209400  0.66599600  1
  O  O24  1  0.75096100  0.82565200  0.45936100  1
  O  O25  1  0.26887700  0.73075900  0.64815800  1
  O  O26  1  0.76722300  0.68526200  0.52916900  1
  O  O27  1  0.23180300  0.31418900  0.72105100  1
  O  O28  1  0.73091000  0.26909600  0.60189600  1
  O  O29  1  0.24928800  0.17102500  0.79109100  1
  O  O30  1  0.75006800  0.82795300  0.58404300  1
  O  O31  1  0.26853400  0.73091400  0.77316400  1
  O  O32  1  0.76750400  0.68577000  0.65404800  1
  O  O33  1  0.23181400  0.31437000  0.84584300  1
  O  O34  1  0.73080000  0.26932700  0.72685600  1
  O  O35  1  0.24866100  0.16619900  0.91568900  1
  O  O36  1  0.75000300  0.82799500  0.70902500  1
  O  O37  1  0.26480200  0.73004500  0.89901100  1
  O  O38  1  0.76802000  0.68560500  0.77897100  1
  O  O39  1  0.23544500  0.30542600  0.96971700  1
  O  O40  1  0.72986700  0.27059500  0.85188200  1
  O  O41  1  0.74757200  0.82857600  0.83400000  1
  O  O42  1  0.77113300  0.68510400  0.90309500  1
  O  O43  1  0.73121900  0.27976900  0.97535400  1
  O  O44  1  0.73217900  0.82190100  0.96018200  1
loop_
_geom_bond_atom_site_label_1
_geom_bond_atom_site_label_2
_geom_bond_distance
_geom_bond_site_symmetry_2
La0 O7 2.316481 1_545
La0 O3 2.538176 1_555
La0 O43 2.543734 1_554
La0 O0 2.739264 1_655
La0 O1 2.755239 1_555
La0 O39 2.757647 1_654
La0 O0 2.813392 1_555
La1 O8 2.349514 1_555
La1 O12 2.386302 1_545
La1 O5 2.400195 1_555
La1 O2 2.563529 1_655
La1 O1 2.664681 1_655
La1 O4 2.921059 1_555
La1 O2 3.018232 1_555
La2 O6 2.387964 1_565
La2 O9 2.426371 1_555
La2 O13 2.434790 1_555
La2 O14 2.706364 1_555
La3 O10 2.311538 1_555
La3 O18 2.407808 1_545
La3 O14 2.411040 1_555
La3 O4 2.599053 1_655
La3 O6 2.611422 1_655
La4 O11 2.385448 1_565
La4 O15 2.431074 1_555
La4 O19 2.432047 1_555
La4 O22 2.685768 1_555
La4 O26 2.689181 1_455
La4 O24 2.800818 1_555
La4 O24 2.808287 1_455
La4 O20 2.869898 1_555
La4 O22 2.928935 1_465
La5 O24 2.383597 1_545
La5 O16 2.393475 1_555
La5 O20 2.413171 1_555
La5 O15 2.871699 1_555
La6 O17 2.390465 1_565
La6 O21 2.427556 1_555
La6 O25 2.429072 1_555
La6 O32 2.679260 1_455
La6 O28 2.684129 1_555
La6 O30 2.801272 1_555
La6 O30 2.814131 1_455
La6 O26 2.892149 1_555
La6 O28 2.929675 1_465
La7 O30 2.397996 1_545
La7 O22 2.422313 1_555
La7 O26 2.426180 1_555
La7 O15 2.678125 1_655
La7 O19 2.686262 1_555
La7 O17 2.805619 1_555
La7 O17 2.812299 1_655
La7 O21 2.905604 1_555
La7 O19 2.926114 1_645
La8 O23 2.392053 1_565
La8 O27 2.427688 1_555
La8 O31 2.429189 1_555
La8 O38 2.676114 1_455
La8 O34 2.684011 1_555
La8 O36 2.801211 1_555
La8 O36 2.814116 1_455
La8 O32 2.895777 1_555
La8 O34 2.929531 1_465
La9 O36 2.394876 1_545
La9 O28 2.425443 1_555
La9 O32 2.427595 1_555
La9 O21 2.671221 1_655
La9 O25 2.685884 1_555
La9 O23 2.803571 1_555
La9 O23 2.812692 1_655
La9 O27 2.903615 1_555
La9 O25 2.927031 1_645
La10 O29 2.393937 1_565
La10 O33 2.426272 1_555
La10 O37 2.451660 1_555
La10 O42 2.640951 1_455
La10 O40 2.679431 1_555
La10 O41 2.796612 1_555
La10 O41 2.821792 1_455
La10 O38 2.906996 1_555
La10 O40 2.934225 1_465
La11 O41 2.392579 1_545
La11 O34 2.426500 1_555
La11 O38 2.426922 1_555
La11 O27 2.673060 1_655
La11 O31 2.685553 1_555
La11 O29 2.805444 1_555
La11 O29 2.812523 1_655
La11 O33 2.896787 1_555
La11 O31 2.927328 1_645
La12 O39 2.405075 1_555
La12 O35 2.408675 1_565
La12 O3 2.537701 1_456
La12 O43 2.634108 1_555
La12 O44 2.773575 1_555
La12 O44 2.838671 1_455
La12 O42 2.916522 1_555
La12 O0 2.986760 1_556
La12 O43 2.991958 1_465
La12 O37 3.093305 1_555
La12 O39 3.196656 1_565
La13 O44 2.417123 1_545
La13 O40 2.418192 1_555
La13 O42 2.442470 1_555
La13 O37 2.691292 1_555
La13 O33 2.699577 1_655
La13 O35 2.803594 1_555
La13 O35 2.809265 1_655
La13 O39 2.838332 1_555
La13 O37 2.913931 1_645
Mg0 O5 1.911832 1_555
Mg0 O1 2.026264 1_655
Mg0 O7 2.034254 1_555
Mg0 O0 2.053203 1_655
Mg0 O3 2.083838 1_555
Mg1 O10 1.912037 1_555
Mg1 O2 2.017764 1_655
Mg1 O12 2.032439 1_555
Mg1 O4 2.036875 1_655
Mg1 O8 2.108398 1_555
Ga0 O0 1.923637 1_556
Ga0 O43 1.945411 1_555
Ga0 O3 1.954734 1_546
Ga0 O44 2.018309 1_545
Ga0 O39 2.038658 1_555
Ga1 O5 1.827594 1_555
Ga1 O1 1.933686 1_555
Ga1 O8 1.953566 1_545
Ga1 O2 1.964244 1_555
Ga1 O7 2.036349 1_545
Ga2 O10 1.852698 1_555
Ga2 O4 1.927244 1_555
Ga2 O12 1.998857 1_545
Ga2 O14 2.040541 1_545
Ga2 O6 2.116478 1_555
Ga3 O16 1.981790 1_555
Ga3 O13 1.999856 1_545
Ga3 O20 2.010730 1_545
Ga3 O9 2.016678 1_555
Ga3 O11 2.030690 1_555
Ga3 O18 2.042517 1_545
Ga4 O22 1.997854 1_565
Ga4 O19 2.000827 1_555
Ga4 O26 2.011194 1_555
Ga4 O15 2.014815 1_565
Ga4 O17 2.018035 1_565
Ga4 O24 2.020090 1_555
Ga5 O16 1.947965 1_555
Ga5 O6 1.989304 1_655
Ga5 O9 2.010761 1_655
Ga5 O18 2.022432 1_555
Ga5 O14 2.042915 1_555
Ga6 O28 1.999343 1_555
Ga6 O25 2.001870 1_545
Ga6 O21 2.011792 1_555
Ga6 O32 2.012759 1_545
Ga6 O30 2.018125 1_545
Ga6 O23 2.021714 1_555
Ga7 O13 2.000963 1_555
Ga7 O20 2.002323 1_455
Ga7 O22 2.007774 1_455
Ga7 O11 2.014569 1_555
Ga7 O15 2.016922 1_555
Ga7 O24 2.026022 1_455
Ga8 O19 1.993076 1_655
Ga8 O28 1.997217 1_555
Ga8 O26 2.009585 1_555
Ga8 O21 2.015594 1_655
Ga8 O17 2.022113 1_655
Ga8 O30 2.024608 1_555
Ga9 O34 2.001016 1_565
Ga9 O31 2.001139 1_555
Ga9 O38 2.011553 1_555
Ga9 O27 2.013023 1_565
Ga9 O29 2.019450 1_565
Ga9 O36 2.020762 1_555
Ga10 O35 1.998331 1_565
Ga10 O40 2.006522 1_565
Ga10 O42 2.008157 1_555
Ga10 O33 2.010604 1_565
Ga10 O37 2.010758 1_555
Ga10 O41 2.010846 1_555
Ga11 O25 1.993946 1_555
Ga11 O34 1.995981 1_455
Ga11 O32 2.013414 1_455
Ga11 O27 2.014468 1_555
Ga11 O23 2.023281 1_555
Ga11 O36 2.024289 1_455
Ga12 O40 1.993641 1_555
Ga12 O31 1.994885 1_655
Ga12 O33 2.007160 1_655
Ga12 O38 2.014168 1_555
Ga12 O41 2.025681 1_555
Ga12 O29 2.026082 1_655
Ga13 O43 1.929936 1_555
Ga13 O37 1.990451 1_655
Ga13 O39 1.996202 1_655
Ga13 O42 2.010681 1_555
Ga13 O35 2.029042 1_655
Ga13 O44 2.056237 1_555
O0 Sr0 2.527247 1_545
O1 Sr0 2.622288 1_555
O1 Sr0 2.982185 1_545
O2 Sr1 2.472394 1_545
O2 Sr0 3.147433 1_555
O3 Sr0 2.984590 1_555
O4 Sr1 2.574778 1_555
O4 Sr1 3.029859 1_545
O5 Sr0 2.739866 1_555
O5 Sr0 2.904778 1_645
O7 Sr0 2.721226 1_655
O7 Sr0 2.872594 1_555
O8 Sr1 2.747598 1_555
O8 Sr0 2.835480 1_655
O10 Sr1 2.718306 1_555
O10 Sr1 2.944210 1_645
O12 Sr1 2.712724 1_655
O12 Sr1 2.891330 1_555
O14 Sr1 2.894481 1_655
