# generated using pymatgen
data_Cu3Pd
_symmetry_space_group_name_H-M   'P 1'
_cell_length_a   3.72124700
_cell_length_b   3.72124700
_cell_length_c   25.86954400
_cell_angle_alpha   90.00000000
_cell_angle_beta   90.00000000
_cell_angle_gamma   90.00000000
_symmetry_Int_Tables_number   1
_chemical_formula_structural   Cu3Pd
_chemical_formula_sum   'Cu21 Pd7'
_cell_volume   358.23314727
_cell_formula_units_Z   7
loop_
 _symmetry_equiv_pos_site_id
 _symmetry_equiv_pos_as_xyz
  1  'x, y, z'
loop_
 _atom_site_type_symbol
 _atom_site_label
 _atom_site_symmetry_multiplicity
 _atom_site_fract_x
 _atom_site_fract_y
 _atom_site_fract_z
 _atom_site_occupancy
  Cu  Cu0  1  0.50000000  0.50000000  0.99860500  1
  Cu  Cu1  1  0.50000000  0.50000000  0.28569000  1
  Cu  Cu2  1  0.00000000  0.50000000  0.63904500  1
  Cu  Cu3  1  0.00000000  0.50000000  0.92616300  1
  Cu  Cu4  1  0.50000000  0.00000000  0.63904500  1
  Cu  Cu5  1  0.00000000  0.00000000  0.56840100  1
  Cu  Cu6  1  0.50000000  0.00000000  0.92616300  1
  Cu  Cu7  1  0.50000000  0.00000000  0.78162100  1
  Cu  Cu8  1  0.00000000  0.50000000  0.35700600  1
  Cu  Cu9  1  0.50000000  0.00000000  0.21422500  1
  Cu  Cu10  1  0.00000000  0.50000000  0.49827700  1
  Cu  Cu11  1  0.50000000  0.00000000  0.07059400  1
  Cu  Cu12  1  0.00000000  0.50000000  0.07059400  1
  Cu  Cu13  1  0.00000000  0.00000000  0.70966100  1
  Cu  Cu14  1  0.50000000  0.00000000  0.35700600  1
  Cu  Cu15  1  0.00000000  0.50000000  0.21422500  1
  Cu  Cu16  1  0.50000000  0.50000000  0.14280200  1
  Cu  Cu17  1  0.00000000  0.00000000  0.85385500  1
  Cu  Cu18  1  0.50000000  0.00000000  0.49827700  1
  Cu  Cu19  1  0.00000000  0.50000000  0.78162100  1
  Cu  Cu20  1  0.50000000  0.50000000  0.42801400  1
  Pd  Pd0  1  0.00000000  0.00000000  0.42786500  1
  Pd  Pd1  1  0.00000000  0.00000000  0.14234500  1
  Pd  Pd2  1  0.50000000  0.50000000  0.71011700  1
  Pd  Pd3  1  0.50000000  0.50000000  0.85390200  1
  Pd  Pd4  1  0.50000000  0.50000000  0.56835700  1
  Pd  Pd5  1  0.00000000  0.00000000  0.99833500  1
  Pd  Pd6  1  0.00000000  0.00000000  0.28588900  1
loop_
_geom_bond_atom_site_label_1
_geom_bond_atom_site_label_2
_geom_bond_distance
_geom_bond_site_symmetry_2
Cu0 Pd5 2.631328 1_655
Cu0 Pd5 2.631328 1_665
Cu0 Pd5 2.631328 1_555
Cu0 Pd5 2.631328 1_565
Cu0 Cu11 2.632521 1_556
Cu0 Cu12 2.632521 1_556
Cu0 Cu12 2.632521 1_656
Cu0 Cu11 2.632521 1_566
Cu0 Cu3 2.640824 1_655
Cu0 Cu3 2.640824 1_555
Cu0 Cu6 2.640824 1_555
Cu0 Cu6 2.640824 1_565
Cu1 Cu8 2.620233 1_655
Cu1 Cu8 2.620233 1_555
Cu1 Cu14 2.620233 1_555
Cu1 Cu14 2.620233 1_565
Cu1 Cu15 2.622949 1_655
Cu1 Cu9 2.622949 1_565
Cu1 Cu9 2.622949 1_555
Cu1 Cu15 2.622949 1_555
Cu1 Pd6 2.631324 1_665
Cu1 Pd6 2.631324 1_655
Cu1 Pd6 2.631324 1_565
Cu1 Pd6 2.631324 1_555
Cu2 Cu5 2.608022 1_565
Cu2 Cu5 2.608022 1_555
Cu2 Pd4 2.608820 1_455
Cu2 Pd4 2.608820 1_555
Cu2 Pd2 2.615793 1_455
Cu2 Pd2 2.615793 1_555
Cu2 Cu4 2.631319 1_555
Cu2 Cu4 2.631319 1_465
Cu2 Cu4 2.631319 1_455
Cu2 Cu4 2.631319 1_565
Cu3 Cu6 2.631319 1_555
Cu3 Cu6 2.631319 1_565
Cu3 Cu6 2.631319 1_465
Cu3 Cu6 2.631319 1_455
Cu3 Pd5 2.635872 1_555
Cu3 Pd5 2.635872 1_565
Cu3 Pd3 2.637503 1_455
Cu3 Pd3 2.637503 1_555
Cu4 Cu5 2.608022 1_655
Cu4 Cu5 2.608022 1_555
Cu4 Pd4 2.608820 1_555
Cu4 Pd4 2.608820 1_545
Cu4 Pd2 2.615793 1_545
Cu4 Pd2 2.615793 1_555
Cu5 Pd4 2.631319 1_455
Cu5 Pd4 2.631319 1_555
Cu5 Pd4 2.631319 1_545
Cu5 Pd4 2.631319 1_445
Cu6 Pd5 2.635872 1_555
Cu6 Pd5 2.635872 1_655
Cu6 Pd3 2.637503 1_545
Cu6 Pd3 2.637503 1_555
Cu7 Pd2 2.623660 1_545
Cu7 Pd2 2.623660 1_555
Cu7 Pd3 2.637870 1_545
Cu7 Pd3 2.637870 1_555
Cu8 Pd0 2.611922 1_555
Cu8 Pd0 2.611922 1_565
Cu8 Pd6 2.616611 1_555
Cu8 Pd6 2.616611 1_565
Cu9 Pd6 2.626580 1_655
Cu9 Pd6 2.626580 1_555
Cu9 Pd1 2.630527 1_655
Cu9 Pd1 2.630527 1_555
Cu10 Pd4 2.597819 1_555
Cu10 Pd4 2.597819 1_455
Cu10 Cu5 2.598613 1_565
Cu10 Cu5 2.598613 1_555
Cu10 Cu20 2.601125 1_555
Cu10 Cu20 2.601125 1_455
Cu10 Pd0 2.603820 1_555
Cu10 Pd0 2.603820 1_565
Cu10 Cu18 2.631319 1_565
Cu10 Cu18 2.631319 1_555
Cu10 Cu18 2.631319 1_465
Cu10 Cu18 2.631319 1_455
Cu11 Pd1 2.628169 1_555
Cu11 Pd1 2.628169 1_655
Cu11 Cu12 2.631319 1_555
Cu11 Cu12 2.631319 1_545
Cu11 Cu12 2.631319 1_655
Cu11 Cu12 2.631319 1_645
Cu11 Cu16 2.636532 1_555
Cu11 Cu16 2.636532 1_545
Cu11 Pd5 2.637467 1_554
Cu11 Pd5 2.637467 1_654
Cu12 Pd1 2.628169 1_565
Cu12 Pd1 2.628169 1_555
Cu12 Cu16 2.636532 1_555
Cu12 Cu16 2.636532 1_455
Cu12 Pd5 2.637467 1_554
Cu12 Pd5 2.637467 1_564
Cu13 Cu2 2.607514 1_555
Cu13 Cu2 2.607514 1_545
Cu13 Cu4 2.607514 1_455
Cu13 Cu4 2.607514 1_555
Cu13 Pd2 2.631345 1_445
Cu13 Pd2 2.631345 1_545
Cu13 Pd2 2.631345 1_455
Cu13 Pd2 2.631345 1_555
Cu13 Cu7 2.631990 1_555
Cu13 Cu19 2.631990 1_545
Cu13 Cu19 2.631990 1_555
Cu13 Cu7 2.631990 1_455
Cu14 Pd0 2.611922 1_555
Cu14 Pd0 2.611922 1_655
Cu14 Cu20 2.614629 1_545
Cu14 Cu20 2.614629 1_555
Cu14 Pd6 2.616611 1_555
Cu14 Pd6 2.616611 1_655
Cu14 Cu8 2.631319 1_655
Cu14 Cu8 2.631319 1_555
Cu14 Cu8 2.631319 1_545
Cu14 Cu8 2.631319 1_645
Cu15 Cu16 2.622183 1_455
Cu15 Cu16 2.622183 1_555
Cu15 Pd6 2.626580 1_565
Cu15 Pd6 2.626580 1_555
Cu15 Pd1 2.630527 1_565
Cu15 Pd1 2.630527 1_555
Cu15 Cu9 2.631319 1_455
Cu15 Cu9 2.631319 1_565
Cu15 Cu9 2.631319 1_465
Cu15 Cu9 2.631319 1_555
Cu16 Cu9 2.622183 1_565
Cu16 Cu9 2.622183 1_555
Cu16 Pd1 2.631346 1_555
Cu16 Pd1 2.631346 1_565
Cu16 Pd1 2.631346 1_655
Cu16 Pd1 2.631346 1_665
Cu17 Pd3 2.631319 1_455
Cu17 Pd3 2.631319 1_555
Cu17 Pd3 2.631319 1_445
Cu17 Pd3 2.631319 1_545
Cu17 Cu7 2.637008 1_455
Cu17 Cu7 2.637008 1_555
Cu17 Cu19 2.637008 1_545
Cu17 Cu19 2.637008 1_555
Cu17 Cu6 2.638365 1_555
Cu17 Cu3 2.638365 1_545
Cu17 Cu6 2.638365 1_455
Cu17 Cu3 2.638365 1_555
Cu18 Pd4 2.597819 1_555
Cu18 Pd4 2.597819 1_545
Cu18 Cu5 2.598613 1_655
Cu18 Cu5 2.598613 1_555
Cu18 Cu20 2.601125 1_555
Cu18 Cu20 2.601125 1_545
Cu18 Pd0 2.603820 1_555
Cu18 Pd0 2.603820 1_655
Cu19 Pd2 2.623660 1_455
Cu19 Pd2 2.623660 1_555
Cu19 Cu7 2.631319 1_455
Cu19 Cu7 2.631319 1_555
Cu19 Cu7 2.631319 1_565
Cu19 Cu7 2.631319 1_465
Cu19 Pd3 2.637870 1_455
Cu19 Pd3 2.637870 1_555
Cu20 Cu8 2.614629 1_655
Cu20 Cu8 2.614629 1_555
Cu20 Pd0 2.631322 1_565
Cu20 Pd0 2.631322 1_655
Cu20 Pd0 2.631322 1_665
Cu20 Pd0 2.631322 1_555
