# generated using pymatgen
data_CoH22N7(ClO2)4
_symmetry_space_group_name_H-M   'P 1'
_cell_length_a   7.87660553
_cell_length_b   7.87660553
_cell_length_c   10.30100783
_cell_angle_alpha   65.57746882
_cell_angle_beta   65.57746882
_cell_angle_gamma   55.26669207
_symmetry_Int_Tables_number   1
_chemical_formula_structural   CoH22N7(ClO2)4
_chemical_formula_sum   'Co1 H22 N7 Cl4 O8'
_cell_volume   464.50259742
_cell_formula_units_Z   1
loop_
 _symmetry_equiv_pos_site_id
 _symmetry_equiv_pos_as_xyz
  1  'x, y, z'
loop_
 _atom_site_type_symbol
 _atom_site_label
 _atom_site_symmetry_multiplicity
 _atom_site_fract_x
 _atom_site_fract_y
 _atom_site_fract_z
 _atom_site_occupancy
  Co  Co0  1  0.05418200  0.05418200  0.82362800  1
  H  H0  1  0.47592200  0.62367300  0.42543300  1
  H  H1  1  0.62367300  0.47592200  0.42543300  1
  H  H2  1  0.33539800  0.54969800  0.53489700  1
  H  H3  1  0.54969800  0.33539800  0.53489700  1
  H  H4  1  0.98881500  0.76182100  0.85095200  1
  H  H5  1  0.42135500  0.76991400  0.83135400  1
  H  H6  1  0.76991400  0.42135500  0.83135400  1
  H  H7  1  0.97588900  0.38974100  0.85473800  1
  H  H8  1  0.76182100  0.98881500  0.85095200  1
  H  H9  1  0.38974100  0.97588900  0.85473800  1
  H  H10  1  0.21305700  0.50787700  0.06983400  1
  H  H11  1  0.20900500  0.71299500  0.08410000  1
  H  H12  1  0.98147200  0.71332900  0.10895500  1
  H  H13  1  0.11890800  0.55788500  0.24214700  1
  H  H14  1  0.50787700  0.21305700  0.06983400  1
  H  H15  1  0.20526000  0.20526000  0.06772600  1
  H  H16  1  0.71299500  0.20900500  0.08410000  1
  H  H17  1  0.97757700  0.21055300  0.09979700  1
  H  H18  1  0.21055300  0.97757700  0.09979700  1
  H  H19  1  0.71332900  0.98147200  0.10895500  1
  H  H20  1  0.55788500  0.11890800  0.24214700  1
  H  H21  1  0.09590500  0.09590500  0.24173600  1
  N  N0  1  0.90826800  0.90826800  0.87328400  1
  N  N1  1  0.31593800  0.88569000  0.88969800  1
  N  N2  1  0.88569000  0.31593800  0.88969800  1
  N  N3  1  0.49501100  0.49501100  0.53189700  1
  N  N4  1  0.12920500  0.62338400  0.13154700  1
  N  N5  1  0.62338400  0.12920500  0.13154700  1
  N  N6  1  0.11996400  0.11996400  0.13124800  1
  Cl  Cl0  1  0.83526700  0.83526700  0.53328600  1
  Cl  Cl1  1  0.61986800  0.61986800  0.20180600  1
  Cl  Cl2  1  0.35576100  0.35576100  0.90878000  1
  Cl  Cl3  1  0.17654400  0.17654400  0.44093000  1
  O  O0  1  0.88899900  0.88899900  0.37174300  1
  O  O1  1  0.30957700  0.98413100  0.38626100  1
  O  O2  1  0.29401500  0.29401500  0.38929800  1
  O  O3  1  0.98413100  0.30957700  0.38626100  1
  O  O4  1  0.71819600  0.71819600  0.58992900  1
  O  O5  1  0.03115800  0.70523300  0.58564800  1
  O  O6  1  0.70523300  0.03115800  0.58564800  1
  O  O7  1  0.12126000  0.12126000  0.60088900  1
loop_
_geom_bond_atom_site_label_1
_geom_bond_atom_site_label_2
_geom_bond_distance
_geom_bond_site_symmetry_2
Co0 N0 1.853748 1_445
Co0 N2 1.941846 1_455
Co0 N1 1.941846 1_545
Co0 O7 2.033701 1_555
H0 N3 1.138430 1_555
H1 N3 1.138430 1_555
H2 N3 1.062478 1_555
H3 N3 1.062478 1_555
H4 N0 1.025094 1_555
H5 N1 1.029547 1_555
H6 N2 1.029547 1_555
H7 N2 1.028743 1_555
H8 N0 1.025094 1_555
H9 N1 1.028743 1_555
H10 N4 1.055662 1_555
H11 N4 1.048044 1_555
H12 N4 1.028743 1_655
H13 N4 1.027596 1_555
H14 N5 1.055662 1_555
H15 N6 1.057449 1_555
H16 N5 1.048044 1_555
H17 N6 1.034081 1_655
H18 N6 1.034081 1_565
H19 N5 1.028743 1_565
H20 N5 1.027596 1_555
H21 N6 1.025377 1_555
Cl0 O4 1.456080 1_555
Cl0 O5 1.466710 1_655
Cl0 O6 1.466710 1_565
Cl0 O0 1.471962 1_555
Cl1 H1 2.109859 1_555
Cl1 H0 2.109859 1_555
Cl2 H15 1.970434 1_556
Cl2 H14 2.004596 1_556
Cl2 H10 2.004596 1_556
Cl3 O1 1.456094 1_545
Cl3 O3 1.456094 1_455
Cl3 O7 1.457291 1_555
Cl3 O2 1.468612 1_555
