# generated using pymatgen
data_UH12C4SN2O9
_symmetry_space_group_name_H-M   'P 1'
_cell_length_a   11.22127929
_cell_length_b   11.22127929
_cell_length_c   8.56763356
_cell_angle_alpha   82.78736077
_cell_angle_beta   82.78736077
_cell_angle_gamma   36.32864648
_symmetry_Int_Tables_number   1
_chemical_formula_structural   UH12C4SN2O9
_chemical_formula_sum   'U2 H24 C8 S2 N4 O18'
_cell_volume   633.50131971
_cell_formula_units_Z   2
loop_
 _symmetry_equiv_pos_site_id
 _symmetry_equiv_pos_as_xyz
  1  'x, y, z'
loop_
 _atom_site_type_symbol
 _atom_site_label
 _atom_site_symmetry_multiplicity
 _atom_site_fract_x
 _atom_site_fract_y
 _atom_site_fract_z
 _atom_site_occupancy
  U  U0  1  0.35521500  0.35521500  0.35847500  1
  U  U1  1  0.64478500  0.64478500  0.64152500  1
  H  H0  1  0.88163800  0.88163800  0.08830900  1
  H  H1  1  0.11836200  0.11836200  0.91169100  1
  H  H2  1  0.81338900  0.07258900  0.97071800  1
  H  H3  1  0.07258900  0.81338900  0.97071800  1
  H  H4  1  0.18661100  0.92741100  0.02928200  1
  H  H5  1  0.92741100  0.18661100  0.02928200  1
  H  H6  1  0.82215700  0.08040100  0.69060100  1
  H  H7  1  0.08040100  0.82215700  0.69060100  1
  H  H8  1  0.17784300  0.91959900  0.30939900  1
  H  H9  1  0.91959900  0.17784300  0.30939900  1
  H  H10  1  0.89596300  0.89596300  0.58985500  1
  H  H11  1  0.10403700  0.10403700  0.41014500  1
  H  H12  1  0.97049800  0.63226200  0.95709300  1
  H  H13  1  0.63226200  0.97049800  0.95709300  1
  H  H14  1  0.02950200  0.36773800  0.04290700  1
  H  H15  1  0.36773800  0.02950200  0.04290700  1
  H  H16  1  0.16699800  0.56042500  0.84449700  1
  H  H17  1  0.56042500  0.16699800  0.84449700  1
  H  H18  1  0.83300200  0.43957500  0.15550300  1
  H  H19  1  0.43957500  0.83300200  0.15550300  1
  H  H20  1  0.97956700  0.63695600  0.74596800  1
  H  H21  1  0.63695600  0.97956700  0.74596800  1
  H  H22  1  0.02043300  0.36304400  0.25403200  1
  H  H23  1  0.36304400  0.02043300  0.25403200  1
  C  C0  1  0.91379300  0.91379300  0.97788300  1
  C  C1  1  0.08620700  0.08620700  0.02211700  1
  C  C2  1  0.92195700  0.92195700  0.69170200  1
  C  C3  1  0.07804300  0.07804300  0.30829800  1
  C  C4  1  0.00905400  0.65960600  0.84767900  1
  C  C5  1  0.65960600  0.00905400  0.84767900  1
  C  C6  1  0.99094600  0.34039400  0.15232100  1
  C  C7  1  0.34039400  0.99094600  0.15232100  1
  S  S0  1  0.79634900  0.79634900  0.37481000  1
  S  S1  1  0.20365100  0.20365100  0.62519000  1
  N  N0  1  0.87598400  0.87598400  0.84131800  1
  N  N1  1  0.12401600  0.12401600  0.15868200  1
  N  N2  1  0.48796100  0.48796100  0.20019900  1
  N  N3  1  0.51203900  0.51203900  0.79980100  1
  O  O0  1  0.38493400  0.38493400  0.54610800  1
  O  O1  1  0.61506600  0.61506600  0.45389200  1
  O  O2  1  0.32865400  0.32865400  0.16763700  1
  O  O3  1  0.67134600  0.67134600  0.83236300  1
  O  O4  1  0.30176700  0.61312200  0.23843500  1
  O  O5  1  0.61312200  0.30176700  0.23843500  1
  O  O6  1  0.69823300  0.38687800  0.76156500  1
  O  O7  1  0.38687800  0.69823300  0.76156500  1
  O  O8  1  0.00915900  0.66807100  0.38335000  1
  O  O9  1  0.66807100  0.00915900  0.38335000  1
  O  O10  1  0.99084100  0.33192900  0.61665000  1
  O  O11  1  0.33192900  0.99084100  0.61665000  1
  O  O12  1  0.24924200  0.24924200  0.47457100  1
  O  O13  1  0.75075800  0.75075800  0.52542900  1
  O  O14  1  0.54241800  0.54241800  0.13128600  1
  O  O15  1  0.45758200  0.45758200  0.86871400  1
  O  O16  1  0.76489000  0.76489000  0.23541400  1
  O  O17  1  0.23511000  0.23511000  0.76458600  1
loop_
_geom_bond_atom_site_label_1
_geom_bond_atom_site_label_2
_geom_bond_distance
_geom_bond_site_symmetry_2
C0 H0 1.092613 1_556
C0 H3 1.097005 1_655
C0 H2 1.097005 1_565
C0 N0 1.506095 1_555
C1 H1 1.092613 1_554
C1 H5 1.097005 1_455
C1 H4 1.097005 1_545
C1 N1 1.506095 1_555
C2 H10 1.093838 1_555
C2 H6 1.097990 1_565
C2 H7 1.097990 1_655
C2 N0 1.507352 1_555
C3 H11 1.093838 1_555
C3 H9 1.097990 1_455
C3 H8 1.097990 1_545
C3 N1 1.507352 1_555
C4 H20 1.094066 1_455
C4 H16 1.094446 1_555
C4 H12 1.095407 1_455
C4 N0 1.507801 1_455
C5 H21 1.094066 1_545
C5 H17 1.094446 1_555
C5 H13 1.095407 1_545
C5 N0 1.507801 1_545
C6 H22 1.094066 1_655
C6 H18 1.094446 1_555
C6 H14 1.095407 1_655
C6 N1 1.507801 1_655
C7 H23 1.094066 1_565
C7 H19 1.094446 1_555
C7 H15 1.095407 1_565
C7 N1 1.507801 1_565
N2 O14 1.231221 1_555
N2 O4 1.288693 1_555
N2 O5 1.288693 1_555
N3 O15 1.231221 1_555
N3 O7 1.288693 1_555
N3 O6 1.288693 1_555
O0 U0 1.804199 1_555
O1 U1 1.804199 1_555
O2 U0 1.799683 1_555
O3 U1 1.799683 1_555
O4 U0 2.530560 1_555
O5 U0 2.530560 1_555
O6 U1 2.530560 1_555
O7 U1 2.530560 1_555
O8 S0 1.502923 1_455
O8 U0 2.337459 1_555
O9 S0 1.502923 1_545
O9 U0 2.337459 1_555
O10 S1 1.502923 1_655
O10 U1 2.337459 1_555
O11 S1 1.502923 1_565
O11 U1 2.337459 1_555
O12 S1 1.509590 1_555
O12 U0 2.345629 1_555
O13 S0 1.509590 1_555
O13 U1 2.345629 1_555
O16 S0 1.445022 1_555
O17 S1 1.445022 1_555
