# generated using pymatgen
data_Tm2Ga8Fe
_symmetry_space_group_name_H-M   'P 1'
_cell_length_a   4.21316200
_cell_length_b   4.21316200
_cell_length_c   11.16336700
_cell_angle_alpha   90.00000000
_cell_angle_beta   90.00000000
_cell_angle_gamma   90.00000000
_symmetry_Int_Tables_number   1
_chemical_formula_structural   Tm2Ga8Fe
_chemical_formula_sum   'Tm2 Ga8 Fe1'
_cell_volume   198.15795859
_cell_formula_units_Z   1
loop_
 _symmetry_equiv_pos_site_id
 _symmetry_equiv_pos_as_xyz
  1  'x, y, z'
loop_
 _atom_site_type_symbol
 _atom_site_label
 _atom_site_symmetry_multiplicity
 _atom_site_fract_x
 _atom_site_fract_y
 _atom_site_fract_z
 _atom_site_occupancy
  Tm  Tm0  1  0.50000000  0.50000000  0.69439800  1
  Tm  Tm1  1  0.50000000  0.50000000  0.30560200  1
  Ga  Ga0  1  0.00000000  0.50000000  0.88453200  1
  Ga  Ga1  1  0.00000000  0.00000000  0.30113400  1
  Ga  Ga2  1  0.00000000  0.50000000  0.11546800  1
  Ga  Ga3  1  0.50000000  0.00000000  0.88453200  1
  Ga  Ga4  1  0.50000000  0.00000000  0.11546800  1
  Ga  Ga5  1  0.50000000  0.00000000  0.50000000  1
  Ga  Ga6  1  0.00000000  0.00000000  0.69886600  1
  Ga  Ga7  1  0.00000000  0.50000000  0.50000000  1
  Fe  Fe0  1  0.50000000  0.50000000  0.00000000  1
loop_
_geom_bond_atom_site_label_1
_geom_bond_atom_site_label_2
_geom_bond_distance
_geom_bond_site_symmetry_2
Ga0 Ga2 2.578023 1_556
Ga0 Ga6 2.955265 1_555
Ga0 Ga6 2.955265 1_565
Ga0 Ga3 2.979155 1_565
Ga0 Ga3 2.979155 1_555
Ga0 Ga3 2.979155 1_455
Ga0 Ga3 2.979155 1_465
Ga0 Tm0 2.990458 1_455
Ga0 Tm0 2.990458 1_555
Ga1 Ga2 2.955265 1_545
Ga1 Ga2 2.955265 1_555
Ga1 Ga4 2.955265 1_455
Ga1 Ga4 2.955265 1_555
Ga1 Tm1 2.979573 1_455
Ga1 Tm1 2.979573 1_555
Ga1 Tm1 2.979573 1_445
Ga1 Tm1 2.979573 1_545
Ga1 Ga5 3.060416 1_455
Ga1 Ga5 3.060416 1_555
Ga1 Ga7 3.060416 1_545
Ga1 Ga7 3.060416 1_555
Ga2 Ga4 2.979155 1_455
Ga2 Ga4 2.979155 1_465
Ga2 Ga4 2.979155 1_565
Ga2 Ga4 2.979155 1_555
Ga2 Tm1 2.990458 1_455
Ga2 Tm1 2.990458 1_555
Ga3 Ga4 2.578023 1_556
Ga3 Ga6 2.955265 1_655
Ga3 Ga6 2.955265 1_555
Ga3 Tm0 2.990458 1_545
Ga3 Tm0 2.990458 1_555
Ga4 Tm1 2.990458 1_545
Ga4 Tm1 2.990458 1_555
Ga5 Ga7 2.979155 1_645
Ga5 Ga7 2.979155 1_655
Ga5 Ga7 2.979155 1_545
Ga5 Ga7 2.979155 1_555
Ga5 Tm0 3.024430 1_545
Ga5 Tm0 3.024430 1_555
Ga5 Tm1 3.024430 1_555
Ga5 Tm1 3.024430 1_545
Ga5 Ga6 3.060416 1_655
Ga5 Ga6 3.060416 1_555
Ga6 Tm0 2.979573 1_545
Ga6 Tm0 2.979573 1_445
Ga6 Tm0 2.979573 1_555
Ga6 Tm0 2.979573 1_455
Ga6 Ga7 3.060416 1_545
Ga6 Ga7 3.060416 1_555
Ga7 Tm0 3.024430 1_455
Ga7 Tm0 3.024430 1_555
Ga7 Tm1 3.024430 1_455
Ga7 Tm1 3.024430 1_555
Fe0 Ga4 2.469663 1_565
Fe0 Ga4 2.469663 1_555
Fe0 Ga3 2.469663 1_564
Fe0 Ga0 2.469663 1_654
Fe0 Ga0 2.469663 1_554
Fe0 Ga3 2.469663 1_554
Fe0 Ga2 2.469663 1_655
Fe0 Ga2 2.469663 1_555
