# generated using pymatgen
data_CrCo3C16NO14
_symmetry_space_group_name_H-M   'P 1'
_cell_length_a   10.96724800
_cell_length_b   9.03819700
_cell_length_c   11.72451079
_cell_angle_alpha   89.72424447
_cell_angle_beta   90.00000000
_cell_angle_gamma   90.00000000
_symmetry_Int_Tables_number   1
_chemical_formula_structural   CrCo3C16NO14
_chemical_formula_sum   'Cr2 Co6 C32 N2 O28'
_cell_volume   1162.16868238
_cell_formula_units_Z   2
loop_
 _symmetry_equiv_pos_site_id
 _symmetry_equiv_pos_as_xyz
  1  'x, y, z'
loop_
 _atom_site_type_symbol
 _atom_site_label
 _atom_site_symmetry_multiplicity
 _atom_site_fract_x
 _atom_site_fract_y
 _atom_site_fract_z
 _atom_site_occupancy
  Cr  Cr0  1  0.75000000  0.08708500  0.88423800  1
  Cr  Cr1  1  0.25000000  0.91291500  0.11576200  1
  Co  Co0  1  0.13558000  0.75347600  0.63640900  1
  Co  Co1  1  0.25000000  0.53651500  0.71759600  1
  Co  Co2  1  0.63558000  0.24652400  0.36359100  1
  Co  Co3  1  0.86442000  0.24652400  0.36359100  1
  Co  Co4  1  0.36442000  0.75347600  0.63640900  1
  Co  Co5  1  0.75000000  0.46348500  0.28240400  1
  C  C0  1  0.88461500  0.05406200  0.38079700  1
  C  C1  1  0.25000000  0.97095500  0.27108800  1
  C  C2  1  0.75000000  0.15391300  0.04188500  1
  C  C3  1  0.49522600  0.28119800  0.29446100  1
  C  C4  1  0.25000000  0.70797900  0.15762600  1
  C  C5  1  0.99522600  0.71880200  0.70553900  1
  C  C6  1  0.00477400  0.28119800  0.29446100  1
  C  C7  1  0.25000000  0.73984400  0.75900600  1
  C  C8  1  0.25000000  0.84608700  0.95811500  1
  C  C9  1  0.25000000  0.11242500  0.06080800  1
  C  C10  1  0.75000000  0.88757500  0.93919200  1
  C  C11  1  0.62968200  0.53399500  0.19761500  1
  C  C12  1  0.92337300  0.08218600  0.87907500  1
  C  C13  1  0.87031800  0.53399500  0.19761500  1
  C  C14  1  0.11538500  0.94593800  0.61920300  1
  C  C15  1  0.38461500  0.94593800  0.61920300  1
  C  C16  1  0.10760600  0.68323100  0.49497200  1
  C  C17  1  0.42337300  0.91781400  0.12092500  1
  C  C18  1  0.25000000  0.41941500  0.59257700  1
  C  C19  1  0.50477400  0.71880200  0.70553900  1
  C  C20  1  0.12968200  0.46600500  0.80238500  1
  C  C21  1  0.57662700  0.08218600  0.87907500  1
  C  C22  1  0.07662700  0.91781400  0.12092500  1
  C  C23  1  0.75000000  0.58058500  0.40742300  1
  C  C24  1  0.75000000  0.26015600  0.24099400  1
  C  C25  1  0.75000000  0.02904500  0.72891200  1
  C  C26  1  0.37031800  0.46600500  0.80238500  1
  C  C27  1  0.60760600  0.31676900  0.50502800  1
  C  C28  1  0.61538500  0.05406200  0.38079700  1
  C  C29  1  0.75000000  0.29202100  0.84237400  1
  C  C30  1  0.39239400  0.68323100  0.49497200  1
  C  C31  1  0.89239400  0.31676900  0.50502800  1
  N  N0  1  0.75000000  0.19984200  0.13712200  1
  N  N1  1  0.25000000  0.80015800  0.86287800  1
  O  O0  1  0.44715300  0.42112900  0.86068200  1
  O  O1  1  0.59813400  0.92830500  0.39221400  1
  O  O2  1  0.97127000  0.92506100  0.12732900  1
  O  O3  1  0.52873000  0.92506100  0.12732900  1
  O  O4  1  0.02873000  0.07493900  0.87267100  1
  O  O5  1  0.90252100  0.70063000  0.75062500  1
  O  O6  1  0.08611800  0.63850500  0.40463100  1
  O  O7  1  0.25000000  0.58298100  0.17899700  1
  O  O8  1  0.41388200  0.63850500  0.40463100  1
  O  O9  1  0.40186600  0.07169500  0.60778600  1
  O  O10  1  0.25000000  0.34631300  0.51169900  1
  O  O11  1  0.75000000  0.76869900  0.97607200  1
  O  O12  1  0.75000000  0.99552800  0.63322100  1
  O  O13  1  0.75000000  0.65368700  0.48830100  1
  O  O14  1  0.91388200  0.36149500  0.59536900  1
  O  O15  1  0.58611800  0.36149500  0.59536900  1
  O  O16  1  0.09813400  0.07169500  0.60778600  1
  O  O17  1  0.05284700  0.42112900  0.86068200  1
  O  O18  1  0.75000000  0.41701900  0.82100300  1
  O  O19  1  0.25000000  0.00447200  0.36677900  1
  O  O20  1  0.59747900  0.70063000  0.75062500  1
  O  O21  1  0.40252100  0.29937000  0.24937500  1
  O  O22  1  0.94715300  0.57887100  0.13931800  1
  O  O23  1  0.47127000  0.07493900  0.87267100  1
  O  O24  1  0.09747900  0.29937000  0.24937500  1
  O  O25  1  0.25000000  0.23130100  0.02392800  1
  O  O26  1  0.90186600  0.92830500  0.39221400  1
  O  O27  1  0.55284700  0.57887100  0.13931800  1
loop_
_geom_bond_atom_site_label_1
_geom_bond_atom_site_label_2
_geom_bond_distance
_geom_bond_site_symmetry_2
C0 O26 1.159373 1_545
C0 Co3 1.764162 1_555
C1 O19 1.163515 1_565
C1 Cr1 1.897593 1_555
C2 N0 1.193145 1_555
C2 Cr0 1.947282 1_554
C3 O21 1.157276 1_555
C3 Co2 1.766958 1_555
C4 O7 1.156031 1_555
C4 Cr1 1.913898 1_555
C5 O5 1.157276 1_555
C5 Co0 1.766958 1_655
C6 O24 1.157276 1_555
C6 Co3 1.766958 1_455
C7 N1 1.336679 1_555
C7 Co1 1.903038 1_555
C7 Co0 1.911615 1_555
C7 Co4 1.911615 1_555
C8 N1 1.193145 1_555
C8 Cr1 1.947282 1_556
C9 O25 1.156238 1_555
C9 Cr1 1.911941 1_545
C10 O11 1.156238 1_555
C10 Cr0 1.911941 1_565
C11 O27 1.157199 1_555
C11 Co5 1.769044 1_555
C12 O4 1.159785 1_655
C12 Cr0 1.902910 1_555
C13 O22 1.157199 1_555
C13 Co5 1.769044 1_555
C14 O16 1.159373 1_565
C14 Co0 1.764162 1_555
C15 O9 1.159373 1_565
C15 Co4 1.764162 1_555
C16 O6 1.159735 1_555
C16 Co0 1.804781 1_555
C17 O3 1.159785 1_555
C17 Cr1 1.902910 1_555
C18 O10 1.158342 1_555
C18 Co1 1.812075 1_555
C19 O20 1.157276 1_555
C19 Co4 1.766958 1_555
C20 O17 1.157199 1_555
C20 Co1 1.769044 1_555
C21 O23 1.159785 1_555
C21 Cr0 1.902910 1_555
C22 O2 1.159785 1_455
C22 Cr1 1.902910 1_555
C23 O13 1.158342 1_555
C23 Co5 1.812075 1_555
C24 N0 1.336679 1_555
C24 Co5 1.903038 1_555
C24 Co3 1.911615 1_555
C24 Co2 1.911615 1_555
C25 O12 1.163515 1_545
C25 Cr0 1.897593 1_555
C26 O0 1.157199 1_555
C26 Co1 1.769044 1_555
C27 O15 1.159735 1_555
C27 Co2 1.804781 1_555
C28 O1 1.159373 1_545
C28 Co2 1.764162 1_555
C29 O18 1.156031 1_555
C29 Cr0 1.913898 1_555
C30 O8 1.159735 1_555
C30 Co4 1.804781 1_555
C31 O14 1.159735 1_555
C31 Co3 1.804781 1_555
