# generated using pymatgen
data_Ca4LaB3O10
_symmetry_space_group_name_H-M   'P 1'
_cell_length_a   9.09432800
_cell_length_b   9.09432800
_cell_length_c   3.65555471
_cell_angle_alpha   84.87773980
_cell_angle_beta   84.87773980
_cell_angle_gamma   126.33011516
_symmetry_Int_Tables_number   1
_chemical_formula_structural   Ca4LaB3O10
_chemical_formula_sum   'Ca4 La1 B3 O10'
_cell_volume   238.75836467
_cell_formula_units_Z   1
loop_
 _symmetry_equiv_pos_site_id
 _symmetry_equiv_pos_as_xyz
  1  'x, y, z'
loop_
 _atom_site_type_symbol
 _atom_site_label
 _atom_site_symmetry_multiplicity
 _atom_site_fract_x
 _atom_site_fract_y
 _atom_site_fract_z
 _atom_site_occupancy
  Ca  Ca0  1  0.90312900  0.54097300  0.67073500  1
  Ca  Ca1  1  0.54097300  0.90312900  0.67073500  1
  Ca  Ca2  1  0.23555900  0.46398600  0.33382100  1
  Ca  Ca3  1  0.46398600  0.23555900  0.33382100  1
  La  La0  1  0.99559700  0.99559700  0.00103400  1
  B  B0  1  0.84245800  0.23477000  0.08889000  1
  B  B1  1  0.23477000  0.84245800  0.08889000  1
  B  B2  1  0.61008300  0.61008300  0.70978500  1
  O  O0  1  0.75751600  0.29988100  0.27300400  1
  O  O1  1  0.04496700  0.74848000  0.09616200  1
  O  O2  1  0.29988100  0.75751600  0.27300400  1
  O  O3  1  0.36130400  0.02245800  0.89150700  1
  O  O4  1  0.02245800  0.36130400  0.89150700  1
  O  O5  1  0.17368600  0.17368600  0.41788800  1
  O  O6  1  0.59982900  0.45086100  0.75709300  1
  O  O7  1  0.45086100  0.59982900  0.75709300  1
  O  O8  1  0.78316600  0.78316600  0.61446700  1
  O  O9  1  0.74848000  0.04496700  0.09616200  1
loop_
_geom_bond_atom_site_label_1
_geom_bond_atom_site_label_2
_geom_bond_distance
_geom_bond_site_symmetry_2
Ca0 O6 2.345099 1_555
Ca0 O1 2.358166 1_655
Ca0 O1 2.375228 1_656
Ca0 O0 2.479443 1_555
Ca0 O4 2.553590 1_655
Ca0 O0 2.566186 1_556
Ca1 O7 2.345099 1_555
Ca1 O9 2.358166 1_565
Ca1 O9 2.375228 1_566
Ca1 O2 2.479443 1_555
Ca1 O3 2.553590 1_565
Ca1 O2 2.566186 1_556
Ca2 O5 2.333486 1_555
Ca2 O2 2.353337 1_555
Ca2 O4 2.365217 1_555
Ca2 O7 2.395102 1_554
Ca2 O7 2.402158 1_555
Ca2 O4 2.434564 1_554
Ca3 O5 2.333486 1_555
Ca3 O0 2.353337 1_555
Ca3 O3 2.365217 1_555
Ca3 O6 2.395102 1_554
Ca3 O6 2.402158 1_555
Ca3 O3 2.434564 1_554
La0 O5 2.311193 1_665
La0 O5 2.334398 1_664
La0 O8 2.452378 1_554
La0 O1 2.541076 1_655
La0 O9 2.541076 1_565
La0 O8 2.554151 1_555
B0 O0 1.385881 1_555
B0 O4 1.390456 1_654
B0 O9 1.396580 1_555
B1 O2 1.385881 1_555
B1 O3 1.390456 1_564
B1 O1 1.396580 1_555
B2 O7 1.388440 1_555
B2 O6 1.388440 1_555
B2 O8 1.394698 1_555
