# generated using pymatgen
data_ZnWO4
_symmetry_space_group_name_H-M   'P 1'
_cell_length_a   7.69017854
_cell_length_b   7.69017854
_cell_length_c   5.31942200
_cell_angle_alpha   90.00000000
_cell_angle_beta   90.00000000
_cell_angle_gamma   123.94141616
_symmetry_Int_Tables_number   1
_chemical_formula_structural   ZnWO4
_chemical_formula_sum   'Zn4 W4 O16'
_cell_volume   260.98208393
_cell_formula_units_Z   4
loop_
 _symmetry_equiv_pos_site_id
 _symmetry_equiv_pos_as_xyz
  1  'x, y, z'
loop_
 _atom_site_type_symbol
 _atom_site_label
 _atom_site_symmetry_multiplicity
 _atom_site_fract_x
 _atom_site_fract_y
 _atom_site_fract_z
 _atom_site_occupancy
  Zn  Zn0  1  0.42289200  0.07710800  0.75000000  1
  Zn  Zn1  1  0.92289200  0.57710800  0.75000000  1
  Zn  Zn2  1  0.07710800  0.42289200  0.25000000  1
  Zn  Zn3  1  0.57710800  0.92289200  0.25000000  1
  W  W0  1  0.40750200  0.59249800  0.80413000  1
  W  W1  1  0.90750200  0.09249800  0.69587000  1
  W  W2  1  0.09249800  0.90750200  0.30413000  1
  W  W3  1  0.59249800  0.40750200  0.19587000  1
  O  O0  1  0.08966500  0.41033500  0.75000000  1
  O  O1  1  0.80854400  0.19145600  0.44085700  1
  O  O2  1  0.40551900  0.59448100  0.45759700  1
  O  O3  1  0.16177400  0.16177400  0.50000000  1
  O  O4  1  0.09448100  0.90551900  0.95759700  1
  O  O5  1  0.30854400  0.69145600  0.05914300  1
  O  O6  1  0.58966500  0.91033500  0.75000000  1
  O  O7  1  0.19145600  0.80854400  0.55914300  1
  O  O8  1  0.66177400  0.66177400  0.00000000  1
  O  O9  1  0.83822600  0.83822600  0.50000000  1
  O  O10  1  0.33822600  0.33822600  0.00000000  1
  O  O11  1  0.59448100  0.40551900  0.54240300  1
  O  O12  1  0.69145600  0.30854400  0.94085700  1
  O  O13  1  0.90551900  0.09448100  0.04240300  1
  O  O14  1  0.41033500  0.08966500  0.25000000  1
  O  O15  1  0.91033500  0.58966500  0.25000000  1
loop_
_geom_bond_atom_site_label_1
_geom_bond_atom_site_label_2
_geom_bond_distance
_geom_bond_site_symmetry_2
O0 W0 2.048410 1_555
O0 W1 2.048410 1_455
O0 Zn1 2.264170 1_455
O1 W1 1.909218 1_555
O1 Zn3 2.087851 1_545
O1 Zn2 2.087851 1_655
O2 W0 1.843552 1_555
O2 Zn2 2.370143 1_555
O2 Zn3 2.370143 1_555
O3 W1 2.007410 1_455
O3 W2 2.007410 1_545
O4 W2 1.843552 1_556
O4 Zn1 2.370143 1_455
O4 Zn0 2.370143 1_565
O5 W0 1.909218 1_554
O5 Zn3 2.087851 1_555
O5 Zn2 2.087851 1_555
O6 W1 2.048410 1_565
O6 W0 2.048410 1_555
O6 Zn0 2.264170 1_565
O7 W2 1.909218 1_555
O7 Zn1 2.087851 1_455
O7 Zn0 2.087851 1_565
O8 W3 2.007410 1_555
O8 W0 2.007410 1_554
O9 W1 2.007410 1_565
O9 W2 2.007410 1_655
O10 W0 2.007410 1_554
O10 W3 2.007410 1_555
O11 W3 1.843552 1_555
O11 Zn0 2.370143 1_555
O11 Zn1 2.370143 1_555
O12 W3 1.909218 1_556
O12 Zn1 2.087851 1_555
O12 Zn0 2.087851 1_555
O13 W1 1.843552 1_554
O13 Zn2 2.370143 1_655
O13 Zn3 2.370143 1_545
O14 W3 2.048410 1_555
O14 W2 2.048410 1_545
O14 Zn3 2.264170 1_545
O15 W2 2.048410 1_655
O15 W3 2.048410 1_555
O15 Zn2 2.264170 1_655
