# generated using pymatgen
data_Ba2La3Si3O12F
_symmetry_space_group_name_H-M   'P 1'
_cell_length_a   10.01028100
_cell_length_b   10.01321106
_cell_length_c   14.90735236
_cell_angle_alpha   90.07861601
_cell_angle_beta   89.98893853
_cell_angle_gamma   119.66198988
_symmetry_Int_Tables_number   1
_chemical_formula_structural   Ba2La3Si3O12F
_chemical_formula_sum   'Ba8 La12 Si12 O48 F4'
_cell_volume   1298.43277895
_cell_formula_units_Z   4
loop_
 _symmetry_equiv_pos_site_id
 _symmetry_equiv_pos_as_xyz
  1  'x, y, z'
loop_
 _atom_site_type_symbol
 _atom_site_label
 _atom_site_symmetry_multiplicity
 _atom_site_fract_x
 _atom_site_fract_y
 _atom_site_fract_z
 _atom_site_occupancy
  Ba  Ba0  1  0.25553600  0.01731000  0.87494000  1
  Ba  Ba1  1  0.66822400  0.33222400  0.49828000  1
  Ba  Ba2  1  0.66698400  0.33385500  0.25177100  1
  Ba  Ba3  1  0.98360200  0.23656100  0.87435400  1
  Ba  Ba4  1  0.33269300  0.66613800  0.24980600  1
  Ba  Ba5  1  0.33026100  0.66523900  0.00143100  1
  Ba  Ba6  1  0.33421300  0.66814800  0.49988100  1
  Ba  Ba7  1  0.74723300  0.98359600  0.62425700  1
  La  La0  1  0.25823600  0.00808300  0.37610600  1
  La  La1  1  0.74522400  0.73815200  0.87395200  1
  La  La2  1  0.74750600  0.74138100  0.37488500  1
  La  La3  1  0.66603300  0.33134800  0.99919900  1
  La  La4  1  0.67064400  0.32803300  0.74738100  1
  La  La5  1  0.00839200  0.74955800  0.62740100  1
  La  La6  1  0.00781000  0.74678600  0.12208700  1
  La  La7  1  0.99340200  0.25352500  0.37713400  1
  La  La8  1  0.32994500  0.66519000  0.75273900  1
  La  La9  1  0.25781200  0.26396500  0.62692800  1
  La  La10  1  0.25557200  0.26198900  0.12342000  1
  La  La11  1  0.74043400  0.99296800  0.12413300  1
  Si  Si0  1  0.63243300  0.60223700  0.63050600  1
  Si  Si1  1  0.64147800  0.61056500  0.12243700  1
  Si  Si2  1  0.39292600  0.03419400  0.62748800  1
  Si  Si3  1  0.39126000  0.03339900  0.12591700  1
  Si  Si4  1  0.02650000  0.62898000  0.87262600  1
  Si  Si5  1  0.02550600  0.64068300  0.37490800  1
  Si  Si6  1  0.97189000  0.37049000  0.62712700  1
  Si  Si7  1  0.96578800  0.35797600  0.12546800  1
  Si  Si8  1  0.59915400  0.96594000  0.87570600  1
  Si  Si9  1  0.61308500  0.97277000  0.37115200  1
  Si  Si10  1  0.36069700  0.38495100  0.37479700  1
  Si  Si11  1  0.37824000  0.40207300  0.87335600  1
  O  O0  1  0.33289900  0.08273100  0.53572500  1
  O  O1  1  0.35270800  0.11340600  0.04052800  1
  O  O2  1  0.34243800  0.11021700  0.70977600  1
  O  O3  1  0.33760800  0.09452500  0.21472400  1
  O  O4  1  0.50827500  0.34430000  0.87449800  1
  O  O5  1  0.45555500  0.29115900  0.37535400  1
  O  O6  1  0.53537500  0.41162300  0.63135900  1
  O  O7  1  0.53232300  0.42041800  0.11927900  1
  O  O8  1  0.75214500  0.65493600  0.71745200  1
  O  O9  1  0.75939200  0.66502500  0.20958700  1
  O  O10  1  0.74672500  0.66764100  0.54189500  1
  O  O11  1  0.75363000  0.65299000  0.03244000  1
  O  O12  1  0.58107700  0.10983500  0.12093000  1
  O  O13  1  0.58112500  0.12316600  0.63229500  1
  O  O14  1  0.83681100  0.50657500  0.87445500  1
  O  O15  1  0.83722600  0.54626300  0.37541300  1
  O  O16  1  0.65583700  0.15365300  0.87561500  1
  O  O17  1  0.70721000  0.16047400  0.37502600  1
  O  O18  1  0.88860500  0.47940600  0.62761700  1
  O  O19  1  0.88874400  0.47200200  0.12049800  1
  O  O20  1  0.07611700  0.73811900  0.78161800  1
  O  O21  1  0.07258500  0.73603700  0.96440900  1
  O  O22  1  0.09130100  0.75624000  0.28656800  1
  O  O23  1  0.09180800  0.75576900  0.46396600  1
  O  O24  1  0.92768500  0.26853900  0.53394400  1
  O  O25  1  0.89218800  0.25756400  0.71328500  1
  O  O26  1  0.88676800  0.24049900  0.03980500  1
  O  O27  1  0.90630100  0.24504900  0.21457300  1
  O  O28  1  0.12662000  0.53990800  0.86687000  1
  O  O29  1  0.09745900  0.52362000  0.37419000  1
  O  O30  1  0.31319700  0.84461100  0.63572400  1
  O  O31  1  0.29957700  0.84570300  0.12351700  1
  O  O32  1  0.15379900  0.45443600  0.12339000  1
  O  O33  1  0.16085800  0.47614400  0.63631000  1
  O  O34  1  0.41135700  0.86841100  0.86766700  1
  O  O35  1  0.42495600  0.90438000  0.37296700  1
  O  O36  1  0.27001600  0.34104800  0.96378200  1
  O  O37  1  0.24597000  0.33743200  0.46370100  1
  O  O38  1  0.26937200  0.34720500  0.78274700  1
  O  O39  1  0.24454100  0.33585400  0.28658700  1
  O  O40  1  0.47210500  0.59273600  0.86944000  1
  O  O41  1  0.47816200  0.57283600  0.37420000  1
  O  O42  1  0.50921400  0.66487600  0.63716100  1
  O  O43  1  0.54192300  0.69904800  0.12354300  1
  O  O44  1  0.66487500  0.90564100  0.79305800  1
  O  O45  1  0.66361700  0.91856900  0.96630300  1
  O  O46  1  0.66159500  0.90840400  0.28117700  1
  O  O47  1  0.65978600  0.89672400  0.45486000  1
  F  F0  1  0.97621400  0.97183900  0.87409200  1
  F  F1  1  0.00161300  0.00049000  0.12186800  1
  F  F2  1  0.02477400  0.00365800  0.62734200  1
  F  F3  1  0.99922200  0.99996300  0.37530100  1
loop_
_geom_bond_atom_site_label_1
_geom_bond_atom_site_label_2
_geom_bond_distance
_geom_bond_site_symmetry_2
Ba0 F0 2.601064 1_445
Ba0 O2 2.624669 1_555
Ba0 O34 2.639891 1_545
Ba0 O1 2.652068 1_556
Ba0 O21 2.823010 1_545
Ba0 O20 2.827931 1_545
Ba0 O4 2.987056 1_555
Ba1 O17 2.672313 1_555
Ba1 O5 2.681842 1_555
Ba1 O15 2.689079 1_555
Ba1 O13 2.708844 1_555
Ba1 O6 2.716138 1_555
Ba1 O18 2.744467 1_555
Ba1 O24 3.012629 1_555
Ba1 O0 3.085983 1_555
Ba1 O10 3.114871 1_555
Ba2 O5 2.676065 1_555
Ba2 O15 2.688515 1_555
Ba2 O17 2.693180 1_555
Ba2 O7 2.762535 1_555
Ba2 O19 2.763583 1_555
Ba2 O12 2.766781 1_555
Ba2 O27 2.990632 1_555
Ba2 O3 3.015903 1_555
Ba2 O9 3.035937 1_555
Ba3 F0 2.614905 1_545
Ba3 O25 2.615273 1_555
Ba3 O28 2.642936 1_655
Ba3 O26 2.657276 1_556
Ba3 O36 2.849689 1_655
Ba3 O38 2.853311 1_655
Ba3 O16 2.959512 1_555
Ba4 O43 2.712051 1_555
Ba4 O32 2.735878 1_555
Ba4 O31 2.736159 1_555
Ba4 O29 2.774738 1_555
Ba4 O35 2.778987 1_555
Ba4 O41 2.790048 1_555
Ba4 O46 3.005950 1_555
Ba4 O22 3.018150 1_555
Ba4 O39 3.022120 1_555
Ba5 O34 2.673950 1_554
Ba5 O32 2.683301 1_555
Ba5 O43 2.684677 1_555
Ba5 O31 2.685539 1_555
Ba5 O28 2.686423 1_554
Ba5 O40 2.725810 1_554
Ba5 O21 3.044995 1_554
Ba5 O36 3.045316 1_554
Ba5 O45 3.077197 1_554
Ba6 O42 2.704879 1_555
Ba6 O33 2.747946 1_555
Ba6 O30 2.761379 1_555
Ba6 O29 2.796701 1_555
Ba6 O41 2.802268 1_555
Ba6 O35 2.807997 1_555
Ba6 O47 2.988468 1_555
Ba6 O23 3.008904 1_555
Ba6 O37 3.022819 1_555
Ba7 O44 2.643630 1_555
Ba7 O13 2.651763 1_565
Ba7 O47 2.672274 1_555
Ba7 F2 2.684929 1_665
Ba7 O25 2.728269 1_565
Ba7 O24 2.850390 1_565
Ba7 O42 2.893861 1_555
La0 O35 2.362380 1_545
La0 O0 2.494430 1_555
La0 O5 2.528761 1_555
La0 O3 2.548048 1_555
La0 O23 2.591583 1_545
La0 O22 2.598861 1_545
La1 O40 2.378879 1_555
La1 O8 2.488725 1_555
La1 O44 2.500973 1_555
La1 O11 2.528425 1_556
La1 O45 2.698097 1_555
La1 O14 2.884751 1_555
La2 O41 2.369411 1_555
La2 O47 2.440976 1_555
La2 O15 2.522034 1_555
La2 O10 2.596743 1_555
La2 O9 2.599142 1_555
La2 O46 2.630305 1_555
La3 O4 2.484139 1_555
La3 O16 2.526214 1_555
La3 O14 2.549138 1_555
La3 O7 2.639613 1_556
La3 O12 2.660742 1_556
La3 O19 2.666531 1_556
La3 O26 2.840405 1_556
La3 O1 2.864917 1_556
La3 O11 2.930487 1_556
La4 O13 2.475082 1_555
La4 O16 2.545204 1_555
La4 O4 2.553285 1_555
La4 O14 2.569066 1_555
La4 O6 2.579188 1_555
La4 O18 2.641611 1_555
La4 O25 2.687369 1_555
La4 O2 2.961471 1_555
La4 O8 2.990005 1_555
La5 O18 2.354763 1_455
La5 O20 2.415815 1_555
La5 O23 2.566187 1_555
La5 O8 2.622257 1_455
La5 O10 2.651512 1_455
La5 O30 2.712284 1_555
La6 O19 2.397019 1_455
La6 O21 2.454579 1_554
La6 O9 2.557771 1_455
La6 O22 2.577112 1_555
La6 O31 2.578474 1_555
La6 O11 2.602828 1_455
La7 O29 2.369255 1_655
La7 O24 2.452788 1_555
La7 O17 2.536638 1_555
La7 O27 2.562631 1_555
La7 O37 2.580554 1_655
La7 O39 2.602336 1_655
La8 O28 2.467472 1_555
La8 O34 2.467762 1_555
La8 O42 2.488641 1_555
La8 O33 2.506305 1_555
La8 O40 2.569882 1_555
La8 O30 2.570119 1_555
La8 O38 2.966288 1_555
La8 O20 3.001657 1_555
La8 O44 3.066949 1_555
La9 O6 2.417471 1_555
La9 O2 2.430946 1_555
La9 O38 2.450115 1_555
La9 O37 2.562697 1_555
La9 O0 2.655114 1_555
La9 O33 2.741427 1_555
La10 O7 2.417774 1_555
La10 O1 2.472310 1_555
La10 O36 2.490520 1_554
La10 O39 2.559599 1_555
La10 O32 2.587351 1_555
La10 O3 2.590066 1_555
La11 O12 2.400871 1_565
La11 O45 2.472039 1_554
La11 O46 2.482728 1_555
La11 O26 2.506734 1_565
La11 O27 2.605615 1_565
La11 O43 2.611901 1_555
O0 Si2 1.661244 1_555
O1 Si3 1.649261 1_555
O2 Si2 1.648538 1_555
O3 Si3 1.654867 1_555
O4 Si11 1.665737 1_555
O5 Si10 1.632919 1_555
O6 Si0 1.658835 1_555
O7 Si1 1.661907 1_555
O8 Si0 1.663522 1_555
O9 Si1 1.655303 1_555
O10 Si0 1.656189 1_555
O11 Si1 1.664252 1_555
O12 Si3 1.662068 1_555
O13 Si2 1.639109 1_555
O14 Si4 1.674857 1_655
O15 Si5 1.637831 1_655
O16 Si8 1.673111 1_545
O17 Si9 1.634208 1_545
O18 Si6 1.668662 1_555
O19 Si7 1.666051 1_555
O20 Si4 1.657755 1_555
O21 Si4 1.655537 1_555
O22 Si5 1.660265 1_555
O23 Si5 1.664388 1_555
O24 Si6 1.648280 1_555
O25 Si6 1.635685 1_555
O26 Si7 1.647875 1_555
O27 Si7 1.653788 1_555
O28 Si4 1.640670 1_555
O29 Si5 1.651819 1_555
O30 Si2 1.660349 1_565
O31 Si3 1.633544 1_565
O32 Si7 1.636095 1_455
O33 Si6 1.653837 1_455
O34 Si8 1.638530 1_555
O35 Si9 1.655238 1_555
O36 Si11 1.646409 1_555
O37 Si10 1.661958 1_555
O38 Si11 1.649220 1_555
O39 Si10 1.660087 1_555
O40 Si11 1.660095 1_555
O41 Si10 1.653069 1_555
O42 Si0 1.640173 1_555
O43 Si1 1.628590 1_555
O44 Si8 1.645039 1_555
O45 Si8 1.664470 1_555
O46 Si9 1.660543 1_555
O47 Si9 1.646423 1_555
F0 La1 2.338111 1_555
F1 La6 2.571663 1_545
F1 La11 2.578248 1_445
F1 La10 2.594408 1_555
F2 La5 2.467322 1_545
F2 La9 2.493520 1_555
F3 La0 2.553573 1_665
F3 La2 2.568235 1_555
F3 La7 2.568409 1_565
