# generated using pymatgen
data_La4(GeS4)3
_symmetry_space_group_name_H-M   'P 1'
_cell_length_a   11.62714429
_cell_length_b   11.62714429
_cell_length_c   11.62714466
_cell_angle_alpha   114.73384208
_cell_angle_beta   114.73384208
_cell_angle_gamma   114.73383320
_symmetry_Int_Tables_number   1
_chemical_formula_structural   La4(GeS4)3
_chemical_formula_sum   'La8 Ge6 S24'
_cell_volume   900.67808006
_cell_formula_units_Z   2
loop_
 _symmetry_equiv_pos_site_id
 _symmetry_equiv_pos_as_xyz
  1  'x, y, z'
loop_
 _atom_site_type_symbol
 _atom_site_label
 _atom_site_symmetry_multiplicity
 _atom_site_fract_x
 _atom_site_fract_y
 _atom_site_fract_z
 _atom_site_occupancy
  La  La0  1  0.56927553  0.02811151  0.79401391  1
  La  La1  1  0.06927553  0.29401391  0.52811151  1
  La  La2  1  0.29401391  0.52811151  0.06927553  1
  La  La3  1  0.52811151  0.06927553  0.29401391  1
  La  La4  1  0.00158615  0.00158615  0.00158615  1
  La  La5  1  0.02811151  0.79401391  0.56927553  1
  La  La6  1  0.79401391  0.56927553  0.02811151  1
  La  La7  1  0.50158615  0.50158615  0.50158615  1
  Ge  Ge0  1  0.85996616  0.03415268  0.64689913  1
  Ge  Ge1  1  0.35996616  0.14689913  0.53415268  1
  Ge  Ge2  1  0.64689913  0.85996616  0.03415268  1
  Ge  Ge3  1  0.14689913  0.53415268  0.35996616  1
  Ge  Ge4  1  0.03415268  0.64689913  0.85996616  1
  Ge  Ge5  1  0.53415268  0.35996616  0.14689913  1
  S  S0  1  0.31161177  0.12683262  0.31480972  1
  S  S1  1  0.12683262  0.31480972  0.31161177  1
  S  S2  1  0.65317208  0.92110029  0.37859010  1
  S  S3  1  0.31480972  0.31161177  0.12683262  1
  S  S4  1  0.91575825  0.20245201  0.88607727  1
  S  S5  1  0.62683262  0.81161177  0.81480972  1
  S  S6  1  0.15317208  0.87859010  0.42110029  1
  S  S7  1  0.11281064  0.18413230  0.71734788  1
  S  S8  1  0.87859010  0.42110029  0.15317208  1
  S  S9  1  0.21734788  0.68413230  0.61281064  1
  S  S10  1  0.88607727  0.91575825  0.20245201  1
  S  S11  1  0.18413230  0.71734788  0.11281064  1
  S  S12  1  0.81161177  0.81480972  0.62683262  1
  S  S13  1  0.38607727  0.70245201  0.41575825  1
  S  S14  1  0.41575825  0.38607727  0.70245201  1
  S  S15  1  0.20245201  0.88607727  0.91575825  1
  S  S16  1  0.71734788  0.11281064  0.18413230  1
  S  S17  1  0.81480972  0.62683262  0.81161177  1
  S  S18  1  0.70245201  0.41575825  0.38607727  1
  S  S19  1  0.61281064  0.21734788  0.68413230  1
  S  S20  1  0.92110029  0.37859010  0.65317208  1
  S  S21  1  0.42110029  0.15317208  0.87859010  1
  S  S22  1  0.68413230  0.61281064  0.21734788  1
  S  S23  1  0.37859010  0.65317208  0.92110029  1
loop_
_geom_bond_atom_site_label_1
_geom_bond_atom_site_label_2
_geom_bond_distance
_geom_bond_site_symmetry_2
La0 S21 2.892610 1_555
La0 S5 2.937112 1_545
La0 S19 2.948094 1_555
La0 S8 2.994206 1_556
La0 S9 3.036158 1_545
La0 S4 3.037525 1_555
La0 S13 3.113420 1_545
La0 S16 3.580097 1_556
La1 S20 2.892610 1_455
La1 S1 2.937112 1_555
La1 S7 2.948094 1_555
La1 S23 2.994206 1_555
La1 S16 3.036158 1_455
La1 S14 3.037525 1_555
La1 S10 3.113420 1_445
La1 S9 3.580097 1_555
La2 S23 2.892610 1_554
La2 S3 2.937112 1_555
La2 S11 2.948094 1_555
La2 S2 2.994206 1_555
La2 S7 3.036158 1_554
La2 S13 3.037525 1_555
La2 S4 3.113421 1_454
La2 S22 3.580097 1_555
La3 S2 2.892610 1_545
La3 S0 2.937112 1_555
La3 S16 2.948094 1_555
La3 S20 2.994206 1_555
La3 S11 3.036158 1_545
La3 S18 3.037525 1_555
La3 S15 3.113420 1_544
La3 S19 3.580097 1_555
La4 S1 2.926035 1_555
La4 S0 2.926035 1_555
La4 S3 2.926035 1_555
La4 S12 2.931701 1_444
La4 S17 2.931701 1_444
La4 S5 2.931701 1_444
La4 S15 3.421655 1_544
La4 S4 3.421656 1_454
La4 S10 3.421656 1_445
La5 S6 2.892610 1_555
La5 S12 2.937112 1_455
La5 S9 2.948094 1_555
La5 S21 2.994206 1_565
La5 S22 3.036158 1_455
La5 S15 3.037525 1_555
La5 S18 3.113421 1_455
La5 S7 3.580097 1_565
La6 S8 2.892610 1_555
La6 S17 2.937112 1_554
La6 S22 2.948094 1_555
La6 S6 2.994206 1_655
La6 S19 3.036158 1_554
La6 S10 3.037525 1_555
La6 S14 3.113420 1_554
La6 S11 3.580097 1_655
La7 S17 2.926035 1_555
La7 S5 2.926035 1_555
La7 S12 2.926035 1_555
La7 S3 2.931701 1_555
La7 S1 2.931701 1_555
La7 S0 2.931701 1_555
La7 S13 3.421655 1_555
La7 S18 3.421656 1_555
La7 S14 3.421656 1_555
Ge0 S7 2.203243 1_655
Ge0 S4 2.204109 1_555
Ge0 S2 2.210936 1_545
Ge0 S12 2.251037 1_545
Ge1 S19 2.203243 1_555
Ge1 S14 2.204109 1_555
Ge1 S6 2.210936 1_545
Ge1 S0 2.251037 1_555
Ge2 S16 2.203243 1_565
Ge2 S10 2.204109 1_555
Ge2 S23 2.210936 1_554
Ge2 S5 2.251037 1_554
Ge3 S9 2.203243 1_555
Ge3 S13 2.204109 1_555
Ge3 S8 2.210936 1_455
Ge3 S1 2.251037 1_555
Ge4 S11 2.203243 1_556
Ge4 S15 2.204109 1_555
Ge4 S20 2.210936 1_455
Ge4 S17 2.251037 1_455
Ge5 S22 2.203243 1_555
Ge5 S18 2.204109 1_555
Ge5 S21 2.210936 1_554
Ge5 S3 2.251037 1_555
