# generated using pymatgen
data_MnGaNi2
_symmetry_space_group_name_H-M   'P 1'
_cell_length_a   3.87171792
_cell_length_b   3.87171747
_cell_length_c   4.21007517
_cell_angle_alpha   117.37521731
_cell_angle_beta   117.37522122
_cell_angle_gamma   89.99999621
_symmetry_Int_Tables_number   1
_chemical_formula_structural   MnGaNi2
_chemical_formula_sum   'Mn1 Ga1 Ni2'
_cell_volume   47.94434792
_cell_formula_units_Z   1
loop_
 _symmetry_equiv_pos_site_id
 _symmetry_equiv_pos_as_xyz
  1  'x, y, z'
loop_
 _atom_site_type_symbol
 _atom_site_label
 _atom_site_symmetry_multiplicity
 _atom_site_fract_x
 _atom_site_fract_y
 _atom_site_fract_z
 _atom_site_occupancy
  Mn  Mn0  1  0.50000000  0.50000000  0.00000000  1
  Ga  Ga0  1  -0.00000000  0.00000000  0.00000000  1
  Ni  Ni0  1  0.25000000  0.75000000  0.50000000  1
  Ni  Ni1  1  0.75000000  0.25000000  0.50000000  1
loop_
_geom_bond_atom_site_label_1
_geom_bond_atom_site_label_2
_geom_bond_distance
_geom_bond_site_symmetry_2
Mn0 Ni1 2.510967 1_555
Mn0 Ni0 2.510967 1_554
Mn0 Ni0 2.510967 1_544
Mn0 Ni1 2.510967 1_565
Mn0 Ni0 2.510968 1_555
Mn0 Ni1 2.510968 1_554
Mn0 Ni0 2.510968 1_655
Mn0 Ni1 2.510968 1_454
Ga0 Ni0 2.510967 1_545
Ga0 Ni1 2.510967 1_454
Ga0 Ni0 2.510967 1_555
Ga0 Ni1 2.510967 1_444
Ga0 Ni1 2.510968 1_455
Ga0 Ni0 2.510968 1_544
Ga0 Ni0 2.510968 1_444
Ga0 Ni1 2.510968 1_555
Ga0 Mn0 2.737718 1_455
Ga0 Mn0 2.737718 1_545
Ga0 Mn0 2.737718 1_445
Ga0 Mn0 2.737718 1_555
