# generated using pymatgen
data_Tb2Se3
_symmetry_space_group_name_H-M   'P 1'
_cell_length_a   22.62042462
_cell_length_b   8.70942942
_cell_length_c   8.70942689
_cell_angle_alpha   90.00000000
_cell_angle_beta   54.72247566
_cell_angle_gamma   54.72247562
_symmetry_Int_Tables_number   1
_chemical_formula_structural   Tb2Se3
_chemical_formula_sum   'Tb16 Se24'
_cell_volume   990.00549784
_cell_formula_units_Z   8
loop_
 _symmetry_equiv_pos_site_id
 _symmetry_equiv_pos_as_xyz
  1  'x, y, z'
loop_
 _atom_site_type_symbol
 _atom_site_label
 _atom_site_symmetry_multiplicity
 _atom_site_fract_x
 _atom_site_fract_y
 _atom_site_fract_z
 _atom_site_occupancy
  Tb  Tb0  1  0.99410061  0.12235454  0.76948568  1
  Tb  Tb1  1  0.08597866  0.62103150  0.37103150  1
  Tb  Tb2  1  0.16666700  0.25000000  0.63328601  1
  Tb  Tb3  1  0.24735434  0.87896850  0.12896850  1
  Tb  Tb4  1  0.33923239  0.37764546  0.25178851  1
  Tb  Tb5  1  0.16666700  0.75000000  0.86671399  1
  Tb  Tb6  1  0.33923239  0.10465637  0.73051432  1
  Tb  Tb7  1  0.49410061  0.26948568  0.62235454  1
  Tb  Tb8  1  0.58597866  0.87103150  0.12103150  1
  Tb  Tb9  1  0.66666700  0.36671399  0.25000000  1
  Tb  Tb10  1  0.49410061  0.74821149  0.89534363  1
  Tb  Tb11  1  0.66666700  0.13328601  0.75000000  1
  Tb  Tb12  1  0.74735434  0.62896850  0.37896850  1
  Tb  Tb13  1  0.83923239  0.23051432  0.60465637  1
  Tb  Tb14  1  0.99410061  0.39534363  0.24821149  1
  Tb  Tb15  1  0.83923239  0.75178851  0.87764546  1
  Se  Se0  1  0.12864497  0.48769854  0.99054717  1
  Se  Se1  1  0.04757959  0.35919919  0.49339183  1
  Se  Se2  1  0.04757959  0.99806104  0.36386940  1
  Se  Se3  1  0.28575341  0.14080081  0.13613060  1
  Se  Se4  1  0.28575341  0.50193896  0.00660817  1
  Se  Se5  1  0.12864497  0.62636655  0.62351793  1
  Se  Se6  1  0.20468803  0.87363345  0.50945283  1
  Se  Se7  1  0.45112042  0.49515475  0.00130820  1
  Se  Se8  1  0.38221358  0.35466844  0.50484525  1
  Se  Se9  1  0.20468803  0.01230146  0.87648207  1
  Se  Se10  1  0.62864497  0.12351793  0.12636655  1
  Se  Se11  1  0.38221358  -0.00130820  0.34851500  1
  Se  Se12  1  0.62864497  0.49054717  0.98769854  1
  Se  Se13  1  0.45112042  0.65148500  0.64533156  1
  Se  Se14  1  0.54757959  0.86386940  0.49806104  1
  Se  Se15  1  0.78575341  0.50660817  0.00193896  1
  Se  Se16  1  0.70468803  0.37648207  0.51230146  1
  Se  Se17  1  0.54757959  0.99339183  0.85919919  1
  Se  Se18  1  0.70468803  0.00945283  0.37363345  1
  Se  Se19  1  0.95112042  0.14533156  0.15148500  1
  Se  Se20  1  0.95112042  0.50130820  0.99515475  1
  Se  Se21  1  0.78575341  0.63613060  0.64080081  1
  Se  Se22  1  0.88221358  0.84851500  0.49869180  1
  Se  Se23  1  0.88221358  0.00484525  0.85466844  1
loop_
_geom_bond_atom_site_label_1
_geom_bond_atom_site_label_2
_geom_bond_distance
_geom_bond_site_symmetry_2
Se0 Tb6 2.851810 1_555
Se0 Tb1 2.876192 1_556
Se0 Tb5 2.884429 1_555
Se0 Tb2 3.091827 1_555
Se0 Tb14 3.143929 1_456
Se1 Tb15 2.875905 1_455
Se1 Tb1 2.882562 1_555
Se1 Tb14 2.943856 1_455
Se1 Tb3 3.096711 1_545
Se1 Tb2 3.236888 1_555
Se1 Tb0 3.320094 1_455
Se2 Tb13 2.875904 1_465
Se2 Tb1 2.882561 1_555
Se2 Tb0 2.943849 1_465
Se2 Tb3 3.096715 1_555
Se2 Tb5 3.236877 1_554
Se2 Tb14 3.320106 1_465
Se3 Tb10 2.875907 1_544
Se3 Tb3 2.882561 1_545
Se3 Tb6 2.943847 1_554
Se3 Tb1 3.096711 1_555
Se3 Tb2 3.236882 1_555
Se3 Tb4 3.320098 1_555
Se4 Tb7 2.875902 1_554
Se4 Tb3 2.882563 1_555
Se4 Tb4 2.943857 1_555
Se4 Tb1 3.096715 1_555
Se4 Tb5 3.236870 1_554
Se4 Tb6 3.320101 1_554
Se5 Tb4 2.851808 1_555
Se5 Tb1 2.876203 1_555
Se5 Tb2 2.884422 1_555
Se5 Tb5 3.091839 1_555
Se5 Tb0 3.143931 1_465
Se6 Tb0 2.851808 1_465
Se6 Tb3 2.876194 1_555
Se6 Tb2 2.884433 1_565
Se6 Tb5 3.091834 1_555
Se6 Tb4 3.143930 1_555
Se7 Tb10 2.844846 1_554
Se7 Tb11 2.901746 1_554
Se7 Tb4 2.970965 1_555
Se7 Tb7 3.128530 1_554
Se7 Tb3 3.152639 1_555
Se8 Tb4 2.844861 1_555
Se8 Tb5 2.901746 1_555
Se8 Tb7 2.970947 1_555
Se8 Tb6 3.128530 1_555
Se8 Tb8 3.152633 1_545
Se9 Tb14 2.851810 1_456
Se9 Tb3 2.876201 1_546
Se9 Tb5 2.884413 1_545
Se9 Tb2 3.091828 1_555
Se9 Tb6 3.143931 1_555
Se10 Tb15 2.851808 1_544
Se10 Tb8 2.876203 1_545
Se10 Tb11 2.884421 1_554
Se10 Tb9 3.091839 1_555
Se10 Tb7 3.143930 1_555
Se11 Tb6 2.844850 1_555
Se11 Tb2 2.901746 1_555
Se11 Tb10 2.970958 1_544
Se11 Tb4 3.128519 1_555
Se11 Tb8 3.152620 1_545
Se12 Tb13 2.851809 1_555
Se12 Tb8 2.876193 1_556
Se12 Tb9 2.884428 1_556
Se12 Tb11 3.091827 1_555
Se12 Tb10 3.143929 1_555
Se13 Tb7 2.844862 1_555
Se13 Tb9 2.901746 1_555
Se13 Tb6 2.970953 1_565
Se13 Tb10 3.128514 1_555
Se13 Tb3 3.152636 1_556
Se14 Tb6 2.875904 1_565
Se14 Tb8 2.882560 1_555
Se14 Tb7 2.943850 1_565
Se14 Tb12 3.096716 1_555
Se14 Tb9 3.236878 1_555
Se14 Tb10 3.320105 1_555
Se15 Tb0 2.875903 1_554
Se15 Tb12 2.882562 1_555
Se15 Tb15 2.943858 1_554
Se15 Tb8 3.096716 1_555
Se15 Tb9 3.236870 1_555
Se15 Tb13 3.320101 1_554
Se16 Tb10 2.851810 1_555
Se16 Tb12 2.876201 1_555
Se16 Tb9 2.884412 1_555
Se16 Tb11 3.091828 1_555
Se16 Tb13 3.143930 1_555
Se17 Tb4 2.875905 1_566
Se17 Tb8 2.882562 1_556
Se17 Tb10 2.943857 1_555
Se17 Tb12 3.096711 1_555
Se17 Tb11 3.236888 1_565
Se17 Tb7 3.320094 1_565
Se18 Tb7 2.851808 1_555
Se18 Tb12 2.876195 1_545
Se18 Tb11 2.884433 1_555
Se18 Tb9 3.091834 1_555
Se18 Tb15 3.143929 1_544
Se19 Tb0 2.844861 1_554
Se19 Tb5 2.901746 1_644
Se19 Tb13 2.970952 1_555
Se19 Tb14 3.128515 1_555
Se19 Tb12 3.152636 1_555
Se20 Tb14 2.844845 1_556
Se20 Tb2 2.901746 1_655
Se20 Tb15 2.970965 1_555
Se20 Tb0 3.128530 1_555
Se20 Tb12 3.152638 1_556
Se21 Tb14 2.875906 1_555
Se21 Tb12 2.882560 1_555
Se21 Tb13 2.943848 1_555
Se21 Tb8 3.096711 1_556
Se21 Tb11 3.236884 1_565
Se21 Tb15 3.320098 1_555
Se22 Tb13 2.844851 1_565
Se22 Tb11 2.901746 1_565
Se22 Tb14 2.970959 1_555
Se22 Tb15 3.128519 1_555
Se22 Tb1 3.152620 1_655
Se23 Tb15 2.844862 1_545
Se23 Tb9 2.901746 1_556
Se23 Tb0 2.970947 1_555
Se23 Tb13 3.128530 1_555
Se23 Tb1 3.152632 1_645
