# generated using pymatgen
data_Na8Al11Si13(AgO16)3
_symmetry_space_group_name_H-M   'P 1'
_cell_length_a   12.31311000
_cell_length_b   12.40368854
_cell_length_c   12.64096615
_cell_angle_alpha   90.21239877
_cell_angle_beta   90.57122829
_cell_angle_gamma   90.12920524
_symmetry_Int_Tables_number   1
_chemical_formula_structural   Na8Al11Si13(AgO16)3
_chemical_formula_sum   'Na8 Al11 Si13 Ag3 O48'
_cell_volume   1930.51495797
_cell_formula_units_Z   1
loop_
 _symmetry_equiv_pos_site_id
 _symmetry_equiv_pos_as_xyz
  1  'x, y, z'
loop_
 _atom_site_type_symbol
 _atom_site_label
 _atom_site_symmetry_multiplicity
 _atom_site_fract_x
 _atom_site_fract_y
 _atom_site_fract_z
 _atom_site_occupancy
  Na  Na0  1  0.79397000  0.78335300  0.21235100  1
  Na  Na1  1  0.21210900  0.78978100  0.21350700  1
  Na  Na2  1  0.00505100  0.38670400  0.55802200  1
  Na  Na3  1  0.00021800  0.60971100  0.56814000  1
  Na  Na4  1  0.78790100  0.20292500  0.78167700  1
  Na  Na5  1  0.21268400  0.20388900  0.78345700  1
  Na  Na6  1  0.79220800  0.79627800  0.78155100  1
  Na  Na7  1  0.52312400  0.46619600  0.48327300  1
  Al  Al0  1  0.99942200  0.36814800  0.18065400  1
  Al  Al1  1  0.18702800  0.99796700  0.36571500  1
  Al  Al2  1  0.00075700  0.81597800  0.36774200  1
  Al  Al3  1  0.80788200  0.00116200  0.62373300  1
  Al  Al4  1  0.99801500  0.17736000  0.63019600  1
  Al  Al5  1  0.19061300  0.00288000  0.62596300  1
  Al  Al6  1  0.99631300  0.81997400  0.62842500  1
  Al  Al7  1  0.36538600  0.99759200  0.82574700  1
  Al  Al8  1  0.99967200  0.37141600  0.81870700  1
  Al  Al9  1  0.99866500  0.63189500  0.82020300  1
  Al  Al10  1  0.63249500  0.99816800  0.82259500  1
  Si  Si0  1  0.63017200  0.81432400  0.00340800  1
  Si  Si1  1  0.36999600  0.81418100  0.00296300  1
  Si  Si2  1  0.37393300  0.99981100  0.17740700  1
  Si  Si3  1  0.00054800  0.62780800  0.17850900  1
  Si  Si4  1  0.63265500  0.00153800  0.17737600  1
  Si  Si5  1  0.81530300  0.99896300  0.36672700  1
  Si  Si6  1  0.99845800  0.18446400  0.36947200  1
  Si  Si7  1  0.63043300  0.18484900  0.00049200  1
  Si  Si8  1  0.37106300  0.18526300  0.00017700  1
  Si  Si9  1  0.81182400  0.36964400  0.00070400  1
  Si  Si10  1  0.18806600  0.37055400  0.00203400  1
  Si  Si11  1  0.81439700  0.62827000  0.00044000  1
  Si  Si12  1  0.18451700  0.62857900  0.00401600  1
  Ag  Ag0  1  0.77875300  0.23160300  0.23511600  1
  Ag  Ag1  1  0.17881700  0.17953500  0.18431100  1
  Ag  Ag2  1  0.94323700  0.08429400  0.04256700  1
  O  O0  1  0.69699600  0.30000300  0.00677500  1
  O  O1  1  0.78104900  0.49942100  0.00369900  1
  O  O2  1  0.50114600  0.21527400  0.00521600  1
  O  O3  1  0.30205000  0.29893100  0.00960600  1
  O  O4  1  0.70369800  0.70326300  0.01846900  1
  O  O5  1  0.21991400  0.49983200  0.00867300  1
  O  O6  1  0.50103200  0.78093200  0.00911600  1
  O  O7  1  0.29660800  0.70289100  0.01959800  1
  O  O8  1  0.66031400  0.11385900  0.11117000  1
  O  O9  1  0.87720000  0.33608800  0.10995000  1
  O  O10  1  0.34623700  0.11022000  0.10736200  1
  O  O11  1  0.88938900  0.65680500  0.10667400  1
  O  O12  1  0.11825900  0.33698900  0.10793500  1
  O  O13  1  0.66131200  0.88852300  0.11269900  1
  O  O14  1  0.11430000  0.65778500  0.11401100  1
  O  O15  1  0.34651800  0.88528900  0.11426800  1
  O  O16  1  0.50436100  0.00084100  0.20566300  1
  O  O17  1  0.00059700  0.50347100  0.21128900  1
  O  O18  1  0.70786300  0.00472700  0.28298600  1
  O  O19  1  0.99011100  0.29329600  0.29721800  1
  O  O20  1  0.30057400  0.00410000  0.27932000  1
  O  O21  1  0.99093900  0.70365400  0.28069800  1
  O  O22  1  0.88573300  0.11217700  0.33740300  1
  O  O23  1  0.10569300  0.11591500  0.33439900  1
  O  O24  1  0.88096100  0.89140800  0.33055200  1
  O  O25  1  0.11584600  0.88350400  0.32642200  1
  O  O26  1  0.77722300  0.00183700  0.48520300  1
  O  O27  1  0.99840800  0.22216600  0.49202500  1
  O  O28  1  0.22593600  0.00070900  0.49443300  1
  O  O29  1  0.99715500  0.76778200  0.49607000  1
  O  O30  1  0.87574400  0.11946300  0.65621500  1
  O  O31  1  0.11748300  0.11686200  0.66189900  1
  O  O32  1  0.87876100  0.88671300  0.65738000  1
  O  O33  1  0.11549100  0.88861600  0.65565800  1
  O  O34  1  0.69976900  0.99917000  0.70755100  1
  O  O35  1  0.30052600  0.01605600  0.70906800  1
  O  O36  1  0.99896000  0.29811200  0.70250700  1
  O  O37  1  0.98602600  0.70524100  0.70679800  1
  O  O38  1  0.49917300  0.00269700  0.80264700  1
  O  O39  1  0.99701700  0.50111900  0.77135400  1
  O  O40  1  0.67053300  0.11772000  0.89986500  1
  O  O41  1  0.33142600  0.12064900  0.89782700  1
  O  O42  1  0.87925700  0.33755100  0.89546000  1
  O  O43  1  0.12105100  0.33936200  0.89494100  1
  O  O44  1  0.87539900  0.66197300  0.89413900  1
  O  O45  1  0.11339600  0.65668600  0.90279400  1
  O  O46  1  0.66745100  0.87867100  0.90045300  1
  O  O47  1  0.33573400  0.88249100  0.90386400  1
loop_
_geom_bond_atom_site_label_1
_geom_bond_atom_site_label_2
_geom_bond_distance
_geom_bond_site_symmetry_2
Na0 O24 2.263403 1_555
Na0 O11 2.377567 1_555
Na0 O13 2.436681 1_555
Na1 O25 2.195757 1_555
Na1 O14 2.378755 1_555
Na1 O15 2.399934 1_555
Na2 O36 2.136872 1_455
Na2 O27 2.202984 1_455
Na3 O37 2.120951 1_455
Na3 O29 2.165294 1_455
Na4 O30 2.187229 1_555
Na4 O40 2.342090 1_555
Na4 O42 2.462523 1_555
Na5 O31 2.201494 1_555
Na5 O41 2.295566 1_555
Na5 O43 2.470908 1_555
Na6 O32 2.213337 1_555
Na6 O46 2.388521 1_555
Na6 O44 2.417888 1_555
Na6 O37 2.812937 1_555
Na6 O34 2.917708 1_555
Al0 O17 1.721195 1_655
Al0 O19 1.749093 1_555
Al0 O12 1.778262 1_655
Al0 O9 1.785952 1_555
Al1 O28 1.691793 1_565
Al1 O25 1.735259 1_555
Al1 O20 1.784316 1_565
Al1 O23 1.817422 1_565
Al2 O25 1.730659 1_555
Al2 O29 1.731862 1_455
Al2 O21 1.775285 1_455
Al2 O24 1.807717 1_455
Al3 O34 1.709830 1_545
Al3 O32 1.720605 1_545
Al3 O30 1.732958 1_555
Al3 O26 1.787753 1_555
Al4 O31 1.697959 1_655
Al4 O30 1.702142 1_555
Al4 O36 1.751729 1_555
Al4 O27 1.834914 1_555
Al5 O35 1.712107 1_555
Al5 O28 1.722932 1_555
Al5 O33 1.734988 1_545
Al5 O31 1.739293 1_555
Al6 O32 1.711145 1_555
Al6 O33 1.725963 1_655
Al6 O37 1.742109 1_555
Al6 O29 1.791868 1_555
Al7 O38 1.676975 1_565
Al7 O35 1.686871 1_565
Al7 O47 1.778190 1_555
Al7 O41 1.826200 1_565
Al8 O39 1.718891 1_555
Al8 O36 1.724589 1_555
Al8 O43 1.815828 1_655
Al8 O42 1.828945 1_555
Al9 O37 1.706694 1_555
Al9 O39 1.733527 1_555
Al9 O45 1.773842 1_655
Al9 O44 1.828836 1_555
Al10 O38 1.659484 1_565
Al10 O34 1.680870 1_555
Al10 O40 1.830136 1_565
Al10 O46 1.831961 1_555
Ag0 O22 2.364400 1_555
Ag0 O9 2.387215 1_555
Ag0 O8 2.577296 1_555
Ag1 O23 2.252765 1_555
Ag1 O12 2.304034 1_555
Ag1 O10 2.444739 1_555
O0 Si7 1.646441 1_555
O0 Si9 1.657794 1_555
O1 Si11 1.649976 1_555
O1 Si9 1.654929 1_555
O2 Si7 1.638489 1_555
O2 Si8 1.644157 1_555
O3 Si8 1.652365 1_555
O3 Si10 1.664866 1_555
O4 Si0 1.660631 1_555
O4 Si11 1.668963 1_555
O5 Si10 1.651552 1_555
O5 Si12 1.657396 1_555
O6 Si0 1.644615 1_555
O6 Si1 1.667370 1_555
O7 Si1 1.663313 1_555
O7 Si12 1.667580 1_555
O8 Si4 1.664206 1_555
O8 Si7 1.693654 1_555
O9 Si9 1.646795 1_555
O10 Si2 1.667586 1_545
O10 Si8 1.676899 1_555
O11 Si11 1.658786 1_555
O11 Si3 1.675463 1_655
O12 Si10 1.652179 1_555
O13 Si4 1.660567 1_565
O13 Si0 1.697389 1_555
O14 Si3 1.669569 1_555
O14 Si12 1.683368 1_555
O15 Si2 1.659168 1_555
O15 Si1 1.685590 1_555
O16 Si4 1.623147 1_555
O16 Si2 1.641747 1_545
O17 Si3 1.598417 1_555
O18 Si4 1.617459 1_555
O18 Si5 1.687856 1_545
O19 Si6 1.635532 1_555
O20 Si2 1.581554 1_545
O21 Si3 1.600703 1_655
O22 Si5 1.692991 1_545
O22 Si6 1.695664 1_555
O23 Si6 1.636122 1_455
O24 Si5 1.627940 1_555
O26 Si5 1.574091 1_545
O27 Si6 1.616578 1_555
O40 Si7 1.600519 1_556
O41 Si8 1.591353 1_556
O42 Si9 1.624005 1_556
O43 Si10 1.623468 1_556
O44 Si11 1.602335 1_556
O45 Si12 1.583668 1_556
O46 Si0 1.599832 1_556
O47 Si1 1.569747 1_556
