# generated using pymatgen
data_YbHO2
_symmetry_space_group_name_H-M   'P 1'
_cell_length_a   5.42570347
_cell_length_b   5.42570347
_cell_length_c   5.28508558
_cell_angle_alpha   90.00000000
_cell_angle_beta   90.00000000
_cell_angle_gamma   90.00000000
_symmetry_Int_Tables_number   1
_chemical_formula_structural   YbHO2
_chemical_formula_sum   'Yb4 H4 O8'
_cell_volume   155.58371378
_cell_formula_units_Z   4
loop_
 _symmetry_equiv_pos_site_id
 _symmetry_equiv_pos_as_xyz
  1  'x, y, z'
loop_
 _atom_site_type_symbol
 _atom_site_label
 _atom_site_symmetry_multiplicity
 _atom_site_fract_x
 _atom_site_fract_y
 _atom_site_fract_z
 _atom_site_occupancy
  Yb  Yb0  1  0.28163430  0.78163430  0.69972270  1
  Yb  Yb1  1  0.21836570  0.28163430  0.30027730  1
  Yb  Yb2  1  0.71836570  0.21836570  0.69972270  1
  Yb  Yb3  1  0.78163430  0.71836570  0.30027730  1
  H  H0  1  0.28744708  0.78744708  0.19381391  1
  H  H1  1  0.21255292  0.28744708  0.80618609  1
  H  H2  1  0.71255292  0.21255292  0.19381391  1
  H  H3  1  0.78744708  0.71255292  0.80618609  1
  O  O0  1  0.00000000  0.50000000  0.59426121  1
  O  O1  1  0.50000000  0.00000000  0.40573879  1
  O  O2  1  0.00000000  0.00000000  0.50000000  1
  O  O3  1  0.50000000  0.50000000  0.50000000  1
  O  O4  1  0.17690803  0.67690803  0.10159233  1
  O  O5  1  0.32309197  0.17690803  0.89840767  1
  O  O6  1  0.82309197  0.32309197  0.10159233  1
  O  O7  1  0.67690803  0.82309197  0.89840767  1
loop_
_geom_bond_atom_site_label_1
_geom_bond_atom_site_label_2
_geom_bond_distance
_geom_bond_site_symmetry_2
H0 O4 0.978245 1_555
H1 O5 0.978245 1_555
H2 O6 0.978245 1_555
H3 O7 0.978245 1_555
O0 Yb0 2.231731 1_555
O0 Yb2 2.231731 1_455
O0 Yb3 2.285065 1_455
O0 Yb1 2.285065 1_555
O1 Yb1 2.231731 1_555
O1 Yb3 2.231731 1_545
O1 Yb2 2.285065 1_555
O1 Yb0 2.285065 1_545
O2 Yb1 2.202928 1_555
O2 Yb0 2.202928 1_545
O2 Yb2 2.202928 1_455
O2 Yb3 2.202928 1_445
O3 Yb3 2.202928 1_555
O3 Yb0 2.202928 1_555
O3 Yb2 2.202928 1_555
O3 Yb1 2.202928 1_555
O4 Yb0 2.270848 1_554
O4 Yb3 2.398481 1_455
O4 Yb1 2.398481 1_555
O5 Yb1 2.270848 1_556
O5 Yb0 2.398481 1_545
O5 Yb2 2.398481 1_555
O6 Yb2 2.270848 1_554
O6 Yb1 2.398481 1_655
O6 Yb3 2.398481 1_555
O7 Yb3 2.270848 1_556
O7 Yb2 2.398481 1_565
O7 Yb0 2.398481 1_555
