# generated using pymatgen
data_Yb2Ge4Ru3
_symmetry_space_group_name_H-M   'P 1'
_cell_length_a   10.45297379
_cell_length_b   10.45297379
_cell_length_c   14.07127102
_cell_angle_alpha   53.11872239
_cell_angle_beta   53.11872239
_cell_angle_gamma   30.81349587
_symmetry_Int_Tables_number   1
_chemical_formula_structural   Yb2Ge4Ru3
_chemical_formula_sum   'Yb8 Ge16 Ru12'
_cell_volume   616.35155534
_cell_formula_units_Z   4
loop_
 _symmetry_equiv_pos_site_id
 _symmetry_equiv_pos_as_xyz
  1  'x, y, z'
loop_
 _atom_site_type_symbol
 _atom_site_label
 _atom_site_symmetry_multiplicity
 _atom_site_fract_x
 _atom_site_fract_y
 _atom_site_fract_z
 _atom_site_occupancy
  Yb  Yb0  1  0.29911900  0.56382700  0.64202300  1
  Yb  Yb1  1  0.71665600  0.96048500  0.85375600  1
  Yb  Yb2  1  0.28334400  0.03951500  0.14624400  1
  Yb  Yb3  1  0.43617300  0.70088100  0.85797700  1
  Yb  Yb4  1  0.03951500  0.28334400  0.64624400  1
  Yb  Yb5  1  0.56382700  0.29911900  0.14202300  1
  Yb  Yb6  1  0.96048500  0.71665600  0.35375600  1
  Yb  Yb7  1  0.70088100  0.43617300  0.35797700  1
  Ge  Ge0  1  0.03796000  0.74370400  0.09961100  1
  Ge  Ge1  1  0.61012700  0.86239900  0.60122200  1
  Ge  Ge2  1  0.96204000  0.25629600  0.90038900  1
  Ge  Ge3  1  0.38043100  0.61956900  0.25000000  1
  Ge  Ge4  1  0.38987300  0.13760100  0.39877800  1
  Ge  Ge5  1  0.56632000  0.09470000  0.06535900  1
  Ge  Ge6  1  0.13760100  0.38987300  0.89877800  1
  Ge  Ge7  1  0.25629600  0.96204000  0.40038900  1
  Ge  Ge8  1  0.09470000  0.56632000  0.56535900  1
  Ge  Ge9  1  0.43368000  0.90530000  0.93464100  1
  Ge  Ge10  1  0.13064400  0.86935600  0.75000000  1
  Ge  Ge11  1  0.74370400  0.03796000  0.59961100  1
  Ge  Ge12  1  0.86935600  0.13064400  0.25000000  1
  Ge  Ge13  1  0.61956900  0.38043100  0.75000000  1
  Ge  Ge14  1  0.90530000  0.43368000  0.43464100  1
  Ge  Ge15  1  0.86239900  0.61012700  0.10122200  1
  Ru  Ru0  1  0.13859700  0.89872600  0.08831700  1
  Ru  Ru1  1  0.15153800  0.36661800  0.22375900  1
  Ru  Ru2  1  0.36661800  0.15153800  0.72375900  1
  Ru  Ru3  1  0.84846200  0.63338200  0.77624100  1
  Ru  Ru4  1  0.50652100  0.24297300  0.43832500  1
  Ru  Ru5  1  0.86140300  0.10127400  0.91168300  1
  Ru  Ru6  1  0.63338200  0.84846200  0.27624100  1
  Ru  Ru7  1  0.24297300  0.50652100  0.93832500  1
  Ru  Ru8  1  0.75702700  0.49347900  0.06167500  1
  Ru  Ru9  1  0.10127400  0.86140300  0.41168300  1
  Ru  Ru10  1  0.89872600  0.13859700  0.58831700  1
  Ru  Ru11  1  0.49347900  0.75702700  0.56167500  1
loop_
_geom_bond_atom_site_label_1
_geom_bond_atom_site_label_2
_geom_bond_distance
_geom_bond_site_symmetry_2
Ge0 Ru0 2.485142 1_555
Ge0 Ru1 2.486800 1_555
Ge0 Ru5 2.552367 1_464
Ge0 Ge5 2.767463 1_465
Ge0 Ru7 2.771235 1_554
Ge0 Ru6 2.820826 1_455
Ge0 Yb5 2.983061 1_555
Ge0 Yb6 3.037760 1_455
Ge0 Yb5 3.132114 1_465
Ge0 Yb3 3.275039 1_554
Ge1 Ru2 2.521830 1_565
Ge1 Ru11 2.620425 1_555
Ge1 Ru4 2.624253 1_565
Ge1 Ge8 2.714616 1_655
Ge1 Ru3 2.836592 1_555
Ge1 Ge4 2.889734 1_565
Ge1 Yb4 3.011438 1_565
Ge1 Yb3 3.045631 1_555
Ge1 Yb4 3.054375 1_655
Ge1 Yb6 3.055410 1_555
Ge2 Ru5 2.485142 1_555
Ge2 Ru3 2.486800 1_555
Ge2 Ru0 2.552367 1_646
Ge2 Ge9 2.767463 1_645
Ge2 Ru8 2.771235 1_556
Ge2 Ru2 2.820826 1_655
Ge2 Yb3 2.983061 1_555
Ge2 Yb4 3.037760 1_655
Ge2 Yb3 3.132114 1_645
Ge2 Yb5 3.275039 1_556
Ge3 Ru0 2.518997 1_555
Ge3 Ru9 2.518997 1_555
Ge3 Ru8 2.648551 1_555
Ge3 Ru4 2.648551 1_555
Ge3 Yb7 2.964206 1_555
Ge3 Yb5 2.964206 1_555
Ge3 Yb2 2.977343 1_565
Ge3 Yb6 2.977343 1_455
Ge4 Ru6 2.521830 1_545
Ge4 Ru4 2.620425 1_555
Ge4 Ru11 2.624253 1_545
Ge4 Ru1 2.836592 1_555
Ge4 Yb6 3.011438 1_545
Ge4 Yb5 3.045631 1_555
Ge4 Yb6 3.054375 1_455
Ge4 Yb4 3.055410 1_555
Ge5 Ru6 2.480241 1_545
Ge5 Ru7 2.484749 1_554
Ge5 Ru5 2.524781 1_554
Ge5 Ru1 2.584954 1_555
Ge5 Yb5 2.892697 1_555
Ge5 Yb2 2.911934 1_555
Ge5 Yb1 2.985667 1_544
Ge6 Ru3 2.521830 1_455
Ge6 Ru7 2.620425 1_555
Ge6 Ru8 2.624253 1_456
Ge6 Ge9 2.714616 1_545
Ge6 Ru2 2.836592 1_555
Ge6 Yb1 3.011438 1_455
Ge6 Yb0 3.045631 1_555
Ge6 Yb1 3.054375 1_545
Ge6 Yb2 3.055410 1_556
Ge7 Ru9 2.485142 1_555
Ge7 Ru6 2.486800 1_555
Ge7 Ru10 2.552367 1_465
Ge7 Ru11 2.771235 1_555
Ge7 Ru1 2.820826 1_565
Ge7 Yb7 2.983061 1_555
Ge7 Yb2 3.037760 1_565
Ge7 Yb7 3.132114 1_465
Ge7 Yb0 3.275039 1_555
Ge8 Ru3 2.480241 1_455
Ge8 Ru4 2.484749 1_555
Ge8 Ru9 2.524781 1_555
Ge8 Ru2 2.584954 1_555
Ge8 Yb0 2.892697 1_555
Ge8 Yb4 2.911934 1_555
Ge8 Yb6 2.985667 1_455
Ge9 Ru2 2.480241 1_565
Ge9 Ru8 2.484749 1_556
Ge9 Ru0 2.524781 1_556
Ge9 Ru3 2.584954 1_555
Ge9 Yb3 2.892697 1_555
Ge9 Yb1 2.911934 1_555
Ge9 Yb2 2.985667 1_566
Ge10 Ru10 2.487773 1_465
Ge10 Ru5 2.487773 1_465
Ge10 Ru7 2.609075 1_555
Ge10 Ru11 2.609075 1_555
Ge10 Yb3 2.926000 1_555
Ge10 Yb0 2.926000 1_555
Ge10 Yb1 2.961526 1_455
Ge10 Yb4 2.961526 1_565
Ge11 Ru10 2.485142 1_555
Ge11 Ru2 2.486800 1_555
Ge11 Ru9 2.552367 1_645
Ge11 Ge8 2.767463 1_645
Ge11 Ru4 2.771235 1_555
Ge11 Ru3 2.820826 1_545
Ge11 Yb0 2.983061 1_555
Ge11 Yb1 3.037760 1_545
Ge11 Yb0 3.132114 1_645
Ge11 Yb7 3.275039 1_555
Ge12 Ru0 2.487773 1_645
Ge12 Ru9 2.487773 1_645
Ge12 Ru8 2.609075 1_555
Ge12 Ru4 2.609075 1_555
Ge12 Yb7 2.926000 1_555
Ge12 Yb5 2.926000 1_555
Ge12 Yb2 2.961526 1_655
Ge12 Yb6 2.961526 1_545
Ge13 Ru5 2.518997 1_555
Ge13 Ru10 2.518997 1_555
Ge13 Ru7 2.648551 1_555
Ge13 Ru11 2.648551 1_555
Ge13 Yb3 2.964206 1_555
Ge13 Yb0 2.964206 1_555
Ge13 Yb4 2.977343 1_655
Ge13 Yb1 2.977343 1_545
Ge14 Ru1 2.480241 1_655
Ge14 Ru11 2.484749 1_555
Ge14 Ru10 2.524781 1_555
Ge14 Ru6 2.584954 1_555
Ge14 Ge4 2.714616 1_655
Ge14 Ge7 2.767463 1_645
Ge14 Yb7 2.892697 1_555
Ge14 Yb6 2.911934 1_555
Ge14 Yb4 2.985667 1_655
Ge15 Ru1 2.521830 1_655
Ge15 Ru8 2.620425 1_555
Ge15 Ru7 2.624253 1_654
Ge15 Ge5 2.714616 1_565
Ge15 Ru6 2.836592 1_555
Ge15 Ge6 2.889734 1_654
Ge15 Yb2 3.011438 1_655
Ge15 Yb7 3.045631 1_555
Ge15 Yb2 3.054375 1_565
Ge15 Yb1 3.055410 1_554
Ru0 Yb5 3.056019 1_465
Ru0 Yb3 3.058170 1_554
Ru0 Yb5 3.178902 1_555
Ru0 Yb6 3.200938 1_455
Ru1 Yb2 3.059385 1_555
Ru1 Yb5 3.192985 1_555
Ru1 Yb7 3.372325 1_455
Ru2 Yb4 3.059385 1_555
Ru2 Yb0 3.192985 1_555
Ru2 Yb3 3.372325 1_545
Ru3 Yb1 3.059385 1_555
Ru3 Yb3 3.192985 1_555
Ru3 Yb0 3.372325 1_655
Ru4 Yb7 3.321751 1_555
Ru5 Yb3 3.056019 1_645
Ru5 Yb5 3.058170 1_556
Ru5 Yb3 3.178902 1_555
Ru5 Yb4 3.200938 1_655
Ru6 Yb6 3.059385 1_555
Ru6 Yb7 3.192985 1_555
Ru6 Yb5 3.372325 1_565
Ru7 Yb3 3.321751 1_555
Ru8 Yb5 3.321751 1_555
Ru9 Yb7 3.056019 1_465
Ru9 Yb0 3.058170 1_555
Ru9 Yb7 3.178902 1_555
Ru9 Yb2 3.200938 1_565
Ru10 Yb0 3.056019 1_645
Ru10 Yb7 3.058170 1_555
Ru10 Yb0 3.178902 1_555
Ru10 Yb1 3.200938 1_545
Ru11 Yb0 3.321751 1_555
