# generated using pymatgen
data_Tb2Zr8O19
_symmetry_space_group_name_H-M   'P 1'
_cell_length_a   3.64772700
_cell_length_b   3.64772700
_cell_length_c   25.77184700
_cell_angle_alpha   90.00000000
_cell_angle_beta   90.00000000
_cell_angle_gamma   90.00000000
_symmetry_Int_Tables_number   1
_chemical_formula_structural   Tb2Zr8O19
_chemical_formula_sum   'Tb2 Zr8 O19'
_cell_volume   342.91793513
_cell_formula_units_Z   1
loop_
 _symmetry_equiv_pos_site_id
 _symmetry_equiv_pos_as_xyz
  1  'x, y, z'
loop_
 _atom_site_type_symbol
 _atom_site_label
 _atom_site_symmetry_multiplicity
 _atom_site_fract_x
 _atom_site_fract_y
 _atom_site_fract_z
 _atom_site_occupancy
  Tb  Tb0  1  0.00000000  0.50000000  0.94345200  1
  Tb  Tb1  1  0.50000000  0.00000000  0.05654800  1
  Zr  Zr0  1  0.00000000  0.50000000  0.15312900  1
  Zr  Zr1  1  0.50000000  0.00000000  0.25215400  1
  Zr  Zr2  1  0.00000000  0.50000000  0.35122900  1
  Zr  Zr3  1  0.50000000  0.00000000  0.45037500  1
  Zr  Zr4  1  0.00000000  0.50000000  0.54962500  1
  Zr  Zr5  1  0.50000000  0.00000000  0.64877100  1
  Zr  Zr6  1  0.00000000  0.50000000  0.74784600  1
  Zr  Zr7  1  0.50000000  0.00000000  0.84687100  1
  O  O0  1  0.00000000  0.00000000  0.39835900  1
  O  O1  1  0.50000000  0.50000000  0.50000000  1
  O  O2  1  0.00000000  0.00000000  0.60164100  1
  O  O3  1  0.50000000  0.50000000  0.69446700  1
  O  O4  1  0.00000000  0.00000000  0.80264300  1
  O  O5  1  0.50000000  0.50000000  0.89062700  1
  O  O6  1  0.50000000  0.50000000  0.00000000  1
  O  O7  1  0.50000000  0.50000000  0.10937300  1
  O  O8  1  0.00000000  0.00000000  0.09809200  1
  O  O9  1  0.00000000  0.00000000  0.19735700  1
  O  O10  1  0.50000000  0.50000000  0.20760300  1
  O  O11  1  0.50000000  0.50000000  0.30553300  1
  O  O12  1  0.00000000  0.00000000  0.29754900  1
  O  O13  1  0.50000000  0.50000000  0.40293300  1
  O  O14  1  0.00000000  0.00000000  0.50000000  1
  O  O15  1  0.50000000  0.50000000  0.59706700  1
  O  O16  1  0.00000000  0.00000000  0.70245100  1
  O  O17  1  0.50000000  0.50000000  0.79239700  1
  O  O18  1  0.00000000  0.00000000  0.90190800  1
loop_
_geom_bond_atom_site_label_1
_geom_bond_atom_site_label_2
_geom_bond_distance
_geom_bond_site_symmetry_2
O0 Zr2 2.191300 1_555
O0 Zr2 2.191300 1_545
O0 Zr3 2.263526 1_555
O0 Zr3 2.263526 1_455
O1 Zr4 2.227585 1_655
O1 Zr4 2.227585 1_555
O1 Zr3 2.227585 1_565
O1 Zr3 2.227585 1_555
O2 Zr5 2.191300 1_455
O2 Zr5 2.191300 1_555
O2 Zr4 2.263526 1_545
O2 Zr4 2.263526 1_555
O3 Zr5 2.171033 1_565
O3 Zr5 2.171033 1_555
O3 Zr6 2.284505 1_655
O3 Zr6 2.284505 1_555
O4 Zr7 2.150746 1_555
O4 Zr7 2.150746 1_455
O4 Zr6 2.306695 1_555
O4 Zr6 2.306695 1_545
O5 Zr7 2.144324 1_555
O5 Zr7 2.144324 1_565
O5 Tb0 2.275935 1_555
O5 Tb0 2.275935 1_655
O6 Tb1 2.334596 1_565
O6 Tb1 2.334596 1_555
O6 Tb0 2.334596 1_554
O6 Tb0 2.334596 1_654
O7 Zr0 2.144324 1_555
O7 Zr0 2.144324 1_655
O7 Tb1 2.275935 1_565
O7 Tb1 2.275935 1_555
O8 Tb1 2.114900 1_555
O8 Tb1 2.114900 1_455
O8 Zr0 2.310487 1_555
O8 Zr0 2.310487 1_545
O9 Zr0 2.150746 1_545
O9 Zr0 2.150746 1_555
O9 Zr1 2.306695 1_555
O9 Zr1 2.306695 1_455
O10 Zr1 2.155169 1_555
O10 Zr1 2.155169 1_565
O10 Zr0 2.301608 1_655
O10 Zr0 2.301608 1_555
O11 Zr2 2.171033 1_555
O11 Zr2 2.171033 1_655
O11 Zr1 2.284505 1_555
O11 Zr1 2.284505 1_565
O12 Zr1 2.166835 1_455
O12 Zr1 2.166835 1_555
O12 Zr2 2.289184 1_555
O12 Zr2 2.289184 1_545
O13 Zr3 2.195768 1_555
O13 Zr3 2.195768 1_565
O13 Zr2 2.258773 1_555
O13 Zr2 2.258773 1_655
O14 Zr4 2.227585 1_545
O14 Zr4 2.227585 1_555
O14 Zr3 2.227585 1_455
O14 Zr3 2.227585 1_555
O15 Zr4 2.195768 1_655
O15 Zr4 2.195768 1_555
O15 Zr5 2.258773 1_565
O15 Zr5 2.258773 1_555
O16 Zr6 2.166835 1_545
O16 Zr6 2.166835 1_555
O16 Zr5 2.289184 1_555
O16 Zr5 2.289184 1_455
O17 Zr6 2.155169 1_655
O17 Zr6 2.155169 1_555
O17 Zr7 2.301608 1_555
O17 Zr7 2.301608 1_565
O18 Tb0 2.114900 1_555
O18 Tb0 2.114900 1_545
O18 Zr7 2.310487 1_555
O18 Zr7 2.310487 1_455
