# generated using pymatgen
data_MnAs
_symmetry_space_group_name_H-M   'P 1'
_cell_length_a   3.75118095
_cell_length_b   5.71622928
_cell_length_c   6.48869679
_cell_angle_alpha   90.00055910
_cell_angle_beta   90.00253454
_cell_angle_gamma   90.00023240
_symmetry_Int_Tables_number   1
_chemical_formula_structural   MnAs
_chemical_formula_sum   'Mn4 As4'
_cell_volume   139.13459679
_cell_formula_units_Z   4
loop_
 _symmetry_equiv_pos_site_id
 _symmetry_equiv_pos_as_xyz
  1  'x, y, z'
loop_
 _atom_site_type_symbol
 _atom_site_label
 _atom_site_symmetry_multiplicity
 _atom_site_fract_x
 _atom_site_fract_y
 _atom_site_fract_z
 _atom_site_occupancy
  Mn  Mn0  1  0.75000973  0.00025876  0.75009631  1
  Mn  Mn1  1  0.25000165  0.99973808  0.24991017  1
  Mn  Mn2  1  0.25000157  0.49974303  0.25009969  1
  Mn  Mn3  1  0.75000971  0.50026271  0.74990962  1
  As  As0  1  0.25000229  0.75010919  0.58330225  1
  As  As1  1  0.74999674  0.74990549  0.08326635  1
  As  As2  1  0.24997953  0.25010259  0.91668449  1
  As  As3  1  0.75000180  0.24987915  0.41673113  1
loop_
_geom_bond_atom_site_label_1
_geom_bond_atom_site_label_2
_geom_bond_distance
_geom_bond_site_symmetry_2
As0 Mn1 2.591522 1_555
As0 Mn2 2.592796 1_555
As0 Mn3 2.593495 1_555
As0 Mn3 2.593515 1_455
As0 Mn0 2.594934 1_565
As0 Mn0 2.594971 1_465
As1 Mn3 2.591351 1_554
As1 Mn0 2.592603 1_564
As1 Mn1 2.593523 1_655
As1 Mn1 2.593574 1_555
As1 Mn2 2.595094 1_655
As1 Mn2 2.595129 1_555
As2 Mn2 2.591661 1_556
As2 Mn1 2.592940 1_546
As2 Mn0 2.593312 1_455
As2 Mn0 2.593554 1_555
As2 Mn3 2.594834 1_455
As2 Mn3 2.595058 1_555
As3 Mn0 2.591350 1_555
As3 Mn3 2.592721 1_555
As3 Mn2 2.593595 1_555
As3 Mn2 2.593655 1_655
As3 Mn1 2.594960 1_545
As3 Mn1 2.595037 1_645
