# generated using pymatgen
data_K2VCuS4
_symmetry_space_group_name_H-M   'P 1'
_cell_length_a   13.23790720
_cell_length_b   11.81425633
_cell_length_c   7.09938163
_cell_angle_alpha   84.96039859
_cell_angle_beta   62.74866339
_cell_angle_gamma   32.29093801
_symmetry_Int_Tables_number   1
_chemical_formula_structural   K2VCuS4
_chemical_formula_sum   'K4 V2 Cu2 S8'
_cell_volume   409.48035839
_cell_formula_units_Z   2
loop_
 _symmetry_equiv_pos_site_id
 _symmetry_equiv_pos_as_xyz
  1  'x, y, z'
loop_
 _atom_site_type_symbol
 _atom_site_label
 _atom_site_symmetry_multiplicity
 _atom_site_fract_x
 _atom_site_fract_y
 _atom_site_fract_z
 _atom_site_occupancy
  K  K0  1  0.19306500  0.20074900  0.56188400  1
  K  K1  1  0.45115800  0.44276700  0.80595000  1
  K  K2  1  0.55915700  0.54853900  0.18643600  1
  K  K3  1  0.81134100  0.79973400  0.43917100  1
  V  V0  1  0.63315900  0.61984400  0.62074100  1
  V  V1  1  0.37062800  0.37564200  0.37548300  1
  Cu  Cu0  1  0.88123800  0.87269000  0.86988400  1
  Cu  Cu1  1  0.12901900  0.11849600  0.12694500  1
  S  S0  1  0.54618700  0.81114500  0.90451800  1
  S  S1  1  0.45135400  0.18739700  0.09860000  1
  S  S2  1  0.18667400  0.45283100  0.75083800  1
  S  S3  1  0.09430100  0.76604000  0.45634500  1
  S  S4  1  0.23365100  0.90600800  0.81733900  1
  S  S5  1  0.89210000  0.24896500  0.55545800  1
  S  S6  1  0.81456400  0.54327700  0.23544100  1
  S  S7  1  0.75824400  0.10121000  0.17882600  1
loop_
_geom_bond_atom_site_label_1
_geom_bond_atom_site_label_2
_geom_bond_distance
_geom_bond_site_symmetry_2
K0 S2 3.293641 1_555
K0 S0 3.294129 1_455
K0 S6 3.324186 1_545
K0 S1 3.378459 1_555
K0 S6 3.394740 1_456
K0 S0 3.497936 1_544
K0 S4 3.510388 1_545
K0 S5 3.539043 1_455
K1 S3 3.292719 1_556
K1 S5 3.330216 1_555
K1 S4 3.386959 1_555
K1 S7 3.387968 1_555
K1 S3 3.408525 1_645
K1 S1 3.508467 1_556
K1 S7 3.521553 1_466
K1 S2 3.601148 1_555
K2 S5 3.217089 1_554
K2 S7 3.354090 1_555
K2 S4 3.368408 1_555
K2 S3 3.387470 1_555
K2 S4 3.418898 1_644
K2 S0 3.461776 1_554
K2 S6 3.503498 1_555
K2 S5 3.520851 1_465
K3 S1 3.263453 1_655
K3 S2 3.343734 1_565
K3 S6 3.430538 1_555
K3 S0 3.451331 1_555
K3 S1 3.469581 1_566
K3 S3 3.477510 1_655
K3 S2 3.495571 1_654
K3 S7 3.520875 1_565
Cu0 S7 2.255772 1_566
Cu0 S3 2.284808 1_655
Cu0 S2 2.316409 1_655
Cu0 S1 2.381414 1_566
Cu1 S0 2.300935 1_544
Cu1 S4 2.313944 1_544
Cu1 S5 2.319479 1_455
Cu1 S6 2.351587 1_455
S0 V0 2.183741 1_555
S1 V1 2.185906 1_555
S2 V1 2.142994 1_555
S3 V1 2.236242 1_555
S4 V0 2.277587 1_555
S5 V0 2.161511 1_555
S6 V0 2.194051 1_555
S7 V1 2.213145 1_555
