# generated using pymatgen
data_Gd3S3N
_symmetry_space_group_name_H-M   'P 1'
_cell_length_a   3.89369649
_cell_length_b   12.06890675
_cell_length_c   12.85120442
_cell_angle_alpha   90.00000000
_cell_angle_beta   90.00000000
_cell_angle_gamma   90.00000000
_symmetry_Int_Tables_number   1
_chemical_formula_structural   Gd3S3N
_chemical_formula_sum   'Gd12 S12 N4'
_cell_volume   603.91227798
_cell_formula_units_Z   4
loop_
 _symmetry_equiv_pos_site_id
 _symmetry_equiv_pos_as_xyz
  1  'x, y, z'
loop_
 _atom_site_type_symbol
 _atom_site_label
 _atom_site_symmetry_multiplicity
 _atom_site_fract_x
 _atom_site_fract_y
 _atom_site_fract_z
 _atom_site_occupancy
  Gd  Gd0  1  0.75000000  0.21330651  0.63890439  1
  Gd  Gd1  1  0.25000000  0.95359642  0.64606632  1
  Gd  Gd2  1  0.25000000  0.45359642  0.85393368  1
  Gd  Gd3  1  0.75000000  0.57148881  0.62898024  1
  Gd  Gd4  1  0.25000000  0.78669349  0.36109561  1
  Gd  Gd5  1  0.25000000  0.28669349  0.13890439  1
  Gd  Gd6  1  0.75000000  0.04640358  0.35393368  1
  Gd  Gd7  1  0.75000000  0.71330651  0.86109561  1
  Gd  Gd8  1  0.75000000  0.54640358  0.14606632  1
  Gd  Gd9  1  0.25000000  0.92851119  0.12898024  1
  Gd  Gd10  1  0.75000000  0.07148881  0.87101976  1
  Gd  Gd11  1  0.25000000  0.42851119  0.37101976  1
  S  S0  1  0.25000000  0.63334810  0.99185308  1
  S  S1  1  0.25000000  0.72480912  0.69227965  1
  S  S2  1  0.75000000  0.86665190  0.49185308  1
  S  S3  1  0.25000000  0.22480912  0.80772035  1
  S  S4  1  0.25000000  0.91035025  0.89679374  1
  S  S5  1  0.75000000  0.77519088  0.19227965  1
  S  S6  1  0.25000000  0.13334810  0.50814692  1
  S  S7  1  0.75000000  0.27519088  0.30772035  1
  S  S8  1  0.75000000  0.36665190  0.00814692  1
  S  S9  1  0.75000000  0.58964975  0.39679374  1
  S  S10  1  0.75000000  0.08964975  0.10320626  1
  S  S11  1  0.25000000  0.41035025  0.60320626  1
  N  N0  1  0.25000000  0.46130281  0.20234767  1
  N  N1  1  0.25000000  0.96130281  0.29765233  1
  N  N2  1  0.75000000  0.53869719  0.79765233  1
  N  N3  1  0.75000000  0.03869719  0.70234767  1
loop_
_geom_bond_atom_site_label_1
_geom_bond_atom_site_label_2
_geom_bond_distance
_geom_bond_site_symmetry_2
Gd0 N3 2.259568 1_555
Gd0 S6 2.746849 1_655
Gd0 S6 2.746849 1_555
Gd0 S3 2.918248 1_655
Gd0 S3 2.918248 1_555
Gd0 S11 3.107419 1_555
Gd0 S11 3.107419 1_655
Gd1 N3 2.316945 1_565
Gd1 N3 2.316945 1_465
Gd1 S6 2.801398 1_565
Gd1 S1 2.824360 1_555
Gd1 S2 2.969669 1_555
Gd1 S2 2.969669 1_455
Gd1 S4 3.264148 1_555
Gd2 N2 2.316945 1_555
Gd2 N2 2.316945 1_455
Gd2 S0 2.801398 1_555
Gd2 S3 2.824360 1_555
Gd2 S8 2.969669 1_556
Gd2 S8 2.969669 1_456
Gd2 S11 3.264148 1_555
Gd3 N2 2.203471 1_555
Gd3 S11 2.771650 1_555
Gd3 S11 2.771650 1_655
Gd3 S1 2.806416 1_555
Gd3 S1 2.806416 1_655
Gd3 S9 2.991915 1_555
Gd4 N1 2.259568 1_555
Gd4 S2 2.746849 1_455
Gd4 S2 2.746849 1_555
Gd4 S5 2.918248 1_455
Gd4 S5 2.918248 1_555
Gd4 S9 3.107419 1_455
Gd4 S9 3.107419 1_555
Gd5 N0 2.259568 1_555
Gd5 S8 2.746849 1_455
Gd5 S8 2.746849 1_555
Gd5 S7 2.918248 1_555
Gd5 S7 2.918248 1_455
Gd5 S10 3.107419 1_455
Gd5 S10 3.107419 1_555
Gd6 N1 2.316945 1_545
Gd6 N1 2.316945 1_645
Gd6 S2 2.801398 1_545
Gd6 S7 2.824360 1_555
Gd6 S6 2.969669 1_655
Gd6 S6 2.969669 1_555
Gd6 S10 3.264148 1_555
Gd7 N2 2.259568 1_555
Gd7 S0 2.746849 1_555
Gd7 S0 2.746849 1_655
Gd7 S1 2.918248 1_555
Gd7 S1 2.918248 1_655
Gd7 S4 3.107419 1_555
Gd7 S4 3.107419 1_655
Gd8 N0 2.316945 1_655
Gd8 N0 2.316945 1_555
Gd8 S8 2.801398 1_555
Gd8 S5 2.824360 1_555
Gd8 S0 2.969669 1_654
Gd8 S0 2.969669 1_554
Gd8 S9 3.264148 1_555
Gd9 N1 2.203471 1_555
Gd9 S10 2.771650 1_565
Gd9 S10 2.771650 1_465
Gd9 S5 2.806416 1_455
Gd9 S5 2.806416 1_555
Gd9 S4 2.991915 1_554
Gd10 N3 2.203471 1_555
Gd10 S4 2.771650 1_645
Gd10 S4 2.771650 1_545
Gd10 S3 2.806416 1_655
Gd10 S3 2.806416 1_555
Gd10 S10 2.991915 1_556
Gd11 N0 2.203471 1_555
Gd11 S9 2.771650 1_555
Gd11 S9 2.771650 1_455
Gd11 S7 2.806416 1_455
Gd11 S7 2.806416 1_555
Gd11 S11 2.991915 1_555
