# generated using pymatgen
data_Fe(SbO2)2
_symmetry_space_group_name_H-M   'P 1'
_cell_length_a   5.83887200
_cell_length_b   8.12554600
_cell_length_c   8.12554600
_cell_angle_alpha   90.00000000
_cell_angle_beta   90.00000000
_cell_angle_gamma   90.00000000
_symmetry_Int_Tables_number   1
_chemical_formula_structural   Fe(SbO2)2
_chemical_formula_sum   'Fe4 Sb8 O16'
_cell_volume   385.50859151
_cell_formula_units_Z   4
loop_
 _symmetry_equiv_pos_site_id
 _symmetry_equiv_pos_as_xyz
  1  'x, y, z'
loop_
 _atom_site_type_symbol
 _atom_site_label
 _atom_site_symmetry_multiplicity
 _atom_site_fract_x
 _atom_site_fract_y
 _atom_site_fract_z
 _atom_site_occupancy
  Fe  Fe0  1  0.73020600  0.00000000  0.50000000  1
  Fe  Fe1  1  0.76979400  0.50000000  0.00000000  1
  Fe  Fe2  1  0.26979400  0.00000000  0.50000000  1
  Fe  Fe3  1  0.23020600  0.50000000  0.00000000  1
  Sb  Sb0  1  0.00000000  0.65824200  0.34934200  1
  Sb  Sb1  1  0.00000000  0.13775200  0.16427400  1
  Sb  Sb2  1  0.50000000  0.16427400  0.86224800  1
  Sb  Sb3  1  0.00000000  0.86224800  0.83572600  1
  Sb  Sb4  1  0.50000000  0.34934200  0.34175800  1
  Sb  Sb5  1  0.50000000  0.65065800  0.65824200  1
  Sb  Sb6  1  0.00000000  0.34175800  0.65065800  1
  Sb  Sb7  1  0.50000000  0.83572600  0.13775200  1
  O  O0  1  0.50000000  0.36962200  0.09172600  1
  O  O1  1  0.00000000  0.60742800  0.85965500  1
  O  O2  1  0.00000000  0.90827400  0.36962200  1
  O  O3  1  0.74092800  0.83287100  0.66830300  1
  O  O4  1  0.25907200  0.83287100  0.66830300  1
  O  O5  1  0.00000000  0.39257200  0.14034500  1
  O  O6  1  0.50000000  0.85965500  0.39257200  1
  O  O7  1  0.25907200  0.16712900  0.33169700  1
  O  O8  1  0.74092800  0.16712900  0.33169700  1
  O  O9  1  0.24092800  0.33169700  0.83287100  1
  O  O10  1  0.50000000  0.63037800  0.90827400  1
  O  O11  1  0.24092800  0.66830300  0.16712900  1
  O  O12  1  0.75907200  0.33169700  0.83287100  1
  O  O13  1  0.50000000  0.14034500  0.60742800  1
  O  O14  1  0.00000000  0.09172600  0.63037800  1
  O  O15  1  0.75907200  0.66830300  0.16712900  1
loop_
_geom_bond_atom_site_label_1
_geom_bond_atom_site_label_2
_geom_bond_distance
_geom_bond_site_symmetry_2
Fe0 O3 1.928296 1_545
Fe0 O8 1.928296 1_555
Fe0 O13 1.967018 1_555
Fe0 O6 1.967018 1_545
Fe0 O14 2.039453 1_655
Fe0 O2 2.039453 1_645
Fe1 O15 1.928296 1_555
Fe1 O12 1.928296 1_554
Fe1 O5 1.967018 1_655
Fe1 O1 1.967018 1_654
Fe1 O0 2.039453 1_555
Fe1 O10 2.039453 1_554
Fe2 O4 1.928296 1_545
Fe2 O7 1.928296 1_555
Fe2 O13 1.967018 1_555
Fe2 O6 1.967018 1_545
Fe2 O14 2.039453 1_555
Fe2 O2 2.039453 1_545
Fe3 O11 1.928296 1_555
Fe3 O9 1.928296 1_554
Fe3 O1 1.967018 1_554
Fe3 O5 1.967018 1_555
Fe3 O0 2.039453 1_555
Fe3 O10 2.039453 1_554
O0 Sb4 2.038318 1_555
O0 Sb2 2.502193 1_554
O1 Sb3 2.079661 1_555
O2 Sb0 2.038318 1_555
O2 Sb1 2.502193 1_565
O3 Sb5 2.043952 1_555
O3 Sb3 2.048390 1_655
O4 Sb5 2.043952 1_555
O4 Sb3 2.048390 1_555
O5 Sb1 2.079661 1_555
O6 Sb7 2.079661 1_555
O7 Sb4 2.043952 1_555
O7 Sb1 2.048390 1_555
O8 Sb4 2.043952 1_555
O8 Sb1 2.048390 1_655
O9 Sb6 2.043952 1_555
O9 Sb2 2.048390 1_555
O10 Sb5 2.038318 1_555
O10 Sb7 2.502193 1_556
O11 Sb0 2.043952 1_555
O11 Sb7 2.048390 1_555
O12 Sb6 2.043952 1_655
O12 Sb2 2.048390 1_555
O13 Sb2 2.079661 1_555
O14 Sb6 2.038318 1_555
O14 Sb3 2.502193 1_545
O15 Sb0 2.043952 1_655
O15 Sb7 2.048390 1_555
