# generated using pymatgen
data_Co3C10O9
_symmetry_space_group_name_H-M   'P 1'
_cell_length_a   9.70306407
_cell_length_b   9.70306407
_cell_length_c   25.75984500
_cell_angle_alpha   90.00000000
_cell_angle_beta   90.00000000
_cell_angle_gamma   120.00000048
_symmetry_Int_Tables_number   1
_chemical_formula_structural   Co3C10O9
_chemical_formula_sum   'Co18 C60 O54'
_cell_volume   2100.35001040
_cell_formula_units_Z   6
loop_
 _symmetry_equiv_pos_site_id
 _symmetry_equiv_pos_as_xyz
  1  'x, y, z'
loop_
 _atom_site_type_symbol
 _atom_site_label
 _atom_site_symmetry_multiplicity
 _atom_site_fract_x
 _atom_site_fract_y
 _atom_site_fract_z
 _atom_site_occupancy
  Co  Co0  1  0.01127800  0.86348400  0.40040700  1
  Co  Co1  1  0.71506400  0.63716300  0.91534800  1
  Co  Co2  1  0.28493600  0.92209900  0.41798600  1
  Co  Co3  1  0.36283700  0.07790100  0.24868100  1
  Co  Co4  1  0.59588200  0.88088100  0.02096200  1
  Co  Co5  1  0.71500200  0.11911900  0.64570400  1
  Co  Co6  1  0.88088100  0.59588200  0.97903800  1
  Co  Co7  1  0.85220700  0.98872200  0.06707400  1
  Co  Co8  1  0.86348400  0.01127800  0.59959300  1
  Co  Co9  1  0.11911900  0.71500200  0.35429600  1
  Co  Co10  1  0.40411800  0.28499800  0.31237100  1
  Co  Co11  1  0.28499800  0.40411800  0.68762900  1
  Co  Co12  1  0.13651600  0.14779300  0.73374000  1
  Co  Co13  1  0.63716300  0.71506400  0.08465200  1
  Co  Co14  1  0.14779300  0.13651600  0.26626000  1
  Co  Co15  1  0.92209900  0.28493600  0.58201400  1
  Co  Co16  1  0.98872200  0.85220700  0.93292600  1
  Co  Co17  1  0.07790100  0.36283700  0.75131900  1
  C  C0  1  0.81447000  0.08888300  0.11906200  1
  C  C1  1  0.05819500  0.25108000  0.68680800  1
  C  C2  1  0.55842700  0.75873800  0.14172900  1
  C  C3  1  0.24126200  0.79968900  0.47506300  1
  C  C4  1  0.18553000  0.27441300  0.21427100  1
  C  C5  1  0.80711500  0.74892000  0.97985900  1
  C  C6  1  0.27441300  0.18553000  0.78572900  1
  C  C7  1  0.02553700  0.03617600  0.42761600  1
  C  C8  1  0.75873800  0.55842700  0.85827100  1
  C  C9  1  0.27006400  0.70129500  0.32112600  1
  C  C10  1  0.15125700  0.96291900  0.97455200  1
  C  C11  1  0.70129500  0.27006400  0.67887400  1
  C  C12  1  0.65296200  0.02615100  0.97209600  1
  C  C13  1  0.18833900  0.03708100  0.69211400  1
  C  C14  1  0.84874300  0.81166100  0.35878100  1
  C  C15  1  0.64161000  0.75248500  0.88613100  1
  C  C16  1  0.49985300  0.44740700  0.26714500  1
  C  C17  1  0.94755400  0.50014700  0.93381200  1
  C  C18  1  0.62681100  0.97384900  0.69457100  1
  C  C19  1  0.96382400  0.98936000  0.76094900  1
  C  C20  1  0.97446300  0.01064000  0.90571700  1
  C  C21  1  0.75248500  0.64161000  0.11386900  1
  C  C22  1  0.93919600  0.46886800  0.59910200  1
  C  C23  1  0.53113200  0.47032800  0.93243500  1
  C  C24  1  0.79968900  0.24126200  0.52493700  1
  C  C25  1  0.06080400  0.52967200  0.73423100  1
  C  C26  1  0.35839000  0.11087500  0.44720200  1
  C  C27  1  0.37318900  0.34703800  0.63876300  1
  C  C28  1  0.05244600  0.55259300  0.39952200  1
  C  C29  1  0.72558700  0.91111700  0.54760400  1
  C  C30  1  0.88912500  0.24751500  0.78053500  1
  C  C31  1  0.02615100  0.65296200  0.02790400  1
  C  C32  1  0.11087500  0.35839000  0.55279800  1
  C  C33  1  0.98936000  0.96382400  0.23905100  1
  C  C34  1  0.03708100  0.18833900  0.30788600  1
  C  C35  1  0.55259300  0.05244600  0.60047800  1
  C  C36  1  0.52967200  0.06080400  0.26576900  1
  C  C37  1  0.25108000  0.05819500  0.31319200  1
  C  C38  1  0.44740700  0.49985300  0.73285500  1
  C  C39  1  0.47032800  0.53113200  0.06756500  1
  C  C40  1  0.24751500  0.88912500  0.21946500  1
  C  C41  1  0.91111700  0.72558700  0.45239600  1
  C  C42  1  0.20031100  0.44157300  0.80839600  1
  C  C43  1  0.72993600  0.43123100  0.01220800  1
  C  C44  1  0.50014700  0.94755400  0.06618800  1
  C  C45  1  0.01064000  0.97446300  0.09428300  1
  C  C46  1  0.97384900  0.62681100  0.30542900  1
  C  C47  1  0.44157300  0.20031100  0.19160400  1
  C  C48  1  0.74892000  0.80711500  0.02014100  1
  C  C49  1  0.81166100  0.84874300  0.64121900  1
  C  C50  1  0.56876900  0.29870500  0.34554100  1
  C  C51  1  0.96291900  0.15125700  0.02544800  1
  C  C52  1  0.19288500  0.94180500  0.35347400  1
  C  C53  1  0.29870500  0.56876900  0.65445900  1
  C  C54  1  0.34703800  0.37318900  0.36123700  1
  C  C55  1  0.94180500  0.19288500  0.64652600  1
  C  C56  1  0.43123100  0.72993600  0.98779200  1
  C  C57  1  0.46886800  0.93919600  0.40089800  1
  C  C58  1  0.03617600  0.02553700  0.57238400  1
  C  C59  1  0.08888300  0.81447000  0.88093800  1
  O  O0  1  0.02882400  0.14546600  0.44698300  1
  O  O1  1  0.76626000  0.17576600  0.80038500  1
  O  O2  1  0.72223200  0.21391300  0.48802700  1
  O  O3  1  0.49168100  0.27776800  0.15469400  1
  O  O4  1  0.77473200  0.73714000  0.66661500  1
  O  O5  1  0.01234400  0.44945500  0.42902000  1
  O  O6  1  0.63850000  0.84303500  0.51393700  1
  O  O7  1  0.44945500  0.01234400  0.57098000  1
  O  O8  1  0.59049400  0.82423400  0.86628200  1
  O  O9  1  0.94877000  0.59033800  0.60798900  1
  O  O10  1  0.82423400  0.59049400  0.13371800  1
  O  O11  1  0.79546500  0.15696500  0.15273000  1
  O  O12  1  0.20453500  0.36150000  0.18060400  1
  O  O13  1  0.97117600  0.11664100  0.88635000  1
  O  O14  1  0.23374000  0.40950600  0.53294900  1
  O  O15  1  0.63451600  0.32074900  0.03455600  1
  O  O16  1  0.21391300  0.72223200  0.51197300  1
  O  O17  1  0.98765600  0.43711100  0.90431400  1
  O  O18  1  0.11664100  0.97117600  0.11365000  1
  O  O19  1  0.32074900  0.63451600  0.96544400  1
  O  O20  1  0.78608700  0.50831900  0.82136100  1
  O  O21  1  0.03759200  0.26286000  0.00005200  1
  O  O22  1  0.15696500  0.79546500  0.84727000  1
  O  O23  1  0.43977300  0.31828400  0.60701700  1
  O  O24  1  0.05123000  0.64156900  0.72534400  1
  O  O25  1  0.43711100  0.98765600  0.09568600  1
  O  O26  1  0.17576600  0.76626000  0.19961500  1
  O  O27  1  0.56022700  0.87851100  0.72631600  1
  O  O28  1  0.67925100  0.31376700  0.36788900  1
  O  O29  1  0.14546600  0.02882400  0.55301700  1
  O  O30  1  0.26286000  0.03759200  0.99994800  1
  O  O31  1  0.31828400  0.43977300  0.39298300  1
  O  O32  1  0.68623300  0.36548400  0.70122300  1
  O  O33  1  0.87851100  0.56022700  0.27368400  1
  O  O34  1  0.40966200  0.35843100  0.94132300  1
  O  O35  1  0.22526800  0.96240800  0.66671800  1
  O  O36  1  0.68171600  0.12148900  0.94035000  1
  O  O37  1  0.27776800  0.49168100  0.84530600  1
  O  O38  1  0.12148900  0.68171600  0.05965000  1
  O  O39  1  0.73714000  0.77473200  0.33338500  1
  O  O40  1  0.84303500  0.63850000  0.48606300  1
  O  O41  1  0.35843100  0.40966200  0.05867700  1
  O  O42  1  0.88335900  0.85453400  0.21968400  1
  O  O43  1  0.36548400  0.68623300  0.29877700  1
  O  O44  1  0.56288900  0.55054500  0.23764700  1
  O  O45  1  0.40950600  0.23374000  0.46705100  1
  O  O46  1  0.59033800  0.94877000  0.39201100  1
  O  O47  1  0.31376700  0.67925100  0.63211100  1
  O  O48  1  0.50831900  0.78608700  0.17863900  1
  O  O49  1  0.55054500  0.56288900  0.76235300  1
  O  O50  1  0.64156900  0.05123000  0.27465600  1
  O  O51  1  0.85453400  0.88335900  0.78031600  1
  O  O52  1  0.96240800  0.22526800  0.33328200  1
  O  O53  1  0.36150000  0.20453500  0.81939600  1
loop_
_geom_bond_atom_site_label_1
_geom_bond_atom_site_label_2
_geom_bond_distance
_geom_bond_site_symmetry_2
C0 O11 1.159484 1_555
C0 Co7 1.796645 1_545
C1 C55 1.425935 1_455
C1 Co17 1.940790 1_555
C1 Co11 1.944381 1_555
C1 Co12 1.950679 1_555
C2 O48 1.157518 1_555
C2 Co13 1.802434 1_555
C3 O16 1.157518 1_555
C3 Co2 1.802434 1_555
C4 O12 1.159464 1_555
C4 Co14 1.796658 1_555
C5 Co1 1.940790 1_555
C5 Co6 1.944389 1_555
C5 Co16 1.950689 1_555
C6 O53 1.159464 1_555
C6 Co12 1.796658 1_555
C7 O0 1.157859 1_555
C7 Co0 1.756799 1_545
C8 O20 1.157518 1_555
C8 Co1 1.802434 1_555
C9 O43 1.159888 1_555
C9 Co9 1.757189 1_555
C10 O30 1.158013 1_565
C10 Co16 1.759776 1_455
C11 O32 1.159888 1_555
C11 Co5 1.757189 1_555
C12 O36 1.159419 1_555
C12 Co4 1.759961 1_546
C13 O35 1.158007 1_545
C13 Co12 1.759776 1_555
C14 O39 1.158014 1_555
C14 Co0 1.759776 1_655
C15 O8 1.156461 1_555
C15 Co1 1.767502 1_555
C16 O44 1.157975 1_555
C16 Co10 1.799903 1_555
C17 O17 1.157975 1_555
C17 Co6 1.799897 1_555
C18 O27 1.159401 1_555
C18 Co5 1.759980 1_565
C19 O51 1.157851 1_555
C19 Co12 1.756799 1_665
C20 O13 1.157841 1_555
C20 Co16 1.756799 1_545
C21 O10 1.156461 1_555
C21 Co13 1.767502 1_555
C22 O9 1.157894 1_555
C22 Co15 1.763627 1_555
C23 O34 1.157903 1_555
C23 Co1 1.763621 1_555
C24 O2 1.157518 1_555
C24 Co15 1.802434 1_555
C25 O24 1.157903 1_555
C25 Co17 1.763627 1_555
C26 O45 1.156461 1_555
C26 Co2 1.767491 1_545
C27 O23 1.159419 1_555
C27 Co11 1.759967 1_555
C28 O5 1.157975 1_555
C28 Co9 1.799904 1_555
C29 O6 1.159464 1_555
C29 Co8 1.796660 1_565
C30 O1 1.156472 1_555
C30 Co17 1.767491 1_655
C31 O38 1.159419 1_555
C31 Co6 1.759961 1_454
C32 O14 1.156461 1_555
C32 Co15 1.767491 1_455
C33 O42 1.157851 1_555
C33 Co14 1.756799 1_665
C34 O52 1.158007 1_455
C34 Co14 1.759776 1_555
C35 O7 1.157975 1_555
C35 Co5 1.799904 1_555
C36 O50 1.157903 1_555
C36 Co3 1.763627 1_555
C37 C52 1.425935 1_545
C37 Co3 1.940790 1_555
C37 Co10 1.944381 1_555
C37 Co14 1.950679 1_555
C38 O49 1.157975 1_555
C38 Co11 1.799903 1_555
C39 O41 1.157903 1_555
C39 Co13 1.763621 1_555
C40 O26 1.156472 1_555
C40 Co3 1.767491 1_565
C41 O40 1.159464 1_555
C41 Co0 1.796660 1_655
C42 O37 1.157518 1_555
C42 Co17 1.802434 1_555
C43 O15 1.159875 1_555
C43 Co6 1.757185 1_554
C44 O25 1.157975 1_555
C44 Co4 1.799897 1_555
C45 O18 1.157841 1_555
C45 Co7 1.756799 1_455
C46 O33 1.159401 1_555
C46 Co9 1.759980 1_655
C47 O3 1.157518 1_555
C47 Co3 1.802434 1_555
C48 C5 1.425935 1_554
C48 Co13 1.940790 1_555
C48 Co4 1.944389 1_555
C48 Co7 1.950689 1_555
C49 O4 1.158014 1_555
C49 Co8 1.759776 1_565
C50 O28 1.159875 1_555
C50 Co10 1.757181 1_555
C51 O21 1.158013 1_655
C51 Co7 1.759776 1_545
C52 Co2 1.940812 1_555
C52 Co9 1.944380 1_555
C52 Co0 1.950688 1_555
C53 O47 1.159875 1_555
C53 Co11 1.757181 1_555
C54 O31 1.159419 1_555
C54 Co10 1.759967 1_555
C55 Co15 1.940812 1_555
C55 Co5 1.944380 1_555
C55 Co8 1.950688 1_555
C56 O19 1.159875 1_555
C56 Co4 1.757185 1_556
C57 O46 1.157894 1_555
C57 Co2 1.763627 1_555
C58 O29 1.157859 1_555
C58 Co8 1.756799 1_455
C59 O22 1.159484 1_555
C59 Co16 1.796645 1_455
