# generated using pymatgen
data_CaPr2Ti2ZnO9
_symmetry_space_group_name_H-M   'P 1'
_cell_length_a   5.50055700
_cell_length_b   5.72497536
_cell_length_c   23.41610877
_cell_angle_alpha   89.94756530
_cell_angle_beta   89.84813343
_cell_angle_gamma   89.70022783
_symmetry_Int_Tables_number   1
_chemical_formula_structural   CaPr2Ti2ZnO9
_chemical_formula_sum   'Ca4 Pr8 Ti8 Zn4 O36'
_cell_volume   737.37323835
_cell_formula_units_Z   4
loop_
 _symmetry_equiv_pos_site_id
 _symmetry_equiv_pos_as_xyz
  1  'x, y, z'
loop_
 _atom_site_type_symbol
 _atom_site_label
 _atom_site_symmetry_multiplicity
 _atom_site_fract_x
 _atom_site_fract_y
 _atom_site_fract_z
 _atom_site_occupancy
  Ca  Ca0  1  0.50780400  0.44950700  0.41173400  1
  Ca  Ca1  1  0.50713000  0.44964500  0.08046500  1
  Ca  Ca2  1  0.00511800  0.06015800  0.58639900  1
  Ca  Ca3  1  0.00893500  0.05859400  0.25539500  1
  Pr  Pr0  1  0.98282700  0.94059800  0.74769800  1
  Pr  Pr1  1  0.98462800  0.93191000  0.41324000  1
  Pr  Pr2  1  0.98689400  0.93239700  0.08288700  1
  Pr  Pr3  1  0.51694000  0.44297200  0.74924300  1
  Pr  Pr4  1  0.48588400  0.55763000  0.91810600  1
  Pr  Pr5  1  0.48407500  0.55947200  0.58351700  1
  Pr  Pr6  1  0.48448400  0.56045200  0.25313300  1
  Pr  Pr7  1  0.01818300  0.05744500  0.91800100  1
  Ti  Ti0  1  0.97007700  0.48202800  0.49672500  1
  Ti  Ti1  1  0.96995600  0.48178600  0.16582900  1
  Ti  Ti2  1  0.47419100  0.01215800  0.50127100  1
  Ti  Ti3  1  0.50853200  0.00311000  0.00076200  1
  Ti  Ti4  1  0.49082000  0.00331500  0.66542500  1
  Ti  Ti5  1  0.47384400  0.01333000  0.16947500  1
  Ti  Ti6  1  0.50085300  0.00723100  0.33314200  1
  Ti  Ti7  1  0.00211200  0.50030800  0.83324300  1
  Zn  Zn0  1  0.50162300  0.99967500  0.83323100  1
  Zn  Zn1  1  0.99936300  0.49487700  0.00296800  1
  Zn  Zn2  1  0.99850700  0.49586600  0.66444500  1
  Zn  Zn3  1  0.99758000  0.49110100  0.33396100  1
  O  O0  1  0.90925100  0.47262300  0.91417200  1
  O  O1  1  0.91447900  0.47213000  0.57739400  1
  O  O2  1  0.91608300  0.47309500  0.24593800  1
  O  O3  1  0.79363400  0.18672900  0.34680800  1
  O  O4  1  0.81146100  0.21264200  0.81598100  1
  O  O5  1  0.79587000  0.20610300  0.48203600  1
  O  O6  1  0.78768300  0.19203000  0.68060200  1
  O  O7  1  0.79610800  0.20577200  0.15086400  1
  O  O8  1  0.79480400  0.18753000  0.01530000  1
  O  O9  1  0.71280700  0.69484500  0.81735500  1
  O  O10  1  0.69036400  0.71225600  0.68035100  1
  O  O11  1  0.70917200  0.69819800  0.48329200  1
  O  O12  1  0.69415500  0.71433800  0.34811700  1
  O  O13  1  0.69356700  0.71482500  0.01845000  1
  O  O14  1  0.70951200  0.69821100  0.15206100  1
  O  O15  1  0.59249700  0.97316400  0.92087200  1
  O  O16  1  0.59223900  0.97785500  0.57958100  1
  O  O17  1  0.59193700  0.97908900  0.24860500  1
  O  O18  1  0.41823700  0.02791000  0.41776400  1
  O  O19  1  0.40774100  0.02628900  0.74579200  1
  O  O20  1  0.41729300  0.03078000  0.08678800  1
  O  O21  1  0.31007700  0.28576400  0.98503700  1
  O  O22  1  0.29303400  0.30672000  0.84926900  1
  O  O23  1  0.31439300  0.29190500  0.65023400  1
  O  O24  1  0.29874200  0.28905700  0.51530600  1
  O  O25  1  0.31555100  0.28930500  0.31928500  1
  O  O26  1  0.29880900  0.28914500  0.18432100  1
  O  O27  1  0.21362200  0.80892300  0.98746700  1
  O  O28  1  0.21395900  0.81116000  0.64891100  1
  O  O29  1  0.19472900  0.78577300  0.85084400  1
  O  O30  1  0.21824700  0.81119600  0.31888200  1
  O  O31  1  0.21515000  0.80689100  0.51494300  1
  O  O32  1  0.21571300  0.80705900  0.18349800  1
  O  O33  1  0.09350200  0.52841300  0.75242700  1
  O  O34  1  0.09729400  0.52348100  0.42129400  1
  O  O35  1  0.09792400  0.52322900  0.08986200  1
loop_
_geom_bond_atom_site_label_1
_geom_bond_atom_site_label_2
_geom_bond_distance
_geom_bond_site_symmetry_2
Ca0 O34 2.305573 1_555
Ca0 O12 2.360622 1_555
Ca0 O11 2.468258 1_555
Ca0 O18 2.469763 1_555
Ca0 O25 2.582970 1_555
Ca0 O3 2.648249 1_555
Ca0 O5 2.673762 1_555
Ca0 O24 2.835528 1_555
Ca1 O35 2.297799 1_555
Ca1 O13 2.338705 1_555
Ca1 O20 2.455165 1_555
Ca1 O14 2.470983 1_555
Ca1 O8 2.655304 1_555
Ca1 O21 2.660006 1_554
Ca1 O7 2.679521 1_555
Ca1 O26 2.839657 1_555
Ca2 O16 2.327766 1_445
Ca2 O28 2.341434 1_545
Ca2 O1 2.417237 1_455
Ca2 O31 2.492666 1_545
Ca2 O6 2.616464 1_455
Ca2 O23 2.632364 1_555
Ca2 O24 2.664768 1_555
Ca2 O5 2.827723 1_455
Ca3 O17 2.346615 1_445
Ca3 O30 2.351552 1_545
Ca3 O2 2.434751 1_455
Ca3 O32 2.485727 1_545
Ca3 O3 2.550074 1_455
Ca3 O25 2.620595 1_555
Ca3 O26 2.656730 1_555
Ca3 O7 2.841266 1_455
O0 Ti7 1.967835 1_655
O0 Zn1 2.142857 1_556
O0 Pr4 2.378131 1_555
O0 Pr7 2.449823 1_655
O1 Ti0 1.913585 1_555
O1 Zn2 2.096023 1_555
O1 Pr5 2.421034 1_555
O2 Ti1 1.898975 1_555
O2 Zn3 2.113224 1_555
O2 Pr6 2.429023 1_555
O3 Ti6 1.942328 1_555
O3 Zn3 2.098347 1_555
O3 Pr1 2.374909 1_545
O4 Ti7 1.999220 1_655
O4 Zn0 2.138095 1_545
O4 Pr0 2.419071 1_545
O4 Pr3 2.606292 1_555
O4 Pr7 2.790920 1_655
O5 Ti0 1.884262 1_555
O5 Ti2 2.140548 1_555
O5 Pr1 2.473043 1_545
O6 Ti4 1.995540 1_555
O6 Zn2 2.128661 1_555
O6 Pr0 2.383539 1_545
O6 Pr3 2.614256 1_555
O7 Ti1 1.884882 1_555
O7 Ti5 2.135744 1_555
O7 Pr2 2.462304 1_545
O8 Ti3 1.931589 1_555
O8 Zn1 2.112707 1_555
O8 Pr2 2.396463 1_545
O8 Pr7 2.689607 1_654
O9 Ti7 1.973569 1_655
O9 Zn0 2.123864 1_555
O9 Pr3 2.411089 1_555
O9 Pr0 2.617393 1_555
O9 Pr4 2.780678 1_555
O10 Ti4 2.021211 1_565
O10 Zn2 2.126459 1_555
O10 Pr3 2.427279 1_555
O10 Pr0 2.612092 1_555
O10 Pr5 2.687327 1_555
O11 Ti0 1.916556 1_555
O11 Ti2 2.247832 1_565
O11 Pr1 2.603978 1_555
O11 Pr5 2.768233 1_555
O12 Ti6 2.011820 1_565
O12 Zn3 2.122342 1_555
O12 Pr1 2.543025 1_555
O12 Pr6 2.661006 1_555
O13 Ti3 1.978576 1_565
O13 Zn1 2.126436 1_555
O13 Pr2 2.543385 1_555
O13 Pr4 2.768518 1_554
O14 Ti1 1.916918 1_555
O14 Ti5 2.252853 1_565
O14 Pr2 2.598743 1_555
O14 Pr6 2.783288 1_555
O15 Ti3 1.933248 1_566
O15 Zn0 2.118617 1_555
O15 Pr7 2.393936 1_665
O15 Pr4 2.454067 1_555
O16 Ti2 1.956279 1_565
O16 Ti4 2.089696 1_565
O16 Pr5 2.472616 1_555
O17 Ti5 1.974351 1_565
O17 Ti6 2.046945 1_565
O17 Pr6 2.473604 1_555
O18 Ti2 1.982186 1_555
O18 Ti6 2.035198 1_555
O18 Pr1 2.452978 1_445
O19 Ti4 1.939814 1_555
O19 Zn0 2.118083 1_545
O19 Pr0 2.390997 1_445
O19 Pr3 2.464453 1_555
O20 Ti5 1.964218 1_555
O20 Ti3 2.080658 1_555
O20 Pr2 2.438344 1_445
O21 Ti3 1.981991 1_556
O21 Zn1 2.122789 1_456
O21 Pr4 2.411885 1_555
O21 Pr7 2.605677 1_555
O22 Ti7 1.978316 1_555
O22 Zn0 2.127259 1_545
O22 Pr4 2.411661 1_555
O22 Pr7 2.630208 1_555
O22 Pr3 2.757305 1_555
O23 Ti4 1.944722 1_555
O23 Zn2 2.114162 1_455
O23 Pr5 2.379301 1_555
O23 Pr3 2.718766 1_555
O24 Ti2 1.880322 1_555
O24 Ti0 2.158812 1_455
O24 Pr5 2.452908 1_555
O25 Ti6 1.932757 1_555
O25 Zn3 2.118543 1_455
O25 Pr6 2.382364 1_555
O26 Ti5 1.877361 1_555
O26 Ti1 2.158296 1_455
O26 Pr6 2.466134 1_555
O27 Ti3 1.996608 1_566
O27 Zn1 2.184466 1_456
O27 Pr7 2.411414 1_565
O27 Pr4 2.630444 1_555
O27 Pr2 2.650717 1_456
O28 Ti4 1.923626 1_565
O28 Zn2 2.194058 1_455
O28 Pr5 2.568687 1_555
O28 Pr0 2.737532 1_455
O29 Ti7 1.996233 1_555
O29 Zn0 2.129873 1_555
O29 Pr7 2.411546 1_565
O29 Pr4 2.595991 1_555
O29 Pr0 2.824533 1_455
O30 Ti6 1.951712 1_565
O30 Zn3 2.230688 1_455
O30 Pr6 2.558458 1_555
O30 Pr1 2.643717 1_455
O31 Ti2 1.878333 1_565
O31 Ti0 2.342841 1_455
O31 Pr5 2.599888 1_555
O31 Pr1 2.791948 1_455
O32 Ti5 1.879553 1_565
O32 Ti1 2.344563 1_455
O32 Pr6 2.612353 1_555
O32 Pr2 2.766327 1_455
O33 Ti7 1.963416 1_555
O33 Zn2 2.135319 1_455
O33 Pr3 2.378437 1_555
O33 Pr0 2.436418 1_455
O34 Ti0 1.913172 1_455
O34 Zn3 2.127186 1_455
O34 Pr1 2.423153 1_455
O35 Ti1 1.926243 1_455
O35 Zn1 2.113698 1_455
O35 Pr2 2.423163 1_455
