# generated using pymatgen
data_Cs3V4Te2ClO14
_symmetry_space_group_name_H-M   'P 1'
_cell_length_a   5.57968600
_cell_length_b   6.94085600
_cell_length_c   24.44350500
_cell_angle_alpha   90.00000000
_cell_angle_beta   90.00000000
_cell_angle_gamma   90.00000000
_symmetry_Int_Tables_number   1
_chemical_formula_structural   Cs3V4Te2ClO14
_chemical_formula_sum   'Cs6 V8 Te4 Cl2 O28'
_cell_volume   946.64310086
_cell_formula_units_Z   2
loop_
 _symmetry_equiv_pos_site_id
 _symmetry_equiv_pos_as_xyz
  1  'x, y, z'
loop_
 _atom_site_type_symbol
 _atom_site_label
 _atom_site_symmetry_multiplicity
 _atom_site_fract_x
 _atom_site_fract_y
 _atom_site_fract_z
 _atom_site_occupancy
  Cs  Cs0  1  0.00000000  0.50000000  0.50000000  1
  Cs  Cs1  1  0.50000000  0.15297500  0.77065100  1
  Cs  Cs2  1  0.00000000  0.65297500  0.72934900  1
  Cs  Cs3  1  0.00000000  0.34702500  0.27065100  1
  Cs  Cs4  1  0.50000000  0.84702500  0.22934900  1
  Cs  Cs5  1  0.50000000  0.00000000  0.00000000  1
  V  V0  1  0.00000000  0.13055600  0.63717300  1
  V  V1  1  0.50000000  0.36944400  0.13717300  1
  V  V2  1  0.00000000  0.06348500  0.11596400  1
  V  V3  1  0.50000000  0.43651500  0.61596400  1
  V  V4  1  0.00000000  0.86944400  0.36282700  1
  V  V5  1  0.50000000  0.63055600  0.86282700  1
  V  V6  1  0.50000000  0.56348500  0.38403600  1
  V  V7  1  0.00000000  0.93651500  0.88403600  1
  Te  Te0  1  0.50000000  0.07245300  0.41594600  1
  Te  Te1  1  0.50000000  0.92754700  0.58405400  1
  Te  Te2  1  0.00000000  0.57245300  0.08405400  1
  Te  Te3  1  0.00000000  0.42754700  0.91594600  1
  Cl  Cl0  1  0.00000000  0.00000000  0.50000000  1
  Cl  Cl1  1  0.50000000  0.50000000  0.00000000  1
  O  O0  1  0.25156200  0.79440000  0.89843100  1
  O  O1  1  0.00000000  0.85060700  0.06950700  1
  O  O2  1  0.00000000  0.14939300  0.93049300  1
  O  O3  1  0.24843800  0.29440000  0.60156900  1
  O  O4  1  0.25156200  0.20560000  0.10156900  1
  O  O5  1  0.50000000  0.50222200  0.31890300  1
  O  O6  1  0.75156200  0.70560000  0.39843100  1
  O  O7  1  0.24381400  0.08120300  0.36536800  1
  O  O8  1  0.75156200  0.29440000  0.60156900  1
  O  O9  1  0.00000000  0.79906700  0.29819300  1
  O  O10  1  0.74843800  0.20560000  0.10156900  1
  O  O11  1  0.75618600  0.91879700  0.63463200  1
  O  O12  1  0.74381400  0.41879700  0.86536800  1
  O  O13  1  0.50000000  0.49777800  0.68109700  1
  O  O14  1  0.50000000  0.35060700  0.43049300  1
  O  O15  1  0.74381400  0.58120300  0.13463200  1
  O  O16  1  0.24843800  0.70560000  0.39843100  1
  O  O17  1  0.50000000  0.70093300  0.79819300  1
  O  O18  1  0.25618600  0.58120300  0.13463200  1
  O  O19  1  0.00000000  0.20093300  0.70180700  1
  O  O20  1  0.25618600  0.41879700  0.86536800  1
  O  O21  1  0.00000000  0.99777800  0.81890300  1
  O  O22  1  0.74843800  0.79440000  0.89843100  1
  O  O23  1  0.75618600  0.08120300  0.36536800  1
  O  O24  1  0.50000000  0.29906700  0.20180700  1
  O  O25  1  0.00000000  0.00222200  0.18109700  1
  O  O26  1  0.24381400  0.91879700  0.63463200  1
  O  O27  1  0.50000000  0.64939300  0.56950700  1
loop_
_geom_bond_atom_site_label_1
_geom_bond_atom_site_label_2
_geom_bond_distance
_geom_bond_site_symmetry_2
Cs0 O3 3.181481 1_555
Cs0 O6 3.181481 1_455
Cs0 O16 3.181481 1_555
Cs0 O8 3.181481 1_455
Cs0 O27 3.427098 1_555
Cs0 O27 3.427098 1_455
Cs0 O14 3.427098 1_455
Cs0 O14 3.427098 1_555
Cs1 O17 3.208972 1_545
Cs1 O21 3.214760 1_545
Cs1 O21 3.214760 1_645
Cs1 O13 3.243350 1_555
Cs1 O12 3.258078 1_555
Cs1 O20 3.258078 1_555
Cs1 O19 3.275027 1_555
Cs1 O19 3.275027 1_655
Cs2 O19 3.208972 1_555
Cs2 O13 3.214760 1_555
Cs2 O13 3.214760 1_455
Cs2 O21 3.243350 1_555
Cs2 O26 3.258078 1_555
Cs2 O11 3.258078 1_455
Cs2 O17 3.275027 1_555
Cs2 O17 3.275027 1_455
Cs3 O9 3.208972 1_555
Cs3 O5 3.214760 1_455
Cs3 O5 3.214760 1_555
Cs3 O25 3.243350 1_555
Cs3 O7 3.258078 1_555
Cs3 O23 3.258078 1_455
Cs3 O24 3.275027 1_555
Cs3 O24 3.275027 1_455
Cs4 O24 3.208972 1_565
Cs4 O25 3.214760 1_565
Cs4 O25 3.214760 1_665
Cs4 O5 3.243350 1_555
Cs4 O15 3.258078 1_555
Cs4 O18 3.258078 1_555
Cs4 O9 3.275027 1_555
Cs4 O9 3.275027 1_655
Cs5 O10 3.181481 1_555
Cs5 O4 3.181481 1_555
Cs5 O22 3.181481 1_544
Cs5 O0 3.181481 1_544
Cs5 O1 3.427098 1_545
Cs5 O1 3.427098 1_645
Cs5 O2 3.427098 1_654
Cs5 O2 3.427098 1_554
Cl0 Cs0 3.470428 1_555
Cl0 Cs0 3.470428 1_545
Cl1 Cs5 3.470428 1_565
Cl1 Cs5 3.470428 1_555
O0 V7 1.751282 1_555
O0 V5 1.993045 1_555
O1 V2 1.863517 1_565
O1 Te2 1.963099 1_555
O2 V7 1.863517 1_545
O2 Te3 1.963099 1_555
O3 V3 1.751282 1_555
O3 V0 1.993045 1_555
O4 V2 1.751282 1_555
O4 V1 1.993045 1_555
O5 V6 1.647885 1_555
O6 V6 1.751282 1_555
O6 V4 1.993045 1_655
O7 Te0 1.890880 1_555
O7 V4 2.003707 1_545
O8 V3 1.751282 1_555
O8 V0 1.993045 1_655
O9 V4 1.653673 1_555
O10 V2 1.751282 1_655
O10 V1 1.993045 1_555
O11 Te1 1.890880 1_555
O11 V0 2.003707 1_665
O12 Te3 1.890880 1_655
O12 V5 2.003707 1_555
O13 V3 1.647885 1_555
O14 V6 1.863517 1_555
O14 Te0 1.963099 1_555
O15 Te2 1.890880 1_655
O15 V1 2.003707 1_555
O16 V6 1.751282 1_555
O16 V4 1.993045 1_555
O17 V5 1.653673 1_555
O18 Te2 1.890880 1_555
O18 V1 2.003707 1_555
O19 V0 1.653673 1_555
O20 Te3 1.890880 1_555
O20 V5 2.003707 1_555
O21 V7 1.647885 1_555
O22 V7 1.751282 1_655
O22 V5 1.993045 1_555
O23 Te0 1.890880 1_555
O23 V4 2.003707 1_645
O24 V1 1.653673 1_555
O25 V2 1.647885 1_555
O26 Te1 1.890880 1_555
O26 V0 2.003707 1_565
O27 V3 1.863517 1_555
O27 Te1 1.963099 1_555
