# generated using pymatgen
data_NaN3
_symmetry_space_group_name_H-M   'P 1'
_cell_length_a   3.42901613
_cell_length_b   3.42901613
_cell_length_c   4.74380542
_cell_angle_alpha   72.71186686
_cell_angle_beta   72.71186686
_cell_angle_gamma   77.23300642
_symmetry_Int_Tables_number   1
_chemical_formula_structural   NaN3
_chemical_formula_sum   'Na1 N3'
_cell_volume   50.31101762
_cell_formula_units_Z   1
loop_
 _symmetry_equiv_pos_site_id
 _symmetry_equiv_pos_as_xyz
  1  'x, y, z'
loop_
 _atom_site_type_symbol
 _atom_site_label
 _atom_site_symmetry_multiplicity
 _atom_site_fract_x
 _atom_site_fract_y
 _atom_site_fract_z
 _atom_site_occupancy
  Na  Na0  1  0.96297000  0.03703000  0.50000000  1
  N  N0  1  0.02082400  0.97917600  0.00000000  1
  N  N1  1  0.23043400  0.19242500  0.81319700  1
  N  N2  1  0.80757500  0.76956600  0.18680300  1
loop_
_geom_bond_atom_site_label_1
_geom_bond_atom_site_label_2
_geom_bond_distance
_geom_bond_site_symmetry_2
N0 N1 1.142446 1_564
N0 N2 1.142446 1_455
N0 Na0 2.384793 1_465
N0 Na0 2.384793 1_464
N1 Na0 2.197483 1_455
N1 Na0 2.541995 1_555
N1 Na0 2.918011 1_465
N2 Na0 2.197483 1_565
N2 Na0 2.541995 1_555
N2 Na0 2.918011 1_465
