# generated using pymatgen
data_BaCaRu2
_symmetry_space_group_name_H-M   'P 1'
_cell_length_a   4.99589326
_cell_length_b   4.99589326
_cell_length_c   4.99589326
_cell_angle_alpha   60.00000000
_cell_angle_beta   60.00000000
_cell_angle_gamma   60.00000000
_symmetry_Int_Tables_number   1
_chemical_formula_structural   BaCaRu2
_chemical_formula_sum   'Ba1 Ca1 Ru2'
_cell_volume   88.17073354
_cell_formula_units_Z   1
loop_
 _symmetry_equiv_pos_site_id
 _symmetry_equiv_pos_as_xyz
  1  'x, y, z'
loop_
 _atom_site_type_symbol
 _atom_site_label
 _atom_site_symmetry_multiplicity
 _atom_site_fract_x
 _atom_site_fract_y
 _atom_site_fract_z
 _atom_site_occupancy
  Ba  Ba0  1  0.50000000  0.50000000  0.50000000  1
  Ca  Ca0  1  0.25000000  0.25000000  0.25000000  1
  Ru  Ru0  1  0.00000000  0.00000000  0.00000000  1
  Ru  Ru1  1  0.75000000  0.75000000  0.75000000  1
loop_
_geom_bond_atom_site_label_1
_geom_bond_atom_site_label_2
_geom_bond_distance
_geom_bond_site_symmetry_2
Ba0 Ca0 3.059347 1_655
Ba0 Ru1 3.059347 1_455
Ba0 Ru1 3.059347 1_555
Ba0 Ca0 3.059347 1_556
Ba0 Ru1 3.059347 1_545
Ba0 Ca0 3.059347 1_565
Ba0 Ru1 3.059347 1_554
Ba0 Ca0 3.059347 1_555
Ba0 Ru0 3.532630 1_566
Ba0 Ru0 3.532630 1_655
Ba0 Ru0 3.532630 1_556
Ba0 Ru0 3.532630 1_565
Ba0 Ru0 3.532630 1_656
Ba0 Ru0 3.532630 1_665
Ca0 Ru0 3.059347 1_655
Ca0 Ru0 3.059347 1_555
Ca0 Ru0 3.059347 1_556
Ca0 Ru0 3.059347 1_565
Ca0 Ru1 3.532630 1_445
Ca0 Ru1 3.532630 1_545
Ca0 Ru1 3.532630 1_544
Ca0 Ru1 3.532630 1_554
Ca0 Ru1 3.532630 1_455
Ca0 Ru1 3.532630 1_454
