# generated using pymatgen
data_LiBi(PO3)4
_symmetry_space_group_name_H-M   'P 1'
_cell_length_a   13.21822000
_cell_length_b   7.24021800
_cell_length_c   12.14908568
_cell_angle_alpha   54.33000776
_cell_angle_beta   90.00000000
_cell_angle_gamma   90.00000000
_symmetry_Int_Tables_number   1
_chemical_formula_structural   LiBi(PO3)4
_chemical_formula_sum   'Li4 Bi4 P16 O48'
_cell_volume   944.56590865
_cell_formula_units_Z   4
loop_
 _symmetry_equiv_pos_site_id
 _symmetry_equiv_pos_as_xyz
  1  'x, y, z'
loop_
 _atom_site_type_symbol
 _atom_site_label
 _atom_site_symmetry_multiplicity
 _atom_site_fract_x
 _atom_site_fract_y
 _atom_site_fract_z
 _atom_site_occupancy
  Li  Li0  1  0.21809600  0.56811900  0.94061500  1
  Li  Li1  1  0.78190400  0.43188100  0.05938500  1
  Li  Li2  1  0.28190400  0.56811900  0.44061500  1
  Li  Li3  1  0.71809600  0.43188100  0.55938500  1
  Bi  Bi0  1  0.78182600  0.03331300  0.97846800  1
  Bi  Bi1  1  0.71817400  0.03331300  0.47846800  1
  Bi  Bi2  1  0.28182600  0.96668700  0.52153200  1
  Bi  Bi3  1  0.21817400  0.96668700  0.02153200  1
  P  P0  1  0.90949700  0.07721300  0.69750000  1
  P  P1  1  0.11507200  0.38494700  0.23275000  1
  P  P2  1  0.88492800  0.61505300  0.76725000  1
  P  P3  1  0.62811800  0.83634300  0.80748000  1
  P  P4  1  0.87188200  0.83634300  0.30748000  1
  P  P5  1  0.37188200  0.16365700  0.19252000  1
  P  P6  1  0.10125600  0.49301800  0.76125200  1
  P  P7  1  0.39874400  0.49301800  0.26125200  1
  P  P8  1  0.12811800  0.16365700  0.69252000  1
  P  P9  1  0.60125600  0.50698200  0.73874800  1
  P  P10  1  0.40949700  0.92278700  0.80250000  1
  P  P11  1  0.09050300  0.92278700  0.30250000  1
  P  P12  1  0.89874400  0.50698200  0.23874800  1
  P  P13  1  0.59050300  0.07721300  0.19750000  1
  P  P14  1  0.38492800  0.38494700  0.73275000  1
  P  P15  1  0.61507200  0.61505300  0.26725000  1
  O  O0  1  0.02160800  0.15402200  0.63094700  1
  O  O1  1  0.89231900  0.69222100  0.08917100  1
  O  O2  1  0.12391600  0.40672100  0.66876900  1
  O  O3  1  0.41898500  0.19498000  0.71130700  1
  O  O4  1  0.85350500  0.41193200  0.90576500  1
  O  O5  1  0.33384500  0.69984700  0.21279400  1
  O  O6  1  0.62391600  0.59327900  0.83123100  1
  O  O7  1  0.28876900  0.19366100  0.09826500  1
  O  O8  1  0.87608400  0.59327900  0.33123100  1
  O  O9  1  0.01343600  0.42638500  0.28654800  1
  O  O10  1  0.36657300  0.97453400  0.34106800  1
  O  O11  1  0.33597700  0.83076400  0.91798900  1
  O  O12  1  0.08101500  0.19498000  0.21130700  1
  O  O13  1  0.64649500  0.41193200  0.40576500  1
  O  O14  1  0.31039100  0.29096700  0.84614300  1
  O  O15  1  0.83384500  0.30015300  0.28720600  1
  O  O16  1  0.21123100  0.19366100  0.59826500  1
  O  O17  1  0.18960900  0.29096700  0.34614300  1
  O  O18  1  0.97839200  0.84597800  0.36905300  1
  O  O19  1  0.98656400  0.57361500  0.71345200  1
  O  O20  1  0.81039100  0.70903300  0.65385700  1
  O  O21  1  0.60768100  0.69222100  0.58917100  1
  O  O22  1  0.37608400  0.40672100  0.16876900  1
  O  O23  1  0.91898500  0.80502000  0.78869300  1
  O  O24  1  0.51343600  0.57361500  0.21345200  1
  O  O25  1  0.78876900  0.80633900  0.40173500  1
  O  O26  1  0.16402300  0.83076400  0.41798900  1
  O  O27  1  0.66615500  0.30015300  0.78720600  1
  O  O28  1  0.16615500  0.69984700  0.71279400  1
  O  O29  1  0.60760600  0.14397800  0.29223300  1
  O  O30  1  0.10760600  0.85602200  0.20776700  1
  O  O31  1  0.83597700  0.16923600  0.58201100  1
  O  O32  1  0.71123100  0.80633900  0.90173500  1
  O  O33  1  0.86657300  0.02546600  0.15893200  1
  O  O34  1  0.52160800  0.84597800  0.86905300  1
  O  O35  1  0.39231900  0.30777900  0.41082900  1
  O  O36  1  0.47839200  0.15402200  0.13094700  1
  O  O37  1  0.89239400  0.14397800  0.79223300  1
  O  O38  1  0.63342700  0.02546600  0.65893200  1
  O  O39  1  0.13342700  0.97453400  0.84106800  1
  O  O40  1  0.68960900  0.70903300  0.15385700  1
  O  O41  1  0.66402300  0.16923600  0.08201100  1
  O  O42  1  0.35350500  0.58806800  0.59423500  1
  O  O43  1  0.58101500  0.80502000  0.28869300  1
  O  O44  1  0.48656400  0.42638500  0.78654800  1
  O  O45  1  0.10768100  0.30777900  0.91082900  1
  O  O46  1  0.39239400  0.85602200  0.70776700  1
  O  O47  1  0.14649500  0.58806800  0.09423500  1
loop_
_geom_bond_atom_site_label_1
_geom_bond_atom_site_label_2
_geom_bond_distance
_geom_bond_site_symmetry_2
Li0 O47 2.171225 1_556
Li0 O11 2.347333 1_555
Li0 O7 2.415690 1_556
Li0 O28 2.441969 1_555
Li0 O45 2.570888 1_555
Li1 O4 2.171225 1_554
Li1 O41 2.347333 1_555
Li1 O32 2.415690 1_554
Li1 O15 2.441969 1_555
Li1 O1 2.570888 1_555
Li2 O42 2.171225 1_555
Li2 O26 2.347333 1_555
Li2 O16 2.415690 1_555
Li2 O5 2.441969 1_555
Li2 O35 2.570888 1_555
Li3 O13 2.171225 1_555
Li3 O31 2.347333 1_555
Li3 O25 2.415690 1_555
Li3 O27 2.441969 1_555
Li3 O21 2.570888 1_555
Bi0 O40 2.388337 1_546
Bi0 O37 2.404800 1_555
Bi0 O33 2.433054 1_556
Bi0 O1 2.483394 1_546
Bi0 O32 2.495402 1_545
Bi0 O27 2.496828 1_555
Bi0 O4 2.523629 1_555
Bi0 O41 2.533650 1_556
Bi1 O20 2.388337 1_545
Bi1 O29 2.404800 1_555
Bi1 O38 2.433054 1_555
Bi1 O21 2.483394 1_545
Bi1 O25 2.495402 1_545
Bi1 O15 2.496828 1_555
Bi1 O13 2.523629 1_555
Bi1 O31 2.533650 1_555
Bi2 O17 2.388337 1_565
Bi2 O46 2.404800 1_555
Bi2 O10 2.433054 1_555
Bi2 O35 2.483394 1_565
Bi2 O16 2.495402 1_565
Bi2 O28 2.496828 1_555
Bi2 O42 2.523629 1_555
Bi2 O26 2.533650 1_555
Bi3 O14 2.388337 1_564
Bi3 O30 2.404800 1_555
Bi3 O39 2.433054 1_554
Bi3 O45 2.483394 1_564
Bi3 O7 2.495402 1_565
Bi3 O5 2.496828 1_555
Bi3 O47 2.523629 1_555
Bi3 O11 2.533650 1_554
O0 P8 1.614750 1_555
O0 P0 1.623171 1_455
O1 P12 1.505293 1_555
O2 P6 1.600396 1_555
O2 P8 1.609706 1_555
O3 P14 1.606277 1_555
O3 P10 1.606439 1_545
O4 P2 1.510294 1_555
O5 P7 1.515524 1_555
O6 P9 1.600396 1_555
O6 P3 1.609706 1_555
O7 P5 1.508409 1_555
O8 P12 1.600396 1_555
O8 P4 1.609706 1_555
O9 P1 1.597103 1_555
O9 P12 1.606512 1_455
O10 P5 1.501641 1_565
O11 P10 1.505568 1_555
O12 P1 1.606277 1_555
O12 P11 1.606439 1_545
O13 P15 1.510294 1_555
O14 P14 1.496108 1_555
O15 P12 1.515524 1_555
O16 P8 1.508409 1_555
O17 P1 1.496108 1_555
O18 P4 1.614750 1_555
O18 P11 1.623171 1_655
O19 P2 1.597103 1_555
O19 P6 1.606512 1_655
O20 P2 1.496108 1_555
O21 P9 1.505293 1_555
O22 P7 1.600396 1_555
O22 P5 1.609706 1_555
O23 P2 1.606277 1_555
O23 P0 1.606439 1_565
O24 P15 1.597103 1_555
O24 P7 1.606512 1_555
O25 P4 1.508409 1_555
O26 P11 1.505568 1_555
O27 P9 1.515524 1_555
O28 P6 1.515524 1_555
O29 P13 1.502738 1_555
O30 P11 1.502738 1_555
O31 P0 1.505568 1_555
O32 P3 1.508409 1_555
O33 P4 1.501641 1_545
O34 P3 1.614750 1_555
O34 P10 1.623171 1_555
O35 P7 1.505293 1_555
O36 P5 1.614750 1_555
O36 P13 1.623171 1_555
O37 P0 1.502738 1_555
O38 P3 1.501641 1_545
O39 P8 1.501641 1_565
O40 P15 1.496108 1_555
O41 P13 1.505568 1_555
O42 P14 1.510294 1_555
O43 P15 1.606277 1_555
O43 P13 1.606439 1_565
O44 P14 1.597103 1_555
O44 P9 1.606512 1_555
O45 P6 1.505293 1_555
O46 P10 1.502738 1_555
O47 P1 1.510294 1_555
