# generated using pymatgen
data_BaCu2P2H2O9
_symmetry_space_group_name_H-M   'P 1'
_cell_length_a   5.21873600
_cell_length_b   9.83921600
_cell_length_c   14.89225600
_cell_angle_alpha   90.00000000
_cell_angle_beta   90.00000000
_cell_angle_gamma   90.00000000
_symmetry_Int_Tables_number   1
_chemical_formula_structural   BaCu2P2H2O9
_chemical_formula_sum   'Ba4 Cu8 P8 H8 O36'
_cell_volume   764.69159318
_cell_formula_units_Z   4
loop_
 _symmetry_equiv_pos_site_id
 _symmetry_equiv_pos_as_xyz
  1  'x, y, z'
loop_
 _atom_site_type_symbol
 _atom_site_label
 _atom_site_symmetry_multiplicity
 _atom_site_fract_x
 _atom_site_fract_y
 _atom_site_fract_z
 _atom_site_occupancy
  Ba  Ba0  1  0.49569600  0.02158000  0.03628800  1
  Ba  Ba1  1  0.00430400  0.97842000  0.53628800  1
  Ba  Ba2  1  0.99569600  0.47842000  0.96371200  1
  Ba  Ba3  1  0.50430400  0.52158000  0.46371200  1
  Cu  Cu0  1  0.48068300  0.75169100  0.23985200  1
  Cu  Cu1  1  0.01931700  0.24830900  0.73985200  1
  Cu  Cu2  1  0.98068300  0.74830900  0.76014800  1
  Cu  Cu3  1  0.51931700  0.25169100  0.26014800  1
  Cu  Cu4  1  0.90144100  0.51261000  0.21895000  1
  Cu  Cu5  1  0.59855900  0.48739000  0.71895000  1
  Cu  Cu6  1  0.40144100  0.98739000  0.78105000  1
  Cu  Cu7  1  0.09855900  0.01261000  0.28105000  1
  P  P0  1  0.97973600  0.80222900  0.12373000  1
  P  P1  1  0.52026400  0.19777100  0.62373000  1
  P  P2  1  0.47973600  0.69777100  0.87627000  1
  P  P3  1  0.02026400  0.30222900  0.37627100  1
  P  P4  1  0.98830300  0.72398600  0.36536700  1
  P  P5  1  0.51169700  0.27601400  0.86536700  1
  P  P6  1  0.48830300  0.77601400  0.63463300  1
  P  P7  1  0.01169700  0.22398600  0.13463300  1
  H  H0  1  0.35975300  0.47899700  0.14961900  1
  H  H1  1  0.14024700  0.52100300  0.64961900  1
  H  H2  1  0.85975300  0.02100300  0.85038100  1
  H  H3  1  0.64024700  0.97899700  0.35038100  1
  H  H4  1  0.52190900  0.57410100  0.08650600  1
  H  H5  1  0.97809100  0.42589900  0.58650600  1
  H  H6  1  0.02190900  0.92589900  0.91349400  1
  H  H7  1  0.47809100  0.07410100  0.41349400  1
  O  O0  1  0.70973500  0.84650500  0.15835900  1
  O  O1  1  0.79026500  0.15349500  0.65835900  1
  O  O2  1  0.20973500  0.65349500  0.84164100  1
  O  O3  1  0.29026500  0.34650500  0.34164100  1
  O  O4  1  0.00898800  0.64575700  0.12316200  1
  O  O5  1  0.49101200  0.35424300  0.62316200  1
  O  O6  1  0.50898800  0.85424300  0.87683800  1
  O  O7  1  0.99101200  0.14575700  0.37683800  1
  O  O8  1  0.02715800  0.86518400  0.03164400  1
  O  O9  1  0.47284200  0.13481600  0.53164400  1
  O  O10  1  0.52715800  0.63481600  0.96835600  1
  O  O11  1  0.97284200  0.36518400  0.46835600  1
  O  O12  1  0.18954800  0.86484900  0.19092900  1
  O  O13  1  0.31045200  0.13515100  0.69092900  1
  O  O14  1  0.68954800  0.63515100  0.80907100  1
  O  O15  1  0.81045200  0.36484900  0.30907100  1
  O  O16  1  0.77890500  0.65500000  0.30170600  1
  O  O17  1  0.72109500  0.34500000  0.80170600  1
  O  O18  1  0.27890500  0.84500000  0.69829400  1
  O  O19  1  0.22109500  0.15500000  0.19829400  1
  O  O20  1  0.25832200  0.68010900  0.33230400  1
  O  O21  1  0.24167800  0.31989100  0.83230400  1
  O  O22  1  0.75832200  0.81989100  0.66769600  1
  O  O23  1  0.74167800  0.18010900  0.16769600  1
  O  O24  1  0.94299000  0.88081400  0.36123900  1
  O  O25  1  0.55701000  0.11918600  0.86123900  1
  O  O26  1  0.44299000  0.61918600  0.63876100  1
  O  O27  1  0.05701000  0.38081400  0.13876100  1
  O  O28  1  0.94807100  0.67557800  0.46110100  1
  O  O29  1  0.55192900  0.32442200  0.96110100  1
  O  O30  1  0.44807100  0.82442200  0.53889900  1
  O  O31  1  0.05192900  0.17557800  0.03889900  1
  O  O32  1  0.51592700  0.53519800  0.14759700  1
  O  O33  1  0.98407300  0.46480200  0.64759700  1
  O  O34  1  0.01592700  0.96480200  0.85240300  1
  O  O35  1  0.48407300  0.03519800  0.35240300  1
loop_
_geom_bond_atom_site_label_1
_geom_bond_atom_site_label_2
_geom_bond_distance
_geom_bond_site_symmetry_2
Ba0 O0 2.742240 1_545
Ba0 O31 2.767817 1_555
Ba0 O25 2.796513 1_554
Ba0 O23 2.812579 1_555
Ba0 O8 2.889917 1_545
Ba0 O6 2.890371 1_544
Ba0 O19 3.098032 1_555
Ba0 O8 3.172596 1_645
Ba0 O29 3.196660 1_554
Ba0 O12 3.199119 1_545
Ba0 O31 3.274728 1_655
Ba1 O1 2.742240 1_465
Ba1 O30 2.767817 1_555
Ba1 O24 2.796513 1_455
Ba1 O22 2.812579 1_455
Ba1 O9 2.889917 1_565
Ba1 O7 2.890371 1_465
Ba1 O18 3.098032 1_555
Ba1 O9 3.172596 1_465
Ba1 O28 3.196660 1_455
Ba1 O13 3.199119 1_565
Ba1 O30 3.274728 1_455
Ba2 O2 2.742240 1_655
Ba2 O29 2.767817 1_555
Ba2 O27 2.796513 1_656
Ba2 O21 2.812579 1_655
Ba2 O10 2.889917 1_555
Ba2 O4 2.890371 1_656
Ba2 O17 3.098032 1_555
Ba2 O10 3.172596 1_655
Ba2 O31 3.196660 1_656
Ba2 O14 3.199119 1_555
Ba2 O29 3.274728 1_655
Ba3 O3 2.742240 1_555
Ba3 O28 2.767817 1_555
Ba3 O26 2.796513 1_555
Ba3 O20 2.812579 1_555
Ba3 O11 2.889917 1_555
Ba3 O5 2.890371 1_555
Ba3 O16 3.098032 1_555
Ba3 O11 3.172596 1_455
Ba3 O30 3.196660 1_555
Ba3 O15 3.199119 1_555
Ba3 O28 3.274728 1_455
Cu0 O20 1.933472 1_555
Cu0 O0 1.942175 1_555
Cu0 O12 2.019627 1_555
Cu0 O16 2.043478 1_555
Cu0 O32 2.541418 1_555
Cu1 O21 1.933472 1_555
Cu1 O1 1.942175 1_455
Cu1 O13 2.019627 1_555
Cu1 O17 2.043478 1_455
Cu1 O33 2.541418 1_455
Cu2 O22 1.933472 1_555
Cu2 O2 1.942175 1_655
Cu2 O14 2.019627 1_555
Cu2 O18 2.043478 1_655
Cu2 O34 2.541418 1_655
Cu3 O23 1.933472 1_555
Cu3 O3 1.942175 1_555
Cu3 O15 2.019627 1_555
Cu3 O19 2.043478 1_555
Cu3 O35 2.541418 1_555
Cu4 O27 1.940838 1_655
Cu4 O16 1.972466 1_555
Cu4 O4 2.016476 1_655
Cu4 O15 2.034800 1_555
Cu4 O32 2.286100 1_555
Cu5 O26 1.940838 1_555
Cu5 O17 1.972466 1_555
Cu5 O5 2.016476 1_555
Cu5 O14 2.034800 1_555
Cu5 O33 2.286100 1_555
Cu6 O25 1.940838 1_565
Cu6 O18 1.972466 1_555
Cu6 O6 2.016476 1_555
Cu6 O13 2.034800 1_565
Cu6 O34 2.286100 1_555
Cu7 O24 1.940838 1_445
Cu7 O19 1.972466 1_555
Cu7 O7 2.016476 1_455
Cu7 O12 2.034800 1_545
Cu7 O35 2.286100 1_555
H0 O32 0.985374 1_555
H1 O33 0.985374 1_455
H2 O34 0.985374 1_645
H3 O35 0.985374 1_565
H4 O32 0.987520 1_555
H5 O33 0.987520 1_555
H6 O34 0.987520 1_555
H7 O35 0.987520 1_555
O0 P0 1.562432 1_555
O1 P1 1.562432 1_555
O2 P2 1.562432 1_555
O3 P3 1.562437 1_555
O4 P0 1.547135 1_455
O5 P1 1.547135 1_555
O6 P2 1.547135 1_555
O7 P3 1.547135 1_655
O8 P0 1.524988 1_455
O9 P1 1.524988 1_555
O10 P2 1.524988 1_555
O11 P3 1.524975 1_655
O12 P0 1.606248 1_455
O13 P1 1.606248 1_555
O14 P2 1.606248 1_555
O15 P3 1.606257 1_655
O16 P4 1.598040 1_555
O17 P5 1.598040 1_555
O18 P6 1.598040 1_555
O19 P7 1.598040 1_555
O20 P4 1.553881 1_455
O21 P5 1.553881 1_555
O22 P6 1.553881 1_555
O23 P7 1.553881 1_655
O24 P4 1.562290 1_555
O25 P5 1.562290 1_555
O26 P6 1.562290 1_555
O27 P7 1.562290 1_555
O28 P4 1.517745 1_555
O29 P5 1.517745 1_555
O30 P6 1.517745 1_555
O31 P7 1.517745 1_555
