# generated using pymatgen
data_Ca10La6Mg3Ti13O48
_symmetry_space_group_name_H-M   'P 1'
_cell_length_a   5.49509500
_cell_length_b   5.56208916
_cell_length_c   31.18936076
_cell_angle_alpha   89.86994677
_cell_angle_beta   89.96937855
_cell_angle_gamma   89.92993173
_symmetry_Int_Tables_number   1
_chemical_formula_structural   Ca10La6Mg3Ti13O48
_chemical_formula_sum   'Ca10 La6 Mg3 Ti13 O48'
_cell_volume   953.27481643
_cell_formula_units_Z   1
loop_
 _symmetry_equiv_pos_site_id
 _symmetry_equiv_pos_as_xyz
  1  'x, y, z'
loop_
 _atom_site_type_symbol
 _atom_site_label
 _atom_site_symmetry_multiplicity
 _atom_site_fract_x
 _atom_site_fract_y
 _atom_site_fract_z
 _atom_site_occupancy
  Ca  Ca0  1  0.99021700  0.03770300  0.93785800  1
  Ca  Ca1  1  0.51503100  0.54363500  0.43843400  1
  Ca  Ca2  1  0.51524000  0.54321600  0.18707200  1
  Ca  Ca3  1  0.51383900  0.54125900  0.93795500  1
  Ca  Ca4  1  0.48770000  0.46071000  0.06088900  1
  Ca  Ca5  1  0.48306100  0.45540900  0.81415000  1
  Ca  Ca6  1  0.01022800  0.96131000  0.30981900  1
  Ca  Ca7  1  0.00880100  0.96176400  0.06020700  1
  Ca  Ca8  1  0.01586500  0.96173700  0.81445600  1
  Ca  Ca9  1  0.01110600  0.96214800  0.56010100  1
  La  La0  1  0.99017100  0.02975000  0.18842000  1
  La  La1  1  0.99303800  0.02693500  0.43946100  1
  La  La2  1  0.99416400  0.02787100  0.69199500  1
  La  La3  1  0.50857600  0.53183200  0.69208800  1
  La  La4  1  0.48784700  0.46491300  0.30856200  1
  La  La5  1  0.48983400  0.46689800  0.55837300  1
  Mg  Mg0  1  0.49896600  0.99896700  0.24960000  1
  Mg  Mg1  1  0.49913500  0.99996600  0.49958700  1
  Mg  Mg2  1  0.50124800  0.00061600  0.75341100  1
  Ti  Ti0  1  0.00217200  0.50001900  0.99940400  1
  Ti  Ti1  1  0.00117600  0.50018400  0.49818200  1
  Ti  Ti2  1  0.99940400  0.49060100  0.87722500  1
  Ti  Ti3  1  0.49334400  0.00716700  0.12333700  1
  Ti  Ti4  1  0.49960900  0.00091900  0.99866300  1
  Ti  Ti5  1  0.49706700  0.99814700  0.62360200  1
  Ti  Ti6  1  0.49308600  0.99575700  0.37413600  1
  Ti  Ti7  1  0.50804400  0.98962400  0.87396000  1
  Ti  Ti8  1  0.99917100  0.50679100  0.12197400  1
  Ti  Ti9  1  0.00104900  0.50068900  0.24724300  1
  Ti  Ti10  1  0.99181300  0.49815500  0.37412000  1
  Ti  Ti11  1  0.99695500  0.49968400  0.62475900  1
  Ti  Ti12  1  0.99910300  0.49986300  0.75658300  1
  O  O0  1  0.91523200  0.51823100  0.06215800  1
  O  O1  1  0.92176300  0.51950800  0.31380000  1
  O  O2  1  0.92245800  0.52057000  0.56380500  1
  O  O3  1  0.90999300  0.52658200  0.81487300  1
  O  O4  1  0.78136000  0.77406700  0.13493500  1
  O  O5  1  0.77958300  0.77415300  0.38639200  1
  O  O6  1  0.78677900  0.77398800  0.48959900  1
  O  O7  1  0.78431000  0.77014700  0.73882900  1
  O  O8  1  0.77439600  0.77248900  0.63649500  1
  O  O9  1  0.78293000  0.78488700  0.88785500  1
  O  O10  1  0.78687200  0.77419000  0.23915800  1
  O  O11  1  0.78340200  0.78115700  0.98916500  1
  O  O12  1  0.72068000  0.27694700  0.13566200  1
  O  O13  1  0.72161500  0.29289900  0.23831600  1
  O  O14  1  0.72417100  0.28369100  0.38692300  1
  O  O15  1  0.72230500  0.29316100  0.48890600  1
  O  O16  1  0.72932600  0.28518500  0.73914200  1
  O  O17  1  0.71986800  0.28275000  0.98906700  1
  O  O18  1  0.72584100  0.27918200  0.63629800  1
  O  O19  1  0.72280200  0.28842700  0.88804400  1
  O  O20  1  0.58262800  0.01998300  0.06192100  1
  O  O21  1  0.58911000  0.02079900  0.31535900  1
  O  O22  1  0.59102100  0.02875500  0.81709100  1
  O  O23  1  0.58848700  0.01925900  0.56535300  1
  O  O24  1  0.42067800  0.97911700  0.43443200  1
  O  O25  1  0.42081100  0.97675600  0.18320700  1
  O  O26  1  0.42453500  0.98844500  0.68527800  1
  O  O27  1  0.41697800  0.98100200  0.93934400  1
  O  O28  1  0.27977700  0.71746700  0.01113700  1
  O  O29  1  0.27526500  0.71564100  0.11229400  1
  O  O30  1  0.27014500  0.71402700  0.26016900  1
  O  O31  1  0.27674900  0.72197700  0.36324600  1
  O  O32  1  0.27367000  0.70862100  0.76072100  1
  O  O33  1  0.27055100  0.71499600  0.51057300  1
  O  O34  1  0.27687700  0.72328000  0.61397900  1
  O  O35  1  0.28410200  0.72224300  0.86457100  1
  O  O36  1  0.21793000  0.22051200  0.01111300  1
  O  O37  1  0.20568100  0.22390700  0.26120200  1
  O  O38  1  0.21529000  0.21445200  0.11287700  1
  O  O39  1  0.20628900  0.22393600  0.51170500  1
  O  O40  1  0.20489600  0.22223800  0.76101400  1
  O  O41  1  0.21513900  0.22481200  0.86473200  1
  O  O42  1  0.21821700  0.22051200  0.36345300  1
  O  O43  1  0.22358900  0.22449000  0.61361400  1
  O  O44  1  0.08680400  0.48280300  0.18602300  1
  O  O45  1  0.08940900  0.48401800  0.43675100  1
  O  O46  1  0.07771100  0.48818900  0.68562900  1
  O  O47  1  0.08591000  0.48131400  0.93816600  1
loop_
_geom_bond_atom_site_label_1
_geom_bond_atom_site_label_2
_geom_bond_distance
_geom_bond_site_symmetry_2
Ca0 O27 2.366286 1_645
Ca0 O9 2.392242 1_545
Ca0 O11 2.424891 1_545
Ca0 O47 2.523484 1_655
Ca0 O19 2.550605 1_555
Ca0 O17 2.572557 1_555
Ca0 O41 2.793188 1_655
Ca0 O36 2.799386 1_656
Ca1 O45 2.363252 1_555
Ca1 O15 2.388376 1_555
Ca1 O14 2.448846 1_555
Ca1 O24 2.479320 1_555
Ca1 O5 2.526761 1_555
Ca1 O6 2.536646 1_555
Ca1 O33 2.789089 1_555
Ca1 O31 2.861352 1_555
Ca2 O44 2.378815 1_555
Ca2 O13 2.401450 1_555
Ca2 O12 2.458380 1_555
Ca2 O25 2.468656 1_555
Ca2 O4 2.534563 1_555
Ca2 O10 2.556225 1_555
Ca2 O30 2.813838 1_555
Ca2 O29 2.843986 1_555
Ca3 O47 2.375438 1_555
Ca3 O19 2.392384 1_555
Ca3 O17 2.424465 1_555
Ca3 O27 2.502964 1_555
Ca3 O9 2.541109 1_555
Ca3 O11 2.557876 1_555
Ca3 O28 2.797963 1_556
Ca3 O35 2.799141 1_555
Ca4 O0 2.371765 1_555
Ca4 O28 2.395963 1_555
Ca4 O29 2.438871 1_555
Ca4 O20 2.505764 1_555
Ca4 O36 2.531673 1_555
Ca4 O38 2.595839 1_555
Ca4 O17 2.762115 1_554
Ca4 O12 2.848104 1_555
Ca5 O3 2.379802 1_555
Ca5 O35 2.424020 1_555
Ca5 O22 2.446943 1_555
Ca5 O32 2.464115 1_555
Ca5 O41 2.508873 1_555
Ca5 O40 2.604289 1_555
Ca5 O19 2.810758 1_555
Ca5 O16 2.864313 1_555
Ca6 O21 2.343562 1_465
Ca6 O37 2.361815 1_565
Ca6 O42 2.489999 1_565
Ca6 O1 2.508333 1_455
Ca6 O30 2.516390 1_555
Ca6 O31 2.584861 1_555
Ca6 O10 2.731870 1_455
Ca6 O5 2.895254 1_455
Ca7 O20 2.364344 1_465
Ca7 O36 2.393455 1_565
Ca7 O38 2.444960 1_565
Ca7 O0 2.521191 1_455
Ca7 O28 2.531393 1_555
Ca7 O29 2.577751 1_555
Ca7 O11 2.732925 1_454
Ca7 O4 2.841340 1_455
Ca8 O22 2.365094 1_465
Ca8 O41 2.411476 1_565
Ca8 O40 2.438759 1_565
Ca8 O3 2.490004 1_455
Ca8 O35 2.525558 1_555
Ca8 O32 2.607897 1_555
Ca8 O9 2.799366 1_455
Ca8 O7 2.887267 1_455
Ca9 O23 2.349253 1_465
Ca9 O39 2.353949 1_565
Ca9 O2 2.506916 1_455
Ca9 O43 2.509081 1_565
Ca9 O33 2.512177 1_555
Ca9 O34 2.590294 1_555
Ca9 O6 2.732500 1_455
Ca9 O8 2.910420 1_455
La0 O25 2.389833 1_645
La0 O10 2.400953 1_545
La0 O4 2.477628 1_545
La0 O44 2.576807 1_655
La0 O13 2.597026 1_555
La0 O12 2.603541 1_555
La0 O37 2.781871 1_655
La0 O38 2.850629 1_655
La1 O24 2.369756 1_645
La1 O6 2.387767 1_545
La1 O5 2.471633 1_545
La1 O45 2.598717 1_655
La1 O15 2.605135 1_555
La1 O14 2.625686 1_555
La1 O39 2.769136 1_655
La1 O42 2.880772 1_655
La2 O7 2.347577 1_545
La2 O26 2.383963 1_645
La2 O16 2.516102 1_555
La2 O8 2.547566 1_545
La2 O46 2.608822 1_655
La2 O18 2.670636 1_555
La2 O40 2.675803 1_655
La3 O16 2.344355 1_555
La3 O46 2.389013 1_555
La3 O7 2.488795 1_555
La3 O18 2.536278 1_555
La3 O26 2.589085 1_555
La3 O8 2.631231 1_555
La3 O32 2.686802 1_555
La4 O30 2.370126 1_555
La4 O1 2.409714 1_555
La4 O31 2.510738 1_555
La4 O37 2.529723 1_555
La4 O21 2.539855 1_555
La4 O42 2.639285 1_555
La4 O13 2.714625 1_555
La4 O14 2.943589 1_555
La5 O33 2.359528 1_555
La5 O2 2.402461 1_555
La5 O39 2.527653 1_555
La5 O34 2.532937 1_555
La5 O23 2.556322 1_555
La5 O43 2.630298 1_555
La5 O15 2.695090 1_555
La5 O18 2.944072 1_555
Mg0 O10 2.041703 1_555
Mg0 O30 2.050255 1_555
Mg0 O37 2.071263 1_565
Mg0 O13 2.072534 1_565
Mg0 O21 2.114002 1_565
Mg0 O25 2.118956 1_555
Mg1 O6 2.042463 1_555
Mg1 O33 2.051690 1_555
Mg1 O15 2.067924 1_565
Mg1 O39 2.069029 1_565
Mg1 O24 2.081118 1_555
Mg1 O23 2.112396 1_565
Mg2 O22 2.053106 1_555
Mg2 O40 2.055163 1_555
Mg2 O32 2.063148 1_545
Mg2 O7 2.065559 1_545
Mg2 O16 2.067645 1_555
Mg2 O26 2.167878 1_545
O0 Ti8 1.922930 1_555
O0 Ti0 2.017210 1_654
O1 Ti10 1.923896 1_555
O1 Ti9 2.123658 1_655
O2 Ti11 1.948085 1_555
O2 Ti1 2.095017 1_655
O3 Ti12 1.888699 1_555
O3 Ti2 2.015538 1_555
O4 Ti8 1.950344 1_555
O4 Ti3 2.076090 1_565
O5 Ti10 1.964943 1_555
O5 Ti6 2.034120 1_555
O6 Ti1 1.942433 1_655
O7 Ti12 1.988057 1_555
O8 Ti11 1.982315 1_555
O8 Ti5 2.013247 1_555
O9 Ti7 1.939211 1_555
O9 Ti2 2.049751 1_555
O10 Ti9 1.938322 1_655
O11 Ti0 1.996478 1_655
O11 Ti4 2.002572 1_565
O12 Ti3 1.991906 1_555
O12 Ti8 2.039640 1_555
O13 Ti9 1.943538 1_655
O14 Ti10 1.935691 1_555
O14 Ti6 2.084418 1_545
O15 Ti1 1.940162 1_655
O16 Ti12 1.981787 1_555
O17 Ti0 1.994423 1_655
O17 Ti4 2.003473 1_555
O18 Ti11 1.963440 1_555
O18 Ti5 2.046643 1_545
O19 Ti2 1.921082 1_555
O19 Ti7 2.087208 1_545
O20 Ti3 1.978255 1_555
O20 Ti4 2.028306 1_554
O21 Ti6 1.912197 1_545
O22 Ti7 1.843622 1_545
O23 Ti5 1.888103 1_545
O24 Ti6 1.924062 1_555
O25 Ti3 1.916310 1_565
O26 Ti5 1.964918 1_555
O27 Ti4 1.908756 1_565
O27 Ti7 2.099982 1_555
O28 Ti0 1.982646 1_554
O28 Ti4 2.024257 1_564
O29 Ti8 1.935091 1_455
O29 Ti3 2.047359 1_565
O30 Ti9 1.940166 1_555
O31 Ti6 1.963335 1_555
O31 Ti10 2.029459 1_455
O32 Ti12 1.909567 1_455
O33 Ti1 1.942951 1_555
O34 Ti5 1.974444 1_555
O34 Ti11 2.006992 1_455
O35 Ti7 1.954144 1_555
O35 Ti2 2.065240 1_455
O36 Ti0 1.987293 1_554
O36 Ti4 2.008812 1_554
O37 Ti9 1.953779 1_555
O38 Ti3 1.940308 1_555
O38 Ti8 2.032688 1_455
O39 Ti1 1.949998 1_555
O40 Ti12 1.917636 1_455
O41 Ti2 1.934045 1_455
O41 Ti7 2.092443 1_545
O42 Ti6 1.987264 1_545
O42 Ti10 2.010094 1_455
O43 Ti5 1.983542 1_545
O43 Ti11 2.002993 1_455
O44 Ti9 1.969162 1_555
O44 Ti8 2.059114 1_455
O45 Ti1 1.978352 1_555
O45 Ti10 2.027307 1_455
O46 Ti11 1.950790 1_455
O46 Ti12 2.255611 1_455
O47 Ti2 1.960050 1_455
O47 Ti0 1.967335 1_555
