# generated using pymatgen
data_Li3(NiO2)8
_symmetry_space_group_name_H-M   'P 1'
_cell_length_a   4.96728900
_cell_length_b   6.46454204
_cell_length_c   8.55524588
_cell_angle_alpha   95.09545022
_cell_angle_beta   95.21406172
_cell_angle_gamma   96.65789035
_symmetry_Int_Tables_number   1
_chemical_formula_structural   Li3(NiO2)8
_chemical_formula_sum   'Li3 Ni8 O16'
_cell_volume   270.36367000
_cell_formula_units_Z   1
loop_
 _symmetry_equiv_pos_site_id
 _symmetry_equiv_pos_as_xyz
  1  'x, y, z'
loop_
 _atom_site_type_symbol
 _atom_site_label
 _atom_site_symmetry_multiplicity
 _atom_site_fract_x
 _atom_site_fract_y
 _atom_site_fract_z
 _atom_site_occupancy
  Li  Li0  1  0.00000000  0.50000000  0.50000000  1
  Li  Li1  1  0.50018400  0.13552600  0.86521700  1
  Li  Li2  1  0.49981600  0.86447400  0.13478300  1
  Ni  Ni0  1  0.75031100  0.06292800  0.43775800  1
  Ni  Ni1  1  0.75163900  0.56563700  0.93849400  1
  Ni  Ni2  1  0.24986800  0.68585200  0.81138900  1
  Ni  Ni3  1  0.74994800  0.81421800  0.68879100  1
  Ni  Ni4  1  0.25005200  0.18578200  0.31120900  1
  Ni  Ni5  1  0.75013200  0.31414800  0.18861100  1
  Ni  Ni6  1  0.24836100  0.43436300  0.06150600  1
  Ni  Ni7  1  0.24968900  0.93707200  0.56224200  1
  O  O0  1  0.89342700  0.56725200  0.73736200  1
  O  O1  1  0.85305300  0.05503100  0.23376500  1
  O  O2  1  0.62313900  0.56873200  0.13859000  1
  O  O3  1  0.86567300  0.30837400  0.98524200  1
  O  O4  1  0.60100800  0.81548700  0.88998600  1
  O  O5  1  0.60718300  0.06066800  0.63762300  1
  O  O6  1  0.35542100  0.67992600  0.60674500  1
  O  O7  1  0.89391400  0.81274300  0.48907500  1
  O  O8  1  0.10608600  0.18725700  0.51092500  1
  O  O9  1  0.64457900  0.32007400  0.39325500  1
  O  O10  1  0.39281700  0.93933200  0.36237700  1
  O  O11  1  0.39899200  0.18451300  0.11001400  1
  O  O12  1  0.13432700  0.69162600  0.01475800  1
  O  O13  1  0.37686100  0.43126800  0.86141000  1
  O  O14  1  0.14694700  0.94496900  0.76623500  1
  O  O15  1  0.10657300  0.43274800  0.26263800  1
loop_
_geom_bond_atom_site_label_1
_geom_bond_atom_site_label_2
_geom_bond_distance
_geom_bond_site_symmetry_2
Li0 O6 2.084684 1_555
Li0 O9 2.084684 1_455
Li0 O7 2.155345 1_455
Li0 O8 2.155345 1_555
Li0 O0 2.164460 1_455
Li0 O15 2.164460 1_555
Li1 O13 2.076160 1_555
Li1 O14 2.087283 1_545
Li1 O5 2.094831 1_555
Li1 O3 2.141476 1_555
Li1 O11 2.202150 1_556
Li1 O4 2.207928 1_545
Li2 O2 2.076160 1_555
Li2 O1 2.087283 1_565
Li2 O10 2.094831 1_555
Li2 O12 2.141476 1_555
Li2 O4 2.202150 1_554
Li2 O11 2.207928 1_565
Ni0 O1 1.860355 1_555
Ni0 O9 1.860824 1_555
Ni0 O8 1.881794 1_655
Ni0 O10 1.891823 1_545
Ni0 O5 1.911124 1_555
Ni0 O7 1.911558 1_545
Ni1 O2 1.879840 1_556
Ni1 O3 1.882042 1_555
Ni1 O0 1.918028 1_555
Ni1 O4 1.919293 1_555
Ni1 O13 1.988777 1_555
Ni1 O12 2.005924 1_656
Ni2 O14 1.869247 1_555
Ni2 O6 1.871146 1_555
Ni2 O0 1.875878 1_455
Ni2 O12 1.879591 1_556
Ni2 O4 1.882688 1_555
Ni2 O13 1.899048 1_555
Ni3 O0 1.886096 1_555
Ni3 O5 1.887384 1_565
Ni3 O7 1.910925 1_555
Ni3 O4 1.934049 1_555
Ni3 O14 2.078167 1_655
Ni3 O6 2.081859 1_555
Ni4 O15 1.886096 1_555
Ni4 O10 1.887384 1_545
Ni4 O8 1.910925 1_555
Ni4 O11 1.934049 1_555
Ni4 O1 2.078167 1_455
Ni4 O9 2.081859 1_555
Ni5 O1 1.869247 1_555
Ni5 O9 1.871146 1_555
Ni5 O15 1.875878 1_655
Ni5 O3 1.879591 1_554
Ni5 O11 1.882688 1_555
Ni5 O2 1.899048 1_555
Ni6 O13 1.879840 1_554
Ni6 O12 1.882042 1_555
Ni6 O15 1.918028 1_555
Ni6 O11 1.919293 1_555
Ni6 O2 1.988777 1_555
Ni6 O3 2.005924 1_454
Ni7 O14 1.860355 1_555
Ni7 O6 1.860824 1_555
Ni7 O7 1.881794 1_455
Ni7 O5 1.891823 1_565
Ni7 O10 1.911124 1_555
Ni7 O8 1.911558 1_565
