# generated using pymatgen
data_Gd2O3
_symmetry_space_group_name_H-M   'P 1'
_cell_length_a   3.56270482
_cell_length_b   7.28946631
_cell_length_c   8.76161836
_cell_angle_alpha   99.75310192
_cell_angle_beta   90.00000000
_cell_angle_gamma   104.14482086
_symmetry_Int_Tables_number   1
_chemical_formula_structural   Gd2O3
_chemical_formula_sum   'Gd6 O9'
_cell_volume   217.24925728
_cell_formula_units_Z   3
loop_
 _symmetry_equiv_pos_site_id
 _symmetry_equiv_pos_as_xyz
  1  'x, y, z'
loop_
 _atom_site_type_symbol
 _atom_site_label
 _atom_site_symmetry_multiplicity
 _atom_site_fract_x
 _atom_site_fract_y
 _atom_site_fract_z
 _atom_site_occupancy
  Gd  Gd0  1  0.96703085  0.93405970  0.18670990  1
  Gd  Gd1  1  0.30935129  0.61870158  0.86206657  1
  Gd  Gd2  1  0.69064871  0.38129842  0.13793343  1
  Gd  Gd3  1  0.36500860  0.73001720  0.51209393  1
  Gd  Gd4  1  0.03296915  0.06594030  0.81329010  1
  Gd  Gd5  1  0.63499140  0.26998280  0.48790607  1
  O  O0  1  0.87179586  0.74359071  0.71657722  1
  O  O1  1  0.82490658  0.64981115  0.02901724  1
  O  O2  1  0.47187753  0.94375707  0.34362733  1
  O  O3  1  0.20525741  0.41051383  0.62402487  1
  O  O4  1  0.52812247  0.05624293  0.65637267  1
  O  O5  1  0.12820414  0.25640929  0.28342278  1
  O  O6  1  0.50000000  0.00000000  0.00000000  1
  O  O7  1  0.17509342  0.35018885  0.97098276  1
  O  O8  1  0.79474259  0.58948617  0.37597513  1
loop_
_geom_bond_atom_site_label_1
_geom_bond_atom_site_label_2
_geom_bond_distance
_geom_bond_site_symmetry_2
Gd0 O1 2.230670 1_555
Gd0 O2 2.243920 1_655
Gd0 O2 2.243931 1_555
Gd0 O5 2.288025 1_665
Gd0 O6 2.516538 1_665
Gd0 O6 2.516543 1_565
Gd1 O7 2.268431 1_555
Gd1 O1 2.291035 1_456
Gd1 O1 2.291037 1_556
Gd1 O3 2.333025 1_555
Gd1 O0 2.443481 1_555
Gd1 O0 2.443481 1_455
Gd1 O6 2.754364 1_566
Gd2 O1 2.268431 1_555
Gd2 O7 2.291035 1_654
Gd2 O7 2.291037 1_554
Gd2 O8 2.333025 1_555
Gd2 O5 2.443481 1_555
Gd2 O5 2.443481 1_655
Gd2 O6 2.754364 1_555
Gd3 O8 2.273401 1_555
Gd3 O8 2.273403 1_455
Gd3 O2 2.289194 1_555
Gd3 O4 2.428321 1_565
Gd3 O0 2.516387 1_455
Gd3 O0 2.516389 1_555
Gd3 O3 2.614568 1_555
Gd4 O7 2.230670 1_555
Gd4 O4 2.243920 1_455
Gd4 O4 2.243931 1_555
Gd4 O0 2.288025 1_445
Gd4 O6 2.516538 1_456
Gd4 O6 2.516543 1_556
Gd5 O3 2.273401 1_555
Gd5 O3 2.273403 1_655
Gd5 O4 2.289194 1_555
Gd5 O2 2.428321 1_545
Gd5 O5 2.516387 1_655
Gd5 O5 2.516389 1_555
Gd5 O8 2.614568 1_555
