# generated using pymatgen
data_Na4PH5Se3O16
_symmetry_space_group_name_H-M   'P 1'
_cell_length_a   7.19567900
_cell_length_b   7.19877639
_cell_length_c   7.22807192
_cell_angle_alpha   85.21045907
_cell_angle_beta   80.07970490
_cell_angle_gamma   79.94606836
_symmetry_Int_Tables_number   1
_chemical_formula_structural   Na4PH5Se3O16
_chemical_formula_sum   'Na4 P1 H5 Se3 O16'
_cell_volume   362.60179378
_cell_formula_units_Z   1
loop_
 _symmetry_equiv_pos_site_id
 _symmetry_equiv_pos_as_xyz
  1  'x, y, z'
loop_
 _atom_site_type_symbol
 _atom_site_label
 _atom_site_symmetry_multiplicity
 _atom_site_fract_x
 _atom_site_fract_y
 _atom_site_fract_z
 _atom_site_occupancy
  Na  Na0  1  0.21251900  0.97740500  0.82433500  1
  Na  Na1  1  0.15135500  0.65295100  0.34494000  1
  Na  Na2  1  0.85930400  0.35080700  0.68300700  1
  Na  Na3  1  0.79623500  0.04515400  0.16699300  1
  P  P0  1  0.27834600  0.44913100  0.79070800  1
  H  H0  1  0.52142400  0.72466900  0.03884800  1
  H  H1  1  0.06553500  0.62209600  0.99703200  1
  H  H2  1  0.46644800  0.50923400  0.52382800  1
  H  H3  1  0.47063700  0.28305500  0.96695700  1
  H  H4  1  0.52786100  0.00219200  0.50486800  1
  Se  Se0  1  0.75062200  0.87841100  0.70780100  1
  Se  Se1  1  0.72508000  0.53019200  0.20787100  1
  Se  Se2  1  0.25466800  0.11781400  0.29761400  1
  O  O0  1  0.33456500  0.99837000  0.48943700  1
  O  O1  1  0.14167600  0.97564300  0.19901900  1
  O  O2  1  0.54835900  0.83558700  0.84179200  1
  O  O3  1  0.89670000  0.68641700  0.63632000  1
  O  O4  1  0.87721500  0.68601600  0.17013000  1
  O  O5  1  0.50212000  0.66053600  0.17137100  1
  O  O6  1  0.19583300  0.62388300  0.92002400  1
  O  O7  1  0.32661000  0.54427800  0.58810400  1
  O  O8  1  0.67153800  0.45413600  0.43050500  1
  O  O9  1  0.79167400  0.36328500  0.05925200  1
  O  O10  1  0.48147800  0.36097200  0.83996500  1
  O  O11  1  0.14410500  0.30959900  0.81003500  1
  O  O12  1  0.10629100  0.31477200  0.35940500  1
  O  O13  1  0.45253900  0.16180600  0.15243300  1
  O  O14  1  0.86190900  0.01918800  0.80677200  1
  O  O15  1  0.67685400  0.00829900  0.51043500  1
loop_
_geom_bond_atom_site_label_1
_geom_bond_atom_site_label_2
_geom_bond_distance
_geom_bond_site_symmetry_2
Na0 O11 2.353082 1_565
Na0 O0 2.430318 1_555
Na0 O2 2.473920 1_555
Na0 O14 2.512075 1_465
Na0 O6 2.598764 1_555
Na0 O1 2.667478 1_556
Na1 O7 2.341185 1_555
Na1 O1 2.464395 1_555
Na1 O4 2.487784 1_455
Na1 O12 2.502836 1_555
Na1 O3 2.540151 1_455
Na1 O5 2.625471 1_555
Na2 O11 2.349765 1_655
Na2 O8 2.445776 1_555
Na2 O3 2.466334 1_555
Na2 O14 2.476514 1_555
Na2 O12 2.684198 1_655
Na2 O9 2.685190 1_556
Na2 O10 2.750549 1_555
Na3 O9 2.353101 1_555
Na3 O13 2.486446 1_555
Na3 O15 2.491100 1_555
Na3 O1 2.495442 1_645
Na3 O4 2.548114 1_545
Na3 O14 2.581475 1_554
H0 O5 1.026004 1_555
H0 O2 1.572530 1_554
H1 O6 1.006107 1_555
H1 O4 1.705190 1_456
H2 O7 1.030462 1_555
H2 O8 1.512454 1_555
H3 O10 1.033385 1_555
H3 O13 1.536307 1_556
H4 O15 1.088384 1_555
H4 O0 1.419548 1_545
O0 Se2 1.701543 1_565
O1 Se2 1.681777 1_565
O2 Se0 1.665050 1_555
O3 Se0 1.645286 1_555
O4 Se1 1.675076 1_555
O5 Se1 1.761497 1_555
O6 P0 1.597847 1_555
O7 P0 1.573101 1_555
O8 Se1 1.658515 1_555
O9 Se1 1.632300 1_555
O10 P0 1.575977 1_555
O11 P0 1.493440 1_555
O12 Se2 1.662113 1_555
O13 Se2 1.678055 1_555
O14 Se0 1.667881 1_545
O15 Se0 1.748153 1_545
