# generated using pymatgen
data_Gd4Au2O9
_symmetry_space_group_name_H-M   'P 1'
_cell_length_a   5.96630748
_cell_length_b   11.77820526
_cell_length_c   11.77936372
_cell_angle_alpha   90.00000000
_cell_angle_beta   90.00000000
_cell_angle_gamma   90.00000000
_symmetry_Int_Tables_number   1
_chemical_formula_structural   Gd4Au2O9
_chemical_formula_sum   'Gd16 Au8 O36'
_cell_volume   827.76409009
_cell_formula_units_Z   4
loop_
 _symmetry_equiv_pos_site_id
 _symmetry_equiv_pos_as_xyz
  1  'x, y, z'
loop_
 _atom_site_type_symbol
 _atom_site_label
 _atom_site_symmetry_multiplicity
 _atom_site_fract_x
 _atom_site_fract_y
 _atom_site_fract_z
 _atom_site_occupancy
  Gd  Gd0  1  0.24118260  0.40962168  0.51085195  1
  Gd  Gd1  1  0.74118260  0.09037832  0.01085195  1
  Gd  Gd2  1  0.25881740  0.59037832  0.01085195  1
  Gd  Gd3  1  0.75881740  0.90962168  0.51085195  1
  Gd  Gd4  1  0.30221880  0.26404290  0.15874570  1
  Gd  Gd5  1  0.74118260  0.40962168  0.98914805  1
  Gd  Gd6  1  0.69778120  0.76404290  0.15874570  1
  Gd  Gd7  1  0.69778120  0.73595710  0.84125430  1
  Gd  Gd8  1  0.75881740  0.59037832  0.48914805  1
  Gd  Gd9  1  0.30221880  0.23595710  0.84125430  1
  Gd  Gd10  1  0.25881740  0.90962168  0.98914805  1
  Gd  Gd11  1  0.19778120  0.76404290  0.34125430  1
  Gd  Gd12  1  0.19778120  0.73595710  0.65874570  1
  Gd  Gd13  1  0.80221880  0.26404290  0.34125430  1
  Gd  Gd14  1  0.24118260  0.09037832  0.48914805  1
  Gd  Gd15  1  0.80221880  0.23595710  0.65874570  1
  Au  Au0  1  0.08015912  0.48911777  0.77172733  1
  Au  Au1  1  0.91984088  0.98911777  0.77172733  1
  Au  Au2  1  0.41984088  0.98911777  0.72827267  1
  Au  Au3  1  0.58015912  0.48911777  0.72827267  1
  Au  Au4  1  0.91984088  0.51088223  0.22827267  1
  Au  Au5  1  0.08015912  0.01088223  0.22827267  1
  Au  Au6  1  0.41984088  0.51088223  0.27172733  1
  Au  Au7  1  0.58015912  0.01088223  0.27172733  1
  O  O0  1  0.93895197  0.35065123  0.16279513  1
  O  O1  1  0.12706068  0.15973778  0.30311091  1
  O  O2  1  0.43762251  0.05416652  0.88588258  1
  O  O3  1  0.93762251  0.05416652  0.61411742  1
  O  O4  1  0.62706068  0.15973778  0.19688909  1
  O  O5  1  0.06237749  0.55416652  0.61411742  1
  O  O6  1  0.11283076  0.08907791  0.07565320  1
  O  O7  1  0.61283076  0.08907791  0.42434680  1
  O  O8  1  0.93895197  0.14934877  0.83720487  1
  O  O9  1  0.37293932  0.84026222  0.80311091  1
  O  O10  1  0.88716924  0.58907791  0.07565320  1
  O  O11  1  0.87293932  0.65973778  0.30311091  1
  O  O12  1  0.61283076  0.41092209  0.57565320  1
  O  O13  1  0.38716924  0.58907791  0.42434680  1
  O  O14  1  0.56104803  0.85065123  0.33720487  1
  O  O15  1  0.43895197  0.14934877  0.66279513  1
  O  O16  1  0.47700315  0.75000000  -0.00000000  1
  O  O17  1  0.56237749  0.94583348  0.11411742  1
  O  O18  1  0.88716924  0.91092209  0.92434680  1
  O  O19  1  0.97700315  0.75000000  0.50000000  1
  O  O20  1  0.43762251  0.44583348  0.11411742  1
  O  O21  1  0.43895197  0.35065123  0.33720487  1
  O  O22  1  0.12706068  0.34026222  0.69688909  1
  O  O23  1  0.02299685  0.25000000  0.50000000  1
  O  O24  1  0.06104803  0.64934877  0.83720487  1
  O  O25  1  0.37293932  0.65973778  0.19688909  1
  O  O26  1  0.87293932  0.84026222  0.69688909  1
  O  O27  1  0.11283076  0.41092209  0.92434680  1
  O  O28  1  0.06104803  0.85065123  0.16279513  1
  O  O29  1  0.56237749  0.55416652  0.88588258  1
  O  O30  1  0.62706068  0.34026222  0.80311091  1
  O  O31  1  0.93762251  0.44583348  0.38588258  1
  O  O32  1  0.56104803  0.64934877  0.66279513  1
  O  O33  1  0.52299685  0.25000000  -0.00000000  1
  O  O34  1  0.38716924  0.91092209  0.57565320  1
  O  O35  1  0.06237749  0.94583348  0.38588258  1
loop_
_geom_bond_atom_site_label_1
_geom_bond_atom_site_label_2
_geom_bond_distance
_geom_bond_site_symmetry_2
Gd0 O23 2.290315 1_555
Gd0 O12 2.345124 1_555
Gd0 O5 2.348647 1_555
Gd0 O31 2.372567 1_455
Gd0 O22 2.435818 1_555
Gd0 O21 2.461419 1_555
Gd0 O13 2.502911 1_555
Gd1 O33 2.290315 1_555
Gd1 O6 2.345124 1_655
Gd1 O17 2.348647 1_545
Gd1 O2 2.372567 1_554
Gd1 O4 2.435818 1_555
Gd1 O8 2.461419 1_554
Gd1 O18 2.502911 1_544
Gd2 O16 2.290315 1_555
Gd2 O10 2.345124 1_455
Gd2 O20 2.348647 1_555
Gd2 O29 2.372567 1_554
Gd2 O25 2.435818 1_555
Gd2 O24 2.461419 1_554
Gd2 O27 2.502911 1_554
Gd3 O19 2.290315 1_555
Gd3 O34 2.345124 1_555
Gd3 O3 2.348647 1_565
Gd3 O35 2.372567 1_655
Gd3 O26 2.435818 1_555
Gd3 O14 2.461419 1_555
Gd3 O7 2.502911 1_565
Gd4 O33 2.293265 1_555
Gd4 O4 2.338249 1_555
Gd4 O1 2.343759 1_555
Gd4 O20 2.348103 1_555
Gd4 O0 2.395896 1_455
Gd4 O21 2.474889 1_555
Gd4 O6 2.545893 1_555
Gd5 O33 2.290315 1_556
Gd5 O27 2.345124 1_655
Gd5 O29 2.348647 1_555
Gd5 O20 2.372567 1_556
Gd5 O30 2.435818 1_555
Gd5 O0 2.461419 1_556
Gd5 O10 2.502911 1_556
Gd6 O16 2.293265 1_555
Gd6 O25 2.338249 1_555
Gd6 O11 2.343759 1_555
Gd6 O17 2.348103 1_555
Gd6 O28 2.395896 1_655
Gd6 O14 2.474889 1_555
Gd6 O10 2.545893 1_555
Gd7 O16 2.293265 1_556
Gd7 O9 2.338249 1_555
Gd7 O26 2.343759 1_555
Gd7 O29 2.348103 1_555
Gd7 O24 2.395896 1_655
Gd7 O32 2.474889 1_555
Gd7 O18 2.545893 1_555
Gd8 O19 2.290315 1_555
Gd8 O13 2.345124 1_555
Gd8 O31 2.348647 1_555
Gd8 O5 2.372567 1_655
Gd8 O11 2.435818 1_555
Gd8 O32 2.461419 1_555
Gd8 O12 2.502911 1_555
Gd9 O33 2.293265 1_556
Gd9 O30 2.338249 1_555
Gd9 O22 2.343759 1_555
Gd9 O2 2.348103 1_555
Gd9 O8 2.395896 1_455
Gd9 O15 2.474889 1_555
Gd9 O27 2.545893 1_555
Gd10 O16 2.290315 1_556
Gd10 O18 2.345124 1_455
Gd10 O2 2.348647 1_565
Gd10 O17 2.372567 1_556
Gd10 O9 2.435818 1_555
Gd10 O28 2.461419 1_556
Gd10 O6 2.502911 1_566
Gd11 O19 2.293265 1_455
Gd11 O11 2.338249 1_455
Gd11 O25 2.343759 1_555
Gd11 O35 2.348103 1_555
Gd11 O14 2.395896 1_555
Gd11 O28 2.474889 1_555
Gd11 O13 2.545893 1_555
Gd12 O19 2.293265 1_455
Gd12 O26 2.338249 1_455
Gd12 O9 2.343759 1_555
Gd12 O5 2.348103 1_555
Gd12 O32 2.395896 1_555
Gd12 O24 2.474889 1_555
Gd12 O34 2.545893 1_555
Gd13 O23 2.293265 1_655
Gd13 O1 2.338249 1_655
Gd13 O4 2.343759 1_555
Gd13 O31 2.348103 1_555
Gd13 O21 2.395896 1_555
Gd13 O0 2.474889 1_555
Gd13 O7 2.545893 1_555
Gd14 O23 2.290315 1_555
Gd14 O7 2.345124 1_555
Gd14 O35 2.348647 1_545
Gd14 O3 2.372567 1_455
Gd14 O1 2.435818 1_555
Gd14 O15 2.461419 1_555
Gd14 O34 2.502911 1_545
Gd15 O23 2.293265 1_655
Gd15 O22 2.338249 1_655
Gd15 O30 2.343759 1_555
Gd15 O3 2.348103 1_555
Gd15 O15 2.395896 1_555
Gd15 O8 2.474889 1_555
Gd15 O12 2.545893 1_555
Au0 O22 1.982251 1_555
Au0 O5 2.011221 1_555
Au0 O27 2.029332 1_555
Au0 O24 2.041943 1_555
Au1 O26 1.982251 1_555
Au1 O3 2.011221 1_565
Au1 O18 2.029332 1_555
Au1 O8 2.041943 1_565
Au2 O9 1.982251 1_555
Au2 O2 2.011221 1_565
Au2 O34 2.029332 1_555
Au2 O15 2.041943 1_565
Au3 O30 1.982251 1_555
Au3 O29 2.011221 1_555
Au3 O12 2.029332 1_555
Au3 O32 2.041943 1_555
Au4 O11 1.982251 1_555
Au4 O31 2.011221 1_555
Au4 O10 2.029332 1_555
Au4 O0 2.041943 1_555
Au5 O1 1.982251 1_555
Au5 O35 2.011221 1_545
Au5 O6 2.029332 1_555
Au5 O28 2.041943 1_545
Au6 O25 1.982251 1_555
Au6 O20 2.011221 1_555
Au6 O13 2.029332 1_555
Au6 O21 2.041943 1_555
Au7 O4 1.982251 1_555
Au7 O17 2.011221 1_545
Au7 O7 2.029332 1_555
Au7 O14 2.041943 1_545
