# generated using pymatgen
data_KRb5Zn4Sn5S17
_symmetry_space_group_name_H-M   'P 1'
_cell_length_a   9.94050103
_cell_length_b   11.04187222
_cell_length_c   11.04651951
_cell_angle_alpha   78.74272466
_cell_angle_beta   116.49258311
_cell_angle_gamma   116.29497243
_symmetry_Int_Tables_number   1
_chemical_formula_structural   KRb5Zn4Sn5S17
_chemical_formula_sum   'K1 Rb5 Zn4 Sn5 S17'
_cell_volume   972.87328960
_cell_formula_units_Z   1
loop_
 _symmetry_equiv_pos_site_id
 _symmetry_equiv_pos_as_xyz
  1  'x, y, z'
loop_
 _atom_site_type_symbol
 _atom_site_label
 _atom_site_symmetry_multiplicity
 _atom_site_fract_x
 _atom_site_fract_y
 _atom_site_fract_z
 _atom_site_occupancy
  K  K0  1  0.24858416  0.49877013  0.49889330  1
  Rb  Rb0  1  0.49293707  0.01555880  0.48202104  1
  Rb  Rb1  1  0.50511378  0.49610575  0.01666231  1
  Rb  Rb2  1  0.99394960  0.49842793  0.98642113  1
  Rb  Rb3  1  0.99307225  0.98549947  0.48989834  1
  Rb  Rb4  1  0.88069644  0.96066290  0.86891661  1
  Zn  Zn0  1  0.88500366  0.63622598  0.36305683  1
  Zn  Zn1  1  0.88623488  0.36429533  0.63575370  1
  Zn  Zn2  1  0.47903123  0.36450981  0.36335669  1
  Zn  Zn3  1  0.74982059  0.63441207  0.63608132  1
  Sn  Sn0  1  0.49999398  0.00127592  0.00328601  1
  Sn  Sn1  1  0.19122047  0.72205935  0.72172587  1
  Sn  Sn2  1  0.52985397  0.27668176  0.72281442  1
  Sn  Sn3  1  0.53272180  0.72415766  0.27975788  1
  Sn  Sn4  1  0.74829820  0.27781429  0.27894540  1
  S  S0  1  0.48796430  0.85418057  0.85715445  1
  S  S1  1  0.15931665  0.49391347  0.77301165  1
  S  S2  1  0.15931277  0.77167089  0.49382640  1
  S  S3  1  0.75639226  0.22092183  0.77520151  1
  S  S4  1  0.75566490  0.77594058  0.22103521  1
  S  S5  1  0.75051814  0.49985352  0.49961587  1
  S  S6  1  0.01894245  0.77775554  0.77710487  1
  S  S7  1  0.33524592  0.22960509  0.49408293  1
  S  S8  1  0.33575166  0.49653298  0.23148702  1
  S  S9  1  0.61535396  0.50635315  0.77478743  1
  S  S10  1  0.61757550  0.77646266  0.51047004  1
  S  S11  1  0.36636354  0.85624582  0.14728100  1
  S  S12  1  0.36481940  0.14442793  0.85519256  1
  S  S13  1  0.77935491  0.14376550  0.14469876  1
  S  S14  1  0.89628078  0.50498379  0.22945019  1
  S  S15  1  0.89217756  0.22400564  0.50747947  1
  S  S16  1  0.46713119  0.22492288  0.22052979  1
loop_
_geom_bond_atom_site_label_1
_geom_bond_atom_site_label_2
_geom_bond_distance
_geom_bond_site_symmetry_2
K0 S8 3.436271 1_555
K0 S7 3.456755 1_555
K0 S14 3.458586 1_455
K0 S2 3.482787 1_555
K0 S1 3.500153 1_555
K0 S15 3.525580 1_455
K0 S9 3.536052 1_555
K0 S10 3.555586 1_555
Rb0 S2 3.256321 1_545
Rb0 S10 3.290971 1_545
Rb0 S16 3.318293 1_555
Rb0 S7 3.413590 1_555
Rb0 S15 3.505833 1_555
Rb0 S3 3.539497 1_555
Rb0 S11 3.844284 1_545
Rb1 S9 3.276723 1_554
Rb1 S1 3.279950 1_554
Rb1 S16 3.362219 1_555
Rb1 S4 3.425812 1_555
Rb1 S8 3.470091 1_555
Rb1 S14 3.500332 1_555
Rb2 S14 3.258615 1_556
Rb2 S8 3.272309 1_656
Rb2 S1 3.440634 1_655
Rb2 S3 3.445937 1_555
Rb2 S6 3.459797 1_655
Rb2 S9 3.463945 1_555
Rb3 S7 3.259178 1_665
Rb3 S15 3.269992 1_565
Rb3 S4 3.366945 1_555
Rb3 S2 3.414704 1_655
Rb3 S10 3.497213 1_555
Rb3 S6 3.513824 1_655
Rb4 S6 3.390908 1_655
Rb4 S3 3.420563 1_565
Rb4 S0 3.490054 1_555
S0 Sn0 2.436698 1_566
S0 Sn1 2.483935 1_555
S1 Zn1 2.334360 1_455
S1 Sn1 2.379692 1_555
S2 Zn0 2.339852 1_455
S2 Sn1 2.375203 1_555
S3 Zn1 2.357193 1_555
S3 Sn2 2.389915 1_555
S4 Zn0 2.346712 1_555
S4 Sn3 2.382053 1_555
S5 Zn3 2.317967 1_555
S5 Zn1 2.328578 1_555
S5 Zn0 2.336450 1_555
S5 Zn2 2.337303 1_555
S6 Zn3 2.362588 1_455
S6 Sn1 2.387438 1_555
S7 Zn2 2.337175 1_555
S7 Sn2 2.378597 1_555
S8 Zn2 2.331331 1_555
S8 Sn3 2.380526 1_555
S9 Zn3 2.332498 1_555
S9 Sn2 2.388882 1_555
S10 Zn3 2.337394 1_555
S10 Sn3 2.401128 1_555
S11 Sn0 2.421782 1_565
S11 Sn3 2.479514 1_555
S12 Sn0 2.427204 1_556
S12 Sn2 2.479158 1_555
S13 Sn0 2.417783 1_555
S13 Sn4 2.481050 1_555
S14 Zn0 2.327544 1_555
S14 Sn4 2.380695 1_555
S15 Zn1 2.328877 1_555
S15 Sn4 2.391171 1_555
S16 Zn2 2.345263 1_555
S16 Sn4 2.379298 1_555
