# generated using pymatgen
data_NbO2F
_symmetry_space_group_name_H-M   'P 1'
_cell_length_a   9.79373760
_cell_length_b   9.79373760
_cell_length_c   9.79373760
_cell_angle_alpha   145.64107896
_cell_angle_beta   133.47261587
_cell_angle_gamma   59.10100800
_symmetry_Int_Tables_number   1
_chemical_formula_structural   NbO2F
_chemical_formula_sum   'Nb6 O12 F6'
_cell_volume   381.33098970
_cell_formula_units_Z   6
loop_
 _symmetry_equiv_pos_site_id
 _symmetry_equiv_pos_as_xyz
  1  'x, y, z'
loop_
 _atom_site_type_symbol
 _atom_site_label
 _atom_site_symmetry_multiplicity
 _atom_site_fract_x
 _atom_site_fract_y
 _atom_site_fract_z
 _atom_site_occupancy
  Nb  Nb0  1  0.08301500  0.81368100  0.73066600  1
  Nb  Nb1  1  0.58301500  0.85234900  0.26933400  1
  Nb  Nb2  1  0.41698500  0.14765100  0.73066600  1
  Nb  Nb3  1  0.91698500  0.18631900  0.26933400  1
  Nb  Nb4  1  0.75000000  0.56681600  0.81681600  1
  Nb  Nb5  1  0.25000000  0.43318400  0.18318400  1
  O  O0  1  0.33127200  0.83127200  0.00000000  1
  O  O1  1  0.50000000  0.00000000  0.50000000  1
  O  O2  1  0.83127200  0.83127200  0.50000000  1
  O  O3  1  0.66872800  0.16872800  0.00000000  1
  O  O4  1  0.00000000  0.50000000  0.50000000  1
  O  O5  1  0.83507900  0.85395800  0.01887900  1
  O  O6  1  0.16872800  0.16872800  0.50000000  1
  O  O7  1  0.00000000  0.50000000  0.00000000  1
  O  O8  1  0.33507900  0.31620000  0.98112100  1
  O  O9  1  0.16492100  0.14604200  0.98112100  1
  O  O10  1  0.50000000  0.50000000  0.50000000  1
  O  O11  1  0.66492100  0.68380000  0.01887900  1
  F  F0  1  0.50000000  0.50000000  0.00000000  1
  F  F1  1  0.00000000  0.00000000  0.00000000  1
  F  F2  1  0.83207300  0.33705300  0.50498000  1
  F  F3  1  0.33207300  0.82709300  0.49502000  1
  F  F4  1  0.16792700  0.66294700  0.49502000  1
  F  F5  1  0.66792700  0.17290700  0.50498000  1
loop_
_geom_bond_atom_site_label_1
_geom_bond_atom_site_label_2
_geom_bond_distance
_geom_bond_site_symmetry_2
Nb0 O2 1.937544 1_455
Nb0 O0 1.937544 1_556
Nb0 O4 1.944695 1_555
Nb0 O9 2.011819 1_565
Nb1 O0 1.937544 1_555
Nb1 O2 1.937544 1_555
Nb1 O1 1.944695 1_565
Nb1 O11 2.011819 1_555
Nb2 O6 1.937544 1_555
Nb2 O3 1.937544 1_556
Nb2 O1 1.944695 1_555
Nb2 O8 2.011819 1_555
Nb3 O3 1.937544 1_555
Nb3 O6 1.937544 1_655
Nb3 O4 1.944695 1_655
Nb3 O5 2.011819 1_545
Nb4 O5 1.862333 1_556
Nb4 O11 1.862333 1_556
Nb4 O7 1.972336 1_656
Nb4 O10 1.972336 1_555
Nb5 O9 1.862333 1_554
Nb5 O8 1.862333 1_554
Nb5 O10 1.972336 1_555
Nb5 O7 1.972336 1_555
F0 Nb1 2.104514 1_555
F0 Nb2 2.104514 1_554
F1 Nb0 2.104514 1_544
F1 Nb3 2.104514 1_455
F2 Nb3 1.987979 1_555
F2 Nb4 2.282675 1_555
F3 Nb2 1.987979 1_565
F3 Nb5 2.282675 1_555
F4 Nb0 1.987979 1_555
F4 Nb5 2.282675 1_555
F5 Nb1 1.987979 1_545
F5 Nb4 2.282675 1_555
