# generated using pymatgen
data_Cu17Se10
_symmetry_space_group_name_H-M   'P 1'
_cell_length_a   4.08454409
_cell_length_b   4.08454409
_cell_length_c   33.05869723
_cell_angle_alpha   86.30710924
_cell_angle_beta   86.30710924
_cell_angle_gamma   59.86783840
_symmetry_Int_Tables_number   1
_chemical_formula_structural   Cu17Se10
_chemical_formula_sum   'Cu17 Se10'
_cell_volume   475.68647293
_cell_formula_units_Z   1
loop_
 _symmetry_equiv_pos_site_id
 _symmetry_equiv_pos_as_xyz
  1  'x, y, z'
loop_
 _atom_site_type_symbol
 _atom_site_label
 _atom_site_symmetry_multiplicity
 _atom_site_fract_x
 _atom_site_fract_y
 _atom_site_fract_z
 _atom_site_occupancy
  Cu  Cu0  1  0.31611100  0.31611100  0.03537300  1
  Cu  Cu1  1  0.62615800  0.62615800  0.12066700  1
  Cu  Cu2  1  0.93693500  0.93693500  0.21689200  1
  Cu  Cu3  1  0.21152600  0.21152600  0.32986500  1
  Cu  Cu4  1  0.52375700  0.52375700  0.42783700  1
  Cu  Cu5  1  0.51792200  0.51792200  0.26968400  1
  Cu  Cu6  1  0.83789500  0.83789500  0.52294800  1
  Cu  Cu7  1  0.87414000  0.87414000  0.37803300  1
  Cu  Cu8  1  0.10858600  0.10858600  0.63034100  1
  Cu  Cu9  1  0.43232200  0.43232200  0.71157800  1
  Cu  Cu10  1  0.42226800  0.42226800  0.57273000  1
  Cu  Cu11  1  0.71967400  0.71967400  0.81180200  1
  Cu  Cu12  1  0.04534700  0.04534700  0.83453700  1
  Cu  Cu13  1  0.00577500  0.00577500  0.93232200  1
  Cu  Cu14  1  0.33205100  0.33205100  0.95534800  1
  Cu  Cu15  1  0.36667900  0.36667900  0.86767600  1
  Cu  Cu16  1  0.65922400  0.65922400  0.98278700  1
  Se  Se0  1  0.99075700  0.99075700  0.01277100  1
  Se  Se1  1  0.29592500  0.29592500  0.10650500  1
  Se  Se2  1  0.89556000  0.89556000  0.30189000  1
  Se  Se3  1  0.60863300  0.60863300  0.19893400  1
  Se  Se4  1  0.51171400  0.51171400  0.50103500  1
  Se  Se5  1  0.20087500  0.20087500  0.40443100  1
  Se  Se6  1  0.79333600  0.79333600  0.60219900  1
  Se  Se7  1  0.10049400  0.10049400  0.70172500  1
  Se  Se8  1  0.68700600  0.68700600  0.90115100  1
  Se  Se9  1  0.39232900  0.39232900  0.78993900  1
loop_
_geom_bond_atom_site_label_1
_geom_bond_atom_site_label_2
_geom_bond_distance
_geom_bond_site_symmetry_2
Cu0 Se1 2.345244 1_555
Cu0 Se0 2.470593 1_455
Cu0 Se0 2.470593 1_545
Cu0 Se0 2.473717 1_445
Cu0 Cu14 2.639535 1_554
Cu1 Se1 2.394617 1_565
Cu1 Se1 2.394617 1_655
Cu1 Se1 2.418129 1_555
Cu1 Se3 2.581151 1_555
Cu2 Se3 2.424224 1_565
Cu2 Se3 2.424224 1_655
Cu2 Se3 2.441162 1_555
Cu2 Se2 2.803412 1_555
Cu3 Se5 2.460600 1_555
Cu3 Se2 2.483184 1_445
Cu3 Se2 2.554956 1_545
Cu3 Se2 2.554956 1_455
Cu4 Se4 2.414991 1_555
Cu4 Se5 2.467079 1_555
Cu4 Se5 2.486150 1_565
Cu4 Se5 2.486150 1_655
Cu5 Se3 2.378989 1_555
Cu5 Se2 2.429211 1_545
Cu5 Se2 2.429211 1_455
Cu5 Se2 2.950235 1_555
Cu6 Se4 2.461846 1_655
Cu6 Se4 2.461846 1_565
Cu6 Se4 2.470950 1_555
Cu6 Se6 2.615476 1_555
Cu7 Se5 2.502246 1_565
Cu7 Se5 2.502246 1_655
Cu7 Se2 2.510477 1_555
Cu7 Se5 2.532177 1_665
Cu8 Se7 2.356297 1_555
Cu8 Se6 2.480913 1_445
Cu8 Se6 2.559200 1_455
Cu8 Se6 2.559200 1_545
Cu9 Se7 2.370671 1_655
Cu9 Se7 2.370671 1_565
Cu9 Se7 2.395459 1_555
Cu9 Se9 2.584936 1_555
Cu10 Se4 2.407375 1_555
Cu10 Se6 2.409200 1_455
Cu10 Se6 2.409200 1_545
Cu10 Se6 2.868830 1_555
Cu11 Se9 2.457492 1_655
Cu11 Se9 2.457492 1_565
Cu11 Cu12 2.470685 1_565
Cu11 Cu12 2.470685 1_655
Cu11 Cu12 2.477505 1_665
Cu11 Se9 2.478234 1_555
Cu11 Se8 2.945615 1_555
Cu12 Cu15 2.597199 1_555
Cu12 Cu15 2.597747 1_545
Cu12 Cu15 2.597747 1_455
Cu12 Se9 2.769350 1_555
Cu12 Se9 2.781871 1_455
Cu12 Se9 2.781871 1_545
Cu13 Cu14 2.471243 1_455
Cu13 Cu14 2.471243 1_545
Cu13 Cu14 2.485169 1_555
Cu13 Se8 2.549534 1_445
Cu13 Se8 2.581793 1_545
Cu13 Se8 2.581793 1_455
Cu13 Se0 2.653756 1_446
Cu14 Cu16 2.511779 1_545
Cu14 Cu16 2.511779 1_455
Cu14 Cu16 2.549466 1_555
Cu14 Cu15 2.890459 1_555
Cu14 Se8 2.948251 1_455
Cu14 Se8 2.948251 1_545
Cu14 Se0 2.959661 1_446
Cu14 Se8 2.975785 1_555
Cu14 Se0 3.055691 1_456
Cu14 Se0 3.055691 1_546
Cu15 Se9 2.562794 1_555
Cu15 Se8 2.596184 1_555
Cu15 Se8 2.605291 1_455
Cu15 Se8 2.605291 1_545
Cu16 Se0 2.526543 1_546
Cu16 Se0 2.526543 1_456
Cu16 Se0 2.614754 1_556
Cu16 Se8 2.691318 1_555
