# generated using pymatgen
data_Al14Co5Si2
_symmetry_space_group_name_H-M   'P 1'
_cell_length_a   7.36659502
_cell_length_b   13.94803208
_cell_length_c   23.17039565
_cell_angle_alpha   90.00000000
_cell_angle_beta   90.00000000
_cell_angle_gamma   90.00000000
_symmetry_Int_Tables_number   1
_chemical_formula_structural   Al14Co5Si2
_chemical_formula_sum   'Al112 Co40 Si16'
_cell_volume   2380.74665263
_cell_formula_units_Z   8
loop_
 _symmetry_equiv_pos_site_id
 _symmetry_equiv_pos_as_xyz
  1  'x, y, z'
loop_
 _atom_site_type_symbol
 _atom_site_label
 _atom_site_symmetry_multiplicity
 _atom_site_fract_x
 _atom_site_fract_y
 _atom_site_fract_z
 _atom_site_occupancy
  Al  Al0  1  0.49106116  0.34554229  0.84024653  1
  Al  Al1  1  0.03133819  0.03800778  0.65961921  1
  Al  Al2  1  0.27321315  0.93337826  0.58148197  1
  Al  Al3  1  0.29327471  0.39257851  0.08306395  1
  Al  Al4  1  0.96866181  0.96199222  0.15961921  1
  Al  Al5  1  0.90397450  0.76325520  0.07923261  1
  Al  Al6  1  0.99106116  0.15445771  0.15975347  1
  Al  Al7  1  0.77321315  0.56662174  0.08148197  1
  Al  Al8  1  0.18787962  0.55886010  0.15162115  1
  Al  Al9  1  0.22678685  0.43337826  0.58148197  1
  Al  Al10  1  0.68787962  0.94113990  0.84837885  1
  Al  Al11  1  0.50893884  0.65445771  0.34024653  1
  Al  Al12  1  0.77321315  0.56662174  0.41851803  1
  Al  Al13  1  0.99106116  0.15445771  0.34024653  1
  Al  Al14  1  0.81212038  0.44113990  0.65162115  1
  Al  Al15  1  0.23403408  0.69468471  0.25000000  1
  Al  Al16  1  0.91080950  0.20339440  0.47555167  1
  Al  Al17  1  0.25520691  0.71135659  0.07205876  1
  Al  Al18  1  0.58919050  0.70339440  0.47555167  1
  Al  Al19  1  0.62606816  0.96428332  0.52998172  1
  Al  Al20  1  0.74479209  0.28864341  0.92794124  1
  Al  Al21  1  0.10096224  0.61833856  0.91894236  1
  Al  Al22  1  0.20672529  0.89257851  0.41693605  1
  Al  Al23  1  0.96866181  0.96199222  0.34038079  1
  Al  Al24  1  0.26102603  0.67693090  0.68847818  1
  Al  Al25  1  0.73897397  0.32306910  0.18847818  1
  Al  Al26  1  0.18787962  0.55886010  0.34837885  1
  Al  Al27  1  0.73897397  0.32306910  0.31152182  1
  Al  Al28  1  0.12606816  0.53571668  0.47001828  1
  Al  Al29  1  0.26596592  0.19468471  0.25000000  1
  Al  Al30  1  0.26102603  0.67693090  0.81152182  1
  Al  Al31  1  0.25520691  0.71135659  0.42794124  1
  Al  Al32  1  0.10096224  0.61833856  0.58105764  1
  Al  Al33  1  0.74479209  0.28864341  0.57205876  1
  Al  Al34  1  0.70672529  0.60742149  0.91693605  1
  Al  Al35  1  0.62606816  0.96428332  0.97001828  1
  Al  Al36  1  0.60724541  0.15371313  0.18636373  1
  Al  Al37  1  0.29327471  0.39257851  0.41693605  1
  Al  Al38  1  0.81212038  0.44113990  0.84837885  1
  Al  Al39  1  0.50893884  0.65445771  0.15975347  1
  Al  Al40  1  0.08919050  0.79660560  0.97555167  1
  Al  Al41  1  0.72678685  0.06662174  0.08148197  1
  Al  Al42  1  0.20672529  0.89257851  0.08306395  1
  Al  Al43  1  0.68787962  0.94113990  0.65162115  1
  Al  Al44  1  0.60096224  0.88166144  0.41894236  1
  Al  Al45  1  0.22678685  0.43337826  0.91851803  1
  Al  Al46  1  0.53133819  0.46199222  0.34038079  1
  Al  Al47  1  0.24479209  0.21135659  0.07205876  1
  Al  Al48  1  0.10724541  0.34628687  0.68636373  1
  Al  Al49  1  0.79327471  0.10742149  0.58306395  1
  Al  Al50  1  0.09304467  0.33926464  0.18581652  1
  Al  Al51  1  0.91960346  0.50541529  0.75000000  1
  Al  Al52  1  0.24479209  0.21135659  0.42794124  1
  Al  Al53  1  0.37393184  0.03571668  0.47001828  1
  Al  Al54  1  0.08039654  0.49458471  0.25000000  1
  Al  Al55  1  0.27321315  0.93337826  0.91851803  1
  Al  Al56  1  0.59304467  0.16073536  0.81418348  1
  Al  Al57  1  0.90397450  0.76325520  0.42076739  1
  Al  Al58  1  0.89275459  0.65371313  0.18636373  1
  Al  Al59  1  0.12606816  0.53571668  0.02998172  1
  Al  Al60  1  0.46866181  0.53800778  0.65961921  1
  Al  Al61  1  0.41080950  0.29660560  0.97555167  1
  Al  Al62  1  0.31212038  0.05886010  0.34837885  1
  Al  Al63  1  0.87393184  0.46428332  0.97001828  1
  Al  Al64  1  0.53133819  0.46199222  0.15961921  1
  Al  Al65  1  0.10724541  0.34628687  0.81363627  1
  Al  Al66  1  0.41960346  0.99458471  0.25000000  1
  Al  Al67  1  0.09304467  0.33926464  0.31418348  1
  Al  Al68  1  0.76102603  0.82306910  0.18847818  1
  Al  Al69  1  0.40397450  0.73674480  0.57923261  1
  Al  Al70  1  0.58039654  0.00541529  0.75000000  1
  Al  Al71  1  0.70672529  0.60742149  0.58306395  1
  Al  Al72  1  0.58919050  0.70339440  0.02444833  1
  Al  Al73  1  0.59602550  0.26325520  0.07923261  1
  Al  Al74  1  0.75520791  0.78864341  0.57205876  1
  Al  Al75  1  0.09602550  0.23674480  0.92076739  1
  Al  Al76  1  0.39903776  0.11833856  0.91894236  1
  Al  Al77  1  0.39275459  0.84628687  0.81363627  1
  Al  Al78  1  0.60096224  0.88166144  0.08105764  1
  Al  Al79  1  0.23897397  0.17693090  0.81152182  1
  Al  Al80  1  0.23897397  0.17693090  0.68847818  1
  Al  Al81  1  0.59602550  0.26325520  0.42076739  1
  Al  Al82  1  0.60724541  0.15371313  0.31363627  1
  Al  Al83  1  0.00893884  0.84554229  0.84024653  1
  Al  Al84  1  0.40695533  0.83926464  0.18581652  1
  Al  Al85  1  0.89903776  0.38166144  0.08105764  1
  Al  Al86  1  0.39903776  0.11833856  0.58105764  1
  Al  Al87  1  0.09602550  0.23674480  0.57923261  1
  Al  Al88  1  0.76596592  0.30531529  0.75000000  1
  Al  Al89  1  0.76102603  0.82306910  0.31152182  1
  Al  Al90  1  0.08919050  0.79660560  0.52444833  1
  Al  Al91  1  0.79327471  0.10742149  0.91693605  1
  Al  Al92  1  0.75520791  0.78864341  0.92794124  1
  Al  Al93  1  0.40397450  0.73674480  0.92076739  1
  Al  Al94  1  0.72678685  0.06662174  0.41851803  1
  Al  Al95  1  0.00893884  0.84554229  0.65975347  1
  Al  Al96  1  0.39275459  0.84628687  0.68636373  1
  Al  Al97  1  0.89903776  0.38166144  0.41894236  1
  Al  Al98  1  0.40695533  0.83926464  0.31418348  1
  Al  Al99  1  0.91080950  0.20339440  0.02444833  1
  Al  Al100  1  0.03133819  0.03800778  0.84038079  1
  Al  Al101  1  0.31212038  0.05886010  0.15162115  1
  Al  Al102  1  0.49106116  0.34554229  0.65975347  1
  Al  Al103  1  0.87393184  0.46428332  0.52998172  1
  Al  Al104  1  0.41080950  0.29660560  0.52444833  1
  Al  Al105  1  0.46866181  0.53800778  0.84038079  1
  Al  Al106  1  0.73403408  0.80531529  0.75000000  1
  Al  Al107  1  0.89275459  0.65371313  0.31363627  1
  Al  Al108  1  0.90695533  0.66073536  0.68581652  1
  Al  Al109  1  0.37393184  0.03571668  0.02998172  1
  Al  Al110  1  0.90695533  0.66073536  0.81418348  1
  Al  Al111  1  0.59304467  0.16073536  0.68581652  1
  Co  Co0  1  0.91966794  0.93964743  0.92409077  1
  Co  Co1  1  0.90174556  0.65433304  0.50274271  1
  Co  Co2  1  0.90033768  0.21245129  0.66267703  1
  Co  Co3  1  0.59825444  0.15433304  0.50274271  1
  Co  Co4  1  0.40174556  0.84566696  0.49725729  1
  Co  Co5  1  0.38349973  0.01896151  0.83291552  1
  Co  Co6  1  0.40033768  0.28754871  0.16267703  1
  Co  Co7  1  0.58033206  0.43964743  0.57590923  1
  Co  Co8  1  0.40174556  0.84566696  0.00274271  1
  Co  Co9  1  0.58033206  0.43964743  0.92409077  1
  Co  Co10  1  0.90415357  0.95393517  0.75000000  1
  Co  Co11  1  0.38349973  0.01896151  0.66708448  1
  Co  Co12  1  0.61806347  0.70548380  0.25000000  1
  Co  Co13  1  0.90174556  0.65433304  0.99725729  1
  Co  Co14  1  0.59825444  0.15433304  0.99725729  1
  Co  Co15  1  0.90033768  0.21245129  0.83732297  1
  Co  Co16  1  0.09825444  0.34566696  0.49725729  1
  Co  Co17  1  0.88193653  0.20548380  0.25000000  1
  Co  Co18  1  0.08033206  0.06035257  0.42409077  1
  Co  Co19  1  0.38193653  0.29451620  0.75000000  1
  Co  Co20  1  0.41966794  0.56035257  0.07590923  1
  Co  Co21  1  0.08033206  0.06035257  0.07590923  1
  Co  Co22  1  0.59584643  0.45393517  0.75000000  1
  Co  Co23  1  0.61650027  0.98103849  0.33291552  1
  Co  Co24  1  0.59966232  0.71245129  0.66267703  1
  Co  Co25  1  0.09584643  0.04606483  0.25000000  1
  Co  Co26  1  0.40033768  0.28754871  0.33732297  1
  Co  Co27  1  0.91966794  0.93964743  0.57590923  1
  Co  Co28  1  0.11650027  0.51896151  0.66708448  1
  Co  Co29  1  0.88349973  0.48103849  0.16708448  1
  Co  Co30  1  0.09825444  0.34566696  0.00274271  1
  Co  Co31  1  0.11650027  0.51896151  0.83291552  1
  Co  Co32  1  0.88349973  0.48103849  0.33291552  1
  Co  Co33  1  0.59966232  0.71245129  0.83732297  1
  Co  Co34  1  0.61650027  0.98103849  0.16708448  1
  Co  Co35  1  0.41966794  0.56035257  0.42409077  1
  Co  Co36  1  0.09966232  0.78754871  0.16267703  1
  Co  Co37  1  0.40415357  0.54606483  0.25000000  1
  Co  Co38  1  0.09966232  0.78754871  0.33732297  1
  Co  Co39  1  0.11806347  0.79451620  0.75000000  1
  Si  Si0  1  0.41427936  0.56298789  0.97209931  1
  Si  Si1  1  0.41427936  0.56298789  0.52790069  1
  Si  Si2  1  0.38253756  0.37596160  0.25000000  1
  Si  Si3  1  0.78676490  0.03132078  0.25000000  1
  Si  Si4  1  0.11746244  0.87596160  0.25000000  1
  Si  Si5  1  0.28676490  0.46867922  0.75000000  1
  Si  Si6  1  0.71323510  0.53132078  0.25000000  1
  Si  Si7  1  0.08572064  0.06298789  0.97209931  1
  Si  Si8  1  0.58572064  0.43701211  0.47209931  1
  Si  Si9  1  0.61746244  0.62403840  0.75000000  1
  Si  Si10  1  0.91427936  0.93701211  0.02790069  1
  Si  Si11  1  0.58572064  0.43701211  0.02790069  1
  Si  Si12  1  0.88253756  0.12403840  0.75000000  1
  Si  Si13  1  0.21323510  0.96867922  0.75000000  1
  Si  Si14  1  0.91427936  0.93701211  0.47209931  1
  Si  Si15  1  0.08572064  0.06298789  0.52790069  1
loop_
_geom_bond_atom_site_label_1
_geom_bond_atom_site_label_2
_geom_bond_distance
_geom_bond_site_symmetry_2
Al0 Co19 2.350582 1_555
Al0 Co9 2.435044 1_555
Al0 Co22 2.693338 1_555
Al0 Al56 2.752016 1_555
Al1 Co27 2.514149 1_445
Al1 Co10 2.576513 1_445
Al1 Co11 2.613528 1_555
Al1 Co2 2.618489 1_455
Al1 Si12 2.650840 1_455
Al1 Si13 2.667598 1_545
Al2 Co11 2.453378 1_565
Al2 Co4 2.490312 1_555
Al2 Si15 2.591741 1_565
Al2 Co27 2.609089 1_455
Al3 Co30 2.440422 1_555
Al3 Co6 2.484136 1_555
Al3 Co20 2.523997 1_555
Al3 Si11 2.580489 1_555
Al3 Al50 2.897746 1_555
Al4 Co21 2.514149 1_665
Al4 Co25 2.576513 1_665
Al4 Co34 2.613528 1_555
Al4 Co36 2.618489 1_655
Al4 Si4 2.650840 1_655
Al4 Si3 2.667598 1_565
Al5 Co13 2.432306 1_554
Al5 Co36 2.435381 1_655
Al5 Si10 2.700753 1_555
Al6 Co17 2.350582 1_555
Al6 Co21 2.435044 1_655
Al6 Co25 2.693338 1_655
Al7 Co29 2.453378 1_555
Al7 Co13 2.490312 1_554
Al7 Si11 2.591741 1_555
Al7 Co20 2.609089 1_555
Al8 Co20 2.448150 1_555
Al8 Co29 2.516793 1_455
Al8 Co37 2.786783 1_555
Al9 Co28 2.453378 1_555
Al9 Co16 2.490312 1_555
Al9 Si1 2.591741 1_555
Al9 Co7 2.609089 1_555
Al10 Co0 2.448150 1_555
Al10 Co5 2.516793 1_565
Al10 Co10 2.786783 1_555
Al11 Co12 2.350582 1_555
Al11 Co35 2.435044 1_555
Al11 Co37 2.693338 1_555
Al11 Al98 2.752016 1_555
Al12 Co32 2.453378 1_555
Al12 Co1 2.490312 1_555
Al12 Si8 2.591741 1_555
Al12 Co35 2.609089 1_555
Al13 Co17 2.350582 1_555
Al13 Co18 2.435044 1_655
Al13 Co25 2.693338 1_655
Al13 Al67 2.752016 1_655
Al14 Co7 2.448150 1_555
Al14 Co28 2.516793 1_655
Al14 Co22 2.786783 1_555
Al15 Co37 2.422324 1_555
Al15 Co38 2.598331 1_555
Al15 Co36 2.598331 1_555
Al15 Si4 2.670303 1_555
Al15 Al84 2.810872 1_555
Al15 Al98 2.810872 1_555
Al15 Co12 2.832996 1_555
Al16 Co16 2.469324 1_655
Al16 Co3 2.483257 1_555
Al16 Co18 2.638539 1_655
Al16 Si15 2.639466 1_655
Al17 Co20 2.431430 1_555
Al17 Co36 2.617424 1_555
Al17 Co8 2.693379 1_555
Al18 Co4 2.469324 1_555
Al18 Co1 2.483257 1_555
Al18 Co35 2.638539 1_555
Al18 Si1 2.639466 1_555
Al19 Co27 2.434820 1_555
Al19 Co4 2.458234 1_555
Al19 Si14 2.539901 1_555
Al19 Co3 2.732611 1_565
Al20 Co9 2.431426 1_555
Al20 Co15 2.617427 1_555
Al20 Co14 2.693376 1_555
Al21 Co13 2.387150 1_455
Al21 Co31 2.430548 1_555
Al21 Si0 2.727687 1_555
Al22 Co4 2.440422 1_555
Al22 Co38 2.484136 1_555
Al22 Co18 2.523997 1_565
Al22 Si14 2.580489 1_455
Al22 Al98 2.897746 1_555
Al23 Co18 2.514149 1_665
Al23 Co25 2.576513 1_665
Al23 Co23 2.613528 1_555
Al23 Co38 2.618489 1_655
Al23 Si4 2.650840 1_655
Al23 Si3 2.667598 1_565
Al24 Co39 2.414746 1_555
Al24 Co28 2.496804 1_555
Al24 Co24 2.612635 1_555
Al25 Co17 2.414746 1_555
Al25 Co29 2.496804 1_555
Al25 Co6 2.612635 1_555
Al25 Al50 2.618786 1_655
Al26 Co35 2.448150 1_555
Al26 Co32 2.516793 1_455
Al26 Co37 2.786783 1_555
Al27 Co17 2.414746 1_555
Al27 Co32 2.496804 1_555
Al27 Co26 2.612635 1_555
Al27 Al67 2.618786 1_655
Al28 Co35 2.434820 1_555
Al28 Co1 2.458234 1_455
Al28 Si1 2.539901 1_555
Al28 Co16 2.732611 1_555
Al29 Co25 2.422324 1_555
Al29 Co26 2.598331 1_555
Al29 Co6 2.598331 1_555
Al29 Si2 2.670303 1_555
Al29 Al67 2.810872 1_555
Al29 Al50 2.810872 1_555
Al29 Co17 2.832996 1_455
Al30 Co39 2.414746 1_555
Al30 Co31 2.496804 1_555
Al30 Co33 2.612635 1_555
Al31 Co35 2.431430 1_555
Al31 Co38 2.617424 1_555
Al31 Co4 2.693379 1_555
Al32 Co1 2.387150 1_455
Al32 Co28 2.430548 1_555
Al32 Si1 2.727687 1_555
Al33 Co7 2.431426 1_555
Al33 Co2 2.617427 1_555
Al33 Co3 2.693376 1_555
Al34 Co13 2.440422 1_555
Al34 Co33 2.484136 1_555
Al34 Co9 2.523997 1_555
Al34 Si0 2.580489 1_555
Al35 Co0 2.434820 1_555
Al35 Co8 2.458234 1_556
Al35 Si10 2.539901 1_556
Al35 Co14 2.732611 1_565
Al36 Co34 2.450496 1_545
Al36 Co6 2.471669 1_555
Al36 Co17 2.605805 1_555
Al36 Si3 2.614814 1_555
Al37 Co16 2.440422 1_555
Al37 Co26 2.484136 1_555
Al37 Co35 2.523997 1_555
Al37 Si8 2.580489 1_555
Al37 Al67 2.897746 1_555
Al38 Co9 2.448150 1_555
Al38 Co31 2.516793 1_655
Al38 Co22 2.786783 1_555
Al39 Co12 2.350582 1_555
Al39 Co20 2.435044 1_555
Al39 Co37 2.693338 1_555
Al39 Al84 2.752016 1_555
Al40 Co13 2.469324 1_455
Al40 Co8 2.483257 1_556
Al40 Co0 2.638539 1_455
Al40 Si10 2.639466 1_456
Al41 Co34 2.453378 1_545
Al41 Co14 2.490312 1_554
Al41 Si10 2.591741 1_545
Al41 Co21 2.609089 1_655
Al42 Co8 2.440422 1_555
Al42 Co36 2.484136 1_555
Al42 Co21 2.523997 1_565
Al42 Si10 2.580489 1_455
Al42 Al84 2.897746 1_555
Al43 Co27 2.448150 1_555
Al43 Co11 2.516793 1_565
Al43 Co10 2.786783 1_555
Al44 Co4 2.387150 1_555
Al44 Co23 2.430548 1_555
Al44 Si14 2.727687 1_555
Al44 Al98 2.878200 1_555
Al45 Co31 2.453378 1_555
Al45 Co30 2.490312 1_556
Al45 Si0 2.591741 1_555
Al45 Co9 2.609089 1_555
Al46 Co35 2.514149 1_555
Al46 Co37 2.576513 1_555
Al46 Co32 2.613528 1_555
Al46 Co26 2.618489 1_555
Al46 Si2 2.650840 1_555
Al46 Si6 2.667598 1_555
Al47 Co21 2.431426 1_555
Al47 Co6 2.617427 1_555
Al47 Co30 2.693376 1_555
Al48 Co28 2.450496 1_555
Al48 Co2 2.471669 1_455
Al48 Co19 2.605805 1_555
Al48 Si5 2.614814 1_555
Al49 Co3 2.440422 1_555
Al49 Co2 2.484136 1_555
Al49 Co27 2.523997 1_545
Al49 Si15 2.580489 1_655
Al50 Co6 2.435597 1_555
Al50 Co29 2.545890 1_455
Al50 Al54 2.629381 1_555
Al50 Si2 2.649813 1_555
Al50 Al6 2.752016 1_455
Al50 Co17 2.848157 1_455
Al50 Al85 2.878200 1_455
Al50 Al67 2.974313 1_555
Al51 Co28 2.414640 1_655
Al51 Co31 2.414640 1_655
Al51 Co22 2.490733 1_555
Al51 Si5 2.752837 1_655
Al51 Si9 2.773361 1_555
Al52 Co18 2.431426 1_555
Al52 Co26 2.617427 1_555
Al52 Co16 2.693376 1_555
Al53 Co18 2.434820 1_555
Al53 Co3 2.458234 1_555
Al53 Si15 2.539901 1_555
Al53 Co4 2.732611 1_545
Al54 Co29 2.414640 1_455
Al54 Co32 2.414640 1_455
Al54 Co37 2.490733 1_555
Al54 Al67 2.629381 1_555
Al54 Si6 2.752837 1_455
Al54 Si2 2.773361 1_555
Al55 Co5 2.453378 1_565
Al55 Co8 2.490312 1_556
Al55 Si7 2.591741 1_565
Al55 Co0 2.609089 1_455
Al56 Co15 2.435597 1_555
Al56 Co5 2.545890 1_555
Al56 Al79 2.618786 1_555
Al56 Al70 2.629381 1_555
Al56 Si12 2.649813 1_555
Al56 Al88 2.810872 1_555
Al56 Co19 2.848157 1_555
Al56 Al76 2.878200 1_555
Al56 Al91 2.897746 1_555
Al57 Co1 2.432306 1_555
Al57 Co38 2.435381 1_655
Al57 Si14 2.700753 1_555
Al58 Co29 2.450496 1_555
Al58 Co36 2.471669 1_655
Al58 Co12 2.605805 1_555
Al58 Si6 2.614814 1_555
Al59 Co20 2.434820 1_555
Al59 Co13 2.458234 1_454
Al59 Si0 2.539901 1_554
Al59 Co30 2.732611 1_555
Al60 Co7 2.514149 1_555
Al60 Co22 2.576513 1_555
Al60 Co28 2.613528 1_555
Al60 Co24 2.618489 1_555
Al60 Si9 2.650840 1_555
Al60 Si5 2.667598 1_555
Al61 Co14 2.469324 1_555
Al61 Co30 2.483257 1_556
Al61 Co9 2.638539 1_555
Al61 Si11 2.639466 1_556
Al62 Co18 2.448150 1_555
Al62 Co23 2.516793 1_545
Al62 Co25 2.786783 1_555
Al63 Co9 2.434820 1_555
Al63 Co30 2.458234 1_656
Al63 Si11 2.539901 1_556
Al63 Co13 2.732611 1_555
Al64 Co20 2.514149 1_555
Al64 Co37 2.576513 1_555
Al64 Co29 2.613528 1_555
Al64 Co6 2.618489 1_555
Al64 Si2 2.650840 1_555
Al64 Si6 2.667598 1_555
Al65 Co31 2.450496 1_555
Al65 Co15 2.471669 1_455
Al65 Co19 2.605805 1_555
Al65 Si5 2.614814 1_555
Al66 Co34 2.414640 1_555
Al66 Co23 2.414640 1_555
Al66 Co25 2.490733 1_565
Al66 Al84 2.629381 1_555
Al66 Al98 2.629381 1_555
Al66 Si3 2.752837 1_565
Al66 Si4 2.773361 1_555
Al67 Co26 2.435597 1_555
Al67 Co32 2.545890 1_455
Al67 Si2 2.649813 1_555
Al67 Co17 2.848157 1_455
Al67 Al97 2.878200 1_455
Al68 Co12 2.414746 1_555
Al68 Co34 2.496804 1_555
Al68 Co36 2.612635 1_655
Al68 Al84 2.618786 1_555
Al69 Co4 2.432306 1_555
Al69 Co24 2.435381 1_555
Al69 Si1 2.700753 1_555
Al70 Co11 2.414640 1_555
Al70 Co5 2.414640 1_555
Al70 Co10 2.490733 1_545
Al70 Si13 2.752837 1_545
Al70 Si12 2.773361 1_555
Al71 Co1 2.440422 1_555
Al71 Co24 2.484136 1_555
Al71 Co7 2.523997 1_555
Al71 Si1 2.580489 1_555
Al72 Co8 2.469324 1_555
Al72 Co13 2.483257 1_554
Al72 Co20 2.638539 1_555
Al72 Si0 2.639466 1_554
Al73 Co14 2.432306 1_554
Al73 Co6 2.435381 1_555
Al73 Si11 2.700753 1_555
Al74 Co27 2.431426 1_555
Al74 Co24 2.617427 1_555
Al74 Co1 2.693376 1_555
Al75 Co30 2.432306 1_556
Al75 Co15 2.435381 1_455
Al75 Si7 2.700753 1_555
Al76 Co14 2.387150 1_555
Al76 Co5 2.430548 1_555
Al76 Si7 2.727687 1_555
Al77 Co5 2.450496 1_565
Al77 Co33 2.471669 1_555
Al77 Co39 2.605805 1_555
Al77 Si13 2.614814 1_555
Al78 Co8 2.387150 1_555
Al78 Co34 2.430548 1_555
Al78 Si10 2.727687 1_555
Al78 Al84 2.878200 1_555
Al79 Co19 2.414746 1_555
Al79 Co5 2.496804 1_555
Al79 Co15 2.612635 1_455
Al80 Co19 2.414746 1_555
Al80 Co11 2.496804 1_555
Al80 Co2 2.612635 1_455
Al81 Co3 2.432306 1_555
Al81 Co26 2.435381 1_555
Al81 Si8 2.700753 1_555
Al82 Co23 2.450496 1_545
Al82 Co26 2.471669 1_555
Al82 Co17 2.605805 1_555
Al82 Si3 2.614814 1_555
Al83 Co39 2.350582 1_555
Al83 Co0 2.435044 1_455
Al83 Co10 2.693338 1_455
Al84 Co36 2.435597 1_555
Al84 Co34 2.545890 1_555
Al84 Si4 2.649813 1_555
Al84 Co12 2.848157 1_555
Al84 Al98 2.974313 1_555
Al85 Co30 2.387150 1_655
Al85 Co29 2.430548 1_555
Al85 Si11 2.727687 1_555
Al86 Co3 2.387150 1_555
Al86 Co11 2.430548 1_555
Al86 Si15 2.727687 1_555
Al87 Co16 2.432306 1_555
Al87 Co2 2.435381 1_455
Al87 Si15 2.700753 1_555
Al88 Co22 2.422324 1_555
Al88 Co2 2.598331 1_555
Al88 Co15 2.598331 1_555
Al88 Si12 2.670303 1_555
Al88 Co19 2.832996 1_555
Al89 Co12 2.414746 1_555
Al89 Co23 2.496804 1_555
Al89 Co38 2.612635 1_655
Al89 Al98 2.618786 1_555
Al90 Co1 2.469324 1_455
Al90 Co4 2.483257 1_555
Al90 Co27 2.638539 1_455
Al90 Si14 2.639466 1_455
Al91 Co14 2.440422 1_555
Al91 Co15 2.484136 1_555
Al91 Co0 2.523997 1_545
Al91 Si7 2.580489 1_655
Al92 Co0 2.431426 1_555
Al92 Co33 2.617427 1_555
Al92 Co13 2.693376 1_555
Al93 Co8 2.432306 1_556
Al93 Co33 2.435381 1_555
Al93 Si0 2.700753 1_555
Al94 Co23 2.453378 1_545
Al94 Co3 2.490312 1_555
Al94 Si14 2.591741 1_545
Al94 Co18 2.609089 1_655
Al95 Co39 2.350582 1_555
Al95 Co27 2.435044 1_455
Al95 Co10 2.693338 1_455
Al96 Co11 2.450496 1_565
Al96 Co24 2.471669 1_555
Al96 Co39 2.605805 1_555
Al96 Si13 2.614814 1_555
Al97 Co16 2.387150 1_655
Al97 Co32 2.430548 1_555
Al97 Si8 2.727687 1_555
Al98 Co38 2.435597 1_555
Al98 Co23 2.545890 1_555
Al98 Si4 2.649813 1_555
Al98 Co12 2.848157 1_555
Al99 Co30 2.469324 1_655
Al99 Co14 2.483257 1_554
Al99 Co21 2.638539 1_655
Al99 Si7 2.639466 1_654
Al100 Co0 2.514149 1_445
Al100 Co10 2.576513 1_445
Al100 Co5 2.613528 1_555
Al100 Co15 2.618489 1_455
Al100 Si12 2.650840 1_455
Al100 Si13 2.667598 1_545
Al101 Co21 2.448150 1_555
Al101 Co34 2.516793 1_545
Al101 Co25 2.786783 1_555
Al102 Co19 2.350582 1_555
Al102 Co7 2.435044 1_555
Al102 Co22 2.693338 1_555
Al102 Al111 2.752016 1_555
Al103 Co7 2.434820 1_555
Al103 Co16 2.458234 1_655
Al103 Si8 2.539901 1_555
Al103 Co1 2.732611 1_555
Al104 Co3 2.469324 1_555
Al104 Co16 2.483257 1_555
Al104 Co7 2.638539 1_555
Al104 Si8 2.639466 1_555
Al105 Co9 2.514149 1_555
Al105 Co22 2.576513 1_555
Al105 Co31 2.613528 1_555
Al105 Co33 2.618489 1_555
Al105 Si9 2.650840 1_555
Al105 Si5 2.667598 1_555
Al106 Co10 2.422324 1_555
Al106 Co33 2.598331 1_555
Al106 Co24 2.598331 1_555
Al106 Si9 2.670303 1_555
Al106 Al110 2.810872 1_555
Al106 Al108 2.810872 1_555
Al106 Co39 2.832996 1_655
Al107 Co32 2.450496 1_555
Al107 Co38 2.471669 1_655
Al107 Co12 2.605805 1_555
Al107 Si6 2.614814 1_555
Al108 Co24 2.435597 1_555
Al108 Co28 2.545890 1_655
Al108 Al24 2.618786 1_655
Al108 Al51 2.629381 1_555
Al108 Si9 2.649813 1_555
Al108 Al95 2.752016 1_655
Al108 Co39 2.848157 1_655
Al108 Al32 2.878200 1_655
Al108 Al71 2.897746 1_555
Al108 Al110 2.974313 1_555
Al109 Co21 2.434820 1_555
Al109 Co14 2.458234 1_554
Al109 Si7 2.539901 1_554
Al109 Co8 2.732611 1_545
Al110 Co33 2.435597 1_555
Al110 Co31 2.545890 1_655
Al110 Al30 2.618786 1_655
Al110 Al51 2.629381 1_555
Al110 Si9 2.649813 1_555
Al110 Al83 2.752016 1_655
Al110 Co39 2.848157 1_655
Al110 Al21 2.878200 1_655
Al110 Al34 2.897746 1_555
Al111 Co2 2.435597 1_555
Al111 Co11 2.545890 1_555
Al111 Al80 2.618786 1_555
Al111 Al70 2.629381 1_555
Al111 Si12 2.649813 1_555
Al111 Al88 2.810872 1_555
Al111 Co19 2.848157 1_555
Al111 Al86 2.878200 1_555
Al111 Al49 2.897746 1_555
Al111 Al56 2.974313 1_555
Co0 Si7 2.386071 1_665
Co0 Si10 2.405925 1_556
Co2 Si12 2.373124 1_555
Co5 Si13 2.399172 1_545
Co6 Si2 2.373124 1_555
Co7 Si1 2.386071 1_555
Co7 Si8 2.405925 1_555
Co9 Si0 2.386071 1_555
Co9 Si11 2.405925 1_556
Co10 Si13 2.286147 1_655
Co10 Si12 2.377943 1_565
Co10 Co39 2.725329 1_655
Co11 Si13 2.399172 1_545
Co12 Si6 2.528378 1_555
Co12 Co37 2.725329 1_555
Co15 Si12 2.373124 1_555
Co17 Si3 2.528378 1_555
Co17 Co25 2.725329 1_655
Co18 Si14 2.386071 1_445
Co18 Si15 2.405925 1_555
Co19 Si5 2.528378 1_555
Co19 Co22 2.725329 1_555
Co20 Si11 2.386071 1_555
Co20 Si0 2.405925 1_554
Co21 Si10 2.386071 1_445
Co21 Si7 2.405925 1_554
Co22 Si5 2.286147 1_555
Co22 Si9 2.377943 1_555
Co23 Si3 2.399172 1_565
Co24 Si9 2.373124 1_555
Co25 Si3 2.286147 1_455
Co25 Si4 2.377943 1_545
Co26 Si2 2.373124 1_555
Co27 Si15 2.386071 1_665
Co27 Si14 2.405925 1_555
Co28 Si5 2.399172 1_555
Co29 Si6 2.399172 1_555
Co31 Si5 2.399172 1_555
Co32 Si6 2.399172 1_555
Co33 Si9 2.373124 1_555
Co34 Si3 2.399172 1_565
Co35 Si8 2.386071 1_555
Co35 Si1 2.405925 1_555
Co36 Si4 2.373124 1_555
Co37 Si6 2.286147 1_555
Co37 Si2 2.377943 1_555
Co38 Si4 2.373124 1_555
Co39 Si13 2.528378 1_555
Si0 Si11 2.520746 1_556
Si1 Si8 2.520746 1_555
Si10 Si7 2.520746 1_664
Si14 Si15 2.520746 1_665
