# generated using pymatgen
data_Rb
_symmetry_space_group_name_H-M   'P 1'
_cell_length_a   9.36948400
_cell_length_b   9.44720856
_cell_length_c   10.43615770
_cell_angle_alpha   112.91897581
_cell_angle_beta   113.91865603
_cell_angle_gamma   92.04699040
_symmetry_Int_Tables_number   1
_chemical_formula_structural   Rb
_chemical_formula_sum   Rb8
_cell_volume   756.92584243
_cell_formula_units_Z   8
loop_
 _symmetry_equiv_pos_site_id
 _symmetry_equiv_pos_as_xyz
  1  'x, y, z'
loop_
 _atom_site_type_symbol
 _atom_site_label
 _atom_site_symmetry_multiplicity
 _atom_site_fract_x
 _atom_site_fract_y
 _atom_site_fract_z
 _atom_site_occupancy
  Rb  Rb0  1  0.21281100  0.61570700  0.77123800  1
  Rb  Rb1  1  0.17562400  0.01789200  0.21073500  1
  Rb  Rb2  1  0.39223700  0.10056600  0.72256000  1
  Rb  Rb3  1  0.70006500  0.22449700  0.25080200  1
  Rb  Rb4  1  0.71757000  0.73096200  0.27413400  1
  Rb  Rb5  1  0.21247200  0.54725500  0.27928400  1
  Rb  Rb6  1  0.91315300  0.15382000  0.76725000  1
  Rb  Rb7  1  0.69934600  0.63026600  0.74873500  1
loop_
_geom_bond_atom_site_label_1
_geom_bond_atom_site_label_2
_geom_bond_distance
_geom_bond_site_symmetry_2
Rb0 Rb7 4.658669 1_555
Rb0 Rb7 4.730236 1_455
Rb0 Rb1 4.838638 1_566
Rb0 Rb5 4.917114 1_555
Rb0 Rb6 5.080716 1_455
Rb0 Rb2 5.101042 1_565
Rb0 Rb2 5.110764 1_555
Rb0 Rb4 5.113838 1_556
Rb1 Rb2 4.594282 1_555
Rb1 Rb5 4.746672 1_555
Rb1 Rb5 4.773518 1_545
Rb1 Rb7 4.919844 1_444
Rb1 Rb6 4.974233 1_454
Rb1 Rb3 5.014228 1_555
Rb1 Rb3 5.033347 1_455
Rb2 Rb3 4.681794 1_556
Rb2 Rb6 4.699788 1_555
Rb2 Rb6 4.721849 1_455
Rb2 Rb5 5.077447 1_545
Rb3 Rb4 4.688657 1_555
Rb3 Rb4 4.767793 1_545
Rb3 Rb7 5.119940 1_555
Rb4 Rb6 4.649569 1_565
Rb4 Rb5 4.996191 1_655
Rb4 Rb5 5.010359 1_555
Rb4 Rb7 5.115236 1_554
Rb5 Rb6 4.676415 1_454
Rb5 Rb7 4.904781 1_555
Rb6 Rb7 5.031682 1_555
Rb6 Rb7 5.171891 1_545
