# generated using pymatgen
data_Mg3(MnAl9)2
_symmetry_space_group_name_H-M   'P 1'
_cell_length_a   10.19565530
_cell_length_b   10.19565530
_cell_length_c   10.19565530
_cell_angle_alpha   60.00000000
_cell_angle_beta   60.00000000
_cell_angle_gamma   60.00000000
_symmetry_Int_Tables_number   1
_chemical_formula_structural   Mg3(MnAl9)2
_chemical_formula_sum   'Mg6 Mn4 Al36'
_cell_volume   749.42889632
_cell_formula_units_Z   2
loop_
 _symmetry_equiv_pos_site_id
 _symmetry_equiv_pos_as_xyz
  1  'x, y, z'
loop_
 _atom_site_type_symbol
 _atom_site_label
 _atom_site_symmetry_multiplicity
 _atom_site_fract_x
 _atom_site_fract_y
 _atom_site_fract_z
 _atom_site_occupancy
  Mg  Mg0  1  0.25000000  0.25000000  0.25000000  1
  Mg  Mg1  1  0.62500000  0.12500000  0.12500000  1
  Mg  Mg2  1  0.12500000  0.62500000  0.12500000  1
  Mg  Mg3  1  0.00000000  0.00000000  0.00000000  1
  Mg  Mg4  1  0.12500000  0.12500000  0.12500000  1
  Mg  Mg5  1  0.12500000  0.12500000  0.62500000  1
  Mn  Mn0  1  0.62500000  0.62500000  0.12500000  1
  Mn  Mn1  1  0.62500000  0.62500000  0.62500000  1
  Mn  Mn2  1  0.62500000  0.12500000  0.62500000  1
  Mn  Mn3  1  0.12500000  0.62500000  0.62500000  1
  Al  Al0  1  0.33494700  0.06644600  0.79930300  1
  Al  Al1  1  0.06644600  0.79930300  0.33494700  1
  Al  Al2  1  0.91505300  0.18355400  0.45069700  1
  Al  Al3  1  0.18355400  0.45069700  0.45069700  1
  Al  Al4  1  0.06644600  0.33494700  0.79930300  1
  Al  Al5  1  0.79930300  0.79930300  0.06644600  1
  Al  Al6  1  0.79930300  0.06644600  0.79930300  1
  Al  Al7  1  0.63741800  0.63741800  0.36258200  1
  Al  Al8  1  0.79930300  0.33494700  0.06644600  1
  Al  Al9  1  0.45069700  0.45069700  0.18355400  1
  Al  Al10  1  0.45069700  0.91505300  0.45069700  1
  Al  Al11  1  0.79930300  0.06644600  0.33494700  1
  Al  Al12  1  0.63741800  0.36258200  0.63741800  1
  Al  Al13  1  0.45069700  0.18355400  0.91505300  1
  Al  Al14  1  0.18355400  0.91505300  0.45069700  1
  Al  Al15  1  0.88741800  0.88741800  0.61258200  1
  Al  Al16  1  0.06644600  0.79930300  0.79930300  1
  Al  Al17  1  0.33494700  0.79930300  0.06644600  1
  Al  Al18  1  0.79930300  0.33494700  0.79930300  1
  Al  Al19  1  0.91505300  0.45069700  0.18355400  1
  Al  Al20  1  0.61258200  0.88741800  0.88741800  1
  Al  Al21  1  0.63741800  0.36258200  0.36258200  1
  Al  Al22  1  0.45069700  0.18355400  0.45069700  1
  Al  Al23  1  0.61258200  0.88741800  0.61258200  1
  Al  Al24  1  0.18355400  0.45069700  0.91505300  1
  Al  Al25  1  0.91505300  0.45069700  0.45069700  1
  Al  Al26  1  0.36258200  0.63741800  0.63741800  1
  Al  Al27  1  0.61258200  0.61258200  0.88741800  1
  Al  Al28  1  0.88741800  0.61258200  0.61258200  1
  Al  Al29  1  0.36258200  0.36258200  0.63741800  1
  Al  Al30  1  0.45069700  0.45069700  0.91505300  1
  Al  Al31  1  0.79930300  0.79930300  0.33494700  1
  Al  Al32  1  0.33494700  0.79930300  0.79930300  1
  Al  Al33  1  0.36258200  0.63741800  0.36258200  1
  Al  Al34  1  0.88741800  0.61258200  0.88741800  1
  Al  Al35  1  0.45069700  0.91505300  0.18355400  1
loop_
_geom_bond_atom_site_label_1
_geom_bond_atom_site_label_2
_geom_bond_distance
_geom_bond_site_symmetry_2
Mg0 Mg1 3.121769 1_555
Mg0 Mg2 3.121769 1_555
Mg0 Mg4 3.121769 1_555
Mg0 Mg5 3.121769 1_555
Mg1 Mg3 3.121769 1_655
Mg2 Mg3 3.121769 1_565
Mg3 Mg5 3.121769 1_554
Mg3 Mg4 3.121769 1_555
Al0 Al29 2.705924 1_555
Al0 Al32 2.723698 1_545
Al0 Al17 2.723698 1_546
Al0 Al4 2.737544 1_555
Al0 Mn2 2.776540 1_555
Al0 Al23 2.808538 1_545
Al0 Al20 2.808543 1_545
Al0 Al22 2.902058 1_555
Al0 Al13 2.902074 1_555
Al0 Mg5 3.092207 1_555
Al0 Mg4 3.092216 1_556
Al0 Mg3 3.201198 1_556
Al1 Al33 2.705924 1_555
Al1 Al11 2.723698 1_465
Al1 Al31 2.723698 1_455
Al1 Al17 2.737544 1_555
Al1 Mn3 2.776540 1_555
Al1 Al28 2.808538 1_455
Al1 Al15 2.808543 1_455
Al1 Al3 2.902058 1_555
Al1 Al14 2.902074 1_555
Al1 Mg2 3.092207 1_555
Al1 Mg4 3.092216 1_565
Al1 Mg3 3.201198 1_565
Al2 Al25 2.723698 1_555
Al2 Mn2 2.776540 1_555
Al2 Al21 2.808543 1_555
Al2 Al6 2.902058 1_555
Al2 Mg5 3.092207 1_655
Al2 Mg4 3.092216 1_655
Al2 Mg0 3.201198 1_655
Al3 Al9 2.723698 1_555
Al3 Mn3 2.776532 1_555
Al3 Al33 2.808534 1_555
Al3 Al4 2.902058 1_555
Al3 Mg2 3.092216 1_555
Al3 Mg5 3.092216 1_555
Al3 Mg0 3.201207 1_555
Al4 Al8 2.723698 1_456
Al4 Mn3 2.776540 1_555
Al4 Mg5 3.092207 1_555
Al4 Mg4 3.092216 1_556
Al4 Mg3 3.201198 1_556
Al5 Al7 2.705921 1_555
Al5 Al6 2.723698 1_564
Al5 Mn0 2.776532 1_555
Al5 Mg2 3.092216 1_655
Al5 Mg1 3.092216 1_565
Al5 Mg3 3.201207 1_665
Al6 Mn2 2.776532 1_555
Al6 Mg1 3.092216 1_556
Al6 Mg5 3.092216 1_655
Al6 Mg3 3.201207 1_656
Al7 Mn1 2.555195 1_555
Al7 Mn0 2.555195 1_555
Al8 Mn0 2.776540 1_555
Al8 Al9 2.902058 1_555
Al8 Mg1 3.092207 1_555
Al8 Mg4 3.092216 1_655
Al8 Mg3 3.201198 1_655
Al9 Mn0 2.776532 1_555
Al9 Mg2 3.092216 1_555
Al9 Mg1 3.092216 1_555
Al9 Mg0 3.201207 1_555
Al10 Al23 2.705916 1_555
Al10 Al14 2.723698 1_555
Al10 Al35 2.723698 1_555
Al10 Al22 2.737544 1_565
Al10 Mn1 2.776536 1_555
Al10 Al26 2.808543 1_555
Al10 Al7 2.808543 1_555
Al10 Al32 2.902058 1_555
Al10 Al31 2.902058 1_555
Al10 Mg5 3.092212 1_565
Al10 Mg1 3.092212 1_565
Al10 Mg0 3.201203 1_565
Al11 Al21 2.705924 1_555
Al11 Al31 2.723698 1_545
Al11 Al8 2.737544 1_555
Al11 Mn2 2.776540 1_555
Al11 Al23 2.808538 1_545
Al11 Al15 2.808543 1_545
Al11 Al22 2.902058 1_555
Al11 Al2 2.902074 1_555
Al11 Mg1 3.092207 1_555
Al11 Mg4 3.092216 1_655
Al11 Mg3 3.201198 1_655
Al12 Mn1 2.555195 1_555
Al12 Mn2 2.555195 1_555
Al12 Al18 2.705916 1_555
Al12 Al6 2.705921 1_555
Al12 Al29 2.802133 1_555
Al12 Al21 2.802133 1_555
Al12 Al26 2.802133 1_555
Al12 Al7 2.802133 1_555
Al12 Al13 2.808538 1_555
Al12 Al2 2.808538 1_555
Al12 Al25 2.808543 1_555
Al12 Al30 2.808543 1_555
Al13 Al20 2.705924 1_545
Al13 Al30 2.723698 1_555
Al13 Al24 2.723698 1_555
Al13 Al35 2.737544 1_546
Al13 Mn2 2.776540 1_555
Al13 Al29 2.808543 1_555
Al13 Al6 2.902058 1_555
Al13 Mg1 3.092207 1_556
Al13 Mg4 3.092216 1_556
Al13 Mg0 3.201198 1_556
Al14 Al15 2.705924 1_455
Al14 Al35 2.723698 1_555
Al14 Al2 2.737544 1_465
Al14 Mn3 2.776540 1_555
Al14 Al26 2.808538 1_555
Al14 Al33 2.808543 1_555
Al14 Al16 2.902058 1_555
Al14 Mg5 3.092207 1_565
Al14 Mg4 3.092216 1_565
Al14 Mg0 3.201198 1_565
Al15 Mn3 2.555195 1_655
Al15 Mn2 2.555195 1_565
Al15 Al2 2.705924 1_565
Al15 Al20 2.802133 1_555
Al15 Al23 2.802133 1_555
Al15 Al34 2.802133 1_555
Al15 Al28 2.802133 1_555
Al15 Al16 2.808534 1_655
Al15 Al6 2.808534 1_565
Al16 Al26 2.705921 1_555
Al16 Al5 2.723698 1_456
Al16 Al6 2.723698 1_465
Al16 Al32 2.737544 1_555
Al16 Mn3 2.776532 1_555
Al16 Al34 2.808534 1_455
Al16 Al24 2.902058 1_555
Al16 Mg5 3.092216 1_565
Al16 Mg2 3.092216 1_556
Al16 Mg3 3.201207 1_566
Al17 Al33 2.705924 1_555
Al17 Al32 2.723698 1_554
Al17 Mn0 2.776540 1_555
Al17 Al27 2.808538 1_554
Al17 Al20 2.808543 1_554
Al17 Al9 2.902058 1_555
Al17 Al35 2.902074 1_555
Al17 Mg2 3.092207 1_555
Al17 Mg4 3.092216 1_565
Al17 Mg3 3.201198 1_565
Al18 Al4 2.723698 1_655
Al18 Al8 2.723698 1_556
Al18 Al6 2.737544 1_555
Al18 Mn1 2.776536 1_555
Al18 Al27 2.808543 1_555
Al18 Al28 2.808543 1_555
Al18 Al25 2.902058 1_555
Al18 Al30 2.902058 1_555
Al18 Mg5 3.092212 1_655
Al18 Mg1 3.092212 1_556
Al18 Mg3 3.201203 1_656
Al19 Al34 2.705924 1_554
Al19 Al25 2.723698 1_555
Al19 Al2 2.723698 1_555
Al19 Al24 2.737544 1_654
Al19 Mn0 2.776540 1_555
Al19 Al7 2.808538 1_555
Al19 Al21 2.808543 1_555
Al19 Al5 2.902058 1_555
Al19 Al8 2.902074 1_555
Al19 Mg2 3.092207 1_655
Al19 Mg4 3.092216 1_655
Al19 Mg0 3.201198 1_655
Al20 Mn2 2.555195 1_565
Al20 Mn0 2.555195 1_556
Al20 Al35 2.705924 1_556
Al20 Al23 2.802133 1_555
Al20 Al27 2.802133 1_555
Al20 Al34 2.802133 1_555
Al20 Al5 2.808534 1_556
Al20 Al6 2.808534 1_565
Al21 Mn2 2.555195 1_555
Al21 Mn0 2.555195 1_555
Al21 Al8 2.705924 1_555
Al21 Al29 2.802133 1_555
Al21 Al7 2.802133 1_555
Al21 Al33 2.802133 1_555
Al21 Al22 2.808534 1_555
Al21 Al9 2.808534 1_555
Al22 Al23 2.705921 1_545
Al22 Al3 2.723698 1_555
Al22 Al9 2.723698 1_555
Al22 Mn2 2.776532 1_555
Al22 Al29 2.808534 1_555
Al22 Mg1 3.092216 1_555
Al22 Mg5 3.092216 1_555
Al22 Mg0 3.201207 1_555
Al23 Mn2 2.555195 1_565
Al23 Mn1 2.555195 1_555
Al23 Al27 2.802133 1_555
Al23 Al28 2.802133 1_555
Al23 Al32 2.808543 1_555
Al23 Al31 2.808543 1_555
Al24 Al34 2.705924 1_455
Al24 Al30 2.723698 1_555
Al24 Mn3 2.776540 1_555
Al24 Al26 2.808538 1_555
Al24 Al29 2.808543 1_555
Al24 Al4 2.902074 1_555
Al24 Mg2 3.092207 1_556
Al24 Mg4 3.092216 1_556
Al24 Mg0 3.201198 1_556
Al25 Al28 2.705916 1_555
Al25 Al3 2.737544 1_655
Al25 Mn1 2.776536 1_555
Al25 Al7 2.808543 1_555
Al25 Al31 2.902058 1_555
Al25 Mg5 3.092212 1_655
Al25 Mg2 3.092212 1_655
Al25 Mg0 3.201203 1_655
Al26 Mn1 2.555195 1_555
Al26 Mn3 2.555195 1_555
Al26 Al32 2.705916 1_555
Al26 Al29 2.802133 1_555
Al26 Al7 2.802133 1_555
Al26 Al33 2.802133 1_555
Al26 Al30 2.808543 1_555
Al27 Mn0 2.555195 1_556
Al27 Mn1 2.555195 1_555
Al27 Al30 2.705916 1_555
Al27 Al9 2.705921 1_556
Al27 Al34 2.802133 1_555
Al27 Al28 2.802133 1_555
Al27 Al8 2.808538 1_556
Al27 Al32 2.808543 1_555
Al28 Mn3 2.555195 1_655
Al28 Mn1 2.555195 1_555
Al28 Al3 2.705921 1_655
Al28 Al34 2.802133 1_555
Al28 Al4 2.808538 1_655
Al28 Al31 2.808543 1_555
Al29 Mn2 2.555195 1_555
Al29 Mn3 2.555195 1_555
Al29 Al4 2.705924 1_555
Al29 Al33 2.802133 1_555
Al29 Al3 2.808534 1_555
Al30 Al9 2.737544 1_556
Al30 Mn1 2.776536 1_555
Al30 Al32 2.902058 1_555
Al30 Mg2 3.092212 1_556
Al30 Mg1 3.092212 1_556
Al30 Mg0 3.201203 1_556
Al31 Al7 2.705916 1_555
Al31 Al5 2.737544 1_555
Al31 Mn1 2.776536 1_555
Al31 Mg1 3.092212 1_565
Al31 Mg2 3.092212 1_655
Al31 Mg3 3.201203 1_665
Al32 Mn1 2.776536 1_555
Al32 Mg5 3.092212 1_565
Al32 Mg2 3.092212 1_556
Al32 Mg3 3.201203 1_566
Al33 Mn3 2.555195 1_555
Al33 Mn0 2.555195 1_555
Al33 Al7 2.802133 1_555
Al33 Al9 2.808534 1_555
Al33 Al35 2.808543 1_555
Al34 Mn3 2.555195 1_655
Al34 Mn0 2.555195 1_556
Al34 Al5 2.808534 1_556
Al34 Al4 2.808543 1_655
Al34 Al8 2.808543 1_556
Al35 Mn0 2.776540 1_555
Al35 Al7 2.808538 1_555
Al35 Al5 2.902058 1_555
Al35 Mg1 3.092207 1_565
Al35 Mg4 3.092216 1_565
Al35 Mg0 3.201198 1_565
