# generated using pymatgen
data_Cd(In2I3)2
_symmetry_space_group_name_H-M   'P 1'
_cell_length_a   9.15784900
_cell_length_b   9.15784900
_cell_length_c   10.00356000
_cell_angle_alpha   90.00000000
_cell_angle_beta   90.00000000
_cell_angle_gamma   90.00000000
_symmetry_Int_Tables_number   1
_chemical_formula_structural   Cd(In2I3)2
_chemical_formula_sum   'Cd2 In8 I12'
_cell_volume   838.96054673
_cell_formula_units_Z   2
loop_
 _symmetry_equiv_pos_site_id
 _symmetry_equiv_pos_as_xyz
  1  'x, y, z'
loop_
 _atom_site_type_symbol
 _atom_site_label
 _atom_site_symmetry_multiplicity
 _atom_site_fract_x
 _atom_site_fract_y
 _atom_site_fract_z
 _atom_site_occupancy
  Cd  Cd0  1  0.00000000  0.00000000  0.00000000  1
  Cd  Cd1  1  0.50000000  0.50000000  0.50000000  1
  In  In0  1  0.85692500  0.64307500  0.75000000  1
  In  In1  1  0.85692500  0.64307500  0.25000000  1
  In  In2  1  0.64307500  0.14307500  0.75000000  1
  In  In3  1  0.64307500  0.14307500  0.25000000  1
  In  In4  1  0.14307500  0.35692500  0.25000000  1
  In  In5  1  0.14307500  0.35692500  0.75000000  1
  In  In6  1  0.35692500  0.85692500  0.25000000  1
  In  In7  1  0.35692500  0.85692500  0.75000000  1
  I  I0  1  0.85083400  0.30642800  0.00000000  1
  I  I1  1  0.14916600  0.69357200  0.00000000  1
  I  I2  1  0.69357200  0.85083400  0.00000000  1
  I  I3  1  0.00000000  0.00000000  0.28843000  1
  I  I4  1  0.19357200  0.64916600  0.50000000  1
  I  I5  1  0.64916600  0.80642800  0.50000000  1
  I  I6  1  0.00000000  0.00000000  0.71157000  1
  I  I7  1  0.50000000  0.50000000  0.21157000  1
  I  I8  1  0.80642800  0.35083400  0.50000000  1
  I  I9  1  0.35083400  0.19357200  0.50000000  1
  I  I10  1  0.50000000  0.50000000  0.78843000  1
  I  I11  1  0.30642800  0.14916600  0.00000000  1
loop_
_geom_bond_atom_site_label_1
_geom_bond_atom_site_label_2
_geom_bond_distance
_geom_bond_site_symmetry_2
Cd0 I6 2.885327 1_554
Cd0 I3 2.885327 1_555
Cd0 I11 3.121048 1_555
Cd0 I0 3.121048 1_455
Cd0 I2 3.121048 1_445
Cd0 I1 3.121048 1_545
Cd1 I10 2.885327 1_555
Cd1 I7 2.885327 1_555
Cd1 I8 3.121048 1_555
Cd1 I9 3.121048 1_555
Cd1 I4 3.121048 1_555
Cd1 I5 3.121048 1_555
I0 In3 3.480278 1_555
I0 In2 3.480278 1_554
I1 In6 3.480278 1_555
I1 In7 3.480278 1_554
I2 In1 3.480278 1_555
I2 In0 3.480278 1_554
I3 In6 3.542421 1_545
I3 In4 3.542421 1_555
I3 In1 3.542421 1_445
I3 In3 3.542421 1_455
I4 In6 3.480278 1_555
I4 In7 3.480278 1_555
I5 In0 3.480278 1_555
I5 In1 3.480278 1_555
I6 In7 3.542421 1_545
I6 In5 3.542421 1_555
I6 In0 3.542421 1_445
I6 In2 3.542421 1_455
I7 In3 3.542421 1_555
I7 In4 3.542421 1_555
I7 In1 3.542421 1_555
I7 In6 3.542421 1_555
I8 In3 3.480278 1_555
I8 In2 3.480278 1_555
I9 In5 3.480278 1_555
I9 In4 3.480278 1_555
I10 In5 3.542421 1_555
I10 In2 3.542421 1_555
I10 In0 3.542421 1_555
I10 In7 3.542421 1_555
I11 In5 3.480278 1_554
I11 In4 3.480278 1_555
