# generated using pymatgen
data_Ba4LiW2N7
_symmetry_space_group_name_H-M   'P 1'
_cell_length_a   6.57530500
_cell_length_b   10.48807700
_cell_length_c   17.52623344
_cell_angle_alpha   62.70248014
_cell_angle_beta   90.00000000
_cell_angle_gamma   90.00000000
_symmetry_Int_Tables_number   1
_chemical_formula_structural   Ba4LiW2N7
_chemical_formula_sum   'Ba16 Li4 W8 N28'
_cell_volume   1074.05073185
_cell_formula_units_Z   4
loop_
 _symmetry_equiv_pos_site_id
 _symmetry_equiv_pos_as_xyz
  1  'x, y, z'
loop_
 _atom_site_type_symbol
 _atom_site_label
 _atom_site_symmetry_multiplicity
 _atom_site_fract_x
 _atom_site_fract_y
 _atom_site_fract_z
 _atom_site_occupancy
  Ba  Ba0  1  0.31571300  0.00000000  0.75000000  1
  Ba  Ba1  1  0.85774600  0.30332300  0.62079700  1
  Ba  Ba2  1  0.85774600  0.69667700  0.87920300  1
  Ba  Ba3  1  0.14225400  0.69667700  0.37920300  1
  Ba  Ba4  1  0.14225400  0.30332300  0.12079700  1
  Ba  Ba5  1  0.27872800  0.25931600  0.48406100  1
  Ba  Ba6  1  0.27872800  0.74068400  0.01593900  1
  Ba  Ba7  1  0.72127200  0.74068400  0.51593900  1
  Ba  Ba8  1  0.72127200  0.25931600  0.98406100  1
  Ba  Ba9  1  0.77102900  0.15098900  0.42794900  1
  Ba  Ba10  1  0.77102900  0.84901100  0.07205100  1
  Ba  Ba11  1  0.22897100  0.84901100  0.57205100  1
  Ba  Ba12  1  0.22897100  0.15098900  0.92794900  1
  Ba  Ba13  1  0.97737900  0.50000000  0.25000000  1
  Ba  Ba14  1  0.02262100  0.50000000  0.75000000  1
  Ba  Ba15  1  0.68428700  0.00000000  0.25000000  1
  Li  Li0  1  0.54350300  0.36705900  0.76083700  1
  Li  Li1  1  0.45649700  0.36705900  0.26083700  1
  Li  Li2  1  0.45649700  0.63294100  0.23916300  1
  Li  Li3  1  0.54350300  0.63294100  0.73916300  1
  W  W0  1  0.32999500  0.51790400  0.90348100  1
  W  W1  1  0.32999500  0.48209600  0.59651900  1
  W  W2  1  0.67000500  0.48209600  0.09651900  1
  W  W3  1  0.67000500  0.51790400  0.40348100  1
  W  W4  1  0.22508700  0.95066000  0.15536600  1
  W  W5  1  0.22508700  0.04934000  0.34463400  1
  W  W6  1  0.77491300  0.04934000  0.84463400  1
  W  W7  1  0.77491300  0.95066000  0.65536600  1
  N  N0  1  0.53523600  0.98419800  0.90793000  1
  N  N1  1  0.18267500  0.75296700  0.19529100  1
  N  N2  1  0.18267500  0.24703300  0.30470900  1
  N  N3  1  0.81732500  0.24703300  0.80470900  1
  N  N4  1  0.81732500  0.75296700  0.69529100  1
  N  N5  1  0.53027400  0.43190600  0.34714700  1
  N  N6  1  0.53027400  0.56809400  0.15285300  1
  N  N7  1  0.46972600  0.56809400  0.65285300  1
  N  N8  1  0.46972600  0.43190600  0.84714700  1
  N  N9  1  0.46476400  0.01580200  0.09207000  1
  N  N10  1  0.46476400  0.98419800  0.40793000  1
  N  N11  1  0.07862100  0.57663700  0.56436000  1
  N  N12  1  0.27516900  0.29130300  0.67107900  1
  N  N13  1  0.27516900  0.70869700  0.82892100  1
  N  N14  1  0.72483100  0.70869700  0.32892100  1
  N  N15  1  0.72483100  0.29130300  0.17107900  1
  N  N16  1  0.50000000  0.50000000  0.00000000  1
  N  N17  1  0.50000000  0.50000000  0.50000000  1
  N  N18  1  0.76022200  0.00000000  0.75000000  1
  N  N19  1  0.23977800  0.00000000  0.25000000  1
  N  N20  1  0.01151400  0.05472600  0.08351800  1
  N  N21  1  0.01151400  0.94527400  0.41648200  1
  N  N22  1  0.98848600  0.94527400  0.91648200  1
  N  N23  1  0.98848600  0.05472600  0.58351800  1
  N  N24  1  0.92137900  0.57663700  0.06436000  1
  N  N25  1  0.07862100  0.42336300  0.93564000  1
  N  N26  1  0.92137900  0.42336300  0.43564000  1
  N  N27  1  0.53523600  0.01580200  0.59207000  1
loop_
_geom_bond_atom_site_label_1
_geom_bond_atom_site_label_2
_geom_bond_distance
_geom_bond_site_symmetry_2
Ba0 N12 2.728088 1_555
Ba0 N13 2.728088 1_545
Ba0 N18 2.922782 1_555
Ba0 N27 3.058033 1_555
Ba0 N0 3.058033 1_545
Ba0 N22 3.454905 1_445
Ba0 N23 3.454905 1_455
Ba1 N12 2.867732 1_655
Ba1 N26 2.922921 1_555
Ba1 N11 2.950251 1_655
Ba1 N18 3.008640 1_555
Ba1 N3 3.010535 1_555
Ba1 N23 3.086490 1_555
Ba1 N17 3.203877 1_555
Ba2 N13 2.867732 1_655
Ba2 N24 2.922921 1_556
Ba2 N25 2.950251 1_655
Ba2 N18 3.008640 1_565
Ba2 N4 3.010535 1_555
Ba2 N22 3.086490 1_555
Ba2 N16 3.203877 1_556
Ba3 N14 2.867732 1_455
Ba3 N11 2.922921 1_555
Ba3 N26 2.950251 1_455
Ba3 N19 3.008640 1_565
Ba3 N1 3.010535 1_555
Ba3 N21 3.086490 1_555
Ba3 N17 3.203877 1_555
Ba4 N15 2.867732 1_455
Ba4 N25 2.922921 1_554
Ba4 N24 2.950251 1_455
Ba4 N19 3.008640 1_555
Ba4 N2 3.010535 1_555
Ba4 N20 3.086490 1_555
Ba4 N16 3.203877 1_555
Ba5 N5 2.790389 1_555
Ba5 N23 2.802521 1_455
Ba5 N26 2.803957 1_455
Ba5 N27 2.918304 1_555
Ba5 N17 3.035426 1_555
Ba5 N2 3.266137 1_555
Ba5 N12 3.444582 1_555
Ba6 N6 2.790389 1_555
Ba6 N22 2.802521 1_454
Ba6 N24 2.803957 1_455
Ba6 N0 2.918304 1_554
Ba6 N16 3.035426 1_555
Ba6 N1 3.266137 1_555
Ba6 N13 3.444582 1_554
Ba7 N7 2.790389 1_555
Ba7 N21 2.802521 1_655
Ba7 N11 2.803957 1_655
Ba7 N10 2.918304 1_555
Ba7 N17 3.035426 1_555
Ba7 N4 3.266137 1_555
Ba7 N14 3.444582 1_555
Ba8 N8 2.790389 1_555
Ba8 N20 2.802521 1_656
Ba8 N25 2.803957 1_655
Ba8 N9 2.918304 1_556
Ba8 N16 3.035426 1_556
Ba8 N3 3.266137 1_555
Ba8 N15 3.444582 1_556
Ba9 N21 2.755638 1_645
Ba9 N10 2.793116 1_545
Ba9 N23 2.823634 1_555
Ba9 N27 2.991177 1_555
Ba9 N5 3.060238 1_555
Ba9 N26 3.083715 1_555
Ba9 N2 3.318219 1_655
Ba10 N20 2.755638 1_665
Ba10 N9 2.793116 1_565
Ba10 N22 2.823634 1_554
Ba10 N0 2.991177 1_554
Ba10 N6 3.060238 1_555
Ba10 N24 3.083715 1_555
Ba10 N1 3.318219 1_655
Ba11 N23 2.755638 1_465
Ba11 N27 2.793116 1_565
Ba11 N21 2.823634 1_555
Ba11 N10 2.991177 1_555
Ba11 N7 3.060238 1_555
Ba11 N11 3.083715 1_555
Ba11 N4 3.318219 1_455
Ba12 N22 2.755638 1_445
Ba12 N0 2.793116 1_545
Ba12 N20 2.823634 1_556
Ba12 N9 2.991177 1_556
Ba12 N8 3.060238 1_555
Ba12 N25 3.083715 1_555
Ba12 N3 3.318219 1_455
Ba13 N1 2.728982 1_655
Ba13 N2 2.728982 1_655
Ba13 N24 2.994778 1_555
Ba13 N26 2.994778 1_555
Ba14 N4 2.728982 1_455
Ba14 N3 2.728982 1_455
Ba14 N11 2.994778 1_555
Ba14 N25 2.994778 1_555
Ba15 N15 2.728088 1_555
Ba15 N14 2.728088 1_545
Ba15 N19 2.922782 1_555
Ba15 N10 3.058033 1_545
Ba15 N9 3.058033 1_555
Ba15 N21 3.454905 1_645
Ba15 N20 3.454905 1_655
Li0 N8 1.982364 1_555
Li0 N3 2.128324 1_555
Li0 N7 2.145380 1_555
Li1 N5 1.982364 1_555
Li1 N2 2.128324 1_555
Li1 N6 2.145380 1_555
Li2 N6 1.982364 1_555
Li2 N1 2.128324 1_555
Li2 N5 2.145380 1_555
Li3 N7 1.982364 1_555
Li3 N4 2.128324 1_555
Li3 N8 2.145380 1_555
N0 W6 1.867045 1_565
N1 W4 1.880351 1_555
N2 W5 1.880351 1_555
N3 W6 1.880351 1_555
N4 W7 1.880351 1_555
N5 W3 1.857223 1_555
N6 W2 1.857223 1_555
N7 W1 1.857223 1_555
N8 W0 1.857223 1_555
N9 W4 1.867045 1_545
N10 W5 1.867045 1_565
N11 W1 1.876219 1_555
N12 W1 1.855625 1_555
N13 W0 1.855625 1_555
N14 W3 1.855625 1_555
N15 W2 1.855625 1_555
N16 W2 1.963421 1_555
N16 W0 1.963421 1_554
N17 W1 1.963421 1_555
N17 W3 1.963421 1_555
N18 W7 1.953263 1_545
N18 W6 1.953263 1_555
N19 W4 1.953263 1_545
N19 W5 1.953263 1_555
N20 W4 1.867720 1_545
N21 W5 1.867720 1_565
N22 W6 1.867720 1_565
N23 W7 1.867720 1_545
N24 W2 1.876219 1_555
N25 W0 1.876219 1_555
N26 W3 1.876219 1_555
N27 W7 1.867045 1_545
