# generated using pymatgen
data_FeP2O7
_symmetry_space_group_name_H-M   'P 1'
_cell_length_a   6.45101457
_cell_length_b   10.64708795
_cell_length_c   9.67455705
_cell_angle_alpha   64.68791046
_cell_angle_beta   107.12268362
_cell_angle_gamma   94.17524012
_symmetry_Int_Tables_number   1
_chemical_formula_structural   FeP2O7
_chemical_formula_sum   'Fe4 P8 O28'
_cell_volume   572.98682830
_cell_formula_units_Z   4
loop_
 _symmetry_equiv_pos_site_id
 _symmetry_equiv_pos_as_xyz
  1  'x, y, z'
loop_
 _atom_site_type_symbol
 _atom_site_label
 _atom_site_symmetry_multiplicity
 _atom_site_fract_x
 _atom_site_fract_y
 _atom_site_fract_z
 _atom_site_occupancy
  Fe  Fe0  1  0.37461800  0.25201800  0.49700900  1
  Fe  Fe1  1  0.62249100  0.75412800  0.49343100  1
  Fe  Fe2  1  0.72727900  0.77913500  0.09245700  1
  Fe  Fe3  1  0.27438900  0.22395700  0.89782300  1
  P  P0  1  0.41543700  0.46282300  0.68193000  1
  P  P1  1  0.07301600  0.20592100  0.18367400  1
  P  P2  1  0.88994000  0.30188400  0.54917100  1
  P  P3  1  0.58243200  0.54241700  0.31100600  1
  P  P4  1  0.31134100  0.96498200  0.80080200  1
  P  P5  1  0.92844800  0.79780000  0.80662400  1
  P  P6  1  0.10763800  0.70306300  0.44188100  1
  P  P7  1  0.69035800  0.03893100  0.18929600  1
  O  O0  1  0.43901200  0.32251200  0.67314200  1
  O  O1  1  0.55070100  0.17230300  0.07186500  1
  O  O2  1  0.79759200  0.46239500  0.45327500  1
  O  O3  1  0.30472100  0.79019100  0.45661500  1
  O  O4  1  0.45387800  0.83227500  0.91596600  1
  O  O5  1  0.00241300  0.71844100  0.27155400  1
  O  O6  1  0.39075300  0.05626100  0.65804900  1
  O  O7  1  0.60199100  0.55739800  0.65717100  1
  O  O8  1  0.10757400  0.17586700  0.05111800  1
  O  O9  1  0.55838500  0.68266700  0.31919900  1
  O  O10  1  0.27097300  0.04417800  0.89127400  1
  O  O11  1  0.60774400  0.94981200  0.33094900  1
  O  O12  1  0.73181700  0.95815200  0.10090200  1
  O  O13  1  0.69233600  0.21528600  0.53317500  1
  O  O14  1  0.99650300  0.28344900  0.72076800  1
  O  O15  1  0.92132900  0.08863200  0.26615400  1
  O  O16  1  0.39478100  0.44842300  0.33552000  1
  O  O17  1  0.08067300  0.91467800  0.72478100  1
  O  O18  1  0.19948900  0.54254600  0.54050000  1
  O  O19  1  0.72214100  0.81101300  0.67380200  1
  O  O20  1  0.89820000  0.82527600  0.94199500  1
  O  O21  1  0.36137300  0.41942000  0.84020800  1
  O  O22  1  0.94462200  0.72792600  0.51587300  1
  O  O23  1  0.05259700  0.27864300  0.47373100  1
  O  O24  1  0.63610300  0.58454700  0.15286000  1
  O  O25  1  0.04237400  0.65157900  0.88391200  1
  O  O26  1  0.27740500  0.19543900  0.31622100  1
  O  O27  1  0.95643000  0.35157700  0.10409500  1
loop_
_geom_bond_atom_site_label_1
_geom_bond_atom_site_label_2
_geom_bond_distance
_geom_bond_site_symmetry_2
Fe0 O6 1.985356 1_555
Fe0 O26 2.003845 1_555
Fe0 O13 2.013376 1_555
Fe0 O16 2.029058 1_555
Fe0 O23 2.049926 1_555
Fe0 O0 2.066630 1_555
Fe1 O11 1.990267 1_555
Fe1 O19 2.002906 1_555
Fe1 O3 2.011039 1_555
Fe1 O7 2.039606 1_555
Fe1 O22 2.051901 1_555
Fe1 O9 2.057086 1_555
Fe2 O12 1.940111 1_555
Fe2 O20 1.957232 1_554
Fe2 O4 1.972869 1_554
Fe2 O5 1.992169 1_655
Fe2 O24 1.992351 1_555
Fe2 O9 2.524248 1_555
Fe3 O10 1.940388 1_555
Fe3 O8 1.957010 1_556
Fe3 O1 1.974455 1_556
Fe3 O14 1.994583 1_455
Fe3 O21 1.994693 1_555
Fe3 O0 2.490069 1_555
O0 P0 1.552871 1_555
O1 P7 1.524116 1_555
O2 P3 1.609785 1_555
O2 P2 1.613463 1_555
O3 P6 1.527059 1_555
O4 P4 1.524158 1_555
O5 P6 1.526363 1_555
O6 P4 1.520098 1_545
O7 P0 1.518776 1_555
O8 P1 1.525229 1_555
O9 P3 1.549947 1_555
O10 P4 1.530428 1_545
O11 P7 1.518864 1_565
O12 P7 1.529593 1_565
O13 P2 1.527660 1_555
O14 P2 1.528440 1_555
O15 P1 1.607324 1_655
O15 P7 1.619343 1_555
O16 P3 1.520813 1_555
O17 P5 1.605364 1_455
O17 P4 1.618145 1_555
O18 P0 1.609352 1_555
O18 P6 1.613216 1_555
O19 P5 1.519188 1_555
O20 P5 1.524877 1_555
O21 P0 1.538146 1_555
O22 P6 1.527825 1_655
O23 P2 1.529096 1_455
O24 P3 1.537668 1_555
O25 P5 1.539663 1_455
O26 P1 1.516173 1_555
O27 P1 1.539914 1_655
