# generated using pymatgen
data_U2Te3
_symmetry_space_group_name_H-M   'P 1'
_cell_length_a   15.30985131
_cell_length_b   15.30985131
_cell_length_c   15.30985131
_cell_angle_alpha   145.00935539
_cell_angle_beta   145.00935539
_cell_angle_gamma   50.32058299
_symmetry_Int_Tables_number   1
_chemical_formula_structural   U2Te3
_chemical_formula_sum   'U16 Te24'
_cell_volume   1174.19077065
_cell_formula_units_Z   8
loop_
 _symmetry_equiv_pos_site_id
 _symmetry_equiv_pos_as_xyz
  1  'x, y, z'
loop_
 _atom_site_type_symbol
 _atom_site_label
 _atom_site_symmetry_multiplicity
 _atom_site_fract_x
 _atom_site_fract_y
 _atom_site_fract_z
 _atom_site_occupancy
  U  U0  1  0.71069400  0.58490900  0.37929400  1
  U  U1  1  0.41799500  0.91799500  0.50000000  1
  U  U2  1  0.75334300  0.12500000  0.12834300  1
  U  U3  1  0.54438500  0.66509100  0.62578500  1
  U  U4  1  0.33200500  0.33200500  0.00000000  1
  U  U5  1  0.99665700  0.62500000  0.87165700  1
  U  U6  1  0.03930600  0.91860000  0.37421500  1
  U  U7  1  0.08140000  0.45561500  0.12070600  1
  U  U8  1  0.87500000  0.00334300  0.62834300  1
  U  U9  1  0.66799500  0.66799500  0.00000000  1
  U  U10  1  0.33490900  0.96069400  0.87929400  1
  U  U11  1  0.37500000  0.24665700  0.37165700  1
  U  U12  1  0.08200500  0.58200500  0.50000000  1
  U  U13  1  0.41509100  0.79438500  0.12578500  1
  U  U14  1  0.20561500  0.33140000  0.62070600  1
  U  U15  1  0.66860000  0.28930600  0.87421500  1
  Te  Te0  1  0.35391200  0.60433200  0.09351700  1
  Te  Te1  1  0.07369700  0.97604300  0.25021900  1
  Te  Te2  1  0.51081500  0.26039400  0.90648300  1
  Te  Te3  1  0.39608800  0.98960600  0.75042100  1
  Te  Te4  1  0.23918500  0.64566800  0.24957900  1
  Te  Te5  1  0.02417600  0.27395700  0.59765400  1
  Te  Te6  1  0.72582400  0.82347800  0.74978100  1
  Te  Te7  1  0.68596800  0.93995000  0.09456600  1
  Te  Te8  1  0.67630300  0.42652200  0.40234600  1
  Te  Te9  1  0.40859800  0.31403200  0.25398200  1
  Te  Te10  1  0.84538400  0.59140200  0.90543400  1
  Te  Te11  1  0.72604300  0.32369700  0.75021900  1
  Te  Te12  1  0.57347800  0.97582400  0.24978100  1
  Te  Te13  1  0.35433200  0.60391200  0.59351700  1
  Te  Te14  1  0.06005000  0.15461600  0.74601800  1
  Te  Te15  1  0.02395700  0.27417600  0.09765400  1
  Te  Te16  1  0.01039400  0.76081500  0.40648300  1
  Te  Te17  1  0.73960600  0.64608800  0.25042100  1
  Te  Te18  1  0.17652200  0.92630300  0.90234600  1
  Te  Te19  1  0.06403200  0.65859800  0.75398200  1
  Te  Te20  1  0.90461600  0.31005000  0.24601800  1
  Te  Te21  1  0.68995000  0.93596800  0.59456600  1
  Te  Te22  1  0.39566800  0.48918500  0.74957900  1
  Te  Te23  1  0.34140200  0.09538400  0.40543400  1
loop_
_geom_bond_atom_site_label_1
_geom_bond_atom_site_label_2
_geom_bond_distance
_geom_bond_site_symmetry_2
Te0 U1 3.130163 1_555
Te0 U13 3.155062 1_555
Te0 U0 3.157094 1_555
Te0 U14 3.261942 1_554
Te0 U5 3.265580 1_454
Te0 U4 3.280781 1_555
Te1 U6 3.101435 1_555
Te1 U5 3.118231 1_454
Te1 U1 3.123655 1_555
Te1 U2 3.229819 1_465
Te1 U14 3.248022 1_565
Te2 U1 3.130158 1_545
Te2 U15 3.155074 1_555
Te2 U14 3.157102 1_555
Te2 U0 3.261946 1_556
Te2 U2 3.265569 1_556
Te2 U4 3.280772 1_556
Te3 U4 3.130154 1_566
Te3 U10 3.155060 1_555
Te3 U6 3.157095 1_555
Te3 U3 3.261950 1_555
Te3 U2 3.265578 1_566
Te3 U1 3.280785 1_555
Te4 U4 3.130158 1_555
Te4 U7 3.155074 1_555
Te4 U3 3.157102 1_555
Te4 U6 3.261946 1_555
Te4 U5 3.265569 1_454
Te4 U1 3.280772 1_555
Te5 U14 3.101435 1_555
Te5 U5 3.118231 1_455
Te5 U4 3.123655 1_556
Te5 U2 3.229819 1_455
Te5 U6 3.248022 1_545
Te6 U3 3.101435 1_555
Te6 U2 3.118231 1_566
Te6 U1 3.123655 1_555
Te6 U5 3.229819 1_555
Te6 U0 3.248022 1_555
Te7 U6 3.128464 1_655
Te7 U2 3.132907 1_565
Te7 U10 3.218937 1_554
Te7 U9 3.231210 1_555
Te7 U3 3.254078 1_554
Te8 U0 3.101435 1_555
Te8 U2 3.118231 1_555
Te8 U4 3.123655 1_555
Te8 U5 3.229819 1_555
Te8 U3 3.248022 1_555
Te9 U10 3.128464 1_544
Te9 U11 3.132907 1_555
Te9 U3 3.218937 1_555
Te9 U4 3.231210 1_555
Te9 U7 3.254078 1_555
Te10 U3 3.128464 1_555
Te10 U5 3.132907 1_555
Te10 U7 3.218937 1_656
Te10 U9 3.231210 1_556
Te10 U6 3.254078 1_656
Te11 U15 3.101435 1_555
Te11 U11 3.118231 1_555
Te11 U9 3.123655 1_556
Te11 U8 3.229819 1_555
Te11 U7 3.248022 1_656
Te12 U13 3.101435 1_555
Te12 U8 3.118231 1_565
Te12 U9 3.123655 1_555
Te12 U11 3.229819 1_565
Te12 U10 3.248022 1_554
Te13 U9 3.130163 1_556
Te13 U3 3.155062 1_555
Te13 U10 3.157094 1_555
Te13 U7 3.261942 1_555
Te13 U11 3.265580 1_555
Te13 U12 3.280781 1_555
Te14 U7 3.128464 1_556
Te14 U8 3.132907 1_455
Te14 U6 3.218937 1_545
Te14 U4 3.231210 1_556
Te14 U10 3.254078 1_545
Te15 U7 3.101435 1_555
Te15 U11 3.118231 1_555
Te15 U12 3.123655 1_555
Te15 U8 3.229819 1_454
Te15 U15 3.248022 1_454
Te16 U9 3.130158 1_455
Te16 U6 3.155074 1_555
Te16 U7 3.157102 1_555
Te16 U10 3.261946 1_555
Te16 U8 3.265569 1_465
Te16 U12 3.280772 1_555
Te17 U12 3.130154 1_655
Te17 U0 3.155060 1_555
Te17 U15 3.157095 1_554
Te17 U13 3.261950 1_555
Te17 U8 3.265578 1_565
Te17 U9 3.280785 1_555
Te18 U10 3.101435 1_555
Te18 U8 3.118231 1_465
Te18 U12 3.123655 1_555
Te18 U11 3.229819 1_566
Te18 U13 3.248022 1_556
Te19 U0 3.128464 1_455
Te19 U5 3.132907 1_455
Te19 U13 3.218937 1_556
Te19 U12 3.231210 1_555
Te19 U14 3.254078 1_555
Te20 U14 3.128464 1_655
Te20 U2 3.132907 1_555
Te20 U15 3.218937 1_554
Te20 U12 3.231210 1_655
Te20 U0 3.254078 1_555
Te21 U15 3.128464 1_565
Te21 U8 3.132907 1_565
Te21 U0 3.218937 1_555
Te21 U1 3.231210 1_555
Te21 U13 3.254078 1_555
Te22 U12 3.130158 1_555
Te22 U14 3.155074 1_555
Te22 U13 3.157102 1_556
Te22 U15 3.261946 1_555
Te22 U11 3.265569 1_555
Te22 U9 3.280772 1_556
Te23 U13 3.128464 1_545
Te23 U11 3.132907 1_555
Te23 U14 3.218937 1_555
Te23 U1 3.231210 1_545
Te23 U15 3.254078 1_555
