# generated using pymatgen
data_Fe3O4
_symmetry_space_group_name_H-M   'P 1'
_cell_length_a   6.43263524
_cell_length_b   6.43263524
_cell_length_c   6.43263524
_cell_angle_alpha   60.00000000
_cell_angle_beta   60.00000000
_cell_angle_gamma   60.00000000
_symmetry_Int_Tables_number   1
_chemical_formula_structural   Fe3O4
_chemical_formula_sum   'Fe6 O8'
_cell_volume   188.21393700
_cell_formula_units_Z   2
loop_
 _symmetry_equiv_pos_site_id
 _symmetry_equiv_pos_as_xyz
  1  'x, y, z'
loop_
 _atom_site_type_symbol
 _atom_site_label
 _atom_site_symmetry_multiplicity
 _atom_site_fract_x
 _atom_site_fract_y
 _atom_site_fract_z
 _atom_site_occupancy
  Fe  Fe0  1  0.75000000  0.75000000  0.75000000  1
  Fe  Fe1  1  0.25000000  0.25000000  0.25000000  1
  Fe  Fe2  1  0.10386900  0.10386900  0.10386900  1
  Fe  Fe3  1  0.68839300  0.10386900  0.10386900  1
  Fe  Fe4  1  0.10386900  0.10386900  0.68839300  1
  Fe  Fe5  1  0.10386900  0.68839300  0.10386900  1
  O  O0  1  0.36008700  0.36008700  0.36008700  1
  O  O1  1  0.36008700  0.91973800  0.36008700  1
  O  O2  1  0.36008700  0.36008700  0.91973800  1
  O  O3  1  0.91973800  0.36008700  0.36008700  1
  O  O4  1  0.36670700  0.87776400  0.87776400  1
  O  O5  1  0.87776400  0.87776400  0.87776400  1
  O  O6  1  0.87776400  0.36670700  0.87776400  1
  O  O7  1  0.87776400  0.87776400  0.36670700  1
loop_
_geom_bond_atom_site_label_1
_geom_bond_atom_site_label_2
_geom_bond_distance
_geom_bond_site_symmetry_2
Fe0 O5 2.013136 1_555
Fe0 O7 2.013141 1_555
Fe0 O6 2.013141 1_555
Fe0 O4 2.013141 1_555
Fe1 O0 1.734605 1_555
Fe1 O3 1.734610 1_455
Fe1 O2 1.734610 1_554
Fe1 O1 1.734610 1_545
Fe2 O4 2.070432 1_544
Fe2 O6 2.070432 1_454
Fe2 O7 2.070432 1_445
Fe2 O1 2.376525 1_545
Fe2 O2 2.376525 1_554
Fe2 O3 2.376525 1_455
Fe3 O7 2.070428 1_545
Fe3 O6 2.070428 1_554
Fe3 O5 2.070433 1_544
Fe3 O0 2.376526 1_555
Fe3 O2 2.376530 1_554
Fe3 O1 2.376530 1_545
Fe4 O4 2.070428 1_545
Fe4 O6 2.070428 1_455
Fe4 O5 2.070433 1_445
Fe4 O0 2.376526 1_555
Fe4 O1 2.376530 1_545
Fe4 O3 2.376530 1_455
Fe5 O7 2.070428 1_455
Fe5 O4 2.070428 1_554
Fe5 O5 2.070433 1_454
Fe5 O0 2.376526 1_555
Fe5 O2 2.376530 1_554
Fe5 O3 2.376530 1_455
