# generated using pymatgen
data_Li2HN
_symmetry_space_group_name_H-M   'P 1'
_cell_length_a   7.12447201
_cell_length_b   7.12447201
_cell_length_c   7.12447201
_cell_angle_alpha   120.22684461
_cell_angle_beta   119.94977385
_cell_angle_gamma   89.84727980
_symmetry_Int_Tables_number   1
_chemical_formula_structural   Li2HN
_chemical_formula_sum   'Li16 H8 N8'
_cell_volume   255.36308716
_cell_formula_units_Z   8
loop_
 _symmetry_equiv_pos_site_id
 _symmetry_equiv_pos_as_xyz
  1  'x, y, z'
loop_
 _atom_site_type_symbol
 _atom_site_label
 _atom_site_symmetry_multiplicity
 _atom_site_fract_x
 _atom_site_fract_y
 _atom_site_fract_z
 _atom_site_occupancy
  Li  Li0  1  0.36721100  0.11721100  0.25000000  1
  Li  Li1  1  0.63278900  0.88278900  0.75000000  1
  Li  Li2  1  0.87356300  0.62356300  0.25000000  1
  Li  Li3  1  0.12643700  0.37643700  0.75000000  1
  Li  Li4  1  0.64413100  0.39413100  0.25000000  1
  Li  Li5  1  0.35586900  0.60586900  0.75000000  1
  Li  Li6  1  0.50000000  0.00000000  0.00000000  1
  Li  Li7  1  0.50000000  0.50000000  0.50000000  1
  Li  Li8  1  0.89200900  0.15115400  0.27427100  1
  Li  Li9  1  0.10799100  0.38226100  0.25914500  1
  Li  Li10  1  0.37688400  0.15115400  0.75914500  1
  Li  Li11  1  0.62311600  0.38226100  0.77427100  1
  Li  Li12  1  0.62311600  0.84884600  0.24085500  1
  Li  Li13  1  0.37688400  0.61773900  0.22572900  1
  Li  Li14  1  0.10799100  0.84884600  0.72572900  1
  Li  Li15  1  0.89200900  0.61773900  0.74085500  1
  H  H0  1  0.19947900  0.80852000  0.10904100  1
  H  H1  1  0.80052100  0.90956300  0.60904100  1
  H  H2  1  0.19947900  0.09043700  0.39095900  1
  H  H3  1  0.80052100  0.19148000  0.89095900  1
  H  H4  1  0.88729500  0.80543200  0.08186300  1
  H  H5  1  0.11270500  0.19456800  0.91813700  1
  H  H6  1  0.22356900  0.80543200  0.41813700  1
  H  H7  1  0.77643100  0.19456800  0.58186300  1
  N  N0  1  0.74129900  0.73111900  0.48982100  1
  N  N1  1  0.25870100  0.74852200  0.98982100  1
  N  N2  1  0.74129900  0.25147800  0.01017900  1
  N  N3  1  0.25870100  0.26888100  0.51017900  1
  N  N4  1  0.72860500  0.25938400  0.46922100  1
  N  N5  1  0.27139500  0.74061600  0.53077900  1
  N  N6  1  0.29016300  0.25938400  0.03077900  1
  N  N7  1  0.70983700  0.74061600  0.96922100  1
loop_
_geom_bond_atom_site_label_1
_geom_bond_atom_site_label_2
_geom_bond_distance
_geom_bond_site_symmetry_2
Li0 N4 2.121429 1_555
Li0 N6 2.121429 1_555
Li0 N1 2.147305 1_544
Li0 N3 2.147306 1_555
Li0 Li6 2.223837 1_555
Li0 Li7 2.223837 1_555
Li1 N5 2.121429 1_555
Li1 N7 2.121429 1_555
Li1 N2 2.147305 1_566
Li1 N0 2.147306 1_555
Li1 Li6 2.223837 1_566
Li1 Li7 2.223837 1_555
Li2 N2 2.163318 1_555
Li2 N0 2.163318 1_555
Li2 N7 2.324287 1_554
Li2 N5 2.324287 1_655
Li3 N1 2.163318 1_555
Li3 N3 2.163318 1_555
Li3 N6 2.324287 1_556
Li3 N4 2.324287 1_455
Li4 N0 1.964770 1_555
Li4 N2 1.964776 1_555
Li4 N6 2.071508 1_555
Li4 N4 2.071508 1_555
Li4 Li6 2.294590 1_555
Li4 Li7 2.294590 1_555
Li5 N3 1.964770 1_555
Li5 N1 1.964776 1_555
Li5 N7 2.071508 1_555
Li5 N5 2.071508 1_555
Li5 Li6 2.294590 1_566
Li5 Li7 2.294590 1_555
Li6 Li8 2.286107 1_555
Li6 N4 2.366991 1_555
Li6 N6 2.366991 1_555
Li6 N7 2.366991 1_544
Li6 N5 2.366991 1_544
Li6 N1 2.435525 1_544
Li6 N2 2.435525 1_555
Li7 Li9 2.286106 1_555
Li7 N5 2.366991 1_555
Li7 N4 2.366991 1_555
Li7 N7 2.366991 1_555
Li7 N6 2.366991 1_555
Li7 N3 2.435520 1_555
Li7 N0 2.435520 1_555
Li8 N4 2.100077 1_555
Li8 N2 2.129940 1_555
Li8 N3 2.135776 1_655
Li9 N5 2.100083 1_555
Li9 N3 2.129929 1_555
Li9 N2 2.135776 1_455
Li10 N6 2.100083 1_556
Li10 N2 2.129935 1_556
Li10 N3 2.135782 1_555
Li10 Li6 2.286106 1_556
Li11 N7 2.100084 1_555
Li11 N3 2.129936 1_555
Li11 N2 2.135770 1_556
Li11 Li7 2.286112 1_555
Li12 N7 2.100083 1_554
Li12 N1 2.129935 1_554
Li12 N0 2.135782 1_555
Li12 Li6 2.286106 1_565
Li13 N6 2.100084 1_555
Li13 N0 2.129936 1_555
Li13 N1 2.135770 1_554
Li13 Li7 2.286112 1_555
Li14 N5 2.100077 1_555
Li14 N1 2.129940 1_555
Li14 N0 2.135776 1_455
Li14 Li6 2.286107 1_566
Li15 N4 2.100083 1_555
Li15 N0 2.129929 1_555
Li15 N1 2.135776 1_655
Li15 Li7 2.286106 1_555
H0 N1 1.036096 1_554
H0 Li0 1.966036 1_565
H0 Li13 2.053163 1_555
H0 Li15 2.053166 1_454
H1 N0 1.036108 1_555
H1 Li1 1.966039 1_555
H1 Li12 2.053163 1_555
H1 Li14 2.053169 1_655
H2 N3 1.036108 1_555
H2 Li0 1.966039 1_555
H2 Li10 2.053163 1_555
H2 Li8 2.053169 1_455
H3 N2 1.036096 1_556
H3 Li1 1.966036 1_545
H3 Li11 2.053163 1_555
H3 Li9 2.053166 1_656
H4 N7 1.035677 1_554
H4 Li15 2.121783 1_554
H4 Li8 2.121783 1_565
H4 Li2 2.191768 1_555
H5 N6 1.035677 1_556
H5 Li9 2.121783 1_556
H5 Li14 2.121783 1_545
H5 Li3 2.191768 1_555
H6 N5 1.035677 1_555
H6 Li10 2.121783 1_565
H6 Li13 2.121787 1_555
H6 Li2 2.191768 1_455
H7 N4 1.035677 1_555
H7 Li12 2.121783 1_545
H7 Li11 2.121787 1_555
H7 Li3 2.191768 1_655
