# generated using pymatgen
data_Li11TiAs5
_symmetry_space_group_name_H-M   'P 1'
_cell_length_a   7.42247606
_cell_length_b   7.42247606
_cell_length_c   10.60160110
_cell_angle_alpha   63.42659420
_cell_angle_beta   63.42659420
_cell_angle_gamma   33.25930391
_symmetry_Int_Tables_number   1
_chemical_formula_structural   Li11TiAs5
_chemical_formula_sum   'Li11 Ti1 As5'
_cell_volume   283.27065869
_cell_formula_units_Z   1
loop_
 _symmetry_equiv_pos_site_id
 _symmetry_equiv_pos_as_xyz
  1  'x, y, z'
loop_
 _atom_site_type_symbol
 _atom_site_label
 _atom_site_symmetry_multiplicity
 _atom_site_fract_x
 _atom_site_fract_y
 _atom_site_fract_z
 _atom_site_occupancy
  Li  Li0  1  0.80164400  0.80164400  0.07708900  1
  Li  Li1  1  0.39822200  0.39822200  0.15207700  1
  Li  Li2  1  0.39230000  0.39230000  0.65147300  1
  Li  Li3  1  0.39615900  0.39615900  0.90279900  1
  Li  Li4  1  0.01034500  0.01034500  0.74390700  1
  Li  Li5  1  0.98008300  0.98008300  0.25985200  1
  Li  Li6  1  0.58326900  0.58326900  0.35932500  1
  Li  Li7  1  0.61673500  0.61673500  0.83093900  1
  Li  Li8  1  0.60633600  0.60633600  0.08118100  1
  Li  Li9  1  0.20367900  0.20367900  0.92215000  1
  Li  Li10  1  0.80506200  0.80506200  0.56502200  1
  Ti  Ti0  1  0.20333100  0.20333100  0.44149700  1
  As  As0  1  0.00488400  0.00488400  0.99700000  1
  As  As1  1  0.61176900  0.61176900  0.58071400  1
  As  As2  1  0.19140700  0.19140700  0.21515500  1
  As  As3  1  0.80918600  0.80918600  0.81666300  1
  As  As4  1  0.38558800  0.38558800  0.40315600  1
loop_
_geom_bond_atom_site_label_1
_geom_bond_atom_site_label_2
_geom_bond_distance
_geom_bond_site_symmetry_2
Li0 Li8 2.758085 1_555
Li1 Li8 2.692644 1_555
Li5 Li8 2.854633 1_655
Li5 Li8 2.854633 1_565
Li6 Li8 2.810605 1_555
Li7 Li8 2.587217 1_556
Li8 Li9 2.663107 1_654
Li8 Li9 2.663107 1_564
As0 Li9 2.555434 1_555
As0 Li0 2.605046 1_446
As0 Li5 2.640447 1_446
As0 Li4 2.647817 1_555
As0 Li1 2.681026 1_546
As0 Li1 2.681026 1_456
As0 Li7 2.743623 1_455
As0 Li7 2.743623 1_545
As0 Li8 2.931490 1_546
As0 Li8 2.931490 1_456
As0 Li3 3.056699 1_545
As0 Li3 3.056699 1_455
As1 Li6 2.561551 1_555
As1 Ti0 2.567470 1_655
As1 Ti0 2.567470 1_565
As1 Li10 2.675789 1_555
As1 Li7 2.686490 1_555
As1 Li4 2.693728 1_565
As1 Li4 2.693728 1_655
As1 Li2 2.849800 1_555
As2 Ti0 2.483306 1_555
As2 Li0 2.640132 1_545
As2 Li0 2.640132 1_455
As2 Li6 2.649349 1_455
As2 Li6 2.649349 1_545
As2 Li1 2.695217 1_555
As2 Li5 2.816006 1_445
As2 Li9 3.028763 1_554
As2 Li8 3.098163 1_455
As2 Li8 3.098163 1_545
As3 Li9 2.539285 1_565
As3 Li9 2.539285 1_655
As3 Li4 2.592527 1_665
As3 Li2 2.653980 1_655
As3 Li2 2.653980 1_565
As3 Li7 2.670130 1_555
As3 Li10 2.695683 1_555
As3 Li0 2.712507 1_556
As3 Li3 2.816273 1_565
As3 Li3 2.816273 1_655
As3 Li8 2.938386 1_556
As4 Ti0 2.429402 1_555
As4 Li1 2.582833 1_555
As4 Li5 2.592338 1_455
As4 Li5 2.592338 1_545
As4 Li6 2.627216 1_555
As4 Li10 2.633178 1_455
As4 Li10 2.633178 1_545
As4 Li2 2.678462 1_555
