# generated using pymatgen
data_NdFeAsO
_symmetry_space_group_name_H-M   'P 1'
_cell_length_a   4.07465300
_cell_length_b   4.07465300
_cell_length_c   9.17096700
_cell_angle_alpha   90.00000000
_cell_angle_beta   90.00000000
_cell_angle_gamma   90.00000000
_symmetry_Int_Tables_number   1
_chemical_formula_structural   NdFeAsO
_chemical_formula_sum   'Nd2 Fe2 As2 O2'
_cell_volume   152.26370404
_cell_formula_units_Z   2
loop_
 _symmetry_equiv_pos_site_id
 _symmetry_equiv_pos_as_xyz
  1  'x, y, z'
loop_
 _atom_site_type_symbol
 _atom_site_label
 _atom_site_symmetry_multiplicity
 _atom_site_fract_x
 _atom_site_fract_y
 _atom_site_fract_z
 _atom_site_occupancy
  Nd  Nd0  1  0.00000000  0.50000000  0.87281400  1
  Nd  Nd1  1  0.50000000  0.00000000  0.12718600  1
  Fe  Fe0  1  0.50000000  0.50000000  0.50000000  1
  Fe  Fe1  1  0.00000000  0.00000000  0.50000000  1
  As  As0  1  0.50000000  0.00000000  0.67943200  1
  As  As1  1  0.00000000  0.50000000  0.32056800  1
  O  O0  1  0.50000000  0.50000000  0.00000000  1
  O  O1  1  0.00000000  0.00000000  0.00000000  1
loop_
_geom_bond_atom_site_label_1
_geom_bond_atom_site_label_2
_geom_bond_distance
_geom_bond_site_symmetry_2
Nd0 O0 2.347601 1_456
Nd0 O0 2.347601 1_556
Nd0 O1 2.347601 1_566
Nd0 O1 2.347601 1_556
Nd1 O0 2.347601 1_545
Nd1 O1 2.347601 1_555
Nd1 O0 2.347601 1_555
Nd1 O1 2.347601 1_655
As0 Fe1 2.618890 1_555
As0 Fe1 2.618890 1_655
As0 Fe0 2.618890 1_545
As0 Fe0 2.618890 1_555
As0 Nd0 3.383297 1_655
As0 Nd0 3.383297 1_645
As0 Nd0 3.383297 1_555
As0 Nd0 3.383297 1_545
As1 Fe0 2.618890 1_455
As1 Fe0 2.618890 1_555
As1 Fe1 2.618890 1_555
As1 Fe1 2.618890 1_565
As1 Nd1 3.383297 1_465
As1 Nd1 3.383297 1_455
As1 Nd1 3.383297 1_565
As1 Nd1 3.383297 1_555
