# generated using pymatgen
data_Ca4MgAl3
_symmetry_space_group_name_H-M   'P 1'
_cell_length_a   5.85645151
_cell_length_b   6.17501313
_cell_length_c   24.25304459
_cell_angle_alpha   90.00000000
_cell_angle_beta   90.00000000
_cell_angle_gamma   90.00000000
_symmetry_Int_Tables_number   1
_chemical_formula_structural   Ca4MgAl3
_chemical_formula_sum   'Ca16 Mg4 Al12'
_cell_volume   877.07897904
_cell_formula_units_Z   4
loop_
 _symmetry_equiv_pos_site_id
 _symmetry_equiv_pos_as_xyz
  1  'x, y, z'
loop_
 _atom_site_type_symbol
 _atom_site_label
 _atom_site_symmetry_multiplicity
 _atom_site_fract_x
 _atom_site_fract_y
 _atom_site_fract_z
 _atom_site_occupancy
  Ca  Ca0  1  0.75000000  0.68608961  0.28985018  1
  Ca  Ca1  1  0.25000000  0.31391039  0.71014982  1
  Ca  Ca2  1  0.25000000  0.24349374  0.12374107  1
  Ca  Ca3  1  0.25000000  0.91976600  0.35741935  1
  Ca  Ca4  1  0.75000000  0.24349374  0.37625893  1
  Ca  Ca5  1  0.25000000  0.08023400  0.85741935  1
  Ca  Ca6  1  0.25000000  0.50341779  0.95381296  1
  Ca  Ca7  1  0.75000000  0.50341779  0.54618704  1
  Ca  Ca8  1  0.75000000  0.08023400  0.64258065  1
  Ca  Ca9  1  0.75000000  0.49658221  0.04618704  1
  Ca  Ca10  1  0.25000000  0.68608961  0.21014982  1
  Ca  Ca11  1  0.25000000  0.49658221  0.45381296  1
  Ca  Ca12  1  0.25000000  0.75650626  0.62374107  1
  Ca  Ca13  1  0.75000000  0.31391039  0.78985018  1
  Ca  Ca14  1  0.75000000  0.91976600  0.14258065  1
  Ca  Ca15  1  0.75000000  0.75650626  0.87625893  1
  Mg  Mg0  1  -0.00000000  0.00000000  -0.00000000  1
  Mg  Mg1  1  0.50000000  0.00000000  -0.00000000  1
  Mg  Mg2  1  0.50000000  0.00000000  0.50000000  1
  Mg  Mg3  1  -0.00000000  0.00000000  0.50000000  1
  Al  Al0  1  0.00000000  0.83093714  0.75000000  1
  Al  Al1  1  0.75000000  0.25419303  0.92455454  1
  Al  Al2  1  0.25000000  0.74580697  0.07544546  1
  Al  Al3  1  0.75000000  0.74580697  0.42455454  1
  Al  Al4  1  -0.00000000  0.16906286  0.25000000  1
  Al  Al5  1  0.50000000  0.16906286  0.25000000  1
  Al  Al6  1  0.50000000  0.83093714  0.75000000  1
  Al  Al7  1  0.25000000  0.58779063  0.82251478  1
  Al  Al8  1  0.75000000  0.58779063  0.67748522  1
  Al  Al9  1  0.25000000  0.41220937  0.32251478  1
  Al  Al10  1  0.75000000  0.41220937  0.17748522  1
  Al  Al11  1  0.25000000  0.25419303  0.57544546  1
loop_
_geom_bond_atom_site_label_1
_geom_bond_atom_site_label_2
_geom_bond_distance
_geom_bond_site_symmetry_2
Al0 Al7 2.736963 1_555
Al0 Al8 2.736963 1_455
Al0 Al6 2.928226 1_555
Al0 Al6 2.928226 1_455
Al0 Ca8 3.361655 1_465
Al0 Ca5 3.361655 1_565
Al0 Ca15 3.425159 1_455
Al0 Ca12 3.425159 1_555
Al0 Ca1 3.460092 1_565
Al0 Ca13 3.460092 1_465
Al0 Ca1 3.642900 1_555
Al0 Ca13 3.642900 1_455
Al1 Mg1 2.820552 1_556
Al1 Mg0 2.820552 1_656
Al1 Ca13 3.287736 1_555
Al1 Ca15 3.288871 1_545
Al1 Ca9 3.307950 1_556
Al1 Ca15 3.315582 1_555
Al1 Ca6 3.383262 1_555
Al1 Ca6 3.383262 1_655
Al1 Ca5 3.518459 1_555
Al1 Ca5 3.518459 1_655
Al2 Mg1 2.820552 1_565
Al2 Mg0 2.820552 1_565
Al2 Ca10 3.287736 1_555
Al2 Ca2 3.288871 1_565
Al2 Ca6 3.307950 1_554
Al2 Ca2 3.315582 1_555
Al2 Ca9 3.383262 1_555
Al2 Ca9 3.383262 1_455
Al2 Ca14 3.518459 1_455
Al2 Ca14 3.518459 1_555
Al3 Mg3 2.820552 1_665
Al3 Mg2 2.820552 1_565
Al3 Ca0 3.287736 1_555
Al3 Ca4 3.288871 1_565
Al3 Ca7 3.307950 1_555
Al3 Ca4 3.315582 1_555
Al3 Ca11 3.383262 1_555
Al3 Ca11 3.383262 1_655
Al3 Ca3 3.518459 1_655
Al3 Ca3 3.518459 1_555
Al4 Al9 2.736963 1_555
Al4 Al5 2.928226 1_555
Al4 Al5 2.928226 1_455
Al4 Ca14 3.361655 1_445
Al4 Ca3 3.361655 1_545
Al4 Ca2 3.425159 1_555
Al4 Ca4 3.425159 1_455
Al4 Ca0 3.460092 1_445
Al4 Ca10 3.460092 1_545
Al4 Ca10 3.642900 1_555
Al4 Ca0 3.642900 1_455
Al5 Al9 2.736963 1_555
Al5 Ca14 3.361655 1_545
Al5 Ca3 3.361655 1_545
Al5 Ca2 3.425159 1_555
Al5 Ca4 3.425159 1_555
Al5 Ca10 3.460092 1_545
Al5 Ca0 3.460092 1_545
Al5 Ca0 3.642900 1_555
Al5 Ca10 3.642900 1_555
Al6 Al7 2.736963 1_555
Al6 Al8 2.736963 1_555
Al6 Ca8 3.361655 1_565
Al6 Ca5 3.361655 1_565
Al6 Ca15 3.425159 1_555
Al6 Ca12 3.425159 1_555
Al6 Ca1 3.460092 1_565
Al6 Ca13 3.460092 1_565
Al6 Ca1 3.642900 1_555
Al6 Ca13 3.642900 1_555
Al7 Ca5 3.156480 1_565
Al7 Ca1 3.207316 1_555
Al7 Ca6 3.226720 1_555
Al7 Ca5 3.246482 1_555
Al7 Ca15 3.370297 1_455
Al7 Ca15 3.370297 1_555
Al7 Ca13 3.473085 1_455
Al7 Ca13 3.473085 1_555
Al8 Ca8 3.156480 1_565
Al8 Ca13 3.207316 1_555
Al8 Ca7 3.226720 1_555
Al8 Ca8 3.246482 1_555
Al8 Ca12 3.370297 1_555
Al8 Ca12 3.370297 1_655
Al8 Ca1 3.473085 1_555
Al8 Ca1 3.473085 1_655
Al9 Ca3 3.156480 1_545
Al9 Ca10 3.207316 1_555
Al9 Ca11 3.226720 1_555
Al9 Ca3 3.246482 1_555
Al9 Ca4 3.370297 1_455
Al9 Ca4 3.370297 1_555
Al9 Ca0 3.473085 1_455
Al9 Ca0 3.473085 1_555
Al10 Al4 2.736963 1_655
Al10 Al5 2.736963 1_555
Al10 Ca14 3.156480 1_545
Al10 Ca0 3.207316 1_555
Al10 Ca9 3.226720 1_555
Al10 Ca14 3.246482 1_555
Al10 Ca2 3.370297 1_555
Al10 Ca2 3.370297 1_655
Al10 Ca10 3.473085 1_655
Al10 Ca10 3.473085 1_555
Al11 Mg2 2.820552 1_555
Al11 Mg3 2.820552 1_555
Al11 Ca1 3.287736 1_555
Al11 Ca12 3.288871 1_545
Al11 Ca11 3.307950 1_555
Al11 Ca12 3.315582 1_555
Al11 Ca7 3.383262 1_455
Al11 Ca7 3.383262 1_555
Al11 Ca8 3.518459 1_555
Al11 Ca8 3.518459 1_455
