# generated using pymatgen
data_Tl6PbI10
_symmetry_space_group_name_H-M   'P 1'
_cell_length_a   10.88990133
_cell_length_b   10.88990133
_cell_length_c   13.53067400
_cell_angle_alpha   90.00000000
_cell_angle_beta   90.00000000
_cell_angle_gamma   119.99999591
_symmetry_Int_Tables_number   1
_chemical_formula_structural   Tl6PbI10
_chemical_formula_sum   'Tl12 Pb2 I20'
_cell_volume   1389.62612236
_cell_formula_units_Z   2
loop_
 _symmetry_equiv_pos_site_id
 _symmetry_equiv_pos_as_xyz
  1  'x, y, z'
loop_
 _atom_site_type_symbol
 _atom_site_label
 _atom_site_symmetry_multiplicity
 _atom_site_fract_x
 _atom_site_fract_y
 _atom_site_fract_z
 _atom_site_occupancy
  Tl  Tl0  1  0.03058300  0.64073600  0.25113200  1
  Tl  Tl1  1  0.99968600  0.36796400  0.99981400  1
  Tl  Tl2  1  0.00031400  0.36827800  0.49981400  1
  Tl  Tl3  1  0.61015300  0.96941700  0.25113200  1
  Tl  Tl4  1  0.35926400  0.38984700  0.25113200  1
  Tl  Tl5  1  0.38984700  0.35926400  0.75113200  1
  Tl  Tl6  1  0.63172200  0.63203600  0.49981400  1
  Tl  Tl7  1  0.63203600  0.63172200  0.99981400  1
  Tl  Tl8  1  0.36827800  0.00031400  0.99981400  1
  Tl  Tl9  1  0.36796400  0.99968600  0.49981400  1
  Tl  Tl10  1  0.64073600  0.03058300  0.75113200  1
  Tl  Tl11  1  0.96941700  0.61015300  0.75113200  1
  Pb  Pb0  1  0.00000000  0.00000000  0.37780000  1
  Pb  Pb1  1  0.00000000  0.00000000  0.87780000  1
  I  I0  1  0.99992900  0.74307200  0.99956300  1
  I  I1  1  0.00007100  0.74314300  0.49956300  1
  I  I2  1  0.25597600  0.99971600  0.75277800  1
  I  I3  1  0.00028400  0.25626000  0.75277800  1
  I  I4  1  0.33333300  0.66666700  0.10330400  1
  I  I5  1  0.33333300  0.66666700  0.39627600  1
  I  I6  1  0.33333300  0.66666700  0.85871500  1
  I  I7  1  0.33333300  0.66666700  0.64204600  1
  I  I8  1  0.25692800  0.25685700  0.99956300  1
  I  I9  1  0.25685700  0.25692800  0.49956300  1
  I  I10  1  0.25626000  0.00028400  0.25277800  1
  I  I11  1  0.74374000  0.74402400  0.75277800  1
  I  I12  1  0.74402400  0.74374000  0.25277800  1
  I  I13  1  0.66666700  0.33333300  0.35871500  1
  I  I14  1  0.66666700  0.33333300  0.60330400  1
  I  I15  1  0.66666700  0.33333300  0.14204600  1
  I  I16  1  0.66666700  0.33333300  0.89627600  1
  I  I17  1  0.74307200  0.99992900  0.49956300  1
  I  I18  1  0.74314300  0.00007100  0.99956300  1
  I  I19  1  0.99971600  0.25597600  0.25277800  1
loop_
_geom_bond_atom_site_label_1
_geom_bond_atom_site_label_2
_geom_bond_distance
_geom_bond_site_symmetry_2
I0 Pb1 3.246624 1_665
I0 Tl7 3.558504 1_555
I0 Tl8 3.563839 1_665
I0 Tl11 3.608865 1_555
I0 Tl0 3.648551 1_656
I1 Pb0 3.246624 1_565
I1 Tl9 3.558504 1_555
I1 Tl6 3.563839 1_455
I1 Tl0 3.608865 1_555
I1 Tl11 3.648551 1_455
I2 Pb1 3.262009 1_565
I2 Tl5 3.427593 1_565
I2 Tl8 3.558151 1_565
I2 Tl9 3.633600 1_555
I3 Pb1 3.262009 1_555
I3 Tl10 3.427593 1_455
I3 Tl1 3.558151 1_455
I3 Tl2 3.633600 1_555
I4 I6 3.309454 1_554
I5 I7 3.325434 1_555
I6 I7 2.931678 1_555
I8 Pb1 3.246625 1_555
I8 Tl8 3.558504 1_555
I8 Tl1 3.563839 1_455
I8 Tl5 3.608865 1_555
I8 Tl4 3.648551 1_556
I9 Pb0 3.246625 1_555
I9 Tl2 3.558504 1_555
I9 Tl9 3.563839 1_545
I9 Tl4 3.608865 1_555
I9 Tl5 3.648551 1_555
I10 Pb0 3.262009 1_555
I10 Tl0 3.427593 1_545
I10 Tl9 3.558151 1_545
I10 Tl8 3.633600 1_554
I11 Pb1 3.262009 1_665
I11 Tl11 3.427593 1_555
I11 Tl7 3.558151 1_555
I11 Tl6 3.633600 1_555
I12 Pb0 3.262009 1_665
I12 Tl3 3.427593 1_555
I12 Tl6 3.558151 1_555
I12 Tl7 3.633600 1_554
I13 I15 2.931678 1_555
I13 I14 3.309454 1_555
I15 I16 3.325434 1_554
I17 Pb0 3.246624 1_665
I17 Tl6 3.558504 1_555
I17 Tl2 3.563839 1_665
I17 Tl3 3.608865 1_555
I17 Tl10 3.648551 1_565
I18 Pb1 3.246624 1_655
I18 Tl1 3.558504 1_555
I18 Tl7 3.563839 1_545
I18 Tl10 3.608865 1_555
I18 Tl3 3.648551 1_546
I19 Pb0 3.262009 1_655
I19 Tl4 3.427593 1_655
I19 Tl2 3.558151 1_655
I19 Tl1 3.633600 1_554
