# generated using pymatgen
data_GdFe5P3
_symmetry_space_group_name_H-M   'P 1'
_cell_length_a   3.67964025
_cell_length_b   10.45136378
_cell_length_c   11.99015979
_cell_angle_alpha   89.99646735
_cell_angle_beta   89.99999212
_cell_angle_gamma   90.00000277
_symmetry_Int_Tables_number   1
_chemical_formula_structural   GdFe5P3
_chemical_formula_sum   'Gd4 Fe20 P12'
_cell_volume   461.10867766
_cell_formula_units_Z   4
loop_
 _symmetry_equiv_pos_site_id
 _symmetry_equiv_pos_as_xyz
  1  'x, y, z'
loop_
 _atom_site_type_symbol
 _atom_site_label
 _atom_site_symmetry_multiplicity
 _atom_site_fract_x
 _atom_site_fract_y
 _atom_site_fract_z
 _atom_site_occupancy
  Gd  Gd0  1  0.24999930  0.91892042  0.20328989  1
  Gd  Gd1  1  0.74999935  0.41889125  0.29675872  1
  Gd  Gd2  1  0.24999914  0.58106236  0.70325138  1
  Gd  Gd3  1  0.74999914  0.08112871  0.79669848  1
  Fe  Fe0  1  0.25000061  0.87218495  0.70543089  1
  Fe  Fe1  1  0.24999843  0.09546950  0.99199366  1
  Fe  Fe2  1  0.74999746  0.78306276  0.82141621  1
  Fe  Fe3  1  0.74999819  0.90457231  0.00797552  1
  Fe  Fe4  1  0.74999844  0.59544187  0.50797651  1
  Fe  Fe5  1  0.75000631  0.29252718  0.01132083  1
  Fe  Fe6  1  0.74999873  0.53816764  0.06783336  1
  Fe  Fe7  1  0.74999761  0.71695227  0.32146719  1
  Fe  Fe8  1  0.24999742  0.28304299  0.67854476  1
  Fe  Fe9  1  0.25000059  0.62782896  0.20540050  1
  Fe  Fe10  1  0.24999822  0.40452153  0.49205979  1
  Fe  Fe11  1  0.25000659  0.70746463  0.98864245  1
  Fe  Fe12  1  0.75000601  0.20747346  0.51140574  1
  Fe  Fe13  1  0.24999808  0.21695126  0.17855785  1
  Fe  Fe14  1  0.25000791  0.79253354  0.48863481  1
  Fe  Fe15  1  0.24999887  0.03818326  0.43216435  1
  Fe  Fe16  1  0.74999890  0.96185308  0.56785836  1
  Fe  Fe17  1  0.75000092  0.12784104  0.29458521  1
  Fe  Fe18  1  0.75000048  0.37214015  0.79459030  1
  Fe  Fe19  1  0.24999878  0.46179323  0.93213791  1
  P  P0  1  0.25000050  0.23465744  0.37568044  1
  P  P1  1  0.74999861  0.57218142  0.88760073  1
  P  P2  1  0.75000046  0.73465441  0.12438739  1
  P  P3  1  0.74999934  0.09656663  0.09918545  1
  P  P4  1  0.24999892  0.42777213  0.11237833  1
  P  P5  1  0.24999946  0.59654407  0.40086027  1
  P  P6  1  0.75000063  0.76534986  0.62433148  1
  P  P7  1  0.24999932  0.90346779  0.90079760  1
  P  P8  1  0.74999905  0.92781099  0.38763852  1
  P  P9  1  0.25000038  0.26533825  0.87558789  1
  P  P10  1  0.74999921  0.40342028  0.59916390  1
  P  P11  1  0.24999862  0.07222938  0.61239333  1
loop_
_geom_bond_atom_site_label_1
_geom_bond_atom_site_label_2
_geom_bond_distance
_geom_bond_site_symmetry_2
Gd0 P2 2.826480 1_455
Gd0 P2 2.826486 1_555
Gd0 P8 2.877382 1_555
Gd0 P8 2.877383 1_455
Gd0 P3 2.896525 1_565
Gd0 P3 2.896525 1_465
Gd1 P0 2.826248 1_555
Gd1 P0 2.826254 1_655
Gd1 P4 2.877662 1_655
Gd1 P4 2.877664 1_555
Gd1 P5 2.896653 1_555
Gd1 P5 2.896654 1_655
Gd2 P6 2.826623 1_455
Gd2 P6 2.826630 1_555
Gd2 P1 2.877376 1_555
Gd2 P1 2.877378 1_455
Gd2 P10 2.896509 1_455
Gd2 P10 2.896509 1_555
Gd3 P9 2.826025 1_555
Gd3 P9 2.826031 1_655
Gd3 P11 2.876984 1_655
Gd3 P11 2.876987 1_555
Gd3 P7 2.896596 1_545
Gd3 P7 2.896597 1_645
Fe0 P6 2.361643 1_555
Fe0 P6 2.361643 1_455
Fe0 P7 2.365205 1_555
Fe0 P11 2.369665 1_565
Fe0 Gd2 3.042742 1_555
Fe0 Gd3 3.058020 1_565
Fe0 Gd3 3.058026 1_465
Fe1 P3 2.244308 1_456
Fe1 P3 2.244314 1_556
Fe1 P9 2.258239 1_555
Fe1 P7 2.285318 1_545
Fe1 Gd3 2.981715 1_455
Fe1 Gd3 2.981718 1_555
Fe1 Gd0 3.134104 1_546
Fe2 P1 2.342463 1_555
Fe2 P6 2.370329 1_555
Fe2 P7 2.423745 1_555
Fe2 P7 2.423755 1_655
Fe2 Gd3 3.129244 1_565
Fe2 Gd2 3.138428 1_555
Fe2 Gd2 3.138435 1_655
Fe3 P7 2.244213 1_554
Fe3 P7 2.244219 1_654
Fe3 P2 2.258688 1_555
Fe3 P3 2.285330 1_565
Fe3 Gd0 2.981898 1_555
Fe3 Gd0 2.981904 1_655
Fe3 Gd3 3.133963 1_564
Fe4 P5 2.243789 1_555
Fe4 P5 2.243794 1_655
Fe4 P6 2.258320 1_555
Fe4 P10 2.285332 1_555
Fe4 Gd2 2.981529 1_555
Fe4 Gd2 2.981533 1_655
Fe4 Gd1 3.133537 1_555
Fe5 P3 2.303074 1_555
Fe5 P9 2.472708 1_654
Fe5 P9 2.472741 1_554
Fe5 P4 2.617484 1_655
Fe5 P4 2.617522 1_555
Fe6 P2 2.162653 1_555
Fe6 P1 2.190041 1_554
Fe6 P4 2.236368 1_555
Fe6 P4 2.236369 1_655
Fe6 Gd1 3.014598 1_555
Fe7 P8 2.342279 1_555
Fe7 P2 2.370239 1_555
Fe7 P5 2.423756 1_555
Fe7 P5 2.423766 1_655
Fe7 Gd1 3.129218 1_555
Fe7 Gd0 3.138151 1_555
Fe7 Gd0 3.138158 1_655
Fe8 P11 2.341754 1_555
Fe8 P9 2.369802 1_555
Fe8 P10 2.423531 1_455
Fe8 P10 2.423541 1_555
Fe8 Gd2 3.128783 1_555
Fe8 Gd3 3.137644 1_455
Fe8 Gd3 3.137652 1_555
Fe9 P2 2.361112 1_555
Fe9 P2 2.361113 1_455
Fe9 P5 2.366273 1_555
Fe9 P4 2.369814 1_555
Fe9 Gd0 3.042406 1_555
Fe9 Gd1 3.058268 1_555
Fe9 Gd1 3.058273 1_455
Fe10 P10 2.243705 1_455
Fe10 P10 2.243711 1_555
Fe10 P0 2.258140 1_555
Fe10 P5 2.285411 1_555
Fe10 Gd1 2.981770 1_455
Fe10 Gd1 2.981775 1_555
Fe10 Gd2 3.133223 1_555
Fe11 P7 2.303361 1_555
Fe11 P2 2.472804 1_556
Fe11 P2 2.472837 1_456
Fe11 P1 2.617611 1_555
Fe11 P1 2.617652 1_455
Fe12 P10 2.302478 1_555
Fe12 P0 2.472620 1_655
Fe12 P0 2.472651 1_555
Fe12 P11 2.617010 1_655
Fe12 P11 2.617048 1_555
Fe13 P4 2.341848 1_555
Fe13 P0 2.370776 1_555
Fe13 P3 2.423593 1_455
Fe13 P3 2.423600 1_555
Fe13 Gd0 3.128894 1_545
Fe13 Gd1 3.138199 1_455
Fe13 Gd1 3.138205 1_555
Fe14 P5 2.302964 1_555
Fe14 P6 2.472389 1_555
Fe14 P6 2.472429 1_455
Fe14 P8 2.617243 1_555
Fe14 P8 2.617289 1_455
Fe15 P0 2.162185 1_555
Fe15 P11 2.190096 1_555
Fe15 P8 2.236222 1_445
Fe15 P8 2.236223 1_545
Fe15 Gd0 3.014124 1_545
Fe16 P6 2.162433 1_555
Fe16 P8 2.189981 1_555
Fe16 P11 2.236269 1_665
Fe16 P11 2.236271 1_565
Fe16 Gd3 3.013804 1_565
Fe17 P0 2.361529 1_655
Fe17 P0 2.361531 1_555
Fe17 P3 2.365585 1_555
Fe17 P8 2.369621 1_545
Fe17 Gd1 3.041985 1_555
Fe17 Gd0 3.057966 1_645
Fe17 Gd0 3.057973 1_545
Fe18 P9 2.360920 1_655
Fe18 P9 2.360920 1_555
Fe18 P10 2.365870 1_555
Fe18 P1 2.369604 1_555
Fe18 Gd3 3.041570 1_555
Fe18 Gd2 3.058069 1_655
Fe18 Gd2 3.058075 1_555
Fe19 P9 2.162322 1_555
Fe19 P4 2.190145 1_556
Fe19 P1 2.236306 1_555
Fe19 P1 2.236307 1_455
Fe19 Gd2 3.014143 1_555
