# generated using pymatgen
data_Ca2Fe3Sb(PO4)6
_symmetry_space_group_name_H-M   'P 1'
_cell_length_a   8.91176228
_cell_length_b   8.91176228
_cell_length_c   8.91176215
_cell_angle_alpha   58.22929467
_cell_angle_beta   58.22929467
_cell_angle_gamma   58.22929728
_symmetry_Int_Tables_number   1
_chemical_formula_structural   Ca2Fe3Sb(PO4)6
_chemical_formula_sum   'Ca2 Fe3 Sb1 P6 O24'
_cell_volume   480.16476758
_cell_formula_units_Z   1
loop_
 _symmetry_equiv_pos_site_id
 _symmetry_equiv_pos_as_xyz
  1  'x, y, z'
loop_
 _atom_site_type_symbol
 _atom_site_label
 _atom_site_symmetry_multiplicity
 _atom_site_fract_x
 _atom_site_fract_y
 _atom_site_fract_z
 _atom_site_occupancy
  Ca  Ca0  1  0.00566800  0.00566800  0.00566800  1
  Ca  Ca1  1  0.49988500  0.49988500  0.49988500  1
  Fe  Fe0  1  0.64725000  0.64725000  0.64725000  1
  Fe  Fe1  1  0.35190500  0.35190500  0.35190500  1
  Fe  Fe2  1  0.14852700  0.14852700  0.14852700  1
  Sb  Sb0  1  0.85319800  0.85319800  0.85319800  1
  P  P0  1  0.53763800  0.95798200  0.25224500  1
  P  P1  1  0.25224500  0.53763800  0.95798200  1
  P  P2  1  0.95798200  0.25224500  0.53763800  1
  P  P3  1  0.04210100  0.74775200  0.45569400  1
  P  P4  1  0.74775200  0.45569400  0.04210100  1
  P  P5  1  0.45569400  0.04210100  0.74775200  1
  O  O0  1  0.49343800  0.87608500  0.70890600  1
  O  O1  1  0.87608500  0.70890600  0.49343800  1
  O  O2  1  0.73106300  0.93791800  0.07526100  1
  O  O3  1  0.70890600  0.49343800  0.87608500  1
  O  O4  1  0.37951200  0.98997400  0.20502000  1
  O  O5  1  0.56569000  0.77013800  0.41550200  1
  O  O6  1  0.07526100  0.73106300  0.93791800  1
  O  O7  1  0.41550200  0.56569000  0.77013800  1
  O  O8  1  0.77013800  0.41550200  0.56569000  1
  O  O9  1  0.01544500  0.78777800  0.62372400  1
  O  O10  1  0.06075300  0.91977800  0.27395700  1
  O  O11  1  0.78777800  0.62372400  0.01544500  1
  O  O12  1  0.20502000  0.37951200  0.98997400  1
  O  O13  1  0.93791800  0.07526100  0.73106300  1
  O  O14  1  0.98997400  0.20502000  0.37951200  1
  O  O15  1  0.22808300  0.57986400  0.44044300  1
  O  O16  1  0.57986400  0.44044300  0.22808300  1
  O  O17  1  0.91977800  0.27395700  0.06075300  1
  O  O18  1  0.44044300  0.22808300  0.57986400  1
  O  O19  1  0.62372400  0.01544500  0.78777800  1
  O  O20  1  0.28439400  0.51483500  0.12259400  1
  O  O21  1  0.27395700  0.06075300  0.91977800  1
  O  O22  1  0.12259400  0.28439400  0.51483500  1
  O  O23  1  0.51483500  0.12259400  0.28439400  1
loop_
_geom_bond_atom_site_label_1
_geom_bond_atom_site_label_2
_geom_bond_distance
_geom_bond_site_symmetry_2
Ca0 O10 2.335922 1_545
Ca0 O21 2.335922 1_554
Ca0 O17 2.335923 1_455
Ca0 O13 2.510258 1_454
Ca0 O2 2.510258 1_445
Ca0 O6 2.510258 1_544
Ca1 O16 2.406538 1_555
Ca1 O18 2.406538 1_555
Ca1 O15 2.406538 1_555
Ca1 O7 2.413641 1_555
Ca1 O5 2.413641 1_555
Ca1 O8 2.413641 1_555
Fe0 O1 1.944960 1_555
Fe0 O3 1.944960 1_555
Fe0 O0 1.944960 1_555
Fe0 O7 2.086581 1_555
Fe0 O5 2.086581 1_555
Fe0 O8 2.086581 1_555
Fe1 O22 1.973975 1_555
Fe1 O20 1.973975 1_555
Fe1 O23 1.973975 1_555
Fe1 O16 2.092306 1_555
Fe1 O18 2.092306 1_555
Fe1 O15 2.092306 1_555
Fe2 O12 1.940792 1_554
Fe2 O14 1.940792 1_455
Fe2 O4 1.940792 1_545
Fe2 O10 2.091872 1_545
Fe2 O21 2.091872 1_554
Fe2 O17 2.091872 1_455
O0 P5 1.521372 1_565
O1 P3 1.521372 1_655
O2 P0 1.612581 1_555
O2 Sb0 2.027521 1_554
O3 P4 1.521372 1_556
O4 P0 1.522922 1_555
O5 P0 1.535963 1_555
O6 P1 1.612582 1_555
O6 Sb0 2.027521 1_455
O7 P1 1.535963 1_555
O8 P2 1.535963 1_555
O9 P3 1.588918 1_555
O9 Sb0 1.966395 1_455
O10 P3 1.539871 1_555
O11 P4 1.588918 1_555
O11 Sb0 1.966395 1_554
O12 P1 1.522922 1_555
O13 P2 1.612581 1_555
O13 Sb0 2.027521 1_545
O14 P2 1.522922 1_555
O15 P3 1.539372 1_555
O16 P4 1.539372 1_555
O17 P4 1.539871 1_555
O18 P5 1.539372 1_555
O19 P5 1.588918 1_555
O19 Sb0 1.966395 1_545
O20 P1 1.530613 1_554
O21 P5 1.539871 1_555
O22 P2 1.530613 1_455
O23 P0 1.530613 1_545
