# generated using pymatgen
data_Cu3P15I2
_symmetry_space_group_name_H-M   'P 1'
_cell_length_a   19.56633700
_cell_length_b   9.71003600
_cell_length_c   11.44710902
_cell_angle_alpha   55.31772510
_cell_angle_beta   90.00000000
_cell_angle_gamma   90.00000000
_symmetry_Int_Tables_number   1
_chemical_formula_structural   Cu3P15I2
_chemical_formula_sum   'Cu12 P60 I8'
_cell_volume   1788.41005055
_cell_formula_units_Z   4
loop_
 _symmetry_equiv_pos_site_id
 _symmetry_equiv_pos_as_xyz
  1  'x, y, z'
loop_
 _atom_site_type_symbol
 _atom_site_label
 _atom_site_symmetry_multiplicity
 _atom_site_fract_x
 _atom_site_fract_y
 _atom_site_fract_z
 _atom_site_occupancy
  Cu  Cu0  1  0.94332100  0.99871500  0.32535000  1
  Cu  Cu1  1  0.21143400  0.63054900  0.92693900  1
  Cu  Cu2  1  0.44097100  0.59257700  0.17755200  1
  Cu  Cu3  1  0.44332100  0.00128500  0.17465000  1
  Cu  Cu4  1  0.55902900  0.40742300  0.82244800  1
  Cu  Cu5  1  0.05667900  0.00128500  0.67465000  1
  Cu  Cu6  1  0.28856600  0.63054900  0.42693900  1
  Cu  Cu7  1  0.94097100  0.40742300  0.32244800  1
  Cu  Cu8  1  0.55667900  0.99871500  0.82535000  1
  Cu  Cu9  1  0.05902900  0.59257700  0.67755200  1
  Cu  Cu10  1  0.71143400  0.36945100  0.57306100  1
  Cu  Cu11  1  0.78856600  0.36945100  0.07306100  1
  P  P0  1  0.09341700  0.77351900  0.44211100  1
  P  P1  1  0.01818100  0.60902000  0.28016000  1
  P  P2  1  0.48306200  0.85721600  0.77144500  1
  P  P3  1  0.17303700  0.66879900  0.37287800  1
  P  P4  1  0.67303700  0.33120100  0.12712200  1
  P  P5  1  0.08603000  0.01852900  0.08367000  1
  P  P6  1  0.64374200  0.83631300  0.35604400  1
  P  P7  1  0.07937000  0.71624900  0.08297000  1
  P  P8  1  0.07651200  0.13633500  0.43367100  1
  P  P9  1  0.32696300  0.66879900  0.87287800  1
  P  P10  1  0.00395500  0.76169600  0.72737600  1
  P  P11  1  0.92063000  0.28375100  0.91703000  1
  P  P12  1  0.36237800  0.50039700  0.62026600  1
  P  P13  1  0.64966700  0.99882500  0.11532600  1
  P  P14  1  0.99604500  0.23830400  0.27262400  1
  P  P15  1  0.60008400  0.53821000  0.05631300  1
  P  P16  1  0.40658300  0.77351900  0.94211100  1
  P  P17  1  0.59341700  0.22648100  0.05788900  1
  P  P18  1  0.39991600  0.46179000  0.94368700  1
  P  P19  1  0.51693800  0.14278400  0.22855500  1
  P  P20  1  0.13762200  0.50039700  0.12026600  1
  P  P21  1  0.93770600  0.64520700  0.91463900  1
  P  P22  1  0.35033300  0.00117500  0.88467400  1
  P  P23  1  0.57651200  0.86366500  0.06632900  1
  P  P24  1  0.14374200  0.16368700  0.14395600  1
  P  P25  1  0.06229400  0.35479300  0.08536100  1
  P  P26  1  0.66520000  0.16927300  0.37149800  1
  P  P27  1  0.33480000  0.83072700  0.62850200  1
  P  P28  1  0.16520000  0.83072700  0.12850200  1
  P  P29  1  0.42063000  0.71624900  0.58297000  1
  P  P30  1  0.41397000  0.01852900  0.58367000  1
  P  P31  1  0.98306200  0.14278400  0.72855500  1
  P  P32  1  0.89991600  0.53821000  0.55631300  1
  P  P33  1  0.91397000  0.98147100  0.91633000  1
  P  P34  1  0.14966700  0.00117500  0.38467400  1
  P  P35  1  0.57937000  0.28375100  0.41703000  1
  P  P36  1  0.34544800  0.33548800  0.86184100  1
  P  P37  1  0.42348800  0.13633500  0.93367100  1
  P  P38  1  0.86237800  0.49960300  0.87973400  1
  P  P39  1  0.84544800  0.66451200  0.63815900  1
  P  P40  1  0.01693800  0.85721600  0.27144500  1
  P  P41  1  0.82696300  0.33120100  0.62712200  1
  P  P42  1  0.10008400  0.46179000  0.44368700  1
  P  P43  1  0.92348800  0.86366500  0.56632900  1
  P  P44  1  0.58603000  0.98147100  0.41633000  1
  P  P45  1  0.51818100  0.39098000  0.21984000  1
  P  P46  1  0.83480000  0.16927300  0.87149800  1
  P  P47  1  0.90658300  0.22648100  0.55788900  1
  P  P48  1  0.15455200  0.33548800  0.36184100  1
  P  P49  1  0.85625800  0.83631300  0.85604400  1
  P  P50  1  0.85033300  0.99882500  0.61532600  1
  P  P51  1  0.49604500  0.76169600  0.22737600  1
  P  P52  1  0.98181900  0.39098000  0.71984000  1
  P  P53  1  0.50395500  0.23830400  0.77262400  1
  P  P54  1  0.63762200  0.49960300  0.37973400  1
  P  P55  1  0.65455200  0.66451200  0.13815900  1
  P  P56  1  0.43770600  0.35479300  0.58536100  1
  P  P57  1  0.56229400  0.64520700  0.41463900  1
  P  P58  1  0.48181900  0.60902000  0.78016000  1
  P  P59  1  0.35625800  0.16368700  0.64395600  1
  I  I0  1  0.31764800  0.96026000  0.26490700  1
  I  I1  1  0.68235200  0.03974000  0.73509300  1
  I  I2  1  0.18187800  0.50114600  0.77928400  1
  I  I3  1  0.68187800  0.49885400  0.72071600  1
  I  I4  1  0.81764800  0.03974000  0.23509300  1
  I  I5  1  0.18235200  0.96026000  0.76490700  1
  I  I6  1  0.81812200  0.49885400  0.22071600  1
  I  I7  1  0.31812200  0.50114600  0.27928400  1
loop_
_geom_bond_atom_site_label_1
_geom_bond_atom_site_label_2
_geom_bond_distance
_geom_bond_site_symmetry_2
Cu0 P14 2.289708 1_565
Cu0 P40 2.303947 1_655
Cu0 P43 2.315787 1_555
Cu0 I4 2.608495 1_565
Cu1 P9 2.317133 1_555
Cu1 P20 2.323269 1_556
Cu1 I2 2.680870 1_555
Cu1 I5 2.693659 1_555
Cu2 P51 2.291080 1_555
Cu2 P45 2.295661 1_555
Cu2 P16 2.326882 1_554
Cu2 I7 2.597216 1_555
Cu3 P51 2.289708 1_545
Cu3 P19 2.303947 1_555
Cu3 P37 2.315787 1_554
Cu3 I0 2.608495 1_545
Cu4 P53 2.291080 1_555
Cu4 P58 2.295661 1_555
Cu4 P17 2.326882 1_556
Cu4 I3 2.597216 1_555
Cu5 P10 2.289708 1_545
Cu5 P31 2.303947 1_455
Cu5 P8 2.315787 1_555
Cu5 I5 2.608495 1_545
Cu6 P3 2.317133 1_555
Cu6 P12 2.323269 1_555
Cu6 I7 2.680870 1_555
Cu6 I0 2.693659 1_555
Cu7 P14 2.291080 1_555
Cu7 P1 2.295661 1_655
Cu7 P47 2.326882 1_555
Cu7 I6 2.597216 1_555
Cu8 P53 2.289708 1_565
Cu8 P2 2.303947 1_555
Cu8 P23 2.315787 1_556
Cu8 I1 2.608495 1_565
Cu9 P10 2.291080 1_555
Cu9 P52 2.295661 1_455
Cu9 P0 2.326882 1_555
Cu9 I2 2.597216 1_555
Cu10 P41 2.317133 1_555
Cu10 P54 2.323269 1_555
Cu10 I3 2.680870 1_555
Cu10 I1 2.693659 1_555
Cu11 P4 2.317133 1_555
Cu11 P38 2.323269 1_554
Cu11 I6 2.680870 1_555
Cu11 I4 2.693659 1_555
P0 P34 2.208188 1_565
P0 P40 2.215742 1_555
P0 P3 2.237434 1_555
P1 P7 2.222158 1_555
P1 P42 2.251763 1_555
P1 P40 2.354780 1_555
P2 P30 2.251591 1_565
P2 P58 2.354780 1_555
P3 P42 2.209232 1_555
P10 P43 2.186434 1_455
P10 P21 2.189837 1_455
P11 P38 2.203620 1_555
P11 P52 2.222158 1_555
P11 P46 2.233147 1_555
P12 P29 2.203620 1_555
P12 P56 2.230200 1_555
P12 P36 2.298159 1_555
P13 P17 2.208188 1_565
P13 P23 2.218906 1_555
P13 P6 2.268910 1_555
P14 P8 2.186434 1_655
P14 P25 2.189837 1_655
P15 P55 2.196648 1_555
P15 P4 2.209232 1_555
P15 P45 2.251763 1_555
P16 P22 2.208188 1_565
P16 P2 2.215742 1_555
P16 P9 2.237434 1_555
P17 P19 2.215742 1_555
P17 P4 2.237434 1_555
P18 P36 2.196648 1_555
P18 P9 2.209232 1_555
P18 P58 2.251763 1_555
P19 P44 2.251591 1_545
P19 P45 2.354780 1_555
P20 P7 2.203620 1_555
P20 P25 2.230200 1_555
P20 P48 2.298159 1_555
P21 P38 2.230200 1_555
P21 P49 2.239758 1_555
P22 P37 2.218906 1_555
P22 P59 2.268910 1_555
P23 P51 2.186434 1_555
P23 P55 2.222082 1_555
P24 P5 2.201134 1_555
P24 P25 2.239758 1_555
P24 P34 2.268910 1_555
P26 P44 2.218857 1_545
P26 P35 2.233147 1_555
P26 P4 2.305545 1_555
P27 P30 2.218857 1_565
P27 P29 2.233147 1_555
P27 P9 2.305545 1_555
P28 P5 2.218857 1_565
P28 P7 2.233147 1_555
P28 P3 2.305545 1_555
P29 P58 2.222158 1_555
P30 P59 2.201134 1_555
P31 P47 2.215742 1_555
P31 P33 2.251591 1_545
P31 P52 2.354780 1_555
P32 P39 2.196648 1_555
P32 P41 2.209232 1_555
P32 P52 2.251763 1_555
P33 P49 2.201134 1_555
P33 P46 2.218857 1_565
P34 P8 2.218906 1_555
P35 P54 2.203620 1_555
P35 P45 2.222158 1_555
P36 P37 2.222082 1_555
P37 P53 2.186434 1_555
P38 P39 2.298159 1_555
P39 P43 2.222082 1_555
P40 P5 2.251591 1_565
P41 P47 2.237434 1_555
P41 P46 2.305545 1_555
P42 P48 2.196648 1_555
P43 P50 2.218906 1_555
P44 P6 2.201134 1_555
P47 P50 2.208188 1_545
P48 P8 2.222082 1_555
P49 P50 2.268910 1_555
P51 P57 2.189837 1_555
P53 P56 2.189837 1_555
P54 P57 2.230200 1_555
P54 P55 2.298159 1_555
P56 P59 2.239758 1_555
P57 P6 2.239758 1_555
