# generated using pymatgen
data_Nb3Se10Br3
_symmetry_space_group_name_H-M   'P 1'
_cell_length_a   13.96297100
_cell_length_b   14.25593800
_cell_length_c   19.66643808
_cell_angle_alpha   89.90669318
_cell_angle_beta   90.00000000
_cell_angle_gamma   90.00000000
_symmetry_Int_Tables_number   1
_chemical_formula_structural   Nb3Se10Br3
_chemical_formula_sum   'Nb24 Se80 Br24'
_cell_volume   3914.70253508
_cell_formula_units_Z   8
loop_
 _symmetry_equiv_pos_site_id
 _symmetry_equiv_pos_as_xyz
  1  'x, y, z'
loop_
 _atom_site_type_symbol
 _atom_site_label
 _atom_site_symmetry_multiplicity
 _atom_site_fract_x
 _atom_site_fract_y
 _atom_site_fract_z
 _atom_site_occupancy
  Nb  Nb0  1  0.24884000  0.63407400  0.39576100  1
  Nb  Nb1  1  0.23851900  0.71256500  0.24742400  1
  Nb  Nb2  1  0.76036000  0.45640200  0.25283800  1
  Nb  Nb3  1  0.74530000  0.94780200  0.45655900  1
  Nb  Nb4  1  0.23825700  0.62054900  0.89634800  1
  Nb  Nb5  1  0.76807800  0.29606200  0.95598700  1
  Nb  Nb6  1  0.23964000  0.54359800  0.74716200  1
  Nb  Nb7  1  0.75116000  0.36592600  0.60423900  1
  Nb  Nb8  1  0.23192200  0.70393800  0.04401300  1
  Nb  Nb9  1  0.25470000  0.05219800  0.54344100  1
  Nb  Nb10  1  0.26807800  0.20393800  0.04401300  1
  Nb  Nb11  1  0.73964000  0.95640200  0.25283800  1
  Nb  Nb12  1  0.73851900  0.78743500  0.75257600  1
  Nb  Nb13  1  0.73825700  0.87945100  0.10365200  1
  Nb  Nb14  1  0.75470000  0.44780200  0.45655900  1
  Nb  Nb15  1  0.26036000  0.04359800  0.74716200  1
  Nb  Nb16  1  0.73192200  0.79606200  0.95598700  1
  Nb  Nb17  1  0.24530000  0.55219800  0.54344100  1
  Nb  Nb18  1  0.26174300  0.12054900  0.89634800  1
  Nb  Nb19  1  0.76148100  0.28743500  0.75257600  1
  Nb  Nb20  1  0.26148100  0.21256500  0.24742400  1
  Nb  Nb21  1  0.76174300  0.37945100  0.10365200  1
  Nb  Nb22  1  0.74884000  0.86592600  0.60423900  1
  Nb  Nb23  1  0.25116000  0.13407400  0.39576100  1
  Se  Se0  1  0.34244400  0.48137500  0.43959300  1
  Se  Se1  1  0.40398500  0.07220300  0.46789900  1
  Se  Se2  1  0.34695600  0.77878800  0.14225700  1
  Se  Se3  1  0.14151200  0.98329800  0.64563900  1
  Se  Se4  1  0.16824900  0.14521500  0.64820700  1
  Se  Se5  1  0.90398500  0.42779700  0.53210100  1
  Se  Se6  1  0.58202300  0.82596400  0.03063600  1
  Se  Se7  1  0.60128600  0.37662300  0.51656300  1
  Se  Se8  1  0.88723800  0.85955300  0.01666200  1
  Se  Se9  1  0.08726400  0.55677900  0.82197000  1
  Se  Se10  1  0.83097600  0.45160300  0.71037600  1
  Se  Se11  1  0.09601500  0.57220300  0.46789900  1
  Se  Se12  1  0.58726400  0.94322100  0.17803000  1
  Se  Se13  1  0.66844000  0.20866800  0.64976100  1
  Se  Se14  1  0.16740300  0.96907400  0.85184600  1
  Se  Se15  1  0.60334100  0.34723700  0.69295900  1
  Se  Se16  1  0.61276200  0.35955300  0.01666200  1
  Se  Se17  1  0.41273600  0.05677900  0.82197000  1
  Se  Se18  1  0.16886600  0.71550800  0.50371800  1
  Se  Se19  1  0.83259700  0.03092600  0.14815400  1
  Se  Se20  1  0.09109500  0.68849600  0.32441700  1
  Se  Se21  1  0.66886600  0.78449200  0.49628200  1
  Se  Se22  1  0.15304400  0.27878800  0.14225700  1
  Se  Se23  1  0.66376200  0.96365100  0.99441700  1
  Se  Se24  1  0.38723800  0.64044700  0.98333800  1
  Se  Se25  1  0.61008100  0.38794200  0.18957000  1
  Se  Se26  1  0.33175100  0.64521500  0.64820700  1
  Se  Se27  1  0.83156000  0.70866800  0.64976100  1
  Se  Se28  1  0.41797700  0.17403600  0.96936400  1
  Se  Se29  1  0.59601500  0.92779700  0.53210100  1
  Se  Se30  1  0.65701900  0.79790100  0.21103300  1
  Se  Se31  1  0.85848800  0.01670200  0.35436100  1
  Se  Se32  1  0.64151200  0.51670200  0.35436100  1
  Se  Se33  1  0.83113400  0.28449200  0.49628200  1
  Se  Se34  1  0.90890500  0.31150400  0.67558300  1
  Se  Se35  1  0.84695600  0.72121200  0.85774300  1
  Se  Se36  1  0.89665900  0.84723700  0.69295900  1
  Se  Se37  1  0.91273600  0.44322100  0.17803000  1
  Se  Se38  1  0.84298100  0.29790100  0.21103300  1
  Se  Se39  1  0.88991900  0.88794200  0.18957000  1
  Se  Se40  1  0.40890500  0.18849600  0.32441700  1
  Se  Se41  1  0.08202300  0.67403600  0.96936400  1
  Se  Se42  1  0.33623800  0.03634900  0.00558300  1
  Se  Se43  1  0.91797700  0.32596400  0.03063600  1
  Se  Se44  1  0.17098800  0.11569200  0.14655600  1
  Se  Se45  1  0.10334100  0.15276300  0.30704100  1
  Se  Se46  1  0.33156000  0.79133200  0.35023900  1
  Se  Se47  1  0.59109500  0.81150400  0.67558300  1
  Se  Se48  1  0.32901200  0.61569200  0.14655600  1
  Se  Se49  1  0.11008100  0.11205800  0.81043000  1
  Se  Se50  1  0.66824900  0.35478500  0.35179300  1
  Se  Se51  1  0.32191100  0.77846100  0.93902600  1
  Se  Se52  1  0.16844000  0.29133200  0.35023900  1
  Se  Se53  1  0.17808900  0.27846100  0.93902600  1
  Se  Se54  1  0.34298100  0.20209900  0.78896700  1
  Se  Se55  1  0.38991900  0.61205800  0.81043000  1
  Se  Se56  1  0.82901200  0.88430800  0.85344400  1
  Se  Se57  1  0.65304400  0.22121200  0.85774300  1
  Se  Se58  1  0.82191100  0.72153900  0.06097400  1
  Se  Se59  1  0.67808900  0.22153900  0.06097400  1
  Se  Se60  1  0.10128600  0.12337700  0.48343700  1
  Se  Se61  1  0.89871400  0.87662300  0.51656300  1
  Se  Se62  1  0.15701900  0.70209900  0.78896700  1
  Se  Se63  1  0.11276200  0.14044700  0.98333800  1
  Se  Se64  1  0.84244400  0.01862500  0.56040700  1
  Se  Se65  1  0.83623800  0.46365100  0.99441700  1
  Se  Se66  1  0.33113400  0.21550800  0.50371800  1
  Se  Se67  1  0.39665900  0.65276300  0.30704100  1
  Se  Se68  1  0.67098800  0.38430800  0.85344400  1
  Se  Se69  1  0.83175100  0.85478500  0.35179300  1
  Se  Se70  1  0.39871400  0.62337700  0.48343700  1
  Se  Se71  1  0.35848800  0.48329800  0.64563900  1
  Se  Se72  1  0.66902400  0.95160300  0.71037600  1
  Se  Se73  1  0.66740300  0.53092600  0.14815400  1
  Se  Se74  1  0.33259700  0.46907400  0.85184600  1
  Se  Se75  1  0.15755600  0.98137500  0.43959300  1
  Se  Se76  1  0.16902400  0.54839700  0.28962400  1
  Se  Se77  1  0.33097600  0.04839700  0.28962400  1
  Se  Se78  1  0.65755600  0.51862500  0.56040700  1
  Se  Se79  1  0.16376200  0.53634900  0.00558300  1
  Br  Br0  1  0.81647100  0.63926100  0.25478200  1
  Br  Br1  1  0.40001300  0.19534400  0.14735100  1
  Br  Br2  1  0.31570900  0.87033600  0.54065600  1
  Br  Br3  1  0.31647100  0.86073900  0.74521800  1
  Br  Br4  1  0.09998700  0.69534400  0.14735100  1
  Br  Br5  1  0.83348900  0.11545100  0.95888800  1
  Br  Br6  1  0.39257700  0.05535100  0.64374400  1
  Br  Br7  1  0.16651100  0.88454900  0.04111200  1
  Br  Br8  1  0.10742300  0.55535100  0.64374400  1
  Br  Br9  1  0.68429100  0.12966400  0.45934400  1
  Br  Br10  1  0.60742300  0.94464900  0.35625600  1
  Br  Br11  1  0.66651100  0.61545100  0.95888800  1
  Br  Br12  1  0.18429100  0.37033600  0.54065600  1
  Br  Br13  1  0.82970200  0.10839800  0.75223300  1
  Br  Br14  1  0.33348900  0.38454900  0.04111200  1
  Br  Br15  1  0.68352900  0.13926100  0.25478200  1
  Br  Br16  1  0.90001300  0.30465600  0.85264900  1
  Br  Br17  1  0.67029800  0.60839800  0.75223300  1
  Br  Br18  1  0.17029800  0.89160200  0.24776700  1
  Br  Br19  1  0.59998700  0.80465600  0.85264900  1
  Br  Br20  1  0.81570900  0.62966400  0.45934400  1
  Br  Br21  1  0.89257700  0.44464900  0.35625600  1
  Br  Br22  1  0.18352900  0.36073900  0.74521800  1
  Br  Br23  1  0.32970200  0.39160200  0.24776700  1
loop_
_geom_bond_atom_site_label_1
_geom_bond_atom_site_label_2
_geom_bond_distance
_geom_bond_site_symmetry_2
Nb0 Se76 2.664423 1_555
Nb0 Se18 2.666533 1_555
Nb0 Se46 2.674873 1_555
Nb0 Se0 2.680287 1_555
Nb0 Se11 2.709261 1_555
Nb0 Se67 2.715490 1_555
Nb0 Se70 2.715669 1_555
Nb0 Se20 2.723677 1_555
Nb1 Se20 2.578004 1_555
Nb1 Se67 2.640820 1_555
Nb1 Se46 2.654154 1_555
Nb1 Se76 2.664839 1_555
Nb1 Se48 2.729068 1_555
Nb1 Se2 2.730406 1_555
Nb2 Se37 2.593730 1_555
Nb2 Se25 2.628244 1_555
Nb2 Se73 2.654200 1_555
Nb2 Se38 2.668064 1_555
Nb2 Se32 2.735836 1_555
Nb2 Se50 2.744236 1_555
Nb3 Se29 2.575280 1_555
Nb3 Se61 2.647069 1_555
Nb3 Se64 2.652744 1_565
Nb3 Se21 2.676491 1_555
Nb3 Se69 2.733049 1_555
Nb3 Se31 2.737833 1_565
Nb4 Se62 2.662701 1_555
Nb4 Se79 2.670100 1_556
Nb4 Se51 2.672603 1_555
Nb4 Se74 2.677761 1_555
Nb4 Se24 2.708529 1_555
Nb4 Se55 2.711984 1_555
Nb4 Se41 2.721375 1_555
Nb4 Se9 2.723125 1_555
Nb5 Se43 2.592260 1_556
Nb5 Se16 2.636244 1_556
Nb5 Se59 2.638832 1_556
Nb5 Se65 2.681573 1_555
Nb5 Se57 2.730990 1_555
Nb5 Se68 2.734795 1_555
Nb6 Se9 2.593730 1_555
Nb6 Se55 2.628244 1_555
Nb6 Se74 2.654200 1_555
Nb6 Se62 2.668064 1_555
Nb6 Se71 2.735836 1_555
Nb6 Se26 2.744236 1_555
Nb7 Se10 2.664423 1_555
Nb7 Se33 2.666533 1_555
Nb7 Se13 2.674873 1_555
Nb7 Se78 2.680287 1_555
Nb7 Se5 2.709261 1_555
Nb7 Se15 2.715490 1_555
Nb7 Se7 2.715669 1_555
Nb7 Se34 2.723677 1_555
Nb8 Se41 2.592260 1_554
Nb8 Se24 2.636244 1_554
Nb8 Se51 2.638832 1_554
Nb8 Se79 2.681573 1_555
Nb8 Se2 2.730990 1_555
Nb8 Se48 2.734795 1_555
Nb9 Se1 2.575280 1_555
Nb9 Se60 2.647069 1_555
Nb9 Se75 2.652744 1_545
Nb9 Se66 2.676491 1_555
Nb9 Se4 2.733049 1_555
Nb9 Se3 2.737833 1_545
Nb10 Se28 2.592260 1_554
Nb10 Se63 2.636244 1_554
Nb10 Se53 2.638832 1_554
Nb10 Se42 2.681573 1_555
Nb10 Se22 2.730990 1_555
Nb10 Se44 2.734795 1_555
Nb11 Se12 2.593730 1_555
Nb11 Se39 2.628244 1_555
Nb11 Se19 2.654200 1_565
Nb11 Se30 2.668064 1_555
Nb11 Se31 2.735836 1_565
Nb11 Se69 2.744236 1_555
Nb12 Se47 2.578004 1_555
Nb12 Se36 2.640820 1_555
Nb12 Se27 2.654154 1_555
Nb12 Se72 2.664839 1_555
Nb12 Se56 2.729068 1_555
Nb12 Se35 2.730406 1_555
Nb13 Se30 2.662701 1_555
Nb13 Se23 2.670100 1_554
Nb13 Se58 2.672603 1_555
Nb13 Se19 2.677761 1_565
Nb13 Se8 2.708529 1_555
Nb13 Se39 2.711984 1_555
Nb13 Se6 2.721375 1_555
Nb13 Se12 2.723125 1_555
Nb14 Se5 2.575280 1_555
Nb14 Se7 2.647069 1_555
Nb14 Se78 2.652744 1_555
Nb14 Se33 2.676491 1_555
Nb14 Se50 2.733049 1_555
Nb14 Se32 2.737833 1_555
Nb15 Se17 2.593730 1_555
Nb15 Se49 2.628244 1_555
Nb15 Se14 2.654200 1_545
Nb15 Se54 2.668064 1_555
Nb15 Se3 2.735836 1_545
Nb15 Se4 2.744236 1_555
Nb16 Se6 2.592260 1_556
Nb16 Se8 2.636244 1_556
Nb16 Se58 2.638832 1_556
Nb16 Se23 2.681573 1_555
Nb16 Se35 2.730990 1_555
Nb16 Se56 2.734795 1_555
Nb17 Se11 2.575280 1_555
Nb17 Se70 2.647069 1_555
Nb17 Se0 2.652744 1_555
Nb17 Se18 2.676491 1_555
Nb17 Se26 2.733049 1_555
Nb17 Se71 2.737833 1_555
Nb18 Se54 2.662701 1_555
Nb18 Se42 2.670100 1_556
Nb18 Se53 2.672603 1_555
Nb18 Se14 2.677761 1_545
Nb18 Se63 2.708529 1_555
Nb18 Se49 2.711984 1_555
Nb18 Se28 2.721375 1_555
Nb18 Se17 2.723125 1_555
Nb19 Se34 2.578004 1_555
Nb19 Se15 2.640820 1_555
Nb19 Se13 2.654154 1_555
Nb19 Se10 2.664839 1_555
Nb19 Se68 2.729068 1_555
Nb19 Se57 2.730406 1_555
Nb20 Se40 2.578004 1_555
Nb20 Se45 2.640820 1_555
Nb20 Se52 2.654154 1_555
Nb20 Se77 2.664839 1_555
Nb20 Se44 2.729068 1_555
Nb20 Se22 2.730406 1_555
Nb21 Se38 2.662701 1_555
Nb21 Se65 2.670100 1_554
Nb21 Se59 2.672603 1_555
Nb21 Se73 2.677761 1_555
Nb21 Se16 2.708529 1_555
Nb21 Se25 2.711984 1_555
Nb21 Se43 2.721375 1_555
Nb21 Se37 2.723125 1_555
Nb22 Se72 2.664423 1_555
Nb22 Se21 2.666533 1_555
Nb22 Se27 2.674873 1_555
Nb22 Se64 2.680287 1_565
Nb22 Se29 2.709261 1_555
Nb22 Se36 2.715490 1_555
Nb22 Se61 2.715669 1_555
Nb22 Se47 2.723677 1_555
Nb23 Se77 2.664423 1_555
Nb23 Se66 2.666533 1_555
Nb23 Se52 2.674873 1_555
Nb23 Se75 2.680287 1_545
Nb23 Se1 2.709261 1_555
Nb23 Se45 2.715490 1_555
Nb23 Se60 2.715669 1_555
Nb23 Se40 2.723677 1_555
Se0 Se70 2.337642 1_555
Se1 Se66 2.389409 1_555
Se2 Se48 2.339938 1_555
Se3 Se4 2.338900 1_565
Se7 Se78 2.337642 1_555
Se10 Se34 2.376055 1_555
Se11 Se18 2.389409 1_555
Se12 Se30 2.378522 1_555
Se13 Se15 2.335758 1_555
Se14 Se49 2.335291 1_565
Se16 Se59 2.336027 1_555
Se17 Se54 2.378522 1_555
Se19 Se39 2.335291 1_545
Se20 Se76 2.376055 1_555
Se21 Se29 2.389409 1_555
Se22 Se44 2.339938 1_555
Se23 Se6 2.378704 1_556
Se24 Se51 2.336027 1_555
Se25 Se73 2.335291 1_555
Se26 Se71 2.338900 1_555
Se27 Se36 2.335758 1_555
Se28 Se42 2.378704 1_556
Se31 Se69 2.338900 1_545
Se32 Se50 2.338900 1_555
Se33 Se5 2.389409 1_555
Se35 Se56 2.339938 1_555
Se37 Se38 2.378522 1_555
Se40 Se77 2.376055 1_555
Se41 Se79 2.378704 1_556
Se43 Se65 2.378704 1_554
Se45 Se52 2.335758 1_555
Se46 Se67 2.335758 1_555
Se47 Se72 2.376055 1_555
Se53 Se63 2.336027 1_555
Se55 Se74 2.335291 1_555
Se57 Se68 2.339938 1_555
Se58 Se8 2.336027 1_555
Se60 Se75 2.337642 1_545
Se61 Se64 2.337642 1_565
Se62 Se9 2.378522 1_555
Br0 Nb2 2.722346 1_555
Br1 Nb10 2.745564 1_555
Br1 Nb20 2.770698 1_555
Br2 Nb9 2.729612 1_565
Br2 Se18 3.099797 1_555
Br3 Nb15 2.722346 1_565
Br4 Nb8 2.745564 1_555
Br4 Nb1 2.770698 1_555
Br5 Nb5 2.732479 1_555
Br6 Nb15 2.751691 1_555
Br6 Nb9 2.756766 1_555
Br7 Nb8 2.732479 1_555
Br8 Nb6 2.751691 1_555
Br8 Nb17 2.756766 1_555
Br9 Nb3 2.729612 1_545
Br9 Se33 3.099797 1_555
Br10 Nb11 2.751691 1_555
Br10 Nb3 2.756766 1_555
Br11 Nb16 2.732479 1_555
Br12 Nb17 2.729612 1_555
Br12 Se66 3.099797 1_555
Br13 Nb19 2.724322 1_555
Br14 Nb10 2.732479 1_555
Br15 Nb11 2.722346 1_545
Br16 Nb5 2.745564 1_555
Br16 Nb19 2.770698 1_555
Br17 Nb12 2.724322 1_555
Br18 Nb1 2.724322 1_555
Br19 Nb16 2.745564 1_555
Br19 Nb12 2.770698 1_555
Br20 Nb14 2.729612 1_555
Br20 Se21 3.099797 1_555
Br21 Nb2 2.751691 1_555
Br21 Nb14 2.756766 1_555
Br22 Nb6 2.722346 1_555
Br23 Nb20 2.724322 1_555
