# generated using pymatgen
data_Zn2FeP2(H2O3)4
_symmetry_space_group_name_H-M   'P 1'
_cell_length_a   5.12605400
_cell_length_b   10.44437400
_cell_length_c   10.73982721
_cell_angle_alpha   59.49687515
_cell_angle_beta   90.00000000
_cell_angle_gamma   90.00000000
_symmetry_Int_Tables_number   1
_chemical_formula_structural   Zn2FeP2(H2O3)4
_chemical_formula_sum   'Zn4 Fe2 P4 H16 O24'
_cell_volume   495.41519347
_cell_formula_units_Z   2
loop_
 _symmetry_equiv_pos_site_id
 _symmetry_equiv_pos_as_xyz
  1  'x, y, z'
loop_
 _atom_site_type_symbol
 _atom_site_label
 _atom_site_symmetry_multiplicity
 _atom_site_fract_x
 _atom_site_fract_y
 _atom_site_fract_z
 _atom_site_occupancy
  Zn  Zn0  1  0.80539300  0.49999400  0.85609800  1
  Zn  Zn1  1  0.30539300  0.50000600  0.64390200  1
  Zn  Zn2  1  0.19460700  0.50000600  0.14390200  1
  Zn  Zn3  1  0.69460700  0.49999400  0.35609800  1
  Fe  Fe0  1  0.50000000  0.00000000  0.50000000  1
  Fe  Fe1  1  0.00000000  0.00000000  0.00000000  1
  P  P0  1  0.78399400  0.30911100  0.69218800  1
  P  P1  1  0.28399400  0.69088900  0.80781200  1
  P  P2  1  0.21600600  0.69088900  0.30781200  1
  P  P3  1  0.71600600  0.30911100  0.19218800  1
  H  H0  1  0.78367100  0.04513100  0.70337100  1
  H  H1  1  0.28367100  0.95486900  0.79662900  1
  H  H2  1  0.21632900  0.95486900  0.29662900  1
  H  H3  1  0.71632900  0.04513100  0.20337100  1
  H  H4  1  0.95012100  0.94102300  0.66241400  1
  H  H5  1  0.45012100  0.05897700  0.83758600  1
  H  H6  1  0.04987900  0.05897700  0.33758600  1
  H  H7  1  0.54987900  0.94102300  0.16241400  1
  H  H8  1  0.88741500  0.76041000  0.96605900  1
  H  H9  1  0.38741500  0.23959000  0.53394100  1
  H  H10  1  0.11258500  0.23959000  0.03394100  1
  H  H11  1  0.61258500  0.76041000  0.46605900  1
  H  H12  1  0.61176800  0.81801600  0.99110000  1
  H  H13  1  0.11176800  0.18198400  0.50890000  1
  H  H14  1  0.38823200  0.18198400  0.00890000  1
  H  H15  1  0.88823200  0.81801600  0.49110000  1
  O  O0  1  0.80118200  0.01229900  0.63197700  1
  O  O1  1  0.30118200  0.98770100  0.86802300  1
  O  O2  1  0.19881800  0.98770100  0.36802300  1
  O  O3  1  0.69881800  0.01229900  0.13197700  1
  O  O4  1  0.79967400  0.81704500  0.00616200  1
  O  O5  1  0.29967400  0.18295500  0.49383800  1
  O  O6  1  0.20032600  0.18295500  0.99383800  1
  O  O7  1  0.70032600  0.81704500  0.50616200  1
  O  O8  1  0.75414700  0.14274000  0.80876900  1
  O  O9  1  0.25414700  0.85726000  0.69123100  1
  O  O10  1  0.24585300  0.85726000  0.19123100  1
  O  O11  1  0.74585300  0.14274000  0.30876900  1
  O  O12  1  0.57148000  0.64983300  0.84350200  1
  O  O13  1  0.07148000  0.35016700  0.65649800  1
  O  O14  1  0.42852000  0.35016700  0.15649800  1
  O  O15  1  0.92852000  0.64983300  0.34350200  1
  O  O16  1  0.62851900  0.33793700  0.55541000  1
  O  O17  1  0.12851900  0.66206300  0.94459000  1
  O  O18  1  0.37148100  0.66206300  0.44459000  1
  O  O19  1  0.87148100  0.33793700  0.05541000  1
  O  O20  1  0.64975600  0.41206900  0.74368600  1
  O  O21  1  0.14975600  0.58793100  0.75631400  1
  O  O22  1  0.35024400  0.58793100  0.25631400  1
  O  O23  1  0.85024400  0.41206900  0.24368600  1
loop_
_geom_bond_atom_site_label_1
_geom_bond_atom_site_label_2
_geom_bond_distance
_geom_bond_site_symmetry_2
Fe0 O7 2.140523 1_545
Fe0 O5 2.140523 1_555
Fe0 O0 2.143348 1_555
Fe0 O2 2.143348 1_545
Fe0 O11 2.218235 1_555
Fe0 O9 2.218235 1_545
Fe1 O4 2.140523 1_445
Fe1 O6 2.140523 1_554
Fe1 O1 2.143348 1_544
Fe1 O3 2.143348 1_455
Fe1 O10 2.218235 1_545
Fe1 O8 2.218235 1_454
H0 O0 0.990193 1_555
H1 O1 0.990193 1_555
H2 O2 0.990193 1_555
H3 O3 0.990193 1_555
H4 O0 0.998441 1_565
H4 O9 1.736394 1_655
H5 O1 0.998441 1_545
H5 O8 1.736394 1_555
H6 O2 0.998441 1_545
H6 O11 1.736394 1_455
H7 O3 0.998441 1_565
H7 O10 1.736394 1_555
H8 O4 0.998155 1_556
H8 O17 1.695924 1_655
H9 O5 0.998155 1_555
H9 O16 1.695924 1_555
H10 O6 0.998155 1_554
H10 O19 1.695924 1_455
H11 O7 0.998155 1_555
H11 O18 1.695924 1_555
H12 O4 0.975905 1_556
H13 O5 0.975905 1_555
H14 O6 0.975905 1_554
H15 O7 0.975905 1_555
O8 P0 1.549781 1_555
O9 P1 1.549781 1_555
O10 P2 1.549781 1_555
O11 P3 1.549781 1_555
O12 P1 1.528280 1_555
O12 Zn0 1.921002 1_555
O13 P0 1.528280 1_455
O13 Zn1 1.921002 1_555
O14 P3 1.528280 1_555
O14 Zn2 1.921002 1_555
O15 P2 1.528280 1_655
O15 Zn3 1.921002 1_555
O16 P0 1.560358 1_555
O16 Zn3 1.970686 1_555
O17 P1 1.560358 1_555
O17 Zn2 1.970686 1_556
O18 P2 1.560358 1_555
O18 Zn1 1.970686 1_555
O19 P3 1.560358 1_555
O19 Zn0 1.970686 1_554
O20 P0 1.593581 1_555
O20 Zn0 2.015649 1_555
O20 Zn1 2.027023 1_555
O21 P1 1.593581 1_555
O21 Zn1 2.015649 1_555
O21 Zn0 2.027023 1_455
O22 P2 1.593581 1_555
O22 Zn2 2.015649 1_555
O22 Zn3 2.027023 1_555
O23 P3 1.593581 1_555
O23 Zn3 2.015649 1_555
O23 Zn2 2.027023 1_655
