# generated using pymatgen
data_KRb2Mo(OF)3
_symmetry_space_group_name_H-M   'P 1'
_cell_length_a   6.40877800
_cell_length_b   6.40877800
_cell_length_c   9.24059200
_cell_angle_alpha   90.00000000
_cell_angle_beta   90.00000000
_cell_angle_gamma   90.00000000
_symmetry_Int_Tables_number   1
_chemical_formula_structural   KRb2Mo(OF)3
_chemical_formula_sum   'K2 Rb4 Mo2 O6 F6'
_cell_volume   379.53361847
_cell_formula_units_Z   2
loop_
 _symmetry_equiv_pos_site_id
 _symmetry_equiv_pos_as_xyz
  1  'x, y, z'
loop_
 _atom_site_type_symbol
 _atom_site_label
 _atom_site_symmetry_multiplicity
 _atom_site_fract_x
 _atom_site_fract_y
 _atom_site_fract_z
 _atom_site_occupancy
  K  K0  1  0.50000000  0.50000000  0.99256200  1
  K  K1  1  0.00000000  0.00000000  0.49256200  1
  Rb  Rb0  1  0.00000000  0.50000000  0.23874200  1
  Rb  Rb1  1  0.50000000  0.00000000  0.23874200  1
  Rb  Rb2  1  0.50000000  0.00000000  0.73874200  1
  Rb  Rb3  1  0.00000000  0.50000000  0.73874200  1
  Mo  Mo0  1  0.00000000  0.00000000  0.97973200  1
  Mo  Mo1  1  0.50000000  0.50000000  0.47973200  1
  O  O0  1  0.69790700  0.69790700  0.52180100  1
  O  O1  1  0.00000000  0.00000000  0.78693100  1
  O  O2  1  0.19790700  0.80209300  0.02180100  1
  O  O3  1  0.50000000  0.50000000  0.28693100  1
  O  O4  1  0.80209300  0.19790700  0.02180100  1
  O  O5  1  0.30209300  0.30209300  0.52180100  1
  F  F0  1  0.00000000  0.00000000  0.22090900  1
  F  F1  1  0.22435500  0.22435500  0.99879900  1
  F  F2  1  0.27564500  0.72435500  0.49879900  1
  F  F3  1  0.50000000  0.50000000  0.72090900  1
  F  F4  1  0.72435500  0.27564500  0.49879900  1
  F  F5  1  0.77564500  0.77564500  0.99879900  1
loop_
_geom_bond_atom_site_label_1
_geom_bond_atom_site_label_2
_geom_bond_distance
_geom_bond_site_symmetry_2
K0 O3 2.720144 1_556
K0 O2 2.751283 1_556
K0 O4 2.751283 1_556
K1 O1 2.720144 1_555
K1 O0 2.751283 1_445
K1 O5 2.751283 1_555
Mo0 O1 1.781595 1_555
Mo0 O4 1.835348 1_456
Mo0 O2 1.835348 1_546
Mo1 O3 1.781595 1_555
Mo1 O5 1.835348 1_555
Mo1 O0 1.835348 1_555
O0 Rb3 3.061967 1_655
O0 Rb2 3.061967 1_565
O0 Rb0 3.492636 1_655
O0 Rb1 3.492636 1_565
O1 Rb3 3.235181 1_545
O1 Rb2 3.235181 1_455
O1 Rb2 3.235181 1_555
O1 Rb3 3.235181 1_555
O2 Rb1 3.061967 1_565
O2 Rb0 3.061967 1_555
O2 Rb3 3.492636 1_554
O2 Rb2 3.492636 1_564
O3 Rb1 3.235181 1_565
O3 Rb0 3.235181 1_655
O3 Rb0 3.235181 1_555
O3 Rb1 3.235181 1_555
O4 Rb1 3.061967 1_555
O4 Rb0 3.061967 1_655
O4 Rb2 3.492636 1_554
O4 Rb3 3.492636 1_654
O5 Rb2 3.061967 1_555
O5 Rb3 3.061967 1_555
O5 Rb0 3.492636 1_555
O5 Rb1 3.492636 1_555
F0 Mo0 2.228618 1_554
F0 K1 2.510235 1_555
F0 Rb0 3.208623 1_545
F0 Rb0 3.208623 1_555
F0 Rb1 3.208623 1_555
F0 Rb1 3.208623 1_455
F1 Mo0 2.041034 1_555
F1 K0 2.498940 1_555
F1 Rb0 3.178698 1_556
F1 Rb1 3.178698 1_556
F1 Rb3 3.311023 1_555
F1 Rb2 3.311023 1_555
F2 Mo1 2.041034 1_555
F2 K1 2.498940 1_565
F2 Rb3 3.178698 1_555
F2 Rb2 3.178698 1_565
F2 Rb0 3.311023 1_555
F2 Rb1 3.311023 1_565
F3 Mo1 2.228618 1_555
F3 K0 2.510235 1_555
F3 Rb3 3.208623 1_655
F3 Rb2 3.208623 1_555
F3 Rb3 3.208623 1_555
F3 Rb2 3.208623 1_565
F4 Mo1 2.041034 1_555
F4 K1 2.498940 1_655
F4 Rb2 3.178698 1_555
F4 Rb3 3.178698 1_655
F4 Rb1 3.311023 1_555
F4 Rb0 3.311023 1_655
F5 Mo0 2.041034 1_665
F5 K0 2.498940 1_555
F5 Rb0 3.178698 1_656
F5 Rb1 3.178698 1_566
F5 Rb2 3.311023 1_565
F5 Rb3 3.311023 1_655
