# generated using pymatgen
data_Cu2H6C3N4O
_symmetry_space_group_name_H-M   'P 1'
_cell_length_a   8.37702800
_cell_length_b   7.87102600
_cell_length_c   11.81693974
_cell_angle_alpha   86.31522910
_cell_angle_beta   90.00000000
_cell_angle_gamma   90.00000000
_symmetry_Int_Tables_number   1
_chemical_formula_structural   Cu2H6C3N4O
_chemical_formula_sum   'Cu8 H24 C12 N16 O4'
_cell_volume   777.54870801
_cell_formula_units_Z   4
loop_
 _symmetry_equiv_pos_site_id
 _symmetry_equiv_pos_as_xyz
  1  'x, y, z'
loop_
 _atom_site_type_symbol
 _atom_site_label
 _atom_site_symmetry_multiplicity
 _atom_site_fract_x
 _atom_site_fract_y
 _atom_site_fract_z
 _atom_site_occupancy
  Cu  Cu0  1  0.60645800  0.86969800  0.06823500  1
  Cu  Cu1  1  0.10645800  0.63030200  0.93176500  1
  Cu  Cu2  1  0.39354200  0.13030200  0.93176500  1
  Cu  Cu3  1  0.89354200  0.36969800  0.06823500  1
  Cu  Cu4  1  0.78905500  0.17729600  0.39931700  1
  Cu  Cu5  1  0.28905500  0.32270400  0.60068300  1
  Cu  Cu6  1  0.21094500  0.82270400  0.60068300  1
  Cu  Cu7  1  0.71094500  0.67729600  0.39931700  1
  H  H0  1  0.05386700  0.10194600  0.80139100  1
  H  H1  1  0.55386700  0.39805400  0.19860900  1
  H  H2  1  0.94613300  0.89805400  0.19860900  1
  H  H3  1  0.44613300  0.60194600  0.80139100  1
  H  H4  1  0.89207200  0.14132300  0.87872900  1
  H  H5  1  0.39207200  0.35867700  0.12127100  1
  H  H6  1  0.10792800  0.85867700  0.12127100  1
  H  H7  1  0.60792800  0.64132300  0.87872900  1
  H  H8  1  0.86591700  0.04385600  0.75603300  1
  H  H9  1  0.36591700  0.45614400  0.24396700  1
  H  H10  1  0.13408300  0.95614400  0.24396700  1
  H  H11  1  0.63408300  0.54385600  0.75603300  1
  H  H12  1  0.91370600  0.25069400  0.75264900  1
  H  H13  1  0.41370600  0.24930600  0.24735100  1
  H  H14  1  0.08629400  0.74930600  0.24735100  1
  H  H15  1  0.58629400  0.75069400  0.75264900  1
  H  H16  1  0.61393700  0.02100800  0.72421400  1
  H  H17  1  0.11393700  0.47899200  0.27578600  1
  H  H18  1  0.38606300  0.97899200  0.27578600  1
  H  H19  1  0.88606300  0.52100800  0.72421400  1
  H  H20  1  0.68033900  0.96613600  0.61188400  1
  H  H21  1  0.18033900  0.53386400  0.38811600  1
  H  H22  1  0.31966100  0.03386400  0.38811600  1
  H  H23  1  0.81966100  0.46613600  0.61188400  1
  C  C0  1  0.41264500  0.76687100  0.03999900  1
  C  C1  1  0.91264500  0.73312900  0.96000100  1
  C  C2  1  0.58735500  0.23312900  0.96000100  1
  C  C3  1  0.08735500  0.26687100  0.03999900  1
  C  C4  1  0.98548100  0.23149100  0.46460600  1
  C  C5  1  0.48548100  0.26850900  0.53539400  1
  C  C6  1  0.01451900  0.76850900  0.53539400  1
  C  C7  1  0.51451900  0.73149100  0.46460600  1
  C  C8  1  0.72871600  0.06004300  0.27252000  1
  C  C9  1  0.22871600  0.43995700  0.72748000  1
  C  C10  1  0.27128400  0.93995700  0.72748000  1
  C  C11  1  0.77128400  0.56004300  0.27252000  1
  N  N0  1  0.79551500  0.80849700  0.98134400  1
  N  N1  1  0.29551500  0.69150300  0.01865600  1
  N  N2  1  0.20448500  0.19150300  0.01865600  1
  N  N3  1  0.70448500  0.30849700  0.98134400  1
  N  N4  1  0.60408600  0.23468200  0.48835200  1
  N  N5  1  0.10408600  0.26531800  0.51164800  1
  N  N6  1  0.39591400  0.76531800  0.51164800  1
  N  N7  1  0.89591400  0.73468200  0.48835200  1
  N  N8  1  0.68363200  0.98706900  0.19428900  1
  N  N9  1  0.18363200  0.51293100  0.80571100  1
  N  N10  1  0.31636800  0.01293100  0.80571100  1
  N  N11  1  0.81636800  0.48706900  0.19428900  1
  N  N12  1  0.93334700  0.13370800  0.79701000  1
  N  N13  1  0.43334700  0.36629200  0.20299000  1
  N  N14  1  0.06665300  0.86629200  0.20299000  1
  N  N15  1  0.56665300  0.63370800  0.79701000  1
  O  O0  1  0.69173800  0.94443300  0.69385800  1
  O  O1  1  0.19173800  0.55556700  0.30614200  1
  O  O2  1  0.30826200  0.05556700  0.30614200  1
  O  O3  1  0.80826200  0.44443300  0.69385800  1
loop_
_geom_bond_atom_site_label_1
_geom_bond_atom_site_label_2
_geom_bond_distance
_geom_bond_site_symmetry_2
Cu0 N8 1.914971 1_555
Cu0 N0 1.964213 1_554
Cu1 N9 1.914971 1_555
Cu1 N1 1.964213 1_556
Cu2 N10 1.914971 1_555
Cu2 N2 1.964213 1_556
Cu3 N11 1.914971 1_555
Cu3 N3 1.964213 1_554
Cu4 N4 1.942417 1_555
Cu5 N5 1.942417 1_555
Cu6 N6 1.942417 1_555
Cu7 N7 1.942417 1_555
H0 N12 1.040580 1_455
H1 N13 1.040580 1_555
H2 N14 1.040580 1_655
H3 N15 1.040580 1_555
H4 N12 1.031067 1_555
H5 N13 1.031067 1_555
H6 N14 1.031067 1_555
H7 N15 1.031067 1_555
H8 N12 1.047726 1_555
H9 N13 1.047726 1_555
H10 N14 1.047726 1_555
H11 N15 1.047726 1_555
H12 N12 1.042928 1_555
H13 N13 1.042928 1_555
H14 N14 1.042928 1_555
H15 N15 1.042928 1_555
H16 O0 0.971858 1_545
H17 O1 0.971858 1_555
H18 O2 0.971858 1_565
H19 O3 0.971858 1_555
H20 O0 0.977433 1_555
H21 O1 0.977433 1_555
H22 O2 0.977433 1_555
H23 O3 0.977433 1_555
C0 N1 1.182163 1_555
C0 Cu0 1.853941 1_555
C1 N0 1.182163 1_555
C1 Cu1 1.853941 1_655
C2 N3 1.182163 1_555
C2 Cu2 1.853941 1_555
C3 N2 1.182163 1_555
C3 Cu3 1.853941 1_455
C4 N5 1.177322 1_655
C4 Cu4 1.878047 1_555
C5 N4 1.177322 1_555
C5 Cu5 1.878047 1_555
C6 N7 1.177322 1_455
C6 Cu6 1.878047 1_555
C7 N6 1.177322 1_555
C7 Cu7 1.878047 1_555
C8 N8 1.181273 1_545
C8 Cu4 1.878840 1_555
C9 N9 1.181273 1_555
C9 Cu5 1.878840 1_555
C10 N10 1.181273 1_565
C10 Cu6 1.878840 1_555
C11 N11 1.181273 1_555
C11 Cu7 1.878840 1_555
