# generated using pymatgen
data_Cs2KMn(CN)6
_symmetry_space_group_name_H-M   'P 1'
_cell_length_a   8.22354500
_cell_length_b   7.70834500
_cell_length_c   13.58682356
_cell_angle_alpha   55.69635004
_cell_angle_beta   90.00000000
_cell_angle_gamma   90.00000000
_symmetry_Int_Tables_number   1
_chemical_formula_structural   Cs2KMn(CN)6
_chemical_formula_sum   'Cs4 K2 Mn2 C12 N12'
_cell_volume   711.46084633
_cell_formula_units_Z   2
loop_
 _symmetry_equiv_pos_site_id
 _symmetry_equiv_pos_as_xyz
  1  'x, y, z'
loop_
 _atom_site_type_symbol
 _atom_site_label
 _atom_site_symmetry_multiplicity
 _atom_site_fract_x
 _atom_site_fract_y
 _atom_site_fract_z
 _atom_site_occupancy
  Cs  Cs0  1  0.93000100  0.72751700  0.75072000  1
  Cs  Cs1  1  0.43000100  0.27248300  0.74928000  1
  Cs  Cs2  1  0.56999900  0.72751700  0.25072000  1
  Cs  Cs3  1  0.06999900  0.27248300  0.24928000  1
  K  K0  1  0.50000000  0.50000000  0.00000000  1
  K  K1  1  0.00000000  0.50000000  0.50000000  1
  Mn  Mn0  1  0.50000000  0.00000000  0.50000000  1
  Mn  Mn1  1  0.00000000  0.00000000  0.00000000  1
  C  C0  1  0.70318500  0.16607100  0.45974700  1
  C  C1  1  0.37137600  0.24477000  0.46732900  1
  C  C2  1  0.20318500  0.83392900  0.04025300  1
  C  C3  1  0.79681500  0.16607100  0.95974700  1
  C  C4  1  0.12862400  0.24477000  0.96732900  1
  C  C5  1  0.97710700  0.90372300  0.16850400  1
  C  C6  1  0.52289300  0.90372300  0.66850400  1
  C  C7  1  0.02289300  0.09627700  0.83149600  1
  C  C8  1  0.29681500  0.83392900  0.54025300  1
  C  C9  1  0.87137600  0.75523000  0.03267100  1
  C  C10  1  0.62862400  0.75523000  0.53267100  1
  C  C11  1  0.47710700  0.09627700  0.33149600  1
  N  N0  1  0.95890500  0.84887800  0.26813000  1
  N  N1  1  0.17737600  0.73270500  0.56612100  1
  N  N2  1  0.67737600  0.26729500  0.93387900  1
  N  N3  1  0.45890500  0.15112200  0.23187000  1
  N  N4  1  0.79475500  0.60845600  0.05430400  1
  N  N5  1  0.32262400  0.73270500  0.06612100  1
  N  N6  1  0.70524500  0.60845600  0.55430400  1
  N  N7  1  0.29475500  0.39154400  0.44569600  1
  N  N8  1  0.54109500  0.84887800  0.76813000  1
  N  N9  1  0.20524500  0.39154400  0.94569600  1
  N  N10  1  0.04109500  0.15112200  0.73187000  1
  N  N11  1  0.82262400  0.26729500  0.43387900  1
loop_
_geom_bond_atom_site_label_1
_geom_bond_atom_site_label_2
_geom_bond_distance
_geom_bond_site_symmetry_2
Cs0 N1 3.212095 1_655
Cs0 N10 3.258797 1_665
Cs0 N9 3.333935 1_655
Cs0 N8 3.377709 1_555
Cs1 N2 3.212095 1_555
Cs1 N8 3.258797 1_545
Cs1 N6 3.333935 1_555
Cs1 N10 3.377709 1_555
Cs2 N5 3.212095 1_555
Cs2 N3 3.258797 1_565
Cs2 N7 3.333935 1_555
Cs2 N0 3.377709 1_555
Cs3 N11 3.212095 1_455
Cs3 N0 3.258797 1_445
Cs3 N4 3.333935 1_455
Cs3 N3 3.377709 1_555
K0 N8 2.778802 1_554
K0 N3 2.778802 1_555
K0 N4 2.795354 1_555
K0 N9 2.795354 1_554
K0 N5 2.822900 1_555
K0 N2 2.822900 1_554
K1 N0 2.778802 1_455
K1 N10 2.778802 1_555
K1 N6 2.795354 1_455
K1 N7 2.795354 1_555
K1 N1 2.822900 1_555
K1 N11 2.822900 1_455
C0 N11 1.178126 1_555
C0 Mn0 1.985099 1_555
C1 N7 1.178396 1_555
C1 Mn0 1.982864 1_555
C2 N5 1.178126 1_555
C2 Mn1 1.985099 1_565
C3 N2 1.178126 1_555
C3 Mn1 1.985099 1_656
C4 N9 1.178396 1_555
C4 Mn1 1.982864 1_556
C5 N0 1.178283 1_555
C5 Mn1 1.978028 1_665
C6 N8 1.178283 1_555
C6 Mn0 1.978028 1_565
C7 N10 1.178283 1_555
C7 Mn1 1.978028 1_556
C8 N1 1.178126 1_555
C8 Mn0 1.985099 1_565
C9 N4 1.178396 1_555
C9 Mn1 1.982864 1_665
C10 N6 1.178396 1_555
C10 Mn0 1.982864 1_565
C11 N3 1.178283 1_555
C11 Mn0 1.978028 1_555
