# generated using pymatgen
data_ErCo(CN)6
_symmetry_space_group_name_H-M   'P 1'
_cell_length_a   7.40329118
_cell_length_b   7.40329118
_cell_length_c   12.99997700
_cell_angle_alpha   90.00000000
_cell_angle_beta   90.00000000
_cell_angle_gamma   119.99999270
_symmetry_Int_Tables_number   1
_chemical_formula_structural   ErCo(CN)6
_chemical_formula_sum   'Er2 Co2 C12 N12'
_cell_volume   617.05362779
_cell_formula_units_Z   2
loop_
 _symmetry_equiv_pos_site_id
 _symmetry_equiv_pos_as_xyz
  1  'x, y, z'
loop_
 _atom_site_type_symbol
 _atom_site_label
 _atom_site_symmetry_multiplicity
 _atom_site_fract_x
 _atom_site_fract_y
 _atom_site_fract_z
 _atom_site_occupancy
  Er  Er0  1  0.66666700  0.33333300  0.75000000  1
  Er  Er1  1  0.33333300  0.66666700  0.25000000  1
  Co  Co0  1  0.00000000  0.00000000  0.50000000  1
  Co  Co1  1  0.00000000  0.00000000  0.00000000  1
  C  C0  1  0.11852900  0.88147100  0.41642500  1
  C  C1  1  0.76294200  0.88147100  0.41642500  1
  C  C2  1  0.11852900  0.23705800  0.41642500  1
  C  C3  1  0.88147100  0.76294200  0.91642500  1
  C  C4  1  0.76294200  0.88147100  0.08357500  1
  C  C5  1  0.88147100  0.76294200  0.58357500  1
  C  C6  1  0.88147100  0.11852900  0.58357500  1
  C  C7  1  0.11852900  0.88147100  0.08357500  1
  C  C8  1  0.11852900  0.23705800  0.08357500  1
  C  C9  1  0.88147100  0.11852900  0.91642500  1
  C  C10  1  0.23705800  0.11852900  0.91642500  1
  C  C11  1  0.23705800  0.11852900  0.58357500  1
  N  N0  1  0.80810800  0.61621500  0.86287400  1
  N  N1  1  0.19189200  0.38378500  0.36287400  1
  N  N2  1  0.61621500  0.80810800  0.36287400  1
  N  N3  1  0.19189200  0.80810800  0.36287400  1
  N  N4  1  0.61621500  0.80810800  0.13712600  1
  N  N5  1  0.80810800  0.61621500  0.63712600  1
  N  N6  1  0.80810800  0.19189200  0.63712600  1
  N  N7  1  0.19189200  0.80810800  0.13712600  1
  N  N8  1  0.19189200  0.38378500  0.13712600  1
  N  N9  1  0.80810800  0.19189200  0.86287400  1
  N  N10  1  0.38378500  0.19189200  0.86287400  1
  N  N11  1  0.38378500  0.19189200  0.63712600  1
loop_
_geom_bond_atom_site_label_1
_geom_bond_atom_site_label_2
_geom_bond_distance
_geom_bond_site_symmetry_2
Er0 N9 2.332934 1_555
Er0 N6 2.332934 1_555
Er0 N0 2.332934 1_555
Er0 N10 2.332934 1_555
Er0 N5 2.332934 1_555
Er0 N11 2.332934 1_555
Er1 N3 2.332934 1_555
Er1 N7 2.332934 1_555
Er1 N2 2.332934 1_555
Er1 N4 2.332934 1_555
Er1 N1 2.332934 1_555
Er1 N8 2.332934 1_555
C0 N3 1.170301 1_555
C0 Co0 1.868279 1_565
C1 N2 1.170306 1_555
C1 Co0 1.868279 1_665
C2 N1 1.170306 1_555
C2 Co0 1.868279 1_555
C3 N0 1.170306 1_555
C3 Co1 1.868279 1_666
C4 N4 1.170306 1_555
C4 Co1 1.868279 1_665
C5 N5 1.170306 1_555
C5 Co0 1.868279 1_665
C6 N6 1.170301 1_555
C6 Co0 1.868279 1_655
C7 N7 1.170301 1_555
C7 Co1 1.868279 1_565
C8 N8 1.170306 1_555
C8 Co1 1.868279 1_555
C9 N9 1.170301 1_555
C9 Co1 1.868279 1_656
C10 N10 1.170306 1_555
C10 Co1 1.868279 1_556
C11 N11 1.170306 1_555
C11 Co0 1.868279 1_555
