# generated using pymatgen
data_Ba5Er8Zn4O21
_symmetry_space_group_name_H-M   'P 1'
_cell_length_a   10.17599942
_cell_length_b   10.17599942
_cell_length_c   10.17599942
_cell_angle_alpha   94.53468317
_cell_angle_beta   94.53468317
_cell_angle_gamma   147.33863708
_symmetry_Int_Tables_number   1
_chemical_formula_structural   Ba5Er8Zn4O21
_chemical_formula_sum   'Ba5 Er8 Zn4 O21'
_cell_volume   545.72865754
_cell_formula_units_Z   1
loop_
 _symmetry_equiv_pos_site_id
 _symmetry_equiv_pos_as_xyz
  1  'x, y, z'
loop_
 _atom_site_type_symbol
 _atom_site_label
 _atom_site_symmetry_multiplicity
 _atom_site_fract_x
 _atom_site_fract_y
 _atom_site_fract_z
 _atom_site_occupancy
  Ba  Ba0  1  0.53549300  0.86007300  0.39556500  1
  Ba  Ba1  1  0.86007300  0.46450700  0.32458000  1
  Ba  Ba2  1  0.13992700  0.53549300  0.67542000  1
  Ba  Ba3  1  0.46450700  0.13992700  0.60443500  1
  Ba  Ba4  1  0.00000000  0.00000000  0.00000000  1
  Er  Er0  1  0.41123800  0.64163500  0.05287300  1
  Er  Er1  1  0.64163500  0.58876200  0.23039700  1
  Er  Er2  1  0.35836500  0.41123800  0.76960300  1
  Er  Er3  1  0.58876200  0.35836500  0.94712700  1
  Er  Er4  1  0.24751900  0.83182300  0.07934200  1
  Er  Er5  1  0.83182300  0.75248100  0.58430400  1
  Er  Er6  1  0.16817700  0.24751900  0.41569600  1
  Er  Er7  1  0.75248100  0.16817700  0.92065800  1
  Zn  Zn0  1  0.04058900  0.75007300  0.79066200  1
  Zn  Zn1  1  0.75007300  0.95941100  0.70948400  1
  Zn  Zn2  1  0.24992700  0.04058900  0.29051600  1
  Zn  Zn3  1  0.95941100  0.24992700  0.20933800  1
  O  O0  1  0.89960000  0.49425600  0.89215000  1
  O  O1  1  0.49425600  0.60210600  0.59465500  1
  O  O2  1  0.00745000  0.89960000  0.40534500  1
  O  O3  1  0.60210600  0.00745000  0.10785000  1
  O  O4  1  0.10040000  0.50574400  0.10785000  1
  O  O5  1  0.50574400  0.39789400  0.40534500  1
  O  O6  1  0.99255000  0.10040000  0.59465500  1
  O  O7  1  0.39789400  0.99255000  0.89215000  1
  O  O8  1  0.07348000  0.29921900  0.87086000  1
  O  O9  1  0.29921900  0.42835900  0.22573900  1
  O  O10  1  0.20262000  0.07348000  0.77426100  1
  O  O11  1  0.42835900  0.20262000  0.12914000  1
  O  O12  1  0.92652000  0.70078100  0.12914000  1
  O  O13  1  0.70078100  0.57164100  0.77426100  1
  O  O14  1  0.79738000  0.92652000  0.22573900  1
  O  O15  1  0.57164100  0.79738000  0.87086000  1
  O  O16  1  0.62898300  0.03880600  0.66778900  1
  O  O17  1  0.50000000  0.50000000  0.00000000  1
  O  O18  1  0.37101700  0.96119400  0.33221100  1
  O  O19  1  0.96119400  0.62898300  0.59017700  1
  O  O20  1  0.03880600  0.37101700  0.40982300  1
loop_
_geom_bond_atom_site_label_1
_geom_bond_atom_site_label_2
_geom_bond_distance
_geom_bond_site_symmetry_2
Ba0 O18 2.666441 1_555
Ba0 O16 2.785675 1_565
Ba0 O20 2.865646 1_665
Ba0 O20 2.865652 1_555
Ba0 O14 2.902532 1_555
Ba0 O9 2.902535 1_555
Ba0 O6 3.208139 1_565
Ba0 O1 3.208139 1_555
Ba0 O3 3.252230 1_565
Ba0 O4 3.252232 1_555
Ba1 O19 2.666443 1_555
Ba1 O20 2.785665 1_655
Ba1 O18 2.865648 1_545
Ba1 O18 2.865648 1_655
Ba1 O12 2.902539 1_555
Ba1 O11 2.902539 1_555
Ba1 O3 3.208139 1_555
Ba1 O4 3.208139 1_655
Ba1 O2 3.252240 1_655
Ba1 O5 3.252243 1_555
Ba2 O20 2.666443 1_555
Ba2 O19 2.785665 1_455
Ba2 O16 2.865648 1_565
Ba2 O16 2.865648 1_455
Ba2 O15 2.902539 1_555
Ba2 O8 2.902539 1_555
Ba2 O0 3.208139 1_455
Ba2 O7 3.208139 1_555
Ba2 O6 3.252240 1_455
Ba2 O1 3.252243 1_555
Ba3 O16 2.666441 1_555
Ba3 O18 2.785675 1_545
Ba3 O19 2.865646 1_445
Ba3 O19 2.865652 1_555
Ba3 O10 2.902532 1_555
Ba3 O13 2.902535 1_555
Ba3 O5 3.208139 1_555
Ba3 O2 3.208139 1_545
Ba3 O7 3.252230 1_545
Ba3 O0 3.252232 1_555
Ba4 O17 2.861294 1_445
Ba4 O17 2.861294 1_555
Ba4 O11 2.917499 1_555
Ba4 O14 2.917499 1_445
Ba4 O10 2.917499 1_554
Ba4 O8 2.917499 1_554
Ba4 O13 2.917499 1_444
Ba4 O9 2.917499 1_555
Ba4 O15 2.917499 1_444
Ba4 O12 2.917499 1_445
Er0 O15 2.278833 1_554
Er0 O8 2.278833 1_554
Er0 O4 2.295153 1_555
Er0 O3 2.295153 1_565
Er0 O17 2.308415 1_555
Er0 O14 2.420582 1_555
Er0 O9 2.420582 1_555
Er1 O9 2.278833 1_555
Er1 O14 2.278833 1_555
Er1 O2 2.295159 1_655
Er1 O5 2.295162 1_555
Er1 O17 2.308415 1_555
Er1 O11 2.420582 1_555
Er1 O12 2.420582 1_555
Er2 O13 2.278833 1_555
Er2 O10 2.278833 1_555
Er2 O6 2.295159 1_455
Er2 O1 2.295162 1_555
Er2 O17 2.308415 1_556
Er2 O15 2.420582 1_555
Er2 O8 2.420582 1_555
Er3 O12 2.278833 1_556
Er3 O11 2.278833 1_556
Er3 O7 2.295153 1_545
Er3 O0 2.295153 1_555
Er3 O17 2.308415 1_556
Er3 O13 2.420582 1_555
Er3 O10 2.420582 1_555
Er4 O3 2.278692 1_565
Er4 O4 2.278692 1_555
Er4 O7 2.320487 1_554
Er4 O0 2.320487 1_454
Er4 O12 2.395705 1_455
Er4 O11 2.395705 1_565
Er4 O18 2.470045 1_555
Er5 O2 2.278682 1_655
Er5 O5 2.278686 1_555
Er5 O1 2.320485 1_555
Er5 O6 2.320489 1_565
Er5 O10 2.395705 1_665
Er5 O13 2.395705 1_555
Er5 O19 2.470045 1_555
Er6 O6 2.278682 1_455
Er6 O1 2.278686 1_555
Er6 O5 2.320485 1_555
Er6 O2 2.320489 1_545
Er6 O9 2.395705 1_555
Er6 O14 2.395705 1_445
Er6 O20 2.470045 1_555
Er7 O0 2.278692 1_555
Er7 O7 2.278692 1_545
Er7 O4 2.320487 1_656
Er7 O3 2.320487 1_556
Er7 O15 2.395705 1_545
Er7 O8 2.395705 1_655
Er7 O16 2.470045 1_555
O0 Zn0 2.066992 1_655
O1 Zn1 2.066996 1_555
O2 Zn2 2.067000 1_565
O3 Zn3 2.066992 1_555
O4 Zn3 2.066992 1_455
O5 Zn2 2.066996 1_555
O6 Zn1 2.067000 1_545
O7 Zn0 2.066992 1_555
O8 Zn1 2.137984 1_445
O9 Zn3 2.137984 1_455
O10 Zn0 2.137984 1_545
O11 Zn2 2.137984 1_555
O12 Zn2 2.137984 1_665
O13 Zn0 2.137984 1_655
O14 Zn3 2.137984 1_565
O15 Zn1 2.137984 1_555
O16 Zn1 1.999717 1_545
O18 Zn2 1.999717 1_565
O19 Zn0 1.999717 1_655
O20 Zn3 1.999717 1_455
