# generated using pymatgen
data_NaEuP2O7
_symmetry_space_group_name_H-M   'P 1'
_cell_length_a   8.61665400
_cell_length_b   5.35532200
_cell_length_c   13.71301711
_cell_angle_alpha   68.39094607
_cell_angle_beta   90.00000000
_cell_angle_gamma   90.00000000
_symmetry_Int_Tables_number   1
_chemical_formula_structural   NaEuP2O7
_chemical_formula_sum   'Na4 Eu4 P8 O28'
_cell_volume   588.31326661
_cell_formula_units_Z   4
loop_
 _symmetry_equiv_pos_site_id
 _symmetry_equiv_pos_as_xyz
  1  'x, y, z'
loop_
 _atom_site_type_symbol
 _atom_site_label
 _atom_site_symmetry_multiplicity
 _atom_site_fract_x
 _atom_site_fract_y
 _atom_site_fract_z
 _atom_site_occupancy
  Na  Na0  1  0.88454200  0.64084800  0.07830900  1
  Na  Na1  1  0.38454200  0.35915200  0.42169100  1
  Na  Na2  1  0.11545800  0.35915200  0.92169100  1
  Na  Na3  1  0.61545800  0.64084800  0.57830900  1
  Eu  Eu0  1  0.69485000  0.96188900  0.26679400  1
  Eu  Eu1  1  0.19485000  0.03811100  0.23320600  1
  Eu  Eu2  1  0.30515000  0.03811100  0.73320600  1
  Eu  Eu3  1  0.80515000  0.96188900  0.76679400  1
  P  P0  1  0.49401300  0.57957100  0.18242400  1
  P  P1  1  0.99401300  0.42042900  0.31757600  1
  P  P2  1  0.50598700  0.42042900  0.81757600  1
  P  P3  1  0.00598700  0.57957100  0.68242400  1
  P  P4  1  0.24287700  0.72997600  0.03259600  1
  P  P5  1  0.74287700  0.27002400  0.46740400  1
  P  P6  1  0.75712300  0.27002400  0.96740400  1
  P  P7  1  0.25712300  0.72997600  0.53259600  1
  O  O0  1  0.42561900  0.68847200  0.06438600  1
  O  O1  1  0.92561900  0.31152800  0.43561400  1
  O  O2  1  0.57438100  0.31152800  0.93561400  1
  O  O3  1  0.07438100  0.68847200  0.56438600  1
  O  O4  1  0.92272000  0.25147500  0.25913400  1
  O  O5  1  0.42272000  0.74852500  0.24086600  1
  O  O6  1  0.07728000  0.74852500  0.74086600  1
  O  O7  1  0.57728000  0.25147500  0.75913400  1
  O  O8  1  0.66793500  0.63278600  0.17452000  1
  O  O9  1  0.16793500  0.36721400  0.32548000  1
  O  O10  1  0.33206500  0.36721400  0.82548000  1
  O  O11  1  0.83206500  0.63278600  0.67452000  1
  O  O12  1  0.45743500  0.27704600  0.23159000  1
  O  O13  1  0.95743500  0.72295400  0.26841000  1
  O  O14  1  0.54256500  0.72295400  0.76841000  1
  O  O15  1  0.04256500  0.27704600  0.73159000  1
  O  O16  1  0.84007000  0.54089100  0.91450300  1
  O  O17  1  0.34007000  0.45910900  0.58549700  1
  O  O18  1  0.15993000  0.45910900  0.08549700  1
  O  O19  1  0.65993000  0.54089100  0.41450300  1
  O  O20  1  0.73983200  0.18855000  0.58596800  1
  O  O21  1  0.23983200  0.81145000  0.91403200  1
  O  O22  1  0.26016800  0.81145000  0.41403200  1
  O  O23  1  0.76016800  0.18855000  0.08596800  1
  O  O24  1  0.82327700  0.05659100  0.92926100  1
  O  O25  1  0.32327700  0.94340900  0.57073900  1
  O  O26  1  0.17672300  0.94340900  0.07073900  1
  O  O27  1  0.67672300  0.05659100  0.42926100  1
loop_
_geom_bond_atom_site_label_1
_geom_bond_atom_site_label_2
_geom_bond_distance
_geom_bond_site_symmetry_2
Na0 O8 2.276868 1_555
Na0 O24 2.462011 1_564
Na0 O16 2.522852 1_554
Na0 O18 2.552856 1_655
Na0 O4 2.607041 1_555
Na0 O23 2.615192 1_555
Na0 O13 2.868416 1_555
Na0 O26 2.975016 1_655
Na1 O9 2.276868 1_555
Na1 O25 2.462011 1_545
Na1 O17 2.522852 1_555
Na1 O19 2.552856 1_555
Na1 O5 2.607041 1_555
Na1 O22 2.615192 1_555
Na1 O12 2.868416 1_555
Na1 O27 2.975016 1_555
Na2 O10 2.276868 1_555
Na2 O26 2.462011 1_546
Na2 O18 2.522852 1_556
Na2 O16 2.552856 1_455
Na2 O6 2.607041 1_555
Na2 O21 2.615192 1_555
Na2 O15 2.868416 1_555
Na2 O24 2.975016 1_455
Na3 O11 2.276868 1_555
Na3 O27 2.462011 1_565
Na3 O19 2.522852 1_555
Na3 O17 2.552856 1_555
Na3 O7 2.607041 1_555
Na3 O20 2.615192 1_555
Na3 O14 2.868416 1_555
Na3 O25 2.975016 1_555
Eu0 O23 2.392071 1_565
Eu0 O19 2.431639 1_555
Eu0 O27 2.465244 1_565
Eu0 O4 2.480192 1_565
Eu0 O8 2.530560 1_555
Eu0 O12 2.581952 1_565
Eu0 O13 2.595437 1_555
Eu0 O5 2.688788 1_555
Eu1 O22 2.392071 1_545
Eu1 O18 2.431639 1_555
Eu1 O26 2.465244 1_545
Eu1 O5 2.480192 1_545
Eu1 O9 2.530560 1_555
Eu1 O13 2.581952 1_445
Eu1 O12 2.595437 1_555
Eu1 O4 2.688788 1_455
Eu2 O21 2.392071 1_545
Eu2 O17 2.431639 1_555
Eu2 O25 2.465244 1_545
Eu2 O6 2.480192 1_545
Eu2 O10 2.530560 1_555
Eu2 O14 2.581952 1_545
Eu2 O15 2.595437 1_555
Eu2 O7 2.688788 1_555
Eu3 O20 2.392071 1_565
Eu3 O16 2.431639 1_555
Eu3 O24 2.465244 1_565
Eu3 O7 2.480192 1_565
Eu3 O11 2.530560 1_555
Eu3 O15 2.581952 1_665
Eu3 O14 2.595437 1_555
Eu3 O6 2.688788 1_655
O0 P0 1.616225 1_555
O0 P4 1.627120 1_555
O1 P1 1.616225 1_555
O1 P5 1.627120 1_555
O2 P2 1.616225 1_555
O2 P6 1.627120 1_555
O3 P3 1.616225 1_555
O3 P7 1.627120 1_555
O4 P1 1.540258 1_555
O5 P0 1.540258 1_555
O6 P3 1.540258 1_555
O7 P2 1.540258 1_555
O8 P0 1.521871 1_555
O9 P1 1.521871 1_455
O10 P2 1.521871 1_555
O11 P3 1.521871 1_655
O12 P0 1.540830 1_555
O13 P1 1.540830 1_555
O14 P2 1.540830 1_555
O15 P3 1.540830 1_555
O16 P6 1.538247 1_555
O17 P7 1.538247 1_555
O18 P4 1.538247 1_555
O19 P5 1.538247 1_555
O20 P5 1.520531 1_555
O21 P4 1.520531 1_556
O22 P7 1.520531 1_555
O23 P6 1.520531 1_554
O24 P6 1.531443 1_555
O25 P7 1.531443 1_555
O26 P4 1.531443 1_555
O27 P5 1.531443 1_555
