# generated using pymatgen
data_RbMgP(H6O5)2
_symmetry_space_group_name_H-M   'P 1'
_cell_length_a   6.08473362
_cell_length_b   6.80502223
_cell_length_c   11.23454285
_cell_angle_alpha   90.00000000
_cell_angle_beta   90.00000000
_cell_angle_gamma   90.00000000
_symmetry_Int_Tables_number   1
_chemical_formula_structural   RbMgP(H6O5)2
_chemical_formula_sum   'Rb2 Mg2 P2 H24 O20'
_cell_volume   465.18587960
_cell_formula_units_Z   2
loop_
 _symmetry_equiv_pos_site_id
 _symmetry_equiv_pos_as_xyz
  1  'x, y, z'
loop_
 _atom_site_type_symbol
 _atom_site_label
 _atom_site_symmetry_multiplicity
 _atom_site_fract_x
 _atom_site_fract_y
 _atom_site_fract_z
 _atom_site_occupancy
  Rb  Rb0  1  0.35404033  0.50000000  0.22908436  1
  Rb  Rb1  1  0.64595967  -0.00000000  0.72908436  1
  Mg  Mg0  1  0.38354786  0.50000000  0.87944882  1
  Mg  Mg1  1  0.61645214  -0.00000000  0.37944882  1
  P  P0  1  0.01260088  -0.00000000  0.01232760  1
  P  P1  1  0.98739912  0.50000000  0.51232760  1
  H  H0  1  0.20351591  0.70173811  0.69040993  1
  H  H1  1  0.79648409  0.79826189  0.19040993  1
  H  H2  1  0.64115406  0.75156188  0.01168631  1
  H  H3  1  0.73067523  0.50000000  0.71457989  1
  H  H4  1  0.99665001  0.88126667  0.49979258  1
  H  H5  1  0.16362169  -0.00000000  0.34556870  1
  H  H6  1  0.35884594  0.74843812  0.51168631  1
  H  H7  1  0.35884594  0.25156188  0.51168631  1
  H  H8  1  0.26932477  -0.00000000  0.21457989  1
  H  H9  1  0.82128697  0.67741503  0.31145708  1
  H  H10  1  0.60657487  0.32439178  0.52386852  1
  H  H11  1  0.39342513  0.17560822  0.02386852  1
  H  H12  1  0.39342513  0.82439178  0.02386852  1
  H  H13  1  0.83637831  0.50000000  0.84556870  1
  H  H14  1  0.17871303  0.17741503  0.81145708  1
  H  H15  1  0.00334999  0.38126667  -0.00020742  1
  H  H16  1  0.00334999  0.61873333  -0.00020742  1
  H  H17  1  0.17871303  0.82258497  0.81145708  1
  H  H18  1  0.82128697  0.32258497  0.31145708  1
  H  H19  1  0.79648409  0.20173811  0.19040993  1
  H  H20  1  0.20351591  0.29826189  0.69040993  1
  H  H21  1  0.64115406  0.24843812  0.01168631  1
  H  H22  1  0.99665001  0.11873333  0.49979258  1
  H  H23  1  0.60657487  0.67560822  0.52386852  1
  O  O0  1  0.72831971  0.77649571  0.26970275  1
  O  O1  1  0.27168029  0.72350429  0.76970275  1
  O  O2  1  0.24213860  -0.00000000  0.07180010  1
  O  O3  1  0.48652314  0.71248745  0.99660058  1
  O  O4  1  0.93263642  -0.00000000  0.46033255  1
  O  O5  1  0.51347686  0.78751255  0.49660058  1
  O  O6  1  0.27168029  0.27649571  0.76970275  1
  O  O7  1  0.88932417  0.18583944  0.05349687  1
  O  O8  1  0.75786140  0.50000000  0.57180010  1
  O  O9  1  0.72831971  0.22350429  0.26970275  1
  O  O10  1  0.96308485  0.50000000  0.37663366  1
  O  O11  1  0.11067583  0.31416056  0.55349687  1
  O  O12  1  0.03691515  -0.00000000  0.87663366  1
  O  O13  1  0.30243896  -0.00000000  0.30171510  1
  O  O14  1  0.48652314  0.28751255  0.99660058  1
  O  O15  1  0.51347686  0.21248745  0.49660058  1
  O  O16  1  0.11067583  0.68583944  0.55349687  1
  O  O17  1  0.69756104  0.50000000  0.80171510  1
  O  O18  1  0.06736358  0.50000000  0.96033255  1
  O  O19  1  0.88932417  0.81416056  0.05349687  1
loop_
_geom_bond_atom_site_label_1
_geom_bond_atom_site_label_2
_geom_bond_distance
_geom_bond_site_symmetry_2
Mg0 O3 2.053218 1_555
Mg0 O14 2.053218 1_555
Mg0 O1 2.072868 1_555
Mg0 O6 2.072868 1_555
Mg0 O17 2.100805 1_555
Mg0 O18 2.127698 1_555
Mg1 O5 2.053218 1_545
Mg1 O15 2.053218 1_555
Mg1 O9 2.072868 1_555
Mg1 O0 2.072868 1_545
Mg1 O13 2.100805 1_555
Mg1 O4 2.127698 1_555
H0 O1 0.993743 1_555
H0 O16 1.642178 1_555
H1 O0 0.993743 1_555
H1 O19 1.642178 1_555
H2 O3 0.992320 1_554
H2 O19 1.637788 1_555
H3 O17 0.999446 1_555
H3 O8 1.612573 1_555
H4 O4 1.000540 1_565
H4 O16 1.616788 1_655
H5 O13 0.977849 1_555
H6 O5 0.992320 1_555
H6 O16 1.637788 1_555
H7 O15 0.992320 1_555
H7 O11 1.637788 1_555
H8 O13 0.999446 1_555
H8 O2 1.612573 1_555
H9 O0 0.997321 1_555
H9 O10 1.654748 1_555
H10 O15 0.997317 1_555
H10 O8 1.601696 1_555
H11 O14 0.997317 1_554
H11 O2 1.601696 1_555
H12 O3 0.997317 1_554
H12 O2 1.601696 1_565
H13 O17 0.977849 1_555
H14 O6 0.997321 1_555
H14 O12 1.654748 1_555
H15 O18 1.000540 1_554
H15 O7 1.616788 1_455
H16 O18 1.000540 1_554
H16 O19 1.616788 1_455
H17 O1 0.997321 1_555
H17 O12 1.654748 1_565
H18 O9 0.997321 1_555
H18 O10 1.654748 1_555
H19 O9 0.993743 1_555
H19 O7 1.642178 1_555
H20 O6 0.993743 1_555
H20 O11 1.642178 1_555
H21 O14 0.992320 1_554
H21 O7 1.637788 1_555
H22 O4 1.000540 1_555
H22 O11 1.616788 1_655
H23 O5 0.997317 1_555
H23 O8 1.601696 1_555
O0 Rb0 2.989149 1_555
O1 Rb1 2.989149 1_565
O2 P0 1.548265 1_555
O3 Rb0 3.092321 1_556
O5 Rb1 3.092321 1_565
O6 Rb1 2.989149 1_555
O7 P0 1.541395 1_655
O8 P1 1.548265 1_555
O9 Rb0 2.989149 1_555
O10 P1 1.531621 1_555
O10 Rb0 2.899444 1_655
O11 P1 1.541395 1_455
O12 P0 1.531621 1_556
O12 Rb1 2.899444 1_455
O14 Rb0 3.092321 1_556
O15 Rb1 3.092321 1_555
O16 P1 1.541395 1_455
O19 P0 1.541395 1_665
