# generated using pymatgen
data_Li2Fe3(P2O7)2
_symmetry_space_group_name_H-M   'P 1'
_cell_length_a   9.03612900
_cell_length_b   7.83607100
_cell_length_c   9.17762533
_cell_angle_alpha   70.90641020
_cell_angle_beta   90.00000000
_cell_angle_gamma   90.00000000
_symmetry_Int_Tables_number   1
_chemical_formula_structural   Li2Fe3(P2O7)2
_chemical_formula_sum   'Li4 Fe6 P8 O28'
_cell_volume   614.09598821
_cell_formula_units_Z   2
loop_
 _symmetry_equiv_pos_site_id
 _symmetry_equiv_pos_as_xyz
  1  'x, y, z'
loop_
 _atom_site_type_symbol
 _atom_site_label
 _atom_site_symmetry_multiplicity
 _atom_site_fract_x
 _atom_site_fract_y
 _atom_site_fract_z
 _atom_site_occupancy
  Li  Li0  1  0.52935500  0.73367400  0.84201700  1
  Li  Li1  1  0.47064500  0.26632600  0.15798300  1
  Li  Li2  1  0.97064500  0.73367400  0.34201700  1
  Li  Li3  1  0.02935500  0.26632600  0.65798300  1
  Fe  Fe0  1  0.71602000  0.51348800  0.54313000  1
  Fe  Fe1  1  0.28398000  0.48651200  0.45687000  1
  Fe  Fe2  1  0.21602000  0.48651200  0.95687000  1
  Fe  Fe3  1  0.78398000  0.51348800  0.04313000  1
  Fe  Fe4  1  0.00000000  0.00000000  0.00000000  1
  Fe  Fe5  1  0.50000000  0.00000000  0.50000000  1
  P  P0  1  0.29508300  0.89910600  0.24126600  1
  P  P1  1  0.70491700  0.10089400  0.75873400  1
  P  P2  1  0.52330000  0.62375300  0.21979200  1
  P  P3  1  0.47670000  0.37624700  0.78020800  1
  P  P4  1  0.02330000  0.37624700  0.28020800  1
  P  P5  1  0.20491700  0.89910600  0.74126600  1
  P  P6  1  0.97670000  0.62375300  0.71979200  1
  P  P7  1  0.79508300  0.10089400  0.25873400  1
  O  O0  1  0.41068300  0.37228100  0.93597600  1
  O  O1  1  0.07804700  0.80116300  0.67028700  1
  O  O2  1  0.92516400  0.54562300  0.21281500  1
  O  O3  1  0.63779900  0.63916500  0.33655900  1
  O  O4  1  0.38285100  0.03220400  0.29976200  1
  O  O5  1  0.86220100  0.63916500  0.83655900  1
  O  O6  1  0.19342500  0.99348900  0.10810400  1
  O  O7  1  0.13779900  0.36083500  0.16344100  1
  O  O8  1  0.57483600  0.54562300  0.71281500  1
  O  O9  1  0.30657500  0.99348900  0.60810400  1
  O  O10  1  0.61714900  0.96779600  0.70023800  1
  O  O11  1  0.11714900  0.03220400  0.79976200  1
  O  O12  1  0.78602600  0.25250800  0.63270600  1
  O  O13  1  0.91068300  0.62771900  0.56402400  1
  O  O14  1  0.57804700  0.19883700  0.82971300  1
  O  O15  1  0.69342500  0.00651100  0.39189600  1
  O  O16  1  0.08931700  0.37228100  0.43597600  1
  O  O17  1  0.71397400  0.25250800  0.13270600  1
  O  O18  1  0.42195300  0.80116300  0.17028700  1
  O  O19  1  0.36220100  0.36083500  0.66344100  1
  O  O20  1  0.58931700  0.62771900  0.06402400  1
  O  O21  1  0.28602600  0.74749200  0.86729400  1
  O  O22  1  0.80657500  0.00651100  0.89189600  1
  O  O23  1  0.88285100  0.96779600  0.20023800  1
  O  O24  1  0.92195300  0.19883700  0.32971300  1
  O  O25  1  0.07483600  0.45437700  0.78718500  1
  O  O26  1  0.21397400  0.74749200  0.36729400  1
  O  O27  1  0.42516400  0.45437700  0.28718500  1
loop_
_geom_bond_atom_site_label_1
_geom_bond_atom_site_label_2
_geom_bond_distance
_geom_bond_site_symmetry_2
Li0 O20 2.006884 1_556
Li0 O10 2.031370 1_555
Li0 O8 2.211227 1_555
Li0 O21 2.217315 1_555
Li1 O0 2.006884 1_554
Li1 O4 2.031370 1_555
Li1 O27 2.211227 1_555
Li1 O17 2.217315 1_555
Li2 O13 2.006884 1_555
Li2 O23 2.031370 1_555
Li2 O2 2.211227 1_555
Li2 O26 2.217315 1_655
Li3 O16 2.006884 1_555
Li3 O11 2.031370 1_555
Li3 O25 2.211227 1_555
Li3 O12 2.217315 1_455
Fe0 O3 1.960142 1_555
Fe0 O13 2.011067 1_555
Fe0 O12 2.039206 1_555
Fe0 O8 2.091104 1_555
Fe1 O19 1.960142 1_555
Fe1 O16 2.011067 1_555
Fe1 O26 2.039206 1_555
Fe1 O27 2.091104 1_555
Fe2 O7 1.960142 1_556
Fe2 O0 2.011067 1_555
Fe2 O21 2.039206 1_555
Fe2 O25 2.091104 1_555
Fe3 O5 1.960142 1_554
Fe3 O20 2.011067 1_555
Fe3 O17 2.039206 1_555
Fe3 O2 2.091104 1_555
Fe4 O22 2.002168 1_454
Fe4 O6 2.002168 1_545
Fe4 O23 2.063501 1_445
Fe4 O11 2.063501 1_554
Fe5 O15 2.002168 1_555
Fe5 O9 2.002168 1_545
Fe5 O10 2.063501 1_545
Fe5 O4 2.063501 1_555
O0 P3 1.539954 1_555
O1 P6 1.601409 1_455
O1 P5 1.629335 1_555
O2 P4 1.547070 1_655
O3 P2 1.522541 1_555
O4 P0 1.539897 1_545
O5 P6 1.522541 1_555
O6 P0 1.514278 1_555
O7 P4 1.522541 1_555
O8 P3 1.547070 1_555
O9 P5 1.514278 1_555
O10 P1 1.539897 1_565
O11 P5 1.539897 1_545
O12 P1 1.545137 1_555
O13 P6 1.539954 1_555
O14 P3 1.601409 1_555
O14 P1 1.629335 1_555
O15 P7 1.514278 1_555
O16 P4 1.539954 1_555
O17 P7 1.545137 1_555
O18 P2 1.601409 1_555
O18 P0 1.629335 1_555
O19 P3 1.522541 1_555
O20 P2 1.539954 1_555
O21 P5 1.545137 1_555
O22 P1 1.514278 1_555
O23 P7 1.539897 1_565
O24 P4 1.601409 1_655
O24 P7 1.629335 1_555
O25 P6 1.547070 1_455
O26 P0 1.545137 1_555
O27 P2 1.547070 1_555
