# generated using pymatgen
data_Cs3Nb2AsSe11
_symmetry_space_group_name_H-M   'P 1'
_cell_length_a   10.62076091
_cell_length_b   10.62076091
_cell_length_c   10.43520927
_cell_angle_alpha   84.68275406
_cell_angle_beta   84.68275406
_cell_angle_gamma   85.08424667
_symmetry_Int_Tables_number   1
_chemical_formula_structural   Cs3Nb2AsSe11
_chemical_formula_sum   'Cs6 Nb4 As2 Se22'
_cell_volume   1163.45429975
_cell_formula_units_Z   2
loop_
 _symmetry_equiv_pos_site_id
 _symmetry_equiv_pos_as_xyz
  1  'x, y, z'
loop_
 _atom_site_type_symbol
 _atom_site_label
 _atom_site_symmetry_multiplicity
 _atom_site_fract_x
 _atom_site_fract_y
 _atom_site_fract_z
 _atom_site_occupancy
  Cs  Cs0  1  0.35517400  0.20128300  0.65481900  1
  Cs  Cs1  1  0.20128300  0.35517400  0.15481900  1
  Cs  Cs2  1  0.95537400  0.81873600  0.39640200  1
  Cs  Cs3  1  0.81873600  0.95537400  0.89640200  1
  Cs  Cs4  1  0.55894400  0.71279700  0.56743300  1
  Cs  Cs5  1  0.71279700  0.55894400  0.06743300  1
  Nb  Nb0  1  0.45801600  0.91935900  0.16938800  1
  Nb  Nb1  1  0.20839100  0.80531200  0.98360600  1
  Nb  Nb2  1  0.91935900  0.45801600  0.66938800  1
  Nb  Nb3  1  0.80531200  0.20839100  0.48360600  1
  As  As0  1  0.58845700  0.25220500  0.22747600  1
  As  As1  1  0.25220500  0.58845700  0.72747600  1
  Se  Se0  1  0.43607000  0.10697300  0.32514900  1
  Se  Se1  1  0.13664900  0.04353800  0.92610100  1
  Se  Se2  1  0.37847900  0.61124000  0.91112700  1
  Se  Se3  1  0.89124900  0.46830700  0.41926700  1
  Se  Se4  1  0.80658000  0.17098900  0.23543400  1
  Se  Se5  1  0.48735200  0.09935000  0.98518500  1
  Se  Se6  1  0.61124000  0.37847900  0.41112700  1
  Se  Se7  1  0.17098900  0.80658000  0.73543400  1
  Se  Se8  1  0.66389800  0.84329000  0.22492500  1
  Se  Se9  1  0.03033600  0.69431100  0.06397600  1
  Se  Se10  1  0.69431100  0.03033600  0.56397600  1
  Se  Se11  1  0.09935000  0.48735200  0.48518500  1
  Se  Se12  1  0.69854200  0.34992200  0.68160400  1
  Se  Se13  1  0.46830700  0.89124900  0.91926700  1
  Se  Se14  1  0.18696500  0.98414800  0.14243100  1
  Se  Se15  1  0.98414800  0.18696500  0.64243100  1
  Se  Se16  1  0.84329000  0.66389800  0.72492500  1
  Se  Se17  1  0.82355700  0.30840500  0.86313600  1
  Se  Se18  1  0.30840500  0.82355700  0.36313600  1
  Se  Se19  1  0.04353800  0.13664900  0.42610100  1
  Se  Se20  1  0.34992200  0.69854200  0.18160400  1
  Se  Se21  1  0.10697300  0.43607000  0.82514900  1
loop_
_geom_bond_atom_site_label_1
_geom_bond_atom_site_label_2
_geom_bond_distance
_geom_bond_site_symmetry_2
Cs0 Se0 3.676905 1_555
Cs0 Se1 3.844087 1_555
Cs0 Se5 3.869417 1_555
Cs0 Se21 3.892663 1_555
Cs0 Se10 3.966613 1_555
Cs0 Se15 3.970988 1_455
Cs0 Se6 4.014121 1_555
Cs0 Se12 4.138480 1_555
Cs0 Se13 4.260731 1_545
Cs0 Se11 4.269279 1_555
Cs1 Se21 3.676905 1_554
Cs1 Se19 3.844087 1_555
Cs1 Se11 3.869417 1_555
Cs1 Se0 3.892663 1_555
Cs1 Se9 3.966613 1_555
Cs1 Se14 3.970988 1_545
Cs1 Se2 4.014121 1_554
Cs1 Se20 4.138480 1_555
Cs1 Se3 4.260731 1_455
Cs1 Se5 4.269279 1_554
Cs2 Se19 3.628087 1_665
Cs2 Se8 3.695285 1_555
Cs2 Se18 3.737637 1_655
Cs2 Se11 3.784138 1_655
Cs2 Se16 3.795827 1_555
Cs2 Se10 3.815503 1_565
Cs2 Se9 3.817217 1_655
Cs2 Se3 3.822622 1_555
Cs2 Se14 3.850917 1_655
Cs3 Se1 3.628087 1_665
Cs3 Se16 3.695285 1_555
Cs3 Se17 3.737637 1_565
Cs3 Se5 3.784138 1_565
Cs3 Se8 3.795827 1_556
Cs3 Se9 3.815503 1_656
Cs3 Se10 3.817217 1_565
Cs3 Se13 3.822622 1_555
Cs3 Se15 3.850917 1_565
Cs4 Se16 3.547366 1_555
Cs4 Se18 3.613769 1_555
Cs4 Se10 3.773710 1_565
Cs4 Se8 3.813937 1_555
Cs4 Se2 4.007920 1_555
Cs4 Se6 4.017959 1_555
Cs4 Se12 4.119235 1_555
Cs4 Se13 4.280235 1_555
Cs5 Se8 3.547366 1_555
Cs5 Se17 3.613769 1_554
Cs5 Se9 3.773710 1_655
Cs5 Se16 3.813937 1_554
Cs5 Se6 4.007920 1_555
Cs5 Se2 4.017959 1_554
Cs5 Se20 4.119235 1_555
Cs5 Se3 4.280235 1_555
Nb0 Se8 2.369649 1_555
Nb0 Se5 2.599293 1_564
Nb0 Se18 2.635947 1_555
Nb0 Se13 2.645652 1_554
Nb0 Se0 2.667804 1_565
Nb0 Se20 2.685762 1_555
Nb0 Se14 2.935073 1_555
Nb1 Se9 2.360992 1_556
Nb1 Se1 2.610599 1_565
Nb1 Se14 2.616440 1_556
Nb1 Se7 2.654797 1_555
Nb1 Se2 2.735222 1_555
Nb1 Se20 2.768329 1_556
Nb1 Se13 2.979754 1_555
Nb2 Se16 2.369649 1_555
Nb2 Se11 2.599293 1_655
Nb2 Se17 2.635947 1_555
Nb2 Se3 2.645652 1_555
Nb2 Se21 2.667804 1_655
Nb2 Se12 2.685762 1_555
Nb2 Se15 2.935073 1_555
Nb3 Se10 2.360992 1_555
Nb3 Se19 2.610599 1_655
Nb3 Se15 2.616440 1_555
Nb3 Se4 2.654797 1_555
Nb3 Se6 2.735222 1_555
Nb3 Se12 2.768329 1_555
Nb3 Se3 2.979754 1_555
As0 Se4 2.407827 1_555
As0 Se0 2.422443 1_555
As0 Se6 2.479480 1_555
As0 Cs5 3.803491 1_555
As0 Cs1 4.281766 1_555
As1 Se7 2.407827 1_555
As1 Se21 2.422443 1_555
As1 Se2 2.479480 1_555
As1 Cs4 3.803491 1_555
As1 Cs0 4.281766 1_555
Se1 Se14 2.383575 1_546
Se12 Se17 2.399343 1_555
Se15 Se19 2.383575 1_655
Se18 Se20 2.399343 1_555
