# generated using pymatgen
data_AsH3CNOF9
_symmetry_space_group_name_H-M   'P 1'
_cell_length_a   5.25527900
_cell_length_b   8.48018241
_cell_length_c   8.94551791
_cell_angle_alpha   90.16391435
_cell_angle_beta   94.02331495
_cell_angle_gamma   104.07689573
_symmetry_Int_Tables_number   1
_chemical_formula_structural   AsH3CNOF9
_chemical_formula_sum   'As2 H6 C2 N2 O2 F18'
_cell_volume   385.65691732
_cell_formula_units_Z   2
loop_
 _symmetry_equiv_pos_site_id
 _symmetry_equiv_pos_as_xyz
  1  'x, y, z'
loop_
 _atom_site_type_symbol
 _atom_site_label
 _atom_site_symmetry_multiplicity
 _atom_site_fract_x
 _atom_site_fract_y
 _atom_site_fract_z
 _atom_site_occupancy
  As  As0  1  0.98534600  0.74833000  0.66135500  1
  As  As1  1  0.01465400  0.25167000  0.33864500  1
  H  H0  1  0.36550900  0.70765500  0.35919000  1
  H  H1  1  0.63449100  0.29234500  0.64081000  1
  H  H2  1  0.60615300  0.86837000  0.30710300  1
  H  H3  1  0.39384700  0.13163000  0.69289700  1
  H  H4  1  0.56151400  0.54381300  0.25570100  1
  H  H5  1  0.43848600  0.45618700  0.74429900  1
  C  C0  1  0.31447100  0.77698100  0.13267600  1
  C  C1  1  0.68552900  0.22301900  0.86732400  1
  N  N0  1  0.48467800  0.75471600  0.27260200  1
  N  N1  1  0.51532200  0.24528400  0.72739800  1
  O  O0  1  0.65497700  0.65710700  0.23827800  1
  O  O1  1  0.34502300  0.34289300  0.76172200  1
  F  F0  1  0.13288500  0.75702600  0.48695600  1
  F  F1  1  0.86711500  0.24297400  0.51304400  1
  F  F2  1  0.20502200  0.93989400  0.71696300  1
  F  F3  1  0.79497800  0.06010600  0.28303700  1
  F  F4  1  0.76493800  0.55751600  0.60664800  1
  F  F5  1  0.23506200  0.44248400  0.39335200  1
  F  F6  1  0.75814200  0.85051000  0.57763800  1
  F  F7  1  0.24185800  0.14949000  0.42236200  1
  F  F8  1  0.21880100  0.64689500  0.73847000  1
  F  F9  1  0.78119900  0.35310500  0.26153000  1
  F  F10  1  0.84209600  0.74191400  0.83347500  1
  F  F11  1  0.15790400  0.25808600  0.16652500  1
  F  F12  1  0.47264000  0.83348600  0.02516200  1
  F  F13  1  0.52736000  0.16651400  0.97483800  1
  F  F14  1  0.17629900  0.88323700  0.16720000  1
  F  F15  1  0.82370100  0.11676300  0.83280000  1
  F  F16  1  0.15715800  0.63231500  0.09275500  1
  F  F17  1  0.84284200  0.36768500  0.90724500  1
loop_
_geom_bond_atom_site_label_1
_geom_bond_atom_site_label_2
_geom_bond_distance
_geom_bond_site_symmetry_2
As0 F10 1.756015 1_555
As0 F6 1.766035 1_555
As0 F8 1.766071 1_655
As0 F0 1.784120 1_655
As0 F4 1.789892 1_555
As0 F2 1.794914 1_655
As1 F11 1.756015 1_555
As1 F7 1.766035 1_555
As1 F9 1.766071 1_455
As1 F1 1.784120 1_455
As1 F5 1.789892 1_555
As1 F3 1.794914 1_455
H0 N0 1.048668 1_555
H1 N1 1.048668 1_555
H2 N0 1.050267 1_555
H3 N1 1.050267 1_555
H4 O0 0.985209 1_555
H5 O1 0.985209 1_555
C0 F12 1.329136 1_555
C0 F16 1.333689 1_555
C0 F14 1.335190 1_555
C0 N0 1.526083 1_555
C1 F13 1.329136 1_555
C1 F17 1.333689 1_555
C1 F15 1.335190 1_555
C1 N1 1.526083 1_555
N0 O0 1.406368 1_555
N1 O1 1.406368 1_555
