# generated using pymatgen
data_La2Mn3PbO9
_symmetry_space_group_name_H-M   'P 1'
_cell_length_a   5.61056764
_cell_length_b   5.61056764
_cell_length_c   13.53682300
_cell_angle_alpha   90.00000000
_cell_angle_beta   90.00000000
_cell_angle_gamma   119.99999573
_symmetry_Int_Tables_number   1
_chemical_formula_structural   La2Mn3PbO9
_chemical_formula_sum   'La4 Mn6 Pb2 O18'
_cell_volume   369.02943261
_cell_formula_units_Z   2
loop_
 _symmetry_equiv_pos_site_id
 _symmetry_equiv_pos_as_xyz
  1  'x, y, z'
loop_
 _atom_site_type_symbol
 _atom_site_label
 _atom_site_symmetry_multiplicity
 _atom_site_fract_x
 _atom_site_fract_y
 _atom_site_fract_z
 _atom_site_occupancy
  La  La0  1  0.33333300  0.66666700  0.08447600  1
  La  La1  1  0.66666700  0.33333300  0.41552400  1
  La  La2  1  0.33333300  0.66666700  0.58447600  1
  La  La3  1  0.66666700  0.33333300  0.91552400  1
  Mn  Mn0  1  0.00000000  0.00000000  0.50000000  1
  Mn  Mn1  1  0.33333300  0.66666700  0.83370100  1
  Mn  Mn2  1  0.66666700  0.33333300  0.16629900  1
  Mn  Mn3  1  0.66666700  0.33333300  0.66629900  1
  Mn  Mn4  1  0.00000000  0.00000000  0.00000000  1
  Mn  Mn5  1  0.33333300  0.66666700  0.33370100  1
  Pb  Pb0  1  0.00000000  0.00000000  0.75000000  1
  Pb  Pb1  1  0.00000000  0.00000000  0.25000000  1
  O  O0  1  0.54454400  0.54454400  0.25000000  1
  O  O1  1  0.76709000  0.65815900  0.57801300  1
  O  O2  1  0.34184100  0.10893000  0.57801300  1
  O  O3  1  0.89107000  0.23291000  0.57801300  1
  O  O4  1  0.00000000  0.54454400  0.75000000  1
  O  O5  1  0.54454400  0.00000000  0.75000000  1
  O  O6  1  0.10893000  0.34184100  0.92198700  1
  O  O7  1  0.65815900  0.76709000  0.92198700  1
  O  O8  1  0.76709000  0.10893000  0.07801300  1
  O  O9  1  0.23291000  0.89107000  0.92198700  1
  O  O10  1  0.34184100  0.23291000  0.07801300  1
  O  O11  1  0.89107000  0.65815900  0.07801300  1
  O  O12  1  0.45545600  0.00000000  0.25000000  1
  O  O13  1  0.00000000  0.45545600  0.25000000  1
  O  O14  1  0.10893000  0.76709000  0.42198700  1
  O  O15  1  0.65815900  0.89107000  0.42198700  1
  O  O16  1  0.23291000  0.34184100  0.42198700  1
  O  O17  1  0.45545600  0.45545600  0.75000000  1
loop_
_geom_bond_atom_site_label_1
_geom_bond_atom_site_label_2
_geom_bond_distance
_geom_bond_site_symmetry_2
La0 O11 2.459383 1_455
La0 O8 2.459389 1_565
La0 O10 2.459395 1_555
La0 O9 2.729497 1_554
La0 O7 2.729497 1_554
La0 O6 2.729497 1_554
La0 O12 2.776014 1_565
La0 O13 2.776015 1_555
La0 O0 2.776017 1_555
La1 O15 2.459383 1_545
La1 O14 2.459389 1_655
La1 O16 2.459395 1_555
La1 O3 2.729497 1_555
La1 O1 2.729497 1_555
La1 O2 2.729497 1_555
La1 O13 2.776014 1_655
La1 O12 2.776015 1_555
La1 O0 2.776017 1_555
La2 O2 2.459383 1_565
La2 O3 2.459389 1_455
La2 O1 2.459395 1_555
La2 O14 2.729497 1_555
La2 O16 2.729497 1_555
La2 O15 2.729497 1_555
La2 O4 2.776014 1_555
La2 O5 2.776015 1_565
La2 O17 2.776017 1_555
La3 O6 2.459383 1_655
La3 O9 2.459389 1_545
La3 O7 2.459395 1_555
La3 O8 2.729497 1_556
La3 O10 2.729497 1_556
La3 O11 2.729497 1_556
La3 O5 2.776014 1_555
La3 O4 2.776015 1_655
La3 O17 2.776017 1_555
Mn0 O3 1.998751 1_455
Mn0 O14 1.998751 1_545
Mn0 O1 1.998754 1_445
Mn0 O16 1.998754 1_555
Mn0 O15 1.998755 1_445
Mn0 O2 1.998755 1_555
Mn1 O4 1.992348 1_555
Mn1 O5 1.992349 1_565
Mn1 O17 1.992352 1_555
Mn1 O9 2.010043 1_555
Mn1 O7 2.010043 1_555
Mn1 O6 2.010043 1_555
Mn2 O13 1.992348 1_655
Mn2 O12 1.992349 1_555
Mn2 O0 1.992352 1_555
Mn2 O8 2.010043 1_555
Mn2 O10 2.010043 1_555
Mn2 O11 2.010043 1_555
Mn3 O5 1.992348 1_555
Mn3 O4 1.992349 1_655
Mn3 O17 1.992352 1_555
Mn3 O3 2.010043 1_555
Mn3 O1 2.010043 1_555
Mn3 O2 2.010043 1_555
Mn4 O8 1.998751 1_455
Mn4 O9 1.998751 1_544
Mn4 O7 1.998754 1_444
Mn4 O10 1.998754 1_555
Mn4 O11 1.998755 1_445
Mn4 O6 1.998755 1_554
Mn5 O12 1.992348 1_565
Mn5 O13 1.992349 1_555
Mn5 O0 1.992352 1_555
Mn5 O14 2.010043 1_555
Mn5 O16 2.010043 1_555
Mn5 O15 2.010043 1_555
O0 Pb1 2.555367 1_665
O4 Pb0 2.555367 1_565
O5 Pb0 2.555367 1_655
O12 Pb1 2.555367 1_555
O13 Pb1 2.555367 1_555
O17 Pb0 2.555367 1_555
