# generated using pymatgen
data_VSb2O5
_symmetry_space_group_name_H-M   'P 1'
_cell_length_a   4.94916200
_cell_length_b   5.62659300
_cell_length_c   18.03760000
_cell_angle_alpha   90.00000000
_cell_angle_beta   90.00000000
_cell_angle_gamma   90.00000000
_symmetry_Int_Tables_number   1
_chemical_formula_structural   VSb2O5
_chemical_formula_sum   'V4 Sb8 O20'
_cell_volume   502.29160897
_cell_formula_units_Z   4
loop_
 _symmetry_equiv_pos_site_id
 _symmetry_equiv_pos_as_xyz
  1  'x, y, z'
loop_
 _atom_site_type_symbol
 _atom_site_label
 _atom_site_symmetry_multiplicity
 _atom_site_fract_x
 _atom_site_fract_y
 _atom_site_fract_z
 _atom_site_occupancy
  V  V0  1  0.87938200  0.67469300  0.25000000  1
  V  V1  1  0.37938200  0.82530700  0.75000000  1
  V  V2  1  0.62061800  0.17469300  0.25000000  1
  V  V3  1  0.12061800  0.32530700  0.75000000  1
  Sb  Sb0  1  0.03362400  0.67601800  0.58847400  1
  Sb  Sb1  1  0.96637600  0.32398200  0.41152600  1
  Sb  Sb2  1  0.46637600  0.17601800  0.91152600  1
  Sb  Sb3  1  0.03362400  0.67601800  0.91152600  1
  Sb  Sb4  1  0.53362400  0.82398200  0.41152600  1
  Sb  Sb5  1  0.46637600  0.17601800  0.58847400  1
  Sb  Sb6  1  0.96637600  0.32398200  0.08847400  1
  Sb  Sb7  1  0.53362400  0.82398200  0.08847400  1
  O  O0  1  0.24092700  0.07334500  0.67858700  1
  O  O1  1  0.66007000  0.13453700  0.04285500  1
  O  O2  1  0.16007000  0.36546300  0.54285500  1
  O  O3  1  0.28859600  0.15993000  0.25000000  1
  O  O4  1  0.33993000  0.86546300  0.95714500  1
  O  O5  1  0.74092700  0.42665500  0.32141300  1
  O  O6  1  0.66007000  0.13453700  0.45714500  1
  O  O7  1  0.74092700  0.42665500  0.17858700  1
  O  O8  1  0.21140400  0.65993000  0.25000000  1
  O  O9  1  0.78859600  0.34007000  0.75000000  1
  O  O10  1  0.83993000  0.63453700  0.45714500  1
  O  O11  1  0.75907300  0.92665500  0.32141300  1
  O  O12  1  0.25907300  0.57334500  0.67858700  1
  O  O13  1  0.71140400  0.84007000  0.75000000  1
  O  O14  1  0.75907300  0.92665500  0.17858700  1
  O  O15  1  0.25907300  0.57334500  0.82141300  1
  O  O16  1  0.16007000  0.36546300  0.95714500  1
  O  O17  1  0.83993000  0.63453700  0.04285500  1
  O  O18  1  0.33993000  0.86546300  0.54285500  1
  O  O19  1  0.24092700  0.07334500  0.82141300  1
loop_
_geom_bond_atom_site_label_1
_geom_bond_atom_site_label_2
_geom_bond_distance
_geom_bond_site_symmetry_2
O0 V3 2.005897 1_555
O0 V1 2.019040 1_545
O0 Sb5 2.054436 1_555
O1 Sb6 2.027666 1_555
O1 Sb7 2.030274 1_545
O1 Sb2 2.566112 1_554
O2 Sb5 2.027666 1_555
O2 Sb0 2.030274 1_555
O2 Sb1 2.566112 1_455
O3 V2 1.645329 1_555
O4 Sb3 2.027666 1_555
O4 Sb2 2.030274 1_565
O4 Sb7 2.566112 1_556
O5 V2 2.005897 1_555
O5 V0 2.019040 1_555
O5 Sb1 2.054436 1_555
O6 Sb1 2.027666 1_555
O6 Sb4 2.030274 1_545
O6 Sb5 2.566112 1_555
O7 V2 2.005897 1_555
O7 V0 2.019040 1_555
O7 Sb6 2.054436 1_555
O8 V0 1.645329 1_455
O9 V3 1.645329 1_655
O10 Sb4 2.027666 1_555
O10 Sb1 2.030274 1_555
O10 Sb0 2.566112 1_655
O11 V0 2.005897 1_555
O11 V2 2.019040 1_565
O11 Sb4 2.054436 1_555
O12 V1 2.005897 1_555
O12 V3 2.019040 1_555
O12 Sb0 2.054436 1_555
O13 V1 1.645329 1_555
O14 V0 2.005897 1_555
O14 V2 2.019040 1_565
O14 Sb7 2.054436 1_555
O15 V1 2.005897 1_555
O15 V3 2.019040 1_555
O15 Sb3 2.054436 1_555
O16 Sb2 2.027666 1_555
O16 Sb3 2.030274 1_555
O16 Sb6 2.566112 1_456
O17 Sb7 2.027666 1_555
O17 Sb6 2.030274 1_555
O17 Sb3 2.566112 1_654
O18 Sb0 2.027666 1_555
O18 Sb5 2.030274 1_565
O18 Sb4 2.566112 1_555
O19 V3 2.005897 1_555
O19 V1 2.019040 1_545
O19 Sb2 2.054436 1_555
