# generated using pymatgen
data_CrH9C6(S2O)3
_symmetry_space_group_name_H-M   'P 1'
_cell_length_a   14.07020100
_cell_length_b   9.77934700
_cell_length_c   12.75531790
_cell_angle_alpha   59.91663332
_cell_angle_beta   90.00000000
_cell_angle_gamma   90.00000000
_symmetry_Int_Tables_number   1
_chemical_formula_structural   CrH9C6(S2O)3
_chemical_formula_sum   'Cr4 H36 C24 S24 O12'
_cell_volume   1518.68124875
_cell_formula_units_Z   4
loop_
 _symmetry_equiv_pos_site_id
 _symmetry_equiv_pos_as_xyz
  1  'x, y, z'
loop_
 _atom_site_type_symbol
 _atom_site_label
 _atom_site_symmetry_multiplicity
 _atom_site_fract_x
 _atom_site_fract_y
 _atom_site_fract_z
 _atom_site_occupancy
  Cr  Cr0  1  0.98434000  0.59078600  0.23164000  1
  Cr  Cr1  1  0.51566000  0.59078600  0.73164000  1
  Cr  Cr2  1  0.01566000  0.40921400  0.76836000  1
  Cr  Cr3  1  0.48434000  0.40921400  0.26836000  1
  H  H0  1  0.03386800  0.93857500  0.30048900  1
  H  H1  1  0.46613200  0.93857500  0.80048900  1
  H  H2  1  0.96613200  0.06142500  0.69951100  1
  H  H3  1  0.53386800  0.06142500  0.19951100  1
  H  H4  1  0.02582900  0.12375500  0.16110300  1
  H  H5  1  0.47417100  0.12375500  0.66110300  1
  H  H6  1  0.97417100  0.87624500  0.83889700  1
  H  H7  1  0.52582900  0.87624500  0.33889700  1
  H  H8  1  0.12163400  0.09062300  0.26430600  1
  H  H9  1  0.37836600  0.09062300  0.76430600  1
  H  H10  1  0.87836600  0.90937700  0.73569400  1
  H  H11  1  0.62163400  0.90937700  0.23569400  1
  H  H12  1  0.63067600  0.95765800  0.98662200  1
  H  H13  1  0.86932400  0.95765800  0.48662200  1
  H  H14  1  0.36932400  0.04234200  0.01337800  1
  H  H15  1  0.13067600  0.04234200  0.51337800  1
  H  H16  1  0.73822500  0.92885400  0.92522500  1
  H  H17  1  0.76177500  0.92885400  0.42522500  1
  H  H18  1  0.26177500  0.07114600  0.07477500  1
  H  H19  1  0.23822500  0.07114600  0.57477500  1
  H  H20  1  0.66427300  0.76155300  0.02083700  1
  H  H21  1  0.83572700  0.76155300  0.52083700  1
  H  H22  1  0.33572700  0.23844700  0.97916300  1
  H  H23  1  0.16427300  0.23844700  0.47916300  1
  H  H24  1  0.33267400  0.82873700  0.36475500  1
  H  H25  1  0.16732600  0.82873700  0.86475500  1
  H  H26  1  0.66732600  0.17126300  0.63524500  1
  H  H27  1  0.83267400  0.17126300  0.13524500  1
  H  H28  1  0.30110200  0.62723000  0.41127600  1
  H  H29  1  0.19889800  0.62723000  0.91127600  1
  H  H30  1  0.69889800  0.37277000  0.58872400  1
  H  H31  1  0.80110200  0.37277000  0.08872400  1
  H  H32  1  0.22469200  0.74592800  0.44700200  1
  H  H33  1  0.27530800  0.74592800  0.94700200  1
  H  H34  1  0.77530800  0.25407200  0.55299800  1
  H  H35  1  0.72469200  0.25407200  0.05299800  1
  C  C0  1  0.04678700  0.06573100  0.25665000  1
  C  C1  1  0.45321300  0.06573100  0.75665000  1
  C  C2  1  0.95321300  0.93426900  0.74335000  1
  C  C3  1  0.54678700  0.93426900  0.24335000  1
  C  C4  1  0.68992300  0.87718200  0.00296100  1
  C  C5  1  0.81007700  0.87718200  0.50296100  1
  C  C6  1  0.31007700  0.12281800  0.99703900  1
  C  C7  1  0.18992300  0.12281800  0.49703900  1
  C  C8  1  0.27431100  0.74685600  0.38041600  1
  C  C9  1  0.22568900  0.74685600  0.88041600  1
  C  C10  1  0.72568900  0.25314400  0.61958400  1
  C  C11  1  0.77431100  0.25314400  0.11958400  1
  C  C12  1  0.98893100  0.27305200  0.28883100  1
  C  C13  1  0.51106900  0.27305200  0.78883100  1
  C  C14  1  0.01106900  0.72694800  0.71116900  1
  C  C15  1  0.48893100  0.72694800  0.21116900  1
  C  C16  1  0.81621900  0.76932600  0.14742700  1
  C  C17  1  0.68378100  0.76932600  0.64742700  1
  C  C18  1  0.18378100  0.23067400  0.85257300  1
  C  C19  1  0.31621900  0.23067400  0.35257300  1
  C  C20  1  0.15079900  0.73253800  0.25676200  1
  C  C21  1  0.34920100  0.73253800  0.75676200  1
  C  C22  1  0.84920100  0.26746200  0.74323800  1
  C  C23  1  0.65079900  0.26746200  0.24323800  1
  S  S0  1  0.05920400  0.40869100  0.17723000  1
  S  S1  1  0.44079600  0.40869100  0.67723000  1
  S  S2  1  0.94079600  0.59130900  0.82277000  1
  S  S3  1  0.55920400  0.59130900  0.32277000  1
  S  S4  1  0.91631000  0.33061200  0.36581000  1
  S  S5  1  0.58369000  0.33061200  0.86581000  1
  S  S6  1  0.08369000  0.66938800  0.63419000  1
  S  S7  1  0.41631000  0.66938800  0.13419000  1
  S  S8  1  0.86401300  0.68250200  0.07314400  1
  S  S9  1  0.63598700  0.68250200  0.57314400  1
  S  S10  1  0.13598700  0.31749800  0.92685600  1
  S  S11  1  0.36401300  0.31749800  0.42685600  1
  S  S12  1  0.86911200  0.74177400  0.27614500  1
  S  S13  1  0.63088800  0.74177400  0.77614500  1
  S  S14  1  0.13088800  0.25822600  0.72385500  1
  S  S15  1  0.36911200  0.25822600  0.22385500  1
  S  S16  1  0.09708400  0.80738200  0.11959100  1
  S  S17  1  0.40291600  0.80738200  0.61959100  1
  S  S18  1  0.90291600  0.19261800  0.88040900  1
  S  S19  1  0.59708400  0.19261800  0.38040900  1
  S  S20  1  0.10352400  0.57102700  0.37767200  1
  S  S21  1  0.39647600  0.57102700  0.87767200  1
  S  S22  1  0.89647600  0.42897300  0.62232800  1
  S  S23  1  0.60352400  0.42897300  0.12232800  1
  O  O0  1  0.98719200  0.12018600  0.32137700  1
  O  O1  1  0.51280800  0.12018600  0.82137700  1
  O  O2  1  0.01280800  0.87981400  0.67862300  1
  O  O3  1  0.48719200  0.87981400  0.17862300  1
  O  O4  1  0.73846300  0.85906600  0.10988100  1
  O  O5  1  0.76153700  0.85906600  0.60988100  1
  O  O6  1  0.26153700  0.14093400  0.89011900  1
  O  O7  1  0.23846300  0.14093400  0.39011900  1
  O  O8  1  0.22748800  0.80774400  0.26383900  1
  O  O9  1  0.27251200  0.80774400  0.76383900  1
  O  O10  1  0.77251200  0.19225600  0.73616100  1
  O  O11  1  0.72748800  0.19225600  0.23616100  1
loop_
_geom_bond_atom_site_label_1
_geom_bond_atom_site_label_2
_geom_bond_distance
_geom_bond_site_symmetry_2
Cr0 S8 2.437231 1_555
Cr0 S4 2.439956 1_555
Cr0 S20 2.440950 1_655
Cr0 S12 2.443639 1_555
Cr0 S0 2.449765 1_655
Cr0 S16 2.451692 1_655
Cr1 S9 2.437231 1_555
Cr1 S5 2.439956 1_555
Cr1 S21 2.440950 1_555
Cr1 S13 2.443639 1_555
Cr1 S1 2.449765 1_555
Cr1 S17 2.451692 1_555
Cr2 S10 2.437231 1_555
Cr2 S6 2.439956 1_555
Cr2 S22 2.440950 1_455
Cr2 S14 2.443639 1_555
Cr2 S2 2.449765 1_455
Cr2 S18 2.451692 1_455
Cr3 S11 2.437231 1_555
Cr3 S7 2.439956 1_555
Cr3 S23 2.440950 1_555
Cr3 S15 2.443639 1_555
Cr3 S3 2.449765 1_555
Cr3 S19 2.451692 1_555
C0 H0 1.093128 1_545
C0 H4 1.095880 1_555
C0 H8 1.096207 1_555
C0 O0 1.452278 1_455
C1 H1 1.093128 1_545
C1 H5 1.095880 1_555
C1 H9 1.096207 1_555
C1 O1 1.452278 1_555
C2 H2 1.093128 1_565
C2 H6 1.095880 1_555
C2 H10 1.096207 1_555
C2 O2 1.452278 1_655
C3 H3 1.093128 1_565
C3 H7 1.095880 1_555
C3 H11 1.096207 1_555
C3 O3 1.452278 1_555
C4 H12 1.092380 1_554
C4 H16 1.094571 1_554
C4 H20 1.096545 1_555
C4 O4 1.454495 1_555
C5 H13 1.092380 1_555
C5 H17 1.094571 1_555
C5 H21 1.096545 1_555
C5 O5 1.454495 1_555
C6 H14 1.092380 1_556
C6 H18 1.094571 1_556
C6 H22 1.096545 1_555
C6 O6 1.454495 1_555
C7 H15 1.092380 1_555
C7 H19 1.094571 1_555
C7 H23 1.096545 1_555
C7 O7 1.454495 1_555
C8 H24 1.093192 1_555
C8 H32 1.095957 1_555
C8 H28 1.097255 1_555
C8 O8 1.453286 1_555
C9 H25 1.093192 1_555
C9 H33 1.095957 1_555
C9 H29 1.097255 1_555
C9 O9 1.453286 1_555
C10 H26 1.093192 1_555
C10 H34 1.095957 1_555
C10 H30 1.097255 1_555
C10 O10 1.453286 1_555
C11 H27 1.093192 1_555
C11 H35 1.095957 1_555
C11 H31 1.097255 1_555
C11 O11 1.453286 1_555
C12 O0 1.336260 1_555
C12 S0 1.694262 1_655
C12 S4 1.696798 1_555
C13 O1 1.336260 1_555
C13 S1 1.694262 1_555
C13 S5 1.696798 1_555
C14 O2 1.336260 1_555
C14 S2 1.694262 1_455
C14 S6 1.696798 1_555
C15 O3 1.336260 1_555
C15 S3 1.694262 1_555
C15 S7 1.696798 1_555
C16 O4 1.332334 1_555
C16 S8 1.696306 1_555
C16 S12 1.696643 1_555
C17 O5 1.332334 1_555
C17 S9 1.696306 1_555
C17 S13 1.696643 1_555
C18 O6 1.332334 1_555
C18 S10 1.696306 1_555
C18 S14 1.696643 1_555
C19 O7 1.332334 1_555
C19 S11 1.696306 1_555
C19 S15 1.696643 1_555
C20 O8 1.334137 1_555
C20 S20 1.695179 1_555
C20 S16 1.698347 1_555
C21 O9 1.334137 1_555
C21 S21 1.695179 1_555
C21 S17 1.698347 1_555
C22 O10 1.334137 1_555
C22 S22 1.695179 1_555
C22 S18 1.698347 1_555
C23 O11 1.334137 1_555
C23 S23 1.695179 1_555
C23 S19 1.698347 1_555
