# generated using pymatgen
data_Na4Al11Si13Ag7O48
_symmetry_space_group_name_H-M   'P 1'
_cell_length_a   12.08672600
_cell_length_b   12.45522932
_cell_length_c   12.79279253
_cell_angle_alpha   90.17142058
_cell_angle_beta   91.25661537
_cell_angle_gamma   90.04184286
_symmetry_Int_Tables_number   1
_chemical_formula_structural   Na4Al11Si13Ag7O48
_chemical_formula_sum   'Na4 Al11 Si13 Ag7 O48'
_cell_volume   1925.39225559
_cell_formula_units_Z   1
loop_
 _symmetry_equiv_pos_site_id
 _symmetry_equiv_pos_as_xyz
  1  'x, y, z'
loop_
 _atom_site_type_symbol
 _atom_site_label
 _atom_site_symmetry_multiplicity
 _atom_site_fract_x
 _atom_site_fract_y
 _atom_site_fract_z
 _atom_site_occupancy
  Na  Na0  1  0.44446700  0.00255200  0.60524300  1
  Na  Na1  1  0.00405100  0.39459600  0.57084900  1
  Na  Na2  1  0.97937600  0.60431100  0.57427300  1
  Na  Na3  1  0.18891200  0.80120900  0.78519200  1
  Al  Al0  1  0.99845900  0.18885700  0.36680500  1
  Al  Al1  1  0.20364100  0.00140800  0.37729000  1
  Al  Al2  1  0.00360900  0.81129800  0.37045500  1
  Al  Al3  1  0.78883000  0.99711500  0.61127900  1
  Al  Al4  1  0.99443700  0.18422400  0.61462100  1
  Al  Al5  1  0.19767700  0.00097200  0.61973500  1
  Al  Al6  1  0.99461400  0.81607400  0.61772700  1
  Al  Al7  1  0.63481600  0.00204500  0.82596100  1
  Al  Al8  1  0.99585300  0.37053300  0.81844700  1
  Al  Al9  1  0.00039600  0.62808200  0.81845600  1
  Al  Al10  1  0.35768100  0.99761100  0.83991400  1
  Si  Si0  1  0.63530600  0.18417400  0.00100400  1
  Si  Si1  1  0.81273300  0.37165300  0.99911300  1
  Si  Si2  1  0.18659900  0.37149000  0.00688300  1
  Si  Si3  1  0.63440200  0.81612900  0.99943700  1
  Si  Si4  1  0.18792700  0.62712100  0.00630200  1
  Si  Si5  1  0.36868500  0.81402500  0.00522000  1
  Si  Si6  1  0.63736100  0.00134500  0.17213500  1
  Si  Si7  1  0.00147100  0.37241100  0.17850000  1
  Si  Si8  1  0.00232900  0.62610000  0.17805500  1
  Si  Si9  1  0.37721800  0.00124900  0.17867300  1
  Si  Si10  1  0.81323700  0.00177000  0.36387200  1
  Si  Si11  1  0.36874300  0.18543300  0.00487700  1
  Si  Si12  1  0.81312500  0.62603100  0.99680100  1
  Ag  Ag0  1  0.19246900  0.81544400  0.20417600  1
  Ag  Ag1  1  0.19099500  0.18894400  0.20815000  1
  Ag  Ag2  1  0.81247800  0.80209100  0.20005800  1
  Ag  Ag3  1  0.16772300  0.17553300  0.80216400  1
  Ag  Ag4  1  0.82692100  0.17238900  0.79975700  1
  Ag  Ag5  1  0.82505500  0.82764800  0.79942200  1
  Ag  Ag6  1  0.99323600  0.00387200  0.76803600  1
  O  O0  1  0.50115200  0.21076500  0.99528800  1
  O  O1  1  0.30095400  0.29946100  0.01642200  1
  O  O2  1  0.21927400  0.49934600  0.01371400  1
  O  O3  1  0.30151900  0.69981100  0.02047500  1
  O  O4  1  0.34787100  0.11340600  0.11250500  1
  O  O5  1  0.88973200  0.64862400  0.10438400  1
  O  O6  1  0.11318800  0.65857800  0.11008800  1
  O  O7  1  0.34518600  0.89068800  0.10952800  1
  O  O8  1  0.66054400  0.10866100  0.10400200  1
  O  O9  1  0.89405500  0.35528100  0.10144700  1
  O  O10  1  0.11578800  0.34141200  0.11277700  1
  O  O11  1  0.66521200  0.88892500  0.10577200  1
  O  O12  1  0.50828900  0.99732300  0.20177800  1
  O  O13  1  0.00962100  0.50013200  0.21000800  1
  O  O14  1  0.31056300  0.00074800  0.28373000  1
  O  O15  1  0.99569300  0.70266000  0.27807700  1
  O  O16  1  0.70833800  0.99612300  0.27794700  1
  O  O17  1  0.99894800  0.30037800  0.28063700  1
  O  O18  1  0.88539700  0.10624300  0.33830400  1
  O  O19  1  0.12343700  0.11734800  0.34986800  1
  O  O20  1  0.88302500  0.88930900  0.34117300  1
  O  O21  1  0.12453400  0.88392200  0.34776300  1
  O  O22  1  0.75807400  0.00003200  0.47785900  1
  O  O23  1  0.99011900  0.24425500  0.49222300  1
  O  O24  1  0.99658900  0.75489400  0.49461500  1
  O  O25  1  0.26584500  0.99834500  0.50183100  1
  O  O26  1  0.87800000  0.10642500  0.64486100  1
  O  O27  1  0.11861700  0.11730600  0.64279400  1
  O  O28  1  0.86866500  0.88091300  0.64171800  1
  O  O29  1  0.10548400  0.89771200  0.65307200  1
  O  O30  1  0.29923600  0.99113000  0.71731400  1
  O  O31  1  0.00798700  0.71186700  0.71093800  1
  O  O32  1  0.68051200  0.00034200  0.69875700  1
  O  O33  1  0.99659000  0.28792800  0.70926100  1
  O  O34  1  0.99466200  0.49945800  0.76455200  1
  O  O35  1  0.49577600  0.00385600  0.83010600  1
  O  O36  1  0.31309900  0.11662800  0.90911700  1
  O  O37  1  0.88181400  0.66182000  0.89500800  1
  O  O38  1  0.12106500  0.65652900  0.89918500  1
  O  O39  1  0.31737400  0.87572800  0.90462600  1
  O  O40  1  0.68106200  0.11956700  0.89969500  1
  O  O41  1  0.87698700  0.33738100  0.89377000  1
  O  O42  1  0.11547400  0.34322600  0.90159700  1
  O  O43  1  0.67769500  0.88178000  0.89884700  1
  O  O44  1  0.70105600  0.29870500  0.01346600  1
  O  O45  1  0.77725300  0.49968800  0.99391800  1
  O  O46  1  0.70303600  0.70226400  0.01072400  1
  O  O47  1  0.50177800  0.78774400  0.00028000  1
loop_
_geom_bond_atom_site_label_1
_geom_bond_atom_site_label_2
_geom_bond_distance
_geom_bond_site_symmetry_2
Na0 O30 2.295276 1_545
Na0 O25 2.507612 1_545
Na0 O35 2.929385 1_555
Na0 O32 3.069558 1_555
Na1 O23 2.127745 1_455
Na1 O33 2.220234 1_455
Na2 O24 2.149321 1_555
Na2 O31 2.220281 1_655
Na2 O34 2.768513 1_555
Na3 O29 2.292909 1_555
Na3 O39 2.343526 1_555
Na3 O38 2.472324 1_555
Na3 O31 2.611833 1_555
Na3 O30 2.861161 1_555
Al0 O18 1.741561 1_555
Al0 O23 1.749592 1_555
Al0 O19 1.771222 1_655
Al0 O17 1.775944 1_555
Al1 O25 1.747273 1_545
Al1 O19 1.771518 1_555
Al1 O14 1.780606 1_555
Al1 O21 1.782412 1_545
Al2 O24 1.742443 1_455
Al2 O21 1.748418 1_555
Al2 O20 1.785756 1_455
Al2 O15 1.794975 1_455
Al3 O22 1.739335 1_565
Al3 O32 1.741285 1_565
Al3 O28 1.779445 1_555
Al3 O26 1.781527 1_565
Al4 O23 1.736959 1_555
Al4 O27 1.748506 1_655
Al4 O26 1.758797 1_555
Al4 O33 1.767508 1_555
Al5 O25 1.734708 1_545
Al5 O30 1.736094 1_545
Al5 O29 1.760604 1_545
Al5 O27 1.763938 1_555
Al6 O29 1.732860 1_655
Al6 O24 1.748194 1_555
Al6 O28 1.756310 1_555
Al6 O31 1.770234 1_655
Al7 O35 1.682702 1_555
Al7 O32 1.729977 1_555
Al7 O40 1.819947 1_555
Al7 O43 1.835779 1_545
Al8 O33 1.732522 1_555
Al8 O34 1.749388 1_555
Al8 O41 1.795926 1_555
Al8 O42 1.809149 1_655
Al9 O31 1.733003 1_555
Al9 O34 1.742985 1_455
Al9 O37 1.802741 1_455
Al9 O38 1.802859 1_555
Al10 O35 1.678332 1_565
Al10 O30 1.707619 1_555
Al10 O39 1.803156 1_555
Al10 O36 1.812682 1_565
Ag0 O21 2.198546 1_555
Ag0 O7 2.419467 1_555
Ag0 O6 2.473248 1_555
Ag1 O19 2.195989 1_555
Ag1 O10 2.426713 1_555
Ag1 O4 2.464759 1_555
Ag2 O20 2.255106 1_555
Ag2 O11 2.389418 1_555
Ag2 O5 2.462183 1_555
Ag2 O15 2.710761 1_555
Ag3 O27 2.229875 1_555
Ag3 O36 2.323841 1_555
Ag3 O42 2.529942 1_555
Ag3 O33 2.749007 1_455
Ag4 O26 2.242183 1_555
Ag4 O40 2.297301 1_555
Ag4 O41 2.446876 1_555
Ag5 O28 2.200526 1_555
Ag5 O43 2.310990 1_555
Ag5 O37 2.492444 1_555
Ag6 O29 2.414641 1_645
Ag6 O26 2.443949 1_555
Ag6 O27 2.641335 1_655
Ag6 O28 2.664371 1_545
O0 Si11 1.638278 1_556
O0 Si0 1.655286 1_556
O1 Si11 1.648026 1_555
O1 Si2 1.650827 1_555
O2 Si4 1.638755 1_555
O2 Si2 1.642049 1_555
O3 Si4 1.650412 1_555
O3 Si5 1.651586 1_555
O4 Si11 1.669281 1_555
O4 Si9 1.669853 1_555
O5 Si8 1.662811 1_655
O5 Si12 1.664963 1_554
O6 Si8 1.663566 1_555
O6 Si4 1.668048 1_555
O7 Si5 1.668057 1_555
O7 Si9 1.674978 1_565
O8 Si6 1.625417 1_555
O8 Si0 1.644388 1_555
O9 Si7 1.626339 1_655
O9 Si1 1.633095 1_554
O10 Si2 1.661760 1_555
O10 Si7 1.677773 1_555
O11 Si3 1.667677 1_554
O11 Si6 1.673554 1_565
O12 Si9 1.605979 1_565
O12 Si6 1.614324 1_565
O13 Si8 1.624486 1_555
O13 Si7 1.642252 1_555
O14 Si9 1.582053 1_555
O15 Si8 1.596973 1_655
O16 Si6 1.588137 1_565
O16 Si10 1.661038 1_565
O17 Si7 1.588032 1_655
O18 Si10 1.604461 1_555
O20 Si10 1.663701 1_565
O22 Si10 1.616850 1_555
O36 Si11 1.626101 1_556
O37 Si12 1.622990 1_555
O38 Si4 1.618615 1_556
O39 Si5 1.613357 1_556
O40 Si0 1.630618 1_556
O41 Si1 1.626164 1_555
O42 Si2 1.619580 1_556
O43 Si3 1.622828 1_555
O44 Si0 1.638086 1_555
O44 Si1 1.640519 1_554
O45 Si12 1.632059 1_555
O45 Si1 1.652812 1_555
O46 Si12 1.647738 1_554
O46 Si3 1.648649 1_554
O47 Si3 1.641535 1_554
O47 Si5 1.644393 1_555
