# generated using pymatgen
data_Fe13Ge3
_symmetry_space_group_name_H-M   'P 1'
_cell_length_a   5.76904533
_cell_length_b   5.76054543
_cell_length_c   5.76590484
_cell_angle_alpha   90.00010968
_cell_angle_beta   89.99988564
_cell_angle_gamma   90.00008735
_symmetry_Int_Tables_number   1
_chemical_formula_structural   Fe13Ge3
_chemical_formula_sum   'Fe13 Ge3'
_cell_volume   191.61743758
_cell_formula_units_Z   1
loop_
 _symmetry_equiv_pos_site_id
 _symmetry_equiv_pos_as_xyz
  1  'x, y, z'
loop_
 _atom_site_type_symbol
 _atom_site_label
 _atom_site_symmetry_multiplicity
 _atom_site_fract_x
 _atom_site_fract_y
 _atom_site_fract_z
 _atom_site_occupancy
  Fe  Fe0  1  0.25436876  0.25449876  0.74558772  1
  Fe  Fe1  1  0.25448387  0.25444886  0.25442151  1
  Fe  Fe2  1  0.25433660  0.74549712  0.74557901  1
  Fe  Fe3  1  0.74554042  0.74550885  0.25448241  1
  Fe  Fe4  1  0.74550163  0.25450070  0.25447607  1
  Fe  Fe5  1  0.49998582  -0.00001685  0.50003558  1
  Fe  Fe6  1  0.49995818  0.50002390  0.50003169  1
  Fe  Fe7  1  0.74561319  0.25454559  0.74553370  1
  Fe  Fe8  1  0.25444910  0.74555160  0.25442707  1
  Fe  Fe9  1  0.00001397  0.50000726  0.49999487  1
  Fe  Fe10  1  0.74564842  0.74545266  0.74552360  1
  Fe  Fe11  1  0.49999341  0.50002725  0.99998645  1
  Fe  Fe12  1  0.00000634  0.00000814  -0.00001120  1
  Ge  Ge0  1  0.50005346  0.99992929  0.99986620  1
  Ge  Ge1  1  0.00003293  -0.00000231  0.49998563  1
  Ge  Ge2  1  0.00001392  0.50002019  0.00007668  1
loop_
_geom_bond_atom_site_label_1
_geom_bond_atom_site_label_2
_geom_bond_distance
_geom_bond_site_symmetry_2
Fe0 Fe6 2.452022 1_555
Fe0 Fe9 2.481656 1_555
Fe0 Fe11 2.481939 1_555
Fe0 Fe5 2.482333 1_555
Fe0 Ge2 2.511314 1_556
Fe0 Ge1 2.511499 1_555
Fe0 Ge0 2.511779 1_545
Fe0 Fe12 2.540505 1_556
Fe1 Fe6 2.451985 1_555
Fe1 Fe11 2.481847 1_554
Fe1 Fe5 2.481995 1_555
Fe1 Fe9 2.482142 1_555
Fe1 Ge2 2.511386 1_555
Fe1 Ge1 2.511596 1_555
Fe1 Ge0 2.512162 1_544
Fe1 Fe12 2.540828 1_555
Fe2 Fe6 2.451927 1_555
Fe2 Fe9 2.481451 1_555
Fe2 Fe5 2.482311 1_565
Fe2 Ge2 2.511092 1_556
Fe2 Ge1 2.511366 1_565
Fe2 Ge0 2.511446 1_555
Fe3 Fe6 2.451842 1_555
Fe3 Fe9 2.481774 1_655
Fe3 Fe5 2.481990 1_565
Fe3 Ge2 2.511328 1_655
Fe3 Ge1 2.511665 1_665
Fe3 Ge0 2.511772 1_554
Fe4 Fe6 2.451860 1_555
Fe4 Fe9 2.481938 1_655
Fe4 Fe5 2.482031 1_555
Fe4 Ge2 2.511538 1_655
Fe4 Ge1 2.511870 1_655
Fe4 Ge0 2.512126 1_544
Fe5 Fe8 2.481969 1_545
Fe5 Fe7 2.482350 1_555
Fe5 Fe6 2.880038 1_545
Fe5 Fe6 2.880507 1_555
Fe5 Ge0 2.881976 1_545
Fe5 Ge0 2.883929 1_544
Fe5 Ge1 2.884251 1_555
Fe5 Ge1 2.884794 1_655
Fe6 Fe7 2.451911 1_555
Fe6 Fe8 2.451930 1_555
Fe6 Fe9 2.884201 1_555
Fe6 Fe9 2.884845 1_655
Fe7 Fe9 2.481476 1_655
Fe7 Ge2 2.511500 1_656
Fe7 Ge0 2.511706 1_545
Fe7 Ge1 2.511763 1_655
Fe8 Fe9 2.481960 1_555
Fe8 Ge2 2.511152 1_555
Fe8 Ge1 2.511443 1_565
Fe8 Ge0 2.511818 1_554
Fe9 Ge1 2.880218 1_565
Fe9 Ge1 2.880328 1_555
Fe9 Ge2 2.882481 1_555
Fe9 Ge2 2.883424 1_556
Fe10 Fe6 2.451825 1_555
Fe10 Fe9 2.481269 1_655
Fe10 Fe11 2.481919 1_555
Fe10 Fe5 2.482330 1_565
Fe10 Ge2 2.511284 1_656
Fe10 Ge0 2.511384 1_555
Fe10 Ge1 2.511602 1_665
Fe10 Fe12 2.540919 1_666
Fe11 Fe8 2.481803 1_556
Fe11 Fe3 2.481861 1_556
Fe11 Fe4 2.481865 1_556
Fe11 Fe2 2.481888 1_555
Fe11 Fe7 2.481952 1_555
Fe11 Ge0 2.879709 1_555
Fe11 Ge0 2.880837 1_545
Fe11 Fe6 2.882692 1_555
Fe11 Fe6 2.883213 1_556
Fe11 Ge2 2.884404 1_556
Fe11 Ge2 2.884641 1_656
Fe12 Fe2 2.540494 1_544
Fe12 Fe8 2.540789 1_545
Fe12 Fe7 2.540949 1_454
Fe12 Fe3 2.541187 1_445
Fe12 Fe4 2.541272 1_455
Fe12 Ge2 2.880203 1_545
Fe12 Ge2 2.880342 1_555
Fe12 Ge1 2.882934 1_555
Fe12 Ge1 2.882971 1_554
Fe12 Ge0 2.884251 1_444
Fe12 Ge0 2.884795 1_544
