# generated using pymatgen
data_La2Ti3(AgO5)2
_symmetry_space_group_name_H-M   'P 1'
_cell_length_a   14.88329339
_cell_length_b   14.88329339
_cell_length_c   14.88329339
_cell_angle_alpha   165.08297817
_cell_angle_beta   165.08297817
_cell_angle_gamma   21.15630834
_symmetry_Int_Tables_number   1
_chemical_formula_structural   La2Ti3(AgO5)2
_chemical_formula_sum   'La2 Ti3 Ag2 O10'
_cell_volume   218.43262234
_cell_formula_units_Z   1
loop_
 _symmetry_equiv_pos_site_id
 _symmetry_equiv_pos_as_xyz
  1  'x, y, z'
loop_
 _atom_site_type_symbol
 _atom_site_label
 _atom_site_symmetry_multiplicity
 _atom_site_fract_x
 _atom_site_fract_y
 _atom_site_fract_z
 _atom_site_occupancy
  La  La0  1  0.42574900  0.42574900  0.00000000  1
  La  La1  1  0.57425100  0.57425100  0.00000000  1
  Ti  Ti0  1  0.85410600  0.85410600  0.00000000  1
  Ti  Ti1  1  0.14589400  0.14589400  0.00000000  1
  Ti  Ti2  1  0.00000000  0.00000000  0.00000000  1
  Ag  Ag0  1  0.28536900  0.28536900  0.00000000  1
  Ag  Ag1  1  0.71463100  0.71463100  0.00000000  1
  O  O0  1  0.79336100  0.79336100  0.00000000  1
  O  O1  1  0.20663900  0.20663900  0.00000000  1
  O  O2  1  0.36927600  0.86927600  0.50000000  1
  O  O3  1  0.86927600  0.36927600  0.50000000  1
  O  O4  1  0.63072400  0.13072400  0.50000000  1
  O  O5  1  0.13072400  0.63072400  0.50000000  1
  O  O6  1  0.93342700  0.93342700  0.00000000  1
  O  O7  1  0.00000000  0.50000000  0.50000000  1
  O  O8  1  0.50000000  0.00000000  0.50000000  1
  O  O9  1  0.06657300  0.06657300  0.00000000  1
loop_
_geom_bond_atom_site_label_1
_geom_bond_atom_site_label_2
_geom_bond_distance
_geom_bond_site_symmetry_2
La0 O2 2.542259 1_555
La0 O3 2.542259 1_454
La0 O2 2.542259 1_544
La0 O3 2.542259 1_555
La0 O6 2.741445 1_455
La0 O6 2.741445 1_545
La0 O6 2.741445 1_556
La0 O6 2.741445 1_444
La0 O8 2.907383 1_554
La0 O7 2.907383 1_554
La0 O8 2.907383 1_565
La0 O7 2.907383 1_655
La1 O5 2.542259 1_554
La1 O4 2.542259 1_554
La1 O4 2.542259 1_565
La1 O5 2.542259 1_655
La1 O9 2.741445 1_554
La1 O9 2.741445 1_655
La1 O9 2.741445 1_565
La1 O9 2.741445 1_666
La1 O8 2.907383 1_554
La1 O7 2.907383 1_554
La1 O8 2.907383 1_565
La1 O7 2.907383 1_655
Ag0 O1 2.303696 1_555
Ag0 O0 2.742213 1_444
Ag0 O0 2.742213 1_545
Ag0 O0 2.742213 1_455
Ag0 O0 2.742213 1_556
Ag1 O0 2.303696 1_555
Ag1 O1 2.742213 1_655
Ag1 O1 2.742213 1_565
Ag1 O1 2.742213 1_666
Ag1 O1 2.742213 1_554
O0 Ti0 1.777442 1_555
O1 Ti1 1.777442 1_555
O2 Ti0 1.982311 1_455
O2 Ti0 1.982311 1_556
O3 Ti0 1.982311 1_545
O3 Ti0 1.982311 1_556
O4 Ti1 1.982311 1_656
O4 Ti1 1.982311 1_555
O5 Ti1 1.982311 1_566
O5 Ti1 1.982311 1_555
O6 Ti2 1.947974 1_665
O6 Ti0 2.320989 1_555
O7 Ti2 1.931974 1_555
O7 Ti2 1.931974 1_566
O8 Ti2 1.931974 1_555
O8 Ti2 1.931974 1_656
O9 Ti2 1.947974 1_555
O9 Ti1 2.320989 1_555
