# generated using pymatgen
data_Ce(NiAs)2
_symmetry_space_group_name_H-M   'P 1'
_cell_length_a   4.22030366
_cell_length_b   4.22032829
_cell_length_c   9.29912082
_cell_angle_alpha   90.00051027
_cell_angle_beta   90.00049696
_cell_angle_gamma   90.00205693
_symmetry_Int_Tables_number   1
_chemical_formula_structural   Ce(NiAs)2
_chemical_formula_sum   'Ce2 Ni4 As4'
_cell_volume   165.62726324
_cell_formula_units_Z   2
loop_
 _symmetry_equiv_pos_site_id
 _symmetry_equiv_pos_as_xyz
  1  'x, y, z'
loop_
 _atom_site_type_symbol
 _atom_site_label
 _atom_site_symmetry_multiplicity
 _atom_site_fract_x
 _atom_site_fract_y
 _atom_site_fract_z
 _atom_site_occupancy
  Ce  Ce0  1  0.24999973  0.24999928  0.25412203  1
  Ce  Ce1  1  0.75000043  0.75000094  0.74589211  1
  Ni  Ni0  1  0.24999651  0.24999327  0.88433828  1
  Ni  Ni1  1  0.24999793  0.74999771  0.50005233  1
  Ni  Ni2  1  0.74999513  0.74999648  0.11549575  1
  Ni  Ni3  1  0.74999683  0.24999894  0.50005445  1
  As  As0  1  0.75000112  0.75000119  0.37085354  1
  As  As1  1  0.24999573  0.74999513  1.00003670  1
  As  As2  1  0.74999937  0.24999705  1.00004068  1
  As  As3  1  0.25001622  0.25001802  0.62911112  1
loop_
_geom_bond_atom_site_label_1
_geom_bond_atom_site_label_2
_geom_bond_distance
_geom_bond_site_symmetry_2
Ce0 Ni1 3.111712 1_555
Ce0 Ni3 3.111715 1_555
Ce0 Ni1 3.111749 1_545
Ce0 Ni3 3.111758 1_455
Ce0 Ni2 3.250687 1_555
Ce0 Ni2 3.250698 1_445
Ce0 Ni2 3.250785 1_545
Ce0 Ni2 3.250796 1_455
Ce1 Ni3 3.111089 1_555
Ce1 Ni1 3.111097 1_555
Ce1 Ni3 3.111106 1_565
Ce1 Ni1 3.111110 1_655
Ce1 Ni0 3.249982 1_665
Ce1 Ni0 3.250075 1_555
Ce1 Ni0 3.250116 1_565
Ce1 Ni0 3.250137 1_655
As0 Ni2 2.374603 1_555
As0 Ni1 2.428186 1_655
As0 Ni3 2.428209 1_565
As0 Ni1 2.428227 1_555
As0 Ni3 2.428245 1_555
As0 Ce0 3.175453 1_555
As0 Ce0 3.175460 1_665
As0 Ce0 3.175556 1_565
As0 Ce0 3.175559 1_655
As1 Ni2 2.367584 1_556
As1 Ni2 2.367605 1_456
As1 Ni0 2.368614 1_555
As1 Ni0 2.368617 1_565
As1 Ce0 3.167880 1_566
As1 Ce0 3.167884 1_556
As1 Ce1 3.168258 1_455
As1 Ce1 3.168312 1_555
As2 Ni2 2.367578 1_556
As2 Ni2 2.367599 1_546
As2 Ni0 2.368619 1_655
As2 Ni0 2.368624 1_555
As2 Ce0 3.167833 1_656
As2 Ce0 3.167859 1_556
As2 Ce1 3.168296 1_545
As2 Ce1 3.168345 1_555
As3 Ni0 2.373388 1_555
As3 Ni3 2.427491 1_555
As3 Ni1 2.427508 1_555
As3 Ni3 2.427615 1_455
As3 Ni1 2.427639 1_545
As3 Ce1 3.175509 1_555
As3 Ce1 3.175711 1_455
As3 Ce1 3.175718 1_545
As3 Ce1 3.175719 1_445
