# generated using pymatgen
data_Gd2Ni7
_symmetry_space_group_name_H-M   'P 1'
_cell_length_a   12.34721199
_cell_length_b   12.34721204
_cell_length_c   12.34721230
_cell_angle_alpha   23.11242378
_cell_angle_beta   23.11242325
_cell_angle_gamma   23.11242432
_symmetry_Int_Tables_number   1
_chemical_formula_structural   Gd2Ni7
_chemical_formula_sum   'Gd4 Ni14'
_cell_volume   254.59167744
_cell_formula_units_Z   2
loop_
 _symmetry_equiv_pos_site_id
 _symmetry_equiv_pos_as_xyz
  1  'x, y, z'
loop_
 _atom_site_type_symbol
 _atom_site_label
 _atom_site_symmetry_multiplicity
 _atom_site_fract_x
 _atom_site_fract_y
 _atom_site_fract_z
 _atom_site_occupancy
  Gd  Gd0  1  0.94911425  0.94911425  0.94911425  1
  Gd  Gd1  1  0.14727135  0.14727135  0.14727135  1
  Gd  Gd2  1  0.05088575  0.05088575  0.05088575  1
  Gd  Gd3  1  0.85272865  0.85272865  0.85272865  1
  Ni  Ni0  1  0.72156275  0.72156275  0.72156275  1
  Ni  Ni1  1  0.38789710  0.38789710  0.38789710  1
  Ni  Ni2  1  0.10972549  0.60974157  0.60974157  1
  Ni  Ni3  1  0.60974157  0.10972549  0.60974157  1
  Ni  Ni4  1  0.39025843  0.39025843  0.89027451  1
  Ni  Ni5  1  0.61210290  0.61210290  0.61210290  1
  Ni  Ni6  1  0.50000000  0.00000000  0.50000000  1
  Ni  Ni7  1  0.89027451  0.39025843  0.39025843  1
  Ni  Ni8  1  0.50000000  0.50000000  0.50000000  1
  Ni  Ni9  1  0.39025843  0.89027451  0.39025843  1
  Ni  Ni10  1  0.27843725  0.27843725  0.27843725  1
  Ni  Ni11  1  0.60974157  0.60974157  0.10972549  1
  Ni  Ni12  1  0.00000000  0.50000000  0.50000000  1
  Ni  Ni13  1  0.50000000  0.50000000  0.00000000  1
loop_
_geom_bond_atom_site_label_1
_geom_bond_atom_site_label_2
_geom_bond_distance
_geom_bond_site_symmetry_2
Gd0 Ni5 2.859234 1_556
Gd0 Ni5 2.859234 1_655
Gd0 Ni5 2.859234 1_565
Gd0 Ni10 2.859814 1_665
Gd0 Ni10 2.859814 1_566
Gd0 Ni10 2.859814 1_656
Gd0 Ni6 3.079115 1_665
Gd0 Ni12 3.079115 1_665
Gd0 Ni13 3.079115 1_656
Gd0 Ni13 3.079115 1_566
Gd0 Ni6 3.079115 1_566
Gd0 Ni12 3.079115 1_656
Gd0 Ni9 3.258220 1_556
Gd0 Ni7 3.258221 1_556
Gd0 Ni4 3.258221 1_565
Gd0 Ni4 3.258221 1_655
Gd0 Ni9 3.258221 1_655
Gd0 Ni7 3.258221 1_565
Gd0 Gd3 3.473446 1_555
Gd0 Gd2 3.667538 1_666
Gd1 Ni3 2.819204 1_455
Gd1 Ni2 2.819204 1_545
Gd1 Ni11 2.819204 1_455
Gd1 Ni3 2.819204 1_554
Gd1 Ni11 2.819204 1_545
Gd1 Ni2 2.819204 1_554
Gd1 Ni8 2.940439 1_554
Gd1 Ni8 2.940439 1_455
Gd1 Ni8 2.940439 1_545
Gd1 Ni4 3.099163 1_554
Gd1 Ni7 3.099163 1_455
Gd1 Ni9 3.099163 1_545
Gd1 Gd3 3.179901 1_544
Gd1 Gd3 3.179901 1_454
Gd1 Gd3 3.179901 1_445
Gd1 Gd2 3.473446 1_555
Gd2 Ni1 2.859234 1_554
Gd2 Ni1 2.859234 1_455
Gd2 Ni1 2.859234 1_545
Gd2 Ni0 2.859814 1_445
Gd2 Ni0 2.859814 1_544
Gd2 Ni0 2.859814 1_454
Gd2 Ni6 3.079115 1_455
Gd2 Ni12 3.079115 1_545
Gd2 Ni13 3.079115 1_455
Gd2 Ni13 3.079115 1_545
Gd2 Ni6 3.079115 1_554
Gd2 Ni12 3.079115 1_554
Gd2 Ni3 3.258220 1_554
Gd2 Ni2 3.258221 1_554
Gd2 Ni11 3.258221 1_545
Gd2 Ni11 3.258221 1_455
Gd2 Ni3 3.258221 1_455
Gd2 Ni2 3.258221 1_545
Gd3 Ni9 2.819204 1_655
Gd3 Ni7 2.819204 1_565
Gd3 Ni4 2.819204 1_655
Gd3 Ni9 2.819204 1_556
Gd3 Ni4 2.819204 1_565
Gd3 Ni7 2.819204 1_556
Gd3 Ni8 2.940439 1_556
Gd3 Ni8 2.940439 1_655
Gd3 Ni8 2.940439 1_565
Gd3 Ni11 3.099163 1_556
Gd3 Ni2 3.099163 1_655
Gd3 Ni3 3.099163 1_565
Ni0 Ni2 2.438224 1_655
Ni0 Ni3 2.438224 1_565
Ni0 Ni11 2.438224 1_556
Ni0 Ni13 2.439885 1_556
Ni0 Ni12 2.439885 1_655
Ni0 Ni6 2.439885 1_565
Ni0 Ni1 2.856185 1_556
Ni0 Ni1 2.856185 1_655
Ni0 Ni1 2.856186 1_565
Ni1 Ni12 2.430185 1_555
Ni1 Ni6 2.430185 1_555
Ni1 Ni13 2.430186 1_555
Ni1 Ni11 2.447994 1_555
Ni1 Ni2 2.447994 1_555
Ni1 Ni3 2.447994 1_555
Ni2 Ni3 2.473428 1_465
Ni2 Ni3 2.473587 1_555
Ni2 Ni8 2.499723 1_555
Ni3 Ni8 2.499723 1_555
Ni4 Ni5 2.447994 1_555
Ni4 Ni7 2.473428 1_456
Ni4 Ni9 2.473428 1_546
Ni4 Ni7 2.473587 1_555
Ni4 Ni9 2.473587 1_555
Ni4 Ni8 2.499723 1_555
Ni5 Ni6 2.430185 1_565
Ni5 Ni7 2.447994 1_555
Ni5 Ni9 2.447994 1_555
Ni7 Ni9 2.473428 1_645
Ni7 Ni9 2.473587 1_555
Ni7 Ni8 2.499723 1_555
Ni8 Ni9 2.499723 1_555
Ni10 Ni7 2.438224 1_455
Ni10 Ni9 2.438224 1_545
Ni10 Ni4 2.438224 1_554
Ni10 Ni13 2.439885 1_555
Ni10 Ni12 2.439885 1_555
Ni10 Ni6 2.439885 1_555
Ni10 Ni5 2.856185 1_554
Ni10 Ni5 2.856185 1_455
Ni10 Ni5 2.856186 1_545
Ni11 Ni2 2.473428 1_654
Ni11 Ni3 2.473428 1_564
Ni11 Ni2 2.473587 1_555
Ni11 Ni3 2.473587 1_555
Ni11 Ni8 2.499723 1_555
Ni12 Ni5 2.430185 1_455
Ni12 Ni13 2.473507 1_555
Ni12 Ni13 2.473507 1_456
Ni12 Ni6 2.473507 1_465
Ni12 Ni6 2.473507 1_555
Ni13 Ni5 2.430186 1_554
Ni13 Ni6 2.473507 1_564
Ni13 Ni6 2.473507 1_555
