# generated using pymatgen
data_Yb2Zr2O7
_symmetry_space_group_name_H-M   'P 1'
_cell_length_a   3.67345100
_cell_length_b   7.20747300
_cell_length_c   10.85691100
_cell_angle_alpha   90.00000000
_cell_angle_beta   90.00000000
_cell_angle_gamma   90.00000000
_symmetry_Int_Tables_number   1
_chemical_formula_structural   Yb2Zr2O7
_chemical_formula_sum   'Yb4 Zr4 O14'
_cell_volume   287.45082076
_cell_formula_units_Z   2
loop_
 _symmetry_equiv_pos_site_id
 _symmetry_equiv_pos_as_xyz
  1  'x, y, z'
loop_
 _atom_site_type_symbol
 _atom_site_label
 _atom_site_symmetry_multiplicity
 _atom_site_fract_x
 _atom_site_fract_y
 _atom_site_fract_z
 _atom_site_occupancy
  Yb  Yb0  1  0.00000000  0.25000000  0.72518700  1
  Yb  Yb1  1  0.50000000  0.00000000  0.00000000  1
  Yb  Yb2  1  0.50000000  0.50000000  0.00000000  1
  Yb  Yb3  1  0.00000000  0.75000000  0.27481300  1
  Zr  Zr0  1  0.00000000  0.25000000  0.22262300  1
  Zr  Zr1  1  0.50000000  0.50000000  0.50000000  1
  Zr  Zr2  1  0.00000000  0.75000000  0.77737700  1
  Zr  Zr3  1  0.50000000  0.00000000  0.50000000  1
  O  O0  1  0.50000000  0.25000000  0.36996200  1
  O  O1  1  0.00000000  0.53802000  0.61651000  1
  O  O2  1  0.50000000  0.75000000  0.87627900  1
  O  O3  1  0.50000000  0.25000000  0.60934700  1
  O  O4  1  0.00000000  0.98214700  0.13441100  1
  O  O5  1  0.00000000  0.51785300  0.13441100  1
  O  O6  1  0.00000000  0.48214700  0.86558900  1
  O  O7  1  0.50000000  0.75000000  0.39065300  1
  O  O8  1  0.50000000  0.25000000  0.12372100  1
  O  O9  1  0.00000000  0.96198000  0.61651000  1
  O  O10  1  0.00000000  0.46198000  0.38349000  1
  O  O11  1  0.00000000  0.03802000  0.38349000  1
  O  O12  1  0.50000000  0.75000000  0.63003800  1
  O  O13  1  0.00000000  0.01785300  0.86558900  1
loop_
_geom_bond_atom_site_label_1
_geom_bond_atom_site_label_2
_geom_bond_distance
_geom_bond_site_symmetry_2
O0 Zr3 2.289091 1_555
O0 Zr1 2.289091 1_555
O0 Zr0 2.435658 1_555
O0 Zr0 2.435658 1_655
O1 Zr1 2.246936 1_455
O1 Zr1 2.246936 1_555
O1 Zr2 2.320479 1_555
O1 Yb0 2.387782 1_555
O2 Zr2 2.127567 1_555
O2 Zr2 2.127567 1_655
O2 Yb2 2.247441 1_556
O2 Yb1 2.247441 1_566
O3 Zr3 2.157801 1_555
O3 Zr1 2.157801 1_555
O3 Yb0 2.226046 1_555
O3 Yb0 2.226046 1_655
O4 Zr0 2.155042 1_565
O4 Yb3 2.263441 1_555
O4 Yb1 2.349391 1_465
O4 Yb1 2.349391 1_565
O5 Zr0 2.155042 1_555
O5 Yb3 2.263441 1_555
O5 Yb2 2.349391 1_455
O5 Yb2 2.349391 1_555
O6 Zr2 2.155042 1_555
O6 Yb0 2.263441 1_555
O6 Yb2 2.349391 1_556
O6 Yb2 2.349391 1_456
O7 Zr3 2.157801 1_565
O7 Zr1 2.157801 1_555
O7 Yb3 2.226046 1_555
O7 Yb3 2.226046 1_655
O8 Zr0 2.127567 1_655
O8 Zr0 2.127567 1_555
O8 Yb2 2.247441 1_555
O8 Yb1 2.247441 1_555
O9 Zr3 2.246936 1_465
O9 Zr3 2.246936 1_565
O9 Zr2 2.320479 1_555
O9 Yb0 2.387782 1_565
O10 Zr1 2.246936 1_455
O10 Zr1 2.246936 1_555
O10 Zr0 2.320479 1_555
O10 Yb3 2.387782 1_555
O11 Zr3 2.246936 1_555
O11 Zr3 2.246936 1_455
O11 Zr0 2.320479 1_555
O11 Yb3 2.387782 1_545
O12 Zr3 2.289091 1_565
O12 Zr1 2.289091 1_555
O12 Zr2 2.435658 1_655
O12 Zr2 2.435658 1_555
O13 Zr2 2.155042 1_545
O13 Yb0 2.263441 1_555
O13 Yb1 2.349391 1_456
O13 Yb1 2.349391 1_556
