# generated using pymatgen
data_CBr4
_symmetry_space_group_name_H-M   'P 1'
_cell_length_a   12.79460527
_cell_length_b   12.79460527
_cell_length_c   21.96217188
_cell_angle_alpha   72.02103234
_cell_angle_beta   72.02103234
_cell_angle_gamma   59.12678479
_symmetry_Int_Tables_number   1
_chemical_formula_structural   CBr4
_chemical_formula_sum   'C16 Br64'
_cell_volume   2884.98419825
_cell_formula_units_Z   16
loop_
 _symmetry_equiv_pos_site_id
 _symmetry_equiv_pos_as_xyz
  1  'x, y, z'
loop_
 _atom_site_type_symbol
 _atom_site_label
 _atom_site_symmetry_multiplicity
 _atom_site_fract_x
 _atom_site_fract_y
 _atom_site_fract_z
 _atom_site_occupancy
  C  C0  1  0.55783500  0.18988700  0.62324400  1
  C  C1  1  0.05472100  0.63521800  0.62857700  1
  C  C2  1  0.63521800  0.05472100  0.12857700  1
  C  C3  1  0.87202500  0.93549200  0.87824800  1
  C  C4  1  0.94527900  0.36478200  0.37142300  1
  C  C5  1  0.81011300  0.44216500  0.87675600  1
  C  C6  1  0.68037100  0.56100800  0.12049300  1
  C  C7  1  0.06450800  0.12797500  0.62175200  1
  C  C8  1  0.36478200  0.94527900  0.87142300  1
  C  C9  1  0.12797500  0.06450800  0.12175200  1
  C  C10  1  0.44216500  0.81011300  0.37675600  1
  C  C11  1  0.93549200  0.87202500  0.37824800  1
  C  C12  1  0.56100800  0.68037100  0.62049300  1
  C  C13  1  0.18988700  0.55783500  0.12324400  1
  C  C14  1  0.43899200  0.31962900  0.37950700  1
  C  C15  1  0.31962900  0.43899200  0.87950700  1
  Br  Br0  1  0.89021700  0.77551900  0.64420800  1
  Br  Br1  1  0.36274500  0.89594400  0.29983200  1
  Br  Br2  1  0.18387400  0.16529800  0.04577800  1
  Br  Br3  1  0.84753600  0.54268700  0.10641500  1
  Br  Br4  1  0.54268700  0.84753600  0.60641500  1
  Br  Br5  1  0.89594400  0.36274500  0.79983200  1
  Br  Br6  1  0.68813400  0.39791800  0.13878700  1
  Br  Br7  1  0.60296200  0.80781500  0.35693700  1
  Br  Br8  1  0.60883300  0.65945700  0.04214800  1
  Br  Br9  1  0.04608200  0.99931600  0.60283600  1
  Br  Br10  1  0.90090900  0.26860000  0.64121400  1
  Br  Br11  1  0.86853000  0.42705400  0.29433900  1
  Br  Br12  1  0.15754300  0.69035300  0.55335400  1
  Br  Br13  1  0.66427000  0.10179300  0.55056200  1
  Br  Br14  1  0.04057500  0.50252700  0.61085200  1
  Br  Br15  1  0.19218500  0.39703800  0.14306300  1
  Br  Br16  1  0.30964700  0.84245700  0.94664600  1
  Br  Br17  1  0.35952600  0.53529200  0.09965700  1
  Br  Br18  1  0.83470200  0.81612600  0.45422200  1
  Br  Br19  1  0.10179300  0.66427000  0.05056200  1
  Br  Br20  1  0.34054300  0.39116700  0.45785200  1
  Br  Br21  1  0.95391800  0.00068400  0.39716400  1
  Br  Br22  1  0.84245700  0.30964700  0.44664600  1
  Br  Br23  1  0.49747300  0.95942500  0.88914800  1
  Br  Br24  1  0.63725500  0.10405600  0.70016800  1
  Br  Br25  1  0.26860000  0.90090900  0.14121400  1
  Br  Br26  1  0.60208200  0.31186600  0.36121300  1
  Br  Br27  1  0.57678000  0.64569000  0.19446200  1
  Br  Br28  1  0.73140000  0.09909100  0.85878600  1
  Br  Br29  1  0.00068400  0.95391800  0.89716400  1
  Br  Br30  1  0.57294600  0.13147000  0.20566100  1
  Br  Br31  1  0.31186600  0.60208200  0.86121300  1
  Br  Br32  1  0.64569000  0.57678000  0.69446200  1
  Br  Br33  1  0.42705400  0.86853000  0.79433900  1
  Br  Br34  1  0.64047400  0.46470800  0.90034300  1
  Br  Br35  1  0.65945700  0.60883300  0.54214800  1
  Br  Br36  1  0.15246400  0.45731300  0.89358500  1
  Br  Br37  1  0.10405600  0.63725500  0.20016800  1
  Br  Br38  1  0.13147000  0.57294600  0.70566100  1
  Br  Br39  1  0.22448100  0.10978300  0.85579200  1
  Br  Br40  1  0.50252700  0.04057500  0.11085200  1
  Br  Br41  1  0.69035300  0.15754300  0.05335400  1
  Br  Br42  1  0.81612600  0.83470200  0.95422200  1
  Br  Br43  1  0.77551900  0.89021700  0.14420800  1
  Br  Br44  1  0.95942500  0.49747300  0.38914800  1
  Br  Br45  1  0.33573000  0.89820700  0.44943800  1
  Br  Br46  1  0.14620300  0.06177500  0.69714500  1
  Br  Br47  1  0.42322000  0.35431000  0.80553800  1
  Br  Br48  1  0.45731300  0.15246400  0.39358500  1
  Br  Br49  1  0.80781500  0.60296200  0.85693700  1
  Br  Br50  1  0.16529800  0.18387400  0.54577800  1
  Br  Br51  1  0.39116700  0.34054300  0.95785200  1
  Br  Br52  1  0.39703800  0.19218500  0.64306300  1
  Br  Br53  1  0.89820700  0.33573000  0.94943800  1
  Br  Br54  1  0.09909100  0.73140000  0.35878600  1
  Br  Br55  1  0.10978300  0.22448100  0.35579200  1
  Br  Br56  1  0.99931600  0.04608200  0.10283600  1
  Br  Br57  1  0.85379700  0.93822500  0.30285500  1
  Br  Br58  1  0.39791800  0.68813400  0.63878700  1
  Br  Br59  1  0.35431000  0.42322000  0.30553800  1
  Br  Br60  1  0.93822500  0.85379700  0.80285500  1
  Br  Br61  1  0.46470800  0.64047400  0.40034300  1
  Br  Br62  1  0.53529200  0.35952600  0.59965700  1
  Br  Br63  1  0.06177500  0.14620300  0.19714500  1
loop_
_geom_bond_atom_site_label_1
_geom_bond_atom_site_label_2
_geom_bond_distance
_geom_bond_site_symmetry_2
Br0 C1 1.956291 1_655
Br1 C10 1.965170 1_555
Br2 C9 1.959615 1_555
Br3 C6 1.961383 1_555
Br4 C12 1.961383 1_555
Br5 C5 1.965170 1_555
Br6 C6 1.954447 1_555
Br7 C10 1.953445 1_555
Br8 C6 1.958572 1_555
Br9 C7 1.954192 1_565
Br10 C7 1.964359 1_655
Br11 C4 1.963602 1_555
Br12 C1 1.961865 1_555
Br13 C0 1.966324 1_555
Br14 C1 1.957912 1_555
Br15 C13 1.953445 1_555
Br16 C8 1.961865 1_555
Br17 C13 1.953999 1_555
Br18 C11 1.959615 1_555
Br19 C13 1.966324 1_555
Br20 C14 1.958572 1_555
Br21 C11 1.954192 1_545
Br22 C4 1.961865 1_555
Br23 C8 1.957912 1_555
Br24 C0 1.965170 1_555
Br25 C9 1.964359 1_565
Br26 C14 1.954447 1_555
Br27 C6 1.962975 1_555
Br28 C3 1.964359 1_545
Br29 C3 1.954192 1_455
Br30 C2 1.963602 1_555
Br31 C15 1.954447 1_555
Br32 C12 1.962975 1_555
Br33 C8 1.963602 1_555
Br34 C5 1.953999 1_555
Br35 C12 1.958572 1_555
Br36 C15 1.961383 1_555
Br37 C13 1.965170 1_555
Br38 C1 1.963602 1_555
Br39 C8 1.956291 1_545
Br40 C2 1.957912 1_555
Br41 C2 1.961865 1_555
Br42 C3 1.959615 1_555
Br43 C2 1.956291 1_565
Br44 C4 1.957912 1_555
Br45 C10 1.966324 1_555
Br46 C7 1.961039 1_555
Br47 C15 1.962975 1_555
Br48 C14 1.961383 1_555
Br49 C5 1.953445 1_555
Br50 C7 1.959615 1_555
Br51 C15 1.958572 1_555
Br52 C0 1.953445 1_555
Br53 C5 1.966324 1_555
Br54 C11 1.964359 1_455
Br55 C4 1.956291 1_455
Br56 C9 1.954192 1_655
Br57 C11 1.961039 1_555
Br58 C12 1.954447 1_555
Br59 C14 1.962975 1_555
Br60 C3 1.961039 1_555
Br61 C10 1.953999 1_555
Br62 C0 1.953999 1_555
Br63 C9 1.961039 1_555
