# generated using pymatgen
data_KRb2ScF6
_symmetry_space_group_name_H-M   'P 1'
_cell_length_a   6.36910267
_cell_length_b   6.30725938
_cell_length_c   8.95190367
_cell_angle_alpha   90.11657196
_cell_angle_beta   90.00000000
_cell_angle_gamma   90.00000000
_symmetry_Int_Tables_number   1
_chemical_formula_structural   KRb2ScF6
_chemical_formula_sum   'K2 Rb4 Sc2 F12'
_cell_volume   359.61139308
_cell_formula_units_Z   2
loop_
 _symmetry_equiv_pos_site_id
 _symmetry_equiv_pos_as_xyz
  1  'x, y, z'
loop_
 _atom_site_type_symbol
 _atom_site_label
 _atom_site_symmetry_multiplicity
 _atom_site_fract_x
 _atom_site_fract_y
 _atom_site_fract_z
 _atom_site_occupancy
  K  K0  1  -0.00000000  -0.00000000  0.50000000  1
  K  K1  1  0.50000000  0.50000000  -0.00000000  1
  Rb  Rb0  1  0.53361533  0.99320711  0.74987802  1
  Rb  Rb1  1  0.03361533  0.50679289  0.75012198  1
  Rb  Rb2  1  0.46638467  0.00679289  0.25012198  1
  Rb  Rb3  1  0.96638467  0.49320711  0.24987802  1
  Sc  Sc0  1  0.00000000  -0.00000000  -0.00000000  1
  Sc  Sc1  1  0.50000000  0.50000000  0.50000000  1
  F  F0  1  0.24336739  0.31950778  0.46013718  1
  F  F1  1  0.74336739  0.18049222  0.03986282  1
  F  F2  1  0.75663261  0.68049222  0.53986282  1
  F  F3  1  0.25663261  0.81950778  0.96013718  1
  F  F4  1  0.31538862  0.75662727  0.53248842  1
  F  F5  1  0.81538862  0.74337273  0.96751158  1
  F  F6  1  0.68461138  0.24337273  0.46751158  1
  F  F7  1  0.18461138  0.25662727  0.03248842  1
  F  F8  1  0.02273853  0.93176100  0.21978191  1
  F  F9  1  0.52273853  0.56823900  0.28021809  1
  F  F10  1  0.97726147  0.06823900  0.78021809  1
  F  F11  1  0.47726147  0.43176100  0.71978191  1
loop_
_geom_bond_atom_site_label_1
_geom_bond_atom_site_label_2
_geom_bond_distance
_geom_bond_site_symmetry_2
F0 Sc1 2.023196 1_555
F0 K0 2.567873 1_555
F0 Rb3 2.804205 1_455
F0 Rb2 3.070390 1_555
F0 Rb1 3.147441 1_555
F1 Sc0 2.023196 1_655
F1 K1 2.567873 1_555
F1 Rb2 2.804205 1_555
F1 Rb3 3.070390 1_555
F1 Rb0 3.147441 1_544
F2 Sc1 2.023196 1_555
F2 K0 2.567873 1_665
F2 Rb1 2.804205 1_655
F2 Rb0 3.070390 1_555
F2 Rb3 3.147441 1_555
F3 Sc0 2.023196 1_566
F3 K1 2.567873 1_556
F3 Rb0 2.804205 1_555
F3 Rb1 3.070390 1_555
F3 Rb2 3.147441 1_566
F4 Sc1 2.021165 1_555
F4 K0 2.545136 1_565
F4 Rb0 2.816685 1_555
F4 Rb1 3.084138 1_555
F4 Rb2 3.133705 1_565
F5 Sc0 2.021165 1_666
F5 K1 2.545136 1_556
F5 Rb1 2.816685 1_655
F5 Rb0 3.084138 1_555
F5 Rb3 3.133705 1_556
F6 Sc1 2.021165 1_555
F6 K0 2.545136 1_655
F6 Rb2 2.816685 1_555
F6 Rb3 3.084138 1_555
F6 Rb0 3.133705 1_545
F7 Sc0 2.021165 1_555
F7 K1 2.545136 1_555
F7 Rb3 2.816685 1_455
F7 Rb2 3.084138 1_555
F7 Rb1 3.133705 1_554
F8 Sc0 2.020047 1_565
F8 K0 2.548396 1_565
F8 Rb3 2.802785 1_455
F8 Rb2 2.877738 1_565
F9 Sc1 2.020047 1_555
F9 K1 2.548396 1_555
F9 Rb2 2.802785 1_565
F9 Rb3 2.877738 1_555
F10 Sc0 2.020047 1_656
F10 K0 2.548396 1_655
F10 Rb1 2.802785 1_655
F10 Rb0 2.877738 1_545
F11 Sc1 2.020047 1_555
F11 K1 2.548396 1_556
F11 Rb0 2.802785 1_545
F11 Rb1 2.877738 1_555
