# generated using pymatgen
data_Na4VS3O13
_symmetry_space_group_name_H-M   'P 1'
_cell_length_a   16.18412700
_cell_length_b   8.74741000
_cell_length_c   15.67976000
_cell_angle_alpha   89.99935322
_cell_angle_beta   90.00000000
_cell_angle_gamma   90.00000000
_symmetry_Int_Tables_number   1
_chemical_formula_structural   Na4VS3O13
_chemical_formula_sum   'Na32 V8 S24 O104'
_cell_volume   2219.77099097
_cell_formula_units_Z   8
loop_
 _symmetry_equiv_pos_site_id
 _symmetry_equiv_pos_as_xyz
  1  'x, y, z'
loop_
 _atom_site_type_symbol
 _atom_site_label
 _atom_site_symmetry_multiplicity
 _atom_site_fract_x
 _atom_site_fract_y
 _atom_site_fract_z
 _atom_site_occupancy
  Na  Na0  1  0.91284500  0.35282200  0.24518700  1
  Na  Na1  1  0.71945500  0.31618500  0.46790700  1
  Na  Na2  1  0.78271700  0.67761300  0.81143900  1
  Na  Na3  1  0.28362800  0.81389900  0.81984500  1
  Na  Na4  1  0.07882700  0.21174800  0.72814300  1
  Na  Na5  1  0.42117300  0.21174800  0.22814300  1
  Na  Na6  1  0.04814000  0.30624200  0.99021000  1
  Na  Na7  1  0.28271700  0.32238700  0.68856100  1
  Na  Na8  1  0.42989200  0.83507100  0.00877100  1
  Na  Na9  1  0.92117300  0.78825200  0.27185700  1
  Na  Na10  1  0.78362800  0.18610100  0.68015500  1
  Na  Na11  1  0.41284500  0.64717800  0.25481300  1
  Na  Na12  1  0.21637200  0.81389900  0.31984500  1
  Na  Na13  1  0.08715500  0.64717800  0.75481300  1
  Na  Na14  1  0.27895400  0.14693800  0.96965800  1
  Na  Na15  1  0.57882700  0.78825200  0.77185700  1
  Na  Na16  1  0.92989200  0.16492900  0.49122900  1
  Na  Na17  1  0.71637200  0.18610100  0.18015500  1
  Na  Na18  1  0.54814000  0.69375800  0.50979000  1
  Na  Na19  1  0.28054500  0.68381500  0.53209300  1
  Na  Na20  1  0.45186000  0.30624200  0.49021000  1
  Na  Na21  1  0.21945500  0.68381500  0.03209300  1
  Na  Na22  1  0.57010800  0.16492900  0.99122900  1
  Na  Na23  1  0.07010800  0.83507100  0.50877100  1
  Na  Na24  1  0.58715500  0.35282200  0.74518700  1
  Na  Na25  1  0.72104600  0.85306200  0.03034200  1
  Na  Na26  1  0.95186000  0.69375800  0.00979000  1
  Na  Na27  1  0.22104600  0.14693800  0.46965800  1
  Na  Na28  1  0.71728300  0.67761300  0.31143900  1
  Na  Na29  1  0.77895400  0.85306200  0.53034200  1
  Na  Na30  1  0.78054500  0.31618500  0.96790700  1
  Na  Na31  1  0.21728300  0.32238700  0.18856100  1
  V  V0  1  0.92114600  0.02702500  0.86894000  1
  V  V1  1  0.42552000  0.47306400  0.86084600  1
  V  V2  1  0.07885400  0.97297500  0.13106000  1
  V  V3  1  0.42114600  0.97297500  0.63106000  1
  V  V4  1  0.57885400  0.02702500  0.36894000  1
  V  V5  1  0.57448000  0.52693600  0.13915400  1
  V  V6  1  0.07448000  0.47306400  0.36084600  1
  V  V7  1  0.92552000  0.52693600  0.63915400  1
  S  S0  1  0.45288300  0.06203500  0.84006100  1
  S  S1  1  0.39854900  0.90815300  0.42540000  1
  S  S2  1  0.77890200  0.05457700  0.34091400  1
  S  S3  1  0.27890200  0.94542300  0.15908600  1
  S  S4  1  0.72097300  0.56138400  0.63459400  1
  S  S5  1  0.22097300  0.43861600  0.86540600  1
  S  S6  1  0.04711700  0.06203500  0.34006100  1
  S  S7  1  0.57556800  0.42722500  0.33910100  1
  S  S8  1  0.77902700  0.56138400  0.13459400  1
  S  S9  1  0.60145100  0.09184700  0.57460000  1
  S  S10  1  0.10145100  0.90815300  0.92540000  1
  S  S11  1  0.38742000  0.46034500  0.06140300  1
  S  S12  1  0.22109800  0.94542300  0.65908600  1
  S  S13  1  0.95288300  0.93796500  0.65993900  1
  S  S14  1  0.54711700  0.93796500  0.15993900  1
  S  S15  1  0.42443200  0.57277500  0.66089900  1
  S  S16  1  0.89854900  0.09184700  0.07460000  1
  S  S17  1  0.92443200  0.42722500  0.83910100  1
  S  S18  1  0.07556800  0.57277500  0.16089900  1
  S  S19  1  0.27902700  0.43861600  0.36540600  1
  S  S20  1  0.88742000  0.53965500  0.43859700  1
  S  S21  1  0.72109800  0.05457700  0.84091400  1
  S  S22  1  0.11258000  0.46034500  0.56140300  1
  S  S23  1  0.61258000  0.53965500  0.93859700  1
  O  O0  1  0.27542400  0.60137900  0.38893500  1
  O  O1  1  0.67239700  0.58323700  0.71414200  1
  O  O2  1  0.89768900  0.13825200  0.97988100  1
  O  O3  1  0.67389900  0.17001000  0.79412400  1
  O  O4  1  0.04263300  0.72937700  0.17988900  1
  O  O5  1  0.47293600  0.22916000  0.84431700  1
  O  O6  1  0.17239700  0.41676300  0.78585800  1
  O  O7  1  0.39640300  0.65146200  0.87021800  1
  O  O8  1  0.43261000  0.39908600  0.98381000  1
  O  O9  1  0.04279300  0.04228300  0.91436200  1
  O  O10  1  0.60231100  0.13825200  0.47988100  1
  O  O11  1  0.54263300  0.27062300  0.32011100  1
  O  O12  1  0.03031100  0.00872200  0.25002400  1
  O  O13  1  0.70595700  0.89977300  0.80759100  1
  O  O14  1  0.42985600  0.77565300  0.37969200  1
  O  O15  1  0.55049200  0.53379500  0.86576200  1
  O  O16  1  0.31246000  0.34507400  0.43586000  1
  O  O17  1  0.17389900  0.82999000  0.70587600  1
  O  O18  1  0.13358900  0.03239500  0.36499800  1
  O  O19  1  0.32274800  0.35076800  0.08413500  1
  O  O20  1  0.86641100  0.96760500  0.63500200  1
  O  O21  1  0.18789000  0.90485800  0.17758300  1
  O  O22  1  0.68488800  0.04266100  0.59745000  1
  O  O23  1  0.51041100  0.97652600  0.89630600  1
  O  O24  1  0.81246000  0.65492600  0.06414000  1
  O  O25  1  0.29404300  0.10022700  0.19240900  1
  O  O26  1  0.79299200  0.06335600  0.43450900  1
  O  O27  1  0.53031100  0.99127800  0.24997600  1
  O  O28  1  0.92985600  0.22434700  0.12030800  1
  O  O29  1  0.98958900  0.97652600  0.39630600  1
  O  O30  1  0.02706400  0.22916000  0.34431700  1
  O  O31  1  0.82274800  0.64923200  0.41586500  1
  O  O32  1  0.54947900  0.53313600  0.26673000  1
  O  O33  1  0.16646400  0.57090800  0.15626200  1
  O  O34  1  0.96283400  0.48477000  0.91771600  1
  O  O35  1  0.57014400  0.22434700  0.62030800  1
  O  O36  1  0.17725200  0.35076800  0.58413500  1
  O  O37  1  0.64342200  0.38526800  0.95388000  1
  O  O38  1  0.52706400  0.77084000  0.15568300  1
  O  O39  1  0.81511200  0.04266100  0.09745000  1
  O  O40  1  0.95720700  0.95771700  0.08563800  1
  O  O41  1  0.96968900  0.99127800  0.74997600  1
  O  O42  1  0.68754000  0.65492600  0.56414000  1
  O  O43  1  0.48958900  0.02347400  0.10369400  1
  O  O44  1  0.60359700  0.34853800  0.12978200  1
  O  O45  1  0.95052100  0.53313600  0.76673000  1
  O  O46  1  0.83353600  0.42909200  0.84373800  1
  O  O47  1  0.39251900  0.14677700  0.60414700  1
  O  O48  1  0.72457600  0.39862100  0.61106500  1
  O  O49  1  0.89251900  0.85322300  0.89585300  1
  O  O50  1  0.10748100  0.14677700  0.10414700  1
  O  O51  1  0.45736700  0.72937700  0.67988900  1
  O  O52  1  0.68789000  0.09514200  0.32241700  1
  O  O53  1  0.18488800  0.95733900  0.90255000  1
  O  O54  1  0.45052100  0.46686400  0.73327000  1
  O  O55  1  0.22457600  0.60137900  0.88893500  1
  O  O56  1  0.20700800  0.93664400  0.56549100  1
  O  O57  1  0.18754000  0.34507400  0.93586000  1
  O  O58  1  0.77542400  0.39862100  0.11106500  1
  O  O59  1  0.70700800  0.06335600  0.93450900  1
  O  O60  1  0.10359700  0.65146200  0.37021800  1
  O  O61  1  0.93261000  0.60091400  0.51619000  1
  O  O62  1  0.10231100  0.86174800  0.02011900  1
  O  O63  1  0.56739000  0.60091400  0.01619000  1
  O  O64  1  0.35657800  0.61473200  0.04612000  1
  O  O65  1  0.05049200  0.46620500  0.63423800  1
  O  O66  1  0.19078600  0.38018600  0.34558800  1
  O  O67  1  0.01041100  0.02347400  0.60369400  1
  O  O68  1  0.66646400  0.42909200  0.34373800  1
  O  O69  1  0.67725200  0.64923200  0.91586500  1
  O  O70  1  0.53716600  0.48477000  0.41771600  1
  O  O71  1  0.14342200  0.61473200  0.54612000  1
  O  O72  1  0.31511200  0.95733900  0.40255000  1
  O  O73  1  0.85657800  0.38526800  0.45388000  1
  O  O74  1  0.97293600  0.77084000  0.65568300  1
  O  O75  1  0.63358900  0.96760500  0.13500200  1
  O  O76  1  0.45720700  0.04228300  0.41436200  1
  O  O77  1  0.32610100  0.82999000  0.20587600  1
  O  O78  1  0.54279300  0.95771700  0.58563800  1
  O  O79  1  0.79404300  0.89977300  0.30759100  1
  O  O80  1  0.94950800  0.53379500  0.36576200  1
  O  O81  1  0.36641100  0.03239500  0.86499800  1
  O  O82  1  0.20595700  0.10022700  0.69240900  1
  O  O83  1  0.69078600  0.61981400  0.15441200  1
  O  O84  1  0.80921400  0.61981400  0.65441200  1
  O  O85  1  0.04947900  0.46686400  0.23327000  1
  O  O86  1  0.07014400  0.77565300  0.87969200  1
  O  O87  1  0.95736700  0.27062300  0.82011100  1
  O  O88  1  0.46283400  0.51523000  0.58228400  1
  O  O89  1  0.33353600  0.57090800  0.65626200  1
  O  O90  1  0.03716600  0.51523000  0.08228400  1
  O  O91  1  0.29299200  0.93664400  0.06549100  1
  O  O92  1  0.32760300  0.41676300  0.28585800  1
  O  O93  1  0.39768900  0.86174800  0.52011900  1
  O  O94  1  0.82610100  0.17001000  0.29412400  1
  O  O95  1  0.06739000  0.39908600  0.48381000  1
  O  O96  1  0.44950800  0.46620500  0.13423800  1
  O  O97  1  0.30921400  0.38018600  0.84558800  1
  O  O98  1  0.46968900  0.00872200  0.75002400  1
  O  O99  1  0.60748100  0.85322300  0.39585300  1
  O  O100  1  0.31211000  0.90485800  0.67758300  1
  O  O101  1  0.81211000  0.09514200  0.82241700  1
  O  O102  1  0.82760300  0.58323700  0.21414200  1
  O  O103  1  0.89640300  0.34853800  0.62978200  1
loop_
_geom_bond_atom_site_label_1
_geom_bond_atom_site_label_2
_geom_bond_distance
_geom_bond_site_symmetry_2
Na0 O94 2.262044 1_555
Na0 O28 2.274395 1_555
Na0 O85 2.433088 1_655
Na0 O102 2.490485 1_555
Na0 O80 2.536236 1_555
Na0 O30 2.646341 1_655
Na1 O73 2.310512 1_555
Na1 O68 2.345522 1_555
Na1 O48 2.359130 1_555
Na1 O10 2.460107 1_555
Na1 O26 2.565510 1_555
Na2 O13 2.307258 1_555
Na2 O69 2.378232 1_555
Na2 O46 2.378825 1_555
Na2 O1 2.489329 1_555
Na2 O84 2.549845 1_555
Na2 O49 2.696210 1_555
Na3 O55 2.354310 1_555
Na3 O53 2.410337 1_555
Na3 O100 2.412724 1_555
Na3 O81 2.439105 1_565
Na3 O7 2.444179 1_555
Na3 O17 2.523273 1_555
Na4 O82 2.344962 1_555
Na4 O87 2.491743 1_455
Na4 O6 2.515620 1_555
Na4 O41 2.637476 1_445
Na4 O65 2.707871 1_555
Na4 O67 2.783179 1_555
Na5 O25 2.344962 1_555
Na5 O11 2.491743 1_555
Na5 O92 2.515620 1_555
Na5 O27 2.637476 1_545
Na5 O96 2.707871 1_555
Na5 O43 2.783179 1_555
Na6 O90 2.336200 1_556
Na6 O34 2.374207 1_455
Na6 O57 2.435457 1_555
Na6 O50 2.461633 1_556
Na6 O9 2.598696 1_555
Na6 O2 2.848583 1_455
Na6 O28 2.887733 1_456
Na7 O82 2.307258 1_555
Na7 O36 2.378232 1_555
Na7 O89 2.378825 1_555
Na7 O6 2.489329 1_555
Na7 O97 2.549845 1_555
Na7 O47 2.696210 1_555
Na8 O64 2.337867 1_555
Na8 O43 2.421728 1_565
Na8 O23 2.517704 1_554
Na8 O91 2.547414 1_555
Na8 O7 2.755551 1_554
Na8 O38 2.845203 1_555
Na8 O81 3.019395 1_564
Na8 O63 3.026685 1_555
Na9 O79 2.344962 1_555
Na9 O4 2.491743 1_655
Na9 O102 2.515620 1_555
Na9 O12 2.637476 1_665
Na9 O80 2.707871 1_555
Na9 O29 2.783179 1_555
Na10 O48 2.354310 1_555
Na10 O22 2.410337 1_555
Na10 O101 2.412724 1_555
Na10 O20 2.439105 1_545
Na10 O103 2.444179 1_555
Na10 O3 2.523273 1_555
Na11 O77 2.262044 1_555
Na11 O14 2.274395 1_555
Na11 O32 2.433088 1_555
Na11 O92 2.490485 1_555
Na11 O96 2.536236 1_555
Na11 O38 2.646341 1_555
Na12 O0 2.354310 1_555
Na12 O72 2.410337 1_555
Na12 O21 2.412724 1_555
Na12 O18 2.439105 1_565
Na12 O60 2.444179 1_555
Na12 O77 2.523273 1_555
Na13 O17 2.262044 1_555
Na13 O86 2.274395 1_555
Na13 O45 2.433088 1_455
Na13 O6 2.490485 1_555
Na13 O65 2.536236 1_555
Na13 O74 2.646341 1_455
Na14 O57 2.339554 1_555
Na14 O91 2.386072 1_546
Na14 O81 2.387546 1_555
Na14 O53 2.485054 1_545
Na14 O19 2.627429 1_556
Na14 O97 2.861323 1_555
Na15 O13 2.344962 1_555
Na15 O51 2.491743 1_555
Na15 O1 2.515620 1_555
Na15 O98 2.637476 1_565
Na15 O15 2.707871 1_555
Na15 O23 2.783179 1_555
Na16 O73 2.337867 1_555
Na16 O29 2.421728 1_545
Na16 O67 2.517704 1_655
Na16 O26 2.547414 1_555
Na16 O103 2.755551 1_555
Na16 O30 2.845203 1_655
Na16 O20 3.019395 1_545
Na16 O95 3.026685 1_655
Na17 O58 2.354310 1_555
Na17 O39 2.410337 1_555
Na17 O52 2.412724 1_555
Na17 O75 2.439105 1_545
Na17 O44 2.444179 1_555
Na17 O94 2.523273 1_555
Na18 O70 2.336200 1_555
Na18 O88 2.374207 1_555
Na18 O42 2.435457 1_555
Na18 O99 2.461633 1_555
Na18 O78 2.598696 1_555
Na18 O93 2.848583 1_555
Na18 O14 2.887733 1_555
Na19 O71 2.310512 1_555
Na19 O89 2.345522 1_555
Na19 O0 2.359130 1_555
Na19 O93 2.460107 1_555
Na19 O56 2.565510 1_555
Na20 O88 2.336200 1_555
Na20 O70 2.374207 1_555
Na20 O16 2.435457 1_555
Na20 O47 2.461633 1_555
Na20 O76 2.598696 1_555
Na20 O10 2.848583 1_555
Na20 O35 2.887733 1_555
Na21 O64 2.310512 1_555
Na21 O33 2.345522 1_555
Na21 O55 2.359130 1_554
Na21 O62 2.460107 1_555
Na21 O91 2.565510 1_555
Na22 O37 2.337867 1_555
Na22 O23 2.421728 1_545
Na22 O43 2.517704 1_556
Na22 O59 2.547414 1_555
Na22 O44 2.755551 1_556
Na22 O5 2.845203 1_555
Na22 O75 3.019395 1_546
Na22 O8 3.026685 1_555
Na23 O71 2.337867 1_555
Na23 O67 2.421728 1_565
Na23 O29 2.517704 1_455
Na23 O56 2.547414 1_555
Na23 O60 2.755551 1_555
Na23 O74 2.845203 1_455
Na23 O18 3.019395 1_565
Na23 O61 3.026685 1_455
Na24 O3 2.262044 1_555
Na24 O35 2.274395 1_555
Na24 O54 2.433088 1_555
Na24 O1 2.490485 1_555
Na24 O15 2.536236 1_555
Na24 O5 2.646341 1_555
Na25 O24 2.339554 1_555
Na25 O59 2.386072 1_564
Na25 O75 2.387546 1_555
Na25 O39 2.485054 1_565
Na25 O69 2.627429 1_554
Na25 O83 2.861323 1_555
Na26 O34 2.336200 1_554
Na26 O90 2.374207 1_655
Na26 O24 2.435457 1_555
Na26 O49 2.461633 1_554
Na26 O40 2.598696 1_555
Na26 O62 2.848583 1_655
Na26 O86 2.887733 1_654
Na27 O16 2.339554 1_555
Na27 O56 2.386072 1_545
Na27 O18 2.387546 1_555
Na27 O72 2.485054 1_545
Na27 O36 2.627429 1_555
Na27 O66 2.861323 1_555
Na28 O79 2.307258 1_555
Na28 O31 2.378232 1_555
Na28 O68 2.378825 1_555
Na28 O102 2.489329 1_555
Na28 O83 2.549845 1_555
Na28 O99 2.696210 1_555
Na29 O42 2.339554 1_555
Na29 O26 2.386072 1_565
Na29 O20 2.387546 1_555
Na29 O22 2.485054 1_565
Na29 O31 2.627429 1_555
Na29 O84 2.861323 1_555
Na30 O37 2.310512 1_555
Na30 O46 2.345522 1_555
Na30 O58 2.359130 1_556
Na30 O2 2.460107 1_555
Na30 O59 2.565510 1_555
Na31 O25 2.307258 1_555
Na31 O19 2.378232 1_555
Na31 O33 2.378825 1_555
Na31 O92 2.489329 1_555
Na31 O66 2.549845 1_555
Na31 O50 2.696210 1_555
O0 S19 1.471937 1_555
O1 S4 1.486720 1_555
O2 S16 1.539704 1_556
O2 V0 2.028976 1_555
O3 S21 1.463323 1_555
O4 S18 1.499769 1_555
O4 V2 2.338870 1_555
O5 S0 1.498988 1_555
O5 V1 2.282106 1_555
O6 S5 1.486720 1_555
O7 V1 1.636730 1_555
O8 S11 1.517320 1_556
O8 V1 2.036973 1_555
O9 S10 1.519139 1_545
O9 V0 2.097864 1_455
O10 S9 1.539704 1_555
O10 V4 2.028976 1_555
O11 S7 1.499769 1_555
O11 V4 2.338870 1_555
O12 S6 1.511469 1_555
O12 V2 2.048034 1_545
O13 S21 1.471987 1_565
O14 S1 1.453871 1_555
O15 S23 1.522031 1_555
O15 V1 2.092586 1_555
O16 S19 1.477380 1_555
O17 S12 1.463323 1_555
O18 S6 1.476019 1_555
O19 S11 1.463313 1_555
O20 S13 1.476019 1_555
O21 S3 1.542597 1_555
O21 V2 2.000287 1_555
O22 S9 1.461826 1_555
O23 S0 1.484608 1_565
O24 S8 1.477380 1_555
O25 S3 1.471987 1_545
O26 S2 1.487143 1_555
O27 S14 1.511469 1_555
O27 V4 2.048034 1_565
O28 S16 1.453871 1_555
O29 S6 1.484608 1_665
O30 S6 1.498988 1_555
O30 V6 2.282106 1_555
O31 S20 1.463313 1_555
O32 S7 1.524545 1_555
O32 V5 2.041594 1_555
O33 S18 1.472959 1_555
O34 S17 1.469395 1_555
O35 S9 1.453871 1_555
O36 S22 1.463313 1_555
O37 S23 1.459583 1_555
O38 S14 1.498988 1_555
O38 V5 2.282106 1_555
O39 S16 1.461826 1_555
O40 S16 1.519139 1_565
O40 V2 2.097864 1_655
O41 S13 1.511469 1_555
O41 V0 2.048034 1_565
O42 S4 1.477380 1_555
O43 S14 1.484608 1_545
O44 V5 1.636730 1_555
O45 S17 1.524545 1_555
O45 V7 2.041594 1_555
O46 S17 1.472959 1_555
O47 V3 1.644407 1_545
O48 S4 1.471937 1_555
O49 V0 1.644407 1_565
O50 V2 1.644407 1_545
O51 S15 1.499769 1_555
O51 V3 2.338870 1_555
O52 S2 1.542597 1_555
O52 V4 2.000287 1_555
O53 S10 1.461826 1_555
O54 S15 1.524545 1_555
O54 V1 2.041594 1_555
O55 S5 1.471937 1_555
O56 S12 1.487143 1_555
O57 S5 1.477380 1_555
O58 S8 1.471937 1_555
O59 S21 1.487143 1_555
O60 V6 1.636730 1_555
O61 S20 1.517320 1_555
O61 V7 2.036973 1_555
O62 S10 1.539704 1_554
O62 V2 2.028976 1_555
O63 S23 1.517320 1_554
O63 V5 2.036973 1_555
O64 S11 1.459583 1_555
O65 S22 1.522031 1_555
O65 V7 2.092586 1_455
O66 S19 1.548315 1_555
O66 V6 2.064073 1_555
O67 S13 1.484608 1_445
O68 S7 1.472959 1_555
O69 S23 1.463313 1_555
O70 S7 1.469395 1_555
O71 S22 1.459583 1_555
O72 S1 1.461826 1_555
O73 S20 1.459583 1_555
O74 S13 1.498988 1_555
O74 V7 2.282106 1_555
O75 S14 1.476019 1_555
O76 S1 1.519139 1_545
O76 V4 2.097864 1_555
O77 S3 1.463323 1_555
O78 S9 1.519139 1_565
O78 V3 2.097864 1_555
O79 S2 1.471987 1_565
O80 S20 1.522031 1_555
O80 V6 2.092586 1_655
O81 S0 1.476019 1_555
O82 S12 1.471987 1_545
O83 S8 1.548315 1_555
O83 V5 2.064073 1_555
O84 S4 1.548315 1_555
O84 V7 2.064073 1_555
O85 S18 1.524545 1_555
O85 V6 2.041594 1_555
O86 S10 1.453871 1_555
O87 S17 1.499769 1_555
O87 V0 2.338870 1_555
O88 S15 1.469395 1_555
O89 S15 1.472959 1_555
O90 S18 1.469395 1_555
O91 S3 1.487143 1_555
O92 S19 1.486720 1_555
O93 S1 1.539704 1_555
O93 V3 2.028976 1_555
O94 S2 1.463323 1_555
O95 S22 1.517320 1_555
O95 V6 2.036973 1_555
O96 S11 1.522031 1_555
O96 V5 2.092586 1_555
O97 S5 1.548315 1_555
O97 V1 2.064073 1_555
O98 S0 1.511469 1_555
O98 V3 2.048034 1_545
O99 V4 1.644407 1_565
O100 S12 1.542597 1_555
O100 V3 2.000287 1_555
O101 S21 1.542597 1_555
O101 V0 2.000287 1_555
O102 S8 1.486720 1_555
O103 V7 1.636730 1_555
