# generated using pymatgen
data_Re3Pb3O10
_symmetry_space_group_name_H-M   'P 1'
_cell_length_a   7.46297014
_cell_length_b   22.45489003
_cell_length_c   19.81535199
_cell_angle_alpha   19.05548440
_cell_angle_beta   55.61395755
_cell_angle_gamma   60.10763503
_symmetry_Int_Tables_number   1
_chemical_formula_structural   Re3Pb3O10
_chemical_formula_sum   'Re12 Pb12 O40'
_cell_volume   886.91230518
_cell_formula_units_Z   4
loop_
 _symmetry_equiv_pos_site_id
 _symmetry_equiv_pos_as_xyz
  1  'x, y, z'
loop_
 _atom_site_type_symbol
 _atom_site_label
 _atom_site_symmetry_multiplicity
 _atom_site_fract_x
 _atom_site_fract_y
 _atom_site_fract_z
 _atom_site_occupancy
  Re  Re0  1  0.49962100  0.16697700  0.00080400  1
  Re  Re1  1  0.99934900  0.16727800  0.50040500  1
  Re  Re2  1  0.50089800  0.00152200  0.49770500  1
  Re  Re3  1  0.50072000  0.49990800  0.99945100  1
  Re  Re4  1  0.49769200  0.16724500  0.50039800  1
  Re  Re5  1  0.50065700  0.33398900  0.49921600  1
  Re  Re6  1  0.50061900  0.83407300  0.99921900  1
  Re  Re7  1  0.50310900  0.50049500  0.49862800  1
  Re  Re8  1  0.50007800  0.66472300  0.50292500  1
  Re  Re9  1  0.00117500  0.50060500  0.49840900  1
  Re  Re10  1  0.50162000  0.83331300  0.49979600  1
  Re  Re11  1  0.00068200  0.83250800  0.50084700  1
  Pb  Pb0  1  0.99458500  0.99867500  0.00619200  1
  Pb  Pb1  1  0.48975700  0.99771700  0.00812600  1
  Pb  Pb2  1  0.00002400  0.33103400  0.00226600  1
  Pb  Pb3  1  0.50046100  0.33145300  0.00271300  1
  Pb  Pb4  1  0.00779000  0.67200400  0.98948500  1
  Pb  Pb5  1  0.00899100  0.17070900  0.98996500  1
  Pb  Pb6  1  0.99989100  0.83365800  0.99980100  1
  Pb  Pb7  1  0.99910600  0.33416100  0.49967300  1
  Pb  Pb8  1  0.51116500  0.67128900  0.99020200  1
  Pb  Pb9  1  0.99276500  0.50102600  0.00376100  1
  Pb  Pb10  1  0.00945900  0.67301000  0.48812800  1
  Pb  Pb11  1  0.99215000  0.99649400  0.50842800  1
  O  O0  1  0.18395100  0.06647300  0.18314800  1
  O  O1  1  0.10127800  0.28496600  0.14770800  1
  O  O2  1  0.56879300  0.06707900  0.18222800  1
  O  O3  1  0.18210200  0.01602800  0.56737800  1
  O  O4  1  0.18458200  0.39869700  0.18405000  1
  O  O5  1  0.56565300  0.27284800  0.18269200  1
  O  O6  1  0.15151000  0.63330300  0.10049600  1
  O  O7  1  0.18559800  0.14483000  0.56467000  1
  O  O8  1  0.56447900  0.01749200  0.56639600  1
  O  O9  1  0.56395800  0.39731400  0.18595700  1
  O  O10  1  0.18316000  0.34958200  0.56849100  1
  O  O11  1  0.43828700  0.31548300  0.43341200  1
  O  O12  1  0.18392400  0.73426300  0.18374700  1
  O  O13  1  0.55941200  0.60493400  0.18945500  1
  O  O14  1  0.81826400  0.18878900  0.43226200  1
  O  O15  1  0.44029800  0.06207000  0.81099100  1
  O  O16  1  0.18136100  0.47747500  0.56890000  1
  O  O17  1  0.56413300  0.35051600  0.56721300  1
  O  O18  1  0.81497300  0.31378700  0.43565200  1
  O  O19  1  0.56400800  0.73581600  0.18237100  1
  O  O20  1  0.18554400  0.68583800  0.56320600  1
  O  O21  1  0.43591500  0.26679200  0.81617700  1
  O  O22  1  0.43657700  0.64808200  0.43533800  1
  O  O23  1  0.56845900  0.93925900  0.18187500  1
  O  O24  1  0.84980900  0.03454600  0.89848600  1
  O  O25  1  0.81900800  0.52230800  0.43228100  1
  O  O26  1  0.43614400  0.39480200  0.81488100  1
  O  O27  1  0.18736700  0.81287200  0.56158900  1
  O  O28  1  0.56672200  0.68869600  0.55998300  1
  O  O29  1  0.81751300  0.26643400  0.81641500  1
  O  O30  1  0.81530100  0.64742900  0.43603500  1
  O  O31  1  0.43437700  0.60487100  0.81343500  1
  O  O32  1  0.43356600  0.98436700  0.43249300  1
  O  O33  1  0.81262900  0.85339800  0.44015700  1
  O  O34  1  0.89964900  0.38574500  0.84766300  1
  O  O35  1  0.43238500  0.72764700  0.81849500  1
  O  O36  1  0.81562000  0.60231100  0.81621200  1
  O  O37  1  0.81876900  0.98417600  0.43302100  1
  O  O38  1  0.43703800  0.93198200  0.81670300  1
  O  O39  1  0.81933200  0.93051200  0.81808500  1
loop_
_geom_bond_atom_site_label_1
_geom_bond_atom_site_label_2
_geom_bond_distance
_geom_bond_site_symmetry_2
O0 Re0 1.992007 1_555
O0 Re11 2.004243 1_545
O0 Pb2 2.683251 1_555
O0 Pb5 2.738366 1_554
O1 Pb9 2.205079 1_455
O1 Pb11 2.206735 1_445
O1 Pb3 2.445712 1_555
O1 Pb2 2.447827 1_555
O2 Re0 1.979795 1_555
O2 Re10 2.005002 1_545
O2 Pb3 2.695749 1_555
O2 Pb5 2.728623 1_654
O3 Re2 2.010003 1_555
O3 Re1 2.015723 1_455
O3 Pb4 2.628403 1_545
O3 Pb11 2.650529 1_445
O4 Re3 1.998203 1_554
O4 Re1 2.000646 1_455
O4 Pb9 2.659265 1_455
O4 Pb4 2.686047 1_554
O5 Re3 1.985554 1_554
O5 Re2 1.987775 1_555
O5 Pb3 2.671510 1_555
O5 Pb2 2.701481 1_655
O6 Pb8 2.200082 1_554
O6 Pb4 2.206037 1_554
O6 Pb7 2.447913 1_455
O6 Pb6 2.451218 1_454
O7 Re1 1.973637 1_455
O7 Re4 1.976460 1_555
O7 Pb6 2.711309 1_445
O7 Pb7 2.728780 1_455
O8 Re4 2.004674 1_555
O8 Re2 2.007062 1_555
O8 Pb8 2.647881 1_545
O8 Pb11 2.666729 1_545
O9 Re4 1.992920 1_555
O9 Re3 1.994918 1_554
O9 Pb9 2.680113 1_555
O9 Pb8 2.692192 1_554
O10 Re9 1.977451 1_555
O10 Re5 2.007254 1_555
O10 Pb7 2.710844 1_455
O10 Pb0 2.714065 1_446
O11 Re4 1.969723 1_555
O11 Re5 1.998057 1_555
O11 Pb7 2.729913 1_455
O11 Pb8 2.747764 1_554
O12 Re9 1.987327 1_555
O12 Re6 2.001384 1_554
O12 Pb6 2.715467 1_454
O12 Pb0 2.718609 1_455
O13 Re6 1.956705 1_554
O13 Re5 1.976585 1_555
O13 Pb8 2.808652 1_554
O13 Pb4 2.816315 1_654
O14 Re4 2.012699 1_555
O14 Re1 2.015068 1_555
O14 Pb11 2.629478 1_545
O14 Pb9 2.649659 1_555
O15 Re6 1.956113 1_545
O15 Re5 1.985027 1_555
O15 Pb0 2.798259 1_446
O15 Pb1 2.812411 1_546
O16 Re7 2.017846 1_555
O16 Re9 2.020674 1_555
O16 Pb5 2.603852 1_555
O16 Pb10 2.627916 1_555
O17 Re7 1.978469 1_555
O17 Re5 2.004752 1_555
O17 Pb7 2.701367 1_555
O17 Pb1 2.731789 1_546
O18 Re1 1.965999 1_555
O18 Re5 1.994220 1_555
O18 Pb7 2.720274 1_555
O18 Pb4 2.768967 1_654
O19 Re7 1.994471 1_555
O19 Re6 2.006196 1_554
O19 Pb6 2.702263 1_554
O19 Pb1 2.709539 1_555
O20 Re8 1.988944 1_555
O20 Re11 1.995121 1_555
O20 Pb10 2.723741 1_555
O20 Pb2 2.727572 1_556
O21 Re7 2.005088 1_555
O21 Re0 2.008836 1_556
O21 Pb1 2.645259 1_546
O21 Pb5 2.660526 1_555
O22 Re8 1.999320 1_555
O22 Re7 2.002143 1_555
O22 Pb1 2.670129 1_555
O22 Pb10 2.670266 1_555
O23 Re0 2.016215 1_565
O23 Re8 2.016430 1_555
O23 Pb1 2.625604 1_555
O23 Pb0 2.637512 1_555
O24 Pb1 2.201977 1_546
O24 Pb0 2.204216 1_546
O24 Pb7 2.444285 1_555
O24 Pb6 2.453062 1_545
O25 Re9 1.986804 1_655
O25 Re7 1.989746 1_555
O25 Pb7 2.672264 1_555
O25 Pb6 2.686997 1_554
O26 Re0 1.973663 1_556
O26 Re8 1.974675 1_555
O26 Pb2 2.715627 1_556
O26 Pb3 2.726817 1_556
O27 Re11 1.965394 1_555
O27 Re10 1.994267 1_555
O27 Pb9 2.773451 1_456
O27 Pb11 2.787156 1_455
O28 Re8 1.966735 1_555
O28 Re10 1.991059 1_555
O28 Pb10 2.746413 1_655
O28 Pb3 2.752264 1_556
O29 Re9 2.006530 1_655
O29 Re0 2.007575 1_556
O29 Pb0 2.643736 1_546
O29 Pb5 2.646514 1_655
O30 Re8 1.995571 1_555
O30 Re9 1.999108 1_655
O30 Pb10 2.671149 1_655
O30 Pb0 2.682547 1_555
O31 Re3 1.965151 1_555
O31 Re10 1.991596 1_555
O31 Pb9 2.742001 1_456
O31 Pb3 2.746865 1_556
O32 Re2 1.984448 1_565
O32 Re10 2.009515 1_555
O32 Pb3 2.668577 1_565
O32 Pb11 2.733495 1_455
O33 Re11 1.954402 1_655
O33 Re10 1.981126 1_555
O33 Pb10 2.799362 1_655
O33 Pb5 2.824689 1_664
O34 Pb10 2.199181 1_655
O34 Pb5 2.205710 1_655
O34 Pb3 2.449844 1_556
O34 Pb2 2.452674 1_656
O35 Re2 2.012827 1_565
O35 Re3 2.017660 1_555
O35 Pb4 2.626482 1_555
O35 Pb8 2.627147 1_555
O36 Re3 1.989672 1_555
O36 Re11 1.995290 1_655
O36 Pb9 2.702966 1_556
O36 Pb2 2.741009 1_656
O37 Re2 2.002620 1_565
O37 Re11 2.011901 1_655
O37 Pb2 2.670830 1_665
O37 Pb11 2.702844 1_555
O38 Re4 1.995641 1_565
O38 Re6 2.001523 1_555
O38 Pb8 2.696029 1_555
O38 Pb6 2.710763 1_455
O39 Re1 1.999208 1_565
O39 Re6 2.006812 1_555
O39 Pb4 2.682768 1_655
O39 Pb6 2.695690 1_555
