# generated using pymatgen
data_BaMg2FeH8
_symmetry_space_group_name_H-M   'P 1'
_cell_length_a   4.55655132
_cell_length_b   4.55655132
_cell_length_c   6.96986600
_cell_angle_alpha   90.00000000
_cell_angle_beta   90.00000000
_cell_angle_gamma   119.99999012
_symmetry_Int_Tables_number   1
_chemical_formula_structural   BaMg2FeH8
_chemical_formula_sum   'Ba1 Mg2 Fe1 H8'
_cell_volume   125.32209189
_cell_formula_units_Z   1
loop_
 _symmetry_equiv_pos_site_id
 _symmetry_equiv_pos_as_xyz
  1  'x, y, z'
loop_
 _atom_site_type_symbol
 _atom_site_label
 _atom_site_symmetry_multiplicity
 _atom_site_fract_x
 _atom_site_fract_y
 _atom_site_fract_z
 _atom_site_occupancy
  Ba  Ba0  1  0.00000000  0.00000000  0.50000000  1
  Mg  Mg0  1  0.66666700  0.33333300  0.88804200  1
  Mg  Mg1  1  0.33333300  0.66666700  0.11195800  1
  Fe  Fe0  1  0.00000000  0.00000000  0.00000000  1
  H  H0  1  0.31884300  0.15942100  0.13642000  1
  H  H1  1  0.84057900  0.68115700  0.13642000  1
  H  H2  1  0.84057900  0.15942100  0.13642000  1
  H  H3  1  0.68115700  0.84057900  0.86358000  1
  H  H4  1  0.15942100  0.31884300  0.86358000  1
  H  H5  1  0.15942100  0.84057900  0.86358000  1
  H  H6  1  0.66666700  0.33333300  0.60919700  1
  H  H7  1  0.33333300  0.66666700  0.39080300  1
loop_
_geom_bond_atom_site_label_1
_geom_bond_atom_site_label_2
_geom_bond_distance
_geom_bond_site_symmetry_2
Ba0 H7 2.738606 1_545
Ba0 H6 2.738606 1_455
Ba0 H6 2.738610 1_555
Ba0 H7 2.738610 1_555
Ba0 H7 2.738610 1_445
Ba0 H6 2.738610 1_445
Ba0 H5 2.829257 1_545
Ba0 H2 2.829257 1_455
Ba0 H3 2.829259 1_445
Ba0 H0 2.829259 1_555
Ba0 H1 2.829259 1_445
Ba0 H4 2.829259 1_555
Fe0 H2 1.577051 1_455
Fe0 H5 1.577051 1_544
Fe0 H3 1.577054 1_444
Fe0 H0 1.577054 1_555
Fe0 H4 1.577054 1_554
Fe0 H1 1.577054 1_445
H0 Mg0 2.209253 1_554
H0 Mg1 2.285357 1_545
H0 Mg1 2.285366 1_555
H1 Mg0 2.209253 1_554
H1 Mg1 2.285357 1_655
H1 Mg1 2.285366 1_555
H2 Mg0 2.209253 1_554
H2 Mg1 2.285362 1_545
H2 Mg1 2.285362 1_655
H3 Mg1 2.209253 1_556
H3 Mg0 2.285357 1_565
H3 Mg0 2.285366 1_555
H4 Mg1 2.209253 1_556
H4 Mg0 2.285357 1_455
H4 Mg0 2.285366 1_555
H5 Mg1 2.209253 1_556
H5 Mg0 2.285362 1_455
H5 Mg0 2.285362 1_565
H6 Mg0 1.943512 1_555
H7 Mg1 1.943512 1_555
