# generated using pymatgen
data_Ca2GaFeO5
_symmetry_space_group_name_H-M   'P 1'
_cell_length_a   5.48166900
_cell_length_b   5.68694200
_cell_length_c   14.73629300
_cell_angle_alpha   90.00000000
_cell_angle_beta   90.00000000
_cell_angle_gamma   90.00000000
_symmetry_Int_Tables_number   1
_chemical_formula_structural   Ca2GaFeO5
_chemical_formula_sum   'Ca8 Ga4 Fe4 O20'
_cell_volume   459.38822047
_cell_formula_units_Z   4
loop_
 _symmetry_equiv_pos_site_id
 _symmetry_equiv_pos_as_xyz
  1  'x, y, z'
loop_
 _atom_site_type_symbol
 _atom_site_label
 _atom_site_symmetry_multiplicity
 _atom_site_fract_x
 _atom_site_fract_y
 _atom_site_fract_z
 _atom_site_occupancy
  Ca  Ca0  1  0.97925000  0.02848700  0.10841700  1
  Ca  Ca1  1  0.52075000  0.52848700  0.60841700  1
  Ca  Ca2  1  0.52075000  0.52848700  0.89158300  1
  Ca  Ca3  1  0.47925000  0.47151300  0.10841700  1
  Ca  Ca4  1  0.47925000  0.47151300  0.39158300  1
  Ca  Ca5  1  0.02075000  0.97151300  0.60841700  1
  Ca  Ca6  1  0.02075000  0.97151300  0.89158300  1
  Ca  Ca7  1  0.97925000  0.02848700  0.39158300  1
  Ga  Ga0  1  0.45177600  0.92921200  0.25000000  1
  Ga  Ga1  1  0.04822400  0.42921200  0.75000000  1
  Ga  Ga2  1  0.95177600  0.57078800  0.25000000  1
  Ga  Ga3  1  0.54822400  0.07078800  0.75000000  1
  Fe  Fe0  1  0.50000000  0.00000000  0.00000000  1
  Fe  Fe1  1  0.50000000  0.00000000  0.50000000  1
  Fe  Fe2  1  0.00000000  0.50000000  0.50000000  1
  Fe  Fe3  1  0.00000000  0.50000000  0.00000000  1
  O  O0  1  0.39459100  0.37291700  0.75000000  1
  O  O1  1  0.26273600  0.26396700  0.51519800  1
  O  O2  1  0.23726400  0.76396700  0.01519800  1
  O  O3  1  0.53271000  0.07460400  0.14278600  1
  O  O4  1  0.73726400  0.73603300  0.01519800  1
  O  O5  1  0.76273600  0.23603300  0.98480200  1
  O  O6  1  0.76273600  0.23603300  0.51519800  1
  O  O7  1  0.96729000  0.57460400  0.85721400  1
  O  O8  1  0.89459100  0.12708300  0.75000000  1
  O  O9  1  0.10540900  0.87291700  0.25000000  1
  O  O10  1  0.73726400  0.73603300  0.48480200  1
  O  O11  1  0.46729000  0.92539600  0.85721400  1
  O  O12  1  0.53271000  0.07460400  0.35721400  1
  O  O13  1  0.60540900  0.62708300  0.25000000  1
  O  O14  1  0.23726400  0.76396700  0.48480200  1
  O  O15  1  0.96729000  0.57460400  0.64278600  1
  O  O16  1  0.03271000  0.42539600  0.14278600  1
  O  O17  1  0.26273600  0.26396700  0.98480200  1
  O  O18  1  0.46729000  0.92539600  0.64278600  1
  O  O19  1  0.03271000  0.42539600  0.35721400  1
loop_
_geom_bond_atom_site_label_1
_geom_bond_atom_site_label_2
_geom_bond_distance
_geom_bond_site_symmetry_2
Ca0 O16 2.331810 1_655
Ca0 O9 2.369406 1_645
Ca0 O5 2.473877 1_554
Ca0 O2 2.479997 1_645
Ca0 O3 2.513353 1_555
Ca0 O4 2.532342 1_545
Ca0 O17 2.743450 1_654
Ca1 O18 2.331810 1_555
Ca1 O0 2.369406 1_555
Ca1 O10 2.473877 1_555
Ca1 O1 2.479997 1_555
Ca1 O15 2.513353 1_555
Ca1 O6 2.532342 1_555
Ca1 O14 2.743450 1_555
Ca2 O11 2.331810 1_555
Ca2 O0 2.369406 1_555
Ca2 O4 2.473877 1_556
Ca2 O17 2.479997 1_555
Ca2 O7 2.513353 1_555
Ca2 O5 2.532342 1_555
Ca2 O2 2.743450 1_556
Ca3 O3 2.331810 1_555
Ca3 O13 2.369406 1_555
Ca3 O17 2.473877 1_554
Ca3 O4 2.479997 1_555
Ca3 O16 2.513353 1_555
Ca3 O2 2.532342 1_555
Ca3 O5 2.743450 1_554
Ca4 O12 2.331810 1_555
Ca4 O13 2.369406 1_555
Ca4 O1 2.473877 1_555
Ca4 O10 2.479997 1_555
Ca4 O19 2.513353 1_555
Ca4 O14 2.532342 1_555
Ca4 O6 2.743450 1_555
Ca5 O15 2.331810 1_455
Ca5 O8 2.369406 1_465
Ca5 O14 2.473877 1_555
Ca5 O6 2.479997 1_465
Ca5 O18 2.513353 1_555
Ca5 O1 2.532342 1_565
Ca5 O10 2.743450 1_455
Ca6 O7 2.331810 1_455
Ca6 O8 2.369406 1_465
Ca6 O2 2.473877 1_556
Ca6 O5 2.479997 1_465
Ca6 O11 2.513353 1_555
Ca6 O17 2.532342 1_565
Ca6 O4 2.743450 1_456
Ca7 O19 2.331810 1_655
Ca7 O9 2.369406 1_645
Ca7 O6 2.473877 1_555
Ca7 O14 2.479997 1_645
Ca7 O12 2.513353 1_555
Ca7 O10 2.532342 1_545
Ca7 O1 2.743450 1_655
Ga0 O12 1.837576 1_565
Ga0 O3 1.837576 1_565
Ga0 O13 1.913484 1_555
Ga0 O9 1.925471 1_555
Ga1 O7 1.837576 1_455
Ga1 O15 1.837576 1_455
Ga1 O8 1.913484 1_455
Ga1 O0 1.925471 1_555
Ga2 O19 1.837576 1_655
Ga2 O16 1.837576 1_655
Ga2 O9 1.913484 1_655
Ga2 O13 1.925471 1_555
Ga3 O11 1.837576 1_545
Ga3 O18 1.837576 1_545
Ga3 O0 1.913484 1_555
Ga3 O8 1.925471 1_555
Fe0 O5 1.981467 1_554
Fe0 O2 1.981467 1_545
Fe0 O4 1.998805 1_545
Fe0 O17 1.998805 1_554
Fe0 O3 2.153960 1_555
Fe0 O11 2.153960 1_544
Fe1 O6 1.981467 1_555
Fe1 O14 1.981467 1_545
Fe1 O1 1.998805 1_555
Fe1 O10 1.998805 1_545
Fe1 O12 2.153960 1_555
Fe1 O18 2.153960 1_545
Fe2 O1 1.981467 1_555
Fe2 O10 1.981467 1_455
Fe2 O6 1.998805 1_455
Fe2 O14 1.998805 1_555
Fe2 O15 2.153960 1_455
Fe2 O19 2.153960 1_555
Fe3 O17 1.981467 1_554
Fe3 O4 1.981467 1_455
Fe3 O2 1.998805 1_555
Fe3 O5 1.998805 1_454
Fe3 O16 2.153960 1_555
Fe3 O7 2.153960 1_454
