# generated using pymatgen
data_Hf3Sc4O12
_symmetry_space_group_name_H-M   'P 1'
_cell_length_a   6.16954200
_cell_length_b   6.18504403
_cell_length_c   29.88690812
_cell_angle_alpha   90.12160689
_cell_angle_beta   90.18967302
_cell_angle_gamma   99.48892926
_symmetry_Int_Tables_number   1
_chemical_formula_structural   Hf3Sc4O12
_chemical_formula_sum   'Hf15 Sc20 O60'
_cell_volume   1124.83667353
_cell_formula_units_Z   5
loop_
 _symmetry_equiv_pos_site_id
 _symmetry_equiv_pos_as_xyz
  1  'x, y, z'
loop_
 _atom_site_type_symbol
 _atom_site_label
 _atom_site_symmetry_multiplicity
 _atom_site_fract_x
 _atom_site_fract_y
 _atom_site_fract_z
 _atom_site_occupancy
  Hf  Hf0  1  0.59682600  0.59722200  0.59875800  1
  Hf  Hf1  1  0.98271400  0.81631100  0.12208200  1
  Hf  Hf2  1  0.79736700  0.79793800  0.79879500  1
  Hf  Hf3  1  0.47678900  0.77830900  0.17436500  1
  Hf  Hf4  1  0.54907700  0.08173400  0.93829500  1
  Hf  Hf5  1  0.18268100  0.01778600  0.32195500  1
  Hf  Hf6  1  0.45489700  0.93077600  0.06119100  1
  Hf  Hf7  1  0.67757900  0.97939500  0.37370000  1
  Hf  Hf8  1  0.65422200  0.13014200  0.26071500  1
  Hf  Hf9  1  0.88643500  0.18010600  0.57158100  1
  Hf  Hf10  1  0.85208000  0.32868500  0.46154100  1
  Hf  Hf11  1  0.08690900  0.38048900  0.77200100  1
  Hf  Hf12  1  0.05043900  0.52673200  0.66223400  1
  Hf  Hf13  1  0.26835300  0.57895600  0.97413900  1
  Hf  Hf14  1  0.25189500  0.72421200  0.86285300  1
  Sc  Sc0  1  0.74616800  0.28163100  0.13831800  1
  Sc  Sc1  1  0.19677900  0.20057200  0.19918700  1
  Sc  Sc2  1  0.72145500  0.42383400  0.02858700  1
  Sc  Sc3  1  0.94539800  0.48052600  0.33850300  1
  Sc  Sc4  1  0.39700500  0.40014700  0.39998900  1
  Sc  Sc5  1  0.21344800  0.38546000  0.07929600  1
  Sc  Sc6  1  0.91916600  0.62012800  0.22943600  1
  Sc  Sc7  1  0.14595800  0.68371800  0.53483100  1
  Sc  Sc8  1  0.41220600  0.58461600  0.27957900  1
  Sc  Sc9  1  0.11908000  0.81908800  0.42839000  1
  Sc  Sc10  1  0.34552600  0.88321300  0.73431900  1
  Sc  Sc11  1  0.61354100  0.78694900  0.47815700  1
  Sc  Sc12  1  0.31510500  0.02117100  0.62756800  1
  Sc  Sc13  1  0.99561700  0.99784100  0.99939200  1
  Sc  Sc14  1  0.81351200  0.99104700  0.67786800  1
  Sc  Sc15  1  0.51719800  0.22133500  0.82785200  1
  Sc  Sc16  1  0.38168900  0.20512400  0.52046100  1
  Sc  Sc17  1  0.01324400  0.18879100  0.87864700  1
  Sc  Sc18  1  0.57878500  0.40232700  0.72090300  1
  Sc  Sc19  1  0.78168600  0.60995300  0.92185000  1
  O  O0  1  0.68938900  0.08131500  0.01564000  1
  O  O1  1  0.06393200  0.20464600  0.13416500  1
  O  O2  1  0.89608600  0.28191700  0.21777900  1
  O  O3  1  0.50625200  0.26281700  0.08430000  1
  O  O4  1  0.26316800  0.40485400  0.33439200  1
  O  O5  1  0.09491600  0.48042400  0.41828500  1
  O  O6  1  0.10565200  0.33067700  0.01321000  1
  O  O7  1  0.70423600  0.46155200  0.28469400  1
  O  O8  1  0.90744400  0.52031000  0.08525400  1
  O  O9  1  0.47531000  0.63083200  0.53650200  1
  O  O10  1  0.30493600  0.67435900  0.62173900  1
  O  O11  1  0.73549600  0.59657500  0.16371800  1
  O  O12  1  0.30771400  0.53269400  0.21236400  1
  O  O13  1  0.90406400  0.66195500  0.48448300  1
  O  O14  1  0.10760100  0.72003500  0.28510500  1
  O  O15  1  0.67634600  0.83193800  0.73648500  1
  O  O16  1  0.46365700  0.62341900  0.03493100  1
  O  O17  1  0.50506400  0.87530800  0.82215700  1
  O  O18  1  0.93605300  0.79657700  0.36347200  1
  O  O19  1  0.50705900  0.73283800  0.41113500  1
  O  O20  1  0.29824000  0.69722000  0.11555400  1
  O  O21  1  0.10029800  0.86103700  0.68432000  1
  O  O22  1  0.30504300  0.90992200  0.48421300  1
  O  O23  1  0.11149800  0.85807400  0.18586700  1
  O  O24  1  0.86618400  0.02265200  0.93536800  1
  O  O25  1  0.66380000  0.81991600  0.23578300  1
  O  O26  1  0.13238700  0.98630900  0.56506900  1
  O  O27  1  0.71141300  0.92965200  0.61040800  1
  O  O28  1  0.49681200  0.89786400  0.31530200  1
  O  O29  1  0.30350500  0.06157400  0.88682900  1
  O  O30  1  0.68897700  0.93323100  0.11295000  1
  O  O31  1  0.50390400  0.10874100  0.68405500  1
  O  O32  1  0.31026800  0.05876600  0.38577100  1
  O  O33  1  0.86102500  0.01892700  0.43582000  1
  O  O34  1  0.33254500  0.18530500  0.76499600  1
  O  O35  1  0.12814000  0.96555700  0.06382900  1
  O  O36  1  0.91095600  0.13053200  0.81078900  1
  O  O37  1  0.69931600  0.09584700  0.51572500  1
  O  O38  1  0.88790500  0.13240600  0.31314400  1
  O  O39  1  0.70188300  0.30458200  0.88546700  1
  O  O40  1  0.50677900  0.26422900  0.58769900  1
  O  O41  1  0.05890600  0.21963500  0.63621700  1
  O  O42  1  0.51040700  0.11407500  0.18375200  1
  O  O43  1  0.52417000  0.38540200  0.96424300  1
  O  O44  1  0.32683800  0.16750900  0.26360400  1
  O  O45  1  0.89800200  0.29780000  0.71593900  1
  O  O46  1  0.08764600  0.33513300  0.51504300  1
  O  O47  1  0.70617300  0.46423900  0.78815500  1
  O  O48  1  0.26192200  0.41869100  0.83601100  1
  O  O49  1  0.70938400  0.31390200  0.38359900  1
  O  O50  1  0.52950700  0.37480100  0.46434800  1
  O  O51  1  0.10006400  0.49411100  0.91492000  1
  O  O52  1  0.28686800  0.53461800  0.71552400  1
  O  O53  1  0.91617300  0.65694600  0.98619400  1
  O  O54  1  0.91100500  0.51904900  0.58459400  1
  O  O55  1  0.72419800  0.57122900  0.66429100  1
  O  O56  1  0.48720500  0.73853900  0.91602500  1
  O  O57  1  0.11061900  0.71860400  0.78442600  1
  O  O58  1  0.92801700  0.77255100  0.86414300  1
  O  O59  1  0.30681300  0.91951800  0.98286300  1
loop_
_geom_bond_atom_site_label_1
_geom_bond_atom_site_label_2
_geom_bond_distance
_geom_bond_site_symmetry_2
Hf0 O9 2.027568 1_555
Hf0 O10 2.057283 1_555
Hf0 O40 2.068422 1_555
Hf0 O27 2.089164 1_555
Hf0 O54 2.117477 1_555
Hf0 O55 2.124194 1_555
Hf1 O23 2.062121 1_655
Hf1 O30 2.076356 1_555
Hf1 O35 2.105296 1_655
Hf1 O8 2.118168 1_555
Hf1 O20 2.201077 1_655
Hf1 O11 2.249030 1_555
Hf1 O1 2.397658 1_665
Hf2 O15 2.028278 1_555
Hf2 O17 2.064007 1_555
Hf2 O47 2.071397 1_555
Hf2 O36 2.090739 1_565
Hf2 O57 2.116008 1_655
Hf2 O58 2.126355 1_555
Hf3 O12 2.044093 1_555
Hf3 O42 2.071146 1_565
Hf3 O20 2.087032 1_555
Hf3 O11 2.122646 1_555
Hf3 O25 2.157057 1_555
Hf3 O30 2.368704 1_555
Hf3 O23 2.410733 1_555
Hf4 O24 2.050713 1_555
Hf4 O43 2.059714 1_555
Hf4 O59 2.130557 1_545
Hf4 O29 2.144383 1_555
Hf4 O56 2.195365 1_545
Hf4 O39 2.207265 1_555
Hf4 O0 2.465847 1_556
Hf5 O32 2.060032 1_555
Hf5 O38 2.074143 1_455
Hf5 O44 2.106044 1_555
Hf5 O14 2.127381 1_545
Hf5 O28 2.195812 1_545
Hf5 O18 2.249461 1_445
Hf5 O4 2.391479 1_555
Hf6 O35 2.064093 1_555
Hf6 O16 2.064114 1_555
Hf6 O0 2.094645 1_565
Hf6 O30 2.111084 1_555
Hf6 O3 2.138462 1_565
Hf6 O20 2.284879 1_555
Hf6 O59 2.506771 1_554
Hf7 O19 2.042085 1_555
Hf7 O49 2.066327 1_565
Hf7 O28 2.083799 1_555
Hf7 O18 2.123971 1_555
Hf7 O33 2.163445 1_565
Hf7 O38 2.339412 1_565
Hf7 O32 2.424459 1_565
Hf8 O25 2.066876 1_545
Hf8 O44 2.072555 1_555
Hf8 O2 2.076164 1_555
Hf8 O38 2.124227 1_555
Hf8 O7 2.143406 1_555
Hf8 O28 2.286722 1_545
Hf8 O42 2.458542 1_555
Hf9 O37 2.043594 1_555
Hf9 O27 2.092028 1_545
Hf9 O26 2.092324 1_645
Hf9 O54 2.111967 1_555
Hf9 O41 2.195987 1_655
Hf9 O46 2.223503 1_655
Hf9 O40 2.529306 1_555
Hf10 O50 2.058438 1_555
Hf10 O33 2.072055 1_555
Hf10 O5 2.085916 1_655
Hf10 O13 2.143941 1_555
Hf10 O46 2.153099 1_655
Hf10 O37 2.270930 1_555
Hf10 O49 2.483687 1_555
Hf11 O45 2.052841 1_455
Hf11 O36 2.091646 1_455
Hf11 O34 2.098113 1_555
Hf11 O57 2.104312 1_555
Hf11 O48 2.186728 1_555
Hf11 O52 2.216443 1_555
Hf11 O47 2.535091 1_455
Hf12 O41 2.059565 1_555
Hf12 O10 2.075657 1_555
Hf12 O55 2.077043 1_455
Hf12 O21 2.142155 1_555
Hf12 O52 2.151163 1_555
Hf12 O45 2.246386 1_455
Hf12 O54 2.469709 1_455
Hf13 O6 2.058252 1_556
Hf13 O51 2.071250 1_555
Hf13 O59 2.096099 1_555
Hf13 O43 2.153165 1_555
Hf13 O16 2.168571 1_556
Hf13 O56 2.323218 1_555
Hf13 O53 2.330991 1_455
Hf14 O48 2.061709 1_555
Hf14 O58 2.069065 1_455
Hf14 O17 2.080495 1_555
Hf14 O56 2.140688 1_555
Hf14 O29 2.177575 1_565
Hf14 O51 2.214481 1_555
Hf14 O57 2.496221 1_555
O0 Sc13 2.097234 1_544
O0 Sc2 2.129487 1_555
O1 Sc0 2.096347 1_455
O1 Sc1 2.108388 1_555
O1 Sc5 2.113863 1_555
O2 Sc1 2.077692 1_655
O2 Sc6 2.101394 1_555
O2 Sc0 2.545638 1_555
O3 Sc5 2.076437 1_555
O3 Sc0 2.176563 1_555
O3 Sc2 2.261159 1_555
O4 Sc3 2.093223 1_455
O4 Sc8 2.108542 1_555
O4 Sc4 2.126882 1_555
O5 Sc4 2.080818 1_555
O5 Sc9 2.096439 1_555
O5 Sc3 2.553841 1_455
O6 Sc5 2.091007 1_555
O6 Sc13 2.098337 1_444
O6 Sc2 2.572546 1_455
O7 Sc8 2.073560 1_555
O7 Sc3 2.177049 1_555
O7 Sc6 2.245057 1_555
O8 Sc2 2.073189 1_555
O8 Sc5 2.193696 1_655
O8 Sc0 2.284848 1_555
O9 Sc11 2.108512 1_555
O9 Sc7 2.111127 1_555
O9 Sc16 2.643414 1_555
O10 Sc12 2.142308 1_565
O11 Sc0 2.100341 1_555
O11 Sc6 2.256682 1_555
O12 Sc1 2.091517 1_555
O12 Sc8 2.115331 1_555
O12 Sc6 2.594903 1_455
O13 Sc11 2.073970 1_555
O13 Sc7 2.104187 1_655
O13 Sc9 2.260820 1_655
O14 Sc6 2.060944 1_455
O14 Sc8 2.186531 1_555
O14 Sc3 2.296657 1_455
O15 Sc10 2.117336 1_555
O15 Sc14 2.120430 1_555
O15 Sc18 2.665566 1_555
O16 Sc2 2.176655 1_555
O16 Sc5 2.362186 1_555
O17 Sc15 2.135542 1_565
O18 Sc3 2.100633 1_555
O18 Sc9 2.234131 1_655
O19 Sc4 2.083527 1_555
O19 Sc11 2.114679 1_555
O19 Sc9 2.590004 1_555
O20 Sc5 2.195648 1_555
O21 Sc14 2.069263 1_455
O21 Sc10 2.111050 1_555
O21 Sc12 2.281099 1_565
O22 Sc9 2.046033 1_555
O22 Sc16 2.105815 1_565
O22 Sc11 2.170894 1_555
O22 Sc7 2.185271 1_555
O23 Sc1 2.133149 1_565
O23 Sc6 2.170735 1_455
O24 Sc13 2.086661 1_545
O24 Sc17 2.112589 1_655
O24 Sc19 2.550695 1_545
O25 Sc6 2.165176 1_555
O25 Sc8 2.348916 1_555
O26 Sc7 2.090781 1_555
O26 Sc12 2.170376 1_565
O26 Sc16 2.304265 1_565
O27 Sc14 2.124946 1_555
O27 Sc12 2.650481 1_565
O28 Sc8 2.195484 1_555
O29 Sc17 2.085259 1_555
O29 Sc15 2.326950 1_555
O30 Sc0 2.254636 1_565
O31 Sc12 2.067681 1_555
O31 Sc18 2.105959 1_555
O31 Sc14 2.161701 1_545
O31 Sc10 2.174038 1_545
O32 Sc4 2.132445 1_555
O32 Sc9 2.157025 1_545
O33 Sc9 2.182145 1_645
O33 Sc11 2.299819 1_545
O34 Sc10 2.093007 1_545
O34 Sc15 2.185606 1_555
O34 Sc18 2.279187 1_555
O35 Sc13 2.112387 1_454
O35 Sc5 2.603521 1_565
O36 Sc17 2.134149 1_655
O36 Sc15 2.633218 1_555
O37 Sc16 2.180611 1_555
O37 Sc11 2.201023 1_545
O38 Sc3 2.252934 1_555
O39 Sc15 2.078042 1_555
O39 Sc19 2.161767 1_555
O39 Sc17 2.167969 1_655
O40 Sc12 2.123439 1_555
O40 Sc16 2.158949 1_555
O41 Sc12 2.170961 1_555
O41 Sc14 2.270415 1_445
O42 Sc0 2.134377 1_555
O42 Sc1 2.142238 1_555
O43 Sc2 2.263458 1_556
O43 Sc19 2.313355 1_555
O44 Sc1 2.106587 1_555
O44 Sc8 2.589585 1_555
O45 Sc18 2.177139 1_555
O45 Sc14 2.197012 1_545
O46 Sc16 2.107935 1_555
O46 Sc7 2.205678 1_555
O47 Sc15 2.112631 1_555
O47 Sc18 2.165935 1_555
O48 Sc15 2.159867 1_555
O48 Sc17 2.302357 1_555
O49 Sc3 2.126719 1_555
O49 Sc4 2.140755 1_555
O50 Sc4 2.103755 1_555
O50 Sc16 2.108925 1_555
O50 Sc11 2.548660 1_555
O51 Sc17 2.163847 1_555
O51 Sc19 2.209209 1_455
O52 Sc18 2.103196 1_555
O52 Sc10 2.198047 1_555
O53 Sc19 2.092502 1_555
O53 Sc13 2.120339 1_555
O53 Sc2 2.138692 1_556
O54 Sc7 2.210066 1_655
O55 Sc18 2.113631 1_555
O55 Sc14 2.594778 1_555
O56 Sc19 2.106785 1_555
O57 Sc10 2.216735 1_555
O58 Sc19 2.125859 1_555
O58 Sc17 2.576755 1_665
O59 Sc13 2.115843 1_455
