# generated using pymatgen
data_Na17Zr12Si11P7O72
_symmetry_space_group_name_H-M   'P 1'
_cell_length_a   9.19477700
_cell_length_b   9.34759728
_cell_length_c   22.71096470
_cell_angle_alpha   90.97714269
_cell_angle_beta   90.12640370
_cell_angle_gamma   119.28443223
_symmetry_Int_Tables_number   1
_chemical_formula_structural   Na17Zr12Si11P7O72
_chemical_formula_sum   'Na17 Zr12 Si11 P7 O72'
_cell_volume   1702.15470438
_cell_formula_units_Z   1
loop_
 _symmetry_equiv_pos_site_id
 _symmetry_equiv_pos_as_xyz
  1  'x, y, z'
loop_
 _atom_site_type_symbol
 _atom_site_label
 _atom_site_symmetry_multiplicity
 _atom_site_fract_x
 _atom_site_fract_y
 _atom_site_fract_z
 _atom_site_occupancy
  Na  Na0  1  0.68778500  0.21054900  0.77553600  1
  Na  Na1  1  0.24833000  0.12163000  0.87741400  1
  Na  Na2  1  0.10558300  0.56807100  0.79428700  1
  Na  Na3  1  0.54607600  0.47916100  0.70602400  1
  Na  Na4  1  0.70582900  0.66095100  0.91686200  1
  Na  Na5  1  0.58330100  0.79404500  0.53752900  1
  Na  Na6  1  0.01927300  0.97341700  0.48676500  1
  Na  Na7  1  0.44022400  0.23898300  0.45579100  1
  Na  Na8  1  0.88041700  0.13165500  0.36898600  1
  Na  Na9  1  0.97933900  0.25082900  0.58596800  1
  Na  Na10  1  0.26975500  0.66821600  0.65119300  1
  Na  Na11  1  0.91914800  0.46807000  0.20360000  1
  Na  Na12  1  0.34798600  0.63763000  0.15514600  1
  Na  Na13  1  0.78770100  0.92132100  0.11433500  1
  Na  Na14  1  0.22071000  0.83619800  0.03172800  1
  Na  Na15  1  0.30673100  0.91780100  0.25360900  1
  Na  Na16  1  0.59431900  0.33851900  0.31818100  1
  Zr  Zr0  1  0.18100800  0.37365200  0.95596800  1
  Zr  Zr1  1  0.47843600  0.95148400  0.88305700  1
  Zr  Zr2  1  0.52256200  0.04918300  0.62154300  1
  Zr  Zr3  1  0.81568000  0.61845300  0.54682400  1
  Zr  Zr4  1  0.86582700  0.72828200  0.78136500  1
  Zr  Zr5  1  0.85413200  0.71538500  0.28994500  1
  Zr  Zr6  1  0.12662300  0.26128800  0.71687100  1
  Zr  Zr7  1  0.14919300  0.28317000  0.21572400  1
  Zr  Zr8  1  0.19825600  0.40075300  0.44959400  1
  Zr  Zr9  1  0.46319600  0.93007100  0.38164700  1
  Zr  Zr10  1  0.53436500  0.07266300  0.11801100  1
  Zr  Zr11  1  0.79727100  0.59655200  0.05009000  1
  Si  Si0  1  0.90304300  0.09779600  0.84396100  1
  Si  Si1  1  0.28610400  0.98939600  0.75018700  1
  Si  Si2  1  0.47275900  0.23614600  0.98733700  1
  Si  Si3  1  0.86534900  0.43262400  0.67859400  1
  Si  Si4  1  0.23422400  0.76732100  0.51139700  1
  Si  Si5  1  0.62511800  0.66238400  0.41533600  1
  Si  Si6  1  0.80115200  0.89434500  0.65089100  1
  Si  Si7  1  0.19553600  0.09990400  0.34778100  1
  Si  Si8  1  0.56889000  0.43913000  0.17855000  1
  Si  Si9  1  0.95649700  0.33076100  0.08512300  1
  Si  Si10  1  0.13284000  0.56191400  0.31857900  1
  P  P0  1  0.04621100  0.66969600  0.91574100  1
  P  P1  1  0.42434100  0.56333400  0.82315200  1
  P  P2  1  0.37856000  0.33883900  0.58283500  1
  P  P3  1  0.75966500  0.22929900  0.48652500  1
  P  P4  1  0.51816100  0.75745400  0.01399000  1
  P  P5  1  0.70875700  0.00069200  0.24803100  1
  P  P6  1  0.09482200  0.89393700  0.15458600  1
  O  O0  1  0.42011600  0.72478500  0.83475900  1
  O  O1  1  0.53773400  0.86419700  0.96030100  1
  O  O2  1  0.03289700  0.19016000  0.89788200  1
  O  O3  1  0.21197800  0.83287500  0.90830700  1
  O  O4  1  0.71668800  0.07036700  0.85559000  1
  O  O5  1  0.96621000  0.21087200  0.78429000  1
  O  O6  1  0.37132900  0.95767400  0.69193300  1
  O  O7  1  0.40933800  0.03326600  0.80786100  1
  O  O8  1  0.49301600  0.14542500  0.92835300  1
  O  O9  1  0.70809600  0.24595000  0.66805400  1
  O  O10  1  0.04277000  0.42872900  0.68517400  1
  O  O11  1  0.08293900  0.52675500  0.91952900  1
  O  O12  1  0.25632000  0.14777700  0.74214100  1
  O  O13  1  0.76866100  0.39668400  0.49823900  1
  O  O14  1  0.30693100  0.25337800  0.97676300  1
  O  O15  1  0.63779100  0.41634100  0.99612200  1
  O  O16  1  0.82188700  0.49714400  0.74078900  1
  O  O17  1  0.88048500  0.54326600  0.62184400  1
  O  O18  1  0.92585500  0.63618600  0.86243600  1
  O  O19  1  0.35439400  0.84448800  0.56972600  1
  O  O20  1  0.96294000  0.69210600  0.97263100  1
  O  O21  1  0.54228600  0.49628500  0.56743800  1
  O  O22  1  0.05418500  0.75765600  0.51924700  1
  O  O23  1  0.32498700  0.88186500  0.45469800  1
  O  O24  1  0.36005300  0.45279800  0.87715400  1
  O  O25  1  0.60404900  0.59470000  0.81011000  1
  O  O26  1  0.11115300  0.81972300  0.76093700  1
  O  O27  1  0.69273900  0.60720500  0.35774000  1
  O  O28  1  0.31570200  0.48244800  0.76624000  1
  O  O29  1  0.74917400  0.71211600  0.47271100  1
  O  O30  1  0.77634900  0.77464300  0.70603000  1
  O  O31  1  0.83133200  0.82400000  0.58812300  1
  O  O32  1  0.03465200  0.91961400  0.33303400  1
  O  O33  1  0.37247000  0.09497200  0.35426500  1
  O  O34  1  0.89731000  0.92189700  0.83226900  1
  O  O35  1  0.41637900  0.19659000  0.59183800  1
  O  O36  1  0.60500000  0.82480600  0.40280700  1
  O  O37  1  0.11001400  0.06278700  0.16822100  1
  O  O38  1  0.63082100  0.90616600  0.64003300  1
  O  O39  1  0.96271100  0.07784900  0.66282600  1
  O  O40  1  0.15751600  0.16738200  0.41067600  1
  O  O41  1  0.21907000  0.21852000  0.29244000  1
  O  O42  1  0.24613600  0.28680000  0.53177500  1
  O  O43  1  0.68851800  0.51370900  0.23677800  1
  O  O44  1  0.30654600  0.37556600  0.63988800  1
  O  O45  1  0.87542000  0.15593600  0.23404900  1
  O  O46  1  0.38657200  0.42241100  0.18752500  1
  O  O47  1  0.65389600  0.55461900  0.12179500  1
  O  O48  1  0.68346400  0.11745400  0.54038800  1
  O  O49  1  0.93454200  0.24262500  0.47780900  1
  O  O50  1  0.44418800  0.50198600  0.43186600  1
  O  O51  1  0.03012200  0.29901700  0.02479000  1
  O  O52  1  0.65542100  0.15595300  0.42916800  1
  O  O53  1  0.08000900  0.37391700  0.14212200  1
  O  O54  1  0.10896300  0.44424500  0.37472400  1
  O  O55  1  0.16247700  0.48930600  0.25646400  1
  O  O56  1  0.36101200  0.59012800  0.00479900  1
  O  O57  1  0.68065000  0.74542100  0.02008900  1
  O  O58  1  0.21264500  0.58375900  0.50172900  1
  O  O59  1  0.74124300  0.85638200  0.25925400  1
  O  O60  1  0.92439300  0.48846600  0.07996100  1
  O  O61  1  0.96322000  0.57383900  0.30772600  1
  O  O62  1  0.29410800  0.74603700  0.32975500  1
  O  O63  1  0.49474000  0.83561800  0.07254100  1
  O  O64  1  0.58011100  0.94952300  0.19555400  1
  O  O65  1  0.63259500  0.04091000  0.30320800  1
  O  O66  1  0.01951600  0.78084900  0.20801000  1
  O  O67  1  0.26966700  0.90594600  0.14449200  1
  O  O68  1  0.77743700  0.16478700  0.09869800  1
  O  O69  1  0.98906900  0.82477300  0.09706800  1
  O  O70  1  0.44421300  0.11803600  0.04418800  1
  O  O71  1  0.55280200  0.25688200  0.16813700  1
loop_
_geom_bond_atom_site_label_1
_geom_bond_atom_site_label_2
_geom_bond_distance
_geom_bond_site_symmetry_2
Na0 O4 2.347975 1_555
Na0 O7 2.395662 1_555
Na0 O9 2.464156 1_555
Na0 O16 2.482913 1_555
Na0 O5 2.565851 1_555
Na1 O2 2.405311 1_555
Na1 O8 2.437163 1_555
Na1 O14 2.479642 1_555
Na1 O7 2.555626 1_555
Na1 O3 2.659416 1_545
Na1 O24 2.743694 1_555
Na2 O26 2.460261 1_555
Na2 O28 2.505938 1_555
Na2 O18 2.557118 1_455
Na2 O16 2.643255 1_455
Na2 O0 2.674423 1_555
Na2 O10 2.705283 1_555
Na2 O11 2.871296 1_555
Na2 O5 2.937563 1_455
Na3 O44 2.427713 1_555
Na3 O25 2.526405 1_555
Na3 O30 2.527990 1_555
Na3 O28 2.536360 1_555
Na3 O16 2.579270 1_555
Na4 O18 2.476647 1_555
Na4 O57 2.508244 1_556
Na4 O25 2.551282 1_555
Na4 O20 2.564868 1_555
Na4 O15 2.757852 1_555
Na4 O24 2.929668 1_555
Na4 O34 2.951947 1_555
Na5 O31 2.439780 1_555
Na5 O19 2.480506 1_555
Na5 O38 2.484566 1_555
Na5 O29 2.488732 1_555
Na5 O48 2.694589 1_565
Na5 O21 2.718334 1_555
Na6 O22 2.323356 1_555
Na6 O40 2.398162 1_565
Na6 O29 2.504235 1_455
Na6 O42 2.808551 1_565
Na6 O31 2.828768 1_455
Na6 O49 2.985895 1_465
Na7 O50 2.509684 1_555
Na7 O52 2.524842 1_555
Na7 O40 2.552975 1_555
Na7 O33 2.565953 1_555
Na7 O42 2.670232 1_555
Na7 O13 2.793894 1_555
Na7 O23 2.967092 1_545
Na8 O65 2.488851 1_555
Na8 O40 2.577937 1_655
Na8 O52 2.580922 1_555
Na8 O49 2.614186 1_555
Na8 O54 2.636223 1_655
Na8 O36 2.864945 1_545
Na9 O39 2.353789 1_555
Na9 O49 2.483471 1_555
Na9 O48 2.579244 1_555
Na9 O42 2.620353 1_655
Na9 O10 2.664471 1_655
Na9 O44 2.900684 1_655
Na10 O10 2.336279 1_555
Na10 O19 2.366370 1_555
Na10 O6 2.547153 1_555
Na10 O44 2.923263 1_555
Na10 O38 2.971924 1_555
Na11 O55 2.456038 1_655
Na11 O43 2.475439 1_555
Na11 O53 2.480402 1_655
Na11 O61 2.501615 1_555
Na11 O66 2.599980 1_655
Na11 O60 2.816590 1_555
Na11 O45 2.841699 1_555
Na12 O46 2.336976 1_555
Na12 O53 2.503039 1_555
Na12 O63 2.540072 1_555
Na12 O64 2.776700 1_555
Na12 O55 2.817632 1_555
Na12 O67 2.941873 1_555
Na13 O68 2.356253 1_565
Na13 O69 2.454038 1_555
Na13 O57 2.557566 1_555
Na13 O63 2.578850 1_555
Na13 O64 2.757974 1_555
Na13 O37 2.850292 1_665
Na14 O70 2.432992 1_565
Na14 O20 2.456488 1_454
Na14 O69 2.558654 1_455
Na14 O67 2.614799 1_555
Na14 O63 2.685334 1_555
Na14 O3 2.803190 1_554
Na15 O62 2.344203 1_555
Na15 O67 2.493917 1_555
Na15 O66 2.514134 1_555
Na15 O33 2.686883 1_565
Na15 O64 2.728302 1_555
Na15 O65 2.852787 1_565
Na16 O33 2.354428 1_555
Na16 O43 2.360617 1_555
Na16 O27 2.372767 1_555
O0 P1 1.546755 1_555
O0 Zr1 2.188088 1_555
O1 P4 1.543220 1_556
O1 Zr1 2.126108 1_555
O2 Si0 1.618536 1_455
O2 Zr0 2.041222 1_555
O3 P0 1.553638 1_555
O3 Zr1 2.220627 1_555
O4 Si0 1.626671 1_555
O4 Zr1 2.017720 1_545
O5 Si0 1.656152 1_555
O5 Zr6 2.024004 1_655
O6 Si1 1.634273 1_555
O6 Zr2 2.028235 1_565
O7 Si1 1.639608 1_545
O7 Zr1 2.102248 1_545
O8 Si2 1.632543 1_555
O8 Zr1 2.015142 1_545
O9 Si3 1.645833 1_555
O9 Zr2 2.065240 1_555
O10 Si3 1.655948 1_455
O10 Zr6 2.186086 1_555
O11 P0 1.533617 1_555
O11 Zr0 2.201301 1_555
O12 Si1 1.644950 1_545
O12 Zr6 2.032971 1_555
O13 P3 1.544290 1_555
O13 Zr3 2.178279 1_555
O14 Si2 1.627409 1_555
O14 Zr0 2.028983 1_555
O15 Si2 1.632887 1_555
O15 Zr11 1.998825 1_556
O16 Si3 1.651616 1_555
O16 Zr4 2.181064 1_555
O17 Si3 1.629597 1_555
O17 Zr3 2.048883 1_555
O18 P0 1.558972 1_655
O18 Zr4 2.224902 1_555
O19 Si4 1.636240 1_555
O19 Zr2 2.111332 1_565
O20 P0 1.565723 1_655
O20 Zr11 2.224240 1_556
O21 P2 1.551445 1_555
O21 Zr3 2.248891 1_555
O22 Si4 1.623545 1_555
O22 Zr3 2.033937 1_455
O23 Si4 1.636655 1_555
O23 Zr9 2.011233 1_555
O24 P1 1.539505 1_555
O24 Zr0 2.308272 1_555
O25 P1 1.560515 1_555
O25 Zr4 2.207580 1_555
O26 Si1 1.637619 1_555
O26 Zr4 2.041084 1_455
O27 Si5 1.630326 1_555
O27 Zr5 2.047078 1_555
O28 P1 1.569147 1_555
O28 Zr6 2.224791 1_555
O29 Si5 1.633760 1_555
O29 Zr3 2.131445 1_555
O30 Si6 1.634494 1_555
O30 Zr4 2.039572 1_555
O31 Si6 1.640056 1_555
O31 Zr3 2.063864 1_555
O32 Si7 1.637163 1_565
O32 Zr5 2.046063 1_455
O33 Si7 1.656219 1_555
O33 Zr9 2.178757 1_545
O34 Si0 1.636168 1_565
O34 Zr4 2.027423 1_555
O35 P2 1.546640 1_555
O35 Zr2 2.156811 1_555
O36 Si5 1.646067 1_555
O36 Zr9 2.041485 1_555
O37 P6 1.540785 1_545
O37 Zr7 2.175766 1_555
O38 Si6 1.641459 1_555
O38 Zr2 2.067258 1_565
O39 Si6 1.646839 1_545
O39 Zr6 2.027337 1_655
O40 Si7 1.657588 1_555
O40 Zr8 2.194004 1_555
O41 Si7 1.633978 1_555
O41 Zr7 2.055341 1_555
O42 P2 1.568124 1_555
O42 Zr8 2.309734 1_555
O43 Si8 1.629921 1_555
O43 Zr5 2.106331 1_555
O44 P2 1.564040 1_555
O44 Zr6 2.298336 1_555
O45 P5 1.548347 1_555
O45 Zr7 2.239874 1_655
O46 Si8 1.619411 1_555
O46 Zr7 2.030660 1_555
O47 Si8 1.632235 1_555
O47 Zr11 2.017241 1_555
O48 P3 1.552787 1_555
O48 Zr2 2.263096 1_555
O49 P3 1.564135 1_555
O49 Zr8 2.237833 1_655
O50 Si5 1.654792 1_555
O50 Zr8 2.023519 1_555
O51 Si9 1.615728 1_455
O51 Zr0 1.988563 1_554
O52 P3 1.551378 1_555
O52 Zr9 2.238281 1_545
O53 Si9 1.629639 1_455
O53 Zr7 2.118947 1_555
O54 Si10 1.642181 1_555
O54 Zr8 2.018560 1_555
O55 Si10 1.635523 1_555
O55 Zr7 2.071786 1_555
O56 P4 1.534407 1_555
O56 Zr0 2.168601 1_554
O57 P4 1.558218 1_555
O57 Zr11 2.244870 1_555
O58 Si4 1.638800 1_555
O58 Zr8 2.013613 1_555
O59 P5 1.542543 1_565
O59 Zr5 2.160286 1_555
O60 Si9 1.644837 1_555
O60 Zr11 2.005603 1_555
O61 Si10 1.635514 1_655
O61 Zr5 2.057804 1_555
O62 Si10 1.646859 1_555
O62 Zr9 2.017845 1_555
O63 P4 1.571785 1_555
O63 Zr10 2.288981 1_565
O64 P5 1.571369 1_565
O64 Zr10 2.267771 1_565
O65 P5 1.564422 1_555
O65 Zr9 2.273644 1_545
O66 P6 1.549328 1_555
O66 Zr5 2.300116 1_455
O67 P6 1.573430 1_555
O67 Zr10 2.245384 1_565
O68 Si9 1.653003 1_555
O68 Zr10 2.015810 1_555
O69 P6 1.555786 1_655
O69 Zr11 2.243430 1_555
O70 Si2 1.649689 1_554
O70 Zr10 2.009982 1_555
O71 Si8 1.649112 1_555
O71 Zr10 1.984117 1_555
