# generated using pymatgen
data_Ge7H18O23
_symmetry_space_group_name_H-M   'P 1'
_cell_length_a   7.77711300
_cell_length_b   7.85991458
_cell_length_c   8.01212030
_cell_angle_alpha   89.16911565
_cell_angle_beta   89.82989563
_cell_angle_gamma   89.40939193
_symmetry_Int_Tables_number   1
_chemical_formula_structural   Ge7H18O23
_chemical_formula_sum   'Ge7 H18 O23'
_cell_volume   489.68097305
_cell_formula_units_Z   1
loop_
 _symmetry_equiv_pos_site_id
 _symmetry_equiv_pos_as_xyz
  1  'x, y, z'
loop_
 _atom_site_type_symbol
 _atom_site_label
 _atom_site_symmetry_multiplicity
 _atom_site_fract_x
 _atom_site_fract_y
 _atom_site_fract_z
 _atom_site_occupancy
  Ge  Ge0  1  0.15137200  0.87428000  0.85908000  1
  Ge  Ge1  1  0.14119200  0.14020800  0.12833600  1
  Ge  Ge2  1  0.86467900  0.86350100  0.12463000  1
  Ge  Ge3  1  0.86859600  0.13969600  0.85229200  1
  Ge  Ge4  1  0.00860800  0.99224300  0.51330500  1
  Ge  Ge5  1  0.99540500  0.49145600  0.00364300  1
  Ge  Ge6  1  0.50770900  0.00452700  0.99930200  1
  H  H0  1  0.21017100  0.79406400  0.19293900  1
  H  H1  1  0.27109600  0.57561400  0.89318800  1
  H  H2  1  0.28462400  0.07465900  0.41091000  1
  H  H3  1  0.91792400  0.72271600  0.41495200  1
  H  H4  1  0.46686600  0.29083500  0.70820600  1
  H  H5  1  0.48233400  0.96767700  0.57052600  1
  H  H6  1  0.50897000  0.93685500  0.38102200  1
  H  H7  1  0.94203300  0.48665600  0.55914400  1
  H  H8  1  0.02182700  0.45900900  0.38054000  1
  H  H9  1  0.57528800  0.56054500  0.04355600  1
  H  H10  1  0.46976400  0.39718300  0.08721400  1
  H  H11  1  0.70673400  0.71482900  0.73938300  1
  H  H12  1  0.60659300  0.58451700  0.63328200  1
  H  H13  1  0.26676400  0.63862000  0.38474300  1
  H  H14  1  0.37838900  0.61534100  0.21496900  1
  H  H15  1  0.27539200  0.26451800  0.74806100  1
  H  H16  1  0.72927000  0.32875100  0.30123200  1
  H  H17  1  0.58142300  0.24277300  0.39769400  1
  O  O0  1  0.89988500  0.88464000  0.88417700  1
  O  O1  1  0.12916200  0.87562000  0.11197900  1
  O  O2  1  0.12110600  0.12046100  0.88470700  1
  O  O3  1  0.89945700  0.10413800  0.12825900  1
  O  O4  1  0.14694700  0.86582700  0.63326900  1
  O  O5  1  0.15087000  0.62007800  0.88055100  1
  O  O6  1  0.38445900  0.87101500  0.87138300  1
  O  O7  1  0.15708600  0.10481700  0.37421900  1
  O  O8  1  0.11763200  0.37095300  0.14823200  1
  O  O9  1  0.37506900  0.13799700  0.12247600  1
  O  O10  1  0.89695800  0.84814300  0.37474000  1
  O  O11  1  0.86493400  0.62963000  0.11830400  1
  O  O12  1  0.63188700  0.87725600  0.13849600  1
  O  O13  1  0.87697000  0.13307600  0.61994500  1
  O  O14  1  0.87513900  0.37465700  0.86287100  1
  O  O15  1  0.63551000  0.13343200  0.86742200  1
  O  O16  1  0.46820800  0.02238900  0.46049400  1
  O  O17  1  0.00026900  0.54430200  0.46610400  1
  O  O18  1  0.45808300  0.51596200  0.04888300  1
  O  O19  1  0.67143300  0.68968700  0.62583300  1
  O  O20  1  0.31871500  0.69973000  0.28999900  1
  O  O21  1  0.35300300  0.34026800  0.68645700  1
  O  O22  1  0.62156600  0.35425200  0.35819800  1
loop_
_geom_bond_atom_site_label_1
_geom_bond_atom_site_label_2
_geom_bond_distance
_geom_bond_site_symmetry_2
Ge0 O4 1.811849 1_555
Ge0 O6 1.815611 1_555
Ge0 O2 1.960481 1_565
Ge0 O0 1.966530 1_455
Ge0 O5 2.002954 1_555
Ge0 O1 2.033265 1_556
Ge1 O9 1.819265 1_555
Ge1 O8 1.830197 1_555
Ge1 O3 1.904148 1_455
Ge1 O2 1.967189 1_554
Ge1 O7 1.989617 1_555
Ge1 O1 2.088735 1_545
Ge2 O12 1.815731 1_555
Ge2 O11 1.839620 1_555
Ge2 O3 1.914035 1_565
Ge2 O0 1.950037 1_554
Ge2 O10 2.022028 1_555
Ge2 O1 2.062223 1_655
Ge3 O15 1.817552 1_555
Ge3 O14 1.851175 1_555
Ge3 O13 1.863999 1_555
Ge3 O2 1.985594 1_655
Ge3 O0 2.029490 1_545
Ge3 O3 2.237954 1_556
Ge4 O13 1.732712 1_465
Ge4 O4 1.739263 1_555
Ge4 O10 1.825320 1_455
Ge4 O7 1.828378 1_565
Ge5 O14 1.744626 1_554
Ge5 O11 1.747489 1_555
Ge5 O8 1.760359 1_655
Ge5 O5 1.856268 1_654
Ge6 O15 1.764761 1_555
Ge6 O6 1.768669 1_545
Ge6 O12 1.769527 1_546
Ge6 O9 1.772076 1_556
H0 O1 1.100288 1_555
H0 O20 1.356976 1_555
H1 O5 0.999718 1_555
H2 O7 1.058911 1_555
H2 O16 1.533504 1_555
H3 O10 1.044063 1_555
H3 O17 1.584601 1_655
H4 O21 0.978439 1_555
H5 O16 0.981225 1_565
H6 O16 0.982206 1_565
H7 O17 0.979051 1_655
H8 O17 0.978697 1_555
H9 O18 0.980509 1_555
H10 O18 0.981972 1_555
H11 O19 0.974645 1_555
H12 O19 0.973727 1_555
H13 O20 0.980706 1_555
H14 O20 1.010088 1_555
H15 O21 0.979563 1_555
H16 O22 0.973156 1_555
H17 O22 0.981005 1_555
