# generated using pymatgen
data_YOF
_symmetry_space_group_name_H-M   'P 1'
_cell_length_a   4.10335566
_cell_length_b   4.10335566
_cell_length_c   5.36429005
_cell_angle_alpha   76.45427972
_cell_angle_beta   76.45427972
_cell_angle_gamma   59.52934380
_symmetry_Int_Tables_number   1
_chemical_formula_structural   YOF
_chemical_formula_sum   'Y2 O2 F2'
_cell_volume   74.95976708
_cell_formula_units_Z   2
loop_
 _symmetry_equiv_pos_site_id
 _symmetry_equiv_pos_as_xyz
  1  'x, y, z'
loop_
 _atom_site_type_symbol
 _atom_site_label
 _atom_site_symmetry_multiplicity
 _atom_site_fract_x
 _atom_site_fract_y
 _atom_site_fract_z
 _atom_site_occupancy
  Y  Y0  1  0.21132300  0.21132300  0.76747600  1
  Y  Y1  1  0.78867700  0.78867700  0.23252400  1
  O  O0  1  0.87724400  0.87724400  0.82658600  1
  O  O1  1  0.12275600  0.12275600  0.17341400  1
  F  F0  1  0.59759000  0.59759000  0.64837000  1
  F  F1  1  0.40241000  0.40241000  0.35163000  1
loop_
_geom_bond_atom_site_label_1
_geom_bond_atom_site_label_2
_geom_bond_distance
_geom_bond_site_symmetry_2
O0 Y1 2.097255 1_556
O0 Y0 2.314655 1_665
O0 Y0 2.418597 1_655
O0 Y0 2.418597 1_565
O1 Y0 2.097255 1_554
O1 Y1 2.314655 1_445
O1 Y1 2.418597 1_455
O1 Y1 2.418597 1_545
F0 Y1 2.278279 1_555
F0 Y0 2.343862 1_655
F0 Y0 2.343862 1_565
F0 Y0 2.651735 1_555
F1 Y0 2.278279 1_555
F1 Y1 2.343862 1_455
F1 Y1 2.343862 1_545
F1 Y1 2.651735 1_555
