# generated using pymatgen
data_KHgSbS3
_symmetry_space_group_name_H-M   'P 1'
_cell_length_a   6.43663874
_cell_length_b   6.43663874
_cell_length_c   17.62289384
_cell_angle_alpha   79.66283102
_cell_angle_beta   79.66283102
_cell_angle_gamma   90.74581870
_symmetry_Int_Tables_number   1
_chemical_formula_structural   KHgSbS3
_chemical_formula_sum   'K4 Hg4 Sb4 S12'
_cell_volume   705.84139304
_cell_formula_units_Z   4
loop_
 _symmetry_equiv_pos_site_id
 _symmetry_equiv_pos_as_xyz
  1  'x, y, z'
loop_
 _atom_site_type_symbol
 _atom_site_label
 _atom_site_symmetry_multiplicity
 _atom_site_fract_x
 _atom_site_fract_y
 _atom_site_fract_z
 _atom_site_occupancy
  K  K0  1  0.76545700  0.59128800  0.91555900  1
  K  K1  1  0.23454300  0.40871200  0.08444100  1
  K  K2  1  0.40871200  0.23454300  0.58444100  1
  K  K3  1  0.59128800  0.76545700  0.41555900  1
  Hg  Hg0  1  0.63663200  0.36336800  0.25000000  1
  Hg  Hg1  1  0.36336800  0.63663200  0.75000000  1
  Hg  Hg2  1  0.16277100  0.83722900  0.25000000  1
  Hg  Hg3  1  0.83722900  0.16277100  0.75000000  1
  Sb  Sb0  1  0.94330100  0.71003400  0.59899300  1
  Sb  Sb1  1  0.28996600  0.05669900  0.90100700  1
  Sb  Sb2  1  0.05669900  0.28996600  0.40100700  1
  Sb  Sb3  1  0.71003400  0.94330100  0.09899300  1
  S  S0  1  0.89191100  0.32298500  0.60818300  1
  S  S1  1  0.73342200  0.32306800  0.10708000  1
  S  S2  1  0.32306800  0.73342200  0.60708000  1
  S  S3  1  0.26657800  0.67693200  0.89292000  1
  S  S4  1  0.32298500  0.89191100  0.10818300  1
  S  S5  1  0.10808900  0.67701500  0.39181700  1
  S  S6  1  0.67701500  0.10808900  0.89181700  1
  S  S7  1  0.26685900  0.21058600  0.76693000  1
  S  S8  1  0.78941400  0.73314100  0.73307000  1
  S  S9  1  0.73314100  0.78941400  0.23307000  1
  S  S10  1  0.21058600  0.26685900  0.26693000  1
  S  S11  1  0.67693200  0.26657800  0.39292000  1
loop_
_geom_bond_atom_site_label_1
_geom_bond_atom_site_label_2
_geom_bond_distance
_geom_bond_site_symmetry_2
K0 S8 3.156669 1_555
K0 S3 3.206256 1_655
K0 S6 3.267833 1_555
K0 S6 3.346604 1_565
K0 S3 3.346815 1_555
K0 S1 3.473404 1_556
K1 S10 3.156669 1_555
K1 S1 3.206256 1_455
K1 S4 3.267833 1_555
K1 S4 3.346604 1_545
K1 S1 3.346815 1_555
K1 S3 3.473404 1_554
K2 S7 3.156669 1_555
K2 S2 3.206256 1_545
K2 S0 3.267833 1_555
K2 S0 3.346604 1_455
K2 S2 3.346815 1_555
K2 S11 3.473404 1_555
K3 S9 3.156669 1_555
K3 S11 3.206256 1_565
K3 S5 3.267833 1_555
K3 S5 3.346604 1_655
K3 S11 3.346815 1_555
K3 S2 3.473404 1_555
Hg0 S1 2.544530 1_555
Hg0 S11 2.544530 1_555
Hg0 S10 2.755111 1_555
Hg0 S9 2.755111 1_555
Hg1 S2 2.544530 1_555
Hg1 S3 2.544530 1_555
Hg1 S7 2.755111 1_555
Hg1 S8 2.755111 1_555
Hg2 S5 2.486641 1_555
Hg2 S4 2.486641 1_555
Hg2 S10 2.852704 1_565
Hg2 S9 2.852704 1_455
Hg3 S6 2.486641 1_555
Hg3 S0 2.486641 1_555
Hg3 S7 2.852704 1_655
Hg3 S8 2.852704 1_545
S0 Sb0 2.481273 1_555
S1 Sb3 2.478169 1_545
S2 Sb0 2.478169 1_455
S3 Sb1 2.478169 1_565
S4 Sb3 2.481273 1_555
S5 Sb2 2.481273 1_555
S6 Sb1 2.481273 1_555
S7 Sb1 2.424089 1_555
S8 Sb0 2.424089 1_555
S9 Sb3 2.424089 1_555
S10 Sb2 2.424089 1_555
S11 Sb2 2.478169 1_655
