# generated using pymatgen
data_Sm39S56
_symmetry_space_group_name_H-M   'P 1'
_cell_length_a   7.36264651
_cell_length_b   7.35756334
_cell_length_c   51.42644413
_cell_angle_alpha   109.40741997
_cell_angle_beta   109.59063689
_cell_angle_gamma   109.42858814
_symmetry_Int_Tables_number   1
_chemical_formula_structural   Sm39S56
_chemical_formula_sum   'Sm39 S56'
_cell_volume   2144.18355963
_cell_formula_units_Z   1
loop_
 _symmetry_equiv_pos_site_id
 _symmetry_equiv_pos_as_xyz
  1  'x, y, z'
loop_
 _atom_site_type_symbol
 _atom_site_label
 _atom_site_symmetry_multiplicity
 _atom_site_fract_x
 _atom_site_fract_y
 _atom_site_fract_z
 _atom_site_occupancy
  Sm  Sm0  1  0.13330348  0.75489569  0.98336972  1
  Sm  Sm1  1  0.25206181  0.62753321  0.91100912  1
  Sm  Sm2  1  0.12035741  0.74071352  0.83639060  1
  Sm  Sm3  1  0.37494842  0.25033149  0.94609367  1
  Sm  Sm4  1  0.13486512  0.74509157  0.69933941  1
  Sm  Sm5  1  0.62929720  0.37931138  0.89299658  1
  Sm  Sm6  1  0.74949824  0.87095996  0.87371794  1
  Sm  Sm7  1  0.36017280  0.24205032  0.80074217  1
  Sm  Sm8  1  0.25016009  0.62688690  0.62530249  1
  Sm  Sm9  1  0.87825739  0.12836965  0.96408714  1
  Sm  Sm10  1  0.12594928  0.75107654  0.55375921  1
  Sm  Sm11  1  0.63205728  0.38464354  0.75115947  1
  Sm  Sm12  1  0.37958459  0.25269428  0.66082397  1
  Sm  Sm13  1  0.74952217  0.87753208  0.73292162  1
  Sm  Sm14  1  0.85035393  0.10867361  0.81931961  1
  Sm  Sm15  1  0.24008211  0.61940680  0.47911065  1
  Sm  Sm16  1  0.63134065  0.38200276  0.60728639  1
  Sm  Sm17  1  0.74919810  0.87198894  0.58887581  1
  Sm  Sm18  1  0.37223097  0.25052181  0.51691880  1
  Sm  Sm19  1  0.88571699  0.14051397  0.68135911  1
  Sm  Sm20  1  0.24523363  0.63571971  0.34235407  1
  Sm  Sm21  1  0.12718440  0.74962426  0.26802093  1
  Sm  Sm22  1  0.60887568  0.35075079  0.46228076  1
  Sm  Sm23  1  0.74222754  0.86008485  0.44365405  1
  Sm  Sm24  1  0.37794204  0.24973703  0.37583548  1
  Sm  Sm25  1  0.88118430  0.13104906  0.53602469  1
  Sm  Sm26  1  0.25444257  0.62742119  0.19623902  1
  Sm  Sm27  1  0.11903927  0.74725373  0.12418331  1
  Sm  Sm28  1  0.64082294  0.38630864  0.32441072  1
  Sm  Sm29  1  0.75385130  0.88108379  0.30381950  1
  Sm  Sm30  1  0.37386186  0.25125434  0.23208283  1
  Sm  Sm31  1  0.88499181  0.13170395  0.39404410  1
  Sm  Sm32  1  0.25476471  0.63658966  0.05639634  1
  Sm  Sm33  1  0.61549092  0.36981592  0.17561697  1
  Sm  Sm34  1  0.73935294  0.84898847  0.15770640  1
  Sm  Sm35  1  0.87883901  0.12885734  0.25002468  1
  Sm  Sm36  1  0.61488418  0.37319586  0.03779841  1
  Sm  Sm37  1  0.76541958  0.88588538  0.02071969  1
  Sm  Sm38  1  0.87325573  0.12657765  0.10597041  1
  S  S0  1  0.99911141  0.85306870  0.92824899  1
  S  S1  1  0.00115550  0.35524246  0.92886181  1
  S  S2  1  0.99334477  0.85895149  0.78643006  1
  S  S3  1  0.99691945  0.34141053  0.78554144  1
  S  S4  1  0.14907812  0.14787378  0.87817492  1
  S  S5  1  0.35692193  0.49868568  0.85686068  1
  S  S6  1  0.50190216  0.00072901  0.97896551  1
  S  S7  1  0.64490975  0.64423880  0.94926718  1
  S  S8  1  0.00094266  0.85859271  0.64333515  1
  S  S9  1  0.49962463  0.99900754  0.90780660  1
  S  S10  1  0.13946050  0.12848136  0.73378440  1
  S  S11  1  0.99773484  0.35493450  0.64284306  1
  S  S12  1  0.35617812  0.49492215  0.71297952  1
  S  S13  1  0.65815627  0.65050186  0.80847520  1
  S  S14  1  0.50605819  0.01213385  0.83849531  1
  S  S15  1  0.99857035  0.85675929  0.49971719  1
  S  S16  1  0.86264266  0.50296451  0.85754410  1
  S  S17  1  0.14678254  0.14728256  0.59263846  1
  S  S18  1  0.49889692  0.00400838  0.76349554  1
  S  S19  1  0.00399609  0.36337810  0.50046137  1
  S  S20  1  0.35204881  0.49861225  0.57118241  1
  S  S21  1  0.49905112  0.99956792  0.69315145  1
  S  S22  1  0.63981617  0.64358651  0.66242909  1
  S  S23  1  0.99455108  0.85586577  0.35585970  1
  S  S24  1  0.83874271  0.49874112  0.71347564  1
  S  S25  1  0.15037609  0.15796447  0.45135167  1
  S  S26  1  0.50418863  0.99799831  0.62207613  1
  S  S27  1  0.51240291  0.00634230  0.48149672  1
  S  S28  1  0.99872418  0.33824668  0.35634036  1
  S  S29  1  0.35878688  0.49327745  0.42924456  1
  S  S30  1  0.64814408  0.65001371  0.52103223  1
  S  S31  1  0.50010522  0.00208019  0.55137245  1
  S  S32  1  0.99944220  0.85678374  0.21439061  1
  S  S33  1  0.85344078  0.50105922  0.57156453  1
  S  S34  1  0.14384756  0.14005912  0.30531101  1
  S  S35  1  0.99764052  0.35589090  0.21387810  1
  S  S36  1  0.35908445  0.50083635  0.28619182  1
  S  S37  1  0.50411419  0.99927935  0.40642068  1
  S  S38  1  0.62888212  0.63984590  0.37669793  1
  S  S39  1  0.99817012  0.84280628  0.07162215  1
  S  S40  1  0.84108243  0.49671637  0.42835000  1
  S  S41  1  0.14734752  0.14760109  0.16412330  1
  S  S42  1  0.49878387  0.99859307  0.33587759  1
  S  S43  1  0.98826457  0.35377684  0.07069934  1
  S  S44  1  0.34394805  0.50449474  0.14367683  1
  S  S45  1  0.50004422  0.00542045  0.26506365  1
  S  S46  1  0.50302986  0.99204727  0.12330721  1
  S  S47  1  0.65009827  0.64490437  0.23498580  1
  S  S48  1  0.85643911  0.49877210  0.28568594  1
  S  S49  1  0.13648598  0.14221759  0.01860811  1
  S  S50  1  0.50321780  0.00699065  0.19473987  1
  S  S51  1  0.35989928  0.50023052  0.99955151  1
  S  S52  1  0.65439652  0.65937306  0.09361681  1
  S  S53  1  0.86505030  0.50362102  0.14418344  1
  S  S54  1  0.49851897  0.99076847  0.04861729  1
  S  S55  1  0.85882412  0.50034793  0.00027471  1
loop_
_geom_bond_atom_site_label_1
_geom_bond_atom_site_label_2
_geom_bond_distance
_geom_bond_site_symmetry_2
S0 Sm9 2.847663 1_565
S0 Sm3 2.859439 1_665
S0 Sm6 2.865191 1_555
S0 Sm5 3.004451 1_555
S0 Sm1 3.032094 1_655
S0 Sm0 3.080678 1_655
S1 Sm5 2.842956 1_455
S1 Sm1 2.857753 1_555
S1 Sm0 2.870660 1_555
S1 Sm9 2.998434 1_455
S1 Sm3 3.031095 1_555
S1 Sm6 3.088738 1_445
S2 Sm14 2.785808 1_565
S2 Sm13 2.813198 1_555
S2 Sm7 2.829286 1_665
S2 Sm2 2.940741 1_655
S2 Sm11 2.987719 1_555
S3 Sm2 2.796390 1_655
S3 Sm11 2.863739 1_555
S3 Sm7 2.928648 1_655
S3 Sm13 2.951308 1_545
S3 Sm14 3.019723 1_555
S4 Sm6 2.847563 1_445
S4 Sm14 2.935183 1_455
S4 Sm2 2.938076 1_545
S4 Sm3 3.009090 1_555
S4 Sm1 3.046616 1_555
S4 Sm5 3.050660 1_555
S5 Sm5 2.829104 1_555
S5 Sm6 2.843078 1_555
S5 Sm7 2.889587 1_555
S5 Sm2 3.064712 1_555
S5 Sm1 3.069749 1_555
S5 Sm14 3.200272 1_455
S6 Sm0 2.847237 1_545
S6 Sm37 2.931159 1_546
S6 Sm36 2.939655 1_556
S6 Sm1 3.014671 1_545
S6 Sm3 3.041305 1_555
S6 Sm9 3.051850 1_555
S7 Sm3 2.830673 1_555
S7 Sm1 2.835252 1_555
S7 Sm5 2.840074 1_555
S7 Sm9 3.076869 1_565
S7 Sm0 3.089225 1_655
S7 Sm37 3.142150 1_556
S8 Sm17 2.848289 1_455
S8 Sm12 2.862930 1_565
S8 Sm19 2.904067 1_465
S8 Sm16 3.014404 1_455
S8 Sm8 3.050348 1_555
S8 Sm4 3.194743 1_555
S9 Sm1 2.829449 1_555
S9 Sm9 2.836858 1_565
S9 Sm3 2.839085 1_565
S9 Sm5 3.073708 1_565
S9 Sm6 3.092517 1_555
S9 Sm2 3.138710 1_555
S10 Sm19 2.767264 1_455
S10 Sm4 2.769763 1_545
S10 Sm13 2.826167 1_445
S10 Sm7 2.937356 1_555
S10 Sm11 3.108791 1_555
S11 Sm16 2.819933 1_555
S11 Sm8 2.849773 1_655
S11 Sm4 2.874580 1_655
S11 Sm17 3.064631 1_545
S11 Sm19 3.065776 1_555
S11 Sm12 3.074230 1_655
S12 Sm12 2.781647 1_555
S12 Sm13 2.833654 1_555
S12 Sm11 2.849557 1_555
S12 Sm4 2.936313 1_555
S12 Sm19 2.972873 1_455
S13 Sm11 2.844231 1_555
S13 Sm7 2.870060 1_555
S13 Sm6 2.912913 1_555
S13 Sm2 2.944498 1_655
S13 Sm14 2.953848 1_565
S14 Sm5 2.758463 1_555
S14 Sm6 2.807890 1_545
S14 Sm2 2.818075 1_545
S14 Sm14 2.974366 1_555
S14 Sm7 3.126934 1_555
S15 Sm25 2.836257 1_565
S15 Sm18 2.847284 1_665
S15 Sm23 2.881617 1_555
S15 Sm10 3.062916 1_655
S15 Sm15 3.071510 1_655
S15 Sm22 3.197728 1_555
S16 Sm1 2.812658 1_655
S16 Sm14 2.864364 1_555
S16 Sm2 2.878262 1_655
S16 Sm6 3.030700 1_555
S16 Sm5 3.044080 1_555
S16 Sm7 3.194729 1_555
S17 Sm25 2.847871 1_455
S17 Sm17 2.850302 1_445
S17 Sm10 2.853508 1_545
S17 Sm12 3.018780 1_555
S17 Sm8 3.044584 1_555
S17 Sm16 3.084202 1_555
S18 Sm14 2.784621 1_555
S18 Sm7 2.837638 1_555
S18 Sm4 2.862603 1_545
S18 Sm13 2.976358 1_545
S18 Sm11 2.996320 1_555
S19 Sm10 2.811669 1_555
S19 Sm22 2.862773 1_455
S19 Sm15 2.872558 1_555
S19 Sm18 3.030220 1_555
S19 Sm25 3.040191 1_455
S19 Sm23 3.201327 1_445
S20 Sm16 2.843224 1_555
S20 Sm17 2.852291 1_555
S20 Sm18 2.866126 1_555
S20 Sm25 2.985187 1_455
S20 Sm10 3.031069 1_555
S20 Sm8 3.053717 1_555
S21 Sm13 2.860542 1_555
S21 Sm4 2.902569 1_555
S21 Sm11 2.909229 1_565
S21 Sm8 3.010419 1_555
S21 Sm19 3.026480 1_565
S21 Sm12 3.028674 1_565
S22 Sm8 2.797756 1_555
S22 Sm16 2.814982 1_555
S22 Sm12 2.831888 1_555
S22 Sm19 3.105186 1_565
S22 Sm13 3.117973 1_555
S22 Sm4 3.170695 1_655
S23 Sm29 2.775895 1_555
S23 Sm24 2.838376 1_665
S23 Sm31 2.851040 1_565
S23 Sm20 2.934852 1_655
S23 Sm28 2.968242 1_555
S24 Sm4 2.806573 1_655
S24 Sm19 2.809064 1_555
S24 Sm12 2.927464 1_555
S24 Sm11 2.997503 1_555
S24 Sm13 3.000851 1_555
S25 Sm31 2.837171 1_455
S25 Sm23 2.869613 1_445
S25 Sm18 2.922666 1_555
S25 Sm15 2.942073 1_555
S25 Sm22 2.955679 1_555
S26 Sm8 2.844802 1_555
S26 Sm12 2.865669 1_565
S26 Sm19 2.908258 1_565
S26 Sm17 3.025700 1_555
S26 Sm10 3.038174 1_555
S26 Sm16 3.095706 1_565
S27 Sm25 2.757629 1_555
S27 Sm18 2.816091 1_555
S27 Sm15 2.818767 1_545
S27 Sm22 2.973168 1_555
S27 Sm23 3.136326 1_545
S28 Sm28 2.805217 1_555
S28 Sm20 2.807254 1_655
S28 Sm29 2.919261 1_545
S28 Sm31 2.995090 1_555
S28 Sm24 2.998515 1_655
S29 Sm22 2.783382 1_555
S29 Sm24 2.816353 1_555
S29 Sm23 2.828802 1_555
S29 Sm15 2.943192 1_555
S29 Sm31 2.985660 1_455
S30 Sm18 2.852589 1_555
S30 Sm15 2.934067 1_555
S30 Sm22 2.937695 1_555
S30 Sm17 3.009608 1_555
S30 Sm10 3.036259 1_655
S30 Sm25 3.053555 1_565
S31 Sm10 2.829724 1_545
S31 Sm16 2.830892 1_555
S31 Sm17 2.832316 1_545
S31 Sm18 3.089614 1_555
S31 Sm25 3.099549 1_555
S31 Sm15 3.176808 1_545
S32 Sm35 2.826605 1_565
S32 Sm30 2.844518 1_665
S32 Sm34 2.870602 1_555
S32 Sm21 3.051521 1_655
S32 Sm26 3.079007 1_655
S32 Sm33 3.088452 1_555
S33 Sm25 2.847303 1_555
S33 Sm8 2.848450 1_655
S33 Sm10 2.853750 1_655
S33 Sm16 2.991162 1_555
S33 Sm17 3.011119 1_555
S33 Sm18 3.063297 1_555
S34 Sm21 2.809178 1_545
S34 Sm35 2.813301 1_455
S34 Sm29 2.827871 1_445
S34 Sm28 3.103694 1_555
S34 Sm24 3.116648 1_555
S34 Sm20 3.178717 1_555
S35 Sm21 2.841667 1_655
S35 Sm26 2.868895 1_655
S35 Sm33 2.900311 1_555
S35 Sm35 3.031954 1_555
S35 Sm30 3.049695 1_655
S35 Sm34 3.210718 1_545
S36 Sm30 2.840261 1_555
S36 Sm29 2.869629 1_555
S36 Sm28 2.899210 1_555
S36 Sm35 3.036647 1_455
S36 Sm21 3.047138 1_555
S36 Sm20 3.209592 1_555
S37 Sm22 2.790131 1_565
S37 Sm23 2.834658 1_555
S37 Sm20 2.860655 1_555
S37 Sm24 2.969496 1_565
S37 Sm31 3.001617 1_565
S38 Sm28 2.766243 1_555
S38 Sm20 2.767828 1_555
S38 Sm24 2.826023 1_555
S38 Sm23 2.940066 1_555
S38 Sm31 3.103966 1_565
S39 Sm37 2.791797 1_555
S39 Sm38 2.870744 1_565
S39 Sm32 2.931499 1_655
S39 Sm27 2.942551 1_655
S39 Sm36 3.025744 1_555
S40 Sm15 2.790435 1_655
S40 Sm31 2.870685 1_555
S40 Sm23 2.928671 1_555
S40 Sm24 2.943480 1_555
S40 Sm22 3.024162 1_555
S41 Sm27 2.867484 1_545
S41 Sm34 2.902125 1_445
S41 Sm38 2.911676 1_455
S41 Sm30 3.008545 1_555
S41 Sm33 3.024119 1_555
S41 Sm26 3.035218 1_555
S42 Sm24 2.867912 1_565
S42 Sm20 2.901070 1_555
S42 Sm31 2.913602 1_565
S42 Sm21 3.005616 1_555
S42 Sm28 3.020898 1_565
S42 Sm29 3.033380 1_555
S43 Sm36 2.782688 1_555
S43 Sm27 2.819814 1_655
S43 Sm32 2.826598 1_655
S43 Sm37 2.946786 1_545
S43 Sm38 2.984098 1_555
S44 Sm33 2.806145 1_555
S44 Sm34 2.808454 1_555
S44 Sm26 2.919813 1_555
S44 Sm27 2.996935 1_555
S44 Sm38 3.000230 1_455
S45 Sm21 2.852109 1_545
S45 Sm29 2.855280 1_545
S45 Sm28 2.916299 1_555
S45 Sm30 3.018496 1_555
S45 Sm26 3.058217 1_545
S45 Sm35 3.070718 1_555
S46 Sm33 2.766569 1_565
S46 Sm34 2.767041 1_555
S46 Sm27 2.826790 1_555
S46 Sm32 2.939838 1_555
S46 Sm38 3.102599 1_565
S47 Sm30 2.852644 1_555
S47 Sm26 2.856722 1_555
S47 Sm33 2.917460 1_555
S47 Sm21 3.024262 1_655
S47 Sm29 3.057694 1_555
S47 Sm35 3.069231 1_565
S48 Sm35 2.825305 1_555
S48 Sm21 2.843668 1_655
S48 Sm20 2.870158 1_655
S48 Sm30 3.054614 1_555
S48 Sm29 3.081392 1_555
S48 Sm28 3.084177 1_555
S49 Sm9 2.755545 1_454
S49 Sm0 2.810821 1_544
S49 Sm37 2.817792 1_445
S49 Sm36 2.973322 1_555
S49 Sm32 3.134590 1_555
S50 Sm30 2.810073 1_555
S50 Sm35 2.814070 1_555
S50 Sm26 2.827520 1_545
S50 Sm33 3.098143 1_555
S50 Sm27 3.119588 1_545
S50 Sm34 3.177241 1_545
S51 Sm3 2.816260 1_555
S51 Sm36 2.860008 1_556
S51 Sm37 2.877911 1_556
S51 Sm0 3.028451 1_555
S51 Sm9 3.046209 1_455
S51 Sm32 3.199466 1_556
S52 Sm36 2.788159 1_555
S52 Sm32 2.833937 1_555
S52 Sm34 2.860373 1_555
S52 Sm27 2.973062 1_655
S52 Sm38 2.998952 1_565
S53 Sm26 2.776883 1_655
S53 Sm27 2.837807 1_655
S53 Sm38 2.851213 1_555
S53 Sm34 2.935780 1_555
S53 Sm33 2.967229 1_555
S54 Sm38 2.839082 1_565
S54 Sm32 2.869596 1_555
S54 Sm0 2.911419 1_554
S54 Sm37 2.946023 1_555
S54 Sm36 2.952453 1_565
S55 Sm9 2.833444 1_554
S55 Sm0 2.844235 1_654
S55 Sm32 2.885142 1_655
S55 Sm3 3.068694 1_554
S55 Sm37 3.070082 1_555
S55 Sm36 3.198575 1_555
