# generated using pymatgen
data_Sr5Ti5O13
_symmetry_space_group_name_H-M   'P 1'
_cell_length_a   5.60116900
_cell_length_b   6.85008215
_cell_length_c   8.82078429
_cell_angle_alpha   104.87954119
_cell_angle_beta   108.42701406
_cell_angle_gamma   89.90137711
_symmetry_Int_Tables_number   1
_chemical_formula_structural   Sr5Ti5O13
_chemical_formula_sum   'Sr5 Ti5 O13'
_cell_volume   309.15331763
_cell_formula_units_Z   1
loop_
 _symmetry_equiv_pos_site_id
 _symmetry_equiv_pos_as_xyz
  1  'x, y, z'
loop_
 _atom_site_type_symbol
 _atom_site_label
 _atom_site_symmetry_multiplicity
 _atom_site_fract_x
 _atom_site_fract_y
 _atom_site_fract_z
 _atom_site_occupancy
  Sr  Sr0  1  0.70324800  0.29869500  0.89651500  1
  Sr  Sr1  1  0.29675200  0.70130500  0.10348500  1
  Sr  Sr2  1  0.90132800  0.09745600  0.30559000  1
  Sr  Sr3  1  0.50000000  0.50000000  0.50000000  1
  Sr  Sr4  1  0.09867200  0.90254400  0.69441000  1
  Ti  Ti0  1  0.11114600  0.39272400  0.70805800  1
  Ti  Ti1  1  0.70731800  0.79339600  0.88891200  1
  Ti  Ti2  1  0.29268200  0.20660400  0.11108800  1
  Ti  Ti3  1  0.88885400  0.60727600  0.29194200  1
  Ti  Ti4  1  0.50000000  0.00000000  0.50000000  1
  O  O0  1  0.89179800  0.59737700  0.78962200  1
  O  O1  1  0.21845000  0.29443600  0.90159700  1
  O  O2  1  0.10820200  0.40262300  0.21037800  1
  O  O3  1  0.78155000  0.70556400  0.09840300  1
  O  O4  1  0.38475000  0.61746300  0.79307100  1
  O  O5  1  0.70398100  0.78185000  0.41689700  1
  O  O6  1  0.41062000  0.06858300  0.28400200  1
  O  O7  1  0.00000000  0.00000000  0.00000000  1
  O  O8  1  0.29601900  0.21815000  0.58310300  1
  O  O9  1  0.61525000  0.38253700  0.20692900  1
  O  O10  1  0.19429300  0.79560000  0.40929200  1
  O  O11  1  0.58938000  0.93141700  0.71599800  1
  O  O12  1  0.80570700  0.20440000  0.59070800  1
loop_
_geom_bond_atom_site_label_1
_geom_bond_atom_site_label_2
_geom_bond_distance
_geom_bond_site_symmetry_2
O0 Ti1 1.897662 1_555
O0 Ti0 2.006808 1_655
O0 Sr3 2.715313 1_555
O0 Sr0 2.796102 1_555
O0 Sr4 2.818345 1_655
O0 Sr1 2.887859 1_656
O1 Ti0 1.915517 1_555
O1 Ti2 2.008459 1_556
O1 Sr0 2.730265 1_555
O1 Sr4 2.776327 1_545
O1 Sr1 2.844806 1_556
O1 Sr0 2.872093 1_455
O2 Ti2 1.897662 1_555
O2 Ti3 2.006808 1_455
O2 Sr3 2.715313 1_555
O2 Sr1 2.796102 1_555
O2 Sr2 2.818345 1_455
O2 Sr0 2.887859 1_454
O3 Ti3 1.915517 1_555
O3 Ti1 2.008459 1_554
O3 Sr1 2.730265 1_555
O3 Sr2 2.776327 1_565
O3 Sr0 2.844806 1_554
O3 Sr1 2.872093 1_655
O4 Ti1 1.987483 1_555
O4 Ti0 1.992388 1_555
O4 Sr4 2.668136 1_555
O4 Sr3 2.780630 1_555
O4 Sr1 2.848605 1_556
O4 Sr0 2.960393 1_555
O5 Ti3 1.938433 1_555
O5 Ti4 2.009180 1_565
O5 Sr3 2.614233 1_555
O5 Sr4 2.666219 1_655
O5 Sr1 2.895576 1_555
O5 Sr2 2.940100 1_565
O6 Ti2 1.938580 1_555
O6 Ti4 1.989292 1_555
O6 Sr1 2.564755 1_545
O6 Sr2 2.698424 1_555
O6 Sr2 2.921473 1_455
O6 Sr3 3.020683 1_555
O7 Ti2 1.982636 1_555
O7 Ti1 1.982636 1_444
O7 Sr0 2.787612 1_454
O7 Sr1 2.787612 1_545
O7 Sr2 2.834334 1_455
O7 Sr4 2.834334 1_544
O8 Ti0 1.938433 1_555
O8 Ti4 2.009180 1_555
O8 Sr3 2.614233 1_555
O8 Sr2 2.666219 1_455
O8 Sr0 2.895576 1_555
O8 Sr4 2.940100 1_545
O9 Ti2 1.987483 1_555
O9 Ti3 1.992388 1_555
O9 Sr2 2.668136 1_555
O9 Sr3 2.780630 1_555
O9 Sr0 2.848605 1_554
O9 Sr1 2.960393 1_555
O10 Ti3 1.965910 1_455
O10 Ti4 2.024702 1_565
O10 Sr4 2.655666 1_555
O10 Sr3 2.761587 1_555
O10 Sr2 2.795667 1_465
O10 Sr1 2.846999 1_555
O11 Ti1 1.938580 1_555
O11 Ti4 1.989292 1_565
O11 Sr0 2.564755 1_565
O11 Sr4 2.698424 1_555
O11 Sr4 2.921473 1_655
O11 Sr3 3.020683 1_555
O12 Ti0 1.965910 1_655
O12 Ti4 2.024702 1_555
O12 Sr2 2.655666 1_555
O12 Sr3 2.761587 1_555
O12 Sr4 2.795667 1_645
O12 Sr0 2.846999 1_555
