# generated using pymatgen
data_Sr6Ge5N2
_symmetry_space_group_name_H-M   'P 1'
_cell_length_a   4.03018374
_cell_length_b   9.11105606
_cell_length_c   17.99808521
_cell_angle_alpha   90.00000000
_cell_angle_beta   90.00000000
_cell_angle_gamma   90.00000000
_symmetry_Int_Tables_number   1
_chemical_formula_structural   Sr6Ge5N2
_chemical_formula_sum   'Sr12 Ge10 N4'
_cell_volume   660.87583016
_cell_formula_units_Z   2
loop_
 _symmetry_equiv_pos_site_id
 _symmetry_equiv_pos_as_xyz
  1  'x, y, z'
loop_
 _atom_site_type_symbol
 _atom_site_label
 _atom_site_symmetry_multiplicity
 _atom_site_fract_x
 _atom_site_fract_y
 _atom_site_fract_z
 _atom_site_occupancy
  Sr  Sr0  1  0.00000000  0.46331698  0.36028654  1
  Sr  Sr1  1  0.50000000  0.11393645  0.68422295  1
  Sr  Sr2  1  0.50000000  0.75956080  0.50000000  1
  Sr  Sr3  1  0.50000000  0.53668302  0.86028654  1
  Sr  Sr4  1  0.00000000  0.88606355  0.18422295  1
  Sr  Sr5  1  -0.00000000  0.24043920  0.00000000  1
  Sr  Sr6  1  0.50000000  0.83757407  0.00000000  1
  Sr  Sr7  1  0.50000000  0.53668302  0.13971346  1
  Sr  Sr8  1  -0.00000000  0.16242593  0.50000000  1
  Sr  Sr9  1  0.00000000  0.88606355  0.81577705  1
  Sr  Sr10  1  0.50000000  0.11393645  0.31577705  1
  Sr  Sr11  1  -0.00000000  0.46331698  0.63971346  1
  Ge  Ge0  1  0.50000000  0.42036114  0.50000000  1
  Ge  Ge1  1  0.00000000  0.85457035  0.63040083  1
  Ge  Ge2  1  0.50000000  0.73768678  0.69429957  1
  Ge  Ge3  1  -0.00000000  0.26231322  0.80570043  1
  Ge  Ge4  1  0.00000000  0.57963886  0.00000000  1
  Ge  Ge5  1  0.50000000  0.14542965  0.13040083  1
  Ge  Ge6  1  0.00000000  0.85457035  0.36959917  1
  Ge  Ge7  1  0.50000000  0.14542965  0.86959917  1
  Ge  Ge8  1  0.50000000  0.73768678  0.30570043  1
  Ge  Ge9  1  -0.00000000  0.26231322  0.19429957  1
  N  N0  1  0.50000000  0.29338139  0.41672499  1
  N  N1  1  -0.00000000  0.70661861  0.08327501  1
  N  N2  1  -0.00000000  0.70661861  0.91672499  1
  N  N3  1  0.50000000  0.29338139  0.58327501  1
loop_
_geom_bond_atom_site_label_1
_geom_bond_atom_site_label_2
_geom_bond_distance
_geom_bond_site_symmetry_2
Ge0 N0 1.893366 1_555
Ge0 N3 1.893366 1_555
Ge0 Sr2 3.090467 1_555
Ge1 Ge2 2.552901 1_455
Ge1 Ge2 2.552901 1_555
Ge1 Sr2 3.212191 1_555
Ge1 Sr2 3.212191 1_455
Ge1 Sr1 3.253183 1_565
Ge1 Sr1 3.253183 1_465
Ge1 Sr9 3.348733 1_555
Ge1 Sr11 3.568670 1_555
Ge1 Sr8 3.657274 1_565
Ge2 Sr9 3.266240 1_555
Ge2 Sr9 3.266240 1_655
Ge2 Sr11 3.357795 1_555
Ge2 Sr11 3.357795 1_655
Ge2 Sr1 3.432826 1_565
Ge2 Sr2 3.502695 1_555
Ge2 Sr3 3.504099 1_555
Ge3 Ge7 2.552901 1_555
Ge3 Ge7 2.552901 1_455
Ge3 Sr1 3.266240 1_455
Ge3 Sr1 3.266240 1_555
Ge3 Sr3 3.357795 1_455
Ge3 Sr3 3.357795 1_555
Ge3 Sr9 3.432826 1_545
Ge3 Sr5 3.502695 1_556
Ge3 Sr11 3.504099 1_555
Ge4 N2 1.893366 1_554
Ge4 N1 1.893366 1_555
Ge4 Sr5 3.090467 1_555
Ge5 Ge9 2.552901 1_555
Ge5 Ge9 2.552901 1_655
Ge5 Sr5 3.212191 1_655
Ge5 Sr5 3.212191 1_555
Ge5 Sr4 3.253183 1_545
Ge5 Sr4 3.253183 1_645
Ge5 Sr10 3.348733 1_555
Ge5 Sr7 3.568670 1_555
Ge5 Sr6 3.657274 1_545
Ge6 Ge8 2.552901 1_555
Ge6 Ge8 2.552901 1_455
Ge6 Sr2 3.212191 1_455
Ge6 Sr2 3.212191 1_555
Ge6 Sr10 3.253183 1_565
Ge6 Sr10 3.253183 1_465
Ge6 Sr4 3.348733 1_555
Ge6 Sr0 3.568670 1_555
Ge6 Sr8 3.657274 1_565
Ge7 Sr5 3.212191 1_556
Ge7 Sr5 3.212191 1_656
Ge7 Sr9 3.253183 1_545
Ge7 Sr9 3.253183 1_645
Ge7 Sr1 3.348733 1_555
Ge7 Sr3 3.568670 1_555
Ge7 Sr6 3.657274 1_546
Ge8 Sr4 3.266240 1_555
Ge8 Sr4 3.266240 1_655
Ge8 Sr0 3.357795 1_655
Ge8 Sr0 3.357795 1_555
Ge8 Sr10 3.432826 1_565
Ge8 Sr2 3.502695 1_555
Ge8 Sr7 3.504099 1_555
Ge9 Sr10 3.266240 1_455
Ge9 Sr10 3.266240 1_555
Ge9 Sr7 3.357795 1_555
Ge9 Sr7 3.357795 1_455
Ge9 Sr4 3.432826 1_545
Ge9 Sr5 3.502695 1_555
Ge9 Sr0 3.504099 1_555
N0 Sr10 2.444181 1_555
N0 Sr0 2.736718 1_655
N0 Sr0 2.736718 1_555
N0 Sr8 2.780388 1_555
N0 Sr8 2.780388 1_655
N1 Sr4 2.444181 1_555
N1 Sr7 2.736718 1_455
N1 Sr7 2.736718 1_555
N1 Sr6 2.780388 1_455
N1 Sr6 2.780388 1_555
N2 Sr9 2.444181 1_555
N2 Sr3 2.736718 1_455
N2 Sr3 2.736718 1_555
N2 Sr6 2.780388 1_456
N2 Sr6 2.780388 1_556
N3 Sr1 2.444181 1_555
N3 Sr11 2.736718 1_555
N3 Sr11 2.736718 1_655
N3 Sr8 2.780388 1_555
N3 Sr8 2.780388 1_655
