# generated using pymatgen
data_La2Te4Pb
_symmetry_space_group_name_H-M   'P 1'
_cell_length_a   8.45073080
_cell_length_b   8.45073080
_cell_length_c   8.45073080
_cell_angle_alpha   109.55082906
_cell_angle_beta   109.55082906
_cell_angle_gamma   109.31212083
_symmetry_Int_Tables_number   1
_chemical_formula_structural   La2Te4Pb
_chemical_formula_sum   'La4 Te8 Pb2'
_cell_volume   464.57774404
_cell_formula_units_Z   2
loop_
 _symmetry_equiv_pos_site_id
 _symmetry_equiv_pos_as_xyz
  1  'x, y, z'
loop_
 _atom_site_type_symbol
 _atom_site_label
 _atom_site_symmetry_multiplicity
 _atom_site_fract_x
 _atom_site_fract_y
 _atom_site_fract_z
 _atom_site_occupancy
  La  La0  1  0.37500000  0.99620600  0.12120600  1
  La  La1  1  0.87500000  0.25379400  0.87879400  1
  La  La2  1  0.74620600  0.62500000  0.62120600  1
  La  La3  1  0.00379400  0.12500000  0.37879400  1
  Te  Te0  1  0.11803300  0.52199300  0.74797100  1
  Te  Te1  1  0.12006200  0.02402200  0.75202900  1
  Te  Te2  1  0.63196700  0.87993800  0.90396000  1
  Te  Te3  1  0.27199300  0.36803300  0.24797100  1
  Te  Te4  1  0.47800700  0.22597800  0.59604000  1
  Te  Te5  1  0.77402200  0.37006200  0.25202900  1
  Te  Te6  1  0.62993800  0.88196700  0.40396000  1
  Te  Te7  1  0.97597800  0.72800700  0.09604000  1
  Pb  Pb0  1  0.25000000  0.75000000  0.50000000  1
  Pb  Pb1  1  0.50000000  0.50000000  0.00000000  1
loop_
_geom_bond_atom_site_label_1
_geom_bond_atom_site_label_2
_geom_bond_distance
_geom_bond_site_symmetry_2
La0 Te5 3.270336 1_565
La0 Te7 3.270336 1_455
La0 Te6 3.279828 1_555
La0 Te1 3.279828 1_564
La0 Te2 3.453085 1_554
La0 Te0 3.453085 1_554
La0 Te4 3.458209 1_565
La0 Te3 3.458209 1_565
La1 Te2 3.270336 1_545
La1 Te0 3.270336 1_655
La1 Te3 3.279828 1_656
La1 Te4 3.279828 1_555
La1 Te5 3.453085 1_556
La1 Te7 3.453085 1_556
La1 Te1 3.458209 1_655
La1 Te6 3.458209 1_545
La2 Te1 3.270336 1_665
La2 Te4 3.270336 1_555
La2 Te5 3.279828 1_555
La2 Te2 3.279828 1_555
La2 Te6 3.453085 1_555
La2 Te3 3.453085 1_555
La2 Te7 3.458209 1_556
La2 Te0 3.458209 1_655
La3 Te6 3.270336 1_445
La3 Te3 3.270336 1_555
La3 Te0 3.279828 1_555
La3 Te7 3.279828 1_445
La3 Te4 3.453085 1_555
La3 Te1 3.453085 1_555
La3 Te2 3.458209 1_444
La3 Te5 3.458209 1_455
Pb0 Te3 3.324235 1_555
Pb0 Te2 3.324235 1_555
Pb0 Te1 3.324235 1_565
Pb0 Te7 3.324235 1_455
Pb0 Te4 3.491826 1_565
Pb0 Te0 3.491826 1_555
Pb0 Te5 3.491826 1_455
Pb0 Te6 3.491826 1_555
Pb1 Te0 3.324235 1_554
Pb1 Te4 3.324235 1_554
Pb1 Te6 3.324235 1_555
Pb1 Te5 3.324235 1_555
Pb1 Te7 3.491826 1_555
Pb1 Te2 3.491826 1_554
Pb1 Te3 3.491826 1_555
Pb1 Te1 3.491826 1_554
