# generated using pymatgen
data_MoPNCl6O
_symmetry_space_group_name_H-M   'P 1'
_cell_length_a   15.13850100
_cell_length_b   12.07517800
_cell_length_c   13.93672750
_cell_angle_alpha   60.88460711
_cell_angle_beta   90.00000000
_cell_angle_gamma   90.00000000
_symmetry_Int_Tables_number   1
_chemical_formula_structural   MoPNCl6O
_chemical_formula_sum   'Mo8 P8 N8 Cl48 O8'
_cell_volume   2225.71983849
_cell_formula_units_Z   8
loop_
 _symmetry_equiv_pos_site_id
 _symmetry_equiv_pos_as_xyz
  1  'x, y, z'
loop_
 _atom_site_type_symbol
 _atom_site_label
 _atom_site_symmetry_multiplicity
 _atom_site_fract_x
 _atom_site_fract_y
 _atom_site_fract_z
 _atom_site_occupancy
  Mo  Mo0  1  0.98370800  0.75131300  0.05691300  1
  Mo  Mo1  1  0.67546900  0.01567000  0.51796300  1
  Mo  Mo2  1  0.32453100  0.98433000  0.48203700  1
  Mo  Mo3  1  0.48370800  0.24868700  0.44308700  1
  Mo  Mo4  1  0.17546900  0.98433000  0.98203700  1
  Mo  Mo5  1  0.51629200  0.75131300  0.55691300  1
  Mo  Mo6  1  0.01629200  0.24868700  0.94308700  1
  Mo  Mo7  1  0.82453100  0.01567000  0.01796300  1
  P  P0  1  0.11849700  0.78000500  0.53199000  1
  P  P1  1  0.26368700  0.42464200  0.42353600  1
  P  P2  1  0.61849700  0.21999500  0.96801000  1
  P  P3  1  0.88150300  0.21999500  0.46801000  1
  P  P4  1  0.73631300  0.57535800  0.57646400  1
  P  P5  1  0.76368700  0.57535800  0.07646400  1
  P  P6  1  0.38150300  0.78000500  0.03199000  1
  P  P7  1  0.23631300  0.42464200  0.92353600  1
  N  N0  1  0.57827500  0.16179300  0.47359500  1
  N  N1  1  0.39631100  0.10092100  0.46530000  1
  N  N2  1  0.07827500  0.83820700  0.02640500  1
  N  N3  1  0.92172500  0.16179300  0.97359500  1
  N  N4  1  0.60368900  0.89907900  0.53470000  1
  N  N5  1  0.89631100  0.89907900  0.03470000  1
  N  N6  1  0.10368900  0.10092100  0.96530000  1
  N  N7  1  0.42172500  0.83820700  0.52640500  1
  Cl  Cl0  1  0.30568600  0.10107700  0.93630100  1
  Cl  Cl1  1  0.56393800  0.18284700  0.85582300  1
  Cl  Cl2  1  0.70461000  0.40629300  0.59309300  1
  Cl  Cl3  1  0.53321800  0.45031000  0.39765900  1
  Cl  Cl4  1  0.15941400  0.99477500  0.81111700  1
  Cl  Cl5  1  0.28708000  0.32699000  0.07467500  1
  Cl  Cl6  1  0.09599800  0.59495900  0.58962800  1
  Cl  Cl7  1  0.79539000  0.40629300  0.09309300  1
  Cl  Cl8  1  0.80776900  0.11015100  0.82855800  1
  Cl  Cl9  1  0.44325200  0.19318600  0.62307000  1
  Cl  Cl10  1  0.96678200  0.45031000  0.89765900  1
  Cl  Cl11  1  0.16271900  0.45948000  0.32057200  1
  Cl  Cl12  1  0.30776900  0.88984900  0.67144200  1
  Cl  Cl13  1  0.40400200  0.59495900  0.08962800  1
  Cl  Cl14  1  0.84058600  0.00522500  0.18888300  1
  Cl  Cl15  1  0.46678200  0.54969000  0.60234100  1
  Cl  Cl16  1  0.78708000  0.67301000  0.42532500  1
  Cl  Cl17  1  0.43606200  0.81715300  0.14417700  1
  Cl  Cl18  1  0.19431400  0.10107700  0.43630100  1
  Cl  Cl19  1  0.95840500  0.13232900  0.60066600  1
  Cl  Cl20  1  0.20461000  0.59370700  0.90690700  1
  Cl  Cl21  1  0.55674800  0.80681400  0.37693000  1
  Cl  Cl22  1  0.66271900  0.54052000  0.17942800  1
  Cl  Cl23  1  0.06393800  0.81715300  0.64417700  1
  Cl  Cl24  1  0.03321800  0.54969000  0.10234100  1
  Cl  Cl25  1  0.90400200  0.40504100  0.41037200  1
  Cl  Cl26  1  0.69223100  0.11015100  0.32855800  1
  Cl  Cl27  1  0.47260400  0.29551700  0.25868000  1
  Cl  Cl28  1  0.69431400  0.89892300  0.06369900  1
  Cl  Cl29  1  0.29539000  0.59370700  0.40690700  1
  Cl  Cl30  1  0.21292000  0.32699000  0.57467500  1
  Cl  Cl31  1  0.65941400  0.00522500  0.68888300  1
  Cl  Cl32  1  0.71292000  0.67301000  0.92532500  1
  Cl  Cl33  1  0.34058600  0.99477500  0.31111700  1
  Cl  Cl34  1  0.52739600  0.70448300  0.74132000  1
  Cl  Cl35  1  0.93606200  0.18284700  0.35582300  1
  Cl  Cl36  1  0.02739600  0.29551700  0.75868000  1
  Cl  Cl37  1  0.80568600  0.89892300  0.56369900  1
  Cl  Cl38  1  0.19223100  0.88984900  0.17144200  1
  Cl  Cl39  1  0.97260400  0.70448300  0.24132000  1
  Cl  Cl40  1  0.83728100  0.54052000  0.67942800  1
  Cl  Cl41  1  0.45840500  0.86767100  0.89933400  1
  Cl  Cl42  1  0.05674800  0.19318600  0.12307000  1
  Cl  Cl43  1  0.54159500  0.13232900  0.10066600  1
  Cl  Cl44  1  0.94325200  0.80681400  0.87693000  1
  Cl  Cl45  1  0.59599800  0.40504100  0.91037200  1
  Cl  Cl46  1  0.04159500  0.86767100  0.39933400  1
  Cl  Cl47  1  0.33728100  0.45948000  0.82057200  1
  O  O0  1  0.33796500  0.36041600  0.40117700  1
  O  O1  1  0.83796500  0.63958400  0.09882300  1
  O  O2  1  0.16203500  0.36041600  0.90117700  1
  O  O3  1  0.21350600  0.81190100  0.51124600  1
  O  O4  1  0.78649400  0.18809900  0.48875400  1
  O  O5  1  0.71350600  0.18809900  0.98875400  1
  O  O6  1  0.66203500  0.63958400  0.59882300  1
  O  O7  1  0.28649400  0.81190100  0.01124600  1
loop_
_geom_bond_atom_site_label_1
_geom_bond_atom_site_label_2
_geom_bond_distance
_geom_bond_site_symmetry_2
Mo0 N2 1.702078 1_655
Mo0 N5 2.119555 1_555
Mo0 O1 2.502478 1_555
Mo1 N4 1.702259 1_545
Mo1 N0 2.144497 1_555
Mo1 O4 2.549708 1_555
Mo2 N1 1.702259 1_565
Mo2 N7 2.144497 1_555
Mo2 O3 2.549708 1_555
Mo3 N0 1.702078 1_555
Mo3 N1 2.119555 1_555
Mo3 O0 2.502478 1_555
Mo4 N6 1.702259 1_565
Mo4 N2 2.144497 1_556
Mo4 O7 2.549708 1_556
Mo5 N7 1.702078 1_555
Mo5 N4 2.119555 1_555
Mo5 O6 2.502478 1_555
Mo6 N3 1.702078 1_455
Mo6 N6 2.119555 1_555
Mo6 O2 2.502478 1_555
Mo7 N5 1.702259 1_545
Mo7 N3 2.144497 1_554
Mo7 O5 2.549708 1_554
Cl0 Mo4 2.324908 1_545
Cl1 P2 2.002622 1_555
Cl2 P4 1.997827 1_555
Cl3 Mo3 2.321644 1_555
Cl4 Mo4 2.335990 1_555
Cl5 P7 2.000217 1_554
Cl6 P0 2.001850 1_555
Cl7 P5 1.997827 1_555
Cl8 Mo7 2.324492 1_556
Cl9 Mo3 2.340994 1_555
Cl10 Mo6 2.321644 1_655
Cl11 P1 1.996251 1_555
Cl12 Mo2 2.324492 1_555
Cl13 P6 2.001850 1_555
Cl14 Mo7 2.335990 1_555
Cl15 Mo5 2.321644 1_555
Cl16 P4 2.000217 1_555
Cl17 P6 2.002622 1_555
Cl18 Mo2 2.324908 1_545
Cl19 P3 1.997351 1_555
Cl20 P7 1.997827 1_555
Cl21 Mo5 2.340994 1_555
Cl22 P5 1.996251 1_555
Cl23 P0 2.002622 1_555
Cl24 Mo0 2.321644 1_455
Cl25 P3 2.001850 1_555
Cl26 Mo1 2.324492 1_555
Cl27 Mo3 2.353468 1_555
Cl28 Mo7 2.324908 1_565
Cl29 P1 1.997827 1_555
Cl30 P1 2.000217 1_555
Cl31 Mo1 2.335990 1_555
Cl32 P5 2.000217 1_556
Cl33 Mo2 2.335990 1_555
Cl34 Mo5 2.353468 1_555
Cl35 P3 2.002622 1_555
Cl36 Mo6 2.353468 1_555
Cl37 Mo1 2.324908 1_565
Cl38 Mo4 2.324492 1_554
Cl39 Mo0 2.353468 1_555
Cl40 P4 1.996251 1_555
Cl41 P6 1.997351 1_556
Cl42 Mo6 2.340994 1_554
Cl43 P2 1.997351 1_554
Cl44 Mo0 2.340994 1_556
Cl45 P2 2.001850 1_555
Cl46 P0 1.997351 1_555
Cl47 P7 1.996251 1_555
O0 P1 1.482614 1_555
O1 P5 1.482614 1_555
O2 P7 1.482614 1_555
O3 P0 1.480626 1_555
O4 P3 1.480626 1_555
O5 P2 1.480626 1_555
O6 P4 1.482614 1_555
O7 P6 1.480626 1_555
