# generated using pymatgen
data_Ti2(Mo3Se4)5
_symmetry_space_group_name_H-M   'P 1'
_cell_length_a   8.91190700
_cell_length_b   12.19081950
_cell_length_c   15.27197048
_cell_angle_alpha   100.93793396
_cell_angle_beta   103.49383951
_cell_angle_gamma   92.94108642
_symmetry_Int_Tables_number   1
_chemical_formula_structural   Ti2(Mo3Se4)5
_chemical_formula_sum   'Ti4 Mo30 Se40'
_cell_volume   1576.12833320
_cell_formula_units_Z   2
loop_
 _symmetry_equiv_pos_site_id
 _symmetry_equiv_pos_as_xyz
  1  'x, y, z'
loop_
 _atom_site_type_symbol
 _atom_site_label
 _atom_site_symmetry_multiplicity
 _atom_site_fract_x
 _atom_site_fract_y
 _atom_site_fract_z
 _atom_site_occupancy
  Ti  Ti0  1  0.05532500  0.37934700  0.68799900  1
  Ti  Ti1  1  0.94467500  0.62065300  0.31200100  1
  Ti  Ti2  1  0.34598800  0.21850800  0.11016200  1
  Ti  Ti3  1  0.65401200  0.78149200  0.88983800  1
  Mo  Mo0  1  0.57468100  0.50326500  0.61869600  1
  Mo  Mo1  1  0.67797900  0.29507700  0.60866600  1
  Mo  Mo2  1  0.39647000  0.33885700  0.64538500  1
  Mo  Mo3  1  0.20869000  0.05672300  0.55137400  1
  Mo  Mo4  1  0.93481900  0.10842800  0.59374300  1
  Mo  Mo5  1  0.97630000  0.10272500  0.41602900  1
  Mo  Mo6  1  0.02370000  0.89727500  0.58397100  1
  Mo  Mo7  1  0.06518100  0.89157200  0.40625700  1
  Mo  Mo8  1  0.79131000  0.94327700  0.44862600  1
  Mo  Mo9  1  0.60353000  0.66114300  0.35461500  1
  Mo  Mo10  1  0.32202100  0.70492300  0.39133400  1
  Mo  Mo11  1  0.38154400  0.70366000  0.22127200  1
  Mo  Mo12  1  0.42531900  0.49673500  0.38130400  1
  Mo  Mo13  1  0.46917100  0.49384400  0.20800700  1
  Mo  Mo14  1  0.19041300  0.53791800  0.24352200  1
  Mo  Mo15  1  0.00498700  0.26120200  0.15396700  1
  Mo  Mo16  1  0.72307300  0.30336000  0.19009000  1
  Mo  Mo17  1  0.77971200  0.30272300  0.01887500  1
  Mo  Mo18  1  0.82450400  0.09560100  0.17869400  1
  Mo  Mo19  1  0.87049700  0.09654600  0.00844700  1
  Mo  Mo20  1  0.59155400  0.13711200  0.04255700  1
  Mo  Mo21  1  0.40844600  0.86288800  0.95744300  1
  Mo  Mo22  1  0.12950300  0.90345400  0.99155300  1
  Mo  Mo23  1  0.17549600  0.90439900  0.82130600  1
  Mo  Mo24  1  0.22028800  0.69727700  0.98112500  1
  Mo  Mo25  1  0.27692700  0.69664000  0.80991000  1
  Mo  Mo26  1  0.99501300  0.73879800  0.84603300  1
  Mo  Mo27  1  0.80958700  0.46208200  0.75647800  1
  Mo  Mo28  1  0.53082900  0.50615600  0.79199300  1
  Mo  Mo29  1  0.61845600  0.29634000  0.77872800  1
  Se  Se0  1  0.04565300  0.73837500  0.68732800  1
  Se  Se1  1  0.84900800  0.46512500  0.58965200  1
  Se  Se2  1  0.30752800  0.54190900  0.65755800  1
  Se  Se3  1  0.44687000  0.33605800  0.48539400  1
  Se  Se4  1  0.50083900  0.13990900  0.63631700  1
  Se  Se5  1  0.10896600  0.25871300  0.55140500  1
  Se  Se6  1  0.24021600  0.05592500  0.38867500  1
  Se  Se7  1  0.28144200  0.85278300  0.54118700  1
  Se  Se8  1  0.71855800  0.14721700  0.45881300  1
  Se  Se9  1  0.75978400  0.94407500  0.61132500  1
  Se  Se10  1  0.83806200  0.93934900  0.28509900  1
  Se  Se11  1  0.89103400  0.74128700  0.44859500  1
  Se  Se12  1  0.49916100  0.86009100  0.36368300  1
  Se  Se13  1  0.55313000  0.66394200  0.51460600  1
  Se  Se14  1  0.65334000  0.65576000  0.19376200  1
  Se  Se15  1  0.69247200  0.45809100  0.34244200  1
  Se  Se16  1  0.11025900  0.74959500  0.25190900  1
  Se  Se17  1  0.15099200  0.53487500  0.41034800  1
  Se  Se18  1  0.24166100  0.53764500  0.08477600  1
  Se  Se19  1  0.29316200  0.34012100  0.24691400  1
  Se  Se20  1  0.90170900  0.46083500  0.16074300  1
  Se  Se21  1  0.95434700  0.26162500  0.31267200  1
  Se  Se22  1  0.05476000  0.25758700  0.99312900  1
  Se  Se23  1  0.09338100  0.05914200  0.14262000  1
  Se  Se24  1  0.51051200  0.34891900  0.05166400  1
  Se  Se25  1  0.55154100  0.13398000  0.20966000  1
  Se  Se26  1  0.64163900  0.13801500  0.88347100  1
  Se  Se27  1  0.69769000  0.93758200  0.03970100  1
  Se  Se28  1  0.30231000  0.06241800  0.96029900  1
  Se  Se29  1  0.35836100  0.86198500  0.11652900  1
  Se  Se30  1  0.44845900  0.86602000  0.79034000  1
  Se  Se31  1  0.48948800  0.65108100  0.94833600  1
  Se  Se32  1  0.90661900  0.94085800  0.85738000  1
  Se  Se33  1  0.94524000  0.74241300  0.00687100  1
  Se  Se34  1  0.09829100  0.53916500  0.83925700  1
  Se  Se35  1  0.70683800  0.65987900  0.75308600  1
  Se  Se36  1  0.75833900  0.46235500  0.91522400  1
  Se  Se37  1  0.88974100  0.25040500  0.74809100  1
  Se  Se38  1  0.34666000  0.34424000  0.80623800  1
  Se  Se39  1  0.16193800  0.06065100  0.71490100  1
loop_
_geom_bond_atom_site_label_1
_geom_bond_atom_site_label_2
_geom_bond_distance
_geom_bond_site_symmetry_2
Mo0 Se35 2.529593 1_555
Mo0 Se3 2.588757 1_555
Mo0 Se2 2.628882 1_555
Mo0 Se1 2.633309 1_555
Mo0 Se13 2.734689 1_555
Mo1 Se4 2.560572 1_555
Mo1 Se3 2.586275 1_555
Mo1 Se1 2.610684 1_555
Mo1 Se37 2.657482 1_555
Mo1 Se8 2.739531 1_555
Mo2 Se3 2.579749 1_555
Mo2 Se38 2.585859 1_555
Mo2 Se2 2.624077 1_555
Mo2 Se4 2.632628 1_555
Mo2 Se5 2.659741 1_555
Mo3 Se6 2.563169 1_555
Mo3 Se7 2.586783 1_545
Mo3 Se39 2.618216 1_555
Mo3 Se5 2.660395 1_555
Mo3 Se4 2.672753 1_555
Mo4 Se9 2.568791 1_545
Mo4 Se39 2.577191 1_655
Mo4 Se8 2.606576 1_555
Mo4 Se5 2.609478 1_655
Mo4 Se37 2.771011 1_555
Mo5 Se5 2.534751 1_655
Mo5 Se6 2.556891 1_655
Mo5 Se10 2.563213 1_545
Mo5 Se8 2.586691 1_555
Mo5 Se21 2.708764 1_555
Mo6 Se11 2.534751 1_455
Mo6 Se9 2.556891 1_455
Mo6 Se39 2.563213 1_565
Mo6 Se7 2.586691 1_555
Mo6 Se0 2.708764 1_555
Mo7 Se6 2.568791 1_565
Mo7 Se10 2.577191 1_455
Mo7 Se7 2.606576 1_555
Mo7 Se11 2.609478 1_455
Mo7 Se16 2.771011 1_555
Mo8 Se9 2.563169 1_555
Mo8 Se8 2.586783 1_565
Mo8 Se10 2.618216 1_555
Mo8 Se11 2.660395 1_555
Mo8 Se12 2.672753 1_555
Mo9 Se13 2.579749 1_555
Mo9 Se14 2.585859 1_555
Mo9 Se15 2.624077 1_555
Mo9 Se12 2.632628 1_555
Mo9 Se11 2.659741 1_555
Mo10 Se12 2.560572 1_555
Mo10 Se13 2.586275 1_555
Mo10 Se17 2.610684 1_555
Mo10 Se16 2.657482 1_555
Mo10 Se7 2.739531 1_555
Mo11 Se12 2.573446 1_555
Mo11 Se14 2.628995 1_555
Mo11 Se18 2.631122 1_555
Mo11 Se16 2.635341 1_555
Mo11 Se29 2.717571 1_555
Mo12 Se19 2.529593 1_555
Mo12 Se13 2.588757 1_555
Mo12 Se15 2.628882 1_555
Mo12 Se17 2.633309 1_555
Mo12 Se3 2.734689 1_555
Mo13 Se14 2.575764 1_555
Mo13 Se18 2.578685 1_555
Mo13 Se19 2.623219 1_555
Mo13 Se15 2.624358 1_555
Mo13 Se24 2.799032 1_555
Mo14 Se18 2.569041 1_555
Mo14 Se20 2.623773 1_455
Mo14 Se19 2.628198 1_555
Mo14 Se17 2.658596 1_555
Mo14 Se16 2.700399 1_555
Mo14 Ti1 2.793261 1_455
Mo15 Se21 2.565964 1_455
Mo15 Se22 2.588740 1_554
Mo15 Se23 2.611354 1_555
Mo15 Se20 2.638075 1_455
Mo15 Se19 2.657638 1_555
Mo16 Se21 2.584565 1_555
Mo16 Se20 2.601270 1_555
Mo16 Se25 2.610251 1_555
Mo16 Se24 2.655320 1_555
Mo16 Se15 2.780192 1_555
Mo17 Se20 2.586961 1_555
Mo17 Se26 2.608697 1_554
Mo17 Se24 2.629790 1_555
Mo17 Se22 2.640426 1_654
Mo17 Se36 2.719461 1_554
Mo18 Se27 2.568907 1_545
Mo18 Se21 2.589431 1_555
Mo18 Se23 2.622082 1_655
Mo18 Se25 2.632470 1_555
Mo18 Se10 2.718519 1_545
Mo19 Se22 2.574550 1_654
Mo19 Se26 2.591050 1_554
Mo19 Se27 2.596694 1_545
Mo19 Se23 2.626825 1_655
Mo19 Se32 2.788576 1_544
Mo20 Se26 2.572515 1_554
Mo20 Se28 2.620253 1_554
Mo20 Se27 2.651115 1_545
Mo20 Se25 2.664873 1_555
Mo20 Se24 2.703735 1_555
Mo20 Ti2 2.780017 1_555
Mo21 Se29 2.572515 1_556
Mo21 Se27 2.620253 1_556
Mo21 Se28 2.651115 1_565
Mo21 Se30 2.664873 1_555
Mo21 Se31 2.703735 1_555
Mo21 Ti3 2.780017 1_555
Mo22 Se33 2.574550 1_456
Mo22 Se29 2.591050 1_556
Mo22 Se28 2.596694 1_565
Mo22 Se32 2.626825 1_455
Mo22 Se23 2.788576 1_566
Mo23 Se28 2.568907 1_565
Mo23 Se0 2.589431 1_555
Mo23 Se32 2.622082 1_455
Mo23 Se30 2.632470 1_555
Mo23 Se39 2.718519 1_565
Mo24 Se34 2.586961 1_555
Mo24 Se29 2.608697 1_556
Mo24 Se31 2.629790 1_555
Mo24 Se33 2.640426 1_456
Mo24 Se18 2.719461 1_556
Mo25 Se0 2.584565 1_555
Mo25 Se34 2.601270 1_555
Mo25 Se30 2.610251 1_555
Mo25 Se31 2.655320 1_555
Mo25 Se2 2.780192 1_555
Mo26 Se0 2.565964 1_655
Mo26 Se33 2.588740 1_556
Mo26 Se32 2.611354 1_555
Mo26 Se34 2.638075 1_655
Mo26 Se35 2.657638 1_555
Mo27 Se36 2.569041 1_555
Mo27 Se34 2.623773 1_655
Mo27 Se35 2.628198 1_555
Mo27 Se1 2.658596 1_555
Mo27 Se37 2.700399 1_555
Mo27 Ti0 2.793261 1_655
Mo28 Se38 2.575764 1_555
Mo28 Se36 2.578685 1_555
Mo28 Se35 2.623219 1_555
Mo28 Se2 2.624358 1_555
Mo28 Se31 2.799032 1_555
Mo29 Se4 2.573446 1_555
Mo29 Se38 2.628995 1_555
Mo29 Se36 2.631122 1_555
Mo29 Se37 2.635341 1_555
Mo29 Se26 2.717571 1_555
Se1 Ti0 2.496925 1_655
Se2 Ti0 3.094421 1_555
Se5 Ti0 2.473103 1_555
Se11 Ti1 2.473103 1_555
Se14 Ti1 2.899010 1_555
Se15 Ti1 3.094421 1_555
Se16 Ti1 2.536164 1_455
Se17 Ti1 2.496925 1_455
Se19 Ti2 2.477256 1_555
Se20 Ti1 2.661087 1_555
Se22 Ti2 2.905640 1_556
Se23 Ti2 3.086352 1_555
Se24 Ti2 2.527162 1_555
Se25 Ti2 2.493082 1_555
Se27 Ti3 2.620322 1_554
Se28 Ti2 2.620322 1_556
Se30 Ti3 2.493082 1_555
Se31 Ti3 2.527162 1_555
Se32 Ti3 3.086352 1_555
Se33 Ti3 2.905640 1_554
Se34 Ti0 2.661087 1_555
Se35 Ti3 2.477256 1_555
Se37 Ti0 2.536164 1_655
Se38 Ti0 2.899010 1_555
