# generated using pymatgen
data_CdSi3PH27C9Br2
_symmetry_space_group_name_H-M   'P 1'
_cell_length_a   13.80121700
_cell_length_b   12.54605800
_cell_length_c   13.14946979
_cell_angle_alpha   82.40033588
_cell_angle_beta   90.00000000
_cell_angle_gamma   90.00000000
_symmetry_Int_Tables_number   1
_chemical_formula_structural   CdSi3PH27C9Br2
_chemical_formula_sum   'Cd4 Si12 P4 H108 C36 Br8'
_cell_volume   2256.84305825
_cell_formula_units_Z   4
loop_
 _symmetry_equiv_pos_site_id
 _symmetry_equiv_pos_as_xyz
  1  'x, y, z'
loop_
 _atom_site_type_symbol
 _atom_site_label
 _atom_site_symmetry_multiplicity
 _atom_site_fract_x
 _atom_site_fract_y
 _atom_site_fract_z
 _atom_site_occupancy
  Cd  Cd0  1  0.98968800  0.03255900  0.35595100  1
  Cd  Cd1  1  0.01031200  0.96744100  0.64404900  1
  Cd  Cd2  1  0.48968800  0.46744100  0.64404900  1
  Cd  Cd3  1  0.51031200  0.53255900  0.35595100  1
  Si  Si0  1  0.95786900  0.79711100  0.90916000  1
  Si  Si1  1  0.61400100  0.16958500  0.67084500  1
  Si  Si2  1  0.84640100  0.29462700  0.26113400  1
  Si  Si3  1  0.38599900  0.83041500  0.32915500  1
  Si  Si4  1  0.65359900  0.79462700  0.26113400  1
  Si  Si5  1  0.54213100  0.29711100  0.90916000  1
  Si  Si6  1  0.88599900  0.66958500  0.67084500  1
  Si  Si7  1  0.15359900  0.70537300  0.73886600  1
  Si  Si8  1  0.34640100  0.20537300  0.73886600  1
  Si  Si9  1  0.04213100  0.20288900  0.09084000  1
  Si  Si10  1  0.45786900  0.70288900  0.09084000  1
  Si  Si11  1  0.11400100  0.33041500  0.32915500  1
  P  P0  1  0.99831900  0.77547500  0.74201100  1
  P  P1  1  0.50168100  0.27547500  0.74201100  1
  P  P2  1  0.49831900  0.72452500  0.25798900  1
  P  P3  1  0.00168100  0.22452500  0.25798900  1
  H  H0  1  0.36768900  0.53384100  0.15159700  1
  H  H1  1  0.60569300  0.17705800  0.05996400  1
  H  H2  1  0.16526200  0.71962500  0.54868600  1
  H  H3  1  0.88279300  0.76140900  0.48970500  1
  H  H4  1  0.24055300  0.61466500  0.60951800  1
  H  H5  1  0.11364400  0.59384500  0.60167300  1
  H  H6  1  0.38279300  0.73859100  0.51029500  1
  H  H7  1  0.97734300  0.49751500  0.71233200  1
  H  H8  1  0.39218400  0.98698900  0.18902400  1
  H  H9  1  0.36008500  0.87068000  0.05609100  1
  H  H10  1  0.14762700  0.52678400  0.30695500  1
  H  H11  1  0.15590000  0.07844300  0.01984200  1
  H  H12  1  0.36758900  0.88005700  0.50484300  1
  H  H13  1  0.25944700  0.11466500  0.60951800  1
  H  H14  1  0.83473800  0.28037500  0.45131400  1
  H  H15  1  0.86008500  0.62932000  0.94390900  1
  H  H16  1  0.75443900  0.80582100  0.67233300  1
  H  H17  1  0.76851700  0.15424800  0.17159500  1
  H  H18  1  0.33473800  0.21962500  0.54868600  1
  H  H19  1  0.25424400  0.78520800  0.21145600  1
  H  H20  1  0.13189100  0.80126500  0.95661400  1
  H  H21  1  0.72127300  0.61013500  0.30551200  1
  H  H22  1  0.29445600  0.32579100  0.32493900  1
  H  H23  1  0.38635600  0.09384500  0.60167300  1
  H  H24  1  0.10569300  0.32294200  0.94003600  1
  H  H25  1  0.78677900  0.85621200  0.88426900  1
  H  H26  1  0.25443900  0.69417900  0.32766700  1
  H  H27  1  0.88635600  0.40615500  0.39832700  1
  H  H28  1  0.31312500  0.79579400  0.74103400  1
  H  H29  1  0.84240600  0.37679100  0.07757800  1
  H  H30  1  0.74198800  0.94013900  0.15241800  1
  H  H31  1  0.77872700  0.11013500  0.30551200  1
  H  H32  1  0.25801200  0.05986100  0.84758200  1
  H  H33  1  0.98445400  0.67463400  0.51074300  1
  H  H34  1  0.02265700  0.50248500  0.28766800  1
  H  H35  1  0.68687500  0.20420600  0.25896600  1
  H  H36  1  0.75424400  0.71479200  0.78854400  1
  H  H37  1  0.28677900  0.64378800  0.11573100  1
  H  H38  1  0.24198800  0.55986100  0.84758200  1
  H  H39  1  0.63241100  0.11994300  0.49515700  1
  H  H40  1  0.20554400  0.82579100  0.32493900  1
  H  H41  1  0.34410000  0.57844300  0.01984200  1
  H  H42  1  0.74575600  0.21479200  0.78854400  1
  H  H43  1  0.38372700  0.02880900  0.84236200  1
  H  H44  1  0.65590000  0.42155700  0.98015800  1
  H  H45  1  0.23148300  0.84575200  0.82840500  1
  H  H46  1  0.58221200  0.56606900  0.06533200  1
  H  H47  1  0.24575600  0.28520800  0.21145600  1
  H  H48  1  0.55692200  0.65161600  0.94848500  1
  H  H49  1  0.52265700  0.99751500  0.71233200  1
  H  H50  1  0.73148300  0.65424800  0.17159500  1
  H  H51  1  0.05692200  0.84838400  0.05151500  1
  H  H52  1  0.70554400  0.67420900  0.67506100  1
  H  H53  1  0.89430700  0.67705800  0.05996400  1
  H  H54  1  0.27872700  0.38986500  0.69448800  1
  H  H55  1  0.21322100  0.14378800  0.11573100  1
  H  H56  1  0.34240600  0.12320900  0.92242200  1
  H  H57  1  0.01986200  0.39266300  0.00769100  1
  H  H58  1  0.63991500  0.12932000  0.94390900  1
  H  H59  1  0.13991500  0.37068000  0.05609100  1
  H  H60  1  0.89218400  0.51301100  0.81097600  1
  H  H61  1  0.60781600  0.01301100  0.81097600  1
  H  H62  1  0.61627300  0.97119100  0.15763800  1
  H  H63  1  0.63189100  0.69873500  0.04338600  1
  H  H64  1  0.88372700  0.47119100  0.15763800  1
  H  H65  1  0.81312500  0.70420600  0.25896600  1
  H  H66  1  0.11720700  0.23859100  0.51029500  1
  H  H67  1  0.63231100  0.46615900  0.84840300  1
  H  H68  1  0.24556100  0.19417900  0.32766700  1
  H  H69  1  0.75944700  0.38533500  0.39048200  1
  H  H70  1  0.48013800  0.89266300  0.00769100  1
  H  H71  1  0.51554600  0.17463400  0.51074300  1
  H  H72  1  0.74055300  0.88533500  0.39048200  1
  H  H73  1  0.86810900  0.19873500  0.04338600  1
  H  H74  1  0.26851700  0.34575200  0.82840500  1
  H  H75  1  0.61364400  0.90615500  0.39832700  1
  H  H76  1  0.98013800  0.60733700  0.99230900  1
  H  H77  1  0.47734300  0.00248500  0.28766800  1
  H  H78  1  0.11627300  0.52880900  0.84236200  1
  H  H79  1  0.10781600  0.48698900  0.18902400  1
  H  H80  1  0.65759400  0.87679100  0.07757800  1
  H  H81  1  0.18687500  0.29579400  0.74103400  1
  H  H82  1  0.51986200  0.10733700  0.99230900  1
  H  H83  1  0.13231100  0.03384100  0.15159700  1
  H  H84  1  0.85237300  0.47321600  0.69304500  1
  H  H85  1  0.39430700  0.82294200  0.94003600  1
  H  H86  1  0.79445600  0.17420900  0.67506100  1
  H  H87  1  0.22127300  0.88986500  0.69448800  1
  H  H88  1  0.86758900  0.61994300  0.49515700  1
  H  H89  1  0.74556100  0.30582100  0.67233300  1
  H  H90  1  0.66526200  0.78037500  0.45131400  1
  H  H91  1  0.44307800  0.34838400  0.05151500  1
  H  H92  1  0.84410000  0.92155700  0.98015800  1
  H  H93  1  0.48445400  0.82536600  0.48925700  1
  H  H94  1  0.35237300  0.02678400  0.30695500  1
  H  H95  1  0.08221200  0.93393100  0.93466800  1
  H  H96  1  0.91778800  0.06606900  0.06533200  1
  H  H97  1  0.41778800  0.43393100  0.93466800  1
  H  H98  1  0.01554600  0.32536600  0.48925700  1
  H  H99  1  0.13241100  0.38005700  0.50484300  1
  H  H100  1  0.15759400  0.62320900  0.92242200  1
  H  H101  1  0.94307800  0.15161600  0.94848500  1
  H  H102  1  0.64762700  0.97321600  0.69304500  1
  H  H103  1  0.61720700  0.26140900  0.48970500  1
  H  H104  1  0.71322100  0.35621200  0.88426900  1
  H  H105  1  0.75801200  0.44013900  0.15241800  1
  H  H106  1  0.36810900  0.30126500  0.95661400  1
  H  H107  1  0.86768900  0.96615900  0.84840300  1
  C  C0  1  0.59262200  0.18297700  0.52881200  1
  C  C1  1  0.26226700  0.32010900  0.75224400  1
  C  C2  1  0.35422000  0.60562000  0.09537400  1
  C  C3  1  0.09262200  0.31702300  0.47118800  1
  C  C4  1  0.41983200  0.83491500  0.01712600  1
  C  C5  1  0.26398400  0.77914400  0.29498100  1
  C  C6  1  0.23601600  0.27914400  0.29498100  1
  C  C7  1  0.93189600  0.14978800  0.03160700  1
  C  C8  1  0.16939300  0.65368500  0.61290000  1
  C  C9  1  0.73601600  0.22085600  0.70501900  1
  C  C10  1  0.73773300  0.67989100  0.24775600  1
  C  C11  1  0.40385500  0.97488600  0.27228600  1
  C  C12  1  0.33160600  0.09395300  0.84821800  1
  C  C13  1  0.58016800  0.16508500  0.98287400  1
  C  C14  1  0.23773300  0.82010900  0.75224400  1
  C  C15  1  0.83160600  0.40604700  0.15178200  1
  C  C16  1  0.40737800  0.81702300  0.47118800  1
  C  C17  1  0.91983200  0.66508500  0.98287400  1
  C  C18  1  0.59614500  0.02511400  0.72771400  1
  C  C19  1  0.83060700  0.34631500  0.38710000  1
  C  C20  1  0.85422000  0.89438000  0.90462600  1
  C  C21  1  0.76398400  0.72085600  0.70501900  1
  C  C22  1  0.09614500  0.47488600  0.27228600  1
  C  C23  1  0.76226700  0.17989100  0.24775600  1
  C  C24  1  0.06810400  0.85021200  0.96839300  1
  C  C25  1  0.90385500  0.52511400  0.72771400  1
  C  C26  1  0.66939300  0.84631500  0.38710000  1
  C  C27  1  0.14578000  0.10562000  0.09537400  1
  C  C28  1  0.90737800  0.68297700  0.52881200  1
  C  C29  1  0.33060700  0.15368500  0.61290000  1
  C  C30  1  0.64578000  0.39438000  0.90462600  1
  C  C31  1  0.43189600  0.35021200  0.96839300  1
  C  C32  1  0.08016800  0.33491500  0.01712600  1
  C  C33  1  0.56810400  0.64978800  0.03160700  1
  C  C34  1  0.66839400  0.90604700  0.15178200  1
  C  C35  1  0.16839400  0.59395300  0.84821800  1
  Br  Br0  1  0.85879200  0.02360500  0.51576100  1
  Br  Br1  1  0.35879200  0.47639500  0.48423900  1
  Br  Br2  1  0.14120800  0.97639500  0.48423900  1
  Br  Br3  1  0.45559200  0.62109700  0.75210100  1
  Br  Br4  1  0.54440800  0.37890300  0.24789900  1
  Br  Br5  1  0.95559200  0.87890300  0.24789900  1
  Br  Br6  1  0.04440800  0.12109700  0.75210100  1
  Br  Br7  1  0.64120800  0.52360500  0.51576100  1
loop_
_geom_bond_atom_site_label_1
_geom_bond_atom_site_label_2
_geom_bond_distance
_geom_bond_site_symmetry_2
Cd0 P3 2.581977 1_655
Cd1 P0 2.581977 1_455
Cd2 P1 2.581977 1_555
Cd3 P2 2.581977 1_555
P0 Si6 2.317851 1_555
P0 Si0 2.318189 1_555
P0 Si7 2.318951 1_655
P1 Si1 2.317851 1_555
P1 Si5 2.318189 1_555
P1 Si8 2.318951 1_555
P2 Si3 2.317851 1_555
P2 Si10 2.318189 1_555
P2 Si4 2.318951 1_555
P3 Si11 2.317851 1_555
P3 Si9 2.318189 1_555
P3 Si2 2.318951 1_455
C0 H71 1.097969 1_555
C0 H103 1.101819 1_555
C0 H39 1.102441 1_555
C0 Si1 1.876283 1_555
C1 H74 1.095043 1_555
C1 H81 1.099693 1_555
C1 H54 1.103855 1_555
C1 Si8 1.875717 1_555
C2 H37 1.095989 1_555
C2 H41 1.100815 1_555
C2 H0 1.102725 1_555
C2 Si10 1.876120 1_555
C3 H98 1.097969 1_555
C3 H66 1.101819 1_555
C3 H99 1.102441 1_555
C3 Si11 1.876283 1_555
C4 H9 1.097546 1_555
C4 H70 1.099658 1_555
C4 H85 1.102049 1_554
C4 Si10 1.879929 1_555
C5 H19 1.099109 1_555
C5 H40 1.099625 1_555
C5 H26 1.103270 1_555
C5 Si3 1.878261 1_555
C6 H47 1.099109 1_555
C6 H22 1.099625 1_555
C6 H68 1.103270 1_555
C6 Si11 1.878261 1_555
C7 H73 1.096017 1_555
C7 H101 1.101083 1_554
C7 H96 1.102085 1_555
C7 Si9 1.871451 1_655
C8 H5 1.098511 1_555
C8 H4 1.100864 1_555
C8 H2 1.102663 1_555
C8 Si7 1.869697 1_555
C9 H42 1.099109 1_555
C9 H86 1.099625 1_555
C9 H89 1.103270 1_555
C9 Si1 1.878261 1_555
C10 H50 1.095043 1_555
C10 H65 1.099693 1_555
C10 H21 1.103855 1_555
C10 Si4 1.875717 1_555
C11 H8 1.097145 1_555
C11 H77 1.099082 1_565
C11 H94 1.102324 1_565
C11 Si3 1.883276 1_555
C12 H56 1.097153 1_555
C12 H43 1.099089 1_555
C12 H32 1.102534 1_555
C12 Si8 1.879288 1_555
C13 H58 1.097546 1_555
C13 H82 1.099658 1_555
C13 H1 1.102049 1_556
C13 Si5 1.879929 1_555
C14 H45 1.095043 1_555
C14 H28 1.099693 1_555
C14 H87 1.103855 1_555
C14 Si7 1.875717 1_555
C15 H29 1.097153 1_555
C15 H64 1.099089 1_555
C15 H105 1.102534 1_555
C15 Si2 1.879288 1_555
C16 H93 1.097969 1_555
C16 H6 1.101819 1_555
C16 H12 1.102441 1_555
C16 Si3 1.876283 1_555
C17 H15 1.097546 1_555
C17 H76 1.099658 1_555
C17 H53 1.102049 1_556
C17 Si0 1.879929 1_555
C18 H61 1.097145 1_555
C18 H49 1.099082 1_545
C18 H102 1.102324 1_545
C18 Si1 1.883276 1_555
C19 H27 1.098511 1_555
C19 H69 1.100864 1_555
C19 H14 1.102663 1_555
C19 Si2 1.869697 1_555
C20 H25 1.095989 1_555
C20 H92 1.100815 1_555
C20 H107 1.102725 1_555
C20 Si0 1.876120 1_555
C21 H36 1.099109 1_555
C21 H52 1.099625 1_555
C21 H16 1.103270 1_555
C21 Si6 1.878261 1_555
C22 H79 1.097145 1_555
C22 H34 1.099082 1_555
C22 H10 1.102324 1_555
C22 Si11 1.883276 1_555
C23 H17 1.095043 1_555
C23 H35 1.099693 1_555
C23 H31 1.103855 1_555
C23 Si2 1.875717 1_555
C24 H20 1.096017 1_555
C24 H51 1.101083 1_556
C24 H95 1.102085 1_555
C24 Si0 1.871451 1_455
C25 H60 1.097145 1_555
C25 H7 1.099082 1_555
C25 H84 1.102324 1_555
C25 Si6 1.883276 1_555
C26 H75 1.098511 1_555
C26 H72 1.100864 1_555
C26 H90 1.102663 1_555
C26 Si4 1.869697 1_555
C27 H55 1.095989 1_555
C27 H11 1.100815 1_555
C27 H83 1.102725 1_555
C27 Si9 1.876120 1_555
C28 H33 1.097969 1_555
C28 H3 1.101819 1_555
C28 H88 1.102441 1_555
C28 Si6 1.876283 1_555
C29 H23 1.098511 1_555
C29 H13 1.100864 1_555
C29 H18 1.102663 1_555
C29 Si8 1.869697 1_555
C30 H104 1.095989 1_555
C30 H44 1.100815 1_555
C30 H67 1.102725 1_555
C30 Si5 1.876120 1_555
C31 H106 1.096017 1_555
C31 H91 1.101083 1_556
C31 H97 1.102085 1_555
C31 Si5 1.871451 1_555
C32 H59 1.097546 1_555
C32 H57 1.099658 1_555
C32 H24 1.102049 1_554
C32 Si9 1.879929 1_555
C33 H63 1.096017 1_555
C33 H48 1.101083 1_554
C33 H46 1.102085 1_555
C33 Si10 1.871451 1_555
C34 H80 1.097153 1_555
C34 H62 1.099089 1_555
C34 H30 1.102534 1_555
C34 Si4 1.879288 1_555
C35 H100 1.097153 1_555
C35 H78 1.099089 1_555
C35 H38 1.102534 1_555
C35 Si7 1.879288 1_555
Br0 Cd1 2.720433 1_645
Br0 Cd0 2.762184 1_555
Br1 Cd3 2.720433 1_555
Br1 Cd2 2.762184 1_555
Br2 Cd0 2.720433 1_465
Br2 Cd1 2.762184 1_555
Br3 Cd2 2.584760 1_555
Br4 Cd3 2.584760 1_555
Br5 Cd0 2.584760 1_565
Br6 Cd1 2.584760 1_545
Br7 Cd2 2.720433 1_555
Br7 Cd3 2.762184 1_555
