# generated using pymatgen
data_LiSb(PO3)4
_symmetry_space_group_name_H-M   'P 1'
_cell_length_a   13.17352300
_cell_length_b   7.35898000
_cell_length_c   11.97327239
_cell_angle_alpha   54.56256180
_cell_angle_beta   90.00000000
_cell_angle_gamma   90.00000000
_symmetry_Int_Tables_number   1
_chemical_formula_structural   LiSb(PO3)4
_chemical_formula_sum   'Li4 Sb4 P16 O48'
_cell_volume   945.70636726
_cell_formula_units_Z   4
loop_
 _symmetry_equiv_pos_site_id
 _symmetry_equiv_pos_as_xyz
  1  'x, y, z'
loop_
 _atom_site_type_symbol
 _atom_site_label
 _atom_site_symmetry_multiplicity
 _atom_site_fract_x
 _atom_site_fract_y
 _atom_site_fract_z
 _atom_site_occupancy
  Li  Li0  1  0.72054500  0.36709500  0.57219800  1
  Li  Li1  1  0.22054500  0.63290500  0.92780200  1
  Li  Li2  1  0.77945500  0.36709500  0.07219800  1
  Li  Li3  1  0.27945500  0.63290500  0.42780200  1
  Sb  Sb0  1  0.28639200  0.00930000  0.50822900  1
  Sb  Sb1  1  0.71360800  0.99070000  0.49177100  1
  Sb  Sb2  1  0.78639200  0.99070000  0.99177100  1
  Sb  Sb3  1  0.21360800  0.00930000  0.00822900  1
  P  P0  1  0.10277100  0.48717600  0.77605900  1
  P  P1  1  0.91277300  0.08048700  0.71136800  1
  P  P2  1  0.41277300  0.91951300  0.78863200  1
  P  P3  1  0.38625600  0.37576800  0.72390500  1
  P  P4  1  0.60277100  0.51282400  0.72394100  1
  P  P5  1  0.88625600  0.62423200  0.77609500  1
  P  P6  1  0.89722900  0.51282400  0.22394100  1
  P  P7  1  0.08722700  0.91951300  0.28863200  1
  P  P8  1  0.58722700  0.08048700  0.21136800  1
  P  P9  1  0.86896600  0.81450400  0.30772500  1
  P  P10  1  0.36896600  0.18549600  0.19227500  1
  P  P11  1  0.63103400  0.81450400  0.80772500  1
  P  P12  1  0.39722900  0.48717600  0.27605900  1
  P  P13  1  0.61374400  0.62423200  0.27609500  1
  P  P14  1  0.11374400  0.37576800  0.22390500  1
  P  P15  1  0.13103400  0.18549600  0.69227500  1
  O  O0  1  0.87161500  0.57752300  0.32821400  1
  O  O1  1  0.59866400  0.12031700  0.32109800  1
  O  O2  1  0.28778200  0.20652300  0.09750700  1
  O  O3  1  0.97781100  0.82481000  0.36401700  1
  O  O4  1  0.83384700  0.32306800  0.25093200  1
  O  O5  1  0.40133600  0.87968300  0.67890200  1
  O  O6  1  0.63758400  0.00156900  0.65596500  1
  O  O7  1  0.47781100  0.17519000  0.13598300  1
  O  O8  1  0.92764700  0.81661300  0.78930800  1
  O  O9  1  0.35152800  0.56904200  0.58671300  1
  O  O10  1  0.83544700  0.17755600  0.59973100  1
  O  O11  1  0.02218900  0.17519000  0.63598300  1
  O  O12  1  0.16455300  0.82244400  0.40026900  1
  O  O13  1  0.14847200  0.56904200  0.08671300  1
  O  O14  1  0.18504500  0.27878700  0.34413700  1
  O  O15  1  0.51238200  0.56120100  0.23055200  1
  O  O16  1  0.16615300  0.67693200  0.74906800  1
  O  O17  1  0.90133600  0.12031700  0.82109800  1
  O  O18  1  0.36241600  0.99843100  0.34403500  1
  O  O19  1  0.57235300  0.81661300  0.28930800  1
  O  O20  1  0.31495500  0.27878700  0.84413700  1
  O  O21  1  0.10767900  0.27596700  0.92371700  1
  O  O22  1  0.33544700  0.82244400  0.90026900  1
  O  O23  1  0.21221800  0.20652300  0.59750700  1
  O  O24  1  0.81495500  0.72121300  0.65586300  1
  O  O25  1  0.66615300  0.32306800  0.75093200  1
  O  O26  1  0.86241600  0.00156900  0.15596500  1
  O  O27  1  0.64847200  0.43095800  0.41328700  1
  O  O28  1  0.62838500  0.57752300  0.82821400  1
  O  O29  1  0.89232100  0.72403300  0.07628300  1
  O  O30  1  0.85152800  0.43095800  0.91328700  1
  O  O31  1  0.01238200  0.43879900  0.26944800  1
  O  O32  1  0.98761800  0.56120100  0.73055200  1
  O  O33  1  0.09866400  0.87968300  0.17890200  1
  O  O34  1  0.71221800  0.79347700  0.90249300  1
  O  O35  1  0.07235300  0.18338700  0.21069200  1
  O  O36  1  0.66455300  0.17755600  0.09973100  1
  O  O37  1  0.68504500  0.72121300  0.15586300  1
  O  O38  1  0.48761800  0.43879900  0.76944800  1
  O  O39  1  0.52218900  0.82481000  0.86401700  1
  O  O40  1  0.12838500  0.42247700  0.67178600  1
  O  O41  1  0.42764700  0.18338700  0.71069200  1
  O  O42  1  0.60767900  0.72403300  0.57628300  1
  O  O43  1  0.13758400  0.99843100  0.84403500  1
  O  O44  1  0.39232100  0.27596700  0.42371700  1
  O  O45  1  0.37161500  0.42247700  0.17178600  1
  O  O46  1  0.33384700  0.67693200  0.24906800  1
  O  O47  1  0.78778200  0.79347700  0.40249300  1
loop_
_geom_bond_atom_site_label_1
_geom_bond_atom_site_label_2
_geom_bond_distance
_geom_bond_site_symmetry_2
Li0 O27 1.924995 1_555
Li0 O10 1.952472 1_555
Li0 O25 2.096208 1_555
Li0 O6 2.511448 1_555
Li1 O13 1.924995 1_556
Li1 O22 1.952472 1_555
Li1 O16 2.096208 1_555
Li1 O43 2.511448 1_555
Li2 O30 1.924995 1_554
Li2 O36 1.952472 1_555
Li2 O4 2.096208 1_555
Li2 O26 2.511448 1_555
Li3 O9 1.924995 1_555
Li3 O12 1.952472 1_555
Li3 O46 2.096208 1_555
Li3 O18 2.511448 1_555
O0 P6 1.608909 1_555
O0 P9 1.614498 1_555
O1 P8 1.510404 1_555
O1 Sb1 2.262362 1_545
O2 P10 1.500543 1_555
O2 Sb3 2.450096 1_555
O3 P9 1.604772 1_555
O3 P7 1.627438 1_655
O4 P6 1.492733 1_555
O5 P2 1.510404 1_555
O5 Sb0 2.262362 1_565
O6 P11 1.517742 1_545
O6 Sb1 2.248704 1_545
O7 P10 1.604772 1_555
O7 P8 1.627438 1_555
O8 P1 1.605808 1_565
O8 P5 1.608214 1_555
O9 P3 1.490378 1_555
O10 P1 1.492433 1_555
O11 P15 1.604772 1_555
O11 P1 1.627438 1_455
O12 P7 1.492433 1_555
O13 P14 1.490378 1_555
O14 P14 1.507503 1_555
O14 Sb0 2.248820 1_555
O15 P12 1.597071 1_555
O15 P13 1.608982 1_555
O16 P0 1.492733 1_555
O17 P1 1.510404 1_555
O17 Sb2 2.262362 1_545
O18 P10 1.517742 1_565
O18 Sb0 2.248704 1_565
O19 P8 1.605808 1_565
O19 P13 1.608214 1_555
O20 P3 1.507503 1_555
O20 Sb3 2.248820 1_556
O21 P0 1.535932 1_555
O21 Sb3 2.125917 1_556
O22 P2 1.492433 1_555
O23 P15 1.500543 1_555
O23 Sb0 2.450096 1_555
O24 P5 1.507503 1_555
O24 Sb1 2.248820 1_555
O25 P4 1.492733 1_555
O26 P9 1.517742 1_545
O26 Sb2 2.248704 1_544
O27 P13 1.490378 1_555
O28 P4 1.608909 1_555
O28 P11 1.614498 1_555
O29 P6 1.535932 1_555
O29 Sb2 2.125917 1_554
O30 P5 1.490378 1_555
O31 P6 1.597071 1_455
O31 P14 1.608982 1_555
O32 P0 1.597071 1_655
O32 P5 1.608982 1_555
O33 P7 1.510404 1_555
O33 Sb3 2.262362 1_565
O34 P11 1.500543 1_555
O34 Sb2 2.450096 1_555
O35 P7 1.605808 1_545
O35 P14 1.608214 1_555
O36 P8 1.492433 1_555
O37 P13 1.507503 1_555
O37 Sb2 2.248820 1_554
O38 P4 1.597071 1_555
O38 P3 1.608982 1_555
O39 P11 1.604772 1_555
O39 P2 1.627438 1_555
O40 P0 1.608909 1_555
O40 P15 1.614498 1_555
O41 P2 1.605808 1_545
O41 P3 1.608214 1_555
O42 P4 1.535932 1_555
O42 Sb1 2.125917 1_555
O43 P15 1.517742 1_565
O43 Sb3 2.248704 1_566
O44 P12 1.535932 1_555
O44 Sb0 2.125917 1_555
O45 P12 1.608909 1_555
O45 P10 1.614498 1_555
O46 P12 1.492733 1_555
O47 P9 1.500543 1_555
O47 Sb1 2.450096 1_555
