# generated using pymatgen
data_NaB9Se8
_symmetry_space_group_name_H-M   'P 1'
_cell_length_a   17.23554627
_cell_length_b   17.23554627
_cell_length_c   9.03849700
_cell_angle_alpha   90.00000000
_cell_angle_beta   90.00000000
_cell_angle_gamma   120.00000105
_symmetry_Int_Tables_number   1
_chemical_formula_structural   NaB9Se8
_chemical_formula_sum   'Na6 B54 Se48'
_cell_volume   2325.28907316
_cell_formula_units_Z   6
loop_
 _symmetry_equiv_pos_site_id
 _symmetry_equiv_pos_as_xyz
  1  'x, y, z'
loop_
 _atom_site_type_symbol
 _atom_site_label
 _atom_site_symmetry_multiplicity
 _atom_site_fract_x
 _atom_site_fract_y
 _atom_site_fract_z
 _atom_site_occupancy
  Na  Na0  1  0.34070700  0.14696700  0.80097900  1
  Na  Na1  1  0.80626100  0.65929300  0.80097900  1
  Na  Na2  1  0.14696700  0.80626100  0.19902100  1
  Na  Na3  1  0.19373900  0.34070700  0.19902100  1
  Na  Na4  1  0.85303300  0.19373900  0.80097900  1
  Na  Na5  1  0.65929300  0.85303300  0.19902100  1
  B  B0  1  0.98507800  0.93439100  0.85103300  1
  B  B1  1  0.32878000  0.56825800  0.98240400  1
  B  B2  1  0.56825800  0.23947800  0.01759600  1
  B  B3  1  0.02515100  0.10596600  0.96399700  1
  B  B4  1  0.56256300  0.79724700  0.74764700  1
  B  B5  1  0.27395200  0.66789500  0.16748300  1
  B  B6  1  0.23544100  0.57264500  0.05439200  1
  B  B7  1  0.01492200  0.06560900  0.14896700  1
  B  B8  1  0.23206400  0.09451600  0.26675200  1
  B  B9  1  0.33552200  0.72735500  0.86956000  1
  B  B10  1  0.72604800  0.33210500  0.83251700  1
  B  B11  1  0.42448600  0.89762500  0.28920400  1
  B  B12  1  0.06560900  0.05068700  0.85103300  1
  B  B13  1  0.91918500  0.02515100  0.03600300  1
  B  B14  1  0.72735500  0.39183300  0.13044000  1
  B  B15  1  0.57551400  0.10237500  0.71079600  1
  B  B16  1  0.27264500  0.60816700  0.86956000  1
  B  B17  1  0.52686100  0.42448600  0.71079600  1
  B  B18  1  0.13754800  0.23206400  0.73324800  1
  B  B19  1  0.66447800  0.27264500  0.13044000  1
  B  B20  1  0.20275300  0.76531600  0.74764700  1
  B  B21  1  0.60605700  0.27395200  0.83251700  1
  B  B22  1  0.76531600  0.56256300  0.25235300  1
  B  B23  1  0.57264500  0.33720400  0.94560800  1
  B  B24  1  0.79724700  0.23468400  0.25235300  1
  B  B25  1  0.23947800  0.67122000  0.98240400  1
  B  B26  1  0.10237500  0.52686100  0.28920400  1
  B  B27  1  0.93439100  0.94931300  0.14896700  1
  B  B28  1  0.97484900  0.89403400  0.03600300  1
  B  B29  1  0.47313900  0.57551400  0.28920400  1
  B  B30  1  0.39394300  0.72604800  0.16748300  1
  B  B31  1  0.33720400  0.76455900  0.05439200  1
  B  B32  1  0.76052200  0.32878000  0.01759600  1
  B  B33  1  0.23468400  0.43743700  0.74764700  1
  B  B34  1  0.05068700  0.98507800  0.14896700  1
  B  B35  1  0.86245200  0.76793600  0.26675200  1
  B  B36  1  0.39183300  0.66447800  0.86956000  1
  B  B37  1  0.43743700  0.20275300  0.25235300  1
  B  B38  1  0.67122000  0.43174200  0.01759600  1
  B  B39  1  0.89403400  0.91918500  0.96399700  1
  B  B40  1  0.33210500  0.60605700  0.16748300  1
  B  B41  1  0.43174200  0.76052200  0.98240400  1
  B  B42  1  0.89762500  0.47313900  0.71079600  1
  B  B43  1  0.94931300  0.01492200  0.85103300  1
  B  B44  1  0.90548400  0.13754800  0.26675200  1
  B  B45  1  0.08081500  0.97484900  0.96399700  1
  B  B46  1  0.60816700  0.33552200  0.13044000  1
  B  B47  1  0.42735500  0.66279600  0.05439200  1
  B  B48  1  0.76455900  0.42735500  0.94560800  1
  B  B49  1  0.66789500  0.39394300  0.83251700  1
  B  B50  1  0.09451600  0.86245200  0.73324800  1
  B  B51  1  0.10596600  0.08081500  0.03600300  1
  B  B52  1  0.76793600  0.90548400  0.73324800  1
  B  B53  1  0.66279600  0.23544100  0.94560800  1
  Se  Se0  1  0.46607600  0.34860400  0.88472300  1
  Se  Se1  1  0.87402900  0.02021300  0.68466000  1
  Se  Se2  1  0.65262200  0.46402200  0.66605000  1
  Se  Se3  1  0.97978700  0.85381600  0.68466000  1
  Se  Se4  1  0.23213800  0.16876600  0.10045000  1
  Se  Se5  1  0.52747000  0.32356600  0.30110500  1
  Se  Se6  1  0.12597100  0.97978700  0.31534000  1
  Se  Se7  1  0.19865100  0.33658500  0.60290900  1
  Se  Se8  1  0.88252700  0.53392400  0.88472300  1
  Se  Se9  1  0.14618400  0.12597100  0.68466000  1
  Se  Se10  1  0.34737800  0.53597800  0.33395000  1
  Se  Se11  1  0.55115900  0.54942700  0.40901500  1
  Se  Se12  1  0.85381600  0.87402900  0.31534000  1
  Se  Se13  1  0.86206600  0.19865100  0.39709100  1
  Se  Se14  1  0.44884100  0.45057300  0.59098500  1
  Se  Se15  1  0.81139900  0.34737800  0.66605000  1
  Se  Se16  1  0.31035300  0.44780900  0.91777700  1
  Se  Se17  1  0.13745700  0.68964700  0.91777700  1
  Se  Se18  1  0.13793400  0.80134900  0.60290900  1
  Se  Se19  1  0.68964700  0.55219100  0.08222300  1
  Se  Se20  1  0.93662800  0.76786200  0.10045000  1
  Se  Se21  1  0.44780900  0.13745700  0.08222300  1
  Se  Se22  1  0.46402200  0.81139900  0.33395000  1
  Se  Se23  1  0.33658500  0.13793400  0.39709100  1
  Se  Se24  1  0.20390400  0.52747000  0.69889500  1
  Se  Se25  1  0.53597800  0.18860100  0.66605000  1
  Se  Se26  1  0.47253000  0.67643400  0.69889500  1
  Se  Se27  1  0.67643400  0.20390400  0.30110500  1
  Se  Se28  1  0.06337200  0.23213800  0.89955000  1
  Se  Se29  1  0.86254300  0.31035300  0.08222300  1
  Se  Se30  1  0.34860400  0.88252700  0.11527700  1
  Se  Se31  1  0.00173200  0.55115900  0.59098500  1
  Se  Se32  1  0.02021300  0.14618400  0.31534000  1
  Se  Se33  1  0.76786200  0.83123400  0.89955000  1
  Se  Se34  1  0.99826800  0.44884100  0.40901500  1
  Se  Se35  1  0.45057300  0.00173200  0.40901500  1
  Se  Se36  1  0.65139600  0.11747300  0.88472300  1
  Se  Se37  1  0.80134900  0.66341500  0.39709100  1
  Se  Se38  1  0.66341500  0.86206600  0.60290900  1
  Se  Se39  1  0.18860100  0.65262200  0.33395000  1
  Se  Se40  1  0.16876600  0.93662800  0.89955000  1
  Se  Se41  1  0.11747300  0.46607600  0.11527700  1
  Se  Se42  1  0.79609600  0.47253000  0.30110500  1
  Se  Se43  1  0.54942700  0.99826800  0.59098500  1
  Se  Se44  1  0.55219100  0.86254300  0.91777700  1
  Se  Se45  1  0.83123400  0.06337200  0.10045000  1
  Se  Se46  1  0.53392400  0.65139600  0.11527700  1
  Se  Se47  1  0.32356600  0.79609600  0.69889500  1
loop_
_geom_bond_atom_site_label_1
_geom_bond_atom_site_label_2
_geom_bond_distance
_geom_bond_site_symmetry_2
Na0 Se0 3.132153 1_555
Na0 Se21 3.193571 1_556
Na0 Se25 3.303698 1_555
Na0 Se9 3.356141 1_555
Na0 Se4 3.416486 1_556
Na0 Se40 3.460541 1_545
Na1 Se8 3.132127 1_555
Na1 Se19 3.193582 1_556
Na1 Se2 3.303708 1_555
Na1 Se3 3.356135 1_555
Na1 Se20 3.416479 1_556
Na1 Se33 3.460552 1_555
Na2 Se30 3.132158 1_555
Na2 Se17 3.193591 1_554
Na2 Se39 3.303729 1_555
Na2 Se6 3.356125 1_555
Na2 Se40 3.416476 1_554
Na2 Se20 3.460535 1_455
Na3 Se41 3.132127 1_555
Na3 Se16 3.193582 1_554
Na3 Se10 3.303708 1_555
Na3 Se32 3.356135 1_555
Na3 Se28 3.416479 1_554
Na3 Se4 3.460552 1_555
Na4 Se36 3.132158 1_555
Na4 Se29 3.193591 1_556
Na4 Se15 3.303729 1_555
Na4 Se1 3.356125 1_555
Na4 Se45 3.416476 1_556
Na4 Se28 3.460535 1_655
Na5 Se46 3.132153 1_555
Na5 Se44 3.193571 1_554
Na5 Se22 3.303698 1_555
Na5 Se12 3.356141 1_555
Na5 Se33 3.416486 1_554
Na5 Se45 3.460541 1_565
B0 B45 1.760931 1_655
B0 B12 1.778235 1_665
B0 B43 1.778235 1_565
B0 B39 1.778282 1_555
B0 B28 1.785318 1_556
B0 Se3 2.017823 1_555
B1 B16 1.764942 1_555
B1 B6 1.771664 1_556
B1 B36 1.780264 1_555
B1 B40 1.785711 1_556
B1 B47 1.787895 1_556
B1 Se16 2.023001 1_555
B2 B46 1.764942 1_555
B2 B23 1.771664 1_554
B2 B21 1.785711 1_554
B2 B53 1.787895 1_554
B2 Se21 2.022995 1_555
B3 B51 1.776356 1_556
B3 B43 1.778282 1_455
B3 B7 1.785318 1_556
B3 Se28 2.017370 1_555
B4 Se26 1.925311 1_555
B4 Se44 1.965777 1_555
B4 Se38 2.009744 1_555
B5 B6 1.758085 1_555
B5 Se39 2.027303 1_555
B6 Se41 2.018923 1_555
B7 Se32 2.017823 1_555
B8 Se6 1.957260 1_545
B8 Se23 1.960883 1_555
B8 Se4 1.973695 1_555
B9 Se47 2.017377 1_555
B10 B48 1.758085 1_555
B10 B32 1.785711 1_556
B10 B53 1.786834 1_555
B10 B21 1.791318 1_555
B10 B49 1.791318 1_555
B10 Se15 2.027303 1_555
B11 Se35 1.946212 1_565
B11 Se22 1.961952 1_555
B11 Se30 1.977170 1_555
B12 B3 1.760931 1_555
B12 B43 1.778235 1_455
B12 B45 1.778282 1_545
B12 B51 1.785318 1_556
B12 Se9 2.017823 1_555
B13 B7 1.760931 1_655
B13 B3 1.776356 1_654
B13 B39 1.776356 1_544
B13 B27 1.778282 1_545
B13 B43 1.785318 1_554
B13 Se45 2.017370 1_555
B14 B38 1.764942 1_555
B14 B19 1.779950 1_555
B14 B46 1.779950 1_555
B14 B32 1.780264 1_555
B14 B48 1.784473 1_554
B14 Se42 2.017377 1_555
B15 Se43 1.946212 1_545
B15 Se25 1.961952 1_555
B15 Se36 1.977170 1_555
B16 B9 1.779950 1_555
B16 B36 1.779950 1_555
B16 B25 1.780264 1_555
B16 B6 1.784473 1_556
B16 Se24 2.017377 1_555
B17 Se14 1.946212 1_555
B17 Se2 1.961936 1_555
B17 Se0 1.977174 1_555
B18 Se9 1.957260 1_555
B18 Se7 1.960883 1_555
B18 Se28 1.973695 1_555
B19 B32 1.764942 1_555
B19 B46 1.779950 1_555
B19 B2 1.780264 1_555
B19 B53 1.784473 1_554
B19 Se27 2.017377 1_555
B20 Se47 1.925311 1_555
B20 Se17 1.965783 1_555
B20 Se18 2.009744 1_555
B21 B53 1.758085 1_555
B21 B23 1.786834 1_555
B21 B49 1.791318 1_555
B21 Se25 2.027307 1_555
B22 Se42 1.925311 1_555
B22 Se19 1.965787 1_555
B22 Se37 2.009744 1_555
B23 B49 1.758085 1_555
B23 B46 1.784473 1_556
B23 B38 1.787895 1_556
B23 Se0 2.018932 1_555
B24 Se27 1.925311 1_555
B24 Se29 1.965783 1_555
B24 Se13 2.009744 1_555
B25 B9 1.764942 1_555
B25 B31 1.771664 1_556
B25 B5 1.785711 1_556
B25 B6 1.787895 1_556
B25 Se17 2.022985 1_555
B26 Se34 1.946212 1_455
B26 Se39 1.961940 1_555
B26 Se41 1.977181 1_555
B27 B28 1.760931 1_555
B27 B7 1.778235 1_665
B27 B34 1.778235 1_655
B27 B39 1.785318 1_554
B27 Se12 2.017823 1_555
B28 B45 1.776356 1_654
B28 B39 1.776356 1_554
B28 B34 1.778282 1_655
B28 Se20 2.017370 1_555
B29 Se11 1.946212 1_555
B29 Se10 1.961936 1_555
B29 Se46 1.977174 1_555
B30 B31 1.758085 1_555
B30 B41 1.785711 1_554
B30 B47 1.786834 1_555
B30 B40 1.791318 1_555
B30 B5 1.791318 1_555
B30 Se22 2.027307 1_555
B31 B9 1.784473 1_554
B31 B5 1.786834 1_555
B31 B41 1.787895 1_554
B31 Se30 2.018916 1_555
B32 B53 1.771664 1_554
B32 B48 1.787895 1_554
B32 Se29 2.022985 1_555
B33 Se24 1.925311 1_555
B33 Se16 1.965787 1_555
B33 Se7 2.009744 1_555
B34 B51 1.760931 1_565
B34 B7 1.778235 1_565
B34 B45 1.785318 1_554
B34 Se6 2.017823 1_555
B35 Se12 1.957260 1_555
B35 Se37 1.960883 1_555
B35 Se20 1.973695 1_555
B36 B41 1.764942 1_555
B36 B9 1.779950 1_555
B36 B47 1.784473 1_556
B36 Se26 2.017377 1_555
B37 Se5 1.925311 1_555
B37 Se21 1.965777 1_555
B37 Se23 2.009744 1_555
B38 B48 1.771664 1_554
B38 B46 1.780264 1_555
B38 B49 1.785711 1_554
B38 Se19 2.023001 1_555
B39 B43 1.760931 1_565
B39 Se33 2.017370 1_555
B40 B47 1.758085 1_555
B40 B6 1.786834 1_555
B40 B5 1.791318 1_555
B40 Se10 2.027314 1_555
B41 B47 1.771664 1_556
B41 B9 1.780264 1_555
B41 Se44 2.022995 1_555
B42 Se31 1.946212 1_655
B42 Se15 1.961940 1_555
B42 Se8 1.977181 1_555
B43 Se1 2.017823 1_555
B44 Se32 1.957260 1_655
B44 Se13 1.960883 1_555
B44 Se45 1.973695 1_555
B45 B51 1.776356 1_566
B45 Se40 2.017370 1_555
B46 Se5 2.017377 1_555
B47 Se46 2.018932 1_555
B48 B49 1.786834 1_555
B48 Se8 2.018923 1_555
B49 Se2 2.027314 1_555
B50 Se3 1.957260 1_455
B50 Se18 1.960883 1_555
B50 Se40 1.973695 1_555
B51 B7 1.778282 1_555
B51 Se4 2.017370 1_555
B52 Se1 1.957260 1_565
B52 Se38 1.960883 1_555
B52 Se33 1.973695 1_555
B53 Se36 2.018916 1_555
