# generated using pymatgen
data_Ba6Ge5N2
_symmetry_space_group_name_H-M   'P 1'
_cell_length_a   4.20063122
_cell_length_b   9.70089511
_cell_length_c   19.01053678
_cell_angle_alpha   90.00000000
_cell_angle_beta   90.00000000
_cell_angle_gamma   90.00000000
_symmetry_Int_Tables_number   1
_chemical_formula_structural   Ba6Ge5N2
_chemical_formula_sum   'Ba12 Ge10 N4'
_cell_volume   774.67714691
_cell_formula_units_Z   2
loop_
 _symmetry_equiv_pos_site_id
 _symmetry_equiv_pos_as_xyz
  1  'x, y, z'
loop_
 _atom_site_type_symbol
 _atom_site_label
 _atom_site_symmetry_multiplicity
 _atom_site_fract_x
 _atom_site_fract_y
 _atom_site_fract_z
 _atom_site_occupancy
  Ba  Ba0  1  0.50000000  0.75466916  0.50000000  1
  Ba  Ba1  1  -0.00000000  0.24533084  -0.00000000  1
  Ba  Ba2  1  0.50000000  0.11163209  0.68344358  1
  Ba  Ba3  1  0.50000000  0.53557760  0.13984131  1
  Ba  Ba4  1  0.00000000  0.46442240  0.63984131  1
  Ba  Ba5  1  0.00000000  0.46442240  0.36015869  1
  Ba  Ba6  1  0.50000000  0.53557760  0.86015869  1
  Ba  Ba7  1  0.50000000  0.84465947  -0.00000000  1
  Ba  Ba8  1  0.50000000  0.11163209  0.31655642  1
  Ba  Ba9  1  0.00000000  0.88836791  0.81655642  1
  Ba  Ba10  1  -0.00000000  0.88836791  0.18344358  1
  Ba  Ba11  1  0.00000000  0.15534053  0.50000000  1
  Ge  Ge0  1  0.50000000  0.74027197  0.30736646  1
  Ge  Ge1  1  0.00000000  0.84538456  0.36740642  1
  Ge  Ge2  1  0.00000000  0.25972803  0.19263354  1
  Ge  Ge3  1  0.50000000  0.15461544  0.13259358  1
  Ge  Ge4  1  -0.00000000  0.84538456  0.63259358  1
  Ge  Ge5  1  0.50000000  0.74027197  0.69263354  1
  Ge  Ge6  1  -0.00000000  0.25972803  0.80736646  1
  Ge  Ge7  1  -0.00000000  0.59014893  -0.00000000  1
  Ge  Ge8  1  0.50000000  0.15461544  0.86740642  1
  Ge  Ge9  1  0.50000000  0.40985107  0.50000000  1
  N  N0  1  0.50000000  0.29265523  0.42011934  1
  N  N1  1  0.50000000  0.29265523  0.57988066  1
  N  N2  1  0.00000000  0.70734477  0.92011934  1
  N  N3  1  0.00000000  0.70734477  0.07988066  1
loop_
_geom_bond_atom_site_label_1
_geom_bond_atom_site_label_2
_geom_bond_distance
_geom_bond_site_symmetry_2
Ba0 Ge9 3.345044 1_555
Ba0 Ge4 3.396994 1_655
Ba0 Ge4 3.396994 1_555
Ba0 Ge1 3.396994 1_655
Ba0 Ge1 3.396994 1_555
Ba0 Ge0 3.664729 1_555
Ba0 Ge5 3.664729 1_555
Ba1 Ge7 3.345044 1_555
Ba1 Ge3 3.396994 1_555
Ba1 Ge8 3.396994 1_554
Ba1 Ge3 3.396994 1_455
Ba1 Ge8 3.396994 1_454
Ba1 Ge6 3.664729 1_554
Ba1 Ge2 3.664729 1_555
Ba2 N1 2.638174 1_555
Ba2 Ge4 3.466535 1_545
Ba2 Ge4 3.466535 1_645
Ba2 Ge6 3.467753 1_555
Ba2 Ge6 3.467753 1_655
Ba2 Ge8 3.522003 1_555
Ba2 Ge5 3.606759 1_545
Ba3 N3 2.913280 1_555
Ba3 N3 2.913280 1_655
Ba3 Ge2 3.546754 1_555
Ba3 Ge2 3.546754 1_655
Ba3 Ge3 3.698242 1_555
Ba3 Ge0 3.753088 1_555
Ba4 N1 2.913280 1_555
Ba4 N1 2.913280 1_455
Ba4 Ge5 3.546754 1_555
Ba4 Ge5 3.546754 1_455
Ba4 Ge4 3.698242 1_555
Ba4 Ge6 3.753088 1_555
Ba5 N0 2.913280 1_555
Ba5 N0 2.913280 1_455
Ba5 Ge0 3.546754 1_555
Ba5 Ge0 3.546754 1_455
Ba5 Ge1 3.698242 1_555
Ba5 Ge2 3.753088 1_555
Ba6 N2 2.913280 1_555
Ba6 N2 2.913280 1_655
Ba6 Ge6 3.546754 1_555
Ba6 Ge6 3.546754 1_655
Ba6 Ge8 3.698242 1_555
Ba6 Ge5 3.753088 1_555
Ba7 N3 2.914072 1_555
Ba7 N3 2.914072 1_655
Ba7 N2 2.914072 1_554
Ba7 N2 2.914072 1_654
Ba7 Ge8 3.923640 1_564
Ba7 Ge3 3.923640 1_565
Ba8 N0 2.638174 1_555
Ba8 Ge1 3.466535 1_645
Ba8 Ge1 3.466535 1_545
Ba8 Ge2 3.467753 1_555
Ba8 Ge2 3.467753 1_655
Ba8 Ge3 3.522003 1_555
Ba8 Ge0 3.606759 1_545
Ba9 N2 2.638174 1_555
Ba9 Ge8 3.466535 1_565
Ba9 Ge8 3.466535 1_465
Ba9 Ge5 3.467753 1_555
Ba9 Ge5 3.467753 1_455
Ba9 Ge4 3.522003 1_555
Ba9 Ge6 3.606759 1_565
Ba10 N3 2.638174 1_555
Ba10 Ge3 3.466535 1_565
Ba10 Ge3 3.466535 1_465
Ba10 Ge0 3.467753 1_555
Ba10 Ge0 3.467753 1_455
Ba10 Ge1 3.522003 1_555
Ba10 Ge2 3.606759 1_565
Ba11 N0 2.914072 1_455
Ba11 N0 2.914072 1_555
Ba11 N1 2.914072 1_555
Ba11 N1 2.914072 1_455
Ba11 Ge4 3.923640 1_545
Ba11 Ge1 3.923640 1_545
Ge0 Ge1 2.598819 1_555
Ge0 Ge1 2.598819 1_655
Ge2 Ge3 2.598819 1_555
Ge2 Ge3 2.598819 1_455
Ge4 Ge5 2.598819 1_455
Ge4 Ge5 2.598819 1_555
Ge6 Ge8 2.598819 1_555
Ge6 Ge8 2.598819 1_455
Ge7 N3 1.897003 1_555
Ge7 N2 1.897003 1_554
Ge9 N0 1.897003 1_555
Ge9 N1 1.897003 1_555
