# generated using pymatgen
data_Yb(SbTe2)2
_symmetry_space_group_name_H-M   'P 1'
_cell_length_a   8.34280237
_cell_length_b   8.34280237
_cell_length_c   8.34280237
_cell_angle_alpha   108.53551264
_cell_angle_beta   108.53551264
_cell_angle_gamma   111.35929543
_symmetry_Int_Tables_number   1
_chemical_formula_structural   Yb(SbTe2)2
_chemical_formula_sum   'Yb2 Sb4 Te8'
_cell_volume   446.64124192
_cell_formula_units_Z   2
loop_
 _symmetry_equiv_pos_site_id
 _symmetry_equiv_pos_as_xyz
  1  'x, y, z'
loop_
 _atom_site_type_symbol
 _atom_site_label
 _atom_site_symmetry_multiplicity
 _atom_site_fract_x
 _atom_site_fract_y
 _atom_site_fract_z
 _atom_site_occupancy
  Yb  Yb0  1  0.25000000  0.75000000  0.50000000  1
  Yb  Yb1  1  0.00000000  0.00000000  0.00000000  1
  Sb  Sb0  1  0.59991405  0.87500000  0.22491405  1
  Sb  Sb1  1  0.65008595  0.37500000  0.77508595  1
  Sb  Sb2  1  0.12500000  0.34991405  0.72491405  1
  Sb  Sb3  1  0.62500000  0.40008595  0.27508595  1
  Te  Te0  1  0.95731349  0.63620318  0.70588025  1
  Te  Te1  1  0.50143325  0.68032294  0.79411975  1
  Te  Te2  1  0.31967706  0.11379682  0.82111031  1
  Te  Te3  1  0.88620318  0.70731349  0.20588025  1
  Te  Te4  1  0.74856675  0.04268651  0.67888969  1
  Te  Te5  1  0.93032294  0.25143325  0.29411975  1
  Te  Te6  1  0.36379682  0.06967706  0.32110931  1
  Te  Te7  1  0.29268651  0.49856675  0.17888969  1
loop_
_geom_bond_atom_site_label_1
_geom_bond_atom_site_label_2
_geom_bond_distance
_geom_bond_site_symmetry_2
Sb0 Te5 3.053517 1_565
Sb0 Te7 3.053517 1_555
Sb0 Te6 3.109549 1_565
Sb0 Te1 3.109552 1_554
Sb0 Te4 3.197018 1_565
Sb0 Te3 3.197018 1_555
Sb1 Te0 3.053517 1_555
Sb1 Te2 3.053517 1_555
Sb1 Te3 3.109552 1_556
Sb1 Te4 3.109552 1_555
Sb1 Te1 3.197018 1_555
Sb1 Te6 3.197024 1_555
Sb2 Te1 3.053517 1_555
Sb2 Te4 3.053517 1_455
Sb2 Te2 3.109552 1_555
Sb2 Te5 3.109552 1_455
Sb2 Te7 3.197018 1_556
Sb2 Te0 3.197018 1_455
Sb3 Te6 3.053512 1_555
Sb3 Te3 3.053517 1_555
Sb3 Te0 3.109552 1_555
Sb3 Te7 3.109552 1_555
Sb3 Te5 3.197018 1_555
Sb3 Te2 3.197018 1_554
Te0 Yb1 3.046593 1_666
Te0 Yb0 3.439289 1_655
Te1 Yb0 3.046593 1_555
Te1 Yb1 3.439289 1_666
Te2 Yb0 3.046593 1_545
Te2 Yb1 3.439289 1_556
Te3 Yb0 3.046593 1_655
Te3 Yb1 3.439289 1_665
Te4 Yb1 3.046593 1_656
Te4 Yb0 3.439289 1_545
Te5 Yb1 3.046593 1_655
Te5 Yb0 3.439289 1_655
Te6 Yb1 3.046588 1_555
Te6 Yb0 3.439295 1_545
Te7 Yb0 3.046593 1_555
Te7 Yb1 3.439289 1_555
