# generated using pymatgen
data_Ag4AuS2
_symmetry_space_group_name_H-M   'P 1'
_cell_length_a   3.97501200
_cell_length_b   5.17080000
_cell_length_c   6.89667975
_cell_angle_alpha   86.24372615
_cell_angle_beta   90.00000000
_cell_angle_gamma   90.00000000
_symmetry_Int_Tables_number   1
_chemical_formula_structural   Ag4AuS2
_chemical_formula_sum   'Ag4 Au1 S2'
_cell_volume   141.44977794
_cell_formula_units_Z   1
loop_
 _symmetry_equiv_pos_site_id
 _symmetry_equiv_pos_as_xyz
  1  'x, y, z'
loop_
 _atom_site_type_symbol
 _atom_site_label
 _atom_site_symmetry_multiplicity
 _atom_site_fract_x
 _atom_site_fract_y
 _atom_site_fract_z
 _atom_site_occupancy
  Ag  Ag0  1  0.50000000  0.29210900  0.86690000  1
  Ag  Ag1  1  0.00000000  0.69678600  0.72973000  1
  Ag  Ag2  1  0.00000000  0.30321400  0.27027000  1
  Ag  Ag3  1  0.50000000  0.70789100  0.13310000  1
  Au  Au0  1  0.50000000  0.00000000  0.50000000  1
  S  S0  1  0.50000000  0.50000000  0.50000000  1
  S  S1  1  0.00000000  0.00000000  0.00000000  1
loop_
_geom_bond_atom_site_label_1
_geom_bond_atom_site_label_2
_geom_bond_distance
_geom_bond_site_symmetry_2
Ag0 S1 2.625369 1_556
Ag0 S1 2.625369 1_656
Ag0 S0 2.683660 1_555
Ag0 Au0 3.030690 1_555
Ag1 S1 2.513058 1_566
Ag1 S0 2.776157 1_555
Ag1 S0 2.776157 1_455
Ag1 Au0 2.931404 1_565
Ag1 Au0 2.931404 1_465
Ag2 S1 2.513058 1_555
Ag2 S0 2.776157 1_455
Ag2 S0 2.776157 1_555
Ag2 Au0 2.931404 1_455
Ag2 Au0 2.931404 1_555
Ag3 S1 2.625369 1_665
Ag3 S1 2.625369 1_565
Ag3 S0 2.683660 1_555
Ag3 Au0 3.030690 1_565
Au0 S0 2.585400 1_545
Au0 S0 2.585400 1_555
