# generated using pymatgen
data_Sr9NdFe5(MoO6)5
_symmetry_space_group_name_H-M   'P 1'
_cell_length_a   5.63749500
_cell_length_b   9.79783622
_cell_length_c   12.74655048
_cell_angle_alpha   74.84030769
_cell_angle_beta   77.28271922
_cell_angle_gamma   73.31290808
_symmetry_Int_Tables_number   1
_chemical_formula_structural   Sr9NdFe5(MoO6)5
_chemical_formula_sum   'Sr9 Nd1 Fe5 Mo5 O30'
_cell_volume   642.87935635
_cell_formula_units_Z   1
loop_
 _symmetry_equiv_pos_site_id
 _symmetry_equiv_pos_as_xyz
  1  'x, y, z'
loop_
 _atom_site_type_symbol
 _atom_site_label
 _atom_site_symmetry_multiplicity
 _atom_site_fract_x
 _atom_site_fract_y
 _atom_site_fract_z
 _atom_site_occupancy
  Sr  Sr0  1  0.39666400  0.06242400  0.14592500  1
  Sr  Sr1  1  0.60107500  0.44742100  0.34981900  1
  Sr  Sr2  1  0.80071300  0.84949100  0.55252700  1
  Sr  Sr3  1  0.99426300  0.25601600  0.75326200  1
  Sr  Sr4  1  0.21111900  0.63302200  0.94860200  1
  Sr  Sr5  1  0.79853100  0.34934500  0.04673000  1
  Sr  Sr6  1  0.00317100  0.74877500  0.24888600  1
  Sr  Sr7  1  0.19935200  0.15222900  0.45161100  1
  Sr  Sr8  1  0.59790600  0.95914900  0.84394200  1
  Nd  Nd0  1  0.40827300  0.52936100  0.66625800  1
  Fe  Fe0  1  0.20190000  0.40142500  0.19760200  1
  Fe  Fe1  1  0.39810100  0.79761500  0.40076800  1
  Fe  Fe2  1  0.60125500  0.19916100  0.60216000  1
  Fe  Fe3  1  0.80078200  0.59802200  0.79981700  1
  Fe  Fe4  1  0.39877800  0.30146900  0.90094400  1
  Mo  Mo0  1  0.00220100  0.99996100  0.99777400  1
  Mo  Mo1  1  0.60231200  0.69704500  0.10067000  1
  Mo  Mo2  1  0.79770400  0.10043200  0.30365400  1
  Mo  Mo3  1  0.99958800  0.50216700  0.49901600  1
  Mo  Mo4  1  0.20025700  0.89817700  0.69698600  1
  O  O0  1  0.29404600  0.34975800  0.05105600  1
  O  O1  1  0.50371900  0.74842900  0.24679300  1
  O  O2  1  0.69509400  0.15480400  0.45129200  1
  O  O3  1  0.89833400  0.55198300  0.64859400  1
  O  O4  1  0.11046100  0.94207500  0.84350400  1
  O  O5  1  0.35463800  0.57426700  0.14332800  1
  O  O6  1  0.56698400  0.97199900  0.34585100  1
  O  O7  1  0.73621800  0.38450900  0.54459000  1
  O  O8  1  0.94630600  0.77559100  0.74083600  1
  O  O9  1  0.15820800  0.16916800  0.93991800  1
  O  O10  1  0.33426200  0.87415900  0.04279000  1
  O  O11  1  0.52590800  0.26979700  0.24569800  1
  O  O12  1  0.74588200  0.67222200  0.43982700  1
  O  O13  1  0.13304300  0.47510900  0.83537600  1
  O  O14  1  0.93423800  0.07576500  0.64173100  1
  O  O15  1  0.89952700  0.05070200  0.15262600  1
  O  O16  1  0.09473700  0.45268400  0.34924400  1
  O  O17  1  0.30423700  0.85091300  0.55300400  1
  O  O18  1  0.49368500  0.26393800  0.74362600  1
  O  O19  1  0.69469000  0.65245200  0.95468800  1
  O  O20  1  0.86532300  0.52617100  0.15861900  1
  O  O21  1  0.07290100  0.92460500  0.36150400  1
  O  O22  1  0.25337200  0.33620100  0.55718700  1
  O  O23  1  0.46472300  0.71581100  0.75075800  1
  O  O24  1  0.67446000  0.12481700  0.95388700  1
  O  O25  1  0.85128700  0.82424100  0.05793700  1
  O  O26  1  0.03267200  0.22344100  0.26243900  1
  O  O27  1  0.26156400  0.62285400  0.46583900  1
  O  O28  1  0.44747700  0.02652400  0.65627700  1
  O  O29  1  0.63805900  0.43230700  0.85422900  1
loop_
_geom_bond_atom_site_label_1
_geom_bond_atom_site_label_2
_geom_bond_distance
_geom_bond_site_symmetry_2
Nd0 O13 2.395552 1_555
Nd0 O23 2.472346 1_555
Nd0 O18 2.473046 1_555
Nd0 O7 2.493858 1_555
Nd0 O27 2.705665 1_555
Nd0 O3 2.790003 1_555
Nd0 O29 2.791156 1_555
Nd0 O3 2.873521 1_455
Nd0 O22 3.022746 1_555
Nd0 O17 3.047388 1_555
Nd0 O8 3.163494 1_455
Nd0 O12 3.303077 1_555
Fe0 O0 1.982851 1_555
Fe0 O5 2.012533 1_555
Fe0 O11 2.025385 1_555
Fe0 O20 2.026502 1_455
Fe0 O16 2.042721 1_555
Fe0 O26 2.118662 1_555
Fe1 O21 1.981897 1_555
Fe1 O27 1.986290 1_555
Fe1 O17 2.058493 1_555
Fe1 O1 2.062560 1_555
Fe1 O12 2.080339 1_555
Fe1 O6 2.081094 1_555
Fe2 O18 1.979442 1_555
Fe2 O2 2.005997 1_555
Fe2 O14 2.008612 1_555
Fe2 O28 2.014208 1_555
Fe2 O7 2.065423 1_555
Fe2 O22 2.134915 1_555
Fe3 O29 1.986221 1_555
Fe3 O13 1.989261 1_655
Fe3 O3 2.016686 1_555
Fe3 O8 2.032034 1_555
Fe3 O23 2.049558 1_555
Fe3 O19 2.094442 1_555
Fe4 O0 2.012275 1_556
Fe4 O29 2.014390 1_555
Fe4 O9 2.035330 1_555
Fe4 O24 2.042687 1_555
Fe4 O13 2.044763 1_555
Fe4 O18 2.059821 1_555
Mo0 O9 1.994543 1_565
Mo0 O24 2.005573 1_465
Mo0 O10 2.032431 1_556
Mo0 O25 2.034570 1_456
Mo0 O15 2.079219 1_466
Mo0 O4 2.101677 1_555
Mo1 O19 1.947421 1_554
Mo1 O1 1.976230 1_555
Mo1 O20 1.989175 1_555
Mo1 O5 1.995129 1_555
Mo1 O25 2.032932 1_555
Mo1 O10 2.038254 1_555
Mo2 O26 1.939714 1_655
Mo2 O6 1.960231 1_545
Mo2 O2 2.006976 1_555
Mo2 O11 2.011013 1_555
Mo2 O15 2.028868 1_555
Mo2 O21 2.054950 1_645
Mo3 O22 1.934247 1_655
Mo3 O12 1.959605 1_555
Mo3 O3 2.011653 1_555
Mo3 O16 2.012768 1_655
Mo3 O7 2.030721 1_555
Mo3 O27 2.055402 1_655
Mo4 O17 1.934231 1_555
Mo4 O4 1.951413 1_555
Mo4 O8 2.022049 1_455
Mo4 O14 2.024389 1_465
Mo4 O28 2.034659 1_565
Mo4 O23 2.040775 1_555
O0 Sr4 2.693460 1_554
O0 Sr0 2.704579 1_555
O0 Sr5 2.807298 1_455
O0 Sr5 2.831260 1_555
O1 Sr6 2.815119 1_555
O1 Sr6 2.822633 1_655
O1 Sr1 2.843559 1_555
O1 Sr0 2.947633 1_565
O2 Sr1 2.768266 1_555
O2 Sr7 2.801192 1_555
O2 Sr7 2.836501 1_655
O2 Sr2 2.874829 1_545
O3 Sr2 2.794232 1_555
O3 Sr3 2.806253 1_555
O4 Sr8 2.801891 1_555
O4 Sr8 2.844848 1_455
O4 Sr4 2.917533 1_555
O4 Sr3 2.921937 1_465
O5 Sr6 2.596843 1_555
O5 Sr4 2.648799 1_554
O5 Sr1 3.051211 1_555
O5 Sr5 3.087123 1_555
O6 Sr7 2.672846 1_565
O6 Sr0 2.758436 1_565
O6 Sr2 3.013836 1_555
O6 Sr6 3.056940 1_655
O7 Sr1 2.624248 1_555
O7 Sr3 3.110694 1_555
O7 Sr7 3.168094 1_655
O8 Sr2 2.564460 1_555
O8 Sr8 2.624987 1_555
O8 Sr4 3.130767 1_655
O9 Sr3 2.587782 1_455
O9 Sr5 2.658472 1_456
O9 Sr8 2.987895 1_545
O9 Sr0 3.017709 1_556
O10 Sr0 2.664404 1_565
O10 Sr8 2.697232 1_554
O10 Sr6 3.060124 1_555
O10 Sr4 3.209007 1_554
O11 Sr1 2.617042 1_555
O11 Sr5 2.709165 1_555
O11 Sr0 2.980959 1_555
O11 Sr7 3.018960 1_555
O12 Sr6 2.589542 1_655
O12 Sr2 2.642846 1_555
O12 Sr1 3.098487 1_555
O13 Sr4 2.551315 1_555
O13 Sr3 2.969150 1_455
O13 Sr5 3.113501 1_456
O14 Sr7 2.601267 1_655
O14 Sr3 2.668843 1_555
O14 Sr8 3.015992 1_545
O14 Sr2 3.070544 1_545
O15 Sr0 2.819472 1_655
O15 Sr0 2.823397 1_555
O15 Sr6 2.832422 1_645
O15 Sr5 2.832638 1_555
O16 Sr6 2.794407 1_555
O16 Sr1 2.796629 1_455
O16 Sr7 2.837104 1_555
O16 Sr1 2.841696 1_555
O17 Sr2 2.793586 1_555
O17 Sr7 2.841490 1_565
O17 Sr2 2.843997 1_455
O18 Sr3 2.813601 1_455
O18 Sr3 2.829604 1_555
O18 Sr8 2.867762 1_545
O19 Sr4 2.805872 1_555
O19 Sr5 2.832042 1_556
O19 Sr4 2.847508 1_655
O19 Sr8 2.915330 1_555
O20 Sr1 2.613865 1_555
O20 Sr5 2.660985 1_555
O20 Sr6 3.060108 1_655
O20 Sr4 3.077525 1_654
O21 Sr2 2.625104 1_455
O21 Sr6 2.667178 1_555
O21 Sr7 3.068306 1_565
O21 Sr0 3.157875 1_565
O22 Sr7 2.630061 1_555
O22 Sr3 2.649920 1_455
O22 Sr1 3.074970 1_555
O23 Sr4 2.659007 1_555
O23 Sr2 3.045394 1_555
O23 Sr8 3.249720 1_555
O24 Sr8 2.577462 1_545
O24 Sr0 2.626306 1_556
O24 Sr3 3.004032 1_555
O24 Sr5 3.055975 1_556
O25 Sr6 2.610873 1_655
O25 Sr4 2.739651 1_654
O25 Sr0 3.152941 1_565
O25 Sr8 3.158061 1_554
O26 Sr7 2.631582 1_555
O26 Sr0 2.632452 1_555
O26 Sr1 2.999223 1_455
O26 Sr5 3.116549 1_455
O27 Sr1 2.645522 1_555
O27 Sr2 3.099660 1_455
O27 Sr6 3.201339 1_555
O28 Sr8 2.573472 1_545
O28 Sr2 2.603777 1_545
O28 Sr7 3.035804 1_555
O28 Sr3 3.142612 1_455
O29 Sr3 2.589421 1_555
O29 Sr5 2.647971 1_556
O29 Sr4 2.889938 1_555
