# generated using pymatgen
data_K2NaV5H10O19
_symmetry_space_group_name_H-M   'P 1'
_cell_length_a   8.74668500
_cell_length_b   10.51926064
_cell_length_c   11.15187941
_cell_angle_alpha   110.76314290
_cell_angle_beta   87.26420836
_cell_angle_gamma   114.35742780
_symmetry_Int_Tables_number   1
_chemical_formula_structural   K2NaV5H10O19
_chemical_formula_sum   'K4 Na2 V10 H20 O38'
_cell_volume   868.17131526
_cell_formula_units_Z   2
loop_
 _symmetry_equiv_pos_site_id
 _symmetry_equiv_pos_as_xyz
  1  'x, y, z'
loop_
 _atom_site_type_symbol
 _atom_site_label
 _atom_site_symmetry_multiplicity
 _atom_site_fract_x
 _atom_site_fract_y
 _atom_site_fract_z
 _atom_site_occupancy
  K  K0  1  0.31404800  0.21107100  0.01030300  1
  K  K1  1  0.23431800  0.82033500  0.58115200  1
  K  K2  1  0.76568200  0.17966500  0.41884800  1
  K  K3  1  0.68595200  0.78892900  0.98969700  1
  Na  Na0  1  0.42690400  0.33221900  0.37201000  1
  Na  Na1  1  0.57309600  0.66778100  0.62799000  1
  V  V0  1  0.66885200  0.21031900  0.77581700  1
  V  V1  1  0.81346100  0.49944800  0.01909100  1
  V  V2  1  0.12340900  0.78670000  0.00011100  1
  V  V3  1  0.02755900  0.20709600  0.73236600  1
  V  V4  1  0.97244100  0.79290400  0.26763400  1
  V  V5  1  0.87659100  0.21330000  0.99988900  1
  V  V6  1  0.97215000  0.49439800  0.75364400  1
  V  V7  1  0.02785000  0.50560200  0.24635600  1
  V  V8  1  0.33114800  0.78968100  0.22418300  1
  V  V9  1  0.18653900  0.50055200  0.98090900  1
  H  H0  1  0.62873800  0.23838000  0.16273600  1
  H  H1  1  0.21910600  0.48573700  0.45437400  1
  H  H2  1  0.42363100  0.45958200  0.78394300  1
  H  H3  1  0.07952800  0.22247500  0.23614500  1
  H  H4  1  0.48524600  0.07856200  0.15368100  1
  H  H5  1  0.60161300  0.46749200  0.74855300  1
  H  H6  1  0.90147000  0.92655800  0.78817700  1
  H  H7  1  0.92047200  0.77752500  0.76385500  1
  H  H8  1  0.65658400  0.92101000  0.56451100  1
  H  H9  1  0.09853000  0.07344200  0.21182300  1
  H  H10  1  0.54979200  0.81014000  0.43253600  1
  H  H11  1  0.77764500  0.56235100  0.43017100  1
  H  H12  1  0.51475400  0.92143800  0.84631900  1
  H  H13  1  0.78089400  0.51426300  0.54562600  1
  H  H14  1  0.22235500  0.43764900  0.56982900  1
  H  H15  1  0.34341600  0.07899000  0.43548900  1
  H  H16  1  0.37126200  0.76162000  0.83726400  1
  H  H17  1  0.39838700  0.53250800  0.25144700  1
  H  H18  1  0.57636900  0.54041800  0.21605700  1
  H  H19  1  0.45020800  0.18986000  0.56746400  1
  O  O0  1  0.62554200  0.36971400  0.92548200  1
  O  O1  1  0.47415800  0.10855800  0.70299900  1
  O  O2  1  0.46870500  0.47735700  0.23860600  1
  O  O3  1  0.53129500  0.52264300  0.76139400  1
  O  O4  1  0.29755300  0.48900000  0.51634800  1
  O  O5  1  0.18168700  0.61917400  0.88087100  1
  O  O6  1  0.47266500  0.81259400  0.80066000  1
  O  O7  1  0.81831300  0.38082600  0.11912900  1
  O  O8  1  0.79569200  0.11837700  0.67504100  1
  O  O9  1  0.89494800  0.90040200  0.36742800  1
  O  O10  1  0.84068600  0.11097200  0.08998400  1
  O  O11  1  0.89786000  0.62004700  0.91487500  1
  O  O12  1  0.16115800  0.18374500  0.24362800  1
  O  O13  1  0.15931400  0.88902800  0.91001600  1
  O  O14  1  0.83884200  0.81625500  0.75637200  1
  O  O15  1  0.23152300  0.36856600  0.85450500  1
  O  O16  1  0.10505200  0.09959800  0.63257200  1
  O  O17  1  0.94378700  0.64076500  0.33511700  1
  O  O18  1  0.20430800  0.88162300  0.32495900  1
  O  O19  1  0.05621300  0.35923500  0.66488300  1
  O  O20  1  0.00098100  0.59824900  0.66486100  1
  O  O21  1  0.99901900  0.40175100  0.33513900  1
  O  O22  1  0.52584200  0.89144200  0.29700100  1
  O  O23  1  0.06846100  0.62123800  0.10395900  1
  O  O24  1  0.32883000  0.86902900  0.09763200  1
  O  O25  1  0.97875000  0.12957600  0.86632700  1
  O  O26  1  0.67117000  0.13097100  0.90236800  1
  O  O27  1  0.76847700  0.63143400  0.14549500  1
  O  O28  1  0.44237900  0.17562700  0.47614100  1
  O  O29  1  0.37445800  0.63028600  0.07451800  1
  O  O30  1  0.74863800  0.36237900  0.70366500  1
  O  O31  1  0.70244700  0.51100000  0.48365200  1
  O  O32  1  0.10214000  0.37995300  0.08512500  1
  O  O33  1  0.52733500  0.18740600  0.19934000  1
  O  O34  1  0.02125000  0.87042400  0.13367300  1
  O  O35  1  0.25136200  0.63762100  0.29633500  1
  O  O36  1  0.93153900  0.37876200  0.89604100  1
  O  O37  1  0.55762100  0.82437300  0.52385900  1
loop_
_geom_bond_atom_site_label_1
_geom_bond_atom_site_label_2
_geom_bond_distance
_geom_bond_site_symmetry_2
K0 O0 2.868027 1_554
K0 O13 2.869686 1_544
K0 O2 2.881870 1_555
K0 O12 2.919328 1_555
K0 O32 2.967337 1_555
K0 O33 3.019438 1_555
K0 O25 3.051830 1_454
K0 O15 3.071072 1_554
K1 O1 2.746697 1_565
K1 O20 2.815324 1_555
K1 O37 2.855580 1_555
K2 O22 2.746697 1_545
K2 O21 2.815324 1_555
K2 O28 2.855580 1_555
K3 O29 2.868027 1_556
K3 O10 2.869686 1_566
K3 O3 2.881870 1_555
K3 O14 2.919328 1_555
K3 O11 2.967337 1_555
K3 O6 3.019438 1_555
K3 O34 3.051830 1_656
K3 O27 3.071072 1_556
Na0 O12 2.372698 1_555
Na0 O28 2.373892 1_555
Na0 O33 2.379632 1_555
Na0 O2 2.403318 1_555
Na0 O31 2.404804 1_555
Na0 O4 2.464549 1_555
Na1 O14 2.372698 1_555
Na1 O37 2.373892 1_555
Na1 O6 2.379632 1_555
Na1 O3 2.403318 1_555
Na1 O4 2.404804 1_555
Na1 O31 2.464549 1_555
H0 O33 0.984455 1_555
H1 O4 0.979112 1_555
H2 O3 0.985124 1_555
H3 O12 0.975943 1_555
H4 O33 0.981116 1_555
H5 O3 0.981008 1_555
H6 O14 0.987250 1_555
H7 O14 0.975943 1_555
H8 O37 0.986438 1_555
H9 O12 0.987250 1_555
H10 O37 0.976925 1_555
H11 O31 0.988949 1_555
H12 O6 0.981116 1_555
H13 O31 0.979112 1_555
H14 O4 0.988949 1_555
H15 O28 0.986438 1_555
H16 O6 0.984455 1_555
H17 O2 0.981008 1_555
H18 O2 0.985124 1_555
H19 O28 0.976925 1_555
O0 V1 1.719677 1_556
O0 V0 2.054261 1_555
O1 V0 1.648431 1_555
O5 V9 1.959243 1_555
O5 V6 2.009584 1_455
O5 V2 2.036758 1_556
O7 V1 1.959243 1_555
O7 V7 2.009584 1_655
O7 V5 2.036758 1_554
O8 V0 1.850581 1_555
O8 V3 1.879430 1_655
O9 V4 1.626225 1_555
O10 V5 1.650640 1_554
O11 V1 1.922505 1_556
O11 V2 2.003384 1_656
O11 V6 2.077026 1_555
O13 V2 1.650640 1_556
O15 V9 1.754869 1_555
O15 V3 2.003782 1_555
O16 V3 1.626225 1_555
O17 V7 1.826741 1_655
O17 V4 1.922364 1_555
O18 V8 1.850581 1_555
O18 V4 1.879430 1_455
O19 V6 1.826741 1_455
O19 V3 1.922364 1_555
O20 V6 1.659250 1_455
O21 V7 1.659250 1_655
O22 V8 1.648431 1_555
O23 V9 2.066992 1_554
O23 V1 2.120519 1_455
O23 V7 2.255404 1_555
O23 V2 2.299495 1_555
O23 V8 2.338353 1_555
O23 V4 2.462846 1_455
O24 V2 1.842910 1_555
O24 V8 1.881677 1_555
O25 V5 1.839731 1_555
O25 V3 1.895969 1_655
O26 V5 1.842910 1_555
O26 V0 1.881677 1_555
O27 V1 1.754869 1_555
O27 V4 2.003782 1_555
O29 V9 1.719677 1_554
O29 V8 2.054261 1_555
O30 V6 1.837661 1_555
O30 V0 1.905571 1_555
O32 V9 1.922505 1_554
O32 V5 2.003384 1_454
O32 V7 2.077026 1_555
O34 V2 1.839731 1_555
O34 V4 1.895969 1_455
O35 V7 1.837661 1_555
O35 V8 1.905571 1_555
O36 V1 2.066992 1_556
O36 V9 2.120519 1_655
O36 V6 2.255404 1_555
O36 V5 2.299495 1_555
O36 V0 2.338353 1_555
O36 V3 2.462846 1_655
