# generated using pymatgen
data_Zn3(InS3)2
_symmetry_space_group_name_H-M   'P 1'
_cell_length_a   3.90620049
_cell_length_b   3.90620049
_cell_length_c   18.78408800
_cell_angle_alpha   90.00000000
_cell_angle_beta   90.00000000
_cell_angle_gamma   120.00000833
_symmetry_Int_Tables_number   1
_chemical_formula_structural   Zn3(InS3)2
_chemical_formula_sum   'Zn3 In2 S6'
_cell_volume   248.21599853
_cell_formula_units_Z   1
loop_
 _symmetry_equiv_pos_site_id
 _symmetry_equiv_pos_as_xyz
  1  'x, y, z'
loop_
 _atom_site_type_symbol
 _atom_site_label
 _atom_site_symmetry_multiplicity
 _atom_site_fract_x
 _atom_site_fract_y
 _atom_site_fract_z
 _atom_site_occupancy
  Zn  Zn0  1  0.33333300  0.66666700  0.79773900  1
  Zn  Zn1  1  0.66666700  0.33333300  0.62630900  1
  Zn  Zn2  1  0.33333300  0.66666700  0.22437800  1
  In  In0  1  0.00000000  0.00000000  0.42161000  1
  In  In1  1  0.66666700  0.33333300  0.04797100  1
  S  S0  1  0.66666700  0.33333300  0.83499700  1
  S  S1  1  0.33333300  0.66666700  0.66079800  1
  S  S2  1  0.66666700  0.33333300  0.18143100  1
  S  S3  1  0.33333300  0.66666700  0.34398000  1
  S  S4  1  0.33333300  0.66666700  0.99310400  1
  S  S5  1  0.66666700  0.33333300  0.49208300  1
loop_
_geom_bond_atom_site_label_1
_geom_bond_atom_site_label_2
_geom_bond_distance
_geom_bond_site_symmetry_2
In0 S5 2.615051 1_455
In0 S5 2.615054 1_555
In0 S5 2.615054 1_445
In0 S3 2.685609 1_545
In0 S3 2.685612 1_555
In0 S3 2.685612 1_445
In1 S4 2.479579 1_544
In1 S4 2.479579 1_654
In1 S4 2.479586 1_554
In1 S2 2.506924 1_555
S0 Zn0 2.361339 1_545
S0 Zn0 2.361339 1_655
S0 Zn0 2.361346 1_555
S1 Zn1 2.346450 1_455
S1 Zn1 2.346450 1_565
S1 Zn1 2.346456 1_555
S1 Zn0 2.572312 1_555
S2 Zn2 2.395187 1_545
S2 Zn2 2.395187 1_655
S2 Zn2 2.395194 1_555
S3 Zn2 2.246614 1_555
S5 Zn1 2.521313 1_555
