# generated using pymatgen
data_Sc(HO)3
_symmetry_space_group_name_H-M   'P 1'
_cell_length_a   6.77590966
_cell_length_b   6.77590966
_cell_length_c   6.77590950
_cell_angle_alpha   109.31041878
_cell_angle_beta   109.31041887
_cell_angle_gamma   109.31043685
_symmetry_Int_Tables_number   1
_chemical_formula_structural   Sc(HO)3
_chemical_formula_sum   'Sc4 H12 O12'
_cell_volume   240.90162351
_cell_formula_units_Z   4
loop_
 _symmetry_equiv_pos_site_id
 _symmetry_equiv_pos_as_xyz
  1  'x, y, z'
loop_
 _atom_site_type_symbol
 _atom_site_label
 _atom_site_symmetry_multiplicity
 _atom_site_fract_x
 _atom_site_fract_y
 _atom_site_fract_z
 _atom_site_occupancy
  Sc  Sc0  1  0.00000000  -0.00000000  0.50000000  1
  Sc  Sc1  1  0.00000000  0.50000000  -0.00000000  1
  Sc  Sc2  1  0.50000000  0.50000000  0.50000000  1
  Sc  Sc3  1  0.50000000  -0.00000000  -0.00000000  1
  H  H0  1  0.73238566  0.69094639  0.04286874  1
  H  H1  1  0.26761434  0.30905361  0.95713126  1
  H  H2  1  0.37239131  0.54709928  0.82290607  1
  H  H3  1  0.62760869  0.45290072  0.17709393  1
  H  H4  1  0.54709928  0.82290607  0.37239131  1
  H  H5  1  0.45290072  0.17709393  0.62760869  1
  H  H6  1  0.69094639  0.04286874  0.73238566  1
  H  H7  1  0.30905361  0.95713126  0.26761434  1
  H  H8  1  0.17709393  0.62760869  0.45290072  1
  H  H9  1  0.82290607  0.37239131  0.54709928  1
  H  H10  1  0.95713126  0.26761434  0.30905361  1
  H  H11  1  0.04286874  0.73238566  0.69094639  1
  O  O0  1  0.85586245  0.68538060  0.16723557  1
  O  O1  1  0.14413755  0.31461940  0.83276443  1
  O  O2  1  0.50134458  0.67379173  0.82640824  1
  O  O3  1  0.49865542  0.32620827  0.17359176  1
  O  O4  1  0.67379173  0.82640824  0.50134458  1
  O  O5  1  0.32620827  0.17359176  0.49865542  1
  O  O6  1  0.68538060  0.16723557  0.85586245  1
  O  O7  1  0.31461940  0.83276443  0.14413755  1
  O  O8  1  0.17359176  0.49865542  0.32620827  1
  O  O9  1  0.82640824  0.50134458  0.67379173  1
  O  O10  1  0.83276443  0.14413755  0.31461940  1
  O  O11  1  0.16723557  0.85586245  0.68538060  1
loop_
_geom_bond_atom_site_label_1
_geom_bond_atom_site_label_2
_geom_bond_distance
_geom_bond_site_symmetry_2
H0 O0 0.993558 1_555
H1 O1 0.993558 1_555
H2 O2 0.988794 1_555
H3 O3 0.988794 1_555
H4 O4 0.988794 1_555
H5 O5 0.988794 1_555
H6 O6 0.993558 1_555
H7 O7 0.993558 1_555
H8 O8 0.988794 1_555
H9 O9 0.988794 1_555
H10 O10 0.993558 1_555
H11 O11 0.993558 1_555
O0 Sc1 2.101840 1_655
O0 Sc0 2.137767 1_665
O1 Sc1 2.101840 1_556
O1 Sc0 2.137767 1_555
O2 Sc2 2.129676 1_555
O2 Sc3 2.137804 1_566
O3 Sc2 2.129676 1_555
O3 Sc3 2.137804 1_555
O4 Sc2 2.129676 1_555
O4 Sc0 2.137803 1_665
O5 Sc2 2.129676 1_555
O5 Sc0 2.137803 1_555
O6 Sc3 2.101840 1_556
O6 Sc1 2.137766 1_656
O7 Sc3 2.101840 1_565
O7 Sc1 2.137766 1_555
O8 Sc2 2.129676 1_555
O8 Sc1 2.137804 1_555
O9 Sc2 2.129676 1_555
O9 Sc1 2.137804 1_656
O10 Sc0 2.101840 1_655
O10 Sc3 2.137767 1_555
O11 Sc0 2.101840 1_565
O11 Sc3 2.137767 1_566
