# generated using pymatgen
data_Re2Si
_symmetry_space_group_name_H-M   'P 1'
_cell_length_a   10.02759400
_cell_length_b   5.85851100
_cell_length_c   5.97292905
_cell_angle_alpha   86.11506157
_cell_angle_beta   90.00000000
_cell_angle_gamma   90.00000000
_symmetry_Int_Tables_number   1
_chemical_formula_structural   Re2Si
_chemical_formula_sum   'Re16 Si8'
_cell_volume   350.08398530
_cell_formula_units_Z   8
loop_
 _symmetry_equiv_pos_site_id
 _symmetry_equiv_pos_as_xyz
  1  'x, y, z'
loop_
 _atom_site_type_symbol
 _atom_site_label
 _atom_site_symmetry_multiplicity
 _atom_site_fract_x
 _atom_site_fract_y
 _atom_site_fract_z
 _atom_site_occupancy
  Re  Re0  1  0.06958600  0.42405200  0.80966300  1
  Re  Re1  1  0.56958600  0.57594800  0.69033700  1
  Re  Re2  1  0.16938900  0.38815200  0.40192600  1
  Re  Re3  1  0.53170200  0.88360700  0.32515100  1
  Re  Re4  1  0.69045900  0.26245700  0.41670100  1
  Re  Re5  1  0.46829800  0.11639300  0.67484900  1
  Re  Re6  1  0.43041400  0.42405200  0.30966300  1
  Re  Re7  1  0.30954100  0.73754300  0.58329900  1
  Re  Re8  1  0.80954100  0.26245700  0.91670100  1
  Re  Re9  1  0.66938900  0.61184800  0.09807400  1
  Re  Re10  1  0.96829800  0.88360700  0.82515100  1
  Re  Re11  1  0.03170200  0.11639300  0.17484900  1
  Re  Re12  1  0.19045900  0.73754300  0.08329900  1
  Re  Re13  1  0.83061100  0.61184800  0.59807400  1
  Re  Re14  1  0.93041400  0.57594800  0.19033700  1
  Re  Re15  1  0.33061100  0.38815200  0.90192600  1
  Si  Si0  1  0.29683800  0.05824000  0.26579200  1
  Si  Si1  1  0.06520300  0.78531300  0.47240000  1
  Si  Si2  1  0.93479700  0.21468700  0.52760000  1
  Si  Si3  1  0.43479700  0.78531300  0.97240000  1
  Si  Si4  1  0.79683800  0.94176000  0.23420800  1
  Si  Si5  1  0.70316200  0.94176000  0.73420800  1
  Si  Si6  1  0.20316200  0.05824000  0.76579200  1
  Si  Si7  1  0.56520300  0.21468700  0.02760000  1
loop_
_geom_bond_atom_site_label_1
_geom_bond_atom_site_label_2
_geom_bond_distance
_geom_bond_site_symmetry_2
Re0 Si2 2.539624 1_455
Re0 Si6 2.555741 1_555
Re0 Re2 2.654488 1_555
Re0 Re15 2.680164 1_555
Re0 Re11 2.760084 1_556
Re0 Re12 2.814287 1_556
Re0 Si1 2.821626 1_555
Re0 Re8 2.832436 1_455
Re0 Re14 2.860690 1_456
Re0 Re10 2.884861 1_455
Re0 Re13 2.891662 1_455
Re1 Si3 2.539624 1_555
Re1 Si5 2.555741 1_555
Re1 Re9 2.654488 1_556
Re1 Re13 2.680164 1_555
Re1 Re3 2.760084 1_555
Re1 Re4 2.814287 1_555
Re1 Si7 2.821626 1_556
Re1 Re7 2.832436 1_555
Re1 Re6 2.860690 1_555
Re1 Re5 2.884861 1_555
Re1 Re15 2.891662 1_555
Re2 Si0 2.498622 1_555
Re2 Si1 2.610602 1_555
Re2 Si2 2.650775 1_455
Re2 Re6 2.680164 1_555
Re2 Re7 2.763881 1_555
Re2 Si6 2.829241 1_555
Re3 Si3 2.424775 1_554
Re3 Si7 2.562526 1_565
Re3 Re9 2.563833 1_555
Re3 Si0 2.582607 1_565
Re3 Re5 2.648183 1_565
Re3 Si4 2.730314 1_555
Re3 Re7 2.809581 1_555
Re3 Re4 2.814951 1_565
Re3 Re6 2.884861 1_555
Re3 Si5 3.025645 1_555
Re4 Si4 2.476583 1_545
Re4 Si2 2.548542 1_555
Re4 Si5 2.580666 1_545
Re4 Si7 2.673078 1_555
Re4 Re9 2.707128 1_555
Re4 Re5 2.809581 1_555
Re4 Re6 2.832436 1_555
Re5 Si7 2.424775 1_556
Re5 Si3 2.562526 1_545
Re5 Si5 2.582607 1_545
Re5 Si6 2.730314 1_555
Re5 Re6 2.760084 1_555
Re5 Re7 2.814951 1_545
Re5 Si0 3.025645 1_555
Re6 Si7 2.539624 1_555
Re6 Si0 2.555741 1_555
Re6 Re7 2.814287 1_555
Re6 Si3 2.821626 1_554
Re6 Re9 2.891662 1_555
Re7 Si6 2.476583 1_565
Re7 Si1 2.548542 1_555
Re7 Si0 2.580666 1_565
Re7 Si3 2.673078 1_555
Re8 Si5 2.476583 1_545
Re8 Si7 2.548542 1_556
Re8 Si4 2.580666 1_546
Re8 Si2 2.673078 1_555
Re8 Re9 2.763881 1_556
Re9 Si4 2.498622 1_555
Re9 Si7 2.610602 1_555
Re9 Si3 2.650775 1_554
Re9 Si5 2.829241 1_554
Re10 Si1 2.424775 1_655
Re10 Si2 2.562526 1_565
Re10 Re13 2.563833 1_555
Re10 Si6 2.582607 1_665
Re10 Re11 2.648183 1_666
Re10 Si5 2.730314 1_555
Re10 Re14 2.760084 1_556
Re10 Re12 2.809581 1_656
Re10 Re8 2.814951 1_565
Re10 Si4 3.025645 1_556
Re11 Si2 2.424775 1_455
Re11 Si1 2.562526 1_545
Re11 Re2 2.563833 1_555
Re11 Si4 2.582607 1_445
Re11 Si0 2.730314 1_555
Re11 Re8 2.809581 1_454
Re11 Re12 2.814951 1_545
Re11 Re14 2.884861 1_455
Re11 Si6 3.025645 1_554
Re12 Si0 2.476583 1_565
Re12 Si3 2.548542 1_554
Re12 Si6 2.580666 1_564
Re12 Si1 2.673078 1_555
Re12 Re2 2.707128 1_555
Re12 Re15 2.763881 1_554
Re12 Re14 2.832436 1_455
Re13 Si5 2.498622 1_555
Re13 Si2 2.610602 1_555
Re13 Si1 2.650775 1_655
Re13 Re14 2.654488 1_555
Re13 Re8 2.707128 1_555
Re13 Re4 2.763881 1_555
Re13 Si4 2.829241 1_555
Re14 Si1 2.539624 1_655
Re14 Si4 2.555741 1_555
Re14 Re9 2.680164 1_555
Re14 Re8 2.814287 1_554
Re14 Si2 2.821626 1_555
Re14 Re2 2.891662 1_655
Re15 Si6 2.498622 1_555
Re15 Re5 2.563833 1_555
Re15 Si3 2.610602 1_555
Re15 Si7 2.650775 1_556
Re15 Re6 2.654488 1_556
Re15 Re7 2.707128 1_555
Re15 Si0 2.829241 1_556
Si0 Si3 2.814435 1_544
Si1 Si6 2.814435 1_565
Si1 Si2 2.873806 1_465
Si2 Si4 2.814435 1_545
Si3 Si7 2.873806 1_566
Si5 Si7 2.814435 1_566
