# generated using pymatgen
data_Zn3B7BrO13
_symmetry_space_group_name_H-M   'P 1'
_cell_length_a   9.45211300
_cell_length_b   9.92551200
_cell_length_c   17.85110500
_cell_angle_alpha   90.00000000
_cell_angle_beta   90.00000000
_cell_angle_gamma   90.00000000
_symmetry_Int_Tables_number   1
_chemical_formula_structural   Zn3B7BrO13
_chemical_formula_sum   'Zn12 B28 Br4 O52'
_cell_volume   1674.73820682
_cell_formula_units_Z   4
loop_
 _symmetry_equiv_pos_site_id
 _symmetry_equiv_pos_as_xyz
  1  'x, y, z'
loop_
 _atom_site_type_symbol
 _atom_site_label
 _atom_site_symmetry_multiplicity
 _atom_site_fract_x
 _atom_site_fract_y
 _atom_site_fract_z
 _atom_site_occupancy
  Zn  Zn0  1  0.68798500  0.42111100  0.28369500  1
  Zn  Zn1  1  0.97078300  0.02183700  0.54113600  1
  Zn  Zn2  1  0.47078300  0.97816300  0.54113600  1
  Zn  Zn3  1  0.02921700  0.97816300  0.04113600  1
  Zn  Zn4  1  0.56777300  0.51109000  0.58370100  1
  Zn  Zn5  1  0.31201500  0.57888900  0.78369500  1
  Zn  Zn6  1  0.18798500  0.57888900  0.28369500  1
  Zn  Zn7  1  0.81201500  0.42111100  0.78369500  1
  Zn  Zn8  1  0.06777300  0.48891000  0.58370100  1
  Zn  Zn9  1  0.93222700  0.51109000  0.08370100  1
  Zn  Zn10  1  0.43222700  0.48891000  0.08370100  1
  Zn  Zn11  1  0.52921700  0.02183700  0.04113600  1
  B  B0  1  0.77176000  0.02692300  0.72569400  1
  B  B1  1  0.47216300  0.31480500  0.80074100  1
  B  B2  1  0.52440800  0.05714200  0.77128000  1
  B  B3  1  0.16480500  0.21423700  0.54939300  1
  B  B4  1  0.30147000  0.89428500  0.59169000  1
  B  B5  1  0.92602000  0.51173100  0.90553600  1
  B  B6  1  0.46633500  0.59915800  0.22078400  1
  B  B7  1  0.66480500  0.78576300  0.54939300  1
  B  B8  1  0.42602000  0.48826900  0.90553600  1
  B  B9  1  0.72824000  0.02692300  0.22569400  1
  B  B10  1  0.97559200  0.05714200  0.27128000  1
  B  B11  1  0.03366500  0.59915800  0.72078400  1
  B  B12  1  0.52783700  0.68519500  0.30074100  1
  B  B13  1  0.19853000  0.89428500  0.09169000  1
  B  B14  1  0.47559200  0.94285800  0.27128000  1
  B  B15  1  0.33519500  0.21423700  0.04939300  1
  B  B16  1  0.83519500  0.78576300  0.04939300  1
  B  B17  1  0.22824000  0.97307700  0.22569400  1
  B  B18  1  0.02440800  0.94285800  0.77128000  1
  B  B19  1  0.02783700  0.31480500  0.30074100  1
  B  B20  1  0.96633500  0.40084200  0.22078400  1
  B  B21  1  0.57398000  0.51173100  0.40553600  1
  B  B22  1  0.53366500  0.40084200  0.72078400  1
  B  B23  1  0.80147000  0.10571500  0.59169000  1
  B  B24  1  0.27176000  0.97307700  0.72569400  1
  B  B25  1  0.97216300  0.68519500  0.80074100  1
  B  B26  1  0.07398000  0.48826900  0.40553600  1
  B  B27  1  0.69853000  0.10571500  0.09169000  1
  Br  Br0  1  0.25632100  0.74141300  0.02968500  1
  Br  Br1  1  0.74367900  0.25858700  0.52968500  1
  Br  Br2  1  0.75632100  0.25858700  0.02968500  1
  Br  Br3  1  0.24367900  0.74141300  0.52968500  1
  O  O0  1  0.93796800  0.85197800  0.40236600  1
  O  O1  1  0.23349800  0.91660300  0.65614600  1
  O  O2  1  0.05654400  0.16425000  0.97161200  1
  O  O3  1  0.58699300  0.63770500  0.36497500  1
  O  O4  1  0.66129600  0.00081700  0.77236900  1
  O  O5  1  0.50379900  0.17834100  0.80257900  1
  O  O6  1  0.17920000  0.31304900  0.59205100  1
  O  O7  1  0.41325400  0.98583000  0.74023700  1
  O  O8  1  0.32303900  0.57498000  0.21442200  1
  O  O9  1  0.43717700  0.48026500  0.97937700  1
  O  O10  1  0.08699300  0.36229500  0.36497500  1
  O  O11  1  0.32080000  0.31304900  0.09205100  1
  O  O12  1  0.85259400  0.89587200  0.01180500  1
  O  O13  1  0.07752600  0.60595800  0.36427800  1
  O  O14  1  0.73349800  0.08339700  0.65614600  1
  O  O15  1  0.57752600  0.39404200  0.36427800  1
  O  O16  1  0.67920000  0.68695100  0.59205100  1
  O  O17  1  0.94345600  0.83575000  0.47161200  1
  O  O18  1  0.08674600  0.98583000  0.24023700  1
  O  O19  1  0.56282300  0.51973500  0.47937700  1
  O  O20  1  0.92247400  0.39404200  0.86427800  1
  O  O21  1  0.91325400  0.01417000  0.74023700  1
  O  O22  1  0.06203200  0.14802200  0.90236600  1
  O  O23  1  0.91300700  0.63770500  0.86497500  1
  O  O24  1  0.58674600  0.01417000  0.24023700  1
  O  O25  1  0.67696100  0.42502000  0.71442200  1
  O  O26  1  0.44345600  0.16425000  0.47161200  1
  O  O27  1  0.42247400  0.60595800  0.86427800  1
  O  O28  1  0.00379900  0.82165900  0.80257900  1
  O  O29  1  0.76650200  0.08339700  0.15614600  1
  O  O30  1  0.99620100  0.17834100  0.30257900  1
  O  O31  1  0.17696100  0.57498000  0.71442200  1
  O  O32  1  0.54576300  0.56351400  0.16104800  1
  O  O33  1  0.41300700  0.36229500  0.86497500  1
  O  O34  1  0.56203200  0.85197800  0.90236600  1
  O  O35  1  0.55654400  0.83575000  0.97161200  1
  O  O36  1  0.83870400  0.00081700  0.27236900  1
  O  O37  1  0.45423700  0.43648600  0.66104800  1
  O  O38  1  0.06282300  0.48026500  0.47937700  1
  O  O39  1  0.43796800  0.14802200  0.40236600  1
  O  O40  1  0.04576300  0.43648600  0.16104800  1
  O  O41  1  0.95423700  0.56351400  0.66104800  1
  O  O42  1  0.26650200  0.91660300  0.15614600  1
  O  O43  1  0.33870400  0.99918300  0.27236900  1
  O  O44  1  0.16129600  0.99918300  0.77236900  1
  O  O45  1  0.14740600  0.10412800  0.51180500  1
  O  O46  1  0.82303900  0.42502000  0.21442200  1
  O  O47  1  0.64740600  0.89587200  0.51180500  1
  O  O48  1  0.82080000  0.68695100  0.09205100  1
  O  O49  1  0.35259400  0.10412800  0.01180500  1
  O  O50  1  0.93717700  0.51973500  0.97937700  1
  O  O51  1  0.49620100  0.82165900  0.30257900  1
loop_
_geom_bond_atom_site_label_1
_geom_bond_atom_site_label_2
_geom_bond_distance
_geom_bond_site_symmetry_2
B0 O4 1.360715 1_555
B0 O21 1.368249 1_555
B0 O14 1.409375 1_555
B1 O33 1.360012 1_555
B1 O5 1.387478 1_555
B2 O5 1.340610 1_555
B2 O7 1.382722 1_545
B2 O4 1.409627 1_555
B3 O6 1.249109 1_555
B3 O45 1.292933 1_555
B4 O1 1.336321 1_555
B4 Br3 1.955970 1_555
B4 Zn2 2.017098 1_555
B5 O50 1.324739 1_555
B5 O20 1.381329 1_555
B5 O23 1.450097 1_555
B6 O32 1.351265 1_555
B6 O8 1.380226 1_555
B7 O16 1.249109 1_555
B7 O47 1.292933 1_555
B8 O9 1.324739 1_555
B8 O27 1.381329 1_555
B8 O33 1.450097 1_555
B9 O36 1.360715 1_555
B9 O24 1.368249 1_555
B9 O29 1.409375 1_555
B10 O30 1.340610 1_555
B10 O18 1.382722 1_645
B10 O36 1.409627 1_555
B11 O41 1.351265 1_455
B11 O31 1.380226 1_555
B12 O3 1.360012 1_555
B12 O51 1.387478 1_555
B13 O42 1.336321 1_555
B13 Br0 1.955970 1_555
B13 Zn3 2.017098 1_555
B14 O51 1.340610 1_555
B14 O24 1.382722 1_565
B14 O43 1.409627 1_555
B15 O11 1.249109 1_555
B15 O49 1.292933 1_555
B16 O48 1.249109 1_555
B16 O12 1.292933 1_555
B17 O43 1.360715 1_555
B17 O18 1.368249 1_555
B17 O42 1.409375 1_555
B18 O28 1.340610 1_555
B18 O21 1.382722 1_465
B18 O44 1.409627 1_555
B19 O10 1.360012 1_555
B19 O30 1.387478 1_455
B20 O40 1.351265 1_655
B20 O46 1.380226 1_555
B21 O19 1.324739 1_555
B21 O15 1.381329 1_555
B21 O3 1.450097 1_555
B22 O37 1.351265 1_555
B22 O25 1.380226 1_555
B23 O14 1.336321 1_555
B23 Br1 1.955970 1_555
B23 Zn1 2.017098 1_555
B24 O44 1.360715 1_555
B24 O7 1.368249 1_555
B24 O1 1.409375 1_555
B25 O23 1.360012 1_555
B25 O28 1.387478 1_655
B26 O38 1.324739 1_555
B26 O13 1.381329 1_555
B26 O10 1.450097 1_555
B27 O29 1.336321 1_555
B27 Br2 1.955970 1_555
B27 Zn11 2.017098 1_555
O0 O17 1.247646 1_555
O2 O22 1.247646 1_555
O2 Zn3 2.240187 1_546
O6 Zn8 2.044089 1_555
O8 Zn6 1.777710 1_555
O9 Zn10 1.864861 1_556
O11 Zn10 2.044089 1_555
O12 Zn3 1.930900 1_655
O13 Zn6 1.797648 1_555
O15 Zn0 1.797648 1_555
O16 Zn4 2.044089 1_555
O17 Zn1 2.240187 1_565
O19 Zn4 1.864861 1_555
O20 Zn7 1.797648 1_555
O25 Zn7 1.777710 1_555
O26 O39 1.247646 1_555
O26 Zn2 2.240187 1_545
O27 Zn5 1.797648 1_555
O31 Zn5 1.777710 1_555
O32 Zn10 1.899050 1_555
O34 O35 1.247646 1_555
O35 Zn11 2.240187 1_566
O37 Zn4 1.899050 1_555
O38 Zn8 1.864861 1_555
O40 Zn9 1.899050 1_455
O41 Zn8 1.899050 1_655
O45 Zn1 1.930900 1_455
O46 Zn0 1.777710 1_555
O47 Zn2 1.930900 1_555
O48 Zn9 2.044089 1_555
O49 Zn11 1.930900 1_555
O50 Zn9 1.864861 1_556
