# generated using pymatgen
data_TaAsPCl13
_symmetry_space_group_name_H-M   'P 1'
_cell_length_a   9.68270859
_cell_length_b   9.68270859
_cell_length_c   12.08862500
_cell_angle_alpha   90.00000000
_cell_angle_beta   90.00000000
_cell_angle_gamma   114.93167159
_symmetry_Int_Tables_number   1
_chemical_formula_structural   TaAsPCl13
_chemical_formula_sum   'Ta2 As2 P2 Cl26'
_cell_volume   1027.74997420
_cell_formula_units_Z   2
loop_
 _symmetry_equiv_pos_site_id
 _symmetry_equiv_pos_as_xyz
  1  'x, y, z'
loop_
 _atom_site_type_symbol
 _atom_site_label
 _atom_site_symmetry_multiplicity
 _atom_site_fract_x
 _atom_site_fract_y
 _atom_site_fract_z
 _atom_site_occupancy
  Ta  Ta0  1  0.79589000  0.20411000  0.99753000  1
  Ta  Ta1  1  0.20411000  0.79589000  0.49753000  1
  As  As0  1  0.54597200  0.45402800  0.84613700  1
  As  As1  1  0.45402800  0.54597200  0.34613700  1
  P  P0  1  0.14236300  0.85763700  0.03332300  1
  P  P1  1  0.85763700  0.14236300  0.53332300  1
  Cl  Cl0  1  0.24215500  0.06516100  0.09216400  1
  Cl  Cl1  1  0.32355600  0.67644400  0.60883300  1
  Cl  Cl2  1  0.70280600  0.62292200  0.36649900  1
  Cl  Cl3  1  0.55313300  0.44686700  0.66253600  1
  Cl  Cl4  1  0.01525400  0.30672700  0.11063800  1
  Cl  Cl5  1  0.93483900  0.75784500  0.09216400  1
  Cl  Cl6  1  0.25704000  0.74296000  0.08172600  1
  Cl  Cl7  1  0.98474600  0.69327300  0.61063800  1
  Cl  Cl8  1  0.06516100  0.24215500  0.59216400  1
  Cl  Cl9  1  0.89815300  0.42409700  0.88150100  1
  Cl  Cl10  1  0.69327300  0.98474600  0.11063800  1
  Cl  Cl11  1  0.42409700  0.89815300  0.38150100  1
  Cl  Cl12  1  0.37707800  0.29719400  0.36649900  1
  Cl  Cl13  1  0.86100100  0.13899900  0.37191900  1
  Cl  Cl14  1  0.29719400  0.37707800  0.86649900  1
  Cl  Cl15  1  0.13899900  0.86100100  0.87191900  1
  Cl  Cl16  1  0.62292200  0.70280600  0.86649900  1
  Cl  Cl17  1  0.75784500  0.93483900  0.59216400  1
  Cl  Cl18  1  0.08545600  0.91454400  0.38269300  1
  Cl  Cl19  1  0.91454400  0.08545600  0.88269300  1
  Cl  Cl20  1  0.44686700  0.55313300  0.16253600  1
  Cl  Cl21  1  0.30672700  0.01525400  0.61063800  1
  Cl  Cl22  1  0.57590300  0.10184700  0.88150100  1
  Cl  Cl23  1  0.74296000  0.25704000  0.58172600  1
  Cl  Cl24  1  0.67644400  0.32355600  0.10883300  1
  Cl  Cl25  1  0.10184700  0.57590300  0.38150100  1
loop_
_geom_bond_atom_site_label_1
_geom_bond_atom_site_label_2
_geom_bond_distance
_geom_bond_site_symmetry_2
As0 Cl14 2.214753 1_555
As0 Cl16 2.214753 1_555
As0 Cl3 2.222561 1_555
As1 Cl12 2.214753 1_555
As1 Cl2 2.214753 1_555
As1 Cl20 2.222561 1_555
Cl0 P0 1.959686 1_545
Cl1 Ta1 2.369253 1_555
Cl4 Ta0 2.364124 1_454
Cl5 P0 1.959686 1_655
Cl6 P0 1.961568 1_555
Cl7 Ta1 2.364124 1_655
Cl8 P1 1.959686 1_455
Cl9 Ta0 2.388903 1_555
Cl10 Ta0 2.364124 1_564
Cl11 Ta1 2.388903 1_555
Cl13 P1 1.951925 1_555
Cl15 P0 1.951925 1_556
Cl17 P1 1.959686 1_565
Cl18 Ta1 2.383251 1_555
Cl19 Ta0 2.383251 1_555
Cl21 Ta1 2.364124 1_545
Cl22 Ta0 2.388903 1_555
Cl23 P1 1.961568 1_555
Cl24 Ta0 2.369253 1_554
Cl25 Ta1 2.388903 1_555
