# generated using pymatgen
data_Cr(PO4)2
_symmetry_space_group_name_H-M   'P 1'
_cell_length_a   8.94664000
_cell_length_b   4.77606600
_cell_length_c   14.34762797
_cell_angle_alpha   86.06162190
_cell_angle_beta   90.00000000
_cell_angle_gamma   90.00000000
_symmetry_Int_Tables_number   1
_chemical_formula_structural   Cr(PO4)2
_chemical_formula_sum   'Cr4 P8 O32'
_cell_volume   611.62268964
_cell_formula_units_Z   4
loop_
 _symmetry_equiv_pos_site_id
 _symmetry_equiv_pos_as_xyz
  1  'x, y, z'
loop_
 _atom_site_type_symbol
 _atom_site_label
 _atom_site_symmetry_multiplicity
 _atom_site_fract_x
 _atom_site_fract_y
 _atom_site_fract_z
 _atom_site_occupancy
  Cr  Cr0  1  0.93286100  0.36175100  0.84425000  1
  Cr  Cr1  1  0.06713900  0.63824900  0.15575000  1
  Cr  Cr2  1  0.43286100  0.63824900  0.65575000  1
  Cr  Cr3  1  0.56713900  0.36175100  0.34425000  1
  P  P0  1  0.60011500  0.15129300  0.76526600  1
  P  P1  1  0.10011500  0.84870700  0.73473400  1
  P  P2  1  0.77822300  0.86601500  0.42780500  1
  P  P3  1  0.39988500  0.84870700  0.23473400  1
  P  P4  1  0.27822300  0.13398500  0.07219500  1
  P  P5  1  0.72177700  0.86601500  0.92780500  1
  P  P6  1  0.89988500  0.15129300  0.26526600  1
  P  P7  1  0.22177700  0.13398500  0.57219500  1
  O  O0  1  0.66600400  0.73865900  0.02108300  1
  O  O1  1  0.78174500  0.63510800  0.86722900  1
  O  O2  1  0.45469200  0.04796000  0.30641600  1
  O  O3  1  0.95469200  0.95204000  0.19358400  1
  O  O4  1  0.73569000  0.22632000  0.25061000  1
  O  O5  1  0.76431000  0.22632000  0.75061000  1
  O  O6  1  0.04530800  0.04796000  0.80641600  1
  O  O7  1  0.55335100  0.52582600  0.58588300  1
  O  O8  1  0.28174500  0.36489200  0.63277100  1
  O  O9  1  0.83603000  0.10266300  0.93721800  1
  O  O10  1  0.58118800  0.99812700  0.86861900  1
  O  O11  1  0.21825500  0.36489200  0.13277100  1
  O  O12  1  0.41881200  0.00187300  0.13138100  1
  O  O13  1  0.33603000  0.89733700  0.56278200  1
  O  O14  1  0.83399600  0.73865900  0.52108300  1
  O  O15  1  0.08118800  0.00187300  0.63138100  1
  O  O16  1  0.66397000  0.10266300  0.43721800  1
  O  O17  1  0.00273200  0.41198000  0.26559300  1
  O  O18  1  0.50273200  0.58802000  0.23440700  1
  O  O19  1  0.99726800  0.58802000  0.73440700  1
  O  O20  1  0.54530800  0.95204000  0.69358400  1
  O  O21  1  0.26431000  0.77368000  0.74939000  1
  O  O22  1  0.16600400  0.26134100  0.47891700  1
  O  O23  1  0.71825500  0.63510800  0.36722900  1
  O  O24  1  0.94664900  0.52582600  0.08588300  1
  O  O25  1  0.33399600  0.26134100  0.97891700  1
  O  O26  1  0.91881200  0.99812700  0.36861900  1
  O  O27  1  0.16397000  0.89733700  0.06278200  1
  O  O28  1  0.23569000  0.77368000  0.24939000  1
  O  O29  1  0.05335100  0.47417400  0.91411700  1
  O  O30  1  0.44664900  0.47417400  0.41411700  1
  O  O31  1  0.49726800  0.41198000  0.76559300  1
loop_
_geom_bond_atom_site_label_1
_geom_bond_atom_site_label_2
_geom_bond_distance
_geom_bond_site_symmetry_2
Cr0 O29 1.590327 1_655
Cr0 O6 1.914303 1_655
Cr0 O1 1.923589 1_555
Cr0 O19 1.936408 1_555
Cr0 O9 1.958108 1_555
Cr0 O5 2.148661 1_555
Cr1 O24 1.590327 1_455
Cr1 O3 1.914303 1_455
Cr1 O11 1.923589 1_555
Cr1 O17 1.936408 1_555
Cr1 O27 1.958108 1_555
Cr1 O28 2.148661 1_555
Cr2 O7 1.590327 1_555
Cr2 O20 1.914303 1_555
Cr2 O8 1.923589 1_555
Cr2 O31 1.936408 1_555
Cr2 O13 1.958108 1_555
Cr2 O21 2.148661 1_555
Cr3 O30 1.590327 1_555
Cr3 O2 1.914303 1_555
Cr3 O23 1.923589 1_555
Cr3 O18 1.936408 1_555
Cr3 O16 1.958108 1_555
Cr3 O4 2.148661 1_555
O0 P5 1.515993 1_554
O1 P5 1.546322 1_555
O2 P3 1.529134 1_545
O3 P6 1.529134 1_565
O4 P6 1.523224 1_555
O5 P0 1.523224 1_555
O6 P1 1.529134 1_545
O8 P7 1.546322 1_555
O9 P5 1.536723 1_545
O10 P0 1.616696 1_565
O10 P5 1.621015 1_555
O11 P4 1.546322 1_555
O12 P3 1.616696 1_545
O12 P4 1.621015 1_555
O13 P7 1.536723 1_565
O14 P2 1.515993 1_555
O15 P1 1.616696 1_545
O15 P7 1.621015 1_555
O16 P2 1.536723 1_545
O17 P6 1.548433 1_455
O18 P3 1.548433 1_555
O19 P1 1.548433 1_655
O20 P0 1.529134 1_565
O21 P1 1.523224 1_555
O22 P7 1.515993 1_555
O23 P2 1.546322 1_555
O25 P4 1.515993 1_556
O26 P6 1.616696 1_565
O26 P2 1.621015 1_555
O27 P4 1.536723 1_565
O28 P3 1.523224 1_555
O31 P0 1.548433 1_555
