# generated using pymatgen
data_NaSm2Cl6
_symmetry_space_group_name_H-M   'P 1'
_cell_length_a   13.89386161
_cell_length_b   13.89386161
_cell_length_c   3.81237600
_cell_angle_alpha   90.00000000
_cell_angle_beta   90.00000000
_cell_angle_gamma   119.99999815
_symmetry_Int_Tables_number   1
_chemical_formula_structural   NaSm2Cl6
_chemical_formula_sum   'Na3 Sm6 Cl18'
_cell_volume   637.34165576
_cell_formula_units_Z   3
loop_
 _symmetry_equiv_pos_site_id
 _symmetry_equiv_pos_as_xyz
  1  'x, y, z'
loop_
 _atom_site_type_symbol
 _atom_site_label
 _atom_site_symmetry_multiplicity
 _atom_site_fract_x
 _atom_site_fract_y
 _atom_site_fract_z
 _atom_site_occupancy
  Na  Na0  1  0.00000000  0.00000000  0.75171600  1
  Na  Na1  1  0.66666700  0.33333300  0.00557300  1
  Na  Na2  1  0.33333300  0.66666700  0.50087200  1
  Sm  Sm0  1  0.00104800  0.67012800  0.74972600  1
  Sm  Sm1  1  0.33645900  0.99956700  0.24956000  1
  Sm  Sm2  1  0.66908000  0.99895200  0.74972600  1
  Sm  Sm3  1  0.00043300  0.33689200  0.24956000  1
  Sm  Sm4  1  0.32987200  0.33092000  0.74972600  1
  Sm  Sm5  1  0.66310800  0.66354100  0.24956000  1
  Cl  Cl0  1  0.43913800  0.26565600  0.24943500  1
  Cl  Cl1  1  0.59561600  0.49092400  0.75024100  1
  Cl  Cl2  1  0.82651800  0.56086200  0.24943500  1
  Cl  Cl3  1  0.83693000  0.76480600  0.74924000  1
  Cl  Cl4  1  0.06643800  0.84523200  0.24953000  1
  Cl  Cl5  1  0.10494600  0.59592300  0.25075300  1
  Cl  Cl6  1  0.23519400  0.07212400  0.74924000  1
  Cl  Cl7  1  0.25847300  0.82406200  0.74879500  1
  Cl  Cl8  1  0.49097800  0.89505400  0.25075300  1
  Cl  Cl9  1  0.50907600  0.10469100  0.75024100  1
  Cl  Cl10  1  0.73434400  0.17348200  0.24943500  1
  Cl  Cl11  1  0.77879400  0.93356200  0.24953000  1
  Cl  Cl12  1  0.89530900  0.40438400  0.75024100  1
  Cl  Cl13  1  0.92787600  0.16307000  0.74924000  1
  Cl  Cl14  1  0.15476800  0.22120600  0.24953000  1
  Cl  Cl15  1  0.17593800  0.43441100  0.74879500  1
  Cl  Cl16  1  0.40407700  0.50902200  0.25075300  1
  Cl  Cl17  1  0.56558900  0.74152700  0.74879500  1
loop_
_geom_bond_atom_site_label_1
_geom_bond_atom_site_label_2
_geom_bond_distance
_geom_bond_site_symmetry_2
Cl0 Sm4 2.851816 1_554
Cl0 Sm4 2.853298 1_555
Cl0 Na1 2.961337 1_555
Cl0 Sm1 3.229377 1_545
Cl1 Sm5 2.829479 1_556
Cl1 Sm5 2.832975 1_555
Cl1 Na1 2.979537 1_556
Cl1 Sm4 3.219693 1_555
Cl2 Sm0 2.851816 1_654
Cl2 Sm0 2.853299 1_655
Cl2 Na1 2.961334 1_555
Cl2 Sm5 3.229376 1_555
Cl3 Sm5 2.836029 1_555
Cl3 Sm5 2.837668 1_556
Cl3 Na0 2.899640 1_665
Cl3 Sm0 3.151091 1_655
Cl4 Sm0 2.857387 1_554
Cl4 Sm0 2.858384 1_555
Cl4 Sm1 3.260086 1_555
Cl4 Na0 3.326071 1_564
Cl4 Na0 3.335610 1_565
Cl5 Sm0 2.872925 1_555
Cl5 Sm0 2.878116 1_554
Cl5 Na2 2.970770 1_555
Cl5 Sm3 3.136077 1_555
Cl6 Sm1 2.836029 1_545
Cl6 Sm1 2.837668 1_546
Cl6 Na0 2.899640 1_555
Cl6 Sm4 3.151091 1_555
Cl7 Sm1 2.846112 1_555
Cl7 Sm1 2.850016 1_556
Cl7 Na2 3.005305 1_555
Cl7 Sm0 3.117211 1_555
Cl8 Sm2 2.872916 1_555
Cl8 Sm2 2.878107 1_554
Cl8 Na2 2.970776 1_555
Cl8 Sm1 3.136089 1_555
Cl9 Sm1 2.829478 1_546
Cl9 Sm1 2.832974 1_545
Cl9 Na1 2.979537 1_556
Cl9 Sm2 3.219682 1_545
Cl10 Sm2 2.851816 1_544
Cl10 Sm2 2.853298 1_545
Cl10 Na1 2.961324 1_555
Cl10 Sm3 3.229377 1_655
Cl11 Sm2 2.857387 1_554
Cl11 Sm2 2.858384 1_555
Cl11 Sm5 3.260086 1_555
Cl11 Na0 3.326071 1_664
Cl11 Na0 3.335610 1_665
Cl12 Sm3 2.829470 1_656
Cl12 Sm3 2.832965 1_655
Cl12 Na1 2.979537 1_556
Cl12 Sm0 3.219695 1_655
Cl13 Sm3 2.836029 1_655
Cl13 Sm3 2.837668 1_656
Cl13 Na0 2.899640 1_655
Cl13 Sm2 3.151091 1_545
Cl14 Sm4 2.857387 1_554
Cl14 Sm4 2.858384 1_555
Cl14 Sm3 3.260086 1_555
Cl14 Na0 3.326071 1_554
Cl14 Na0 3.335610 1_555
Cl15 Sm3 2.846112 1_555
Cl15 Sm3 2.850016 1_556
Cl15 Na2 3.005315 1_555
Cl15 Sm4 3.117211 1_555
Cl16 Sm4 2.872915 1_555
Cl16 Sm4 2.878106 1_554
Cl16 Na2 2.970795 1_555
Cl16 Sm5 3.136078 1_555
Cl17 Sm5 2.846112 1_555
Cl17 Sm5 2.850016 1_556
Cl17 Na2 3.005318 1_555
Cl17 Sm2 3.117211 1_555
