# generated using pymatgen
data_Ti4P8S29
_symmetry_space_group_name_H-M   'P 1'
_cell_length_a   13.45245190
_cell_length_b   13.45245190
_cell_length_c   12.89469555
_cell_angle_alpha   83.95885636
_cell_angle_beta   83.95885636
_cell_angle_gamma   82.01297445
_symmetry_Int_Tables_number   1
_chemical_formula_structural   Ti4P8S29
_chemical_formula_sum   'Ti8 P16 S58'
_cell_volume   2288.31365774
_cell_formula_units_Z   2
loop_
 _symmetry_equiv_pos_site_id
 _symmetry_equiv_pos_as_xyz
  1  'x, y, z'
loop_
 _atom_site_type_symbol
 _atom_site_label
 _atom_site_symmetry_multiplicity
 _atom_site_fract_x
 _atom_site_fract_y
 _atom_site_fract_z
 _atom_site_occupancy
  Ti  Ti0  1  0.74524700  0.44531800  0.92598200  1
  Ti  Ti1  1  0.81361400  0.89112400  0.84997300  1
  Ti  Ti2  1  0.10896800  0.18606200  0.64999500  1
  Ti  Ti3  1  0.55541900  0.25667800  0.57481900  1
  Ti  Ti4  1  0.44531800  0.74524700  0.42598200  1
  Ti  Ti5  1  0.89112400  0.81361400  0.34997300  1
  Ti  Ti6  1  0.18606200  0.10896800  0.14999500  1
  Ti  Ti7  1  0.25667800  0.55541900  0.07481900  1
  P  P0  1  0.59862700  0.98190600  0.94035200  1
  P  P1  1  0.80755800  0.66191300  0.88451100  1
  P  P2  1  0.25033000  0.68051600  0.85991800  1
  P  P3  1  0.97526700  0.02472800  0.75014600  1
  P  P4  1  0.65425300  0.34636300  0.75064600  1
  P  P5  1  0.33431800  0.76147300  0.64936500  1
  P  P6  1  0.33927900  0.19195800  0.61480500  1
  P  P7  1  0.01716200  0.39976200  0.55840200  1
  P  P8  1  0.98190600  0.59862700  0.44035200  1
  P  P9  1  0.66191300  0.80755800  0.38451100  1
  P  P10  1  0.68051600  0.25033000  0.35991800  1
  P  P11  1  0.34636300  0.65425300  0.25064600  1
  P  P12  1  0.02472800  0.97526700  0.25014600  1
  P  P13  1  0.76147300  0.33431800  0.14936500  1
  P  P14  1  0.19195800  0.33927900  0.11480500  1
  P  P15  1  0.39976200  0.01716200  0.05840200  1
  S  S0  1  0.81510400  0.75870700  0.99517400  1
  S  S1  1  0.16083300  0.71328600  0.98980200  1
  S  S2  1  0.73118400  0.01315900  0.97966000  1
  S  S3  1  0.98506500  0.91454400  0.87285300  1
  S  S4  1  0.89754800  0.52696100  0.90789100  1
  S  S5  1  0.47784300  0.10252300  0.93365600  1
  S  S6  1  0.66765800  0.61557900  0.88845700  1
  S  S7  1  0.58471300  0.39713900  0.88771300  1
  S  S8  1  0.33015900  0.54459700  0.88927700  1
  S  S9  1  0.63123000  0.90986300  0.80956400  1
  S  S10  1  0.98801100  0.16189000  0.79967400  1
  S  S11  1  0.32989000  0.80761000  0.80309300  1
  S  S12  1  0.84027900  0.74742600  0.74700600  1
  S  S13  1  0.80033700  0.37007600  0.76236600  1
  S  S14  1  0.62696700  0.20119000  0.74042400  1
  S  S15  1  0.25345300  0.15895000  0.75223600  1
  S  S16  1  0.19553500  0.68427700  0.69078400  1
  S  S17  1  0.83785200  0.01228200  0.70086000  1
  S  S18  1  0.08800700  0.36721700  0.69030500  1
  S  S19  1  0.22735000  0.55768400  0.63109400  1
  S  S20  1  0.46005600  0.67039400  0.61101900  1
  S  S21  1  0.60643900  0.41549600  0.61143100  1
  S  S22  1  0.38449900  0.33220700  0.61158800  1
  S  S23  1  0.89499800  0.51901800  0.56271700  1
  S  S24  1  0.47497100  0.10270000  0.59150500  1
  S  S25  1  0.08492700  0.01480200  0.62707900  1
  S  S26  1  0.75870700  0.81510400  0.49517400  1
  S  S27  1  0.98634100  0.26684200  0.51992300  1
  S  S28  1  0.29991700  0.85242300  0.52069900  1
  S  S29  1  0.71328600  0.16083300  0.48980200  1
  S  S30  1  0.01315900  0.73118400  0.47966000  1
  S  S31  1  0.24163600  0.18531700  0.50463900  1
  S  S32  1  0.91454400  0.98506500  0.37285300  1
  S  S33  1  0.52696100  0.89754800  0.40789100  1
  S  S34  1  0.10252300  0.47784300  0.43365600  1
  S  S35  1  0.61557900  0.66765800  0.38845700  1
  S  S36  1  0.39713900  0.58471300  0.38771300  1
  S  S37  1  0.54459700  0.33015900  0.38927700  1
  S  S38  1  0.90986300  0.63123000  0.30956400  1
  S  S39  1  0.16189000  0.98801100  0.29967400  1
  S  S40  1  0.80761000  0.32989000  0.30309300  1
  S  S41  1  0.74742600  0.84027900  0.24700600  1
  S  S42  1  0.37007600  0.80033700  0.26236600  1
  S  S43  1  0.20119000  0.62696700  0.24042400  1
  S  S44  1  0.15895000  0.25345300  0.25223600  1
  S  S45  1  0.68427700  0.19553500  0.19078400  1
  S  S46  1  0.01228200  0.83785200  0.20086000  1
  S  S47  1  0.36721700  0.08800700  0.19030500  1
  S  S48  1  0.55768400  0.22735000  0.13109400  1
  S  S49  1  0.67039400  0.46005600  0.11101900  1
  S  S50  1  0.41549600  0.60643900  0.11143100  1
  S  S51  1  0.33220700  0.38449900  0.11158800  1
  S  S52  1  0.51901800  0.89499800  0.06271700  1
  S  S53  1  0.10270000  0.47497100  0.09150500  1
  S  S54  1  0.01480200  0.08492700  0.12707900  1
  S  S55  1  0.26684200  0.98634100  0.01992300  1
  S  S56  1  0.85242300  0.29991700  0.02069900  1
  S  S57  1  0.18531700  0.24163600  0.00463900  1
loop_
_geom_bond_atom_site_label_1
_geom_bond_atom_site_label_2
_geom_bond_distance
_geom_bond_site_symmetry_2
P0 S9 2.011473 1_555
P0 S2 2.014195 1_565
P0 S5 2.132546 1_565
P0 S52 2.146482 1_556
P1 S0 2.049479 1_555
P1 S4 2.050142 1_555
P1 S12 2.051348 1_555
P1 S6 2.057225 1_555
P2 S1 2.008068 1_555
P2 S8 2.008478 1_555
P2 S11 2.164560 1_555
P2 S16 2.367946 1_555
P3 S10 2.049607 1_555
P3 S17 2.050567 1_555
P3 S25 2.051691 1_655
P3 S3 2.052791 1_545
P4 S7 2.047940 1_555
P4 S21 2.055857 1_555
P4 S14 2.056607 1_555
P4 S13 2.057531 1_555
P5 S20 1.995584 1_555
P5 S28 2.010162 1_555
P5 S11 2.131200 1_555
P5 S16 2.249762 1_555
P6 S31 2.050225 1_555
P6 S24 2.053165 1_555
P6 S15 2.053492 1_555
P6 S22 2.056343 1_555
P7 S27 2.012827 1_455
P7 S18 2.015279 1_555
P7 S23 2.131778 1_455
P7 S34 2.144798 1_555
P8 S38 2.011473 1_555
P8 S30 2.014195 1_655
P8 S34 2.132546 1_655
P8 S23 2.146482 1_555
P9 S26 2.049479 1_555
P9 S33 2.050142 1_555
P9 S41 2.051348 1_555
P9 S35 2.057225 1_555
P10 S29 2.008068 1_555
P10 S37 2.008478 1_555
P10 S40 2.164560 1_555
P10 S45 2.367946 1_555
P11 S36 2.047940 1_555
P11 S50 2.055857 1_555
P11 S43 2.056607 1_555
P11 S42 2.057531 1_555
P12 S39 2.049607 1_555
P12 S46 2.050567 1_555
P12 S54 2.051691 1_565
P12 S32 2.052791 1_455
P13 S49 1.995584 1_555
P13 S56 2.010162 1_555
P13 S40 2.131200 1_555
P13 S45 2.249762 1_555
P14 S57 2.050225 1_555
P14 S53 2.053165 1_555
P14 S44 2.053492 1_555
P14 S51 2.056343 1_555
P15 S55 2.012827 1_545
P15 S47 2.015279 1_555
P15 S52 2.131778 1_545
P15 S5 2.144798 1_554
S0 Ti1 2.444402 1_555
S1 Ti7 2.533942 1_556
S2 Ti1 2.530386 1_545
S3 Ti1 2.422949 1_555
S4 Ti0 2.434985 1_555
S6 Ti0 2.403810 1_555
S7 Ti0 2.451110 1_555
S8 Ti7 2.501588 1_556
S9 Ti1 2.534628 1_555
S10 Ti2 2.415050 1_655
S12 Ti1 2.423976 1_555
S13 Ti0 2.436564 1_555
S14 Ti3 2.437433 1_555
S15 Ti2 2.426963 1_555
S16 S19 1.918270 1_555
S17 Ti1 2.411622 1_545
S18 Ti2 2.516617 1_555
S20 Ti4 2.506915 1_555
S21 Ti3 2.438555 1_555
S22 Ti3 2.401378 1_555
S24 Ti3 2.447093 1_555
S25 Ti2 2.422846 1_555
S26 Ti5 2.444402 1_555
S27 Ti2 2.532959 1_655
S28 Ti4 2.545674 1_555
S29 Ti3 2.533942 1_555
S30 Ti5 2.530386 1_455
S31 Ti2 2.448113 1_555
S32 Ti5 2.422949 1_555
S33 Ti4 2.434985 1_555
S35 Ti4 2.403810 1_555
S36 Ti4 2.451110 1_555
S37 Ti3 2.501588 1_555
S38 Ti5 2.534628 1_555
S39 Ti6 2.415050 1_565
S41 Ti5 2.423976 1_555
S42 Ti4 2.436564 1_555
S43 Ti7 2.437433 1_555
S44 Ti6 2.426963 1_555
S45 S48 1.918270 1_555
S46 Ti5 2.411622 1_455
S47 Ti6 2.516617 1_555
S49 Ti0 2.506915 1_554
S50 Ti7 2.438555 1_555
S51 Ti7 2.401378 1_555
S53 Ti7 2.447093 1_555
S54 Ti6 2.422846 1_555
S55 Ti6 2.532959 1_565
S56 Ti0 2.545674 1_554
S57 Ti6 2.448113 1_555
