# generated using pymatgen
data_PrNi2B2C
_symmetry_space_group_name_H-M   'P 1'
_cell_length_a   5.61205216
_cell_length_b   5.61205216
_cell_length_c   5.61205216
_cell_angle_alpha   141.36094302
_cell_angle_beta   141.36094302
_cell_angle_gamma   55.79261220
_symmetry_Int_Tables_number   1
_chemical_formula_structural   PrNi2B2C
_chemical_formula_sum   'Pr1 Ni2 B2 C1'
_cell_volume   68.39158802
_cell_formula_units_Z   1
loop_
 _symmetry_equiv_pos_site_id
 _symmetry_equiv_pos_as_xyz
  1  'x, y, z'
loop_
 _atom_site_type_symbol
 _atom_site_label
 _atom_site_symmetry_multiplicity
 _atom_site_fract_x
 _atom_site_fract_y
 _atom_site_fract_z
 _atom_site_occupancy
  Pr  Pr0  1  -0.00000000  -0.00000000  0.00000000  1
  Ni  Ni0  1  0.75000000  0.25000000  0.50000000  1
  Ni  Ni1  1  0.25000000  0.75000000  0.50000000  1
  B  B0  1  0.65080004  0.65080004  -0.00000000  1
  B  B1  1  0.34919996  0.34919996  0.00000000  1
  C  C0  1  0.50000000  0.50000000  0.00000000  1
loop_
_geom_bond_atom_site_label_1
_geom_bond_atom_site_label_2
_geom_bond_distance
_geom_bond_site_symmetry_2
B0 C0 1.495909 1_555
B0 Ni1 2.101325 1_655
B0 Ni0 2.101325 1_554
B0 Ni0 2.101325 1_565
B0 Ni1 2.101325 1_554
B1 C0 1.495909 1_555
B1 Ni0 2.101325 1_555
B1 Ni1 2.101325 1_555
B1 Ni0 2.101325 1_454
B1 Ni1 2.101325 1_544
C0 Pr0 2.625727 1_666
C0 Pr0 2.625727 1_554
C0 Pr0 2.625727 1_565
C0 Pr0 2.625727 1_655
