# generated using pymatgen
data_Zr5(In2Rh)2
_symmetry_space_group_name_H-M   'P 1'
_cell_length_a   6.83012862
_cell_length_b   15.21293136
_cell_length_c   34.90210118
_cell_angle_alpha   90.00000000
_cell_angle_beta   90.00000000
_cell_angle_gamma   90.00000000
_symmetry_Int_Tables_number   1
_chemical_formula_structural   Zr5(In2Rh)2
_chemical_formula_sum   'Zr80 In64 Rh32'
_cell_volume   3626.54742367
_cell_formula_units_Z   16
loop_
 _symmetry_equiv_pos_site_id
 _symmetry_equiv_pos_as_xyz
  1  'x, y, z'
loop_
 _atom_site_type_symbol
 _atom_site_label
 _atom_site_symmetry_multiplicity
 _atom_site_fract_x
 _atom_site_fract_y
 _atom_site_fract_z
 _atom_site_occupancy
  Zr  Zr0_0  1  0.00000000  0.06837663  0.45954774  1
  Zr  Zr0_1  1  0.00000000  0.06837663  0.95954774  1
  Zr  Zr0_2  1  0.00000000  0.56837663  0.45954774  1
  Zr  Zr0_3  1  0.00000000  0.56837663  0.95954774  1
  Zr  Zr0_4  1  0.50000000  0.06837663  0.45954774  1
  Zr  Zr0_5  1  0.50000000  0.06837663  0.95954774  1
  Zr  Zr0_6  1  0.50000000  0.56837663  0.45954774  1
  Zr  Zr0_7  1  0.50000000  0.56837663  0.95954774  1
  Zr  Zr1_0  1  0.00000000  0.37900593  0.38890528  1
  Zr  Zr1_1  1  0.00000000  0.37900593  0.88890529  1
  Zr  Zr1_2  1  0.00000000  0.87900593  0.38890528  1
  Zr  Zr1_3  1  0.00000000  0.87900593  0.88890529  1
  Zr  Zr1_4  1  0.50000000  0.37900593  0.38890528  1
  Zr  Zr1_5  1  0.50000000  0.37900593  0.88890529  1
  Zr  Zr1_6  1  0.50000000  0.87900593  0.38890528  1
  Zr  Zr1_7  1  0.50000000  0.87900593  0.88890529  1
  Zr  Zr2_0  1  0.00000000  0.31837663  0.29045226  1
  Zr  Zr2_1  1  0.00000000  0.31837663  0.79045226  1
  Zr  Zr2_2  1  0.00000000  0.81837663  0.29045226  1
  Zr  Zr2_3  1  0.00000000  0.81837663  0.79045226  1
  Zr  Zr2_4  1  0.50000000  0.31837663  0.29045226  1
  Zr  Zr2_5  1  0.50000000  0.31837663  0.79045226  1
  Zr  Zr2_6  1  0.50000000  0.81837663  0.29045226  1
  Zr  Zr2_7  1  0.50000000  0.81837663  0.79045226  1
  Zr  Zr3_0  1  0.00000000  0.12900593  0.36109472  1
  Zr  Zr3_1  1  0.00000000  0.12900593  0.86109472  1
  Zr  Zr3_2  1  0.00000000  0.62900593  0.36109472  1
  Zr  Zr3_3  1  0.00000000  0.62900593  0.86109472  1
  Zr  Zr3_4  1  0.50000000  0.12900593  0.36109472  1
  Zr  Zr3_5  1  0.50000000  0.12900593  0.86109472  1
  Zr  Zr3_6  1  0.50000000  0.62900593  0.36109472  1
  Zr  Zr3_7  1  0.50000000  0.62900593  0.86109472  1
  Zr  Zr4_0  1  0.00000000  0.18162337  0.20954774  1
  Zr  Zr4_1  1  0.00000000  0.18162337  0.70954774  1
  Zr  Zr4_2  1  0.00000000  0.68162337  0.20954774  1
  Zr  Zr4_3  1  0.00000000  0.68162337  0.70954774  1
  Zr  Zr4_4  1  0.50000000  0.18162337  0.20954774  1
  Zr  Zr4_5  1  0.50000000  0.18162337  0.70954774  1
  Zr  Zr4_6  1  0.50000000  0.68162337  0.20954774  1
  Zr  Zr4_7  1  0.50000000  0.68162337  0.70954774  1
  Zr  Zr5_0  1  0.00000000  0.12099407  0.11109471  1
  Zr  Zr5_1  1  0.00000000  0.12099407  0.61109472  1
  Zr  Zr5_2  1  0.00000000  0.62099407  0.11109471  1
  Zr  Zr5_3  1  0.00000000  0.62099407  0.61109472  1
  Zr  Zr5_4  1  0.50000000  0.12099407  0.11109471  1
  Zr  Zr5_5  1  0.50000000  0.12099407  0.61109472  1
  Zr  Zr5_6  1  0.50000000  0.62099407  0.11109471  1
  Zr  Zr5_7  1  0.50000000  0.62099407  0.61109472  1
  Zr  Zr6_0  1  0.00000000  0.00000000  0.25000000  1
  Zr  Zr6_1  1  0.00000000  0.00000000  0.75000000  1
  Zr  Zr6_2  1  0.00000000  0.50000000  0.25000000  1
  Zr  Zr6_3  1  0.00000000  0.50000000  0.75000000  1
  Zr  Zr6_4  1  0.50000000  0.00000000  0.25000000  1
  Zr  Zr6_5  1  0.50000000  0.00000000  0.75000000  1
  Zr  Zr6_6  1  0.50000000  0.50000000  0.25000000  1
  Zr  Zr6_7  1  0.50000000  0.50000000  0.75000000  1
  Zr  Zr7_0  1  0.00000000  0.37099407  0.13890528  1
  Zr  Zr7_1  1  0.00000000  0.37099407  0.63890528  1
  Zr  Zr7_2  1  0.00000000  0.87099407  0.13890528  1
  Zr  Zr7_3  1  0.00000000  0.87099407  0.63890528  1
  Zr  Zr7_4  1  0.50000000  0.37099407  0.13890528  1
  Zr  Zr7_5  1  0.50000000  0.37099407  0.63890528  1
  Zr  Zr7_6  1  0.50000000  0.87099407  0.13890528  1
  Zr  Zr7_7  1  0.50000000  0.87099407  0.63890528  1
  Zr  Zr8_0  1  0.00000000  0.25000000  0.00000000  1
  Zr  Zr8_1  1  0.00000000  0.25000000  0.50000000  1
  Zr  Zr8_2  1  0.00000000  0.75000000  0.00000000  1
  Zr  Zr8_3  1  0.00000000  0.75000000  0.50000000  1
  Zr  Zr8_4  1  0.50000000  0.25000000  0.00000000  1
  Zr  Zr8_5  1  0.50000000  0.25000000  0.50000000  1
  Zr  Zr8_6  1  0.50000000  0.75000000  0.00000000  1
  Zr  Zr8_7  1  0.50000000  0.75000000  0.50000000  1
  Zr  Zr9_0  1  0.00000000  0.43162337  0.04045227  1
  Zr  Zr9_1  1  0.00000000  0.43162337  0.54045226  1
  Zr  Zr9_2  1  0.00000000  0.93162337  0.04045227  1
  Zr  Zr9_3  1  0.00000000  0.93162337  0.54045226  1
  Zr  Zr9_4  1  0.50000000  0.43162337  0.04045227  1
  Zr  Zr9_5  1  0.50000000  0.43162337  0.54045226  1
  Zr  Zr9_6  1  0.50000000  0.93162337  0.04045227  1
  Zr  Zr9_7  1  0.50000000  0.93162337  0.54045226  1
  In  In0_0  1  0.25000000  0.40016105  0.46621617  1
  In  In0_1  1  0.25000000  0.40016105  0.96621616  1
  In  In0_2  1  0.25000000  0.90016105  0.46621617  1
  In  In0_3  1  0.25000000  0.90016105  0.96621616  1
  In  In0_4  1  0.75000000  0.40016105  0.46621617  1
  In  In0_5  1  0.75000000  0.40016105  0.96621616  1
  In  In0_6  1  0.75000000  0.90016105  0.46621617  1
  In  In0_7  1  0.75000000  0.90016105  0.96621616  1
  In  In1_0  1  0.25000000  0.28102640  0.07491948  1
  In  In1_1  1  0.25000000  0.28102640  0.57491948  1
  In  In1_2  1  0.25000000  0.78102640  0.07491948  1
  In  In1_3  1  0.25000000  0.78102640  0.57491948  1
  In  In1_4  1  0.75000000  0.28102640  0.07491948  1
  In  In1_5  1  0.75000000  0.28102640  0.57491948  1
  In  In1_6  1  0.75000000  0.78102640  0.07491948  1
  In  In1_7  1  0.75000000  0.78102640  0.57491948  1
  In  In2_0  1  0.25000000  0.21897360  0.42508052  1
  In  In2_1  1  0.25000000  0.21897360  0.92508053  1
  In  In2_2  1  0.25000000  0.71897360  0.42508052  1
  In  In2_3  1  0.25000000  0.71897360  0.92508053  1
  In  In2_4  1  0.75000000  0.21897360  0.42508052  1
  In  In2_5  1  0.75000000  0.21897360  0.92508053  1
  In  In2_6  1  0.75000000  0.71897360  0.42508052  1
  In  In2_7  1  0.75000000  0.71897360  0.92508053  1
  In  In3_0  1  0.25000000  0.03102640  0.17508053  1
  In  In3_1  1  0.25000000  0.03102640  0.67508053  1
  In  In3_2  1  0.25000000  0.53102640  0.17508053  1
  In  In3_3  1  0.25000000  0.53102640  0.67508053  1
  In  In3_4  1  0.75000000  0.03102640  0.17508053  1
  In  In3_5  1  0.75000000  0.03102640  0.67508053  1
  In  In3_6  1  0.75000000  0.53102640  0.17508053  1
  In  In3_7  1  0.75000000  0.53102640  0.67508053  1
  In  In4_0  1  0.25000000  0.15016105  0.28378383  1
  In  In4_1  1  0.25000000  0.15016105  0.78378384  1
  In  In4_2  1  0.25000000  0.65016105  0.28378383  1
  In  In4_3  1  0.25000000  0.65016105  0.78378384  1
  In  In4_4  1  0.75000000  0.15016105  0.28378383  1
  In  In4_5  1  0.75000000  0.15016105  0.78378384  1
  In  In4_6  1  0.75000000  0.65016105  0.28378383  1
  In  In4_7  1  0.75000000  0.65016105  0.78378384  1
  In  In5_0  1  0.25000000  0.46897360  0.32491948  1
  In  In5_1  1  0.25000000  0.46897360  0.82491948  1
  In  In5_2  1  0.25000000  0.96897360  0.32491948  1
  In  In5_3  1  0.25000000  0.96897360  0.82491948  1
  In  In5_4  1  0.75000000  0.46897360  0.32491948  1
  In  In5_5  1  0.75000000  0.46897360  0.82491948  1
  In  In5_6  1  0.75000000  0.96897360  0.32491948  1
  In  In5_7  1  0.75000000  0.96897360  0.82491948  1
  In  In6_0  1  0.25000000  0.34983895  0.21621617  1
  In  In6_1  1  0.25000000  0.34983895  0.71621617  1
  In  In6_2  1  0.25000000  0.84983895  0.21621617  1
  In  In6_3  1  0.25000000  0.84983895  0.71621617  1
  In  In6_4  1  0.75000000  0.34983895  0.21621617  1
  In  In6_5  1  0.75000000  0.34983895  0.71621617  1
  In  In6_6  1  0.75000000  0.84983895  0.21621617  1
  In  In6_7  1  0.75000000  0.84983895  0.71621617  1
  In  In7_0  1  0.25000000  0.09983895  0.03378383  1
  In  In7_1  1  0.25000000  0.09983895  0.53378384  1
  In  In7_2  1  0.25000000  0.59983895  0.03378383  1
  In  In7_3  1  0.25000000  0.59983895  0.53378384  1
  In  In7_4  1  0.75000000  0.09983895  0.03378383  1
  In  In7_5  1  0.75000000  0.09983895  0.53378384  1
  In  In7_6  1  0.75000000  0.59983895  0.03378383  1
  In  In7_7  1  0.75000000  0.59983895  0.53378384  1
  Rh  Rh0_0  1  0.25000000  0.27542889  0.34654217  1
  Rh  Rh0_1  1  0.25000000  0.27542889  0.84654217  1
  Rh  Rh0_2  1  0.25000000  0.77542889  0.34654217  1
  Rh  Rh0_3  1  0.25000000  0.77542889  0.84654217  1
  Rh  Rh0_4  1  0.75000000  0.27542889  0.34654217  1
  Rh  Rh0_5  1  0.75000000  0.27542889  0.84654217  1
  Rh  Rh0_6  1  0.75000000  0.77542889  0.34654217  1
  Rh  Rh0_7  1  0.75000000  0.77542889  0.84654217  1
  Rh  Rh1_0  1  0.25000000  0.22457111  0.15345783  1
  Rh  Rh1_1  1  0.25000000  0.22457111  0.65345783  1
  Rh  Rh1_2  1  0.25000000  0.72457111  0.15345783  1
  Rh  Rh1_3  1  0.25000000  0.72457111  0.65345783  1
  Rh  Rh1_4  1  0.75000000  0.22457111  0.15345783  1
  Rh  Rh1_5  1  0.75000000  0.22457111  0.65345783  1
  Rh  Rh1_6  1  0.75000000  0.72457111  0.15345783  1
  Rh  Rh1_7  1  0.75000000  0.72457111  0.65345783  1
  Rh  Rh2_0  1  0.25000000  0.02542889  0.40345783  1
  Rh  Rh2_1  1  0.25000000  0.02542889  0.90345783  1
  Rh  Rh2_2  1  0.25000000  0.52542889  0.40345783  1
  Rh  Rh2_3  1  0.25000000  0.52542889  0.90345783  1
  Rh  Rh2_4  1  0.75000000  0.02542889  0.40345783  1
  Rh  Rh2_5  1  0.75000000  0.02542889  0.90345783  1
  Rh  Rh2_6  1  0.75000000  0.52542889  0.40345783  1
  Rh  Rh2_7  1  0.75000000  0.52542889  0.90345783  1
  Rh  Rh3_0  1  0.25000000  0.47457111  0.09654217  1
  Rh  Rh3_1  1  0.25000000  0.47457111  0.59654217  1
  Rh  Rh3_2  1  0.25000000  0.97457111  0.09654217  1
  Rh  Rh3_3  1  0.25000000  0.97457111  0.59654217  1
  Rh  Rh3_4  1  0.75000000  0.47457111  0.09654217  1
  Rh  Rh3_5  1  0.75000000  0.47457111  0.59654217  1
  Rh  Rh3_6  1  0.75000000  0.97457111  0.09654217  1
  Rh  Rh3_7  1  0.75000000  0.97457111  0.59654217  1
loop_
_geom_bond_atom_site_label_1
_geom_bond_atom_site_label_2
_geom_bond_distance
_geom_bond_site_symmetry_2
Zr0_0 Zr8_1 3.102850 1_555
Zr0_1 Zr8_0 3.102850 1_556
Zr0_2 Zr8_3 3.102850 1_555
Zr0_3 Zr8_2 3.102850 1_556
Zr0_4 Zr8_5 3.102850 1_555
Zr0_5 Zr8_4 3.102850 1_556
Zr0_6 Zr8_7 3.102850 1_555
Zr0_7 Zr8_6 3.102850 1_556
Zr2_0 Zr6_2 3.102850 1_555
Zr2_1 Zr6_3 3.102850 1_555
Zr2_2 Zr6_0 3.102850 1_565
Zr2_3 Zr6_1 3.102850 1_565
Zr2_4 Zr6_6 3.102850 1_555
Zr2_5 Zr6_7 3.102850 1_555
Zr2_6 Zr6_4 3.102850 1_565
Zr2_7 Zr6_5 3.102850 1_565
Zr4_0 Zr6_0 3.102850 1_555
Zr4_1 Zr6_1 3.102850 1_555
Zr4_2 Zr6_2 3.102850 1_555
Zr4_3 Zr6_3 3.102850 1_555
Zr4_4 Zr6_4 3.102850 1_555
Zr4_5 Zr6_5 3.102850 1_555
Zr4_6 Zr6_6 3.102850 1_555
Zr4_7 Zr6_7 3.102850 1_555
Zr6_0 Zr6_4 3.415064 1_555
Zr6_0 Zr6_4 3.415064 1_455
Zr6_1 Zr6_5 3.415064 1_555
Zr6_1 Zr6_5 3.415064 1_455
Zr6_2 Zr6_6 3.415064 1_555
Zr6_2 Zr6_6 3.415064 1_455
Zr6_3 Zr6_7 3.415064 1_455
Zr6_3 Zr6_7 3.415064 1_555
Zr8_0 Zr9_0 3.102850 1_555
Zr8_0 Zr8_4 3.415064 1_455
Zr8_0 Zr8_4 3.415064 1_555
Zr8_1 Zr9_1 3.102850 1_555
Zr8_1 Zr8_5 3.415064 1_455
Zr8_1 Zr8_5 3.415064 1_555
Zr8_2 Zr9_2 3.102850 1_555
Zr8_2 Zr8_6 3.415064 1_455
Zr8_2 Zr8_6 3.415064 1_555
Zr8_3 Zr9_3 3.102850 1_555
Zr8_3 Zr8_7 3.415064 1_555
Zr8_3 Zr8_7 3.415064 1_455
Zr8_4 Zr9_4 3.102850 1_555
Zr8_5 Zr9_5 3.102850 1_555
Zr8_6 Zr9_6 3.102850 1_555
Zr8_7 Zr9_7 3.102850 1_555
In0_0 Rh2_2 2.903360 1_555
In0_0 Zr0_2 3.085220 1_555
In0_0 Zr0_6 3.085220 1_555
In0_0 Zr8_1 3.086170 1_555
In0_0 Zr8_5 3.086170 1_555
In0_0 In2_0 3.107892 1_555
In0_0 Zr9_1 3.139748 1_555
In0_0 Zr9_5 3.139748 1_555
In0_0 Zr1_0 3.209382 1_555
In0_0 Zr1_4 3.209382 1_555
In0_0 In0_4 3.415064 1_555
In0_0 In0_4 3.415064 1_455
In0_1 Rh2_3 2.903360 1_555
In0_1 Zr0_3 3.085220 1_555
In0_1 Zr0_7 3.085220 1_555
In0_1 Zr8_0 3.086170 1_556
In0_1 Zr8_4 3.086170 1_556
In0_1 In2_1 3.107892 1_555
In0_1 Zr9_4 3.139748 1_556
In0_1 Zr9_0 3.139748 1_556
In0_1 Zr1_1 3.209382 1_555
In0_1 Zr1_5 3.209382 1_555
In0_1 In0_5 3.415064 1_555
In0_1 In0_5 3.415064 1_455
In0_2 Rh2_0 2.903360 1_565
In0_2 Zr0_0 3.085220 1_565
In0_2 Zr0_4 3.085220 1_565
In0_2 Zr8_3 3.086170 1_555
In0_2 Zr8_7 3.086170 1_555
In0_2 In2_2 3.107892 1_555
In0_2 Zr9_3 3.139748 1_555
In0_2 Zr9_7 3.139748 1_555
In0_2 Zr1_2 3.209382 1_555
In0_2 Zr1_6 3.209382 1_555
In0_2 In0_6 3.415064 1_455
In0_2 In0_6 3.415064 1_555
In0_3 Rh2_1 2.903360 1_565
In0_3 Zr0_1 3.085220 1_565
In0_3 Zr0_5 3.085220 1_565
In0_3 Zr8_6 3.086170 1_556
In0_3 Zr8_2 3.086170 1_556
In0_3 In2_3 3.107892 1_555
In0_3 Zr9_2 3.139748 1_556
In0_3 Zr9_6 3.139748 1_556
In0_3 Zr1_7 3.209382 1_555
In0_3 Zr1_3 3.209382 1_555
In0_3 In0_7 3.415064 1_455
In0_3 In0_7 3.415064 1_555
In0_4 Rh2_6 2.903360 1_555
In0_4 Zr0_2 3.085220 1_655
In0_4 Zr0_6 3.085220 1_555
In0_4 Zr8_1 3.086170 1_655
In0_4 Zr8_5 3.086170 1_555
In0_4 In2_4 3.107892 1_555
In0_4 Zr9_5 3.139748 1_555
In0_4 Zr9_1 3.139748 1_655
In0_4 Zr1_4 3.209382 1_555
In0_4 Zr1_0 3.209382 1_655
In0_5 Rh2_7 2.903360 1_555
In0_5 Zr0_7 3.085220 1_555
In0_5 Zr0_3 3.085220 1_655
In0_5 Zr8_4 3.086170 1_556
In0_5 Zr8_0 3.086170 1_656
In0_5 In2_5 3.107892 1_555
In0_5 Zr9_0 3.139748 1_656
In0_5 Zr9_4 3.139748 1_556
In0_5 Zr1_5 3.209382 1_555
In0_5 Zr1_1 3.209382 1_655
In0_6 Rh2_4 2.903360 1_565
In0_6 Zr0_0 3.085220 1_665
In0_6 Zr0_4 3.085220 1_565
In0_6 Zr8_3 3.086170 1_655
In0_6 Zr8_7 3.086170 1_555
In0_6 In2_6 3.107892 1_555
In0_6 Zr9_3 3.139748 1_655
In0_6 Zr9_7 3.139748 1_555
In0_6 Zr1_6 3.209382 1_555
In0_6 Zr1_2 3.209382 1_655
In0_7 Rh2_5 2.903360 1_565
In0_7 Zr0_5 3.085220 1_565
In0_7 Zr0_1 3.085220 1_665
In0_7 Zr8_2 3.086170 1_656
In0_7 Zr8_6 3.086170 1_556
In0_7 In2_7 3.107892 1_555
In0_7 Zr9_2 3.139748 1_656
In0_7 Zr9_6 3.139748 1_556
In0_7 Zr1_7 3.209382 1_555
In0_7 Zr1_3 3.209382 1_655
In1_0 Rh1_0 2.872551 1_555
In1_0 Rh3_0 3.039560 1_555
In1_0 Zr9_0 3.100258 1_555
In1_0 Zr9_4 3.100258 1_555
In1_0 In7_0 3.107892 1_555
In1_0 Zr7_0 3.126705 1_555
In1_0 Zr7_4 3.126705 1_555
In1_0 Zr8_4 3.158461 1_555
In1_0 Zr8_0 3.158461 1_555
In1_0 Zr5_4 3.230618 1_555
In1_0 Zr5_0 3.230618 1_555
In1_0 In1_4 3.415064 1_555
In1_0 In1_4 3.415064 1_455
In1_1 Rh1_1 2.872551 1_555
In1_1 Rh3_1 3.039560 1_555
In1_1 Zr9_1 3.100258 1_555
In1_1 Zr9_5 3.100258 1_555
In1_1 In7_1 3.107892 1_555
In1_1 Zr7_1 3.126705 1_555
In1_1 Zr7_5 3.126705 1_555
In1_1 Zr8_1 3.158461 1_555
In1_1 Zr8_5 3.158461 1_555
In1_1 Zr5_1 3.230618 1_555
In1_1 Zr5_5 3.230618 1_555
In1_1 In1_5 3.415064 1_455
In1_1 In1_5 3.415064 1_555
In1_2 Rh1_2 2.872551 1_555
In1_2 Rh3_2 3.039560 1_555
In1_2 Zr9_6 3.100258 1_555
In1_2 Zr9_2 3.100258 1_555
In1_2 In7_2 3.107892 1_555
In1_2 Zr7_2 3.126705 1_555
In1_2 Zr7_6 3.126705 1_555
In1_2 Zr8_6 3.158461 1_555
In1_2 Zr8_2 3.158461 1_555
In1_2 Zr5_6 3.230618 1_555
In1_2 Zr5_2 3.230618 1_555
In1_2 In1_6 3.415064 1_455
In1_2 In1_6 3.415064 1_555
In1_3 Rh1_3 2.872551 1_555
In1_3 Rh3_3 3.039560 1_555
In1_3 Zr9_3 3.100258 1_555
In1_3 Zr9_7 3.100258 1_555
In1_3 In7_3 3.107892 1_555
In1_3 Zr7_7 3.126705 1_555
In1_3 Zr7_3 3.126705 1_555
In1_3 Zr8_3 3.158461 1_555
In1_3 Zr8_7 3.158461 1_555
In1_3 Zr5_7 3.230618 1_555
In1_3 Zr5_3 3.230618 1_555
In1_3 In1_7 3.415064 1_455
In1_3 In1_7 3.415064 1_555
In1_4 Rh1_4 2.872551 1_555
In1_4 Rh3_4 3.039560 1_555
In1_4 Zr9_0 3.100258 1_655
In1_4 Zr9_4 3.100258 1_555
In1_4 In7_4 3.107892 1_555
In1_4 Zr7_4 3.126705 1_555
In1_4 Zr7_0 3.126705 1_655
In1_4 Zr8_0 3.158461 1_655
In1_4 Zr8_4 3.158461 1_555
In1_4 Zr5_4 3.230618 1_555
In1_4 Zr5_0 3.230618 1_655
In1_5 Rh1_5 2.872551 1_555
In1_5 Rh3_5 3.039560 1_555
In1_5 Zr9_1 3.100258 1_655
In1_5 Zr9_5 3.100258 1_555
In1_5 In7_5 3.107892 1_555
In1_5 Zr7_1 3.126705 1_655
In1_5 Zr7_5 3.126705 1_555
In1_5 Zr8_1 3.158461 1_655
In1_5 Zr8_5 3.158461 1_555
In1_5 Zr5_1 3.230618 1_655
In1_5 Zr5_5 3.230618 1_555
In1_6 Rh1_6 2.872551 1_555
In1_6 Rh3_6 3.039560 1_555
In1_6 Zr9_6 3.100258 1_555
In1_6 Zr9_2 3.100258 1_655
In1_6 In7_6 3.107892 1_555
In1_6 Zr7_2 3.126705 1_655
In1_6 Zr7_6 3.126705 1_555
In1_6 Zr8_2 3.158461 1_655
In1_6 Zr8_6 3.158461 1_555
In1_6 Zr5_6 3.230618 1_555
In1_6 Zr5_2 3.230618 1_655
In1_7 Rh1_7 2.872551 1_555
In1_7 Rh3_7 3.039560 1_555
In1_7 Zr9_3 3.100258 1_655
In1_7 Zr9_7 3.100258 1_555
In1_7 In7_7 3.107892 1_555
In1_7 Zr7_7 3.126705 1_555
In1_7 Zr7_3 3.126705 1_655
In1_7 Zr8_7 3.158461 1_555
In1_7 Zr8_3 3.158461 1_655
In1_7 Zr5_7 3.230618 1_555
In1_7 Zr5_3 3.230618 1_655
In2_0 Rh0_0 2.872551 1_555
In2_0 Rh2_0 3.039560 1_555
In2_0 Zr0_0 3.100258 1_555
In2_0 Zr0_4 3.100258 1_555
In2_0 Zr3_0 3.126705 1_555
In2_0 Zr3_4 3.126705 1_555
In2_0 Zr8_1 3.158461 1_555
In2_0 Zr8_5 3.158461 1_555
In2_0 Zr1_0 3.230618 1_555
In2_0 Zr1_4 3.230618 1_555
In2_0 In2_4 3.415064 1_555
In2_0 In2_4 3.415064 1_455
In2_1 Rh0_1 2.872551 1_555
In2_1 Rh2_1 3.039560 1_555
In2_1 Zr0_1 3.100258 1_555
In2_1 Zr0_5 3.100258 1_555
In2_1 Zr3_1 3.126705 1_555
In2_1 Zr3_5 3.126705 1_555
In2_1 Zr8_0 3.158461 1_556
In2_1 Zr8_4 3.158461 1_556
In2_1 Zr1_1 3.230618 1_555
In2_1 Zr1_5 3.230618 1_555
In2_1 In2_5 3.415064 1_555
In2_1 In2_5 3.415064 1_455
In2_2 Rh0_2 2.872551 1_555
In2_2 Rh2_2 3.039560 1_555
In2_2 Zr0_2 3.100258 1_555
In2_2 Zr0_6 3.100258 1_555
In2_2 Zr3_6 3.126705 1_555
In2_2 Zr3_2 3.126705 1_555
In2_2 Zr8_7 3.158461 1_555
In2_2 Zr8_3 3.158461 1_555
In2_2 Zr1_6 3.230618 1_555
In2_2 Zr1_2 3.230618 1_555
In2_2 In2_6 3.415064 1_455
In2_2 In2_6 3.415064 1_555
In2_3 Rh0_3 2.872551 1_555
In2_3 Rh2_3 3.039560 1_555
In2_3 Zr0_3 3.100258 1_555
In2_3 Zr0_7 3.100258 1_555
In2_3 Zr3_3 3.126705 1_555
In2_3 Zr3_7 3.126705 1_555
In2_3 Zr8_2 3.158461 1_556
In2_3 Zr8_6 3.158461 1_556
In2_3 Zr1_7 3.230618 1_555
In2_3 Zr1_3 3.230618 1_555
In2_3 In2_7 3.415064 1_555
In2_3 In2_7 3.415064 1_455
In2_4 Rh0_4 2.872551 1_555
In2_4 Rh2_4 3.039560 1_555
In2_4 Zr0_0 3.100258 1_655
In2_4 Zr0_4 3.100258 1_555
In2_4 Zr3_0 3.126705 1_655
In2_4 Zr3_4 3.126705 1_555
In2_4 Zr8_1 3.158461 1_655
In2_4 Zr8_5 3.158461 1_555
In2_4 Zr1_0 3.230618 1_655
In2_4 Zr1_4 3.230618 1_555
In2_5 Rh0_5 2.872551 1_555
In2_5 Rh2_5 3.039560 1_555
In2_5 Zr0_5 3.100258 1_555
In2_5 Zr0_1 3.100258 1_655
In2_5 Zr3_1 3.126705 1_655
In2_5 Zr3_5 3.126705 1_555
In2_5 Zr8_4 3.158461 1_556
In2_5 Zr8_0 3.158461 1_656
In2_5 Zr1_1 3.230618 1_655
In2_5 Zr1_5 3.230618 1_555
In2_6 Rh0_6 2.872551 1_555
In2_6 Rh2_6 3.039560 1_555
In2_6 Zr0_2 3.100258 1_655
In2_6 Zr0_6 3.100258 1_555
In2_6 Zr3_6 3.126705 1_555
In2_6 Zr3_2 3.126705 1_655
In2_6 Zr8_7 3.158461 1_555
In2_6 Zr8_3 3.158461 1_655
In2_6 Zr1_6 3.230618 1_555
In2_6 Zr1_2 3.230618 1_655
In2_7 Rh0_7 2.872551 1_555
In2_7 Rh2_7 3.039560 1_555
In2_7 Zr0_3 3.100258 1_655
In2_7 Zr0_7 3.100258 1_555
In2_7 Zr3_7 3.126705 1_555
In2_7 Zr3_3 3.126705 1_655
In2_7 Zr8_6 3.158461 1_556
In2_7 Zr8_2 3.158461 1_656
In2_7 Zr1_3 3.230618 1_655
In2_7 Zr1_7 3.230618 1_555
In3_0 Rh3_2 2.872551 1_545
In3_0 Rh1_0 3.039560 1_555
In3_0 Zr4_4 3.100258 1_555
In3_0 Zr4_0 3.100258 1_555
In3_0 In6_2 3.107892 1_545
In3_0 Zr5_0 3.126705 1_555
In3_0 Zr5_4 3.126705 1_555
In3_0 Zr6_0 3.158461 1_555
In3_0 Zr6_4 3.158461 1_555
In3_0 Zr7_2 3.230618 1_545
In3_0 Zr7_6 3.230618 1_545
In3_0 In3_4 3.415064 1_555
In3_0 In3_4 3.415064 1_455
In3_1 Rh3_3 2.872551 1_545
In3_1 Rh1_1 3.039560 1_555
In3_1 Zr4_1 3.100258 1_555
In3_1 Zr4_5 3.100258 1_555
In3_1 In6_3 3.107892 1_545
In3_1 Zr5_5 3.126705 1_555
In3_1 Zr5_1 3.126705 1_555
In3_1 Zr6_1 3.158461 1_555
In3_1 Zr6_5 3.158461 1_555
In3_1 Zr7_3 3.230618 1_545
In3_1 Zr7_7 3.230618 1_545
In3_1 In3_5 3.415064 1_455
In3_1 In3_5 3.415064 1_555
In3_2 Rh3_0 2.872551 1_555
In3_2 Rh1_2 3.039560 1_555
In3_2 Zr4_6 3.100258 1_555
In3_2 Zr4_2 3.100258 1_555
In3_2 In6_0 3.107892 1_555
In3_2 Zr5_2 3.126705 1_555
In3_2 Zr5_6 3.126705 1_555
In3_2 Zr6_6 3.158461 1_555
In3_2 Zr6_2 3.158461 1_555
In3_2 Zr7_0 3.230618 1_555
In3_2 Zr7_4 3.230618 1_555
In3_2 In3_6 3.415064 1_555
In3_2 In3_6 3.415064 1_455
In3_3 Rh3_1 2.872551 1_555
In3_3 Rh1_3 3.039560 1_555
In3_3 Zr4_3 3.100258 1_555
In3_3 Zr4_7 3.100258 1_555
In3_3 In6_1 3.107892 1_555
In3_3 Zr5_3 3.126705 1_555
In3_3 Zr5_7 3.126705 1_555
In3_3 Zr6_3 3.158461 1_555
In3_3 Zr6_7 3.158461 1_555
In3_3 Zr7_5 3.230618 1_555
In3_3 Zr7_1 3.230618 1_555
In3_3 In3_7 3.415064 1_455
In3_3 In3_7 3.415064 1_555
In3_4 Rh3_6 2.872551 1_545
In3_4 Rh1_4 3.039560 1_555
In3_4 Zr4_0 3.100258 1_655
In3_4 Zr4_4 3.100258 1_555
In3_4 In6_6 3.107892 1_545
In3_4 Zr5_0 3.126705 1_655
In3_4 Zr5_4 3.126705 1_555
In3_4 Zr6_0 3.158461 1_655
In3_4 Zr6_4 3.158461 1_555
In3_4 Zr7_2 3.230618 1_645
In3_4 Zr7_6 3.230618 1_545
In3_5 Rh3_7 2.872551 1_545
In3_5 Rh1_5 3.039560 1_555
In3_5 Zr4_1 3.100258 1_655
In3_5 Zr4_5 3.100258 1_555
In3_5 In6_7 3.107892 1_545
In3_5 Zr5_1 3.126705 1_655
In3_5 Zr5_5 3.126705 1_555
In3_5 Zr6_1 3.158461 1_655
In3_5 Zr6_5 3.158461 1_555
In3_5 Zr7_3 3.230618 1_645
In3_5 Zr7_7 3.230618 1_545
In3_6 Rh3_4 2.872551 1_555
In3_6 Rh1_6 3.039560 1_555
In3_6 Zr4_6 3.100258 1_555
In3_6 Zr4_2 3.100258 1_655
In3_6 In6_4 3.107892 1_555
In3_6 Zr5_6 3.126705 1_555
In3_6 Zr5_2 3.126705 1_655
In3_6 Zr6_2 3.158461 1_655
In3_6 Zr6_6 3.158461 1_555
In3_6 Zr7_4 3.230618 1_555
In3_6 Zr7_0 3.230618 1_655
In3_7 Rh3_5 2.872551 1_555
In3_7 Rh1_7 3.039560 1_555
In3_7 Zr4_7 3.100258 1_555
In3_7 Zr4_3 3.100258 1_655
In3_7 In6_5 3.107892 1_555
In3_7 Zr5_3 3.126705 1_655
In3_7 Zr5_7 3.126705 1_555
In3_7 Zr6_7 3.158461 1_555
In3_7 Zr6_3 3.158461 1_655
In3_7 Zr7_1 3.230618 1_655
In3_7 Zr7_5 3.230618 1_555
In4_0 Rh0_0 2.903360 1_555
In4_0 Zr2_0 3.085220 1_555
In4_0 Zr2_4 3.085220 1_555
In4_0 Zr6_0 3.086170 1_555
In4_0 Zr6_4 3.086170 1_555
In4_0 In5_2 3.107892 1_545
In4_0 Zr4_0 3.139748 1_555
In4_0 Zr4_4 3.139748 1_555
In4_0 Zr3_0 3.209382 1_555
In4_0 Zr3_4 3.209382 1_555
In4_0 In4_4 3.415064 1_555
In4_0 In4_4 3.415064 1_455
In4_1 Rh0_1 2.903360 1_555
In4_1 Zr2_1 3.085220 1_555
In4_1 Zr2_5 3.085220 1_555
In4_1 Zr6_1 3.086170 1_555
In4_1 Zr6_5 3.086170 1_555
In4_1 In5_3 3.107892 1_545
In4_1 Zr4_1 3.139748 1_555
In4_1 Zr4_5 3.139748 1_555
In4_1 Zr3_1 3.209382 1_555
In4_1 Zr3_5 3.209382 1_555
In4_1 In4_5 3.415064 1_555
In4_1 In4_5 3.415064 1_455
In4_2 Rh0_2 2.903360 1_555
In4_2 Zr2_2 3.085220 1_555
In4_2 Zr2_6 3.085220 1_555
In4_2 Zr6_6 3.086170 1_555
In4_2 Zr6_2 3.086170 1_555
In4_2 In5_0 3.107892 1_555
In4_2 Zr4_2 3.139748 1_555
In4_2 Zr4_6 3.139748 1_555
In4_2 Zr3_2 3.209382 1_555
In4_2 Zr3_6 3.209382 1_555
In4_2 In4_6 3.415064 1_455
In4_2 In4_6 3.415064 1_555
In4_3 Rh0_3 2.903360 1_555
In4_3 Zr2_7 3.085220 1_555
In4_3 Zr2_3 3.085220 1_555
In4_3 Zr6_3 3.086170 1_555
In4_3 Zr6_7 3.086170 1_555
In4_3 In5_1 3.107892 1_555
In4_3 Zr4_7 3.139748 1_555
In4_3 Zr4_3 3.139748 1_555
In4_3 Zr3_3 3.209382 1_555
In4_3 Zr3_7 3.209382 1_555
In4_3 In4_7 3.415064 1_555
In4_3 In4_7 3.415064 1_455
In4_4 Rh0_4 2.903360 1_555
In4_4 Zr2_0 3.085220 1_655
In4_4 Zr2_4 3.085220 1_555
In4_4 Zr6_0 3.086170 1_655
In4_4 Zr6_4 3.086170 1_555
In4_4 In5_6 3.107892 1_545
In4_4 Zr4_4 3.139748 1_555
In4_4 Zr4_0 3.139748 1_655
In4_4 Zr3_0 3.209382 1_655
In4_4 Zr3_4 3.209382 1_555
In4_5 Rh0_5 2.903360 1_555
In4_5 Zr2_1 3.085220 1_655
In4_5 Zr2_5 3.085220 1_555
In4_5 Zr6_1 3.086170 1_655
In4_5 Zr6_5 3.086170 1_555
In4_5 In5_7 3.107892 1_545
In4_5 Zr4_5 3.139748 1_555
In4_5 Zr4_1 3.139748 1_655
In4_5 Zr3_5 3.209382 1_555
In4_5 Zr3_1 3.209382 1_655
In4_6 Rh0_6 2.903360 1_555
In4_6 Zr2_6 3.085220 1_555
In4_6 Zr2_2 3.085220 1_655
In4_6 Zr6_6 3.086170 1_555
In4_6 Zr6_2 3.086170 1_655
In4_6 In5_4 3.107892 1_555
In4_6 Zr4_6 3.139748 1_555
In4_6 Zr4_2 3.139748 1_655
In4_6 Zr3_2 3.209382 1_655
In4_6 Zr3_6 3.209382 1_555
In4_7 Rh0_7 2.903360 1_555
In4_7 Zr2_7 3.085220 1_555
In4_7 Zr2_3 3.085220 1_655
In4_7 Zr6_3 3.086170 1_655
In4_7 Zr6_7 3.086170 1_555
In4_7 In5_5 3.107892 1_555
In4_7 Zr4_7 3.139748 1_555
In4_7 Zr4_3 3.139748 1_655
In4_7 Zr3_7 3.209382 1_555
In4_7 Zr3_3 3.209382 1_655
In5_0 Rh2_2 2.872551 1_555
In5_0 Rh0_0 3.039560 1_555
In5_0 Zr2_0 3.100258 1_555
In5_0 Zr2_4 3.100258 1_555
In5_0 Zr1_0 3.126705 1_555
In5_0 Zr1_4 3.126705 1_555
In5_0 Zr6_2 3.158461 1_555
In5_0 Zr6_6 3.158461 1_555
In5_0 Zr3_2 3.230618 1_555
In5_0 Zr3_6 3.230618 1_555
In5_0 In5_4 3.415064 1_555
In5_0 In5_4 3.415064 1_455
In5_1 Rh2_3 2.872551 1_555
In5_1 Rh0_1 3.039560 1_555
In5_1 Zr2_5 3.100258 1_555
In5_1 Zr2_1 3.100258 1_555
In5_1 Zr1_5 3.126705 1_555
In5_1 Zr1_1 3.126705 1_555
In5_1 Zr6_3 3.158461 1_555
In5_1 Zr6_7 3.158461 1_555
In5_1 Zr3_3 3.230618 1_555
In5_1 Zr3_7 3.230618 1_555
In5_1 In5_5 3.415064 1_455
In5_1 In5_5 3.415064 1_555
In5_2 Rh2_0 2.872551 1_565
In5_2 Rh0_2 3.039560 1_555
In5_2 Zr2_2 3.100258 1_555
In5_2 Zr2_6 3.100258 1_555
In5_2 Zr1_2 3.126705 1_555
In5_2 Zr1_6 3.126705 1_555
In5_2 Zr6_0 3.158461 1_565
In5_2 Zr6_4 3.158461 1_565
In5_2 Zr3_4 3.230618 1_565
In5_2 Zr3_0 3.230618 1_565
In5_2 In5_6 3.415064 1_555
In5_2 In5_6 3.415064 1_455
In5_3 Rh2_1 2.872551 1_565
In5_3 Rh0_3 3.039560 1_555
In5_3 Zr2_3 3.100258 1_555
In5_3 Zr2_7 3.100258 1_555
In5_3 Zr1_3 3.126705 1_555
In5_3 Zr1_7 3.126705 1_555
In5_3 Zr6_5 3.158461 1_565
In5_3 Zr6_1 3.158461 1_565
In5_3 Zr3_1 3.230618 1_565
In5_3 Zr3_5 3.230618 1_565
In5_3 In5_7 3.415064 1_555
In5_3 In5_7 3.415064 1_455
In5_4 Rh2_6 2.872551 1_555
In5_4 Rh0_4 3.039560 1_555
In5_4 Zr2_0 3.100258 1_655
In5_4 Zr2_4 3.100258 1_555
In5_4 Zr1_0 3.126705 1_655
In5_4 Zr1_4 3.126705 1_555
In5_4 Zr6_2 3.158461 1_655
In5_4 Zr6_6 3.158461 1_555
In5_4 Zr3_2 3.230618 1_655
In5_4 Zr3_6 3.230618 1_555
In5_5 Rh2_7 2.872551 1_555
In5_5 Rh0_5 3.039560 1_555
In5_5 Zr2_5 3.100258 1_555
In5_5 Zr2_1 3.100258 1_655
In5_5 Zr1_5 3.126705 1_555
In5_5 Zr1_1 3.126705 1_655
In5_5 Zr6_7 3.158461 1_555
In5_5 Zr6_3 3.158461 1_655
In5_5 Zr3_3 3.230618 1_655
In5_5 Zr3_7 3.230618 1_555
In5_6 Rh2_4 2.872551 1_565
In5_6 Rh0_6 3.039560 1_555
In5_6 Zr2_6 3.100258 1_555
In5_6 Zr2_2 3.100258 1_655
In5_6 Zr1_2 3.126705 1_655
In5_6 Zr1_6 3.126705 1_555
In5_6 Zr6_4 3.158461 1_565
In5_6 Zr6_0 3.158461 1_665
In5_6 Zr3_4 3.230618 1_565
In5_6 Zr3_0 3.230618 1_665
In5_7 Rh2_5 2.872551 1_565
In5_7 Rh0_7 3.039560 1_555
In5_7 Zr2_3 3.100258 1_655
In5_7 Zr2_7 3.100258 1_555
In5_7 Zr1_3 3.126705 1_655
In5_7 Zr1_7 3.126705 1_555
In5_7 Zr6_5 3.158461 1_565
In5_7 Zr6_1 3.158461 1_665
In5_7 Zr3_5 3.230618 1_565
In5_7 Zr3_1 3.230618 1_665
In6_0 Rh1_0 2.903360 1_555
In6_0 Zr4_0 3.085220 1_555
In6_0 Zr4_4 3.085220 1_555
In6_0 Zr6_6 3.086170 1_555
In6_0 Zr6_2 3.086170 1_555
In6_0 Zr2_4 3.139748 1_555
In6_0 Zr2_0 3.139748 1_555
In6_0 Zr7_4 3.209382 1_555
In6_0 Zr7_0 3.209382 1_555
In6_0 In6_4 3.415064 1_455
In6_0 In6_4 3.415064 1_555
In6_1 Rh1_1 2.903360 1_555
In6_1 Zr4_1 3.085220 1_555
In6_1 Zr4_5 3.085220 1_555
In6_1 Zr6_3 3.086170 1_555
In6_1 Zr6_7 3.086170 1_555
In6_1 Zr2_1 3.139748 1_555
In6_1 Zr2_5 3.139748 1_555
In6_1 Zr7_5 3.209382 1_555
In6_1 Zr7_1 3.209382 1_555
In6_1 In6_5 3.415064 1_455
In6_1 In6_5 3.415064 1_555
In6_2 Rh1_2 2.903360 1_555
In6_2 Zr4_6 3.085220 1_555
In6_2 Zr4_2 3.085220 1_555
In6_2 Zr6_0 3.086170 1_565
In6_2 Zr6_4 3.086170 1_565
In6_2 Zr2_2 3.139748 1_555
In6_2 Zr2_6 3.139748 1_555
In6_2 Zr7_2 3.209382 1_555
In6_2 Zr7_6 3.209382 1_555
In6_2 In6_6 3.415064 1_555
In6_2 In6_6 3.415064 1_455
In6_3 Rh1_3 2.903360 1_555
In6_3 Zr4_3 3.085220 1_555
In6_3 Zr4_7 3.085220 1_555
In6_3 Zr6_1 3.086170 1_565
In6_3 Zr6_5 3.086170 1_565
In6_3 Zr2_7 3.139748 1_555
In6_3 Zr2_3 3.139748 1_555
In6_3 Zr7_3 3.209382 1_555
In6_3 Zr7_7 3.209382 1_555
In6_3 In6_7 3.415064 1_555
In6_3 In6_7 3.415064 1_455
In6_4 Rh1_4 2.903360 1_555
In6_4 Zr4_0 3.085220 1_655
In6_4 Zr4_4 3.085220 1_555
In6_4 Zr6_2 3.086170 1_655
In6_4 Zr6_6 3.086170 1_555
In6_4 Zr2_4 3.139748 1_555
In6_4 Zr2_0 3.139748 1_655
In6_4 Zr7_4 3.209382 1_555
In6_4 Zr7_0 3.209382 1_655
In6_5 Rh1_5 2.903360 1_555
In6_5 Zr4_5 3.085220 1_555
In6_5 Zr4_1 3.085220 1_655
In6_5 Zr6_3 3.086170 1_655
In6_5 Zr6_7 3.086170 1_555
In6_5 Zr2_1 3.139748 1_655
In6_5 Zr2_5 3.139748 1_555
In6_5 Zr7_1 3.209382 1_655
In6_5 Zr7_5 3.209382 1_555
In6_6 Rh1_6 2.903360 1_555
In6_6 Zr4_6 3.085220 1_555
In6_6 Zr4_2 3.085220 1_655
In6_6 Zr6_0 3.086170 1_665
In6_6 Zr6_4 3.086170 1_565
In6_6 Zr2_6 3.139748 1_555
In6_6 Zr2_2 3.139748 1_655
In6_6 Zr7_2 3.209382 1_655
In6_6 Zr7_6 3.209382 1_555
In6_7 Rh1_7 2.903360 1_555
In6_7 Zr4_3 3.085220 1_655
In6_7 Zr4_7 3.085220 1_555
In6_7 Zr6_1 3.086170 1_665
In6_7 Zr6_5 3.086170 1_565
In6_7 Zr2_3 3.139748 1_655
In6_7 Zr2_7 3.139748 1_555
In6_7 Zr7_7 3.209382 1_555
In6_7 Zr7_3 3.209382 1_655
In7_0 Rh3_2 2.903360 1_545
In7_0 Zr9_2 3.085220 1_545
In7_0 Zr9_6 3.085220 1_545
In7_0 Zr8_0 3.086170 1_555
In7_0 Zr8_4 3.086170 1_555
In7_0 Zr0_1 3.139748 1_554
In7_0 Zr0_5 3.139748 1_554
In7_0 Zr5_0 3.209382 1_555
In7_0 Zr5_4 3.209382 1_555
In7_0 In7_4 3.415064 1_455
In7_0 In7_4 3.415064 1_555
In7_1 Rh3_3 2.903360 1_545
In7_1 Zr9_7 3.085220 1_545
In7_1 Zr9_3 3.085220 1_545
In7_1 Zr8_1 3.086170 1_555
In7_1 Zr8_5 3.086170 1_555
In7_1 Zr0_0 3.139748 1_555
In7_1 Zr0_4 3.139748 1_555
In7_1 Zr5_1 3.209382 1_555
In7_1 Zr5_5 3.209382 1_555
In7_1 In7_5 3.415064 1_455
In7_1 In7_5 3.415064 1_555
In7_2 Rh3_0 2.903360 1_555
In7_2 Zr9_4 3.085220 1_555
In7_2 Zr9_0 3.085220 1_555
In7_2 Zr8_2 3.086170 1_555
In7_2 Zr8_6 3.086170 1_555
In7_2 Zr0_7 3.139748 1_554
In7_2 Zr0_3 3.139748 1_554
In7_2 Zr5_2 3.209382 1_555
In7_2 Zr5_6 3.209382 1_555
In7_2 In7_6 3.415064 1_555
In7_2 In7_6 3.415064 1_455
In7_3 Rh3_1 2.903360 1_555
In7_3 Zr9_1 3.085220 1_555
In7_3 Zr9_5 3.085220 1_555
In7_3 Zr8_7 3.086170 1_555
In7_3 Zr8_3 3.086170 1_555
In7_3 Zr0_2 3.139748 1_555
In7_3 Zr0_6 3.139748 1_555
In7_3 Zr5_3 3.209382 1_555
In7_3 Zr5_7 3.209382 1_555
In7_3 In7_7 3.415064 1_555
In7_3 In7_7 3.415064 1_455
In7_4 Rh3_6 2.903360 1_545
In7_4 Zr9_2 3.085220 1_645
In7_4 Zr9_6 3.085220 1_545
In7_4 Zr8_0 3.086170 1_655
In7_4 Zr8_4 3.086170 1_555
In7_4 Zr0_1 3.139748 1_654
In7_4 Zr0_5 3.139748 1_554
In7_4 Zr5_0 3.209382 1_655
In7_4 Zr5_4 3.209382 1_555
In7_5 Rh3_7 2.903360 1_545
In7_5 Zr9_7 3.085220 1_545
In7_5 Zr9_3 3.085220 1_645
In7_5 Zr8_5 3.086170 1_555
In7_5 Zr8_1 3.086170 1_655
In7_5 Zr0_0 3.139748 1_655
In7_5 Zr0_4 3.139748 1_555
In7_5 Zr5_1 3.209382 1_655
In7_5 Zr5_5 3.209382 1_555
In7_6 Rh3_4 2.903360 1_555
In7_6 Zr9_0 3.085220 1_655
In7_6 Zr9_4 3.085220 1_555
In7_6 Zr8_6 3.086170 1_555
In7_6 Zr8_2 3.086170 1_655
In7_6 Zr0_7 3.139748 1_554
In7_6 Zr0_3 3.139748 1_654
In7_6 Zr5_6 3.209382 1_555
In7_6 Zr5_2 3.209382 1_655
In7_7 Rh3_5 2.903360 1_555
In7_7 Zr9_5 3.085220 1_555
In7_7 Zr9_1 3.085220 1_655
In7_7 Zr8_3 3.086170 1_655
In7_7 Zr8_7 3.086170 1_555
In7_7 Zr0_2 3.139748 1_655
In7_7 Zr0_6 3.139748 1_555
In7_7 Zr5_3 3.209382 1_655
In7_7 Zr5_7 3.209382 1_555
Rh0_0 Zr2_4 2.678612 1_555
Rh0_0 Zr2_0 2.678612 1_555
Rh0_0 Zr1_0 2.754029 1_555
Rh0_0 Zr1_4 2.754029 1_555
Rh0_0 Zr3_0 2.852280 1_555
Rh0_0 Zr3_4 2.852280 1_555
Rh0_1 Zr2_1 2.678612 1_555
Rh0_1 Zr2_5 2.678612 1_555
Rh0_1 Zr1_1 2.754029 1_555
Rh0_1 Zr1_5 2.754029 1_555
Rh0_1 Zr3_1 2.852280 1_555
Rh0_1 Zr3_5 2.852280 1_555
Rh0_2 Zr2_2 2.678612 1_555
Rh0_2 Zr2_6 2.678612 1_555
Rh0_2 Zr1_2 2.754029 1_555
Rh0_2 Zr1_6 2.754029 1_555
Rh0_2 Zr3_2 2.852280 1_555
Rh0_2 Zr3_6 2.852280 1_555
Rh0_3 Zr2_3 2.678612 1_555
Rh0_3 Zr2_7 2.678612 1_555
Rh0_3 Zr1_7 2.754029 1_555
Rh0_3 Zr1_3 2.754029 1_555
Rh0_3 Zr3_3 2.852280 1_555
Rh0_3 Zr3_7 2.852280 1_555
Rh0_4 Zr2_0 2.678612 1_655
Rh0_4 Zr2_4 2.678612 1_555
Rh0_4 Zr1_4 2.754029 1_555
Rh0_4 Zr1_0 2.754029 1_655
Rh0_4 Zr3_0 2.852280 1_655
Rh0_4 Zr3_4 2.852280 1_555
Rh0_5 Zr2_1 2.678612 1_655
Rh0_5 Zr2_5 2.678612 1_555
Rh0_5 Zr1_5 2.754029 1_555
Rh0_5 Zr1_1 2.754029 1_655
Rh0_5 Zr3_1 2.852280 1_655
Rh0_5 Zr3_5 2.852280 1_555
Rh0_6 Zr2_6 2.678612 1_555
Rh0_6 Zr2_2 2.678612 1_655
Rh0_6 Zr1_6 2.754029 1_555
Rh0_6 Zr1_2 2.754029 1_655
Rh0_6 Zr3_2 2.852280 1_655
Rh0_6 Zr3_6 2.852280 1_555
Rh0_7 Zr2_3 2.678612 1_655
Rh0_7 Zr2_7 2.678612 1_555
Rh0_7 Zr1_3 2.754029 1_655
Rh0_7 Zr1_7 2.754029 1_555
Rh0_7 Zr3_7 2.852280 1_555
Rh0_7 Zr3_3 2.852280 1_655
Rh1_0 Zr4_0 2.678612 1_555
Rh1_0 Zr4_4 2.678612 1_555
Rh1_0 Zr5_4 2.754029 1_555
Rh1_0 Zr5_0 2.754029 1_555
Rh1_0 Zr7_0 2.852280 1_555
Rh1_0 Zr7_4 2.852280 1_555
Rh1_1 Zr4_1 2.678612 1_555
Rh1_1 Zr4_5 2.678612 1_555
Rh1_1 Zr5_1 2.754029 1_555
Rh1_1 Zr5_5 2.754029 1_555
Rh1_1 Zr7_1 2.852280 1_555
Rh1_1 Zr7_5 2.852280 1_555
Rh1_2 Zr4_2 2.678612 1_555
Rh1_2 Zr4_6 2.678612 1_555
Rh1_2 Zr5_2 2.754029 1_555
Rh1_2 Zr5_6 2.754029 1_555
Rh1_2 Zr7_2 2.852280 1_555
Rh1_2 Zr7_6 2.852280 1_555
Rh1_3 Zr4_3 2.678612 1_555
Rh1_3 Zr4_7 2.678612 1_555
Rh1_3 Zr5_3 2.754029 1_555
Rh1_3 Zr5_7 2.754029 1_555
Rh1_3 Zr7_3 2.852280 1_555
Rh1_3 Zr7_7 2.852280 1_555
Rh1_4 Zr4_0 2.678612 1_655
Rh1_4 Zr4_4 2.678612 1_555
Rh1_4 Zr5_4 2.754029 1_555
Rh1_4 Zr5_0 2.754029 1_655
Rh1_4 Zr7_0 2.852280 1_655
Rh1_4 Zr7_4 2.852280 1_555
Rh1_5 Zr4_1 2.678612 1_655
Rh1_5 Zr4_5 2.678612 1_555
Rh1_5 Zr5_1 2.754029 1_655
Rh1_5 Zr5_5 2.754029 1_555
Rh1_5 Zr7_1 2.852280 1_655
Rh1_5 Zr7_5 2.852280 1_555
Rh1_6 Zr4_2 2.678612 1_655
Rh1_6 Zr4_6 2.678612 1_555
Rh1_6 Zr5_6 2.754029 1_555
Rh1_6 Zr5_2 2.754029 1_655
Rh1_6 Zr7_2 2.852280 1_655
Rh1_6 Zr7_6 2.852280 1_555
Rh1_7 Zr4_7 2.678612 1_555
Rh1_7 Zr4_3 2.678612 1_655
Rh1_7 Zr5_3 2.754029 1_655
Rh1_7 Zr5_7 2.754029 1_555
Rh1_7 Zr7_7 2.852280 1_555
Rh1_7 Zr7_3 2.852280 1_655
Rh2_0 Zr0_0 2.678612 1_555
Rh2_0 Zr0_4 2.678612 1_555
Rh2_0 Zr3_0 2.754029 1_555
Rh2_0 Zr3_4 2.754029 1_555
Rh2_0 Zr1_2 2.852280 1_545
Rh2_0 Zr1_6 2.852280 1_545
Rh2_1 Zr0_5 2.678612 1_555
Rh2_1 Zr0_1 2.678612 1_555
Rh2_1 Zr3_1 2.754029 1_555
Rh2_1 Zr3_5 2.754029 1_555
Rh2_1 Zr1_3 2.852280 1_545
Rh2_1 Zr1_7 2.852280 1_545
Rh2_2 Zr0_2 2.678612 1_555
Rh2_2 Zr0_6 2.678612 1_555
Rh2_2 Zr3_6 2.754029 1_555
Rh2_2 Zr3_2 2.754029 1_555
Rh2_2 Zr1_0 2.852280 1_555
Rh2_2 Zr1_4 2.852280 1_555
Rh2_3 Zr0_7 2.678612 1_555
Rh2_3 Zr0_3 2.678612 1_555
Rh2_3 Zr3_3 2.754029 1_555
Rh2_3 Zr3_7 2.754029 1_555
Rh2_3 Zr1_5 2.852280 1_555
Rh2_3 Zr1_1 2.852280 1_555
Rh2_4 Zr0_0 2.678612 1_655
Rh2_4 Zr0_4 2.678612 1_555
Rh2_4 Zr3_0 2.754029 1_655
Rh2_4 Zr3_4 2.754029 1_555
Rh2_4 Zr1_6 2.852280 1_545
Rh2_4 Zr1_2 2.852280 1_645
Rh2_5 Zr0_1 2.678612 1_655
Rh2_5 Zr0_5 2.678612 1_555
Rh2_5 Zr3_5 2.754029 1_555
Rh2_5 Zr3_1 2.754029 1_655
Rh2_5 Zr1_7 2.852280 1_545
Rh2_5 Zr1_3 2.852280 1_645
Rh2_6 Zr0_2 2.678612 1_655
Rh2_6 Zr0_6 2.678612 1_555
Rh2_6 Zr3_2 2.754029 1_655
Rh2_6 Zr3_6 2.754029 1_555
Rh2_6 Zr1_4 2.852280 1_555
Rh2_6 Zr1_0 2.852280 1_655
Rh2_7 Zr0_7 2.678612 1_555
Rh2_7 Zr0_3 2.678612 1_655
Rh2_7 Zr3_7 2.754029 1_555
Rh2_7 Zr3_3 2.754029 1_655
Rh2_7 Zr1_1 2.852280 1_655
Rh2_7 Zr1_5 2.852280 1_555
Rh3_0 Zr9_4 2.678612 1_555
Rh3_0 Zr9_0 2.678612 1_555
Rh3_0 Zr7_4 2.754029 1_555
Rh3_0 Zr7_0 2.754029 1_555
Rh3_0 Zr5_6 2.852280 1_555
Rh3_0 Zr5_2 2.852280 1_555
Rh3_1 Zr9_5 2.678612 1_555
Rh3_1 Zr9_1 2.678612 1_555
Rh3_1 Zr7_5 2.754029 1_555
Rh3_1 Zr7_1 2.754029 1_555
Rh3_1 Zr5_3 2.852280 1_555
Rh3_1 Zr5_7 2.852280 1_555
Rh3_2 Zr9_2 2.678612 1_555
Rh3_2 Zr9_6 2.678612 1_555
Rh3_2 Zr7_2 2.754029 1_555
Rh3_2 Zr7_6 2.754029 1_555
Rh3_2 Zr5_0 2.852280 1_565
Rh3_2 Zr5_4 2.852280 1_565
Rh3_3 Zr9_3 2.678612 1_555
Rh3_3 Zr9_7 2.678612 1_555
Rh3_3 Zr7_7 2.754029 1_555
Rh3_3 Zr7_3 2.754029 1_555
Rh3_3 Zr5_5 2.852280 1_565
Rh3_3 Zr5_1 2.852280 1_565
Rh3_4 Zr9_4 2.678612 1_555
Rh3_4 Zr9_0 2.678612 1_655
Rh3_4 Zr7_4 2.754029 1_555
Rh3_4 Zr7_0 2.754029 1_655
Rh3_4 Zr5_2 2.852280 1_655
Rh3_4 Zr5_6 2.852280 1_555
Rh3_5 Zr9_5 2.678612 1_555
Rh3_5 Zr9_1 2.678612 1_655
Rh3_5 Zr7_5 2.754029 1_555
Rh3_5 Zr7_1 2.754029 1_655
Rh3_5 Zr5_3 2.852280 1_655
Rh3_5 Zr5_7 2.852280 1_555
Rh3_6 Zr9_2 2.678612 1_655
Rh3_6 Zr9_6 2.678612 1_555
Rh3_6 Zr7_6 2.754029 1_555
Rh3_6 Zr7_2 2.754029 1_655
Rh3_6 Zr5_0 2.852280 1_665
Rh3_6 Zr5_4 2.852280 1_565
Rh3_7 Zr9_7 2.678612 1_555
Rh3_7 Zr9_3 2.678612 1_655
Rh3_7 Zr7_7 2.754029 1_555
Rh3_7 Zr7_3 2.754029 1_655
Rh3_7 Zr5_5 2.852280 1_565
Rh3_7 Zr5_1 2.852280 1_665
