# generated using pymatgen
data_Na3SrTiNb3O12
_symmetry_space_group_name_H-M   'P 1'
_cell_length_a   7.92466200
_cell_length_b   7.93043781
_cell_length_c   7.99303995
_cell_angle_alpha   90.11236883
_cell_angle_beta   90.10139437
_cell_angle_gamma   90.12141998
_symmetry_Int_Tables_number   1
_chemical_formula_structural   Na3SrTiNb3O12
_chemical_formula_sum   'Na6 Sr2 Ti2 Nb6 O24'
_cell_volume   502.32801701
_cell_formula_units_Z   2
loop_
 _symmetry_equiv_pos_site_id
 _symmetry_equiv_pos_as_xyz
  1  'x, y, z'
loop_
 _atom_site_type_symbol
 _atom_site_label
 _atom_site_symmetry_multiplicity
 _atom_site_fract_x
 _atom_site_fract_y
 _atom_site_fract_z
 _atom_site_occupancy
  Na  Na0  1  0.74970900  0.74978900  0.25185900  1
  Na  Na1  1  0.75015300  0.75126200  0.75126500  1
  Na  Na2  1  0.24970700  0.75054400  0.75112300  1
  Na  Na3  1  0.75029300  0.24945600  0.24887700  1
  Na  Na4  1  0.24984700  0.24873800  0.24873500  1
  Na  Na5  1  0.25029100  0.25021100  0.74814100  1
  Sr  Sr0  1  0.24977900  0.74956300  0.24823900  1
  Sr  Sr1  1  0.75022100  0.25043700  0.75176100  1
  Ti  Ti0  1  0.00000000  0.50000000  0.00000000  1
  Ti  Ti1  1  0.50000000  0.00000000  0.50000000  1
  Nb  Nb0  1  0.00000000  0.00000000  0.00000000  1
  Nb  Nb1  1  0.00000000  0.00000000  0.50000000  1
  Nb  Nb2  1  0.50000000  0.00000000  0.00000000  1
  Nb  Nb3  1  0.00000000  0.50000000  0.50000000  1
  Nb  Nb4  1  0.50000000  0.50000000  0.00000000  1
  Nb  Nb5  1  0.50000000  0.50000000  0.50000000  1
  O  O0  1  0.51222300  0.00461500  0.74968400  1
  O  O1  1  0.98653500  0.00253100  0.75015200  1
  O  O2  1  0.25003400  0.96096800  0.99083400  1
  O  O3  1  0.74920400  0.97113000  0.49387000  1
  O  O4  1  0.53398800  0.74994500  0.00323000  1
  O  O5  1  0.97018800  0.74922400  0.00524300  1
  O  O6  1  0.46607300  0.75087000  0.50191400  1
  O  O7  1  0.03726600  0.75000000  0.50088600  1
  O  O8  1  0.24922200  0.53517000  0.99372000  1
  O  O9  1  0.74995400  0.53327500  0.49332500  1
  O  O10  1  0.48775600  0.50417600  0.24992300  1
  O  O11  1  0.01127800  0.50242900  0.24936900  1
  O  O12  1  0.98872200  0.49757100  0.75063100  1
  O  O13  1  0.51224400  0.49582400  0.75007700  1
  O  O14  1  0.25004600  0.46672500  0.50667500  1
  O  O15  1  0.75077800  0.46483000  0.00628000  1
  O  O16  1  0.96273400  0.25000000  0.49911400  1
  O  O17  1  0.53392700  0.24913000  0.49808600  1
  O  O18  1  0.02981200  0.25077600  0.99475700  1
  O  O19  1  0.46601200  0.25005500  0.99677000  1
  O  O20  1  0.25079600  0.02887000  0.50613000  1
  O  O21  1  0.74996600  0.03903200  0.00916600  1
  O  O22  1  0.01346500  0.99746900  0.24984800  1
  O  O23  1  0.48777700  0.99538500  0.25031600  1
loop_
_geom_bond_atom_site_label_1
_geom_bond_atom_site_label_2
_geom_bond_distance
_geom_bond_site_symmetry_2
Na0 O9 2.585798 1_555
Na0 O3 2.609571 1_555
Na0 O4 2.619124 1_555
Na0 O5 2.636412 1_555
Na0 O10 2.843621 1_555
Na0 O23 2.849454 1_555
Na0 O11 2.857004 1_655
Na0 O22 2.865321 1_655
Na0 O15 2.990451 1_555
Na0 O21 3.007011 1_565
Na0 O6 3.010487 1_555
Na0 O7 3.023050 1_655
Na1 O4 2.646294 1_556
Na1 O5 2.673875 1_556
Na1 O9 2.687978 1_555
Na1 O3 2.699483 1_555
Na1 O1 2.732067 1_565
Na1 O0 2.758312 1_565
Na1 O12 2.763710 1_555
Na1 O13 2.764400 1_555
Na2 O2 2.538366 1_555
Na2 O8 2.586574 1_555
Na2 O7 2.612069 1_555
Na2 O6 2.630562 1_555
Na2 O12 2.878312 1_455
Na2 O1 2.891490 1_465
Na2 O0 2.893130 1_565
Na2 O13 2.902929 1_555
Na2 O20 2.953582 1_565
Na2 O14 2.977684 1_555
Na2 O5 3.008055 1_456
Na2 O4 3.019920 1_556
Na3 O21 2.538366 1_555
Na3 O15 2.586574 1_555
Na3 O16 2.612069 1_555
Na3 O17 2.630562 1_555
Na3 O11 2.878312 1_655
Na3 O22 2.891490 1_645
Na3 O23 2.893130 1_545
Na3 O10 2.902929 1_555
Na3 O3 2.953582 1_545
Na3 O9 2.977684 1_555
Na3 O18 3.008055 1_654
Na3 O19 3.019920 1_554
Na4 O19 2.646294 1_554
Na4 O18 2.673875 1_554
Na4 O14 2.687978 1_555
Na4 O20 2.699483 1_555
Na4 O22 2.732067 1_545
Na4 O23 2.758312 1_545
Na4 O11 2.763710 1_555
Na4 O10 2.764400 1_555
Na5 O14 2.585798 1_555
Na5 O20 2.609571 1_555
Na5 O19 2.619124 1_555
Na5 O18 2.636412 1_555
Na5 O13 2.843621 1_555
Na5 O0 2.849454 1_555
Na5 O12 2.857004 1_455
Na5 O1 2.865321 1_455
Na5 O8 2.990451 1_555
Na5 O2 3.007011 1_545
Na5 O17 3.010487 1_555
Na5 O16 3.023050 1_455
Nb0 O1 1.999847 1_454
Nb0 O22 1.999847 1_545
Nb0 O18 2.002778 1_554
Nb0 O5 2.002778 1_445
Nb0 O2 2.007559 1_544
Nb0 O21 2.007559 1_455
Nb1 O20 2.000638 1_555
Nb1 O3 2.000638 1_445
Nb1 O22 2.002572 1_545
Nb1 O1 2.002572 1_455
Nb1 O16 2.005127 1_455
Nb1 O7 2.005127 1_545
Nb2 O19 2.002030 1_554
Nb2 O4 2.002030 1_545
Nb2 O23 2.003703 1_545
Nb2 O0 2.003703 1_554
Nb2 O21 2.005475 1_555
Nb2 O2 2.005475 1_544
Nb3 O9 2.000210 1_455
Nb3 O14 2.000210 1_555
Nb3 O7 2.003861 1_555
Nb3 O16 2.003861 1_455
Nb3 O11 2.005583 1_555
Nb3 O12 2.005583 1_455
Nb4 O19 1.999934 1_554
Nb4 O4 1.999934 1_555
Nb4 O13 2.000384 1_554
Nb4 O10 2.000384 1_555
Nb4 O15 2.007946 1_555
Nb4 O8 2.007946 1_554
Nb5 O14 1.998567 1_555
Nb5 O9 1.998567 1_555
Nb5 O10 2.001400 1_555
Nb5 O13 2.001400 1_555
Nb5 O6 2.008190 1_555
Nb5 O17 2.008190 1_555
O0 Ti1 1.998172 1_555
O0 Sr1 2.709633 1_555
O1 Sr1 2.718081 1_555
O2 Sr0 2.656576 1_556
O3 Ti1 1.989245 1_565
O3 Sr1 3.022823 1_565
O4 Sr0 2.987221 1_555
O5 Ti0 1.991390 1_655
O5 Sr0 2.943864 1_655
O6 Ti1 1.993447 1_565
O6 Sr0 2.652723 1_555
O7 Sr0 2.631780 1_555
O8 Ti0 1.994745 1_556
O8 Sr0 2.648750 1_556
O9 Sr1 3.052284 1_555
O10 Sr0 2.712810 1_555
O11 Ti0 1.995115 1_555
O11 Sr0 2.719907 1_555
O12 Ti0 1.995115 1_656
O12 Sr1 2.719907 1_555
O13 Sr1 2.712810 1_555
O14 Sr0 3.052284 1_555
O15 Ti0 1.994745 1_655
O15 Sr1 2.648750 1_554
O16 Sr1 2.631780 1_555
O17 Ti1 1.993447 1_555
O17 Sr1 2.652723 1_555
O18 Ti0 1.991390 1_556
O18 Sr1 2.943864 1_455
O19 Sr1 2.987221 1_555
O20 Ti1 1.989245 1_555
O20 Sr0 3.022823 1_545
O21 Sr1 2.656576 1_554
O22 Sr0 2.718081 1_555
O23 Ti1 1.998172 1_565
O23 Sr0 2.709633 1_555
