# generated using pymatgen
data_NaP(HO)6
_symmetry_space_group_name_H-M   'P 1'
_cell_length_a   6.69630600
_cell_length_b   7.25128400
_cell_length_c   11.40523400
_cell_angle_alpha   90.00000000
_cell_angle_beta   90.00000000
_cell_angle_gamma   90.00000000
_symmetry_Int_Tables_number   1
_chemical_formula_structural   NaP(HO)6
_chemical_formula_sum   'Na4 P4 H24 O24'
_cell_volume   553.80185513
_cell_formula_units_Z   4
loop_
 _symmetry_equiv_pos_site_id
 _symmetry_equiv_pos_as_xyz
  1  'x, y, z'
loop_
 _atom_site_type_symbol
 _atom_site_label
 _atom_site_symmetry_multiplicity
 _atom_site_fract_x
 _atom_site_fract_y
 _atom_site_fract_z
 _atom_site_occupancy
  Na  Na0  1  0.72002400  0.61296900  0.92100000  1
  Na  Na1  1  0.22002400  0.88703100  0.07900000  1
  Na  Na2  1  0.27997600  0.11296900  0.57900000  1
  Na  Na3  1  0.77997600  0.38703100  0.42100000  1
  P  P0  1  0.54477200  0.28134800  0.15073500  1
  P  P1  1  0.04477200  0.21865200  0.84926500  1
  P  P2  1  0.45522800  0.78134800  0.34926500  1
  P  P3  1  0.95522800  0.71865200  0.65073500  1
  H  H0  1  0.51631900  0.59457300  0.15471800  1
  H  H1  1  0.01631900  0.90542700  0.84528200  1
  H  H2  1  0.48368100  0.09457400  0.34528200  1
  H  H3  1  0.98368100  0.40542700  0.65471800  1
  H  H4  1  0.27960800  0.26665800  0.03124900  1
  H  H5  1  0.77960800  0.23334200  0.96875100  1
  H  H6  1  0.72039200  0.76665800  0.46875100  1
  H  H7  1  0.22039200  0.73334200  0.53124900  1
  H  H8  1  0.85100100  0.01742200  0.18087500  1
  H  H9  1  0.35100100  0.48257800  0.81912500  1
  H  H10  1  0.14899900  0.51742200  0.31912500  1
  H  H11  1  0.64899900  0.98257800  0.68087500  1
  H  H12  1  0.88775200  0.84327000  0.25803700  1
  H  H13  1  0.38775200  0.65673000  0.74196300  1
  H  H14  1  0.11224800  0.34327000  0.24196300  1
  H  H15  1  0.61224800  0.15673000  0.75803700  1
  H  H16  1  0.59662500  0.97964600  0.00359600  1
  H  H17  1  0.09662500  0.52035400  0.99640400  1
  H  H18  1  0.40337500  0.47964600  0.49640400  1
  H  H19  1  0.90337500  0.02035400  0.50359600  1
  H  H20  1  0.51113900  0.93645400  0.87873600  1
  H  H21  1  0.01113900  0.56354600  0.12126400  1
  H  H22  1  0.48886100  0.43645400  0.62126400  1
  H  H23  1  0.98886100  0.06354600  0.37873600  1
  O  O0  1  0.55469800  0.26531300  0.28304100  1
  O  O1  1  0.05469800  0.23468700  0.71695900  1
  O  O2  1  0.44530200  0.76531300  0.21695900  1
  O  O3  1  0.94530200  0.73468700  0.78304100  1
  O  O4  1  0.69974000  0.16443200  0.08494200  1
  O  O5  1  0.19974000  0.33556800  0.91505800  1
  O  O6  1  0.30026000  0.66443200  0.41505800  1
  O  O7  1  0.80026000  0.83556800  0.58494200  1
  O  O8  1  0.57308500  0.48614000  0.10498100  1
  O  O9  1  0.07308500  0.01386000  0.89501900  1
  O  O10  1  0.42691500  0.98614000  0.39501900  1
  O  O11  1  0.92691500  0.51386000  0.60498100  1
  O  O12  1  0.32333700  0.22015000  0.11352200  1
  O  O13  1  0.82333700  0.27985000  0.88647800  1
  O  O14  1  0.67666300  0.72015000  0.38647800  1
  O  O15  1  0.17666300  0.77985000  0.61352200  1
  O  O16  1  0.95683300  0.95022100  0.22473500  1
  O  O17  1  0.45683300  0.54977900  0.77526500  1
  O  O18  1  0.04316700  0.45022100  0.27526500  1
  O  O19  1  0.54316700  0.04977900  0.72473500  1
  O  O20  1  0.52614700  0.88256200  0.95782500  1
  O  O21  1  0.02614700  0.61743800  0.04217500  1
  O  O22  1  0.47385300  0.38256200  0.54217500  1
  O  O23  1  0.97385300  0.11743800  0.45782500  1
loop_
_geom_bond_atom_site_label_1
_geom_bond_atom_site_label_2
_geom_bond_distance
_geom_bond_site_symmetry_2
Na0 O3 2.351686 1_555
Na0 O20 2.384008 1_555
Na0 O17 2.465512 1_555
Na0 O21 2.472472 1_656
Na0 O8 2.493393 1_556
Na0 O13 2.543318 1_555
Na1 O2 2.351686 1_555
Na1 O21 2.384008 1_555
Na1 O16 2.465512 1_455
Na1 O20 2.472472 1_554
Na1 O9 2.493393 1_564
Na1 O12 2.543318 1_565
Na2 O1 2.351686 1_555
Na2 O22 2.384008 1_555
Na2 O19 2.465512 1_555
Na2 O23 2.472472 1_455
Na2 O10 2.493393 1_545
Na2 O15 2.543318 1_545
Na3 O0 2.351686 1_555
Na3 O23 2.384008 1_555
Na3 O18 2.465512 1_655
Na3 O22 2.472472 1_555
Na3 O11 2.493393 1_555
Na3 O14 2.543318 1_555
H0 O8 1.041400 1_555
H0 O2 1.504301 1_555
H1 O9 1.041400 1_565
H1 O3 1.504301 1_455
H2 O10 1.041405 1_545
H2 O0 1.504295 1_555
H3 O11 1.041400 1_555
H3 O1 1.504301 1_655
H4 O12 1.039214 1_555
H4 O5 1.513881 1_554
H5 O13 1.039214 1_555
H5 O4 1.513881 1_556
H6 O14 1.039214 1_555
H6 O7 1.513881 1_555
H7 O15 1.039214 1_555
H7 O6 1.513881 1_555
H8 O16 0.994948 1_545
H9 O17 0.994948 1_555
H10 O18 0.994948 1_555
H11 O19 0.994948 1_565
H12 O16 0.979642 1_555
H13 O17 0.979642 1_555
H14 O18 0.979642 1_555
H15 O19 0.979642 1_555
H16 O20 0.995408 1_554
H17 O21 0.995408 1_556
H18 O22 0.995408 1_555
H19 O23 0.995408 1_555
H20 O20 0.988165 1_555
H21 O21 0.988165 1_555
H22 O22 0.988165 1_555
H23 O23 0.988165 1_555
O0 P0 1.514913 1_555
O1 P1 1.514913 1_555
O2 P2 1.514913 1_555
O3 P3 1.514913 1_555
O4 P0 1.535798 1_555
O5 P1 1.535798 1_555
O6 P2 1.535798 1_555
O7 P3 1.535798 1_555
O8 P0 1.585401 1_555
O9 P1 1.585401 1_555
O10 P2 1.585401 1_555
O11 P3 1.585401 1_555
O12 P0 1.604913 1_555
O13 P1 1.604913 1_655
O14 P2 1.604913 1_555
O15 P3 1.604913 1_455
