# generated using pymatgen
data_Eu2Ga3Ir
_symmetry_space_group_name_H-M   'P 1'
_cell_length_a   5.64128659
_cell_length_b   5.64060484
_cell_length_c   8.66027105
_cell_angle_alpha   89.99968524
_cell_angle_beta   90.00064148
_cell_angle_gamma   119.99927679
_symmetry_Int_Tables_number   1
_chemical_formula_structural   Eu2Ga3Ir
_chemical_formula_sum   'Eu4 Ga6 Ir2'
_cell_volume   238.65422154
_cell_formula_units_Z   2
loop_
 _symmetry_equiv_pos_site_id
 _symmetry_equiv_pos_as_xyz
  1  'x, y, z'
loop_
 _atom_site_type_symbol
 _atom_site_label
 _atom_site_symmetry_multiplicity
 _atom_site_fract_x
 _atom_site_fract_y
 _atom_site_fract_z
 _atom_site_occupancy
  Eu  Eu0  1  0.33341827  0.66675915  0.44688102  1
  Eu  Eu1  1  0.66657586  0.33323742  0.94711245  1
  Eu  Eu2  1  0.33341153  0.66680752  0.05302367  1
  Eu  Eu3  1  0.66658482  0.33319170  0.55297025  1
  Ga  Ga0  1  0.84064602  0.68120627  0.24987843  1
  Ga  Ga1  1  0.84079120  0.15969507  0.24987628  1
  Ga  Ga2  1  0.15920437  0.84032024  0.75011250  1
  Ga  Ga3  1  0.31891556  0.15961873  0.24988214  1
  Ga  Ga4  1  0.68111259  0.84039887  0.75011904  1
  Ga  Ga5  1  0.15933896  0.31876685  0.75014155  1
  Ir  Ir0  1  -0.00000087  0.00001436  0.00005220  1
  Ir  Ir1  1  0.00000269  0.99998283  0.49995047  1
loop_
_geom_bond_atom_site_label_1
_geom_bond_atom_site_label_2
_geom_bond_distance
_geom_bond_site_symmetry_2
Eu0 Ga4 3.127607 1_555
Eu0 Ga2 3.127736 1_555
Eu0 Ga5 3.128464 1_555
Eu0 Ir1 3.288887 1_655
Eu0 Ir1 3.288931 1_555
Eu0 Ir1 3.289430 1_545
Eu0 Ga1 3.296365 1_455
Eu0 Ga3 3.296404 1_555
Eu0 Ga0 3.297196 1_455
Eu0 Ga0 3.297279 1_555
Eu0 Ga3 3.297465 1_565
Eu0 Ga1 3.297889 1_565
Eu1 Ga3 3.124140 1_556
Eu1 Ga1 3.124263 1_556
Eu1 Ga0 3.124807 1_556
Eu1 Ir0 3.288701 1_556
Eu1 Ir0 3.288799 1_656
Eu1 Ir0 3.289276 1_666
Eu1 Ga4 3.296387 1_555
Eu1 Ga2 3.296410 1_655
Eu1 Ga5 3.297094 1_555
Eu1 Ga5 3.297101 1_655
Eu1 Ga4 3.297442 1_545
Eu1 Ga2 3.297803 1_545
Eu2 Ga4 3.125229 1_554
Eu2 Ga2 3.125233 1_554
Eu2 Ga5 3.125841 1_554
Eu2 Ir0 3.288707 1_565
Eu2 Ir0 3.288792 1_665
Eu2 Ir0 3.289392 1_555
Eu2 Ga1 3.295805 1_455
Eu2 Ga3 3.296008 1_555
Eu2 Ga0 3.296412 1_455
Eu2 Ga3 3.296603 1_565
Eu2 Ga0 3.296728 1_555
Eu2 Ga1 3.297095 1_565
Eu3 Ga3 3.126451 1_555
Eu3 Ga1 3.126545 1_555
Eu3 Ga0 3.127296 1_555
Eu3 Ir1 3.288810 1_645
Eu3 Ir1 3.288815 1_545
Eu3 Ir1 3.289441 1_655
Eu3 Ga2 3.297126 1_655
Eu3 Ga4 3.297340 1_555
Eu3 Ga5 3.297808 1_655
Eu3 Ga4 3.297878 1_545
Eu3 Ga5 3.298174 1_555
Eu3 Ga2 3.298375 1_545
Ga0 Ir0 2.665778 1_665
Ga0 Ir1 2.667416 1_655
Ga0 Ga3 2.698325 1_665
Ga0 Ga1 2.698557 1_565
Ga0 Ga1 2.942048 1_555
Ga0 Ga3 2.942682 1_555
Ga1 Ir0 2.666050 1_655
Ga1 Ir1 2.667884 1_645
Ga1 Ga3 2.697452 1_655
Ga1 Ga3 2.943835 1_555
Ga2 Ir0 2.666893 1_566
Ga2 Ir1 2.668332 1_555
Ga2 Ga4 2.697275 1_455
Ga2 Ga5 2.698349 1_565
Ga2 Ga5 2.942256 1_555
Ga2 Ga4 2.944012 1_555
Ga3 Ir0 2.666211 1_555
Ga3 Ir1 2.667901 1_545
Ga4 Ir0 2.666851 1_666
Ga4 Ir1 2.668541 1_655
Ga4 Ga5 2.698078 1_665
Ga4 Ga5 2.942930 1_555
Ga5 Ir0 2.666213 1_556
Ga5 Ir1 2.668274 1_545
