# generated using pymatgen
data_Eu5Si(Cl3O2)2
_symmetry_space_group_name_H-M   'P 1'
_cell_length_a   8.27256355
_cell_length_b   8.27256355
_cell_length_c   11.10086885
_cell_angle_alpha   82.82056271
_cell_angle_beta   82.82056271
_cell_angle_gamma   114.75576624
_symmetry_Int_Tables_number   1
_chemical_formula_structural   Eu5Si(Cl3O2)2
_chemical_formula_sum   'Eu10 Si2 Cl12 O8'
_cell_volume   671.08218743
_cell_formula_units_Z   2
loop_
 _symmetry_equiv_pos_site_id
 _symmetry_equiv_pos_as_xyz
  1  'x, y, z'
loop_
 _atom_site_type_symbol
 _atom_site_label
 _atom_site_symmetry_multiplicity
 _atom_site_fract_x
 _atom_site_fract_y
 _atom_site_fract_z
 _atom_site_occupancy
  Eu  Eu0  1  0.26944936  0.42735463  0.63157659  1
  Eu  Eu1  1  0.73055064  0.57264537  0.36842341  1
  Eu  Eu2  1  0.57264537  0.73055064  0.86842341  1
  Eu  Eu3  1  0.42735463  0.26944936  0.13157659  1
  Eu  Eu4  1  0.70017755  0.29982245  0.75000000  1
  Eu  Eu5  1  0.81675789  0.07535650  0.48110998  1
  Eu  Eu6  1  0.92464350  0.18324211  0.01889002  1
  Eu  Eu7  1  0.07535650  0.81675789  0.98110998  1
  Eu  Eu8  1  0.18324211  0.92464350  0.51889002  1
  Eu  Eu9  1  0.29982245  0.70017755  0.25000000  1
  Si  Si0  1  0.92224447  0.07775553  0.75000000  1
  Si  Si1  1  0.07775553  0.92224447  0.25000000  1
  Cl  Cl0  1  0.51858751  0.21948132  0.54772705  1
  Cl  Cl1  1  0.48141249  0.78051868  0.45227295  1
  Cl  Cl2  1  0.74570443  0.25429557  0.25000000  1
  Cl  Cl3  1  0.70592178  0.64506169  0.63957987  1
  Cl  Cl4  1  0.25429557  0.74570443  0.75000000  1
  Cl  Cl5  1  0.64506169  0.70592178  0.13957987  1
  Cl  Cl6  1  0.78051868  0.48141249  0.95227295  1
  Cl  Cl7  1  0.21948132  0.51858751  0.04772705  1
  Cl  Cl8  1  0.50000000  0.00000000  -0.00000000  1
  Cl  Cl9  1  0.35493831  0.29407822  0.86042013  1
  Cl  Cl10  1  0.29407822  0.35493831  0.36042013  1
  Cl  Cl11  1  0.00000000  0.50000000  0.50000000  1
  O  O0  1  0.06300266  0.10058339  0.62541187  1
  O  O1  1  0.10058339  0.06300266  0.12541187  1
  O  O2  1  0.98080819  0.27772074  0.78744998  1
  O  O3  1  0.89941661  0.93699734  0.87458813  1
  O  O4  1  0.01919181  0.72227926  0.21255002  1
  O  O5  1  0.72227926  0.01919181  0.71255002  1
  O  O6  1  0.27772074  0.98080819  0.28744998  1
  O  O7  1  0.93699734  0.89941661  0.37458813  1
loop_
_geom_bond_atom_site_label_1
_geom_bond_atom_site_label_2
_geom_bond_distance
_geom_bond_site_symmetry_2
Eu0 O2 2.486839 1_455
Eu0 O0 2.537292 1_555
Eu1 O4 2.486839 1_655
Eu1 O7 2.537292 1_555
Eu2 O5 2.486839 1_565
Eu2 O3 2.537292 1_555
Eu3 O6 2.486839 1_545
Eu3 O1 2.537292 1_555
Eu4 O2 2.484655 1_555
Eu4 O5 2.484655 1_555
Eu5 O7 2.419662 1_545
Eu5 O5 2.514565 1_555
Eu5 O0 2.702294 1_655
Eu6 O1 2.419662 1_655
Eu6 O2 2.514565 1_554
Eu6 O3 2.702294 1_544
Eu7 O3 2.419662 1_455
Eu7 O4 2.514565 1_556
Eu7 O1 2.702294 1_566
Eu8 O0 2.419662 1_565
Eu8 O6 2.514565 1_555
Eu8 O7 2.702294 1_455
Eu9 O6 2.484655 1_555
Eu9 O4 2.484655 1_555
Cl0 Eu4 2.849595 1_555
Cl0 Eu8 2.915097 1_545
Cl0 Eu1 2.992608 1_555
Cl0 Eu5 3.206269 1_555
Cl0 Eu0 3.310619 1_555
Cl1 Eu9 2.849595 1_555
Cl1 Eu5 2.915097 1_565
Cl1 Eu0 2.992608 1_555
Cl1 Eu8 3.206269 1_555
Cl1 Eu1 3.310619 1_555
Cl2 Eu6 3.045495 1_555
Cl2 Eu5 3.045495 1_555
Cl2 Eu3 3.127340 1_555
Cl2 Eu1 3.127340 1_555
Cl3 Eu2 2.927658 1_555
Cl3 Eu4 2.942499 1_555
Cl3 Eu1 3.140157 1_555
Cl3 Eu0 3.311029 1_555
Cl3 Eu5 3.450295 1_565
Cl3 Eu8 3.604262 1_655
Cl4 Eu8 3.045495 1_555
Cl4 Eu7 3.045495 1_555
Cl4 Eu0 3.127340 1_555
Cl4 Eu2 3.127340 1_555
Cl5 Eu1 2.927658 1_555
Cl5 Eu9 2.942499 1_555
Cl5 Eu2 3.140157 1_554
Cl5 Eu3 3.311029 1_555
Cl5 Eu7 3.450295 1_654
Cl5 Eu6 3.604262 1_565
Cl6 Eu4 2.849595 1_555
Cl6 Eu7 2.915097 1_655
Cl6 Eu3 2.992608 1_556
Cl6 Eu6 3.206269 1_556
Cl6 Eu2 3.310619 1_555
Cl7 Eu9 2.849595 1_555
Cl7 Eu6 2.915097 1_455
Cl7 Eu2 2.992608 1_554
Cl7 Eu7 3.206269 1_554
Cl7 Eu3 3.310619 1_555
Cl8 Eu3 3.029759 1_555
Cl8 Eu2 3.029759 1_544
Cl8 Eu9 3.207312 1_545
Cl8 Eu4 3.207312 1_554
Cl8 Eu6 3.238216 1_555
Cl8 Eu7 3.238216 1_544
Cl9 Eu0 2.927658 1_555
Cl9 Eu4 2.942499 1_555
Cl9 Eu3 3.140157 1_556
Cl9 Eu2 3.311029 1_555
Cl9 Eu6 3.450295 1_456
Cl9 Eu7 3.604262 1_545
Cl10 Eu3 2.927658 1_555
Cl10 Eu9 2.942499 1_555
Cl10 Eu0 3.140157 1_555
Cl10 Eu1 3.311029 1_555
Cl10 Eu8 3.450295 1_545
Cl10 Eu5 3.604262 1_455
Cl11 Eu0 3.029759 1_555
Cl11 Eu1 3.029759 1_455
Cl11 Eu4 3.207312 1_455
Cl11 Eu9 3.207312 1_555
Cl11 Eu8 3.238216 1_555
Cl11 Eu5 3.238216 1_455
O0 Si0 1.628609 1_455
O1 Si1 1.628609 1_545
O2 Si0 1.641659 1_555
O3 Si0 1.628609 1_565
O4 Si1 1.641659 1_555
O5 Si0 1.641659 1_555
O6 Si1 1.641659 1_555
O7 Si1 1.628609 1_655
