# generated using pymatgen
data_Sr18Fe18O47
_symmetry_space_group_name_H-M   'P 1'
_cell_length_a   5.63472748
_cell_length_b   5.63048842
_cell_length_c   50.37670297
_cell_angle_alpha   60.17222777
_cell_angle_beta   59.98333832
_cell_angle_gamma   59.69005067
_symmetry_Int_Tables_number   1
_chemical_formula_structural   Sr18Fe18O47
_chemical_formula_sum   'Sr18 Fe18 O47'
_cell_volume   1128.78421372
_cell_formula_units_Z   1
loop_
 _symmetry_equiv_pos_site_id
 _symmetry_equiv_pos_as_xyz
  1  'x, y, z'
loop_
 _atom_site_type_symbol
 _atom_site_label
 _atom_site_symmetry_multiplicity
 _atom_site_fract_x
 _atom_site_fract_y
 _atom_site_fract_z
 _atom_site_occupancy
  Sr  Sr0  1  0.25000300  0.24999900  0.02777700  1
  Sr  Sr1  1  0.25364200  0.25731400  0.13589500  1
  Sr  Sr2  1  0.73540300  0.74817500  0.08503900  1
  Sr  Sr3  1  0.25240100  0.25173200  0.24955400  1
  Sr  Sr4  1  0.75958500  0.75552400  0.19173400  1
  Sr  Sr5  1  0.24387800  0.24367200  0.36210500  1
  Sr  Sr6  1  0.23739200  0.23698300  0.47659600  1
  Sr  Sr7  1  0.74842100  0.74794600  0.30597500  1
  Sr  Sr8  1  0.74111400  0.74093600  0.41977400  1
  Sr  Sr9  1  0.26261500  0.26302200  0.57895800  1
  Sr  Sr10  1  0.75000200  0.75000500  0.52777700  1
  Sr  Sr11  1  0.25611800  0.25633100  0.69345000  1
  Sr  Sr12  1  0.75887200  0.75907300  0.63578100  1
  Sr  Sr13  1  0.24760300  0.24826900  0.80600100  1
  Sr  Sr14  1  0.24635400  0.24268200  0.91966300  1
  Sr  Sr15  1  0.75157500  0.75205800  0.74958100  1
  Sr  Sr16  1  0.74041900  0.74447700  0.86382200  1
  Sr  Sr17  1  0.76459500  0.75181800  0.97051700  1
  Fe  Fe0  1  0.97532600  0.01875100  0.99796500  1
  Fe  Fe1  1  0.52469100  0.48123900  0.05759400  1
  Fe  Fe2  1  0.00556100  0.00055300  0.11053400  1
  Fe  Fe3  1  0.52728300  0.52231000  0.16385500  1
  Fe  Fe4  1  0.97890600  0.97878400  0.33590900  1
  Fe  Fe5  1  0.98147800  0.98060300  0.22402700  1
  Fe  Fe6  1  0.52175200  0.52052800  0.27524000  1
  Fe  Fe7  1  0.51927400  0.51900200  0.38726200  1
  Fe  Fe8  1  0.97644100  0.97623600  0.44733600  1
  Fe  Fe9  1  0.98071800  0.98098900  0.66829500  1
  Fe  Fe10  1  0.99964300  0.99991200  0.55544300  1
  Fe  Fe11  1  0.50036400  0.50009700  0.50011200  1
  Fe  Fe12  1  0.52355300  0.52376800  0.60822000  1
  Fe  Fe13  1  0.52108000  0.52121400  0.71964800  1
  Fe  Fe14  1  0.97825800  0.97946700  0.78031400  1
  Fe  Fe15  1  0.51851900  0.51937900  0.83152700  1
  Fe  Fe16  1  0.97273000  0.97768800  0.89170300  1
  Fe  Fe17  1  0.49444900  0.49943400  0.94502100  1
  O  O0  1  0.23873600  0.27019700  0.08231300  1
  O  O1  1  0.23523200  0.77495200  0.07803800  1
  O  O2  1  0.75000200  0.24999100  0.02777800  1
  O  O3  1  0.73981800  0.26013900  0.08569600  1
  O  O4  1  0.75000500  0.74998900  0.02777900  1
  O  O5  1  0.24767300  0.72923200  0.13982100  1
  O  O6  1  0.71284200  0.22178500  0.14461400  1
  O  O7  1  0.25071700  0.75002900  0.19407200  1
  O  O8  1  0.75331700  0.25893200  0.19486000  1
  O  O9  1  0.77045500  0.74287600  0.13634300  1
  O  O10  1  0.24942700  0.74712900  0.24997900  1
  O  O11  1  0.24902600  0.74977400  0.30536800  1
  O  O12  1  0.74957200  0.24427300  0.25080300  1
  O  O13  1  0.75176900  0.25116400  0.30540800  1
  O  O14  1  0.74970500  0.75188000  0.24989700  1
  O  O15  1  0.25594400  0.75397700  0.36016000  1
  O  O16  1  0.24529700  0.75203500  0.41621800  1
  O  O17  1  0.75339900  0.25557900  0.36031600  1
  O  O18  1  0.75207900  0.24575100  0.41622500  1
  O  O19  1  0.74912900  0.74996600  0.36093600  1
  O  O20  1  0.24999800  0.25000600  0.52777700  1
  O  O21  1  0.26899400  0.78092800  0.46823900  1
  O  O22  1  0.25000500  0.74999900  0.52777800  1
  O  O23  1  0.78108000  0.26961100  0.46818400  1
  O  O24  1  0.75000400  0.24999900  0.52777700  1
  O  O25  1  0.23099700  0.71909100  0.58731600  1
  O  O26  1  0.74479500  0.74512900  0.47440500  1
  O  O27  1  0.71891000  0.23040400  0.58737100  1
  O  O28  1  0.25469400  0.74795900  0.63933800  1
  O  O29  1  0.74792500  0.25424700  0.63933000  1
  O  O30  1  0.75519900  0.75487800  0.58115000  1
  O  O31  1  0.24405000  0.74602400  0.69539500  1
  O  O32  1  0.74659000  0.24442700  0.69524000  1
  O  O33  1  0.25096300  0.75023200  0.75018700  1
  O  O34  1  0.75086200  0.75003300  0.69462100  1
  O  O35  1  0.74823200  0.24884100  0.75014700  1
  O  O36  1  0.25058200  0.75288700  0.80557400  1
  O  O37  1  0.24929200  0.74996300  0.86148300  1
  O  O38  1  0.75042700  0.25572900  0.80475200  1
  O  O39  1  0.74668900  0.24106900  0.86069400  1
  O  O40  1  0.75029500  0.74812600  0.80566000  1
  O  O41  1  0.26125200  0.22980500  0.97324400  1
  O  O42  1  0.25232700  0.77075900  0.91573600  1
  O  O43  1  0.78717600  0.27822100  0.91093900  1
  O  O44  1  0.26477400  0.72505200  0.97751700  1
  O  O45  1  0.76019400  0.23984600  0.96986200  1
  O  O46  1  0.72953300  0.75711500  0.91921300  1
loop_
_geom_bond_atom_site_label_1
_geom_bond_atom_site_label_2
_geom_bond_distance
_geom_bond_site_symmetry_2
Fe0 O45 1.861213 1_555
Fe0 O44 1.935752 1_645
Fe0 O4 1.981950 1_546
Fe0 O2 1.982860 1_556
Fe0 O41 2.002896 1_655
Fe1 O3 1.861154 1_555
Fe1 O1 1.935707 1_555
Fe1 O4 1.981879 1_555
Fe1 O2 1.983013 1_555
Fe1 O0 2.002986 1_555
Fe2 O3 1.946866 1_455
Fe2 O9 1.972458 1_445
Fe2 O5 2.009900 1_545
Fe2 O0 2.012424 1_555
Fe2 O1 2.063480 1_545
Fe2 O6 2.107164 1_455
Fe3 O9 1.856333 1_555
Fe3 O6 1.930758 1_555
Fe3 O7 1.985214 1_555
Fe3 O5 1.989497 1_555
Fe3 O8 2.010138 1_555
Fe4 O19 1.833133 1_555
Fe4 O17 1.974725 1_565
Fe4 O15 1.976577 1_655
Fe4 O13 1.998288 1_565
Fe4 O11 1.999021 1_655
Fe5 O14 1.840555 1_555
Fe5 O8 1.957911 1_565
Fe5 O7 1.983582 1_655
Fe5 O10 1.994684 1_655
Fe5 O12 2.000383 1_565
Fe6 O14 1.835850 1_555
Fe6 O12 1.972603 1_555
Fe6 O11 1.986045 1_555
Fe6 O10 1.991059 1_555
Fe6 O13 1.995856 1_555
Fe7 O19 1.842088 1_555
Fe7 O16 1.959353 1_555
Fe7 O18 1.965060 1_555
Fe7 O17 2.004775 1_555
Fe7 O15 2.016080 1_555
Fe8 O26 1.850630 1_555
Fe8 O23 1.943485 1_565
Fe8 O21 1.946950 1_655
Fe8 O16 2.002071 1_655
Fe8 O18 2.009334 1_565
Fe9 O34 1.842061 1_555
Fe9 O28 1.959376 1_655
Fe9 O29 1.965088 1_565
Fe9 O32 2.004801 1_565
Fe9 O31 2.016019 1_655
Fe10 O30 1.958005 1_555
Fe10 O22 1.972973 1_655
Fe10 O24 1.978339 1_565
Fe10 O20 2.000245 1_665
Fe10 O27 2.057271 1_565
Fe10 O25 2.065370 1_655
Fe11 O26 1.957944 1_555
Fe11 O22 1.972965 1_555
Fe11 O24 1.978307 1_555
Fe11 O20 2.000277 1_555
Fe11 O23 2.057244 1_555
Fe11 O21 2.065430 1_555
Fe12 O30 1.850643 1_555
Fe12 O27 1.943470 1_555
Fe12 O25 1.946988 1_555
Fe12 O28 2.002036 1_555
Fe12 O29 2.009335 1_555
Fe13 O34 1.833157 1_555
Fe13 O32 1.974724 1_555
Fe13 O31 1.976611 1_555
Fe13 O35 1.998268 1_555
Fe13 O33 1.998978 1_555
Fe14 O40 1.835844 1_555
Fe14 O38 1.972665 1_565
Fe14 O33 1.985962 1_655
Fe14 O36 1.991027 1_655
Fe14 O35 1.995856 1_565
Fe15 O40 1.840662 1_555
Fe15 O39 1.957932 1_555
Fe15 O37 1.983650 1_555
Fe15 O36 1.994660 1_555
Fe15 O38 2.000262 1_555
Fe16 O46 1.856454 1_555
Fe16 O43 1.930633 1_565
Fe16 O37 1.985339 1_655
Fe16 O42 1.989397 1_655
Fe16 O39 2.010310 1_565
Fe17 O45 1.946974 1_555
Fe17 O46 1.972388 1_555
Fe17 O42 2.009868 1_555
Fe17 O41 2.012447 1_555
Fe17 O44 2.063545 1_555
Fe17 O43 2.107175 1_555
O0 Sr1 2.706355 1_555
O0 Sr2 2.753035 1_455
O0 Sr0 2.773784 1_555
O0 Sr2 2.858387 1_545
O1 Sr0 2.617035 1_565
O1 Sr2 2.731505 1_455
O1 Sr1 2.923569 1_555
O1 Sr2 2.933052 1_555
O2 Sr0 2.817361 1_555
O2 Sr0 2.817367 1_655
O2 Sr2 2.863622 1_545
O2 Sr17 2.863652 1_554
O3 Sr1 2.640610 1_555
O3 Sr2 2.719175 1_555
O3 Sr0 2.896343 1_655
O3 Sr2 2.911916 1_545
O4 Sr0 2.803066 1_655
O4 Sr0 2.803134 1_565
O4 Sr2 2.839313 1_555
O4 Sr17 2.839405 1_554
O5 Sr4 2.683871 1_455
O5 Sr1 2.743448 1_555
O5 Sr2 2.755924 1_555
O5 Sr1 2.896618 1_565
O6 Sr4 2.514848 1_545
O6 Sr1 2.730411 1_555
O6 Sr1 2.950846 1_655
O6 Sr2 2.992912 1_555
O7 Sr3 2.807586 1_555
O7 Sr4 2.812360 1_455
O7 Sr4 2.825678 1_555
O7 Sr1 2.901666 1_565
O8 Sr4 2.738624 1_555
O8 Sr3 2.789899 1_555
O8 Sr1 2.897250 1_655
O8 Sr4 2.897841 1_545
O9 Sr2 2.673526 1_555
O9 Sr1 2.715591 1_655
O9 Sr4 2.795984 1_555
O9 Sr1 2.890947 1_565
O10 Sr3 2.791586 1_555
O10 Sr7 2.821221 1_455
O10 Sr3 2.839035 1_565
O10 Sr4 2.904366 1_555
O11 Sr7 2.810781 1_455
O11 Sr7 2.824168 1_555
O11 Sr3 2.826557 1_565
O11 Sr5 2.861579 1_555
O12 Sr7 2.794310 1_545
O12 Sr3 2.812235 1_555
O12 Sr3 2.823553 1_655
O12 Sr4 2.935820 1_555
O13 Sr7 2.801921 1_555
O13 Sr3 2.816659 1_655
O13 Sr7 2.828784 1_545
O13 Sr5 2.858962 1_555
O14 Sr3 2.795210 1_565
O14 Sr7 2.810475 1_555
O14 Sr3 2.811064 1_655
O14 Sr4 2.892563 1_555
O15 Sr7 2.751586 1_555
O15 Sr5 2.772971 1_565
O15 Sr5 2.860128 1_555
O15 Sr8 2.952800 1_455
O16 Sr5 2.754400 1_565
O16 Sr8 2.786716 1_455
O16 Sr8 2.855635 1_555
O16 Sr6 2.980536 1_555
O17 Sr7 2.762067 1_555
O17 Sr5 2.776133 1_655
O17 Sr5 2.860895 1_555
O17 Sr8 2.955336 1_545
O18 Sr5 2.748196 1_655
O18 Sr8 2.788448 1_545
O18 Sr8 2.849636 1_555
O18 Sr6 2.972069 1_555
O19 Sr7 2.776431 1_555
O19 Sr5 2.800540 1_565
O19 Sr5 2.806670 1_655
O19 Sr8 2.916980 1_555
O20 Sr6 2.652315 1_555
O20 Sr9 2.652327 1_555
O20 Sr10 2.803086 1_455
O20 Sr10 2.803114 1_545
O21 Sr8 2.555899 1_555
O21 Sr6 2.709518 1_565
O21 Sr6 2.963399 1_555
O21 Sr10 2.965994 1_455
O22 Sr9 2.669221 1_555
O22 Sr6 2.669289 1_565
O22 Sr10 2.817339 1_555
O22 Sr10 2.817389 1_455
O23 Sr8 2.559069 1_555
O23 Sr6 2.712985 1_655
O23 Sr6 2.964846 1_555
O23 Sr10 2.975981 1_545
O24 Sr6 2.663776 1_655
O24 Sr9 2.663779 1_555
O24 Sr10 2.815216 1_545
O24 Sr10 2.815272 1_555
O25 Sr12 2.555912 1_455
O25 Sr9 2.709582 1_555
O25 Sr9 2.963347 1_565
O25 Sr10 2.966053 1_555
O26 Sr10 2.717337 1_555
O26 Sr8 2.774427 1_555
O26 Sr6 2.802208 1_565
O26 Sr6 2.806956 1_655
O27 Sr12 2.559086 1_545
O27 Sr9 2.712947 1_555
O27 Sr9 2.964892 1_655
O27 Sr10 2.975996 1_555
O28 Sr11 2.754349 1_555
O28 Sr12 2.786707 1_555
O28 Sr12 2.855647 1_455
O28 Sr9 2.980618 1_565
O29 Sr11 2.748218 1_555
O29 Sr12 2.788459 1_555
O29 Sr12 2.849625 1_545
O29 Sr9 2.972103 1_655
O30 Sr10 2.717350 1_555
O30 Sr12 2.774410 1_555
O30 Sr9 2.802252 1_655
O30 Sr9 2.806915 1_565
O31 Sr15 2.751605 1_455
O31 Sr11 2.772955 1_555
O31 Sr11 2.860145 1_565
O31 Sr12 2.952779 1_555
O32 Sr15 2.762073 1_545
O32 Sr11 2.776128 1_555
O32 Sr11 2.860901 1_655
O32 Sr12 2.955370 1_555
O33 Sr15 2.810840 1_555
O33 Sr15 2.824109 1_455
O33 Sr13 2.826571 1_555
O33 Sr11 2.861571 1_565
O34 Sr15 2.776409 1_555
O34 Sr11 2.800543 1_655
O34 Sr11 2.806669 1_565
O34 Sr12 2.917067 1_555
O35 Sr15 2.801915 1_545
O35 Sr13 2.816651 1_555
O35 Sr15 2.828789 1_555
O35 Sr11 2.858947 1_655
O36 Sr13 2.791538 1_565
O36 Sr15 2.821109 1_555
O36 Sr13 2.839084 1_555
O36 Sr16 2.904458 1_455
O37 Sr13 2.807611 1_565
O37 Sr16 2.812384 1_555
O37 Sr16 2.825657 1_455
O37 Sr14 2.901733 1_555
O38 Sr15 2.794291 1_555
O38 Sr13 2.812261 1_655
O38 Sr13 2.823528 1_555
O38 Sr16 2.935848 1_545
O39 Sr16 2.738584 1_545
O39 Sr13 2.789869 1_655
O39 Sr14 2.897384 1_555
O39 Sr16 2.897889 1_555
O40 Sr13 2.795235 1_655
O40 Sr15 2.810542 1_555
O40 Sr13 2.811038 1_565
O40 Sr16 2.892510 1_555
O41 Sr14 2.706297 1_555
O41 Sr17 2.753089 1_545
O41 Sr0 2.773672 1_556
O41 Sr17 2.858335 1_455
O42 Sr16 2.683906 1_555
O42 Sr14 2.743492 1_565
O42 Sr17 2.755905 1_455
O42 Sr14 2.896579 1_555
O43 Sr16 2.514765 1_555
O43 Sr14 2.730412 1_655
O43 Sr14 2.950897 1_555
O43 Sr17 2.993028 1_545
O44 Sr0 2.617032 1_556
O44 Sr17 2.731449 1_555
O44 Sr14 2.923470 1_565
O44 Sr17 2.933098 1_455
O45 Sr14 2.640563 1_655
O45 Sr17 2.719218 1_545
O45 Sr0 2.896256 1_556
O45 Sr17 2.911869 1_555
O46 Sr17 2.673563 1_555
O46 Sr14 2.715584 1_565
O46 Sr16 2.795911 1_555
O46 Sr14 2.890957 1_655
