# generated using pymatgen
data_Li4(CoO2)7
_symmetry_space_group_name_H-M   'P 1'
_cell_length_a   6.10206200
_cell_length_b   6.74610624
_cell_length_c   7.44736749
_cell_angle_alpha   103.99828012
_cell_angle_beta   110.06142647
_cell_angle_gamma   109.20287487
_symmetry_Int_Tables_number   1
_chemical_formula_structural   Li4(CoO2)7
_chemical_formula_sum   'Li4 Co7 O14'
_cell_volume   249.25870272
_cell_formula_units_Z   1
loop_
 _symmetry_equiv_pos_site_id
 _symmetry_equiv_pos_as_xyz
  1  'x, y, z'
loop_
 _atom_site_type_symbol
 _atom_site_label
 _atom_site_symmetry_multiplicity
 _atom_site_fract_x
 _atom_site_fract_y
 _atom_site_fract_z
 _atom_site_occupancy
  Li  Li0  1  0.58381100  0.58465600  0.85409000  1
  Li  Li1  1  0.20634200  0.15489400  0.95826700  1
  Li  Li2  1  0.07656600  0.13030400  0.46579500  1
  Li  Li3  1  0.62090400  0.68051100  0.33617400  1
  Co  Co0  1  0.06931500  0.57107000  0.85703000  1
  Co  Co1  1  0.64201300  0.13969700  0.71315300  1
  Co  Co2  1  0.21795900  0.71680000  0.57347800  1
  Co  Co3  1  0.77095800  0.29354900  0.42741600  1
  Co  Co4  1  0.34419100  0.86305500  0.27990400  1
  Co  Co5  1  0.92782700  0.43036200  0.14326600  1
  Co  Co6  1  0.51032100  0.99573200  0.00292100  1
  O  O0  1  0.99609300  0.30929800  0.92460800  1
  O  O1  1  0.56902900  0.86968600  0.77544300  1
  O  O2  1  0.13959300  0.44898000  0.63408100  1
  O  O3  1  0.57328100  0.26406700  0.93640000  1
  O  O4  1  0.70937100  0.02540400  0.48435700  1
  O  O5  1  0.15382600  0.83743300  0.79443000  1
  O  O6  1  0.28097900  0.60056300  0.34786800  1
  O  O7  1  0.70808400  0.40550000  0.65054900  1
  O  O8  1  0.86103400  0.17592300  0.21984900  1
  O  O9  1  0.28460200  0.97733400  0.50952200  1
  O  O10  1  0.42884700  0.73145700  0.06726400  1
  O  O11  1  0.86057500  0.55564300  0.36559000  1
  O  O12  1  0.42599000  0.12495700  0.21491900  1
  O  O13  1  0.98491300  0.68455800  0.07076900  1
loop_
_geom_bond_atom_site_label_1
_geom_bond_atom_site_label_2
_geom_bond_distance
_geom_bond_site_symmetry_2
Li0 O1 2.161302 1_555
Li0 O13 2.174356 1_556
Li0 O7 2.199719 1_555
Li0 O10 2.297971 1_556
Li0 O2 2.337813 1_555
Li0 O3 2.373659 1_555
Li1 O0 1.891709 1_455
Li1 O12 2.024313 1_556
Li1 O5 2.047957 1_545
Li1 O3 2.192219 1_555
Li2 O9 1.877019 1_545
Li2 O8 2.016347 1_455
Li2 O2 2.040174 1_555
Li2 O4 2.181090 1_455
Li3 O11 1.891122 1_555
Li3 O6 2.002920 1_555
Li3 O4 2.108459 1_565
Li3 O10 2.118969 1_555
Co0 O13 1.901959 1_456
Co0 O0 1.907005 1_455
Co0 O5 1.916462 1_555
Co0 O2 1.917914 1_555
Co0 O7 1.922235 1_455
Co0 O10 1.922908 1_556
Co1 O9 1.900510 1_545
Co1 O0 1.903972 1_555
Co1 O7 1.911309 1_555
Co1 O3 1.918101 1_555
Co1 O4 1.928773 1_555
Co1 O1 1.936072 1_545
Co2 O1 1.871037 1_555
Co2 O5 1.877918 1_555
Co2 O9 1.883897 1_555
Co2 O6 1.894752 1_555
Co2 O11 1.909044 1_455
Co2 O2 1.915962 1_555
Co3 O12 1.870283 1_555
Co3 O7 1.870787 1_555
Co3 O11 1.888869 1_555
Co3 O8 1.896778 1_555
Co3 O4 1.904350 1_555
Co3 O2 1.954668 1_655
Co4 O12 1.898496 1_565
Co4 O9 1.903689 1_555
Co4 O6 1.912835 1_555
Co4 O13 1.922402 1_455
Co4 O4 1.934810 1_565
Co4 O10 1.935348 1_555
Co5 O13 1.880823 1_555
Co5 O0 1.880979 1_554
Co5 O6 1.886047 1_655
Co5 O3 1.895571 1_554
Co5 O8 1.900149 1_555
Co5 O11 1.908262 1_555
Co6 O8 1.906361 1_565
Co6 O5 1.906789 1_554
Co6 O1 1.908203 1_554
Co6 O10 1.910219 1_555
Co6 O12 1.924604 1_565
Co6 O3 1.943411 1_564
