# generated using pymatgen
data_Zn3In2O6
_symmetry_space_group_name_H-M   'P 1'
_cell_length_a   5.89610100
_cell_length_b   6.81513921
_cell_length_c   14.44803049
_cell_angle_alpha   96.68681706
_cell_angle_beta   93.99929772
_cell_angle_gamma   89.96582500
_symmetry_Int_Tables_number   1
_chemical_formula_structural   Zn3In2O6
_chemical_formula_sum   'Zn12 In8 O24'
_cell_volume   575.19160066
_cell_formula_units_Z   4
loop_
 _symmetry_equiv_pos_site_id
 _symmetry_equiv_pos_as_xyz
  1  'x, y, z'
loop_
 _atom_site_type_symbol
 _atom_site_label
 _atom_site_symmetry_multiplicity
 _atom_site_fract_x
 _atom_site_fract_y
 _atom_site_fract_z
 _atom_site_occupancy
  Zn  Zn0  1  0.93308600  0.89846700  0.59524900  1
  Zn  Zn1  1  0.87380500  0.80633200  0.21445200  1
  Zn  Zn2  1  0.92969700  0.39760700  0.59229100  1
  Zn  Zn3  1  0.86587700  0.30051500  0.21537500  1
  Zn  Zn4  1  0.63213300  0.44205700  0.78576800  1
  Zn  Zn5  1  0.56762100  0.34393800  0.39653000  1
  Zn  Zn6  1  0.36584800  0.05782700  0.21326400  1
  Zn  Zn7  1  0.63104800  0.95168500  0.78802500  1
  Zn  Zn8  1  0.43696700  0.64841600  0.59585600  1
  Zn  Zn9  1  0.37039200  0.54935600  0.21382000  1
  Zn  Zn10  1  0.12961300  0.19659300  0.78562700  1
  Zn  Zn11  1  0.06669100  0.10477300  0.39651400  1
  In  In0  1  0.99970600  0.00292700  0.00252700  1
  In  In1  1  0.99879800  0.49823900  0.00231000  1
  In  In2  1  0.42821600  0.15263300  0.59327000  1
  In  In3  1  0.49953600  0.24997600  0.99961400  1
  In  In4  1  0.56831700  0.85680200  0.40507200  1
  In  In5  1  0.50287200  0.75059500  0.00242300  1
  In  In6  1  0.13026100  0.69417700  0.77866500  1
  In  In7  1  0.06717800  0.59338100  0.40737300  1
  O  O0  1  0.94994700  0.94368200  0.74563100  1
  O  O1  1  0.91711500  0.86525900  0.42410100  1
  O  O2  1  0.84872400  0.76851000  0.07486600  1
  O  O3  1  0.95302600  0.42867900  0.74656300  1
  O  O4  1  0.89409200  0.34399400  0.42586500  1
  O  O5  1  0.84362900  0.26871100  0.07539300  1
  O  O6  1  0.65415700  0.48236100  0.92601300  1
  O  O7  1  0.45595500  0.18537400  0.74765600  1
  O  O8  1  0.60261900  0.40551800  0.58097600  1
  O  O9  1  0.39542100  0.11940500  0.43142500  1
  O  O10  1  0.54121300  0.31108000  0.25283700  1
  O  O11  1  0.34565900  0.01797500  0.07398000  1
  O  O12  1  0.65514400  0.98113000  0.92688200  1
  O  O13  1  0.47096600  0.68908400  0.74642400  1
  O  O14  1  0.59937400  0.88529800  0.56767000  1
  O  O15  1  0.41418400  0.59501100  0.42362900  1
  O  O16  1  0.54177200  0.81523400  0.25323900  1
  O  O17  1  0.34551500  0.51885900  0.07420900  1
  O  O18  1  0.15432500  0.73194500  0.92646300  1
  O  O19  1  0.09914500  0.64444300  0.57852600  1
  O  O20  1  0.04191000  0.56199400  0.25372400  1
  O  O21  1  0.15314400  0.23139800  0.92596700  1
  O  O22  1  0.08111400  0.14481600  0.58119100  1
  O  O23  1  0.04419100  0.06394500  0.25274500  1
loop_
_geom_bond_atom_site_label_1
_geom_bond_atom_site_label_2
_geom_bond_distance
_geom_bond_site_symmetry_2
In0 O11 2.217840 1_655
In0 O5 2.219287 1_555
In0 O2 2.226527 1_545
In0 O12 2.235323 1_544
In0 O21 2.238039 1_654
In0 O18 2.261534 1_644
In1 O5 2.218109 1_555
In1 O17 2.224422 1_655
In1 O2 2.225392 1_555
In1 O6 2.239659 1_554
In1 O21 2.241172 1_654
In1 O18 2.264280 1_654
In2 O8 2.039141 1_555
In2 O22 2.042009 1_555
In2 O14 2.089872 1_545
In2 O7 2.210258 1_555
In2 O9 2.317364 1_555
In3 O21 2.232775 1_555
In3 O12 2.233194 1_545
In3 O5 2.233604 1_556
In3 O6 2.235911 1_555
In3 O11 2.238487 1_556
In3 O17 2.240268 1_556
In4 O1 2.055695 1_555
In4 O15 2.056273 1_555
In4 O9 2.068909 1_565
In4 O16 2.173580 1_555
In4 O14 2.328921 1_555
In5 O2 2.222942 1_555
In5 O11 2.222957 1_565
In5 O17 2.224452 1_555
In5 O12 2.236830 1_554
In5 O6 2.240894 1_554
In5 O18 2.257683 1_554
In6 O3 2.078531 1_455
In6 O0 2.089388 1_455
In6 O13 2.092910 1_555
In6 O18 2.115668 1_555
In7 O4 2.036513 1_455
In7 O15 2.042969 1_555
In7 O1 2.048910 1_455
In7 O20 2.199850 1_555
In7 O19 2.450744 1_555
O0 Zn7 2.016499 1_555
O0 Zn10 2.027761 1_665
O0 Zn0 2.153962 1_555
O1 Zn11 1.950225 1_665
O1 Zn0 2.451898 1_555
O2 Zn1 1.998235 1_555
O3 Zn10 2.007069 1_655
O3 Zn4 2.011504 1_555
O3 Zn2 2.208897 1_555
O4 Zn11 1.941812 1_655
O4 Zn5 1.941922 1_555
O4 Zn2 2.384199 1_555
O5 Zn3 2.003868 1_555
O6 Zn4 2.007929 1_555
O7 Zn7 2.018115 1_545
O7 Zn4 2.034809 1_555
O7 Zn10 2.036283 1_555
O8 Zn8 1.919620 1_555
O8 Zn2 1.925263 1_555
O9 Zn11 1.968051 1_555
O9 Zn5 1.969655 1_555
O10 Zn6 2.016126 1_555
O10 Zn3 2.024298 1_555
O10 Zn9 2.025148 1_555
O10 Zn5 2.056984 1_555
O11 Zn6 1.994228 1_555
O12 Zn7 1.987927 1_555
O13 Zn7 2.031600 1_555
O13 Zn4 2.050848 1_555
O13 Zn8 2.155977 1_555
O14 Zn8 1.974425 1_555
O14 Zn0 1.980100 1_555
O15 Zn5 1.947084 1_555
O15 Zn8 2.466753 1_555
O16 Zn6 2.068739 1_565
O16 Zn1 2.072507 1_555
O16 Zn9 2.076132 1_555
O17 Zn9 1.998638 1_555
O19 Zn0 1.986873 1_455
O19 Zn8 1.989910 1_555
O19 Zn2 1.993796 1_455
O20 Zn1 2.053499 1_455
O20 Zn9 2.057876 1_555
O20 Zn3 2.062008 1_455
O21 Zn10 2.008884 1_555
O22 Zn0 1.930704 1_445
O22 Zn2 1.935100 1_455
O23 Zn6 2.017222 1_555
O23 Zn1 2.023877 1_445
O23 Zn3 2.029228 1_455
O23 Zn11 2.058324 1_555
