# generated using pymatgen
data_K3Cu2P4HO14
_symmetry_space_group_name_H-M   'P 1'
_cell_length_a   5.26174534
_cell_length_b   5.52086112
_cell_length_c   12.69132558
_cell_angle_alpha   90.60332849
_cell_angle_beta   100.43952077
_cell_angle_gamma   117.17330494
_symmetry_Int_Tables_number   1
_chemical_formula_structural   K3Cu2P4HO14
_chemical_formula_sum   'K3 Cu2 P4 H1 O14'
_cell_volume   320.71628842
_cell_formula_units_Z   1
loop_
 _symmetry_equiv_pos_site_id
 _symmetry_equiv_pos_as_xyz
  1  'x, y, z'
loop_
 _atom_site_type_symbol
 _atom_site_label
 _atom_site_symmetry_multiplicity
 _atom_site_fract_x
 _atom_site_fract_y
 _atom_site_fract_z
 _atom_site_occupancy
  K  K0  1  0.00000000  0.00000000  0.50000000  1
  K  K1  1  0.79731839  0.15020784  0.93657988  1
  K  K2  1  0.20268161  0.84979216  0.06342012  1
  Cu  Cu0  1  0.02782772  0.77350505  0.77991242  1
  Cu  Cu1  1  0.97217228  0.22649495  0.22008758  1
  P  P0  1  0.41371867  0.46904114  0.84100593  1
  P  P1  1  0.58628133  0.53095886  0.15899407  1
  P  P2  1  0.44066977  0.70974734  0.64811729  1
  P  P3  1  0.55933023  0.29025266  0.35188271  1
  H  H0  1  0.50000000  0.50000000  0.50000000  1
  O  O0  1  0.34653403  0.43818261  0.71063031  1
  O  O1  1  0.65346597  0.56181739  0.28936969  1
  O  O2  1  0.74749767  0.62512155  0.87675294  1
  O  O3  1  0.25250233  0.37487845  0.12324706  1
  O  O4  1  0.27097935  0.63804210  0.87321484  1
  O  O5  1  0.72902065  0.36195790  0.12678516  1
  O  O6  1  0.28758716  0.18666961  0.87625868  1
  O  O7  1  0.71241284  0.81333039  0.12374132  1
  O  O8  1  0.76617687  0.88798827  0.69030574  1
  O  O9  1  0.23382313  0.11201173  0.30969426  1
  O  O10  1  0.25736354  0.84295699  0.66928271  1
  O  O11  1  0.74263646  0.15704301  0.33071729  1
  O  O12  1  0.36688992  0.60573539  0.52916980  1
  O  O13  1  0.63311008  0.39426461  0.47083020  1
loop_
_geom_bond_atom_site_label_1
_geom_bond_atom_site_label_2
_geom_bond_distance
_geom_bond_site_symmetry_2
K0 O10 2.694161 1_545
K0 O11 2.694161 1_455
K0 O9 2.853567 1_555
K0 O8 2.853567 1_445
K1 O6 2.743342 1_655
K1 O6 2.751800 1_555
K1 O5 2.821640 1_556
K1 O3 2.838263 1_656
K1 O2 2.849094 1_555
K1 O2 2.869918 1_545
K1 O4 2.881741 1_545
K1 O4 2.958539 1_655
K1 O7 3.003251 1_546
K2 O7 2.743342 1_455
K2 O7 2.751800 1_555
K2 O4 2.821640 1_554
K2 O2 2.838263 1_454
K2 O3 2.849094 1_555
K2 O3 2.869918 1_565
K2 O5 2.881741 1_565
K2 O5 2.958539 1_455
K2 O6 3.003251 1_564
Cu0 O10 1.944200 1_555
Cu0 O8 1.957219 1_455
Cu0 O2 1.982885 1_455
Cu0 O4 1.985425 1_555
Cu0 O6 2.248188 1_565
Cu1 O11 1.944200 1_555
Cu1 O9 1.957219 1_655
Cu1 O3 1.982885 1_655
Cu1 O5 1.985425 1_555
Cu1 O7 2.248188 1_545
H0 O12 1.196332 1_555
H0 O13 1.196332 1_555
O0 P2 1.616099 1_555
O0 P0 1.618303 1_555
O1 P3 1.616099 1_555
O1 P1 1.618303 1_555
O2 P0 1.534131 1_555
O3 P1 1.534131 1_555
O4 P0 1.531342 1_555
O5 P1 1.531342 1_555
O6 P0 1.499404 1_555
O7 P1 1.499404 1_555
O8 P2 1.518441 1_555
O9 P3 1.518441 1_555
O10 P2 1.510267 1_555
O11 P3 1.510267 1_555
O12 P2 1.524829 1_555
O13 P3 1.524829 1_555
