# generated using pymatgen
data_Tl7Sb2
_symmetry_space_group_name_H-M   'P 1'
_cell_length_a   10.28432372
_cell_length_b   10.28432504
_cell_length_c   10.28432308
_cell_angle_alpha   109.47121888
_cell_angle_beta   109.47122148
_cell_angle_gamma   109.47122317
_symmetry_Int_Tables_number   1
_chemical_formula_structural   Tl7Sb2
_chemical_formula_sum   'Tl21 Sb6'
_cell_volume   837.34676098
_cell_formula_units_Z   3
loop_
 _symmetry_equiv_pos_site_id
 _symmetry_equiv_pos_as_xyz
  1  'x, y, z'
loop_
 _atom_site_type_symbol
 _atom_site_label
 _atom_site_symmetry_multiplicity
 _atom_site_fract_x
 _atom_site_fract_y
 _atom_site_fract_z
 _atom_site_occupancy
  Tl  Tl0  1  -0.00000000  0.35314986  0.64685014  1
  Tl  Tl1  1  0.70629772  0.35314986  0.35314986  1
  Tl  Tl2  1  0.66051900  0.66051900  0.66051900  1
  Tl  Tl3  1  0.00000000  0.64685014  0.35314986  1
  Tl  Tl4  1  0.00000000  0.00000000  0.66051900  1
  Tl  Tl5  1  0.35314986  0.35314986  0.70629772  1
  Tl  Tl6  1  0.33948100  -0.00000000  -0.00000000  1
  Tl  Tl7  1  0.64685014  -0.00000000  0.35314986  1
  Tl  Tl8  1  0.66051900  0.00000000  0.00000000  1
  Tl  Tl9  1  0.35314986  0.00000000  0.64685014  1
  Tl  Tl10  1  -0.00000000  -0.00000000  0.33948100  1
  Tl  Tl11  1  0.64685014  0.64685014  0.29370228  1
  Tl  Tl12  1  0.35314986  0.64685014  0.00000000  1
  Tl  Tl13  1  0.00000000  0.33948100  0.00000000  1
  Tl  Tl14  1  -0.00000000  0.66051900  -0.00000000  1
  Tl  Tl15  1  0.00000000  0.00000000  0.00000000  1
  Tl  Tl16  1  0.64685014  0.35314986  -0.00000000  1
  Tl  Tl17  1  0.29370228  0.64685014  0.64685014  1
  Tl  Tl18  1  0.64685014  0.29370228  0.64685014  1
  Tl  Tl19  1  0.35314986  0.70629772  0.35314986  1
  Tl  Tl20  1  0.33948100  0.33948100  0.33948100  1
  Sb  Sb0  1  -0.00000000  0.69726457  0.69726457  1
  Sb  Sb1  1  0.00000000  0.30273543  0.30273543  1
  Sb  Sb2  1  0.30273543  0.00000000  0.30273543  1
  Sb  Sb3  1  0.30273543  0.30273543  -0.00000000  1
  Sb  Sb4  1  0.69726457  -0.00000000  0.69726457  1
  Sb  Sb5  1  0.69726457  0.69726457  0.00000000  1
loop_
_geom_bond_atom_site_label_1
_geom_bond_atom_site_label_2
_geom_bond_distance
_geom_bond_site_symmetry_2
Tl10 Tl15 3.491332 1_555
Tl13 Tl15 3.491333 1_555
Tl14 Tl15 3.491333 1_565
Tl15 Tl4 3.491332 1_554
Tl15 Tl20 3.491332 1_555
Tl15 Tl2 3.491332 1_444
Tl15 Tl6 3.491332 1_555
Tl15 Tl8 3.491332 1_455
Sb0 Tl14 3.258931 1_556
Sb0 Tl6 3.258932 1_566
Sb0 Tl2 3.258932 1_455
Sb0 Tl4 3.258932 1_565
Sb0 Tl3 3.401469 1_555
Sb0 Tl0 3.401469 1_555
Sb0 Tl1 3.401473 1_455
Sb0 Tl17 3.401489 1_555
Sb0 Tl15 3.595079 1_566
Sb1 Tl13 3.258931 1_555
Sb1 Tl8 3.258932 1_455
Sb1 Tl20 3.258932 1_555
Sb1 Tl10 3.258932 1_555
Sb1 Tl0 3.401469 1_555
Sb1 Tl3 3.401469 1_555
Sb1 Tl17 3.401473 1_555
Sb1 Tl1 3.401489 1_455
Sb1 Tl15 3.595079 1_555
Sb2 Tl6 3.258931 1_555
Sb2 Tl10 3.258932 1_555
Sb2 Tl14 3.258932 1_545
Sb2 Tl20 3.258932 1_555
Sb2 Tl9 3.401469 1_555
Sb2 Tl7 3.401469 1_555
Sb2 Tl18 3.401473 1_555
Sb2 Tl19 3.401490 1_545
Sb2 Tl15 3.595078 1_555
Sb3 Tl20 3.258931 1_555
Sb3 Tl4 3.258932 1_554
Sb3 Tl13 3.258932 1_555
Sb3 Tl6 3.258932 1_555
Sb3 Tl16 3.401469 1_555
Sb3 Tl12 3.401469 1_555
Sb3 Tl11 3.401473 1_555
Sb3 Tl5 3.401489 1_554
Sb3 Tl15 3.595078 1_555
Sb4 Tl8 3.258931 1_556
Sb4 Tl4 3.258932 1_655
Sb4 Tl13 3.258932 1_656
Sb4 Tl2 3.258932 1_545
Sb4 Tl7 3.401469 1_555
Sb4 Tl9 3.401469 1_555
Sb4 Tl19 3.401473 1_545
Sb4 Tl18 3.401490 1_555
Sb4 Tl15 3.595078 1_656
Sb5 Tl2 3.258931 1_554
Sb5 Tl10 3.258932 1_665
Sb5 Tl14 3.258932 1_655
Sb5 Tl8 3.258932 1_565
Sb5 Tl12 3.401469 1_555
Sb5 Tl16 3.401469 1_555
Sb5 Tl5 3.401473 1_554
Sb5 Tl11 3.401489 1_555
Sb5 Tl15 3.595078 1_665
