# generated using pymatgen
data_U2Tl2Mo3O16
_symmetry_space_group_name_H-M   'P 1'
_cell_length_a   8.41481600
_cell_length_b   9.87165600
_cell_length_c   20.40551500
_cell_angle_alpha   90.00000000
_cell_angle_beta   90.00000000
_cell_angle_gamma   90.00000000
_symmetry_Int_Tables_number   1
_chemical_formula_structural   U2Tl2Mo3O16
_chemical_formula_sum   'U8 Tl8 Mo12 O64'
_cell_volume   1695.04876560
_cell_formula_units_Z   4
loop_
 _symmetry_equiv_pos_site_id
 _symmetry_equiv_pos_as_xyz
  1  'x, y, z'
loop_
 _atom_site_type_symbol
 _atom_site_label
 _atom_site_symmetry_multiplicity
 _atom_site_fract_x
 _atom_site_fract_y
 _atom_site_fract_z
 _atom_site_occupancy
  U  U0  1  0.32588400  0.67513900  0.52371800  1
  U  U1  1  0.82588400  0.17513900  0.97628200  1
  U  U2  1  0.71117100  0.59451900  0.78307700  1
  U  U3  1  0.78882900  0.59451900  0.28307700  1
  U  U4  1  0.67411600  0.17513900  0.47628200  1
  U  U5  1  0.28882900  0.09451900  0.21692300  1
  U  U6  1  0.17411600  0.67513900  0.02371800  1
  U  U7  1  0.21117100  0.09451900  0.71692300  1
  Tl  Tl0  1  0.01875300  0.89202000  0.39402800  1
  Tl  Tl1  1  0.18909400  0.44005600  0.85316600  1
  Tl  Tl2  1  0.68909400  0.94005600  0.64683400  1
  Tl  Tl3  1  0.48124700  0.89202000  0.89402800  1
  Tl  Tl4  1  0.81090600  0.94005600  0.14683400  1
  Tl  Tl5  1  0.51875300  0.39202000  0.10597200  1
  Tl  Tl6  1  0.98124700  0.39202000  0.60597200  1
  Tl  Tl7  1  0.31090600  0.44005600  0.35316600  1
  Mo  Mo0  1  0.26087800  0.06187800  0.03032600  1
  Mo  Mo1  1  0.51159900  0.37475500  0.63447300  1
  Mo  Mo2  1  0.76087800  0.56187800  0.46967400  1
  Mo  Mo3  1  0.42934700  0.73319100  0.19012300  1
  Mo  Mo4  1  0.01159900  0.87475500  0.86552700  1
  Mo  Mo5  1  0.98840100  0.37475500  0.13447300  1
  Mo  Mo6  1  0.23912200  0.06187800  0.53032600  1
  Mo  Mo7  1  0.92934700  0.23319100  0.30987700  1
  Mo  Mo8  1  0.48840100  0.87475500  0.36552700  1
  Mo  Mo9  1  0.57065300  0.23319100  0.80987700  1
  Mo  Mo10  1  0.73912200  0.56187800  0.96967400  1
  Mo  Mo11  1  0.07065300  0.73319100  0.69012300  1
  O  O0  1  0.54687600  0.57702700  0.46665000  1
  O  O1  1  0.37038100  0.98162900  0.31445600  1
  O  O2  1  0.67178600  0.16888800  0.88220500  1
  O  O3  1  0.02107300  0.76899400  0.06702200  1
  O  O4  1  0.62260800  0.77777200  0.31575200  1
  O  O5  1  0.32069700  0.68546400  0.25939900  1
  O  O6  1  0.82973800  0.65012200  0.53785700  1
  O  O7  1  0.62961900  0.48162900  0.68554400  1
  O  O8  1  0.37739200  0.27777200  0.68424800  1
  O  O9  1  0.34473400  0.13509300  0.10542300  1
  O  O10  1  0.37688100  0.15363400  0.80680200  1
  O  O11  1  0.64343900  0.27121200  0.58631300  1
  O  O12  1  0.36864900  0.97405300  0.69606000  1
  O  O13  1  0.87688100  0.65363400  0.69319800  1
  O  O14  1  0.03820900  0.91613300  0.68703400  1
  O  O15  1  0.39250000  0.47387700  0.57955900  1
  O  O16  1  0.86864900  0.47405300  0.80394000  1
  O  O17  1  0.95312400  0.57702700  0.96665000  1
  O  O18  1  0.82453400  0.07474600  0.51890900  1
  O  O19  1  0.68339800  0.38434900  0.98130300  1
  O  O20  1  0.47892700  0.76899400  0.56702200  1
  O  O21  1  0.06294000  0.22299000  0.73517000  1
  O  O22  1  0.45312400  0.07702700  0.53335000  1
  O  O23  1  0.82821400  0.16888800  0.38220500  1
  O  O24  1  0.18339800  0.88434900  0.51869700  1
  O  O25  1  0.67546600  0.07474600  0.01890900  1
  O  O26  1  0.17546600  0.57474600  0.48109100  1
  O  O27  1  0.82069700  0.18546400  0.24060100  1
  O  O28  1  0.13135100  0.97405300  0.19606000  1
  O  O29  1  0.31660200  0.88434900  0.01869700  1
  O  O30  1  0.97892700  0.26899400  0.93297800  1
  O  O31  1  0.32973800  0.15012200  0.96214300  1
  O  O32  1  0.67930300  0.18546400  0.74060100  1
  O  O33  1  0.35656100  0.77121200  0.41368700  1
  O  O34  1  0.17026200  0.15012200  0.46214300  1
  O  O35  1  0.17178600  0.66888800  0.61779500  1
  O  O36  1  0.32821400  0.66888800  0.11779500  1
  O  O37  1  0.62311900  0.65363400  0.19319800  1
  O  O38  1  0.12260800  0.27777200  0.18424800  1
  O  O39  1  0.15526600  0.13509300  0.60542300  1
  O  O40  1  0.89250000  0.97387700  0.92044100  1
  O  O41  1  0.96179100  0.41613300  0.31296600  1
  O  O42  1  0.43706000  0.22299000  0.23517000  1
  O  O43  1  0.93706000  0.72299000  0.26483000  1
  O  O44  1  0.32453400  0.57474600  0.98109100  1
  O  O45  1  0.04687600  0.07702700  0.03335000  1
  O  O46  1  0.52107300  0.26899400  0.43297800  1
  O  O47  1  0.46179100  0.91613300  0.18703400  1
  O  O48  1  0.84473400  0.63509300  0.39457700  1
  O  O49  1  0.12311900  0.15363400  0.30680200  1
  O  O50  1  0.12961900  0.98162900  0.81445600  1
  O  O51  1  0.81660200  0.38434900  0.48130300  1
  O  O52  1  0.60750000  0.97387700  0.42044100  1
  O  O53  1  0.87739200  0.77777200  0.81575200  1
  O  O54  1  0.65526600  0.63509300  0.89457700  1
  O  O55  1  0.85656100  0.27121200  0.08631300  1
  O  O56  1  0.14343900  0.77121200  0.91368700  1
  O  O57  1  0.56294000  0.72299000  0.76483000  1
  O  O58  1  0.87038100  0.48162900  0.18554400  1
  O  O59  1  0.17930300  0.68546400  0.75939900  1
  O  O60  1  0.63135100  0.47405300  0.30394000  1
  O  O61  1  0.67026200  0.65012200  0.03785700  1
  O  O62  1  0.10750000  0.47387700  0.07955900  1
  O  O63  1  0.53820900  0.41613300  0.81296600  1
loop_
_geom_bond_atom_site_label_1
_geom_bond_atom_site_label_2
_geom_bond_distance
_geom_bond_site_symmetry_2
Mo0 O31 1.740786 1_554
Mo0 O45 1.808040 1_555
Mo0 O29 1.829606 1_545
Mo0 O9 1.835352 1_555
Mo1 O7 1.784766 1_555
Mo1 O15 1.793735 1_555
Mo1 O8 1.795432 1_555
Mo1 O11 1.800366 1_555
Mo2 O6 1.740786 1_555
Mo2 O0 1.808040 1_555
Mo2 O51 1.829606 1_555
Mo2 O48 1.835352 1_555
Mo3 O5 1.748190 1_555
Mo3 O37 1.810922 1_555
Mo3 O36 1.818082 1_555
Mo3 O47 1.827547 1_555
Mo4 O50 1.784766 1_555
Mo4 O40 1.793735 1_455
Mo4 O53 1.795432 1_455
Mo4 O56 1.800366 1_555
Mo5 O58 1.784766 1_555
Mo5 O62 1.793735 1_655
Mo5 O38 1.795432 1_655
Mo5 O55 1.800366 1_555
Mo6 O34 1.740786 1_555
Mo6 O22 1.808040 1_555
Mo6 O24 1.829606 1_545
Mo6 O39 1.835352 1_555
Mo7 O27 1.748190 1_555
Mo7 O49 1.810922 1_655
Mo7 O23 1.818082 1_555
Mo7 O41 1.827547 1_555
Mo8 O1 1.784766 1_555
Mo8 O52 1.793735 1_555
Mo8 O4 1.795432 1_555
Mo8 O33 1.800366 1_555
Mo9 O32 1.748190 1_555
Mo9 O10 1.810922 1_555
Mo9 O2 1.818082 1_555
Mo9 O63 1.827547 1_555
Mo10 O61 1.740786 1_556
Mo10 O17 1.808040 1_555
Mo10 O19 1.829606 1_555
Mo10 O54 1.835352 1_555
Mo11 O59 1.748190 1_555
Mo11 O13 1.810922 1_455
Mo11 O35 1.818082 1_555
Mo11 O14 1.827547 1_555
O0 U0 2.398385 1_555
O1 U5 2.381971 1_565
O2 U1 2.317426 1_555
O3 U6 1.815966 1_555
O4 U3 2.381909 1_555
O7 U2 2.381971 1_555
O8 U7 2.381909 1_555
O9 U5 2.357612 1_555
O10 U7 2.376680 1_555
O11 U4 2.450959 1_555
O12 U7 1.830697 1_565
O13 U2 2.376680 1_555
O14 U7 2.364591 1_565
O15 U0 2.357952 1_555
O16 U2 1.830697 1_555
O17 U6 2.398385 1_656
O18 U4 1.827803 1_555
O19 U1 2.390259 1_555
O20 U0 1.815966 1_555
O21 U7 1.817380 1_555
O22 U4 2.398385 1_555
O23 U4 2.317426 1_555
O24 U0 2.390259 1_555
O25 U1 1.827803 1_554
O26 U0 1.827803 1_555
O28 U5 1.830697 1_565
O29 U6 2.390259 1_555
O30 U1 1.815966 1_555
O33 U0 2.450959 1_555
O35 U0 2.317426 1_555
O36 U6 2.317426 1_555
O37 U3 2.376680 1_555
O38 U5 2.381909 1_555
O39 U7 2.357612 1_555
O40 U1 2.357952 1_565
O41 U3 2.364591 1_555
O42 U5 1.817380 1_555
O43 U3 1.817380 1_555
O44 U6 1.827803 1_556
O45 U1 2.398385 1_454
O46 U4 1.815966 1_555
O47 U5 2.364591 1_565
O48 U3 2.357612 1_555
O49 U5 2.376680 1_555
O50 U7 2.381971 1_565
O51 U4 2.390259 1_555
O52 U4 2.357952 1_565
O53 U2 2.381909 1_555
O54 U2 2.357612 1_555
O55 U1 2.450959 1_554
O56 U6 2.450959 1_556
O57 U2 1.817380 1_555
O58 U3 2.381971 1_555
O60 U3 1.830697 1_555
O62 U6 2.357952 1_555
O63 U2 2.364591 1_555
