# generated using pymatgen
data_Li3Bi2(PO4)3
_symmetry_space_group_name_H-M   'P 1'
_cell_length_a   8.87513384
_cell_length_b   8.87513384
_cell_length_c   9.25401976
_cell_angle_alpha   63.64111874
_cell_angle_beta   63.64111874
_cell_angle_gamma   63.32593937
_symmetry_Int_Tables_number   1
_chemical_formula_structural   Li3Bi2(PO4)3
_chemical_formula_sum   'Li6 Bi4 P6 O24'
_cell_volume   555.70615230
_cell_formula_units_Z   2
loop_
 _symmetry_equiv_pos_site_id
 _symmetry_equiv_pos_as_xyz
  1  'x, y, z'
loop_
 _atom_site_type_symbol
 _atom_site_label
 _atom_site_symmetry_multiplicity
 _atom_site_fract_x
 _atom_site_fract_y
 _atom_site_fract_z
 _atom_site_occupancy
  Li  Li0  1  0.10817900  0.89182100  0.25000000  1
  Li  Li1  1  0.53915700  0.82195200  0.21028900  1
  Li  Li2  1  0.82195200  0.53915700  0.71028900  1
  Li  Li3  1  0.46084300  0.17804800  0.78971100  1
  Li  Li4  1  0.17804800  0.46084300  0.28971100  1
  Li  Li5  1  0.89182100  0.10817900  0.75000000  1
  Bi  Bi0  1  0.84747400  0.33751100  0.35691800  1
  Bi  Bi1  1  0.15252600  0.66248900  0.64308200  1
  Bi  Bi2  1  0.33751100  0.84747400  0.85691800  1
  Bi  Bi3  1  0.66248900  0.15252600  0.14308200  1
  P  P0  1  0.75325600  0.95674600  0.57555400  1
  P  P1  1  0.24674400  0.04325400  0.42444600  1
  P  P2  1  0.58251400  0.41748600  0.75000000  1
  P  P3  1  0.95674600  0.75325600  0.07555400  1
  P  P4  1  0.04325400  0.24674400  0.92444600  1
  P  P5  1  0.41748600  0.58251400  0.25000000  1
  O  O0  1  0.92683400  0.17889400  0.89798200  1
  O  O1  1  0.23232300  0.59501900  0.39235500  1
  O  O2  1  0.40498100  0.76767700  0.10764500  1
  O  O3  1  0.76767700  0.40498100  0.60764500  1
  O  O4  1  0.02709700  0.76021900  0.88820800  1
  O  O5  1  0.82110600  0.07316600  0.60201800  1
  O  O6  1  0.76021900  0.02709700  0.38820800  1
  O  O7  1  0.23978100  0.97290300  0.61179200  1
  O  O8  1  0.24093700  0.12775500  0.88200300  1
  O  O9  1  0.97290300  0.23978100  0.11179200  1
  O  O10  1  0.44546100  0.43518200  0.18577400  1
  O  O11  1  0.17889400  0.92683400  0.39798200  1
  O  O12  1  0.56175100  0.97273500  0.70057600  1
  O  O13  1  0.43824900  0.02726500  0.29942400  1
  O  O14  1  0.02726500  0.43824900  0.79942400  1
  O  O15  1  0.55453900  0.56481800  0.81422600  1
  O  O16  1  0.12775500  0.24093700  0.38200300  1
  O  O17  1  0.97273500  0.56175100  0.20057600  1
  O  O18  1  0.87224500  0.75906300  0.61799700  1
  O  O19  1  0.59501900  0.23232300  0.89235500  1
  O  O20  1  0.56481800  0.55453900  0.31422600  1
  O  O21  1  0.43518200  0.44546100  0.68577400  1
  O  O22  1  0.75906300  0.87224500  0.11799700  1
  O  O23  1  0.07316600  0.82110600  0.10201800  1
loop_
_geom_bond_atom_site_label_1
_geom_bond_atom_site_label_2
_geom_bond_distance
_geom_bond_site_symmetry_2
Li0 O23 1.918840 1_555
Li0 O11 1.918840 1_555
Li0 O2 2.343043 1_555
Li0 O1 2.343043 1_555
Li1 O22 1.923862 1_555
Li1 O13 2.004076 1_565
Li1 O20 2.071679 1_555
Li1 O2 2.116152 1_555
Li2 O18 1.923862 1_555
Li2 O14 2.004076 1_655
Li2 O15 2.071679 1_555
Li2 O3 2.116152 1_555
Li3 O8 1.923862 1_555
Li3 O12 2.004076 1_545
Li3 O21 2.071679 1_555
Li3 O19 2.116152 1_555
Li4 O16 1.923862 1_555
Li4 O17 2.004076 1_455
Li4 O10 2.071679 1_555
Li4 O1 2.116152 1_555
Li5 O5 1.918840 1_555
Li5 O0 1.918840 1_555
Li5 O3 2.343043 1_555
Li5 O19 2.343043 1_555
Bi0 O17 2.300262 1_555
Bi0 O16 2.323397 1_655
Bi0 O3 2.374331 1_555
Bi0 O9 2.403143 1_555
Bi0 O5 2.449456 1_555
Bi0 O20 2.454654 1_555
Bi1 O14 2.300262 1_555
Bi1 O18 2.323397 1_455
Bi1 O1 2.374331 1_555
Bi1 O4 2.403143 1_555
Bi1 O11 2.449456 1_555
Bi1 O21 2.454654 1_555
Bi2 O12 2.300262 1_555
Bi2 O8 2.323397 1_565
Bi2 O2 2.374331 1_556
Bi2 O7 2.403143 1_555
Bi2 O23 2.449456 1_556
Bi2 O15 2.454654 1_555
Bi3 O13 2.300262 1_555
Bi3 O22 2.323397 1_545
Bi3 O19 2.374331 1_554
Bi3 O6 2.403143 1_555
Bi3 O0 2.449456 1_554
Bi3 O10 2.454654 1_555
O0 P4 1.550632 1_655
O1 P5 1.578618 1_555
O2 P5 1.578618 1_555
O3 P2 1.578618 1_555
O4 P3 1.541970 1_456
O5 P0 1.550632 1_545
O6 P0 1.541970 1_545
O7 P1 1.541970 1_565
O8 P4 1.562229 1_555
O9 P4 1.541970 1_654
O10 P5 1.546700 1_555
O11 P1 1.550632 1_565
O12 P0 1.559021 1_555
O13 P1 1.559021 1_555
O14 P4 1.559021 1_555
O15 P2 1.546700 1_555
O16 P1 1.562229 1_555
O17 P3 1.559021 1_555
O18 P0 1.562229 1_555
O19 P2 1.578618 1_555
O20 P5 1.546700 1_555
O21 P2 1.546700 1_555
O22 P3 1.562229 1_555
O23 P3 1.550632 1_455
