# generated using pymatgen
data_Tl9SbTe6
_symmetry_space_group_name_H-M   'P 1'
_cell_length_a   8.98508300
_cell_length_b   8.98508300
_cell_length_c   40.67792400
_cell_angle_alpha   90.00000000
_cell_angle_beta   90.00000000
_cell_angle_gamma   90.00000000
_symmetry_Int_Tables_number   1
_chemical_formula_structural   Tl9SbTe6
_chemical_formula_sum   'Tl54 Sb6 Te36'
_cell_volume   3283.99862886
_cell_formula_units_Z   6
loop_
 _symmetry_equiv_pos_site_id
 _symmetry_equiv_pos_as_xyz
  1  'x, y, z'
loop_
 _atom_site_type_symbol
 _atom_site_label
 _atom_site_symmetry_multiplicity
 _atom_site_fract_x
 _atom_site_fract_y
 _atom_site_fract_z
 _atom_site_occupancy
  Tl  Tl0  1  0.14313000  0.65202700  0.11390800  1
  Tl  Tl1  1  0.85241100  0.64606100  0.05239100  1
  Tl  Tl2  1  0.14758900  0.35393900  0.05239100  1
  Tl  Tl3  1  0.85687000  0.34797300  0.11390800  1
  Tl  Tl4  1  0.64648100  0.14629100  0.28094600  1
  Tl  Tl5  1  0.35038000  0.14264500  0.21870200  1
  Tl  Tl6  1  0.64606100  0.14758900  0.05239100  1
  Tl  Tl7  1  0.34797300  0.14313000  0.11390800  1
  Tl  Tl8  1  0.00000000  0.00000000  0.16586100  1
  Tl  Tl9  1  0.64962000  0.85735500  0.21870200  1
  Tl  Tl10  1  0.35351900  0.85370900  0.28094600  1
  Tl  Tl11  1  0.65202700  0.85687000  0.11390800  1
  Tl  Tl12  1  0.35393900  0.85241100  0.05239100  1
  Tl  Tl13  1  0.14472800  0.64919700  0.44759300  1
  Tl  Tl14  1  0.85245900  0.64634600  0.38589100  1
  Tl  Tl15  1  0.14264500  0.64962000  0.21870200  1
  Tl  Tl16  1  0.85370900  0.64648100  0.28094600  1
  Tl  Tl17  1  0.50000000  0.50000000  0.33424700  1
  Tl  Tl18  1  0.14754100  0.35365400  0.38589100  1
  Tl  Tl19  1  0.85527200  0.35080300  0.44759300  1
  Tl  Tl20  1  0.14629100  0.35351900  0.28094600  1
  Tl  Tl21  1  0.85735500  0.35038000  0.21870200  1
  Tl  Tl22  1  0.64634600  0.14754100  0.61410900  1
  Tl  Tl23  1  0.35080300  0.14472800  0.55240700  1
  Tl  Tl24  1  0.64634600  0.14754100  0.38589100  1
  Tl  Tl25  1  0.35080300  0.14472800  0.44759300  1
  Tl  Tl26  1  0.00000000  0.00000000  0.50000000  1
  Tl  Tl27  1  0.64919700  0.85527200  0.55240700  1
  Tl  Tl28  1  0.35365400  0.85245900  0.61410900  1
  Tl  Tl29  1  0.64919700  0.85527200  0.44759300  1
  Tl  Tl30  1  0.35365400  0.85245900  0.38589100  1
  Tl  Tl31  1  0.14264500  0.64962000  0.78129800  1
  Tl  Tl32  1  0.85370900  0.64648100  0.71905400  1
  Tl  Tl33  1  0.14472800  0.64919700  0.55240700  1
  Tl  Tl34  1  0.85245900  0.64634600  0.61410900  1
  Tl  Tl35  1  0.50000000  0.50000000  0.66575300  1
  Tl  Tl36  1  0.14629100  0.35351900  0.71905400  1
  Tl  Tl37  1  0.85735500  0.35038000  0.78129800  1
  Tl  Tl38  1  0.14754100  0.35365400  0.61410900  1
  Tl  Tl39  1  0.85527200  0.35080300  0.55240700  1
  Tl  Tl40  1  0.64606100  0.14758900  0.94760900  1
  Tl  Tl41  1  0.34797300  0.14313000  0.88609200  1
  Tl  Tl42  1  0.64648100  0.14629100  0.71905400  1
  Tl  Tl43  1  0.35038000  0.14264500  0.78129800  1
  Tl  Tl44  1  0.00000000  0.00000000  0.00000000  1
  Tl  Tl45  1  0.00000000  0.00000000  0.83413900  1
  Tl  Tl46  1  0.65202700  0.85687000  0.88609200  1
  Tl  Tl47  1  0.35393900  0.85241100  0.94760900  1
  Tl  Tl48  1  0.64962000  0.85735500  0.78129800  1
  Tl  Tl49  1  0.35351900  0.85370900  0.71905400  1
  Tl  Tl50  1  0.14313000  0.65202700  0.88609200  1
  Tl  Tl51  1  0.85241100  0.64606100  0.94760900  1
  Tl  Tl52  1  0.14758900  0.35393900  0.94760900  1
  Tl  Tl53  1  0.85687000  0.34797300  0.88609200  1
  Sb  Sb0  1  0.50000000  0.50000000  0.00000000  1
  Sb  Sb1  1  0.00000000  0.00000000  0.33245200  1
  Sb  Sb2  1  0.50000000  0.50000000  0.50000000  1
  Sb  Sb3  1  0.50000000  0.50000000  0.17003600  1
  Sb  Sb4  1  0.00000000  0.00000000  0.66754800  1
  Sb  Sb5  1  0.50000000  0.50000000  0.82996400  1
  Te  Te0  1  0.50000000  0.50000000  0.07994100  1
  Te  Te1  1  0.18011200  0.35177200  0.16703100  1
  Te  Te2  1  0.64822800  0.18011200  0.16703100  1
  Te  Te3  1  0.00000000  0.00000000  0.25707800  1
  Te  Te4  1  0.00000000  0.00000000  0.08523400  1
  Te  Te5  1  0.67865400  0.85107100  0.33324900  1
  Te  Te6  1  0.35177200  0.81988800  0.16703100  1
  Te  Te7  1  0.14892900  0.67865400  0.33324900  1
  Te  Te8  1  0.81988800  0.64822800  0.16703100  1
  Te  Te9  1  0.50000000  0.50000000  0.42154000  1
  Te  Te10  1  0.50000000  0.50000000  0.24253500  1
  Te  Te11  1  0.17986700  0.35143200  0.50000000  1
  Te  Te12  1  0.85107100  0.32134600  0.33324900  1
  Te  Te13  1  0.64856800  0.17986700  0.50000000  1
  Te  Te14  1  0.32134600  0.14892900  0.33324900  1
  Te  Te15  1  0.00000000  0.00000000  0.58769800  1
  Te  Te16  1  0.00000000  0.00000000  0.41230200  1
  Te  Te17  1  0.67865400  0.85107100  0.66675100  1
  Te  Te18  1  0.35143200  0.82013300  0.50000000  1
  Te  Te19  1  0.14892900  0.67865400  0.66675100  1
  Te  Te20  1  0.82013300  0.64856800  0.50000000  1
  Te  Te21  1  0.50000000  0.50000000  0.75746500  1
  Te  Te22  1  0.50000000  0.50000000  0.57846000  1
  Te  Te23  1  0.18011200  0.35177200  0.83296900  1
  Te  Te24  1  0.85107100  0.32134600  0.66675100  1
  Te  Te25  1  0.64822800  0.18011200  0.83296900  1
  Te  Te26  1  0.32134600  0.14892900  0.66675100  1
  Te  Te27  1  0.00000000  0.00000000  0.91476600  1
  Te  Te28  1  0.00000000  0.00000000  0.74292200  1
  Te  Te29  1  0.64978300  0.82006000  0.00000000  1
  Te  Te30  1  0.35177200  0.81988800  0.83296900  1
  Te  Te31  1  0.17994000  0.64978300  0.00000000  1
  Te  Te32  1  0.81988800  0.64822800  0.83296900  1
  Te  Te33  1  0.50000000  0.50000000  0.92005900  1
  Te  Te34  1  0.82006000  0.35021700  0.00000000  1
  Te  Te35  1  0.35021700  0.17994000  0.00000000  1
loop_
_geom_bond_atom_site_label_1
_geom_bond_atom_site_label_2
_geom_bond_distance
_geom_bond_site_symmetry_2
Sb0 Te31 3.175097 1_555
Sb0 Te35 3.175097 1_555
Sb0 Te34 3.175097 1_555
Sb0 Te29 3.175097 1_555
Sb0 Te0 3.251834 1_555
Sb0 Te33 3.251834 1_554
Sb1 Te3 3.066058 1_555
Sb1 Te14 3.182497 1_555
Sb1 Te12 3.182497 1_455
Sb1 Te7 3.182497 1_545
Sb1 Te5 3.182497 1_445
Sb1 Te16 3.248132 1_555
Sb2 Te13 3.171080 1_555
Sb2 Te20 3.171080 1_555
Sb2 Te18 3.171080 1_555
Sb2 Te11 3.171080 1_555
Sb2 Te9 3.191590 1_555
Sb2 Te22 3.191590 1_555
Sb3 Te10 2.949109 1_555
Sb3 Te8 3.170155 1_555
Sb3 Te2 3.170155 1_555
Sb3 Te6 3.170155 1_555
Sb3 Te1 3.170155 1_555
Sb4 Te28 3.066058 1_555
Sb4 Te26 3.182497 1_555
Sb4 Te24 3.182497 1_455
Sb4 Te19 3.182497 1_545
Sb4 Te17 3.182497 1_445
Sb4 Te15 3.248132 1_555
Sb5 Te21 2.949109 1_555
Sb5 Te32 3.170155 1_555
Sb5 Te25 3.170155 1_555
Sb5 Te30 3.170155 1_555
Sb5 Te23 3.170155 1_555
Te1 Tl5 3.207661 1_555
Te1 Tl7 3.234008 1_555
Te1 Tl15 3.419528 1_555
Te1 Tl0 3.472500 1_555
Te1 Tl8 3.551233 1_555
Te1 Tl21 3.581620 1_455
Te1 Tl3 3.620232 1_455
Te2 Tl21 3.207661 1_555
Te2 Tl3 3.234008 1_555
Te2 Tl5 3.419528 1_555
Te2 Tl7 3.472500 1_555
Te2 Tl8 3.551233 1_655
Te2 Tl9 3.581620 1_545
Te2 Tl11 3.620232 1_545
Te3 Tl20 3.572099 1_555
Te3 Tl10 3.572099 1_545
Te3 Tl4 3.572099 1_455
Te3 Tl16 3.572099 1_445
Te4 Tl8 3.279739 1_555
Te4 Tl44 3.467142 1_555
Te5 Tl16 3.221761 1_555
Te5 Tl14 3.226122 1_555
Te5 Tl4 3.412669 1_565
Te5 Tl24 3.430101 1_565
Te5 Tl17 3.539581 1_555
Te5 Tl10 3.614073 1_555
Te5 Tl30 3.621173 1_555
Te6 Tl15 3.207661 1_555
Te6 Tl0 3.234008 1_555
Te6 Tl9 3.419528 1_555
Te6 Tl11 3.472500 1_555
Te6 Tl8 3.551233 1_565
Te6 Tl5 3.581620 1_565
Te6 Tl7 3.620232 1_565
Te7 Tl10 3.221761 1_555
Te7 Tl30 3.226122 1_555
Te7 Tl16 3.412669 1_455
Te7 Tl14 3.430101 1_455
Te7 Tl17 3.539581 1_555
Te7 Tl20 3.614073 1_555
Te7 Tl18 3.621173 1_555
Te8 Tl9 3.207661 1_555
Te8 Tl11 3.234008 1_555
Te8 Tl21 3.419528 1_555
Te8 Tl3 3.472500 1_555
Te8 Tl8 3.551233 1_665
Te8 Tl15 3.581620 1_655
Te8 Tl0 3.620232 1_655
Te9 Tl17 3.550898 1_555
Te11 Tl23 3.217593 1_555
Te11 Tl25 3.217593 1_555
Te11 Tl33 3.435445 1_555
Te11 Tl13 3.435445 1_555
Te11 Tl26 3.547192 1_555
Te11 Tl39 3.612573 1_455
Te11 Tl19 3.612573 1_455
Te12 Tl4 3.221761 1_555
Te12 Tl24 3.226122 1_555
Te12 Tl20 3.412669 1_655
Te12 Tl18 3.430101 1_655
Te12 Tl17 3.539581 1_555
Te12 Tl16 3.614073 1_555
Te12 Tl14 3.621173 1_555
Te13 Tl39 3.217593 1_555
Te13 Tl19 3.217593 1_555
Te13 Tl23 3.435445 1_555
Te13 Tl25 3.435445 1_555
Te13 Tl26 3.547192 1_655
Te13 Tl27 3.612573 1_545
Te13 Tl29 3.612573 1_545
Te14 Tl20 3.221761 1_555
Te14 Tl18 3.226122 1_555
Te14 Tl10 3.412669 1_545
Te14 Tl30 3.430101 1_545
Te14 Tl17 3.539581 1_555
Te14 Tl4 3.614073 1_555
Te14 Tl24 3.621173 1_555
Te15 Tl26 3.567373 1_555
Te15 Tl28 3.606774 1_545
Te15 Tl38 3.606774 1_555
Te15 Tl22 3.606774 1_455
Te15 Tl34 3.606774 1_445
Te16 Tl26 3.567373 1_555
Te16 Tl30 3.606774 1_545
Te16 Tl18 3.606774 1_555
Te16 Tl24 3.606774 1_455
Te16 Tl14 3.606774 1_445
Te17 Tl32 3.221761 1_555
Te17 Tl34 3.226122 1_555
Te17 Tl42 3.412669 1_565
Te17 Tl22 3.430101 1_565
Te17 Tl35 3.539581 1_555
Te17 Tl49 3.614073 1_555
Te17 Tl28 3.621173 1_555
Te18 Tl33 3.217593 1_555
Te18 Tl13 3.217593 1_555
Te18 Tl27 3.435445 1_555
Te18 Tl29 3.435445 1_555
Te18 Tl26 3.547192 1_565
Te18 Tl23 3.612573 1_565
Te18 Tl25 3.612573 1_565
Te19 Tl49 3.221761 1_555
Te19 Tl28 3.226122 1_555
Te19 Tl32 3.412669 1_455
Te19 Tl34 3.430101 1_455
Te19 Tl35 3.539581 1_555
Te19 Tl36 3.614073 1_555
Te19 Tl38 3.621173 1_555
Te20 Tl27 3.217593 1_555
Te20 Tl29 3.217593 1_555
Te20 Tl39 3.435445 1_555
Te20 Tl19 3.435445 1_555
Te20 Tl26 3.547192 1_665
Te20 Tl33 3.612573 1_655
Te20 Tl13 3.612573 1_655
Te22 Tl35 3.550898 1_555
Te23 Tl43 3.207661 1_555
Te23 Tl41 3.234008 1_555
Te23 Tl31 3.419528 1_555
Te23 Tl50 3.472500 1_555
Te23 Tl45 3.551233 1_555
Te23 Tl37 3.581620 1_455
Te23 Tl53 3.620232 1_455
Te24 Tl42 3.221761 1_555
Te24 Tl22 3.226122 1_555
Te24 Tl36 3.412669 1_655
Te24 Tl38 3.430101 1_655
Te24 Tl35 3.539581 1_555
Te24 Tl32 3.614073 1_555
Te24 Tl34 3.621173 1_555
Te25 Tl37 3.207661 1_555
Te25 Tl53 3.234008 1_555
Te25 Tl43 3.419528 1_555
Te25 Tl41 3.472500 1_555
Te25 Tl45 3.551233 1_655
Te25 Tl48 3.581620 1_545
Te25 Tl46 3.620232 1_545
Te26 Tl36 3.221761 1_555
Te26 Tl38 3.226122 1_555
Te26 Tl49 3.412669 1_545
Te26 Tl28 3.430101 1_545
Te26 Tl35 3.539581 1_555
Te26 Tl42 3.614073 1_555
Te26 Tl22 3.621173 1_555
Te27 Tl45 3.279739 1_555
Te27 Tl44 3.467142 1_556
Te28 Tl36 3.572099 1_555
Te28 Tl49 3.572099 1_545
Te28 Tl42 3.572099 1_455
Te28 Tl32 3.572099 1_445
Te29 Tl1 3.209475 1_555
Te29 Tl51 3.209475 1_554
Te29 Tl12 3.419395 1_555
Te29 Tl47 3.419395 1_554
Te29 Tl44 3.537777 1_665
Te30 Tl31 3.207661 1_555
Te30 Tl50 3.234008 1_555
Te30 Tl48 3.419528 1_555
Te30 Tl46 3.472500 1_555
Te30 Tl45 3.551233 1_565
Te30 Tl43 3.581620 1_565
Te30 Tl41 3.620232 1_565
Te31 Tl12 3.209475 1_555
Te31 Tl47 3.209475 1_554
Te31 Tl2 3.419395 1_555
Te31 Tl52 3.419395 1_554
Te31 Tl44 3.537777 1_565
Te32 Tl48 3.207661 1_555
Te32 Tl46 3.234008 1_555
Te32 Tl37 3.419528 1_555
Te32 Tl53 3.472500 1_555
Te32 Tl45 3.551233 1_665
Te32 Tl31 3.581620 1_655
Te32 Tl50 3.620232 1_655
Te34 Tl6 3.209475 1_555
Te34 Tl40 3.209475 1_554
Te34 Tl1 3.419395 1_555
Te34 Tl51 3.419395 1_554
Te34 Tl44 3.537777 1_655
Te35 Tl2 3.209475 1_555
Te35 Tl52 3.209475 1_554
Te35 Tl6 3.419395 1_555
Te35 Tl40 3.419395 1_554
Te35 Tl44 3.537777 1_555
