# generated using pymatgen
data_CSN2OF2
_symmetry_space_group_name_H-M   'P 1'
_cell_length_a   11.69520200
_cell_length_b   13.64781980
_cell_length_c   17.51069870
_cell_angle_alpha   109.30288948
_cell_angle_beta   105.32895007
_cell_angle_gamma   98.93469963
_symmetry_Int_Tables_number   1
_chemical_formula_structural   CSN2OF2
_chemical_formula_sum   'C24 S24 N48 O24 F48'
_cell_volume   2451.88819431
_cell_formula_units_Z   24
loop_
 _symmetry_equiv_pos_site_id
 _symmetry_equiv_pos_as_xyz
  1  'x, y, z'
loop_
 _atom_site_type_symbol
 _atom_site_label
 _atom_site_symmetry_multiplicity
 _atom_site_fract_x
 _atom_site_fract_y
 _atom_site_fract_z
 _atom_site_occupancy
  C  C0  1  0.72115300  0.32509300  0.87920100  1
  C  C1  1  0.08315200  0.20571800  0.38048700  1
  C  C2  1  0.26359700  0.18493300  0.13553300  1
  C  C3  1  0.22224800  0.32998600  0.37047500  1
  C  C4  1  0.41041200  0.30635100  0.12942800  1
  C  C5  1  0.84471600  0.44479400  0.38059900  1
  C  C6  1  0.15528400  0.55520600  0.61940100  1
  C  C7  1  0.27884700  0.67490700  0.12079900  1
  C  C8  1  0.26551000  0.28937100  0.48762100  1
  C  C9  1  0.58958800  0.69364900  0.87057200  1
  C  C10  1  0.77775200  0.67001400  0.62952500  1
  C  C11  1  0.70716000  0.30768900  0.37705600  1
  C  C12  1  0.86043900  0.46205100  0.88359500  1
  C  C13  1  0.13956100  0.53794900  0.11640500  1
  C  C14  1  0.29284000  0.69231100  0.62294400  1
  C  C15  1  0.78133900  0.30850500  0.76435400  1
  C  C16  1  0.91684800  0.79428200  0.61951300  1
  C  C17  1  0.23298500  0.22375000  0.01735600  1
  C  C18  1  0.77297700  0.28894300  0.26431400  1
  C  C19  1  0.73640300  0.81506700  0.86446700  1
  C  C20  1  0.76701500  0.77625000  0.98264400  1
  C  C21  1  0.21866100  0.69149500  0.23564600  1
  C  C22  1  0.73449000  0.71062900  0.51237900  1
  C  C23  1  0.22702300  0.71105700  0.73568600  1
  S  S0  1  0.17384800  0.26077200  0.87796100  1
  S  S1  1  0.45017500  0.83781600  0.61107700  1
  S  S2  1  0.07180900  0.96220300  0.63494800  1
  S  S3  1  0.33223200  0.24595600  0.62235700  1
  S  S4  1  0.57482200  0.17222800  0.88977600  1
  S  S5  1  0.57431200  0.46886100  0.14649400  1
  S  S6  1  0.42568800  0.53113900  0.85350600  1
  S  S7  1  0.97145800  0.36995400  0.09060900  1
  S  S8  1  0.66776800  0.75404400  0.37764300  1
  S  S9  1  0.29981900  0.88375100  0.87330400  1
  S  S10  1  0.42517800  0.82777200  0.11022400  1
  S  S11  1  0.89369400  0.95180700  0.84575200  1
  S  S12  1  0.70018100  0.11624900  0.12669600  1
  S  S13  1  0.01086900  0.60845900  0.40185500  1
  S  S14  1  0.54982500  0.16218400  0.38892300  1
  S  S15  1  0.10630600  0.04819300  0.15424800  1
  S  S16  1  0.92819100  0.03779700  0.36505200  1
  S  S17  1  0.02854200  0.63004600  0.90939100  1
  S  S18  1  0.36704800  0.46950500  0.34391800  1
  S  S19  1  0.27766900  0.86458800  0.37134700  1
  S  S20  1  0.82615200  0.73922800  0.12203900  1
  S  S21  1  0.98913100  0.39154100  0.59814500  1
  S  S22  1  0.72233100  0.13541200  0.62865300  1
  S  S23  1  0.63295200  0.53049500  0.65608200  1
  N  N0  1  0.64873700  0.28616500  0.92007900  1
  N  N1  1  0.62319500  0.74666600  0.82455600  1
  N  N2  1  0.84297700  0.78456500  0.54293200  1
  N  N3  1  0.29794000  0.75704200  0.70108700  1
  N  N4  1  0.93690200  0.56588700  0.93217300  1
  N  N5  1  0.77274100  0.25450000  0.67889700  1
  N  N6  1  0.20835100  0.57382700  0.07564200  1
  N  N7  1  0.06309800  0.43411300  0.06782700  1
  N  N8  1  0.22725900  0.74550000  0.32110300  1
  N  N9  1  0.70206000  0.24295800  0.29891300  1
  N  N10  1  0.89091500  0.73879600  0.66597900  1
  N  N11  1  0.69573800  0.65142100  0.55282100  1
  N  N12  1  0.15391700  0.61019600  0.69834000  1
  N  N13  1  0.15702300  0.21543500  0.45706800  1
  N  N14  1  0.30426200  0.34857900  0.44717900  1
  N  N15  1  0.22561000  0.13167600  0.18361200  1
  N  N16  1  0.37680500  0.25333400  0.17544400  1
  N  N17  1  0.22643100  0.76982400  0.81773300  1
  N  N18  1  0.34358700  0.29553200  0.05046700  1
  N  N19  1  0.52700700  0.37931600  0.17068700  1
  N  N20  1  0.18761200  0.16631000  0.05678800  1
  N  N21  1  0.77439000  0.86832400  0.81638800  1
  N  N22  1  0.34790400  0.30887900  0.56847700  1
  N  N23  1  0.36506500  0.72898800  0.58111800  1
  N  N24  1  0.65209600  0.69112100  0.43152300  1
  N  N25  1  0.08142100  0.45016600  0.57197700  1
  N  N26  1  0.47299300  0.62068400  0.82931300  1
  N  N27  1  0.63493500  0.27101200  0.41888200  1
  N  N28  1  0.14128300  0.59233500  0.19640400  1
  N  N29  1  0.79164900  0.42617300  0.92435800  1
  N  N30  1  0.03269900  0.86850900  0.65706500  1
  N  N31  1  0.10908500  0.26120400  0.33402100  1
  N  N32  1  0.77356900  0.23017600  0.18226700  1
  N  N33  1  0.84608300  0.38980400  0.30166000  1
  N  N34  1  0.28643500  0.73882300  0.20012700  1
  N  N35  1  0.71356500  0.26117700  0.79987300  1
  N  N36  1  0.65641300  0.70446800  0.94953300  1
  N  N37  1  0.84537300  0.79566900  0.06458200  1
  N  N38  1  0.22274300  0.59089400  0.57810000  1
  N  N39  1  0.96730100  0.13149100  0.34293500  1
  N  N40  1  0.91857900  0.54983400  0.42802300  1
  N  N41  1  0.15462700  0.20433100  0.93541800  1
  N  N42  1  0.25302000  0.38324300  0.32030400  1
  N  N43  1  0.85871700  0.40766500  0.80359600  1
  N  N44  1  0.74698000  0.61675700  0.67969600  1
  N  N45  1  0.77725700  0.40910600  0.42190000  1
  N  N46  1  0.81238800  0.83369000  0.94321200  1
  N  N47  1  0.35126300  0.71383500  0.07992100  1
  O  O0  1  0.07897400  0.23238600  0.79880300  1
  O  O1  1  0.68898900  0.54314100  0.20195300  1
  O  O2  1  0.31101100  0.45685900  0.79804700  1
  O  O3  1  0.48077200  0.14459700  0.44072400  1
  O  O4  1  0.18694000  0.03738800  0.68776300  1
  O  O5  1  0.27027000  0.91013100  0.45438100  1
  O  O6  1  0.10000600  0.73268000  0.97218300  1
  O  O7  1  0.81306000  0.96261200  0.31223700  1
  O  O8  1  0.89999400  0.26732000  0.02781700  1
  O  O9  1  0.51922800  0.85540300  0.55927600  1
  O  O10  1  0.72973000  0.08986900  0.54561900  1
  O  O11  1  0.57426800  0.72480300  0.29759600  1
  O  O12  1  0.71225400  0.06703500  0.04548900  1
  O  O13  1  0.42573200  0.27519700  0.70240400  1
  O  O14  1  0.28774600  0.93296500  0.95451100  1
  O  O15  1  0.91633100  0.99811600  0.78830800  1
  O  O16  1  0.08366900  0.00188400  0.21169200  1
  O  O17  1  0.92102600  0.76761400  0.20119700  1
  O  O18  1  0.37838100  0.51247600  0.28202200  1
  O  O19  1  0.51020000  0.14777500  0.94167300  1
  O  O20  1  0.08198000  0.71285500  0.46085000  1
  O  O21  1  0.91802000  0.28714500  0.53915000  1
  O  O22  1  0.48980000  0.85222500  0.05832700  1
  O  O23  1  0.62161900  0.48752400  0.71797800  1
  F  F0  1  0.93321200  0.06997000  0.46153000  1
  F  F1  1  0.90125500  0.46077800  0.62803300  1
  F  F2  1  0.79577200  0.76202300  0.36200200  1
  F  F3  1  0.91380300  0.04503800  0.93382000  1
  F  F4  1  0.71839800  0.03785100  0.17547800  1
  F  F5  1  0.38249600  0.93018100  0.63165600  1
  F  F6  1  0.48150000  0.12546300  0.79433500  1
  F  F7  1  0.04886300  0.38654100  0.68814500  1
  F  F8  1  0.96985500  0.02539700  0.62552800  1
  F  F9  1  0.48924800  0.43749600  0.37672200  1
  F  F10  1  0.77732400  0.07032600  0.68196700  1
  F  F11  1  0.09874500  0.53922200  0.37196700  1
  F  F12  1  0.70129200  0.74465200  0.14109800  1
  F  F13  1  0.54185000  0.87903700  0.70634900  1
  F  F14  1  0.51075200  0.56250400  0.62327800  1
  F  F15  1  0.78735000  0.61291500  0.07352800  1
  F  F16  1  0.03259500  0.35693100  0.17692100  1
  F  F17  1  0.42098500  0.57069700  0.94787500  1
  F  F18  1  0.28160200  0.96214900  0.82452200  1
  F  F19  1  0.38983400  0.56559700  0.43100800  1
  F  F20  1  0.95113700  0.61345900  0.31185500  1
  F  F21  1  0.03014500  0.97460300  0.37447200  1
  F  F22  1  0.61016600  0.43440300  0.56899200  1
  F  F23  1  0.61750400  0.06981900  0.36834400  1
  F  F24  1  0.52430700  0.46701100  0.87172300  1
  F  F25  1  0.34589800  0.91111200  0.13061500  1
  F  F26  1  0.21265000  0.38708500  0.92647200  1
  F  F27  1  0.55810400  0.10049800  0.11383300  1
  F  F28  1  0.20422800  0.23797700  0.63799800  1
  F  F29  1  0.41424900  0.90625900  0.37541000  1
  F  F30  1  0.51850000  0.87453700  0.20566500  1
  F  F31  1  0.58575100  0.09374100  0.62459000  1
  F  F32  1  0.30538300  0.12095700  0.57033500  1
  F  F33  1  0.29870800  0.25534800  0.85890200  1
  F  F34  1  0.00969000  0.91272100  0.88016500  1
  F  F35  1  0.11686000  0.56429200  0.87562800  1
  F  F36  1  0.99031000  0.08727900  0.11983500  1
  F  F37  1  0.88314000  0.43570800  0.12437200  1
  F  F38  1  0.08619700  0.95496200  0.06618000  1
  F  F39  1  0.44189600  0.89950200  0.88616700  1
  F  F40  1  0.69461700  0.87904300  0.42966500  1
  F  F41  1  0.57901500  0.42930300  0.05212500  1
  F  F42  1  0.45815000  0.12096300  0.29365100  1
  F  F43  1  0.06678800  0.93003000  0.53847000  1
  F  F44  1  0.47569300  0.53298900  0.12827700  1
  F  F45  1  0.22267600  0.92967400  0.31803300  1
  F  F46  1  0.96740500  0.64306900  0.82307900  1
  F  F47  1  0.65410200  0.08888800  0.86938500  1
loop_
_geom_bond_atom_site_label_1
_geom_bond_atom_site_label_2
_geom_bond_distance
_geom_bond_site_symmetry_2
C0 N29 1.337508 1_555
C0 N35 1.344639 1_555
C0 N0 1.394306 1_555
C1 N31 1.339383 1_555
C1 N13 1.340344 1_555
C1 N39 1.398783 1_455
C2 N20 1.343837 1_555
C2 N16 1.344757 1_555
C2 N15 1.391572 1_555
C3 N14 1.344003 1_555
C3 N31 1.345920 1_555
C3 N42 1.392015 1_555
C4 N16 1.338605 1_555
C4 N18 1.342460 1_555
C4 N19 1.398111 1_555
C5 N45 1.340856 1_555
C5 N33 1.343039 1_555
C5 N40 1.392822 1_555
C6 N38 1.340856 1_555
C6 N12 1.343039 1_555
C6 N25 1.392822 1_555
C7 N6 1.337508 1_555
C7 N34 1.344639 1_555
C7 N47 1.394306 1_555
C8 N14 1.339450 1_555
C8 N13 1.341922 1_555
C8 N22 1.397784 1_555
C9 N1 1.338605 1_555
C9 N36 1.342460 1_555
C9 N26 1.398111 1_555
C10 N11 1.344003 1_555
C10 N10 1.345920 1_555
C10 N44 1.392015 1_555
C11 N45 1.339065 1_555
C11 N9 1.340767 1_555
C11 N27 1.392338 1_555
C12 N43 1.344140 1_555
C12 N29 1.344926 1_555
C12 N4 1.392390 1_555
C13 N28 1.344140 1_555
C13 N6 1.344926 1_555
C13 N7 1.392390 1_555
C14 N38 1.339065 1_555
C14 N3 1.340767 1_555
C14 N23 1.392338 1_555
C15 N43 1.341116 1_555
C15 N35 1.341470 1_555
C15 N5 1.400303 1_555
C16 N10 1.339383 1_555
C16 N2 1.340344 1_555
C16 N30 1.398783 1_655
C17 N20 1.339876 1_555
C17 N18 1.342914 1_555
C17 N41 1.395222 1_554
C18 N33 1.340588 1_555
C18 N9 1.343202 1_555
C18 N32 1.397355 1_555
C19 N46 1.343837 1_555
C19 N1 1.344757 1_555
C19 N21 1.391572 1_555
C20 N46 1.339876 1_555
C20 N36 1.342914 1_555
C20 N37 1.395222 1_556
C21 N28 1.341116 1_555
C21 N34 1.341470 1_555
C21 N8 1.400303 1_555
C22 N11 1.339450 1_555
C22 N2 1.341922 1_555
C22 N24 1.397784 1_555
C23 N12 1.340588 1_555
C23 N3 1.343202 1_555
C23 N17 1.397355 1_555
N0 S4 1.497088 1_555
N4 S17 1.496667 1_655
N5 S22 1.498653 1_555
N7 S7 1.496667 1_455
N8 S19 1.498653 1_555
N15 S15 1.499638 1_555
N17 S9 1.498245 1_555
N19 S5 1.495073 1_555
N21 S11 1.499638 1_555
N22 S3 1.496466 1_555
N23 S1 1.490491 1_555
N24 S8 1.496466 1_555
N25 S21 1.500253 1_455
N26 S6 1.495073 1_555
N27 S14 1.490491 1_555
N30 S2 1.494562 1_555
N32 S12 1.498245 1_555
N37 S20 1.494764 1_555
N39 S16 1.494562 1_555
N40 S13 1.500253 1_655
N41 S0 1.494764 1_555
N42 S18 1.494778 1_555
N44 S23 1.494778 1_555
N47 S10 1.497088 1_555
O0 S0 1.414508 1_555
O1 S5 1.416937 1_555
O2 S6 1.416937 1_555
O3 S14 1.415496 1_555
O4 S2 1.416429 1_545
O5 S19 1.411963 1_555
O6 S17 1.414851 1_555
O7 S16 1.416429 1_565
O8 S7 1.414851 1_555
O9 S1 1.415496 1_555
O10 S22 1.411963 1_555
O11 S8 1.415610 1_555
O12 S12 1.413260 1_555
O13 S3 1.415610 1_555
O14 S9 1.413260 1_555
O15 S11 1.410838 1_555
O16 S15 1.410838 1_555
O17 S20 1.414508 1_555
O18 S18 1.417130 1_555
O19 S4 1.411977 1_555
O20 S13 1.411893 1_555
O21 S21 1.411893 1_555
O22 S10 1.411977 1_555
O23 S23 1.417130 1_555
F0 S16 1.580959 1_555
F1 S21 1.575472 1_555
F2 S8 1.585510 1_555
F3 S11 1.571787 1_545
F4 S12 1.580731 1_555
F5 S1 1.582983 1_555
F6 S4 1.582917 1_555
F7 S21 1.574848 1_455
F8 S2 1.581864 1_645
F9 S18 1.577676 1_555
F10 S22 1.575590 1_555
F11 S13 1.575472 1_555
F12 S20 1.588754 1_555
F13 S1 1.579755 1_555
F14 S23 1.577676 1_555
F15 S20 1.576195 1_555
F16 S7 1.572518 1_455
F17 S6 1.578801 1_555
F18 S9 1.580731 1_555
F19 S18 1.571911 1_555
F20 S13 1.574848 1_655
F21 S16 1.581864 1_465
F22 S23 1.571911 1_555
F23 S14 1.582983 1_555
F24 S6 1.581646 1_555
F25 S10 1.585876 1_555
F26 S0 1.576195 1_555
F27 S12 1.586531 1_555
F28 S3 1.585510 1_555
F29 S19 1.584600 1_555
F30 S10 1.582917 1_555
F31 S22 1.584600 1_555
F32 S3 1.579142 1_555
F33 S0 1.588754 1_555
F34 S11 1.578960 1_455
F35 S17 1.575360 1_555
F36 S15 1.578960 1_655
F37 S7 1.575360 1_555
F38 S15 1.571787 1_565
F39 S9 1.586531 1_555
F40 S8 1.579142 1_555
F41 S5 1.578801 1_555
F42 S14 1.579755 1_555
F43 S2 1.580959 1_555
F44 S5 1.581646 1_555
F45 S19 1.575590 1_555
F46 S17 1.572518 1_655
F47 S4 1.585876 1_555
