# generated using pymatgen
data_Ce13O24
_symmetry_space_group_name_H-M   'P 1'
_cell_length_a   50.63166886
_cell_length_b   14.04698470
_cell_length_c   6.75146575
_cell_angle_alpha   28.26403187
_cell_angle_beta   29.97463056
_cell_angle_gamma   13.88845928
_symmetry_Int_Tables_number   1
_chemical_formula_structural   Ce13O24
_chemical_formula_sum   'Ce13 O24'
_cell_volume   543.12411090
_cell_formula_units_Z   1
loop_
 _symmetry_equiv_pos_site_id
 _symmetry_equiv_pos_as_xyz
  1  'x, y, z'
loop_
 _atom_site_type_symbol
 _atom_site_label
 _atom_site_symmetry_multiplicity
 _atom_site_fract_x
 _atom_site_fract_y
 _atom_site_fract_z
 _atom_site_occupancy
  Ce  Ce0  1  0.00279616  0.98914238  0.98017347  1
  Ce  Ce1  1  0.08836639  0.97908928  0.97112869  1
  Ce  Ce2  1  0.15485780  0.99854226  0.00152097  1
  Ce  Ce3  1  0.22014548  0.04598264  0.98209808  1
  Ce  Ce4  1  0.30552640  0.00437245  0.01145546  1
  Ce  Ce5  1  0.38624528  0.96840156  0.05423790  1
  Ce  Ce6  1  0.46210905  0.99482963  0.97889930  1
  Ce  Ce7  1  0.54943361  0.97874025  0.98158509  1
  Ce  Ce8  1  0.61345076  0.01784446  0.97904300  1
  Ce  Ce9  1  0.69919929  0.97651204  0.99709334  1
  Ce  Ce10  1  0.75330663  0.06114573  0.99419444  1
  Ce  Ce11  1  0.84796917  0.99374359  0.00928877  1
  Ce  Ce12  1  0.91845783  0.98552049  0.06325956  1
  O  O0  1  0.02785823  0.24149782  0.20785363  1
  O  O1  1  0.09587852  0.25399191  0.24656043  1
  O  O2  1  0.17114900  0.25741111  0.24601840  1
  O  O3  1  0.25027316  0.24610734  0.25694785  1
  O  O4  1  0.04767797  0.79616958  0.70720165  1
  O  O5  1  0.32138766  0.24522998  0.29291742  1
  O  O6  1  0.11820420  0.79346384  0.79293135  1
  O  O7  1  0.23188720  0.69507286  0.70062661  1
  O  O8  1  0.48206769  0.26320125  0.22134350  1
  O  O9  1  0.29527650  0.71547004  0.78535033  1
  O  O10  1  0.37111513  0.69768621  0.79036517  1
  O  O11  1  0.56767741  0.22071988  0.24004531  1
  O  O12  1  0.43975011  0.79112792  0.70639188  1
  O  O13  1  0.62976257  0.27317517  0.21945194  1
  O  O14  1  0.50481484  0.81204354  0.70342058  1
  O  O15  1  0.71491118  0.24207467  0.25952924  1
  O  O16  1  0.57669267  0.79585738  0.81273044  1
  O  O17  1  0.77707512  0.28059471  0.27672287  1
  O  O18  1  0.67799076  0.74078740  0.74125435  1
  O  O19  1  0.86704154  0.22568193  0.27604222  1
  O  O20  1  0.76319909  0.71935735  0.70257825  1
  O  O21  1  0.83989435  0.69421030  0.79400831  1
  O  O22  1  0.90718302  0.70155737  0.79834969  1
  O  O23  1  0.97321425  0.80364369  0.71738051  1
loop_
_geom_bond_atom_site_label_1
_geom_bond_atom_site_label_2
_geom_bond_distance
_geom_bond_site_symmetry_2
Ce0 O21 2.265137 1_465
Ce0 O2 2.330428 1_556
Ce0 O6 2.331766 1_555
Ce0 O4 2.343750 1_555
Ce0 O23 2.371065 1_456
Ce0 O19 2.416249 1_466
Ce0 O0 2.464723 1_565
Ce1 O6 2.292976 1_555
Ce1 O1 2.310574 1_565
Ce1 O22 2.332477 1_465
Ce1 O3 2.338728 1_556
Ce1 O0 2.344501 1_566
Ce1 O4 2.364234 1_556
Ce1 O7 2.369128 1_555
Ce2 O0 2.276893 1_565
Ce2 O1 2.371530 1_565
Ce2 O5 2.403515 1_555
Ce2 O2 2.404568 1_564
Ce2 O9 2.417989 1_554
Ce2 O6 2.525528 1_555
Ce2 O23 2.563737 1_464
Ce2 O7 2.599754 1_554
Ce3 O3 2.311190 1_555
Ce3 O1 2.312259 1_556
Ce3 O7 2.316983 1_546
Ce3 O10 2.333629 1_545
Ce3 O2 2.347099 1_556
Ce3 O9 2.368509 1_545
Ce3 O4 2.389795 1_555
Ce4 O5 2.288877 1_554
Ce4 O3 2.353964 1_555
Ce4 O8 2.360929 1_545
Ce4 O2 2.393445 1_555
Ce4 O9 2.465332 1_545
Ce4 O6 2.513703 1_554
Ce4 O12 2.548378 1_544
Ce4 O10 2.603602 1_544
Ce5 O12 2.288455 1_554
Ce5 O14 2.324537 1_554
Ce5 O3 2.329346 1_565
Ce5 O7 2.341835 1_564
Ce5 O10 2.348535 1_555
Ce5 O5 2.362103 1_565
Ce5 O11 2.388304 1_555
Ce6 O13 2.295594 1_556
Ce6 O9 2.310264 1_565
Ce6 O14 2.322262 1_555
Ce6 O12 2.343562 1_556
Ce6 O16 2.343861 1_555
Ce6 O8 2.422641 1_565
Ce6 O5 2.437350 1_566
Ce7 O18 2.277709 1_555
Ce7 O16 2.313692 1_555
Ce7 O10 2.317499 1_565
Ce7 O14 2.330527 1_556
Ce7 O15 2.345725 1_556
Ce7 O11 2.361939 1_565
Ce7 O8 2.363851 1_566
Ce8 O8 2.317594 1_556
Ce8 O17 2.351450 1_546
Ce8 O11 2.354841 1_556
Ce8 O18 2.372272 1_545
Ce8 O13 2.420366 1_555
Ce8 O12 2.464606 1_555
Ce8 O20 2.469171 1_545
Ce8 O16 2.658872 1_546
Ce9 O13 2.326195 1_566
Ce9 O11 2.332222 1_566
Ce9 O15 2.349787 1_565
Ce9 O18 2.368694 1_556
Ce9 O19 2.392285 1_556
Ce9 O21 2.482231 1_555
Ce9 O20 2.503209 1_555
Ce9 O14 2.662815 1_565
Ce10 O20 2.282056 1_546
Ce10 O17 2.283499 1_555
Ce10 O22 2.339639 1_545
Ce10 O16 2.346032 1_555
Ce10 O13 2.374400 1_556
Ce10 O21 2.397341 1_545
Ce10 O15 2.416940 1_556
Ce11 O15 2.333348 1_565
Ce11 O19 2.338593 1_564
Ce11 O18 2.376663 1_564
Ce11 O0 2.398505 1_655
Ce11 O17 2.426270 1_565
Ce11 O23 2.443192 1_554
Ce11 O21 2.501779 1_555
Ce11 O22 2.621210 1_554
Ce12 O23 2.282029 1_554
Ce12 O19 2.286589 1_565
Ce12 O1 2.336402 1_655
Ce12 O22 2.346868 1_555
Ce12 O17 2.354258 1_565
Ce12 O20 2.367050 1_564
Ce12 O4 2.426389 1_654
