# generated using pymatgen
data_La(WO3)11
_symmetry_space_group_name_H-M   'P 1'
_cell_length_a   8.56052003
_cell_length_b   8.55762696
_cell_length_c   9.36900338
_cell_angle_alpha   90.01406452
_cell_angle_beta   100.49735363
_cell_angle_gamma   113.57095855
_symmetry_Int_Tables_number   1
_chemical_formula_structural   La(WO3)11
_chemical_formula_sum   'La1 W11 O33'
_cell_volume   616.51958905
_cell_formula_units_Z   1
loop_
 _symmetry_equiv_pos_site_id
 _symmetry_equiv_pos_as_xyz
  1  'x, y, z'
loop_
 _atom_site_type_symbol
 _atom_site_label
 _atom_site_symmetry_multiplicity
 _atom_site_fract_x
 _atom_site_fract_y
 _atom_site_fract_z
 _atom_site_occupancy
  La  La0  1  0.50000000  0.50000000  0.00000000  1
  W  W0  1  0.68617276  0.26943517  0.86005797  1
  W  W1  1  0.13430915  0.45899440  0.76679244  1
  W  W2  1  0.59840029  0.64271622  0.67626791  1
  W  W3  1  0.04956954  0.82175801  0.58737652  1
  W  W4  1  0.50000000  0.00000000  0.50000000  1
  W  W5  1  0.95043046  0.17824199  0.41262348  1
  W  W6  1  0.40159971  0.35728378  0.32373209  1
  W  W7  1  0.86569085  0.54100560  0.23320756  1
  W  W8  1  0.31382724  0.73056483  0.13994203  1
  W  W9  1  0.77742922  0.91497246  0.04966817  1
  W  W10  1  0.22257078  0.08502754  0.95033183  1
  O  O0  1  0.67697448  0.76576564  0.86701663  1
  O  O1  1  0.18968724  0.27830530  0.86704754  1
  O  O2  1  0.13681486  0.95450014  0.77226791  1
  O  O3  1  0.59088425  0.13641595  0.68182035  1
  O  O4  1  0.63390784  0.45582807  0.77852198  1
  O  O5  1  0.90963332  0.36376007  0.81801054  1
  O  O6  1  0.04509321  0.31886895  0.59095016  1
  O  O7  1  0.09166845  0.63714592  0.68133692  1
  O  O8  1  0.36745748  0.54382259  0.73387966  1
  O  O9  1  0.54587192  0.81835955  0.59112204  1
  O  O10  1  0.50000000  0.50000000  0.50000000  1
  O  O11  1  0.81950137  0.72826024  0.63586289  1
  O  O12  1  0.95490679  0.68113105  0.40904984  1
  O  O13  1  -0.00000000  0.00000000  0.50000000  1
  O  O14  1  0.27305656  0.90959076  0.54457917  1
  O  O15  1  0.40911575  0.86358405  0.31817965  1
  O  O16  1  0.45412808  0.18164045  0.40887796  1
  O  O17  1  0.72694344  0.09040924  0.45542083  1
  O  O18  1  0.90833155  0.36285408  0.31866308  1
  O  O19  1  0.86318514  0.04549986  0.22773209  1
  O  O20  1  0.18049863  0.27173976  0.36413711  1
  O  O21  1  0.36609216  0.54417193  0.22147802  1
  O  O22  1  0.32302552  0.23423436  0.13298337  1
  O  O23  1  0.63254252  0.45617741  0.26612034  1
  O  O24  1  0.76580791  0.41079622  0.04440212  1
  O  O25  1  0.81031276  0.72169470  0.13295246  1
  O  O26  1  0.09036668  0.63623993  0.18198946  1
  O  O27  1  0.27270365  0.90927669  0.04521626  1
  O  O28  1  0.23419209  0.58920378  0.95559788  1
  O  O29  1  0.54439706  0.81012610  0.08908346  1
  O  O30  1  0.72729635  0.09072331  0.95478374  1
  O  O31  1  -0.00000000  0.00000000  0.00000000  1
  O  O32  1  0.45560294  0.18987390  0.91091654  1
loop_
_geom_bond_atom_site_label_1
_geom_bond_atom_site_label_2
_geom_bond_distance
_geom_bond_site_symmetry_2
La0 O22 2.636965 1_555
La0 O0 2.636965 1_554
La0 O8 2.637126 1_554
La0 O23 2.637126 1_555
La0 O29 2.638388 1_555
La0 O32 2.638388 1_554
La0 O1 2.640086 1_554
La0 O25 2.640086 1_555
La0 O4 2.641133 1_554
La0 O21 2.641133 1_555
La0 O24 2.641578 1_555
La0 O28 2.641578 1_554
O0 W2 1.936409 1_555
O0 W9 1.970490 1_556
O1 W10 1.927895 1_555
O1 W1 1.980574 1_555
O2 W10 1.861933 1_565
O2 W3 1.923012 1_555
O3 W0 1.873465 1_555
O3 W4 1.913024 1_555
O4 W0 1.942897 1_555
O4 W2 1.962512 1_555
O5 W0 1.872406 1_555
O5 W1 1.917439 1_655
O6 W1 1.882415 1_555
O6 W5 1.903168 1_455
O7 W1 1.854105 1_555
O7 W3 1.934210 1_555
O8 W1 1.916030 1_555
O8 W2 1.991734 1_555
O9 W2 1.873045 1_555
O9 W4 1.914657 1_565
O10 W6 1.896787 1_555
O10 W2 1.896787 1_555
O11 W2 1.847901 1_555
O11 W3 1.947144 1_655
O12 W7 1.882415 1_555
O12 W3 1.903168 1_655
O13 W3 1.889058 1_545
O13 W5 1.889058 1_455
O14 W3 1.874976 1_555
O14 W4 1.908148 1_565
O15 W8 1.873465 1_555
O15 W4 1.913024 1_565
O16 W6 1.873045 1_555
O16 W4 1.914657 1_555
O17 W5 1.874976 1_555
O17 W4 1.908148 1_555
O18 W7 1.854105 1_555
O18 W5 1.934210 1_555
O19 W9 1.861933 1_545
O19 W5 1.923012 1_555
O20 W6 1.847901 1_555
O20 W5 1.947144 1_455
O21 W8 1.942897 1_555
O21 W6 1.962512 1_555
O22 W6 1.936409 1_555
O22 W10 1.970490 1_554
O23 W7 1.916030 1_555
O23 W6 1.991734 1_555
O24 W7 1.946206 1_555
O24 W0 1.954863 1_554
O25 W9 1.927895 1_555
O25 W7 1.980574 1_555
O26 W8 1.872406 1_555
O26 W7 1.917439 1_455
O27 W8 1.888884 1_555
O27 W10 1.901148 1_564
O28 W1 1.946206 1_555
O28 W8 1.954863 1_556
O29 W9 1.938566 1_555
O29 W8 1.963304 1_555
O30 W0 1.888884 1_555
O30 W9 1.901148 1_546
O31 W9 1.894914 1_445
O31 W10 1.894914 1_554
O32 W10 1.938566 1_555
O32 W0 1.963304 1_555
