# generated using pymatgen
data_Tb(GaFe)6
_symmetry_space_group_name_H-M   'P 1'
_cell_length_a   6.56472518
_cell_length_b   6.56472518
_cell_length_c   6.56472518
_cell_angle_alpha   135.16005587
_cell_angle_beta   98.72976109
_cell_angle_gamma   97.99845650
_symmetry_Int_Tables_number   1
_chemical_formula_structural   Tb(GaFe)6
_chemical_formula_sum   'Tb1 Ga6 Fe6'
_cell_volume   184.40483799
_cell_formula_units_Z   1
loop_
 _symmetry_equiv_pos_site_id
 _symmetry_equiv_pos_as_xyz
  1  'x, y, z'
loop_
 _atom_site_type_symbol
 _atom_site_label
 _atom_site_symmetry_multiplicity
 _atom_site_fract_x
 _atom_site_fract_y
 _atom_site_fract_z
 _atom_site_occupancy
  Tb  Tb0  1  -0.00000000  -0.00000000  0.00000000  1
  Ga  Ga0  1  0.81295064  0.31295064  0.50000000  1
  Ga  Ga1  1  0.65423826  0.65423826  0.00000000  1
  Ga  Ga2  1  0.34576174  0.34576174  -0.00000000  1
  Ga  Ga3  1  0.33443058  0.00000000  0.33443058  1
  Ga  Ga4  1  0.18704936  0.68704936  0.50000000  1
  Ga  Ga5  1  0.66556942  -0.00000000  0.66556942  1
  Fe  Fe0  1  0.75688553  0.50000000  0.25688553  1
  Fe  Fe1  1  0.24311447  0.50000000  0.74311447  1
  Fe  Fe2  1  -0.00000000  -0.00000000  0.50000000  1
  Fe  Fe3  1  0.50000000  -0.00000000  0.00000000  1
  Fe  Fe4  1  -0.00000000  0.50000000  0.00000000  1
  Fe  Fe5  1  0.50000000  0.50000000  0.50000000  1
loop_
_geom_bond_atom_site_label_1
_geom_bond_atom_site_label_2
_geom_bond_distance
_geom_bond_site_symmetry_2
Ga0 Ga1 2.852669 1_545
Ga0 Ga1 2.852669 1_556
Ga0 Tb0 2.977365 1_655
Ga0 Tb0 2.977365 1_666
Ga0 Ga5 3.044829 1_555
Ga0 Ga3 3.044829 1_555
Ga1 Ga2 2.657164 1_555
Ga1 Tb0 2.978332 1_665
Ga2 Ga4 2.852669 1_544
Ga2 Ga4 2.852669 1_555
Ga2 Tb0 2.978332 1_555
Ga3 Ga5 2.831375 1_555
Ga3 Tb0 2.859521 1_555
Ga3 Ga4 3.044829 1_545
Ga4 Tb0 2.977365 1_566
Ga4 Tb0 2.977365 1_555
Ga4 Ga5 3.044829 1_565
Ga5 Tb0 2.859521 1_656
Fe0 Fe5 2.491590 1_555
Fe0 Fe4 2.491590 1_655
Fe0 Fe3 2.491590 1_555
Fe0 Fe2 2.491590 1_665
Fe0 Ga1 2.567031 1_555
Fe0 Ga2 2.567031 1_555
Fe0 Ga5 2.622658 1_565
Fe0 Ga5 2.622658 1_554
Fe0 Ga0 2.630042 1_555
Fe0 Ga4 2.630042 1_655
Fe1 Fe5 2.491590 1_555
Fe1 Fe3 2.491590 1_566
Fe1 Fe4 2.491590 1_556
Fe1 Fe2 2.491590 1_555
Fe1 Ga1 2.567031 1_556
Fe1 Ga2 2.567031 1_556
Fe1 Ga3 2.622658 1_566
Fe1 Ga3 2.622658 1_555
Fe1 Ga0 2.630042 1_455
Fe1 Ga4 2.630042 1_555
Fe2 Fe4 2.503738 1_545
Fe2 Fe4 2.503738 1_556
Fe2 Ga4 2.535854 1_545
Fe2 Ga0 2.535854 1_455
Fe2 Ga5 2.593399 1_455
Fe2 Ga3 2.593399 1_555
Fe2 Ga2 2.610928 1_556
Fe2 Ga1 2.610928 1_445
Fe3 Fe5 2.503738 1_555
Fe3 Fe5 2.503738 1_544
Fe3 Ga4 2.535854 1_544
Fe3 Ga0 2.535854 1_555
Fe3 Ga5 2.593399 1_554
Fe3 Ga3 2.593399 1_555
Fe3 Ga1 2.610928 1_545
Fe3 Ga2 2.610928 1_555
Fe4 Ga4 2.535854 1_555
Fe4 Ga0 2.535854 1_454
Fe4 Ga3 2.593399 1_565
Fe4 Ga5 2.593399 1_454
Fe4 Ga2 2.610928 1_555
Fe4 Ga1 2.610928 1_455
Fe5 Ga4 2.535854 1_555
Fe5 Ga0 2.535854 1_555
Fe5 Ga5 2.593399 1_565
Fe5 Ga3 2.593399 1_555
Fe5 Ga1 2.610928 1_556
Fe5 Ga2 2.610928 1_555
