# generated using pymatgen
data_Cu3(Mo3S4)4
_symmetry_space_group_name_H-M   'P 1'
_cell_length_a   6.52035500
_cell_length_b   8.84288645
_cell_length_c   9.53813423
_cell_angle_alpha   89.77000657
_cell_angle_beta   88.64279677
_cell_angle_gamma   83.83054656
_symmetry_Int_Tables_number   1
_chemical_formula_structural   Cu3(Mo3S4)4
_chemical_formula_sum   'Cu3 Mo12 S16'
_cell_volume   546.61786390
_cell_formula_units_Z   1
loop_
 _symmetry_equiv_pos_site_id
 _symmetry_equiv_pos_as_xyz
  1  'x, y, z'
loop_
 _atom_site_type_symbol
 _atom_site_label
 _atom_site_symmetry_multiplicity
 _atom_site_fract_x
 _atom_site_fract_y
 _atom_site_fract_z
 _atom_site_occupancy
  Cu  Cu0  1  0.07318900  0.53676500  0.42447800  1
  Cu  Cu1  1  0.93197000  0.96096900  0.07652700  1
  Cu  Cu2  1  0.98522200  0.13364100  0.80849100  1
  Mo  Mo0  1  0.21294300  0.52703400  0.93248000  1
  Mo  Mo1  1  0.21839700  0.02496100  0.43035400  1
  Mo  Mo2  1  0.40191000  0.12113200  0.66324800  1
  Mo  Mo3  1  0.45814900  0.81126800  0.59403100  1
  Mo  Mo4  1  0.54420200  0.68804000  0.90706000  1
  Mo  Mo5  1  0.59497200  0.38200100  0.83579300  1
  Mo  Mo6  1  0.40357100  0.61780900  0.16362500  1
  Mo  Mo7  1  0.44912800  0.31137200  0.09465300  1
  Mo  Mo8  1  0.54712000  0.18764100  0.40279600  1
  Mo  Mo9  1  0.59704400  0.88188300  0.33638600  1
  Mo  Mo10  1  0.78228600  0.97364800  0.56795300  1
  Mo  Mo11  1  0.78399200  0.47623400  0.07084800  1
  S  S0  1  0.12999600  0.94014800  0.66908400  1
  S  S1  1  0.27216700  0.25964200  0.87952100  1
  S  S2  1  0.12836900  0.44843800  0.17821700  1
  S  S3  1  0.27464000  0.75422900  0.38193000  1
  S  S4  1  0.21065000  0.29605300  0.49601200  1
  S  S5  1  0.38077900  0.57054800  0.70752000  1
  S  S6  1  0.20295800  0.79220700  0.00566500  1
  S  S7  1  0.38210000  0.07043900  0.20599300  1
  S  S8  1  0.61429600  0.93021400  0.79360500  1
  S  S9  1  0.79707400  0.20413100  0.00882700  1
  S  S10  1  0.61606700  0.42834100  0.29282600  1
  S  S11  1  0.79620100  0.70668700  0.49393100  1
  S  S12  1  0.71942600  0.24535400  0.61946700  1
  S  S13  1  0.86512100  0.55107900  0.82893300  1
  S  S14  1  0.72647300  0.74587000  0.11894000  1
  S  S15  1  0.87258900  0.05272000  0.32230800  1
loop_
_geom_bond_atom_site_label_1
_geom_bond_atom_site_label_2
_geom_bond_distance
_geom_bond_site_symmetry_2
Cu0 S11 2.307926 1_455
Cu0 S4 2.325298 1_555
Cu0 S3 2.469703 1_555
Cu0 S2 2.484150 1_555
Cu1 S6 2.278321 1_655
Cu1 S9 2.328830 1_565
Cu1 S14 2.468388 1_555
Cu1 S15 2.491716 1_565
Cu2 S0 2.280008 1_645
Cu2 S9 2.297606 1_556
Cu2 S1 2.390655 1_655
Cu2 S12 2.644952 1_555
Mo0 S1 2.408176 1_555
Mo0 S5 2.433585 1_555
Mo0 S6 2.442993 1_556
Mo0 S13 2.482922 1_455
Mo0 S2 2.507779 1_556
Mo1 S7 2.420282 1_555
Mo1 S3 2.427231 1_545
Mo1 S0 2.469144 1_545
Mo1 S4 2.475078 1_555
Mo1 S15 2.489069 1_455
Mo2 S8 2.424077 1_545
Mo2 S12 2.472131 1_555
Mo2 S4 2.480331 1_555
Mo2 S1 2.487185 1_555
Mo2 S0 2.512447 1_545
Mo3 S0 2.408190 1_555
Mo3 S3 2.455897 1_555
Mo3 S11 2.468738 1_555
Mo3 S8 2.470739 1_555
Mo3 S5 2.478687 1_555
Mo4 S13 2.406113 1_555
Mo4 S14 2.451710 1_556
Mo4 S8 2.476765 1_555
Mo4 S6 2.480143 1_556
Mo4 S5 2.487395 1_555
Mo5 S5 2.406533 1_555
Mo5 S13 2.429467 1_555
Mo5 S12 2.471025 1_555
Mo5 S1 2.493830 1_555
Mo5 S9 2.563410 1_556
Mo6 S10 2.410573 1_555
Mo6 S6 2.449583 1_555
Mo6 S2 2.458992 1_555
Mo6 S3 2.493376 1_555
Mo6 S14 2.522498 1_555
Mo7 S2 2.421262 1_555
Mo7 S1 2.446282 1_554
Mo7 S7 2.453162 1_555
Mo7 S9 2.484433 1_555
Mo7 S10 2.486507 1_555
Mo8 S15 2.429490 1_555
Mo8 S4 2.446458 1_555
Mo8 S10 2.449114 1_555
Mo8 S12 2.456702 1_555
Mo8 S7 2.471134 1_555
Mo9 S7 2.419677 1_565
Mo9 S11 2.446596 1_555
Mo9 S15 2.469515 1_565
Mo9 S14 2.485830 1_555
Mo9 S3 2.518932 1_555
Mo10 S8 2.439636 1_555
Mo10 S12 2.443458 1_565
Mo10 S11 2.458445 1_555
Mo10 S0 2.472917 1_655
Mo10 S15 2.516987 1_565
Mo11 S10 2.417367 1_555
Mo11 S14 2.417575 1_555
Mo11 S13 2.459109 1_554
Mo11 S9 2.472211 1_555
Mo11 S2 2.477816 1_655
