# generated using pymatgen
data_H3ClO5
_symmetry_space_group_name_H-M   'P 1'
_cell_length_a   5.66957700
_cell_length_b   7.53070000
_cell_length_c   9.67274600
_cell_angle_alpha   90.00000000
_cell_angle_beta   90.00000000
_cell_angle_gamma   90.00000000
_symmetry_Int_Tables_number   1
_chemical_formula_structural   H3ClO5
_chemical_formula_sum   'H12 Cl4 O20'
_cell_volume   412.98643648
_cell_formula_units_Z   4
loop_
 _symmetry_equiv_pos_site_id
 _symmetry_equiv_pos_as_xyz
  1  'x, y, z'
loop_
 _atom_site_type_symbol
 _atom_site_label
 _atom_site_symmetry_multiplicity
 _atom_site_fract_x
 _atom_site_fract_y
 _atom_site_fract_z
 _atom_site_occupancy
  H  H0  1  0.47523600  0.62233600  0.72653300  1
  H  H1  1  0.47523600  0.87766400  0.22653300  1
  H  H2  1  0.97523600  0.37766400  0.27346700  1
  H  H3  1  0.97523600  0.12233600  0.77346700  1
  H  H4  1  0.21236400  0.78958200  0.25972200  1
  H  H5  1  0.22876700  0.96440600  0.15709600  1
  H  H6  1  0.21236400  0.71041800  0.75972200  1
  H  H7  1  0.22876700  0.53559400  0.65709600  1
  H  H8  1  0.71236400  0.21041800  0.74027800  1
  H  H9  1  0.72876700  0.03559400  0.84290400  1
  H  H10  1  0.71236400  0.28958200  0.24027800  1
  H  H11  1  0.72876700  0.46440600  0.34290400  1
  Cl  Cl0  1  0.77409800  0.70665700  0.90592200  1
  Cl  Cl1  1  0.77409800  0.79334300  0.40592200  1
  Cl  Cl2  1  0.27409800  0.29334300  0.09407800  1
  Cl  Cl3  1  0.27409800  0.20665700  0.59407800  1
  O  O0  1  0.71997400  0.58439900  0.78992300  1
  O  O1  1  0.71997400  0.91560100  0.28992300  1
  O  O2  1  0.21997400  0.41560100  0.21007700  1
  O  O3  1  0.21997400  0.08439900  0.71007700  1
  O  O4  1  0.74601100  0.61817400  0.03547600  1
  O  O5  1  0.74601100  0.88182600  0.53547600  1
  O  O6  1  0.24601100  0.38182600  0.96452400  1
  O  O7  1  0.24601100  0.11817400  0.46452400  1
  O  O8  1  0.60909000  0.85943600  0.89677000  1
  O  O9  1  0.01505300  0.72625400  0.38843900  1
  O  O10  1  0.10909000  0.14056400  0.10323000  1
  O  O11  1  0.51505300  0.27374600  0.61156100  1
  O  O12  1  0.51505300  0.22625400  0.11156100  1
  O  O13  1  0.10909000  0.35943600  0.60323000  1
  O  O14  1  0.01505300  0.77374600  0.88843900  1
  O  O15  1  0.60909000  0.64056400  0.39677000  1
  O  O16  1  0.31033600  0.84949700  0.18733500  1
  O  O17  1  0.31033600  0.65050300  0.68733500  1
  O  O18  1  0.81033600  0.15050300  0.81266500  1
  O  O19  1  0.81033600  0.34949700  0.31266500  1
loop_
_geom_bond_atom_site_label_1
_geom_bond_atom_site_label_2
_geom_bond_distance
_geom_bond_site_symmetry_2
H0 O17 1.030928 1_555
H0 O0 1.543666 1_555
H1 O16 1.030928 1_555
H1 O1 1.543666 1_555
H2 O19 1.030928 1_555
H2 O2 1.543666 1_655
H3 O18 1.030928 1_555
H3 O3 1.543666 1_655
H4 O16 1.001185 1_555
H4 O9 1.740403 1_555
H5 O16 1.023839 1_555
H5 O10 1.578515 1_565
H6 O17 1.001185 1_555
H6 O14 1.740403 1_555
H7 O17 1.023839 1_555
H7 O13 1.578515 1_555
H8 O18 1.001185 1_555
H8 O11 1.740403 1_555
H9 O18 1.023839 1_555
H9 O8 1.578515 1_545
H10 O19 1.001185 1_555
H10 O12 1.740403 1_555
H11 O19 1.023839 1_555
H11 O15 1.578515 1_555
Cl0 O4 1.428192 1_556
Cl0 O14 1.466328 1_655
Cl0 O0 1.483502 1_555
Cl0 O8 1.485520 1_555
Cl1 O5 1.428192 1_555
Cl1 O9 1.466328 1_655
Cl1 O1 1.483502 1_555
Cl1 O15 1.485520 1_555
Cl2 O6 1.428192 1_554
Cl2 O12 1.466328 1_555
Cl2 O2 1.483502 1_555
Cl2 O10 1.485520 1_555
Cl3 O7 1.428192 1_555
Cl3 O11 1.466328 1_555
Cl3 O3 1.483502 1_555
Cl3 O13 1.485520 1_555
