# generated using pymatgen
data_RbPbF3
_symmetry_space_group_name_H-M   'P 1'
_cell_length_a   4.68513900
_cell_length_b   4.94802656
_cell_length_c   17.83619439
_cell_angle_alpha   90.98935837
_cell_angle_beta   95.20667924
_cell_angle_gamma   89.91413782
_symmetry_Int_Tables_number   1
_chemical_formula_structural   RbPbF3
_chemical_formula_sum   'Rb4 Pb4 F12'
_cell_volume   411.71459872
_cell_formula_units_Z   4
loop_
 _symmetry_equiv_pos_site_id
 _symmetry_equiv_pos_as_xyz
  1  'x, y, z'
loop_
 _atom_site_type_symbol
 _atom_site_label
 _atom_site_symmetry_multiplicity
 _atom_site_fract_x
 _atom_site_fract_y
 _atom_site_fract_z
 _atom_site_occupancy
  Rb  Rb0  1  0.81708300  0.80921500  0.67882700  1
  Rb  Rb1  1  0.67753000  0.32695300  0.81595000  1
  Rb  Rb2  1  0.18291700  0.19078500  0.32117300  1
  Rb  Rb3  1  0.32247000  0.67304700  0.18405000  1
  Pb  Pb0  1  0.75618700  0.17796100  0.07207800  1
  Pb  Pb1  1  0.25107100  0.29143700  0.56697500  1
  Pb  Pb2  1  0.74892900  0.70856300  0.43302500  1
  Pb  Pb3  1  0.24381300  0.82203900  0.92792200  1
  F  F0  1  0.21824500  0.81988400  0.80376000  1
  F  F1  1  0.78175500  0.18011600  0.19624000  1
  F  F2  1  0.23914700  0.33362000  0.91464400  1
  F  F3  1  0.74310800  0.84355700  0.89603300  1
  F  F4  1  0.70800000  0.68890700  0.30963700  1
  F  F5  1  0.29200000  0.31109300  0.69036300  1
  F  F6  1  0.25749700  0.80359700  0.58178000  1
  F  F7  1  0.23720200  0.69500500  0.40141000  1
  F  F8  1  0.76085300  0.66638000  0.08535600  1
  F  F9  1  0.76279800  0.30499500  0.59859000  1
  F  F10  1  0.25689200  0.15644300  0.10396700  1
  F  F11  1  0.74250300  0.19640300  0.41822000  1
loop_
_geom_bond_atom_site_label_1
_geom_bond_atom_site_label_2
_geom_bond_distance
_geom_bond_site_symmetry_2
F0 Pb3 2.206775 1_555
F0 Rb0 2.781520 1_455
F0 Rb1 3.247174 1_555
F0 Rb1 3.299248 1_565
F1 Pb0 2.206775 1_555
F1 Rb2 2.781520 1_655
F1 Rb3 3.247174 1_555
F1 Rb3 3.299248 1_545
F2 Pb3 2.424151 1_555
F2 Pb3 2.546316 1_545
F2 Rb1 2.823522 1_555
F2 Rb1 3.030002 1_455
F3 Pb3 2.365827 1_655
F3 Pb3 2.459947 1_555
F3 Rb1 2.809228 1_565
F3 Rb1 2.909515 1_555
F4 Pb2 2.192190 1_555
F4 Rb3 2.747058 1_555
F5 Pb1 2.192190 1_555
F5 Rb1 2.747058 1_555
F6 Pb1 2.432619 1_565
F6 Pb1 2.543303 1_555
F6 Rb0 2.810870 1_455
F6 Rb0 3.007553 1_555
F7 Pb2 2.405841 1_455
F7 Pb2 2.413367 1_555
F7 Rb2 2.854791 1_555
F7 Rb2 2.860763 1_565
F8 Pb0 2.424151 1_555
F8 Pb0 2.546316 1_565
F8 Rb3 2.823522 1_555
F8 Rb3 3.030002 1_655
F9 Pb1 2.405841 1_655
F9 Pb1 2.413367 1_555
F9 Rb0 2.854791 1_555
F9 Rb0 2.860763 1_545
F10 Pb0 2.365827 1_455
F10 Pb0 2.459947 1_555
F10 Rb3 2.809228 1_545
F10 Rb3 2.909515 1_555
F11 Pb2 2.432619 1_545
F11 Pb2 2.543303 1_555
F11 Rb2 2.810870 1_655
F11 Rb2 3.007553 1_555
