# generated using pymatgen
data_K2Ge2Pb2O7
_symmetry_space_group_name_H-M   'P 1'
_cell_length_a   5.88560213
_cell_length_b   5.88560213
_cell_length_c   8.10864400
_cell_angle_alpha   90.00000000
_cell_angle_beta   90.00000000
_cell_angle_gamma   120.00000147
_symmetry_Int_Tables_number   1
_chemical_formula_structural   K2Ge2Pb2O7
_chemical_formula_sum   'K2 Ge2 Pb2 O7'
_cell_volume   243.25437476
_cell_formula_units_Z   1
loop_
 _symmetry_equiv_pos_site_id
 _symmetry_equiv_pos_as_xyz
  1  'x, y, z'
loop_
 _atom_site_type_symbol
 _atom_site_label
 _atom_site_symmetry_multiplicity
 _atom_site_fract_x
 _atom_site_fract_y
 _atom_site_fract_z
 _atom_site_occupancy
  K  K0  1  0.66666700  0.33333300  0.92037200  1
  K  K1  1  0.33333300  0.66666700  0.07962800  1
  Ge  Ge0  1  0.00000000  0.00000000  0.27736300  1
  Ge  Ge1  1  0.00000000  0.00000000  0.72263700  1
  Pb  Pb0  1  0.33333300  0.66666700  0.61822800  1
  Pb  Pb1  1  0.66666700  0.33333300  0.38177200  1
  O  O0  1  0.82008600  0.14844000  0.20896800  1
  O  O1  1  0.17991400  0.85156000  0.79103200  1
  O  O2  1  0.32835400  0.17991400  0.20896800  1
  O  O3  1  0.00000000  0.00000000  0.50000000  1
  O  O4  1  0.14844000  0.32835400  0.79103200  1
  O  O5  1  0.85156000  0.67164600  0.20896800  1
  O  O6  1  0.67164600  0.82008600  0.79103200  1
loop_
_geom_bond_atom_site_label_1
_geom_bond_atom_site_label_2
_geom_bond_distance
_geom_bond_site_symmetry_2
K0 O0 2.908319 1_556
K0 O5 2.908322 1_556
K0 O2 2.908322 1_556
K0 O4 3.037116 1_655
K0 O1 3.037119 1_545
K0 O6 3.037121 1_555
K0 O6 3.211595 1_545
K0 O1 3.211597 1_655
K0 O4 3.211600 1_555
K1 O1 2.908319 1_554
K1 O4 2.908322 1_554
K1 O6 2.908322 1_554
K1 O5 3.037116 1_455
K1 O0 3.037119 1_565
K1 O2 3.037121 1_555
K1 O2 3.211595 1_565
K1 O0 3.211597 1_455
K1 O5 3.211600 1_555
Ge0 O2 1.765572 1_555
Ge0 O5 1.765572 1_445
Ge0 O0 1.765572 1_455
Ge0 O3 1.805284 1_555
Ge1 O6 1.765572 1_445
Ge1 O4 1.765572 1_555
Ge1 O1 1.765572 1_545
Ge1 O3 1.805284 1_555
O0 Pb1 2.223854 1_555
O1 Pb0 2.223854 1_555
O2 Pb1 2.223858 1_555
O4 Pb0 2.223858 1_555
O5 Pb1 2.223858 1_555
O6 Pb0 2.223858 1_555
