# generated using pymatgen
data_CuH2(CO2)2
_symmetry_space_group_name_H-M   'P 1'
_cell_length_a   6.39311600
_cell_length_b   9.63702100
_cell_length_c   14.00743300
_cell_angle_alpha   90.00000000
_cell_angle_beta   90.00000000
_cell_angle_gamma   90.00000000
_symmetry_Int_Tables_number   1
_chemical_formula_structural   CuH2(CO2)2
_chemical_formula_sum   'Cu8 H16 C16 O32'
_cell_volume   863.00625560
_cell_formula_units_Z   8
loop_
 _symmetry_equiv_pos_site_id
 _symmetry_equiv_pos_as_xyz
  1  'x, y, z'
loop_
 _atom_site_type_symbol
 _atom_site_label
 _atom_site_symmetry_multiplicity
 _atom_site_fract_x
 _atom_site_fract_y
 _atom_site_fract_z
 _atom_site_occupancy
  Cu  Cu0  1  0.80138100  0.85649100  0.60334900  1
  Cu  Cu1  1  0.80138100  0.35649100  0.89665100  1
  Cu  Cu2  1  0.69861900  0.85649100  0.10334900  1
  Cu  Cu3  1  0.30138100  0.14350900  0.89665100  1
  Cu  Cu4  1  0.30138100  0.64350900  0.60334900  1
  Cu  Cu5  1  0.69861900  0.35649100  0.39665100  1
  Cu  Cu6  1  0.19861900  0.14350900  0.39665100  1
  Cu  Cu7  1  0.19861900  0.64350900  0.10334900  1
  H  H0  1  0.36584300  0.81885100  0.24772700  1
  H  H1  1  0.36584300  0.31885100  0.25227300  1
  H  H2  1  0.86584300  0.68114900  0.24772700  1
  H  H3  1  0.63415700  0.68114900  0.74772700  1
  H  H4  1  0.13415700  0.81885100  0.74772700  1
  H  H5  1  0.63415700  0.18114900  0.75227300  1
  H  H6  1  0.71016200  0.69520300  0.41868500  1
  H  H7  1  0.78983800  0.69520300  0.91868500  1
  H  H8  1  0.71016200  0.19520300  0.08131500  1
  H  H9  1  0.86584300  0.18114900  0.25227300  1
  H  H10  1  0.28983800  0.80479700  0.91868500  1
  H  H11  1  0.21016200  0.30479700  0.08131500  1
  H  H12  1  0.28983800  0.30479700  0.58131500  1
  H  H13  1  0.21016200  0.80479700  0.41868500  1
  H  H14  1  0.13415700  0.31885100  0.75227300  1
  H  H15  1  0.78983800  0.19520300  0.58131500  1
  C  C0  1  0.30458300  0.62118600  0.23025200  1
  C  C1  1  0.80458300  0.87881400  0.23025200  1
  C  C2  1  0.18571400  0.86430700  0.48550900  1
  C  C3  1  0.19541700  0.62118600  0.73025200  1
  C  C4  1  0.80458300  0.37881400  0.26974800  1
  C  C5  1  0.69541700  0.87881400  0.73025200  1
  C  C6  1  0.30458300  0.12118600  0.26974800  1
  C  C7  1  0.18571400  0.36430700  0.01449100  1
  C  C8  1  0.68571400  0.13569300  0.01449100  1
  C  C9  1  0.68571400  0.63569300  0.48550900  1
  C  C10  1  0.81428600  0.63569300  0.98550900  1
  C  C11  1  0.81428600  0.13569300  0.51449100  1
  C  C12  1  0.31428600  0.36430700  0.51449100  1
  C  C13  1  0.69541700  0.37881400  0.76974800  1
  C  C14  1  0.31428600  0.86430700  0.98550900  1
  C  C15  1  0.19541700  0.12118600  0.76974800  1
  O  O0  1  0.39349300  0.22691700  0.22247000  1
  O  O1  1  0.39349300  0.72691700  0.27753000  1
  O  O2  1  0.75980700  0.01131100  0.51005700  1
  O  O3  1  0.75980700  0.51131100  0.98994300  1
  O  O4  1  0.90144400  0.70296400  0.05603400  1
  O  O5  1  0.80190200  0.49484300  0.23397100  1
  O  O6  1  0.25980700  0.98868900  0.98994300  1
  O  O7  1  0.09855600  0.79703600  0.55603400  1
  O  O8  1  0.19809800  0.00515700  0.73397100  1
  O  O9  1  0.40144400  0.29703600  0.44396600  1
  O  O10  1  0.59855600  0.20296400  0.94396600  1
  O  O11  1  0.60650700  0.27308300  0.72247000  1
  O  O12  1  0.24019300  0.48868900  0.01005700  1
  O  O13  1  0.60650700  0.77308300  0.77753000  1
  O  O14  1  0.69809800  0.99484300  0.76602900  1
  O  O15  1  0.80190200  0.99484300  0.26602900  1
  O  O16  1  0.09855600  0.29703600  0.94396600  1
  O  O17  1  0.10650700  0.72691700  0.77753000  1
  O  O18  1  0.19809800  0.50515700  0.76602900  1
  O  O19  1  0.24019300  0.98868900  0.48994300  1
  O  O20  1  0.59855600  0.70296400  0.55603400  1
  O  O21  1  0.74019300  0.51131100  0.48994300  1
  O  O22  1  0.30190200  0.50515700  0.26602900  1
  O  O23  1  0.40144400  0.79703600  0.05603400  1
  O  O24  1  0.25980700  0.48868900  0.51005700  1
  O  O25  1  0.74019300  0.01131100  0.01005700  1
  O  O26  1  0.69809800  0.49484300  0.73397100  1
  O  O27  1  0.89349300  0.77308300  0.27753000  1
  O  O28  1  0.89349300  0.27308300  0.22247000  1
  O  O29  1  0.30190200  0.00515700  0.23397100  1
  O  O30  1  0.90144400  0.20296400  0.44396600  1
  O  O31  1  0.10650700  0.22691700  0.72247000  1
loop_
_geom_bond_atom_site_label_1
_geom_bond_atom_site_label_2
_geom_bond_distance
_geom_bond_site_symmetry_2
Cu0 O2 2.001099 1_565
Cu0 O20 2.075979 1_555
Cu0 O7 2.092145 1_655
Cu1 O3 2.001099 1_555
Cu1 O10 2.075979 1_555
Cu1 O16 2.092145 1_655
Cu2 O25 2.001099 1_565
Cu2 O4 2.075979 1_555
Cu2 O23 2.092145 1_555
Cu3 O6 2.001099 1_545
Cu3 O16 2.075979 1_555
Cu3 O10 2.092145 1_555
Cu4 O24 2.001099 1_555
Cu4 O7 2.075979 1_555
Cu4 O20 2.092145 1_555
Cu5 O21 2.001099 1_555
Cu5 O30 2.075979 1_555
Cu5 O9 2.092145 1_555
Cu6 O19 2.001099 1_545
Cu6 O9 2.075979 1_555
Cu6 O30 2.092145 1_455
Cu7 O12 2.001099 1_555
Cu7 O23 2.075979 1_555
Cu7 O4 2.092145 1_455
H0 O1 0.995222 1_555
H1 O0 0.995222 1_555
H2 O27 0.995222 1_555
H3 O13 0.995222 1_555
H4 O17 0.995222 1_555
H5 O11 0.995222 1_555
H9 O28 0.995222 1_555
H14 O31 0.995222 1_555
C0 O22 1.225460 1_555
C0 O1 1.341596 1_555
C0 Cu7 1.914423 1_555
C1 O15 1.225460 1_555
C1 O27 1.341596 1_555
C1 Cu2 1.914423 1_555
C2 H13 1.108823 1_555
C2 O19 1.249791 1_555
C2 O7 1.306393 1_555
C3 O18 1.225460 1_555
C3 O17 1.341596 1_555
C3 Cu4 1.914423 1_555
C4 O5 1.225460 1_555
C4 O28 1.341596 1_555
C4 Cu5 1.914423 1_555
C5 O14 1.225460 1_555
C5 O13 1.341596 1_555
C5 Cu0 1.914423 1_555
C6 O29 1.225460 1_555
C6 O0 1.341596 1_555
C6 Cu6 1.914423 1_555
C7 H11 1.108823 1_555
C7 O12 1.249791 1_555
C7 O16 1.306393 1_554
C8 H8 1.108823 1_555
C8 O25 1.249791 1_555
C8 O10 1.306393 1_554
C9 H6 1.108823 1_555
C9 O21 1.249791 1_555
C9 O20 1.306393 1_555
C10 H7 1.108823 1_555
C10 O3 1.249791 1_555
C10 O4 1.306393 1_556
C11 H15 1.108823 1_555
C11 O2 1.249791 1_555
C11 O30 1.306393 1_555
C12 H12 1.108823 1_555
C12 O24 1.249791 1_555
C12 O9 1.306393 1_555
C13 O26 1.225460 1_555
C13 O11 1.341596 1_555
C13 Cu1 1.914423 1_555
C14 H10 1.108823 1_555
C14 O6 1.249791 1_555
C14 O23 1.306393 1_556
C15 O8 1.225460 1_555
C15 O31 1.341596 1_555
C15 Cu3 1.914423 1_555
