# generated using pymatgen
data_Ho10Te7S10
_symmetry_space_group_name_H-M   'P 1'
_cell_length_a   7.62224000
_cell_length_b   9.65513254
_cell_length_c   11.36074355
_cell_angle_alpha   91.02384700
_cell_angle_beta   102.50674168
_cell_angle_gamma   111.41117528
_symmetry_Int_Tables_number   1
_chemical_formula_structural   Ho10Te7S10
_chemical_formula_sum   'Ho10 Te7 S10'
_cell_volume   755.57360927
_cell_formula_units_Z   1
loop_
 _symmetry_equiv_pos_site_id
 _symmetry_equiv_pos_as_xyz
  1  'x, y, z'
loop_
 _atom_site_type_symbol
 _atom_site_label
 _atom_site_symmetry_multiplicity
 _atom_site_fract_x
 _atom_site_fract_y
 _atom_site_fract_z
 _atom_site_occupancy
  Ho  Ho0  1  0.98840700  0.29257500  0.07198100  1
  Ho  Ho1  1  0.36998000  0.68867600  0.26669600  1
  Ho  Ho2  1  0.41256000  0.10610100  0.13437400  1
  Ho  Ho3  1  0.75715000  0.09919900  0.46552900  1
  Ho  Ho4  1  0.81318800  0.49654400  0.33055800  1
  Ho  Ho5  1  0.16120100  0.50176700  0.66744200  1
  Ho  Ho6  1  0.23049500  0.89457200  0.53679400  1
  Ho  Ho7  1  0.58314800  0.90143900  0.87483000  1
  Ho  Ho8  1  0.63751200  0.29649000  0.74101500  1
  Ho  Ho9  1  0.03121400  0.70804000  0.93999400  1
  Te  Te0  1  0.46286900  0.46031700  0.09682000  1
  Te  Te1  1  0.93857600  0.93948000  0.10603000  1
  Te  Te2  1  0.34223800  0.34483600  0.30615100  1
  Te  Te3  1  0.19821100  0.19942900  0.60179600  1
  Te  Te4  1  0.59103700  0.58993300  0.81537800  1
  Te  Te5  1  0.78966500  0.79164600  0.42260800  1
  Te  Te6  1  0.05521500  0.05137300  0.89701000  1
  S  S0  1  0.99790200  0.56345900  0.14389400  1
  S  S1  1  0.40236000  0.83423400  0.06312400  1
  S  S2  1  0.38503300  0.96402800  0.34349000  1
  S  S3  1  0.78971500  0.22283900  0.25806700  1
  S  S4  1  0.78543300  0.37507400  0.54588500  1
  S  S5  1  0.19440100  0.61943300  0.45762800  1
  S  S6  1  0.20169500  0.77746500  0.74797100  1
  S  S7  1  0.60664600  0.02111000  0.66012800  1
  S  S8  1  0.61041300  0.17457600  0.94955700  1
  S  S9  1  0.01045500  0.43208500  0.86180800  1
loop_
_geom_bond_atom_site_label_1
_geom_bond_atom_site_label_2
_geom_bond_distance
_geom_bond_site_symmetry_2
Ho0 S0 2.696842 1_555
Ho0 S8 2.710111 1_554
Ho0 S9 2.768987 1_654
Ho0 S3 2.812358 1_555
Ho0 Te2 3.233681 1_655
Ho0 Te6 3.282220 1_654
Ho0 Te0 3.323663 1_655
Ho0 Te1 3.328925 1_545
Ho1 S0 2.678423 1_455
Ho1 S2 2.737388 1_555
Ho1 S1 2.737673 1_555
Ho1 S5 2.756631 1_555
Ho1 Te5 3.085450 1_555
Ho1 Te0 3.265990 1_555
Ho1 Te2 3.293711 1_555
Ho2 S1 2.701709 1_545
Ho2 S3 2.708765 1_555
Ho2 S2 2.773428 1_545
Ho2 S8 2.795183 1_554
Ho2 Te2 3.256253 1_555
Ho2 Te6 3.269101 1_554
Ho2 Te1 3.313356 1_445
Ho2 Te0 3.345291 1_555
Ho3 S3 2.679431 1_555
Ho3 S2 2.683270 1_545
Ho3 S7 2.701587 1_555
Ho3 S4 2.717223 1_555
Ho3 Te5 3.107223 1_545
Ho3 Te3 3.154723 1_655
Ho4 S3 2.684601 1_555
Ho4 S5 2.745859 1_655
Ho4 S4 2.747730 1_555
Ho4 S0 2.752233 1_555
Ho4 Te5 3.097045 1_555
Ho4 Te0 3.243091 1_555
Ho4 Te2 3.289941 1_555
Ho5 S5 2.680410 1_555
Ho5 S6 2.684915 1_555
Ho5 S9 2.690047 1_555
Ho5 S4 2.697314 1_455
Ho5 Te3 3.125949 1_555
Ho5 Te4 3.132287 1_555
Ho6 S5 2.686157 1_555
Ho6 S6 2.688172 1_555
Ho6 S2 2.693742 1_555
Ho6 S7 2.705115 1_565
Ho6 Te5 3.096585 1_455
Ho6 Te3 3.130424 1_565
Ho7 S8 2.676197 1_565
Ho7 S7 2.730481 1_565
Ho7 S6 2.747006 1_555
Ho7 S1 2.751260 1_556
Ho7 Te4 3.095593 1_555
Ho7 Te1 3.245081 1_556
Ho7 Te6 3.301123 1_665
Ho8 S8 2.678691 1_555
Ho8 S9 2.684578 1_655
Ho8 S4 2.698011 1_555
Ho8 S7 2.707675 1_555
Ho8 Te4 3.105361 1_555
Ho8 Te3 3.155019 1_555
Ho9 S1 2.674490 1_556
Ho9 S9 2.731246 1_555
Ho9 S0 2.736901 1_456
Ho9 S6 2.746087 1_555
Ho9 Te4 3.106964 1_455
Ho9 Te1 3.260109 1_456
Ho9 Te6 3.303701 1_565
Te0 Te2 2.835059 1_555
Te1 Te6 2.810901 1_664
