# generated using pymatgen
data_Y2Ti2O7
_symmetry_space_group_name_H-M   'P 1'
_cell_length_a   7.25654149
_cell_length_b   7.25654149
_cell_length_c   24.10128384
_cell_angle_alpha   80.86051483
_cell_angle_beta   80.86051483
_cell_angle_gamma   59.13532486
_symmetry_Int_Tables_number   1
_chemical_formula_structural   Y2Ti2O7
_chemical_formula_sum   'Y16 Ti16 O56'
_cell_volume   1071.06145671
_cell_formula_units_Z   8
loop_
 _symmetry_equiv_pos_site_id
 _symmetry_equiv_pos_as_xyz
  1  'x, y, z'
loop_
 _atom_site_type_symbol
 _atom_site_label
 _atom_site_symmetry_multiplicity
 _atom_site_fract_x
 _atom_site_fract_y
 _atom_site_fract_z
 _atom_site_occupancy
  Y  Y0  1  0.73564600  0.24031400  0.24574900  1
  Y  Y1  1  0.24031400  0.73564600  0.24574900  1
  Y  Y2  1  0.23678000  0.23678000  0.25602600  1
  Y  Y3  1  0.85258900  0.85258900  0.37505100  1
  Y  Y4  1  0.50000000  0.00000000  0.50000000  1
  Y  Y5  1  0.14741100  0.14741100  0.62494900  1
  Y  Y6  1  0.00000000  0.50000000  0.50000000  1
  Y  Y7  1  0.75968600  0.26435400  0.75425100  1
  Y  Y8  1  0.50000000  0.50000000  0.50000000  1
  Y  Y9  1  0.26435400  0.75968600  0.75425100  1
  Y  Y10  1  0.00000000  0.50000000  0.00000000  1
  Y  Y11  1  0.76322000  0.76322000  0.74397400  1
  Y  Y12  1  0.50000000  0.00000000  0.00000000  1
  Y  Y13  1  0.12650800  0.12650800  0.12480800  1
  Y  Y14  1  0.00000000  0.00000000  0.00000000  1
  Y  Y15  1  0.87349200  0.87349200  0.87519200  1
  Ti  Ti0  1  0.36676200  0.36676200  0.37688700  1
  Ti  Ti1  1  0.36984200  0.86524000  0.37401100  1
  Ti  Ti2  1  0.00000000  0.00000000  0.50000000  1
  Ti  Ti3  1  0.86524000  0.36984200  0.37401100  1
  Ti  Ti4  1  0.63323800  0.63323800  0.62311300  1
  Ti  Ti5  1  0.63015800  0.13476000  0.62598900  1
  Ti  Ti6  1  0.37719400  0.37719400  0.87617600  1
  Ti  Ti7  1  0.25403200  0.25403200  0.75293200  1
  Ti  Ti8  1  0.13476000  0.63015800  0.62598900  1
  Ti  Ti9  1  0.87743700  0.37679300  0.87596100  1
  Ti  Ti10  1  0.62280600  0.62280600  0.12382400  1
  Ti  Ti11  1  0.50000000  0.50000000  0.00000000  1
  Ti  Ti12  1  0.37679300  0.87743700  0.87596100  1
  Ti  Ti13  1  0.12256300  0.62320700  0.12403900  1
  Ti  Ti14  1  0.62320700  0.12256300  0.12403900  1
  Ti  Ti15  1  0.74596800  0.74596800  0.24706800  1
  O  O0  1  0.38971800  0.38971800  0.28786000  1
  O  O1  1  0.06781200  0.48140700  0.39238800  1
  O  O2  1  0.88987200  0.88987200  0.28440900  1
  O  O3  1  0.88296000  0.47699700  0.29300300  1
  O  O4  1  0.64394100  0.64394100  0.53702500  1
  O  O5  1  0.48140700  0.06781200  0.39238800  1
  O  O6  1  0.47699700  0.88296000  0.29300300  1
  O  O7  1  0.65927100  0.65927100  0.39511800  1
  O  O8  1  0.12539600  0.12539600  0.34957000  1
  O  O9  1  0.30992300  0.73189200  0.63987000  1
  O  O10  1  0.28442200  0.86312100  0.45590600  1
  O  O11  1  0.13776300  0.13776300  0.53423800  1
  O  O12  1  0.26810800  0.69007700  0.36013000  1
  O  O13  1  0.13687900  0.71557800  0.54409400  1
  O  O14  1  0.90867800  0.90867800  0.78252200  1
  O  O15  1  0.86312100  0.28442200  0.45590600  1
  O  O16  1  0.73189200  0.30992300  0.63987000  1
  O  O17  1  0.71557800  0.13687900  0.54409400  1
  O  O18  1  0.69007700  0.26810800  0.36013000  1
  O  O19  1  0.87460400  0.87460400  0.65043000  1
  O  O20  1  0.86223700  0.86223700  0.46576200  1
  O  O21  1  0.47313500  0.06621200  0.89505100  1
  O  O22  1  0.34072900  0.34072900  0.60488200  1
  O  O23  1  0.52300300  0.11704000  0.70699700  1
  O  O24  1  0.37444800  0.37444800  0.79148000  1
  O  O25  1  0.51859300  0.93218800  0.60761200  1
  O  O26  1  0.37294300  0.96210100  0.79505100  1
  O  O27  1  0.35605900  0.35605900  0.46297500  1
  O  O28  1  0.15569800  0.15569800  0.03112900  1
  O  O29  1  0.11704000  0.52300300  0.70699700  1
  O  O30  1  0.06621200  0.47313500  0.89505100  1
  O  O31  1  0.06405500  0.06405500  0.89599100  1
  O  O32  1  0.96210100  0.37294300  0.79505100  1
  O  O33  1  0.93218800  0.51859300  0.60761200  1
  O  O34  1  0.11012800  0.11012800  0.71559100  1
  O  O35  1  0.72251400  0.31663500  0.14469600  1
  O  O36  1  0.68297600  0.68297600  0.85787500  1
  O  O37  1  0.78680100  0.37904600  0.95811900  1
  O  O38  1  0.62113600  0.62113600  0.04320000  1
  O  O39  1  0.68336500  0.27748600  0.85530400  1
  O  O40  1  0.62095400  0.21319900  0.04188100  1
  O  O41  1  0.61028200  0.61028200  0.71214000  1
  O  O42  1  0.37904600  0.78680100  0.95811900  1
  O  O43  1  0.31663500  0.72251400  0.14469600  1
  O  O44  1  0.21319900  0.62095400  0.04188100  1
  O  O45  1  0.31702400  0.31702400  0.14212500  1
  O  O46  1  0.37886400  0.37886400  0.95680000  1
  O  O47  1  0.27748600  0.68336500  0.85530400  1
  O  O48  1  0.03789900  0.62705700  0.20494900  1
  O  O49  1  0.93594500  0.93594500  0.10400900  1
  O  O50  1  0.84430200  0.84430200  0.96887100  1
  O  O51  1  0.93378800  0.52686500  0.10494900  1
  O  O52  1  0.62705700  0.03789900  0.20494900  1
  O  O53  1  0.52686500  0.93378800  0.10494900  1
  O  O54  1  0.62555200  0.62555200  0.20852000  1
  O  O55  1  0.09132200  0.09132200  0.21747800  1
loop_
_geom_bond_atom_site_label_1
_geom_bond_atom_site_label_2
_geom_bond_distance
_geom_bond_site_symmetry_2
O0 Ti0 2.112050 1_555
O0 Y2 2.203787 1_555
O0 Y0 2.292307 1_555
O0 Y1 2.292307 1_555
O1 Ti0 1.878109 1_555
O1 Ti3 2.134048 1_455
O1 Y3 2.324291 1_455
O1 Y6 2.573840 1_555
O2 Y3 2.149047 1_555
O2 Ti15 2.169506 1_555
O2 Y1 2.290411 1_655
O2 Y0 2.290411 1_565
O3 Ti15 1.922448 1_555
O3 Ti3 1.993381 1_555
O3 Y2 2.366323 1_655
O3 Y0 2.877762 1_555
O4 Ti4 2.054457 1_555
O4 Y8 2.165619 1_555
O4 Y6 2.314682 1_655
O4 Y4 2.314682 1_565
O5 Ti0 1.878109 1_555
O5 Ti1 2.134048 1_545
O5 Y3 2.324291 1_545
O5 Y4 2.573840 1_555
O6 Ti15 1.922448 1_555
O6 Ti1 1.993381 1_555
O6 Y2 2.366323 1_565
O6 Y1 2.877762 1_555
O7 Ti1 1.944437 1_555
O7 Ti3 1.944437 1_555
O7 Y3 2.399536 1_555
O8 Ti1 1.897421 1_545
O8 Ti3 1.897421 1_455
O8 Y2 2.429403 1_555
O9 Ti8 1.857116 1_555
O9 Ti4 2.060963 1_555
O9 Y5 2.598762 1_565
O9 Y9 2.751034 1_555
O10 Ti1 1.972743 1_555
O10 Ti2 1.977598 1_565
O10 Y8 2.434957 1_555
O10 Y4 2.649692 1_565
O11 Ti2 2.056488 1_555
O11 Y5 2.211736 1_555
O11 Y4 2.338080 1_555
O11 Y6 2.338080 1_555
O12 Ti1 1.857116 1_555
O12 Ti0 2.060963 1_555
O12 Y3 2.598762 1_455
O12 Y1 2.751034 1_555
O13 Ti8 1.972743 1_555
O13 Ti2 1.977598 1_565
O13 Y8 2.434957 1_555
O13 Y6 2.649692 1_555
O14 Y15 2.196207 1_555
O14 Y11 2.203990 1_555
O14 Y9 2.259845 1_655
O14 Y7 2.259845 1_565
O15 Ti3 1.972743 1_555
O15 Ti2 1.977598 1_655
O15 Y8 2.434957 1_555
O15 Y6 2.649692 1_655
O16 Ti5 1.857116 1_555
O16 Ti4 2.060963 1_555
O16 Y5 2.598762 1_655
O16 Y7 2.751034 1_555
O17 Ti5 1.972743 1_555
O17 Ti2 1.977598 1_655
O17 Y8 2.434957 1_555
O17 Y4 2.649692 1_555
O18 Ti3 1.857116 1_555
O18 Ti0 2.060963 1_555
O18 Y3 2.598762 1_545
O18 Y0 2.751034 1_555
O19 Ti5 1.897421 1_565
O19 Ti8 1.897421 1_655
O19 Y11 2.429403 1_555
O20 Ti2 2.056488 1_665
O20 Y3 2.211736 1_555
O20 Y6 2.338080 1_655
O20 Y4 2.338080 1_565
O21 Ti12 1.965182 1_545
O21 Ti6 1.986617 1_555
O21 Y15 2.495467 1_545
O21 Y12 2.518177 1_556
O22 Ti8 1.944437 1_555
O22 Ti5 1.944437 1_555
O22 Y5 2.399536 1_555
O23 Ti7 1.922448 1_555
O23 Ti5 1.993381 1_555
O23 Y11 2.366323 1_545
O23 Y7 2.877762 1_555
O24 Ti7 1.920782 1_555
O24 Ti6 2.047896 1_555
O24 Y9 2.529342 1_555
O24 Y7 2.529342 1_555
O25 Ti4 1.878109 1_555
O25 Ti5 2.134048 1_565
O25 Y5 2.324291 1_565
O25 Y4 2.573840 1_565
O26 Ti12 1.949351 1_555
O26 Ti7 1.995571 1_565
O26 Y9 2.374415 1_555
O26 Y11 2.623370 1_555
O27 Ti0 2.054457 1_555
O27 Y8 2.165619 1_555
O27 Y4 2.314682 1_555
O27 Y6 2.314682 1_555
O28 Y12 2.204344 1_555
O28 Y10 2.204344 1_555
O28 Y13 2.220249 1_555
O28 Y14 2.228047 1_555
O29 Ti7 1.922448 1_555
O29 Ti8 1.993381 1_555
O29 Y11 2.366323 1_455
O29 Y9 2.877762 1_555
O30 Ti9 1.965182 1_455
O30 Ti6 1.986617 1_555
O30 Y15 2.495467 1_455
O30 Y10 2.518177 1_556
O31 Ti9 1.980787 1_455
O31 Ti12 1.980787 1_545
O31 Y14 2.489434 1_556
O31 Y15 2.545213 1_445
O32 Ti9 1.949351 1_555
O32 Ti7 1.995571 1_655
O32 Y7 2.374415 1_555
O32 Y11 2.623370 1_555
O33 Ti4 1.878109 1_555
O33 Ti8 2.134048 1_655
O33 Y5 2.324291 1_655
O33 Y6 2.573840 1_655
O34 Y5 2.149047 1_555
O34 Ti7 2.169506 1_555
O34 Y7 2.290411 1_455
O34 Y9 2.290411 1_545
O35 Ti10 1.955487 1_555
O35 Ti14 2.031851 1_555
O35 Y0 2.416315 1_555
O35 Y13 2.518195 1_655
O36 Ti9 1.946449 1_555
O36 Ti12 1.946449 1_555
O36 Y15 2.514824 1_555
O36 Y11 2.747057 1_555
O37 Ti11 1.964801 1_556
O37 Ti9 1.984747 1_555
O37 Y14 2.495181 1_656
O37 Y10 2.520609 1_656
O38 Ti10 1.947102 1_555
O38 Ti11 2.000929 1_555
O38 Y12 2.513350 1_565
O38 Y10 2.513350 1_655
O39 Ti6 1.955487 1_555
O39 Ti9 2.031851 1_555
O39 Y7 2.416315 1_555
O39 Y15 2.518195 1_545
O40 Ti11 1.964801 1_555
O40 Ti14 1.984747 1_555
O40 Y14 2.495181 1_655
O40 Y12 2.520609 1_555
O41 Ti4 2.112050 1_555
O41 Y11 2.203787 1_555
O41 Y9 2.292307 1_555
O41 Y7 2.292307 1_555
O42 Ti11 1.964801 1_556
O42 Ti12 1.984747 1_555
O42 Y14 2.495181 1_566
O42 Y12 2.520609 1_566
O43 Ti10 1.955487 1_555
O43 Ti13 2.031851 1_555
O43 Y1 2.416315 1_555
O43 Y13 2.518195 1_565
O44 Ti11 1.964801 1_555
O44 Ti13 1.984747 1_555
O44 Y14 2.495181 1_565
O44 Y10 2.520609 1_555
O45 Ti13 1.946449 1_555
O45 Ti14 1.946449 1_555
O45 Y13 2.514824 1_555
O45 Y2 2.747057 1_555
O46 Ti6 1.947102 1_555
O46 Ti11 2.000929 1_556
O46 Y10 2.513350 1_556
O46 Y12 2.513350 1_556
O47 Ti6 1.955487 1_555
O47 Ti12 2.031851 1_555
O47 Y9 2.416315 1_555
O47 Y15 2.518195 1_455
O48 Ti13 1.949351 1_555
O48 Ti15 1.995571 1_455
O48 Y1 2.374415 1_555
O48 Y2 2.623370 1_555
O49 Ti14 1.980787 1_565
O49 Ti13 1.980787 1_655
O49 Y14 2.489434 1_665
O49 Y13 2.545213 1_665
O50 Y10 2.204344 1_656
O50 Y12 2.204344 1_566
O50 Y15 2.220249 1_555
O50 Y14 2.228047 1_666
O51 Ti13 1.965182 1_655
O51 Ti10 1.986617 1_555
O51 Y13 2.495467 1_655
O51 Y10 2.518177 1_655
O52 Ti14 1.949351 1_555
O52 Ti15 1.995571 1_545
O52 Y0 2.374415 1_555
O52 Y2 2.623370 1_555
O53 Ti14 1.965182 1_565
O53 Ti10 1.986617 1_555
O53 Y13 2.495467 1_565
O53 Y12 2.518177 1_565
O54 Ti15 1.920782 1_555
O54 Ti10 2.047896 1_555
O54 Y1 2.529342 1_555
O54 Y0 2.529342 1_555
O55 Y13 2.196207 1_555
O55 Y2 2.203990 1_555
O55 Y0 2.259845 1_455
O55 Y1 2.259845 1_545
