# generated using pymatgen
data_Os5C15SO15
_symmetry_space_group_name_H-M   'P 1'
_cell_length_a   7.72355900
_cell_length_b   16.31478400
_cell_length_c   19.16690400
_cell_angle_alpha   90.00000000
_cell_angle_beta   90.00000000
_cell_angle_gamma   90.00000000
_symmetry_Int_Tables_number   1
_chemical_formula_structural   Os5C15SO15
_chemical_formula_sum   'Os20 C60 S4 O60'
_cell_volume   2415.18701121
_cell_formula_units_Z   4
loop_
 _symmetry_equiv_pos_site_id
 _symmetry_equiv_pos_as_xyz
  1  'x, y, z'
loop_
 _atom_site_type_symbol
 _atom_site_label
 _atom_site_symmetry_multiplicity
 _atom_site_fract_x
 _atom_site_fract_y
 _atom_site_fract_z
 _atom_site_occupancy
  Os  Os0  1  0.43142200  0.15864300  0.10267600  1
  Os  Os1  1  0.96206600  0.89986900  0.34181500  1
  Os  Os2  1  0.53793400  0.89986900  0.84181500  1
  Os  Os3  1  0.44236500  0.24885700  0.23498400  1
  Os  Os4  1  0.06857800  0.15864300  0.60267600  1
  Os  Os5  1  0.56857800  0.65864300  0.89732400  1
  Os  Os6  1  0.70852500  0.26809100  0.12809700  1
  Os  Os7  1  0.55763500  0.74885700  0.76501600  1
  Os  Os8  1  0.46206600  0.39986900  0.15818500  1
  Os  Os9  1  0.05763500  0.24885700  0.73498400  1
  Os  Os10  1  0.29147500  0.76809100  0.87190300  1
  Os  Os11  1  0.07210000  0.31409800  0.52851700  1
  Os  Os12  1  0.03793400  0.39986900  0.65818500  1
  Os  Os13  1  0.94236500  0.74885700  0.26501600  1
  Os  Os14  1  0.79147500  0.26809100  0.62809700  1
  Os  Os15  1  0.42790000  0.31409800  0.02851700  1
  Os  Os16  1  0.20852500  0.76809100  0.37190300  1
  Os  Os17  1  0.93142200  0.65864300  0.39732400  1
  Os  Os18  1  0.57210000  0.81409800  0.97148300  1
  Os  Os19  1  0.92790000  0.81409800  0.47148300  1
  C  C0  1  0.74351500  0.89235500  0.99885800  1
  C  C1  1  0.82226400  0.17474200  0.16661400  1
  C  C2  1  0.36241000  0.73715600  0.70513600  1
  C  C3  1  0.75648500  0.89235500  0.49885800  1
  C  C4  1  0.90527000  0.36476100  0.46987900  1
  C  C5  1  0.17773600  0.67474200  0.83338600  1
  C  C6  1  0.83368000  0.65282300  0.22926500  1
  C  C7  1  0.78018700  0.97986700  0.34176300  1
  C  C8  1  0.50328900  0.56784500  0.84182500  1
  C  C9  1  0.15382700  0.76453000  0.95425400  1
  C  C10  1  0.67773600  0.17474200  0.66661400  1
  C  C11  1  0.09473000  0.86476100  0.53012100  1
  C  C12  1  0.21981300  0.47986700  0.65823700  1
  C  C13  1  0.14607900  0.24053700  0.45785100  1
  C  C14  1  0.00328900  0.06784500  0.65817500  1
  C  C15  1  0.99671100  0.56784500  0.34182500  1
  C  C16  1  0.84922600  0.34481700  0.17673100  1
  C  C17  1  0.43007900  0.61964200  0.97136300  1
  C  C18  1  0.93007900  0.11964200  0.52863700  1
  C  C19  1  0.24351500  0.39235500  0.50114200  1
  C  C20  1  0.65077400  0.34481700  0.67673100  1
  C  C21  1  0.33368000  0.15282300  0.27073500  1
  C  C22  1  0.89275300  0.46873800  0.60499700  1
  C  C23  1  0.59473000  0.36476100  0.96987900  1
  C  C24  1  0.30967300  0.31452000  0.29757900  1
  C  C25  1  0.34617300  0.76453000  0.45425400  1
  C  C26  1  0.06992100  0.61964200  0.47136300  1
  C  C27  1  0.27930100  0.10654900  0.57255500  1
  C  C28  1  0.54481100  0.43717300  0.24614400  1
  C  C29  1  0.34922600  0.84481700  0.32326900  1
  C  C30  1  0.04481100  0.93717300  0.25385600  1
  C  C31  1  0.19032700  0.31452000  0.79757900  1
  C  C32  1  0.39275300  0.96873800  0.89500300  1
  C  C33  1  0.72069900  0.60654900  0.42744500  1
  C  C34  1  0.28018700  0.47986700  0.15823700  1
  C  C35  1  0.16632000  0.15282300  0.77073500  1
  C  C36  1  0.13759000  0.73715600  0.20513600  1
  C  C37  1  0.63759000  0.23715600  0.29486400  1
  C  C38  1  0.49671100  0.06784500  0.15817500  1
  C  C39  1  0.64607900  0.74053700  0.04214900  1
  C  C40  1  0.25648500  0.39235500  0.00114200  1
  C  C41  1  0.15077400  0.84481700  0.82326900  1
  C  C42  1  0.22069900  0.10654900  0.07255500  1
  C  C43  1  0.45518900  0.93717300  0.75385600  1
  C  C44  1  0.77930100  0.60654900  0.92744500  1
  C  C45  1  0.10724700  0.96873800  0.39500300  1
  C  C46  1  0.84617300  0.26453000  0.04574600  1
  C  C47  1  0.65382700  0.26453000  0.54574600  1
  C  C48  1  0.80967300  0.81452000  0.20242100  1
  C  C49  1  0.86241000  0.23715600  0.79486400  1
  C  C50  1  0.56992100  0.11964200  0.02863700  1
  C  C51  1  0.85392100  0.74053700  0.54214900  1
  C  C52  1  0.69032700  0.81452000  0.70242100  1
  C  C53  1  0.66632000  0.65282300  0.72926500  1
  C  C54  1  0.32226400  0.67474200  0.33338600  1
  C  C55  1  0.60724700  0.46873800  0.10499700  1
  C  C56  1  0.71981300  0.97986700  0.84176300  1
  C  C57  1  0.95518900  0.43717300  0.74614400  1
  C  C58  1  0.40527000  0.86476100  0.03012100  1
  C  C59  1  0.35392100  0.24053700  0.95785100  1
  S  S0  1  0.26019900  0.28291800  0.13418400  1
  S  S1  1  0.73980100  0.78291800  0.86581600  1
  S  S2  1  0.23980100  0.28291800  0.63418400  1
  S  S3  1  0.76019900  0.78291800  0.36581600  1
  O  O0  1  0.39933000  0.96295200  0.70197700  1
  O  O1  1  0.67664300  0.03145000  0.34220100  1
  O  O2  1  0.06278500  0.75894200  0.00283100  1
  O  O3  1  0.23445100  0.09536900  0.79333500  1
  O  O4  1  0.19299000  0.89963600  0.56515800  1
  O  O5  1  0.80183800  0.51230500  0.57374200  1
  O  O6  1  0.72703000  0.85565200  0.16571500  1
  O  O7  1  0.93721500  0.25894200  0.99716900  1
  O  O8  1  0.25389700  0.72936700  0.16697900  1
  O  O9  1  0.30500400  0.19640700  0.91444500  1
  O  O10  1  0.30183800  0.01230500  0.92625800  1
  O  O11  1  0.65200400  0.94041300  0.51329800  1
  O  O12  1  0.76554900  0.59536900  0.20666500  1
  O  O13  1  0.43721500  0.75894200  0.50283100  1
  O  O14  1  0.80701000  0.39963600  0.43484200  1
  O  O15  1  0.26554900  0.09536900  0.29333500  1
  O  O16  1  0.10338800  0.61892800  0.80990300  1
  O  O17  1  0.56278500  0.25894200  0.49716900  1
  O  O18  1  0.84799600  0.94041300  0.01329800  1
  O  O19  1  0.82335700  0.03145000  0.84220100  1
  O  O20  1  0.90631900  0.57656000  0.94704000  1
  O  O21  1  0.19816200  0.01230500  0.42625800  1
  O  O22  1  0.77297000  0.85565200  0.66571500  1
  O  O23  1  0.39661200  0.61892800  0.30990300  1
  O  O24  1  0.69299000  0.39963600  0.93484200  1
  O  O25  1  0.04546900  0.51024800  0.31219500  1
  O  O26  1  0.06007200  0.88843100  0.79180300  1
  O  O27  1  0.95453100  0.01024800  0.68780500  1
  O  O28  1  0.32335700  0.53145000  0.65779900  1
  O  O29  1  0.09368100  0.07656000  0.05296000  1
  O  O30  1  0.65574300  0.09340700  0.98397200  1
  O  O31  1  0.30701000  0.89963600  0.06515800  1
  O  O32  1  0.75389700  0.22936700  0.33302100  1
  O  O33  1  0.24610300  0.72936700  0.66697900  1
  O  O34  1  0.60338800  0.11892800  0.69009700  1
  O  O35  1  0.19499600  0.19640700  0.41444500  1
  O  O36  1  0.54546900  0.01024800  0.18780500  1
  O  O37  1  0.22703000  0.35565200  0.33428500  1
  O  O38  1  0.27297000  0.35565200  0.83428500  1
  O  O39  1  0.89661200  0.11892800  0.19009700  1
  O  O40  1  0.80500400  0.69640700  0.58555500  1
  O  O41  1  0.15200400  0.44041300  0.98670200  1
  O  O42  1  0.73445100  0.59536900  0.70666500  1
  O  O43  1  0.45453100  0.51024800  0.81219500  1
  O  O44  1  0.15574300  0.59340700  0.51602800  1
  O  O45  1  0.34799600  0.44041300  0.48670200  1
  O  O46  1  0.69499600  0.69640700  0.08555500  1
  O  O47  1  0.93992800  0.38843100  0.20819700  1
  O  O48  1  0.56007200  0.38843100  0.70819700  1
  O  O49  1  0.59368100  0.57656000  0.44704000  1
  O  O50  1  0.10067000  0.96295200  0.20197700  1
  O  O51  1  0.34425700  0.59340700  0.01602800  1
  O  O52  1  0.74610300  0.22936700  0.83302100  1
  O  O53  1  0.84425700  0.09340700  0.48397200  1
  O  O54  1  0.60067000  0.46295200  0.29802300  1
  O  O55  1  0.40631900  0.07656000  0.55296000  1
  O  O56  1  0.17664300  0.53145000  0.15779900  1
  O  O57  1  0.89933000  0.46295200  0.79802300  1
  O  O58  1  0.43992800  0.88843100  0.29180300  1
  O  O59  1  0.69816200  0.51230500  0.07374200  1
loop_
_geom_bond_atom_site_label_1
_geom_bond_atom_site_label_2
_geom_bond_distance
_geom_bond_site_symmetry_2
Os0 S0 2.494879 1_555
Os1 S3 2.506610 1_555
Os2 S1 2.506610 1_555
Os3 S0 2.453789 1_555
Os4 S2 2.494879 1_555
Os5 S1 2.494879 1_555
Os7 S1 2.453789 1_555
Os8 S0 2.506610 1_555
Os9 S2 2.453789 1_555
Os11 S2 2.457299 1_555
Os12 S2 2.506610 1_555
Os13 S3 2.453789 1_555
Os15 S0 2.457299 1_555
Os17 S3 2.494879 1_555
Os18 S1 2.457299 1_555
Os19 S3 2.457299 1_555
C0 O18 1.158679 1_556
C0 Os18 1.912638 1_555
C1 O39 1.166837 1_555
C1 Os6 1.906871 1_555
C2 O33 1.165321 1_555
C2 Os7 1.904533 1_555
C3 O11 1.158679 1_555
C3 Os19 1.912638 1_555
C4 O14 1.162184 1_555
C4 Os11 1.899119 1_655
C5 O16 1.166837 1_555
C5 Os10 1.906871 1_555
C6 O12 1.158949 1_555
C6 Os13 1.904988 1_555
C7 O1 1.160977 1_565
C7 Os1 1.917485 1_555
C8 O43 1.160753 1_555
C8 Os5 1.892150 1_555
C9 O2 1.170320 1_556
C9 Os10 1.903947 1_555
C10 O34 1.166837 1_555
C10 Os14 1.906871 1_555
C11 O4 1.162184 1_555
C11 Os19 1.899119 1_455
C12 O28 1.160977 1_555
C12 Os12 1.917485 1_555
C13 O35 1.163296 1_555
C13 Os11 1.897715 1_555
C14 O27 1.160753 1_455
C14 Os4 1.892150 1_555
C15 O25 1.160753 1_655
C15 Os17 1.892150 1_555
C16 O47 1.166535 1_555
C16 Os6 1.901787 1_555
C17 O51 1.164243 1_556
C17 Os5 1.887585 1_555
C18 O53 1.164243 1_555
C18 Os4 1.887585 1_655
C19 O45 1.158679 1_555
C19 Os11 1.912638 1_555
C20 O48 1.166535 1_555
C20 Os14 1.901787 1_555
C21 O15 1.158949 1_555
C21 Os3 1.904988 1_555
C22 O5 1.164972 1_555
C22 Os12 1.886547 1_655
C23 O24 1.162184 1_555
C23 Os15 1.899119 1_556
C24 O37 1.163063 1_555
C24 Os3 1.907189 1_555
C25 O13 1.170320 1_555
C25 Os16 1.903947 1_555
C26 O44 1.164243 1_555
C26 Os17 1.887585 1_455
C27 O55 1.158818 1_555
C27 Os4 1.924707 1_555
C28 O54 1.162656 1_555
C28 Os8 1.902918 1_555
C29 O58 1.166535 1_555
C29 Os16 1.901787 1_555
C30 O50 1.162656 1_555
C30 Os1 1.902918 1_455
C31 O38 1.163063 1_555
C31 Os9 1.907189 1_555
C32 O10 1.164972 1_565
C32 Os2 1.886547 1_555
C33 O49 1.158818 1_555
C33 Os17 1.924707 1_555
C34 O56 1.160977 1_555
C34 Os8 1.917485 1_555
C35 O3 1.158949 1_555
C35 Os9 1.904988 1_555
C36 O8 1.165321 1_555
C36 Os13 1.904533 1_455
C37 O32 1.165321 1_555
C37 Os3 1.904533 1_555
C38 O36 1.160753 1_555
C38 Os0 1.892150 1_555
C39 O46 1.163296 1_555
C39 Os18 1.897715 1_554
C40 O41 1.158679 1_554
C40 Os15 1.912638 1_555
C41 O26 1.166535 1_555
C41 Os10 1.901787 1_555
C42 O29 1.158818 1_555
C42 Os0 1.924707 1_555
C43 O0 1.162656 1_555
C43 Os2 1.902918 1_555
C44 O20 1.158818 1_555
C44 Os5 1.924707 1_555
C45 O21 1.164972 1_565
C45 Os1 1.886547 1_455
C46 O7 1.170320 1_554
C46 Os6 1.903947 1_555
C47 O17 1.170320 1_555
C47 Os14 1.903947 1_555
C48 O6 1.163063 1_555
C48 Os13 1.907189 1_555
C49 O52 1.165321 1_555
C49 Os9 1.904533 1_655
C50 O30 1.164243 1_554
C50 Os0 1.887585 1_555
C51 O40 1.163296 1_555
C51 Os19 1.897715 1_555
C52 O22 1.163063 1_555
C52 Os7 1.907189 1_555
C53 O42 1.158949 1_555
C53 Os7 1.904988 1_555
C54 O23 1.166837 1_555
C54 Os16 1.906871 1_555
C55 O59 1.164972 1_555
C55 Os8 1.886547 1_555
C56 O19 1.160977 1_565
C56 Os2 1.917485 1_555
C57 O57 1.162656 1_555
C57 Os12 1.902918 1_655
C58 O31 1.162184 1_555
C58 Os18 1.899119 1_554
C59 O9 1.163296 1_555
C59 Os15 1.897715 1_556
