# generated using pymatgen
data_Ba14Na14CaN6
_symmetry_space_group_name_H-M   'P 1'
_cell_length_a   12.67431210
_cell_length_b   12.67431762
_cell_length_c   12.67433692
_cell_angle_alpha   59.99994964
_cell_angle_beta   59.99993522
_cell_angle_gamma   59.99991568
_symmetry_Int_Tables_number   1
_chemical_formula_structural   Ba14Na14CaN6
_chemical_formula_sum   'Ba14 Na14 Ca1 N6'
_cell_volume   1439.65549266
_cell_formula_units_Z   1
loop_
 _symmetry_equiv_pos_site_id
 _symmetry_equiv_pos_as_xyz
  1  'x, y, z'
loop_
 _atom_site_type_symbol
 _atom_site_label
 _atom_site_symmetry_multiplicity
 _atom_site_fract_x
 _atom_site_fract_y
 _atom_site_fract_z
 _atom_site_occupancy
  Ba  Ba0  1  0.89389660  0.89389680  0.89389691  1
  Ba  Ba1  1  0.68168903  0.10610347  0.10610425  1
  Ba  Ba2  1  0.10610340  0.10610320  0.68169131  1
  Ba  Ba3  1  0.10610385  0.68168920  0.10610397  1
  Ba  Ba4  1  0.89389660  0.89389680  0.31830869  1
  Ba  Ba5  1  0.89389615  0.31831080  0.89389603  1
  Ba  Ba6  1  0.31831097  0.89389653  0.89389575  1
  Ba  Ba7  1  0.10610340  0.10610320  0.10610309  1
  Ba  Ba8  1  0.28607070  0.71392962  0.28607072  1
  Ba  Ba9  1  0.71392891  0.71392950  0.28607079  1
  Ba  Ba10  1  0.28607109  0.28607050  0.71392921  1
  Ba  Ba11  1  0.28607070  0.71392962  0.71392895  1
  Ba  Ba12  1  0.71392930  0.28607038  0.28607105  1
  Ba  Ba13  1  0.71392930  0.28607038  0.71392928  1
  Na  Na0  1  0.67146621  0.67146623  0.67146612  1
  Na  Na1  1  0.01439853  0.32853375  0.32853386  1
  Na  Na2  1  0.32853379  0.32853377  0.01439855  1
  Na  Na3  1  0.32853401  0.01439848  0.32853375  1
  Na  Na4  1  0.67146621  0.67146623  0.98560145  1
  Na  Na5  1  0.67146599  0.98560152  0.67146625  1
  Na  Na6  1  0.98560147  0.67146625  0.67146614  1
  Na  Na7  1  0.32853379  0.32853377  0.32853388  1
  Na  Na8  1  0.50000000  0.00000000  -0.00000000  1
  Na  Na9  1  -0.00000000  0.50000000  0.50000000  1
  Na  Na10  1  -0.00000000  0.50000000  -0.00000000  1
  Na  Na11  1  0.50000000  0.00000000  0.50000000  1
  Na  Na12  1  0.50000000  0.50000000  -0.00000000  1
  Na  Na13  1  -0.00000000  0.00000000  0.50000000  1
  Ca  Ca0  1  -0.00000000  0.00000000  -0.00000000  1
  N  N0  1  0.14398823  0.85601187  0.14398795  1
  N  N1  1  0.85601177  0.85601198  0.14398813  1
  N  N2  1  0.14398823  0.14398802  0.85601187  1
  N  N3  1  0.14398823  0.85601187  0.85601195  1
  N  N4  1  0.85601177  0.14398813  0.14398805  1
  N  N5  1  0.85601177  0.14398813  0.85601205  1
loop_
_geom_bond_atom_site_label_1
_geom_bond_atom_site_label_2
_geom_bond_distance
_geom_bond_site_symmetry_2
Ba0 N5 2.773970 1_565
Ba0 N3 2.773971 1_655
Ba0 N1 2.773974 1_556
Ba0 Na8 4.113603 1_566
Ba0 Na10 4.113607 1_656
Ba0 Na13 4.113616 1_665
Ba0 Na4 4.317459 1_555
Ba0 Na5 4.317465 1_555
Ba0 Na6 4.317465 1_555
Ba1 N1 2.773973 1_545
Ba1 N4 2.773975 1_555
Ba1 N5 2.773983 1_554
Ba1 Na11 4.113601 1_555
Ba1 Na12 4.113602 1_555
Ba1 Na8 4.113611 1_555
Ba1 Na3 4.317444 1_555
Ba1 Na7 4.317444 1_555
Ba1 Na2 4.317450 1_555
Ba2 N2 2.773961 1_555
Ba2 N3 2.773966 1_545
Ba2 N5 2.773967 1_455
Ba2 Na11 4.113604 1_555
Ba2 Na9 4.113609 1_555
Ba2 Na13 4.113627 1_555
Ba2 Na7 4.317464 1_555
Ba2 Na3 4.317476 1_555
Ba2 Na1 4.317476 1_555
Ba3 N0 2.773974 1_555
Ba3 N1 2.773977 1_455
Ba3 N3 2.773982 1_554
Ba3 Na12 4.113596 1_555
Ba3 Na9 4.113604 1_555
Ba3 Na10 4.113614 1_555
Ba3 Na7 4.317445 1_555
Ba3 Na2 4.317451 1_555
Ba3 Na1 4.317452 1_555
Ba4 N1 2.773961 1_555
Ba4 N4 2.773966 1_565
Ba4 N0 2.773967 1_655
Ba4 Na11 4.113604 1_565
Ba4 Na9 4.113609 1_655
Ba4 Na13 4.113627 1_665
Ba4 Na0 4.317464 1_555
Ba4 Na5 4.317476 1_555
Ba4 Na6 4.317476 1_555
Ba5 N5 2.773974 1_555
Ba5 N2 2.773977 1_655
Ba5 N4 2.773982 1_556
Ba5 Na12 4.113596 1_556
Ba5 Na9 4.113604 1_655
Ba5 Na10 4.113614 1_656
Ba5 Na0 4.317445 1_555
Ba5 Na4 4.317451 1_555
Ba5 Na6 4.317452 1_555
Ba6 N2 2.773973 1_565
Ba6 N3 2.773975 1_555
Ba6 N0 2.773983 1_556
Ba6 Na11 4.113601 1_565
Ba6 Na12 4.113602 1_556
Ba6 Na8 4.113611 1_566
Ba6 Na5 4.317444 1_555
Ba6 Na0 4.317444 1_555
Ba6 Na4 4.317450 1_555
Ba7 N0 2.773970 1_545
Ba7 N4 2.773971 1_455
Ba7 N2 2.773974 1_554
Ba7 Na8 4.113603 1_555
Ba7 Na10 4.113607 1_555
Ba7 Na13 4.113616 1_555
Ba7 Na2 4.317459 1_555
Ba7 Na3 4.317465 1_555
Ba7 Na1 4.317465 1_555
Ba8 N0 2.546716 1_555
Ba8 Na4 4.412568 1_554
Ba8 Na3 4.412569 1_565
Ba8 Na6 4.412571 1_455
Ba8 Na7 4.412574 1_555
Ba9 N1 2.546716 1_555
Ba9 Na3 4.412559 1_565
Ba9 Na1 4.412569 1_655
Ba9 Na4 4.412577 1_554
Ba9 Na0 4.412577 1_555
Ba10 N2 2.546716 1_555
Ba10 Na5 4.412559 1_545
Ba10 Na6 4.412569 1_455
Ba10 Na2 4.412577 1_556
Ba10 Na7 4.412577 1_555
Ba11 N3 2.546716 1_555
Ba11 Na0 4.412568 1_555
Ba11 Na3 4.412569 1_565
Ba11 Na6 4.412571 1_455
Ba11 Na2 4.412574 1_556
Ba12 N4 2.546716 1_555
Ba12 Na7 4.412568 1_555
Ba12 Na5 4.412569 1_545
Ba12 Na1 4.412571 1_655
Ba12 Na4 4.412574 1_554
Ba13 N5 2.546716 1_555
Ba13 Na2 4.412568 1_556
Ba13 Na5 4.412569 1_545
Ba13 Na1 4.412571 1_655
Ba13 Na0 4.412574 1_555
Na0 Na9 3.661788 1_655
Na0 Na11 3.661790 1_565
Na0 Na12 3.661794 1_556
Na0 Na6 3.981449 1_555
Na0 Na5 3.981450 1_555
Na0 Na4 3.981457 1_555
Na1 Na13 3.661791 1_555
Na1 Na9 3.661797 1_555
Na1 Na10 3.661797 1_555
Na1 Na3 3.981446 1_555
Na1 Na7 3.981449 1_555
Na1 Na2 3.981449 1_555
Na2 Na8 3.661790 1_555
Na2 Na3 3.981450 1_555
Na2 Na7 3.981457 1_555
Na3 Na8 3.661795 1_555
Na3 Na7 3.981450 1_555
Na4 Na8 3.661790 1_566
Na4 Na6 3.981449 1_555
Na4 Na5 3.981450 1_555
Na5 Na8 3.661795 1_566
Na5 Na6 3.981446 1_555
Na6 Na9 3.661797 1_655
Na7 Na9 3.661788 1_555
Na10 Na4 3.661788 1_454
Na10 Na2 3.661788 1_555
Na10 Na6 3.661797 1_454
Na11 Na7 3.661790 1_555
Na11 Na3 3.661795 1_555
Na11 Na5 3.661795 1_545
Na12 Na7 3.661794 1_555
Na12 Na2 3.661794 1_555
Na12 Na4 3.661794 1_554
Na13 Na6 3.661791 1_445
Na13 Na5 3.661791 1_445
Na13 Na3 3.661791 1_555
Ca0 N1 2.580870 1_445
Ca0 N2 2.580870 1_554
Ca0 N5 2.580870 1_454
Ca0 N4 2.580870 1_455
Ca0 N0 2.580870 1_545
Ca0 N3 2.580870 1_544
