# generated using pymatgen
data_Nb2O5
_symmetry_space_group_name_H-M   'P 1'
_cell_length_a   4.92538051
_cell_length_b   5.63382921
_cell_length_c   6.90028395
_cell_angle_alpha   103.48042118
_cell_angle_beta   110.90974341
_cell_angle_gamma   90.00000147
_symmetry_Int_Tables_number   1
_chemical_formula_structural   Nb2O5
_chemical_formula_sum   'Nb4 O10'
_cell_volume   173.20569587
_cell_formula_units_Z   2
loop_
 _symmetry_equiv_pos_site_id
 _symmetry_equiv_pos_as_xyz
  1  'x, y, z'
loop_
 _atom_site_type_symbol
 _atom_site_label
 _atom_site_symmetry_multiplicity
 _atom_site_fract_x
 _atom_site_fract_y
 _atom_site_fract_z
 _atom_site_occupancy
  Nb  Nb0  1  0.38259312  0.25180774  0.28059879  1
  Nb  Nb1  1  0.10199432  0.24819226  0.71940121  1
  Nb  Nb2  1  0.61740688  0.74819226  0.71940121  1
  Nb  Nb3  1  0.89800568  0.75180774  0.28059879  1
  O  O0  1  0.72355835  0.37253826  0.58865192  1
  O  O1  1  0.13490644  0.12746174  0.41134808  1
  O  O2  1  0.27644165  0.62746174  0.41134808  1
  O  O3  1  0.86509356  0.87253826  0.58865192  1
  O  O4  1  0.89826747  0.75000000  0.00000000  1
  O  O5  1  0.10173253  0.25000000  -0.00000000  1
  O  O6  1  0.33703587  0.52691164  0.78147387  1
  O  O7  1  0.55556400  0.97308836  0.21852613  1
  O  O8  1  0.66296413  0.47308836  0.21852613  1
  O  O9  1  0.44443600  0.02691164  0.78147387  1
loop_
_geom_bond_atom_site_label_1
_geom_bond_atom_site_label_2
_geom_bond_distance
_geom_bond_site_symmetry_2
Nb0 O7 1.822602 1_545
Nb0 O5 1.934324 1_555
Nb0 O1 1.968077 1_555
Nb0 O8 2.077434 1_555
Nb0 O0 2.139907 1_555
Nb0 O2 2.238939 1_555
Nb1 O6 1.822596 1_555
Nb1 O5 1.934324 1_556
Nb1 O0 1.968078 1_455
Nb1 O9 2.077427 1_555
Nb1 O1 2.139907 1_555
Nb1 O3 2.238939 1_445
Nb2 O9 1.822602 1_565
Nb2 O4 1.934324 1_556
Nb2 O3 1.968077 1_555
Nb2 O6 2.077434 1_555
Nb2 O2 2.139907 1_555
Nb2 O0 2.238939 1_555
Nb3 O8 1.822596 1_555
Nb3 O4 1.934324 1_555
Nb3 O2 1.968078 1_655
Nb3 O7 2.077427 1_555
Nb3 O3 2.139907 1_555
Nb3 O1 2.238939 1_665
