# generated using pymatgen
data_NaCaSiHO4
_symmetry_space_group_name_H-M   'P 1'
_cell_length_a   7.03456852
_cell_length_b   5.39814252
_cell_length_c   5.45496424
_cell_angle_alpha   63.54857936
_cell_angle_beta   90.00000000
_cell_angle_gamma   90.00000000
_symmetry_Int_Tables_number   1
_chemical_formula_structural   NaCaSiHO4
_chemical_formula_sum   'Na2 Ca2 Si2 H2 O8'
_cell_volume   185.45916412
_cell_formula_units_Z   2
loop_
 _symmetry_equiv_pos_site_id
 _symmetry_equiv_pos_as_xyz
  1  'x, y, z'
loop_
 _atom_site_type_symbol
 _atom_site_label
 _atom_site_symmetry_multiplicity
 _atom_site_fract_x
 _atom_site_fract_y
 _atom_site_fract_z
 _atom_site_occupancy
  Na  Na0  1  0.76589711  0.36015929  0.25820538  1
  Na  Na1  1  0.26589711  0.63984071  0.74179462  1
  Ca  Ca0  1  0.51389874  0.99685023  0.99407091  1
  Ca  Ca1  1  0.01389874  0.00314977  0.00592909  1
  Si  Si0  1  0.75493371  0.65659238  0.62642830  1
  Si  Si1  1  0.25493371  0.34340762  0.37357170  1
  H  H0  1  -0.00061492  0.96346458  0.53223238  1
  H  H1  1  0.49938508  0.03653542  0.46776762  1
  O  O0  1  0.76335469  0.32458728  0.80514248  1
  O  O1  1  0.26335469  0.67541272  0.19485752  1
  O  O2  1  0.76116301  0.76233680  0.29715666  1
  O  O3  1  0.26116301  0.23766320  0.70284334  1
  O  O4  1  0.57321905  0.79005890  0.70985752  1
  O  O5  1  0.07321905  0.20994110  0.29014248  1
  O  O6  1  0.95114861  0.79053006  0.70263308  1
  O  O7  1  0.45114861  0.20946994  0.29736692  1
loop_
_geom_bond_atom_site_label_1
_geom_bond_atom_site_label_2
_geom_bond_distance
_geom_bond_site_symmetry_2
Na0 O2 2.273874 1_555
Na0 O5 2.288180 1_655
Na0 O7 2.335560 1_555
Na0 O0 2.562812 1_554
Na0 O0 2.903138 1_555
Na1 O3 2.273874 1_555
Na1 O4 2.288180 1_555
Na1 O6 2.335560 1_455
Na1 O1 2.562812 1_556
Na1 O1 2.903138 1_555
Ca0 O4 2.316399 1_555
Ca0 O2 2.344561 1_556
Ca0 O3 2.352597 1_565
Ca0 O1 2.371420 1_556
Ca0 O0 2.376370 1_565
Ca0 O7 2.437449 1_566
Ca1 O5 2.316399 1_555
Ca1 O3 2.344561 1_554
Ca1 O2 2.352597 1_445
Ca1 O0 2.371420 1_454
Ca1 O1 2.376370 1_545
Ca1 O6 2.437449 1_444
H0 O6 1.038068 1_455
H0 O5 1.489519 1_565
H1 O7 1.038068 1_555
H1 O4 1.489519 1_545
O0 Si0 1.615360 1_555
O1 Si1 1.615360 1_555
O2 Si0 1.624979 1_555
O3 Si1 1.624979 1_555
O4 Si0 1.628594 1_555
O5 Si1 1.628594 1_555
O6 Si0 1.693665 1_555
O7 Si1 1.693665 1_555
