# generated using pymatgen
data_Tl2Cd2(SO4)3
_symmetry_space_group_name_H-M   'P 1'
_cell_length_a   10.59570300
_cell_length_b   10.59570300
_cell_length_c   10.59570300
_cell_angle_alpha   90.00000000
_cell_angle_beta   90.00000000
_cell_angle_gamma   90.00000000
_symmetry_Int_Tables_number   1
_chemical_formula_structural   Tl2Cd2(SO4)3
_chemical_formula_sum   'Tl8 Cd8 S12 O48'
_cell_volume   1189.56815432
_cell_formula_units_Z   4
loop_
 _symmetry_equiv_pos_site_id
 _symmetry_equiv_pos_as_xyz
  1  'x, y, z'
loop_
 _atom_site_type_symbol
 _atom_site_label
 _atom_site_symmetry_multiplicity
 _atom_site_fract_x
 _atom_site_fract_y
 _atom_site_fract_z
 _atom_site_occupancy
  Tl  Tl0  1  0.05303400  0.05303400  0.05303400  1
  Tl  Tl1  1  0.94696600  0.55303400  0.44696600  1
  Tl  Tl2  1  0.55303400  0.44696600  0.94696600  1
  Tl  Tl3  1  0.44696600  0.94696600  0.55303400  1
  Tl  Tl4  1  0.81598700  0.81598700  0.81598700  1
  Tl  Tl5  1  0.31598700  0.68401300  0.18401300  1
  Tl  Tl6  1  0.68401300  0.18401300  0.31598700  1
  Tl  Tl7  1  0.18401300  0.31598700  0.68401300  1
  Cd  Cd0  1  0.41345100  0.08654900  0.91345100  1
  Cd  Cd1  1  0.08654900  0.91345100  0.41345100  1
  Cd  Cd2  1  0.91345100  0.41345100  0.08654900  1
  Cd  Cd3  1  0.58654900  0.58654900  0.58654900  1
  Cd  Cd4  1  0.66984300  0.83015700  0.16984300  1
  Cd  Cd5  1  0.83015700  0.16984300  0.66984300  1
  Cd  Cd6  1  0.16984300  0.66984300  0.83015700  1
  Cd  Cd7  1  0.33015700  0.33015700  0.33015700  1
  S  S0  1  0.22599100  0.37499600  0.01384000  1
  S  S1  1  0.72599100  0.12500400  0.98616000  1
  S  S2  1  0.77400900  0.87499600  0.48616000  1
  S  S3  1  0.12500400  0.98616000  0.72599100  1
  S  S4  1  0.48616000  0.77400900  0.87499600  1
  S  S5  1  0.98616000  0.72599100  0.12500400  1
  S  S6  1  0.37499600  0.01384000  0.22599100  1
  S  S7  1  0.01384000  0.22599100  0.37499600  1
  S  S8  1  0.87499600  0.48616000  0.77400900  1
  S  S9  1  0.62500400  0.51384000  0.27400900  1
  S  S10  1  0.51384000  0.27400900  0.62500400  1
  S  S11  1  0.27400900  0.62500400  0.51384000  1
  O  O0  1  0.25534600  0.41600700  0.14547400  1
  O  O1  1  0.75534600  0.08399300  0.85452600  1
  O  O2  1  0.74465400  0.91600700  0.35452600  1
  O  O3  1  0.08399300  0.85452600  0.75534600  1
  O  O4  1  0.35452600  0.74465400  0.91600700  1
  O  O5  1  0.85452600  0.75534600  0.08399300  1
  O  O6  1  0.41600700  0.14547400  0.25534600  1
  O  O7  1  0.14547400  0.25534600  0.41600700  1
  O  O8  1  0.91600700  0.35452600  0.74465400  1
  O  O9  1  0.58399300  0.64547400  0.24465400  1
  O  O10  1  0.64547400  0.24465400  0.58399300  1
  O  O11  1  0.24465400  0.58399300  0.64547400  1
  O  O12  1  0.23848800  0.48591600  0.92867500  1
  O  O13  1  0.73848800  0.01408400  0.07132500  1
  O  O14  1  0.76151200  0.98591600  0.57132500  1
  O  O15  1  0.01408400  0.07132500  0.73848800  1
  O  O16  1  0.57132500  0.76151200  0.98591600  1
  O  O17  1  0.07132500  0.73848800  0.01408400  1
  O  O18  1  0.49268300  0.90559700  0.82265200  1
  O  O19  1  0.48591600  0.92867500  0.23848800  1
  O  O20  1  0.98591600  0.57132500  0.76151200  1
  O  O21  1  0.51408400  0.42867500  0.26151200  1
  O  O22  1  0.42867500  0.26151200  0.51408400  1
  O  O23  1  0.26151200  0.51408400  0.42867500  1
  O  O24  1  0.09440300  0.32265200  0.00731700  1
  O  O25  1  0.59440300  0.17734800  0.99268300  1
  O  O26  1  0.90559700  0.82265200  0.49268300  1
  O  O27  1  0.17734800  0.99268300  0.59440300  1
  O  O28  1  0.18396500  0.72320300  0.47098400  1
  O  O29  1  0.47098400  0.18396500  0.72320300  1
  O  O30  1  0.72320300  0.47098400  0.18396500  1
  O  O31  1  0.77679700  0.52901600  0.68396500  1
  O  O32  1  0.97098400  0.31603500  0.27679700  1
  O  O33  1  0.27679700  0.97098400  0.31603500  1
  O  O34  1  0.02901600  0.81603500  0.22320300  1
  O  O35  1  0.52901600  0.68396500  0.77679700  1
  O  O36  1  0.22320300  0.02901600  0.81603500  1
  O  O37  1  0.68396500  0.77679700  0.52901600  1
  O  O38  1  0.81603500  0.22320300  0.02901600  1
  O  O39  1  0.31603500  0.27679700  0.97098400  1
  O  O40  1  0.40559700  0.67734800  0.50731700  1
  O  O41  1  0.50731700  0.40559700  0.67734800  1
  O  O42  1  0.67734800  0.50731700  0.40559700  1
  O  O43  1  0.82265200  0.49268300  0.90559700  1
  O  O44  1  0.00731700  0.09440300  0.32265200  1
  O  O45  1  0.32265200  0.00731700  0.09440300  1
  O  O46  1  0.99268300  0.59440300  0.17734800  1
  O  O47  1  0.92867500  0.23848800  0.48591600  1
loop_
_geom_bond_atom_site_label_1
_geom_bond_atom_site_label_2
_geom_bond_distance
_geom_bond_site_symmetry_2
Cd0 O18 2.303580 1_545
Cd0 O25 2.303580 1_555
Cd0 O45 2.303580 1_556
Cd0 O29 2.345321 1_555
Cd0 O36 2.345321 1_555
Cd0 O39 2.345321 1_555
Cd1 O26 2.303580 1_455
Cd1 O27 2.303580 1_555
Cd1 O44 2.303580 1_565
Cd1 O28 2.345321 1_555
Cd1 O33 2.345321 1_555
Cd1 O34 2.345321 1_555
Cd2 O43 2.303580 1_554
Cd2 O46 2.303580 1_555
Cd2 O24 2.303580 1_655
Cd2 O30 2.345321 1_555
Cd2 O38 2.345321 1_555
Cd2 O32 2.345321 1_555
Cd3 O41 2.303580 1_555
Cd3 O42 2.303580 1_555
Cd3 O40 2.303580 1_555
Cd3 O37 2.345321 1_555
Cd3 O35 2.345321 1_555
Cd3 O31 2.345321 1_555
Cd4 O9 2.298919 1_555
Cd4 O2 2.298919 1_555
Cd4 O5 2.298919 1_555
Cd4 O19 2.327369 1_555
Cd4 O13 2.327369 1_565
Cd4 O16 2.327369 1_554
Cd5 O10 2.298919 1_555
Cd5 O8 2.298919 1_555
Cd5 O1 2.298919 1_555
Cd5 O15 2.327369 1_655
Cd5 O47 2.327369 1_555
Cd5 O14 2.327369 1_545
Cd6 O4 2.298919 1_555
Cd6 O11 2.298919 1_555
Cd6 O3 2.298919 1_555
Cd6 O17 2.327369 1_556
Cd6 O12 2.327369 1_555
Cd6 O20 2.327369 1_455
Cd7 O7 2.298919 1_555
Cd7 O0 2.298919 1_555
Cd7 O6 2.298919 1_555
Cd7 O22 2.327369 1_555
Cd7 O23 2.327369 1_555
Cd7 O21 2.327369 1_555
O0 S0 1.493623 1_555
O1 S1 1.493623 1_555
O2 S2 1.493623 1_555
O3 S3 1.493623 1_555
O4 S4 1.493623 1_555
O5 S5 1.493623 1_555
O6 S6 1.493623 1_555
O7 S7 1.493623 1_555
O8 S8 1.493623 1_555
O9 S9 1.493623 1_555
O10 S10 1.493623 1_555
O11 S11 1.493623 1_555
O12 S0 1.487649 1_556
O13 S1 1.487649 1_554
O14 S2 1.487649 1_555
O15 S3 1.487649 1_545
O16 S4 1.487649 1_555
O17 S5 1.487649 1_455
O18 S4 1.502120 1_555
O19 S6 1.487649 1_565
O20 S8 1.487649 1_555
O21 S9 1.487649 1_555
O22 S10 1.487649 1_555
O23 S11 1.487649 1_555
O24 S0 1.502120 1_555
O25 S1 1.502120 1_555
O26 S2 1.502120 1_555
O27 S3 1.502120 1_555
O28 S11 1.482929 1_555
O29 S10 1.482929 1_555
O30 S9 1.482929 1_555
O31 S8 1.482929 1_555
O32 S7 1.482929 1_655
O33 S6 1.482929 1_565
O34 S5 1.482929 1_455
O35 S4 1.482929 1_555
O36 S3 1.482929 1_545
O37 S2 1.482929 1_555
O38 S1 1.482929 1_554
O39 S0 1.482929 1_556
O40 S11 1.502120 1_555
O41 S10 1.502120 1_555
O42 S9 1.502120 1_555
O43 S8 1.502120 1_555
O44 S7 1.502120 1_555
O45 S6 1.502120 1_555
O46 S5 1.502120 1_555
O47 S7 1.487649 1_655
