# generated using pymatgen
data_KMgP2H5O9
_symmetry_space_group_name_H-M   'P 1'
_cell_length_a   8.73999700
_cell_length_b   9.07057200
_cell_length_c   9.66211600
_cell_angle_alpha   90.00000000
_cell_angle_beta   90.00000000
_cell_angle_gamma   90.00000000
_symmetry_Int_Tables_number   1
_chemical_formula_structural   KMgP2H5O9
_chemical_formula_sum   'K4 Mg4 P8 H20 O36'
_cell_volume   765.98136783
_cell_formula_units_Z   4
loop_
 _symmetry_equiv_pos_site_id
 _symmetry_equiv_pos_as_xyz
  1  'x, y, z'
loop_
 _atom_site_type_symbol
 _atom_site_label
 _atom_site_symmetry_multiplicity
 _atom_site_fract_x
 _atom_site_fract_y
 _atom_site_fract_z
 _atom_site_occupancy
  K  K0  1  0.28835600  0.75539500  0.91238300  1
  K  K1  1  0.28835600  0.74460500  0.41238300  1
  K  K2  1  0.78835600  0.25539500  0.58761700  1
  K  K3  1  0.78835600  0.24460500  0.08761700  1
  Mg  Mg0  1  0.32609200  0.07018000  0.65076700  1
  Mg  Mg1  1  0.32609200  0.42982000  0.15076700  1
  Mg  Mg2  1  0.82609200  0.57018000  0.84923300  1
  Mg  Mg3  1  0.82609200  0.92982000  0.34923300  1
  P  P0  1  0.81739600  0.92396300  0.82150500  1
  P  P1  1  0.52501600  0.14920700  0.85132800  1
  P  P2  1  0.81739600  0.57603700  0.32150500  1
  P  P3  1  0.52501600  0.35079300  0.35132800  1
  P  P4  1  0.31739600  0.42396300  0.67849500  1
  P  P5  1  0.02501600  0.64920700  0.64867200  1
  P  P6  1  0.31739600  0.07603700  0.17849500  1
  P  P7  1  0.02501600  0.85079300  0.14867200  1
  H  H0  1  0.57863300  0.41361100  0.91280600  1
  H  H1  1  0.00824300  0.09935400  0.29964800  1
  H  H2  1  0.07180700  0.44608400  0.98593200  1
  H  H3  1  0.80530600  0.80320800  0.62259300  1
  H  H4  1  0.48223100  0.70316100  0.64956900  1
  H  H5  1  0.80530600  0.69679200  0.12259300  1
  H  H6  1  0.48223100  0.79683900  0.14956900  1
  H  H7  1  0.07180700  0.05391600  0.48593200  1
  H  H8  1  0.00824300  0.40064600  0.79964800  1
  H  H9  1  0.57863300  0.08638900  0.41280600  1
  H  H10  1  0.07863300  0.91361100  0.58719400  1
  H  H11  1  0.57180700  0.94608400  0.51406800  1
  H  H12  1  0.50824300  0.59935400  0.20035200  1
  H  H13  1  0.30530600  0.30320800  0.87740700  1
  H  H14  1  0.98223100  0.20316100  0.85043100  1
  H  H15  1  0.30530600  0.19679200  0.37740700  1
  H  H16  1  0.98223100  0.29683900  0.35043100  1
  H  H17  1  0.50824300  0.90064600  0.70035200  1
  H  H18  1  0.57180700  0.55391600  0.01406800  1
  H  H19  1  0.07863300  0.58638900  0.08719400  1
  O  O0  1  0.02791200  0.81539000  0.30616200  1
  O  O1  1  0.82142000  0.90495300  0.65588900  1
  O  O2  1  0.89208400  0.53332100  0.64018400  1
  O  O3  1  0.49170300  0.47873700  0.64181900  1
  O  O4  1  0.22017500  0.56051600  0.64667500  1
  O  O5  1  0.45393300  0.87788600  0.61436800  1
  O  O6  1  0.14350900  0.99254400  0.55016600  1
  O  O7  1  0.51655000  0.87949000  0.21555100  1
  O  O8  1  0.76363400  0.71415500  0.39180100  1
  O  O9  1  0.76363400  0.78584500  0.89180100  1
  O  O10  1  0.51655000  0.62051000  0.71555100  1
  O  O11  1  0.14350900  0.50745600  0.05016600  1
  O  O12  1  0.45393300  0.62211400  0.11436800  1
  O  O13  1  0.22017500  0.93948400  0.14667500  1
  O  O14  1  0.89208400  0.96667900  0.14018400  1
  O  O15  1  0.49170300  0.02126300  0.14181900  1
  O  O16  1  0.02791200  0.68461000  0.80616200  1
  O  O17  1  0.82142000  0.59504700  0.15588900  1
  O  O18  1  0.52791200  0.31539000  0.19383800  1
  O  O19  1  0.32142000  0.40495300  0.84411100  1
  O  O20  1  0.39208400  0.03332100  0.85981600  1
  O  O21  1  0.99170300  0.97873700  0.85818100  1
  O  O22  1  0.72017500  0.06051600  0.85332500  1
  O  O23  1  0.64350900  0.49254400  0.94983400  1
  O  O24  1  0.95393300  0.37788600  0.88563200  1
  O  O25  1  0.01655000  0.37949000  0.28444900  1
  O  O26  1  0.26363400  0.21415500  0.10819900  1
  O  O27  1  0.26363400  0.28584500  0.60819900  1
  O  O28  1  0.01655000  0.12051000  0.78444900  1
  O  O29  1  0.95393300  0.12211400  0.38563200  1
  O  O30  1  0.64350900  0.00745600  0.44983400  1
  O  O31  1  0.72017500  0.43948400  0.35332500  1
  O  O32  1  0.39208400  0.46667900  0.35981600  1
  O  O33  1  0.99170300  0.52126300  0.35818100  1
  O  O34  1  0.52791200  0.18461000  0.69383800  1
  O  O35  1  0.32142000  0.09504700  0.34411100  1
loop_
_geom_bond_atom_site_label_1
_geom_bond_atom_site_label_2
_geom_bond_distance
_geom_bond_site_symmetry_2
K0 O16 2.578182 1_555
K0 O12 2.713761 1_556
K0 O20 2.726727 1_565
K0 O13 2.875396 1_556
K1 O0 2.578182 1_555
K1 O5 2.713761 1_555
K1 O32 2.726727 1_555
K1 O4 2.875396 1_555
K2 O34 2.578182 1_555
K2 O29 2.713761 1_555
K2 O2 2.726727 1_555
K2 O31 2.875396 1_555
K3 O18 2.578182 1_555
K3 O24 2.713761 1_554
K3 O14 2.726727 1_545
K3 O22 2.875396 1_554
Mg0 O6 1.996802 1_545
Mg0 O27 2.072171 1_555
Mg0 O34 2.088512 1_555
Mg0 O5 2.101048 1_545
Mg0 O20 2.127030 1_555
Mg1 O11 1.996802 1_555
Mg1 O26 2.072171 1_555
Mg1 O18 2.088512 1_555
Mg1 O12 2.101048 1_555
Mg1 O32 2.127030 1_555
Mg2 O23 1.996802 1_555
Mg2 O9 2.072171 1_555
Mg2 O16 2.088512 1_655
Mg2 O24 2.101048 1_555
Mg2 O2 2.127030 1_555
Mg3 O30 1.996802 1_565
Mg3 O8 2.072171 1_555
Mg3 O0 2.088512 1_655
Mg3 O29 2.101048 1_565
Mg3 O14 2.127030 1_555
H0 O23 0.980875 1_555
H1 O29 0.978846 1_455
H2 O11 1.042978 1_556
H2 O24 1.543757 1_455
H3 O1 0.987446 1_555
H4 O10 1.028808 1_555
H5 O17 0.987446 1_555
H6 O7 1.028808 1_555
H7 O6 1.042978 1_545
H7 O29 1.543757 1_455
H8 O24 0.978846 1_455
H9 O30 0.980875 1_555
H10 O6 0.980875 1_555
H11 O30 1.042978 1_565
H11 O5 1.543757 1_555
H12 O12 0.978846 1_555
H13 O19 0.987446 1_555
H14 O28 1.028808 1_655
H15 O35 0.987446 1_555
H16 O25 1.028808 1_655
H17 O5 0.978846 1_555
H18 O23 1.042978 1_554
H18 O12 1.543757 1_555
H19 O11 0.980875 1_555
O0 P7 1.555407 1_555
O1 P0 1.609849 1_555
O2 P5 1.568912 1_655
O3 P4 1.641126 1_555
O4 P4 1.533199 1_555
O4 P5 1.885983 1_555
O8 P2 1.500547 1_555
O9 P0 1.500547 1_555
O13 P6 1.533199 1_565
O13 P7 1.885983 1_555
O14 P7 1.568912 1_655
O15 P6 1.641126 1_555
O16 P5 1.555407 1_555
O17 P2 1.609849 1_555
O18 P3 1.555407 1_555
O19 P4 1.609849 1_555
O20 P1 1.568912 1_555
O21 P0 1.641126 1_555
O22 P0 1.533199 1_545
O22 P1 1.885983 1_555
O26 P6 1.500547 1_555
O27 P4 1.500547 1_555
O31 P2 1.533199 1_555
O31 P3 1.885983 1_555
O32 P3 1.568912 1_555
O33 P2 1.641126 1_555
O34 P1 1.555407 1_555
O35 P6 1.609849 1_555
