# generated using pymatgen
data_AgAsS6N4(OF3)2
_symmetry_space_group_name_H-M   'P 1'
_cell_length_a   9.30317400
_cell_length_b   10.44350400
_cell_length_c   15.13609200
_cell_angle_alpha   90.00000000
_cell_angle_beta   90.00000000
_cell_angle_gamma   90.00000000
_symmetry_Int_Tables_number   1
_chemical_formula_structural   AgAsS6N4(OF3)2
_chemical_formula_sum   'Ag4 As4 S24 N16 O8 F24'
_cell_volume   1470.58841368
_cell_formula_units_Z   4
loop_
 _symmetry_equiv_pos_site_id
 _symmetry_equiv_pos_as_xyz
  1  'x, y, z'
loop_
 _atom_site_type_symbol
 _atom_site_label
 _atom_site_symmetry_multiplicity
 _atom_site_fract_x
 _atom_site_fract_y
 _atom_site_fract_z
 _atom_site_occupancy
  Ag  Ag0  1  0.25000000  0.00000000  0.58798000  1
  Ag  Ag1  1  0.25000000  0.00000000  0.08798000  1
  Ag  Ag2  1  0.75000000  0.00000000  0.41202000  1
  Ag  Ag3  1  0.75000000  0.00000000  0.91202000  1
  As  As0  1  0.50000000  0.77516800  0.25000000  1
  As  As1  1  0.50000000  0.22483200  0.75000000  1
  As  As2  1  0.00000000  0.77516800  0.75000000  1
  As  As3  1  0.00000000  0.22483200  0.25000000  1
  S  S0  1  0.92963700  0.84133800  0.12489700  1
  S  S1  1  0.07036300  0.15866200  0.87510300  1
  S  S2  1  0.66440900  0.68595000  0.93101400  1
  S  S3  1  0.40221700  0.37826300  0.35838000  1
  S  S4  1  0.66440900  0.31405000  0.43101400  1
  S  S5  1  0.59778300  0.37826300  0.14162000  1
  S  S6  1  0.92963700  0.15866200  0.62489700  1
  S  S7  1  0.42963700  0.15866200  0.37510300  1
  S  S8  1  0.16440900  0.31405000  0.56898600  1
  S  S9  1  0.40221700  0.62173700  0.85838000  1
  S  S10  1  0.59778300  0.62173700  0.64162000  1
  S  S11  1  0.33559100  0.31405000  0.06898600  1
  S  S12  1  0.83559100  0.31405000  0.93101400  1
  S  S13  1  0.90221700  0.37826300  0.64162000  1
  S  S14  1  0.09778300  0.37826300  0.85838000  1
  S  S15  1  0.09778300  0.62173700  0.35838000  1
  S  S16  1  0.33559100  0.68595000  0.56898600  1
  S  S17  1  0.90221700  0.62173700  0.14162000  1
  S  S18  1  0.42963700  0.84133800  0.87510300  1
  S  S19  1  0.57036300  0.84133800  0.62489700  1
  S  S20  1  0.07036300  0.84133800  0.37510300  1
  S  S21  1  0.83559100  0.68595000  0.43101400  1
  S  S22  1  0.16440900  0.68595000  0.06898600  1
  S  S23  1  0.57036300  0.15866200  0.12489700  1
  N  N0  1  0.04833700  0.41751600  0.59130900  1
  N  N1  1  0.89552300  0.82151000  0.39488800  1
  N  N2  1  0.45166300  0.58248400  0.59130900  1
  N  N3  1  0.95166300  0.41751600  0.90869100  1
  N  N4  1  0.54833700  0.41751600  0.40869100  1
  N  N5  1  0.95166300  0.58248400  0.40869100  1
  N  N6  1  0.10447700  0.17849000  0.60511200  1
  N  N7  1  0.39552300  0.82151000  0.60511200  1
  N  N8  1  0.89552300  0.17849000  0.89488800  1
  N  N9  1  0.54833700  0.58248400  0.90869100  1
  N  N10  1  0.10447700  0.82151000  0.10511200  1
  N  N11  1  0.39552300  0.17849000  0.10511200  1
  N  N12  1  0.60447700  0.82151000  0.89488800  1
  N  N13  1  0.45166300  0.41751600  0.09130900  1
  N  N14  1  0.04833700  0.58248400  0.09130900  1
  N  N15  1  0.60447700  0.17849000  0.39488800  1
  O  O0  1  0.14818700  0.87165700  0.45743300  1
  O  O1  1  0.35181300  0.12834300  0.45743300  1
  O  O2  1  0.64818700  0.12834300  0.04256700  1
  O  O3  1  0.85181300  0.87165700  0.04256700  1
  O  O4  1  0.64818700  0.87165700  0.54256700  1
  O  O5  1  0.35181300  0.87165700  0.95743300  1
  O  O6  1  0.85181300  0.12834300  0.54256700  1
  O  O7  1  0.14818700  0.12834300  0.95743300  1
  F  F0  1  0.49515200  0.22541100  0.86726600  1
  F  F1  1  0.50484800  0.22541100  0.63273400  1
  F  F2  1  0.86367800  0.34448800  0.25226500  1
  F  F3  1  0.13466100  0.89620000  0.74785500  1
  F  F4  1  0.00484800  0.22541100  0.36726600  1
  F  F5  1  0.36367800  0.65551200  0.24773500  1
  F  F6  1  0.63632200  0.65551200  0.25226500  1
  F  F7  1  0.49515200  0.77458900  0.36726600  1
  F  F8  1  0.36367800  0.34448800  0.74773500  1
  F  F9  1  0.99515200  0.22541100  0.13273400  1
  F  F10  1  0.63632200  0.34448800  0.75226500  1
  F  F11  1  0.86367800  0.65551200  0.75226500  1
  F  F12  1  0.86533900  0.89620000  0.75214500  1
  F  F13  1  0.13466100  0.10380000  0.24785500  1
  F  F14  1  0.13632200  0.34448800  0.24773500  1
  F  F15  1  0.13632200  0.65551200  0.74773500  1
  F  F16  1  0.63466100  0.89620000  0.25214500  1
  F  F17  1  0.00484800  0.77458900  0.86726600  1
  F  F18  1  0.36533900  0.89620000  0.24785500  1
  F  F19  1  0.50484800  0.77458900  0.13273400  1
  F  F20  1  0.36533900  0.10380000  0.74785500  1
  F  F21  1  0.63466100  0.10380000  0.75214500  1
  F  F22  1  0.99515200  0.77458900  0.63273400  1
  F  F23  1  0.86533900  0.10380000  0.25214500  1
loop_
_geom_bond_atom_site_label_1
_geom_bond_atom_site_label_2
_geom_bond_distance
_geom_bond_site_symmetry_2
Ag0 N6 2.318364 1_555
Ag0 N7 2.318364 1_545
Ag0 O0 2.568688 1_545
Ag0 O1 2.568688 1_555
Ag1 N10 2.318364 1_545
Ag1 N11 2.318364 1_555
Ag1 O5 2.568688 1_544
Ag1 O7 2.568688 1_554
Ag2 N15 2.318364 1_555
Ag2 N1 2.318364 1_545
Ag2 O4 2.568688 1_545
Ag2 O6 2.568688 1_555
Ag3 N8 2.318364 1_555
Ag3 N12 2.318364 1_545
Ag3 O2 2.568688 1_556
Ag3 O3 2.568688 1_546
As0 F7 1.775532 1_555
As0 F19 1.775532 1_555
As0 F18 1.779941 1_555
As0 F16 1.779941 1_555
As0 F5 1.780771 1_555
As0 F6 1.780771 1_555
As1 F0 1.775532 1_555
As1 F1 1.775532 1_555
As1 F20 1.779941 1_555
As1 F21 1.779941 1_555
As1 F8 1.780771 1_555
As1 F10 1.780771 1_555
As2 F17 1.775532 1_555
As2 F22 1.775532 1_455
As2 F3 1.779941 1_555
As2 F12 1.779941 1_455
As2 F15 1.780771 1_555
As2 F11 1.780771 1_455
As3 F4 1.775532 1_555
As3 F9 1.775532 1_455
As3 F13 1.779941 1_555
As3 F23 1.779941 1_455
As3 F14 1.780771 1_555
As3 F2 1.780771 1_455
N0 S8 1.564544 1_555
N0 S13 1.611168 1_455
N1 S21 1.616829 1_555
N1 S20 1.666817 1_655
N2 S16 1.564544 1_555
N2 S10 1.611168 1_555
N3 S12 1.564544 1_555
N3 S14 1.611168 1_655
N4 S4 1.564544 1_555
N4 S3 1.611168 1_555
N5 S21 1.564544 1_555
N5 S15 1.611168 1_655
N6 S8 1.616829 1_555
N6 S6 1.666817 1_455
N7 S16 1.616829 1_555
N7 S19 1.666817 1_555
N8 S12 1.616829 1_555
N8 S1 1.666817 1_655
N9 S2 1.564544 1_555
N9 S9 1.611168 1_555
N10 S22 1.616829 1_555
N10 S0 1.666817 1_455
N11 S11 1.616829 1_555
N11 S23 1.666817 1_555
N12 S2 1.616829 1_555
N12 S18 1.666817 1_555
N13 S11 1.564544 1_555
N13 S5 1.611168 1_555
N14 S22 1.564544 1_555
N14 S17 1.611168 1_455
N15 S4 1.616829 1_555
N15 S7 1.666817 1_555
O0 S20 1.475585 1_555
O1 S7 1.475585 1_555
O2 S23 1.475585 1_555
O3 S0 1.475585 1_555
O4 S19 1.475585 1_555
O5 S18 1.475585 1_555
O6 S6 1.475585 1_555
O7 S1 1.475585 1_555
