# generated using pymatgen
data_Sm2Te3
_symmetry_space_group_name_H-M   'P 1'
_cell_length_a   24.59835982
_cell_length_b   9.45611027
_cell_length_c   9.45622341
_cell_angle_alpha   89.98632604
_cell_angle_beta   54.78585082
_cell_angle_gamma   54.78439536
_symmetry_Int_Tables_number   1
_chemical_formula_structural   Sm2Te3
_chemical_formula_sum   'Sm16 Te24'
_cell_volume   1273.31895519
_cell_formula_units_Z   8
loop_
 _symmetry_equiv_pos_site_id
 _symmetry_equiv_pos_as_xyz
  1  'x, y, z'
loop_
 _atom_site_type_symbol
 _atom_site_label
 _atom_site_symmetry_multiplicity
 _atom_site_fract_x
 _atom_site_fract_y
 _atom_site_fract_z
 _atom_site_occupancy
  Sm  Sm0  1  0.08157761  0.62755169  0.37761945  1
  Sm  Sm1  1  0.16663843  0.25001554  0.63293458  1
  Sm  Sm2  1  0.33690072  0.37475725  0.25237591  1
  Sm  Sm3  1  0.25177880  0.87234609  0.12231262  1
  Sm  Sm4  1  0.33688887  0.11479075  0.73705270  1
  Sm  Sm5  1  0.16672400  0.74989169  0.86707204  1
  Sm  Sm6  1  0.49650669  0.26288541  0.62509886  1
  Sm  Sm7  1  0.58157651  0.87761998  0.12755191  1
  Sm  Sm8  1  0.66670283  0.36710287  0.24992126  1
  Sm  Sm9  1  0.49646167  0.74764461  0.88529247  1
  Sm  Sm10  1  0.66663552  0.13294477  0.75003691  1
  Sm  Sm11  1  0.75177891  0.62230430  0.37233832  1
  Sm  Sm12  1  0.83690183  0.23704539  0.61475317  1
  Sm  Sm13  1  0.99646535  0.38529040  0.24762223  1
  Sm  Sm14  1  0.83690280  0.75238756  0.87475566  1
  Sm  Sm15  1  0.99651008  0.12509650  0.76288415  1
  Te  Te0  1  0.12466756  0.49132186  0.99419682  1
  Te  Te1  1  0.04919224  0.35295588  0.49550815  1
  Te  Te2  1  0.28391102  0.14719815  0.14335801  1
  Te  Te3  1  0.04932751  0.99905970  0.35681415  1
  Te  Te4  1  0.28396316  0.50094467  0.00464150  1
  Te  Te5  1  0.20854343  0.00880791  0.86811875  1
  Te  Te6  1  0.12491951  0.63428758  0.63163659  1
  Te  Te7  1  0.20864286  0.86529723  0.50602128  1
  Te  Te8  1  0.44991587  0.49582304  0.00262979  1
  Te  Te9  1  0.38358176  0.35260862  0.50389111  1
  Te  Te10  1  0.38325473  -0.00253357  0.34589990  1
  Te  Te11  1  0.62491452  0.13166210  0.13428606  1
  Te  Te12  1  0.62468091  0.49417772  0.99130239  1
  Te  Te13  1  0.54918934  0.99549759  0.85295756  1
  Te  Te14  1  0.44992876  0.65446446  0.64743840  1
  Te  Te15  1  0.54931984  0.85681121  0.49905746  1
  Te  Te16  1  0.78395553  0.50465715  0.00097091  1
  Te  Te17  1  0.70854516  0.36813280  0.50879500  1
  Te  Te18  1  0.70862857  0.00603071  0.36536470  1
  Te  Te19  1  0.94995740  0.14735843  0.15440567  1
  Te  Te20  1  0.94991621  0.50261063  0.99582178  1
  Te  Te21  1  0.78393154  0.64333750  0.64713115  1
  Te  Te22  1  0.88357342  0.00391227  0.85264125  1
  Te  Te23  1  0.88325256  0.84589553  0.49748539  1
loop_
_geom_bond_atom_site_label_1
_geom_bond_atom_site_label_2
_geom_bond_distance
_geom_bond_site_symmetry_2
Sm0 Te0 3.150279 1_554
Sm0 Te6 3.153146 1_555
Sm0 Te3 3.158303 1_555
Sm0 Te1 3.159086 1_555
Sm0 Te22 3.369038 1_465
Sm0 Te23 3.369631 1_455
Sm0 Te2 3.395176 1_555
Sm0 Te4 3.396364 1_555
Sm1 Te6 3.157692 1_555
Sm1 Te7 3.159012 1_545
Sm1 Te10 3.179660 1_555
Sm1 Te20 3.181394 1_455
Sm1 Te5 3.337776 1_555
Sm1 Te0 3.340979 1_555
Sm1 Te2 3.473505 1_555
Sm1 Te1 3.473959 1_555
Sm2 Te6 3.123016 1_555
Sm2 Te9 3.145018 1_555
Sm2 Te13 3.171383 1_544
Sm2 Te4 3.214362 1_555
Sm2 Te8 3.273208 1_555
Sm2 Te10 3.358653 1_555
Sm2 Te7 3.409307 1_555
Sm2 Te2 3.489652 1_555
Sm3 Te7 3.152331 1_555
Sm3 Te5 3.152461 1_564
Sm3 Te2 3.157557 1_565
Sm3 Te4 3.158863 1_555
Sm3 Te8 3.367355 1_555
Sm3 Te14 3.368599 1_554
Sm3 Te3 3.396596 1_555
Sm3 Te1 3.398227 1_565
Sm4 Te0 3.125676 1_555
Sm4 Te10 3.144904 1_555
Sm4 Te15 3.171711 1_545
Sm4 Te2 3.212422 1_556
Sm4 Te14 3.274534 1_545
Sm4 Te9 3.360618 1_555
Sm4 Te5 3.412264 1_555
Sm4 Te4 3.486238 1_556
Sm5 Te5 3.157393 1_565
Sm5 Te0 3.158370 1_555
Sm5 Te19 3.181763 1_466
Sm5 Te9 3.182661 1_555
Sm5 Te7 3.338667 1_555
Sm5 Te6 3.338698 1_555
Sm5 Te4 3.470772 1_556
Sm5 Te3 3.474567 1_556
Sm6 Te18 3.124811 1_555
Sm6 Te14 3.145878 1_555
Sm6 Te4 3.173790 1_556
Sm6 Te15 3.211887 1_545
Sm6 Te9 3.271509 1_555
Sm6 Te8 3.359179 1_556
Sm6 Te11 3.410769 1_555
Sm6 Te13 3.486222 1_545
Sm7 Te12 3.150242 1_554
Sm7 Te11 3.153282 1_565
Sm7 Te15 3.158289 1_555
Sm7 Te13 3.159082 1_554
Sm7 Te9 3.368775 1_565
Sm7 Te10 3.369671 1_565
Sm7 Te21 3.395723 1_554
Sm7 Te16 3.396265 1_555
Sm8 Te17 3.157424 1_555
Sm8 Te12 3.158255 1_554
Sm8 Te14 3.181977 1_555
Sm8 Te22 3.182799 1_554
Sm8 Te11 3.338529 1_555
Sm8 Te18 3.338946 1_555
Sm8 Te16 3.470930 1_555
Sm8 Te15 3.474263 1_555
Sm9 Te17 3.124737 1_555
Sm9 Te8 3.144908 1_556
Sm9 Te2 3.173897 1_566
Sm9 Te13 3.212002 1_555
Sm9 Te10 3.276648 1_566
Sm9 Te14 3.358377 1_555
Sm9 Te12 3.409391 1_555
Sm9 Te15 3.487862 1_555
Sm10 Te11 3.157505 1_556
Sm10 Te18 3.158805 1_555
Sm10 Te23 3.179640 1_545
Sm10 Te8 3.181303 1_556
Sm10 Te17 3.338025 1_555
Sm10 Te12 3.340792 1_555
Sm10 Te21 3.473417 1_545
Sm10 Te13 3.474187 1_545
Sm11 Te18 3.152160 1_565
Sm11 Te17 3.152228 1_555
Sm11 Te21 3.157391 1_555
Sm11 Te16 3.158668 1_555
Sm11 Te20 3.367384 1_554
Sm11 Te19 3.368953 1_555
Sm11 Te15 3.396697 1_555
Sm11 Te13 3.398323 1_555
Sm12 Te12 3.125774 1_555
Sm12 Te23 3.144933 1_545
Sm12 Te3 3.171706 1_645
Sm12 Te21 3.212329 1_555
Sm12 Te19 3.274627 1_555
Sm12 Te22 3.360866 1_555
Sm12 Te17 3.412251 1_555
Sm12 Te16 3.486552 1_556
Sm13 Te5 3.124652 1_654
Sm13 Te20 3.144740 1_554
Sm13 Te21 3.173674 1_555
Sm13 Te1 3.212293 1_655
Sm13 Te23 3.276600 1_555
Sm13 Te19 3.358625 1_555
Sm13 Te0 3.409264 1_654
Sm13 Te3 3.487878 1_645
Sm14 Te11 3.123085 1_566
Sm14 Te22 3.144948 1_565
Sm14 Te1 3.171389 1_655
Sm14 Te16 3.214513 1_556
Sm14 Te20 3.273194 1_555
Sm14 Te23 3.358491 1_555
Sm14 Te18 3.409821 1_566
Sm14 Te21 3.489920 1_555
Sm15 Te7 3.124892 1_645
Sm15 Te19 3.145746 1_556
Sm15 Te16 3.173857 1_556
Sm15 Te3 3.211854 1_645
Sm15 Te22 3.271529 1_555
Sm15 Te20 3.358958 1_555
Sm15 Te6 3.410583 1_645
Sm15 Te1 3.486197 1_655
