# generated using pymatgen
data_Al3(PO4)4
_symmetry_space_group_name_H-M   'P 1'
_cell_length_a   13.16754570
_cell_length_b   13.16754570
_cell_length_c   18.37037900
_cell_angle_alpha   90.00000000
_cell_angle_beta   90.00000000
_cell_angle_gamma   119.99999851
_symmetry_Int_Tables_number   1
_chemical_formula_structural   Al3(PO4)4
_chemical_formula_sum   'Al12 P16 O64'
_cell_volume   2758.40749037
_cell_formula_units_Z   4
loop_
 _symmetry_equiv_pos_site_id
 _symmetry_equiv_pos_as_xyz
  1  'x, y, z'
loop_
 _atom_site_type_symbol
 _atom_site_label
 _atom_site_symmetry_multiplicity
 _atom_site_fract_x
 _atom_site_fract_y
 _atom_site_fract_z
 _atom_site_occupancy
  Al  Al0  1  0.14500900  0.67016700  0.49044900  1
  Al  Al1  1  0.52515800  0.85499100  0.49044900  1
  Al  Al2  1  0.47484200  0.14500900  0.50955100  1
  Al  Al3  1  0.52515800  0.67016700  0.99044900  1
  Al  Al4  1  0.67016700  0.52515800  0.50955100  1
  Al  Al5  1  0.32983300  0.47484200  0.49044900  1
  Al  Al6  1  0.14500900  0.47484200  0.99044900  1
  Al  Al7  1  0.67016700  0.14500900  0.00955100  1
  Al  Al8  1  0.32983300  0.85499100  0.99044900  1
  Al  Al9  1  0.85499100  0.52515800  0.00955100  1
  Al  Al10  1  0.85499100  0.32983300  0.50955100  1
  Al  Al11  1  0.47484200  0.32983300  0.00955100  1
  P  P0  1  0.57208900  0.90600700  0.92600900  1
  P  P1  1  0.09399300  0.66608200  0.92600900  1
  P  P2  1  0.66608200  0.57208900  0.07399100  1
  P  P3  1  0.66666700  0.33333300  0.40410800  1
  P  P4  1  0.33333300  0.66666700  0.59589200  1
  P  P5  1  0.57208900  0.66608200  0.42600900  1
  P  P6  1  0.66666700  0.33333300  0.90410800  1
  P  P7  1  0.09399300  0.42791100  0.42600900  1
  P  P8  1  0.33333300  0.66666700  0.09589200  1
  P  P9  1  0.66608200  0.09399300  0.57399100  1
  P  P10  1  0.33391800  0.42791100  0.92600900  1
  P  P11  1  0.42791100  0.33391800  0.57399100  1
  P  P12  1  0.90600700  0.33391800  0.07399100  1
  P  P13  1  0.33391800  0.90600700  0.42600900  1
  P  P14  1  0.42791100  0.09399300  0.07399100  1
  P  P15  1  0.90600700  0.57208900  0.57399100  1
  O  O0  1  0.32279800  0.77158100  0.06695800  1
  O  O1  1  0.80526200  0.21003800  0.05489000  1
  O  O2  1  0.38187000  0.33448400  0.65057100  1
  O  O3  1  0.66666700  0.33333300  0.82107700  1
  O  O4  1  0.57744900  0.43853800  0.06845900  1
  O  O5  1  0.04738700  0.38187000  0.34942900  1
  O  O6  1  0.44878200  0.67720200  0.06695800  1
  O  O7  1  0.99538300  0.36242700  0.48282300  1
  O  O8  1  0.42255100  0.56146200  0.93154100  1
  O  O9  1  0.86108900  0.43853800  0.56845900  1
  O  O10  1  0.33448400  0.38187000  0.84942900  1
  O  O11  1  0.57744900  0.13891100  0.56845900  1
  O  O12  1  0.61813000  0.66551600  0.34942900  1
  O  O13  1  0.78996200  0.59522300  0.05489000  1
  O  O14  1  0.36242700  0.36704400  0.51717700  1
  O  O15  1  0.86108900  0.42255100  0.06845900  1
  O  O16  1  0.13891100  0.56146200  0.43154100  1
  O  O17  1  0.63757300  0.00461700  0.98282300  1
  O  O18  1  0.63757300  0.63295600  0.48282300  1
  O  O19  1  0.56146200  0.13891100  0.06845900  1
  O  O20  1  0.32279800  0.55121800  0.56695800  1
  O  O21  1  0.43853800  0.57744900  0.43154100  1
  O  O22  1  0.21003800  0.40477700  0.94511000  1
  O  O23  1  0.77158100  0.32279800  0.43304200  1
  O  O24  1  0.99538300  0.63295600  0.98282300  1
  O  O25  1  0.42255100  0.86108900  0.43154100  1
  O  O26  1  0.43853800  0.86108900  0.93154100  1
  O  O27  1  0.21003800  0.80526200  0.44511000  1
  O  O28  1  0.78996200  0.19473800  0.55489000  1
  O  O29  1  0.00461700  0.63757300  0.51717700  1
  O  O30  1  0.19473800  0.40477700  0.44511000  1
  O  O31  1  0.36704400  0.36242700  0.98282300  1
  O  O32  1  0.36242700  0.99538300  0.01717700  1
  O  O33  1  0.63295600  0.63757300  0.01717700  1
  O  O34  1  0.19473800  0.78996200  0.94511000  1
  O  O35  1  0.40477700  0.19473800  0.05489000  1
  O  O36  1  0.56146200  0.42255100  0.56845900  1
  O  O37  1  0.67720200  0.44878200  0.43304200  1
  O  O38  1  0.33333300  0.66666700  0.67892300  1
  O  O39  1  0.44878200  0.77158100  0.56695800  1
  O  O40  1  0.59522300  0.78996200  0.44511000  1
  O  O41  1  0.66666700  0.33333300  0.32107700  1
  O  O42  1  0.55121800  0.22841900  0.43304200  1
  O  O43  1  0.67720200  0.22841900  0.93304200  1
  O  O44  1  0.33333300  0.66666700  0.17892300  1
  O  O45  1  0.66551600  0.04738700  0.65057100  1
  O  O46  1  0.38187000  0.04738700  0.15057100  1
  O  O47  1  0.22841900  0.67720200  0.56695800  1
  O  O48  1  0.55121800  0.32279800  0.93304200  1
  O  O49  1  0.40477700  0.21003800  0.55489000  1
  O  O50  1  0.22841900  0.55121800  0.06695800  1
  O  O51  1  0.80526200  0.59522300  0.55489000  1
  O  O52  1  0.63295600  0.99538300  0.51717700  1
  O  O53  1  0.13891100  0.57744900  0.93154100  1
  O  O54  1  0.66551600  0.61813000  0.15057100  1
  O  O55  1  0.59522300  0.80526200  0.94511000  1
  O  O56  1  0.77158100  0.44878200  0.93304200  1
  O  O57  1  0.04738700  0.66551600  0.84942900  1
  O  O58  1  0.61813000  0.95261300  0.84942900  1
  O  O59  1  0.95261300  0.61813000  0.65057100  1
  O  O60  1  0.00461700  0.36704400  0.01717700  1
  O  O61  1  0.33448400  0.95261300  0.34942900  1
  O  O62  1  0.36704400  0.00461700  0.48282300  1
  O  O63  1  0.95261300  0.33448400  0.15057100  1
loop_
_geom_bond_atom_site_label_1
_geom_bond_atom_site_label_2
_geom_bond_distance
_geom_bond_site_symmetry_2
Al0 O29 1.746218 1_555
Al0 O27 1.751598 1_555
Al0 O47 1.757425 1_555
Al0 O16 1.763925 1_555
Al1 O52 1.746218 1_555
Al1 O40 1.751588 1_555
Al1 O39 1.757429 1_555
Al1 O25 1.763925 1_555
Al2 O62 1.746218 1_555
Al2 O49 1.751588 1_555
Al2 O42 1.757429 1_555
Al2 O11 1.763925 1_555
Al3 O33 1.746218 1_556
Al3 O55 1.751598 1_555
Al3 O6 1.757433 1_556
Al3 O8 1.763925 1_555
Al4 O18 1.746218 1_555
Al4 O51 1.751598 1_555
Al4 O37 1.757433 1_555
Al4 O36 1.763925 1_555
Al5 O14 1.746218 1_555
Al5 O30 1.751598 1_555
Al5 O20 1.757433 1_555
Al5 O21 1.763925 1_555
Al6 O60 1.746218 1_556
Al6 O22 1.751588 1_555
Al6 O50 1.757429 1_556
Al6 O53 1.763925 1_555
Al7 O17 1.746218 1_554
Al7 O1 1.751598 1_555
Al7 O43 1.757425 1_554
Al7 O19 1.763925 1_555
Al8 O32 1.746218 1_556
Al8 O34 1.751598 1_555
Al8 O0 1.757425 1_556
Al8 O26 1.763925 1_555
Al9 O24 1.746218 1_554
Al9 O13 1.751588 1_555
Al9 O56 1.757429 1_554
Al9 O15 1.763925 1_555
Al10 O7 1.746218 1_555
Al10 O28 1.751598 1_555
Al10 O23 1.757425 1_555
Al10 O9 1.763925 1_555
Al11 O31 1.746218 1_554
Al11 O35 1.751598 1_555
Al11 O48 1.757433 1_554
Al11 O4 1.763925 1_555
O0 P8 1.549785 1_555
O1 P12 1.542664 1_555
O2 P11 1.533364 1_555
O3 P6 1.525311 1_555
O4 P2 1.553225 1_555
O5 P7 1.533361 1_555
O6 P8 1.549785 1_555
O7 P7 1.548924 1_655
O8 P10 1.553225 1_555
O9 P15 1.553224 1_555
O10 P10 1.533364 1_555
O11 P9 1.553224 1_555
O12 P5 1.533364 1_555
O13 P2 1.542668 1_555
O14 P11 1.548924 1_555
O15 P12 1.553224 1_555
O16 P7 1.553224 1_555
O17 P0 1.548924 1_545
O18 P5 1.548924 1_555
O19 P14 1.553224 1_555
O20 P4 1.549785 1_555
O21 P5 1.553225 1_555
O22 P10 1.542668 1_555
O23 P3 1.549785 1_555
O24 P1 1.548924 1_655
O25 P13 1.553224 1_555
O26 P0 1.553224 1_555
O27 P13 1.542664 1_555
O28 P9 1.542664 1_555
O29 P15 1.548924 1_455
O30 P7 1.542656 1_555
O31 P10 1.548924 1_555
O32 P14 1.548924 1_565
O33 P2 1.548924 1_555
O34 P1 1.542664 1_555
O35 P14 1.542656 1_555
O36 P11 1.553225 1_555
O37 P3 1.549785 1_555
O38 P4 1.525311 1_555
O39 P4 1.549785 1_555
O40 P5 1.542668 1_555
O41 P3 1.525311 1_555
O42 P3 1.549785 1_555
O43 P6 1.549785 1_555
O44 P8 1.525311 1_555
O45 P9 1.533359 1_555
O46 P14 1.533361 1_555
O47 P4 1.549785 1_555
O48 P6 1.549785 1_555
O49 P11 1.542668 1_555
O50 P8 1.549785 1_555
O51 P15 1.542656 1_555
O52 P9 1.548924 1_565
O53 P1 1.553224 1_555
O54 P2 1.533364 1_555
O55 P0 1.542656 1_555
O56 P6 1.549785 1_555
O57 P1 1.533359 1_555
O58 P0 1.533361 1_555
O59 P15 1.533361 1_555
O60 P12 1.548924 1_455
O61 P13 1.533359 1_555
O62 P13 1.548924 1_545
O63 P12 1.533359 1_555
