# generated using pymatgen
data_Na2TiGeO5
_symmetry_space_group_name_H-M   'P 1'
_cell_length_a   6.71854400
_cell_length_b   6.71854400
_cell_length_c   5.23806000
_cell_angle_alpha   90.00000000
_cell_angle_beta   90.00000000
_cell_angle_gamma   90.00000000
_symmetry_Int_Tables_number   1
_chemical_formula_structural   Na2TiGeO5
_chemical_formula_sum   'Na4 Ti2 Ge2 O10'
_cell_volume   236.43991810
_cell_formula_units_Z   2
loop_
 _symmetry_equiv_pos_site_id
 _symmetry_equiv_pos_as_xyz
  1  'x, y, z'
loop_
 _atom_site_type_symbol
 _atom_site_label
 _atom_site_symmetry_multiplicity
 _atom_site_fract_x
 _atom_site_fract_y
 _atom_site_fract_z
 _atom_site_occupancy
  Na  Na0  1  0.75000000  0.25000000  0.00000000  1
  Na  Na1  1  0.75000000  0.75000000  0.00000000  1
  Na  Na2  1  0.25000000  0.75000000  0.00000000  1
  Na  Na3  1  0.25000000  0.25000000  0.00000000  1
  Ti  Ti0  1  0.50000000  0.00000000  0.57238900  1
  Ti  Ti1  1  0.00000000  0.50000000  0.42761100  1
  Ge  Ge0  1  0.50000000  0.50000000  0.50000000  1
  Ge  Ge1  1  0.00000000  0.00000000  0.50000000  1
  O  O0  1  0.21610200  0.00000000  0.69447200  1
  O  O1  1  0.78389800  0.00000000  0.69447200  1
  O  O2  1  0.50000000  0.71610200  0.69447200  1
  O  O3  1  0.50000000  0.28389800  0.69447200  1
  O  O4  1  0.00000000  0.21610200  0.30552800  1
  O  O5  1  0.71610200  0.50000000  0.30552800  1
  O  O6  1  0.28389800  0.50000000  0.30552800  1
  O  O7  1  0.00000000  0.78389800  0.30552800  1
  O  O8  1  0.00000000  0.50000000  0.75577200  1
  O  O9  1  0.50000000  0.00000000  0.24422800  1
loop_
_geom_bond_atom_site_label_1
_geom_bond_atom_site_label_2
_geom_bond_distance
_geom_bond_site_symmetry_2
Na0 O3 2.331146 1_554
Na0 O4 2.331146 1_655
Na0 O1 2.331146 1_554
Na0 O5 2.331146 1_555
Na0 O8 2.697946 1_654
Na0 O9 2.697946 1_555
Na1 O2 2.331146 1_554
Na1 O7 2.331146 1_655
Na1 O5 2.331146 1_555
Na1 O1 2.331146 1_564
Na1 O9 2.697946 1_565
Na1 O8 2.697946 1_654
Na2 O6 2.331146 1_555
Na2 O7 2.331146 1_555
Na2 O2 2.331146 1_554
Na2 O0 2.331146 1_564
Na2 O9 2.697946 1_565
Na2 O8 2.697946 1_554
Na3 O6 2.331146 1_555
Na3 O3 2.331146 1_554
Na3 O4 2.331146 1_555
Na3 O0 2.331146 1_554
Na3 O8 2.697946 1_554
Na3 O9 2.697946 1_555
Ge0 O5 1.773597 1_555
Ge0 O2 1.773597 1_555
Ge0 O3 1.773597 1_555
Ge0 O6 1.773597 1_555
Ge1 O1 1.773597 1_455
Ge1 O0 1.773597 1_555
Ge1 O7 1.773597 1_545
Ge1 O4 1.773597 1_555
O0 Ti0 2.011724 1_555
O1 Ti0 2.011724 1_555
O2 Ti0 2.011724 1_565
O3 Ti0 2.011724 1_555
O4 Ti1 2.011724 1_555
O5 Ti1 2.011724 1_655
O6 Ti1 2.011724 1_555
O7 Ti1 2.011724 1_555
O8 Ti1 1.718927 1_555
O9 Ti0 1.718927 1_555
