# generated using pymatgen
data_Li10Ge(PO6)2
_symmetry_space_group_name_H-M   'P 1'
_cell_length_a   7.06930900
_cell_length_b   7.06930900
_cell_length_c   10.52436600
_cell_angle_alpha   90.00000000
_cell_angle_beta   90.00000000
_cell_angle_gamma   90.00000000
_symmetry_Int_Tables_number   1
_chemical_formula_structural   Li10Ge(PO6)2
_chemical_formula_sum   'Li20 Ge2 P4 O24'
_cell_volume   525.95655625
_cell_formula_units_Z   2
loop_
 _symmetry_equiv_pos_site_id
 _symmetry_equiv_pos_as_xyz
  1  'x, y, z'
loop_
 _atom_site_type_symbol
 _atom_site_label
 _atom_site_symmetry_multiplicity
 _atom_site_fract_x
 _atom_site_fract_y
 _atom_site_fract_z
 _atom_site_occupancy
  Li  Li0  1  0.21932700  0.26468000  0.29792100  1
  Li  Li1  1  0.78067300  0.73532000  0.29792100  1
  Li  Li2  1  0.26468000  0.78067300  0.79792100  1
  Li  Li3  1  0.73532000  0.21932700  0.79792100  1
  Li  Li4  1  0.21932700  0.73532000  0.29792100  1
  Li  Li5  1  0.78067300  0.26468000  0.29792100  1
  Li  Li6  1  0.26468000  0.21932700  0.79792100  1
  Li  Li7  1  0.73532000  0.78067300  0.79792100  1
  Li  Li8  1  0.00000000  0.00000000  0.92908500  1
  Li  Li9  1  0.00000000  0.00000000  0.42908500  1
  Li  Li10  1  0.50000000  0.50000000  0.56255700  1
  Li  Li11  1  0.50000000  0.50000000  0.06255700  1
  Li  Li12  1  0.23798500  0.69503100  0.04791400  1
  Li  Li13  1  0.76201500  0.30496900  0.04791400  1
  Li  Li14  1  0.30496900  0.23798500  0.54791400  1
  Li  Li15  1  0.69503100  0.76201500  0.54791400  1
  Li  Li16  1  0.30496900  0.76201500  0.54791400  1
  Li  Li17  1  0.69503100  0.23798500  0.54791400  1
  Li  Li18  1  0.23798500  0.30496900  0.04791400  1
  Li  Li19  1  0.76201500  0.69503100  0.04791400  1
  Ge  Ge0  1  0.50000000  0.50000000  0.80957400  1
  Ge  Ge1  1  0.50000000  0.50000000  0.30957400  1
  P  P0  1  0.00000000  0.00000000  0.67864100  1
  P  P1  1  0.00000000  0.00000000  0.17864100  1
  P  P2  1  0.00000000  0.50000000  0.49287500  1
  P  P3  1  0.50000000  0.00000000  0.99287500  1
  O  O0  1  0.00000000  0.68534300  0.40961400  1
  O  O1  1  0.00000000  0.31465700  0.40961400  1
  O  O2  1  0.31465700  0.00000000  0.90961400  1
  O  O3  1  0.68534300  0.00000000  0.90961400  1
  O  O4  1  0.50000000  0.18718200  0.07025500  1
  O  O5  1  0.50000000  0.81281800  0.07025500  1
  O  O6  1  0.18718200  0.50000000  0.57025500  1
  O  O7  1  0.81281800  0.50000000  0.57025500  1
  O  O8  1  0.00000000  0.82037100  0.09143200  1
  O  O9  1  0.00000000  0.17962900  0.09143200  1
  O  O10  1  0.17962900  0.00000000  0.59143200  1
  O  O11  1  0.82037100  0.00000000  0.59143200  1
  O  O12  1  0.50000000  0.29908400  0.41221900  1
  O  O13  1  0.50000000  0.70091600  0.41221900  1
  O  O14  1  0.29908400  0.50000000  0.91221900  1
  O  O15  1  0.70091600  0.50000000  0.91221900  1
  O  O16  1  0.00000000  0.17602300  0.76594900  1
  O  O17  1  0.00000000  0.82397700  0.76594900  1
  O  O18  1  0.82397700  0.00000000  0.26594900  1
  O  O19  1  0.17602300  0.00000000  0.26594900  1
  O  O20  1  0.50000000  0.70160700  0.70610000  1
  O  O21  1  0.50000000  0.29839300  0.70610000  1
  O  O22  1  0.70160700  0.50000000  0.20610000  1
  O  O23  1  0.29839300  0.50000000  0.20610000  1
loop_
_geom_bond_atom_site_label_1
_geom_bond_atom_site_label_2
_geom_bond_distance
_geom_bond_site_symmetry_2
Li0 O19 1.925609 1_555
Li0 O1 1.977534 1_555
Li0 O23 2.003412 1_555
Li0 O12 2.333037 1_555
Li1 O18 1.925609 1_565
Li1 O0 1.977534 1_655
Li1 O22 2.003412 1_555
Li1 O13 2.333037 1_555
Li2 O17 1.925609 1_555
Li2 O2 1.977534 1_565
Li2 O20 2.003412 1_555
Li2 O14 2.333037 1_555
Li3 O16 1.925609 1_655
Li3 O3 1.977534 1_555
Li3 O21 2.003412 1_555
Li3 O15 2.333037 1_555
Li4 O19 1.925609 1_565
Li4 O0 1.977534 1_555
Li4 O23 2.003412 1_555
Li4 O13 2.333037 1_555
Li5 O18 1.925609 1_555
Li5 O1 1.977534 1_655
Li5 O22 2.003412 1_555
Li5 O12 2.333037 1_555
Li6 O16 1.925609 1_555
Li6 O2 1.977534 1_555
Li6 O21 2.003412 1_555
Li6 O14 2.333037 1_555
Li7 O17 1.925609 1_655
Li7 O3 1.977534 1_565
Li7 O20 2.003412 1_555
Li7 O15 2.333037 1_555
Li8 O16 2.120422 1_555
Li8 O17 2.120422 1_545
Li8 O9 2.128811 1_556
Li8 O8 2.128811 1_546
Li8 O2 2.233827 1_555
Li8 O3 2.233827 1_455
Li9 O19 2.120422 1_555
Li9 O18 2.120422 1_455
Li9 O10 2.128811 1_555
Li9 O11 2.128811 1_455
Li9 O1 2.233827 1_555
Li9 O0 2.233827 1_545
Li10 O20 2.076889 1_555
Li10 O21 2.076889 1_555
Li10 O13 2.126206 1_555
Li10 O12 2.126206 1_555
Li10 O7 2.212891 1_555
Li10 O6 2.212891 1_555
Li11 O22 2.076889 1_555
Li11 O23 2.076889 1_555
Li11 O15 2.126206 1_554
Li11 O14 2.126206 1_554
Li11 O5 2.212891 1_555
Li11 O4 2.212891 1_555
Li12 O8 1.955841 1_555
Li12 O14 2.031490 1_554
Li12 O5 2.044386 1_555
Li12 O23 2.203374 1_555
Li13 O9 1.955841 1_655
Li13 O15 2.031490 1_554
Li13 O4 2.044386 1_555
Li13 O22 2.203374 1_555
Li14 O10 1.955841 1_555
Li14 O12 2.031490 1_555
Li14 O6 2.044386 1_555
Li14 O21 2.203374 1_555
Li15 O11 1.955841 1_565
Li15 O13 2.031490 1_555
Li15 O7 2.044386 1_555
Li15 O20 2.203374 1_555
Li16 O10 1.955841 1_565
Li16 O13 2.031490 1_555
Li16 O6 2.044386 1_555
Li16 O20 2.203374 1_555
Li17 O11 1.955841 1_555
Li17 O12 2.031490 1_555
Li17 O7 2.044386 1_555
Li17 O21 2.203374 1_555
Li18 O9 1.955841 1_555
Li18 O14 2.031490 1_554
Li18 O4 2.044386 1_555
Li18 O23 2.203374 1_555
Li19 O8 1.955841 1_655
Li19 O15 2.031490 1_554
Li19 O5 2.044386 1_555
Li19 O22 2.203374 1_555
Ge0 O15 1.784474 1_555
Ge0 O14 1.784474 1_555
Ge0 O20 1.793649 1_555
Ge0 O21 1.793649 1_555
Ge1 O13 1.784474 1_555
Ge1 O12 1.784474 1_555
Ge1 O22 1.793649 1_555
Ge1 O23 1.793649 1_555
O0 P2 1.576260 1_555
O1 P2 1.576260 1_555
O2 P3 1.576260 1_555
O3 P3 1.576260 1_555
O4 P3 1.553767 1_554
O5 P3 1.553767 1_564
O6 P2 1.553767 1_555
O7 P2 1.553767 1_655
O8 P1 1.566818 1_565
O9 P1 1.566818 1_555
O10 P0 1.566818 1_555
O11 P0 1.566818 1_655
O16 P0 1.546849 1_555
O17 P0 1.546849 1_565
O18 P1 1.546849 1_655
O19 P1 1.546849 1_555
