# generated using pymatgen
data_LiSn4(PO4)3
_symmetry_space_group_name_H-M   'P 1'
_cell_length_a   10.00548809
_cell_length_b   10.00548809
_cell_length_c   10.00548776
_cell_angle_alpha   58.55048000
_cell_angle_beta   58.55048000
_cell_angle_gamma   58.55047768
_symmetry_Int_Tables_number   1
_chemical_formula_structural   LiSn4(PO4)3
_chemical_formula_sum   'Li2 Sn8 P6 O24'
_cell_volume   684.79266158
_cell_formula_units_Z   2
loop_
 _symmetry_equiv_pos_site_id
 _symmetry_equiv_pos_as_xyz
  1  'x, y, z'
loop_
 _atom_site_type_symbol
 _atom_site_label
 _atom_site_symmetry_multiplicity
 _atom_site_fract_x
 _atom_site_fract_y
 _atom_site_fract_z
 _atom_site_occupancy
  Li  Li0  1  0.04313300  0.04313300  0.04313300  1
  Li  Li1  1  0.54313300  0.54313300  0.54313300  1
  Sn  Sn0  1  0.58708800  0.25718000  0.12816700  1
  Sn  Sn1  1  0.75718000  0.08708800  0.62816700  1
  Sn  Sn2  1  0.25718000  0.12816700  0.58708800  1
  Sn  Sn3  1  0.19028000  0.19028000  0.19028000  1
  Sn  Sn4  1  0.69028000  0.69028000  0.69028000  1
  Sn  Sn5  1  0.62816700  0.75718000  0.08708800  1
  Sn  Sn6  1  0.08708800  0.62816700  0.75718000  1
  Sn  Sn7  1  0.12816700  0.58708800  0.25718000  1
  P  P0  1  0.29077800  0.73364300  0.82942200  1
  P  P1  1  0.82942200  0.29077800  0.73364300  1
  P  P2  1  0.23364300  0.79077800  0.32942200  1
  P  P3  1  0.32942200  0.23364300  0.79077800  1
  P  P4  1  0.79077800  0.32942200  0.23364300  1
  P  P5  1  0.73364300  0.82942200  0.29077800  1
  O  O0  1  0.50026700  0.15503700  0.67216100  1
  O  O1  1  0.25611000  0.74305000  0.68899200  1
  O  O2  1  0.25852800  0.91160300  0.81114500  1
  O  O3  1  0.65503700  0.00026700  0.17216100  1
  O  O4  1  0.15503700  0.67216100  0.50026700  1
  O  O5  1  0.41160300  0.75852800  0.31114500  1
  O  O6  1  0.67216100  0.50026700  0.15503700  1
  O  O7  1  0.24305000  0.75611000  0.18899200  1
  O  O8  1  0.62026500  0.81511900  0.47517500  1
  O  O9  1  0.31114500  0.41160300  0.75852800  1
  O  O10  1  0.81511900  0.47517500  0.62026500  1
  O  O11  1  0.00026700  0.17216100  0.65503700  1
  O  O12  1  0.97517500  0.31511900  0.12026500  1
  O  O13  1  0.75611000  0.18899200  0.24305000  1
  O  O14  1  0.81114500  0.25852800  0.91160300  1
  O  O15  1  0.12026500  0.97517500  0.31511900  1
  O  O16  1  0.74305000  0.68899200  0.25611000  1
  O  O17  1  0.47517500  0.62026500  0.81511900  1
  O  O18  1  0.68899200  0.25611000  0.74305000  1
  O  O19  1  0.91160300  0.81114500  0.25852800  1
  O  O20  1  0.18899200  0.24305000  0.75611000  1
  O  O21  1  0.75852800  0.31114500  0.41160300  1
  O  O22  1  0.31511900  0.12026500  0.97517500  1
  O  O23  1  0.17216100  0.65503700  0.00026700  1
loop_
_geom_bond_atom_site_label_1
_geom_bond_atom_site_label_2
_geom_bond_distance
_geom_bond_site_symmetry_2
Li0 O2 2.602361 1_544
Li0 O14 2.602361 1_454
Li0 O19 2.602361 1_445
Li0 O7 2.656444 1_545
Li0 O13 2.656444 1_455
Li0 O20 2.656444 1_554
Li1 O5 2.602361 1_555
Li1 O21 2.602361 1_555
Li1 O9 2.602361 1_555
Li1 O1 2.656444 1_555
Li1 O18 2.656444 1_555
Li1 O16 2.656444 1_555
O0 P3 1.550249 1_555
O0 Sn1 2.138126 1_555
O1 P0 1.562021 1_555
O1 Sn6 2.157048 1_555
O2 P0 1.558933 1_555
O2 Sn2 2.157122 1_565
O3 P5 1.550249 1_545
O3 Sn0 2.138126 1_555
O4 P2 1.550249 1_555
O4 Sn6 2.138126 1_555
O5 P2 1.558933 1_555
O5 Sn5 2.157122 1_555
O6 P4 1.550249 1_555
O6 Sn5 2.138126 1_555
O7 P2 1.562021 1_555
O7 Sn7 2.157048 1_555
O8 P5 1.556024 1_555
O8 Sn4 2.130263 1_555
O9 P3 1.558933 1_555
O9 Sn6 2.157122 1_555
O10 P1 1.556024 1_555
O10 Sn4 2.130263 1_555
O11 P1 1.550249 1_455
O11 Sn2 2.138126 1_555
O12 P4 1.556024 1_555
O12 Sn3 2.130263 1_655
O13 P4 1.562021 1_555
O13 Sn0 2.157048 1_555
O14 P1 1.558933 1_555
O14 Sn0 2.157122 1_556
O15 P2 1.556024 1_555
O15 Sn3 2.130263 1_565
O16 P5 1.562021 1_555
O16 Sn5 2.157048 1_555
O17 P0 1.556024 1_555
O17 Sn4 2.130263 1_555
O18 P1 1.562021 1_555
O18 Sn1 2.157048 1_555
O19 P5 1.558933 1_555
O19 Sn7 2.157122 1_655
O20 P3 1.562021 1_555
O20 Sn2 2.157048 1_555
O21 P4 1.558933 1_555
O21 Sn1 2.157122 1_555
O22 P3 1.556024 1_555
O22 Sn3 2.130263 1_556
O23 P0 1.550249 1_554
O23 Sn7 2.138126 1_555
