# generated using pymatgen
data_Tl4Sn5S12
_symmetry_space_group_name_H-M   'P 1'
_cell_length_a   7.50399200
_cell_length_b   9.87483567
_cell_length_c   17.36787709
_cell_angle_alpha   104.99746001
_cell_angle_beta   90.12190294
_cell_angle_gamma   111.92491564
_symmetry_Int_Tables_number   1
_chemical_formula_structural   Tl4Sn5S12
_chemical_formula_sum   'Tl8 Sn10 S24'
_cell_volume   1146.19848277
_cell_formula_units_Z   2
loop_
 _symmetry_equiv_pos_site_id
 _symmetry_equiv_pos_as_xyz
  1  'x, y, z'
loop_
 _atom_site_type_symbol
 _atom_site_label
 _atom_site_symmetry_multiplicity
 _atom_site_fract_x
 _atom_site_fract_y
 _atom_site_fract_z
 _atom_site_occupancy
  Tl  Tl0  1  0.31260800  0.35766200  0.70198300  1
  Tl  Tl1  1  0.68739200  0.64233800  0.29801700  1
  Tl  Tl2  1  0.10140700  0.75321600  0.85466400  1
  Tl  Tl3  1  0.89859300  0.24678400  0.14533600  1
  Tl  Tl4  1  0.41740600  0.92756800  0.61265400  1
  Tl  Tl5  1  0.58259400  0.07243200  0.38734600  1
  Tl  Tl6  1  0.62462400  0.80374700  0.85683200  1
  Tl  Tl7  1  0.37537600  0.19625300  0.14316800  1
  Sn  Sn0  1  0.68314700  0.40937500  0.58249700  1
  Sn  Sn1  1  0.31685300  0.59062500  0.41750300  1
  Sn  Sn2  1  0.01777100  0.12910200  0.59724400  1
  Sn  Sn3  1  0.98222900  0.87089800  0.40275600  1
  Sn  Sn4  1  0.88446200  0.57182600  0.72998600  1
  Sn  Sn5  1  0.11553800  0.42817400  0.27001400  1
  Sn  Sn6  1  0.68758900  0.23233700  0.94751000  1
  Sn  Sn7  1  0.31241100  0.76766300  0.05249000  1
  Sn  Sn8  1  0.18471300  0.23507400  0.94212300  1
  Sn  Sn9  1  0.81528700  0.76492600  0.05787700  1
  S  S0  1  0.47158300  0.63227300  0.52190600  1
  S  S1  1  0.52841700  0.36772700  0.47809400  1
  S  S2  1  0.01213200  0.61644900  0.54555300  1
  S  S3  1  0.98786800  0.38355100  0.45444700  1
  S  S4  1  0.73051200  0.31963900  0.72150100  1
  S  S5  1  0.26948800  0.68036100  0.27849900  1
  S  S6  1  0.33036200  0.09764800  0.67282100  1
  S  S7  1  0.66963800  0.90235200  0.32717900  1
  S  S8  1  0.88197900  0.86608900  0.59270400  1
  S  S9  1  0.11802100  0.13391100  0.40729600  1
  S  S10  1  0.81043700  0.09816100  0.67068200  1
  S  S11  1  0.18956300  0.90183900  0.32931800  1
  S  S12  1  0.21046100  0.55603100  0.79813700  1
  S  S13  1  0.78953900  0.44396900  0.20186300  1
  S  S14  1  0.33742900  0.09823100  0.90801400  1
  S  S15  1  0.66257100  0.90176900  0.09198600  1
  S  S16  1  0.69342500  0.55729600  0.80325300  1
  S  S17  1  0.30657500  0.44270400  0.19674700  1
  S  S18  1  0.96189500  0.66364000  0.00798400  1
  S  S19  1  0.03810500  0.33636000  0.99201600  1
  S  S20  1  0.46995800  0.64506700  0.01685200  1
  S  S21  1  0.53004200  0.35493300  0.98314800  1
  S  S22  1  0.17035400  0.90683800  0.08759200  1
  S  S23  1  0.82964600  0.09316200  0.91240800  1
loop_
_geom_bond_atom_site_label_1
_geom_bond_atom_site_label_2
_geom_bond_distance
_geom_bond_site_symmetry_2
Sn2 Tl0 2.725250 1_555
Sn3 Tl1 2.725250 1_555
Sn4 Tl2 2.519431 1_655
Sn5 Tl3 2.519431 1_455
S0 Sn1 2.013372 1_555
S0 Tl4 3.108339 1_555
S1 Sn0 2.013372 1_555
S1 Tl5 3.108339 1_555
S2 S3 2.372500 1_455
S2 Sn0 2.757439 1_455
S3 Sn1 2.757439 1_655
S4 Sn4 2.284478 1_555
S5 Sn5 2.284478 1_555
S6 Tl4 2.062324 1_545
S6 Tl0 2.539589 1_555
S6 Sn2 2.839654 1_555
S7 Tl5 2.062324 1_565
S7 Tl1 2.539589 1_555
S7 Sn3 2.839654 1_555
S8 Sn2 2.389005 1_665
S9 Sn3 2.389005 1_445
S10 Sn2 1.998978 1_655
S10 Tl4 2.819628 1_545
S11 Sn3 1.998978 1_455
S11 Tl5 2.819628 1_565
S12 Tl2 2.372550 1_555
S12 Tl0 2.578220 1_555
S12 Sn4 2.788879 1_455
S12 Tl6 3.114546 1_555
S13 Tl3 2.372550 1_555
S13 Tl1 2.578220 1_555
S13 Sn5 2.788879 1_655
S13 Tl7 3.114546 1_555
S14 Sn8 2.057972 1_555
S14 Sn6 2.460112 1_555
S14 Tl2 3.075032 1_545
S15 Sn9 2.057972 1_555
S15 Sn7 2.460112 1_555
S15 Tl3 3.075032 1_565
S16 Sn4 1.908799 1_555
S16 Tl6 2.612175 1_555
S16 Tl2 2.929865 1_655
S16 Tl0 3.020442 1_555
S17 Sn5 1.908799 1_555
S17 Tl7 2.612175 1_555
S17 Tl3 2.929865 1_455
S17 Tl1 3.020442 1_555
S18 Sn9 1.827234 1_555
S18 Sn7 2.476629 1_655
S18 Tl2 3.083589 1_654
S19 Sn8 1.827234 1_555
S19 Sn6 2.476629 1_455
S19 Tl3 3.083589 1_456
S20 Sn7 1.982545 1_555
S20 Sn9 2.426699 1_555
S21 Sn6 1.982545 1_555
S21 Sn8 2.426699 1_555
S22 Sn7 2.014941 1_555
S22 Sn9 2.482093 1_455
S22 Tl7 2.597849 1_565
S23 Sn6 2.014941 1_555
S23 Sn8 2.482093 1_655
S23 Tl6 2.597849 1_545
