# generated using pymatgen
data_Na5Ti7Al(PO4)12
_symmetry_space_group_name_H-M   'P 1'
_cell_length_a   8.84435303
_cell_length_b   8.84868656
_cell_length_c   17.69705918
_cell_angle_alpha   58.30121279
_cell_angle_beta   58.20834541
_cell_angle_gamma   58.25225359
_symmetry_Int_Tables_number   1
_chemical_formula_structural   Na5Ti7Al(PO4)12
_chemical_formula_sum   'Na5 Ti7 Al1 P12 O48'
_cell_volume   940.16227566
_cell_formula_units_Z   1
loop_
 _symmetry_equiv_pos_site_id
 _symmetry_equiv_pos_as_xyz
  1  'x, y, z'
loop_
 _atom_site_type_symbol
 _atom_site_label
 _atom_site_symmetry_multiplicity
 _atom_site_fract_x
 _atom_site_fract_y
 _atom_site_fract_z
 _atom_site_occupancy
  Na  Na0  1  0.01414200  0.98354400  0.99978900  1
  Na  Na1  1  0.50183100  0.49832200  0.24946200  1
  Na  Na2  1  0.00121600  0.99816000  0.50054700  1
  Na  Na3  1  0.49643900  0.51754600  0.74208100  1
  Na  Na4  1  0.61218600  0.24927400  0.94212400  1
  Ti  Ti0  1  0.14176100  0.14488000  0.07224200  1
  Ti  Ti1  1  0.35719900  0.35694800  0.17568200  1
  Ti  Ti2  1  0.14276700  0.14350600  0.57333500  1
  Ti  Ti3  1  0.35127500  0.35531500  0.68036500  1
  Ti  Ti4  1  0.64440600  0.64266700  0.32329400  1
  Ti  Ti5  1  0.85591400  0.85549100  0.42737600  1
  Ti  Ti6  1  0.64593200  0.65440400  0.82015800  1
  Al  Al0  1  0.85645500  0.84899300  0.92800500  1
  P  P0  1  0.03753200  0.74920000  0.23128600  1
  P  P1  1  0.46270900  0.03720100  0.37457500  1
  P  P2  1  0.74998600  0.46787300  0.01663600  1
  P  P3  1  0.24897700  0.53582700  0.48272100  1
  P  P4  1  0.53950300  0.95701600  0.12435100  1
  P  P5  1  0.03697400  0.75165100  0.73482700  1
  P  P6  1  0.96420600  0.24904900  0.26847500  1
  P  P7  1  0.46922200  0.04067300  0.87604700  1
  P  P8  1  0.74875600  0.46261300  0.51937100  1
  P  P9  1  0.23958500  0.54609000  0.98107800  1
  P  P10  1  0.53694000  0.96491600  0.62454200  1
  P  P11  1  0.96091900  0.24379300  0.77162300  1
  O  O0  1  0.13533200  0.28450100  0.25049500  1
  O  O1  1  0.27985900  0.51045200  0.06561900  1
  O  O2  1  0.05928800  0.92238600  0.13979700  1
  O  O3  1  0.50617200  0.13540800  0.13663500  1
  O  O4  1  0.22096900  0.57663600  0.21948400  1
  O  O5  1  0.00411000  0.78598800  0.31596200  1
  O  O6  1  0.27975700  0.06129200  0.46102900  1
  O  O7  1  0.44126500  0.21790600  0.28704700  1
  O  O8  1  0.57721400  0.43881100  0.10899300  1
  O  O9  1  0.21239700  0.36646900  0.49950600  1
  O  O10  1  0.07659700  0.71928300  0.47041400  1
  O  O11  1  0.36660600  0.99371200  0.10744700  1
  O  O12  1  0.63282500  0.00354800  0.39257500  1
  O  O13  1  0.13012500  0.28217700  0.75449100  1
  O  O14  1  0.92374400  0.28367500  0.02956900  1
  O  O15  1  0.77992200  0.63956000  0.99813500  1
  O  O16  1  0.42279000  0.55834600  0.39137900  1
  O  O17  1  0.28343000  0.50171800  0.56820900  1
  O  O18  1  0.56043600  0.77866200  0.21216700  1
  O  O19  1  0.06069400  0.92176400  0.64136400  1
  O  O20  1  0.72039500  0.93572900  0.03684200  1
  O  O21  1  0.50174400  0.13306500  0.64410400  1
  O  O22  1  0.21825300  0.57677900  0.72137400  1
  O  O23  1  0.00224500  0.78762600  0.81829300  1
  O  O24  1  0.99607100  0.21384900  0.18366900  1
  O  O25  1  0.78105900  0.42161400  0.28077900  1
  O  O26  1  0.49686600  0.86621200  0.35722800  1
  O  O27  1  0.28193700  0.06100800  0.96135900  1
  O  O28  1  0.94149100  0.07596100  0.35981300  1
  O  O29  1  0.44051000  0.22124100  0.78901200  1
  O  O30  1  0.71375400  0.49597000  0.43421200  1
  O  O31  1  0.57496800  0.44075800  0.61037500  1
  O  O32  1  0.22021800  0.36554200  0.99773300  1
  O  O33  1  0.06611700  0.72279000  0.96999700  1
  O  O34  1  0.86773900  0.71226300  0.24883200  1
  O  O35  1  0.36768600  0.99562300  0.60726200  1
  O  O36  1  0.63346800  0.01516300  0.89415600  1
  O  O37  1  0.92149500  0.27943300  0.53118600  1
  O  O38  1  0.78557500  0.63263000  0.50191800  1
  O  O39  1  0.41772300  0.56615900  0.89033800  1
  O  O40  1  0.56169800  0.78133500  0.71113700  1
  O  O41  1  0.72005700  0.94140400  0.53822200  1
  O  O42  1  0.99609900  0.21138300  0.68524200  1
  O  O43  1  0.77541300  0.41764200  0.78402400  1
  O  O44  1  0.50660700  0.86761500  0.85794700  1
  O  O45  1  0.93207000  0.07448700  0.86391800  1
  O  O46  1  0.71191600  0.48678000  0.93494500  1
  O  O47  1  0.86846100  0.71269300  0.74977700  1
loop_
_geom_bond_atom_site_label_1
_geom_bond_atom_site_label_2
_geom_bond_distance
_geom_bond_site_symmetry_2
Na0 O33 2.391638 1_555
Na0 O2 2.448945 1_556
Na0 O27 2.462396 1_565
Na0 O45 2.479319 1_465
Na0 O20 2.535510 1_456
Na0 O14 2.600477 1_466
Na1 O4 2.474435 1_555
Na1 O18 2.475862 1_555
Na1 O25 2.479824 1_555
Na1 O8 2.482208 1_555
Na1 O7 2.484987 1_555
Na1 O16 2.497935 1_555
Na2 O6 2.468288 1_565
Na2 O10 2.468876 1_555
Na2 O41 2.468947 1_455
Na2 O37 2.480805 1_465
Na2 O28 2.481443 1_465
Na2 O19 2.486093 1_555
Na3 O40 2.413062 1_555
Na3 O31 2.416349 1_555
Na3 O22 2.419402 1_555
Na3 O43 2.522891 1_555
Na3 O29 2.540159 1_555
Na3 O39 2.549486 1_555
Na4 O20 2.330649 1_546
Na4 O39 2.354895 1_555
Na4 O43 2.399757 1_555
Na4 O45 2.414697 1_555
Na4 O36 2.513332 1_555
Na4 O46 2.600587 1_555
Na4 O3 2.773466 1_556
Na4 O32 2.785843 1_555
Al0 O15 1.857607 1_555
Al0 O23 1.860239 1_655
Al0 O33 1.907481 1_655
Al0 O36 1.917757 1_565
Al0 O20 1.971395 1_556
Al0 O45 1.985386 1_565
O0 P6 1.541965 1_455
O0 Ti1 1.925825 1_555
O1 P9 1.553127 1_554
O1 Ti1 1.937127 1_555
O2 P0 1.543201 1_555
O2 Ti0 1.989046 1_565
O3 P4 1.558632 1_545
O3 Ti1 1.950016 1_555
O4 P0 1.542224 1_555
O4 Ti1 1.991530 1_555
O5 P0 1.543873 1_555
O5 Ti5 1.920111 1_455
O6 P1 1.541351 1_555
O6 Ti2 2.000488 1_555
O7 P1 1.542601 1_555
O7 Ti1 1.995944 1_555
O8 P2 1.553309 1_555
O8 Ti1 1.967039 1_555
O9 P3 1.542675 1_555
O9 Ti2 1.923703 1_555
O10 P3 1.542999 1_555
O10 Ti5 1.992063 1_455
O11 P4 1.546172 1_555
O11 Ti0 1.939668 1_565
O12 P1 1.545211 1_555
O12 Ti5 1.923764 1_545
O13 P11 1.547728 1_455
O13 Ti3 1.923995 1_555
O14 P2 1.553474 1_555
O14 Ti0 1.965746 1_655
O15 P2 1.514763 1_556
O16 P3 1.543194 1_555
O16 Ti4 1.989004 1_555
O17 P3 1.543327 1_555
O17 Ti3 1.926791 1_555
O18 P4 1.535686 1_555
O18 Ti4 1.994645 1_555
O19 P5 1.547855 1_555
O19 Ti2 1.980358 1_565
O20 P4 1.540199 1_555
O21 P10 1.539787 1_545
O21 Ti3 1.929413 1_555
O22 P5 1.547832 1_555
O22 Ti3 1.979856 1_555
O23 P5 1.513510 1_555
O24 P6 1.543409 1_555
O24 Ti0 1.918640 1_655
O25 P6 1.541986 1_555
O25 Ti4 1.988338 1_555
O26 P1 1.544072 1_565
O26 Ti4 1.918994 1_555
O27 P7 1.546714 1_555
O27 Ti0 1.984262 1_556
O28 P6 1.542359 1_555
O28 Ti5 1.989316 1_545
O29 P7 1.545530 1_555
O29 Ti3 1.985854 1_555
O30 P8 1.543418 1_555
O30 Ti4 1.914996 1_555
O31 P8 1.539763 1_555
O31 Ti3 2.006967 1_555
O32 P9 1.551937 1_555
O32 Ti0 1.946474 1_556
O33 P9 1.518990 1_555
O34 P0 1.541727 1_655
O34 Ti4 1.924060 1_555
O35 P10 1.541154 1_555
O35 Ti2 1.929615 1_565
O36 P7 1.527505 1_555
O37 P8 1.542563 1_555
O37 Ti2 1.987738 1_655
O38 P8 1.544667 1_555
O38 Ti5 1.925768 1_555
O39 P9 1.556099 1_555
O39 Ti6 2.055269 1_555
O40 P10 1.548662 1_555
O40 Ti6 1.973712 1_555
O41 P10 1.540267 1_555
O41 Ti5 1.998032 1_555
O42 P11 1.543244 1_555
O42 Ti2 1.920627 1_655
O43 P11 1.557499 1_555
O43 Ti6 2.054508 1_555
O44 P7 1.558193 1_565
O44 Ti6 1.880470 1_555
O45 P11 1.539138 1_555
O46 P2 1.559106 1_556
O46 Ti6 1.959309 1_555
O47 P5 1.561874 1_655
O47 Ti6 1.871131 1_555
