# generated using pymatgen
data_Na2U2O7
_symmetry_space_group_name_H-M   'P 1'
_cell_length_a   6.38663528
_cell_length_b   6.87187781
_cell_length_c   7.81395180
_cell_angle_alpha   90.00000000
_cell_angle_beta   90.00000000
_cell_angle_gamma   111.09851630
_symmetry_Int_Tables_number   1
_chemical_formula_structural   Na2U2O7
_chemical_formula_sum   'Na4 U4 O14'
_cell_volume   319.95037683
_cell_formula_units_Z   2
loop_
 _symmetry_equiv_pos_site_id
 _symmetry_equiv_pos_as_xyz
  1  'x, y, z'
loop_
 _atom_site_type_symbol
 _atom_site_label
 _atom_site_symmetry_multiplicity
 _atom_site_fract_x
 _atom_site_fract_y
 _atom_site_fract_z
 _atom_site_occupancy
  Na  Na0  1  0.49997921  0.50013409  0.49690409  1
  Na  Na1  1  0.50002079  0.49986591  0.99690409  1
  Na  Na2  1  0.51376493  0.99194476  0.24741728  1
  Na  Na3  1  0.48623507  0.00805524  0.74741728  1
  U  U0  1  0.00000357  0.99892012  0.99802898  1
  U  U1  1  -0.00000357  0.00107988  0.49802898  1
  U  U2  1  0.00535752  0.53611214  0.74802529  1
  U  U3  1  0.99464248  0.46388786  0.24802529  1
  O  O0  1  0.05160360  0.88826952  0.74766852  1
  O  O1  1  0.94839640  0.11173048  0.24766852  1
  O  O2  1  0.98035881  0.67666247  0.04102857  1
  O  O3  1  0.01964119  0.32333753  0.54102857  1
  O  O4  1  0.68644687  0.89972402  0.52330871  1
  O  O5  1  0.31355313  0.10027598  0.02330871  1
  O  O6  1  0.31494568  0.63344865  0.74795380  1
  O  O7  1  0.68505432  0.36655135  0.24795380  1
  O  O8  1  0.69209763  0.42804274  0.74731063  1
  O  O9  1  0.30790237  0.57195726  0.24731063  1
  O  O10  1  0.68642957  0.89706728  0.97306966  1
  O  O11  1  0.31357043  0.10293272  0.47306966  1
  O  O12  1  0.98039471  0.68052688  0.45112347  1
  O  O13  1  0.01960529  0.31947312  0.95112347  1
loop_
_geom_bond_atom_site_label_1
_geom_bond_atom_site_label_2
_geom_bond_distance
_geom_bond_site_symmetry_2
Na0 O9 2.447053 1_555
Na0 O8 2.452975 1_555
Na0 O11 2.561797 1_555
Na0 O4 2.578109 1_555
Na0 O7 2.608660 1_555
Na0 O6 2.619818 1_555
Na0 O3 2.884905 1_555
Na0 O12 2.887983 1_555
Na1 O8 2.447053 1_555
Na1 O9 2.452975 1_556
Na1 O10 2.561797 1_555
Na1 O5 2.578109 1_556
Na1 O6 2.608660 1_555
Na1 O7 2.619818 1_556
Na1 O2 2.884905 1_556
Na1 O13 2.887983 1_555
Na2 O7 2.407504 1_565
Na2 O5 2.437444 1_565
Na2 O11 2.455099 1_565
Na2 O1 2.595728 1_565
Na2 O10 2.598918 1_554
Na2 O4 2.601647 1_555
Na2 O9 2.706720 1_555
Na3 O6 2.407504 1_545
Na3 O4 2.437444 1_545
Na3 O10 2.455099 1_545
Na3 O0 2.595728 1_545
Na3 O11 2.598918 1_555
Na3 O5 2.601647 1_556
Na3 O8 2.706720 1_555
O0 U0 2.166636 1_555
O0 U1 2.167641 1_565
O0 U2 2.330015 1_555
O1 U1 2.166636 1_655
O1 U0 2.167641 1_644
O1 U3 2.330015 1_555
O2 U0 2.198336 1_654
O2 U3 2.204190 1_555
O2 U2 2.512218 1_654
O3 U1 2.198336 1_555
O3 U2 2.204190 1_555
O3 U3 2.512218 1_455
O4 U1 1.878855 1_665
O5 U0 1.878855 1_544
O6 U2 1.845177 1_555
O7 U3 1.845177 1_555
O8 U2 1.866700 1_655
O9 U3 1.866700 1_455
O10 U0 1.878697 1_655
O11 U1 1.878697 1_555
O12 U1 2.191758 1_665
O12 U3 2.200149 1_555
O12 U2 2.550779 1_655
O13 U0 2.191758 1_545
O13 U2 2.200149 1_555
O13 U3 2.550779 1_456
