# generated using pymatgen
data_Na5Ce3Ti6Nb2O24
_symmetry_space_group_name_H-M   'P 1'
_cell_length_a   5.48686485
_cell_length_b   5.47803350
_cell_length_c   15.38237637
_cell_angle_alpha   89.94323694
_cell_angle_beta   89.99999246
_cell_angle_gamma   90.00005988
_symmetry_Int_Tables_number   1
_chemical_formula_structural   Na5Ce3Ti6Nb2O24
_chemical_formula_sum   'Na5 Ce3 Ti6 Nb2 O24'
_cell_volume   462.35138952
_cell_formula_units_Z   1
loop_
 _symmetry_equiv_pos_site_id
 _symmetry_equiv_pos_as_xyz
  1  'x, y, z'
loop_
 _atom_site_type_symbol
 _atom_site_label
 _atom_site_symmetry_multiplicity
 _atom_site_fract_x
 _atom_site_fract_y
 _atom_site_fract_z
 _atom_site_occupancy
  Na  Na0  1  0.50000036  0.50817874  0.12508409  1
  Na  Na1  1  0.50000006  0.51354689  0.62602091  1
  Na  Na2  1  0.99999985  0.00629390  0.37307301  1
  Na  Na3  1  0.00000074  0.00977948  0.87691815  1
  Na  Na4  1  0.99999997  0.97880985  0.62493451  1
  Ce  Ce0  1  0.99999960  0.99224974  0.12533118  1
  Ce  Ce1  1  0.49999970  0.49120253  0.37128854  1
  Ce  Ce2  1  0.50000040  0.49578820  0.87929541  1
  Ti  Ti0  1  0.49999812  0.00311593  0.00161645  1
  Ti  Ti1  1  0.50000167  0.00068483  0.24780832  1
  Ti  Ti2  1  0.50000068  0.99709813  0.49730684  1
  Ti  Ti3  1  0.00000051  0.50154991  0.25070345  1
  Ti  Ti4  1  0.00000186  0.50059031  0.75352687  1
  Ti  Ti5  1  0.99999974  0.50266094  0.00106969  1
  Nb  Nb0  1  0.49999977  0.00104936  0.74365404  1
  Nb  Nb1  1  0.99999996  0.49460192  0.50683815  1
  O  O0  1  0.50000026  0.91646500  0.37309560  1
  O  O1  1  0.49999909  0.91876780  0.87777188  1
  O  O2  1  0.24818338  0.75028403  0.22832828  1
  O  O3  1  0.25795173  0.74173512  0.51707598  1
  O  O4  1  0.25078458  0.74220436  0.73261261  1
  O  O5  1  0.24771582  0.75171973  0.02131081  1
  O  O6  1  0.25698751  0.24596315  0.47282770  1
  O  O7  1  0.25220896  0.24963386  0.26873830  1
  O  O8  1  0.25415012  0.25694374  0.77675017  1
  O  O9  1  0.25219157  0.25209068  0.98087495  1
  O  O10  1  0.99999822  0.41836517  0.12462505  1
  O  O11  1  0.00000026  0.40811070  0.62757447  1
  O  O12  1  0.00000062  0.57584799  0.87631915  1
  O  O13  1  0.99999967  0.57307980  0.37218907  1
  O  O14  1  0.75228448  0.75171945  0.02131063  1
  O  O15  1  0.75181481  0.75028381  0.22832886  1
  O  O16  1  0.74204842  0.74173547  0.51707580  1
  O  O17  1  0.74921531  0.74220438  0.73261260  1
  O  O18  1  0.74301277  0.24596263  0.47282778  1
  O  O19  1  0.74778928  0.24963086  0.26873869  1
  O  O20  1  0.74584996  0.25694282  0.77674994  1
  O  O21  1  0.74780881  0.25209036  0.98087492  1
  O  O22  1  0.50000143  0.07367437  0.12498838  1
  O  O23  1  0.49999992  0.08192105  0.62212172  1
loop_
_geom_bond_atom_site_label_1
_geom_bond_atom_site_label_2
_geom_bond_distance
_geom_bond_site_symmetry_2
Na0 O22 2.380231 1_555
Na0 O15 2.488850 1_555
Na0 O2 2.488854 1_555
Na0 O14 2.497984 1_555
Na0 O5 2.497986 1_555
Na1 O23 2.365281 1_555
Na1 O3 2.476012 1_555
Na1 O16 2.476014 1_555
Na1 O17 2.476139 1_555
Na1 O4 2.476141 1_555
Na1 O11 2.803669 1_555
Na1 O11 2.803672 1_655
Na2 O13 2.373214 1_545
Na2 O18 2.463853 1_555
Na2 O6 2.463854 1_655
Na2 O19 2.502686 1_555
Na2 O7 2.502693 1_655
Na3 O12 2.377118 1_545
Na3 O8 2.479480 1_555
Na3 O20 2.479486 1_455
Na3 O9 2.497603 1_555
Na3 O21 2.497606 1_455
Na4 O11 2.352115 1_665
Na4 O17 2.512492 1_555
Na4 O4 2.512494 1_655
Na4 O16 2.539052 1_555
Na4 O3 2.539053 1_655
Na4 O23 2.801302 1_665
Na4 O23 2.801304 1_565
Ce0 O10 2.334289 1_565
Ce0 O2 2.473314 1_655
Ce0 O15 2.473322 1_555
Ce0 O14 2.479509 1_555
Ce0 O5 2.479511 1_655
Ce1 O0 2.329795 1_555
Ce1 O6 2.453182 1_555
Ce1 O18 2.453189 1_555
Ce1 O7 2.468240 1_555
Ce1 O19 2.468243 1_555
Ce2 O1 2.317192 1_555
Ce2 O8 2.454345 1_555
Ce2 O20 2.454349 1_555
Ce2 O9 2.463397 1_555
Ce2 O21 2.463398 1_555
Nb0 O23 1.920804 1_555
Nb0 O4 1.977308 1_545
Nb0 O17 1.977311 1_545
Nb0 O20 2.011285 1_555
Nb0 O8 2.011289 1_555
Nb0 O1 2.111280 1_545
Nb1 O11 1.916241 1_655
Nb1 O3 1.964996 1_655
Nb1 O16 1.964998 1_555
Nb1 O18 2.029421 1_555
Nb1 O6 2.029423 1_655
Nb1 O13 2.114951 1_555
O0 Ti2 1.961484 1_555
O0 Ti1 1.981225 1_565
O1 Ti0 1.960704 1_566
O2 Ti3 1.956652 1_555
O2 Ti1 1.970088 1_565
O3 Ti2 1.952520 1_555
O4 Ti4 1.935948 1_555
O5 Ti5 1.951056 1_455
O5 Ti0 1.975759 1_565
O6 Ti2 1.943512 1_545
O7 Ti1 1.952657 1_555
O7 Ti3 1.973731 1_555
O8 Ti4 1.962823 1_555
O9 Ti0 1.951889 1_556
O9 Ti5 1.973882 1_456
O10 Ti5 1.955424 1_555
O10 Ti3 1.992641 1_655
O11 Ti4 2.003072 1_555
O12 Ti4 1.933704 1_555
O12 Ti5 1.960005 1_456
O13 Ti3 1.909757 1_655
O14 Ti5 1.951054 1_555
O14 Ti0 1.975777 1_565
O15 Ti3 1.956663 1_655
O15 Ti1 1.970070 1_565
O16 Ti2 1.952516 1_555
O17 Ti4 1.935965 1_655
O18 Ti2 1.943504 1_545
O19 Ti1 1.952625 1_555
O19 Ti3 1.973752 1_655
O20 Ti4 1.962838 1_655
O21 Ti0 1.951902 1_556
O21 Ti5 1.973878 1_556
O22 Ti1 1.930722 1_555
O22 Ti0 1.937091 1_555
O23 Ti2 1.975825 1_545
