# generated using pymatgen
data_Re(Te4Cl3)2
_symmetry_space_group_name_H-M   'P 1'
_cell_length_a   8.09809778
_cell_length_b   8.09809778
_cell_length_c   32.32337753
_cell_angle_alpha   89.63708236
_cell_angle_beta   89.63708236
_cell_angle_gamma   77.39490205
_symmetry_Int_Tables_number   1
_chemical_formula_structural   Re(Te4Cl3)2
_chemical_formula_sum   'Re4 Te32 Cl24'
_cell_volume   2068.58133918
_cell_formula_units_Z   4
loop_
 _symmetry_equiv_pos_site_id
 _symmetry_equiv_pos_as_xyz
  1  'x, y, z'
loop_
 _atom_site_type_symbol
 _atom_site_label
 _atom_site_symmetry_multiplicity
 _atom_site_fract_x
 _atom_site_fract_y
 _atom_site_fract_z
 _atom_site_occupancy
  Re  Re0  1  0.57818300  0.42181700  0.75000000  1
  Re  Re1  1  0.50000000  0.50000000  0.50000000  1
  Re  Re2  1  0.50000000  0.50000000  0.00000000  1
  Re  Re3  1  0.42181700  0.57818300  0.25000000  1
  Te  Te0  1  0.94530200  0.70951900  0.35965300  1
  Te  Te1  1  0.91805400  0.11410500  0.43670900  1
  Te  Te2  1  0.74991700  0.02039300  0.58196000  1
  Te  Te3  1  0.27530300  0.28833000  0.87978000  1
  Te  Te4  1  0.78401600  0.82331700  0.43302100  1
  Te  Te5  1  0.85781400  0.83819900  0.68876400  1
  Te  Te6  1  0.27667400  0.05789000  0.68705400  1
  Te  Te7  1  0.29048100  0.05469800  0.14034700  1
  Te  Te8  1  0.71167000  0.72469700  0.62022000  1
  Te  Te9  1  0.76329800  0.18595000  0.16032400  1
  Te  Te10  1  0.11410500  0.91805400  0.93670900  1
  Te  Te11  1  0.05789000  0.27667400  0.18705400  1
  Te  Te12  1  0.88589500  0.08194600  0.06329100  1
  Te  Te13  1  0.05469800  0.29048100  0.64034700  1
  Te  Te14  1  0.72332600  0.94211000  0.31294600  1
  Te  Te15  1  0.14218600  0.16180100  0.31123600  1
  Te  Te16  1  0.97960700  0.25008300  0.91804000  1
  Te  Te17  1  0.70951900  0.94530200  0.85965300  1
  Te  Te18  1  0.16180100  0.14218600  0.81123600  1
  Te  Te19  1  0.28833000  0.27530300  0.37978000  1
  Te  Te20  1  0.21598400  0.17668300  0.56697900  1
  Te  Te21  1  0.17668300  0.21598400  0.06697900  1
  Te  Te22  1  0.72469700  0.71167000  0.12022000  1
  Te  Te23  1  0.25008300  0.97960700  0.41804000  1
  Te  Te24  1  0.83819900  0.85781400  0.18876400  1
  Te  Te25  1  0.02039300  0.74991700  0.08196000  1
  Te  Te26  1  0.81405000  0.23670200  0.33967600  1
  Te  Te27  1  0.08194600  0.88589500  0.56329100  1
  Te  Te28  1  0.18595000  0.76329800  0.66032400  1
  Te  Te29  1  0.94211000  0.72332600  0.81294600  1
  Te  Te30  1  0.82331700  0.78401600  0.93302100  1
  Te  Te31  1  0.23670200  0.81405000  0.83967600  1
  Cl  Cl0  1  0.39090600  0.87291500  0.24062200  1
  Cl  Cl1  1  0.27890000  0.45986400  0.75637600  1
  Cl  Cl2  1  0.54013600  0.72110000  0.74362400  1
  Cl  Cl3  1  0.78435200  0.43406000  0.52253100  1
  Cl  Cl4  1  0.20919300  0.51760000  0.98596200  1
  Cl  Cl5  1  0.44859600  0.60532600  0.32231700  1
  Cl  Cl6  1  0.60532600  0.44859600  0.82231700  1
  Cl  Cl7  1  0.60909400  0.12708500  0.75937800  1
  Cl  Cl8  1  0.41059900  0.46549700  0.56920500  1
  Cl  Cl9  1  0.46549700  0.41059900  0.06920500  1
  Cl  Cl10  1  0.58940100  0.53450300  0.43079500  1
  Cl  Cl11  1  0.53450300  0.58940100  0.93079500  1
  Cl  Cl12  1  0.43406000  0.78435200  0.02253100  1
  Cl  Cl13  1  0.56594000  0.21564800  0.97746900  1
  Cl  Cl14  1  0.48240000  0.79080700  0.51403800  1
  Cl  Cl15  1  0.51760000  0.20919300  0.48596200  1
  Cl  Cl16  1  0.12708500  0.60909400  0.25937800  1
  Cl  Cl17  1  0.87291500  0.39090600  0.74062200  1
  Cl  Cl18  1  0.79080700  0.48240000  0.01403800  1
  Cl  Cl19  1  0.72110000  0.54013600  0.24362400  1
  Cl  Cl20  1  0.39467400  0.55140400  0.17768300  1
  Cl  Cl21  1  0.45986400  0.27890000  0.25637600  1
  Cl  Cl22  1  0.21564800  0.56594000  0.47746900  1
  Cl  Cl23  1  0.55140400  0.39467400  0.67768300  1
loop_
_geom_bond_atom_site_label_1
_geom_bond_atom_site_label_2
_geom_bond_distance
_geom_bond_site_symmetry_2
Te0 Te14 2.752981 1_555
Te0 Te4 2.764470 1_555
Te1 Te23 2.736728 1_645
Te1 Te4 2.803293 1_545
Te1 Te26 3.340853 1_555
Te2 Te27 2.736728 1_645
Te2 Te8 2.764176 1_545
Te5 Te8 2.772733 1_555
Te10 Te16 2.736728 1_465
Te10 Te30 2.803293 1_455
Te10 Te31 3.340853 1_555
Te11 Te7 2.752981 1_555
Te11 Te9 2.788668 1_455
Te12 Te25 2.736728 1_645
Te12 Te21 2.803293 1_655
Te12 Te9 3.340853 1_555
Te13 Te6 2.752981 1_555
Te13 Te20 2.764470 1_555
Te14 Te26 2.788668 1_565
Te15 Te26 2.747133 1_455
Te15 Te19 2.772733 1_555
Te16 Te3 2.764176 1_655
Te17 Te29 2.752981 1_555
Te17 Te30 2.764470 1_555
Te18 Te31 2.747133 1_545
Te18 Te3 2.772733 1_555
Te19 Te23 2.764176 1_545
Te20 Te27 2.803293 1_545
Te21 Te7 2.764470 1_555
Te22 Te25 2.764176 1_655
Te22 Te24 2.772733 1_555
Te24 Te9 2.747133 1_565
Te27 Te28 3.340853 1_555
Te28 Te5 2.747133 1_455
Te28 Te6 2.788668 1_565
Te29 Te31 2.788668 1_655
Cl0 Re3 2.362677 1_555
Cl1 Re0 2.383256 1_555
Cl2 Re0 2.383256 1_555
Cl3 Re1 2.365934 1_555
Cl4 Re2 2.374527 1_556
Cl5 Re3 2.364978 1_555
Cl6 Re0 2.364978 1_555
Cl7 Re0 2.362677 1_555
Cl8 Re1 2.380329 1_555
Cl8 Te20 3.093794 1_555
Cl9 Re2 2.380329 1_555
Cl9 Te21 3.093794 1_555
Cl10 Re1 2.380329 1_555
Cl10 Te4 3.093794 1_555
Cl11 Re2 2.380329 1_556
Cl11 Te30 3.093794 1_555
Cl12 Re2 2.365934 1_555
Cl13 Re2 2.365934 1_556
Cl14 Re1 2.374527 1_555
Cl15 Re1 2.374527 1_555
Cl16 Re3 2.362677 1_555
Cl17 Re0 2.362677 1_555
Cl18 Re2 2.374527 1_555
Cl19 Re3 2.383256 1_555
Cl20 Re3 2.364978 1_555
Cl21 Re3 2.383256 1_555
Cl22 Re1 2.365934 1_555
Cl23 Re0 2.364978 1_555
