# generated using pymatgen
data_La3GaGe5O16
_symmetry_space_group_name_H-M   'P 1'
_cell_length_a   4.88895800
_cell_length_b   8.21302788
_cell_length_c   15.86603200
_cell_angle_alpha   90.74481896
_cell_angle_beta   94.27823965
_cell_angle_gamma   89.96125415
_symmetry_Int_Tables_number   1
_chemical_formula_structural   La3GaGe5O16
_chemical_formula_sum   'La6 Ga2 Ge10 O32'
_cell_volume   635.24225635
_cell_formula_units_Z   2
loop_
 _symmetry_equiv_pos_site_id
 _symmetry_equiv_pos_as_xyz
  1  'x, y, z'
loop_
 _atom_site_type_symbol
 _atom_site_label
 _atom_site_symmetry_multiplicity
 _atom_site_fract_x
 _atom_site_fract_y
 _atom_site_fract_z
 _atom_site_occupancy
  La  La0  1  0.02227400  0.13470700  0.24948200  1
  La  La1  1  0.02691900  0.73581100  0.45494000  1
  La  La2  1  0.97308100  0.26418900  0.54506000  1
  La  La3  1  0.02133000  0.73767500  0.03540300  1
  La  La4  1  0.97772600  0.86529300  0.75051800  1
  La  La5  1  0.97867000  0.26232500  0.96459700  1
  Ga  Ga0  1  0.50636400  0.19332500  0.74340500  1
  Ga  Ga1  1  0.49363600  0.80667500  0.25659500  1
  Ge  Ge0  1  0.52016500  0.94440800  0.91149600  1
  Ge  Ge1  1  0.00974300  0.56738200  0.24387200  1
  Ge  Ge2  1  0.48422400  0.94413500  0.58564900  1
  Ge  Ge3  1  0.47861500  0.43786700  0.12608000  1
  Ge  Ge4  1  0.55299700  0.43327300  0.36134300  1
  Ge  Ge5  1  0.99025700  0.43261800  0.75612800  1
  Ge  Ge6  1  0.51577600  0.05586500  0.41435100  1
  Ge  Ge7  1  0.44700300  0.56672700  0.63865700  1
  Ge  Ge8  1  0.47983500  0.05559200  0.08850400  1
  Ge  Ge9  1  0.52138500  0.56213300  0.87392000  1
  O  O0  1  0.12901300  0.91880600  0.59466800  1
  O  O1  1  0.20716500  0.72076400  0.18648100  1
  O  O2  1  0.68994000  0.06564200  0.66367700  1
  O  O3  1  0.18912200  0.28271300  0.69250100  1
  O  O4  1  0.81087800  0.71728700  0.30749900  1
  O  O5  1  0.23835600  0.52331000  0.54641200  1
  O  O6  1  0.11874900  0.06283100  0.09475000  1
  O  O7  1  0.74846000  0.52184500  0.96194100  1
  O  O8  1  0.74490200  0.58423900  0.14717200  1
  O  O9  1  0.79283500  0.27923600  0.81351900  1
  O  O10  1  0.76164400  0.47669000  0.45358800  1
  O  O11  1  0.66797400  0.25156700  0.10971900  1
  O  O12  1  0.87098700  0.08119400  0.40533200  1
  O  O13  1  0.55108200  0.85442700  0.48163500  1
  O  O14  1  0.71390800  0.41795700  0.65821900  1
  O  O15  1  0.31006000  0.93435800  0.33632300  1
  O  O16  1  0.54648900  0.86462700  0.03326600  1
  O  O17  1  0.79577600  0.39342000  0.28260000  1
  O  O18  1  0.44891800  0.14557300  0.51836500  1
  O  O19  1  0.45351100  0.13537300  0.96673400  1
  O  O20  1  0.33202600  0.74843300  0.89028100  1
  O  O21  1  0.60436100  0.99235500  0.19668100  1
  O  O22  1  0.20422400  0.60658000  0.71740000  1
  O  O23  1  0.25509800  0.41576100  0.85282800  1
  O  O24  1  0.76250200  0.60753300  0.79659600  1
  O  O25  1  0.39563900  0.00764500  0.80331900  1
  O  O26  1  0.37131200  0.24486600  0.36074600  1
  O  O27  1  0.28609200  0.58204300  0.34178100  1
  O  O28  1  0.88125100  0.93716900  0.90525000  1
  O  O29  1  0.23749800  0.39246700  0.20340400  1
  O  O30  1  0.25154000  0.47815500  0.03805900  1
  O  O31  1  0.62868800  0.75513400  0.63925400  1
loop_
_geom_bond_atom_site_label_1
_geom_bond_atom_site_label_2
_geom_bond_distance
_geom_bond_site_symmetry_2
La0 O21 2.442456 1_445
La0 O17 2.464092 1_455
La0 O29 2.506254 1_555
La0 O15 2.520342 1_545
La0 O26 2.521493 1_555
La0 O6 2.594724 1_555
La0 O12 2.675097 1_455
La0 O11 2.884229 1_455
La0 O21 3.239292 1_545
La1 O5 2.461785 1_555
La1 O10 2.491977 1_455
La1 O4 2.496677 1_455
La1 O13 2.583322 1_455
La1 O27 2.588848 1_555
La1 O0 2.678066 1_555
La1 O13 2.743380 1_555
La1 O15 2.930642 1_555
La1 O12 3.035258 1_465
La2 O10 2.461785 1_555
La2 O5 2.491977 1_655
La2 O3 2.496677 1_655
La2 O18 2.583322 1_655
La2 O14 2.588848 1_555
La2 O12 2.678066 1_555
La2 O18 2.743380 1_555
La2 O2 2.930642 1_555
La2 O0 3.035258 1_645
La3 O30 2.409060 1_555
La3 O7 2.449054 1_454
La3 O1 2.504784 1_555
La3 O16 2.542332 1_455
La3 O8 2.641422 1_455
La3 O28 2.700601 1_454
La3 O16 2.774486 1_555
La3 O6 2.848603 1_565
La3 O20 2.853761 1_554
La4 O25 2.442456 1_665
La4 O22 2.464092 1_655
La4 O24 2.506254 1_555
La4 O2 2.520342 1_565
La4 O31 2.521493 1_555
La4 O28 2.594724 1_555
La4 O0 2.675097 1_655
La4 O20 2.884229 1_655
La4 O25 3.239292 1_565
La5 O7 2.409060 1_555
La5 O30 2.449054 1_656
La5 O9 2.504784 1_555
La5 O19 2.542332 1_655
La5 O23 2.641422 1_655
La5 O6 2.700601 1_656
La5 O19 2.774486 1_555
La5 O28 2.848603 1_545
La5 O11 2.853761 1_556
Ga0 O3 1.850348 1_555
Ga0 O9 1.856168 1_555
Ga0 O25 1.907319 1_555
Ga0 O2 1.907606 1_555
Ga0 O14 2.555768 1_555
Ga1 O4 1.850348 1_555
Ga1 O1 1.856168 1_555
Ga1 O21 1.907319 1_555
Ga1 O15 1.907606 1_555
Ga1 O27 2.555768 1_555
Ge0 O28 1.776392 1_555
Ge0 O19 1.827661 1_565
Ge0 O25 1.858239 1_565
Ge0 O20 1.868611 1_555
Ge0 O16 2.043100 1_556
Ge1 O1 1.873562 1_555
Ge1 O4 1.895431 1_455
Ge1 O17 1.906285 1_455
Ge1 O8 1.938676 1_455
Ge1 O29 1.948432 1_555
Ge1 O27 1.983738 1_555
Ge2 O0 1.765761 1_555
Ge2 O2 1.823045 1_565
Ge2 O13 1.849778 1_555
Ge2 O31 1.890751 1_555
Ge2 O18 1.981046 1_565
Ge3 O30 1.752848 1_555
Ge3 O8 1.782886 1_555
Ge3 O29 1.806097 1_555
Ge3 O11 1.813618 1_555
Ge4 O10 1.753249 1_555
Ge4 O26 1.784299 1_555
Ge4 O27 1.799795 1_555
Ge4 O17 1.812978 1_555
Ge5 O9 1.873562 1_555
Ge5 O3 1.895431 1_655
Ge5 O22 1.906285 1_655
Ge5 O23 1.938676 1_655
Ge5 O24 1.948432 1_555
Ge5 O14 1.983738 1_555
Ge6 O12 1.765761 1_555
Ge6 O15 1.823045 1_545
Ge6 O18 1.849778 1_555
Ge6 O26 1.890751 1_555
Ge6 O13 1.981046 1_545
Ge7 O5 1.753249 1_555
Ge7 O31 1.784299 1_555
Ge7 O14 1.799795 1_555
Ge7 O22 1.812978 1_555
Ge8 O6 1.776392 1_555
Ge8 O16 1.827661 1_545
Ge8 O21 1.858239 1_545
Ge8 O11 1.868611 1_555
Ge8 O19 2.043100 1_554
Ge9 O7 1.752848 1_555
Ge9 O23 1.782886 1_555
Ge9 O24 1.806097 1_555
Ge9 O20 1.813618 1_555
