# generated using pymatgen
data_Ca4Al6SO16
_symmetry_space_group_name_H-M   'P 1'
_cell_length_a   9.28350300
_cell_length_b   13.11567100
_cell_length_c   13.13561200
_cell_angle_alpha   90.00000000
_cell_angle_beta   90.00000000
_cell_angle_gamma   90.00000000
_symmetry_Int_Tables_number   1
_chemical_formula_structural   Ca4Al6SO16
_chemical_formula_sum   'Ca16 Al24 S4 O64'
_cell_volume   1599.38385581
_cell_formula_units_Z   4
loop_
 _symmetry_equiv_pos_site_id
 _symmetry_equiv_pos_as_xyz
  1  'x, y, z'
loop_
 _atom_site_type_symbol
 _atom_site_label
 _atom_site_symmetry_multiplicity
 _atom_site_fract_x
 _atom_site_fract_y
 _atom_site_fract_z
 _atom_site_occupancy
  Ca  Ca0  1  0.20073100  0.53727800  0.74395400  1
  Ca  Ca1  1  0.16251100  0.06019500  0.24973100  1
  Ca  Ca2  1  0.23344000  0.74331700  0.48995400  1
  Ca  Ca3  1  0.70073100  0.53727800  0.25604600  1
  Ca  Ca4  1  0.16251100  0.93980500  0.75026900  1
  Ca  Ca5  1  0.66251100  0.06019500  0.75026900  1
  Ca  Ca6  1  0.73344000  0.25668300  0.48995400  1
  Ca  Ca7  1  0.30203400  0.74656900  0.06096400  1
  Ca  Ca8  1  0.30203400  0.25343100  0.93903600  1
  Ca  Ca9  1  0.70073100  0.46272200  0.74395400  1
  Ca  Ca10  1  0.80203400  0.74656900  0.93903600  1
  Ca  Ca11  1  0.80203400  0.25343100  0.06096400  1
  Ca  Ca12  1  0.66251100  0.93980500  0.24973100  1
  Ca  Ca13  1  0.23344000  0.25668300  0.51004600  1
  Ca  Ca14  1  0.20073100  0.46272200  0.25604600  1
  Ca  Ca15  1  0.73344000  0.74331700  0.51004600  1
  Al  Al0  1  0.70061300  0.00000000  0.50000000  1
  Al  Al1  1  0.45559100  0.87946700  0.62834300  1
  Al  Al2  1  0.20061300  0.00000000  0.50000000  1
  Al  Al3  1  0.99440700  0.62683800  0.12169600  1
  Al  Al4  1  0.47881300  0.12358700  0.12119300  1
  Al  Al5  1  0.97881300  0.87641300  0.12119300  1
  Al  Al6  1  0.45559100  0.12053300  0.37165700  1
  Al  Al7  1  0.22871400  0.00000000  0.00000000  1
  Al  Al8  1  0.72757900  0.50000000  0.50000000  1
  Al  Al9  1  0.47881300  0.87641300  0.87880700  1
  Al  Al10  1  0.97881300  0.12358700  0.87880700  1
  Al  Al11  1  0.47804800  0.36992300  0.37097000  1
  Al  Al12  1  0.95559100  0.87946700  0.37165700  1
  Al  Al13  1  0.95559100  0.12053300  0.62834300  1
  Al  Al14  1  0.99440700  0.37316200  0.87830400  1
  Al  Al15  1  0.72871400  0.00000000  0.00000000  1
  Al  Al16  1  0.97804800  0.36992300  0.62903000  1
  Al  Al17  1  0.47804800  0.63007700  0.62903000  1
  Al  Al18  1  0.22757900  0.50000000  0.50000000  1
  Al  Al19  1  0.49440700  0.37316200  0.12169600  1
  Al  Al20  1  0.74441100  0.50000000  0.00000000  1
  Al  Al21  1  0.24441100  0.50000000  0.00000000  1
  Al  Al22  1  0.97804800  0.63007700  0.37097000  1
  Al  Al23  1  0.49440700  0.62683800  0.87830400  1
  S  S0  1  0.46793700  0.26462100  0.73404300  1
  S  S1  1  0.96793700  0.73537900  0.73404300  1
  S  S2  1  0.96793700  0.26462100  0.26595700  1
  S  S3  1  0.46793700  0.73537900  0.26595700  1
  O  O0  1  0.84214000  0.39269300  0.95604700  1
  O  O1  1  0.62462900  0.96305200  0.89214400  1
  O  O2  1  0.01185800  0.24371900  0.59185700  1
  O  O3  1  0.05395900  0.24663700  0.90267100  1
  O  O4  1  0.51185800  0.24371900  0.40814300  1
  O  O5  1  0.83138700  0.89134100  0.03640400  1
  O  O6  1  0.13516900  0.43720100  0.59804100  1
  O  O7  1  0.43631000  0.59790600  0.75435700  1
  O  O8  1  0.43631000  0.40209400  0.24564300  1
  O  O9  1  0.12462900  0.03694800  0.89214400  1
  O  O10  1  0.37038600  0.76313900  0.34964500  1
  O  O11  1  0.79713900  0.89789000  0.44481800  1
  O  O12  1  0.13516900  0.56279900  0.40195900  1
  O  O13  1  0.40212600  0.89588500  0.75638400  1
  O  O14  1  0.33138700  0.10865900  0.03640400  1
  O  O15  1  0.29713900  0.10211000  0.44481800  1
  O  O16  1  0.59921000  0.03672000  0.39224500  1
  O  O17  1  0.55395900  0.75336300  0.90267100  1
  O  O18  1  0.79713900  0.10211000  0.55518200  1
  O  O19  1  0.55395900  0.24663700  0.09732900  1
  O  O20  1  0.90212600  0.10411500  0.75638400  1
  O  O21  1  0.31967800  0.40441000  0.43506900  1
  O  O22  1  0.09921000  0.96328000  0.39224500  1
  O  O23  1  0.31967800  0.59559000  0.56493100  1
  O  O24  1  0.47403900  0.82337300  0.19153900  1
  O  O25  1  0.40212600  0.10411500  0.24361600  1
  O  O26  1  0.34214000  0.39269300  0.04395300  1
  O  O27  1  0.81967800  0.59559000  0.43506900  1
  O  O28  1  0.14582100  0.54704900  0.10485600  1
  O  O29  1  0.01185800  0.75628100  0.40814300  1
  O  O30  1  0.11686800  0.71548000  0.69472800  1
  O  O31  1  0.09921000  0.03672000  0.60775500  1
  O  O32  1  0.41478900  0.35548300  0.79096900  1
  O  O33  1  0.97403900  0.17662700  0.19153900  1
  O  O34  1  0.61686800  0.28452000  0.69472800  1
  O  O35  1  0.14582100  0.45295100  0.89514400  1
  O  O36  1  0.63516900  0.43720100  0.40195900  1
  O  O37  1  0.12462900  0.96305200  0.10785600  1
  O  O38  1  0.91478900  0.35548300  0.20903100  1
  O  O39  1  0.41478900  0.64451700  0.20903100  1
  O  O40  1  0.87038600  0.23686100  0.34964500  1
  O  O41  1  0.33138700  0.89134100  0.96359600  1
  O  O42  1  0.90212600  0.89588500  0.24361600  1
  O  O43  1  0.29713900  0.89789000  0.55518200  1
  O  O44  1  0.93631000  0.40209400  0.75435700  1
  O  O45  1  0.11686800  0.28452000  0.30527200  1
  O  O46  1  0.05395900  0.75336300  0.09732900  1
  O  O47  1  0.93631000  0.59790600  0.24564300  1
  O  O48  1  0.91478900  0.64451700  0.79096900  1
  O  O49  1  0.62462900  0.03694800  0.10785600  1
  O  O50  1  0.64582100  0.45295100  0.10485600  1
  O  O51  1  0.51185800  0.75628100  0.59185700  1
  O  O52  1  0.64582100  0.54704900  0.89514400  1
  O  O53  1  0.97403900  0.82337300  0.80846100  1
  O  O54  1  0.47403900  0.17662700  0.80846100  1
  O  O55  1  0.34214000  0.60730700  0.95604700  1
  O  O56  1  0.84214000  0.60730700  0.04395300  1
  O  O57  1  0.61686800  0.71548000  0.30527200  1
  O  O58  1  0.63516900  0.56279900  0.59804100  1
  O  O59  1  0.87038600  0.76313900  0.65035500  1
  O  O60  1  0.83138700  0.10865900  0.96359600  1
  O  O61  1  0.81967800  0.40441000  0.56493100  1
  O  O62  1  0.59921000  0.96328000  0.60775500  1
  O  O63  1  0.37038600  0.23686100  0.65035500  1
loop_
_geom_bond_atom_site_label_1
_geom_bond_atom_site_label_2
_geom_bond_distance
_geom_bond_site_symmetry_2
Ca0 O35 2.329633 1_555
Ca0 O7 2.331082 1_555
Ca0 O6 2.401433 1_555
Ca0 O30 2.546944 1_555
Ca0 O23 2.708171 1_555
Ca1 O37 2.284745 1_545
Ca1 O25 2.299245 1_555
Ca1 O22 2.337833 1_545
Ca1 O33 2.444924 1_455
Ca2 O10 2.254042 1_555
Ca2 O43 2.279008 1_555
Ca2 O23 2.316240 1_555
Ca2 O29 2.327067 1_555
Ca2 O12 2.788175 1_555
Ca2 O51 2.915698 1_555
Ca2 O30 2.922267 1_555
Ca3 O50 2.329633 1_555
Ca3 O47 2.331082 1_555
Ca3 O36 2.401433 1_555
Ca3 O57 2.546944 1_555
Ca3 O27 2.708171 1_555
Ca4 O9 2.284745 1_565
Ca4 O13 2.299245 1_555
Ca4 O31 2.337833 1_565
Ca4 O53 2.444924 1_455
Ca5 O1 2.284745 1_545
Ca5 O20 2.299245 1_555
Ca5 O62 2.337833 1_545
Ca5 O54 2.444924 1_555
Ca6 O40 2.254042 1_555
Ca6 O18 2.279008 1_555
Ca6 O61 2.316240 1_555
Ca6 O4 2.327067 1_555
Ca6 O36 2.788175 1_555
Ca6 O2 2.915698 1_655
Ca6 O34 2.922267 1_555
Ca7 O41 2.305524 1_554
Ca7 O55 2.318205 1_554
Ca7 O46 2.353709 1_555
Ca7 O24 2.550760 1_555
Ca7 O39 2.582648 1_555
Ca8 O14 2.305524 1_556
Ca8 O26 2.318205 1_556
Ca8 O3 2.353709 1_555
Ca8 O54 2.550760 1_555
Ca8 O32 2.582648 1_555
Ca9 O52 2.329633 1_555
Ca9 O44 2.331082 1_555
Ca9 O58 2.401433 1_555
Ca9 O34 2.546944 1_555
Ca9 O61 2.708171 1_555
Ca10 O5 2.305524 1_556
Ca10 O56 2.318205 1_556
Ca10 O17 2.353709 1_555
Ca10 O53 2.550760 1_555
Ca10 O48 2.582648 1_555
Ca11 O60 2.305524 1_554
Ca11 O0 2.318205 1_554
Ca11 O19 2.353709 1_555
Ca11 O33 2.550760 1_555
Ca11 O38 2.582648 1_555
Ca12 O49 2.284745 1_565
Ca12 O42 2.299245 1_555
Ca12 O16 2.337833 1_565
Ca12 O24 2.444924 1_555
Ca13 O63 2.254042 1_555
Ca13 O15 2.279008 1_555
Ca13 O21 2.316240 1_555
Ca13 O2 2.327067 1_555
Ca13 O6 2.788175 1_555
Ca13 O4 2.915698 1_555
Ca13 O45 2.922267 1_555
Ca14 O28 2.329633 1_555
Ca14 O8 2.331082 1_555
Ca14 O12 2.401433 1_555
Ca14 O45 2.546944 1_555
Ca14 O21 2.708171 1_555
Ca15 O59 2.254042 1_555
Ca15 O11 2.279008 1_555
Ca15 O27 2.316240 1_555
Ca15 O51 2.327067 1_555
Ca15 O58 2.788175 1_555
Ca15 O29 2.915698 1_655
Ca15 O57 2.922267 1_555
Al0 O62 1.766796 1_545
Al0 O16 1.766796 1_555
Al0 O11 1.766909 1_545
Al0 O18 1.766909 1_555
Al1 O62 1.749049 1_555
Al1 O51 1.764350 1_555
Al1 O13 1.766777 1_555
Al1 O43 1.773625 1_555
Al2 O31 1.766796 1_555
Al2 O22 1.766796 1_545
Al2 O43 1.766909 1_545
Al2 O15 1.766909 1_555
Al3 O47 1.756604 1_555
Al3 O56 1.762571 1_555
Al3 O28 1.766330 1_655
Al3 O46 1.778174 1_655
Al4 O14 1.775368 1_555
Al4 O49 1.776061 1_555
Al4 O25 1.777090 1_555
Al4 O19 1.785932 1_555
Al5 O5 1.775368 1_555
Al5 O37 1.776061 1_655
Al5 O42 1.777090 1_555
Al5 O46 1.785932 1_655
Al6 O16 1.749049 1_555
Al6 O4 1.764350 1_555
Al6 O25 1.766777 1_555
Al6 O15 1.773625 1_555
Al7 O14 1.779944 1_555
Al7 O41 1.779944 1_544
Al7 O37 1.782053 1_545
Al7 O9 1.782053 1_554
Al8 O61 1.740779 1_555
Al8 O27 1.740779 1_555
Al8 O58 1.752962 1_555
Al8 O36 1.752962 1_555
Al9 O41 1.775368 1_555
Al9 O1 1.776061 1_555
Al9 O13 1.777090 1_555
Al9 O17 1.785932 1_555
Al10 O60 1.775368 1_555
Al10 O9 1.776061 1_655
Al10 O20 1.777090 1_555
Al10 O3 1.785932 1_655
Al11 O8 1.743073 1_555
Al11 O36 1.752693 1_555
Al11 O21 1.753595 1_555
Al11 O4 1.754080 1_555
Al12 O22 1.749049 1_655
Al12 O29 1.764350 1_655
Al12 O42 1.766777 1_555
Al12 O11 1.773625 1_555
Al13 O31 1.749049 1_655
Al13 O2 1.764350 1_655
Al13 O20 1.766777 1_555
Al13 O18 1.773625 1_555
Al14 O44 1.756604 1_555
Al14 O0 1.762571 1_555
Al14 O35 1.766330 1_655
Al14 O3 1.778174 1_655
Al15 O60 1.779944 1_554
Al15 O5 1.779944 1_545
Al15 O49 1.782053 1_555
Al15 O1 1.782053 1_544
Al16 O44 1.743073 1_555
Al16 O6 1.752693 1_655
Al16 O61 1.753595 1_555
Al16 O2 1.754080 1_655
Al17 O7 1.743073 1_555
Al17 O58 1.752693 1_555
Al17 O23 1.753595 1_555
Al17 O51 1.754080 1_555
Al18 O21 1.740779 1_555
Al18 O23 1.740779 1_555
Al18 O6 1.752962 1_555
Al18 O12 1.752962 1_555
Al19 O8 1.756604 1_555
Al19 O26 1.762571 1_555
Al19 O50 1.766330 1_555
Al19 O19 1.778174 1_555
Al20 O50 1.765099 1_555
Al20 O52 1.765099 1_554
Al20 O56 1.771229 1_555
Al20 O0 1.771229 1_554
Al21 O28 1.765099 1_555
Al21 O35 1.765099 1_554
Al21 O55 1.771229 1_554
Al21 O26 1.771229 1_555
Al22 O47 1.743073 1_555
Al22 O12 1.752693 1_655
Al22 O27 1.753595 1_555
Al22 O29 1.754080 1_655
Al23 O7 1.756604 1_555
Al23 O55 1.762571 1_555
Al23 O52 1.766330 1_555
Al23 O17 1.778174 1_555
O10 S3 1.470084 1_555
O24 S3 1.513510 1_555
O30 S1 1.498799 1_455
O32 S0 1.490896 1_555
O33 S2 1.513510 1_555
O34 S0 1.498799 1_555
O38 S2 1.490896 1_555
O39 S3 1.490896 1_555
O40 S2 1.470084 1_555
O45 S2 1.498799 1_455
O48 S1 1.490896 1_555
O53 S1 1.513510 1_555
O54 S0 1.513510 1_555
O57 S3 1.498799 1_555
O59 S1 1.470084 1_555
O63 S0 1.470084 1_555
