# generated using pymatgen
data_Ba17Yb16Zn8Pt4O57
_symmetry_space_group_name_H-M   'P 1'
_cell_length_a   16.50963780
_cell_length_b   16.50963780
_cell_length_c   16.50963780
_cell_angle_alpha   91.73428889
_cell_angle_beta   91.73428889
_cell_angle_gamma   159.96293030
_symmetry_Int_Tables_number   1
_chemical_formula_structural   Ba17Yb16Zn8Pt4O57
_chemical_formula_sum   'Ba17 Yb16 Zn8 Pt4 O57'
_cell_volume   1518.31612211
_cell_formula_units_Z   1
loop_
 _symmetry_equiv_pos_site_id
 _symmetry_equiv_pos_as_xyz
  1  'x, y, z'
loop_
 _atom_site_type_symbol
 _atom_site_label
 _atom_site_symmetry_multiplicity
 _atom_site_fract_x
 _atom_site_fract_y
 _atom_site_fract_z
 _atom_site_occupancy
  Ba  Ba0  1  0.10885900  0.27230800  0.38116700  1
  Ba  Ba1  1  0.06772000  0.44083700  0.50855700  1
  Ba  Ba2  1  0.27230800  0.89114100  0.16344900  1
  Ba  Ba3  1  0.93228000  0.55916300  0.49144300  1
  Ba  Ba4  1  0.35262900  0.34731200  0.69994000  1
  Ba  Ba5  1  0.26623600  0.18745800  0.45369400  1
  Ba  Ba6  1  0.55916300  0.06772000  0.62688400  1
  Ba  Ba7  1  0.44083700  0.93228000  0.37311600  1
  Ba  Ba8  1  0.89114100  0.72769200  0.61883300  1
  Ba  Ba9  1  0.72769200  0.10885900  0.83655100  1
  Ba  Ba10  1  0.18745800  0.73376400  0.92122300  1
  Ba  Ba11  1  0.34731200  0.64737100  0.99468300  1
  Ba  Ba12  1  0.64737100  0.65268800  0.30006000  1
  Ba  Ba13  1  0.65268800  0.35262900  0.00531700  1
  Ba  Ba14  1  0.81254200  0.26623600  0.07877700  1
  Ba  Ba15  1  0.00000000  0.00000000  0.00000000  1
  Ba  Ba16  1  0.73376400  0.81254200  0.54630600  1
  Yb  Yb0  1  0.49443100  0.25187800  0.74630900  1
  Yb  Yb1  1  0.60015200  0.49040300  0.09055500  1
  Yb  Yb2  1  0.49040300  0.39984800  0.89025000  1
  Yb  Yb3  1  0.05187800  0.82823500  0.88011300  1
  Yb  Yb4  1  0.50959700  0.60015200  0.10975000  1
  Yb  Yb5  1  0.94812200  0.17176500  0.11988700  1
  Yb  Yb6  1  0.25187800  0.50556900  0.75744700  1
  Yb  Yb7  1  0.05013400  0.67672400  0.72685800  1
  Yb  Yb8  1  0.39984800  0.50959700  0.90944500  1
  Yb  Yb9  1  0.17176500  0.05187800  0.22364300  1
  Yb  Yb10  1  0.50556900  0.74812200  0.25369100  1
  Yb  Yb11  1  0.82823500  0.94812200  0.77635700  1
  Yb  Yb12  1  0.32327600  0.05013400  0.37341100  1
  Yb  Yb13  1  0.94986600  0.32327600  0.27314200  1
  Yb  Yb14  1  0.67672400  0.94986600  0.62658900  1
  Yb  Yb15  1  0.74812200  0.49443100  0.24255300  1
  Zn  Zn0  1  0.13033900  0.92700000  0.05733900  1
  Zn  Zn1  1  0.38002100  0.78621100  0.16623200  1
  Zn  Zn2  1  0.78621100  0.61997900  0.40619000  1
  Zn  Zn3  1  0.21378900  0.38002100  0.59381000  1
  Zn  Zn4  1  0.92700000  0.86966100  0.79666200  1
  Zn  Zn5  1  0.61997900  0.21378900  0.83376800  1
  Zn  Zn6  1  0.07300000  0.13033900  0.20333800  1
  Zn  Zn7  1  0.86966100  0.07300000  0.94266100  1
  Pt  Pt0  1  0.14451600  0.58316100  0.72767700  1
  Pt  Pt1  1  0.85548400  0.41683900  0.27232300  1
  Pt  Pt2  1  0.58316100  0.85548400  0.43864500  1
  Pt  Pt3  1  0.41683900  0.14451600  0.56135500  1
  O  O0  1  0.00580200  0.17683800  0.67773600  1
  O  O1  1  0.28262900  0.59632500  0.36190500  1
  O  O2  1  0.87773200  0.39437900  0.76752300  1
  O  O3  1  0.93747000  0.72614000  0.14585300  1
  O  O4  1  0.37314300  0.88979000  0.76752300  1
  O  O5  1  0.23442100  0.92072400  0.63809500  1
  O  O6  1  0.76295100  0.70231900  0.46527000  1
  O  O7  1  0.15575400  0.16322600  0.31898000  1
  O  O8  1  0.84599000  0.82618600  0.15811800  1
  O  O9  1  0.62685700  0.11021000  0.23247700  1
  O  O10  1  0.17683800  0.49910200  0.17103600  1
  O  O11  1  0.33193100  0.31212700  0.15811800  1
  O  O12  1  0.41971200  0.20838200  0.14585300  1
  O  O13  1  0.66806900  0.68787300  0.84188200  1
  O  O14  1  0.82316200  0.50089800  0.82896400  1
  O  O15  1  0.23704900  0.29768100  0.53473000  1
  O  O16  1  0.49910200  0.32806600  0.32226400  1
  O  O17  1  0.79161800  0.93747000  0.21133000  1
  O  O18  1  0.59632500  0.23442100  0.31369700  1
  O  O19  1  0.71737100  0.40367500  0.63809500  1
  O  O20  1  0.22766100  0.60957600  0.83723600  1
  O  O21  1  0.50000000  0.50000000  0.00000000  1
  O  O22  1  0.27386000  0.41971200  0.21133000  1
  O  O23  1  0.67193400  0.99419800  0.17103600  1
  O  O24  1  0.20838200  0.06253000  0.78867000  1
  O  O25  1  0.50089800  0.67193400  0.67773600  1
  O  O26  1  0.58028800  0.79161800  0.85414700  1
  O  O27  1  0.43810000  0.05860900  0.49670900  1
  O  O28  1  0.12226800  0.60562100  0.23247700  1
  O  O29  1  0.06253000  0.27386000  0.85414700  1
  O  O30  1  0.07927600  0.71737100  0.31369700  1
  O  O31  1  0.76557900  0.07927600  0.36190500  1
  O  O32  1  0.70231900  0.23704900  0.93936800  1
  O  O33  1  0.31212700  0.15401000  0.98019600  1
  O  O34  1  0.11021000  0.87773200  0.48335300  1
  O  O35  1  0.40367500  0.76557900  0.68630300  1
  O  O36  1  0.15401000  0.17381400  0.84188200  1
  O  O37  1  0.84424600  0.83677400  0.68102000  1
  O  O38  1  0.60562100  0.37314300  0.48335300  1
  O  O39  1  0.99419800  0.82316200  0.32226400  1
  O  O40  1  0.17381400  0.33193100  0.01980400  1
  O  O41  1  0.92072400  0.28262900  0.68630300  1
  O  O42  1  0.83677400  0.15575400  0.99252800  1
  O  O43  1  0.88979000  0.12226800  0.51664700  1
  O  O44  1  0.29768100  0.76295100  0.06063200  1
  O  O45  1  0.60957600  0.77233900  0.38191500  1
  O  O46  1  0.68787300  0.84599000  0.01980400  1
  O  O47  1  0.39437900  0.62685700  0.51664700  1
  O  O48  1  0.77233900  0.39042400  0.16276400  1
  O  O49  1  0.39042400  0.22766100  0.61808500  1
  O  O50  1  0.05860900  0.56190000  0.62050800  1
  O  O51  1  0.56190000  0.94139100  0.50329100  1
  O  O52  1  0.72614000  0.58028800  0.78867000  1
  O  O53  1  0.32806600  0.00580200  0.82896400  1
  O  O54  1  0.82618600  0.66806900  0.98019600  1
  O  O55  1  0.94139100  0.43810000  0.37949200  1
  O  O56  1  0.16322600  0.84424600  0.00747200  1
loop_
_geom_bond_atom_site_label_1
_geom_bond_atom_site_label_2
_geom_bond_distance
_geom_bond_site_symmetry_2
Ba0 O7 2.729973 1_555
Ba0 O43 2.865540 1_455
Ba0 O47 2.865540 1_555
Ba0 O45 2.872175 1_555
Ba0 O45 2.872175 1_445
Ba0 O1 2.875790 1_555
Ba0 O31 2.875805 1_455
Ba0 O15 3.004541 1_555
Ba0 O17 3.102325 1_445
Ba0 O22 3.102325 1_555
Ba1 O43 2.710288 1_455
Ba1 O47 2.710288 1_555
Ba1 O50 2.791357 1_555
Ba1 O51 2.875272 1_555
Ba1 O51 2.875272 1_445
Ba1 O55 2.905243 1_455
Ba1 O31 2.970391 1_455
Ba1 O1 2.970395 1_555
Ba1 O41 3.210616 1_455
Ba1 O35 3.210619 1_555
Ba2 O56 2.729973 1_555
Ba2 O28 2.865532 1_555
Ba2 O9 2.865535 1_565
Ba2 O48 2.872172 1_565
Ba2 O48 2.872178 1_455
Ba2 O30 2.875805 1_555
Ba2 O18 2.875805 1_565
Ba2 O44 3.004541 1_555
Ba2 O12 3.102322 1_565
Ba2 O3 3.102325 1_455
Ba3 O38 2.710288 1_555
Ba3 O34 2.710288 1_655
Ba3 O55 2.791357 1_555
Ba3 O27 2.875272 1_555
Ba3 O27 2.875272 1_665
Ba3 O50 2.905243 1_655
Ba3 O5 2.970391 1_655
Ba3 O19 2.970395 1_555
Ba3 O30 3.210616 1_655
Ba3 O18 3.210619 1_555
Ba4 O36 2.769849 1_555
Ba4 O13 2.769849 1_555
Ba4 O49 2.885008 1_555
Ba4 O37 2.888762 1_555
Ba4 O37 2.888768 1_445
Ba4 O15 2.892060 1_555
Ba4 O52 3.084262 1_555
Ba4 O24 3.084265 1_555
Ba4 O25 3.220676 1_555
Ba4 O0 3.220678 1_555
Ba5 O7 2.600598 1_555
Ba5 O15 2.621606 1_555
Ba5 O6 2.893367 1_555
Ba5 O6 2.893367 1_445
Ba5 O38 2.915699 1_555
Ba5 O34 2.915699 1_545
Ba5 O16 2.986386 1_555
Ba5 O39 2.986386 1_445
Ba5 O49 3.001238 1_555
Ba6 O4 2.710288 1_545
Ba6 O2 2.710288 1_555
Ba6 O27 2.791380 1_555
Ba6 O50 2.875267 1_545
Ba6 O50 2.875279 1_655
Ba6 O51 2.905266 1_545
Ba6 O41 2.970388 1_555
Ba6 O35 2.970396 1_545
Ba6 O5 3.210614 1_545
Ba6 O19 3.210633 1_555
Ba7 O9 2.710288 1_565
Ba7 O28 2.710288 1_555
Ba7 O51 2.791380 1_555
Ba7 O55 2.875267 1_565
Ba7 O55 2.875279 1_455
Ba7 O27 2.905266 1_565
Ba7 O30 2.970388 1_555
Ba7 O18 2.970396 1_565
Ba7 O31 3.210614 1_565
Ba7 O1 3.210633 1_555
Ba8 O37 2.729973 1_555
Ba8 O34 2.865540 1_655
Ba8 O38 2.865540 1_555
Ba8 O49 2.872175 1_665
Ba8 O49 2.872175 1_555
Ba8 O19 2.875790 1_555
Ba8 O5 2.875805 1_655
Ba8 O6 3.004541 1_555
Ba8 O24 3.102325 1_665
Ba8 O52 3.102325 1_555
Ba9 O42 2.729973 1_555
Ba9 O2 2.865532 1_555
Ba9 O4 2.865535 1_545
Ba9 O20 2.872172 1_545
Ba9 O20 2.872178 1_655
Ba9 O41 2.875805 1_555
Ba9 O35 2.875805 1_545
Ba9 O32 3.004541 1_555
Ba9 O26 3.102322 1_545
Ba9 O29 3.102325 1_655
Ba10 O56 2.600589 1_556
Ba10 O44 2.621592 1_556
Ba10 O32 2.893363 1_455
Ba10 O32 2.893368 1_565
Ba10 O2 2.915699 1_455
Ba10 O4 2.915699 1_555
Ba10 O14 2.986392 1_455
Ba10 O53 2.986395 1_565
Ba10 O20 3.001253 1_555
Ba11 O46 2.769849 1_556
Ba11 O40 2.769849 1_556
Ba11 O20 2.885030 1_555
Ba11 O42 2.888767 1_455
Ba11 O42 2.888767 1_565
Ba11 O44 2.892075 1_556
Ba11 O29 3.084266 1_555
Ba11 O26 3.084269 1_555
Ba11 O23 3.220679 1_556
Ba11 O10 3.220679 1_556
Ba12 O11 2.769849 1_555
Ba12 O8 2.769849 1_555
Ba12 O45 2.885008 1_555
Ba12 O7 2.888762 1_555
Ba12 O7 2.888768 1_665
Ba12 O6 2.892060 1_555
Ba12 O22 3.084262 1_555
Ba12 O17 3.084265 1_555
Ba12 O16 3.220676 1_555
Ba12 O39 3.220678 1_555
Ba13 O33 2.769849 1_554
Ba13 O54 2.769849 1_554
Ba13 O48 2.885030 1_555
Ba13 O56 2.888767 1_655
Ba13 O56 2.888767 1_545
Ba13 O32 2.892075 1_554
Ba13 O3 3.084266 1_555
Ba13 O12 3.084269 1_555
Ba13 O14 3.220679 1_554
Ba13 O53 3.220679 1_554
Ba14 O42 2.600589 1_554
Ba14 O32 2.621592 1_554
Ba14 O44 2.893363 1_655
Ba14 O44 2.893368 1_545
Ba14 O9 2.915699 1_555
Ba14 O28 2.915699 1_655
Ba14 O10 2.986392 1_655
Ba14 O23 2.986395 1_545
Ba14 O48 3.001253 1_555
Ba15 O21 2.872128 1_445
Ba15 O21 2.872128 1_555
Ba15 O54 2.942760 1_444
Ba15 O33 2.942760 1_554
Ba15 O40 2.942760 1_555
Ba15 O46 2.942760 1_445
Ba15 O11 2.942773 1_555
Ba15 O13 2.942773 1_444
Ba15 O36 2.942776 1_554
Ba15 O8 2.942776 1_445
Ba16 O37 2.600598 1_555
Ba16 O6 2.621606 1_555
Ba16 O15 2.893367 1_665
Ba16 O15 2.893367 1_555
Ba16 O47 2.915699 1_555
Ba16 O43 2.915699 1_565
Ba16 O0 2.986386 1_665
Ba16 O25 2.986386 1_555
Ba16 O45 3.001238 1_555
O0 Zn3 1.972277 1_555
O0 Yb11 2.316299 1_445
O0 Yb6 2.346754 1_555
O0 Yb14 2.355861 1_445
O1 Pt2 1.983195 1_555
O1 Yb13 2.286996 1_455
O1 Yb10 2.521327 1_555
O2 Pt0 2.013074 1_655
O2 Zn5 2.198642 1_555
O2 Yb7 2.378370 1_655
O3 Zn0 2.001536 1_655
O3 Yb15 2.270966 1_555
O3 Yb9 2.393336 1_665
O3 Yb1 2.397299 1_555
O4 Pt0 2.013070 1_555
O4 Zn5 2.198646 1_565
O4 Yb7 2.378366 1_555
O5 Pt3 1.983198 1_565
O5 Yb7 2.286991 1_555
O5 Yb0 2.521333 1_565
O6 Zn2 1.967259 1_555
O7 Zn6 2.047448 1_555
O7 Yb9 2.586459 1_555
O8 Zn6 2.015296 1_665
O8 Yb1 2.350489 1_555
O8 Yb9 2.393822 1_665
O8 Yb4 2.453043 1_555
O9 Pt1 2.013070 1_555
O9 Zn1 2.198646 1_545
O9 Yb13 2.378366 1_555
O10 Zn1 1.972277 1_555
O10 Yb5 2.316299 1_455
O10 Yb10 2.346754 1_555
O10 Yb13 2.355857 1_455
O11 Zn6 2.015288 1_555
O11 Yb1 2.350492 1_555
O11 Yb9 2.393819 1_555
O11 Yb4 2.453043 1_555
O12 Zn0 2.001532 1_545
O12 Yb15 2.270970 1_555
O12 Yb9 2.393333 1_555
O12 Yb1 2.397302 1_555
O13 Zn4 2.015288 1_555
O13 Yb8 2.350492 1_555
O13 Yb11 2.393819 1_555
O13 Yb2 2.453043 1_555
O14 Zn5 1.972277 1_555
O14 Yb3 2.316299 1_655
O14 Yb0 2.346754 1_555
O14 Yb7 2.355857 1_655
O15 Zn3 1.967259 1_555
O16 Zn2 1.972277 1_555
O16 Yb9 2.316299 1_555
O16 Yb15 2.346754 1_555
O16 Yb12 2.355864 1_555
O17 Zn6 2.001526 1_665
O17 Yb10 2.270979 1_555
O17 Yb5 2.393343 1_565
O17 Yb4 2.397285 1_555
O18 Pt1 1.983211 1_555
O18 Yb12 2.286988 1_555
O18 Yb15 2.521323 1_555
O19 Pt3 1.983195 1_555
O19 Yb7 2.286996 1_655
O19 Yb0 2.521327 1_555
O20 Pt0 2.005822 1_555
O20 Yb6 2.455301 1_555
O21 Yb1 2.313256 1_555
O21 Yb8 2.313256 1_554
O21 Yb2 2.313268 1_554
O21 Yb4 2.313268 1_555
O22 Zn6 2.001522 1_555
O22 Yb10 2.270979 1_555
O22 Yb5 2.393343 1_455
O22 Yb4 2.397282 1_555
O23 Zn1 1.972277 1_555
O23 Yb5 2.316299 1_565
O23 Yb10 2.346754 1_555
O23 Yb13 2.355857 1_565
O24 Zn4 2.001526 1_445
O24 Yb0 2.270979 1_555
O24 Yb3 2.393343 1_545
O24 Yb2 2.397285 1_555
O25 Zn3 1.972277 1_555
O25 Yb11 2.316299 1_555
O25 Yb6 2.346754 1_555
O25 Yb14 2.355864 1_555
O26 Zn7 2.001532 1_565
O26 Yb6 2.270970 1_555
O26 Yb11 2.393333 1_555
O26 Yb8 2.397302 1_555
O27 Pt3 2.034777 1_555
O27 Yb12 2.647217 1_555
O28 Pt1 2.013074 1_455
O28 Zn1 2.198642 1_555
O28 Yb13 2.378370 1_455
O29 Zn7 2.001536 1_455
O29 Yb6 2.270966 1_555
O29 Yb11 2.393336 1_445
O29 Yb8 2.397299 1_555
O30 Pt1 1.983198 1_455
O30 Yb12 2.286996 1_565
O30 Yb15 2.521333 1_455
O31 Pt2 1.983198 1_545
O31 Yb13 2.286991 1_555
O31 Yb10 2.521333 1_545
O32 Zn5 1.967259 1_555
O33 Zn0 2.015304 1_546
O33 Yb2 2.350495 1_555
O33 Yb3 2.393828 1_545
O33 Yb1 2.453043 1_556
O34 Pt3 2.013067 1_565
O34 Zn2 2.198652 1_455
O34 Yb12 2.378349 1_565
O35 Pt0 1.983211 1_555
O35 Yb14 2.286988 1_555
O35 Yb6 2.521323 1_555
O36 Zn4 2.015296 1_445
O36 Yb8 2.350489 1_555
O36 Yb11 2.393822 1_445
O36 Yb2 2.453043 1_555
O37 Zn4 2.047448 1_555
O37 Yb11 2.586459 1_555
O38 Pt3 2.013067 1_555
O38 Zn2 2.198652 1_555
O38 Yb12 2.378353 1_555
O39 Zn2 1.972277 1_555
O39 Yb9 2.316299 1_665
O39 Yb15 2.346754 1_555
O39 Yb12 2.355861 1_665
O40 Zn7 2.015304 1_454
O40 Yb4 2.350491 1_555
O40 Yb5 2.393828 1_455
O40 Yb8 2.453043 1_554
O41 Pt0 1.983198 1_655
O41 Yb14 2.286996 1_545
O41 Yb6 2.521333 1_655
O42 Zn7 2.047433 1_555
O42 Yb5 2.586459 1_556
O43 Pt2 2.013067 1_545
O43 Zn3 2.198652 1_655
O43 Yb14 2.378349 1_545
O44 Zn1 1.967259 1_555
O45 Pt2 2.005837 1_555
O45 Yb10 2.455310 1_555
O46 Zn7 2.015304 1_564
O46 Yb4 2.350495 1_555
O46 Yb5 2.393828 1_565
O46 Yb8 2.453043 1_554
O47 Pt2 2.013067 1_555
O47 Zn3 2.198652 1_555
O47 Yb14 2.378353 1_555
O48 Pt1 2.005822 1_555
O48 Yb15 2.455301 1_555
O49 Pt3 2.005837 1_555
O49 Yb0 2.455310 1_555
O50 Pt0 2.034791 1_555
O50 Yb7 2.647240 1_555
O51 Pt2 2.034777 1_555
O51 Yb14 2.647217 1_555
O52 Zn4 2.001522 1_555
O52 Yb0 2.270979 1_555
O52 Yb3 2.393343 1_655
O52 Yb2 2.397282 1_555
O53 Zn5 1.972277 1_555
O53 Yb3 2.316299 1_545
O53 Yb0 2.346754 1_555
O53 Yb7 2.355857 1_545
O54 Zn0 2.015304 1_656
O54 Yb2 2.350491 1_555
O54 Yb3 2.393828 1_655
O54 Yb1 2.453043 1_556
O55 Pt1 2.034791 1_555
O55 Yb13 2.647240 1_555
O56 Zn0 2.047433 1_555
O56 Yb3 2.586459 1_554
