# generated using pymatgen
data_KBaPO4
_symmetry_space_group_name_H-M   'P 1'
_cell_length_a   5.67190848
_cell_length_b   7.72744597
_cell_length_c   10.02796935
_cell_angle_alpha   90.00000000
_cell_angle_beta   90.00000000
_cell_angle_gamma   90.00000000
_symmetry_Int_Tables_number   1
_chemical_formula_structural   KBaPO4
_chemical_formula_sum   'K4 Ba4 P4 O16'
_cell_volume   439.51954215
_cell_formula_units_Z   4
loop_
 _symmetry_equiv_pos_site_id
 _symmetry_equiv_pos_as_xyz
  1  'x, y, z'
loop_
 _atom_site_type_symbol
 _atom_site_label
 _atom_site_symmetry_multiplicity
 _atom_site_fract_x
 _atom_site_fract_y
 _atom_site_fract_z
 _atom_site_occupancy
  K  K0  1  0.25000000  0.16082176  0.41597766  1
  K  K1  1  0.25000000  0.66082176  0.08402234  1
  K  K2  1  0.75000000  0.83917824  0.58402234  1
  K  K3  1  0.75000000  0.33917824  0.91597766  1
  Ba  Ba0  1  0.25000000  0.99104265  0.80611322  1
  Ba  Ba1  1  0.75000000  0.00895735  0.19388678  1
  Ba  Ba2  1  0.25000000  0.49104265  0.69388678  1
  Ba  Ba3  1  0.75000000  0.50895735  0.30611322  1
  P  P0  1  0.25000000  0.73607268  0.41707932  1
  P  P1  1  0.75000000  0.26392732  0.58292068  1
  P  P2  1  0.75000000  0.76392732  0.91707932  1
  P  P3  1  0.25000000  0.23607268  0.08292068  1
  O  O0  1  0.25000000  0.30291105  0.93731227  1
  O  O1  1  0.75000000  0.69708895  0.06268773  1
  O  O2  1  0.25000000  0.80291105  0.56268773  1
  O  O3  1  0.75000000  0.19708895  0.43731227  1
  O  O4  1  0.25000000  0.03587087  0.08443470  1
  O  O5  1  0.75000000  0.96412913  0.91556530  1
  O  O6  1  0.25000000  0.53587087  0.41556530  1
  O  O7  1  0.75000000  0.46412913  0.58443470  1
  O  O8  1  0.47306182  0.80232514  0.34582259  1
  O  O9  1  0.97306182  0.19767486  0.65417741  1
  O  O10  1  0.02693818  0.30232514  0.15417741  1
  O  O11  1  0.52693818  0.69767486  0.84582259  1
  O  O12  1  0.47306182  0.30232514  0.15417741  1
  O  O13  1  0.97306182  0.69767486  0.84582259  1
  O  O14  1  0.02693818  0.80232514  0.34582259  1
  O  O15  1  0.52693818  0.19767486  0.65417741  1
loop_
_geom_bond_atom_site_label_1
_geom_bond_atom_site_label_2
_geom_bond_distance
_geom_bond_site_symmetry_2
K0 O3 2.857788 1_455
K0 O3 2.857788 1_555
K0 O15 2.872996 1_555
K0 O9 2.872996 1_455
K0 O6 2.898175 1_555
K0 O12 3.112665 1_555
K0 O10 3.112665 1_555
K0 O8 3.125698 1_545
K0 O14 3.125698 1_545
K0 O2 3.132688 1_545
K1 O1 2.857788 1_555
K1 O1 2.857788 1_455
K1 O11 2.872996 1_554
K1 O13 2.872996 1_454
K1 O4 2.898175 1_565
K1 O14 3.112665 1_555
K1 O8 3.112665 1_555
K1 O12 3.125698 1_555
K1 O10 3.125698 1_555
K1 O0 3.132688 1_554
K2 O2 2.857788 1_555
K2 O2 2.857788 1_655
K2 O8 2.872996 1_555
K2 O14 2.872996 1_655
K2 O7 2.898175 1_555
K2 O13 3.112665 1_555
K2 O11 3.112665 1_555
K2 O15 3.125698 1_565
K2 O9 3.125698 1_565
K2 O3 3.132688 1_565
K3 O0 2.857788 1_555
K3 O0 2.857788 1_655
K3 O10 2.872996 1_656
K3 O12 2.872996 1_556
K3 O5 2.898175 1_545
K3 O15 3.112665 1_555
K3 O9 3.112665 1_555
K3 O11 3.125698 1_555
K3 O13 3.125698 1_555
K3 O1 3.132688 1_556
Ba0 O9 2.708924 1_465
Ba0 O15 2.708924 1_565
Ba0 O0 2.745688 1_565
Ba0 O13 2.786592 1_455
Ba0 O11 2.786592 1_555
Ba0 O4 2.812414 1_566
Ba0 O2 2.841172 1_555
Ba0 O5 3.048045 1_455
Ba0 O5 3.048045 1_555
Ba1 O14 2.708924 1_645
Ba1 O8 2.708924 1_545
Ba1 O1 2.745688 1_545
Ba1 O12 2.786592 1_555
Ba1 O10 2.786592 1_655
Ba1 O5 2.812414 1_544
Ba1 O3 2.841172 1_555
Ba1 O4 3.048045 1_655
Ba1 O4 3.048045 1_555
Ba2 O13 2.708924 1_455
Ba2 O11 2.708924 1_555
Ba2 O2 2.745688 1_555
Ba2 O15 2.786592 1_555
Ba2 O9 2.786592 1_455
Ba2 O6 2.812414 1_555
Ba2 O0 2.841172 1_555
Ba2 O7 3.048045 1_455
Ba2 O7 3.048045 1_555
Ba3 O10 2.708924 1_655
Ba3 O12 2.708924 1_555
Ba3 O3 2.745688 1_555
Ba3 O14 2.786592 1_655
Ba3 O8 2.786592 1_555
Ba3 O7 2.812414 1_555
Ba3 O1 2.841172 1_555
Ba3 O6 3.048045 1_655
Ba3 O6 3.048045 1_555
O0 P3 1.548812 1_556
O1 P2 1.548812 1_554
O2 P0 1.548812 1_555
O3 P1 1.548812 1_555
O4 P3 1.547123 1_555
O5 P2 1.547123 1_555
O6 P0 1.547123 1_555
O7 P1 1.547123 1_555
O8 P0 1.540584 1_555
O9 P1 1.540584 1_555
O10 P3 1.540584 1_555
O11 P2 1.540584 1_555
O12 P3 1.540584 1_555
O13 P2 1.540584 1_555
O14 P0 1.540584 1_555
O15 P1 1.540584 1_555
