# generated using pymatgen
data_KNa4SnSb3
_symmetry_space_group_name_H-M   'P 1'
_cell_length_a   8.39165900
_cell_length_b   9.26227700
_cell_length_c   17.43092163
_cell_angle_alpha   58.38370974
_cell_angle_beta   90.00000000
_cell_angle_gamma   90.00000000
_symmetry_Int_Tables_number   1
_chemical_formula_structural   KNa4SnSb3
_chemical_formula_sum   'K4 Na16 Sn4 Sb12'
_cell_volume   1153.74633859
_cell_formula_units_Z   4
loop_
 _symmetry_equiv_pos_site_id
 _symmetry_equiv_pos_as_xyz
  1  'x, y, z'
loop_
 _atom_site_type_symbol
 _atom_site_label
 _atom_site_symmetry_multiplicity
 _atom_site_fract_x
 _atom_site_fract_y
 _atom_site_fract_z
 _atom_site_occupancy
  K  K0  1  0.02450800  0.91233300  0.91293100  1
  K  K1  1  0.97549200  0.08766700  0.08706900  1
  K  K2  1  0.52450800  0.08766700  0.58706900  1
  K  K3  1  0.47549200  0.91233300  0.41293100  1
  Na  Na0  1  0.99691500  0.57204600  0.25853500  1
  Na  Na1  1  0.49691500  0.42795400  0.24146500  1
  Na  Na2  1  0.50308500  0.57204600  0.75853500  1
  Na  Na3  1  0.00308500  0.42795400  0.74146500  1
  Na  Na4  1  0.12605300  0.17171900  0.25864800  1
  Na  Na5  1  0.62605300  0.82828100  0.24135200  1
  Na  Na6  1  0.87394700  0.82828100  0.74135200  1
  Na  Na7  1  0.37394700  0.17171900  0.75864800  1
  Na  Na8  1  0.16085800  0.83759600  0.58292700  1
  Na  Na9  1  0.94845400  0.77366900  0.40522500  1
  Na  Na10  1  0.83914200  0.16240400  0.41707300  1
  Na  Na11  1  0.33914200  0.83759600  0.08292700  1
  Na  Na12  1  0.55154600  0.77366900  0.90522500  1
  Na  Na13  1  0.05154600  0.22633100  0.59477500  1
  Na  Na14  1  0.44845400  0.22633100  0.09477500  1
  Na  Na15  1  0.66085800  0.16240400  0.91707300  1
  Sn  Sn0  1  0.84834200  0.47866800  0.09007600  1
  Sn  Sn1  1  0.65165800  0.47866800  0.59007600  1
  Sn  Sn2  1  0.15165800  0.52133200  0.90992400  1
  Sn  Sn3  1  0.34834200  0.52133200  0.40992400  1
  Sb  Sb0  1  0.19960400  0.51509500  0.07751300  1
  Sb  Sb1  1  0.78870500  0.76691900  0.58486700  1
  Sb  Sb2  1  0.24039300  0.83584700  0.26094300  1
  Sb  Sb3  1  0.21129500  0.23308100  0.41513300  1
  Sb  Sb4  1  0.28870500  0.23308100  0.91513300  1
  Sb  Sb5  1  0.69960400  0.48490500  0.42248700  1
  Sb  Sb6  1  0.80039600  0.48490500  0.92248700  1
  Sb  Sb7  1  0.30039600  0.51509500  0.57751300  1
  Sb  Sb8  1  0.74039300  0.16415300  0.23905700  1
  Sb  Sb9  1  0.75960700  0.16415300  0.73905700  1
  Sb  Sb10  1  0.25960700  0.83584700  0.76094300  1
  Sb  Sb11  1  0.71129500  0.76691900  0.08486700  1
loop_
_geom_bond_atom_site_label_1
_geom_bond_atom_site_label_2
_geom_bond_distance
_geom_bond_site_symmetry_2
K0 Sb9 3.486516 1_465
K0 Sb0 3.586050 1_556
K0 Sb10 3.657955 1_555
K0 Sb11 3.670461 1_456
K0 Sb4 3.723216 1_565
K0 Sn2 3.802098 1_555
K0 Sn0 3.853596 1_456
K1 Sb2 3.486516 1_645
K1 Sb6 3.586050 1_554
K1 Sb8 3.657955 1_555
K1 Sb4 3.670461 1_654
K1 Sb11 3.723216 1_545
K1 Sn0 3.802098 1_555
K1 Sn2 3.853596 1_654
K2 Sb10 3.486516 1_545
K2 Sb5 3.586050 1_555
K2 Sb9 3.657955 1_555
K2 Sb3 3.670461 1_555
K2 Sb1 3.723216 1_545
K2 Sn1 3.802098 1_555
K2 Sn3 3.853596 1_555
K3 Sb8 3.486516 1_565
K3 Sb7 3.586050 1_555
K3 Sb2 3.657955 1_555
K3 Sb1 3.670461 1_555
K3 Sb3 3.723216 1_565
K3 Sn3 3.802098 1_555
K3 Sn1 3.853596 1_555
Na0 Sb2 3.202200 1_655
Na0 Sb3 3.399877 1_655
Na0 Sb11 3.526731 1_555
Na0 Sb5 3.553162 1_555
Na0 Sn0 3.686141 1_555
Na1 Sb8 3.202200 1_555
Na1 Sb11 3.399877 1_555
Na1 Sb3 3.526731 1_555
Na1 Sb0 3.553162 1_555
Na1 Sn3 3.686141 1_555
Na2 Sb10 3.202200 1_555
Na2 Sb4 3.399877 1_555
Na2 Sb1 3.526731 1_555
Na2 Sb6 3.553162 1_555
Na2 Sn1 3.686141 1_555
Na3 Sb9 3.202200 1_455
Na3 Sb1 3.399877 1_455
Na3 Sb4 3.526731 1_555
Na3 Sb7 3.553162 1_555
Na3 Sn2 3.686141 1_555
Na4 Sb3 3.146480 1_555
Na4 Sb0 3.152249 1_555
Na4 Sb2 3.235693 1_545
Na4 Sb8 3.258900 1_455
Na4 Sn0 3.659129 1_455
Na5 Sb11 3.146480 1_555
Na5 Sb5 3.152249 1_555
Na5 Sb8 3.235693 1_565
Na5 Sb2 3.258900 1_555
Na5 Sn3 3.659129 1_555
Na6 Sb1 3.146480 1_555
Na6 Sb6 3.152249 1_555
Na6 Sb9 3.235693 1_565
Na6 Sb10 3.258900 1_655
Na6 Sn2 3.659129 1_655
Na7 Sb4 3.146480 1_555
Na7 Sb7 3.152249 1_555
Na7 Sb10 3.235693 1_545
Na7 Sb9 3.258900 1_555
Na7 Sn1 3.659129 1_555
Na8 Sb1 3.187395 1_455
Na8 Sb10 3.203553 1_555
Na8 Sb7 3.255507 1_555
Na8 Sb3 3.304374 1_565
Na9 Sb5 3.280422 1_555
Na9 Sb2 3.337654 1_655
Na9 Sb1 3.376529 1_555
Na9 Sb8 3.679062 1_565
Na10 Sb3 3.187395 1_655
Na10 Sb8 3.203553 1_555
Na10 Sb5 3.255507 1_555
Na10 Sb1 3.304374 1_545
Na11 Sb11 3.187395 1_555
Na11 Sb2 3.203553 1_555
Na11 Sb0 3.255507 1_555
Na11 Sb4 3.304374 1_564
Na12 Sb6 3.280422 1_555
Na12 Sb10 3.337654 1_555
Na12 Sb11 3.376529 1_556
Na12 Sb9 3.679062 1_565
Na13 Sb7 3.280422 1_555
Na13 Sb9 3.337654 1_455
Na13 Sb3 3.376529 1_555
Na13 Sb10 3.679062 1_545
Na14 Sb0 3.280422 1_555
Na14 Sb8 3.337654 1_555
Na14 Sb4 3.376529 1_554
Na14 Sb2 3.679062 1_545
Na15 Sb4 3.187395 1_555
Na15 Sb9 3.203553 1_555
Na15 Sb6 3.255507 1_555
Na15 Sb11 3.304374 1_546
Sb0 Sn2 2.919225 1_554
Sb0 Sn0 2.961940 1_455
Sb1 Sn1 2.864412 1_555
Sb2 Sn3 2.849398 1_555
Sb3 Sn3 2.864412 1_555
Sb4 Sn2 2.864412 1_555
Sb5 Sn1 2.919225 1_555
Sb5 Sn3 2.961940 1_555
Sb6 Sn0 2.919225 1_556
Sb6 Sn2 2.961940 1_655
Sb7 Sn3 2.919225 1_555
Sb7 Sn1 2.961940 1_555
Sb8 Sn0 2.849398 1_555
Sb9 Sn1 2.849398 1_555
Sb10 Sn2 2.849398 1_555
Sb11 Sn0 2.864412 1_555
