# generated using pymatgen
data_H24C8S(NO2)2
_symmetry_space_group_name_H-M   'P 1'
_cell_length_a   10.90208300
_cell_length_b   11.02999274
_cell_length_c   11.08410555
_cell_angle_alpha   89.93272617
_cell_angle_beta   89.94571839
_cell_angle_gamma   89.68026379
_symmetry_Int_Tables_number   1
_chemical_formula_structural   H24C8S(NO2)2
_chemical_formula_sum   'H96 C32 S4 N8 O16'
_cell_volume   1332.84028127
_cell_formula_units_Z   4
loop_
 _symmetry_equiv_pos_site_id
 _symmetry_equiv_pos_as_xyz
  1  'x, y, z'
loop_
 _atom_site_type_symbol
 _atom_site_label
 _atom_site_symmetry_multiplicity
 _atom_site_fract_x
 _atom_site_fract_y
 _atom_site_fract_z
 _atom_site_occupancy
  H  H0  1  0.11440100  0.85402200  0.20346700  1
  H  H1  1  0.11520000  0.79605000  0.85313700  1
  H  H2  1  0.11568400  0.64641800  0.70378900  1
  H  H3  1  0.11521000  0.70462300  0.35300800  1
  H  H4  1  0.11553100  0.29627300  0.64678400  1
  H  H5  1  0.11483700  0.35425100  0.29619000  1
  H  H6  1  0.11519600  0.20444400  0.14676000  1
  H  H7  1  0.11530400  0.14657200  0.79608200  1
  H  H8  1  0.11438600  0.91622900  0.74113000  1
  H  H9  1  0.11509700  0.75931200  0.58482000  1
  H  H10  1  0.11496900  0.25938900  0.91501600  1
  H  H11  1  0.11566300  0.58480400  0.24117000  1
  H  H12  1  0.11456400  0.41611200  0.75877700  1
  H  H13  1  0.11531700  0.24108500  0.41513100  1
  H  H14  1  0.11483600  0.74110600  0.08458300  1
  H  H15  1  0.11529400  0.08462800  0.25904300  1
  H  H16  1  0.23148000  0.91156700  0.85683900  1
  H  H17  1  0.23153900  0.85709900  0.08819100  1
  H  H18  1  0.23252500  0.14287600  0.91124400  1
  H  H19  1  0.23237400  0.08825200  0.14343000  1
  H  H20  1  0.23310300  0.64312200  0.58829100  1
  H  H21  1  0.23337700  0.58939500  0.35721800  1
  H  H22  1  0.23223200  0.41196900  0.64361000  1
  H  H23  1  0.23204400  0.35717100  0.41116200  1
  H  H24  1  0.27280600  0.85490000  0.35245300  1
  H  H25  1  0.26987400  0.41516900  0.91542700  1
  H  H26  1  0.27335300  0.35391800  0.14643800  1
  H  H27  1  0.27063200  0.08457400  0.41512700  1
  H  H28  1  0.26987500  0.91567200  0.58473500  1
  H  H29  1  0.27350700  0.64635200  0.85371200  1
  H  H30  1  0.27073300  0.58470400  0.08488800  1
  H  H31  1  0.27384000  0.14636100  0.64661700  1
  H  H32  1  0.39007900  0.76282900  0.85267600  1
  H  H33  1  0.38931800  0.73717900  0.35191000  1
  H  H34  1  0.39018000  0.64549800  0.73771700  1
  H  H35  1  0.38962500  0.85366400  0.23605900  1
  H  H36  1  0.38998200  0.35139700  0.26375400  1
  H  H37  1  0.38986500  0.26357200  0.64766100  1
  H  H38  1  0.39101300  0.14806900  0.76350500  1
  H  H39  1  0.39052500  0.23605800  0.14842100  1
  H  H40  1  0.38761100  0.91433500  0.69976400  1
  H  H41  1  0.38708000  0.79851700  0.58511100  1
  H  H42  1  0.38769200  0.41448400  0.79916300  1
  H  H43  1  0.38818800  0.70080100  0.08563700  1
  H  H44  1  0.38784200  0.58529700  0.20077400  1
  H  H45  1  0.38802500  0.29850400  0.91407600  1
  H  H46  1  0.38805400  0.20085600  0.41408900  1
  H  H47  1  0.38918800  0.08516800  0.29951100  1
  H  H48  1  0.61289000  0.79886900  0.41445200  1
  H  H49  1  0.61318200  0.70141800  0.91435700  1
  H  H50  1  0.61272300  0.58501800  0.79916900  1
  H  H51  1  0.61268500  0.91559400  0.29925100  1
  H  H52  1  0.61207600  0.41461400  0.20046700  1
  H  H53  1  0.61262900  0.20141900  0.58486900  1
  H  H54  1  0.61330200  0.08668300  0.70112400  1
  H  H55  1  0.61341800  0.29899200  0.08602100  1
  H  H56  1  0.61074100  0.85214900  0.76398100  1
  H  H57  1  0.61142300  0.73656600  0.64796000  1
  H  H58  1  0.61132300  0.35567400  0.73631300  1
  H  H59  1  0.61083900  0.76252100  0.14782100  1
  H  H60  1  0.61154500  0.64765000  0.26470300  1
  H  H61  1  0.61283000  0.26449600  0.35394700  1
  H  H62  1  0.61151400  0.23827600  0.85148600  1
  H  H63  1  0.61303600  0.14714200  0.23825800  1
  H  H64  1  0.72945200  0.91500000  0.41543200  1
  H  H65  1  0.72809000  0.35508600  0.85177500  1
  H  H66  1  0.72924200  0.41566100  0.08472300  1
  H  H67  1  0.72942400  0.14679700  0.35378000  1
  H  H68  1  0.72657100  0.85373100  0.64657100  1
  H  H69  1  0.73030800  0.58409700  0.91484500  1
  H  H70  1  0.72737000  0.64540400  0.14750300  1
  H  H71  1  0.72991200  0.08445500  0.58489500  1
  H  H72  1  0.76886300  0.91212400  0.14189300  1
  H  H73  1  0.76901000  0.85809700  0.91149200  1
  H  H74  1  0.76951100  0.64238400  0.41182300  1
  H  H75  1  0.76878500  0.58844000  0.64181400  1
  H  H76  1  0.76825600  0.41281000  0.35787900  1
  H  H77  1  0.76853300  0.35888100  0.58741300  1
  H  H78  1  0.76982200  0.14194800  0.08883400  1
  H  H79  1  0.76924500  0.08900000  0.85750100  1
  H  H80  1  0.88458900  0.91514100  0.25941000  1
  H  H81  1  0.88523300  0.73972700  0.91469500  1
  H  H82  1  0.88586100  0.75938500  0.41474800  1
  H  H83  1  0.88576300  0.58394600  0.75926400  1
  H  H84  1  0.88532700  0.41653800  0.24144300  1
  H  H85  1  0.88528200  0.24092000  0.58375100  1
  H  H86  1  0.88545500  0.25937600  0.08465500  1
  H  H87  1  0.88596400  0.08459200  0.74051400  1
  H  H88  1  0.88477100  0.20440900  0.85255000  1
  H  H89  1  0.88489200  0.85272800  0.79581200  1
  H  H90  1  0.88497800  0.70373700  0.64698200  1
  H  H91  1  0.88633300  0.64654500  0.29592100  1
  H  H92  1  0.88460100  0.35375600  0.70278100  1
  H  H93  1  0.88479600  0.29643600  0.35343300  1
  H  H94  1  0.88552900  0.14623100  0.20384700  1
  H  H95  1  0.88458300  0.79554500  0.14709100  1
  C  C0  1  0.17219900  0.70093900  0.64258600  1
  C  C1  1  0.17189000  0.20102900  0.85712200  1
  C  C2  1  0.17221500  0.64286700  0.29896900  1
  C  C3  1  0.17174100  0.35773400  0.70120600  1
  C  C4  1  0.17175500  0.29932500  0.35713200  1
  C  C5  1  0.17198800  0.14285200  0.20125400  1
  C  C6  1  0.17143900  0.85763300  0.79867700  1
  C  C7  1  0.17129700  0.79921900  0.14242900  1
  C  C8  1  0.33047700  0.35903700  0.85912800  1
  C  C9  1  0.33105500  0.14058000  0.35908800  1
  C  C10  1  0.32997100  0.85874700  0.64080000  1
  C  C11  1  0.33060000  0.64112900  0.14096200  1
  C  C12  1  0.33331000  0.70256000  0.79714600  1
  C  C13  1  0.33274700  0.79806600  0.29618000  1
  C  C14  1  0.33328900  0.20290900  0.70300000  1
  C  C15  1  0.33294400  0.29694500  0.20299700  1
  C  C16  1  0.66775300  0.79689300  0.70338300  1
  C  C17  1  0.66812100  0.70273800  0.20392500  1
  C  C18  1  0.66817100  0.29872700  0.79583600  1
  C  C19  1  0.66925000  0.20375800  0.29818100  1
  C  C20  1  0.66971400  0.85899200  0.35900700  1
  C  C21  1  0.67023500  0.35888400  0.14146900  1
  C  C22  1  0.66997900  0.64066900  0.85878800  1
  C  C23  1  0.67025700  0.14183200  0.64087400  1
  C  C24  1  0.82804200  0.85755600  0.20122300  1
  C  C25  1  0.82877100  0.64167600  0.70092000  1
  C  C26  1  0.82833600  0.29954400  0.64128200  1
  C  C27  1  0.82905900  0.20130000  0.14270500  1
  C  C28  1  0.82836500  0.79845600  0.85726700  1
  C  C29  1  0.82944700  0.70067200  0.35754000  1
  C  C30  1  0.82844700  0.35860700  0.29917300  1
  C  C31  1  0.82876500  0.14282600  0.79814700  1
  S  S0  1  0.00206400  0.00008100  0.50029300  1
  S  S1  1  0.00206200  0.49993800  0.00008200  1
  S  S2  1  0.55203600  0.00139900  0.01866900  1
  S  S3  1  0.52197600  0.49951400  0.51851500  1
  N  N0  1  0.25166500  0.78037800  0.71962600  1
  N  N1  1  0.25161400  0.72004800  0.21937300  1
  N  N2  1  0.25171700  0.28048300  0.78058900  1
  N  N3  1  0.25181100  0.21951200  0.28039700  1
  N  N4  1  0.74920900  0.78033200  0.28077400  1
  N  N5  1  0.74917200  0.71903300  0.78047700  1
  N  N6  1  0.74971700  0.28106900  0.22012000  1
  N  N7  1  0.74922900  0.22035200  0.71860900  1
  O  O0  1  0.08205800  0.92129300  0.42216600  1
  O  O1  1  0.08169500  0.57866500  0.92210200  1
  O  O2  1  0.08211800  0.42105800  0.07820200  1
  O  O3  1  0.08184500  0.07810600  0.57865600  1
  O  O4  1  0.43777100  0.58739800  0.45723200  1
  O  O5  1  0.49238500  0.49493700  0.65075000  1
  O  O6  1  0.50848700  0.37597400  0.46447700  1
  O  O7  1  0.50108400  0.87987300  0.98684500  1
  O  O8  1  0.52583700  0.02763300  0.14842900  1
  O  O9  1  0.49653800  0.09791200  0.94065700  1
  O  O10  1  0.68892200  0.00017300  0.00026000  1
  O  O11  1  0.65230300  0.53950500  0.50402200  1
  O  O12  1  0.92261000  0.92165000  0.57843800  1
  O  O13  1  0.92227500  0.57841200  0.07839200  1
  O  O14  1  0.92323200  0.42151700  0.92173400  1
  O  O15  1  0.92298200  0.07939700  0.42227700  1
loop_
_geom_bond_atom_site_label_1
_geom_bond_atom_site_label_2
_geom_bond_distance
_geom_bond_site_symmetry_2
C0 H2 1.097198 1_555
C0 H20 1.097795 1_555
C0 H9 1.098804 1_555
C0 N0 1.503034 1_555
C1 H18 1.096996 1_555
C1 H7 1.097724 1_555
C1 H10 1.098633 1_555
C1 N2 1.500135 1_555
C2 H3 1.097505 1_555
C2 H21 1.097658 1_555
C2 H11 1.098555 1_555
C2 N1 1.502461 1_555
C3 H22 1.096828 1_555
C3 H4 1.097848 1_555
C3 H12 1.098232 1_555
C3 N2 1.500621 1_555
C4 H5 1.097272 1_555
C4 H23 1.097307 1_555
C4 H13 1.098733 1_555
C4 N3 1.500642 1_555
C5 H19 1.096614 1_555
C5 H6 1.097618 1_555
C5 H15 1.098847 1_555
C5 N3 1.501071 1_555
C6 H16 1.097274 1_555
C6 H1 1.097579 1_555
C6 H8 1.098526 1_555
C6 N0 1.500272 1_555
C7 H17 1.096978 1_555
C7 H0 1.097200 1_555
C7 H14 1.098623 1_555
C7 N1 1.499261 1_555
C8 H25 1.097642 1_555
C8 H45 1.097931 1_555
C8 H42 1.098817 1_555
C8 N2 1.502443 1_555
C9 H27 1.097373 1_555
C9 H46 1.098227 1_555
C9 H47 1.098693 1_555
C9 N3 1.502119 1_555
C10 H40 1.097261 1_555
C10 H28 1.097691 1_555
C10 H41 1.098005 1_555
C10 N0 1.498143 1_555
C11 H44 1.097153 1_555
C11 H30 1.098106 1_555
C11 H43 1.098342 1_555
C11 N1 1.498865 1_555
C12 H29 1.097895 1_555
C12 H32 1.100031 1_555
C12 H34 1.100132 1_555
C12 N0 1.502829 1_555
C13 H24 1.097559 1_555
C13 H35 1.098706 1_555
C13 H33 1.099133 1_555
C13 N1 1.503102 1_555
C14 H31 1.098113 1_555
C14 H38 1.098763 1_555
C14 H37 1.098778 1_555
C14 N2 1.501459 1_555
C15 H26 1.097847 1_555
C15 H39 1.098436 1_555
C15 H36 1.098559 1_555
C15 N3 1.501039 1_555
C16 H57 1.097050 1_555
C16 H68 1.097064 1_555
C16 H56 1.097666 1_555
C16 N5 1.498945 1_555
C17 H70 1.097210 1_555
C17 H60 1.098137 1_555
C17 H59 1.098498 1_555
C17 N4 1.500385 1_555
C18 H65 1.097181 1_555
C18 H58 1.099720 1_555
C18 H62 1.099775 1_555
C18 N7 1.500915 1_555
C19 H67 1.095509 1_555
C19 H61 1.097671 1_555
C19 H63 1.101236 1_555
C19 N6 1.500186 1_555
C20 H64 1.096863 1_555
C20 H48 1.097335 1_555
C20 H51 1.100229 1_555
C20 N4 1.499250 1_555
C21 H52 1.096963 1_555
C21 H55 1.097294 1_555
C21 H66 1.097471 1_555
C21 N6 1.496295 1_555
C22 H69 1.096948 1_555
C22 H49 1.098811 1_555
C22 H50 1.099601 1_555
C22 N5 1.500366 1_555
C23 H54 1.097282 1_555
C23 H71 1.097292 1_555
C23 H53 1.098731 1_555
C23 N7 1.498403 1_555
C24 H95 1.096978 1_555
C24 H80 1.097964 1_555
C24 H72 1.098417 1_555
C24 N4 1.498876 1_555
C25 H90 1.097512 1_555
C25 H83 1.097773 1_555
C25 H75 1.098945 1_555
C25 N5 1.500252 1_555
C26 H92 1.097418 1_555
C26 H77 1.097725 1_555
C26 H85 1.098145 1_555
C26 N7 1.498879 1_555
C27 H94 1.096766 1_555
C27 H86 1.097745 1_555
C27 H78 1.099339 1_555
C27 N6 1.500173 1_555
C28 H81 1.097484 1_555
C28 H89 1.097491 1_555
C28 H73 1.099167 1_555
C28 N5 1.499627 1_555
C29 H91 1.097065 1_555
C29 H74 1.097889 1_555
C29 H82 1.098127 1_555
C29 N4 1.500770 1_555
C30 H93 1.097442 1_555
C30 H84 1.097722 1_555
C30 H76 1.098719 1_555
C30 N6 1.499105 1_555
C31 H88 1.097321 1_555
C31 H87 1.097841 1_555
C31 H79 1.099513 1_555
C31 N7 1.500575 1_555
O0 S0 1.502516 1_565
O1 S1 1.503352 1_556
O2 S1 1.503221 1_555
O3 S0 1.504378 1_555
O4 S3 1.494493 1_555
O5 S3 1.501343 1_555
O6 S3 1.497166 1_555
O7 S2 1.496507 1_566
O8 S2 1.494395 1_555
O9 S2 1.496213 1_556
O10 S2 1.506024 1_555
O11 S3 1.498514 1_555
O12 S0 1.501380 1_665
O13 S1 1.500395 1_655
O14 S1 1.500802 1_656
O15 S0 1.499226 1_655
