# generated using pymatgen
data_Ca(HoSe2)2
_symmetry_space_group_name_H-M   'P 1'
_cell_length_a   4.10741854
_cell_length_b   7.00266354
_cell_length_c   7.18137083
_cell_angle_alpha   72.04267435
_cell_angle_beta   90.00000000
_cell_angle_gamma   90.00000000
_symmetry_Int_Tables_number   1
_chemical_formula_structural   Ca(HoSe2)2
_chemical_formula_sum   'Ca1 Ho2 Se4'
_cell_volume   196.49471110
_cell_formula_units_Z   1
loop_
 _symmetry_equiv_pos_site_id
 _symmetry_equiv_pos_as_xyz
  1  'x, y, z'
loop_
 _atom_site_type_symbol
 _atom_site_label
 _atom_site_symmetry_multiplicity
 _atom_site_fract_x
 _atom_site_fract_y
 _atom_site_fract_z
 _atom_site_occupancy
  Ca  Ca0  1  0.50000000  -0.00000000  0.50000000  1
  Ho  Ho0  1  -0.00000000  -0.00000000  -0.00000000  1
  Ho  Ho1  1  0.50000000  0.50000000  -0.00000000  1
  Se  Se0  1  0.50000000  0.24021367  0.77002919  1
  Se  Se1  1  -0.00000000  0.25878273  0.24033948  1
  Se  Se2  1  0.00000000  0.74121727  0.75966052  1
  Se  Se3  1  0.50000000  0.75978633  0.22997081  1
loop_
_geom_bond_atom_site_label_1
_geom_bond_atom_site_label_2
_geom_bond_distance
_geom_bond_site_symmetry_2
Ca0 Se3 2.932811 1_545
Ca0 Se0 2.932811 1_555
Ca0 Se2 2.982480 1_545
Ca0 Se1 2.982480 1_555
Ca0 Se2 2.982480 1_645
Ca0 Se1 2.982480 1_655
Ho0 Se0 2.839327 1_554
Ho0 Se3 2.839327 1_445
Ho0 Se0 2.839327 1_454
Ho0 Se3 2.839327 1_545
Ho0 Se2 2.862086 1_544
Ho0 Se1 2.862086 1_555
Ho1 Se0 2.808829 1_554
Ho1 Se3 2.808829 1_555
Ho1 Se1 2.872672 1_555
Ho1 Se1 2.872672 1_655
Ho1 Se2 2.872672 1_654
Ho1 Se2 2.872672 1_554
