# generated using pymatgen
data_RbAg4I5
_symmetry_space_group_name_H-M   'P 1'
_cell_length_a   11.75913000
_cell_length_b   11.80274306
_cell_length_c   11.81203689
_cell_angle_alpha   88.11854712
_cell_angle_beta   89.20830405
_cell_angle_gamma   89.22415328
_symmetry_Int_Tables_number   1
_chemical_formula_structural   RbAg4I5
_chemical_formula_sum   'Rb4 Ag16 I20'
_cell_volume   1638.21177855
_cell_formula_units_Z   4
loop_
 _symmetry_equiv_pos_site_id
 _symmetry_equiv_pos_as_xyz
  1  'x, y, z'
loop_
 _atom_site_type_symbol
 _atom_site_label
 _atom_site_symmetry_multiplicity
 _atom_site_fract_x
 _atom_site_fract_y
 _atom_site_fract_z
 _atom_site_occupancy
  Rb  Rb0  1  0.86762100  0.81017000  0.37588300  1
  Rb  Rb1  1  0.40436800  0.61911800  0.67725500  1
  Rb  Rb2  1  0.13419200  0.40514400  0.11789300  1
  Rb  Rb3  1  0.63540100  0.11054500  0.88373500  1
  Ag  Ag0  1  0.61281300  0.72760400  0.97071700  1
  Ag  Ag1  1  0.52932000  0.69279100  0.20446300  1
  Ag  Ag2  1  0.94666100  0.63455500  0.93014200  1
  Ag  Ag3  1  0.55682000  0.42187800  0.44737200  1
  Ag  Ag4  1  0.94996000  0.44049300  0.75709900  1
  Ag  Ag5  1  0.46267500  0.32557700  0.23848000  1
  Ag  Ag6  1  0.99904700  0.21574500  0.53231300  1
  Ag  Ag7  1  0.74386300  0.27737000  0.53339000  1
  Ag  Ag8  1  0.26187800  0.20947700  0.44561100  1
  Ag  Ag9  1  0.98002200  0.16727500  0.79182600  1
  Ag  Ag10  1  0.54826000  0.07605800  0.24672500  1
  Ag  Ag11  1  0.23872100  0.99474000  0.57805300  1
  Ag  Ag12  1  0.22662600  0.98137900  0.82782000  1
  Ag  Ag13  1  0.29658900  0.00010800  0.31597700  1
  Ag  Ag14  1  0.99917500  0.87424000  0.74286100  1
  Ag  Ag15  1  0.24632200  0.96318800  0.07349400  1
  I  I0  1  0.02907100  0.95868600  0.96315100  1
  I  I1  1  0.66955400  0.90315700  0.13705300  1
  I  I2  1  0.43828500  0.88045900  0.82908200  1
  I  I3  1  0.12839400  0.79357400  0.56390100  1
  I  I4  1  0.29235000  0.78475500  0.22498200  1
  I  I5  1  0.78072000  0.73528400  0.79161200  1
  I  I6  1  0.59960700  0.65757700  0.43033700  1
  I  I7  1  0.91763000  0.61062800  0.16214600  1
  I  I8  1  0.15035000  0.54270500  0.83959800  1
  I  I9  1  0.50010600  0.52373700  0.04351900  1
  I  I10  1  0.92583100  0.44403100  0.52399300  1
  I  I11  1  0.30746700  0.43400200  0.38557800  1
  I  I12  1  0.56733300  0.34733100  0.68274200  1
  I  I13  1  0.86759000  0.30774300  0.94175900  1
  I  I14  1  0.69280400  0.27075700  0.29080200  1
  I  I15  1  0.20698800  0.20155600  0.70107900  1
  I  I16  1  0.37276600  0.17001100  0.07678700  1
  I  I17  1  0.07496400  0.11811600  0.32201100  1
  I  I18  1  0.83522900  0.05482600  0.62895600  1
  I  I19  1  0.46212800  0.04870700  0.47890200  1
loop_
_geom_bond_atom_site_label_1
_geom_bond_atom_site_label_2
_geom_bond_distance
_geom_bond_site_symmetry_2
Ag0 I9 2.864395 1_556
Ag0 I5 2.873881 1_555
Ag0 I1 2.989932 1_556
Ag0 I2 3.172078 1_555
Ag1 I6 2.820121 1_555
Ag1 I9 2.828253 1_555
Ag1 I4 2.986389 1_555
Ag1 I1 3.076177 1_555
Ag2 I7 2.762651 1_556
Ag2 I5 2.792187 1_555
Ag2 I8 2.826856 1_655
Ag3 I6 2.833889 1_555
Ag3 I12 2.892208 1_555
Ag3 I11 3.031801 1_555
Ag3 I14 3.035838 1_555
Ag4 I10 2.770829 1_555
Ag4 I13 2.812309 1_555
Ag4 I8 2.859245 1_655
Ag5 I11 2.825387 1_555
Ag5 I14 2.845385 1_555
Ag5 I16 2.911274 1_555
Ag5 I9 3.257815 1_555
Ag6 I10 2.816528 1_555
Ag6 I17 2.897285 1_655
Ag6 I18 2.918428 1_555
Ag6 I15 3.175325 1_655
Ag7 I12 2.837464 1_555
Ag7 I10 2.924620 1_555
Ag7 I14 2.939547 1_555
Ag7 I18 3.014986 1_555
Ag8 I11 2.778014 1_555
Ag8 I17 2.895075 1_555
Ag8 I19 3.025847 1_555
Ag8 I15 3.075799 1_555
Ag9 I13 2.775219 1_555
Ag9 I15 2.890943 1_655
Ag9 I18 2.946344 1_555
Ag9 I0 3.186806 1_645
Ag10 I1 2.814381 1_545
Ag10 I19 2.919799 1_555
Ag10 I14 2.941020 1_555
Ag10 I16 3.069852 1_555
Ag11 I3 2.732011 1_555
Ag11 I15 2.898746 1_565
Ag11 I19 2.930901 1_565
Ag12 I2 2.744694 1_555
Ag12 I0 2.812444 1_555
Ag12 I15 2.964050 1_565
Ag13 I4 2.793311 1_545
Ag13 I19 2.833391 1_555
Ag13 I17 2.939380 1_555
Ag14 I3 2.772734 1_655
Ag14 I0 2.844792 1_655
Ag14 I5 3.103474 1_555
Ag14 I18 3.137180 1_565
Ag15 I4 2.771014 1_555
Ag15 I16 2.877028 1_565
Ag15 I0 2.885871 1_554
I1 Rb0 3.807450 1_555
I1 Rb3 3.825139 1_564
I2 Rb1 3.647740 1_555
I2 Rb3 3.673028 1_565
I3 Rb0 3.810147 1_455
I3 Rb1 4.040048 1_555
I6 Rb0 3.689399 1_555
I6 Rb1 3.706718 1_555
I7 Rb2 3.538286 1_655
I7 Rb0 3.546599 1_555
I8 Rb2 3.621974 1_556
I8 Rb1 3.635113 1_555
I11 Rb2 3.812200 1_555
I12 Rb3 3.693770 1_555
I12 Rb1 3.713489 1_555
I13 Rb3 3.697325 1_555
I13 Rb2 3.989139 1_656
I16 Rb3 3.883592 1_554
I16 Rb2 3.955750 1_555
I17 Rb2 4.154036 1_555
I18 Rb3 3.860517 1_555
I18 Rb0 4.233781 1_545
