# generated using pymatgen
data_Sr3InRhO6
_symmetry_space_group_name_H-M   'P 1'
_cell_length_a   6.82147555
_cell_length_b   6.82147555
_cell_length_c   6.82147529
_cell_angle_alpha   91.09970372
_cell_angle_beta   91.09970372
_cell_angle_gamma   91.09971071
_symmetry_Int_Tables_number   1
_chemical_formula_structural   Sr3InRhO6
_chemical_formula_sum   'Sr6 In2 Rh2 O12'
_cell_volume   317.24282042
_cell_formula_units_Z   2
loop_
 _symmetry_equiv_pos_site_id
 _symmetry_equiv_pos_as_xyz
  1  'x, y, z'
loop_
 _atom_site_type_symbol
 _atom_site_label
 _atom_site_symmetry_multiplicity
 _atom_site_fract_x
 _atom_site_fract_y
 _atom_site_fract_z
 _atom_site_occupancy
  Sr  Sr0  1  0.88127000  0.25000000  0.61873000  1
  Sr  Sr1  1  0.25000000  0.61873000  0.88127000  1
  Sr  Sr2  1  0.38127000  0.11873000  0.75000000  1
  Sr  Sr3  1  0.75000000  0.38127000  0.11873000  1
  Sr  Sr4  1  0.11873000  0.75000000  0.38127000  1
  Sr  Sr5  1  0.61873000  0.88127000  0.25000000  1
  In  In0  1  0.25000000  0.25000000  0.25000000  1
  In  In1  1  0.75000000  0.75000000  0.75000000  1
  Rh  Rh0  1  0.50000000  0.50000000  0.50000000  1
  Rh  Rh1  1  0.00000000  0.00000000  0.00000000  1
  O  O0  1  0.71018100  0.04022500  0.90555600  1
  O  O1  1  0.95977500  0.09444400  0.28981900  1
  O  O2  1  0.78981900  0.59444400  0.45977500  1
  O  O3  1  0.59444400  0.45977500  0.78981900  1
  O  O4  1  0.45977500  0.78981900  0.59444400  1
  O  O5  1  0.04022500  0.90555600  0.71018100  1
  O  O6  1  0.40555600  0.54022500  0.21018100  1
  O  O7  1  0.28981900  0.95977500  0.09444400  1
  O  O8  1  0.21018100  0.40555600  0.54022500  1
  O  O9  1  0.54022500  0.21018100  0.40555600  1
  O  O10  1  0.90555600  0.71018100  0.04022500  1
  O  O11  1  0.09444400  0.28981900  0.95977500  1
loop_
_geom_bond_atom_site_label_1
_geom_bond_atom_site_label_2
_geom_bond_distance
_geom_bond_site_symmetry_2
In0 O6 2.251730 1_555
In0 O1 2.251730 1_455
In0 O8 2.251730 1_555
In0 O11 2.251730 1_554
In0 O9 2.251730 1_555
In0 O7 2.251730 1_545
In1 O5 2.251730 1_655
In1 O3 2.251730 1_555
In1 O10 2.251730 1_556
In1 O2 2.251730 1_555
In1 O0 2.251730 1_565
In1 O4 2.251730 1_555
O0 Rh1 2.092264 1_656
O0 Sr2 2.534425 1_555
O0 Sr5 2.685829 1_546
O0 Sr0 2.714585 1_555
O0 Sr3 2.726054 1_556
O1 Rh1 2.092264 1_655
O1 Sr0 2.534425 1_555
O1 Sr4 2.685829 1_645
O1 Sr3 2.714585 1_555
O1 Sr5 2.726054 1_545
O2 Rh0 2.092264 1_555
O2 Sr4 2.534425 1_655
O2 Sr0 2.685829 1_555
O2 Sr5 2.714585 1_555
O2 Sr3 2.726054 1_555
O3 Rh0 2.092264 1_555
O3 Sr3 2.534425 1_556
O3 Sr1 2.685829 1_555
O3 Sr0 2.714585 1_555
O3 Sr2 2.726054 1_555
O4 Rh0 2.092264 1_555
O4 Sr2 2.534425 1_565
O4 Sr5 2.685829 1_555
O4 Sr1 2.714585 1_555
O4 Sr4 2.726054 1_555
O5 Rh1 2.092264 1_566
O5 Sr4 2.534425 1_555
O5 Sr0 2.685829 1_465
O5 Sr1 2.714585 1_555
O5 Sr2 2.726054 1_565
O6 Rh0 2.092264 1_555
O6 Sr1 2.534425 1_554
O6 Sr3 2.685829 1_555
O6 Sr4 2.714585 1_555
O6 Sr5 2.726054 1_555
O7 Rh1 2.092264 1_565
O7 Sr5 2.534425 1_555
O7 Sr2 2.685829 1_564
O7 Sr4 2.714585 1_555
O7 Sr1 2.726054 1_554
O8 Rh0 2.092264 1_555
O8 Sr0 2.534425 1_455
O8 Sr4 2.685829 1_555
O8 Sr2 2.714585 1_555
O8 Sr1 2.726054 1_555
O9 Rh0 2.092264 1_555
O9 Sr5 2.534425 1_545
O9 Sr2 2.685829 1_555
O9 Sr3 2.714585 1_555
O9 Sr0 2.726054 1_555
O10 Rh1 2.092264 1_665
O10 Sr3 2.534425 1_555
O10 Sr1 2.685829 1_654
O10 Sr5 2.714585 1_555
O10 Sr4 2.726054 1_655
O11 Rh1 2.092264 1_556
O11 Sr1 2.534425 1_555
O11 Sr3 2.685829 1_456
O11 Sr2 2.714585 1_555
O11 Sr0 2.726054 1_455
