# generated using pymatgen
data_Na4PtO4
_symmetry_space_group_name_H-M   'P 1'
_cell_length_a   5.83098168
_cell_length_b   5.83098168
_cell_length_c   9.97041143
_cell_angle_alpha   88.30496193
_cell_angle_beta   88.30496193
_cell_angle_gamma   45.82505478
_symmetry_Int_Tables_number   1
_chemical_formula_structural   Na4PtO4
_chemical_formula_sum   'Na8 Pt2 O8'
_cell_volume   243.00879261
_cell_formula_units_Z   2
loop_
 _symmetry_equiv_pos_site_id
 _symmetry_equiv_pos_as_xyz
  1  'x, y, z'
loop_
 _atom_site_type_symbol
 _atom_site_label
 _atom_site_symmetry_multiplicity
 _atom_site_fract_x
 _atom_site_fract_y
 _atom_site_fract_z
 _atom_site_occupancy
  Na  Na0  1  0.37232700  0.37232700  0.95588100  1
  Na  Na1  1  0.62767300  0.62767300  0.04411900  1
  Na  Na2  1  0.25783600  0.25783600  0.27331800  1
  Na  Na3  1  0.92748900  0.92748900  0.17729600  1
  Na  Na4  1  0.85343300  0.85343300  0.45263400  1
  Na  Na5  1  0.14656700  0.14656700  0.54736600  1
  Na  Na6  1  0.07251100  0.07251100  0.82270400  1
  Na  Na7  1  0.74216400  0.74216400  0.72668200  1
  Pt  Pt0  1  0.54810300  0.54810300  0.34506900  1
  Pt  Pt1  1  0.45189700  0.45189700  0.65493100  1
  O  O0  1  0.45648100  0.45648100  0.16373700  1
  O  O1  1  0.05579500  0.05579500  0.34186200  1
  O  O2  1  0.71830900  0.71830900  0.24472300  1
  O  O3  1  0.61822400  0.61822400  0.53563900  1
  O  O4  1  0.38177600  0.38177600  0.46436100  1
  O  O5  1  0.28169100  0.28169100  0.75527700  1
  O  O6  1  0.94420500  0.94420500  0.65813800  1
  O  O7  1  0.54351900  0.54351900  0.83626300  1
loop_
_geom_bond_atom_site_label_1
_geom_bond_atom_site_label_2
_geom_bond_distance
_geom_bond_site_symmetry_2
Na0 O7 2.159432 1_555
Na0 O5 2.252416 1_555
Na0 O0 2.287436 1_556
Na1 O0 2.159432 1_555
Na1 O2 2.252416 1_555
Na1 O7 2.287436 1_554
Na2 O1 2.254319 1_555
Na2 O2 2.328715 1_545
Na2 O2 2.328715 1_455
Na2 O4 2.358713 1_555
Na2 O0 2.365824 1_555
Na3 O1 2.176462 1_665
Na3 O0 2.294806 1_655
Na3 O0 2.294806 1_565
Na3 O2 2.324617 1_555
Na4 O4 2.293954 1_655
Na4 O4 2.293954 1_565
Na4 O6 2.297235 1_555
Na4 O1 2.406396 1_665
Na4 O2 2.568501 1_555
Na4 O3 2.633288 1_555
Na5 O3 2.293954 1_545
Na5 O3 2.293954 1_455
Na5 O1 2.297235 1_555
Na5 O6 2.406396 1_445
Na5 O5 2.568501 1_555
Na5 O4 2.633288 1_555
Na6 O6 2.176462 1_445
Na6 O7 2.294806 1_545
Na6 O7 2.294806 1_455
Na6 O5 2.324617 1_555
Na7 O6 2.254319 1_555
Na7 O5 2.328715 1_655
Na7 O5 2.328715 1_565
Na7 O3 2.358713 1_555
Na7 O7 2.365824 1_555
O0 Pt0 2.086051 1_555
O1 Pt0 2.271840 1_545
O1 Pt0 2.271840 1_455
O2 Pt0 2.055789 1_555
O3 Pt0 2.066278 1_555
O3 Pt1 2.114311 1_555
O4 Pt1 2.066278 1_555
O4 Pt0 2.114311 1_555
O5 Pt1 2.055789 1_555
O6 Pt1 2.271840 1_565
O6 Pt1 2.271840 1_655
O7 Pt1 2.086051 1_555
