# generated using pymatgen
data_La3Fe2S7
_symmetry_space_group_name_H-M   'P 1'
_cell_length_a   10.16383448
_cell_length_b   10.16383448
_cell_length_c   5.93751900
_cell_angle_alpha   90.00000000
_cell_angle_beta   90.00000000
_cell_angle_gamma   120.00000314
_symmetry_Int_Tables_number   1
_chemical_formula_structural   La3Fe2S7
_chemical_formula_sum   'La6 Fe4 S14'
_cell_volume   531.19111017
_cell_formula_units_Z   2
loop_
 _symmetry_equiv_pos_site_id
 _symmetry_equiv_pos_as_xyz
  1  'x, y, z'
loop_
 _atom_site_type_symbol
 _atom_site_label
 _atom_site_symmetry_multiplicity
 _atom_site_fract_x
 _atom_site_fract_y
 _atom_site_fract_z
 _atom_site_occupancy
  La  La0  1  0.62569000  0.85813600  0.72475200  1
  La  La1  1  0.85813600  0.23244600  0.22475200  1
  La  La2  1  0.76755400  0.62569000  0.22475200  1
  La  La3  1  0.23244600  0.37431000  0.72475200  1
  La  La4  1  0.14186400  0.76755400  0.72475200  1
  La  La5  1  0.37431000  0.14186400  0.22475200  1
  Fe  Fe0  1  0.66666700  0.33333300  0.63869900  1
  Fe  Fe1  1  0.33333300  0.66666700  0.13869900  1
  Fe  Fe2  1  0.00000000  0.00000000  0.00619200  1
  Fe  Fe3  1  0.00000000  0.00000000  0.50619200  1
  S  S0  1  0.41934600  0.90356800  0.00462000  1
  S  S1  1  0.66666700  0.33333300  0.01404200  1
  S  S2  1  0.90356800  0.48422200  0.50462100  1
  S  S3  1  0.51577800  0.41934600  0.50462100  1
  S  S4  1  0.78718900  0.91946800  0.25965300  1
  S  S5  1  0.91946800  0.13228000  0.75965300  1
  S  S6  1  0.86772000  0.78718900  0.75965300  1
  S  S7  1  0.33333300  0.66666700  0.51404200  1
  S  S8  1  0.13228000  0.21281100  0.25965300  1
  S  S9  1  0.08053200  0.86772000  0.25965300  1
  S  S10  1  0.21281100  0.08053200  0.75965300  1
  S  S11  1  0.48422200  0.58065400  0.00462000  1
  S  S12  1  0.09643200  0.51577800  0.00462000  1
  S  S13  1  0.58065400  0.09643200  0.50462100  1
loop_
_geom_bond_atom_site_label_1
_geom_bond_atom_site_label_2
_geom_bond_distance
_geom_bond_site_symmetry_2
La0 S0 2.888151 1_556
La0 S6 2.896229 1_555
La0 S7 2.898164 1_555
La0 S5 2.898719 1_565
La0 S11 2.954247 1_556
La0 S13 2.982045 1_565
La0 S4 3.112200 1_555
La0 S4 3.485197 1_556
La1 S2 2.888155 1_555
La1 S4 2.896239 1_545
La1 S1 2.898157 1_555
La1 S8 2.898724 1_655
La1 S13 2.954250 1_555
La1 S12 2.982047 1_655
La1 S5 3.112195 1_554
La1 S5 3.485193 1_555
La2 S3 2.888155 1_555
La2 S9 2.896236 1_655
La2 S1 2.898166 1_555
La2 S4 2.898714 1_555
La2 S2 2.954250 1_555
La2 S11 2.982047 1_555
La2 S6 3.112199 1_554
La2 S6 3.485196 1_555
La3 S11 2.888151 1_556
La3 S5 2.896236 1_455
La3 S7 2.898166 1_555
La3 S10 2.898714 1_555
La3 S12 2.954247 1_556
La3 S3 2.982044 1_555
La3 S8 3.112199 1_555
La3 S8 3.485196 1_556
La4 S12 2.888151 1_556
La4 S10 2.896239 1_565
La4 S7 2.898157 1_555
La4 S6 2.898724 1_455
La4 S0 2.954247 1_556
La4 S2 2.982044 1_455
La4 S9 3.112195 1_555
La4 S9 3.485193 1_556
La5 S13 2.888155 1_555
La5 S8 2.896229 1_555
La5 S1 2.898164 1_555
La5 S9 2.898719 1_545
La5 S3 2.954250 1_555
La5 S0 2.982047 1_545
La5 S10 3.112200 1_554
La5 S10 3.485197 1_555
Fe0 S1 2.228606 1_556
Fe0 S13 2.256250 1_555
Fe0 S2 2.256251 1_555
Fe0 S3 2.256259 1_555
Fe1 S7 2.228606 1_555
Fe1 S0 2.256252 1_555
Fe1 S12 2.256253 1_555
Fe1 S11 2.256261 1_555
Fe2 S10 2.391820 1_554
Fe2 S6 2.391821 1_444
Fe2 S5 2.391827 1_454
Fe2 S4 2.417192 1_445
Fe2 S8 2.417193 1_555
Fe2 S9 2.417199 1_545
Fe3 S4 2.391820 1_445
Fe3 S8 2.391821 1_555
Fe3 S9 2.391827 1_545
Fe3 S10 2.417192 1_555
Fe3 S6 2.417193 1_445
Fe3 S5 2.417199 1_455
