# generated using pymatgen
data_Fe3C10SO10
_symmetry_space_group_name_H-M   'P 1'
_cell_length_a   10.40556000
_cell_length_b   8.92555700
_cell_length_c   17.88694016
_cell_angle_alpha   67.33795014
_cell_angle_beta   90.00000000
_cell_angle_gamma   90.00000000
_symmetry_Int_Tables_number   1
_chemical_formula_structural   Fe3C10SO10
_chemical_formula_sum   'Fe12 C40 S4 O40'
_cell_volume   1532.99720629
_cell_formula_units_Z   4
loop_
 _symmetry_equiv_pos_site_id
 _symmetry_equiv_pos_as_xyz
  1  'x, y, z'
loop_
 _atom_site_type_symbol
 _atom_site_label
 _atom_site_symmetry_multiplicity
 _atom_site_fract_x
 _atom_site_fract_y
 _atom_site_fract_z
 _atom_site_occupancy
  Fe  Fe0  1  0.82712600  0.90047100  0.83569900  1
  Fe  Fe1  1  0.23694000  0.39859600  0.59678700  1
  Fe  Fe2  1  0.17287400  0.09952900  0.16430100  1
  Fe  Fe3  1  0.67287400  0.90047100  0.33569900  1
  Fe  Fe4  1  0.26306000  0.39859600  0.09678700  1
  Fe  Fe5  1  0.32712600  0.09952900  0.66430100  1
  Fe  Fe6  1  0.24842100  0.21439100  0.51298700  1
  Fe  Fe7  1  0.75157900  0.78560900  0.48701300  1
  Fe  Fe8  1  0.74842100  0.78560900  0.98701300  1
  Fe  Fe9  1  0.73694000  0.60140400  0.90321300  1
  Fe  Fe10  1  0.25157900  0.21439100  0.01298700  1
  Fe  Fe11  1  0.76306000  0.60140400  0.40321300  1
  C  C0  1  0.69145700  0.97310200  0.48630600  1
  C  C1  1  0.32511300  0.51077300  0.64462000  1
  C  C2  1  0.08957000  0.19212600  0.47946000  1
  C  C3  1  0.30854300  0.02689800  0.51369400  1
  C  C4  1  0.23943700  0.91991200  0.72432100  1
  C  C5  1  0.86031500  0.84377900  0.75211100  1
  C  C6  1  0.63968500  0.84377900  0.25211100  1
  C  C7  1  0.46783600  0.98014900  0.66693500  1
  C  C8  1  0.21289800  0.56091300  0.50072000  1
  C  C9  1  0.82511300  0.48922700  0.85538000  1
  C  C10  1  0.79510000  0.65270300  0.08803500  1
  C  C11  1  0.91043000  0.80787400  0.52054000  1
  C  C12  1  0.29510000  0.34729700  0.41196500  1
  C  C13  1  0.73943700  0.08008800  0.77567900  1
  C  C14  1  0.96783600  0.01985100  0.83306500  1
  C  C15  1  0.13968500  0.15622100  0.24788900  1
  C  C16  1  0.41158700  0.43196400  0.13921100  1
  C  C17  1  0.28710200  0.56091300  0.00072000  1
  C  C18  1  0.53216400  0.01985100  0.33306500  1
  C  C19  1  0.36031500  0.15622100  0.74788900  1
  C  C20  1  0.14858700  0.17670400  0.61885600  1
  C  C21  1  0.78710200  0.43908700  0.49928000  1
  C  C22  1  0.76056300  0.08008800  0.27567900  1
  C  C23  1  0.17488700  0.51077300  0.14462000  1
  C  C24  1  0.20490000  0.34729700  0.91196500  1
  C  C25  1  0.08841300  0.43196400  0.63921100  1
  C  C26  1  0.71289800  0.43908700  0.99928000  1
  C  C27  1  0.35141300  0.17670400  0.11885600  1
  C  C28  1  0.58957000  0.80787400  0.02054000  1
  C  C29  1  0.80854300  0.97310200  0.98630600  1
  C  C30  1  0.67488700  0.48922700  0.35538000  1
  C  C31  1  0.58841300  0.56803600  0.86078900  1
  C  C32  1  0.41043000  0.19212600  0.97946000  1
  C  C33  1  0.03216400  0.98014900  0.16693500  1
  C  C34  1  0.19145700  0.02689800  0.01369400  1
  C  C35  1  0.70490000  0.65270300  0.58803500  1
  C  C36  1  0.64858700  0.82329600  0.88114400  1
  C  C37  1  0.85141300  0.82329600  0.38114400  1
  C  C38  1  0.91158700  0.56803600  0.36078900  1
  C  C39  1  0.26056300  0.91991200  0.22432100  1
  S  S0  1  0.91772700  0.69482800  0.93798300  1
  S  S1  1  0.58227300  0.69482800  0.43798300  1
  S  S2  1  0.08227300  0.30517200  0.06201700  1
  S  S3  1  0.41772700  0.30517200  0.56201700  1
  O  O0  1  0.12047900  0.18736100  0.30409700  1
  O  O1  1  0.84522100  0.09404800  0.98875800  1
  O  O2  1  0.00677100  0.54619700  0.33329000  1
  O  O3  1  0.99322900  0.45380300  0.66671000  1
  O  O4  1  0.82374200  0.57057600  0.15357300  1
  O  O5  1  0.12206800  0.58998100  0.17304900  1
  O  O6  1  0.31673800  0.80322100  0.26134800  1
  O  O7  1  0.01351800  0.81700100  0.54261700  1
  O  O8  1  0.18326200  0.80322100  0.76134800  1
  O  O9  1  0.70008000  0.32951500  0.06033700  1
  O  O10  1  0.17625800  0.42942400  0.84642700  1
  O  O11  1  0.32374200  0.42942400  0.34642700  1
  O  O12  1  0.54210100  0.87323700  0.85846300  1
  O  O13  1  0.68326200  0.19677900  0.73865200  1
  O  O14  1  0.67625800  0.57057600  0.65357300  1
  O  O15  1  0.15477900  0.90595200  0.01124200  1
  O  O16  1  0.37952100  0.18736100  0.80409700  1
  O  O17  1  0.48648200  0.81700100  0.04261700  1
  O  O18  1  0.62206800  0.41001900  0.32695100  1
  O  O19  1  0.62047900  0.81263900  0.19590300  1
  O  O20  1  0.79992000  0.32951500  0.56033700  1
  O  O21  1  0.05898000  0.09695900  0.82911000  1
  O  O22  1  0.04210100  0.12676300  0.64153700  1
  O  O23  1  0.29992000  0.67048500  0.93966300  1
  O  O24  1  0.44102000  0.09695900  0.32911000  1
  O  O25  1  0.95789900  0.87323700  0.35846300  1
  O  O26  1  0.55898000  0.90304100  0.67089000  1
  O  O27  1  0.51351800  0.18299900  0.95738300  1
  O  O28  1  0.94102000  0.90304100  0.17089000  1
  O  O29  1  0.65477900  0.09404800  0.48875800  1
  O  O30  1  0.81673800  0.19677900  0.23865200  1
  O  O31  1  0.37793200  0.58998100  0.67304900  1
  O  O32  1  0.45789900  0.12676300  0.14153700  1
  O  O33  1  0.50677100  0.45380300  0.16671000  1
  O  O34  1  0.98648200  0.18299900  0.45738300  1
  O  O35  1  0.20008000  0.67048500  0.43966300  1
  O  O36  1  0.49322900  0.54619700  0.83329000  1
  O  O37  1  0.87793200  0.41001900  0.82695100  1
  O  O38  1  0.87952100  0.81263900  0.69590300  1
  O  O39  1  0.34522100  0.90595200  0.51124200  1
loop_
_geom_bond_atom_site_label_1
_geom_bond_atom_site_label_2
_geom_bond_distance
_geom_bond_site_symmetry_2
Fe0 S0 2.239932 1_555
Fe1 S3 2.240675 1_555
Fe2 S2 2.239932 1_555
Fe3 S1 2.239932 1_555
Fe4 S2 2.240675 1_555
Fe5 S3 2.239932 1_555
Fe6 S3 2.253202 1_555
Fe7 S1 2.253202 1_555
Fe8 S0 2.253202 1_555
Fe9 S0 2.240675 1_555
Fe10 S2 2.253202 1_555
Fe11 S1 2.240675 1_555
C0 O29 1.161642 1_565
C0 Fe7 1.782068 1_555
C1 O31 1.156502 1_555
C1 Fe1 1.799007 1_555
C2 O34 1.156730 1_455
C2 Fe6 1.795314 1_555
C3 O39 1.161642 1_545
C3 Fe6 1.782068 1_555
C4 O8 1.154795 1_555
C4 Fe5 1.796952 1_565
C5 O38 1.159022 1_555
C5 Fe0 1.787099 1_555
C6 O19 1.159022 1_555
C6 Fe3 1.787099 1_555
C7 O26 1.157852 1_555
C7 Fe5 1.800744 1_565
C8 O35 1.159281 1_555
C8 Fe1 1.787695 1_555
C9 O37 1.156502 1_555
C9 Fe9 1.799007 1_555
C10 O4 1.156809 1_555
C10 Fe8 1.804578 1_554
C11 O7 1.156730 1_655
C11 Fe7 1.795314 1_555
C12 O11 1.156809 1_555
C12 Fe6 1.804578 1_555
C13 O13 1.154795 1_555
C13 Fe0 1.796952 1_545
C14 O21 1.157852 1_655
C14 Fe0 1.800744 1_545
C15 O0 1.159022 1_555
C15 Fe2 1.787099 1_555
C16 O33 1.155333 1_555
C16 Fe4 1.796463 1_555
C17 O23 1.159281 1_554
C17 Fe4 1.787695 1_555
C18 O24 1.157852 1_555
C18 Fe3 1.800744 1_545
C19 O16 1.159022 1_555
C19 Fe5 1.787099 1_555
C20 O22 1.204864 1_555
C20 Fe5 2.038427 1_555
C20 Fe6 2.070617 1_555
C20 Fe1 2.078707 1_555
C21 O20 1.159281 1_555
C21 Fe11 1.787695 1_555
C22 O30 1.154795 1_555
C22 Fe3 1.796952 1_545
C23 O5 1.156502 1_555
C23 Fe4 1.799007 1_555
C24 O10 1.156809 1_555
C24 Fe10 1.804578 1_556
C25 O3 1.155333 1_455
C25 Fe1 1.796463 1_555
C26 O9 1.159281 1_556
C26 Fe9 1.787695 1_555
C27 O32 1.204864 1_555
C27 Fe2 2.038427 1_555
C27 Fe10 2.070617 1_555
C27 Fe4 2.078707 1_555
C28 O17 1.156730 1_555
C28 Fe8 1.795314 1_554
C29 O1 1.161642 1_565
C29 Fe8 1.782068 1_555
C30 O18 1.156502 1_555
C30 Fe11 1.799007 1_555
C31 O36 1.155333 1_555
C31 Fe9 1.796463 1_555
C32 O27 1.156730 1_555
C32 Fe10 1.795314 1_556
C33 O28 1.157852 1_455
C33 Fe2 1.800744 1_565
C34 O15 1.161642 1_545
C34 Fe10 1.782068 1_555
C35 O14 1.156809 1_555
C35 Fe7 1.804578 1_555
C36 O12 1.204864 1_555
C36 Fe0 2.038427 1_555
C36 Fe8 2.070617 1_555
C36 Fe9 2.078707 1_555
C37 O25 1.204864 1_555
C37 Fe3 2.038427 1_555
C37 Fe7 2.070617 1_555
C37 Fe11 2.078707 1_555
C38 O2 1.155333 1_655
C38 Fe11 1.796463 1_555
C39 O6 1.154795 1_555
C39 Fe2 1.796952 1_565
