# generated using pymatgen
data_CdH2SeO4
_symmetry_space_group_name_H-M   'P 1'
_cell_length_a   5.11912800
_cell_length_b   6.04475700
_cell_length_c   13.43150100
_cell_angle_alpha   90.00000000
_cell_angle_beta   90.00000000
_cell_angle_gamma   90.00000000
_symmetry_Int_Tables_number   1
_chemical_formula_structural   CdH2SeO4
_chemical_formula_sum   'Cd4 H8 Se4 O16'
_cell_volume   415.62281979
_cell_formula_units_Z   4
loop_
 _symmetry_equiv_pos_site_id
 _symmetry_equiv_pos_as_xyz
  1  'x, y, z'
loop_
 _atom_site_type_symbol
 _atom_site_label
 _atom_site_symmetry_multiplicity
 _atom_site_fract_x
 _atom_site_fract_y
 _atom_site_fract_z
 _atom_site_occupancy
  Cd  Cd0  1  0.09801000  0.25000000  0.77197100  1
  Cd  Cd1  1  0.40199000  0.25000000  0.27197100  1
  Cd  Cd2  1  0.90199000  0.75000000  0.22802900  1
  Cd  Cd3  1  0.59801000  0.75000000  0.72802900  1
  H  H0  1  0.53723300  0.12114200  0.88937300  1
  H  H1  1  0.96276700  0.37885800  0.38937300  1
  H  H2  1  0.46276700  0.62114200  0.11062700  1
  H  H3  1  0.03723300  0.87885800  0.61062700  1
  H  H4  1  0.46276700  0.87885800  0.11062700  1
  H  H5  1  0.03723300  0.62114200  0.61062700  1
  H  H6  1  0.53723300  0.37885800  0.88937300  1
  H  H7  1  0.96276700  0.12114200  0.38937300  1
  Se  Se0  1  0.01021400  0.75000000  0.90722300  1
  Se  Se1  1  0.48978600  0.75000000  0.40722300  1
  Se  Se2  1  0.98978600  0.25000000  0.09277700  1
  Se  Se3  1  0.51021400  0.25000000  0.59277700  1
  O  O0  1  0.82090600  0.25000000  0.63506800  1
  O  O1  1  0.67909400  0.25000000  0.13506800  1
  O  O2  1  0.17909400  0.75000000  0.36493200  1
  O  O3  1  0.32090600  0.75000000  0.86493200  1
  O  O4  1  0.85740400  0.53207600  0.84128300  1
  O  O5  1  0.64259600  0.96792400  0.34128300  1
  O  O6  1  0.14259600  0.03207600  0.15871700  1
  O  O7  1  0.35740400  0.46792400  0.65871700  1
  O  O8  1  0.14259600  0.46792400  0.15871700  1
  O  O9  1  0.35740400  0.03207600  0.65871700  1
  O  O10  1  0.85740400  0.96792400  0.84128300  1
  O  O11  1  0.64259600  0.53207600  0.34128300  1
  O  O12  1  0.42066200  0.25000000  0.89770100  1
  O  O13  1  0.07933800  0.25000000  0.39770100  1
  O  O14  1  0.57933800  0.75000000  0.10229900  1
  O  O15  1  0.92066200  0.75000000  0.60229900  1
loop_
_geom_bond_atom_site_label_1
_geom_bond_atom_site_label_2
_geom_bond_distance
_geom_bond_site_symmetry_2
Cd0 O4 2.300231 1_455
Cd0 O10 2.300231 1_445
Cd0 O0 2.322383 1_455
Cd0 O12 2.362193 1_555
Cd0 O7 2.410908 1_555
Cd0 O9 2.410908 1_555
Cd1 O11 2.300231 1_555
Cd1 O5 2.300231 1_545
Cd1 O1 2.322383 1_555
Cd1 O13 2.362193 1_555
Cd1 O8 2.410908 1_555
Cd1 O6 2.410908 1_555
Cd2 O6 2.300231 1_665
Cd2 O8 2.300231 1_655
Cd2 O2 2.322383 1_655
Cd2 O14 2.362193 1_555
Cd2 O11 2.410908 1_555
Cd2 O5 2.410908 1_555
Cd3 O9 2.300231 1_565
Cd3 O7 2.300231 1_555
Cd3 O3 2.322383 1_555
Cd3 O15 2.362193 1_555
Cd3 O10 2.410908 1_555
Cd3 O4 2.410908 1_555
H0 O12 0.987584 1_555
H1 O13 0.987584 1_655
H2 O14 0.987584 1_555
H3 O15 0.987584 1_455
H4 O14 0.987584 1_555
H5 O15 0.987584 1_455
H6 O12 0.987584 1_555
H7 O13 0.987584 1_655
O0 Se3 1.688864 1_555
O1 Se2 1.688864 1_555
O2 Se1 1.688864 1_555
O3 Se0 1.688864 1_555
O4 Se0 1.769636 1_655
O5 Se1 1.769636 1_555
O6 Se2 1.769636 1_455
O7 Se3 1.769636 1_555
O8 Se2 1.769636 1_455
O9 Se3 1.769636 1_555
O10 Se0 1.769636 1_655
O11 Se1 1.769636 1_555
