# generated using pymatgen
data_LiMoO2
_symmetry_space_group_name_H-M   'P 1'
_cell_length_a   5.26482700
_cell_length_b   6.00176600
_cell_length_c   6.00283264
_cell_angle_alpha   63.79282722
_cell_angle_beta   90.00000000
_cell_angle_gamma   90.00000000
_symmetry_Int_Tables_number   1
_chemical_formula_structural   LiMoO2
_chemical_formula_sum   'Li4 Mo4 O8'
_cell_volume   170.18064308
_cell_formula_units_Z   4
loop_
 _symmetry_equiv_pos_site_id
 _symmetry_equiv_pos_as_xyz
  1  'x, y, z'
loop_
 _atom_site_type_symbol
 _atom_site_label
 _atom_site_symmetry_multiplicity
 _atom_site_fract_x
 _atom_site_fract_y
 _atom_site_fract_z
 _atom_site_occupancy
  Li  Li0  1  0.00353800  0.25215500  0.25167200  1
  Li  Li1  1  0.49646200  0.25215500  0.75167200  1
  Li  Li2  1  0.50353800  0.74784500  0.24832800  1
  Li  Li3  1  0.99646200  0.74784500  0.74832800  1
  Mo  Mo0  1  0.50158300  0.24981600  0.24980100  1
  Mo  Mo1  1  0.99841700  0.24981600  0.74980100  1
  Mo  Mo2  1  0.00158300  0.75018400  0.25019900  1
  Mo  Mo3  1  0.49841700  0.75018400  0.75019900  1
  O  O0  1  0.76711600  0.41591500  0.41440700  1
  O  O1  1  0.26639100  0.08572300  0.58409300  1
  O  O2  1  0.26711600  0.58408500  0.08559300  1
  O  O3  1  0.76639100  0.91427700  0.91590700  1
  O  O4  1  0.23360900  0.08572300  0.08409300  1
  O  O5  1  0.73288400  0.41591500  0.91440700  1
  O  O6  1  0.73360900  0.91427700  0.41590700  1
  O  O7  1  0.23288400  0.58408500  0.58559300  1
loop_
_geom_bond_atom_site_label_1
_geom_bond_atom_site_label_2
_geom_bond_distance
_geom_bond_site_symmetry_2
Li0 O0 2.077886 1_455
Li0 O4 2.089118 1_555
Li0 O2 2.265864 1_555
Li0 O1 2.265893 1_555
Li0 O5 2.310360 1_454
Li0 O6 2.310413 1_445
Li1 O5 2.077886 1_555
Li1 O1 2.089118 1_555
Li1 O7 2.265864 1_555
Li1 O4 2.265893 1_556
Li1 O0 2.310360 1_555
Li1 O3 2.310413 1_545
Li2 O2 2.077886 1_555
Li2 O6 2.089118 1_555
Li2 O0 2.265864 1_555
Li2 O3 2.265893 1_554
Li2 O7 2.310360 1_555
Li2 O4 2.310413 1_565
Li3 O7 2.077886 1_655
Li3 O3 2.089118 1_555
Li3 O5 2.265864 1_555
Li3 O6 2.265893 1_555
Li3 O2 2.310360 1_656
Li3 O1 2.310413 1_665
Mo0 O5 2.181160 1_554
Mo0 O6 2.183674 1_545
Mo0 O2 2.184871 1_555
Mo0 O1 2.187346 1_555
Mo0 O0 2.189636 1_555
Mo0 O4 2.194335 1_555
Mo1 O0 2.181160 1_555
Mo1 O3 2.183674 1_545
Mo1 O7 2.184871 1_655
Mo1 O4 2.187346 1_656
Mo1 O5 2.189636 1_555
Mo1 O1 2.194335 1_655
Mo2 O7 2.181160 1_555
Mo2 O4 2.183674 1_565
Mo2 O0 2.184871 1_455
Mo2 O3 2.187346 1_454
Mo2 O2 2.189636 1_555
Mo2 O6 2.194335 1_455
Mo3 O2 2.181160 1_556
Mo3 O1 2.183674 1_565
Mo3 O5 2.184871 1_555
Mo3 O6 2.187346 1_555
Mo3 O7 2.189636 1_555
Mo3 O3 2.194335 1_555
