# generated using pymatgen
data_Ca5CuPb3
_symmetry_space_group_name_H-M   'P 1'
_cell_length_a   9.62567022
_cell_length_b   9.62567022
_cell_length_c   6.77471600
_cell_angle_alpha   90.00000000
_cell_angle_beta   90.00000000
_cell_angle_gamma   120.00000150
_symmetry_Int_Tables_number   1
_chemical_formula_structural   Ca5CuPb3
_chemical_formula_sum   'Ca10 Cu2 Pb6'
_cell_volume   543.60529198
_cell_formula_units_Z   2
loop_
 _symmetry_equiv_pos_site_id
 _symmetry_equiv_pos_as_xyz
  1  'x, y, z'
loop_
 _atom_site_type_symbol
 _atom_site_label
 _atom_site_symmetry_multiplicity
 _atom_site_fract_x
 _atom_site_fract_y
 _atom_site_fract_z
 _atom_site_occupancy
  Ca  Ca0  1  0.74542900  0.74542900  0.25000000  1
  Ca  Ca1  1  0.33333300  0.66666700  0.50000000  1
  Ca  Ca2  1  0.25457100  0.25457100  0.75000000  1
  Ca  Ca3  1  0.25457100  0.00000000  0.25000000  1
  Ca  Ca4  1  0.66666700  0.33333300  0.00000000  1
  Ca  Ca5  1  0.74542900  0.00000000  0.75000000  1
  Ca  Ca6  1  0.00000000  0.25457100  0.25000000  1
  Ca  Ca7  1  0.66666700  0.33333300  0.50000000  1
  Ca  Ca8  1  0.00000000  0.74542900  0.75000000  1
  Ca  Ca9  1  0.33333300  0.66666700  0.00000000  1
  Cu  Cu0  1  0.00000000  0.00000000  0.50000000  1
  Cu  Cu1  1  0.00000000  0.00000000  0.00000000  1
  Pb  Pb0  1  0.59643400  0.00000000  0.25000000  1
  Pb  Pb1  1  0.59643400  0.59643400  0.75000000  1
  Pb  Pb2  1  0.00000000  0.59643400  0.25000000  1
  Pb  Pb3  1  0.40356600  0.40356600  0.25000000  1
  Pb  Pb4  1  0.00000000  0.40356600  0.75000000  1
  Pb  Pb5  1  0.40356600  0.00000000  0.75000000  1
loop_
_geom_bond_atom_site_label_1
_geom_bond_atom_site_label_2
_geom_bond_distance
_geom_bond_site_symmetry_2
Ca0 Cu1 2.978773 1_665
Ca0 Cu0 2.978773 1_665
Ca0 Pb3 3.290660 1_555
Ca0 Pb0 3.402313 1_565
Ca0 Pb2 3.402313 1_655
Ca0 Pb1 3.678459 1_554
Ca0 Pb1 3.678459 1_555
Ca1 Pb5 3.383975 1_565
Ca1 Pb2 3.383975 1_555
Ca1 Pb0 3.383977 1_565
Ca1 Pb4 3.383977 1_555
Ca1 Pb1 3.383983 1_555
Ca1 Pb3 3.383983 1_555
Ca2 Cu1 2.978773 1_556
Ca2 Cu0 2.978773 1_555
Ca2 Pb1 3.290660 1_555
Ca2 Pb5 3.402313 1_555
Ca2 Pb4 3.402313 1_555
Ca2 Pb3 3.678459 1_555
Ca2 Pb3 3.678459 1_556
Ca3 Cu1 2.978773 1_555
Ca3 Cu0 2.978773 1_555
Ca3 Pb0 3.290660 1_555
Ca3 Pb2 3.402313 1_545
Ca3 Pb3 3.402313 1_555
Ca3 Pb5 3.678459 1_555
Ca3 Pb5 3.678459 1_554
Ca4 Pb4 3.383975 1_654
Ca4 Pb0 3.383975 1_555
Ca4 Pb2 3.383977 1_655
Ca4 Pb5 3.383977 1_554
Ca4 Pb3 3.383983 1_555
Ca4 Pb1 3.383983 1_554
Ca5 Cu0 2.978773 1_655
Ca5 Cu1 2.978773 1_656
Ca5 Pb5 3.290660 1_555
Ca5 Pb4 3.402313 1_655
Ca5 Pb1 3.402313 1_545
Ca5 Pb0 3.678459 1_556
Ca5 Pb0 3.678459 1_555
Ca6 Cu1 2.978773 1_555
Ca6 Cu0 2.978773 1_555
Ca6 Pb2 3.290660 1_555
Ca6 Pb0 3.402313 1_455
Ca6 Pb3 3.402313 1_555
Ca6 Pb4 3.678459 1_554
Ca6 Pb4 3.678459 1_555
Ca7 Pb4 3.383975 1_655
Ca7 Pb0 3.383975 1_555
Ca7 Pb5 3.383977 1_555
Ca7 Pb2 3.383977 1_655
Ca7 Pb3 3.383983 1_555
Ca7 Pb1 3.383983 1_555
Ca8 Cu1 2.978773 1_566
Ca8 Cu0 2.978773 1_565
Ca8 Pb4 3.290660 1_555
Ca8 Pb5 3.402313 1_565
Ca8 Pb1 3.402313 1_455
Ca8 Pb2 3.678459 1_555
Ca8 Pb2 3.678459 1_556
Ca9 Pb5 3.383975 1_564
Ca9 Pb2 3.383975 1_555
Ca9 Pb4 3.383977 1_554
Ca9 Pb0 3.383977 1_565
Ca9 Pb1 3.383983 1_554
Ca9 Pb3 3.383983 1_555
