# generated using pymatgen
data_La6Mg22Al
_symmetry_space_group_name_H-M   'P 1'
_cell_length_a   10.30266460
_cell_length_b   10.30266460
_cell_length_c   10.30266460
_cell_angle_alpha   60.00000000
_cell_angle_beta   60.00000000
_cell_angle_gamma   60.00000000
_symmetry_Int_Tables_number   1
_chemical_formula_structural   La6Mg22Al
_chemical_formula_sum   'La6 Mg22 Al1'
_cell_volume   773.27449646
_cell_formula_units_Z   1
loop_
 _symmetry_equiv_pos_site_id
 _symmetry_equiv_pos_as_xyz
  1  'x, y, z'
loop_
 _atom_site_type_symbol
 _atom_site_label
 _atom_site_symmetry_multiplicity
 _atom_site_fract_x
 _atom_site_fract_y
 _atom_site_fract_z
 _atom_site_occupancy
  La  La0  1  0.78796200  0.21203800  0.21203800  1
  La  La1  1  0.78796200  0.21203800  0.78796200  1
  La  La2  1  0.21203800  0.21203800  0.78796200  1
  La  La3  1  0.21203800  0.78796200  0.78796200  1
  La  La4  1  0.78796200  0.78796200  0.21203800  1
  La  La5  1  0.21203800  0.78796200  0.21203800  1
  Mg  Mg0  1  0.86369000  0.37877000  0.37877000  1
  Mg  Mg1  1  0.82880800  0.82880800  0.82880800  1
  Mg  Mg2  1  0.37877000  0.37877000  0.37877000  1
  Mg  Mg3  1  0.00000000  0.00000000  0.50000000  1
  Mg  Mg4  1  0.50000000  0.50000000  0.00000000  1
  Mg  Mg5  1  0.48642500  0.17119200  0.17119200  1
  Mg  Mg6  1  0.37877000  0.37877000  0.86369000  1
  Mg  Mg7  1  0.82880800  0.51357500  0.82880800  1
  Mg  Mg8  1  0.82880800  0.82880800  0.51357500  1
  Mg  Mg9  1  0.62123000  0.62123000  0.13631000  1
  Mg  Mg10  1  0.13631000  0.62123000  0.62123000  1
  Mg  Mg11  1  0.17119200  0.17119200  0.48642500  1
  Mg  Mg12  1  0.37877000  0.86369000  0.37877000  1
  Mg  Mg13  1  0.62123000  0.62123000  0.62123000  1
  Mg  Mg14  1  0.00000000  0.50000000  0.00000000  1
  Mg  Mg15  1  0.00000000  0.50000000  0.50000000  1
  Mg  Mg16  1  0.17119200  0.48642500  0.17119200  1
  Mg  Mg17  1  0.62123000  0.13631000  0.62123000  1
  Mg  Mg18  1  0.51357500  0.82880800  0.82880800  1
  Mg  Mg19  1  0.50000000  0.00000000  0.00000000  1
  Mg  Mg20  1  0.50000000  0.00000000  0.50000000  1
  Mg  Mg21  1  0.17119200  0.17119200  0.17119200  1
  Al  Al0  1  0.50000000  0.50000000  0.50000000  1
loop_
_geom_bond_atom_site_label_1
_geom_bond_atom_site_label_2
_geom_bond_distance
_geom_bond_site_symmetry_2
La0 Mg2 3.484464 1_555
La0 Mg17 3.484464 1_555
La0 Mg9 3.484464 1_555
La0 Mg0 3.484464 1_555
La0 Mg5 3.577309 1_555
La0 Mg8 3.577315 1_545
La0 Mg7 3.577315 1_554
La0 Mg21 3.577319 1_655
La0 Mg4 3.684297 1_555
La0 Mg20 3.684297 1_555
La0 Mg3 3.684297 1_655
La0 Mg14 3.684297 1_655
La0 La5 4.369113 1_645
La0 La2 4.369113 1_654
La0 La1 4.369113 1_554
La0 La4 4.369113 1_545
La1 Mg17 3.484464 1_555
La1 Mg6 3.484464 1_555
La1 Mg0 3.484464 1_555
La1 Mg13 3.484464 1_555
La1 Mg7 3.577309 1_555
La1 Mg5 3.577315 1_556
La1 Mg11 3.577315 1_655
La1 Mg1 3.577319 1_545
La1 Mg3 3.684297 1_655
La1 Mg19 3.684297 1_556
La1 Mg4 3.684297 1_556
La1 Mg15 3.684297 1_655
La1 La2 4.369113 1_655
La1 La3 4.369113 1_645
La1 La4 4.369113 1_546
La2 Mg2 3.484464 1_555
La2 Mg17 3.484464 1_555
La2 Mg10 3.484464 1_555
La2 Mg6 3.484464 1_555
La2 Mg11 3.577309 1_555
La2 Mg7 3.577315 1_455
La2 Mg18 3.577315 1_545
La2 Mg21 3.577319 1_556
La2 Mg20 3.684297 1_555
La2 Mg15 3.684297 1_555
La2 Mg14 3.684297 1_556
La2 Mg19 3.684297 1_556
La2 La3 4.369113 1_545
La2 La5 4.369113 1_546
La3 Mg10 3.484464 1_555
La3 Mg6 3.484464 1_555
La3 Mg12 3.484464 1_555
La3 Mg13 3.484464 1_555
La3 Mg18 3.577309 1_555
La3 Mg16 3.577315 1_556
La3 Mg11 3.577315 1_565
La3 Mg1 3.577319 1_455
La3 Mg3 3.684297 1_565
La3 Mg14 3.684297 1_556
La3 Mg4 3.684297 1_556
La3 Mg20 3.684297 1_565
La3 La5 4.369113 1_556
La3 La4 4.369113 1_456
La4 Mg9 3.484464 1_555
La4 Mg0 3.484464 1_555
La4 Mg12 3.484464 1_555
La4 Mg13 3.484464 1_555
La4 Mg8 3.577309 1_555
La4 Mg16 3.577315 1_655
La4 Mg5 3.577315 1_565
La4 Mg1 3.577319 1_554
La4 Mg14 3.684297 1_655
La4 Mg19 3.684297 1_565
La4 Mg20 3.684297 1_565
La4 Mg15 3.684297 1_655
La4 La5 4.369113 1_655
La5 Mg2 3.484464 1_555
La5 Mg9 3.484464 1_555
La5 Mg10 3.484464 1_555
La5 Mg12 3.484464 1_555
La5 Mg16 3.577309 1_555
La5 Mg18 3.577315 1_554
La5 Mg8 3.577315 1_455
La5 Mg21 3.577319 1_565
La5 Mg15 3.684297 1_555
La5 Mg4 3.684297 1_555
La5 Mg19 3.684297 1_565
La5 Mg3 3.684297 1_565
Mg0 Mg15 3.187510 1_655
Mg0 Mg3 3.187510 1_655
Mg0 Mg14 3.187510 1_655
Mg0 Mg21 3.194857 1_655
Mg0 Mg16 3.194862 1_655
Mg0 Mg11 3.194862 1_655
Mg1 Mg19 2.976315 1_566
Mg1 Mg14 2.976315 1_656
Mg1 Mg3 2.976315 1_665
Mg1 Mg9 3.194857 1_556
Mg1 Mg17 3.194857 1_565
Mg1 Mg10 3.194857 1_655
Mg1 Mg8 3.247740 1_555
Mg1 Mg18 3.247740 1_555
Mg1 Mg7 3.247740 1_555
Mg2 Mg4 3.187510 1_555
Mg2 Mg20 3.187510 1_555
Mg2 Mg5 3.194854 1_555
Mg3 Mg8 2.976321 1_445
Mg4 Mg7 2.976312 1_554
Mg4 Mg5 2.976312 1_555
Mg4 Mg6 3.187510 1_554
Mg4 Mg9 3.187510 1_555
Mg5 Mg6 3.194862 1_554
Mg7 Mg9 3.194862 1_556
Mg7 Mg8 3.247740 1_555
Mg10 Mg14 3.187510 1_556
Mg10 Mg3 3.187510 1_565
Mg10 Mg15 3.187510 1_555
Mg10 Mg7 3.194862 1_455
Mg10 Mg8 3.194862 1_455
Mg11 Mg15 2.976312 1_555
Mg11 Mg20 2.976312 1_555
Mg11 Mg3 2.976321 1_555
Mg11 Mg2 3.194854 1_555
Mg11 Mg12 3.194862 1_545
Mg11 Mg5 3.247740 1_555
Mg11 Mg21 3.247740 1_555
Mg11 Mg16 3.247740 1_555
Mg12 Mg20 3.187510 1_565
Mg12 Mg19 3.187510 1_565
Mg12 Mg3 3.187510 1_565
Mg12 Mg21 3.194857 1_565
Mg12 Mg5 3.194862 1_565
Mg13 Mg15 3.187510 1_655
Mg13 Mg20 3.187510 1_565
Mg13 Mg4 3.187510 1_556
Mg13 Mg18 3.194854 1_555
Mg13 Mg7 3.194854 1_555
Mg13 Mg8 3.194854 1_555
Mg14 Mg21 2.976315 1_555
Mg14 Mg16 2.976321 1_555
Mg14 Mg7 2.976321 1_454
Mg14 Mg9 3.187510 1_455
Mg14 Mg6 3.187510 1_554
Mg15 Mg7 2.976312 1_455
Mg15 Mg8 2.976312 1_455
Mg15 Mg16 2.976312 1_555
Mg15 Mg2 3.187510 1_555
Mg16 Mg4 2.976312 1_555
Mg16 Mg2 3.194854 1_555
Mg16 Mg6 3.194862 1_554
Mg16 Mg5 3.247740 1_555
Mg16 Mg21 3.247740 1_555
Mg17 Mg3 3.187510 1_655
Mg17 Mg19 3.187510 1_556
Mg17 Mg20 3.187510 1_555
Mg17 Mg18 3.194862 1_545
Mg17 Mg8 3.194862 1_545
Mg18 Mg20 2.976312 1_565
Mg18 Mg4 2.976312 1_556
Mg18 Mg19 2.976321 1_566
Mg18 Mg9 3.194862 1_556
Mg18 Mg8 3.247740 1_555
Mg18 Mg7 3.247740 1_555
Mg19 Mg21 2.976315 1_555
Mg19 Mg5 2.976321 1_555
Mg19 Mg9 3.187510 1_545
Mg19 Mg6 3.187510 1_554
Mg20 Mg8 2.976312 1_545
Mg20 Mg5 2.976312 1_555
Mg21 Mg3 2.976315 1_555
Mg21 Mg6 3.194857 1_554
Mg21 Mg5 3.247740 1_555
Al0 Mg2 3.059393 1_555
Al0 Mg17 3.059393 1_555
Al0 Mg9 3.059393 1_555
Al0 Mg10 3.059393 1_555
Al0 Mg6 3.059393 1_555
Al0 Mg0 3.059393 1_555
Al0 Mg12 3.059393 1_555
Al0 Mg13 3.059393 1_555
