# generated using pymatgen
data_AgH12C4S5N
_symmetry_space_group_name_H-M   'P 1'
_cell_length_a   10.83171490
_cell_length_b   10.83171490
_cell_length_c   7.21975421
_cell_angle_alpha   73.88333976
_cell_angle_beta   73.88333976
_cell_angle_gamma   118.69452167
_symmetry_Int_Tables_number   1
_chemical_formula_structural   AgH12C4S5N
_chemical_formula_sum   'Ag2 H24 C8 S10 N2'
_cell_volume   623.24170242
_cell_formula_units_Z   2
loop_
 _symmetry_equiv_pos_site_id
 _symmetry_equiv_pos_as_xyz
  1  'x, y, z'
loop_
 _atom_site_type_symbol
 _atom_site_label
 _atom_site_symmetry_multiplicity
 _atom_site_fract_x
 _atom_site_fract_y
 _atom_site_fract_z
 _atom_site_occupancy
  Ag  Ag0  1  0.82474400  0.78083100  0.27487200  1
  Ag  Ag1  1  0.78083100  0.82474400  0.77487200  1
  H  H0  1  0.41337800  0.09608900  0.96886100  1
  H  H1  1  0.09608900  0.41337800  0.46886100  1
  H  H2  1  0.51275000  0.03406200  0.82035500  1
  H  H3  1  0.03406200  0.51275000  0.32035500  1
  H  H4  1  0.57468500  0.23702100  0.68824000  1
  H  H5  1  0.23702100  0.57468500  0.18824000  1
  H  H6  1  0.47337400  0.99928400  0.51678300  1
  H  H7  1  0.99928400  0.47337400  0.01678300  1
  H  H8  1  0.53583400  0.20283600  0.38654200  1
  H  H9  1  0.20283600  0.53583400  0.88654200  1
  H  H10  1  0.34440300  0.03662900  0.44270100  1
  H  H11  1  0.03662900  0.34440300  0.94270100  1
  H  H12  1  0.40299200  0.28688300  0.58556800  1
  H  H13  1  0.28688300  0.40299200  0.08556800  1
  H  H14  1  0.21061400  0.12033400  0.64249800  1
  H  H15  1  0.12033400  0.21061400  0.14249800  1
  H  H16  1  0.23893400  0.14622500  0.86537500  1
  H  H17  1  0.14622500  0.23893400  0.36537500  1
  H  H18  1  0.12565400  0.84651700  0.82052600  1
  H  H19  1  0.84651700  0.12565400  0.32052600  1
  H  H20  1  0.15354200  0.87121800  0.04531200  1
  H  H21  1  0.87121800  0.15354200  0.54531200  1
  H  H22  1  0.25489800  0.81055400  0.89404800  1
  H  H23  1  0.81055400  0.25489800  0.39404800  1
  C  C0  1  0.47259800  0.10990900  0.80630800  1
  C  C1  1  0.10990900  0.47259800  0.30630800  1
  C  C2  1  0.43314800  0.07537200  0.50021800  1
  C  C3  1  0.07537200  0.43314800  0.00021800  1
  C  C4  1  0.29765600  0.16087300  0.70241700  1
  C  C5  1  0.16087300  0.29765600  0.20241700  1
  C  C6  1  0.21127200  0.88358800  0.88295500  1
  C  C7  1  0.88358800  0.21127100  0.38295500  1
  S  S0  1  0.87539800  0.00804300  0.94449500  1
  S  S1  1  0.00804300  0.87539800  0.44449500  1
  S  S2  1  0.76843800  0.52739600  0.25538000  1
  S  S3  1  0.52739600  0.76843800  0.75538000  1
  S  S4  1  0.68634500  0.01476100  0.08941700  1
  S  S5  1  0.01476100  0.68634500  0.58941700  1
  S  S6  1  0.48128700  0.78096900  0.30236100  1
  S  S7  1  0.78096900  0.48128700  0.80236100  1
  S  S8  1  0.52067900  0.67466200  0.54352000  1
  S  S9  1  0.67466200  0.52067900  0.04352000  1
  N  N0  1  0.35345000  0.05727300  0.72344600  1
  N  N1  1  0.05727300  0.35345000  0.22344600  1
loop_
_geom_bond_atom_site_label_1
_geom_bond_atom_site_label_2
_geom_bond_distance
_geom_bond_site_symmetry_2
Ag0 S2 2.565529 1_555
Ag0 S1 2.565999 1_655
Ag0 S0 2.600963 1_564
Ag0 S8 2.740408 1_555
Ag1 S3 2.565529 1_555
Ag1 S0 2.565999 1_565
Ag1 S1 2.600963 1_655
Ag1 S9 2.740408 1_556
C0 H2 1.093494 1_555
C0 H0 1.097041 1_555
C0 H4 1.099155 1_555
C0 N0 1.503321 1_555
C1 H3 1.093494 1_555
C1 H1 1.097041 1_555
C1 H5 1.099155 1_555
C1 N1 1.503321 1_555
C2 H6 1.096560 1_545
C2 H10 1.097070 1_555
C2 H8 1.098342 1_555
C2 N0 1.506894 1_555
C3 H7 1.096560 1_455
C3 H11 1.097070 1_554
C3 H9 1.098342 1_554
C3 N1 1.506894 1_555
C4 H16 1.094497 1_555
C4 H14 1.096908 1_555
C4 H12 1.098792 1_555
C4 N0 1.501709 1_555
C5 H17 1.094497 1_555
C5 H15 1.096908 1_555
C5 H13 1.098792 1_555
C5 N1 1.501709 1_555
C6 H18 1.095166 1_555
C6 H22 1.095598 1_555
C6 H20 1.099262 1_556
C6 N0 1.505843 1_565
C7 H19 1.095158 1_555
C7 H23 1.095607 1_555
C7 H21 1.099259 1_555
C7 N1 1.505845 1_655
S0 S4 2.071044 1_556
S1 S5 2.071044 1_555
S2 S9 2.056710 1_555
S3 S8 2.056710 1_555
S4 S6 2.061862 1_545
S5 S7 2.061862 1_455
S6 S8 2.076203 1_555
S7 S9 2.076203 1_556
