# generated using pymatgen
data_Dy2V2O7
_symmetry_space_group_name_H-M   'P 1'
_cell_length_a   7.07224321
_cell_length_b   7.07224321
_cell_length_c   7.07224321
_cell_angle_alpha   60.00000000
_cell_angle_beta   60.00000000
_cell_angle_gamma   60.00000000
_symmetry_Int_Tables_number   1
_chemical_formula_structural   Dy2V2O7
_chemical_formula_sum   'Dy4 V4 O14'
_cell_volume   250.12469022
_cell_formula_units_Z   2
loop_
 _symmetry_equiv_pos_site_id
 _symmetry_equiv_pos_as_xyz
  1  'x, y, z'
loop_
 _atom_site_type_symbol
 _atom_site_label
 _atom_site_symmetry_multiplicity
 _atom_site_fract_x
 _atom_site_fract_y
 _atom_site_fract_z
 _atom_site_occupancy
  Dy  Dy0  1  0.62500000  0.12500000  0.12500000  1
  Dy  Dy1  1  0.12500000  0.62500000  0.12500000  1
  Dy  Dy2  1  0.12500000  0.12500000  0.62500000  1
  Dy  Dy3  1  0.12500000  0.12500000  0.12500000  1
  V  V0  1  0.12500000  0.62500000  0.62500000  1
  V  V1  1  0.62500000  0.62500000  0.12500000  1
  V  V2  1  0.62500000  0.62500000  0.62500000  1
  V  V3  1  0.62500000  0.12500000  0.62500000  1
  O  O0  1  0.54478231  0.95521769  0.54478231  1
  O  O1  1  0.95521769  0.95521769  0.54478231  1
  O  O2  1  0.95521769  0.54478231  0.95521769  1
  O  O3  1  0.00000000  0.00000000  0.00000000  1
  O  O4  1  0.95521769  0.54478231  0.54478231  1
  O  O5  1  0.29478231  0.70521769  0.70521769  1
  O  O6  1  0.25000000  0.25000000  0.25000000  1
  O  O7  1  0.54478231  0.54478231  0.95521769  1
  O  O8  1  0.29478231  0.70521769  0.29478231  1
  O  O9  1  0.70521769  0.70521769  0.29478231  1
  O  O10  1  0.54478231  0.95521769  0.95521769  1
  O  O11  1  0.70521769  0.29478231  0.70521769  1
  O  O12  1  0.29478231  0.29478231  0.70521769  1
  O  O13  1  0.70521769  0.29478231  0.29478231  1
loop_
_geom_bond_atom_site_label_1
_geom_bond_atom_site_label_2
_geom_bond_distance
_geom_bond_site_symmetry_2
Dy0 O6 2.165423 1_555
Dy0 O3 2.165423 1_655
Dy0 O0 2.451449 1_545
Dy0 O10 2.451449 1_544
Dy0 O7 2.451449 1_554
Dy0 O11 2.451449 1_554
Dy0 O13 2.451449 1_555
Dy0 O9 2.451449 1_545
Dy1 O6 2.165423 1_555
Dy1 O3 2.165423 1_565
Dy1 O9 2.451449 1_455
Dy1 O5 2.451449 1_554
Dy1 O2 2.451449 1_454
Dy1 O8 2.451449 1_555
Dy1 O7 2.451449 1_554
Dy1 O4 2.451449 1_455
Dy2 O6 2.165423 1_555
Dy2 O3 2.165423 1_556
Dy2 O0 2.451449 1_545
Dy2 O1 2.451449 1_445
Dy2 O12 2.451449 1_555
Dy2 O5 2.451449 1_545
Dy2 O4 2.451449 1_455
Dy2 O11 2.451449 1_455
Dy3 O3 2.165423 1_555
Dy3 O6 2.165423 1_555
Dy3 O2 2.451449 1_454
Dy3 O1 2.451449 1_445
Dy3 O10 2.451449 1_544
Dy3 O12 2.451449 1_554
Dy3 O13 2.451449 1_455
Dy3 O8 2.451449 1_545
O0 V3 1.941582 1_565
O0 V2 1.941582 1_555
O1 V0 1.941582 1_655
O1 V3 1.941582 1_565
O2 V0 1.941582 1_655
O2 V1 1.941582 1_556
O4 V0 1.941582 1_655
O4 V2 1.941582 1_555
O5 V2 1.941582 1_555
O5 V0 1.941582 1_555
O7 V2 1.941582 1_555
O7 V1 1.941582 1_556
O8 V1 1.941582 1_555
O8 V0 1.941582 1_555
O9 V1 1.941582 1_555
O9 V2 1.941582 1_555
O10 V1 1.941582 1_556
O10 V3 1.941582 1_565
O11 V2 1.941582 1_555
O11 V3 1.941582 1_555
O12 V0 1.941582 1_555
O12 V3 1.941582 1_555
O13 V1 1.941582 1_555
O13 V3 1.941582 1_555
