# generated using pymatgen
data_BC2N
_symmetry_space_group_name_H-M   'P 1'
_cell_length_a   2.53744500
_cell_length_b   2.56513900
_cell_length_c   3.64474900
_cell_angle_alpha   90.00000000
_cell_angle_beta   90.00000000
_cell_angle_gamma   90.00000000
_symmetry_Int_Tables_number   1
_chemical_formula_structural   BC2N
_chemical_formula_sum   'B1 C2 N1'
_cell_volume   23.72330359
_cell_formula_units_Z   1
loop_
 _symmetry_equiv_pos_site_id
 _symmetry_equiv_pos_as_xyz
  1  'x, y, z'
loop_
 _atom_site_type_symbol
 _atom_site_label
 _atom_site_symmetry_multiplicity
 _atom_site_fract_x
 _atom_site_fract_y
 _atom_site_fract_z
 _atom_site_occupancy
  B  B0  1  0.00000000  0.50000000  0.25170300  1
  C  C0  1  0.00000000  0.00000000  0.50974400  1
  C  C1  1  0.50000000  0.00000000  0.74342300  1
  N  N0  1  0.50000000  0.50000000  0.99513000  1
loop_
_geom_bond_atom_site_label_1
_geom_bond_atom_site_label_2
_geom_bond_distance
_geom_bond_site_symmetry_2
B0 N0 1.576119 1_454
B0 N0 1.576119 1_554
B0 C0 1.590445 1_565
B0 C0 1.590445 1_555
C0 C1 1.528088 1_555
C0 C1 1.528088 1_455
C1 N0 1.576903 1_555
C1 N0 1.576903 1_545
