# generated using pymatgen
data_CoI(NO)2
_symmetry_space_group_name_H-M   'P 1'
_cell_length_a   3.89512000
_cell_length_b   10.72000000
_cell_length_c   12.80307400
_cell_angle_alpha   90.00000000
_cell_angle_beta   90.00000000
_cell_angle_gamma   90.00000000
_symmetry_Int_Tables_number   1
_chemical_formula_structural   CoI(NO)2
_chemical_formula_sum   'Co4 I4 N8 O8'
_cell_volume   534.60114290
_cell_formula_units_Z   4
loop_
 _symmetry_equiv_pos_site_id
 _symmetry_equiv_pos_as_xyz
  1  'x, y, z'
loop_
 _atom_site_type_symbol
 _atom_site_label
 _atom_site_symmetry_multiplicity
 _atom_site_fract_x
 _atom_site_fract_y
 _atom_site_fract_z
 _atom_site_occupancy
  Co  Co0  1  0.75000000  0.05894700  0.78915400  1
  Co  Co1  1  0.25000000  0.94105300  0.21084600  1
  Co  Co2  1  0.75000000  0.55894700  0.71084600  1
  Co  Co3  1  0.25000000  0.44105300  0.28915400  1
  I  I0  1  0.25000000  0.41205600  0.65162500  1
  I  I1  1  0.75000000  0.58794400  0.34837500  1
  I  I2  1  0.25000000  0.91205600  0.84837500  1
  I  I3  1  0.75000000  0.08794400  0.15162500  1
  N  N0  1  0.25000000  0.31517900  0.36168900  1
  N  N1  1  0.25000000  0.42552900  0.16224400  1
  N  N2  1  0.25000000  0.81517900  0.13831100  1
  N  N3  1  0.75000000  0.18482100  0.86168900  1
  N  N4  1  0.75000000  0.57447100  0.83775600  1
  N  N5  1  0.25000000  0.92552900  0.33775600  1
  N  N6  1  0.75000000  0.68482100  0.63831100  1
  N  N7  1  0.75000000  0.07447100  0.66224400  1
  O  O0  1  0.25000000  0.89907700  0.42685900  1
  O  O1  1  0.75000000  0.78645000  0.60419000  1
  O  O2  1  0.25000000  0.71355000  0.10419000  1
  O  O3  1  0.75000000  0.28645000  0.89581000  1
  O  O4  1  0.25000000  0.39907700  0.07314100  1
  O  O5  1  0.25000000  0.21355000  0.39581000  1
  O  O6  1  0.75000000  0.10092300  0.57314100  1
  O  O7  1  0.75000000  0.60092300  0.92685900  1
loop_
_geom_bond_atom_site_label_1
_geom_bond_atom_site_label_2
_geom_bond_distance
_geom_bond_site_symmetry_2
Co0 N7 1.633338 1_555
Co0 N3 1.638056 1_555
Co0 I2 2.616766 1_645
Co0 I2 2.616766 1_545
Co1 N5 1.633338 1_555
Co1 N2 1.638056 1_555
Co1 I3 2.616766 1_465
Co1 I3 2.616766 1_565
Co2 N4 1.633338 1_555
Co2 N6 1.638056 1_555
Co2 I0 2.616766 1_555
Co2 I0 2.616766 1_655
Co3 N1 1.633338 1_555
Co3 N0 1.638056 1_555
Co3 I1 2.616766 1_555
Co3 I1 2.616766 1_455
N0 O5 1.173785 1_555
N1 O4 1.175507 1_555
N2 O2 1.173785 1_555
N3 O3 1.173785 1_555
N4 O7 1.175507 1_555
N5 O0 1.175507 1_555
N6 O1 1.173785 1_555
N7 O6 1.175507 1_555
