# generated using pymatgen
data_SiO2
_symmetry_space_group_name_H-M   'P 1'
_cell_length_a   7.50310009
_cell_length_b   16.19814551
_cell_length_c   5.23004209
_cell_angle_alpha   90.00000000
_cell_angle_beta   90.00000000
_cell_angle_gamma   90.00000000
_symmetry_Int_Tables_number   1
_chemical_formula_structural   SiO2
_chemical_formula_sum   'Si12 O24'
_cell_volume   635.64000125
_cell_formula_units_Z   12
loop_
 _symmetry_equiv_pos_site_id
 _symmetry_equiv_pos_as_xyz
  1  'x, y, z'
loop_
 _atom_site_type_symbol
 _atom_site_label
 _atom_site_symmetry_multiplicity
 _atom_site_fract_x
 _atom_site_fract_y
 _atom_site_fract_z
 _atom_site_occupancy
  Si  Si0  1  0.20653111  0.19615689  0.25000000  1
  Si  Si1  1  0.20653111  0.80384311  0.75000000  1
  Si  Si2  1  0.79346889  0.19615689  0.25000000  1
  Si  Si3  1  0.79346889  0.80384311  0.75000000  1
  Si  Si4  1  0.70653111  0.69615689  0.25000000  1
  Si  Si5  1  0.70653111  0.30384311  0.75000000  1
  Si  Si6  1  0.29346889  0.69615689  0.25000000  1
  Si  Si7  1  0.29346889  0.30384311  0.75000000  1
  Si  Si8  1  0.50000000  0.05690612  0.25000000  1
  Si  Si9  1  0.50000000  0.94309388  0.75000000  1
  Si  Si10  1  0.00000000  0.55690612  0.25000000  1
  Si  Si11  1  0.00000000  0.44309388  0.75000000  1
  O  O0  1  0.25000000  0.25000000  0.50000000  1
  O  O1  1  0.25000000  0.75000000  0.50000000  1
  O  O2  1  0.75000000  0.25000000  -0.00000000  1
  O  O3  1  0.75000000  0.75000000  -0.00000000  1
  O  O4  1  0.75000000  0.75000000  0.50000000  1
  O  O5  1  0.75000000  0.25000000  0.50000000  1
  O  O6  1  0.25000000  0.75000000  -0.00000000  1
  O  O7  1  0.25000000  0.25000000  -0.00000000  1
  O  O8  1  0.32375354  0.11340003  0.25000000  1
  O  O9  1  0.32375354  0.88659997  0.75000000  1
  O  O10  1  0.67624646  0.11340003  0.25000000  1
  O  O11  1  0.67624646  0.88659997  0.75000000  1
  O  O12  1  0.82375354  0.61340003  0.25000000  1
  O  O13  1  0.82375354  0.38659997  0.75000000  1
  O  O14  1  0.17624646  0.61340003  0.25000000  1
  O  O15  1  0.17624646  0.38659997  0.75000000  1
  O  O16  1  0.00000000  0.16988057  0.25000000  1
  O  O17  1  0.00000000  0.83011943  0.75000000  1
  O  O18  1  0.50000000  0.66988057  0.25000000  1
  O  O19  1  0.50000000  0.33011943  0.75000000  1
  O  O20  1  0.50000000  0.00000000  -0.00000000  1
  O  O21  1  0.50000000  0.00000000  0.50000000  1
  O  O22  1  -0.00000000  0.50000000  -0.00000000  1
  O  O23  1  0.00000000  0.50000000  0.50000000  1
loop_
_geom_bond_atom_site_label_1
_geom_bond_atom_site_label_2
_geom_bond_distance
_geom_bond_site_symmetry_2
O0 Si0 1.605185 1_555
O0 Si7 1.605185 1_555
O1 Si6 1.605185 1_555
O1 Si1 1.605185 1_555
O2 Si2 1.605185 1_555
O2 Si5 1.605185 1_554
O3 Si3 1.605185 1_554
O3 Si4 1.605185 1_555
O4 Si4 1.605185 1_555
O4 Si3 1.605185 1_555
O5 Si2 1.605185 1_555
O5 Si5 1.605185 1_555
O6 Si6 1.605185 1_555
O6 Si1 1.605185 1_554
O7 Si0 1.605185 1_555
O7 Si7 1.605185 1_554
O8 Si0 1.603289 1_555
O8 Si8 1.608145 1_555
O9 Si1 1.603289 1_555
O9 Si9 1.608145 1_555
O10 Si2 1.603289 1_555
O10 Si8 1.608145 1_555
O11 Si3 1.603289 1_555
O11 Si9 1.608145 1_555
O12 Si4 1.603289 1_555
O12 Si10 1.608145 1_655
O13 Si5 1.603289 1_555
O13 Si11 1.608145 1_655
O14 Si6 1.603289 1_555
O14 Si10 1.608145 1_555
O15 Si7 1.603289 1_555
O15 Si11 1.608145 1_555
O16 Si0 1.607013 1_555
O16 Si2 1.607013 1_455
O17 Si1 1.607013 1_555
O17 Si3 1.607013 1_455
O18 Si4 1.607013 1_555
O18 Si6 1.607013 1_555
O19 Si7 1.607013 1_555
O19 Si5 1.607013 1_555
O20 Si9 1.599766 1_544
O20 Si8 1.599766 1_555
O21 Si9 1.599766 1_545
O21 Si8 1.599766 1_555
O22 Si10 1.599766 1_555
O22 Si11 1.599766 1_554
O23 Si10 1.599766 1_555
O23 Si11 1.599766 1_555
