# generated using pymatgen
data_U(GaFe)6
_symmetry_space_group_name_H-M   'P 1'
_cell_length_a   6.60228362
_cell_length_b   6.60228362
_cell_length_c   6.60228362
_cell_angle_alpha   135.68908119
_cell_angle_beta   99.08918081
_cell_angle_gamma   97.26558303
_symmetry_Int_Tables_number   1
_chemical_formula_structural   U(GaFe)6
_chemical_formula_sum   'U1 Ga6 Fe6'
_cell_volume   186.16401506
_cell_formula_units_Z   1
loop_
 _symmetry_equiv_pos_site_id
 _symmetry_equiv_pos_as_xyz
  1  'x, y, z'
loop_
 _atom_site_type_symbol
 _atom_site_label
 _atom_site_symmetry_multiplicity
 _atom_site_fract_x
 _atom_site_fract_y
 _atom_site_fract_z
 _atom_site_occupancy
  U  U0  1  0.00000000  0.00000000  -0.00000000  1
  Ga  Ga0  1  0.35059933  0.35059933  0.00000000  1
  Ga  Ga1  1  0.19913207  0.69913207  0.50000000  1
  Ga  Ga2  1  0.65927449  -0.00000000  0.65927449  1
  Ga  Ga3  1  0.80086793  0.30086793  0.50000000  1
  Ga  Ga4  1  0.64940067  0.64940067  -0.00000000  1
  Ga  Ga5  1  0.34072551  0.00000000  0.34072551  1
  Fe  Fe0  1  0.00000000  0.50000000  -0.00000000  1
  Fe  Fe1  1  0.76915243  0.50000000  0.26915243  1
  Fe  Fe2  1  0.23084757  0.50000000  0.73084757  1
  Fe  Fe3  1  0.50000000  0.50000000  0.50000000  1
  Fe  Fe4  1  0.50000000  0.00000000  -0.00000000  1
  Fe  Fe5  1  0.00000000  0.00000000  0.50000000  1
loop_
_geom_bond_atom_site_label_1
_geom_bond_atom_site_label_2
_geom_bond_distance
_geom_bond_site_symmetry_2
Ga0 Ga4 2.607540 1_555
Ga0 Ga1 2.818965 1_555
Ga0 Ga1 2.818965 1_544
Ga0 U0 3.059564 1_555
Ga1 Ga2 2.959035 1_565
Ga1 Ga5 2.959035 1_565
Ga1 U0 3.036315 1_555
Ga1 U0 3.036315 1_566
Ga2 Ga5 2.729284 1_555
Ga2 U0 2.919290 1_656
Ga2 Ga3 2.959035 1_555
Ga3 Ga4 2.818965 1_556
Ga3 Ga4 2.818965 1_545
Ga3 Ga5 2.959035 1_555
Ga3 U0 3.036315 1_666
Ga3 U0 3.036315 1_655
Ga4 U0 3.059564 1_665
Ga5 U0 2.919290 1_555
Fe0 Fe5 2.489859 1_565
Fe0 Fe5 2.489859 1_554
Fe0 Ga3 2.516927 1_454
Fe0 Ga1 2.516927 1_555
Fe0 Fe2 2.517230 1_554
Fe0 Fe1 2.517230 1_455
Fe0 Ga0 2.628416 1_555
Fe0 Ga4 2.628416 1_455
Fe0 Ga2 2.629401 1_454
Fe0 Ga5 2.629401 1_565
Fe0 U0 3.301142 1_565
Fe0 U0 3.301142 1_555
Fe1 Fe4 2.517230 1_555
Fe1 Fe3 2.517230 1_555
Fe1 Fe5 2.517230 1_665
Fe1 Ga3 2.632827 1_555
Fe1 Ga1 2.632827 1_655
Fe1 Ga4 2.649101 1_555
Fe1 Ga0 2.649101 1_555
Fe1 Ga2 2.661892 1_565
Fe1 Ga2 2.661892 1_554
Fe1 U0 3.179838 1_666
Fe1 U0 3.179838 1_655
Fe2 Fe4 2.517230 1_566
Fe2 Fe5 2.517230 1_555
Fe2 Fe3 2.517230 1_555
Fe2 Ga1 2.632827 1_555
Fe2 Ga3 2.632827 1_455
Fe2 Ga4 2.649101 1_556
Fe2 Ga0 2.649101 1_556
Fe2 Ga5 2.661892 1_566
Fe2 Ga5 2.661892 1_555
Fe2 U0 3.179838 1_555
Fe2 U0 3.179838 1_566
Fe3 Fe4 2.489859 1_555
Fe3 Fe4 2.489859 1_566
Fe3 Ga3 2.516927 1_555
Fe3 Ga1 2.516927 1_555
Fe3 Ga0 2.628416 1_555
Fe3 Ga4 2.628416 1_556
Fe3 Ga5 2.629401 1_555
Fe3 Ga2 2.629401 1_565
Fe3 U0 3.301142 1_666
Fe3 U0 3.301142 1_555
Fe4 Ga3 2.516927 1_555
Fe4 Ga1 2.516927 1_544
Fe4 Ga0 2.628416 1_555
Fe4 Ga4 2.628416 1_545
Fe4 Ga5 2.629401 1_555
Fe4 Ga2 2.629401 1_554
Fe4 U0 3.301142 1_655
Fe4 U0 3.301142 1_555
Fe5 Ga1 2.516927 1_545
Fe5 Ga3 2.516927 1_455
Fe5 Ga4 2.628416 1_445
Fe5 Ga0 2.628416 1_556
Fe5 Ga2 2.629401 1_455
Fe5 Ga5 2.629401 1_555
Fe5 U0 3.301142 1_556
Fe5 U0 3.301142 1_555
