# generated using pymatgen
data_KGaH4
_symmetry_space_group_name_H-M   'P 1'
_cell_length_a   5.50905774
_cell_length_b   7.22928235
_cell_length_c   8.97474368
_cell_angle_alpha   90.00000000
_cell_angle_beta   90.00000000
_cell_angle_gamma   90.00000000
_symmetry_Int_Tables_number   1
_chemical_formula_structural   KGaH4
_chemical_formula_sum   'K4 Ga4 H16'
_cell_volume   357.43293328
_cell_formula_units_Z   4
loop_
 _symmetry_equiv_pos_site_id
 _symmetry_equiv_pos_as_xyz
  1  'x, y, z'
loop_
 _atom_site_type_symbol
 _atom_site_label
 _atom_site_symmetry_multiplicity
 _atom_site_fract_x
 _atom_site_fract_y
 _atom_site_fract_z
 _atom_site_occupancy
  K  K0  1  0.25000000  0.34180768  0.68236894  1
  K  K1  1  0.25000000  0.15819232  0.18236894  1
  K  K2  1  0.75000000  0.65819232  0.31763106  1
  K  K3  1  0.75000000  0.84180768  0.81763106  1
  Ga  Ga0  1  0.25000000  0.68969136  0.06195015  1
  Ga  Ga1  1  0.25000000  0.81030864  0.56195015  1
  Ga  Ga2  1  0.75000000  0.31030864  0.93804985  1
  Ga  Ga3  1  0.75000000  0.18969136  0.43804985  1
  H  H0  1  0.25000000  0.60693313  0.89934184  1
  H  H1  1  0.25000000  0.89306687  0.39934184  1
  H  H2  1  0.75000000  0.39306687  0.10065816  1
  H  H3  1  0.75000000  0.10693313  0.60065816  1
  H  H4  1  0.25000000  0.53783667  0.18906367  1
  H  H5  1  0.25000000  0.96216333  0.68906367  1
  H  H6  1  0.75000000  0.46216333  0.81093633  1
  H  H7  1  0.75000000  0.03783667  0.31093633  1
  H  H8  1  0.98339693  0.18233897  0.91687288  1
  H  H9  1  0.51660307  0.31766103  0.41687288  1
  H  H10  1  0.48339693  0.81766103  0.08312712  1
  H  H11  1  0.01660307  0.68233897  0.58312712  1
  H  H12  1  0.01660307  0.81766103  0.08312712  1
  H  H13  1  0.48339693  0.68233897  0.58312712  1
  H  H14  1  0.51660307  0.18233897  0.91687288  1
  H  H15  1  0.98339693  0.31766103  0.41687288  1
loop_
_geom_bond_atom_site_label_1
_geom_bond_atom_site_label_2
_geom_bond_distance
_geom_bond_site_symmetry_2
Ga0 H0 1.577243 1_554
Ga0 H4 1.583230 1_555
Ga0 H12 1.595387 1_555
Ga0 H10 1.595387 1_555
Ga1 H1 1.577243 1_555
Ga1 H5 1.583230 1_555
Ga1 H13 1.595387 1_555
Ga1 H11 1.595387 1_555
Ga2 H2 1.577243 1_556
Ga2 H6 1.583230 1_555
Ga2 H14 1.595387 1_555
Ga2 H8 1.595387 1_555
Ga3 H3 1.577243 1_555
Ga3 H7 1.583230 1_555
Ga3 H9 1.595387 1_555
Ga3 H15 1.595387 1_555
H0 K0 2.732306 1_555
H1 K1 2.732306 1_565
H2 K2 2.732306 1_555
H3 K3 2.732306 1_545
H4 K1 2.745214 1_555
H5 K0 2.745214 1_565
H6 K3 2.745214 1_555
H7 K2 2.745214 1_545
H8 K1 2.804494 1_656
H8 K0 2.813471 1_655
H8 K3 2.916678 1_545
H9 K0 2.804494 1_555
H9 K1 2.813471 1_555
H9 K2 2.916678 1_555
H10 K3 2.804494 1_554
H10 K2 2.813471 1_555
H10 K1 2.916678 1_565
H11 K2 2.804494 1_455
H11 K3 2.813471 1_455
H11 K0 2.916678 1_555
H12 K3 2.804494 1_454
H12 K2 2.813471 1_455
H12 K1 2.916678 1_565
H13 K2 2.804494 1_555
H13 K3 2.813471 1_555
H13 K0 2.916678 1_555
H14 K1 2.804494 1_556
H14 K0 2.813471 1_555
H14 K3 2.916678 1_545
H15 K0 2.804494 1_655
H15 K1 2.813471 1_655
H15 K2 2.916678 1_555
