# generated using pymatgen
data_KMnRu
_symmetry_space_group_name_H-M   'P 1'
_cell_length_a   4.61796872
_cell_length_b   4.61796872
_cell_length_c   4.61796872
_cell_angle_alpha   60.00000000
_cell_angle_beta   60.00000000
_cell_angle_gamma   60.00000000
_symmetry_Int_Tables_number   1
_chemical_formula_structural   KMnRu
_chemical_formula_sum   'K1 Mn1 Ru1'
_cell_volume   69.63666499
_cell_formula_units_Z   1
loop_
 _symmetry_equiv_pos_site_id
 _symmetry_equiv_pos_as_xyz
  1  'x, y, z'
loop_
 _atom_site_type_symbol
 _atom_site_label
 _atom_site_symmetry_multiplicity
 _atom_site_fract_x
 _atom_site_fract_y
 _atom_site_fract_z
 _atom_site_occupancy
  K  K0  1  0.00000000  0.00000000  0.00000000  1
  Mn  Mn0  1  0.50000000  0.50000000  0.50000000  1
  Ru  Ru0  1  0.75000000  0.75000000  0.75000000  1
loop_
_geom_bond_atom_site_label_1
_geom_bond_atom_site_label_2
_geom_bond_distance
_geom_bond_site_symmetry_2
K0 Ru0 2.827917 1_454
K0 Ru0 2.827917 1_444
K0 Ru0 2.827917 1_544
K0 Ru0 2.827917 1_445
K0 Mn0 3.265397 1_455
K0 Mn0 3.265397 1_454
K0 Mn0 3.265397 1_445
K0 Mn0 3.265397 1_545
K0 Mn0 3.265397 1_544
K0 Mn0 3.265397 1_554
Mn0 Ru0 2.827917 1_455
Mn0 Ru0 2.827917 1_554
Mn0 Ru0 2.827917 1_545
Mn0 Ru0 2.827917 1_555
