# generated using pymatgen
data_SrIn
_symmetry_space_group_name_H-M   'P 1'
_cell_length_a   6.66984620
_cell_length_b   6.67585992
_cell_length_c   13.86421836
_cell_angle_alpha   101.34789048
_cell_angle_beta   101.33874479
_cell_angle_gamma   100.78099912
_symmetry_Int_Tables_number   1
_chemical_formula_structural   SrIn
_chemical_formula_sum   'Sr8 In8'
_cell_volume   576.85504480
_cell_formula_units_Z   8
loop_
 _symmetry_equiv_pos_site_id
 _symmetry_equiv_pos_as_xyz
  1  'x, y, z'
loop_
 _atom_site_type_symbol
 _atom_site_label
 _atom_site_symmetry_multiplicity
 _atom_site_fract_x
 _atom_site_fract_y
 _atom_site_fract_z
 _atom_site_occupancy
  Sr  Sr0  1  0.72134000  0.41983200  0.63995900  1
  Sr  Sr1  1  0.20930400  0.91052600  0.15497100  1
  Sr  Sr2  1  0.77793400  0.07452300  0.35865400  1
  Sr  Sr3  1  0.30143800  0.50383600  0.34447900  1
  Sr  Sr4  1  0.33134400  0.52864400  0.85781500  1
  Sr  Sr5  1  0.76119300  0.05734700  0.84434000  1
  Sr  Sr6  1  0.16679200  0.96409700  0.65446600  1
  Sr  Sr7  1  0.66818100  0.46843600  0.14294000  1
  In  In0  1  0.87208300  0.62685200  0.42731700  1
  In  In1  1  0.28757000  0.03755800  0.93183400  1
  In  In2  1  0.10480200  0.35520000  0.07041600  1
  In  In3  1  0.20735700  0.44691500  0.57409800  1
  In  In4  1  0.69457000  0.95054300  0.07334800  1
  In  In5  1  0.88151900  0.62247200  0.92595500  1
  In  In6  1  0.60576800  0.85637800  0.56738200  1
  In  In7  1  0.28557200  0.03347600  0.42813600  1
loop_
_geom_bond_atom_site_label_1
_geom_bond_atom_site_label_2
_geom_bond_distance
_geom_bond_site_symmetry_2
Sr0 Sr5 4.074146 1_555
Sr4 Sr6 4.051098 1_545
In0 In6 3.236917 1_555
In0 In3 3.280613 1_655
In0 Sr2 3.437857 1_565
In0 Sr6 3.459821 1_655
In0 Sr3 3.463575 1_655
In0 In7 3.485658 1_665
In0 Sr2 3.523334 1_555
In0 Sr3 3.636008 1_555
In0 Sr0 3.723092 1_555
In0 Sr7 3.771636 1_555
In1 In2 3.155779 1_556
In1 In4 3.240397 1_546
In1 Sr4 3.434794 1_545
In1 In5 3.469429 1_445
In1 Sr1 3.473331 1_546
In1 Sr5 3.518089 1_455
In1 Sr5 3.589134 1_555
In1 Sr4 3.601405 1_555
In1 Sr6 3.683636 1_545
In1 Sr7 3.783962 1_556
In2 In5 3.261970 1_454
In2 Sr7 3.426256 1_455
In2 Sr5 3.471073 1_454
In2 In4 3.479621 1_445
In2 Sr1 3.534806 1_545
In2 Sr1 3.550451 1_555
In2 Sr7 3.585373 1_555
In2 Sr3 3.634838 1_555
In2 Sr4 3.840796 1_554
In3 In7 3.277348 1_555
In3 Sr0 3.418316 1_555
In3 Sr3 3.441675 1_555
In3 In6 3.467305 1_555
In3 Sr6 3.491347 1_555
In3 Sr0 3.519153 1_455
In3 Sr6 3.592986 1_545
In3 Sr4 3.763193 1_555
In3 Sr2 3.788895 1_455
In4 In5 3.284782 1_554
In4 Sr7 3.449212 1_565
In4 Sr1 3.474651 1_655
In4 Sr5 3.480475 1_564
In4 Sr7 3.520992 1_555
In4 Sr1 3.614362 1_555
In4 Sr4 3.744326 1_554
In4 Sr2 3.783537 1_565
In5 Sr1 3.442952 1_656
In5 Sr4 3.445452 1_655
In5 Sr5 3.487140 1_565
In5 Sr4 3.506382 1_555
In5 Sr5 3.603874 1_555
In5 Sr0 3.791600 1_555
In5 Sr7 3.805974 1_556
In6 In7 3.147601 1_565
In6 Sr0 3.433571 1_555
In6 Sr3 3.477584 1_555
In6 Sr6 3.519018 1_555
In6 Sr6 3.584983 1_655
In6 Sr0 3.588400 1_565
In6 Sr5 3.675035 1_565
In6 Sr2 3.762097 1_565
In7 Sr2 3.411100 1_455
In7 Sr6 3.478608 1_545
In7 Sr3 3.526005 1_545
In7 Sr3 3.545922 1_555
In7 Sr2 3.577534 1_555
In7 Sr1 3.624699 1_545
In7 Sr0 3.818779 1_555
