# generated using pymatgen
data_K2Ba6Yb3Bi5O24
_symmetry_space_group_name_H-M   'P 1'
_cell_length_a   13.03283510
_cell_length_b   13.03283510
_cell_length_c   6.18031000
_cell_angle_alpha   90.00000000
_cell_angle_beta   90.00000000
_cell_angle_gamma   141.01153565
_symmetry_Int_Tables_number   1
_chemical_formula_structural   K2Ba6Yb3Bi5O24
_chemical_formula_sum   'K2 Ba6 Yb3 Bi5 O24'
_cell_volume   660.46812681
_cell_formula_units_Z   1
loop_
 _symmetry_equiv_pos_site_id
 _symmetry_equiv_pos_as_xyz
  1  'x, y, z'
loop_
 _atom_site_type_symbol
 _atom_site_label
 _atom_site_symmetry_multiplicity
 _atom_site_fract_x
 _atom_site_fract_y
 _atom_site_fract_z
 _atom_site_occupancy
  K  K0  1  0.50000000  0.00000000  0.50000000  1
  K  K1  1  0.00000000  0.50000000  0.50000000  1
  Ba  Ba0  1  0.37650900  0.12469100  0.00000000  1
  Ba  Ba1  1  0.87530900  0.62349100  0.00000000  1
  Ba  Ba2  1  0.74795400  0.74795400  0.50000000  1
  Ba  Ba3  1  0.62349100  0.87530900  0.00000000  1
  Ba  Ba4  1  0.25204600  0.25204600  0.50000000  1
  Ba  Ba5  1  0.12469100  0.37650900  0.00000000  1
  Yb  Yb0  1  0.00000000  0.00000000  0.00000000  1
  Yb  Yb1  1  0.62828500  0.37171500  0.50000000  1
  Yb  Yb2  1  0.37171500  0.62828500  0.50000000  1
  Bi  Bi0  1  0.50000000  0.50000000  0.00000000  1
  Bi  Bi1  1  0.87491400  0.12508600  0.50000000  1
  Bi  Bi2  1  0.74964000  0.25036000  0.00000000  1
  Bi  Bi3  1  0.25036000  0.74964000  0.00000000  1
  Bi  Bi4  1  0.12508600  0.87491400  0.50000000  1
  O  O0  1  0.36409000  0.11551300  0.50000000  1
  O  O1  1  0.56160700  0.43839300  0.24665000  1
  O  O2  1  0.56160700  0.43839300  0.75335000  1
  O  O3  1  0.43839300  0.56160700  0.24665000  1
  O  O4  1  0.43839300  0.56160700  0.75335000  1
  O  O5  1  0.88448700  0.63591000  0.50000000  1
  O  O6  1  0.74194600  0.74194600  0.00000000  1
  O  O7  1  0.63591000  0.88448700  0.50000000  1
  O  O8  1  0.50000000  0.00000000  0.00000000  1
  O  O9  1  0.06584200  0.93415800  0.25652000  1
  O  O10  1  0.06584200  0.93415800  0.74348000  1
  O  O11  1  0.93415800  0.06584200  0.74348000  1
  O  O12  1  0.93415800  0.06584200  0.25652000  1
  O  O13  1  0.81450200  0.18549800  0.23696100  1
  O  O14  1  0.81450200  0.18549800  0.76303900  1
  O  O15  1  0.68782800  0.31217200  0.77285600  1
  O  O16  1  0.68782800  0.31217200  0.22714400  1
  O  O17  1  0.25805400  0.25805400  0.00000000  1
  O  O18  1  0.00000000  0.50000000  0.00000000  1
  O  O19  1  0.11551300  0.36409000  0.50000000  1
  O  O20  1  0.31217200  0.68782800  0.22714400  1
  O  O21  1  0.31217200  0.68782800  0.77285600  1
  O  O22  1  0.18549800  0.81450200  0.76303900  1
  O  O23  1  0.18549800  0.81450200  0.23696100  1
loop_
_geom_bond_atom_site_label_1
_geom_bond_atom_site_label_2
_geom_bond_distance
_geom_bond_site_symmetry_2
K0 O8 3.090155 1_555
K0 O8 3.090155 1_556
K0 O7 3.090188 1_545
K0 O0 3.090188 1_555
K0 O14 3.143823 1_555
K0 O13 3.143823 1_555
K0 O23 3.143823 1_545
K0 O22 3.143823 1_545
K0 O21 3.147439 1_545
K0 O20 3.147439 1_545
K0 O15 3.147439 1_555
K0 O16 3.147439 1_555
K1 O18 3.090155 1_556
K1 O18 3.090155 1_555
K1 O5 3.090188 1_455
K1 O19 3.090188 1_555
K1 O22 3.143823 1_555
K1 O23 3.143823 1_555
K1 O13 3.143823 1_455
K1 O14 3.143823 1_455
K1 O20 3.147439 1_555
K1 O15 3.147439 1_455
K1 O21 3.147439 1_555
K1 O16 3.147439 1_455
Ba0 O16 2.998622 1_555
Ba0 O15 2.998622 1_554
Ba0 O22 3.006697 1_544
Ba0 O23 3.006697 1_545
Ba0 O8 3.049101 1_555
Ba0 O10 3.073016 1_544
Ba0 O9 3.073016 1_545
Ba0 O1 3.086476 1_555
Ba0 O2 3.086476 1_554
Ba0 O0 3.091839 1_555
Ba0 O0 3.091839 1_554
Ba0 O17 3.094447 1_555
Ba1 O16 2.998622 1_555
Ba1 O15 2.998622 1_554
Ba1 O22 3.006697 1_654
Ba1 O23 3.006697 1_655
Ba1 O18 3.049101 1_655
Ba1 O10 3.073016 1_654
Ba1 O9 3.073016 1_655
Ba1 O1 3.086476 1_555
Ba1 O2 3.086476 1_554
Ba1 O5 3.091839 1_554
Ba1 O5 3.091839 1_555
Ba1 O6 3.094447 1_555
Ba2 O5 3.055806 1_555
Ba2 O7 3.055806 1_555
Ba2 O2 3.065128 1_555
Ba2 O3 3.065128 1_555
Ba2 O4 3.065128 1_555
Ba2 O1 3.065128 1_555
Ba2 O6 3.090597 1_556
Ba2 O6 3.090597 1_555
Ba2 O9 3.112618 1_655
Ba2 O11 3.112618 1_565
Ba2 O12 3.112618 1_565
Ba2 O10 3.112618 1_655
Ba3 O20 2.998622 1_555
Ba3 O21 2.998622 1_554
Ba3 O14 3.006697 1_564
Ba3 O13 3.006697 1_565
Ba3 O8 3.049101 1_565
Ba3 O11 3.073016 1_564
Ba3 O12 3.073016 1_565
Ba3 O4 3.086476 1_554
Ba3 O3 3.086476 1_555
Ba3 O7 3.091839 1_554
Ba3 O7 3.091839 1_555
Ba3 O6 3.094447 1_555
Ba4 O19 3.055806 1_555
Ba4 O0 3.055806 1_555
Ba4 O2 3.065128 1_555
Ba4 O1 3.065128 1_555
Ba4 O4 3.065128 1_555
Ba4 O3 3.065128 1_555
Ba4 O17 3.090597 1_556
Ba4 O17 3.090597 1_555
Ba4 O11 3.112618 1_455
Ba4 O9 3.112618 1_545
Ba4 O10 3.112618 1_545
Ba4 O12 3.112618 1_455
Ba5 O20 2.998622 1_555
Ba5 O21 2.998622 1_554
Ba5 O13 3.006697 1_455
Ba5 O14 3.006697 1_454
Ba5 O18 3.049101 1_555
Ba5 O11 3.073016 1_454
Ba5 O12 3.073016 1_455
Ba5 O3 3.086476 1_555
Ba5 O4 3.086476 1_554
Ba5 O19 3.091839 1_554
Ba5 O19 3.091839 1_555
Ba5 O17 3.094447 1_555
Bi0 O6 2.104549 1_555
Bi0 O17 2.104549 1_555
Bi0 O3 2.148308 1_555
Bi0 O1 2.148308 1_555
Bi0 O2 2.148308 1_554
Bi0 O4 2.148308 1_554
Bi1 O19 2.085988 1_655
Bi1 O7 2.085988 1_545
Bi1 O11 2.093672 1_555
Bi1 O12 2.093672 1_555
Bi1 O14 2.201421 1_555
Bi1 O13 2.201421 1_555
Bi2 O15 2.068211 1_554
Bi2 O16 2.068211 1_555
Bi2 O14 2.164437 1_554
Bi2 O13 2.164437 1_555
Bi2 O18 2.174624 1_655
Bi2 O8 2.174624 1_555
Bi3 O20 2.068211 1_555
Bi3 O21 2.068211 1_554
Bi3 O22 2.164437 1_554
Bi3 O23 2.164437 1_555
Bi3 O18 2.174624 1_555
Bi3 O8 2.174624 1_565
Bi4 O0 2.085988 1_565
Bi4 O5 2.085988 1_455
Bi4 O10 2.093672 1_555
Bi4 O9 2.093672 1_555
Bi4 O22 2.201421 1_555
Bi4 O23 2.201421 1_555
O0 Yb1 2.265447 1_555
O1 Yb1 2.266263 1_555
O2 Yb1 2.266263 1_555
O3 Yb2 2.266263 1_555
O4 Yb2 2.266263 1_555
O5 Yb1 2.265447 1_555
O6 Yb0 2.244664 1_665
O7 Yb2 2.265447 1_555
O9 Yb0 2.265126 1_565
O10 Yb0 2.265126 1_566
O11 Yb0 2.265126 1_656
O12 Yb0 2.265126 1_655
O15 Yb1 2.232547 1_555
O16 Yb1 2.232547 1_555
O17 Yb0 2.244664 1_555
O19 Yb2 2.265447 1_555
O20 Yb2 2.232547 1_555
O21 Yb2 2.232547 1_555
