# generated using pymatgen
data_Tb5(RuO6)2
_symmetry_space_group_name_H-M   'P 1'
_cell_length_a   5.80401093
_cell_length_b   6.84018046
_cell_length_c   7.29700242
_cell_angle_alpha   105.55559316
_cell_angle_beta   90.00298720
_cell_angle_gamma   115.10335015
_symmetry_Int_Tables_number   1
_chemical_formula_structural   Tb5(RuO6)2
_chemical_formula_sum   'Tb5 Ru2 O12'
_cell_volume   250.56166891
_cell_formula_units_Z   1
loop_
 _symmetry_equiv_pos_site_id
 _symmetry_equiv_pos_as_xyz
  1  'x, y, z'
loop_
 _atom_site_type_symbol
 _atom_site_label
 _atom_site_symmetry_multiplicity
 _atom_site_fract_x
 _atom_site_fract_y
 _atom_site_fract_z
 _atom_site_occupancy
  Tb  Tb0  1  0.69247162  0.38491782  0.82949180  1
  Tb  Tb1  1  0.69744211  0.39488820  0.36116127  1
  Tb  Tb2  1  0.00000463  0.00000218  0.50000073  1
  Tb  Tb3  1  0.30255615  0.60511144  0.63883849  1
  Tb  Tb4  1  0.30752810  0.61508285  0.17051070  1
  Ru  Ru0  1  0.25172439  -0.00000462  0.00000192  1
  Ru  Ru1  1  0.74828292  0.00000448  -0.00000280  1
  O  O0  1  0.40312467  0.30777640  0.57538433  1
  O  O1  1  0.57436275  0.67433146  0.91821158  1
  O  O2  1  0.89991692  0.32572080  0.08181854  1
  O  O3  1  0.09544208  0.69225769  0.42462061  1
  O  O4  1  0.00028780  0.00055551  0.18289974  1
  O  O5  1  0.50012460  0.00027404  0.80327175  1
  O  O6  1  0.90455852  0.30774082  0.57538118  1
  O  O7  1  0.10007503  0.67426724  0.91817618  1
  O  O8  1  0.42564168  0.32568171  0.08179183  1
  O  O9  1  0.59687338  0.69222146  0.42461453  1
  O  O10  1  0.49986202  0.99972680  0.19672898  1
  O  O11  1  0.99972163  0.99944373  0.81709864  1
loop_
_geom_bond_atom_site_label_1
_geom_bond_atom_site_label_2
_geom_bond_distance
_geom_bond_site_symmetry_2
O0 Tb3 2.278988 1_555
O0 Tb0 2.293443 1_555
O0 Tb1 2.313615 1_555
O0 Tb2 2.325547 1_555
O1 Ru1 1.927816 1_566
O1 Tb0 2.296115 1_555
O1 Tb3 2.391009 1_555
O1 Tb4 2.412477 1_556
O2 Ru1 1.928100 1_555
O2 Tb4 2.296295 1_655
O2 Tb1 2.390513 1_555
O2 Tb0 2.411855 1_554
O3 Tb1 2.279424 1_455
O3 Tb4 2.293190 1_555
O3 Tb3 2.313301 1_555
O3 Tb2 2.325706 1_565
O4 Ru1 1.978134 1_455
O4 Ru0 1.978147 1_555
O4 Tb2 2.314904 1_555
O5 Ru1 2.034365 1_556
O5 Ru0 2.034375 1_556
O5 Tb0 2.333019 1_555
O5 Tb3 2.385611 1_545
O6 Tb3 2.279419 1_655
O6 Tb0 2.293200 1_555
O6 Tb1 2.313325 1_555
O6 Tb2 2.325699 1_655
O7 Ru0 1.928168 1_566
O7 Tb0 2.296232 1_455
O7 Tb3 2.390490 1_555
O7 Tb4 2.411876 1_556
O8 Ru0 1.927893 1_555
O8 Tb4 2.296055 1_555
O8 Tb1 2.390995 1_555
O8 Tb0 2.412458 1_554
O9 Tb1 2.278978 1_555
O9 Tb4 2.293423 1_555
O9 Tb3 2.313618 1_555
O9 Tb2 2.325606 1_665
O10 Ru0 2.034285 1_565
O10 Ru1 2.034469 1_565
O10 Tb4 2.333022 1_555
O10 Tb1 2.385603 1_565
O11 Ru0 1.978126 1_666
O11 Ru1 1.978161 1_566
O11 Tb2 2.314891 1_665
