# generated using pymatgen
data_Sm5Br11
_symmetry_space_group_name_H-M   'P 1'
_cell_length_a   7.03953252
_cell_length_b   7.52125711
_cell_length_c   36.12403789
_cell_angle_alpha   90.00000000
_cell_angle_beta   90.00000000
_cell_angle_gamma   89.91339968
_symmetry_Int_Tables_number   1
_chemical_formula_structural   Sm5Br11
_chemical_formula_sum   'Sm20 Br44'
_cell_volume   1912.62596441
_cell_formula_units_Z   4
loop_
 _symmetry_equiv_pos_site_id
 _symmetry_equiv_pos_as_xyz
  1  'x, y, z'
loop_
 _atom_site_type_symbol
 _atom_site_label
 _atom_site_symmetry_multiplicity
 _atom_site_fract_x
 _atom_site_fract_y
 _atom_site_fract_z
 _atom_site_occupancy
  Sm  Sm0  1  0.46764151  0.84834396  0.44427999  1
  Sm  Sm1  1  0.02128175  0.72090659  0.15363909  1
  Sm  Sm2  1  0.97871825  0.27909341  0.65363909  1
  Sm  Sm3  1  0.53235849  0.15165604  0.55572001  1
  Sm  Sm4  1  0.01612372  0.33129970  0.25000000  1
  Sm  Sm5  1  0.98387628  0.66870030  0.75000000  1
  Sm  Sm6  1  0.53377691  0.77270176  0.65423847  1
  Sm  Sm7  1  0.46764151  0.84834396  0.05572001  1
  Sm  Sm8  1  0.53377691  0.77270176  0.84576153  1
  Sm  Sm9  1  0.52031486  0.15981514  0.75000000  1
  Sm  Sm10  1  0.02907335  0.34632891  0.05648427  1
  Sm  Sm11  1  0.47968514  0.84018486  0.25000000  1
  Sm  Sm12  1  0.46622309  0.22729824  0.15423847  1
  Sm  Sm13  1  0.53235849  0.15165604  0.94427999  1
  Sm  Sm14  1  0.02907335  0.34632891  0.44351573  1
  Sm  Sm15  1  0.46622309  0.22729824  0.34576153  1
  Sm  Sm16  1  0.97092665  0.65367109  0.94351573  1
  Sm  Sm17  1  0.97092665  0.65367109  0.55648427  1
  Sm  Sm18  1  0.02128175  0.72090659  0.34636091  1
  Sm  Sm19  1  0.97871825  0.27909341  0.84636091  1
  Br  Br0  1  0.32739433  0.83448004  0.58359468  1
  Br  Br1  1  0.18302988  0.33788574  0.58329194  1
  Br  Br2  1  0.81638651  0.97322745  0.79824415  1
  Br  Br3  1  0.68304881  0.46348947  0.60411143  1
  Br  Br4  1  0.18361349  0.02677255  0.20175585  1
  Br  Br5  1  0.81697012  0.66211426  0.08329194  1
  Br  Br6  1  0.68304881  0.46348947  0.89588857  1
  Br  Br7  1  0.26284251  0.10939021  0.49207962  1
  Br  Br8  1  0.85353195  0.37142742  0.17087099  1
  Br  Br9  1  0.14646805  0.62857258  0.82912901  1
  Br  Br10  1  0.81697012  0.66211426  0.41670806  1
  Br  Br11  1  0.18361349  0.02677255  0.29824415  1
  Br  Br12  1  0.82440535  0.96656336  0.60416852  1
  Br  Br13  1  0.86915392  0.69125207  0.25000000  1
  Br  Br14  1  0.13084608  0.30874793  0.75000000  1
  Br  Br15  1  0.23449838  0.60793239  0.49192352  1
  Br  Br16  1  0.35583834  0.11891214  0.82854271  1
  Br  Br17  1  0.73715749  0.89060979  0.99207962  1
  Br  Br18  1  0.69262521  0.46782235  0.70194648  1
  Br  Br19  1  0.76550162  0.39206761  0.99192352  1
  Br  Br20  1  0.85353195  0.37142742  0.32912901  1
  Br  Br21  1  0.67260567  0.16551996  0.41640532  1
  Br  Br22  1  0.35583834  0.11891214  0.67145729  1
  Br  Br23  1  0.30737479  0.53217765  0.20194648  1
  Br  Br24  1  0.76550162  0.39206761  0.50807648  1
  Br  Br25  1  0.69262521  0.46782235  0.79805352  1
  Br  Br26  1  0.73715749  0.89060979  0.50792038  1
  Br  Br27  1  0.38612578  0.79474592  0.75000000  1
  Br  Br28  1  0.61387422  0.20525408  0.25000000  1
  Br  Br29  1  0.26284251  0.10939021  0.00792038  1
  Br  Br30  1  0.67260567  0.16551996  0.08359468  1
  Br  Br31  1  0.23449838  0.60793239  0.00807648  1
  Br  Br32  1  0.64416166  0.88108786  0.32854271  1
  Br  Br33  1  0.64416166  0.88108786  0.17145729  1
  Br  Br34  1  0.17559465  0.03343664  0.39583148  1
  Br  Br35  1  0.14646805  0.62857258  0.67087099  1
  Br  Br36  1  0.30737479  0.53217765  0.29805352  1
  Br  Br37  1  0.81638651  0.97322745  0.70175585  1
  Br  Br38  1  0.17559465  0.03343664  0.10416852  1
  Br  Br39  1  0.31695119  0.53651053  0.39588857  1
  Br  Br40  1  0.18302988  0.33788574  0.91670806  1
  Br  Br41  1  0.82440535  0.96656336  0.89583148  1
  Br  Br42  1  0.31695119  0.53651053  0.10411143  1
  Br  Br43  1  0.32739433  0.83448004  0.91640532  1
loop_
_geom_bond_atom_site_label_1
_geom_bond_atom_site_label_2
_geom_bond_distance
_geom_bond_site_symmetry_2
Br0 Sm3 2.965986 1_565
Br0 Sm6 2.972707 1_555
Br0 Sm17 3.019220 1_455
Br1 Sm2 2.953618 1_455
Br1 Sm17 2.966069 1_455
Br1 Sm3 2.998459 1_555
Br2 Sm8 3.031182 1_555
Br2 Sm9 3.056434 1_565
Br2 Sm19 3.102793 1_565
Br2 Sm5 3.108908 1_555
Br3 Sm17 3.020215 1_555
Br3 Sm2 3.073740 1_555
Br3 Sm3 3.112785 1_555
Br3 Sm6 3.128016 1_555
Br4 Sm12 3.031182 1_555
Br4 Sm11 3.056434 1_545
Br4 Sm1 3.102793 1_545
Br4 Sm4 3.108908 1_555
Br5 Sm1 2.953618 1_655
Br5 Sm10 2.966069 1_655
Br5 Sm7 2.998459 1_555
Br6 Sm16 3.020215 1_555
Br6 Sm19 3.073740 1_555
Br6 Sm13 3.112785 1_555
Br6 Sm8 3.128016 1_555
Br7 Sm0 2.984356 1_545
Br7 Sm14 2.992101 1_555
Br7 Sm3 2.997943 1_555
Br8 Sm1 2.949658 1_655
Br8 Sm12 2.996451 1_555
Br8 Sm4 3.093683 1_655
Br9 Sm19 2.949658 1_455
Br9 Sm8 2.996451 1_555
Br9 Sm5 3.093683 1_455
Br10 Sm18 2.953618 1_655
Br10 Sm14 2.966069 1_655
Br10 Sm0 2.998459 1_555
Br11 Sm15 3.031182 1_555
Br11 Sm11 3.056434 1_545
Br11 Sm18 3.102793 1_545
Br11 Sm4 3.108908 1_555
Br12 Sm3 3.036286 1_565
Br12 Sm17 3.092237 1_555
Br12 Sm6 3.097125 1_555
Br12 Sm2 3.147507 1_565
Br13 Sm4 2.896786 1_655
Br13 Sm11 2.960114 1_555
Br13 Sm1 3.648876 1_655
Br13 Sm18 3.648876 1_655
Br14 Sm5 2.896786 1_455
Br14 Sm9 2.960114 1_555
Br14 Sm19 3.648876 1_455
Br14 Sm2 3.648876 1_455
Br15 Sm0 2.989022 1_555
Br15 Sm17 2.999690 1_455
Br15 Sm14 3.004845 1_555
Br16 Sm8 2.954073 1_545
Br16 Sm19 2.983921 1_455
Br16 Sm9 3.080011 1_555
Br17 Sm13 2.984356 1_565
Br17 Sm16 2.992101 1_555
Br17 Sm7 2.997943 1_556
Br18 Sm2 3.017871 1_555
Br18 Sm6 3.077497 1_555
Br18 Sm5 3.083661 1_555
Br18 Sm9 3.140027 1_555
Br19 Sm13 2.989022 1_555
Br19 Sm10 2.999690 1_656
Br19 Sm16 3.004845 1_555
Br20 Sm18 2.949658 1_655
Br20 Sm15 2.996451 1_555
Br20 Sm4 3.093683 1_655
Br21 Sm0 2.965986 1_545
Br21 Sm15 2.972707 1_555
Br21 Sm14 3.019220 1_655
Br22 Sm6 2.954073 1_545
Br22 Sm2 2.983921 1_455
Br22 Sm9 3.080011 1_555
Br23 Sm1 3.017871 1_555
Br23 Sm12 3.077497 1_555
Br23 Sm4 3.083661 1_555
Br23 Sm11 3.140027 1_555
Br24 Sm3 2.989022 1_555
Br24 Sm14 2.999690 1_655
Br24 Sm17 3.004845 1_555
Br25 Sm19 3.017871 1_555
Br25 Sm8 3.077497 1_555
Br25 Sm5 3.083661 1_555
Br25 Sm9 3.140027 1_555
Br26 Sm3 2.984356 1_565
Br26 Sm17 2.992101 1_555
Br26 Sm0 2.997943 1_555
Br27 Sm9 2.905076 1_565
Br27 Sm5 2.987489 1_455
Br27 Sm6 3.615801 1_555
Br27 Sm8 3.615801 1_555
Br28 Sm11 2.905076 1_545
Br28 Sm4 2.987489 1_655
Br28 Sm15 3.615801 1_555
Br28 Sm12 3.615801 1_555
Br29 Sm7 2.984356 1_545
Br29 Sm10 2.992101 1_555
Br29 Sm13 2.997943 1_554
Br30 Sm7 2.965986 1_545
Br30 Sm12 2.972707 1_555
Br30 Sm10 3.019220 1_655
Br31 Sm7 2.989022 1_555
Br31 Sm16 2.999690 1_454
Br31 Sm10 3.004845 1_555
Br32 Sm15 2.954073 1_565
Br32 Sm18 2.983921 1_655
Br32 Sm11 3.080011 1_555
Br33 Sm12 2.954073 1_565
Br33 Sm1 2.983921 1_655
Br33 Sm11 3.080011 1_555
Br34 Sm0 3.036286 1_545
Br34 Sm14 3.092237 1_555
Br34 Sm15 3.097125 1_555
Br34 Sm18 3.147507 1_545
Br35 Sm2 2.949658 1_455
Br35 Sm6 2.996451 1_555
Br35 Sm5 3.093683 1_455
Br36 Sm18 3.017871 1_555
Br36 Sm15 3.077497 1_555
Br36 Sm4 3.083661 1_555
Br36 Sm11 3.140027 1_555
Br37 Sm6 3.031182 1_555
Br37 Sm9 3.056434 1_565
Br37 Sm2 3.102793 1_565
Br37 Sm5 3.108908 1_555
Br38 Sm7 3.036286 1_545
Br38 Sm10 3.092237 1_555
Br38 Sm12 3.097125 1_555
Br38 Sm1 3.147507 1_545
Br39 Sm14 3.020215 1_555
Br39 Sm18 3.073740 1_555
Br39 Sm0 3.112785 1_555
Br39 Sm15 3.128016 1_555
Br40 Sm19 2.953618 1_455
Br40 Sm16 2.966069 1_455
Br40 Sm13 2.998459 1_555
Br41 Sm13 3.036286 1_565
Br41 Sm16 3.092237 1_555
Br41 Sm8 3.097125 1_555
Br41 Sm19 3.147507 1_565
Br42 Sm10 3.020215 1_555
Br42 Sm1 3.073740 1_555
Br42 Sm7 3.112785 1_555
Br42 Sm12 3.128016 1_555
Br43 Sm13 2.965986 1_565
Br43 Sm8 2.972707 1_555
Br43 Sm16 3.019220 1_455
