# generated using pymatgen
data_BN
_symmetry_space_group_name_H-M   'P 1'
_cell_length_a   2.50188883
_cell_length_b   2.50188814
_cell_length_c   6.85461568
_cell_angle_alpha   90.00000000
_cell_angle_beta   90.00000000
_cell_angle_gamma   119.99998283
_symmetry_Int_Tables_number   1
_chemical_formula_structural   BN
_chemical_formula_sum   'B2 N2'
_cell_volume   37.15777607
_cell_formula_units_Z   2
loop_
 _symmetry_equiv_pos_site_id
 _symmetry_equiv_pos_as_xyz
  1  'x, y, z'
loop_
 _atom_site_type_symbol
 _atom_site_label
 _atom_site_symmetry_multiplicity
 _atom_site_fract_x
 _atom_site_fract_y
 _atom_site_fract_z
 _atom_site_occupancy
  B  B0  1  0.00000000  0.00000000  0.02499780  1
  B  B1  1  0.00000000  -0.00000000  0.52499780  1
  N  N0  1  0.66666700  0.33333300  0.52500220  1
  N  N1  1  0.33333300  0.66666700  0.02500220  1
loop_
_geom_bond_atom_site_label_1
_geom_bond_atom_site_label_2
_geom_bond_distance
_geom_bond_site_symmetry_2
B0 N1 1.444464 1_545
B0 N1 1.444467 1_555
B0 N1 1.444467 1_445
B1 N0 1.444464 1_455
B1 N0 1.444467 1_445
B1 N0 1.444467 1_555
