# generated using pymatgen
data_BaH2O3
_symmetry_space_group_name_H-M   'P 1'
_cell_length_a   4.02436300
_cell_length_b   6.14645500
_cell_length_c   6.77330000
_cell_angle_alpha   90.00000000
_cell_angle_beta   90.00000000
_cell_angle_gamma   90.00000000
_symmetry_Int_Tables_number   1
_chemical_formula_structural   BaH2O3
_chemical_formula_sum   'Ba2 H4 O6'
_cell_volume   167.54140975
_cell_formula_units_Z   2
loop_
 _symmetry_equiv_pos_site_id
 _symmetry_equiv_pos_as_xyz
  1  'x, y, z'
loop_
 _atom_site_type_symbol
 _atom_site_label
 _atom_site_symmetry_multiplicity
 _atom_site_fract_x
 _atom_site_fract_y
 _atom_site_fract_z
 _atom_site_occupancy
  Ba  Ba0  1  0.00000000  0.16386700  0.74516000  1
  Ba  Ba1  1  0.00000000  0.83613300  0.24516000  1
  H  H0  1  0.20574100  0.63168500  0.80062800  1
  H  H1  1  0.79425900  0.63168500  0.80062800  1
  H  H2  1  0.79425900  0.36831500  0.30062800  1
  H  H3  1  0.20574100  0.36831500  0.30062800  1
  O  O0  1  0.00000000  0.71732600  0.84659000  1
  O  O1  1  0.00000000  0.28267400  0.34659000  1
  O  O2  1  0.50000000  0.47146800  0.74154100  1
  O  O3  1  0.50000000  0.52853200  0.24154100  1
  O  O4  1  0.50000000  0.94308400  0.52251100  1
  O  O5  1  0.50000000  0.05691600  0.02251100  1
loop_
_geom_bond_atom_site_label_1
_geom_bond_atom_site_label_2
_geom_bond_distance
_geom_bond_site_symmetry_2
Ba0 O2 2.761169 1_455
Ba0 O2 2.761169 1_555
Ba0 O1 2.796655 1_555
Ba0 O0 2.829322 1_545
Ba0 O5 2.830208 1_556
Ba0 O5 2.830208 1_456
Ba0 O4 2.857391 1_545
Ba0 O4 2.857391 1_445
Ba1 O3 2.761169 1_455
Ba1 O3 2.761169 1_555
Ba1 O0 2.796655 1_554
Ba1 O1 2.829322 1_565
Ba1 O4 2.830208 1_455
Ba1 O4 2.830208 1_555
Ba1 O5 2.857391 1_465
Ba1 O5 2.857391 1_565
H0 O0 1.029343 1_555
H0 O2 1.591313 1_555
H1 O0 1.029343 1_655
H1 O2 1.591313 1_555
H2 O1 1.029343 1_655
H2 O3 1.591313 1_555
H3 O1 1.029343 1_555
H3 O3 1.591313 1_555
