# generated using pymatgen
data_K2SbF5
_symmetry_space_group_name_H-M   'P 1'
_cell_length_a   7.30810300
_cell_length_b   7.36429600
_cell_length_c   12.99962271
_cell_angle_alpha   63.99910022
_cell_angle_beta   90.00000000
_cell_angle_gamma   90.00000000
_symmetry_Int_Tables_number   1
_chemical_formula_structural   K2SbF5
_chemical_formula_sum   'K8 Sb4 F20'
_cell_volume   628.81588482
_cell_formula_units_Z   4
loop_
 _symmetry_equiv_pos_site_id
 _symmetry_equiv_pos_as_xyz
  1  'x, y, z'
loop_
 _atom_site_type_symbol
 _atom_site_label
 _atom_site_symmetry_multiplicity
 _atom_site_fract_x
 _atom_site_fract_y
 _atom_site_fract_z
 _atom_site_occupancy
  K  K0  1  0.75541000  0.06074400  0.43883600  1
  K  K1  1  0.75332200  0.49807500  0.09255500  1
  K  K2  1  0.25541000  0.93925600  0.06116400  1
  K  K3  1  0.74459000  0.06074400  0.93883600  1
  K  K4  1  0.24667800  0.50192500  0.90744500  1
  K  K5  1  0.25332200  0.50192500  0.40744500  1
  K  K6  1  0.74667800  0.49807500  0.59255500  1
  K  K7  1  0.24459000  0.93925600  0.56116400  1
  Sb  Sb0  1  0.75496800  0.81384800  0.25402000  1
  Sb  Sb1  1  0.24503200  0.18615200  0.74598000  1
  Sb  Sb2  1  0.74503200  0.81384800  0.75402000  1
  Sb  Sb3  1  0.25496800  0.18615200  0.24598000  1
  F  F0  1  0.92889200  0.79092200  0.63379500  1
  F  F1  1  0.96102100  0.74865600  0.38322900  1
  F  F2  1  0.94067000  0.79805100  0.13284300  1
  F  F3  1  0.03897900  0.25134400  0.61677100  1
  F  F4  1  0.44067000  0.20194900  0.36715700  1
  F  F5  1  0.53897900  0.74865600  0.88322900  1
  F  F6  1  0.23938400  0.48262700  0.68834100  1
  F  F7  1  0.42889200  0.20907800  0.86620500  1
  F  F8  1  0.46102100  0.25134400  0.11677100  1
  F  F9  1  0.07110800  0.20907800  0.36620500  1
  F  F10  1  0.05933000  0.20194900  0.86715700  1
  F  F11  1  0.55933000  0.79805100  0.63284300  1
  F  F12  1  0.57110800  0.79092200  0.13379500  1
  F  F13  1  0.26061600  0.48262700  0.18834100  1
  F  F14  1  0.73938400  0.51737300  0.81165900  1
  F  F15  1  0.45032200  0.26103400  0.61591700  1
  F  F16  1  0.95032200  0.73896600  0.88408300  1
  F  F17  1  0.76061600  0.51737300  0.31165900  1
  F  F18  1  0.04967800  0.26103400  0.11591700  1
  F  F19  1  0.54967800  0.73896600  0.38408300  1
loop_
_geom_bond_atom_site_label_1
_geom_bond_atom_site_label_2
_geom_bond_distance
_geom_bond_site_symmetry_2
F0 Sb2 2.123180 1_555
F0 K7 2.550179 1_655
F0 K0 2.750183 1_565
F0 K6 2.779450 1_555
F1 Sb0 2.147639 1_555
F1 K5 2.731719 1_655
F1 K6 2.976755 1_555
F1 K0 3.085336 1_565
F2 Sb0 2.120716 1_555
F2 K2 2.527991 1_655
F2 K3 2.806908 1_564
F2 K1 2.836100 1_555
F3 Sb1 2.147639 1_555
F3 K6 2.731719 1_455
F3 K5 2.976755 1_555
F3 K7 3.085336 1_545
F4 Sb3 2.120716 1_555
F4 K0 2.527991 1_555
F4 K7 2.806908 1_545
F4 K5 2.836100 1_555
F5 Sb2 2.147639 1_555
F5 K4 2.731719 1_555
F5 K1 2.976755 1_556
F5 K3 3.085336 1_565
F6 Sb1 1.973758 1_555
F6 K4 2.913860 1_555
F6 K7 3.027937 1_555
F7 Sb1 2.123180 1_555
F7 K3 2.550179 1_555
F7 K2 2.750183 1_546
F7 K4 2.779450 1_555
F8 Sb3 2.147639 1_555
F8 K1 2.731719 1_555
F8 K4 2.976755 1_554
F8 K2 3.085336 1_545
F9 Sb3 2.123180 1_555
F9 K0 2.550179 1_455
F9 K7 2.750183 1_545
F9 K5 2.779450 1_555
F10 Sb1 2.120716 1_555
F10 K3 2.527991 1_455
F10 K2 2.806908 1_546
F10 K4 2.836100 1_555
F11 Sb2 2.120716 1_555
F11 K7 2.527991 1_555
F11 K0 2.806908 1_565
F11 K6 2.836100 1_555
F12 Sb0 2.123180 1_555
F12 K2 2.550179 1_555
F12 K3 2.750183 1_564
F12 K1 2.779450 1_555
F13 Sb3 1.973758 1_555
F13 K5 2.913860 1_555
F13 K2 3.027937 1_555
F14 Sb2 1.973758 1_555
F14 K6 2.913860 1_555
F14 K3 3.027937 1_555
F15 Sb1 2.143866 1_555
F15 K6 2.713921 1_555
F15 K5 2.889464 1_555
F15 K7 3.140270 1_545
F16 Sb2 2.143866 1_555
F16 K4 2.713921 1_655
F16 K1 2.889464 1_556
F16 K3 3.140270 1_565
F17 Sb0 1.973758 1_555
F17 K1 2.913860 1_555
F17 K0 3.027937 1_555
F18 Sb3 2.143866 1_555
F18 K1 2.713921 1_455
F18 K4 2.889464 1_554
F18 K2 3.140270 1_545
F19 Sb0 2.143866 1_555
F19 K5 2.713921 1_555
F19 K6 2.889464 1_555
F19 K0 3.140270 1_565
