# generated using pymatgen
data_BaBPO5
_symmetry_space_group_name_H-M   'P 1'
_cell_length_a   7.22841523
_cell_length_b   7.22841523
_cell_length_c   7.06308600
_cell_angle_alpha   90.00000000
_cell_angle_beta   90.00000000
_cell_angle_gamma   119.99999298
_symmetry_Int_Tables_number   1
_chemical_formula_structural   BaBPO5
_chemical_formula_sum   'Ba3 B3 P3 O15'
_cell_volume   319.60336382
_cell_formula_units_Z   3
loop_
 _symmetry_equiv_pos_site_id
 _symmetry_equiv_pos_as_xyz
  1  'x, y, z'
loop_
 _atom_site_type_symbol
 _atom_site_label
 _atom_site_symmetry_multiplicity
 _atom_site_fract_x
 _atom_site_fract_y
 _atom_site_fract_z
 _atom_site_occupancy
  Ba  Ba0  1  0.60657500  0.00000000  0.66666700  1
  Ba  Ba1  1  0.39342500  0.39342500  0.00000000  1
  Ba  Ba2  1  0.00000000  0.60657500  0.33333300  1
  B  B0  1  0.90716300  0.90716300  0.00000000  1
  B  B1  1  0.00000000  0.09283700  0.33333300  1
  B  B2  1  0.09283700  0.00000000  0.66666700  1
  P  P0  1  0.61234600  0.00000000  0.16666700  1
  P  P1  1  0.38765400  0.38765400  0.50000000  1
  P  P2  1  0.00000000  0.61234600  0.83333300  1
  O  O0  1  0.96037100  0.96037100  0.50000000  1
  O  O1  1  0.03962900  0.00000000  0.16666700  1
  O  O2  1  0.00000000  0.03962900  0.83333300  1
  O  O3  1  0.43189600  0.85740400  0.29903800  1
  O  O4  1  0.14259600  0.57449200  0.96570400  1
  O  O5  1  0.42550800  0.56810400  0.63237100  1
  O  O6  1  0.13855600  0.81813100  0.70281300  1
  O  O7  1  0.18186900  0.32042600  0.36948000  1
  O  O8  1  0.67957400  0.86144400  0.03614600  1
  O  O9  1  0.32042600  0.18186900  0.63052000  1
  O  O10  1  0.86144400  0.67957400  0.96385400  1
  O  O11  1  0.81813100  0.13855600  0.29718700  1
  O  O12  1  0.85740400  0.43189600  0.70096200  1
  O  O13  1  0.56810400  0.42550800  0.36762900  1
  O  O14  1  0.57449200  0.14259600  0.03429600  1
loop_
_geom_bond_atom_site_label_1
_geom_bond_atom_site_label_2
_geom_bond_distance
_geom_bond_site_symmetry_2
Ba0 O12 2.726179 1_555
Ba0 O5 2.726180 1_545
Ba0 O14 2.845621 1_556
Ba0 O3 2.845621 1_545
Ba0 O8 2.936040 1_546
Ba0 O11 2.936049 1_555
Ba0 O2 2.956449 1_655
Ba0 O0 2.956452 1_545
Ba0 O9 2.964943 1_555
Ba0 O6 2.964950 1_545
Ba1 O14 2.726179 1_555
Ba1 O4 2.726179 1_554
Ba1 O5 2.845621 1_554
Ba1 O13 2.845621 1_555
Ba1 O9 2.936049 1_554
Ba1 O7 2.936049 1_555
Ba1 O1 2.956452 1_555
Ba1 O2 2.956452 1_554
Ba1 O8 2.964949 1_555
Ba1 O10 2.964949 1_554
Ba2 O3 2.726179 1_555
Ba2 O13 2.726180 1_455
Ba2 O4 2.845621 1_554
Ba2 O12 2.845621 1_455
Ba2 O10 2.936040 1_454
Ba2 O6 2.936049 1_555
Ba2 O1 2.956449 1_565
Ba2 O0 2.956452 1_455
Ba2 O7 2.964943 1_555
Ba2 O11 2.964950 1_455
B0 O1 1.452713 1_665
B0 O2 1.452713 1_664
B0 O8 1.528759 1_555
B0 O10 1.528759 1_554
B1 O1 1.452707 1_555
B1 O0 1.452713 1_445
B1 O11 1.528752 1_455
B1 O7 1.528758 1_555
B2 O2 1.452707 1_555
B2 O0 1.452713 1_445
B2 O6 1.528752 1_545
B2 O9 1.528758 1_555
O3 P0 1.514419 1_565
O4 P2 1.514419 1_555
O5 P1 1.514419 1_555
O6 P2 1.604930 1_555
O7 P1 1.604931 1_555
O8 P0 1.604929 1_565
O9 P1 1.604931 1_555
O10 P2 1.604929 1_655
O11 P0 1.604930 1_555
O12 P2 1.514419 1_655
O13 P1 1.514419 1_555
O14 P0 1.514419 1_555
