# generated using pymatgen
data_Er7(CuTe4)3
_symmetry_space_group_name_H-M   'P 1'
_cell_length_a   7.44890602
_cell_length_b   7.44890602
_cell_length_c   14.21739770
_cell_angle_alpha   85.01470505
_cell_angle_beta   85.01470505
_cell_angle_gamma   119.32648584
_symmetry_Int_Tables_number   1
_chemical_formula_structural   Er7(CuTe4)3
_chemical_formula_sum   'Er7 Cu3 Te12'
_cell_volume   677.51414447
_cell_formula_units_Z   1
loop_
 _symmetry_equiv_pos_site_id
 _symmetry_equiv_pos_as_xyz
  1  'x, y, z'
loop_
 _atom_site_type_symbol
 _atom_site_label
 _atom_site_symmetry_multiplicity
 _atom_site_fract_x
 _atom_site_fract_y
 _atom_site_fract_z
 _atom_site_occupancy
  Er  Er0  1  0.58179900  0.24961000  0.25321200  1
  Er  Er1  1  0.08429200  0.41651100  0.74950800  1
  Er  Er2  1  0.24961000  0.58179900  0.25321200  1
  Er  Er3  1  0.33194300  0.33194300  0.00500200  1
  Er  Er4  1  0.74904200  0.74904200  0.74953700  1
  Er  Er5  1  0.91701500  0.91701500  0.25313200  1
  Er  Er6  1  0.41651100  0.08429200  0.74950800  1
  Cu  Cu0  1  0.81320600  0.47949600  0.56043500  1
  Cu  Cu1  1  0.47949600  0.81320600  0.56043500  1
  Cu  Cu2  1  0.14624000  0.14624000  0.56038400  1
  Te  Te0  1  0.12779400  0.79449400  0.61641600  1
  Te  Te1  1  0.29276500  0.95831200  0.12294800  1
  Te  Te2  1  0.79449400  0.12779400  0.61641600  1
  Te  Te3  1  0.95831200  0.29276500  0.12294800  1
  Te  Te4  1  0.71015900  0.37477600  0.87481300  1
  Te  Te5  1  0.46164000  0.46164000  0.61581000  1
  Te  Te6  1  0.87472200  0.54142700  0.37532600  1
  Te  Te7  1  0.62652600  0.62652600  0.12265900  1
  Te  Te8  1  0.37477600  0.71015900  0.87481300  1
  Te  Te9  1  0.54142700  0.87472200  0.37532600  1
  Te  Te10  1  0.04013700  0.04013700  0.87499700  1
  Te  Te11  1  0.20734000  0.20734000  0.37624400  1
loop_
_geom_bond_atom_site_label_1
_geom_bond_atom_site_label_2
_geom_bond_distance
_geom_bond_site_symmetry_2
Er0 Te11 3.022426 1_555
Er0 Te9 3.024357 1_545
Er0 Te6 3.027937 1_555
Er0 Te7 3.083729 1_555
Er0 Te3 3.083791 1_555
Er0 Te1 3.096576 1_545
Er1 Te4 3.037976 1_455
Er1 Te10 3.045771 1_555
Er1 Te8 3.057979 1_555
Er1 Te5 3.108328 1_555
Er1 Te0 3.112338 1_555
Er1 Te2 3.120114 1_455
Er2 Te11 3.022426 1_555
Er2 Te6 3.024357 1_455
Er2 Te9 3.027937 1_555
Er2 Te7 3.083729 1_555
Er2 Te1 3.083791 1_555
Er2 Te3 3.096576 1_455
Er3 Te3 2.991854 1_455
Er3 Te1 2.991854 1_545
Er3 Te7 2.997915 1_555
Er3 Te4 3.094429 1_554
Er3 Te8 3.094429 1_554
Er3 Te10 3.103879 1_554
Er4 Te4 3.047097 1_555
Er4 Te8 3.047097 1_555
Er4 Te10 3.053489 1_665
Er4 Te0 3.111474 1_655
Er4 Te2 3.111474 1_565
Er4 Te5 3.115503 1_555
Er5 Te9 3.023472 1_555
Er5 Te6 3.023472 1_555
Er5 Te11 3.025198 1_665
Er5 Te1 3.084094 1_655
Er5 Te3 3.084094 1_565
Er5 Te7 3.100643 1_555
Er6 Te8 3.037976 1_545
Er6 Te10 3.045771 1_555
Er6 Te4 3.057979 1_555
Er6 Te5 3.108328 1_555
Er6 Te2 3.112338 1_555
Er6 Te0 3.120114 1_545
Cu0 Te6 2.592551 1_555
Cu0 Te2 2.603238 1_555
Cu0 Te5 2.603421 1_555
Cu0 Te0 2.625434 1_655
Cu1 Te9 2.592551 1_555
Cu1 Te0 2.603238 1_555
Cu1 Te5 2.603421 1_555
Cu1 Te2 2.625434 1_565
Cu2 Te11 2.578969 1_555
Cu2 Te2 2.604629 1_455
Cu2 Te0 2.604629 1_545
Cu2 Te5 2.626188 1_555
