# generated using pymatgen
data_Ru3C10(NO6)2
_symmetry_space_group_name_H-M   'P 1'
_cell_length_a   26.54119800
_cell_length_b   7.70549100
_cell_length_c   10.04333822
_cell_angle_alpha   61.83621892
_cell_angle_beta   90.00000000
_cell_angle_gamma   90.00000000
_symmetry_Int_Tables_number   1
_chemical_formula_structural   Ru3C10(NO6)2
_chemical_formula_sum   'Ru12 C40 N8 O48'
_cell_volume   1810.80419281
_cell_formula_units_Z   4
loop_
 _symmetry_equiv_pos_site_id
 _symmetry_equiv_pos_as_xyz
  1  'x, y, z'
loop_
 _atom_site_type_symbol
 _atom_site_label
 _atom_site_symmetry_multiplicity
 _atom_site_fract_x
 _atom_site_fract_y
 _atom_site_fract_z
 _atom_site_occupancy
  Ru  Ru0  1  0.84160000  0.39149400  0.89502400  1
  Ru  Ru1  1  0.15840000  0.60850600  0.10497600  1
  Ru  Ru2  1  0.34160000  0.60850600  0.60497600  1
  Ru  Ru3  1  0.11932800  0.99735100  0.89288800  1
  Ru  Ru4  1  0.40821500  0.77504600  0.74840800  1
  Ru  Ru5  1  0.59178500  0.22495400  0.25159200  1
  Ru  Ru6  1  0.65840000  0.39149400  0.39502400  1
  Ru  Ru7  1  0.38067200  0.99735100  0.39288800  1
  Ru  Ru8  1  0.88067200  0.00264900  0.10711200  1
  Ru  Ru9  1  0.90821500  0.22495400  0.75159200  1
  Ru  Ru10  1  0.09178500  0.77504600  0.24840800  1
  Ru  Ru11  1  0.61932800  0.00264900  0.60711200  1
  C  C0  1  0.44324600  0.52466500  0.85680700  1
  C  C1  1  0.95238500  0.07538500  0.69197600  1
  C  C2  1  0.18513900  0.09905600  0.80151100  1
  C  C3  1  0.08627400  0.24689800  0.78715500  1
  C  C4  1  0.80440900  0.44698800  0.03378900  1
  C  C5  1  0.19559100  0.55301200  0.96621100  1
  C  C6  1  0.78617700  0.23626000  0.87713600  1
  C  C7  1  0.54761500  0.07538500  0.19197600  1
  C  C8  1  0.60450300  0.09236700  0.75423400  1
  C  C9  1  0.90219000  0.50379500  0.93315200  1
  C  C10  1  0.05675400  0.52466500  0.35680700  1
  C  C11  1  0.41372600  0.24689800  0.28715500  1
  C  C12  1  0.59781000  0.50379500  0.43315200  1
  C  C13  1  0.30440900  0.55301200  0.46621100  1
  C  C14  1  0.83117700  0.61839200  0.70133900  1
  C  C15  1  0.09781000  0.49620500  0.06684800  1
  C  C16  1  0.36010700  0.70457200  0.91152600  1
  C  C17  1  0.21382300  0.76374000  0.12286400  1
  C  C18  1  0.69559100  0.44698800  0.53378900  1
  C  C19  1  0.58627400  0.75310200  0.71284500  1
  C  C20  1  0.45238500  0.92461500  0.80802400  1
  C  C21  1  0.40219000  0.49620500  0.56684800  1
  C  C22  1  0.13989300  0.70457200  0.41152600  1
  C  C23  1  0.91372600  0.75310200  0.21284500  1
  C  C24  1  0.89549700  0.09236700  0.25423400  1
  C  C25  1  0.55675400  0.47533500  0.14319300  1
  C  C26  1  0.31486100  0.09905600  0.30151100  1
  C  C27  1  0.63989300  0.29542800  0.08847400  1
  C  C28  1  0.81486100  0.90094400  0.19848900  1
  C  C29  1  0.16882300  0.38160800  0.29866100  1
  C  C30  1  0.68513900  0.90094400  0.69848900  1
  C  C31  1  0.39549700  0.90763300  0.24576600  1
  C  C32  1  0.86010700  0.29542800  0.58847400  1
  C  C33  1  0.71382300  0.23626000  0.37713600  1
  C  C34  1  0.10450300  0.90763300  0.74576600  1
  C  C35  1  0.33117700  0.38160800  0.79866100  1
  C  C36  1  0.04761500  0.92461500  0.30802400  1
  C  C37  1  0.94324600  0.47533500  0.64319300  1
  C  C38  1  0.28617700  0.76374000  0.62286400  1
  C  C39  1  0.66882300  0.61839200  0.20133900  1
  N  N0  1  0.94006000  0.14846200  0.96196000  1
  N  N1  1  0.86691300  0.98868300  0.90837500  1
  N  N2  1  0.55994000  0.14846200  0.46196000  1
  N  N3  1  0.63308700  0.98868300  0.40837500  1
  N  N4  1  0.44006000  0.85153800  0.53804000  1
  N  N5  1  0.05994000  0.85153800  0.03804000  1
  N  N6  1  0.36691300  0.01131700  0.59162500  1
  N  N7  1  0.13308700  0.01131700  0.09162500  1
  O  O0  1  0.01865300  0.81204800  0.00782700  1
  O  O1  1  0.82491800  0.75908200  0.58712400  1
  O  O2  1  0.52147700  0.98461800  0.15608200  1
  O  O3  1  0.22395200  0.16368500  0.75019900  1
  O  O4  1  0.27604800  0.16368500  0.25019900  1
  O  O5  1  0.90515500  0.14694100  0.34042900  1
  O  O6  1  0.48134700  0.81204800  0.50782700  1
  O  O7  1  0.78188100  0.49501400  0.10983500  1
  O  O8  1  0.47852300  0.01538200  0.84391800  1
  O  O9  1  0.67010500  0.33728300  0.99510000  1
  O  O10  1  0.83916400  0.87862200  0.88722400  1
  O  O11  1  0.51865300  0.18795200  0.49217300  1
  O  O12  1  0.66083600  0.87862200  0.38722400  1
  O  O13  1  0.98134700  0.18795200  0.99217300  1
  O  O14  1  0.03613700  0.37506600  0.42017800  1
  O  O15  1  0.93199400  0.59892400  0.27950600  1
  O  O16  1  0.53613700  0.62493400  0.07982200  1
  O  O17  1  0.32491800  0.24091800  0.91287600  1
  O  O18  1  0.32989500  0.66271700  0.00490000  1
  O  O19  1  0.96386300  0.62493400  0.57982200  1
  O  O20  1  0.56800600  0.59892400  0.77950600  1
  O  O21  1  0.72395200  0.83631500  0.74980100  1
  O  O22  1  0.82989500  0.33728300  0.49510000  1
  O  O23  1  0.02147700  0.01538200  0.34391800  1
  O  O24  1  0.43199400  0.40107600  0.22049400  1
  O  O25  1  0.17508200  0.24091800  0.41287600  1
  O  O26  1  0.40515500  0.85305900  0.15957100  1
  O  O27  1  0.09484500  0.85305900  0.65957100  1
  O  O28  1  0.59484500  0.14694100  0.84042900  1
  O  O29  1  0.97852300  0.98461800  0.65608200  1
  O  O30  1  0.16083600  0.12137800  0.11277600  1
  O  O31  1  0.93774100  0.57323800  0.95550500  1
  O  O32  1  0.06225900  0.42676200  0.04449500  1
  O  O33  1  0.46386300  0.37506600  0.92017800  1
  O  O34  1  0.24704300  0.85601300  0.13020100  1
  O  O35  1  0.67508200  0.75908200  0.08712400  1
  O  O36  1  0.74704300  0.14398700  0.36979900  1
  O  O37  1  0.25295700  0.85601300  0.63020100  1
  O  O38  1  0.71811900  0.49501400  0.60983500  1
  O  O39  1  0.77604800  0.83631500  0.24980100  1
  O  O40  1  0.28188100  0.50498600  0.39016500  1
  O  O41  1  0.75295700  0.14398700  0.86979900  1
  O  O42  1  0.56225900  0.57323800  0.45550500  1
  O  O43  1  0.43774100  0.42676200  0.54449500  1
  O  O44  1  0.33916400  0.12137800  0.61277600  1
  O  O45  1  0.06800600  0.40107600  0.72049400  1
  O  O46  1  0.17010500  0.66271700  0.50490000  1
  O  O47  1  0.21811900  0.50498600  0.89016500  1
loop_
_geom_bond_atom_site_label_1
_geom_bond_atom_site_label_2
_geom_bond_distance
_geom_bond_site_symmetry_2
C0 O33 1.157899 1_555
C0 Ru4 1.946579 1_555
C1 O29 1.156892 1_545
C1 Ru9 1.926786 1_555
C2 O3 1.154345 1_555
C2 Ru3 1.956639 1_545
C3 O45 1.159255 1_555
C3 Ru3 1.914998 1_545
C4 O7 1.159563 1_555
C4 Ru0 1.913652 1_554
C5 O47 1.159563 1_555
C5 Ru1 1.913652 1_556
C6 O41 1.156639 1_555
C6 Ru0 1.956972 1_555
C7 O2 1.156892 1_545
C7 Ru5 1.926786 1_555
C8 O28 1.155683 1_555
C8 Ru11 1.944303 1_555
C9 O31 1.157774 1_555
C9 Ru0 1.947904 1_555
C10 O14 1.157899 1_555
C10 Ru10 1.946579 1_555
C11 O24 1.159255 1_555
C11 Ru7 1.914998 1_545
C12 O42 1.157774 1_555
C12 Ru6 1.947904 1_555
C13 O40 1.159563 1_555
C13 Ru2 1.913652 1_555
C14 O1 1.159645 1_555
C14 Ru0 1.925300 1_555
C15 O32 1.157774 1_555
C15 Ru1 1.947904 1_555
C16 O18 1.157987 1_556
C16 Ru4 1.941464 1_555
C17 O34 1.156639 1_555
C17 Ru1 1.956972 1_555
C18 O38 1.159563 1_555
C18 Ru6 1.913652 1_555
C19 O20 1.159255 1_555
C19 Ru11 1.914998 1_565
C20 O8 1.156892 1_565
C20 Ru4 1.926786 1_555
C21 O43 1.157774 1_555
C21 Ru2 1.947904 1_555
C22 O46 1.157987 1_555
C22 Ru10 1.941464 1_555
C23 O15 1.159255 1_555
C23 Ru8 1.914998 1_565
C24 O5 1.155683 1_555
C24 Ru8 1.944303 1_555
C25 O16 1.157899 1_555
C25 Ru5 1.946579 1_555
C26 O4 1.154345 1_555
C26 Ru7 1.956639 1_545
C27 O9 1.157987 1_554
C27 Ru5 1.941464 1_555
C28 O39 1.154345 1_555
C28 Ru8 1.956639 1_565
C29 O25 1.159645 1_555
C29 Ru1 1.925300 1_555
C30 O21 1.154345 1_555
C30 Ru11 1.956639 1_565
C31 O26 1.155683 1_555
C31 Ru7 1.944303 1_555
C32 O22 1.157987 1_555
C32 Ru9 1.941464 1_555
C33 O36 1.156639 1_555
C33 Ru6 1.956972 1_555
C34 O27 1.155683 1_555
C34 Ru3 1.944303 1_555
C35 O17 1.159645 1_555
C35 Ru2 1.925300 1_555
C36 O23 1.156892 1_565
C36 Ru10 1.926786 1_555
C37 O19 1.157899 1_555
C37 Ru9 1.946579 1_555
C38 O37 1.156639 1_555
C38 Ru2 1.956972 1_555
C39 O35 1.159645 1_555
C39 Ru6 1.925300 1_555
N0 O13 1.213516 1_555
N0 Ru8 2.079881 1_556
N0 Ru9 2.085698 1_555
N1 O10 1.215252 1_555
N1 Ru9 2.071104 1_565
N1 Ru8 2.081262 1_566
N2 O11 1.213516 1_555
N2 Ru11 2.079881 1_555
N2 Ru5 2.085698 1_555
N3 O12 1.215252 1_555
N3 Ru5 2.071104 1_565
N3 Ru11 2.081262 1_565
N4 O6 1.213516 1_555
N4 Ru7 2.079881 1_555
N4 Ru4 2.085698 1_555
N5 O0 1.213516 1_555
N5 Ru3 2.079881 1_554
N5 Ru10 2.085698 1_555
N6 O44 1.215252 1_555
N6 Ru4 2.071104 1_545
N6 Ru7 2.081262 1_545
N7 O30 1.215252 1_555
N7 Ru10 2.071104 1_545
N7 Ru3 2.081262 1_544
