# generated using pymatgen
data_FeHO2
_symmetry_space_group_name_H-M   'P 1'
_cell_length_a   3.08370700
_cell_length_b   4.60627800
_cell_length_c   10.15265300
_cell_angle_alpha   90.00000000
_cell_angle_beta   90.00000000
_cell_angle_gamma   90.00000000
_symmetry_Int_Tables_number   1
_chemical_formula_structural   FeHO2
_chemical_formula_sum   'Fe4 H4 O8'
_cell_volume   144.21246319
_cell_formula_units_Z   4
loop_
 _symmetry_equiv_pos_site_id
 _symmetry_equiv_pos_as_xyz
  1  'x, y, z'
loop_
 _atom_site_type_symbol
 _atom_site_label
 _atom_site_symmetry_multiplicity
 _atom_site_fract_x
 _atom_site_fract_y
 _atom_site_fract_z
 _atom_site_occupancy
  Fe  Fe0  1  0.25000000  0.52223500  0.62640400  1
  Fe  Fe1  1  0.25000000  0.97776500  0.12640400  1
  Fe  Fe2  1  0.75000000  0.47776500  0.37359600  1
  Fe  Fe3  1  0.75000000  0.02223500  0.87359600  1
  H  H0  1  0.25000000  0.02179100  0.37390100  1
  H  H1  1  0.25000000  0.47820900  0.87390100  1
  H  H2  1  0.75000000  0.97820900  0.62609900  1
  H  H3  1  0.75000000  0.52179100  0.12609900  1
  O  O0  1  0.25000000  0.19205800  0.30839700  1
  O  O1  1  0.25000000  0.30794200  0.80839700  1
  O  O2  1  0.75000000  0.80794200  0.69160300  1
  O  O3  1  0.75000000  0.69205800  0.19160300  1
  O  O4  1  0.25000000  0.70752900  0.44161100  1
  O  O5  1  0.25000000  0.79247100  0.94161100  1
  O  O6  1  0.75000000  0.29247100  0.55838900  1
  O  O7  1  0.75000000  0.20752900  0.05838900  1
loop_
_geom_bond_atom_site_label_1
_geom_bond_atom_site_label_2
_geom_bond_distance
_geom_bond_site_symmetry_2
Fe0 O6 1.993556 1_455
Fe0 O6 1.993556 1_555
Fe0 O4 2.061162 1_555
Fe0 O1 2.094849 1_555
Fe0 O2 2.132477 1_455
Fe0 O2 2.132477 1_555
Fe1 O7 1.993556 1_565
Fe1 O7 1.993556 1_465
Fe1 O5 2.061162 1_554
Fe1 O0 2.094849 1_565
Fe1 O3 2.132477 1_455
Fe1 O3 2.132477 1_555
Fe2 O4 1.993556 1_655
Fe2 O4 1.993556 1_555
Fe2 O6 2.061162 1_555
Fe2 O3 2.094849 1_555
Fe2 O0 2.132477 1_555
Fe2 O0 2.132477 1_655
Fe3 O5 1.993556 1_545
Fe3 O5 1.993556 1_645
Fe3 O7 2.061162 1_556
Fe3 O2 2.094849 1_545
Fe3 O1 2.132477 1_555
Fe3 O1 2.132477 1_655
H0 O0 1.028299 1_555
H0 O4 1.602514 1_545
H1 O1 1.028299 1_555
H1 O5 1.602514 1_555
H2 O2 1.028299 1_555
H2 O6 1.602514 1_565
H3 O3 1.028299 1_555
H3 O7 1.602514 1_555
