# generated using pymatgen
data_In2Se3
_symmetry_space_group_name_H-M   'P 1'
_cell_length_a   8.18707977
_cell_length_b   8.18707977
_cell_length_c   21.48252500
_cell_angle_alpha   90.00000000
_cell_angle_beta   90.00000000
_cell_angle_gamma   119.99999816
_symmetry_Int_Tables_number   1
_chemical_formula_structural   In2Se3
_chemical_formula_sum   'In12 Se18'
_cell_volume   1247.02169654
_cell_formula_units_Z   6
loop_
 _symmetry_equiv_pos_site_id
 _symmetry_equiv_pos_as_xyz
  1  'x, y, z'
loop_
 _atom_site_type_symbol
 _atom_site_label
 _atom_site_symmetry_multiplicity
 _atom_site_fract_x
 _atom_site_fract_y
 _atom_site_fract_z
 _atom_site_occupancy
  In  In0  1  0.30011100  0.04136700  0.46770000  1
  In  In1  1  0.04136700  0.74125600  0.63436700  1
  In  In2  1  0.33928700  0.02333500  0.13175800  1
  In  In3  1  0.31595200  0.33928700  0.96509100  1
  In  In4  1  0.68404800  0.66071300  0.46509100  1
  In  In5  1  0.69988900  0.95863300  0.96770000  1
  In  In6  1  0.74125600  0.69988900  0.80103300  1
  In  In7  1  0.25874400  0.30011100  0.30103300  1
  In  In8  1  0.97666500  0.31595200  0.79842400  1
  In  In9  1  0.95863300  0.25874400  0.13436700  1
  In  In10  1  0.66071300  0.97666500  0.63175800  1
  In  In11  1  0.02333500  0.68404800  0.29842400  1
  Se  Se0  1  0.97105500  0.65058400  0.50069600  1
  Se  Se1  1  0.61075000  0.32860400  0.00401800  1
  Se  Se2  1  0.66538500  0.65794600  0.33849400  1
  Se  Se3  1  0.38925000  0.67139600  0.50401800  1
  Se  Se4  1  0.67139600  0.28214600  0.67068500  1
  Se  Se5  1  0.65058400  0.67953000  0.66736300  1
  Se  Se6  1  0.34205400  0.00743900  0.00516100  1
  Se  Se7  1  0.32860400  0.71785400  0.17068500  1
  Se  Se8  1  0.00743900  0.66538500  0.17182700  1
  Se  Se9  1  0.65794600  0.99256100  0.50516100  1
  Se  Se10  1  0.99256100  0.33461500  0.67182700  1
  Se  Se11  1  0.33461500  0.34205400  0.83849400  1
  Se  Se12  1  0.28214600  0.61075000  0.83735100  1
  Se  Se13  1  0.02894500  0.34941600  0.00069600  1
  Se  Se14  1  0.67953000  0.02894500  0.83403000  1
  Se  Se15  1  0.32047000  0.97105500  0.33403000  1
  Se  Se16  1  0.71785400  0.38925000  0.33735100  1
  Se  Se17  1  0.34941600  0.32047000  0.16736300  1
loop_
_geom_bond_atom_site_label_1
_geom_bond_atom_site_label_2
_geom_bond_distance
_geom_bond_site_symmetry_2
In0 Se15 2.949748 1_545
In0 Se0 3.062185 1_445
In0 Se9 3.249709 1_545
In1 Se0 2.949770 1_455
In1 Se5 3.062188 1_455
In1 Se10 3.249703 1_455
In2 Se17 2.511586 1_555
In2 Se7 2.596769 1_545
In2 Se6 2.723371 1_555
In2 Se8 2.957798 1_545
In3 Se13 2.511594 1_556
In3 Se1 2.596769 1_556
In3 Se11 2.723371 1_555
In3 Se6 2.957804 1_556
In4 Se0 2.511594 1_555
In4 Se3 2.596769 1_555
In4 Se2 2.723371 1_555
In4 Se9 2.957804 1_555
In5 Se14 2.949748 1_565
In5 Se13 3.062185 1_666
In5 Se6 3.249709 1_566
In6 Se5 2.949750 1_555
In6 Se14 3.062185 1_565
In6 Se11 3.249709 1_555
In7 Se17 2.949750 1_555
In7 Se15 3.062185 1_545
In7 Se2 3.249709 1_555
In8 Se14 2.511597 1_555
In8 Se12 2.596769 1_655
In8 Se10 2.723371 1_555
In8 Se11 2.957804 1_655
In9 Se13 2.949770 1_655
In9 Se17 3.062188 1_655
In9 Se8 3.249703 1_655
In10 Se5 2.511586 1_555
In10 Se4 2.596769 1_565
In10 Se9 2.723371 1_555
In10 Se10 2.957798 1_565
In11 Se15 2.511597 1_555
In11 Se16 2.596769 1_455
In11 Se8 2.723371 1_555
In11 Se2 2.957804 1_455
Se1 Se6 2.443233 1_555
Se3 Se9 2.443233 1_555
Se7 Se8 2.443233 1_555
Se10 Se4 2.443233 1_555
Se11 Se12 2.443233 1_555
Se16 Se2 2.443233 1_555
