# generated using pymatgen
data_Na13Zr7Si5P7O48
_symmetry_space_group_name_H-M   'P 1'
_cell_length_a   9.53738087
_cell_length_b   9.54112863
_cell_length_c   19.05641937
_cell_angle_alpha   57.45369149
_cell_angle_beta   57.49754999
_cell_angle_gamma   57.48610840
_symmetry_Int_Tables_number   1
_chemical_formula_structural   Na13Zr7Si5P7O48
_chemical_formula_sum   'Na13 Zr7 Si5 P7 O48'
_cell_volume   1155.08180758
_cell_formula_units_Z   1
loop_
 _symmetry_equiv_pos_site_id
 _symmetry_equiv_pos_as_xyz
  1  'x, y, z'
loop_
 _atom_site_type_symbol
 _atom_site_label
 _atom_site_symmetry_multiplicity
 _atom_site_fract_x
 _atom_site_fract_y
 _atom_site_fract_z
 _atom_site_occupancy
  Na  Na0  1  0.02133200  0.01584800  0.01944200  1
  Na  Na1  1  0.16031100  0.14627000  0.08092100  1
  Na  Na2  1  0.08976500  0.34314500  0.37267300  1
  Na  Na3  1  0.37887200  0.77607100  0.07991000  1
  Na  Na4  1  0.79058800  0.15064200  0.19121200  1
  Na  Na5  1  0.25401400  0.84634000  0.28687100  1
  Na  Na6  1  0.57590300  0.25146900  0.42413800  1
  Na  Na7  1  0.14610700  0.37064800  0.90012900  1
  Na  Na8  1  0.86291200  0.56933300  0.12200300  1
  Na  Na9  1  0.30125500  0.78079500  0.53815700  1
  Na  Na10  1  0.74359200  0.07875300  0.68204900  1
  Na  Na11  1  0.25579400  0.84983100  0.79591900  1
  Na  Na12  1  0.56424800  0.27211500  0.90486300  1
  Zr  Zr0  1  0.36017600  0.35545300  0.17312300  1
  Zr  Zr1  1  0.14764100  0.15744300  0.57390100  1
  Zr  Zr2  1  0.34963500  0.35692000  0.68216400  1
  Zr  Zr3  1  0.64778400  0.64791500  0.33175500  1
  Zr  Zr4  1  0.85489700  0.84580700  0.42925400  1
  Zr  Zr5  1  0.66175200  0.65703600  0.81646200  1
  Zr  Zr6  1  0.85009600  0.85187200  0.92427700  1
  Si  Si0  1  0.04453400  0.73535500  0.24035300  1
  Si  Si1  1  0.47307500  0.03716200  0.37374700  1
  Si  Si2  1  0.74953800  0.46649700  0.01580000  1
  Si  Si3  1  0.04457900  0.75669700  0.72891800  1
  Si  Si4  1  0.45982800  0.03628800  0.87422500  1
  P  P0  1  0.24864900  0.54731800  0.48320700  1
  P  P1  1  0.55512400  0.95247500  0.12572300  1
  P  P2  1  0.95507000  0.24849100  0.27787800  1
  P  P3  1  0.74319300  0.46323500  0.52448600  1
  P  P4  1  0.25399000  0.54755600  0.97693600  1
  P  P5  1  0.53690700  0.97147900  0.62431600  1
  P  P6  1  0.96181400  0.25272700  0.76786800  1
  O  O0  1  0.11941100  0.27352200  0.26175200  1
  O  O1  1  0.26488200  0.50935200  0.06444500  1
  O  O2  1  0.05400600  0.90873900  0.15358700  1
  O  O3  1  0.50672100  0.12898300  0.13216700  1
  O  O4  1  0.02858600  0.75502600  0.32648400  1
  O  O5  1  0.21555400  0.55504800  0.22519300  1
  O  O6  1  0.29856300  0.08986200  0.45958000  1
  O  O7  1  0.44687100  0.19220700  0.28092300  1
  O  O8  1  0.56156800  0.45146600  0.09922200  1
  O  O9  1  0.24505100  0.37113600  0.49984900  1
  O  O10  1  0.07202900  0.70153100  0.47745800  1
  O  O11  1  0.39753100  0.93740500  0.13170900  1
  O  O12  1  0.65288200  0.01729400  0.37633000  1
  O  O13  1  0.12688200  0.28298600  0.74768500  1
  O  O14  1  0.91404100  0.28781300  0.03288000  1
  O  O15  1  0.76984100  0.63957100  0.00768000  1
  O  O16  1  0.40181800  0.58768800  0.39269500  1
  O  O17  1  0.29127200  0.52215100  0.55778400  1
  O  O18  1  0.61498500  0.79062400  0.20614000  1
  O  O19  1  0.07399100  0.93815900  0.64281900  1
  O  O20  1  0.51910700  0.12858400  0.63767100  1
  O  O21  1  0.71742900  0.93700400  0.03789100  1
  O  O22  1  0.02675100  0.76082400  0.81841400  1
  O  O23  1  0.21808500  0.58713300  0.70547600  1
  O  O24  1  0.77992200  0.39775900  0.31024800  1
  O  O25  1  0.95838800  0.26005800  0.19417900  1
  O  O26  1  0.29412700  0.04155200  0.96415900  1
  O  O27  1  0.48686300  0.84798800  0.38408000  1
  O  O28  1  0.94862100  0.06569900  0.35472700  1
  O  O29  1  0.41829700  0.22701200  0.79073700  1
  O  O30  1  0.71599600  0.47301500  0.44901100  1
  O  O31  1  0.59447700  0.41200100  0.61267000  1
  O  O32  1  0.25421300  0.38642100  0.97786800  1
  O  O33  1  0.08039100  0.71264100  0.96743100  1
  O  O34  1  0.86861100  0.69060900  0.27593500  1
  O  O35  1  0.35562300  0.01071300  0.62393800  1
  O  O36  1  0.64145500  0.01341400  0.87982400  1
  O  O37  1  0.92578000  0.31278400  0.52975500  1
  O  O38  1  0.74816000  0.64056400  0.50495800  1
  O  O39  1  0.41534400  0.59621200  0.89371800  1
  O  O40  1  0.57229500  0.79712100  0.70190200  1
  O  O41  1  0.68272300  0.96137400  0.53350700  1
  O  O42  1  0.78864100  0.40484100  0.79203400  1
  O  O43  1  0.98485800  0.23800600  0.68487600  1
  O  O44  1  0.50979500  0.88452200  0.84105700  1
  O  O45  1  0.95450400  0.07451100  0.84722500  1
  O  O46  1  0.73190300  0.52029800  0.92290700  1
  O  O47  1  0.86777100  0.75178400  0.73813900  1
loop_
_geom_bond_atom_site_label_1
_geom_bond_atom_site_label_2
_geom_bond_distance
_geom_bond_site_symmetry_2
Na0 O2 2.319300 1_545
Na0 O26 2.324099 1_554
Na0 O14 2.329136 1_455
Na1 O25 2.313521 1_455
Na1 O32 2.320154 1_554
Na1 O11 2.336205 1_545
Na1 O26 2.355295 1_554
Na1 O2 2.380395 1_545
Na1 O14 2.397775 1_455
Na2 O0 2.378189 1_555
Na2 O37 2.452206 1_455
Na2 O5 2.509138 1_555
Na2 O6 2.571585 1_555
Na2 O7 2.787062 1_555
Na2 O30 2.824407 1_455
Na2 O34 2.987260 1_455
Na3 O11 2.343854 1_555
Na3 O26 2.374505 1_564
Na3 O2 2.488882 1_555
Na3 O8 2.534763 1_555
Na3 O5 2.674525 1_555
Na3 O15 2.947431 1_555
Na4 O25 2.368756 1_555
Na4 O2 2.400856 1_645
Na4 O14 2.406828 1_555
Na4 O7 2.671224 1_555
Na4 O12 2.788594 1_555
Na4 O8 2.836155 1_555
Na5 O4 2.348022 1_555
Na5 O11 2.352897 1_555
Na5 O16 2.470764 1_555
Na5 O28 2.616702 1_465
Na5 O18 2.778909 1_555
Na5 O10 2.918303 1_555
Na6 O24 2.359347 1_555
Na6 O12 2.463543 1_555
Na6 O41 2.467046 1_545
Na6 O9 2.519723 1_555
Na6 O16 2.584895 1_555
Na6 O28 2.867705 1_555
Na7 O32 2.308353 1_555
Na7 O14 2.373822 1_456
Na7 O26 2.510914 1_555
Na7 O29 2.529135 1_555
Na7 O22 2.948111 1_555
Na8 O25 2.349223 1_555
Na8 O15 2.418913 1_555
Na8 O18 2.611690 1_555
Na8 O33 2.645311 1_654
Na8 O21 2.812123 1_555
Na8 O24 2.863192 1_555
Na9 O17 2.336661 1_555
Na9 O27 2.403038 1_555
Na9 O19 2.451135 1_555
Na9 O6 2.479410 1_565
Na9 O23 2.593917 1_555
Na10 O20 2.438037 1_555
Na10 O47 2.465390 1_545
Na10 O19 2.508240 1_645
Na10 O31 2.552786 1_555
Na10 O29 2.728567 1_555
Na10 O37 2.864750 1_555
Na10 O44 2.954173 1_545
Na11 O39 2.425152 1_555
Na11 O40 2.469865 1_555
Na11 O22 2.504611 1_555
Na11 O45 2.534233 1_465
Na11 O35 2.609322 1_565
Na11 O33 2.658802 1_555
Na12 O32 2.369218 1_555
Na12 O36 2.407937 1_555
Na12 O42 2.417739 1_555
Na12 O39 2.553547 1_555
O0 P2 1.553696 1_455
O0 Zr0 2.253374 1_555
O1 P4 1.554350 1_554
O1 Zr0 2.141816 1_555
O2 Si0 1.592414 1_555
O3 P1 1.546019 1_545
O3 Zr0 2.151104 1_555
O4 Si0 1.668789 1_555
O4 Zr4 2.031264 1_455
O5 Si0 1.647819 1_555
O5 Zr0 2.062108 1_555
O6 Si1 1.660727 1_555
O6 Zr1 2.092235 1_555
O7 Si1 1.625402 1_555
O7 Zr0 2.080375 1_555
O8 Si2 1.652277 1_555
O8 Zr0 2.026878 1_555
O9 P0 1.550532 1_555
O9 Zr1 2.131455 1_555
O10 P0 1.541073 1_555
O10 Zr4 2.155580 1_455
O11 P1 1.524201 1_555
O12 Si1 1.646332 1_555
O12 Zr4 2.080928 1_545
O13 P6 1.558256 1_455
O13 Zr2 2.093488 1_555
O14 Si2 1.596968 1_555
O15 Si2 1.680747 1_555
O15 Zr6 2.027404 1_554
O16 P0 1.561939 1_555
O16 Zr3 2.232793 1_555
O17 P0 1.546411 1_555
O17 Zr2 2.206174 1_555
O18 P1 1.582809 1_555
O18 Zr3 2.126465 1_555
O19 Si3 1.655080 1_555
O19 Zr1 2.056107 1_565
O20 P5 1.559147 1_545
O20 Zr2 2.192467 1_555
O21 P1 1.566930 1_555
O21 Zr6 2.188976 1_554
O22 Si3 1.640890 1_555
O22 Zr6 2.079077 1_455
O23 Si3 1.631098 1_555
O23 Zr2 2.021002 1_555
O24 P2 1.574683 1_555
O24 Zr3 2.171813 1_555
O25 P2 1.522277 1_555
O26 Si4 1.591799 1_555
O27 Si1 1.644420 1_565
O27 Zr3 2.060982 1_555
O28 P2 1.568610 1_555
O28 Zr4 2.159510 1_545
O29 Si4 1.669379 1_555
O29 Zr2 2.017467 1_555
O30 P3 1.541154 1_555
O30 Zr3 2.141024 1_555
O31 P3 1.540996 1_555
O31 Zr2 2.174845 1_555
O32 P4 1.526792 1_555
O33 P4 1.570626 1_555
O33 Zr6 2.212302 1_455
O34 Si0 1.641077 1_655
O34 Zr3 1.944630 1_555
O35 P5 1.563410 1_545
O35 Zr1 2.101159 1_555
O36 Si4 1.681325 1_555
O36 Zr6 2.040220 1_545
O37 P3 1.564843 1_555
O37 Zr1 2.140521 1_655
O38 P3 1.546960 1_555
O38 Zr4 2.115978 1_555
O39 P4 1.565820 1_555
O39 Zr5 2.203583 1_555
O40 P5 1.534151 1_555
O40 Zr5 2.217333 1_555
O41 P5 1.545002 1_555
O41 Zr4 2.182623 1_555
O42 P6 1.539867 1_555
O42 Zr5 2.222736 1_555
O43 P6 1.549693 1_555
O43 Zr1 2.100293 1_655
O44 Si4 1.625609 1_565
O44 Zr5 2.003507 1_555
O45 P6 1.558998 1_555
O45 Zr6 2.237526 1_545
O46 Si2 1.635502 1_556
O46 Zr5 1.984208 1_555
O47 Si3 1.623054 1_655
O47 Zr5 2.052253 1_555
