# generated using pymatgen
data_TeHO3
_symmetry_space_group_name_H-M   'P 1'
_cell_length_a   11.52333400
_cell_length_b   4.98984500
_cell_length_c   9.73161515
_cell_angle_alpha   59.22709889
_cell_angle_beta   90.00000000
_cell_angle_gamma   90.00000000
_symmetry_Int_Tables_number   1
_chemical_formula_structural   TeHO3
_chemical_formula_sum   'Te8 H8 O24'
_cell_volume   480.77890054
_cell_formula_units_Z   8
loop_
 _symmetry_equiv_pos_site_id
 _symmetry_equiv_pos_as_xyz
  1  'x, y, z'
loop_
 _atom_site_type_symbol
 _atom_site_label
 _atom_site_symmetry_multiplicity
 _atom_site_fract_x
 _atom_site_fract_y
 _atom_site_fract_z
 _atom_site_occupancy
  Te  Te0  1  0.63526200  0.43555100  0.54389700  1
  Te  Te1  1  0.86241000  0.02735100  0.45110700  1
  Te  Te2  1  0.36473800  0.43555100  0.04389700  1
  Te  Te3  1  0.13759000  0.02735100  0.95110700  1
  Te  Te4  1  0.34834100  0.18473800  0.66612800  1
  Te  Te5  1  0.15268200  0.01724100  0.33002600  1
  Te  Te6  1  0.65165900  0.18473800  0.16612800  1
  Te  Te7  1  0.84731800  0.01724100  0.83002600  1
  H  H0  1  0.55327700  0.46534100  0.78199300  1
  H  H1  1  0.93639600  0.58312100  0.31458500  1
  H  H2  1  0.44672300  0.46534100  0.28199300  1
  H  H3  1  0.06360400  0.58312100  0.81458500  1
  H  H4  1  0.38410100  0.93070500  0.51589800  1
  H  H5  1  0.12484300  0.46498400  0.50803500  1
  H  H6  1  0.61589900  0.93070500  0.01589800  1
  H  H7  1  0.87515700  0.46498400  0.00803500  1
  O  O0  1  0.68487200  0.05709900  0.73340500  1
  O  O1  1  0.81318700  0.03026900  0.25992500  1
  O  O2  1  0.31512800  0.05709900  0.23340500  1
  O  O3  1  0.18681300  0.03026900  0.75992500  1
  O  O4  1  0.77053200  0.63878000  0.58568700  1
  O  O5  1  0.72938300  0.32093700  0.40852000  1
  O  O6  1  0.22946800  0.63878000  0.08568700  1
  O  O7  1  0.27061700  0.32093700  0.90852000  1
  O  O8  1  0.53203100  0.54425000  0.66893800  1
  O  O9  1  0.96311900  0.38538000  0.32644800  1
  O  O10  1  0.46796900  0.54425000  0.16893800  1
  O  O11  1  0.03688100  0.38538000  0.82644800  1
  O  O12  1  0.91613800  0.00898800  0.64890400  1
  O  O13  1  0.58259500  0.82923100  0.35394900  1
  O  O14  1  0.08386200  0.00898800  0.14890400  1
  O  O15  1  0.41740500  0.82923100  0.85394900  1
  O  O16  1  0.30888800  0.95274300  0.55832000  1
  O  O17  1  0.19454700  0.57176500  0.44451200  1
  O  O18  1  0.69111200  0.95274300  0.05832000  1
  O  O19  1  0.80545300  0.57176500  0.94451200  1
  O  O20  1  0.49954500  0.25287100  0.51208700  1
  O  O21  1  0.99494800  0.79006300  0.45817300  1
  O  O22  1  0.50045500  0.25287100  0.01208700  1
  O  O23  1  0.00505200  0.79006300  0.95817300  1
loop_
_geom_bond_atom_site_label_1
_geom_bond_atom_site_label_2
_geom_bond_distance
_geom_bond_site_symmetry_2
H0 O8 0.991034 1_555
H1 O9 0.982427 1_555
H2 O10 0.991034 1_555
H3 O11 0.982427 1_555
H4 O16 0.990028 1_555
H5 O17 0.986999 1_555
H6 O18 0.990028 1_555
H7 O19 0.986999 1_554
O0 Te0 1.931415 1_555
O0 Te7 2.058252 1_555
O1 Te1 1.937968 1_555
O1 Te6 2.042535 1_555
O2 Te2 1.931415 1_555
O2 Te5 2.058252 1_555
O3 Te3 1.937968 1_555
O3 Te4 2.042535 1_555
O4 Te1 1.999278 1_565
O4 Te0 2.011343 1_555
O5 Te0 2.002507 1_555
O5 Te1 2.011566 1_555
O6 Te3 1.999278 1_564
O6 Te2 2.011343 1_555
O7 Te2 2.002507 1_556
O7 Te3 2.011566 1_555
O8 Te0 1.966049 1_555
O9 Te1 1.947399 1_555
O10 Te2 1.966049 1_555
O11 Te3 1.947399 1_555
O12 Te7 1.952350 1_555
O12 Te1 1.978993 1_555
O13 Te6 1.950179 1_565
O13 Te0 1.982032 1_555
O14 Te5 1.952350 1_555
O14 Te3 1.978993 1_554
O15 Te4 1.950179 1_565
O15 Te2 1.982032 1_556
O16 Te4 1.972373 1_565
O17 Te5 1.970005 1_565
O18 Te6 1.972373 1_565
O19 Te7 1.970005 1_565
O20 Te0 1.913456 1_555
O20 Te4 2.208427 1_555
O21 Te1 1.912048 1_565
O21 Te5 2.167347 1_665
O22 Te2 1.913456 1_555
O22 Te6 2.208427 1_555
O23 Te3 1.912048 1_565
O23 Te7 2.167347 1_465
