# generated using pymatgen
data_DyH6C6Cl3(O3F2)3
_symmetry_space_group_name_H-M   'P 1'
_cell_length_a   19.48769200
_cell_length_b   9.47193900
_cell_length_c   10.56943377
_cell_angle_alpha   65.67817400
_cell_angle_beta   90.00000000
_cell_angle_gamma   90.00000000
_symmetry_Int_Tables_number   1
_chemical_formula_structural   DyH6C6Cl3(O3F2)3
_chemical_formula_sum   'Dy4 H24 C24 Cl12 O36 F24'
_cell_volume   1777.81624638
_cell_formula_units_Z   4
loop_
 _symmetry_equiv_pos_site_id
 _symmetry_equiv_pos_as_xyz
  1  'x, y, z'
loop_
 _atom_site_type_symbol
 _atom_site_label
 _atom_site_symmetry_multiplicity
 _atom_site_fract_x
 _atom_site_fract_y
 _atom_site_fract_z
 _atom_site_occupancy
  Dy  Dy0  1  0.42598900  0.70283200  0.46804000  1
  Dy  Dy1  1  0.92598900  0.29716800  0.03196000  1
  Dy  Dy2  1  0.57401100  0.29716800  0.53196000  1
  Dy  Dy3  1  0.07401100  0.70283200  0.96804000  1
  H  H0  1  0.28424000  0.68047900  0.57400100  1
  H  H1  1  0.78424000  0.31952100  0.92599900  1
  H  H2  1  0.71576000  0.31952100  0.42599900  1
  H  H3  1  0.21576000  0.68047900  0.07400100  1
  H  H4  1  0.28506500  0.54593800  0.51663400  1
  H  H5  1  0.78506500  0.45406200  0.98336600  1
  H  H6  1  0.71493500  0.45406200  0.48336600  1
  H  H7  1  0.21493500  0.54593800  0.01663400  1
  H  H8  1  0.38619200  0.90266400  0.17060400  1
  H  H9  1  0.88619200  0.09733600  0.32939600  1
  H  H10  1  0.61380800  0.09733600  0.82939600  1
  H  H11  1  0.11380800  0.90266400  0.67060400  1
  H  H12  1  0.31574000  0.81572000  0.23105100  1
  H  H13  1  0.81574000  0.18428000  0.26894900  1
  H  H14  1  0.68426000  0.18428000  0.76894900  1
  H  H15  1  0.18426000  0.81572000  0.73105100  1
  H  H16  1  0.44041000  0.05699500  0.37263700  1
  H  H17  1  0.94041000  0.94300500  0.12736300  1
  H  H18  1  0.55959000  0.94300500  0.62736300  1
  H  H19  1  0.05959000  0.05699500  0.87263700  1
  H  H20  1  0.51217700  0.98989300  0.36217600  1
  H  H21  1  0.01217700  0.01010700  0.13782400  1
  H  H22  1  0.48782300  0.01010700  0.63782400  1
  H  H23  1  0.98782300  0.98989300  0.86217600  1
  C  C0  1  0.58464700  0.63924800  0.58909700  1
  C  C1  1  0.08464700  0.36075200  0.91090300  1
  C  C2  1  0.41535300  0.36075200  0.41090300  1
  C  C3  1  0.91535300  0.63924800  0.08909700  1
  C  C4  1  0.65057000  0.67509300  0.65392500  1
  C  C5  1  0.15057000  0.32490700  0.84607500  1
  C  C6  1  0.34943000  0.32490700  0.34607500  1
  C  C7  1  0.84943000  0.67509300  0.15392500  1
  C  C8  1  0.45835200  0.36340200  0.74878600  1
  C  C9  1  0.95835200  0.63659800  0.75121400  1
  C  C10  1  0.54164800  0.63659800  0.25121400  1
  C  C11  1  0.04164800  0.36340200  0.24878600  1
  C  C12  1  0.43985800  0.28163400  0.90650600  1
  C  C13  1  0.93985800  0.71836600  0.59349400  1
  C  C14  1  0.56014200  0.71836600  0.09349400  1
  C  C15  1  0.06014200  0.28163400  0.40650600  1
  C  C16  1  0.32883000  0.84162600  0.66410200  1
  C  C17  1  0.82883000  0.15837400  0.83589800  1
  C  C18  1  0.67117000  0.15837400  0.33589800  1
  C  C19  1  0.17117000  0.84162600  0.16410200  1
  C  C20  1  0.33571300  0.93808500  0.75273200  1
  C  C21  1  0.83571300  0.06191500  0.74726800  1
  C  C22  1  0.66428700  0.06191500  0.24726800  1
  C  C23  1  0.16428700  0.93808500  0.25273200  1
  Cl  Cl0  1  0.65568200  0.54981700  0.83202100  1
  Cl  Cl1  1  0.15568200  0.45018300  0.66797900  1
  Cl  Cl2  1  0.34431800  0.45018300  0.16797900  1
  Cl  Cl3  1  0.84431800  0.54981700  0.33202100  1
  Cl  Cl4  1  0.34975000  0.25762500  0.92823200  1
  Cl  Cl5  1  0.84975000  0.74237500  0.57176800  1
  Cl  Cl6  1  0.65025000  0.74237500  0.07176800  1
  Cl  Cl7  1  0.15025000  0.25762500  0.42823200  1
  Cl  Cl8  1  0.36240100  0.81630800  0.92335600  1
  Cl  Cl9  1  0.86240100  0.18369200  0.57664400  1
  Cl  Cl10  1  0.63759900  0.18369200  0.07664400  1
  Cl  Cl11  1  0.13759900  0.81630800  0.42335600  1
  O  O0  1  0.53528300  0.73177500  0.56644900  1
  O  O1  1  0.03528300  0.26822500  0.93355100  1
  O  O2  1  0.46471700  0.26822500  0.43355100  1
  O  O3  1  0.96471700  0.73177500  0.06644900  1
  O  O4  1  0.41107400  0.48139000  0.43215600  1
  O  O5  1  0.91107400  0.51861000  0.06784400  1
  O  O6  1  0.58892600  0.51861000  0.56784400  1
  O  O7  1  0.08892600  0.48139000  0.93215600  1
  O  O8  1  0.43588400  0.49963300  0.68847400  1
  O  O9  1  0.93588400  0.50036700  0.81152600  1
  O  O10  1  0.56411600  0.50036700  0.31152600  1
  O  O11  1  0.06411600  0.49963300  0.18847400  1
  O  O12  1  0.50673200  0.71515700  0.29894300  1
  O  O13  1  0.00673200  0.28484300  0.20105700  1
  O  O14  1  0.49326800  0.28484300  0.70105700  1
  O  O15  1  0.99326800  0.71515700  0.79894300  1
  O  O16  1  0.38250300  0.83358900  0.60004900  1
  O  O17  1  0.88250300  0.16641100  0.89995100  1
  O  O18  1  0.61749700  0.16641100  0.39995100  1
  O  O19  1  0.11749700  0.83358900  0.10004900  1
  O  O20  1  0.27102900  0.78057400  0.66719100  1
  O  O21  1  0.77102900  0.21942600  0.83280900  1
  O  O22  1  0.72897100  0.21942600  0.33280900  1
  O  O23  1  0.22897100  0.78057400  0.16719100  1
  O  O24  1  0.30775400  0.63940600  0.51108000  1
  O  O25  1  0.80775400  0.36059400  0.98892000  1
  O  O26  1  0.69224600  0.36059400  0.48892000  1
  O  O27  1  0.19224600  0.63940600  0.01108000  1
  O  O28  1  0.36479600  0.82305100  0.25181500  1
  O  O29  1  0.86479600  0.17694900  0.24818500  1
  O  O30  1  0.63520400  0.17694900  0.74818500  1
  O  O31  1  0.13520400  0.82305100  0.75181500  1
  O  O32  1  0.46303200  0.97400100  0.35610400  1
  O  O33  1  0.96303200  0.02599900  0.14389600  1
  O  O34  1  0.53696800  0.02599900  0.64389600  1
  O  O35  1  0.03696800  0.97400100  0.85610400  1
  F  F0  1  0.70732100  0.65598500  0.58589300  1
  F  F1  1  0.20732100  0.34401500  0.91410700  1
  F  F2  1  0.29267900  0.34401500  0.41410700  1
  F  F3  1  0.79267900  0.65598500  0.08589300  1
  F  F4  1  0.65222600  0.82539700  0.64027200  1
  F  F5  1  0.15222600  0.17460300  0.85972800  1
  F  F6  1  0.34777400  0.17460300  0.35972800  1
  F  F7  1  0.84777400  0.82539700  0.14027200  1
  F  F8  1  0.46999200  0.13968800  0.96909200  1
  F  F9  1  0.96999200  0.86031200  0.53090800  1
  F  F10  1  0.53000800  0.86031200  0.03090800  1
  F  F11  1  0.03000800  0.13968800  0.46909200  1
  F  F12  1  0.46314200  0.36894300  0.97355300  1
  F  F13  1  0.96314200  0.63105700  0.52644700  1
  F  F14  1  0.53685800  0.63105700  0.02644700  1
  F  F15  1  0.03685800  0.36894300  0.47355300  1
  F  F16  1  0.27506400  0.00749300  0.75788600  1
  F  F17  1  0.77506400  0.99250700  0.74211400  1
  F  F18  1  0.72493600  0.99250700  0.24211400  1
  F  F19  1  0.22493600  0.00749300  0.25788600  1
  F  F20  1  0.38295100  0.05502200  0.69587400  1
  F  F21  1  0.88295100  0.94497800  0.80412600  1
  F  F22  1  0.61704900  0.94497800  0.30412600  1
  F  F23  1  0.11704900  0.05502200  0.19587400  1
loop_
_geom_bond_atom_site_label_1
_geom_bond_atom_site_label_2
_geom_bond_distance
_geom_bond_site_symmetry_2
Dy0 O4 2.298492 1_555
Dy0 O8 2.340103 1_555
Dy0 O12 2.347753 1_555
Dy0 O16 2.371137 1_555
Dy0 O24 2.377340 1_555
Dy0 O28 2.407912 1_555
Dy0 O0 2.434815 1_555
Dy0 O32 2.452528 1_555
Dy1 O5 2.298492 1_555
Dy1 O9 2.340103 1_554
Dy1 O13 2.347753 1_655
Dy1 O17 2.371137 1_554
Dy1 O25 2.377340 1_554
Dy1 O29 2.407912 1_555
Dy1 O1 2.434815 1_654
Dy1 O33 2.452528 1_555
Dy2 O6 2.298492 1_555
Dy2 O10 2.340103 1_555
Dy2 O14 2.347753 1_555
Dy2 O18 2.371137 1_555
Dy2 O26 2.377340 1_555
Dy2 O30 2.407912 1_555
Dy2 O2 2.434815 1_555
Dy2 O34 2.452528 1_555
Dy3 O7 2.298492 1_555
Dy3 O11 2.340103 1_556
Dy3 O15 2.347753 1_455
Dy3 O19 2.371137 1_556
Dy3 O27 2.377340 1_556
Dy3 O31 2.407912 1_555
Dy3 O3 2.434815 1_456
Dy3 O35 2.452528 1_555
H0 O24 1.008329 1_555
H0 O20 1.644550 1_555
H1 O25 1.008329 1_555
H1 O21 1.644550 1_555
H2 O26 1.008329 1_555
H2 O22 1.644550 1_555
H3 O27 1.008329 1_555
H3 O23 1.644550 1_555
H4 O24 0.969503 1_555
H5 O25 0.969503 1_555
H6 O26 0.969503 1_555
H7 O27 0.969503 1_555
H8 O28 0.972677 1_555
H9 O29 0.972677 1_555
H10 O30 0.972677 1_555
H11 O31 0.972677 1_555
H12 O28 0.989673 1_555
H13 O29 0.989673 1_555
H14 O30 0.989673 1_555
H15 O31 0.989673 1_555
H16 O32 0.977760 1_545
H17 O33 0.977760 1_565
H18 O34 0.977760 1_565
H19 O35 0.977760 1_545
H20 O32 0.975688 1_555
H21 O33 0.975688 1_455
H22 O34 0.975688 1_555
H23 O35 0.975688 1_655
C0 O6 1.254813 1_555
C0 O0 1.256189 1_555
C1 O7 1.254813 1_555
C1 O1 1.256189 1_555
C2 O4 1.254813 1_555
C2 O2 1.256189 1_555
C3 O5 1.254813 1_555
C3 O3 1.256189 1_555
C4 F4 1.370939 1_555
C4 F0 1.371175 1_555
C4 Cl0 1.766746 1_555
C5 F5 1.370939 1_555
C5 F1 1.371175 1_555
C5 Cl1 1.766746 1_555
C6 F6 1.370939 1_555
C6 F2 1.371175 1_555
C6 Cl2 1.766746 1_555
C7 F7 1.370939 1_555
C7 F3 1.371175 1_555
C7 Cl3 1.766746 1_555
C8 O14 1.257131 1_555
C8 O8 1.259192 1_555
C9 O15 1.257131 1_555
C9 O9 1.259192 1_555
C10 O12 1.257131 1_555
C10 O10 1.259192 1_555
C11 O13 1.257131 1_555
C11 O11 1.259192 1_555
C12 F8 1.362907 1_555
C12 F12 1.369202 1_555
C12 Cl4 1.773403 1_555
C13 F9 1.362907 1_555
C13 F13 1.369202 1_555
C13 Cl5 1.773403 1_555
C14 F10 1.362907 1_555
C14 F14 1.369202 1_555
C14 Cl6 1.773403 1_555
C15 F11 1.362907 1_555
C15 F15 1.369202 1_555
C15 Cl7 1.773403 1_555
C16 O20 1.260443 1_555
C16 O16 1.265156 1_555
C17 O21 1.260443 1_555
C17 O17 1.265156 1_555
C18 O22 1.260443 1_555
C18 O18 1.265156 1_555
C19 O23 1.260443 1_555
C19 O19 1.265156 1_555
C20 F16 1.364401 1_565
C20 F20 1.373719 1_565
C20 Cl8 1.771933 1_555
C21 F17 1.364401 1_545
C21 F21 1.373719 1_545
C21 Cl9 1.771933 1_555
C22 F18 1.364401 1_545
C22 F22 1.373719 1_545
C22 Cl10 1.771933 1_555
C23 F19 1.364401 1_565
C23 F23 1.373719 1_565
C23 Cl11 1.771933 1_555
