# generated using pymatgen
data_Tl3In2Se5
_symmetry_space_group_name_H-M   'P 1'
_cell_length_a   6.79883880
_cell_length_b   6.79883880
_cell_length_c   58.15381800
_cell_angle_alpha   90.00000000
_cell_angle_beta   90.00000000
_cell_angle_gamma   117.97630144
_symmetry_Int_Tables_number   1
_chemical_formula_structural   Tl3In2Se5
_chemical_formula_sum   'Tl24 In16 Se40'
_cell_volume   2373.98577447
_cell_formula_units_Z   8
loop_
 _symmetry_equiv_pos_site_id
 _symmetry_equiv_pos_as_xyz
  1  'x, y, z'
loop_
 _atom_site_type_symbol
 _atom_site_label
 _atom_site_symmetry_multiplicity
 _atom_site_fract_x
 _atom_site_fract_y
 _atom_site_fract_z
 _atom_site_occupancy
  Tl  Tl0  1  0.75001700  0.75007500  0.79996700  1
  Tl  Tl1  1  0.24993300  0.25003300  0.89999200  1
  Tl  Tl2  1  0.25007500  0.25001700  0.79996700  1
  Tl  Tl3  1  0.74998100  0.74998100  0.00000000  1
  Tl  Tl4  1  0.75003300  0.74993300  0.89999200  1
  Tl  Tl5  1  0.25003300  0.24993300  0.10000800  1
  Tl  Tl6  1  0.24998100  0.24998100  0.00000000  1
  Tl  Tl7  1  0.74993300  0.75003300  0.10000800  1
  Tl  Tl8  1  0.75007500  0.75001700  0.20003300  1
  Tl  Tl9  1  0.49984200  0.99984200  0.34998100  1
  Tl  Tl10  1  0.24976800  0.25018200  0.30000800  1
  Tl  Tl11  1  0.25001700  0.25007500  0.20003300  1
  Tl  Tl12  1  0.99979900  0.49979900  0.44999800  1
  Tl  Tl13  1  0.74995800  0.74999800  0.40000900  1
  Tl  Tl14  1  0.75018200  0.74976800  0.30000800  1
  Tl  Tl15  1  0.49979900  0.99979900  0.55000200  1
  Tl  Tl16  1  0.25007900  0.25007900  0.50000000  1
  Tl  Tl17  1  0.24999800  0.24995800  0.40000900  1
  Tl  Tl18  1  0.99984200  0.49984200  0.65001900  1
  Tl  Tl19  1  0.74999800  0.74995800  0.59999100  1
  Tl  Tl20  1  0.75007900  0.75007900  0.50000000  1
  Tl  Tl21  1  0.25018200  0.24976800  0.69999200  1
  Tl  Tl22  1  0.24995800  0.24999800  0.59999100  1
  Tl  Tl23  1  0.74976800  0.75018200  0.69999200  1
  In  In0  1  0.49967900  0.99967900  0.75000400  1
  In  In1  1  0.99971100  0.49971100  0.85001700  1
  In  In2  1  0.49953900  0.99953900  0.95001000  1
  In  In3  1  0.00031000  0.50031000  0.74999700  1
  In  In4  1  0.99953900  0.49953900  0.04999000  1
  In  In5  1  0.50041100  0.00041100  0.84999100  1
  In  In6  1  0.49971100  0.99971100  0.14998300  1
  In  In7  1  0.00031800  0.50031800  0.95003400  1
  In  In8  1  0.99967900  0.49967900  0.24999600  1
  In  In9  1  0.50031800  0.00031800  0.04996600  1
  In  In10  1  0.00041100  0.50041100  0.15000900  1
  In  In11  1  0.50031000  0.00031000  0.25000300  1
  In  In12  1  0.00029400  0.50029400  0.35000200  1
  In  In13  1  0.50009400  0.00009400  0.44999400  1
  In  In14  1  0.00009400  0.50009400  0.55000600  1
  In  In15  1  0.50029400  0.00029400  0.64999800  1
  Se  Se0  1  0.42111000  0.57903000  0.75000400  1
  Se  Se1  1  0.74993900  0.24993900  0.78432700  1
  Se  Se2  1  0.92106200  0.07902700  0.84999500  1
  Se  Se3  1  0.25006000  0.75006000  0.88433800  1
  Se  Se4  1  0.74968900  0.24968900  0.71565100  1
  Se  Se5  1  0.07903000  0.92111000  0.75000400  1
  Se  Se6  1  0.42101900  0.57893700  0.95000500  1
  Se  Se7  1  0.75003500  0.25003500  0.98435200  1
  Se  Se8  1  0.24993800  0.74993800  0.81568100  1
  Se  Se9  1  0.57902700  0.42106200  0.84999500  1
  Se  Se10  1  0.92101900  0.07893700  0.04999500  1
  Se  Se11  1  0.24994300  0.74994300  0.08431700  1
  Se  Se12  1  0.74994300  0.24994300  0.91568300  1
  Se  Se13  1  0.07893700  0.92101900  0.95000500  1
  Se  Se14  1  0.42106200  0.57902700  0.15000500  1
  Se  Se15  1  0.74993800  0.24993800  0.18431900  1
  Se  Se16  1  0.25003500  0.75003500  0.01564800  1
  Se  Se17  1  0.57893700  0.42101900  0.04999500  1
  Se  Se18  1  0.92111000  0.07903000  0.24999600  1
  Se  Se19  1  0.24968900  0.74968900  0.28434900  1
  Se  Se20  1  0.75006000  0.25006000  0.11566200  1
  Se  Se21  1  0.07902700  0.92106200  0.15000500  1
  Se  Se22  1  0.41688500  0.56626800  0.34999900  1
  Se  Se23  1  0.75830300  0.25830300  0.38516600  1
  Se  Se24  1  0.24993900  0.74993900  0.21567300  1
  Se  Se25  1  0.57903000  0.42111000  0.24999600  1
  Se  Se26  1  0.91695500  0.06633900  0.45000100  1
  Se  Se27  1  0.25835000  0.75835000  0.48517300  1
  Se  Se28  1  0.75877600  0.25877600  0.31484000  1
  Se  Se29  1  0.06626800  0.91688500  0.34999900  1
  Se  Se30  1  0.41695500  0.56633900  0.54999900  1
  Se  Se31  1  0.75831300  0.25831300  0.58516900  1
  Se  Se32  1  0.25831300  0.75831300  0.41483100  1
  Se  Se33  1  0.56633900  0.41695500  0.45000100  1
  Se  Se34  1  0.91688500  0.06626800  0.65000100  1
  Se  Se35  1  0.25877600  0.75877600  0.68516000  1
  Se  Se36  1  0.75835000  0.25835000  0.51482700  1
  Se  Se37  1  0.06633900  0.91695500  0.54999900  1
  Se  Se38  1  0.25830300  0.75830300  0.61483400  1
  Se  Se39  1  0.56626800  0.41688500  0.65000100  1
loop_
_geom_bond_atom_site_label_1
_geom_bond_atom_site_label_2
_geom_bond_distance
_geom_bond_site_symmetry_2
In0 Se0 2.651641 1_555
In0 Se5 2.651641 1_555
In0 Se1 2.656684 1_565
In0 Se4 2.656840 1_565
In1 Se2 2.651710 1_555
In1 Se9 2.651710 1_555
In1 Se3 2.657008 1_655
In1 Se8 2.657100 1_655
In2 Se13 2.651428 1_555
In2 Se6 2.651428 1_555
In2 Se12 2.657525 1_565
In2 Se7 2.658606 1_565
In3 Se0 2.652339 1_555
In3 Se5 2.652339 1_555
In3 Se1 2.657503 1_455
In3 Se4 2.659358 1_455
In4 Se10 2.651428 1_555
In4 Se17 2.651428 1_555
In4 Se11 2.657525 1_655
In4 Se16 2.658606 1_655
In5 Se2 2.651557 1_555
In5 Se9 2.651557 1_555
In5 Se8 2.657102 1_545
In5 Se3 2.658154 1_545
In6 Se21 2.651710 1_555
In6 Se14 2.651710 1_555
In6 Se20 2.657008 1_565
In6 Se15 2.657100 1_565
In7 Se6 2.651886 1_555
In7 Se13 2.651886 1_555
In7 Se7 2.656572 1_455
In7 Se12 2.658439 1_455
In8 Se25 2.651641 1_555
In8 Se18 2.651641 1_555
In8 Se24 2.656684 1_655
In8 Se19 2.656840 1_655
In9 Se17 2.651886 1_555
In9 Se10 2.651886 1_555
In9 Se16 2.656572 1_545
In9 Se11 2.658439 1_545
In10 Se21 2.651557 1_555
In10 Se14 2.651557 1_555
In10 Se15 2.657102 1_455
In10 Se20 2.658154 1_455
In11 Se25 2.652339 1_555
In11 Se18 2.652339 1_555
In11 Se24 2.657503 1_545
In11 Se19 2.659358 1_545
In12 Se29 2.651675 1_555
In12 Se22 2.651675 1_555
In12 Se28 2.654077 1_455
In12 Se23 2.656280 1_455
In13 Se33 2.652879 1_555
In13 Se26 2.652879 1_555
In13 Se32 2.655297 1_545
In13 Se27 2.655848 1_545
In14 Se30 2.652879 1_555
In14 Se37 2.652879 1_555
In14 Se31 2.655297 1_455
In14 Se36 2.655848 1_455
In15 Se39 2.651675 1_555
In15 Se34 2.651675 1_555
In15 Se35 2.654077 1_545
In15 Se38 2.656280 1_545
Se22 Tl9 2.729060 1_555
Se23 Tl9 2.732282 1_545
Se26 Tl12 2.728528 1_555
Se27 Tl12 2.732264 1_455
Se28 Tl9 2.732565 1_545
Se29 Tl9 2.729060 1_555
Se30 Tl15 2.728528 1_555
Se31 Tl15 2.731744 1_545
Se32 Tl12 2.731744 1_455
Se33 Tl12 2.728528 1_555
Se34 Tl18 2.729060 1_555
Se35 Tl18 2.732565 1_455
Se36 Tl15 2.732264 1_545
Se37 Tl15 2.728528 1_555
Se38 Tl18 2.732282 1_455
Se39 Tl18 2.729060 1_555
