# generated using pymatgen
data_SmGaCo
_symmetry_space_group_name_H-M   'P 1'
_cell_length_a   4.15514300
_cell_length_b   7.76161400
_cell_length_c   7.96090100
_cell_angle_alpha   90.00000000
_cell_angle_beta   90.00000000
_cell_angle_gamma   90.00000000
_symmetry_Int_Tables_number   1
_chemical_formula_structural   SmGaCo
_chemical_formula_sum   'Sm4 Ga4 Co4'
_cell_volume   256.74396181
_cell_formula_units_Z   4
loop_
 _symmetry_equiv_pos_site_id
 _symmetry_equiv_pos_as_xyz
  1  'x, y, z'
loop_
 _atom_site_type_symbol
 _atom_site_label
 _atom_site_symmetry_multiplicity
 _atom_site_fract_x
 _atom_site_fract_y
 _atom_site_fract_z
 _atom_site_occupancy
  Sm  Sm0  1  0.75000000  0.42553000  0.21208600  1
  Sm  Sm1  1  0.25000000  0.92553000  0.28791400  1
  Sm  Sm2  1  0.75000000  0.07447000  0.71208600  1
  Sm  Sm3  1  0.25000000  0.57447000  0.78791400  1
  Ga  Ga0  1  0.75000000  0.72933800  0.49848300  1
  Ga  Ga1  1  0.25000000  0.27066200  0.50151700  1
  Ga  Ga2  1  0.75000000  0.77066200  0.99848300  1
  Ga  Ga3  1  0.25000000  0.22933800  0.00151700  1
  Co  Co0  1  0.75000000  0.42721500  0.54701100  1
  Co  Co1  1  0.25000000  0.57278500  0.45298900  1
  Co  Co2  1  0.75000000  0.07278500  0.04701100  1
  Co  Co3  1  0.25000000  0.92721500  0.95298900  1
loop_
_geom_bond_atom_site_label_1
_geom_bond_atom_site_label_2
_geom_bond_distance
_geom_bond_site_symmetry_2
Ga0 Sm1 3.073299 1_655
Ga0 Sm1 3.073299 1_555
Ga0 Sm2 3.172929 1_565
Ga0 Sm0 3.280039 1_555
Ga0 Sm3 3.327190 1_555
Ga0 Sm3 3.327190 1_655
Ga1 Sm2 3.073299 1_455
Ga1 Sm2 3.073299 1_555
Ga1 Sm1 3.172929 1_545
Ga1 Sm3 3.280039 1_555
Ga1 Sm0 3.327190 1_455
Ga1 Sm0 3.327190 1_555
Ga2 Sm3 3.073299 1_555
Ga2 Sm3 3.073299 1_655
Ga2 Sm0 3.172929 1_556
Ga2 Sm2 3.280039 1_565
Ga2 Sm1 3.327190 1_656
Ga2 Sm1 3.327190 1_556
Ga3 Sm0 3.073299 1_555
Ga3 Sm0 3.073299 1_455
Ga3 Sm3 3.172929 1_554
Ga3 Sm1 3.280039 1_545
Ga3 Sm2 3.327190 1_454
Ga3 Sm2 3.327190 1_554
Co0 Ga0 2.376572 1_555
Co0 Ga1 2.433917 1_655
Co0 Ga1 2.433917 1_555
Co0 Co1 2.480551 1_555
Co0 Co1 2.480551 1_655
Co0 Sm0 2.666337 1_555
Co0 Sm2 3.036925 1_555
Co0 Sm3 3.049686 1_555
Co0 Sm3 3.049686 1_655
Co1 Ga1 2.376572 1_555
Co1 Ga0 2.433917 1_555
Co1 Ga0 2.433917 1_455
Co1 Sm3 2.666337 1_555
Co1 Sm1 3.036925 1_555
Co1 Sm0 3.049686 1_555
Co1 Sm0 3.049686 1_455
Co2 Ga2 2.376572 1_544
Co2 Ga3 2.433917 1_555
Co2 Ga3 2.433917 1_655
Co2 Co3 2.480551 1_544
Co2 Co3 2.480551 1_644
Co2 Sm2 2.666337 1_554
Co2 Sm0 3.036925 1_555
Co2 Sm1 3.049686 1_545
Co2 Sm1 3.049686 1_645
Co3 Ga3 2.376572 1_566
Co3 Ga2 2.433917 1_455
Co3 Ga2 2.433917 1_555
Co3 Sm1 2.666337 1_556
Co3 Sm3 3.036925 1_555
Co3 Sm2 3.049686 1_465
Co3 Sm2 3.049686 1_565
