# generated using pymatgen
data_BaH2(CO2)2
_symmetry_space_group_name_H-M   'P 1'
_cell_length_a   6.94718600
_cell_length_b   7.74399500
_cell_length_c   10.34964500
_cell_angle_alpha   90.00000000
_cell_angle_beta   90.00000000
_cell_angle_gamma   90.00000000
_symmetry_Int_Tables_number   1
_chemical_formula_structural   BaH2(CO2)2
_chemical_formula_sum   'Ba4 H8 C8 O16'
_cell_volume   556.80027862
_cell_formula_units_Z   4
loop_
 _symmetry_equiv_pos_site_id
 _symmetry_equiv_pos_as_xyz
  1  'x, y, z'
loop_
 _atom_site_type_symbol
 _atom_site_label
 _atom_site_symmetry_multiplicity
 _atom_site_fract_x
 _atom_site_fract_y
 _atom_site_fract_z
 _atom_site_occupancy
  Ba  Ba0  1  0.37588300  0.59105800  0.11667000  1
  Ba  Ba1  1  0.62411700  0.09105800  0.38333000  1
  Ba  Ba2  1  0.12411700  0.40894200  0.61667000  1
  Ba  Ba3  1  0.87588300  0.90894200  0.88333000  1
  H  H0  1  0.21714600  0.24841200  0.00087000  1
  H  H1  1  0.40276400  0.96135900  0.73337200  1
  H  H2  1  0.59723600  0.46135900  0.76662800  1
  H  H3  1  0.78285400  0.74841200  0.49913000  1
  H  H4  1  0.28285400  0.75158800  0.50087000  1
  H  H5  1  0.90276400  0.53864100  0.26662800  1
  H  H6  1  0.71714600  0.25158800  0.99913000  1
  H  H7  1  0.09723600  0.03864100  0.23337200  1
  C  C0  1  0.96857300  0.40938600  0.28406100  1
  C  C1  1  0.14547300  0.31463200  0.91929600  1
  C  C2  1  0.35452700  0.68536800  0.41929600  1
  C  C3  1  0.64547300  0.18536800  0.08070400  1
  C  C4  1  0.53142700  0.59061400  0.78406100  1
  C  C5  1  0.46857300  0.09061400  0.71593900  1
  C  C6  1  0.85452700  0.81463200  0.58070400  1
  C  C7  1  0.03142700  0.90938600  0.21593900  1
  O  O0  1  0.91099500  0.32810900  0.38596500  1
  O  O1  1  0.04561500  0.22070500  0.84297200  1
  O  O2  1  0.08900500  0.82810900  0.11403500  1
  O  O3  1  0.82906500  0.97566600  0.59375900  1
  O  O4  1  0.54561500  0.27929500  0.15702800  1
  O  O5  1  0.09296500  0.35698400  0.20522900  1
  O  O6  1  0.95438500  0.72070500  0.65702800  1
  O  O7  1  0.90703500  0.85698400  0.29477100  1
  O  O8  1  0.17093500  0.47566600  0.90624100  1
  O  O9  1  0.45438500  0.77929500  0.34297200  1
  O  O10  1  0.41099500  0.17189100  0.61403500  1
  O  O11  1  0.40703500  0.64301600  0.70522900  1
  O  O12  1  0.32906500  0.52433400  0.40624100  1
  O  O13  1  0.58900500  0.67189100  0.88596500  1
  O  O14  1  0.67093500  0.02433400  0.09375900  1
  O  O15  1  0.59296500  0.14301600  0.79477100  1
loop_
_geom_bond_atom_site_label_1
_geom_bond_atom_site_label_2
_geom_bond_distance
_geom_bond_site_symmetry_2
Ba0 O2 2.709732 1_555
Ba0 O4 2.719133 1_555
Ba0 O8 2.751154 1_554
Ba0 O9 2.812113 1_555
Ba0 O5 2.826475 1_555
Ba0 O13 2.878401 1_554
Ba0 O12 3.058518 1_555
Ba1 O0 2.709732 1_555
Ba1 O9 2.719133 1_545
Ba1 O3 2.751154 1_545
Ba1 O4 2.812113 1_555
Ba1 O7 2.826475 1_545
Ba1 O10 2.878401 1_555
Ba1 O14 3.058518 1_555
Ba2 O10 2.709732 1_555
Ba2 O6 2.719133 1_455
Ba2 O12 2.751154 1_555
Ba2 O1 2.812113 1_555
Ba2 O11 2.826475 1_555
Ba2 O0 2.878401 1_455
Ba2 O8 3.058518 1_555
Ba3 O13 2.709732 1_555
Ba3 O1 2.719133 1_665
Ba3 O14 2.751154 1_566
Ba3 O6 2.812113 1_555
Ba3 O15 2.826475 1_565
Ba3 O2 2.878401 1_656
Ba3 O3 3.058518 1_555
C0 H5 1.115112 1_555
C0 O5 1.255841 1_655
C0 O0 1.291700 1_555
C1 H0 1.106201 1_556
C1 O8 1.266756 1_555
C1 O1 1.278403 1_555
C2 H4 1.106201 1_555
C2 O12 1.266756 1_555
C2 O9 1.278403 1_555
C3 H6 1.106201 1_554
C3 O14 1.266756 1_555
C3 O4 1.278403 1_555
C4 H2 1.115112 1_555
C4 O11 1.255841 1_555
C4 O13 1.291700 1_555
C5 H1 1.115112 1_545
C5 O15 1.255841 1_555
C5 O10 1.291700 1_555
C6 H3 1.106201 1_555
C6 O3 1.266756 1_555
C6 O6 1.278403 1_555
C7 H7 1.115112 1_565
C7 O7 1.255841 1_455
C7 O2 1.291700 1_555
