# generated using pymatgen
data_KZrPSe6
_symmetry_space_group_name_H-M   'P 1'
_cell_length_a   3.86223200
_cell_length_b   15.22530100
_cell_length_c   18.35260000
_cell_angle_alpha   90.00000000
_cell_angle_beta   90.00000000
_cell_angle_gamma   90.00000000
_symmetry_Int_Tables_number   1
_chemical_formula_structural   KZrPSe6
_chemical_formula_sum   'K4 Zr4 P4 Se24'
_cell_volume   1079.19977031
_cell_formula_units_Z   4
loop_
 _symmetry_equiv_pos_site_id
 _symmetry_equiv_pos_as_xyz
  1  'x, y, z'
loop_
 _atom_site_type_symbol
 _atom_site_label
 _atom_site_symmetry_multiplicity
 _atom_site_fract_x
 _atom_site_fract_y
 _atom_site_fract_z
 _atom_site_occupancy
  K  K0  1  0.00000000  0.10700200  0.82460200  1
  K  K1  1  0.00000000  0.89299800  0.32460200  1
  K  K2  1  0.00000000  0.45458700  0.81632600  1
  K  K3  1  0.00000000  0.54541300  0.31632600  1
  Zr  Zr0  1  0.50000000  0.29074600  0.60227600  1
  Zr  Zr1  1  0.50000000  0.79720300  0.73382800  1
  Zr  Zr2  1  0.50000000  0.20279700  0.23382800  1
  Zr  Zr3  1  0.50000000  0.70925400  0.10227600  1
  P  P0  1  0.00000000  0.88244000  0.57266200  1
  P  P1  1  0.00000000  0.11756000  0.07266200  1
  P  P2  1  0.00000000  0.47576000  0.51652100  1
  P  P3  1  0.00000000  0.52424000  0.01652100  1
  Se  Se0  1  0.50000000  0.78929400  0.57426900  1
  Se  Se1  1  0.00000000  0.82847000  0.13492100  1
  Se  Se2  1  0.00000000  0.57909400  0.13341100  1
  Se  Se3  1  0.00000000  0.38728400  0.99776400  1
  Se  Se4  1  0.00000000  0.17153000  0.63492100  1
  Se  Se5  1  0.00000000  0.78584200  0.00996500  1
  Se  Se6  1  0.00000000  0.42090600  0.63341100  1
  Se  Se7  1  0.50000000  0.29596100  0.75422900  1
  Se  Se8  1  0.00000000  0.02055500  0.99036200  1
  Se  Se9  1  0.00000000  0.07815200  0.19539700  1
  Se  Se10  1  0.50000000  0.21070600  0.07426900  1
  Se  Se11  1  0.00000000  0.33420400  0.20093400  1
  Se  Se12  1  0.50000000  0.07848000  0.33963200  1
  Se  Se13  1  0.00000000  0.21415800  0.50996500  1
  Se  Se14  1  0.00000000  0.72394900  0.82277300  1
  Se  Se15  1  0.00000000  0.27605100  0.32277300  1
  Se  Se16  1  0.50000000  0.59705500  0.97061900  1
  Se  Se17  1  0.50000000  0.70403900  0.25422900  1
  Se  Se18  1  0.00000000  0.97944500  0.49036200  1
  Se  Se19  1  0.00000000  0.61271600  0.49776400  1
  Se  Se20  1  0.50000000  0.40294500  0.47061900  1
  Se  Se21  1  0.00000000  0.92184800  0.69539700  1
  Se  Se22  1  0.00000000  0.66579600  0.70093400  1
  Se  Se23  1  0.50000000  0.92152000  0.83963200  1
loop_
_geom_bond_atom_site_label_1
_geom_bond_atom_site_label_2
_geom_bond_distance
_geom_bond_site_symmetry_2
K0 Se8 3.314645 1_555
K0 Se23 3.432256 1_545
K0 Se23 3.432256 1_445
K0 Se4 3.617120 1_555
K0 Se21 3.683710 1_545
K0 Se7 3.697856 1_555
K0 Se7 3.697856 1_455
K1 Se18 3.314645 1_555
K1 Se12 3.432256 1_565
K1 Se12 3.432256 1_465
K1 Se1 3.617120 1_555
K1 Se9 3.683710 1_565
K1 Se17 3.697856 1_555
K1 Se17 3.697856 1_455
K2 Se7 3.295579 1_555
K2 Se7 3.295579 1_455
K2 Se6 3.395907 1_555
K2 Se3 3.483962 1_555
K2 Se22 3.850415 1_555
K3 Se17 3.295579 1_555
K3 Se17 3.295579 1_455
K3 Se2 3.395907 1_555
K3 Se19 3.483962 1_555
K3 Se11 3.850415 1_555
P0 Se18 2.112508 1_555
P0 Se21 2.331048 1_555
P0 Se0 2.396101 1_555
P0 Se0 2.396101 1_455
P1 Se8 2.112508 1_554
P1 Se9 2.331048 1_555
P1 Se10 2.396101 1_555
P1 Se10 2.396101 1_455
P2 Se19 2.113420 1_555
P2 Se6 2.302073 1_555
P2 Se20 2.380744 1_555
P2 Se20 2.380744 1_455
P3 Se3 2.113420 1_554
P3 Se2 2.302073 1_555
P3 Se16 2.380744 1_454
P3 Se16 2.380744 1_554
Se0 Zr1 2.930797 1_555
Se1 Se5 2.383340 1_555
Se1 Zr3 2.717120 1_455
Se1 Zr3 2.717120 1_555
Se2 Zr3 2.825412 1_455
Se2 Zr3 2.825412 1_555
Se4 Zr0 2.717120 1_555
Se4 Zr0 2.717120 1_455
Se5 Zr3 2.821183 1_555
Se5 Zr3 2.821183 1_455
Se6 Zr0 2.825412 1_555
Se6 Zr0 2.825412 1_455
Se7 Zr0 2.789863 1_555
Se9 Zr2 2.797884 1_555
Se9 Zr2 2.797884 1_455
Se10 Zr2 2.930797 1_555
Se11 Se15 2.404975 1_555
Se11 Zr2 2.845434 1_555
Se11 Zr2 2.845434 1_455
Se12 Zr2 2.711652 1_555
Se13 Se4 2.383340 1_555
Se13 Zr0 2.821183 1_555
Se13 Zr0 2.821183 1_455
Se14 Se22 2.404975 1_555
Se14 Zr1 2.763652 1_455
Se14 Zr1 2.763652 1_555
Se15 Zr2 2.763652 1_555
Se15 Zr2 2.763652 1_455
Se16 Zr3 2.959125 1_556
Se17 Zr3 2.789863 1_555
Se20 Zr0 2.959125 1_555
Se21 Zr1 2.797884 1_555
Se21 Zr1 2.797884 1_455
Se22 Zr1 2.845434 1_455
Se22 Zr1 2.845434 1_555
Se23 Zr1 2.711652 1_555
