# generated using pymatgen
data_Ca2SiO4
_symmetry_space_group_name_H-M   'P 1'
_cell_length_a   8.73626462
_cell_length_b   8.73626462
_cell_length_c   10.05195991
_cell_angle_alpha   57.26673515
_cell_angle_beta   57.26673515
_cell_angle_gamma   36.56552954
_symmetry_Int_Tables_number   1
_chemical_formula_structural   Ca2SiO4
_chemical_formula_sum   'Ca8 Si4 O16'
_cell_volume   375.69583691
_cell_formula_units_Z   4
loop_
 _symmetry_equiv_pos_site_id
 _symmetry_equiv_pos_as_xyz
  1  'x, y, z'
loop_
 _atom_site_type_symbol
 _atom_site_label
 _atom_site_symmetry_multiplicity
 _atom_site_fract_x
 _atom_site_fract_y
 _atom_site_fract_z
 _atom_site_occupancy
  Ca  Ca0  1  0.30636100  0.87358700  0.34282500  1
  Ca  Ca1  1  0.87358700  0.30636100  0.84282500  1
  Ca  Ca2  1  0.50000000  0.00000000  0.50000000  1
  Ca  Ca3  1  0.25785800  0.74214200  0.75000000  1
  Ca  Ca4  1  0.12641300  0.69363900  0.15717500  1
  Ca  Ca5  1  0.00000000  0.50000000  0.00000000  1
  Ca  Ca6  1  0.74214200  0.25785800  0.25000000  1
  Ca  Ca7  1  0.69363900  0.12641300  0.65717500  1
  Si  Si0  1  0.60247700  0.10076700  0.07426800  1
  Si  Si1  1  0.89923300  0.39752300  0.42573200  1
  Si  Si2  1  0.10076700  0.60247700  0.57426800  1
  Si  Si3  1  0.39752300  0.89923300  0.92573200  1
  O  O0  1  0.88109200  0.96895000  0.93750100  1
  O  O1  1  0.03105000  0.11890800  0.56249900  1
  O  O2  1  0.07979000  0.44184200  0.35344300  1
  O  O3  1  0.55815800  0.92021000  0.14655700  1
  O  O4  1  0.90756700  0.34340500  0.28401400  1
  O  O5  1  0.65659500  0.09243300  0.21598600  1
  O  O6  1  0.36831400  0.41230900  0.98610800  1
  O  O7  1  0.58769100  0.63168600  0.51389200  1
  O  O8  1  0.41230900  0.36831400  0.48610800  1
  O  O9  1  0.63168600  0.58769100  0.01389200  1
  O  O10  1  0.34340500  0.90756700  0.78401400  1
  O  O11  1  0.09243300  0.65659500  0.71598600  1
  O  O12  1  0.44184200  0.07979000  0.85344300  1
  O  O13  1  0.92021000  0.55815800  0.64655700  1
  O  O14  1  0.96895000  0.88109200  0.43750100  1
  O  O15  1  0.11890800  0.03105000  0.06249900  1
loop_
_geom_bond_atom_site_label_1
_geom_bond_atom_site_label_2
_geom_bond_distance
_geom_bond_site_symmetry_2
Ca0 O3 2.184943 1_555
Ca0 O7 2.400152 1_555
Ca0 O4 2.442719 1_465
Ca0 O14 2.514405 1_455
Ca0 O1 2.519542 1_565
Ca1 O13 2.184943 1_555
Ca1 O9 2.400152 1_556
Ca1 O10 2.442719 1_645
Ca1 O0 2.514405 1_545
Ca1 O15 2.519542 1_656
Ca2 O5 2.394099 1_555
Ca2 O10 2.394099 1_545
Ca2 O8 2.574870 1_555
Ca2 O7 2.574870 1_545
Ca2 O2 2.735523 1_555
Ca2 O13 2.735523 1_545
Ca3 O0 2.272810 1_455
Ca3 O1 2.272810 1_565
Ca3 O11 2.304290 1_555
Ca3 O10 2.304290 1_555
Ca3 O6 2.341225 1_555
Ca3 O7 2.341225 1_555
Ca4 O2 2.184943 1_555
Ca4 O6 2.400152 1_554
Ca4 O5 2.442719 1_465
Ca4 O15 2.514405 1_565
Ca4 O0 2.519542 1_454
Ca5 O4 2.394099 1_455
Ca5 O11 2.394099 1_554
Ca5 O6 2.574870 1_554
Ca5 O9 2.574870 1_455
Ca5 O12 2.735523 1_554
Ca5 O3 2.735523 1_455
Ca6 O14 2.272810 1_545
Ca6 O15 2.272810 1_655
Ca6 O5 2.304290 1_555
Ca6 O4 2.304290 1_555
Ca6 O8 2.341225 1_555
Ca6 O9 2.341225 1_555
Ca7 O12 2.184943 1_555
Ca7 O8 2.400152 1_555
Ca7 O11 2.442719 1_645
Ca7 O1 2.514405 1_655
Ca7 O14 2.519542 1_545
O0 Si0 1.652699 1_566
O1 Si1 1.652699 1_455
O2 Si1 1.613481 1_455
O3 Si0 1.613481 1_565
O4 Si1 1.679007 1_555
O5 Si0 1.679007 1_555
O6 Si0 1.669193 1_556
O7 Si1 1.669193 1_555
O8 Si2 1.669193 1_555
O9 Si3 1.669193 1_554
O10 Si3 1.679007 1_555
O11 Si2 1.679007 1_555
O12 Si3 1.613481 1_545
O13 Si2 1.613481 1_655
O14 Si2 1.652699 1_655
O15 Si3 1.652699 1_544
