# generated using pymatgen
data_Li3AlGeO5
_symmetry_space_group_name_H-M   'P 1'
_cell_length_a   4.94963900
_cell_length_b   5.45517100
_cell_length_c   16.00565700
_cell_angle_alpha   90.00000000
_cell_angle_beta   90.00000000
_cell_angle_gamma   90.00000000
_symmetry_Int_Tables_number   1
_chemical_formula_structural   Li3AlGeO5
_chemical_formula_sum   'Li12 Al4 Ge4 O20'
_cell_volume   432.17077951
_cell_formula_units_Z   4
loop_
 _symmetry_equiv_pos_site_id
 _symmetry_equiv_pos_as_xyz
  1  'x, y, z'
loop_
 _atom_site_type_symbol
 _atom_site_label
 _atom_site_symmetry_multiplicity
 _atom_site_fract_x
 _atom_site_fract_y
 _atom_site_fract_z
 _atom_site_occupancy
  Li  Li0  1  0.49048700  0.32112000  0.40073100  1
  Li  Li1  1  0.99048700  0.67888000  0.59926900  1
  Li  Li2  1  0.99048700  0.17888000  0.90073100  1
  Li  Li3  1  0.49048700  0.82112000  0.09926900  1
  Li  Li4  1  0.49261300  0.83808200  0.50303800  1
  Li  Li5  1  0.99261300  0.16191800  0.49696200  1
  Li  Li6  1  0.99261300  0.66191800  0.00303800  1
  Li  Li7  1  0.49261300  0.33808200  0.99696200  1
  Li  Li8  1  0.49054900  0.83603400  0.69914700  1
  Li  Li9  1  0.99054900  0.16396600  0.30085300  1
  Li  Li10  1  0.99054900  0.66396600  0.19914700  1
  Li  Li11  1  0.49054900  0.33603400  0.80085300  1
  Al  Al0  1  0.49000100  0.32436000  0.20189500  1
  Al  Al1  1  0.99000100  0.67564000  0.79810500  1
  Al  Al2  1  0.99000100  0.17564000  0.70189500  1
  Al  Al3  1  0.49000100  0.82436000  0.29810500  1
  Ge  Ge0  1  0.99499900  0.16059700  0.09743700  1
  Ge  Ge1  1  0.49499900  0.83940300  0.90256300  1
  Ge  Ge2  1  0.49499900  0.33940300  0.59743700  1
  Ge  Ge3  1  0.99499900  0.66059700  0.40256300  1
  O  O0  1  0.58382200  0.13698800  0.28813800  1
  O  O1  1  0.13092000  0.81106500  0.89018300  1
  O  O2  1  0.13092000  0.31106500  0.60981700  1
  O  O3  1  0.63092000  0.18893500  0.10981700  1
  O  O4  1  0.09482400  0.31636300  0.00795300  1
  O  O5  1  0.59482400  0.68363700  0.99204700  1
  O  O6  1  0.59482400  0.18363700  0.50795300  1
  O  O7  1  0.09482400  0.81636300  0.49204700  1
  O  O8  1  0.09086400  0.85366800  0.10315200  1
  O  O9  1  0.59086400  0.14633200  0.89684800  1
  O  O10  1  0.59086400  0.64633200  0.60315200  1
  O  O11  1  0.09086400  0.35366800  0.39684800  1
  O  O12  1  0.12792200  0.31414900  0.19066900  1
  O  O13  1  0.62792200  0.68585100  0.80933100  1
  O  O14  1  0.62792200  0.18585100  0.69066900  1
  O  O15  1  0.12792200  0.81414900  0.30933100  1
  O  O16  1  0.08382200  0.36301200  0.78813800  1
  O  O17  1  0.58382200  0.63698800  0.21186200  1
  O  O18  1  0.63092000  0.68893500  0.39018300  1
  O  O19  1  0.08382200  0.86301200  0.71186200  1
loop_
_geom_bond_atom_site_label_1
_geom_bond_atom_site_label_2
_geom_bond_distance
_geom_bond_site_symmetry_2
Li0 O6 1.942779 1_555
Li0 O11 1.986915 1_555
Li0 O0 2.114246 1_555
Li0 O18 2.130182 1_555
Li1 O7 1.942779 1_655
Li1 O10 1.986915 1_555
Li1 O19 2.114246 1_655
Li1 O2 2.130182 1_655
Li2 O4 1.942779 1_656
Li2 O9 1.986915 1_555
Li2 O16 2.114246 1_655
Li2 O1 2.130182 1_645
Li3 O5 1.942779 1_554
Li3 O8 1.986915 1_555
Li3 O17 2.114246 1_555
Li3 O3 2.130182 1_565
Li4 O6 1.953353 1_565
Li4 O10 1.974418 1_555
Li4 O7 1.980303 1_555
Li4 O18 2.096045 1_555
Li5 O7 1.953353 1_645
Li5 O11 1.974418 1_655
Li5 O6 1.980303 1_555
Li5 O2 2.096045 1_655
Li6 O4 1.953353 1_655
Li6 O8 1.974418 1_655
Li6 O5 1.980303 1_554
Li6 O1 2.096045 1_654
Li7 O5 1.953353 1_555
Li7 O9 1.974418 1_555
Li7 O4 1.980303 1_556
Li7 O3 2.096045 1_556
Li8 O10 1.917859 1_555
Li8 O19 2.028757 1_555
Li8 O14 2.030368 1_565
Li8 O13 2.060026 1_555
Li9 O11 1.917859 1_655
Li9 O0 2.028757 1_555
Li9 O15 2.030368 1_645
Li9 O12 2.060026 1_655
Li10 O8 1.917859 1_655
Li10 O17 2.028757 1_555
Li10 O12 2.030368 1_655
Li10 O15 2.060026 1_655
Li11 O9 1.917859 1_555
Li11 O16 2.028757 1_555
Li11 O13 2.030368 1_555
Li11 O14 2.060026 1_555
Al0 O17 1.774717 1_555
Al0 O0 1.779289 1_555
Al0 O3 1.790049 1_555
Al0 O12 1.802006 1_555
Al1 O16 1.774717 1_655
Al1 O19 1.779289 1_655
Al1 O1 1.790049 1_655
Al1 O13 1.802006 1_555
Al2 O19 1.774717 1_645
Al2 O16 1.779289 1_655
Al2 O2 1.790049 1_655
Al2 O14 1.802006 1_555
Al3 O0 1.774717 1_565
Al3 O17 1.779289 1_555
Al3 O18 1.790049 1_555
Al3 O15 1.802006 1_555
Ge0 O4 1.737099 1_655
Ge0 O8 1.742689 1_645
Ge0 O3 1.819500 1_555
Ge0 O12 1.833385 1_655
Ge1 O5 1.737099 1_555
Ge1 O9 1.742689 1_565
Ge1 O1 1.819500 1_555
Ge1 O13 1.833385 1_555
Ge2 O6 1.737099 1_555
Ge2 O10 1.742689 1_555
Ge2 O2 1.819500 1_555
Ge2 O14 1.833385 1_555
Ge3 O7 1.737099 1_655
Ge3 O11 1.742689 1_655
Ge3 O18 1.819500 1_555
Ge3 O15 1.833385 1_655
