# generated using pymatgen
data_Pu2Ni2Sn
_symmetry_space_group_name_H-M   'P 1'
_cell_length_a   7.31050913
_cell_length_b   7.31050913
_cell_length_c   3.71551981
_cell_angle_alpha   90.00000000
_cell_angle_beta   90.00000000
_cell_angle_gamma   90.00000000
_symmetry_Int_Tables_number   1
_chemical_formula_structural   Pu2Ni2Sn
_chemical_formula_sum   'Pu4 Ni4 Sn2'
_cell_volume   198.57054548
_cell_formula_units_Z   2
loop_
 _symmetry_equiv_pos_site_id
 _symmetry_equiv_pos_as_xyz
  1  'x, y, z'
loop_
 _atom_site_type_symbol
 _atom_site_label
 _atom_site_symmetry_multiplicity
 _atom_site_fract_x
 _atom_site_fract_y
 _atom_site_fract_z
 _atom_site_occupancy
  Pu  Pu0  1  0.17991620  0.32008380  0.50000000  1
  Pu  Pu1  1  0.67991620  0.17991620  0.50000000  1
  Pu  Pu2  1  0.82008380  0.67991620  0.50000000  1
  Pu  Pu3  1  0.32008380  0.82008380  0.50000000  1
  Ni  Ni0  1  0.12053697  0.62053697  0.00000000  1
  Ni  Ni1  1  0.62053697  0.87946303  -0.00000000  1
  Ni  Ni2  1  0.37946303  0.12053697  0.00000000  1
  Ni  Ni3  1  0.87946303  0.37946303  -0.00000000  1
  Sn  Sn0  1  -0.00000000  0.00000000  -0.00000000  1
  Sn  Sn1  1  0.50000000  0.50000000  -0.00000000  1
loop_
_geom_bond_atom_site_label_1
_geom_bond_atom_site_label_2
_geom_bond_distance
_geom_bond_site_symmetry_2
Pu0 Sn0 3.264463 1_556
Pu0 Sn1 3.264463 1_555
Pu0 Sn0 3.264463 1_555
Pu0 Sn1 3.264463 1_556
Pu1 Sn1 3.264463 1_555
Pu1 Sn0 3.264463 1_656
Pu1 Sn1 3.264463 1_556
Pu1 Sn0 3.264463 1_655
Pu2 Sn1 3.264463 1_555
Pu2 Sn1 3.264463 1_556
Pu2 Sn0 3.264463 1_665
Pu2 Sn0 3.264463 1_666
Pu3 Sn1 3.264463 1_555
Pu3 Sn1 3.264463 1_556
Pu3 Sn0 3.264463 1_565
Pu3 Sn0 3.264463 1_566
Ni0 Ni3 2.492372 1_455
Ni0 Pu3 2.776221 1_554
Ni0 Pu3 2.776221 1_555
Ni0 Pu0 2.909325 1_554
Ni0 Pu0 2.909325 1_555
Ni0 Pu2 2.909325 1_455
Ni0 Pu2 2.909325 1_454
Ni0 Sn1 2.910660 1_555
Ni0 Sn0 2.910660 1_565
Ni1 Ni2 2.492372 1_565
Ni1 Pu2 2.776221 1_554
Ni1 Pu2 2.776221 1_555
Ni1 Pu1 2.909325 1_565
Ni1 Pu1 2.909325 1_564
Ni1 Pu3 2.909325 1_554
Ni1 Pu3 2.909325 1_555
Ni1 Sn0 2.910660 1_665
Ni1 Sn1 2.910660 1_555
Ni2 Pu0 2.776221 1_554
Ni2 Pu0 2.776221 1_555
Ni2 Pu1 2.909325 1_554
Ni2 Pu1 2.909325 1_555
Ni2 Pu3 2.909325 1_544
Ni2 Pu3 2.909325 1_545
Ni2 Sn1 2.910660 1_555
Ni2 Sn0 2.910660 1_555
Ni3 Pu1 2.776221 1_555
Ni3 Pu1 2.776221 1_554
Ni3 Pu2 2.909325 1_555
Ni3 Pu0 2.909325 1_655
Ni3 Pu0 2.909325 1_654
Ni3 Pu2 2.909325 1_554
Ni3 Sn0 2.910660 1_655
Ni3 Sn1 2.910660 1_555
