# generated using pymatgen
data_La4(CoO3)3
_symmetry_space_group_name_H-M   'P 1'
_cell_length_a   5.48657700
_cell_length_b   5.74537900
_cell_length_c   28.45084000
_cell_angle_alpha   90.00000000
_cell_angle_beta   90.00000000
_cell_angle_gamma   90.00000000
_symmetry_Int_Tables_number   1
_chemical_formula_structural   La4(CoO3)3
_chemical_formula_sum   'La16 Co12 O36'
_cell_volume   896.84058757
_cell_formula_units_Z   4
loop_
 _symmetry_equiv_pos_site_id
 _symmetry_equiv_pos_as_xyz
  1  'x, y, z'
loop_
 _atom_site_type_symbol
 _atom_site_label
 _atom_site_symmetry_multiplicity
 _atom_site_fract_x
 _atom_site_fract_y
 _atom_site_fract_z
 _atom_site_occupancy
  La  La0  1  0.75128900  0.97957700  0.32838500  1
  La  La1  1  0.25380800  0.48291800  0.04931600  1
  La  La2  1  0.24871100  0.02042300  0.67161500  1
  La  La3  1  0.25128900  0.52042300  0.32838500  1
  La  La4  1  0.74871100  0.47957700  0.67161500  1
  La  La5  1  0.75380800  0.01708200  0.04931600  1
  La  La6  1  0.74871100  0.47957700  0.82838500  1
  La  La7  1  0.24871100  0.02042300  0.82838500  1
  La  La8  1  0.24619200  0.98291800  0.54931600  1
  La  La9  1  0.74619200  0.51708200  0.95068400  1
  La  La10  1  0.74619200  0.51708200  0.54931600  1
  La  La11  1  0.75380800  0.01708200  0.45068400  1
  La  La12  1  0.24619200  0.98291800  0.95068400  1
  La  La13  1  0.25128900  0.52042300  0.17161500  1
  La  La14  1  0.25380800  0.48291800  0.45068400  1
  La  La15  1  0.75128900  0.97957700  0.17161500  1
  Co  Co0  1  0.29644900  0.05978800  0.25000000  1
  Co  Co1  1  0.24960500  0.50106900  0.60953800  1
  Co  Co2  1  0.75039500  0.49893100  0.10953800  1
  Co  Co3  1  0.25039500  0.00106900  0.10953800  1
  Co  Co4  1  0.79644900  0.44021200  0.25000000  1
  Co  Co5  1  0.24960500  0.50106900  0.89046200  1
  Co  Co6  1  0.74960500  0.99893100  0.60953800  1
  Co  Co7  1  0.20355100  0.55978800  0.75000000  1
  Co  Co8  1  0.74960500  0.99893100  0.89046200  1
  Co  Co9  1  0.70355100  0.94021200  0.75000000  1
  Co  Co10  1  0.25039500  0.00106900  0.39046200  1
  Co  Co11  1  0.75039500  0.49893100  0.39046200  1
  O  O0  1  0.99981200  0.75006000  0.61912100  1
  O  O1  1  0.26352600  0.42074900  0.81151800  1
  O  O2  1  0.73647400  0.57925100  0.31151800  1
  O  O3  1  0.23647400  0.92074900  0.18848200  1
  O  O4  1  0.75364300  0.93253700  0.52995600  1
  O  O5  1  0.50453100  0.75360500  0.39834300  1
  O  O6  1  0.50018800  0.25006000  0.11912100  1
  O  O7  1  0.24635700  0.06746300  0.47004400  1
  O  O8  1  0.74635700  0.43253700  0.47004400  1
  O  O9  1  0.66945400  0.11169500  0.25000000  1
  O  O10  1  0.49546900  0.24639500  0.89834300  1
  O  O11  1  0.49981200  0.74994000  0.61912100  1
  O  O12  1  0.76352600  0.07925100  0.68848200  1
  O  O13  1  0.76352600  0.07925100  0.81151800  1
  O  O14  1  0.00453100  0.74639500  0.39834300  1
  O  O15  1  0.75364300  0.93253700  0.97004400  1
  O  O16  1  0.25364300  0.56746300  0.97004400  1
  O  O17  1  0.50018800  0.25006000  0.38087900  1
  O  O18  1  0.00018800  0.24994000  0.11912100  1
  O  O19  1  0.99981200  0.75006000  0.88087900  1
  O  O20  1  0.00453100  0.74639500  0.10165700  1
  O  O21  1  0.99546900  0.25360500  0.89834300  1
  O  O22  1  0.33054600  0.88830500  0.75000000  1
  O  O23  1  0.16945400  0.38830500  0.25000000  1
  O  O24  1  0.25364300  0.56746300  0.52995600  1
  O  O25  1  0.83054600  0.61169500  0.75000000  1
  O  O26  1  0.49981200  0.74994000  0.88087900  1
  O  O27  1  0.74635700  0.43253700  0.02995600  1
  O  O28  1  0.99546900  0.25360500  0.60165700  1
  O  O29  1  0.24635700  0.06746300  0.02995600  1
  O  O30  1  0.00018800  0.24994000  0.38087900  1
  O  O31  1  0.49546900  0.24639500  0.60165700  1
  O  O32  1  0.50453100  0.75360500  0.10165700  1
  O  O33  1  0.23647400  0.92074900  0.31151800  1
  O  O34  1  0.73647400  0.57925100  0.18848200  1
  O  O35  1  0.26352600  0.42074900  0.68848200  1
loop_
_geom_bond_atom_site_label_1
_geom_bond_atom_site_label_2
_geom_bond_distance
_geom_bond_site_symmetry_2
La0 O2 2.350958 1_555
La0 O9 2.398168 1_565
La0 O30 2.551131 1_665
La0 O17 2.558037 1_565
La0 O33 2.725948 1_655
La0 O5 2.734967 1_555
La0 O14 2.772529 1_655
La0 O33 2.884914 1_555
La1 O16 2.307070 1_554
La1 O29 2.450015 1_555
La1 O20 2.525789 1_555
La1 O32 2.555094 1_555
La1 O6 2.749803 1_555
La1 O18 2.769880 1_555
La1 O27 2.773118 1_555
La1 O27 2.852853 1_455
La2 O35 2.350958 1_555
La2 O22 2.398168 1_545
La2 O0 2.551131 1_445
La2 O11 2.558037 1_545
La2 O12 2.725948 1_455
La2 O31 2.734967 1_555
La2 O28 2.772529 1_455
La2 O12 2.884914 1_555
La3 O33 2.350958 1_555
La3 O23 2.398168 1_555
La3 O17 2.551131 1_555
La3 O30 2.558037 1_555
La3 O2 2.725948 1_555
La3 O14 2.734967 1_555
La3 O5 2.772529 1_555
La3 O2 2.884914 1_455
La4 O12 2.350958 1_555
La4 O25 2.398168 1_555
La4 O11 2.551131 1_555
La4 O0 2.558037 1_555
La4 O35 2.725948 1_555
La4 O28 2.734967 1_555
La4 O31 2.772529 1_555
La4 O35 2.884914 1_655
La5 O15 2.307070 1_544
La5 O27 2.450015 1_555
La5 O32 2.525789 1_545
La5 O20 2.555094 1_645
La5 O18 2.749803 1_655
La5 O6 2.769880 1_555
La5 O29 2.773118 1_655
La5 O29 2.852853 1_555
La6 O13 2.350958 1_555
La6 O25 2.398168 1_555
La6 O26 2.551131 1_555
La6 O19 2.558037 1_555
La6 O1 2.725948 1_555
La6 O21 2.734967 1_555
La6 O10 2.772529 1_555
La6 O1 2.884914 1_655
La7 O1 2.350958 1_555
La7 O22 2.398168 1_545
La7 O19 2.551131 1_445
La7 O26 2.558037 1_545
La7 O13 2.725948 1_455
La7 O10 2.734967 1_555
La7 O21 2.772529 1_455
La7 O13 2.884914 1_555
La8 O7 2.307070 1_565
La8 O24 2.450015 1_555
La8 O31 2.525789 1_565
La8 O28 2.555094 1_465
La8 O0 2.749803 1_455
La8 O11 2.769880 1_555
La8 O4 2.773118 1_455
La8 O4 2.852853 1_555
La9 O27 2.307070 1_556
La9 O15 2.450015 1_555
La9 O21 2.525789 1_555
La9 O10 2.555094 1_555
La9 O26 2.749803 1_555
La9 O19 2.769880 1_555
La9 O16 2.773118 1_555
La9 O16 2.852853 1_655
La10 O8 2.307070 1_555
La10 O4 2.450015 1_555
La10 O28 2.525789 1_555
La10 O31 2.555094 1_555
La10 O11 2.749803 1_555
La10 O0 2.769880 1_555
La10 O24 2.773118 1_555
La10 O24 2.852853 1_655
La11 O4 2.307070 1_545
La11 O8 2.450015 1_555
La11 O5 2.525789 1_545
La11 O14 2.555094 1_645
La11 O30 2.749803 1_655
La11 O17 2.769880 1_555
La11 O7 2.773118 1_655
La11 O7 2.852853 1_555
La12 O29 2.307070 1_566
La12 O16 2.450015 1_555
La12 O10 2.525789 1_565
La12 O21 2.555094 1_465
La12 O19 2.749803 1_455
La12 O26 2.769880 1_555
La12 O15 2.773118 1_455
La12 O15 2.852853 1_555
La13 O3 2.350958 1_555
La13 O23 2.398168 1_555
La13 O6 2.551131 1_555
La13 O18 2.558037 1_555
La13 O34 2.725948 1_555
La13 O20 2.734967 1_555
La13 O32 2.772529 1_555
La13 O34 2.884914 1_455
La14 O24 2.307070 1_555
La14 O7 2.450015 1_555
La14 O14 2.525789 1_555
La14 O5 2.555094 1_555
La14 O17 2.749803 1_555
La14 O30 2.769880 1_555
La14 O8 2.773118 1_555
La14 O8 2.852853 1_455
La15 O34 2.350958 1_555
La15 O9 2.398168 1_565
La15 O18 2.551131 1_665
La15 O6 2.558037 1_565
La15 O3 2.725948 1_655
La15 O32 2.734967 1_555
La15 O20 2.772529 1_655
La15 O3 2.884914 1_555
Co0 O33 1.951857 1_545
Co0 O3 1.951857 1_545
Co0 O23 2.011957 1_555
Co0 O9 2.068136 1_555
Co1 O0 1.999774 1_455
Co1 O11 2.000838 1_555
Co1 O31 2.002722 1_555
Co1 O28 2.003969 1_455
Co1 O35 2.294212 1_555
Co1 O24 2.296190 1_555
Co2 O18 1.999774 1_655
Co2 O6 2.000838 1_555
Co2 O32 2.002722 1_555
Co2 O20 2.003969 1_655
Co2 O34 2.294212 1_555
Co2 O27 2.296190 1_555
Co3 O6 1.999774 1_555
Co3 O18 2.000838 1_555
Co3 O20 2.002722 1_545
Co3 O32 2.003969 1_545
Co3 O3 2.294212 1_545
Co3 O29 2.296190 1_555
Co4 O2 1.951857 1_555
Co4 O34 1.951857 1_555
Co4 O9 2.011957 1_555
Co4 O23 2.068136 1_655
Co5 O19 1.999774 1_455
Co5 O26 2.000838 1_555
Co5 O10 2.002722 1_555
Co5 O21 2.003969 1_455
Co5 O1 2.294212 1_555
Co5 O16 2.296190 1_555
Co6 O11 1.999774 1_555
Co6 O0 2.000838 1_555
Co6 O28 2.002722 1_565
Co6 O31 2.003969 1_565
Co6 O12 2.294212 1_565
Co6 O4 2.296190 1_555
Co7 O1 1.951857 1_555
Co7 O35 1.951857 1_555
Co7 O22 2.011957 1_555
Co7 O25 2.068136 1_455
Co8 O26 1.999774 1_555
Co8 O19 2.000838 1_555
Co8 O21 2.002722 1_565
Co8 O10 2.003969 1_565
Co8 O13 2.294212 1_565
Co8 O15 2.296190 1_555
Co9 O13 1.951857 1_565
Co9 O12 1.951857 1_565
Co9 O25 2.011957 1_555
Co9 O22 2.068136 1_555
Co10 O17 1.999774 1_555
Co10 O30 2.000838 1_555
Co10 O14 2.002722 1_545
Co10 O5 2.003969 1_545
Co10 O33 2.294212 1_545
Co10 O7 2.296190 1_555
Co11 O30 1.999774 1_655
Co11 O17 2.000838 1_555
Co11 O5 2.002722 1_555
Co11 O14 2.003969 1_655
Co11 O2 2.294212 1_555
Co11 O8 2.296190 1_555
