# generated using pymatgen
data_Yb2Ga10Ru3
_symmetry_space_group_name_H-M   'P 1'
_cell_length_a   8.78635823
_cell_length_b   8.78635823
_cell_length_c   6.31493501
_cell_angle_alpha   90.00000000
_cell_angle_beta   90.00000000
_cell_angle_gamma   90.00000000
_symmetry_Int_Tables_number   1
_chemical_formula_structural   Yb2Ga10Ru3
_chemical_formula_sum   'Yb4 Ga20 Ru6'
_cell_volume   487.51355718
_cell_formula_units_Z   2
loop_
 _symmetry_equiv_pos_site_id
 _symmetry_equiv_pos_as_xyz
  1  'x, y, z'
loop_
 _atom_site_type_symbol
 _atom_site_label
 _atom_site_symmetry_multiplicity
 _atom_site_fract_x
 _atom_site_fract_y
 _atom_site_fract_z
 _atom_site_occupancy
  Yb  Yb0  1  0.18308895  0.68308895  0.00000000  1
  Yb  Yb1  1  0.81691105  0.31691105  0.00000000  1
  Yb  Yb2  1  0.68308895  0.81691105  0.00000000  1
  Yb  Yb3  1  0.31691105  0.18308895  0.00000000  1
  Ga  Ga0  1  0.06086713  0.20702616  0.70732722  1
  Ga  Ga1  1  0.93913287  0.79297384  0.70732722  1
  Ga  Ga2  1  0.56086713  0.29297384  0.70732722  1
  Ga  Ga3  1  0.43913287  0.70702616  0.70732722  1
  Ga  Ga4  1  0.79297384  0.06086713  0.70732722  1
  Ga  Ga5  1  0.20702616  0.93913287  0.70732722  1
  Ga  Ga6  1  0.70702616  0.56086713  0.70732722  1
  Ga  Ga7  1  0.29297384  0.43913287  0.70732722  1
  Ga  Ga8  1  0.93913287  0.79297384  0.29267278  1
  Ga  Ga9  1  0.06086713  0.20702616  0.29267278  1
  Ga  Ga10  1  0.43913287  0.70702616  0.29267278  1
  Ga  Ga11  1  0.56086713  0.29297384  0.29267278  1
  Ga  Ga12  1  0.20702616  0.93913287  0.29267278  1
  Ga  Ga13  1  0.79297384  0.06086713  0.29267278  1
  Ga  Ga14  1  0.29297384  0.43913287  0.29267278  1
  Ga  Ga15  1  0.70702616  0.56086713  0.29267278  1
  Ga  Ga16  1  0.00000000  0.50000000  0.71630216  1
  Ga  Ga17  1  0.50000000  0.00000000  0.71630216  1
  Ga  Ga18  1  0.00000000  0.50000000  0.28369784  1
  Ga  Ga19  1  0.50000000  0.00000000  0.28369784  1
  Ru  Ru0  1  0.17841122  0.67841122  0.50000000  1
  Ru  Ru1  1  0.82158878  0.32158878  0.50000000  1
  Ru  Ru2  1  0.67841122  0.82158878  0.50000000  1
  Ru  Ru3  1  0.32158878  0.17841122  0.50000000  1
  Ru  Ru4  1  0.00000000  0.00000000  0.00000000  1
  Ru  Ru5  1  0.50000000  0.50000000  0.00000000  1
loop_
_geom_bond_atom_site_label_1
_geom_bond_atom_site_label_2
_geom_bond_distance
_geom_bond_site_symmetry_2
Ga0 Ga9 2.618516 1_555
Ga0 Ga16 2.629751 1_555
Ga0 Ru4 2.647768 1_556
Ga0 Ru3 2.650491 1_555
Ga0 Ru1 2.673462 1_455
Ga0 Ga4 2.681341 1_455
Ga0 Ga5 2.681341 1_545
Ga0 Ga7 2.884108 1_555
Ga0 Yb3 2.919115 1_556
Ga0 Yb1 2.990414 1_456
Ga1 Ga8 2.618516 1_555
Ga1 Ga16 2.629751 1_655
Ga1 Ru4 2.647768 1_666
Ga1 Ru2 2.650491 1_555
Ga1 Ru0 2.673462 1_655
Ga1 Ga4 2.681341 1_565
Ga1 Ga5 2.681341 1_655
Ga1 Ga6 2.884108 1_555
Ga1 Yb2 2.919115 1_556
Ga1 Yb0 2.990414 1_656
Ga2 Ru5 2.647768 1_556
Ga2 Ru1 2.650491 1_555
Ga2 Ru3 2.673462 1_555
Ga2 Ga6 2.681341 1_555
Ga2 Ga7 2.681341 1_555
Ga2 Ga4 2.884108 1_555
Ga2 Yb1 2.919115 1_556
Ga2 Yb3 2.990414 1_556
Ga3 Ru5 2.647768 1_556
Ga3 Ru0 2.650491 1_555
Ga3 Ru2 2.673462 1_555
Ga3 Ga6 2.681341 1_555
Ga3 Ga7 2.681341 1_555
Ga3 Ga5 2.884108 1_555
Ga3 Yb0 2.919115 1_556
Ga3 Yb2 2.990414 1_556
Ga4 Ru4 2.647768 1_656
Ga4 Ru1 2.650491 1_555
Ga4 Ru2 2.673462 1_545
Ga4 Yb1 2.919115 1_556
Ga4 Yb2 2.990414 1_546
Ga5 Ru4 2.647768 1_566
Ga5 Ru0 2.650491 1_555
Ga5 Ru3 2.673462 1_565
Ga5 Yb0 2.919115 1_556
Ga5 Yb3 2.990414 1_566
Ga6 Ru5 2.647768 1_556
Ga6 Ru2 2.650491 1_555
Ga6 Ru1 2.673462 1_555
Ga6 Yb2 2.919115 1_556
Ga6 Yb1 2.990414 1_556
Ga7 Ru5 2.647768 1_556
Ga7 Ru3 2.650491 1_555
Ga7 Ru0 2.673462 1_555
Ga7 Yb3 2.919115 1_556
Ga7 Yb0 2.990414 1_556
Ga8 Ru4 2.647768 1_665
Ga8 Ru2 2.650491 1_555
Ga8 Ru0 2.673462 1_655
Ga8 Yb2 2.919115 1_555
Ga8 Yb0 2.990414 1_655
Ga9 Ru4 2.647768 1_555
Ga9 Ru3 2.650491 1_555
Ga9 Ru1 2.673462 1_455
Ga9 Yb3 2.919115 1_555
Ga9 Yb1 2.990414 1_455
Ga10 Ga3 2.618516 1_555
Ga10 Ga19 2.629751 1_565
Ga10 Ru5 2.647768 1_555
Ga10 Ru0 2.650491 1_555
Ga10 Ru2 2.673462 1_555
Ga10 Ga15 2.681341 1_555
Ga10 Ga14 2.681341 1_555
Ga10 Ga12 2.884108 1_555
Ga10 Yb0 2.919115 1_555
Ga10 Yb2 2.990414 1_555
Ga11 Ga2 2.618516 1_555
Ga11 Ga19 2.629751 1_555
Ga11 Ru5 2.647768 1_555
Ga11 Ru1 2.650491 1_555
Ga11 Ru3 2.673462 1_555
Ga11 Ga15 2.681341 1_555
Ga11 Ga14 2.681341 1_555
Ga11 Ga13 2.884108 1_555
Ga11 Yb1 2.919115 1_555
Ga11 Yb3 2.990414 1_555
Ga12 Ga5 2.618516 1_555
Ga12 Ga19 2.629751 1_565
Ga12 Ru4 2.647768 1_565
Ga12 Ru0 2.650491 1_555
Ga12 Ru3 2.673462 1_565
Ga12 Ga8 2.681341 1_455
Ga12 Ga9 2.681341 1_565
Ga12 Yb0 2.919115 1_555
Ga12 Yb3 2.990414 1_565
Ga13 Ga4 2.618516 1_555
Ga13 Ga19 2.629751 1_555
Ga13 Ru4 2.647768 1_655
Ga13 Ru1 2.650491 1_555
Ga13 Ru2 2.673462 1_545
Ga13 Ga9 2.681341 1_655
Ga13 Ga8 2.681341 1_545
Ga13 Yb1 2.919115 1_555
Ga13 Yb2 2.990414 1_545
Ga14 Ga7 2.618516 1_555
Ga14 Ga18 2.629751 1_555
Ga14 Ru5 2.647768 1_555
Ga14 Ru3 2.650491 1_555
Ga14 Ru0 2.673462 1_555
Ga14 Ga9 2.884108 1_555
Ga14 Yb3 2.919115 1_555
Ga14 Yb0 2.990414 1_555
Ga15 Ga6 2.618516 1_555
Ga15 Ga18 2.629751 1_655
Ga15 Ru5 2.647768 1_555
Ga15 Ru2 2.650491 1_555
Ga15 Ru1 2.673462 1_555
Ga15 Ga8 2.884108 1_555
Ga15 Yb2 2.919115 1_555
Ga15 Yb1 2.990414 1_555
Ga16 Ru0 2.603924 1_555
Ga16 Ru1 2.603924 1_455
Ga16 Ga7 2.629751 1_555
Ga16 Ga6 2.629751 1_455
Ga16 Ga18 2.731868 1_555
Ga16 Yb0 2.895743 1_556
Ga16 Yb1 2.895743 1_456
Ga17 Ru2 2.603924 1_545
Ga17 Ru3 2.603924 1_555
Ga17 Ga2 2.629751 1_555
Ga17 Ga4 2.629751 1_555
Ga17 Ga5 2.629751 1_545
Ga17 Ga3 2.629751 1_545
Ga17 Ga19 2.731868 1_555
Ga17 Yb2 2.895743 1_546
Ga17 Yb3 2.895743 1_556
Ga18 Ru0 2.603924 1_555
Ga18 Ru1 2.603924 1_455
Ga18 Ga8 2.629751 1_455
Ga18 Ga9 2.629751 1_555
Ga18 Yb0 2.895743 1_555
Ga18 Yb1 2.895743 1_455
Ga19 Ru2 2.603924 1_545
Ga19 Ru3 2.603924 1_555
Ga19 Yb3 2.895743 1_555
Ga19 Yb2 2.895743 1_545
Ru0 Yb0 3.158002 1_555
Ru0 Yb0 3.158002 1_556
Ru1 Yb1 3.158002 1_556
Ru1 Yb1 3.158002 1_555
Ru2 Yb2 3.158002 1_556
Ru2 Yb2 3.158002 1_555
Ru3 Yb3 3.158002 1_555
Ru3 Yb3 3.158002 1_556
Ru4 Yb3 3.215785 1_555
Ru4 Yb1 3.215785 1_455
Ru4 Yb0 3.215785 1_545
Ru4 Yb2 3.215785 1_445
Ru5 Yb2 3.215785 1_555
Ru5 Yb1 3.215785 1_555
Ru5 Yb0 3.215785 1_555
Ru5 Yb3 3.215785 1_555
