# generated using pymatgen
data_TiNi
_symmetry_space_group_name_H-M   'P 1'
_cell_length_a   5.71240848
_cell_length_b   8.17208470
_cell_length_c   9.17351526
_cell_angle_alpha   90.00006215
_cell_angle_beta   90.00009919
_cell_angle_gamma   90.00007297
_symmetry_Int_Tables_number   1
_chemical_formula_structural   TiNi
_chemical_formula_sum   'Ti16 Ni16'
_cell_volume   428.24066244
_cell_formula_units_Z   16
loop_
 _symmetry_equiv_pos_site_id
 _symmetry_equiv_pos_as_xyz
  1  'x, y, z'
loop_
 _atom_site_type_symbol
 _atom_site_label
 _atom_site_symmetry_multiplicity
 _atom_site_fract_x
 _atom_site_fract_y
 _atom_site_fract_z
 _atom_site_occupancy
  Ti  Ti0_0  1  0.25000000  0.12500000  0.13720303  1
  Ti  Ti0_1  1  0.25000000  0.12500000  0.63720303  1
  Ti  Ti0_2  1  0.25000000  0.62500000  0.13720303  1
  Ti  Ti0_3  1  0.25000000  0.62500000  0.63720303  1
  Ti  Ti0_4  1  0.75000000  0.12500000  0.13720303  1
  Ti  Ti0_5  1  0.75000000  0.12500000  0.63720303  1
  Ti  Ti0_6  1  0.75000000  0.62500000  0.13720303  1
  Ti  Ti0_7  1  0.75000000  0.62500000  0.63720303  1
  Ti  Ti1_0  1  0.25000000  0.37500000  0.36279497  1
  Ti  Ti1_1  1  0.25000000  0.37500000  0.86279497  1
  Ti  Ti1_2  1  0.25000000  0.87500000  0.36279497  1
  Ti  Ti1_3  1  0.25000000  0.87500000  0.86279497  1
  Ti  Ti1_4  1  0.75000000  0.37500000  0.36279497  1
  Ti  Ti1_5  1  0.75000000  0.37500000  0.86279497  1
  Ti  Ti1_6  1  0.75000000  0.87500000  0.36279497  1
  Ti  Ti1_7  1  0.75000000  0.87500000  0.86279497  1
  Ni  Ni0_0  1  0.00000000  0.12500000  0.41048620  1
  Ni  Ni0_1  1  0.00000000  0.12500000  0.91048620  1
  Ni  Ni0_2  1  0.00000000  0.62500000  0.41048620  1
  Ni  Ni0_3  1  0.00000000  0.62500000  0.91048621  1
  Ni  Ni0_4  1  0.50000000  0.12500000  0.41048620  1
  Ni  Ni0_5  1  0.50000000  0.12500000  0.91048620  1
  Ni  Ni0_6  1  0.50000000  0.62500000  0.41048621  1
  Ni  Ni0_7  1  0.50000000  0.62500000  0.91048620  1
  Ni  Ni1_0  1  0.00000000  0.37500000  0.08951529  1
  Ni  Ni1_1  1  0.00000000  0.37500000  0.58951529  1
  Ni  Ni1_2  1  0.00000000  0.87500000  0.08951529  1
  Ni  Ni1_3  1  0.00000000  0.87500000  0.58951529  1
  Ni  Ni1_4  1  0.50000000  0.37500000  0.08951529  1
  Ni  Ni1_5  1  0.50000000  0.37500000  0.58951529  1
  Ni  Ni1_6  1  0.50000000  0.87500000  0.08951529  1
  Ni  Ni1_7  1  0.50000000  0.87500000  0.58951529  1
loop_
_geom_bond_atom_site_label_1
_geom_bond_atom_site_label_2
_geom_bond_distance
_geom_bond_site_symmetry_2
Ni0_0 Ti0_1 2.522894 1_555
Ni0_0 Ti0_5 2.522898 1_455
Ni0_0 Ti1_6 2.530771 1_445
Ni0_0 Ti1_0 2.530773 1_555
Ni0_0 Ti1_4 2.530775 1_455
Ni0_0 Ti1_2 2.530775 1_545
Ni0_0 Ni1_1 2.621290 1_555
Ni0_0 Ni1_3 2.621293 1_545
Ni0_0 Ni0_4 2.856204 1_555
Ni0_0 Ni0_4 2.856204 1_455
Ni0_0 Ti0_4 2.885195 1_455
Ni0_0 Ti0_0 2.885199 1_555
Ni0_1 Ti0_0 2.522894 1_556
Ni0_1 Ti0_4 2.522898 1_456
Ni0_1 Ti1_7 2.530771 1_445
Ni0_1 Ti1_1 2.530773 1_555
Ni0_1 Ti1_5 2.530775 1_455
Ni0_1 Ti1_3 2.530775 1_545
Ni0_1 Ni1_0 2.621290 1_556
Ni0_1 Ni1_2 2.621293 1_546
Ni0_1 Ni0_5 2.856204 1_555
Ni0_1 Ni0_5 2.856204 1_455
Ni0_1 Ti0_5 2.885195 1_455
Ni0_1 Ti0_1 2.885199 1_555
Ni0_2 Ti0_3 2.522894 1_555
Ni0_2 Ti0_7 2.522898 1_455
Ni0_2 Ti1_4 2.530771 1_455
Ni0_2 Ti1_2 2.530773 1_555
Ni0_2 Ti1_6 2.530775 1_455
Ni0_2 Ti1_0 2.530775 1_555
Ni0_2 Ni1_3 2.621290 1_555
Ni0_2 Ni1_1 2.621293 1_555
Ni0_2 Ni0_6 2.856204 1_455
Ni0_2 Ni0_6 2.856204 1_555
Ni0_2 Ti0_6 2.885195 1_455
Ni0_2 Ti0_2 2.885199 1_555
Ni0_3 Ti0_2 2.522894 1_556
Ni0_3 Ti0_6 2.522898 1_456
Ni0_3 Ti1_5 2.530771 1_455
Ni0_3 Ti1_3 2.530773 1_555
Ni0_3 Ti1_7 2.530775 1_455
Ni0_3 Ti1_1 2.530775 1_555
Ni0_3 Ni1_2 2.621290 1_556
Ni0_3 Ni1_0 2.621293 1_556
Ni0_3 Ni0_7 2.856204 1_455
Ni0_3 Ni0_7 2.856204 1_555
Ni0_3 Ti0_7 2.885195 1_455
Ni0_3 Ti0_3 2.885199 1_555
Ni0_4 Ti0_5 2.522894 1_555
Ni0_4 Ti0_1 2.522898 1_555
Ni0_4 Ti1_2 2.530771 1_545
Ni0_4 Ti1_4 2.530773 1_555
Ni0_4 Ti1_0 2.530775 1_555
Ni0_4 Ti1_6 2.530775 1_545
Ni0_4 Ni1_5 2.621290 1_555
Ni0_4 Ni1_7 2.621293 1_545
Ni0_4 Ti0_0 2.885195 1_555
Ni0_4 Ti0_4 2.885199 1_555
Ni0_5 Ti0_4 2.522894 1_556
Ni0_5 Ti0_0 2.522898 1_556
Ni0_5 Ti1_3 2.530771 1_545
Ni0_5 Ti1_5 2.530773 1_555
Ni0_5 Ti1_1 2.530775 1_555
Ni0_5 Ti1_7 2.530775 1_545
Ni0_5 Ni1_4 2.621290 1_556
Ni0_5 Ni1_6 2.621293 1_546
Ni0_5 Ti0_1 2.885195 1_555
Ni0_5 Ti0_5 2.885199 1_555
Ni0_6 Ti0_7 2.522894 1_555
Ni0_6 Ti0_3 2.522898 1_555
Ni0_6 Ti1_0 2.530771 1_555
Ni0_6 Ti1_6 2.530773 1_555
Ni0_6 Ti1_2 2.530775 1_555
Ni0_6 Ti1_4 2.530775 1_555
Ni0_6 Ni1_7 2.621290 1_555
Ni0_6 Ni1_5 2.621293 1_555
Ni0_6 Ti0_2 2.885195 1_555
Ni0_6 Ti0_6 2.885199 1_555
Ni0_7 Ti0_6 2.522894 1_556
Ni0_7 Ti0_2 2.522898 1_556
Ni0_7 Ti1_1 2.530771 1_555
Ni0_7 Ti1_7 2.530773 1_555
Ni0_7 Ti1_3 2.530775 1_555
Ni0_7 Ti1_5 2.530775 1_555
Ni0_7 Ni1_6 2.621290 1_556
Ni0_7 Ni1_4 2.621293 1_556
Ni0_7 Ti0_3 2.885195 1_555
Ni0_7 Ti0_7 2.885199 1_555
Ni1_0 Ti1_5 2.522920 1_454
Ni1_0 Ti1_1 2.522924 1_554
Ni1_0 Ti0_2 2.530766 1_555
Ni1_0 Ti0_4 2.530767 1_455
Ni1_0 Ti0_0 2.530769 1_555
Ni1_0 Ti0_6 2.530769 1_455
Ni1_0 Ni1_4 2.856204 1_555
Ni1_0 Ni1_4 2.856204 1_455
Ni1_0 Ti1_0 2.885167 1_555
Ni1_0 Ti1_4 2.885171 1_455
Ni1_1 Ti1_4 2.522920 1_455
Ni1_1 Ti1_0 2.522924 1_555
Ni1_1 Ti0_3 2.530766 1_555
Ni1_1 Ti0_5 2.530767 1_455
Ni1_1 Ti0_1 2.530769 1_555
Ni1_1 Ti0_7 2.530769 1_455
Ni1_1 Ni1_5 2.856204 1_555
Ni1_1 Ni1_5 2.856204 1_455
Ni1_1 Ti1_1 2.885167 1_555
Ni1_1 Ti1_5 2.885171 1_455
Ni1_2 Ti1_7 2.522920 1_454
Ni1_2 Ti1_3 2.522924 1_554
Ni1_2 Ti0_0 2.530766 1_565
Ni1_2 Ti0_6 2.530767 1_455
Ni1_2 Ti0_2 2.530769 1_555
Ni1_2 Ti0_4 2.530769 1_465
Ni1_2 Ni1_6 2.856204 1_455
Ni1_2 Ni1_6 2.856204 1_555
Ni1_2 Ti1_2 2.885167 1_555
Ni1_2 Ti1_6 2.885171 1_455
Ni1_3 Ti1_6 2.522920 1_455
Ni1_3 Ti1_2 2.522924 1_555
Ni1_3 Ti0_1 2.530766 1_565
Ni1_3 Ti0_7 2.530767 1_455
Ni1_3 Ti0_3 2.530769 1_555
Ni1_3 Ti0_5 2.530769 1_465
Ni1_3 Ni1_7 2.856204 1_555
Ni1_3 Ni1_7 2.856204 1_455
Ni1_3 Ti1_3 2.885167 1_555
Ni1_3 Ti1_7 2.885171 1_455
Ni1_4 Ti1_1 2.522920 1_554
Ni1_4 Ti1_5 2.522924 1_554
Ni1_4 Ti0_6 2.530766 1_555
Ni1_4 Ti0_0 2.530767 1_555
Ni1_4 Ti0_4 2.530769 1_555
Ni1_4 Ti0_2 2.530769 1_555
Ni1_4 Ti1_4 2.885167 1_555
Ni1_4 Ti1_0 2.885171 1_555
Ni1_5 Ti1_0 2.522920 1_555
Ni1_5 Ti1_4 2.522924 1_555
Ni1_5 Ti0_7 2.530766 1_555
Ni1_5 Ti0_1 2.530767 1_555
Ni1_5 Ti0_5 2.530769 1_555
Ni1_5 Ti0_3 2.530769 1_555
Ni1_5 Ti1_5 2.885167 1_555
Ni1_5 Ti1_1 2.885171 1_555
Ni1_6 Ti1_3 2.522920 1_554
Ni1_6 Ti1_7 2.522924 1_554
Ni1_6 Ti0_4 2.530766 1_565
Ni1_6 Ti0_2 2.530767 1_555
Ni1_6 Ti0_6 2.530769 1_555
Ni1_6 Ti0_0 2.530769 1_565
Ni1_6 Ti1_6 2.885167 1_555
Ni1_6 Ti1_2 2.885171 1_555
Ni1_7 Ti1_2 2.522920 1_555
Ni1_7 Ti1_6 2.522924 1_555
Ni1_7 Ti0_5 2.530766 1_565
Ni1_7 Ti0_3 2.530767 1_555
Ni1_7 Ti0_7 2.530769 1_555
Ni1_7 Ti0_1 2.530769 1_565
Ni1_7 Ti1_7 2.885167 1_555
Ni1_7 Ti1_3 2.885171 1_555
