# generated using pymatgen
data_Sr3Rh4Pb13
_symmetry_space_group_name_H-M   'P 1'
_cell_length_a   10.20417050
_cell_length_b   10.20446382
_cell_length_c   10.20445979
_cell_angle_alpha   90.00033442
_cell_angle_beta   89.99964508
_cell_angle_gamma   90.00016541
_symmetry_Int_Tables_number   1
_chemical_formula_structural   Sr3Rh4Pb13
_chemical_formula_sum   'Sr6 Rh8 Pb26'
_cell_volume   1062.57089393
_cell_formula_units_Z   2
loop_
 _symmetry_equiv_pos_site_id
 _symmetry_equiv_pos_as_xyz
  1  'x, y, z'
loop_
 _atom_site_type_symbol
 _atom_site_label
 _atom_site_symmetry_multiplicity
 _atom_site_fract_x
 _atom_site_fract_y
 _atom_site_fract_z
 _atom_site_occupancy
  Sr  Sr0  1  0.49999202  -0.00000699  0.25000018  1
  Sr  Sr1  1  0.00000808  0.25000010  0.50001070  1
  Sr  Sr2  1  0.49999205  -0.00000646  0.75000003  1
  Sr  Sr3  1  0.24999980  0.50000690  -0.00000989  1
  Sr  Sr4  1  0.75000022  0.50000673  -0.00001005  1
  Sr  Sr5  1  0.00000813  0.75000001  0.50001010  1
  Rh  Rh0  1  0.25000062  0.25000259  0.24999732  1
  Rh  Rh1  1  0.24999966  0.74999798  0.75000137  1
  Rh  Rh2  1  0.24999907  0.74999758  0.24999912  1
  Rh  Rh3  1  0.75000112  0.75000190  0.25000332  1
  Rh  Rh4  1  0.25000094  0.25000173  0.75000258  1
  Rh  Rh5  1  0.74999888  0.24999763  0.74999856  1
  Rh  Rh6  1  0.74999951  0.24999834  0.25000151  1
  Rh  Rh7  1  0.75000060  0.75000268  0.74999688  1
  Pb  Pb0  1  0.30216542  0.15627892  -0.00001367  1
  Pb  Pb1  1  0.69783069  0.84372444  0.99998718  1
  Pb  Pb2  1  0.34371506  0.80215880  0.50001365  1
  Pb  Pb3  1  0.19784122  0.50001286  0.34373226  1
  Pb  Pb4  1  0.80216970  0.50001208  0.65627731  1
  Pb  Pb5  1  0.49998499  0.34373358  0.80216000  1
  Pb  Pb6  1  0.30215784  0.84371804  0.99998637  1
  Pb  Pb7  1  0.00001538  0.30216898  0.15626272  1
  Pb  Pb8  1  0.00001465  0.69783898  0.15626564  1
  Pb  Pb9  1  0.84372743  -0.00001209  0.69783293  1
  Pb  Pb10  1  0.15628457  -0.00001175  0.69784297  1
  Pb  Pb11  1  0.69782961  0.15626282  -0.00001433  1
  Pb  Pb12  1  0.34371769  0.19783375  0.50001444  1
  Pb  Pb13  1  0.49998951  0.65627298  0.19782202  1
  Pb  Pb14  1  0.49998438  0.34372630  0.19782291  1
  Pb  Pb15  1  0.49998426  0.65627891  0.80215891  1
  Pb  Pb16  1  0.00001445  -0.00000982  -0.00001361  1
  Pb  Pb17  1  0.00001525  0.69783916  0.84371958  1
  Pb  Pb18  1  0.84373001  -0.00001370  0.30217823  1
  Pb  Pb19  1  0.15628207  -0.00001258  0.30216805  1
  Pb  Pb20  1  0.19783518  0.50001256  0.65629330  1
  Pb  Pb21  1  0.00001485  0.30216840  0.84372155  1
  Pb  Pb22  1  0.65626983  0.19782376  0.50001488  1
  Pb  Pb23  1  0.49998533  0.50001008  0.50001400  1
  Pb  Pb24  1  0.80217018  0.50001398  0.34373871  1
  Pb  Pb25  1  0.65627277  0.80216886  0.50001325  1
loop_
_geom_bond_atom_site_label_1
_geom_bond_atom_site_label_2
_geom_bond_distance
_geom_bond_site_symmetry_2
Rh0 Sr0 3.607783 1_555
Rh0 Sr1 3.607802 1_555
Rh0 Sr3 3.607916 1_555
Rh1 Sr5 3.607657 1_555
Rh1 Sr2 3.607679 1_565
Rh1 Sr3 3.607687 1_556
Rh2 Sr0 3.607682 1_565
Rh2 Sr5 3.607773 1_555
Rh2 Sr3 3.607809 1_555
Rh3 Sr0 3.607778 1_565
Rh3 Sr4 3.607873 1_555
Rh3 Sr5 3.607881 1_655
Rh4 Sr1 3.607671 1_555
Rh4 Sr3 3.607759 1_556
Rh4 Sr2 3.607771 1_555
Rh5 Sr1 3.607738 1_655
Rh5 Sr4 3.607815 1_556
Rh5 Sr2 3.607845 1_555
Rh6 Sr0 3.607858 1_555
Rh6 Sr1 3.607910 1_655
Rh6 Sr4 3.607977 1_555
Rh7 Sr5 3.607718 1_655
Rh7 Sr4 3.607753 1_556
Rh7 Sr2 3.607772 1_565
Pb0 Rh4 2.775862 1_554
Pb0 Rh0 2.776105 1_555
Pb0 Pb6 3.189516 1_544
Pb0 Pb5 3.436413 1_554
Pb0 Pb14 3.436431 1_555
Pb0 Pb16 3.471256 1_555
Pb0 Sr3 3.547723 1_555
Pb0 Sr2 3.622951 1_554
Pb0 Sr0 3.623181 1_555
Pb1 Rh7 2.775914 1_555
Pb1 Rh3 2.776177 1_556
Pb1 Pb11 3.189287 1_566
Pb1 Pb15 3.436536 1_555
Pb1 Pb13 3.436576 1_556
Pb1 Pb16 3.471445 1_666
Pb1 Sr4 3.547625 1_556
Pb1 Sr2 3.622982 1_565
Pb1 Sr0 3.623135 1_566
Pb2 Rh1 2.775848 1_555
Pb2 Rh2 2.776107 1_555
Pb2 Pb25 3.189392 1_555
Pb2 Pb23 3.471215 1_555
Pb2 Sr5 3.547400 1_555
Pb2 Sr2 3.622981 1_565
Pb2 Sr0 3.623175 1_565
Pb3 Rh2 2.775889 1_555
Pb3 Rh0 2.776131 1_555
Pb3 Pb8 3.436543 1_555
Pb3 Pb7 3.436642 1_555
Pb3 Sr3 3.547849 1_555
Pb3 Sr5 3.622965 1_555
Pb3 Sr1 3.623157 1_555
Pb4 Rh7 2.775911 1_555
Pb4 Rh5 2.776152 1_555
Pb4 Sr4 3.547568 1_556
Pb4 Sr5 3.622958 1_655
Pb4 Sr1 3.623123 1_655
Pb5 Rh4 2.775810 1_555
Pb5 Rh5 2.776111 1_555
Pb5 Sr2 3.547833 1_555
Pb5 Sr3 3.622891 1_556
Pb5 Sr4 3.623116 1_556
Pb6 Rh1 2.775841 1_555
Pb6 Rh2 2.776108 1_556
Pb6 Sr3 3.547538 1_556
Pb6 Sr2 3.622957 1_565
Pb6 Sr0 3.623157 1_566
Pb7 Rh0 2.775857 1_555
Pb7 Rh6 2.776154 1_455
Pb7 Sr1 3.547932 1_555
Pb7 Sr3 3.622932 1_555
Pb7 Sr4 3.623175 1_455
Pb8 Rh2 2.775825 1_555
Pb8 Rh3 2.776113 1_455
Pb8 Sr5 3.547878 1_555
Pb8 Sr3 3.622915 1_555
Pb8 Sr4 3.623133 1_455
Pb9 Rh7 2.775874 1_545
Pb9 Rh5 2.776113 1_555
Pb9 Sr2 3.547697 1_555
Pb9 Sr5 3.622934 1_645
Pb9 Sr1 3.623115 1_655
Pb10 Rh1 2.775877 1_545
Pb10 Rh4 2.776090 1_555
Pb10 Pb9 3.189386 1_455
Pb10 Pb2 3.436350 1_545
Pb10 Pb12 3.436464 1_555
Pb10 Pb16 3.471152 1_556
Pb10 Sr2 3.547407 1_555
Pb10 Sr5 3.622979 1_545
Pb10 Sr1 3.623168 1_555
Pb11 Rh5 2.775938 1_554
Pb11 Rh6 2.776207 1_555
Pb11 Pb5 3.436672 1_554
Pb11 Pb14 3.436676 1_555
Pb11 Pb16 3.471496 1_655
Pb11 Sr4 3.547888 1_555
Pb11 Sr2 3.622948 1_554
Pb11 Sr0 3.623154 1_555
Pb12 Rh4 2.775866 1_555
Pb12 Rh0 2.776157 1_555
Pb12 Pb22 3.189335 1_555
Pb12 Pb19 3.436590 1_555
Pb12 Pb23 3.471445 1_555
Pb12 Sr1 3.547441 1_555
Pb12 Sr2 3.623016 1_555
Pb12 Sr0 3.623194 1_555
Pb13 Rh2 2.775882 1_555
Pb13 Rh3 2.776105 1_555
Pb13 Pb14 3.189371 1_555
Pb13 Pb6 3.436509 1_554
Pb13 Pb23 3.471596 1_555
Pb13 Sr0 3.547659 1_565
Pb13 Sr3 3.622912 1_555
Pb13 Sr4 3.623054 1_555
Pb14 Rh0 2.775808 1_555
Pb14 Rh6 2.776137 1_555
Pb14 Pb23 3.471670 1_555
Pb14 Sr0 3.547798 1_555
Pb14 Sr3 3.622963 1_555
Pb14 Sr4 3.623163 1_555
Pb15 Rh1 2.775778 1_555
Pb15 Rh7 2.776090 1_555
Pb15 Pb5 3.189358 1_555
Pb15 Pb6 3.436366 1_555
Pb15 Pb23 3.471181 1_555
Pb15 Sr2 3.547582 1_565
Pb15 Sr3 3.622890 1_556
Pb15 Sr4 3.623140 1_556
Pb16 Pb6 3.471118 1_544
Pb16 Pb17 3.471228 1_544
Pb16 Pb8 3.471304 1_545
Pb16 Pb9 3.471340 1_454
Pb16 Pb21 3.471482 1_554
Pb16 Pb19 3.471505 1_555
Pb16 Pb7 3.471524 1_555
Pb16 Pb18 3.471658 1_455
Pb17 Rh1 2.775763 1_555
Pb17 Rh7 2.776085 1_455
Pb17 Pb8 3.189364 1_556
Pb17 Pb20 3.436250 1_555
Pb17 Pb4 3.436504 1_455
Pb17 Sr5 3.547531 1_555
Pb17 Sr3 3.622913 1_556
Pb17 Sr4 3.623111 1_456
Pb18 Rh3 2.775892 1_545
Pb18 Rh6 2.776171 1_555
Pb18 Pb19 3.189335 1_655
Pb18 Pb25 3.436472 1_545
Pb18 Pb22 3.436611 1_555
Pb18 Sr0 3.547747 1_555
Pb18 Sr5 3.622990 1_645
Pb18 Sr1 3.623168 1_655
Pb19 Rh2 2.775892 1_545
Pb19 Rh0 2.776139 1_555
Pb19 Pb2 3.436485 1_545
Pb19 Sr0 3.547442 1_555
Pb19 Sr5 3.623020 1_545
Pb19 Sr1 3.623195 1_555
Pb20 Rh1 2.775813 1_555
Pb20 Rh4 2.776071 1_555
Pb20 Pb3 3.189517 1_555
Pb20 Pb21 3.436375 1_555
Pb20 Pb23 3.471199 1_555
Pb20 Sr3 3.547407 1_556
Pb20 Sr5 3.622981 1_555
Pb20 Sr1 3.623137 1_555
Pb21 Rh4 2.775798 1_555
Pb21 Rh5 2.776108 1_455
Pb21 Pb7 3.189314 1_556
Pb21 Pb4 3.436633 1_455
Pb21 Sr1 3.547550 1_555
Pb21 Sr3 3.622924 1_556
Pb21 Sr4 3.623130 1_456
Pb22 Rh5 2.775889 1_555
Pb22 Rh6 2.776166 1_555
Pb22 Pb9 3.436503 1_555
Pb22 Pb23 3.471622 1_555
Pb22 Sr1 3.547742 1_655
Pb22 Sr2 3.622952 1_555
Pb22 Sr0 3.623165 1_555
Pb23 Pb3 3.471173 1_555
Pb23 Pb5 3.471243 1_555
Pb23 Pb25 3.471378 1_555
Pb23 Pb4 3.471452 1_555
Pb23 Pb24 3.471495 1_555
Pb24 Rh3 2.775954 1_555
Pb24 Rh6 2.776211 1_555
Pb24 Pb4 3.189288 1_555
Pb24 Pb8 3.436660 1_655
Pb24 Pb7 3.436794 1_655
Pb24 Sr4 3.547939 1_555
Pb24 Sr5 3.622958 1_655
Pb24 Sr1 3.623182 1_655
Pb25 Rh7 2.775876 1_555
Pb25 Rh3 2.776109 1_555
Pb25 Pb9 3.436375 1_565
Pb25 Sr5 3.547705 1_655
Pb25 Sr2 3.622934 1_565
Pb25 Sr0 3.623151 1_565
