# generated using pymatgen
data_Pr2Ta3(SeO4)2
_symmetry_space_group_name_H-M   'P 1'
_cell_length_a   7.68280500
_cell_length_b   10.00224800
_cell_length_c   12.01726200
_cell_angle_alpha   90.00000000
_cell_angle_beta   90.00000000
_cell_angle_gamma   90.00000000
_symmetry_Int_Tables_number   1
_chemical_formula_structural   Pr2Ta3(SeO4)2
_chemical_formula_sum   'Pr8 Ta12 Se8 O32'
_cell_volume   923.47035528
_cell_formula_units_Z   4
loop_
 _symmetry_equiv_pos_site_id
 _symmetry_equiv_pos_as_xyz
  1  'x, y, z'
loop_
 _atom_site_type_symbol
 _atom_site_label
 _atom_site_symmetry_multiplicity
 _atom_site_fract_x
 _atom_site_fract_y
 _atom_site_fract_z
 _atom_site_occupancy
  Pr  Pr0  1  0.00000000  0.78983700  0.65684300  1
  Pr  Pr1  1  0.50000000  0.71016300  0.15684300  1
  Pr  Pr2  1  0.50000000  0.28983700  0.84315700  1
  Pr  Pr3  1  0.00000000  0.72732700  0.14899800  1
  Pr  Pr4  1  0.00000000  0.27267300  0.85100200  1
  Pr  Pr5  1  0.50000000  0.22732700  0.35100200  1
  Pr  Pr6  1  0.00000000  0.21016300  0.34315700  1
  Pr  Pr7  1  0.50000000  0.77267300  0.64899800  1
  Ta  Ta0  1  0.24974700  0.13590400  0.58342600  1
  Ta  Ta1  1  0.24974700  0.86409600  0.41657400  1
  Ta  Ta2  1  0.25025300  0.63590400  0.91657400  1
  Ta  Ta3  1  0.25025300  0.36409600  0.08342600  1
  Ta  Ta4  1  0.74974700  0.63590400  0.91657400  1
  Ta  Ta5  1  0.75025300  0.13590400  0.58342600  1
  Ta  Ta6  1  0.75025300  0.86409600  0.41657400  1
  Ta  Ta7  1  0.28549700  0.00000000  0.00000000  1
  Ta  Ta8  1  0.21450300  0.50000000  0.50000000  1
  Ta  Ta9  1  0.71450300  0.00000000  0.00000000  1
  Ta  Ta10  1  0.78549700  0.50000000  0.50000000  1
  Ta  Ta11  1  0.74974700  0.36409600  0.08342600  1
  Se  Se0  1  0.50000000  0.98023900  0.83672300  1
  Se  Se1  1  0.50000000  0.01976100  0.16327700  1
  Se  Se2  1  0.00000000  0.48023900  0.66327700  1
  Se  Se3  1  0.00000000  0.51976100  0.33672300  1
  Se  Se4  1  0.50000000  0.47665600  0.63830100  1
  Se  Se5  1  0.50000000  0.52334400  0.36169900  1
  Se  Se6  1  0.00000000  0.97665600  0.86169900  1
  Se  Se7  1  0.00000000  0.02334400  0.13830100  1
  O  O0  1  0.50000000  0.36459000  0.05147000  1
  O  O1  1  0.50000000  0.63541000  0.94853000  1
  O  O2  1  0.00000000  0.86459000  0.44853000  1
  O  O3  1  0.00000000  0.13541000  0.55147000  1
  O  O4  1  0.50000000  0.15027400  0.54891500  1
  O  O5  1  0.50000000  0.84972600  0.45108500  1
  O  O6  1  0.00000000  0.65027400  0.95108500  1
  O  O7  1  0.00000000  0.34972600  0.04891500  1
  O  O8  1  0.75179500  0.78757800  0.27600600  1
  O  O9  1  0.75179500  0.21242200  0.72399400  1
  O  O10  1  0.74820500  0.28757800  0.22399400  1
  O  O11  1  0.74820500  0.71242200  0.77600600  1
  O  O12  1  0.24820500  0.21242200  0.72399400  1
  O  O13  1  0.24820500  0.78757800  0.27600600  1
  O  O14  1  0.26482000  0.19715100  0.97537300  1
  O  O15  1  0.25179500  0.71242200  0.77600600  1
  O  O16  1  0.75419500  0.55613800  0.10290400  1
  O  O17  1  0.75419500  0.44386200  0.89709600  1
  O  O18  1  0.74580500  0.05613800  0.39709600  1
  O  O19  1  0.74580500  0.94386200  0.60290400  1
  O  O20  1  0.24580500  0.44386200  0.89709600  1
  O  O21  1  0.24580500  0.55613800  0.10290400  1
  O  O22  1  0.25419500  0.94386200  0.60290400  1
  O  O23  1  0.25419500  0.05613800  0.39709600  1
  O  O24  1  0.73518000  0.80284900  0.02462700  1
  O  O25  1  0.73518000  0.19715100  0.97537300  1
  O  O26  1  0.76482000  0.30284900  0.47537300  1
  O  O27  1  0.76482000  0.69715100  0.52462700  1
  O  O28  1  0.23518000  0.30284900  0.47537300  1
  O  O29  1  0.23518000  0.69715100  0.52462700  1
  O  O30  1  0.26482000  0.80284900  0.02462700  1
  O  O31  1  0.25179500  0.28757800  0.22399400  1
loop_
_geom_bond_atom_site_label_1
_geom_bond_atom_site_label_2
_geom_bond_distance
_geom_bond_site_symmetry_2
Pr0 Se6 3.090664 1_555
Pr0 Se2 3.097641 1_555
Pr1 Se5 3.090664 1_555
Pr1 Se1 3.097641 1_565
Pr2 Se4 3.090664 1_555
Pr2 Se0 3.097641 1_545
Pr3 Se7 2.963625 1_565
Pr3 Se3 3.065872 1_555
Pr4 Se6 2.963625 1_545
Pr4 Se2 3.065872 1_555
Pr5 Se5 2.963625 1_555
Pr5 Se1 3.065872 1_555
Pr6 Se7 3.090664 1_555
Pr6 Se3 3.097641 1_555
Pr7 Se4 2.963625 1_555
Pr7 Se0 3.065872 1_555
Se0 Ta9 2.570005 1_566
Se0 Ta7 2.570005 1_566
Se1 Ta7 2.570005 1_555
Se1 Ta9 2.570005 1_555
Se2 Ta8 2.570005 1_555
Se2 Ta10 2.570005 1_455
Se3 Ta8 2.570005 1_555
Se3 Ta10 2.570005 1_455
Se4 Ta8 2.761855 1_555
Se4 Ta10 2.761855 1_555
Se5 Ta8 2.761855 1_555
Se5 Ta10 2.761855 1_555
Se6 Ta9 2.761855 1_466
Se6 Ta7 2.761855 1_566
Se7 Ta9 2.761855 1_455
Se7 Ta7 2.761855 1_555
O0 Ta3 1.956816 1_555
O0 Ta11 1.956816 1_555
O0 Pr2 2.612628 1_554
O1 Ta2 1.956816 1_555
O1 Ta4 1.956816 1_555
O1 Pr1 2.612628 1_556
O2 Ta1 1.956816 1_555
O2 Ta6 1.956816 1_455
O2 Pr0 2.612628 1_555
O3 Ta0 1.956816 1_555
O3 Ta5 1.956816 1_455
O3 Pr6 2.612628 1_555
O4 Ta5 1.972111 1_555
O4 Ta0 1.972111 1_555
O4 Pr5 2.500128 1_555
O5 Ta6 1.972111 1_555
O5 Ta1 1.972111 1_555
O5 Pr7 2.500128 1_555
O6 Ta4 1.972111 1_455
O6 Ta2 1.972111 1_555
O6 Pr3 2.500128 1_556
O7 Ta11 1.972111 1_455
O7 Ta3 1.972111 1_555
O7 Pr4 2.500128 1_554
O8 Ta6 1.854574 1_555
O8 Pr3 2.515760 1_655
O8 Pr1 2.528339 1_555
O9 Ta5 1.854574 1_555
O9 Pr4 2.515760 1_655
O9 Pr2 2.528339 1_555
O10 Ta11 1.854574 1_555
O10 Pr5 2.515760 1_555
O10 Pr6 2.528339 1_655
O11 Ta4 1.854574 1_555
O11 Pr7 2.515760 1_555
O11 Pr0 2.528339 1_655
O12 Ta0 1.854574 1_555
O12 Pr4 2.515760 1_555
O12 Pr2 2.528339 1_555
O13 Ta1 1.854574 1_555
O13 Pr3 2.515760 1_555
O13 Pr1 2.528339 1_555
O14 Ta7 2.000355 1_556
O14 Ta3 2.118241 1_556
O14 Pr2 2.578499 1_555
O14 Pr4 2.635123 1_555
O15 Ta2 1.854574 1_555
O15 Pr7 2.515760 1_555
O15 Pr0 2.528339 1_555
O16 Ta11 1.935363 1_555
O16 Ta4 2.377315 1_554
O16 Pr1 2.570513 1_555
O16 Pr3 2.608648 1_655
O17 Ta4 1.935363 1_555
O17 Ta11 2.377315 1_556
O17 Pr2 2.570513 1_555
O17 Pr4 2.608648 1_655
O18 Ta6 1.935363 1_545
O18 Ta5 2.377315 1_555
O18 Pr6 2.570513 1_655
O18 Pr5 2.608648 1_555
O19 Ta5 1.935363 1_565
O19 Ta6 2.377315 1_555
O19 Pr0 2.570513 1_655
O19 Pr7 2.608648 1_555
O20 Ta2 1.935363 1_555
O20 Ta3 2.377315 1_556
O20 Pr2 2.570513 1_555
O20 Pr4 2.608648 1_555
O21 Ta3 1.935363 1_555
O21 Ta2 2.377315 1_554
O21 Pr1 2.570513 1_555
O21 Pr3 2.608648 1_555
O22 Ta0 1.935363 1_565
O22 Ta1 2.377315 1_555
O22 Pr0 2.570513 1_555
O22 Pr7 2.608648 1_555
O23 Ta1 1.935363 1_545
O23 Ta0 2.377315 1_555
O23 Pr6 2.570513 1_555
O23 Pr5 2.608648 1_555
O24 Ta9 2.000355 1_565
O24 Ta4 2.118241 1_554
O24 Pr1 2.578499 1_555
O24 Pr3 2.635123 1_655
O25 Ta9 2.000355 1_556
O25 Ta11 2.118241 1_556
O25 Pr2 2.578499 1_555
O25 Pr4 2.635123 1_655
O26 Ta10 2.000355 1_555
O26 Ta5 2.118241 1_555
O26 Pr6 2.578499 1_655
O26 Pr5 2.635123 1_555
O27 Ta10 2.000355 1_555
O27 Ta6 2.118241 1_555
O27 Pr0 2.578499 1_655
O27 Pr7 2.635123 1_555
O28 Ta8 2.000355 1_555
O28 Ta0 2.118241 1_555
O28 Pr6 2.578499 1_555
O28 Pr5 2.635123 1_555
O29 Ta8 2.000355 1_555
O29 Ta1 2.118241 1_555
O29 Pr0 2.578499 1_555
O29 Pr7 2.635123 1_555
O30 Ta7 2.000355 1_565
O30 Ta2 2.118241 1_554
O30 Pr1 2.578499 1_555
O30 Pr3 2.635123 1_555
O31 Ta3 1.854574 1_555
O31 Pr5 2.515760 1_555
O31 Pr6 2.528339 1_555
