# generated using pymatgen
data_Na3(W2O3)2
_symmetry_space_group_name_H-M   'P 1'
_cell_length_a   6.47914028
_cell_length_b   6.47914028
_cell_length_c   6.47914028
_cell_angle_alpha   118.97949812
_cell_angle_beta   106.66321120
_cell_angle_gamma   103.22395607
_symmetry_Int_Tables_number   1
_chemical_formula_structural   Na3(W2O3)2
_chemical_formula_sum   'Na3 W4 O6'
_cell_volume   204.83328758
_cell_formula_units_Z   1
loop_
 _symmetry_equiv_pos_site_id
 _symmetry_equiv_pos_as_xyz
  1  'x, y, z'
loop_
 _atom_site_type_symbol
 _atom_site_label
 _atom_site_symmetry_multiplicity
 _atom_site_fract_x
 _atom_site_fract_y
 _atom_site_fract_z
 _atom_site_occupancy
  Na  Na0  1  0.50000000  0.99407700  0.49407700  1
  Na  Na1  1  0.00000000  0.48312700  0.48312700  1
  Na  Na2  1  0.50000000  0.53035300  0.03035300  1
  W  W0  1  0.98933900  0.50982600  0.99864800  1
  W  W1  1  0.51117700  0.50982600  0.52048700  1
  W  W2  1  0.01066100  0.00931000  0.52048700  1
  W  W3  1  0.48882300  0.00931000  0.99864800  1
  O  O0  1  0.70754700  0.26744700  0.97499400  1
  O  O1  1  0.29245300  0.26744700  0.55990000  1
  O  O2  1  0.21870500  0.74994500  0.96865000  1
  O  O3  1  0.25790000  0.51659300  0.25869400  1
  O  O4  1  0.74210000  0.00079400  0.25869400  1
  O  O5  1  0.78129500  0.74994500  0.53124000  1
loop_
_geom_bond_atom_site_label_1
_geom_bond_atom_site_label_2
_geom_bond_distance
_geom_bond_site_symmetry_2
Na0 O1 2.411218 1_565
Na0 O0 2.411218 1_565
Na0 O4 2.488629 1_565
Na0 O3 2.488634 1_555
Na0 O5 2.705176 1_555
Na0 O2 2.705176 1_554
Na1 O5 2.438360 1_455
Na1 O2 2.438360 1_555
Na1 O3 2.546938 1_555
Na1 O4 2.546939 1_455
Na1 O0 2.671165 1_454
Na1 O1 2.671165 1_555
Na2 O0 2.360317 1_554
Na2 O1 2.360317 1_554
Na2 O4 2.460069 1_565
Na2 O3 2.460070 1_555
Na2 O2 2.612556 1_554
Na2 O5 2.612556 1_555
O0 W3 2.029186 1_555
O0 W0 2.029194 1_555
O1 W1 2.029190 1_555
O1 W2 2.029190 1_555
O2 W0 2.016811 1_455
O2 W3 2.016819 1_565
O3 W1 2.020052 1_555
O3 W0 2.020064 1_454
O4 W2 2.020056 1_655
O4 W3 2.020060 1_554
O5 W1 2.016815 1_555
O5 W2 2.016815 1_665
