# generated using pymatgen
data_RbC2N3
_symmetry_space_group_name_H-M   'P 1'
_cell_length_a   8.64083200
_cell_length_b   8.65275331
_cell_length_c   13.97384189
_cell_angle_alpha   101.00796191
_cell_angle_beta   103.49280383
_cell_angle_gamma   108.13598866
_symmetry_Int_Tables_number   1
_chemical_formula_structural   RbC2N3
_chemical_formula_sum   'Rb8 C16 N24'
_cell_volume   925.36866013
_cell_formula_units_Z   8
loop_
 _symmetry_equiv_pos_site_id
 _symmetry_equiv_pos_as_xyz
  1  'x, y, z'
loop_
 _atom_site_type_symbol
 _atom_site_label
 _atom_site_symmetry_multiplicity
 _atom_site_fract_x
 _atom_site_fract_y
 _atom_site_fract_z
 _atom_site_occupancy
  Rb  Rb0  1  0.39094400  0.34106100  0.08808000  1
  Rb  Rb1  1  0.19931800  0.16309400  0.37093800  1
  Rb  Rb2  1  0.24936700  0.69629100  0.58389700  1
  Rb  Rb3  1  0.71170700  0.17411400  0.86900600  1
  Rb  Rb4  1  0.61906100  0.66475700  0.91502700  1
  Rb  Rb5  1  0.75644100  0.30232000  0.41416300  1
  Rb  Rb6  1  0.28746500  0.83002800  0.12706500  1
  Rb  Rb7  1  0.80465900  0.83924100  0.62966400  1
  C  C0  1  0.89594000  0.80639500  0.38218200  1
  C  C1  1  0.07308100  0.48524900  0.88089900  1
  C  C2  1  0.70323900  0.10454400  0.12221700  1
  C  C3  1  0.92028600  0.50924500  0.11671100  1
  C  C4  1  0.51429400  0.41484100  0.62204200  1
  C  C5  1  0.94556900  0.51565000  0.72609700  1
  C  C6  1  0.94934500  0.06822800  0.10951500  1
  C  C7  1  0.45824300  0.84443900  0.39093400  1
  C  C8  1  0.29473500  0.22214200  0.77408400  1
  C  C9  1  0.10786700  0.19459100  0.61877900  1
  C  C10  1  0.04773000  0.93149800  0.88954000  1
  C  C11  1  0.05277300  0.48273300  0.27276900  1
  C  C12  1  0.70904500  0.78038500  0.22644200  1
  C  C13  1  0.54051200  0.15703100  0.60573500  1
  C  C14  1  0.29474900  0.89278700  0.87718000  1
  C  C15  1  0.48062000  0.58425000  0.37705400  1
  N  N0  1  0.15995400  0.13614100  0.69431300  1
  N  N1  1  0.93782600  0.56233100  0.65133800  1
  N  N2  1  0.81057900  0.49383600  0.04248400  1
  N  N3  1  0.09121300  0.07358900  0.14072500  1
  N  N4  1  0.48845500  0.72870800  0.43137400  1
  N  N5  1  0.43233800  0.95538200  0.35999400  1
  N  N6  1  0.95965100  0.77090700  0.45514900  1
  N  N7  1  0.61266400  0.14498800  0.16499600  1
  N  N8  1  0.41381600  0.28680600  0.84986200  1
  N  N9  1  0.79299800  0.05707000  0.06793900  1
  N  N10  1  0.56689100  0.04585600  0.63601400  1
  N  N11  1  0.20362900  0.94138100  0.93027500  1
  N  N12  1  0.06736600  0.43730500  0.34793900  1
  N  N13  1  0.04458400  0.23062500  0.54583700  1
  N  N14  1  0.59038800  0.71783500  0.15029200  1
  N  N15  1  0.38728300  0.85117500  0.83665500  1
  N  N16  1  0.84325100  0.86414700  0.30662700  1
  N  N17  1  0.05494200  0.54125100  0.19391300  1
  N  N18  1  0.90644600  0.92846300  0.85954000  1
  N  N19  1  0.18334500  0.49696300  0.95380200  1
  N  N20  1  0.51068400  0.27340500  0.56586900  1
  N  N21  1  0.93792500  0.45852500  0.80519600  1
  N  N22  1  0.47763800  0.45086000  0.33426400  1
  N  N23  1  0.51463900  0.54581200  0.66675400  1
loop_
_geom_bond_atom_site_label_1
_geom_bond_atom_site_label_2
_geom_bond_distance
_geom_bond_site_symmetry_2
C0 N6 1.183162 1_555
C0 N16 1.300193 1_555
C1 N19 1.184643 1_555
C1 N21 1.303224 1_455
C2 N7 1.183759 1_555
C2 N9 1.303624 1_555
C3 N2 1.184032 1_555
C3 N17 1.301498 1_655
C4 N23 1.183759 1_555
C4 N20 1.308735 1_555
C5 N1 1.185038 1_555
C5 N21 1.301075 1_555
C6 N3 1.184261 1_655
C6 N9 1.305024 1_555
C7 N5 1.185610 1_555
C7 N4 1.303951 1_555
C8 N8 1.183210 1_555
C8 N0 1.300212 1_555
C9 N13 1.184303 1_555
C9 N0 1.302430 1_555
C10 N18 1.184832 1_455
C10 N11 1.303023 1_555
C11 N12 1.183430 1_555
C11 N17 1.299142 1_555
C12 N14 1.184043 1_555
C12 N16 1.298408 1_555
C13 N10 1.184612 1_555
C13 N20 1.303657 1_555
C14 N15 1.184184 1_555
C14 N11 1.306431 1_555
C15 N22 1.183677 1_555
C15 N4 1.305433 1_555
N0 Rb7 3.122586 1_445
N1 Rb7 2.997942 1_555
N1 Rb2 3.022730 1_655
N1 Rb5 3.321992 1_555
N2 Rb4 3.041748 1_554
N2 Rb3 3.043167 1_554
N3 Rb1 3.002848 1_555
N3 Rb6 3.094486 1_545
N3 Rb0 3.226906 1_555
N4 Rb7 3.144200 1_555
N4 Rb2 3.288092 1_555
N5 Rb6 3.040242 1_555
N5 Rb1 3.098279 1_565
N5 Rb5 3.215105 1_565
N6 Rb2 3.044446 1_655
N6 Rb7 3.091375 1_555
N7 Rb0 3.076201 1_555
N7 Rb6 3.096767 1_545
N7 Rb5 3.261624 1_555
N8 Rb3 2.998136 1_555
N8 Rb4 3.027850 1_555
N8 Rb0 3.332936 1_556
N9 Rb3 3.139028 1_554
N9 Rb4 3.301977 1_544
N10 Rb3 3.041726 1_555
N10 Rb7 3.120291 1_545
N10 Rb2 3.204198 1_545
N11 Rb6 3.087381 1_556
N11 Rb0 3.373404 1_566
N12 Rb1 2.972754 1_555
N12 Rb5 3.009666 1_455
N12 Rb2 3.306257 1_555
N13 Rb5 3.037955 1_455
N13 Rb1 3.093242 1_555
N14 Rb0 3.012477 1_555
N14 Rb6 3.033955 1_555
N14 Rb4 3.309783 1_554
N15 Rb4 3.078068 1_555
N15 Rb3 3.149704 1_565
N15 Rb2 3.305321 1_555
N16 Rb1 3.135647 1_665
N17 Rb6 3.129661 1_555
N18 Rb7 2.999994 1_555
N18 Rb3 3.096796 1_565
N18 Rb4 3.165578 1_555
N19 Rb0 3.075840 1_556
N19 Rb6 3.111527 1_556
N20 Rb1 3.091594 1_555
N20 Rb5 3.322438 1_555
N21 Rb3 3.054312 1_555
N22 Rb1 3.095274 1_555
N22 Rb5 3.150033 1_555
N22 Rb0 3.225607 1_555
N23 Rb2 3.079815 1_555
N23 Rb7 3.184754 1_555
N23 Rb4 3.241472 1_555
