# generated using pymatgen
data_Al(HO)3
_symmetry_space_group_name_H-M   'P 1'
_cell_length_a   5.13598800
_cell_length_b   8.86436612
_cell_length_c   9.55577980
_cell_angle_alpha   83.05847352
_cell_angle_beta   89.07863180
_cell_angle_gamma   89.31791822
_symmetry_Int_Tables_number   1
_chemical_formula_structural   Al(HO)3
_chemical_formula_sum   'Al8 H24 O24'
_cell_volume   431.78215813
_cell_formula_units_Z   8
loop_
 _symmetry_equiv_pos_site_id
 _symmetry_equiv_pos_as_xyz
  1  'x, y, z'
loop_
 _atom_site_type_symbol
 _atom_site_label
 _atom_site_symmetry_multiplicity
 _atom_site_fract_x
 _atom_site_fract_y
 _atom_site_fract_z
 _atom_site_occupancy
  Al  Al0  1  0.99823300  0.33677700  0.49925100  1
  Al  Al1  1  0.00186100  0.66833600  0.49870900  1
  Al  Al2  1  0.50201400  0.83600900  0.49942000  1
  Al  Al3  1  0.49934100  0.17385200  0.50287100  1
  Al  Al4  1  0.98254100  0.83064100  0.99480800  1
  Al  Al5  1  0.97731400  0.16640600  0.99814000  1
  Al  Al6  1  0.47629700  0.33268300  0.99685500  1
  Al  Al7  1  0.48936300  0.66487400  0.99873300  1
  H  H0  1  0.82592100  0.01110800  0.39436500  1
  H  H1  1  0.36468900  0.97083200  0.70439800  1
  H  H2  1  0.67590500  0.48877700  0.60607700  1
  H  H3  1  0.32777000  0.51437300  0.38624300  1
  H  H4  1  0.15289900  0.12447400  0.33698300  1
  H  H5  1  0.91444400  0.89779300  0.61725900  1
  H  H6  1  0.35186000  0.60195200  0.68680200  1
  H  H7  1  0.66105300  0.37861100  0.29993500  1
  H  H8  1  0.24151100  0.79431300  0.29599300  1
  H  H9  1  0.76275300  0.22280100  0.70561000  1
  H  H10  1  0.28629300  0.27458000  0.70834100  1
  H  H11  1  0.69578000  0.72591600  0.29038400  1
  H  H12  1  0.07363200  0.96040200  0.20345000  1
  H  H13  1  0.86373100  0.03159200  0.78853100  1
  H  H14  1  0.16578400  0.52460000  0.88779500  1
  H  H15  1  0.80626500  0.47507100  0.10062500  1
  H  H16  1  0.13305800  0.60780200  0.19208300  1
  H  H17  1  0.84274300  0.40286800  0.81538400  1
  H  H18  1  0.39395100  0.10248400  0.89049000  1
  H  H19  1  0.57409300  0.89606300  0.11214500  1
  H  H20  1  0.26426000  0.78092600  0.79481600  1
  H  H21  1  0.63396500  0.13100300  0.20008800  1
  H  H22  1  0.16137700  0.30658100  0.19954900  1
  H  H23  1  0.79534200  0.72139000  0.79032900  1
  O  O0  1  0.63689600  0.01972200  0.38997700  1
  O  O1  1  0.36122900  0.98982900  0.60170700  1
  O  O2  1  0.86586300  0.49167200  0.61036100  1
  O  O3  1  0.13704700  0.51751900  0.38650100  1
  O  O4  1  0.20286700  0.20914300  0.38559400  1
  O  O5  1  0.81569900  0.80579100  0.60945200  1
  O  O6  1  0.30673300  0.67980400  0.60853700  1
  O  O7  1  0.69353300  0.33025700  0.39589800  1
  O  O8  1  0.19388100  0.83248500  0.38527500  1
  O  O9  1  0.80229000  0.18012500  0.61658700  1
  O  O10  1  0.30495200  0.30789100  0.60507500  1
  O  O11  1  0.69144600  0.70162900  0.39426300  1
  O  O12  1  0.10659800  0.98577100  0.10290800  1
  O  O13  1  0.85663700  0.01057200  0.89093800  1
  O  O14  1  0.35582300  0.51540300  0.88372100  1
  O  O15  1  0.61612300  0.48345000  0.10735600  1
  O  O16  1  0.17779200  0.67782000  0.10771300  1
  O  O17  1  0.78324500  0.31786600  0.88265000  1
  O  O18  1  0.29345300  0.19721600  0.88736500  1
  O  O19  1  0.66827200  0.80006200  0.10848100  1
  O  O20  1  0.29859900  0.82282000  0.88297000  1
  O  O21  1  0.66226000  0.17269200  0.10132300  1
  O  O22  1  0.15460100  0.31331700  0.09643400  1
  O  O23  1  0.80774000  0.68946900  0.89287700  1
loop_
_geom_bond_atom_site_label_1
_geom_bond_atom_site_label_2
_geom_bond_distance
_geom_bond_site_symmetry_2
Al0 O7 1.869067 1_555
Al0 O10 1.883820 1_655
Al0 O2 1.944656 1_555
Al0 O4 1.948388 1_655
Al0 O9 1.954186 1_555
Al0 O3 1.954812 1_655
Al1 O11 1.895720 1_455
Al1 O6 1.909446 1_555
Al1 O2 1.917504 1_455
Al1 O3 1.928600 1_555
Al1 O5 1.941662 1_455
Al1 O8 1.970625 1_555
Al2 O11 1.898827 1_555
Al2 O1 1.900874 1_555
Al2 O6 1.913343 1_555
Al2 O5 1.936232 1_555
Al2 O8 1.939110 1_555
Al2 O0 1.953852 1_565
Al3 O10 1.892940 1_555
Al3 O7 1.902478 1_555
Al3 O4 1.905557 1_555
Al3 O9 1.917260 1_555
Al3 O1 1.920870 1_545
Al3 O0 1.959172 1_555
Al4 O13 1.886979 1_565
Al4 O16 1.911524 1_656
Al4 O23 1.915786 1_555
Al4 O20 1.934262 1_655
Al4 O19 1.934296 1_556
Al4 O12 1.936329 1_656
Al5 O21 1.885047 1_556
Al5 O12 1.901488 1_646
Al5 O17 1.912942 1_555
Al5 O18 1.927916 1_655
Al5 O13 1.929913 1_555
Al5 O22 1.938722 1_656
Al6 O21 1.891116 1_556
Al6 O22 1.892482 1_556
Al6 O17 1.915178 1_555
Al6 O14 1.936342 1_555
Al6 O18 1.944393 1_555
Al6 O15 1.950681 1_556
Al7 O16 1.905072 1_556
Al7 O23 1.909592 1_555
Al7 O15 1.918567 1_556
Al7 O19 1.934217 1_556
Al7 O20 1.942090 1_555
Al7 O14 1.957462 1_555
H0 O0 0.974100 1_555
H1 O1 0.975785 1_555
H2 O2 0.977910 1_555
H3 O3 0.979588 1_555
H4 O4 0.968314 1_555
H5 O5 0.976547 1_555
H6 O6 0.983011 1_555
H7 O7 0.980129 1_555
H8 O8 0.981485 1_555
H9 O9 0.989144 1_555
H10 O10 0.998662 1_555
H11 O11 0.989918 1_555
H12 O12 0.972494 1_555
H13 O13 0.973963 1_555
H14 O14 0.979011 1_555
H15 O15 0.980176 1_555
H16 O16 0.982085 1_555
H17 O17 0.977951 1_555
H18 O18 0.978052 1_555
H19 O19 0.977871 1_555
H20 O20 0.980088 1_555
H21 O21 0.980287 1_555
H22 O22 0.981077 1_555
H23 O23 0.989410 1_555
