# generated using pymatgen
data_CsHg2Br5
_symmetry_space_group_name_H-M   'P 1'
_cell_length_a   6.37668189
_cell_length_b   8.55116123
_cell_length_c   11.18981071
_cell_angle_alpha   106.05811093
_cell_angle_beta   90.00000000
_cell_angle_gamma   90.00000000
_symmetry_Int_Tables_number   1
_chemical_formula_structural   CsHg2Br5
_chemical_formula_sum   'Cs2 Hg4 Br10'
_cell_volume   586.35101165
_cell_formula_units_Z   2
loop_
 _symmetry_equiv_pos_site_id
 _symmetry_equiv_pos_as_xyz
  1  'x, y, z'
loop_
 _atom_site_type_symbol
 _atom_site_label
 _atom_site_symmetry_multiplicity
 _atom_site_fract_x
 _atom_site_fract_y
 _atom_site_fract_z
 _atom_site_occupancy
  Cs  Cs0  1  0.25000000  0.45922507  0.74298240  1
  Cs  Cs1  1  0.75000000  0.54077493  0.25701760  1
  Hg  Hg0  1  0.75000000  0.03535128  0.86032995  1
  Hg  Hg1  1  0.75000000  0.12616809  0.43264660  1
  Hg  Hg2  1  0.25000000  0.96464872  0.13967005  1
  Hg  Hg3  1  0.25000000  0.87383191  0.56735340  1
  Br  Br0  1  0.25000000  0.02914478  0.79945599  1
  Br  Br1  1  0.75000000  0.97085522  0.20054401  1
  Br  Br2  1  0.25000000  0.58239060  0.43676371  1
  Br  Br3  1  0.75000000  0.74805942  0.86372427  1
  Br  Br4  1  0.75000000  0.41760940  0.56323629  1
  Br  Br5  1  0.75000000  0.33495269  0.90443592  1
  Br  Br6  1  0.25000000  0.25194058  0.13627573  1
  Br  Br7  1  0.25000000  0.09737086  0.43632024  1
  Br  Br8  1  0.25000000  0.66504731  0.09556408  1
  Br  Br9  1  0.75000000  0.90263014  0.56367976  1
loop_
_geom_bond_atom_site_label_1
_geom_bond_atom_site_label_2
_geom_bond_distance
_geom_bond_site_symmetry_2
Br0 Hg3 2.569236 1_545
Br0 Cs0 3.900054 1_555
Br1 Hg1 2.569236 1_565
Br1 Cs1 3.900054 1_555
Br2 Hg3 2.516247 1_555
Br2 Cs1 3.733847 1_555
Br2 Cs1 3.733847 1_455
Br2 Cs0 3.853161 1_555
Br3 Hg0 2.467455 1_565
Br3 Cs0 4.030519 1_555
Br3 Cs0 4.030519 1_655
Br4 Hg1 2.516247 1_555
Br4 Cs0 3.733847 1_555
Br4 Cs0 3.733847 1_655
Br4 Cs1 3.853161 1_555
Br5 Hg0 2.471358 1_555
Br5 Cs1 3.849900 1_556
Br5 Cs0 3.952320 1_655
Br5 Cs0 3.952320 1_555
Br6 Hg2 2.467455 1_545
Br6 Cs1 4.030519 1_455
Br6 Cs1 4.030519 1_555
Br7 Hg3 2.711879 1_545
Br7 Hg2 3.197293 1_545
Br7 Hg1 3.198976 1_455
Br7 Hg1 3.198976 1_555
Br7 Cs0 3.933897 1_555
Br8 Hg2 2.471358 1_555
Br8 Cs0 3.849900 1_554
Br8 Cs1 3.952320 1_455
Br8 Cs1 3.952320 1_555
Br9 Hg1 2.711872 1_565
Br9 Hg0 3.197293 1_565
Br9 Hg3 3.198977 1_655
Br9 Hg3 3.198977 1_555
Br9 Cs1 3.933901 1_555
