# generated using pymatgen
data_LiMg2H7Ru
_symmetry_space_group_name_H-M   'P 1'
_cell_length_a   4.69630128
_cell_length_b   4.69630128
_cell_length_c   10.69942600
_cell_angle_alpha   90.00000000
_cell_angle_beta   90.00000000
_cell_angle_gamma   119.99998980
_symmetry_Int_Tables_number   1
_chemical_formula_structural   LiMg2H7Ru
_chemical_formula_sum   'Li2 Mg4 H14 Ru2'
_cell_volume   204.36336992
_cell_formula_units_Z   2
loop_
 _symmetry_equiv_pos_site_id
 _symmetry_equiv_pos_as_xyz
  1  'x, y, z'
loop_
 _atom_site_type_symbol
 _atom_site_label
 _atom_site_symmetry_multiplicity
 _atom_site_fract_x
 _atom_site_fract_y
 _atom_site_fract_z
 _atom_site_occupancy
  Li  Li0  1  0.00000000  0.00000000  0.25000000  1
  Li  Li1  1  0.00000000  0.00000000  0.75000000  1
  Mg  Mg0  1  0.33333300  0.66666700  0.42491800  1
  Mg  Mg1  1  0.66666700  0.33333300  0.57508200  1
  Mg  Mg2  1  0.66666700  0.33333300  0.92491800  1
  Mg  Mg3  1  0.33333300  0.66666700  0.07508200  1
  H  H0  1  0.16607500  0.83392500  0.90432100  1
  H  H1  1  0.16607500  0.33215100  0.90432100  1
  H  H2  1  0.66784900  0.83392500  0.90432100  1
  H  H3  1  0.83392500  0.16607500  0.09567900  1
  H  H4  1  0.83392500  0.66784900  0.09567900  1
  H  H5  1  0.33215100  0.16607500  0.09567900  1
  H  H6  1  0.83392500  0.16607500  0.40432100  1
  H  H7  1  0.83392500  0.66784900  0.40432100  1
  H  H8  1  0.33215100  0.16607500  0.40432100  1
  H  H9  1  0.16607500  0.83392500  0.59567900  1
  H  H10  1  0.16607500  0.33215100  0.59567900  1
  H  H11  1  0.66784900  0.83392500  0.59567900  1
  H  H12  1  0.33333300  0.66666700  0.25000000  1
  H  H13  1  0.66666700  0.33333300  0.75000000  1
  Ru  Ru0  1  0.00000000  0.00000000  0.50000000  1
  Ru  Ru1  1  0.00000000  0.00000000  0.00000000  1
loop_
_geom_bond_atom_site_label_1
_geom_bond_atom_site_label_2
_geom_bond_distance
_geom_bond_site_symmetry_2
H0 Ru1 1.694961 1_566
H0 Li1 2.133353 1_565
H0 Mg3 2.277958 1_556
H0 Mg2 2.358474 1_455
H0 Mg2 2.358474 1_565
H1 Ru1 1.694965 1_556
H1 Li1 2.133356 1_555
H1 Mg3 2.277959 1_556
H1 Mg2 2.358469 1_455
H1 Mg2 2.358479 1_555
H2 Ru1 1.694965 1_666
H2 Li1 2.133356 1_665
H2 Mg3 2.277959 1_556
H2 Mg2 2.358469 1_565
H2 Mg2 2.358479 1_555
H3 Ru1 1.694961 1_655
H3 Li0 2.133353 1_655
H3 Mg2 2.277958 1_554
H3 Mg3 2.358474 1_545
H3 Mg3 2.358474 1_655
H4 Ru1 1.694965 1_665
H4 Li0 2.133356 1_665
H4 Mg2 2.277959 1_554
H4 Mg3 2.358469 1_655
H4 Mg3 2.358479 1_555
H5 Ru1 1.694965 1_555
H5 Li0 2.133356 1_555
H5 Mg2 2.277959 1_554
H5 Mg3 2.358469 1_545
H5 Mg3 2.358479 1_555
H6 Ru0 1.694961 1_655
H6 Li0 2.133353 1_655
H6 Mg1 2.277958 1_555
H6 Mg0 2.358474 1_545
H6 Mg0 2.358474 1_655
H7 Ru0 1.694965 1_665
H7 Li0 2.133356 1_665
H7 Mg1 2.277959 1_555
H7 Mg0 2.358469 1_655
H7 Mg0 2.358479 1_555
H8 Ru0 1.694965 1_555
H8 Li0 2.133356 1_555
H8 Mg1 2.277959 1_555
H8 Mg0 2.358469 1_545
H8 Mg0 2.358479 1_555
H9 Ru0 1.694961 1_565
H9 Li1 2.133353 1_565
H9 Mg0 2.277958 1_555
H9 Mg1 2.358474 1_455
H9 Mg1 2.358474 1_565
H10 Ru0 1.694965 1_555
H10 Li1 2.133356 1_555
H10 Mg0 2.277959 1_555
H10 Mg1 2.358469 1_455
H10 Mg1 2.358479 1_555
H11 Ru0 1.694965 1_665
H11 Li1 2.133356 1_665
H11 Mg0 2.277959 1_555
H11 Mg1 2.358469 1_565
H11 Mg1 2.358479 1_555
H12 Mg0 1.871522 1_555
H12 Mg3 1.871522 1_555
H13 Mg1 1.871522 1_555
H13 Mg2 1.871522 1_555
