# generated using pymatgen
data_BaNb8O14
_symmetry_space_group_name_H-M   'P 1'
_cell_length_a   9.67372200
_cell_length_b   10.45045900
_cell_length_c   13.16461752
_cell_angle_alpha   66.83483473
_cell_angle_beta   90.00000000
_cell_angle_gamma   90.00000000
_symmetry_Int_Tables_number   1
_chemical_formula_structural   BaNb8O14
_chemical_formula_sum   'Ba4 Nb32 O56'
_cell_volume   1223.57262616
_cell_formula_units_Z   4
loop_
 _symmetry_equiv_pos_site_id
 _symmetry_equiv_pos_as_xyz
  1  'x, y, z'
loop_
 _atom_site_type_symbol
 _atom_site_label
 _atom_site_symmetry_multiplicity
 _atom_site_fract_x
 _atom_site_fract_y
 _atom_site_fract_z
 _atom_site_occupancy
  Ba  Ba0  1  0.98580700  0.62039000  0.72808100  1
  Ba  Ba1  1  0.01419300  0.37961000  0.27191900  1
  Ba  Ba2  1  0.51419300  0.12039000  0.72808100  1
  Ba  Ba3  1  0.48580700  0.87961000  0.27191900  1
  Nb  Nb0  1  0.11651600  0.66153200  0.99734200  1
  Nb  Nb1  1  0.11643600  0.04101600  0.24104600  1
  Nb  Nb2  1  0.11842300  0.28785300  0.75773600  1
  Nb  Nb3  1  0.11192200  0.72514200  0.36586500  1
  Nb  Nb4  1  0.12306800  0.11086500  0.63735700  1
  Nb  Nb5  1  0.12489700  0.99142700  0.86791100  1
  Nb  Nb6  1  0.12226100  0.85319300  0.13427200  1
  Nb  Nb7  1  0.15402800  0.91899700  0.50695700  1
  Nb  Nb8  1  0.34597200  0.41899700  0.50695700  1
  Nb  Nb9  1  0.37510300  0.49142700  0.86791100  1
  Nb  Nb10  1  0.37773900  0.35319300  0.13427200  1
  Nb  Nb11  1  0.37693200  0.61086500  0.63735700  1
  Nb  Nb12  1  0.38807800  0.22514200  0.36586500  1
  Nb  Nb13  1  0.38157700  0.78785300  0.75773600  1
  Nb  Nb14  1  0.38356400  0.54101600  0.24104600  1
  Nb  Nb15  1  0.38348400  0.16153200  0.99734200  1
  Nb  Nb16  1  0.61651600  0.83846800  0.00265800  1
  Nb  Nb17  1  0.61643600  0.45898400  0.75895400  1
  Nb  Nb18  1  0.61842300  0.21214700  0.24226400  1
  Nb  Nb19  1  0.61192200  0.77485800  0.63413500  1
  Nb  Nb20  1  0.62306800  0.38913500  0.36264300  1
  Nb  Nb21  1  0.62226100  0.64680700  0.86572800  1
  Nb  Nb22  1  0.62489700  0.50857300  0.13208900  1
  Nb  Nb23  1  0.65402800  0.58100300  0.49304300  1
  Nb  Nb24  1  0.84597200  0.08100300  0.49304300  1
  Nb  Nb25  1  0.87510300  0.00857300  0.13208900  1
  Nb  Nb26  1  0.87773900  0.14680700  0.86572800  1
  Nb  Nb27  1  0.87693200  0.88913500  0.36264300  1
  Nb  Nb28  1  0.88807800  0.27485800  0.63413500  1
  Nb  Nb29  1  0.88157700  0.71214700  0.24226400  1
  Nb  Nb30  1  0.88356400  0.95898400  0.75895400  1
  Nb  Nb31  1  0.88348400  0.33846800  0.00265800  1
  O  O0  1  0.00000000  0.00000000  0.00000000  1
  O  O1  1  0.00000000  0.50000000  0.00000000  1
  O  O2  1  0.98706600  0.22905200  0.50743100  1
  O  O3  1  0.01293400  0.77094800  0.49256900  1
  O  O4  1  0.99970100  0.56972500  0.36223800  1
  O  O5  1  0.00097100  0.94812500  0.61731400  1
  O  O6  1  0.00697900  0.81093100  0.87438900  1
  O  O7  1  0.00631200  0.68293800  0.12368600  1
  O  O8  1  0.22813400  0.81914300  0.00126000  1
  O  O9  1  0.24682400  0.46876400  0.75121200  1
  O  O10  1  0.24445900  0.21792600  0.25012800  1
  O  O11  1  0.24560300  0.52169500  0.12669500  1
  O  O12  1  0.24165000  0.64501400  0.87991700  1
  O  O13  1  0.25590300  0.27559200  0.63159600  1
  O  O14  1  0.23825100  0.90276200  0.37749800  1
  O  O15  1  0.25721300  0.58533000  0.49772000  1
  O  O16  1  0.24278700  0.08533000  0.49772000  1
  O  O17  1  0.24409700  0.77559200  0.63159600  1
  O  O18  1  0.26174900  0.40276200  0.37749800  1
  O  O19  1  0.25835000  0.14501400  0.87991700  1
  O  O20  1  0.25439700  0.02169500  0.12669500  1
  O  O21  1  0.25317600  0.96876400  0.75121200  1
  O  O22  1  0.25554100  0.71792600  0.25012800  1
  O  O23  1  0.27186600  0.31914300  0.00126000  1
  O  O24  1  0.49368800  0.18293800  0.12368600  1
  O  O25  1  0.49302100  0.31093100  0.87438900  1
  O  O26  1  0.50029900  0.06972500  0.36223800  1
  O  O27  1  0.49902900  0.44812500  0.61731400  1
  O  O28  1  0.50000000  0.50000000  0.00000000  1
  O  O29  1  0.50000000  0.00000000  0.00000000  1
  O  O30  1  0.48706600  0.27094800  0.49256900  1
  O  O31  1  0.51293400  0.72905200  0.50743100  1
  O  O32  1  0.50097100  0.55187500  0.38268600  1
  O  O33  1  0.49970100  0.93027500  0.63776200  1
  O  O34  1  0.50697900  0.68906900  0.12561100  1
  O  O35  1  0.50631200  0.81706200  0.87631400  1
  O  O36  1  0.72813400  0.68085700  0.99874000  1
  O  O37  1  0.74682400  0.03123600  0.24878800  1
  O  O38  1  0.74445900  0.28207400  0.74987200  1
  O  O39  1  0.74560300  0.97830500  0.87330500  1
  O  O40  1  0.74165000  0.85498600  0.12008300  1
  O  O41  1  0.73825100  0.59723800  0.62250200  1
  O  O42  1  0.75590300  0.22440800  0.36840400  1
  O  O43  1  0.75721300  0.91467000  0.50228000  1
  O  O44  1  0.74278700  0.41467000  0.50228000  1
  O  O45  1  0.76174900  0.09723800  0.62250200  1
  O  O46  1  0.74409700  0.72440800  0.36840400  1
  O  O47  1  0.75439700  0.47830500  0.87330500  1
  O  O48  1  0.75835000  0.35498600  0.12008300  1
  O  O49  1  0.75317600  0.53123600  0.24878800  1
  O  O50  1  0.75554100  0.78207400  0.74987200  1
  O  O51  1  0.77186600  0.18085700  0.99874000  1
  O  O52  1  0.99302100  0.18906900  0.12561100  1
  O  O53  1  0.99368800  0.31706200  0.87631400  1
  O  O54  1  0.99902900  0.05187500  0.38268600  1
  O  O55  1  0.00029900  0.43027500  0.63776200  1
loop_
_geom_bond_atom_site_label_1
_geom_bond_atom_site_label_2
_geom_bond_distance
_geom_bond_site_symmetry_2
Ba0 O55 2.690601 1_655
Ba0 O41 2.826653 1_555
Ba0 O50 2.877591 1_555
Ba0 O3 2.884281 1_655
Ba0 O9 2.932506 1_655
Ba0 O47 2.938997 1_555
Ba0 O17 2.977635 1_655
Ba0 O53 2.999239 1_555
Ba0 O5 3.154205 1_655
Ba0 O12 3.254498 1_655
Ba0 O6 3.276324 1_655
Ba0 O1 3.297374 1_656
Ba1 O4 2.690601 1_455
Ba1 O18 2.826653 1_555
Ba1 O10 2.877591 1_555
Ba1 O2 2.884281 1_455
Ba1 O49 2.932506 1_455
Ba1 O11 2.938997 1_555
Ba1 O42 2.977635 1_455
Ba1 O7 2.999239 1_555
Ba1 O54 3.154205 1_455
Ba1 O48 3.254498 1_455
Ba1 O52 3.276324 1_455
Ba1 O1 3.297374 1_555
Ba2 O33 2.690601 1_545
Ba2 O45 2.826653 1_555
Ba2 O38 2.877591 1_555
Ba2 O30 2.884281 1_555
Ba2 O21 2.932506 1_545
Ba2 O39 2.938997 1_545
Ba2 O13 2.977635 1_555
Ba2 O35 2.999239 1_545
Ba2 O27 3.154205 1_555
Ba2 O19 3.254498 1_555
Ba2 O25 3.276324 1_555
Ba2 O29 3.297374 1_556
Ba3 O26 2.690601 1_565
Ba3 O14 2.826653 1_555
Ba3 O22 2.877591 1_555
Ba3 O31 2.884281 1_555
Ba3 O37 2.932506 1_565
Ba3 O20 2.938997 1_565
Ba3 O46 2.977635 1_555
Ba3 O24 2.999239 1_565
Ba3 O32 3.154205 1_555
Ba3 O40 3.254498 1_555
Ba3 O34 3.276324 1_555
Ba3 O29 3.297374 1_565
Nb0 O8 1.987045 1_556
Nb0 O1 2.018621 1_556
Nb0 O12 2.023549 1_555
Nb0 O6 2.047468 1_555
Nb0 O7 2.060530 1_556
Nb0 O11 2.153341 1_556
Nb1 O52 2.068509 1_455
Nb1 O20 2.080204 1_555
Nb1 O14 2.158937 1_545
Nb1 O54 2.224002 1_455
Nb1 O10 2.267159 1_555
Nb2 O55 2.041095 1_555
Nb2 O53 2.088278 1_455
Nb2 O13 2.170280 1_555
Nb2 O19 2.181434 1_555
Nb2 O9 2.235365 1_555
Nb3 O4 1.969713 1_455
Nb3 O22 2.085134 1_555
Nb3 O3 2.134613 1_555
Nb3 O15 2.264493 1_555
Nb3 O14 2.277297 1_555
Nb4 O21 2.069975 1_545
Nb4 O13 2.125500 1_555
Nb4 O2 2.126001 1_455
Nb4 O5 2.170290 1_545
Nb4 O16 2.275444 1_555
Nb5 O21 2.059731 1_555
Nb5 O19 2.113627 1_565
Nb5 O0 2.148061 1_566
Nb5 O6 2.177136 1_555
Nb5 O8 2.198640 1_556
Nb6 O22 2.071364 1_555
Nb6 O20 2.146281 1_565
Nb6 O7 2.153678 1_555
Nb6 O8 2.175313 1_555
Nb6 O0 2.177959 1_565
Nb7 O16 1.899280 1_565
Nb7 O17 1.939780 1_555
Nb7 O14 1.955675 1_555
Nb7 O3 2.126775 1_555
Nb7 O5 2.177961 1_555
Nb7 O54 2.250696 1_465
Nb8 O15 1.899280 1_555
Nb8 O13 1.939780 1_555
Nb8 O18 1.955675 1_555
Nb8 O30 2.126775 1_555
Nb8 O27 2.177961 1_555
Nb8 O32 2.250696 1_555
Nb9 O9 2.059731 1_555
Nb9 O12 2.113627 1_555
Nb9 O28 2.148061 1_556
Nb9 O25 2.177136 1_555
Nb9 O23 2.198640 1_556
Nb10 O10 2.071364 1_555
Nb10 O11 2.146281 1_555
Nb10 O24 2.153678 1_555
Nb10 O23 2.175313 1_555
Nb10 O28 2.177959 1_555
Nb11 O9 2.069975 1_555
Nb11 O17 2.125500 1_555
Nb11 O31 2.126001 1_555
Nb11 O27 2.170290 1_555
Nb11 O15 2.275444 1_555
Nb12 O26 1.969713 1_555
Nb12 O10 2.085134 1_555
Nb12 O30 2.134613 1_555
Nb12 O16 2.264493 1_555
Nb12 O18 2.277297 1_555
Nb13 O33 2.041095 1_555
Nb13 O35 2.088278 1_555
Nb13 O17 2.170280 1_555
Nb13 O12 2.181434 1_555
Nb13 O21 2.235365 1_555
Nb14 O34 2.068509 1_555
Nb14 O11 2.080204 1_555
Nb14 O18 2.158937 1_555
Nb14 O32 2.224002 1_555
Nb14 O22 2.267159 1_555
Nb15 O23 1.987045 1_556
Nb15 O29 2.018621 1_556
Nb15 O19 2.023549 1_555
Nb15 O25 2.047468 1_555
Nb15 O24 2.060530 1_556
Nb15 O20 2.153341 1_556
Nb16 O36 1.987045 1_554
Nb16 O29 2.018621 1_565
Nb16 O40 2.023549 1_555
Nb16 O34 2.047468 1_555
Nb16 O35 2.060530 1_554
Nb16 O39 2.153341 1_554
Nb17 O25 2.068509 1_555
Nb17 O47 2.080204 1_555
Nb17 O41 2.158937 1_555
Nb17 O27 2.224002 1_555
Nb17 O38 2.267159 1_555
Nb18 O26 2.041095 1_555
Nb18 O24 2.088278 1_555
Nb18 O42 2.170280 1_555
Nb18 O48 2.181434 1_555
Nb18 O37 2.235365 1_555
Nb19 O33 1.969713 1_555
Nb19 O50 2.085134 1_555
Nb19 O31 2.134613 1_555
Nb19 O43 2.264493 1_555
Nb19 O41 2.277297 1_555
Nb20 O49 2.069975 1_555
Nb20 O42 2.125500 1_555
Nb20 O30 2.126001 1_555
Nb20 O32 2.170290 1_555
Nb20 O44 2.275444 1_555
Nb21 O50 2.071364 1_555
Nb21 O47 2.146281 1_555
Nb21 O35 2.153678 1_555
Nb21 O36 2.175313 1_555
Nb21 O28 2.177959 1_556
Nb22 O49 2.059731 1_555
Nb22 O48 2.113627 1_555
Nb22 O28 2.148061 1_555
Nb22 O34 2.177136 1_555
Nb22 O36 2.198640 1_554
Nb23 O44 1.899280 1_555
Nb23 O46 1.939780 1_555
Nb23 O41 1.955675 1_555
Nb23 O31 2.126775 1_555
Nb23 O32 2.177961 1_555
Nb23 O27 2.250696 1_555
Nb24 O43 1.899280 1_545
Nb24 O42 1.939780 1_555
Nb24 O45 1.955675 1_555
Nb24 O2 2.126775 1_555
Nb24 O54 2.177961 1_555
Nb24 O5 2.250696 1_645
Nb25 O37 2.059731 1_555
Nb25 O40 2.113627 1_545
Nb25 O0 2.148061 1_655
Nb25 O52 2.177136 1_555
Nb25 O51 2.198640 1_554
Nb26 O38 2.071364 1_555
Nb26 O39 2.146281 1_545
Nb26 O53 2.153678 1_555
Nb26 O51 2.175313 1_555
Nb26 O0 2.177959 1_656
Nb27 O37 2.069975 1_565
Nb27 O46 2.125500 1_555
Nb27 O3 2.126001 1_655
Nb27 O54 2.170290 1_565
Nb27 O43 2.275444 1_555
Nb28 O55 1.969713 1_655
Nb28 O38 2.085134 1_555
Nb28 O2 2.134613 1_555
Nb28 O44 2.264493 1_555
Nb28 O45 2.277297 1_555
Nb29 O4 2.041095 1_555
Nb29 O7 2.088278 1_655
Nb29 O46 2.170280 1_555
Nb29 O40 2.181434 1_555
Nb29 O49 2.235365 1_555
Nb30 O6 2.068509 1_655
Nb30 O39 2.080204 1_555
Nb30 O45 2.158937 1_565
Nb30 O5 2.224002 1_655
Nb30 O50 2.267159 1_555
Nb31 O51 1.987045 1_554
Nb31 O1 2.018621 1_655
Nb31 O48 2.023549 1_555
Nb31 O52 2.047468 1_555
Nb31 O53 2.060530 1_554
Nb31 O47 2.153341 1_554
