# generated using pymatgen
data_Fe2CuO4
_symmetry_space_group_name_H-M   'P 1'
_cell_length_a   6.06659277
_cell_length_b   6.06659252
_cell_length_c   23.59771934
_cell_angle_alpha   61.00515205
_cell_angle_beta   61.00515323
_cell_angle_gamma   58.81938126
_symmetry_Int_Tables_number   1
_chemical_formula_structural   Fe2CuO4
_chemical_formula_sum   'Fe16 Cu8 O32'
_cell_volume   617.36575348
_cell_formula_units_Z   8
loop_
 _symmetry_equiv_pos_site_id
 _symmetry_equiv_pos_as_xyz
  1  'x, y, z'
loop_
 _atom_site_type_symbol
 _atom_site_label
 _atom_site_symmetry_multiplicity
 _atom_site_fract_x
 _atom_site_fract_y
 _atom_site_fract_z
 _atom_site_occupancy
  Fe  Fe0  1  0.99948300  0.99948300  0.00080400  1
  Fe  Fe1  1  0.00819700  0.00819700  0.24791200  1
  Fe  Fe2  1  0.13001000  0.62113800  0.15682600  1
  Fe  Fe3  1  0.61912000  0.61912000  0.03475400  1
  Fe  Fe4  1  0.01967000  0.01967000  0.49419400  1
  Fe  Fe5  1  0.62113800  0.13001000  0.15682600  1
  Fe  Fe6  1  0.13166100  0.63411100  0.40504000  1
  Fe  Fe7  1  0.01174100  0.01174100  0.74742700  1
  Fe  Fe8  1  0.62721400  0.62721400  0.28140200  1
  Fe  Fe9  1  0.23597400  0.23597400  0.56617000  1
  Fe  Fe10  1  0.63411100  0.13166100  0.40504000  1
  Fe  Fe11  1  0.12746800  0.62651800  0.65505100  1
  Fe  Fe12  1  0.23274500  0.23274500  0.81517300  1
  Fe  Fe13  1  0.62651800  0.12746800  0.65505100  1
  Fe  Fe14  1  0.12291600  0.61407000  0.90670200  1
  Fe  Fe15  1  0.61407000  0.12291600  0.90670200  1
  Cu  Cu0  1  0.24377100  0.24377100  0.06402000  1
  Cu  Cu1  1  0.24633800  0.24633800  0.31502000  1
  Cu  Cu2  1  0.62022600  0.62022600  0.15745200  1
  Cu  Cu3  1  0.62999800  0.62999800  0.40408300  1
  Cu  Cu4  1  0.62757500  0.62757500  0.52961900  1
  Cu  Cu5  1  0.62519900  0.62519900  0.65684700  1
  Cu  Cu6  1  0.62255200  0.62255200  0.78181200  1
  Cu  Cu7  1  0.61715400  0.61715400  0.90749500  1
  O  O0  1  0.38638000  0.38638000  0.09525200  1
  O  O1  1  0.38031600  0.38031600  0.21334700  1
  O  O2  1  0.37286900  0.84168900  0.09848200  1
  O  O3  1  0.84168900  0.37286900  0.09848200  1
  O  O4  1  0.39856300  0.87636700  0.21656100  1
  O  O5  1  0.39535400  0.39535400  0.34355000  1
  O  O6  1  0.36265000  0.36265000  0.46865900  1
  O  O7  1  0.39125400  0.84672200  0.34734700  1
  O  O8  1  0.87084700  0.87084700  0.09854600  1
  O  O9  1  0.87636700  0.39856300  0.21656100  1
  O  O10  1  0.84672200  0.39125400  0.34734700  1
  O  O11  1  0.86531600  0.86531600  0.21946900  1
  O  O12  1  0.41711600  0.87696700  0.46157000  1
  O  O13  1  0.35889400  0.35889400  0.60165500  1
  O  O14  1  0.36267600  0.36267600  0.71729700  1
  O  O15  1  0.38227000  0.83965000  0.59642800  1
  O  O16  1  0.89483400  0.89483400  0.34397100  1
  O  O17  1  0.87696700  0.41711600  0.46157000  1
  O  O18  1  0.83965000  0.38227000  0.59642800  1
  O  O19  1  0.89577100  0.89577100  0.45984500  1
  O  O20  1  0.40671000  0.86744400  0.71606500  1
  O  O21  1  0.35754400  0.35754400  0.85071900  1
  O  O22  1  0.37229400  0.37229400  0.96300200  1
  O  O23  1  0.37121100  0.84038900  0.84753600  1
  O  O24  1  0.88944500  0.88944500  0.59333700  1
  O  O25  1  0.86744400  0.40671000  0.71606500  1
  O  O26  1  0.88761400  0.88761400  0.71131400  1
  O  O27  1  0.84038900  0.37121100  0.84753600  1
  O  O28  1  0.39477300  0.86457500  0.96737600  1
  O  O29  1  0.86457500  0.39477300  0.96737600  1
  O  O30  1  0.87632800  0.87632800  0.84668100  1
  O  O31  1  0.86032100  0.86032100  0.96920400  1
loop_
_geom_bond_atom_site_label_1
_geom_bond_atom_site_label_2
_geom_bond_distance
_geom_bond_site_symmetry_2
Fe0 O8 1.917950 1_555
Fe0 O29 1.950001 1_564
Fe0 O28 1.950002 1_654
Fe0 O31 1.984989 1_554
Fe1 O16 1.884493 1_445
Fe1 O9 1.925924 1_455
Fe1 O4 1.925924 1_545
Fe1 O11 1.964491 1_445
Fe2 O1 1.999106 1_555
Fe2 O0 2.019943 1_555
Fe2 O2 2.036002 1_555
Fe2 O8 2.066011 1_455
Fe2 O11 2.077646 1_455
Fe2 O9 2.093177 1_455
Fe3 O3 2.004562 1_555
Fe3 O2 2.004562 1_555
Fe3 O0 2.044804 1_555
Fe3 O28 2.074073 1_554
Fe3 O29 2.074073 1_554
Fe3 O31 2.122143 1_554
Fe4 O19 1.885006 1_445
Fe4 O24 1.945336 1_445
Fe4 O17 1.959825 1_455
Fe4 O12 1.959825 1_545
Fe5 O1 1.999106 1_555
Fe5 O0 2.019943 1_555
Fe5 O3 2.036002 1_555
Fe5 O8 2.066011 1_545
Fe5 O11 2.077646 1_545
Fe5 O4 2.093177 1_545
Fe6 O19 2.020902 1_455
Fe6 O16 2.021654 1_455
Fe6 O5 2.037265 1_555
Fe6 O6 2.045143 1_555
Fe6 O17 2.074944 1_455
Fe6 O7 2.078380 1_555
Fe7 O26 1.921388 1_445
Fe7 O25 1.947399 1_455
Fe7 O20 1.947399 1_545
Fe7 O30 1.950285 1_445
Fe8 O10 2.029684 1_555
Fe8 O7 2.029684 1_555
Fe8 O5 2.038829 1_555
Fe8 O4 2.048038 1_555
Fe8 O9 2.048038 1_555
Fe8 O11 2.091941 1_555
Fe9 O13 1.897329 1_555
Fe9 O6 1.912801 1_555
Fe9 O15 1.954172 1_545
Fe9 O18 1.954172 1_455
Fe10 O19 2.020902 1_545
Fe10 O16 2.021654 1_545
Fe10 O5 2.037265 1_555
Fe10 O6 2.045143 1_555
Fe10 O12 2.074944 1_545
Fe10 O10 2.078380 1_555
Fe11 O13 2.025513 1_555
Fe11 O14 2.035508 1_555
Fe11 O24 2.037625 1_455
Fe11 O26 2.041632 1_455
Fe11 O15 2.058493 1_555
Fe11 O25 2.110578 1_455
Fe12 O21 1.917000 1_555
Fe12 O14 1.921085 1_555
Fe12 O23 1.934881 1_545
Fe12 O27 1.934881 1_455
Fe13 O13 2.025513 1_555
Fe13 O14 2.035508 1_555
Fe13 O24 2.037625 1_545
Fe13 O26 2.041632 1_545
Fe13 O18 2.058493 1_555
Fe13 O20 2.110578 1_545
Fe14 O22 1.991701 1_555
Fe14 O21 2.017318 1_555
Fe14 O30 2.044558 1_455
Fe14 O31 2.082990 1_455
Fe14 O23 2.085094 1_555
Fe14 O29 2.100744 1_455
Fe15 O22 1.991701 1_555
Fe15 O21 2.017318 1_555
Fe15 O30 2.044558 1_545
Fe15 O31 2.082990 1_545
Fe15 O27 2.085094 1_555
Fe15 O28 2.100744 1_545
Cu0 O22 1.980926 1_554
Cu0 O2 1.985178 1_545
Cu0 O3 1.985178 1_455
Cu0 O0 2.012829 1_555
Cu1 O7 1.970392 1_545
Cu1 O10 1.970392 1_455
Cu1 O1 1.995157 1_555
Cu1 O5 2.028319 1_555
Cu2 O3 2.029193 1_555
Cu2 O2 2.029193 1_555
Cu2 O4 2.070659 1_555
Cu2 O9 2.070659 1_555
Cu2 O1 2.108934 1_555
Cu2 O8 2.202592 1_555
Cu3 O10 1.954596 1_555
Cu3 O7 1.954596 1_555
Cu3 O12 2.005317 1_555
Cu3 O17 2.005317 1_555
Cu3 O16 2.329985 1_555
Cu3 O6 2.348392 1_555
Cu4 O18 2.016114 1_555
Cu4 O15 2.016114 1_555
Cu4 O12 2.032206 1_555
Cu4 O17 2.032206 1_555
Cu4 O19 2.356353 1_555
Cu4 O13 2.362631 1_555
Cu5 O20 2.011864 1_555
Cu5 O25 2.011864 1_555
Cu5 O18 2.037332 1_555
Cu5 O15 2.037332 1_555
Cu5 O14 2.308509 1_555
Cu5 O24 2.321311 1_555
Cu6 O20 2.012317 1_555
Cu6 O25 2.012317 1_555
Cu6 O27 2.021056 1_555
Cu6 O23 2.021056 1_555
Cu6 O21 2.328318 1_555
Cu6 O26 2.330167 1_555
Cu7 O27 2.039318 1_555
Cu7 O23 2.039318 1_555
Cu7 O28 2.044763 1_555
Cu7 O29 2.044763 1_555
Cu7 O22 2.154340 1_555
Cu7 O30 2.277853 1_555
