# generated using pymatgen
data_InSb
_symmetry_space_group_name_H-M   'P 1'
_cell_length_a   9.06536444
_cell_length_b   9.06536444
_cell_length_c   9.06536444
_cell_angle_alpha   139.18841012
_cell_angle_beta   99.57072326
_cell_angle_gamma   94.40880380
_symmetry_Int_Tables_number   1
_chemical_formula_structural   InSb
_chemical_formula_sum   'In8 Sb8'
_cell_volume   455.76544895
_cell_formula_units_Z   8
loop_
 _symmetry_equiv_pos_site_id
 _symmetry_equiv_pos_as_xyz
  1  'x, y, z'
loop_
 _atom_site_type_symbol
 _atom_site_label
 _atom_site_symmetry_multiplicity
 _atom_site_fract_x
 _atom_site_fract_y
 _atom_site_fract_z
 _atom_site_occupancy
  In  In0_0  1  0.25000000  0.29883050  0.04883050  1
  In  In0_1  1  0.25000000  0.29883050  0.54883050  1
  In  In0_2  1  0.25000000  0.79883050  0.04883050  1
  In  In0_3  1  0.25000000  0.79883050  0.54883050  1
  In  In0_4  1  0.75000000  0.29883050  0.04883050  1
  In  In0_5  1  0.75000000  0.29883050  0.54883050  1
  In  In0_6  1  0.75000000  0.79883050  0.04883050  1
  In  In0_7  1  0.75000000  0.79883050  0.54883050  1
  Sb  Sb0_0  1  0.00000000  0.07575650  0.07575650  1
  Sb  Sb0_1  1  0.00000000  0.07575650  0.57575650  1
  Sb  Sb0_2  1  0.00000000  0.57575650  0.07575650  1
  Sb  Sb0_3  1  0.00000000  0.57575650  0.57575650  1
  Sb  Sb0_4  1  0.50000000  0.07575650  0.07575650  1
  Sb  Sb0_5  1  0.50000000  0.07575650  0.57575650  1
  Sb  Sb0_6  1  0.50000000  0.57575650  0.07575650  1
  Sb  Sb0_7  1  0.50000000  0.57575650  0.57575650  1
loop_
_geom_bond_atom_site_label_1
_geom_bond_atom_site_label_2
_geom_bond_distance
_geom_bond_site_symmetry_2
In0_0 Sb0_0 3.084137 1_555
In0_0 Sb0_6 3.084137 1_555
In0_0 In0_3 3.160792 1_544
In0_0 In0_3 3.160792 1_555
In0_0 Sb0_1 3.248575 1_554
In0_0 Sb0_4 3.248575 1_555
In0_0 Sb0_2 3.410171 1_555
In0_0 Sb0_7 3.410171 1_555
In0_1 Sb0_7 3.084137 1_555
In0_1 Sb0_1 3.084137 1_555
In0_1 In0_2 3.160792 1_556
In0_1 In0_2 3.160792 1_545
In0_1 Sb0_5 3.248575 1_555
In0_1 Sb0_0 3.248575 1_555
In0_1 Sb0_3 3.410171 1_555
In0_1 Sb0_6 3.410171 1_556
In0_2 Sb0_2 3.084137 1_555
In0_2 Sb0_4 3.084137 1_565
In0_2 Sb0_3 3.248575 1_554
In0_2 Sb0_6 3.248575 1_555
In0_2 Sb0_5 3.410171 1_565
In0_2 Sb0_0 3.410171 1_565
In0_3 Sb0_3 3.084137 1_555
In0_3 Sb0_5 3.084137 1_565
In0_3 Sb0_7 3.248575 1_555
In0_3 Sb0_2 3.248575 1_555
In0_3 Sb0_4 3.410171 1_566
In0_3 Sb0_1 3.410171 1_565
In0_4 Sb0_4 3.084137 1_555
In0_4 Sb0_2 3.084137 1_655
In0_4 In0_7 3.160792 1_555
In0_4 In0_7 3.160792 1_544
In0_4 Sb0_5 3.248575 1_554
In0_4 Sb0_0 3.248575 1_655
In0_4 Sb0_6 3.410171 1_555
In0_4 Sb0_3 3.410171 1_655
In0_5 Sb0_3 3.084137 1_655
In0_5 Sb0_5 3.084137 1_555
In0_5 In0_6 3.160792 1_545
In0_5 In0_6 3.160792 1_556
In0_5 Sb0_1 3.248575 1_655
In0_5 Sb0_4 3.248575 1_555
In0_5 Sb0_2 3.410171 1_656
In0_5 Sb0_7 3.410171 1_555
In0_6 Sb0_6 3.084137 1_555
In0_6 Sb0_0 3.084137 1_665
In0_6 Sb0_2 3.248575 1_655
In0_6 Sb0_7 3.248575 1_554
In0_6 Sb0_1 3.410171 1_665
In0_6 Sb0_4 3.410171 1_565
In0_7 Sb0_7 3.084137 1_555
In0_7 Sb0_1 3.084137 1_665
In0_7 Sb0_3 3.248575 1_655
In0_7 Sb0_6 3.248575 1_555
In0_7 Sb0_0 3.410171 1_666
In0_7 Sb0_5 3.410171 1_565
Sb0_0 Sb0_3 3.160792 1_544
Sb0_0 Sb0_3 3.160792 1_555
Sb0_1 Sb0_2 3.160792 1_556
Sb0_1 Sb0_2 3.160792 1_545
Sb0_4 Sb0_7 3.160792 1_544
Sb0_4 Sb0_7 3.160792 1_555
Sb0_5 Sb0_6 3.160792 1_545
Sb0_5 Sb0_6 3.160792 1_556
