# generated using pymatgen
data_Ba5SrNd2Fe4O15
_symmetry_space_group_name_H-M   'P 1'
_cell_length_a   11.89981940
_cell_length_b   11.89981940
_cell_length_c   14.24861108
_cell_angle_alpha   89.77673073
_cell_angle_beta   89.77673073
_cell_angle_gamma   59.88792911
_symmetry_Int_Tables_number   1
_chemical_formula_structural   Ba5SrNd2Fe4O15
_chemical_formula_sum   'Ba20 Sr4 Nd8 Fe16 O60'
_cell_volume   1745.37180265
_cell_formula_units_Z   4
loop_
 _symmetry_equiv_pos_site_id
 _symmetry_equiv_pos_as_xyz
  1  'x, y, z'
loop_
 _atom_site_type_symbol
 _atom_site_label
 _atom_site_symmetry_multiplicity
 _atom_site_fract_x
 _atom_site_fract_y
 _atom_site_fract_z
 _atom_site_occupancy
  Ba  Ba0  1  0.00137600  0.00069200  0.50320700  1
  Ba  Ba1  1  0.00118100  0.99890000  0.25334600  1
  Ba  Ba2  1  0.17281400  0.17537000  0.91854800  1
  Ba  Ba3  1  0.17537000  0.17281400  0.41854800  1
  Ba  Ba4  1  0.00069200  0.00137600  0.00320700  1
  Ba  Ba5  1  0.17496200  0.65147000  0.91912000  1
  Ba  Ba6  1  0.17624100  0.65168900  0.41527200  1
  Ba  Ba7  1  0.33351600  0.33501300  0.25978300  1
  Ba  Ba8  1  0.33501300  0.33351600  0.75978300  1
  Ba  Ba9  1  0.65168900  0.17624100  0.91527200  1
  Ba  Ba10  1  0.65147000  0.17496200  0.41912000  1
  Ba  Ba11  1  0.34868500  0.82547900  0.66820500  1
  Ba  Ba12  1  0.34875600  0.82286900  0.16780800  1
  Ba  Ba13  1  0.82286900  0.34875600  0.66780800  1
  Ba  Ba14  1  0.82547900  0.34868500  0.16820500  1
  Ba  Ba15  1  0.99890000  0.00118100  0.75334600  1
  Ba  Ba16  1  0.66464700  0.66907300  0.50889700  1
  Ba  Ba17  1  0.66907300  0.66464700  0.00889700  1
  Ba  Ba18  1  0.82292600  0.82864300  0.66561000  1
  Ba  Ba19  1  0.82864300  0.82292600  0.16561000  1
  Sr  Sr0  1  0.04399700  0.47694500  0.08156600  1
  Sr  Sr1  1  0.47694500  0.04399700  0.58156600  1
  Sr  Sr2  1  0.52045600  0.52273100  0.83219800  1
  Sr  Sr3  1  0.52273100  0.52045600  0.33219800  1
  Nd  Nd0  1  0.04265400  0.47854300  0.58123900  1
  Nd  Nd1  1  0.47854300  0.04265400  0.08123900  1
  Nd  Nd2  1  0.47726700  0.47904400  0.58269700  1
  Nd  Nd3  1  0.47904400  0.47726700  0.08269700  1
  Nd  Nd4  1  0.52119000  0.95694900  0.83033300  1
  Nd  Nd5  1  0.52223600  0.95620200  0.33346400  1
  Nd  Nd6  1  0.95620200  0.52223600  0.83346400  1
  Nd  Nd7  1  0.95694900  0.52119000  0.33033300  1
  Fe  Fe0  1  0.17989300  0.18102300  0.67153000  1
  Fe  Fe1  1  0.18102300  0.17989300  0.17153000  1
  Fe  Fe2  1  0.33214500  0.33233800  0.98694300  1
  Fe  Fe3  1  0.33233800  0.33214500  0.48694300  1
  Fe  Fe4  1  0.17820100  0.63944100  0.16852000  1
  Fe  Fe5  1  0.17568100  0.64268000  0.66801900  1
  Fe  Fe6  1  0.63944100  0.17820100  0.66852000  1
  Fe  Fe7  1  0.64268000  0.17568100  0.16801900  1
  Fe  Fe8  1  0.36024400  0.81995000  0.92115400  1
  Fe  Fe9  1  0.36005200  0.81848300  0.41855600  1
  Fe  Fe10  1  0.66690700  0.66523500  0.73609300  1
  Fe  Fe11  1  0.66523500  0.66690700  0.23609300  1
  Fe  Fe12  1  0.81995000  0.36024400  0.42115400  1
  Fe  Fe13  1  0.81848300  0.36005200  0.91855600  1
  Fe  Fe14  1  0.81937600  0.82259500  0.91765200  1
  Fe  Fe15  1  0.82259500  0.81937600  0.41765200  1
  O  O0  1  0.09771300  0.09668800  0.62107400  1
  O  O1  1  0.09668800  0.09771300  0.12107400  1
  O  O2  1  0.06275300  0.33510800  0.73687200  1
  O  O3  1  0.06848800  0.32770600  0.24261700  1
  O  O4  1  0.33510800  0.06275300  0.23687200  1
  O  O5  1  0.32770600  0.06848800  0.74261700  1
  O  O6  1  0.06101100  0.60343900  0.73481700  1
  O  O7  1  0.06496200  0.60634600  0.24219800  1
  O  O8  1  0.24117500  0.25679300  0.57942400  1
  O  O9  1  0.25679300  0.24117500  0.07942400  1
  O  O10  1  0.17012200  0.41375000  0.91082700  1
  O  O11  1  0.16344900  0.41737700  0.41651700  1
  O  O12  1  0.08999500  0.81112000  0.62157500  1
  O  O13  1  0.09194100  0.80691500  0.11813800  1
  O  O14  1  0.41737700  0.16344900  0.91651700  1
  O  O15  1  0.25535900  0.49884300  0.07929700  1
  O  O16  1  0.24365800  0.50425900  0.57778100  1
  O  O17  1  0.41375000  0.17012200  0.41082700  1
  O  O18  1  0.41595500  0.41411400  0.91894200  1
  O  O19  1  0.41411400  0.41595500  0.41894200  1
  O  O20  1  0.50425900  0.24365800  0.07778100  1
  O  O21  1  0.49884300  0.25535900  0.57929700  1
  O  O22  1  0.33067000  0.60247600  0.72907500  1
  O  O23  1  0.33036700  0.60433000  0.23160600  1
  O  O24  1  0.19386600  0.90164200  0.86987700  1
  O  O25  1  0.19324700  0.89991700  0.36942600  1
  O  O26  1  0.60343900  0.06101100  0.23481700  1
  O  O27  1  0.60634600  0.06496200  0.74219800  1
  O  O28  1  0.39356200  0.67202700  0.99303900  1
  O  O29  1  0.39495900  0.66974100  0.49197100  1
  O  O30  1  0.60247600  0.33067000  0.22907500  1
  O  O31  1  0.60433000  0.33036700  0.73160600  1
  O  O32  1  0.39748700  0.93538900  0.98715200  1
  O  O33  1  0.39751300  0.93396300  0.47944000  1
  O  O34  1  0.80691500  0.09194100  0.61813800  1
  O  O35  1  0.81112000  0.08999500  0.12157500  1
  O  O36  1  0.66974100  0.39495900  0.99197100  1
  O  O37  1  0.67202700  0.39356200  0.49303900  1
  O  O38  1  0.49764200  0.75779700  0.82947200  1
  O  O39  1  0.50165000  0.75430400  0.32744700  1
  O  O40  1  0.58462200  0.58530900  0.16138800  1
  O  O41  1  0.58530900  0.58462200  0.66138800  1
  O  O42  1  0.58240800  0.83572900  0.16535800  1
  O  O43  1  0.58547900  0.83049800  0.66817000  1
  O  O44  1  0.89991700  0.19324700  0.86942600  1
  O  O45  1  0.90164200  0.19386600  0.36987700  1
  O  O46  1  0.75430400  0.50165000  0.82744700  1
  O  O47  1  0.75779700  0.49764200  0.32947200  1
  O  O48  1  0.83049800  0.58547900  0.16817000  1
  O  O49  1  0.83572900  0.58240800  0.66535800  1
  O  O50  1  0.75093800  0.75289200  0.82662500  1
  O  O51  1  0.75289200  0.75093800  0.32662500  1
  O  O52  1  0.93396300  0.39751300  0.97944000  1
  O  O53  1  0.93538900  0.39748700  0.48715200  1
  O  O54  1  0.66419800  0.93524800  0.98392800  1
  O  O55  1  0.66851400  0.93444900  0.47867800  1
  O  O56  1  0.93444900  0.66851400  0.97867800  1
  O  O57  1  0.93524800  0.66419800  0.48392800  1
  O  O58  1  0.90363500  0.90773000  0.87201100  1
  O  O59  1  0.90773000  0.90363500  0.37201100  1
loop_
_geom_bond_atom_site_label_1
_geom_bond_atom_site_label_2
_geom_bond_distance
_geom_bond_site_symmetry_2
Ba0 O12 2.577365 1_545
Ba0 O34 2.584330 1_455
Ba0 O0 2.604539 1_555
Ba0 O59 2.719327 1_445
Ba0 O25 2.742512 1_545
Ba0 O45 2.747355 1_455
Ba1 O59 2.572152 1_455
Ba1 O25 2.580668 1_555
Ba1 O45 2.607670 1_465
Ba1 O35 2.715284 1_465
Ba1 O1 2.744688 1_565
Ba1 O13 2.763985 1_555
Ba2 O9 2.771887 1_556
Ba2 O10 2.822462 1_555
Ba2 O14 2.841775 1_555
Ba2 O52 2.877323 1_455
Ba2 O32 2.931973 1_545
Ba2 O5 2.989232 1_555
Ba2 O2 3.085396 1_555
Ba2 O24 3.217338 1_545
Ba2 O44 3.225569 1_455
Ba2 O1 3.286450 1_556
Ba3 O8 2.771887 1_555
Ba3 O17 2.822462 1_555
Ba3 O11 2.841775 1_555
Ba3 O33 2.877323 1_545
Ba3 O53 2.931973 1_455
Ba3 O3 2.989232 1_555
Ba3 O4 3.085396 1_555
Ba3 O45 3.217338 1_455
Ba3 O25 3.225569 1_545
Ba3 O0 3.286450 1_555
Ba4 O35 2.577365 1_455
Ba4 O13 2.584330 1_545
Ba4 O1 2.604539 1_555
Ba4 O58 2.719327 1_444
Ba4 O44 2.742512 1_454
Ba4 O24 2.747355 1_544
Ba5 O15 2.768413 1_556
Ba5 O18 2.841559 1_555
Ba5 O10 2.861061 1_555
Ba5 O56 2.890095 1_455
Ba5 O28 2.932198 1_555
Ba5 O6 3.143042 1_555
Ba5 O22 3.161488 1_555
Ba5 O24 3.171734 1_555
Ba5 O58 3.208767 1_455
Ba5 O13 3.259514 1_556
Ba6 O16 2.766541 1_555
Ba6 O19 2.813718 1_555
Ba6 O11 2.867648 1_555
Ba6 O29 2.932497 1_555
Ba6 O57 2.958750 1_455
Ba6 O7 2.979742 1_555
Ba6 O23 3.076850 1_555
Ba6 O25 3.126778 1_555
Ba6 O59 3.157054 1_455
Ba6 O12 3.370425 1_555
Ba7 O17 2.738041 1_555
Ba7 O19 2.819826 1_555
Ba7 O11 2.834646 1_555
Ba7 O15 3.072375 1_555
Ba7 O9 3.122223 1_555
Ba7 O20 3.130458 1_555
Ba7 O30 3.203294 1_555
Ba7 O3 3.208595 1_555
Ba7 O23 3.209841 1_555
Ba7 O7 3.216727 1_555
Ba7 O4 3.248097 1_555
Ba7 O26 3.250639 1_555
Ba8 O10 2.738041 1_555
Ba8 O18 2.819826 1_555
Ba8 O14 2.834646 1_555
Ba8 O21 3.072375 1_555
Ba8 O8 3.122223 1_555
Ba8 O16 3.130458 1_555
Ba8 O22 3.203294 1_555
Ba8 O5 3.208595 1_555
Ba8 O31 3.209841 1_555
Ba8 O27 3.216727 1_555
Ba8 O2 3.248097 1_555
Ba8 O6 3.250639 1_555
Ba9 O20 2.766541 1_556
Ba9 O18 2.813718 1_555
Ba9 O14 2.867648 1_555
Ba9 O36 2.932497 1_555
Ba9 O54 2.958750 1_545
Ba9 O27 2.979742 1_555
Ba9 O31 3.076850 1_555
Ba9 O44 3.126778 1_555
Ba9 O58 3.157054 1_545
Ba9 O35 3.370425 1_556
Ba10 O21 2.768413 1_555
Ba10 O19 2.841559 1_555
Ba10 O17 2.861061 1_555
Ba10 O55 2.890095 1_545
Ba10 O37 2.932198 1_555
Ba10 O26 3.143042 1_555
Ba10 O30 3.161488 1_555
Ba10 O45 3.171734 1_555
Ba10 O59 3.208767 1_545
Ba10 O34 3.259514 1_555
Ba11 O38 2.766864 1_555
Ba11 O41 2.838160 1_555
Ba11 O43 2.848236 1_555
Ba11 O22 2.896846 1_555
Ba11 O5 2.974266 1_565
Ba11 O29 3.007470 1_555
Ba11 O33 3.154630 1_555
Ba11 O0 3.180187 1_565
Ba11 O12 3.239070 1_555
Ba11 O24 3.282754 1_555
Ba12 O39 2.770959 1_555
Ba12 O40 2.813613 1_555
Ba12 O42 2.860330 1_555
Ba12 O23 2.861510 1_555
Ba12 O4 2.949379 1_565
Ba12 O28 2.961696 1_554
Ba12 O32 3.081505 1_554
Ba12 O1 3.208209 1_565
Ba12 O13 3.236732 1_555
Ba12 O25 3.285515 1_555
Ba13 O46 2.770959 1_555
Ba13 O41 2.813613 1_555
Ba13 O49 2.860330 1_555
Ba13 O31 2.861510 1_555
Ba13 O2 2.949379 1_655
Ba13 O37 2.961696 1_555
Ba13 O53 3.081505 1_555
Ba13 O0 3.208209 1_655
Ba13 O34 3.236732 1_555
Ba13 O44 3.285515 1_555
Ba14 O47 2.766864 1_555
Ba14 O40 2.838160 1_555
Ba14 O48 2.848236 1_555
Ba14 O30 2.896846 1_555
Ba14 O3 2.974266 1_655
Ba14 O36 3.007470 1_554
Ba14 O52 3.154630 1_554
Ba14 O1 3.180187 1_655
Ba14 O35 3.239070 1_555
Ba14 O45 3.282754 1_555
Ba15 O58 2.572152 1_545
Ba15 O44 2.580668 1_555
Ba15 O24 2.607670 1_645
Ba15 O12 2.715284 1_645
Ba15 O0 2.744688 1_655
Ba15 O34 2.763985 1_555
Ba16 O41 2.746134 1_555
Ba16 O43 2.815894 1_555
Ba16 O49 2.844122 1_555
Ba16 O39 3.085440 1_555
Ba16 O47 3.110612 1_555
Ba16 O51 3.127660 1_555
Ba16 O33 3.187980 1_555
Ba16 O55 3.208594 1_555
Ba16 O57 3.209798 1_555
Ba16 O29 3.215254 1_555
Ba16 O53 3.236217 1_555
Ba16 O37 3.244111 1_555
Ba17 O40 2.746134 1_555
Ba17 O48 2.815894 1_555
Ba17 O42 2.844122 1_555
Ba17 O46 3.085440 1_554
Ba17 O38 3.110612 1_554
Ba17 O50 3.127660 1_554
Ba17 O52 3.187980 1_554
Ba17 O56 3.208594 1_554
Ba17 O54 3.209798 1_554
Ba17 O36 3.215254 1_554
Ba17 O32 3.236217 1_554
Ba17 O28 3.244111 1_554
Ba18 O50 2.748330 1_555
Ba18 O43 2.814662 1_555
Ba18 O49 2.856775 1_555
Ba18 O27 2.910527 1_565
Ba18 O6 2.926420 1_655
Ba18 O34 3.113883 1_565
Ba18 O57 3.115348 1_555
Ba18 O55 3.121952 1_555
Ba18 O12 3.139721 1_655
Ba18 O58 3.377528 1_555
Ba19 O51 2.748330 1_555
Ba19 O48 2.814662 1_555
Ba19 O42 2.856775 1_555
Ba19 O7 2.910527 1_655
Ba19 O26 2.926420 1_565
Ba19 O13 3.113883 1_655
Ba19 O54 3.115348 1_554
Ba19 O56 3.121952 1_554
Ba19 O35 3.139721 1_565
Ba19 O59 3.377528 1_555
Nd0 O57 2.365081 1_455
Nd0 O53 2.369736 1_455
Nd0 O49 2.441783 1_455
Nd0 O8 2.507947 1_555
Nd0 O16 2.559437 1_555
Nd0 O11 2.653662 1_555
Nd0 O6 2.720294 1_555
Nd0 O2 2.730038 1_555
Nd1 O54 2.365081 1_544
Nd1 O32 2.369736 1_544
Nd1 O42 2.441783 1_545
Nd1 O9 2.507947 1_555
Nd1 O20 2.559437 1_555
Nd1 O14 2.653662 1_554
Nd1 O26 2.720294 1_555
Nd1 O4 2.730038 1_555
Nd2 O29 2.353049 1_555
Nd2 O37 2.378994 1_555
Nd2 O41 2.476196 1_555
Nd2 O21 2.543360 1_555
Nd2 O22 2.641065 1_555
Nd2 O16 2.643335 1_555
Nd2 O19 2.676941 1_555
Nd2 O31 2.688824 1_555
Nd3 O36 2.353049 1_554
Nd3 O28 2.378994 1_554
Nd3 O40 2.476196 1_555
Nd3 O15 2.543360 1_555
Nd3 O30 2.641065 1_555
Nd3 O20 2.643335 1_555
Nd3 O18 2.676941 1_554
Nd3 O23 2.688824 1_555
Nd4 O27 2.353801 1_565
Nd4 O5 2.359683 1_565
Nd4 O14 2.457283 1_565
Nd4 O38 2.522211 1_555
Nd4 O50 2.590823 1_555
Nd4 O43 2.654550 1_555
Nd4 O54 2.708501 1_555
Nd4 O32 2.752155 1_555
Nd5 O4 2.374396 1_565
Nd5 O26 2.376960 1_565
Nd5 O17 2.464787 1_565
Nd5 O39 2.536123 1_555
Nd5 O51 2.604274 1_555
Nd5 O55 2.636272 1_555
Nd5 O33 2.639090 1_555
Nd5 O42 2.699758 1_555
Nd6 O2 2.374396 1_655
Nd6 O6 2.376960 1_655
Nd6 O10 2.464787 1_655
Nd6 O46 2.536123 1_555
Nd6 O50 2.604274 1_555
Nd6 O56 2.636272 1_555
Nd6 O52 2.639090 1_555
Nd6 O49 2.699758 1_555
Nd7 O7 2.353801 1_655
Nd7 O3 2.359683 1_655
Nd7 O11 2.457283 1_655
Nd7 O47 2.522211 1_555
Nd7 O51 2.590823 1_555
Nd7 O48 2.654550 1_555
Nd7 O57 2.708501 1_555
Nd7 O53 2.752155 1_555
Fe0 O0 1.864457 1_555
Fe0 O5 1.884943 1_555
Fe0 O2 1.900146 1_555
Fe0 O8 1.926184 1_555
Fe1 O1 1.864457 1_555
Fe1 O3 1.884943 1_555
Fe1 O4 1.900146 1_555
Fe1 O9 1.926184 1_555
Fe2 O18 1.959425 1_555
Fe2 O10 1.991498 1_555
Fe2 O14 2.009290 1_555
Fe2 O9 2.161700 1_556
Fe2 O15 2.164896 1_556
Fe2 O20 2.196597 1_556
Fe3 O19 1.959425 1_555
Fe3 O17 1.991498 1_555
Fe3 O11 2.009290 1_555
Fe3 O8 2.161700 1_555
Fe3 O21 2.164896 1_555
Fe3 O16 2.196597 1_555
Fe4 O13 1.866194 1_555
Fe4 O23 1.874037 1_555
Fe4 O7 1.895061 1_555
Fe4 O15 1.929917 1_555
Fe5 O12 1.854580 1_555
Fe5 O22 1.873825 1_555
Fe5 O6 1.900448 1_555
Fe5 O16 1.921513 1_555
Fe6 O34 1.866194 1_555
Fe6 O31 1.874037 1_555
Fe6 O27 1.895061 1_555
Fe6 O21 1.929917 1_555
Fe7 O35 1.854580 1_555
Fe7 O30 1.873825 1_555
Fe7 O26 1.900448 1_555
Fe7 O20 1.921513 1_555
Fe8 O24 1.863669 1_555
Fe8 O32 1.895249 1_555
Fe8 O28 1.895695 1_555
Fe8 O38 1.924664 1_555
Fe9 O25 1.855975 1_555
Fe9 O33 1.861898 1_555
Fe9 O29 1.910741 1_555
Fe9 O39 1.951201 1_555
Fe10 O43 1.955382 1_555
Fe10 O41 1.986638 1_555
Fe10 O49 2.007072 1_555
Fe10 O46 2.127150 1_555
Fe10 O38 2.192039 1_555
Fe10 O50 2.195240 1_555
Fe11 O48 1.955382 1_555
Fe11 O40 1.986638 1_555
Fe11 O42 2.007072 1_555
Fe11 O39 2.127150 1_555
Fe11 O47 2.192039 1_555
Fe11 O51 2.195240 1_555
Fe12 O45 1.863669 1_555
Fe12 O53 1.895249 1_555
Fe12 O37 1.895695 1_555
Fe12 O47 1.924664 1_555
Fe13 O44 1.855975 1_555
Fe13 O52 1.861898 1_555
Fe13 O36 1.910741 1_555
Fe13 O46 1.951201 1_555
Fe14 O58 1.861082 1_555
Fe14 O56 1.862972 1_555
Fe14 O54 1.900315 1_555
Fe14 O50 1.930772 1_555
Fe15 O59 1.861082 1_555
Fe15 O55 1.862972 1_555
Fe15 O57 1.900315 1_555
Fe15 O51 1.930772 1_555
O3 Sr0 2.821141 1_555
O5 Sr1 2.821141 1_555
O7 Sr0 2.844166 1_555
O8 Sr1 2.675102 1_555
O9 Sr0 2.675102 1_555
O10 Sr0 2.754980 1_556
O15 Sr0 2.655552 1_555
O17 Sr1 2.754980 1_555
O18 Sr2 2.516542 1_555
O19 Sr3 2.516542 1_555
O21 Sr1 2.655552 1_555
O22 Sr2 2.454504 1_555
O23 Sr3 2.452029 1_555
O27 Sr1 2.844166 1_555
O28 Sr2 2.828709 1_555
O29 Sr3 2.818622 1_555
O30 Sr3 2.454504 1_555
O31 Sr2 2.452029 1_555
O33 Sr1 2.448027 1_565
O36 Sr2 2.818622 1_555
O37 Sr3 2.828709 1_555
O38 Sr2 2.671524 1_555
O39 Sr3 2.666351 1_555
O40 Sr3 2.757373 1_555
O41 Sr2 2.757373 1_555
O43 Sr1 2.518141 1_565
O46 Sr2 2.666351 1_555
O47 Sr3 2.671524 1_555
O48 Sr0 2.518141 1_655
O52 Sr0 2.448027 1_656
O55 Sr1 2.460154 1_565
O56 Sr0 2.460154 1_656
