# generated using pymatgen
data_PdC2ClO2
_symmetry_space_group_name_H-M   'P 1'
_cell_length_a   11.64754306
_cell_length_b   11.64754306
_cell_length_c   11.64754306
_cell_angle_alpha   100.14664368
_cell_angle_beta   100.14664368
_cell_angle_gamma   130.36568741
_symmetry_Int_Tables_number   1
_chemical_formula_structural   PdC2ClO2
_chemical_formula_sum   'Pd8 C16 Cl8 O16'
_cell_volume   1092.78628619
_cell_formula_units_Z   8
loop_
 _symmetry_equiv_pos_site_id
 _symmetry_equiv_pos_as_xyz
  1  'x, y, z'
loop_
 _atom_site_type_symbol
 _atom_site_label
 _atom_site_symmetry_multiplicity
 _atom_site_fract_x
 _atom_site_fract_y
 _atom_site_fract_z
 _atom_site_occupancy
  Pd  Pd0  1  0.77284500  0.39879600  0.08066900  1
  Pd  Pd1  1  0.94217700  0.06812700  0.41933100  1
  Pd  Pd2  1  0.47715500  0.05782300  0.12595000  1
  Pd  Pd3  1  0.60120400  0.68187300  0.37405000  1
  Pd  Pd4  1  0.30782300  0.22715500  0.62595000  1
  Pd  Pd5  1  0.93187300  0.35120400  0.87405000  1
  Pd  Pd6  1  0.64879600  0.52284500  0.58066900  1
  Pd  Pd7  1  0.31812700  0.69217700  0.91933100  1
  C  C0  1  0.25989000  0.25592700  0.77573900  1
  C  C1  1  0.48018800  0.48415100  0.22426100  1
  C  C2  1  0.50592700  0.00989000  0.27573900  1
  C  C3  1  0.01925300  0.11323500  0.28048900  1
  C  C4  1  0.76981200  0.49407300  0.50396300  1
  C  C5  1  0.73415100  0.23018800  0.72426100  1
  C  C6  1  0.88676500  0.16725400  0.90601800  1
  C  C7  1  0.99011000  0.26584900  0.49603700  1
  C  C8  1  0.51584900  0.74011000  0.99603700  1
  C  C9  1  0.74407300  0.51981200  0.00396300  1
  C  C10  1  0.36323500  0.76925300  0.78048900  1
  C  C11  1  0.26123600  0.98074700  0.09398200  1
  C  C12  1  0.83274600  0.73876400  0.71951100  1
  C  C13  1  0.41725400  0.63676500  0.40601800  1
  C  C14  1  0.98876400  0.58274600  0.21951100  1
  C  C15  1  0.23074700  0.01123600  0.59398200  1
  Cl  Cl0  1  0.20305900  0.54857500  0.06757900  1
  Cl  Cl1  1  0.48099500  0.13548000  0.93242100  1
  Cl  Cl2  1  0.04694100  0.61452000  0.84551600  1
  Cl  Cl3  1  0.79857500  0.95305900  0.56757900  1
  Cl  Cl4  1  0.86452000  0.79694100  0.34551600  1
  Cl  Cl5  1  0.38548000  0.23099500  0.43242100  1
  Cl  Cl6  1  0.45142500  0.51900500  0.65448400  1
  Cl  Cl7  1  0.76900500  0.20142500  0.15448400  1
  O  O0  1  0.74581400  0.60777300  0.97065200  1
  O  O1  1  0.39222600  0.36287900  0.13804100  1
  O  O2  1  0.61287900  0.14222700  0.63804100  1
  O  O3  1  0.22483800  0.25418600  0.86195900  1
  O  O4  1  0.07285700  0.17114200  0.21093200  1
  O  O5  1  0.02516200  0.38712100  0.52934800  1
  O  O6  1  0.85777300  0.49581400  0.47065200  1
  O  O7  1  0.11192500  0.71021000  0.28906800  1
  O  O8  1  0.42114200  0.82285700  0.71093200  1
  O  O9  1  0.82885800  0.03979000  0.90171500  1
  O  O10  1  0.28979000  0.57885800  0.40171500  1
  O  O11  1  0.13807500  0.92714300  0.09828500  1
  O  O12  1  0.17714300  0.88807500  0.59828500  1
  O  O13  1  0.63712100  0.77516200  0.02934800  1
  O  O14  1  0.50418600  0.97483800  0.36195900  1
  O  O15  1  0.96021000  0.86192500  0.78906800  1
loop_
_geom_bond_atom_site_label_1
_geom_bond_atom_site_label_2
_geom_bond_distance
_geom_bond_site_symmetry_2
C0 O3 1.147400 1_555
C0 Pd4 1.961489 1_555
C1 O1 1.147399 1_555
C1 Pd3 1.961492 1_555
C2 O14 1.147400 1_545
C2 Pd2 1.961489 1_555
C3 O4 1.151687 1_555
C3 Pd1 1.974118 1_455
C4 O6 1.147400 1_555
C4 Pd6 1.961485 1_555
C5 O2 1.147400 1_555
C5 Pd5 1.961492 1_555
C6 O9 1.151687 1_555
C6 Pd5 1.974118 1_555
C7 O5 1.147400 1_655
C7 Pd1 1.961492 1_555
C8 O13 1.147400 1_556
C8 Pd7 1.961492 1_555
C9 O0 1.147400 1_554
C9 Pd0 1.961485 1_555
C10 O8 1.151687 1_555
C10 Pd7 1.974118 1_555
C11 O11 1.151687 1_555
C11 Pd2 1.974129 1_565
C12 O15 1.151687 1_555
C12 Pd6 1.974123 1_555
C13 O10 1.151687 1_555
C13 Pd3 1.974118 1_555
C14 O7 1.151687 1_655
C14 Pd0 1.974123 1_555
C15 O12 1.151687 1_545
C15 Pd4 1.974129 1_555
Cl0 Pd7 2.550435 1_554
Cl0 Pd5 2.569586 1_454
Cl1 Pd0 2.550435 1_556
Cl1 Pd2 2.569587 1_556
Cl2 Pd5 2.550435 1_455
Cl2 Pd7 2.569586 1_555
Cl3 Pd1 2.550435 1_565
Cl3 Pd3 2.569586 1_555
Cl4 Pd3 2.550435 1_555
Cl4 Pd1 2.569586 1_565
Cl5 Pd6 2.550435 1_555
Cl5 Pd4 2.569587 1_555
Cl6 Pd4 2.550435 1_555
Cl6 Pd6 2.569597 1_555
Cl7 Pd2 2.550435 1_555
Cl7 Pd0 2.569597 1_555
