# generated using pymatgen
data_K4Pb9
_symmetry_space_group_name_H-M   'P 1'
_cell_length_a   13.46873400
_cell_length_b   9.82548300
_cell_length_c   16.20051711
_cell_angle_alpha   76.80567477
_cell_angle_beta   90.00000000
_cell_angle_gamma   90.00000000
_symmetry_Int_Tables_number   1
_chemical_formula_structural   K4Pb9
_chemical_formula_sum   'K16 Pb36'
_cell_volume   2087.32849853
_cell_formula_units_Z   4
loop_
 _symmetry_equiv_pos_site_id
 _symmetry_equiv_pos_as_xyz
  1  'x, y, z'
loop_
 _atom_site_type_symbol
 _atom_site_label
 _atom_site_symmetry_multiplicity
 _atom_site_fract_x
 _atom_site_fract_y
 _atom_site_fract_z
 _atom_site_occupancy
  K  K0  1  0.92679400  0.38112700  0.78709400  1
  K  K1  1  0.75000000  0.73907700  0.56792300  1
  K  K2  1  0.57320600  0.38112700  0.78709400  1
  K  K3  1  0.25000000  0.26092300  0.43207700  1
  K  K4  1  0.00319200  0.05232600  0.62978700  1
  K  K5  1  0.99680800  0.94767400  0.37021300  1
  K  K6  1  0.40247000  0.67526700  0.90901200  1
  K  K7  1  0.09753000  0.67526700  0.90901200  1
  K  K8  1  0.49680800  0.05232600  0.62978700  1
  K  K9  1  0.50319200  0.94767400  0.37021300  1
  K  K10  1  0.90247000  0.32473300  0.09098800  1
  K  K11  1  0.07320600  0.61887300  0.21290600  1
  K  K12  1  0.42679400  0.61887300  0.21290600  1
  K  K13  1  0.75000000  0.88569300  0.20297200  1
  K  K14  1  0.59753000  0.32473300  0.09098800  1
  K  K15  1  0.25000000  0.11430700  0.79702800  1
  Pb  Pb0  1  0.75000000  0.06652000  0.75356900  1
  Pb  Pb1  1  0.75000000  0.13128600  0.50619600  1
  Pb  Pb2  1  0.25000000  0.86871400  0.49380400  1
  Pb  Pb3  1  0.56243200  0.30820800  0.37697700  1
  Pb  Pb4  1  0.86808400  0.75368200  0.02905000  1
  Pb  Pb5  1  0.75000000  0.49724200  0.23922600  1
  Pb  Pb6  1  0.43756800  0.69179200  0.62302300  1
  Pb  Pb7  1  0.63287300  0.76635700  0.78177900  1
  Pb  Pb8  1  0.13191600  0.24631800  0.97095000  1
  Pb  Pb9  1  0.75000000  0.17110700  0.30737500  1
  Pb  Pb10  1  0.44282800  0.00032200  0.12234500  1
  Pb  Pb11  1  0.13287300  0.23364300  0.21822100  1
  Pb  Pb12  1  0.63191600  0.75368200  0.02905000  1
  Pb  Pb13  1  0.36712700  0.23364300  0.21822100  1
  Pb  Pb14  1  0.37002400  0.38433700  0.62191900  1
  Pb  Pb15  1  0.36871900  0.61154500  0.44912700  1
  Pb  Pb16  1  0.12997600  0.38433700  0.62191900  1
  Pb  Pb17  1  0.25000000  0.44023400  0.07173400  1
  Pb  Pb18  1  0.86712700  0.76635700  0.78177900  1
  Pb  Pb19  1  0.25000000  0.50275800  0.76077400  1
  Pb  Pb20  1  0.25000000  0.93477900  0.02897200  1
  Pb  Pb21  1  0.93756800  0.30820800  0.37697700  1
  Pb  Pb22  1  0.13128100  0.61154500  0.44912700  1
  Pb  Pb23  1  0.62997600  0.61566300  0.37808100  1
  Pb  Pb24  1  0.75000000  0.55976600  0.92826600  1
  Pb  Pb25  1  0.06243200  0.69179200  0.62302300  1
  Pb  Pb26  1  0.63128100  0.38845500  0.55087300  1
  Pb  Pb27  1  0.25000000  0.93348000  0.24643100  1
  Pb  Pb28  1  0.86871900  0.38845500  0.55087300  1
  Pb  Pb29  1  0.87002400  0.61566300  0.37808100  1
  Pb  Pb30  1  0.36808400  0.24631800  0.97095000  1
  Pb  Pb31  1  0.75000000  0.06522100  0.97102800  1
  Pb  Pb32  1  0.05717200  0.00032200  0.12234500  1
  Pb  Pb33  1  0.94282800  0.99967800  0.87765500  1
  Pb  Pb34  1  0.55717200  0.99967800  0.87765500  1
  Pb  Pb35  1  0.25000000  0.82889300  0.69262500  1
loop_
_geom_bond_atom_site_label_1
_geom_bond_atom_site_label_2
_geom_bond_distance
_geom_bond_site_symmetry_2
K0 Pb33 3.706187 1_545
K0 Pb16 3.822567 1_655
K0 Pb18 3.851133 1_555
K0 Pb28 3.890554 1_555
K0 Pb24 3.976688 1_555
K0 Pb25 4.002011 1_655
K0 Pb0 4.035689 1_555
K0 Pb8 4.056838 1_655
K1 Pb1 3.753844 1_565
K1 Pb28 3.864676 1_555
K1 Pb26 3.864676 1_555
K1 Pb18 3.871401 1_555
K1 Pb7 3.871401 1_555
K1 Pb29 3.904504 1_555
K1 Pb23 3.904504 1_555
K2 Pb34 3.706187 1_545
K2 Pb14 3.822567 1_555
K2 Pb7 3.851133 1_555
K2 Pb26 3.890554 1_555
K2 Pb24 3.976688 1_555
K2 Pb6 4.002011 1_555
K2 Pb0 4.035689 1_555
K2 Pb30 4.056838 1_555
K3 Pb2 3.753844 1_545
K3 Pb15 3.864676 1_555
K3 Pb22 3.864676 1_555
K3 Pb11 3.871401 1_555
K3 Pb13 3.871401 1_555
K3 Pb16 3.904504 1_555
K3 Pb14 3.904504 1_555
K4 Pb25 3.657128 1_545
K4 Pb16 3.658433 1_555
K4 Pb28 3.727557 1_455
K4 Pb18 3.762728 1_445
K4 Pb1 3.940942 1_455
K4 Pb0 3.974642 1_455
K4 Pb35 3.985706 1_545
K4 Pb33 4.013140 1_445
K5 Pb21 3.657128 1_565
K5 Pb29 3.658433 1_555
K5 Pb22 3.727557 1_655
K5 Pb11 3.762728 1_665
K5 Pb2 3.940942 1_655
K5 Pb27 3.974642 1_655
K5 Pb9 3.985706 1_565
K5 Pb32 4.013140 1_665
K6 Pb17 3.704111 1_556
K6 Pb7 3.719899 1_555
K6 Pb34 3.744401 1_555
K6 Pb12 3.822254 1_556
K6 Pb19 3.836112 1_555
K6 Pb35 4.045875 1_555
K6 Pb20 4.093635 1_556
K6 Pb30 4.129633 1_555
K7 Pb17 3.704111 1_556
K7 Pb18 3.719899 1_455
K7 Pb33 3.744401 1_455
K7 Pb4 3.822254 1_456
K7 Pb19 3.836112 1_555
K7 Pb35 4.045875 1_555
K7 Pb20 4.093635 1_556
K7 Pb8 4.129633 1_555
K8 Pb6 3.657128 1_545
K8 Pb14 3.658433 1_555
K8 Pb26 3.727557 1_555
K8 Pb7 3.762728 1_545
K8 Pb1 3.940942 1_555
K8 Pb0 3.974642 1_555
K8 Pb35 3.985706 1_545
K8 Pb34 4.013140 1_545
K9 Pb3 3.657128 1_565
K9 Pb23 3.658433 1_555
K9 Pb15 3.727557 1_555
K9 Pb13 3.762728 1_565
K9 Pb2 3.940942 1_555
K9 Pb27 3.974642 1_555
K9 Pb9 3.985706 1_565
K9 Pb10 4.013140 1_565
K10 Pb24 3.704111 1_554
K10 Pb11 3.719899 1_655
K10 Pb32 3.744401 1_655
K10 Pb8 3.822254 1_654
K10 Pb5 3.836112 1_555
K10 Pb9 4.045875 1_555
K10 Pb31 4.093635 1_554
K10 Pb4 4.129633 1_555
K11 Pb32 3.706187 1_565
K11 Pb29 3.822567 1_455
K11 Pb11 3.851133 1_555
K11 Pb22 3.890554 1_555
K11 Pb17 3.976688 1_555
K11 Pb21 4.002011 1_455
K11 Pb27 4.035689 1_555
K11 Pb4 4.056838 1_455
K12 Pb10 3.706187 1_565
K12 Pb23 3.822567 1_555
K12 Pb13 3.851133 1_555
K12 Pb15 3.890554 1_555
K12 Pb17 3.976688 1_555
K12 Pb3 4.002011 1_555
K12 Pb27 4.035689 1_555
K12 Pb12 4.056838 1_555
K13 Pb9 3.590314 1_565
K13 Pb4 3.717433 1_555
K13 Pb12 3.717433 1_555
K13 Pb5 3.726788 1_555
K13 Pb31 3.768995 1_564
K13 Pb29 3.776824 1_555
K13 Pb23 3.776824 1_555
K14 Pb24 3.704111 1_554
K14 Pb13 3.719899 1_555
K14 Pb10 3.744401 1_555
K14 Pb30 3.822254 1_554
K14 Pb5 3.836112 1_555
K14 Pb9 4.045875 1_555
K14 Pb31 4.093635 1_554
K14 Pb12 4.129633 1_555
K15 Pb35 3.590314 1_545
K15 Pb8 3.717433 1_555
K15 Pb30 3.717433 1_555
K15 Pb19 3.726788 1_555
K15 Pb20 3.768995 1_546
K15 Pb16 3.776824 1_555
K15 Pb14 3.776824 1_555
Pb0 Pb34 3.258058 1_545
Pb0 Pb33 3.258058 1_545
Pb0 Pb18 3.283334 1_545
Pb0 Pb7 3.283334 1_545
Pb0 Pb31 3.520057 1_555
Pb1 Pb9 3.154779 1_555
Pb1 Pb26 3.209412 1_555
Pb1 Pb28 3.209412 1_555
Pb1 Pb21 3.482121 1_555
Pb1 Pb3 3.482121 1_555
Pb2 Pb35 3.154779 1_555
Pb2 Pb22 3.209412 1_555
Pb2 Pb25 3.482121 1_555
Pb2 Pb6 3.482121 1_555
Pb3 Pb9 3.187745 1_555
Pb5 Pb9 3.142015 1_555
Pb10 Pb20 3.145291 1_545
Pb10 Pb30 3.188235 1_554
Pb10 Pb13 3.214527 1_555
Pb10 Pb27 3.258058 1_545
Pb11 Pb13 3.155105 1_555
Pb11 Pb17 3.168882 1_555
Pb11 Pb32 3.214527 1_555
Pb11 Pb27 3.283334 1_545
Pb12 Pb4 3.180884 1_555
Pb12 Pb34 3.188235 1_554
Pb12 Pb24 3.200904 1_554
Pb12 Pb31 3.386652 1_564
Pb13 Pb17 3.168882 1_555
Pb13 Pb27 3.283334 1_545
Pb14 Pb15 3.157116 1_555
Pb14 Pb6 3.158860 1_555
Pb14 Pb19 3.197243 1_555
Pb14 Pb16 3.233143 1_555
Pb15 Pb22 3.197989 1_555
Pb15 Pb2 3.209412 1_555
Pb15 Pb6 3.229900 1_555
Pb16 Pb22 3.157116 1_555
Pb16 Pb25 3.158860 1_555
Pb16 Pb19 3.197243 1_555
Pb17 Pb30 3.200904 1_554
Pb17 Pb8 3.200904 1_554
Pb18 Pb7 3.155105 1_555
Pb18 Pb24 3.168882 1_555
Pb18 Pb33 3.214527 1_555
Pb19 Pb35 3.142015 1_555
Pb20 Pb32 3.145291 1_565
Pb20 Pb8 3.386652 1_564
Pb20 Pb30 3.386652 1_564
Pb20 Pb27 3.520057 1_555
Pb21 Pb29 3.158860 1_555
Pb21 Pb9 3.187745 1_555
Pb21 Pb28 3.229900 1_555
Pb22 Pb25 3.229900 1_555
Pb23 Pb26 3.157116 1_555
Pb23 Pb3 3.158860 1_555
Pb23 Pb5 3.197243 1_555
Pb23 Pb29 3.233143 1_555
Pb24 Pb7 3.168882 1_555
Pb24 Pb4 3.200904 1_556
Pb25 Pb35 3.187745 1_555
Pb26 Pb28 3.197989 1_555
Pb26 Pb3 3.229900 1_555
Pb27 Pb32 3.258058 1_565
Pb28 Pb29 3.157116 1_555
Pb29 Pb5 3.197243 1_555
Pb30 Pb8 3.180884 1_555
Pb31 Pb34 3.145291 1_545
Pb31 Pb33 3.145291 1_545
Pb31 Pb4 3.386652 1_546
Pb32 Pb8 3.188235 1_554
Pb33 Pb4 3.188235 1_556
Pb34 Pb7 3.214527 1_555
Pb35 Pb6 3.187745 1_555
