# generated using pymatgen
data_Y21B7(C7I9)2
_symmetry_space_group_name_H-M   'P 1'
_cell_length_a   10.88528300
_cell_length_b   15.65390096
_cell_length_c   18.54094784
_cell_angle_alpha   82.53393903
_cell_angle_beta   85.12216874
_cell_angle_gamma   83.09603726
_symmetry_Int_Tables_number   1
_chemical_formula_structural   Y21B7(C7I9)2
_chemical_formula_sum   'Y42 B14 C28 I36'
_cell_volume   3102.08419095
_cell_formula_units_Z   2
loop_
 _symmetry_equiv_pos_site_id
 _symmetry_equiv_pos_as_xyz
  1  'x, y, z'
loop_
 _atom_site_type_symbol
 _atom_site_label
 _atom_site_symmetry_multiplicity
 _atom_site_fract_x
 _atom_site_fract_y
 _atom_site_fract_z
 _atom_site_occupancy
  Y  Y0  1  0.08064700  0.63122500  0.20671900  1
  Y  Y1  1  0.16704900  0.31576700  0.55558900  1
  Y  Y2  1  0.90938600  0.23079100  0.65160400  1
  Y  Y3  1  0.10965500  0.42468700  0.35522700  1
  Y  Y4  1  0.16050000  0.20637700  0.76343300  1
  Y  Y5  1  0.86402100  0.94120400  0.37328400  1
  Y  Y6  1  0.12090400  0.98264900  0.93661600  1
  Y  Y7  1  0.87909600  0.01735100  0.06338400  1
  Y  Y8  1  0.85502100  0.82917000  0.57735000  1
  Y  Y9  1  0.11588300  0.87380300  0.14842700  1
  Y  Y10  1  0.14341400  0.60373500  0.84584000  1
  Y  Y11  1  0.88411700  0.12619700  0.85157300  1
  Y  Y12  1  0.83295100  0.68423300  0.44441100  1
  Y  Y13  1  0.87927800  0.28564000  0.35697100  1
  Y  Y14  1  0.12072200  0.71436000  0.64302900  1
  Y  Y15  1  0.84537800  0.64403900  0.08907900  1
  Y  Y16  1  0.89034500  0.57531300  0.64477300  1
  Y  Y17  1  0.11151000  0.91344300  0.48830000  1
  Y  Y18  1  0.13597900  0.05879600  0.62671600  1
  Y  Y19  1  0.15462200  0.35596100  0.91092100  1
  Y  Y20  1  0.88806600  0.14774600  0.20993300  1
  Y  Y21  1  0.10983200  0.49527700  0.06215700  1
  Y  Y22  1  0.83001200  0.53983500  0.30159100  1
  Y  Y23  1  0.09061400  0.76920900  0.34839600  1
  Y  Y24  1  0.11539400  0.57145800  0.49639300  1
  Y  Y25  1  0.89016800  0.50472300  0.93784300  1
  Y  Y26  1  0.12150600  0.27446300  0.22009300  1
  Y  Y27  1  0.14001400  0.11959500  0.08412300  1
  Y  Y28  1  0.86482900  0.97890600  0.71063900  1
  Y  Y29  1  0.13517100  0.02109400  0.28936100  1
  Y  Y30  1  0.89544200  0.25995700  0.00326000  1
  Y  Y31  1  0.11193400  0.85225400  0.79006700  1
  Y  Y32  1  0.83950000  0.79362300  0.23656700  1
  Y  Y33  1  0.87849400  0.72553700  0.77990700  1
  Y  Y34  1  0.88849000  0.08655700  0.51170000  1
  Y  Y35  1  0.16998800  0.46016500  0.69840900  1
  Y  Y36  1  0.85998600  0.88040500  0.91587700  1
  Y  Y37  1  0.88460600  0.42854200  0.50360700  1
  Y  Y38  1  0.10455800  0.74004300  0.99674000  1
  Y  Y39  1  0.14497900  0.17083000  0.42265000  1
  Y  Y40  1  0.91935300  0.36877500  0.79328100  1
  Y  Y41  1  0.85658600  0.39626500  0.15416000  1
  B  B0  1  0.98976300  0.60505100  0.36171400  1
  B  B1  1  0.02003100  0.88983400  0.63527400  1
  B  B2  1  0.99940600  0.53442200  0.77755400  1
  B  B3  1  0.01023700  0.39494900  0.63828600  1
  B  B4  1  0.03339700  0.03283800  0.77506200  1
  B  B5  1  0.05042200  0.17464400  0.92315700  1
  B  B6  1  0.99556700  0.25496500  0.50335900  1
  B  B7  1  0.94957800  0.82535600  0.07684300  1
  B  B8  1  0.96660300  0.96716200  0.22493800  1
  B  B9  1  0.97996900  0.11016600  0.36472600  1
  B  B10  1  0.96371100  0.67611000  0.92356600  1
  B  B11  1  0.00443300  0.74503500  0.49664100  1
  B  B12  1  0.00059400  0.46557800  0.22244600  1
  B  B13  1  0.03628900  0.32389000  0.07643400  1
  C  C0  1  0.99905600  0.60972300  0.98497300  1
  C  C1  1  0.04447900  0.46795500  0.83695500  1
  C  C2  1  0.96703400  0.53179700  0.41605800  1
  C  C3  1  0.02916700  0.25097700  0.87009900  1
  C  C4  1  0.98620700  0.97177000  0.58899000  1
  C  C5  1  0.01131400  0.11537600  0.72821800  1
  C  C6  1  0.00094400  0.39027700  0.01502700  1
  C  C7  1  0.02493100  0.17255200  0.30398700  1
  C  C8  1  0.98335400  0.97441200  0.83731500  1
  C  C9  1  0.01664600  0.02558800  0.16268500  1
  C  C10  1  0.02433500  0.32131200  0.44239300  1
  C  C11  1  0.01379300  0.02823000  0.41101000  1
  C  C12  1  0.03296600  0.46820300  0.58394200  1
  C  C13  1  0.95745500  0.82444400  0.45090300  1
  C  C14  1  0.94119500  0.67805500  0.30999800  1
  C  C15  1  0.02799000  0.61283600  0.72975100  1
  C  C16  1  0.98868600  0.88462400  0.27178200  1
  C  C17  1  0.00262600  0.24586000  0.12403900  1
  C  C18  1  0.99737400  0.75414000  0.87596100  1
  C  C19  1  0.04254500  0.17555600  0.54909700  1
  C  C20  1  0.97506900  0.82744800  0.69601300  1
  C  C21  1  0.97083300  0.74902300  0.12990100  1
  C  C22  1  0.95552100  0.53204500  0.16304500  1
  C  C23  1  0.00718800  0.11000300  0.98122200  1
  C  C24  1  0.05880500  0.32194500  0.69000200  1
  C  C25  1  0.97201000  0.38716400  0.27024900  1
  C  C26  1  0.99281200  0.88999700  0.01877800  1
  C  C27  1  0.97566500  0.67868800  0.55760700  1
  I  I0  1  0.33252300  0.03244300  0.82314300  1
  I  I1  1  0.70348600  0.26713700  0.51214100  1
  I  I2  1  0.35966700  0.16847100  0.62357200  1
  I  I3  1  0.63481100  0.67242600  0.21743300  1
  I  I4  1  0.64033300  0.83152900  0.37642800  1
  I  I5  1  0.28275100  0.58678100  0.33321400  1
  I  I6  1  0.33764800  0.49046800  0.94578700  1
  I  I7  1  0.34041000  0.12633200  0.20687100  1
  I  I8  1  0.35122300  0.59891800  0.71780300  1
  I  I9  1  0.35613600  0.45001200  0.55796900  1
  I  I10  1  0.64386400  0.54998800  0.44203100  1
  I  I11  1  0.67255600  0.24113100  0.11763600  1
  I  I12  1  0.69639200  0.57948800  0.81759700  1
  I  I13  1  0.66747700  0.96755700  0.17685700  1
  I  I14  1  0.64877700  0.40108200  0.28219700  1
  I  I15  1  0.30360800  0.42051200  0.18240300  1
  I  I16  1  0.69250700  0.31383600  0.89411200  1
  I  I17  1  0.71724900  0.41321900  0.66678600  1
  I  I18  1  0.31894600  0.85482100  0.26437600  1
  I  I19  1  0.65959000  0.87366800  0.79312900  1
  I  I20  1  0.66235200  0.50953200  0.05421300  1
  I  I21  1  0.65081400  0.70591500  0.59903600  1
  I  I22  1  0.67132100  0.04499900  0.95303100  1
  I  I23  1  0.68834000  0.12653400  0.34667800  1
  I  I24  1  0.29651400  0.73286300  0.48785900  1
  I  I25  1  0.32867900  0.95500100  0.04696900  1
  I  I26  1  0.34355200  0.01287800  0.43273100  1
  I  I27  1  0.32744400  0.75886900  0.88236400  1
  I  I28  1  0.65644800  0.98712200  0.56726900  1
  I  I29  1  0.31166000  0.87346600  0.65332200  1
  I  I30  1  0.68105400  0.14517900  0.73562400  1
  I  I31  1  0.65548300  0.77635200  0.00331700  1
  I  I32  1  0.36518900  0.32757400  0.78256700  1
  I  I33  1  0.34451700  0.22364800  0.99668300  1
  I  I34  1  0.30749300  0.68616400  0.10588800  1
  I  I35  1  0.34918600  0.29408500  0.40096400  1
loop_
_geom_bond_atom_site_label_1
_geom_bond_atom_site_label_2
_geom_bond_distance
_geom_bond_site_symmetry_2
B0 C2 1.454971 1_555
B0 C14 1.470066 1_555
B0 Y12 2.518161 1_555
B0 Y22 2.522089 1_555
B1 C4 1.473515 1_455
B1 C20 1.482177 1_455
B1 Y8 2.506916 1_455
B1 Y28 2.507864 1_455
B2 C15 1.466721 1_655
B2 C1 1.485812 1_655
B2 Y10 2.518121 1_655
B2 Y35 2.532462 1_655
B3 C12 1.454971 1_555
B3 C24 1.470066 1_555
B3 Y1 2.518161 1_555
B3 Y35 2.522089 1_555
B4 C5 1.466530 1_555
B4 C8 1.484578 1_445
B4 Y11 2.522793 1_455
B4 Y28 2.552178 1_445
B5 C3 1.454598 1_555
B5 C23 1.466162 1_555
B5 Y30 2.526456 1_456
B5 Y11 2.571779 1_455
B6 C10 1.472195 1_655
B6 C19 1.474050 1_655
B6 Y39 2.490451 1_655
B6 Y1 2.510391 1_655
B7 C21 1.454598 1_555
B7 C26 1.466162 1_555
B7 Y38 2.526456 1_654
B7 Y9 2.571779 1_655
B8 C16 1.466530 1_555
B8 C9 1.484578 1_665
B8 Y9 2.522793 1_655
B8 Y29 2.552178 1_665
B9 C11 1.473515 1_655
B9 C7 1.482177 1_655
B9 Y39 2.506916 1_655
B9 Y29 2.507864 1_655
B10 C18 1.475720 1_555
B10 C0 1.481608 1_555
B10 Y38 2.503666 1_655
B10 Y10 2.568830 1_655
B11 C27 1.472195 1_455
B11 C13 1.474050 1_455
B11 Y8 2.490451 1_455
B11 Y12 2.510391 1_455
B12 C25 1.466721 1_455
B12 C22 1.485812 1_455
B12 Y41 2.518121 1_455
B12 Y22 2.532462 1_455
B13 C17 1.475720 1_555
B13 C6 1.481608 1_555
B13 Y30 2.503666 1_455
B13 Y41 2.568830 1_455
C0 Y21 2.412337 1_656
C0 Y25 2.426489 1_555
C0 Y38 2.499928 1_655
C0 Y15 2.513361 1_556
C0 Y10 2.910448 1_655
C1 Y19 2.353972 1_555
C1 Y40 2.438016 1_455
C1 Y25 2.482890 1_455
C1 Y10 2.525092 1_555
C1 Y35 2.815049 1_555
C2 Y37 2.339159 1_555
C2 Y3 2.461993 1_655
C2 Y24 2.470324 1_655
C2 Y22 2.677417 1_555
C2 Y12 2.731087 1_555
C3 Y40 2.436156 1_455
C3 Y4 2.465865 1_555
C3 Y19 2.485384 1_555
C3 Y11 2.726598 1_455
C3 Y30 2.768406 1_456
C4 Y34 2.354625 1_565
C4 Y17 2.426900 1_655
C4 Y18 2.445106 1_665
C4 Y28 2.523602 1_555
C4 Y8 2.830658 1_555
C5 Y2 2.373213 1_455
C5 Y18 2.424370 1_555
C5 Y4 2.463919 1_555
C5 Y11 2.585037 1_455
C5 Y28 2.881102 1_445
C6 Y25 2.412337 1_454
C6 Y21 2.426489 1_555
C6 Y30 2.499928 1_455
C6 Y19 2.513361 1_554
C6 Y41 2.910448 1_455
C7 Y26 2.355810 1_555
C7 Y13 2.474861 1_455
C7 Y20 2.483592 1_455
C7 Y29 2.561736 1_555
C7 Y39 2.648385 1_555
C8 Y36 2.382439 1_555
C8 Y31 2.442633 1_655
C8 Y6 2.495023 1_655
C8 Y11 2.525845 1_565
C8 Y28 2.763411 1_555
C9 Y27 2.382439 1_555
C9 Y20 2.442633 1_455
C9 Y7 2.495023 1_455
C9 Y9 2.525845 1_545
C9 Y29 2.763411 1_555
C10 Y3 2.349361 1_555
C10 Y37 2.450894 1_455
C10 Y13 2.486073 1_455
C10 Y39 2.608874 1_555
C10 Y1 2.701916 1_555
C11 Y17 2.354625 1_545
C11 Y34 2.426900 1_455
C11 Y5 2.445106 1_445
C11 Y29 2.523602 1_555
C11 Y39 2.830658 1_555
C12 Y24 2.339159 1_555
C12 Y16 2.461993 1_455
C12 Y37 2.470324 1_455
C12 Y35 2.677417 1_555
C12 Y1 2.731087 1_555
C13 Y5 2.358941 1_555
C13 Y23 2.473467 1_655
C13 Y17 2.498854 1_655
C13 Y8 2.515127 1_555
C13 Y12 2.734979 1_555
C14 Y32 2.342350 1_555
C14 Y0 2.472124 1_655
C14 Y23 2.491429 1_655
C14 Y22 2.630554 1_555
C14 Y12 2.672885 1_555
C15 Y14 2.361262 1_555
C15 Y16 2.434320 1_455
C15 Y33 2.470659 1_455
C15 Y10 2.562987 1_555
C15 Y35 2.785413 1_555
C16 Y23 2.373213 1_655
C16 Y5 2.424370 1_555
C16 Y32 2.463919 1_555
C16 Y9 2.585037 1_655
C16 Y29 2.881102 1_665
C17 Y26 2.405243 1_555
C17 Y20 2.436645 1_455
C17 Y27 2.484403 1_555
C17 Y30 2.584314 1_455
C17 Y41 2.770059 1_455
C18 Y33 2.405243 1_555
C18 Y31 2.436645 1_655
C18 Y36 2.484403 1_555
C18 Y38 2.584314 1_655
C18 Y10 2.770059 1_655
C19 Y18 2.358941 1_555
C19 Y2 2.473467 1_455
C19 Y34 2.498854 1_455
C19 Y39 2.515127 1_555
C19 Y1 2.734979 1_555
C20 Y33 2.355810 1_555
C20 Y14 2.474861 1_655
C20 Y31 2.483592 1_655
C20 Y28 2.561736 1_555
C20 Y8 2.648385 1_555
C21 Y0 2.436156 1_655
C21 Y32 2.465865 1_555
C21 Y15 2.485384 1_555
C21 Y9 2.726598 1_655
C21 Y38 2.768406 1_654
C22 Y15 2.353972 1_555
C22 Y0 2.438016 1_655
C22 Y21 2.482890 1_655
C22 Y41 2.525092 1_555
C22 Y22 2.815049 1_555
C23 Y6 2.419032 1_545
C23 Y7 2.432917 1_456
C23 Y27 2.519682 1_556
C23 Y30 2.575843 1_456
C23 Y11 2.818676 1_455
C24 Y4 2.342350 1_555
C24 Y40 2.472124 1_455
C24 Y2 2.491429 1_455
C24 Y35 2.630554 1_555
C24 Y1 2.672885 1_555
C25 Y13 2.361262 1_555
C25 Y3 2.434320 1_655
C25 Y26 2.470659 1_655
C25 Y41 2.562987 1_555
C25 Y22 2.785413 1_555
C26 Y7 2.419032 1_565
C26 Y6 2.432917 1_654
C26 Y36 2.519682 1_554
C26 Y38 2.575843 1_654
C26 Y9 2.818676 1_655
C27 Y16 2.349361 1_555
C27 Y24 2.450894 1_655
C27 Y14 2.486073 1_655
C27 Y8 2.608874 1_555
C27 Y12 2.701916 1_555
I0 Y6 3.085695 1_545
I0 Y4 3.238639 1_555
I1 Y34 3.268160 1_555
I1 Y13 3.317095 1_555
I1 Y37 3.366962 1_555
I1 Y2 3.511406 1_555
I2 Y1 3.135817 1_555
I2 Y18 3.136012 1_555
I2 Y4 3.303218 1_555
I3 Y22 3.149525 1_555
I3 Y32 3.164689 1_555
I3 Y15 3.196386 1_555
I4 Y12 3.135817 1_555
I4 Y5 3.136012 1_555
I4 Y32 3.303218 1_555
I5 Y3 3.302224 1_555
I5 Y0 3.303016 1_555
I5 Y23 3.358786 1_555
I5 Y24 3.392488 1_555
I6 Y21 3.146103 1_556
I6 Y10 3.155822 1_555
I6 Y19 3.225174 1_555
I7 Y29 3.113381 1_555
I7 Y26 3.136076 1_555
I7 Y27 3.303180 1_555
I8 Y10 3.138537 1_555
I8 Y35 3.176897 1_555
I8 Y14 3.214586 1_555
I9 Y1 3.119926 1_555
I9 Y35 3.169248 1_555
I9 Y24 3.245291 1_555
I10 Y12 3.119926 1_555
I10 Y22 3.169248 1_555
I10 Y37 3.245291 1_555
I11 Y30 3.099160 1_555
I11 Y20 3.126783 1_555
I11 Y41 3.492343 1_555
I12 Y33 3.175405 1_555
I12 Y25 3.212108 1_555
I13 Y7 3.085695 1_565
I13 Y32 3.238639 1_555
I14 Y41 3.138537 1_555
I14 Y22 3.176897 1_555
I14 Y13 3.214586 1_555
I15 Y26 3.175405 1_555
I15 Y21 3.212108 1_555
I16 Y30 3.091151 1_556
I16 Y40 3.104780 1_555
I16 Y11 3.528372 1_555
I17 Y16 3.302224 1_555
I17 Y40 3.303016 1_555
I17 Y2 3.358786 1_555
I17 Y37 3.392488 1_555
I18 Y29 3.145636 1_565
I18 Y23 3.162291 1_555
I18 Y9 3.174906 1_555
I19 Y28 3.113381 1_555
I19 Y33 3.136076 1_555
I19 Y36 3.303180 1_555
I20 Y25 3.146103 1_554
I20 Y41 3.155822 1_555
I20 Y15 3.225174 1_555
I21 Y8 3.082674 1_555
I21 Y16 3.215758 1_555
I21 Y12 3.374834 1_555
I22 Y7 3.132154 1_556
I22 Y11 3.140880 1_555
I22 Y36 3.206123 1_545
I23 Y20 3.206615 1_555
I23 Y5 3.282027 1_545
I23 Y13 3.463372 1_555
I23 Y34 3.848133 1_555
I24 Y17 3.268160 1_555
I24 Y14 3.317095 1_555
I24 Y24 3.366962 1_555
I24 Y23 3.511406 1_555
I25 Y6 3.132154 1_554
I25 Y9 3.140880 1_555
I25 Y27 3.206123 1_565
I26 Y39 3.079679 1_555
I26 Y17 3.154378 1_545
I26 Y29 3.618591 1_555
I27 Y38 3.099160 1_555
I27 Y31 3.126783 1_555
I27 Y10 3.492343 1_555
I28 Y8 3.079679 1_555
I28 Y34 3.154378 1_565
I28 Y28 3.618591 1_555
I29 Y31 3.206615 1_555
I29 Y18 3.282027 1_565
I29 Y14 3.463372 1_555
I29 Y17 3.848133 1_555
I30 Y28 3.145636 1_545
I30 Y2 3.162291 1_555
I30 Y11 3.174906 1_555
I31 Y15 3.124886 1_555
I31 Y36 3.131862 1_554
I32 Y35 3.149525 1_555
I32 Y4 3.164689 1_555
I32 Y19 3.196386 1_555
I33 Y19 3.124886 1_555
I33 Y27 3.131862 1_556
I34 Y38 3.091151 1_554
I34 Y0 3.104780 1_555
I34 Y9 3.528372 1_555
I35 Y39 3.082674 1_555
I35 Y3 3.215758 1_555
I35 Y1 3.374834 1_555
