# generated using pymatgen
data_Ca4YFe5O13
_symmetry_space_group_name_H-M   'P 1'
_cell_length_a   5.58054600
_cell_length_b   5.60235200
_cell_length_c   37.43706400
_cell_angle_alpha   90.00000000
_cell_angle_beta   90.00000000
_cell_angle_gamma   90.00000000
_symmetry_Int_Tables_number   1
_chemical_formula_structural   Ca4YFe5O13
_chemical_formula_sum   'Ca16 Y4 Fe20 O52'
_cell_volume   1170.43922153
_cell_formula_units_Z   4
loop_
 _symmetry_equiv_pos_site_id
 _symmetry_equiv_pos_as_xyz
  1  'x, y, z'
loop_
 _atom_site_type_symbol
 _atom_site_label
 _atom_site_symmetry_multiplicity
 _atom_site_fract_x
 _atom_site_fract_y
 _atom_site_fract_z
 _atom_site_occupancy
  Ca  Ca0  1  0.47021100  0.01900000  0.95676500  1
  Ca  Ca1  1  0.53904900  0.97918800  0.15452600  1
  Ca  Ca2  1  0.02978900  0.51900000  0.04323500  1
  Ca  Ca3  1  0.96095100  0.47918800  0.84547400  1
  Ca  Ca4  1  0.96095100  0.47918800  0.65452600  1
  Ca  Ca5  1  0.03904900  0.52081200  0.34547400  1
  Ca  Ca6  1  0.02978900  0.51900000  0.45676500  1
  Ca  Ca7  1  0.97021100  0.48100000  0.95676500  1
  Ca  Ca8  1  0.52978900  0.98100000  0.45676500  1
  Ca  Ca9  1  0.53904900  0.97918800  0.34547400  1
  Ca  Ca10  1  0.03904900  0.52081200  0.15452600  1
  Ca  Ca11  1  0.97021100  0.48100000  0.54323500  1
  Ca  Ca12  1  0.52978900  0.98100000  0.04323500  1
  Ca  Ca13  1  0.46095100  0.02081200  0.65452600  1
  Ca  Ca14  1  0.47021100  0.01900000  0.54323500  1
  Ca  Ca15  1  0.46095100  0.02081200  0.84547400  1
  Y  Y0  1  0.06192300  0.47624300  0.75000000  1
  Y  Y1  1  0.43807700  0.97624300  0.25000000  1
  Y  Y2  1  0.93807700  0.52375700  0.25000000  1
  Y  Y3  1  0.56192300  0.02375700  0.75000000  1
  Fe  Fe0  1  0.50711000  0.51642600  0.69850400  1
  Fe  Fe1  1  0.99289000  0.01642600  0.30149600  1
  Fe  Fe2  1  0.45000700  0.56040100  0.59960700  1
  Fe  Fe3  1  0.50711000  0.51642600  0.80149600  1
  Fe  Fe4  1  0.54999300  0.43959900  0.40039300  1
  Fe  Fe5  1  0.99289000  0.01642600  0.19850400  1
  Fe  Fe6  1  0.50000000  0.50000000  0.00000000  1
  Fe  Fe7  1  0.00711000  0.98357400  0.80149600  1
  Fe  Fe8  1  0.54999300  0.43959900  0.09960700  1
  Fe  Fe9  1  0.49289000  0.48357400  0.19850400  1
  Fe  Fe10  1  0.00711000  0.98357400  0.69850400  1
  Fe  Fe11  1  0.00000000  0.00000000  0.00000000  1
  Fe  Fe12  1  0.45000700  0.56040100  0.90039300  1
  Fe  Fe13  1  0.04999300  0.06040100  0.09960700  1
  Fe  Fe14  1  0.95000700  0.93959900  0.90039300  1
  Fe  Fe15  1  0.00000000  0.00000000  0.50000000  1
  Fe  Fe16  1  0.50000000  0.50000000  0.50000000  1
  Fe  Fe17  1  0.95000700  0.93959900  0.59960700  1
  Fe  Fe18  1  0.49289000  0.48357400  0.30149600  1
  Fe  Fe19  1  0.04999300  0.06040100  0.40039300  1
  O  O0  1  0.78265400  0.29171500  0.31265400  1
  O  O1  1  0.71734600  0.79171500  0.68734600  1
  O  O2  1  0.95699800  0.91315400  0.35722400  1
  O  O3  1  0.28265400  0.20828500  0.18734600  1
  O  O4  1  0.20595200  0.71284600  0.21022800  1
  O  O5  1  0.29404800  0.21284600  0.71022800  1
  O  O6  1  0.45699800  0.58684600  0.35722400  1
  O  O7  1  0.03808400  0.12070300  0.25000000  1
  O  O8  1  0.03570000  0.08120600  0.94387800  1
  O  O9  1  0.79404800  0.28715400  0.78977200  1
  O  O10  1  0.03570000  0.08120600  0.55612200  1
  O  O11  1  0.72861800  0.77204300  0.50752400  1
  O  O12  1  0.54300200  0.41315400  0.85722400  1
  O  O13  1  0.54300200  0.41315400  0.64277600  1
  O  O14  1  0.96191600  0.87929700  0.75000000  1
  O  O15  1  0.45699800  0.58684600  0.14277600  1
  O  O16  1  0.46191600  0.62070300  0.75000000  1
  O  O17  1  0.78265400  0.29171500  0.18734600  1
  O  O18  1  0.71734600  0.79171500  0.81265400  1
  O  O19  1  0.46430000  0.58120600  0.44387800  1
  O  O20  1  0.95699800  0.91315400  0.14277600  1
  O  O21  1  0.29404800  0.21284600  0.78977200  1
  O  O22  1  0.22861800  0.72795700  0.50752400  1
  O  O23  1  0.79404800  0.28715400  0.71022800  1
  O  O24  1  0.60386700  0.87340300  0.59916000  1
  O  O25  1  0.77138200  0.27204300  0.49247600  1
  O  O26  1  0.53570000  0.41879400  0.94387800  1
  O  O27  1  0.60386700  0.87340300  0.90084000  1
  O  O28  1  0.10386700  0.62659700  0.90084000  1
  O  O29  1  0.70595200  0.78715400  0.28977200  1
  O  O30  1  0.96430000  0.91879400  0.05612200  1
  O  O31  1  0.53808400  0.37929700  0.25000000  1
  O  O32  1  0.77138200  0.27204300  0.00752400  1
  O  O33  1  0.46430000  0.58120600  0.05612200  1
  O  O34  1  0.72861800  0.77204300  0.99247600  1
  O  O35  1  0.89613300  0.37340300  0.09916000  1
  O  O36  1  0.21734600  0.70828500  0.68734600  1
  O  O37  1  0.22861800  0.72795700  0.99247600  1
  O  O38  1  0.89613300  0.37340300  0.40084000  1
  O  O39  1  0.10386700  0.62659700  0.59916000  1
  O  O40  1  0.28265400  0.20828500  0.31265400  1
  O  O41  1  0.04300200  0.08684600  0.85722400  1
  O  O42  1  0.70595200  0.78715400  0.21022800  1
  O  O43  1  0.04300200  0.08684600  0.64277600  1
  O  O44  1  0.53570000  0.41879400  0.55612200  1
  O  O45  1  0.96430000  0.91879400  0.44387800  1
  O  O46  1  0.27138200  0.22795700  0.00752400  1
  O  O47  1  0.39613300  0.12659700  0.09916000  1
  O  O48  1  0.39613300  0.12659700  0.40084000  1
  O  O49  1  0.20595200  0.71284600  0.28977200  1
  O  O50  1  0.21734600  0.70828500  0.81265400  1
  O  O51  1  0.27138200  0.22795700  0.49247600  1
loop_
_geom_bond_atom_site_label_1
_geom_bond_atom_site_label_2
_geom_bond_distance
_geom_bond_site_symmetry_2
Ca0 O26 2.320122 1_555
Ca0 O27 2.367512 1_545
Ca0 O34 2.404379 1_545
Ca0 O46 2.492508 1_556
Ca0 O8 2.496780 1_555
Ca0 O37 2.502729 1_545
Ca1 O3 2.281282 1_565
Ca1 O15 2.287910 1_555
Ca1 O47 2.369461 1_565
Ca1 O20 2.402160 1_555
Ca1 O42 2.524583 1_555
Ca1 O17 2.534437 1_565
Ca2 O30 2.320122 1_455
Ca2 O35 2.367512 1_455
Ca2 O32 2.404379 1_455
Ca2 O37 2.492508 1_554
Ca2 O33 2.496780 1_555
Ca2 O46 2.502729 1_555
Ca3 O50 2.281282 1_655
Ca3 O41 2.287910 1_655
Ca3 O28 2.369461 1_655
Ca3 O12 2.402160 1_555
Ca3 O9 2.524583 1_555
Ca3 O18 2.534437 1_555
Ca4 O36 2.281282 1_655
Ca4 O43 2.287910 1_655
Ca4 O39 2.369461 1_655
Ca4 O13 2.402160 1_555
Ca4 O23 2.524583 1_555
Ca4 O1 2.534437 1_555
Ca5 O0 2.281282 1_455
Ca5 O2 2.287910 1_455
Ca5 O38 2.369461 1_455
Ca5 O6 2.402160 1_555
Ca5 O49 2.524583 1_555
Ca5 O40 2.534437 1_555
Ca6 O45 2.320122 1_455
Ca6 O38 2.367512 1_455
Ca6 O25 2.404379 1_455
Ca6 O22 2.492508 1_555
Ca6 O19 2.496780 1_555
Ca6 O51 2.502729 1_555
Ca7 O8 2.320122 1_655
Ca7 O28 2.367512 1_655
Ca7 O37 2.404379 1_655
Ca7 O32 2.492508 1_556
Ca7 O26 2.496780 1_555
Ca7 O34 2.502729 1_555
Ca8 O19 2.320122 1_555
Ca8 O48 2.367512 1_565
Ca8 O51 2.404379 1_565
Ca8 O11 2.492508 1_555
Ca8 O45 2.496780 1_555
Ca8 O25 2.502729 1_565
Ca9 O40 2.281282 1_565
Ca9 O6 2.287910 1_555
Ca9 O48 2.369461 1_565
Ca9 O2 2.402160 1_555
Ca9 O29 2.524583 1_555
Ca9 O0 2.534437 1_565
Ca10 O17 2.281282 1_455
Ca10 O20 2.287910 1_455
Ca10 O35 2.369461 1_455
Ca10 O15 2.402160 1_555
Ca10 O4 2.524583 1_555
Ca10 O3 2.534437 1_555
Ca11 O10 2.320122 1_655
Ca11 O39 2.367512 1_655
Ca11 O22 2.404379 1_655
Ca11 O25 2.492508 1_555
Ca11 O44 2.496780 1_555
Ca11 O11 2.502729 1_555
Ca12 O33 2.320122 1_555
Ca12 O47 2.367512 1_565
Ca12 O46 2.404379 1_565
Ca12 O34 2.492508 1_554
Ca12 O30 2.496780 1_555
Ca12 O32 2.502729 1_565
Ca13 O1 2.281282 1_545
Ca13 O13 2.287910 1_555
Ca13 O24 2.369461 1_545
Ca13 O43 2.402160 1_555
Ca13 O5 2.524583 1_555
Ca13 O36 2.534437 1_545
Ca14 O44 2.320122 1_555
Ca14 O24 2.367512 1_545
Ca14 O11 2.404379 1_545
Ca14 O51 2.492508 1_555
Ca14 O10 2.496780 1_555
Ca14 O22 2.502729 1_545
Ca15 O18 2.281282 1_545
Ca15 O12 2.287910 1_555
Ca15 O27 2.369461 1_545
Ca15 O41 2.402160 1_555
Ca15 O21 2.524583 1_555
Ca15 O50 2.534437 1_545
Fe0 O1 1.982309 1_555
Fe0 O36 1.986112 1_555
Fe0 O16 2.030156 1_555
Fe0 O23 2.099180 1_555
Fe0 O5 2.121076 1_555
Fe0 O13 2.174276 1_555
Fe1 O0 1.982309 1_555
Fe1 O40 1.986112 1_655
Fe1 O7 2.030156 1_655
Fe1 O29 2.099180 1_545
Fe1 O49 2.121076 1_645
Fe1 O2 2.174276 1_545
Fe2 O44 1.873042 1_555
Fe2 O13 1.887241 1_555
Fe2 O24 1.952547 1_555
Fe2 O39 1.966999 1_555
Fe3 O18 1.982309 1_555
Fe3 O50 1.986112 1_555
Fe3 O16 2.030156 1_555
Fe3 O9 2.099180 1_555
Fe3 O21 2.121076 1_555
Fe3 O12 2.174276 1_555
Fe4 O19 1.873042 1_555
Fe4 O6 1.887241 1_555
Fe4 O48 1.952547 1_555
Fe4 O38 1.966999 1_555
Fe5 O17 1.982309 1_555
Fe5 O3 1.986112 1_655
Fe5 O7 2.030156 1_655
Fe5 O42 2.099180 1_545
Fe5 O4 2.121076 1_645
Fe5 O20 2.174276 1_545
Fe6 O37 2.000975 1_554
Fe6 O32 2.000975 1_555
Fe6 O46 2.007452 1_555
Fe6 O34 2.007452 1_554
Fe6 O33 2.158946 1_555
Fe6 O26 2.158946 1_554
Fe7 O50 1.982309 1_555
Fe7 O18 1.986112 1_455
Fe7 O14 2.030156 1_455
Fe7 O21 2.099180 1_565
Fe7 O9 2.121076 1_465
Fe7 O41 2.174276 1_565
Fe8 O33 1.873042 1_555
Fe8 O15 1.887241 1_555
Fe8 O47 1.952547 1_555
Fe8 O35 1.966999 1_555
Fe9 O3 1.982309 1_555
Fe9 O17 1.986112 1_555
Fe9 O31 2.030156 1_555
Fe9 O4 2.099180 1_555
Fe9 O42 2.121076 1_555
Fe9 O15 2.174276 1_555
Fe10 O36 1.982309 1_555
Fe10 O1 1.986112 1_455
Fe10 O14 2.030156 1_455
Fe10 O5 2.099180 1_565
Fe10 O23 2.121076 1_465
Fe10 O43 2.174276 1_565
Fe11 O34 2.000975 1_444
Fe11 O46 2.000975 1_555
Fe11 O32 2.007452 1_455
Fe11 O37 2.007452 1_544
Fe11 O30 2.158946 1_445
Fe11 O8 2.158946 1_554
Fe12 O26 1.873042 1_555
Fe12 O12 1.887241 1_555
Fe12 O27 1.952547 1_555
Fe12 O28 1.966999 1_555
Fe13 O30 1.873042 1_445
Fe13 O20 1.887241 1_445
Fe13 O35 1.952547 1_455
Fe13 O47 1.966999 1_555
Fe14 O8 1.873042 1_665
Fe14 O41 1.887241 1_665
Fe14 O28 1.952547 1_655
Fe14 O27 1.966999 1_555
Fe15 O11 2.000975 1_445
Fe15 O51 2.000975 1_555
Fe15 O25 2.007452 1_455
Fe15 O22 2.007452 1_545
Fe15 O45 2.158946 1_445
Fe15 O10 2.158946 1_555
Fe16 O22 2.000975 1_555
Fe16 O25 2.000975 1_555
Fe16 O51 2.007452 1_555
Fe16 O11 2.007452 1_555
Fe16 O44 2.158946 1_555
Fe16 O19 2.158946 1_555
Fe17 O10 1.873042 1_665
Fe17 O43 1.887241 1_665
Fe17 O39 1.952547 1_655
Fe17 O24 1.966999 1_555
Fe18 O40 1.982309 1_555
Fe18 O0 1.986112 1_555
Fe18 O31 2.030156 1_555
Fe18 O49 2.099180 1_555
Fe18 O29 2.121076 1_555
Fe18 O6 2.174276 1_555
Fe19 O45 1.873042 1_445
Fe19 O2 1.887241 1_445
Fe19 O38 1.952547 1_455
Fe19 O48 1.966999 1_555
O0 Y2 2.818509 1_555
O1 Y3 2.818509 1_565
O3 Y1 2.818509 1_545
O4 Y2 2.360903 1_455
O4 Y1 2.464245 1_555
O5 Y3 2.360903 1_555
O5 Y0 2.464245 1_555
O7 Y2 2.325997 1_455
O7 Y1 2.374367 1_545
O9 Y0 2.360903 1_655
O9 Y3 2.464245 1_555
O14 Y0 2.325997 1_655
O14 Y3 2.374367 1_565
O16 Y3 2.325997 1_565
O16 Y0 2.374367 1_555
O17 Y2 2.818509 1_555
O18 Y3 2.818509 1_565
O21 Y3 2.360903 1_555
O21 Y0 2.464245 1_555
O23 Y0 2.360903 1_655
O23 Y3 2.464245 1_555
O29 Y1 2.360903 1_555
O29 Y2 2.464245 1_555
O31 Y1 2.325997 1_545
O31 Y2 2.374367 1_555
O36 Y0 2.818509 1_555
O40 Y1 2.818509 1_545
O42 Y1 2.360903 1_555
O42 Y2 2.464245 1_555
O49 Y2 2.360903 1_455
O49 Y1 2.464245 1_555
O50 Y0 2.818509 1_555
