# generated using pymatgen
data_Ba2Ca2Tl2Cu3O10
_symmetry_space_group_name_H-M   'P 1'
_cell_length_a   3.88359700
_cell_length_b   3.89897249
_cell_length_c   18.76179861
_cell_angle_alpha   95.83644012
_cell_angle_beta   95.77023244
_cell_angle_gamma   89.93529747
_symmetry_Int_Tables_number   1
_chemical_formula_structural   Ba2Ca2Tl2Cu3O10
_chemical_formula_sum   'Ba2 Ca2 Tl2 Cu3 O10'
_cell_volume   281.17531968
_cell_formula_units_Z   1
loop_
 _symmetry_equiv_pos_site_id
 _symmetry_equiv_pos_as_xyz
  1  'x, y, z'
loop_
 _atom_site_type_symbol
 _atom_site_label
 _atom_site_symmetry_multiplicity
 _atom_site_fract_x
 _atom_site_fract_y
 _atom_site_fract_z
 _atom_site_occupancy
  Ba  Ba0  1  0.83090100  0.90223000  0.71836300  1
  Ba  Ba1  1  0.17453400  0.20517000  0.28271300  1
  Ca  Ca0  1  0.06967100  0.12622100  0.08982000  1
  Ca  Ca1  1  0.92965700  0.01463100  0.91156800  1
  Tl  Tl0  1  0.27672500  0.35385700  0.56273700  1
  Tl  Tl1  1  0.73047700  0.79561900  0.43802500  1
  Cu  Cu0  1  0.62052100  0.66045200  0.17251300  1
  Cu  Cu1  1  0.38150100  0.46492300  0.82868400  1
  Cu  Cu2  1  0.48713800  0.58018300  0.00006400  1
  O  O0  1  0.12334800  0.66184700  0.17746300  1
  O  O1  1  0.69392900  0.71381300  0.32686300  1
  O  O2  1  0.61710600  0.15891400  0.16965800  1
  O  O3  1  0.23456700  0.17338200  0.45089300  1
  O  O4  1  0.47649800  0.07785800  0.99341900  1
  O  O5  1  0.37810700  0.96199900  0.82320900  1
  O  O6  1  0.31350800  0.37212100  0.67381300  1
  O  O7  1  0.88284300  0.46878700  0.83211800  1
  O  O8  1  0.77131100  0.71924500  0.54964900  1
  O  O9  1  0.98969400  0.58765900  0.00746700  1
loop_
_geom_bond_atom_site_label_1
_geom_bond_atom_site_label_2
_geom_bond_distance
_geom_bond_site_symmetry_2
Ba0 O5 2.739939 1_655
Ba0 O5 2.759963 1_555
Ba0 O6 2.838675 1_565
Ba0 O7 2.845692 1_555
Ba0 O6 2.863949 1_665
Ba0 O6 2.885898 1_555
Ba0 O7 2.903610 1_565
Ba0 O6 2.904882 1_655
Ba0 O8 3.158475 1_555
Ba1 O0 2.738203 1_545
Ba1 O0 2.782924 1_555
Ba1 O1 2.833179 1_555
Ba1 O1 2.841006 1_455
Ba1 O2 2.853139 1_555
Ba1 O2 2.866685 1_455
Ba1 O1 2.898827 1_545
Ba1 O1 2.912355 1_445
Ba1 O3 3.155560 1_555
Ca0 O2 2.416422 1_455
Ca0 O2 2.470090 1_555
Ca0 O9 2.477544 1_445
Ca0 O9 2.487620 1_455
Ca0 O4 2.511495 1_554
Ca0 O0 2.518400 1_555
Ca0 O0 2.561491 1_545
Ca0 O4 2.776220 1_454
Ca1 O7 2.423250 1_555
Ca1 O4 2.445757 1_555
Ca1 O7 2.466894 1_545
Ca1 O4 2.489500 1_655
Ca1 O5 2.516753 1_645
Ca1 O9 2.566508 1_546
Ca1 O5 2.568319 1_545
Ca1 O9 2.717099 1_556
Cu0 O0 1.942331 1_555
Cu0 O0 1.945623 1_655
Cu0 O2 1.949658 1_565
Cu0 O2 1.950787 1_555
Cu1 O7 1.941616 1_555
Cu1 O7 1.944112 1_455
Cu1 O5 1.951169 1_555
Cu1 O5 1.953106 1_545
Cu2 O9 1.942722 1_555
Cu2 O4 1.950041 1_554
Cu2 O9 1.950711 1_455
Cu2 O4 1.957158 1_564
O1 Tl1 2.068065 1_555
O3 Tl0 2.134500 1_555
O3 Tl1 2.428860 1_445
O3 Tl1 2.439590 1_545
O6 Tl0 2.068442 1_555
O8 Tl1 2.135350 1_555
O8 Tl0 2.431149 1_655
O8 Tl0 2.439554 1_555
