# generated using pymatgen
data_Ca2Sn2F3
_symmetry_space_group_name_H-M   'P 1'
_cell_length_a   7.86886062
_cell_length_b   7.86886062
_cell_length_c   6.53593856
_cell_angle_alpha   85.24705868
_cell_angle_beta   85.24705868
_cell_angle_gamma   58.08667741
_symmetry_Int_Tables_number   1
_chemical_formula_structural   Ca2Sn2F3
_chemical_formula_sum   'Ca4 Sn4 F6'
_cell_volume   341.98149657
_cell_formula_units_Z   2
loop_
 _symmetry_equiv_pos_site_id
 _symmetry_equiv_pos_as_xyz
  1  'x, y, z'
loop_
 _atom_site_type_symbol
 _atom_site_label
 _atom_site_symmetry_multiplicity
 _atom_site_fract_x
 _atom_site_fract_y
 _atom_site_fract_z
 _atom_site_occupancy
  Ca  Ca0  1  0.03522100  0.52540400  0.97715800  1
  Ca  Ca1  1  0.86653100  0.86653100  0.40058200  1
  Ca  Ca2  1  0.35328600  0.35328600  0.50052000  1
  Ca  Ca3  1  0.52540400  0.03522100  0.97715800  1
  Sn  Sn0  1  0.09505600  0.09505600  0.22656200  1
  Sn  Sn1  1  0.41708100  0.80567600  0.52280800  1
  Sn  Sn2  1  0.80567600  0.41708100  0.52280800  1
  Sn  Sn3  1  0.56793900  0.56793900  0.14531500  1
  F  F0  1  0.33675500  0.33675500  0.84489400  1
  F  F1  1  0.56273300  0.15611900  0.25526100  1
  F  F2  1  0.15611900  0.56273300  0.25526100  1
  F  F3  1  0.04184200  0.63985500  0.65185200  1
  F  F4  1  0.63985500  0.04184200  0.65185200  1
  F  F5  1  0.82850200  0.82850200  0.06796700  1
loop_
_geom_bond_atom_site_label_1
_geom_bond_atom_site_label_2
_geom_bond_distance
_geom_bond_site_symmetry_2
Ca0 F5 2.158572 1_456
Ca0 F0 2.174758 1_555
Ca0 F2 2.228384 1_556
Ca0 F3 2.246856 1_555
Ca0 Sn0 3.445711 1_556
Ca0 Sn3 3.595859 1_456
Ca1 F3 2.251694 1_655
Ca1 F4 2.251694 1_565
Ca1 F5 2.283736 1_555
Ca1 F2 2.463262 1_655
Ca1 F1 2.463262 1_565
Ca1 Sn0 3.240658 1_665
Ca2 F2 2.227966 1_555
Ca2 F1 2.227966 1_555
Ca2 F0 2.240720 1_555
Ca2 F3 2.488840 1_555
Ca2 F4 2.488840 1_555
Ca2 Sn3 3.579448 1_555
Ca3 F5 2.158572 1_546
Ca3 F0 2.174758 1_555
Ca3 F1 2.228384 1_556
Ca3 F4 2.246856 1_555
Ca3 Sn0 3.445711 1_556
Ca3 Sn3 3.595859 1_546
Sn0 Sn1 3.055663 1_545
Sn0 Sn2 3.055663 1_455
Sn1 Sn3 2.987946 1_555
Sn2 Sn3 2.987946 1_555
