# generated using pymatgen
data_KCu2P2H3(O4F)2
_symmetry_space_group_name_H-M   'P 1'
_cell_length_a   5.62508531
_cell_length_b   5.62508531
_cell_length_c   7.97991221
_cell_angle_alpha   66.58478774
_cell_angle_beta   66.58478774
_cell_angle_gamma   70.50209717
_symmetry_Int_Tables_number   1
_chemical_formula_structural   KCu2P2H3(O4F)2
_chemical_formula_sum   'K1 Cu2 P2 H3 O8 F2'
_cell_volume   207.93476580
_cell_formula_units_Z   1
loop_
 _symmetry_equiv_pos_site_id
 _symmetry_equiv_pos_as_xyz
  1  'x, y, z'
loop_
 _atom_site_type_symbol
 _atom_site_label
 _atom_site_symmetry_multiplicity
 _atom_site_fract_x
 _atom_site_fract_y
 _atom_site_fract_z
 _atom_site_occupancy
  K  K0  1  0.00000000  0.00000000  0.00000000  1
  Cu  Cu0  1  0.50000000  0.00000000  0.50000000  1
  Cu  Cu1  1  0.00000000  0.50000000  0.50000000  1
  P  P0  1  0.43482800  0.43482800  0.76009000  1
  P  P1  1  0.56517200  0.56517200  0.23991000  1
  H  H0  1  0.00000000  0.00000000  0.50000000  1
  H  H1  1  0.79597200  0.79597200  0.70619700  1
  H  H2  1  0.20402800  0.20402800  0.29380300  1
  O  O0  1  0.31131100  0.31131100  0.68659200  1
  O  O1  1  0.68868900  0.68868900  0.31340800  1
  O  O2  1  0.33503100  0.73406100  0.72778300  1
  O  O3  1  0.73406100  0.33503100  0.72778300  1
  O  O4  1  0.66496900  0.26593900  0.27221700  1
  O  O5  1  0.26593900  0.66496900  0.27221700  1
  O  O6  1  0.15141400  0.15141400  0.43443700  1
  O  O7  1  0.84858600  0.84858600  0.56556300  1
  F  F0  1  0.31913000  0.31913000  0.99270000  1
  F  F1  1  0.68087000  0.68087000  0.00730000  1
loop_
_geom_bond_atom_site_label_1
_geom_bond_atom_site_label_2
_geom_bond_distance
_geom_bond_site_symmetry_2
K0 O0 2.733739 1_554
K0 O1 2.733739 1_445
K0 O4 2.820506 1_455
K0 O5 2.820506 1_545
K0 O2 2.820506 1_544
K0 O3 2.820506 1_454
Cu0 O2 1.956491 1_545
Cu0 O4 1.956491 1_555
Cu0 O7 2.047029 1_545
Cu0 O6 2.047029 1_555
Cu0 O1 2.446570 1_545
Cu0 O0 2.446570 1_555
Cu1 O3 1.956491 1_455
Cu1 O5 1.956491 1_555
Cu1 O7 2.047029 1_455
Cu1 O6 2.047029 1_555
Cu1 O0 2.446570 1_555
Cu1 O1 2.446570 1_455
H0 O6 1.224948 1_555
H0 O7 1.224948 1_445
H1 O7 0.982413 1_555
H2 O6 0.982413 1_555
O0 P0 1.509791 1_555
O1 P1 1.509791 1_555
O2 P0 1.534330 1_555
O3 P0 1.534330 1_555
O4 P1 1.534330 1_555
O5 P1 1.534330 1_555
F0 P0 1.629447 1_555
F0 K0 2.904022 1_556
F1 P1 1.629447 1_555
F1 K0 2.904022 1_665
