# generated using pymatgen
data_CaCu(GeO3)2
_symmetry_space_group_name_H-M   'P 1'
_cell_length_a   6.93759944
_cell_length_b   6.93759944
_cell_length_c   5.44908892
_cell_angle_alpha   77.22233156
_cell_angle_beta   77.22233156
_cell_angle_gamma   83.01392833
_symmetry_Int_Tables_number   1
_chemical_formula_structural   CaCu(GeO3)2
_chemical_formula_sum   'Ca2 Cu2 Ge4 O12'
_cell_volume   248.70729192
_cell_formula_units_Z   2
loop_
 _symmetry_equiv_pos_site_id
 _symmetry_equiv_pos_as_xyz
  1  'x, y, z'
loop_
 _atom_site_type_symbol
 _atom_site_label
 _atom_site_symmetry_multiplicity
 _atom_site_fract_x
 _atom_site_fract_y
 _atom_site_fract_z
 _atom_site_occupancy
  Ca  Ca0  1  0.69919500  0.30080500  0.25000000  1
  Ca  Ca1  1  0.30080500  0.69919500  0.75000000  1
  Cu  Cu0  1  0.09761100  0.90238900  0.25000000  1
  Cu  Cu1  1  0.90238900  0.09761100  0.75000000  1
  Ge  Ge0  1  0.61946000  0.81577100  0.21175100  1
  Ge  Ge1  1  0.18422900  0.38054000  0.28824900  1
  Ge  Ge2  1  0.38054000  0.18422900  0.78824900  1
  Ge  Ge3  1  0.81577100  0.61946000  0.71175100  1
  O  O0  1  0.67180700  0.61286100  0.47506800  1
  O  O1  1  0.38713900  0.32819300  0.02493200  1
  O  O2  1  0.32819300  0.38713900  0.52493200  1
  O  O3  1  0.61286100  0.67180700  0.97506800  1
  O  O4  1  0.90106100  0.38038500  0.83860000  1
  O  O5  1  0.61961500  0.09893900  0.66140000  1
  O  O6  1  0.09893900  0.61961600  0.16140000  1
  O  O7  1  0.38038500  0.90106100  0.33860000  1
  O  O8  1  0.80149700  0.98804300  0.11893100  1
  O  O9  1  0.01195700  0.19850300  0.38106900  1
  O  O10  1  0.19850300  0.01195700  0.88106900  1
  O  O11  1  0.98804300  0.80149700  0.61893100  1
loop_
_geom_bond_atom_site_label_1
_geom_bond_atom_site_label_2
_geom_bond_distance
_geom_bond_site_symmetry_2
Ca0 O5 2.354460 1_555
Ca0 O4 2.354460 1_554
Ca0 O9 2.410099 1_655
Ca0 O8 2.410099 1_545
Ca0 O0 2.682979 1_555
Ca0 O1 2.682979 1_555
Ca0 O2 2.746665 1_555
Ca0 O3 2.746665 1_554
Ca1 O6 2.354459 1_556
Ca1 O7 2.354460 1_555
Ca1 O10 2.410099 1_565
Ca1 O11 2.410099 1_455
Ca1 O3 2.682979 1_555
Ca1 O2 2.682979 1_555
Ca1 O1 2.746665 1_556
Ca1 O0 2.746665 1_555
Cu0 O10 1.985005 1_564
Cu0 O11 1.985005 1_455
Cu0 O6 2.119971 1_555
Cu0 O7 2.119978 1_555
Cu0 O8 2.290797 1_455
Cu0 O9 2.290797 1_565
Cu1 O8 1.985005 1_546
Cu1 O9 1.985005 1_655
Cu1 O5 2.119978 1_555
Cu1 O4 2.119978 1_555
Cu1 O11 2.290797 1_545
Cu1 O10 2.290797 1_655
Ge0 O7 1.736068 1_555
Ge0 O8 1.759646 1_555
Ge0 O3 1.808311 1_554
Ge0 O0 1.839830 1_555
Ge1 O6 1.736073 1_555
Ge1 O9 1.759646 1_555
Ge1 O2 1.808311 1_555
Ge1 O1 1.839830 1_555
Ge2 O5 1.736068 1_555
Ge2 O10 1.759646 1_555
Ge2 O1 1.808311 1_556
Ge2 O2 1.839830 1_555
Ge3 O4 1.736068 1_555
Ge3 O11 1.759646 1_555
Ge3 O0 1.808311 1_555
Ge3 O3 1.839830 1_555
