# generated using pymatgen
data_Cu7Hg6
_symmetry_space_group_name_H-M   'P 1'
_cell_length_a   8.92974227
_cell_length_b   8.92974227
_cell_length_c   8.92974229
_cell_angle_alpha   90.14868396
_cell_angle_beta   90.14868396
_cell_angle_gamma   90.14868658
_symmetry_Int_Tables_number   1
_chemical_formula_structural   Cu7Hg6
_chemical_formula_sum   'Cu14 Hg12'
_cell_volume   712.05309769
_cell_formula_units_Z   2
loop_
 _symmetry_equiv_pos_site_id
 _symmetry_equiv_pos_as_xyz
  1  'x, y, z'
loop_
 _atom_site_type_symbol
 _atom_site_label
 _atom_site_symmetry_multiplicity
 _atom_site_fract_x
 _atom_site_fract_y
 _atom_site_fract_z
 _atom_site_occupancy
  Cu  Cu0  1  0.33891800  0.01457200  0.01457200  1
  Cu  Cu1  1  0.09242000  0.09242000  0.09242000  1
  Cu  Cu2  1  0.17072200  0.84361400  0.17072200  1
  Cu  Cu3  1  0.28730400  0.28730400  0.08124200  1
  Cu  Cu4  1  0.89163200  0.10725800  0.89163200  1
  Cu  Cu5  1  0.84361400  0.17072200  0.17072200  1
  Cu  Cu6  1  0.01457200  0.33891800  0.01457200  1
  Cu  Cu7  1  0.10725800  0.89163200  0.89163200  1
  Cu  Cu8  1  0.89163200  0.89163200  0.10725800  1
  Cu  Cu9  1  0.01457200  0.01457200  0.33891800  1
  Cu  Cu10  1  0.83795700  0.83795700  0.83795700  1
  Cu  Cu11  1  0.28730400  0.08124200  0.28730400  1
  Cu  Cu12  1  0.08124200  0.28730400  0.28730400  1
  Cu  Cu13  1  0.17072200  0.17072200  0.84361400  1
  Hg  Hg0  1  0.34943600  0.96591800  0.69512000  1
  Hg  Hg1  1  0.66652600  0.02866800  0.66652600  1
  Hg  Hg2  1  0.96591800  0.34943600  0.69512000  1
  Hg  Hg3  1  0.62053000  0.01500300  0.01500300  1
  Hg  Hg4  1  0.96591800  0.69512000  0.34943600  1
  Hg  Hg5  1  0.66652600  0.66652600  0.02866800  1
  Hg  Hg6  1  0.69512000  0.34943600  0.96591800  1
  Hg  Hg7  1  0.34943600  0.69512000  0.96591800  1
  Hg  Hg8  1  0.01500300  0.62053000  0.01500300  1
  Hg  Hg9  1  0.01500300  0.01500300  0.62053000  1
  Hg  Hg10  1  0.69512000  0.96591800  0.34943600  1
  Hg  Hg11  1  0.02866800  0.66652600  0.66652600  1
loop_
_geom_bond_atom_site_label_1
_geom_bond_atom_site_label_2
_geom_bond_distance
_geom_bond_site_symmetry_2
Cu0 Cu1 2.413503 1_555
Cu0 Hg3 2.514708 1_555
Cu0 Cu11 2.549096 1_555
Cu0 Cu3 2.549096 1_555
Cu0 Cu2 2.557478 1_545
Cu0 Cu13 2.557478 1_554
Cu0 Cu7 2.580692 1_544
Cu0 Hg7 2.886212 1_544
Cu0 Hg0 2.886212 1_544
Cu1 Cu9 2.413503 1_555
Cu1 Cu6 2.413503 1_555
Cu1 Cu13 2.434681 1_554
Cu1 Cu2 2.434681 1_545
Cu1 Cu5 2.434681 1_455
Cu1 Cu3 2.460302 1_555
Cu1 Cu12 2.460302 1_555
Cu1 Cu11 2.460302 1_555
Cu1 Cu8 2.536322 1_445
Cu1 Cu7 2.536322 1_544
Cu1 Cu4 2.536322 1_454
Cu2 Cu9 2.557478 1_565
Cu2 Cu7 2.591443 1_554
Cu2 Cu8 2.591443 1_455
Cu2 Hg4 2.768273 1_455
Cu2 Hg7 2.768273 1_554
Cu2 Hg8 2.792267 1_555
Cu3 Cu6 2.549096 1_555
Cu4 Cu6 2.580692 1_656
Cu4 Cu5 2.591443 1_556
Cu4 Cu8 2.726577 1_546
Cu4 Cu7 2.726577 1_645
Cu4 Hg3 2.785887 1_556
Cu4 Hg9 2.785887 1_655
Cu4 Hg2 2.866085 1_555
Cu4 Hg6 2.866085 1_555
Cu4 Hg1 2.922021 1_555
Cu5 Cu6 2.557478 1_655
Cu5 Cu9 2.557478 1_655
Cu5 Cu8 2.591443 1_545
Cu5 Hg10 2.768273 1_545
Cu5 Hg6 2.768273 1_554
Cu5 Hg3 2.792267 1_555
Cu6 Hg8 2.514708 1_555
Cu6 Hg6 2.886212 1_454
Cu6 Hg2 2.886212 1_454
Cu7 Cu8 2.726577 1_456
Cu7 Hg8 2.785887 1_556
Cu7 Hg9 2.785887 1_565
Cu7 Hg0 2.866085 1_555
Cu7 Hg7 2.866085 1_555
Cu7 Hg11 2.922021 1_555
Cu8 Cu9 2.580692 1_665
Cu8 Hg8 2.785887 1_655
Cu8 Hg3 2.785887 1_565
Cu8 Hg10 2.866085 1_555
Cu8 Hg4 2.866085 1_555
Cu8 Hg5 2.922021 1_555
Cu9 Hg9 2.514708 1_555
Cu9 Hg10 2.886212 1_445
Cu9 Hg4 2.886212 1_445
Cu10 Cu4 2.495860 1_565
Cu10 Cu7 2.495860 1_655
Cu10 Cu8 2.495860 1_556
Cu10 Hg5 2.757176 1_556
Cu10 Hg1 2.757176 1_565
Cu10 Hg11 2.757176 1_655
Cu10 Hg9 2.964378 1_665
Cu10 Hg3 2.964378 1_566
Cu10 Hg8 2.964378 1_656
Cu11 Cu9 2.549096 1_555
Cu11 Cu2 2.577150 1_545
Cu11 Cu3 2.605641 1_555
Cu11 Cu12 2.605641 1_555
Cu12 Cu9 2.549096 1_555
Cu12 Cu6 2.549096 1_555
Cu12 Cu5 2.577150 1_455
Cu12 Cu3 2.605641 1_555
Cu13 Cu6 2.557478 1_556
Cu13 Cu3 2.577150 1_556
Cu13 Cu7 2.591443 1_545
Cu13 Cu4 2.591443 1_455
Cu13 Hg2 2.768273 1_455
Cu13 Hg0 2.768273 1_545
Cu13 Hg9 2.792267 1_555
Hg0 Hg1 2.897070 1_565
Hg0 Hg9 3.090686 1_565
Hg1 Hg10 2.897070 1_545
Hg1 Hg3 3.142498 1_556
Hg1 Hg9 3.142498 1_655
Hg2 Hg9 3.090686 1_655
Hg3 Hg6 3.090686 1_554
Hg3 Hg5 3.142498 1_545
Hg4 Hg8 3.090686 1_655
Hg5 Hg7 2.897070 1_554
Hg5 Hg6 2.897070 1_554
Hg5 Hg8 3.142498 1_655
Hg7 Hg8 3.090686 1_556
Hg10 Hg3 3.090686 1_565
Hg11 Hg2 2.897070 1_455
Hg11 Hg4 2.897070 1_455
Hg11 Hg8 3.142498 1_556
Hg11 Hg9 3.142498 1_565
