# generated using pymatgen
data_Ga2NiS4
_symmetry_space_group_name_H-M   'P 1'
_cell_length_a   3.64891604
_cell_length_b   3.64891604
_cell_length_c   12.52685600
_cell_angle_alpha   90.00000000
_cell_angle_beta   90.00000000
_cell_angle_gamma   120.00000075
_symmetry_Int_Tables_number   1
_chemical_formula_structural   Ga2NiS4
_chemical_formula_sum   'Ga2 Ni1 S4'
_cell_volume   144.44431542
_cell_formula_units_Z   1
loop_
 _symmetry_equiv_pos_site_id
 _symmetry_equiv_pos_as_xyz
  1  'x, y, z'
loop_
 _atom_site_type_symbol
 _atom_site_label
 _atom_site_symmetry_multiplicity
 _atom_site_fract_x
 _atom_site_fract_y
 _atom_site_fract_z
 _atom_site_occupancy
  Ga  Ga0  1  0.33333300  0.66666700  0.77039500  1
  Ga  Ga1  1  0.66666700  0.33333300  0.22960500  1
  Ni  Ni0  1  0.00000000  0.00000000  0.50000000  1
  S  S0  1  0.66666700  0.33333300  0.40723100  1
  S  S1  1  0.33333300  0.66666700  0.59276900  1
  S  S2  1  0.66666700  0.33333300  0.85398200  1
  S  S3  1  0.33333300  0.66666700  0.14601800  1
loop_
_geom_bond_atom_site_label_1
_geom_bond_atom_site_label_2
_geom_bond_distance
_geom_bond_site_symmetry_2
Ga0 S1 2.225095 1_555
Ga0 S2 2.352566 1_565
Ga0 S2 2.352566 1_455
Ga0 S2 2.352572 1_555
Ga1 S0 2.225095 1_555
Ga1 S3 2.352566 1_545
Ga1 S3 2.352566 1_655
Ga1 S3 2.352572 1_555
Ni0 S1 2.405966 1_545
Ni0 S0 2.405966 1_455
Ni0 S0 2.405969 1_445
Ni0 S1 2.405969 1_555
Ni0 S1 2.405969 1_445
Ni0 S0 2.405969 1_555
