# generated using pymatgen
data_Ta4AgS8
_symmetry_space_group_name_H-M   'P 1'
_cell_length_a   5.80279127
_cell_length_b   6.71289385
_cell_length_c   13.58555042
_cell_angle_alpha   97.03793227
_cell_angle_beta   94.26652638
_cell_angle_gamma   89.99717494
_symmetry_Int_Tables_number   1
_chemical_formula_structural   Ta4AgS8
_chemical_formula_sum   'Ta8 Ag2 S16'
_cell_volume   523.74013270
_cell_formula_units_Z   2
loop_
 _symmetry_equiv_pos_site_id
 _symmetry_equiv_pos_as_xyz
  1  'x, y, z'
loop_
 _atom_site_type_symbol
 _atom_site_label
 _atom_site_symmetry_multiplicity
 _atom_site_fract_x
 _atom_site_fract_y
 _atom_site_fract_z
 _atom_site_occupancy
  Ta  Ta0  1  0.20076890  0.06958934  0.76810414  1
  Ta  Ta1  1  0.20080482  0.56391726  0.76811153  1
  Ta  Ta2  1  0.72027112  0.31636114  0.76648416  1
  Ta  Ta3  1  0.79919518  0.43608274  0.23188847  1
  Ta  Ta4  1  0.72254640  0.81679839  0.76837407  1
  Ta  Ta5  1  0.79923110  0.93041066  0.23189586  1
  Ta  Ta6  1  0.27972888  0.68363886  0.23351584  1
  Ta  Ta7  1  0.27745360  0.18320161  0.23162593  1
  Ag  Ag0  1  0.65394416  0.25576692  0.52200093  1
  Ag  Ag1  1  0.34605584  0.74423308  0.47799907  1
  S  S0  1  0.14126572  0.96809433  0.35074501  1
  S  S1  1  0.10507457  0.90341078  0.11678780  1
  S  S2  1  0.14119773  0.45735248  0.35077444  1
  S  S3  1  0.10504298  0.40608696  0.11681609  1
  S  S4  1  0.89495702  0.59391304  0.88318391  1
  S  S5  1  0.85880227  0.54264752  0.64922556  1
  S  S6  1  0.63880504  0.21116976  0.34426454  1
  S  S7  1  0.60138216  0.15585882  0.12170856  1
  S  S8  1  0.89492543  0.09658922  0.88321220  1
  S  S9  1  0.85873428  0.03190567  0.64925499  1
  S  S10  1  0.64653205  0.71175795  0.34716838  1
  S  S11  1  0.59764048  0.65563153  0.12035214  1
  S  S12  1  0.39861784  0.84414118  0.87829144  1
  S  S13  1  0.36119496  0.78883024  0.65573546  1
  S  S14  1  0.40235952  0.34436847  0.87964786  1
  S  S15  1  0.35346795  0.28824205  0.65283162  1
loop_
_geom_bond_atom_site_label_1
_geom_bond_atom_site_label_2
_geom_bond_distance
_geom_bond_site_symmetry_2
Ag0 S6 2.391476 1_555
Ag0 S15 2.571570 1_555
Ag0 S5 2.643498 1_555
Ag0 S9 2.643871 1_555
Ag1 S13 2.391476 1_555
Ag1 S10 2.571570 1_555
Ag1 S2 2.643498 1_555
Ag1 S0 2.643871 1_555
S0 Ta5 2.456300 1_455
S0 Ta7 2.468111 1_565
S0 Ta6 2.504653 1_555
S1 Ta5 2.443671 1_455
S1 Ta7 2.451972 1_565
S1 Ta6 2.460185 1_555
S2 Ta3 2.456448 1_455
S2 Ta7 2.468297 1_555
S2 Ta6 2.505005 1_555
S3 Ta3 2.443356 1_455
S3 Ta7 2.451926 1_555
S3 Ta6 2.459619 1_555
S4 Ta1 2.443356 1_655
S4 Ta4 2.451926 1_555
S4 Ta2 2.459619 1_555
S5 Ta1 2.456448 1_655
S5 Ta4 2.468297 1_555
S5 Ta2 2.505005 1_555
S6 Ta7 2.495177 1_555
S6 Ta3 2.500593 1_555
S6 Ta5 2.501085 1_545
S7 Ta7 2.479371 1_555
S7 Ta5 2.479646 1_545
S7 Ta3 2.480184 1_555
S8 Ta0 2.443671 1_655
S8 Ta4 2.451972 1_545
S8 Ta2 2.460185 1_555
S9 Ta0 2.456300 1_655
S9 Ta4 2.468111 1_545
S9 Ta2 2.504653 1_555
S10 Ta3 2.481583 1_555
S10 Ta5 2.482321 1_555
S10 Ta6 2.527790 1_555
S11 Ta5 2.473596 1_555
S11 Ta3 2.473763 1_555
S11 Ta6 2.480573 1_555
S12 Ta4 2.479371 1_555
S12 Ta0 2.479646 1_565
S12 Ta1 2.480184 1_555
S13 Ta4 2.495177 1_555
S13 Ta1 2.500593 1_555
S13 Ta0 2.501085 1_565
S14 Ta0 2.473596 1_555
S14 Ta1 2.473763 1_555
S14 Ta2 2.480573 1_555
S15 Ta1 2.481583 1_555
S15 Ta0 2.482321 1_555
S15 Ta2 2.527790 1_555
