# generated using pymatgen
data_RbHgSbSe3
_symmetry_space_group_name_H-M   'P 1'
_cell_length_a   11.42429064
_cell_length_b   7.89683741
_cell_length_c   8.99572436
_cell_angle_alpha   73.61659097
_cell_angle_beta   90.00000000
_cell_angle_gamma   90.00000000
_symmetry_Int_Tables_number   1
_chemical_formula_structural   RbHgSbSe3
_chemical_formula_sum   'Rb4 Hg4 Sb4 Se12'
_cell_volume   778.60348451
_cell_formula_units_Z   4
loop_
 _symmetry_equiv_pos_site_id
 _symmetry_equiv_pos_as_xyz
  1  'x, y, z'
loop_
 _atom_site_type_symbol
 _atom_site_label
 _atom_site_symmetry_multiplicity
 _atom_site_fract_x
 _atom_site_fract_y
 _atom_site_fract_z
 _atom_site_occupancy
  Rb  Rb0  1  0.24302159  0.01623115  0.62050231  1
  Rb  Rb1  1  0.25697841  0.01623115  0.12050231  1
  Rb  Rb2  1  0.74302159  0.98376885  0.87949769  1
  Rb  Rb3  1  0.75697841  0.98376885  0.37949769  1
  Hg  Hg0  1  0.24964773  0.59038921  0.47843389  1
  Hg  Hg1  1  0.74964773  0.40961079  0.02156611  1
  Hg  Hg2  1  0.75035227  0.40961079  0.52156611  1
  Hg  Hg3  1  0.25035227  0.59038921  0.97843389  1
  Sb  Sb0  1  0.50026803  0.43580019  0.26694822  1
  Sb  Sb1  1  0.49973197  0.56419981  0.73305178  1
  Sb  Sb2  1  -0.00026803  0.43580019  0.76694822  1
  Sb  Sb3  1  0.00026803  0.56419981  0.23305178  1
  Se  Se0  1  0.44664317  0.77072579  0.46054306  1
  Se  Se1  1  0.94664317  0.22927421  0.03945694  1
  Se  Se2  1  0.55335683  0.22927421  0.53945694  1
  Se  Se3  1  0.05335683  0.77072579  0.96054306  1
  Se  Se4  1  0.05261219  0.77222652  0.40365094  1
  Se  Se5  1  0.55261219  0.22777348  0.09634906  1
  Se  Se6  1  0.94738781  0.22777348  0.59634906  1
  Se  Se7  1  0.22523161  0.36996818  0.78254764  1
  Se  Se8  1  0.27476839  0.36996818  0.28254764  1
  Se  Se9  1  0.77476839  0.63003182  0.21745236  1
  Se  Se10  1  0.72523161  0.63003182  0.71745236  1
  Se  Se11  1  0.44738781  0.77222652  0.90365094  1
loop_
_geom_bond_atom_site_label_1
_geom_bond_atom_site_label_2
_geom_bond_distance
_geom_bond_site_symmetry_2
Rb0 Se7 3.502351 1_555
Rb0 Se8 3.519427 1_555
Rb0 Se0 3.579707 1_545
Rb0 Se11 3.589283 1_545
Rb0 Se6 3.746992 1_455
Rb0 Se4 3.790846 1_545
Rb0 Se3 3.803294 1_545
Rb0 Se2 3.903785 1_555
Rb1 Se8 3.502351 1_555
Rb1 Se7 3.519427 1_554
Rb1 Se3 3.579707 1_544
Rb1 Se4 3.589283 1_545
Rb1 Se5 3.746992 1_555
Rb1 Se11 3.790846 1_544
Rb1 Se0 3.803294 1_545
Rb1 Se1 3.903785 1_455
Rb2 Se10 3.502351 1_555
Rb2 Se9 3.519427 1_556
Rb2 Se1 3.579707 1_566
Rb2 Se6 3.589283 1_565
Rb2 Se11 3.746992 1_555
Rb2 Se5 3.790846 1_566
Rb2 Se2 3.803294 1_565
Rb2 Se3 3.903785 1_655
Rb3 Se9 3.502351 1_555
Rb3 Se10 3.519427 1_555
Rb3 Se2 3.579707 1_565
Rb3 Se5 3.589283 1_565
Rb3 Se4 3.746992 1_655
Rb3 Se6 3.790846 1_565
Rb3 Se1 3.803294 1_565
Rb3 Se0 3.903785 1_555
Hg0 Se0 2.643773 1_555
Hg0 Se4 2.652640 1_555
Hg0 Se7 2.811667 1_555
Hg0 Se8 2.819147 1_555
Hg0 Rb0 3.920706 1_565
Hg0 Rb1 3.946480 1_565
Hg1 Se1 2.643773 1_555
Hg1 Se5 2.652640 1_555
Hg1 Se10 2.811667 1_554
Hg1 Se9 2.819147 1_555
Hg1 Rb2 3.920706 1_544
Hg1 Rb3 3.946480 1_545
Hg2 Se2 2.643773 1_555
Hg2 Se6 2.652640 1_555
Hg2 Se9 2.811667 1_555
Hg2 Se10 2.819147 1_555
Hg2 Rb3 3.920706 1_545
Hg2 Rb2 3.946480 1_545
Hg3 Se3 2.643773 1_555
Hg3 Se11 2.652640 1_555
Hg3 Se8 2.811667 1_556
Hg3 Se7 2.819147 1_555
Hg3 Rb1 3.920706 1_566
Hg3 Rb0 3.946480 1_565
Sb0 Se2 2.604174 1_555
Sb0 Se5 2.614122 1_555
Sb0 Se8 2.624017 1_555
Sb1 Se0 2.604174 1_555
Sb1 Se11 2.614122 1_555
Sb1 Se10 2.624017 1_555
Sb2 Se1 2.604174 1_456
Sb2 Se6 2.614122 1_455
Sb2 Se7 2.624017 1_555
Sb3 Se3 2.604174 1_554
Sb3 Se4 2.614122 1_555
Sb3 Se9 2.624017 1_455
