# generated using pymatgen
data_Ni(HO)2
_symmetry_space_group_name_H-M   'P 1'
_cell_length_a   3.34115602
_cell_length_b   3.34115602
_cell_length_c   4.39649200
_cell_angle_alpha   90.00000000
_cell_angle_beta   90.00000000
_cell_angle_gamma   120.00000045
_symmetry_Int_Tables_number   1
_chemical_formula_structural   Ni(HO)2
_chemical_formula_sum   'Ni1 H2 O2'
_cell_volume   42.50406136
_cell_formula_units_Z   1
loop_
 _symmetry_equiv_pos_site_id
 _symmetry_equiv_pos_as_xyz
  1  'x, y, z'
loop_
 _atom_site_type_symbol
 _atom_site_label
 _atom_site_symmetry_multiplicity
 _atom_site_fract_x
 _atom_site_fract_y
 _atom_site_fract_z
 _atom_site_occupancy
  Ni  Ni0  1  0.33333300  0.66666700  0.98853900  1
  H  H0  1  0.00000000  0.00000000  0.01702600  1
  H  H1  1  0.66666700  0.33333300  0.43025600  1
  O  O0  1  0.00000000  0.00000000  0.79065800  1
  O  O1  1  0.66666700  0.33333300  0.20725700  1
loop_
_geom_bond_atom_site_label_1
_geom_bond_atom_site_label_2
_geom_bond_distance
_geom_bond_site_symmetry_2
Ni0 O0 2.116121 1_565
Ni0 O0 2.116124 1_665
Ni0 O0 2.116124 1_555
Ni0 O1 2.155402 1_456
Ni0 O1 2.155402 1_566
Ni0 O1 2.155408 1_556
H0 O0 0.995225 1_554
H0 Ni0 1.933077 1_544
H0 Ni0 1.933080 1_554
H0 Ni0 1.933080 1_444
H1 O1 0.980413 1_555
