# generated using pymatgen
data_EuPaO4
_symmetry_space_group_name_H-M   'P 1'
_cell_length_a   6.61650900
_cell_length_b   6.61650066
_cell_length_c   6.61650484
_cell_angle_alpha   131.51881803
_cell_angle_beta   131.51884097
_cell_angle_gamma   70.98999980
_symmetry_Int_Tables_number   1
_chemical_formula_structural   EuPaO4
_chemical_formula_sum   'Eu2 Pa2 O8'
_cell_volume   159.01252243
_cell_formula_units_Z   2
loop_
 _symmetry_equiv_pos_site_id
 _symmetry_equiv_pos_as_xyz
  1  'x, y, z'
loop_
 _atom_site_type_symbol
 _atom_site_label
 _atom_site_symmetry_multiplicity
 _atom_site_fract_x
 _atom_site_fract_y
 _atom_site_fract_z
 _atom_site_occupancy
  Eu  Eu0  1  0.49999900  0.50000000  0.99999900  1
  Eu  Eu1  1  0.25000100  0.75000000  0.50000100  1
  Pa  Pa0  1  -0.00000000  -0.00000000  -0.00000000  1
  Pa  Pa1  1  0.75000000  0.25000000  0.50000000  1
  O  O0  1  0.37500000  0.35884856  0.48384856  1
  O  O1  1  0.87500000  0.89115244  0.51615244  1
  O  O2  1  0.10884856  0.12500000  0.48384756  1
  O  O3  1  0.64115144  0.12500000  0.01615244  1
  O  O4  1  0.87500000  0.35884756  0.98384756  1
  O  O5  1  0.64115144  0.62500000  0.51615144  1
  O  O6  1  0.10884856  0.62500000  0.98384856  1
  O  O7  1  0.37500000  0.89115144  0.01615144  1
loop_
_geom_bond_atom_site_label_1
_geom_bond_atom_site_label_2
_geom_bond_distance
_geom_bond_site_symmetry_2
Eu0 O7 2.397815 1_556
Eu0 O0 2.397818 1_555
Eu0 O6 2.397818 1_555
Eu0 O2 2.397820 1_555
Eu0 O5 2.397824 1_556
Eu0 O3 2.397825 1_556
Eu0 O4 2.397828 1_555
Eu0 O1 2.397829 1_556
Eu1 O0 2.397815 1_555
Eu1 O7 2.397818 1_556
Eu1 O5 2.397818 1_555
Eu1 O3 2.397820 1_566
Eu1 O6 2.397824 1_554
Eu1 O2 2.397825 1_565
Eu1 O1 2.397828 1_455
Eu1 O4 2.397829 1_454
O0 Pa1 2.296255 1_555
O0 Pa0 2.296256 1_555
O1 Pa1 2.296249 1_565
O1 Pa0 2.296251 1_666
O2 Pa0 2.296248 1_555
O2 Pa1 2.296258 1_455
O3 Pa1 2.296248 1_555
O3 Pa0 2.296258 1_655
O4 Pa0 2.296249 1_656
O4 Pa1 2.296251 1_555
O5 Pa1 2.296252 1_555
O5 Pa0 2.296256 1_666
O6 Pa0 2.296252 1_566
O6 Pa1 2.296256 1_455
O7 Pa0 2.296255 1_565
O7 Pa1 2.296256 1_565
