# generated using pymatgen
data_Ba2Li(BO2)5
_symmetry_space_group_name_H-M   'P 1'
_cell_length_a   14.87434300
_cell_length_b   4.46781400
_cell_length_c   6.77672064
_cell_angle_alpha   75.77540141
_cell_angle_beta   90.00000000
_cell_angle_gamma   90.00000000
_symmetry_Int_Tables_number   1
_chemical_formula_structural   Ba2Li(BO2)5
_chemical_formula_sum   'Ba4 Li2 B10 O20'
_cell_volume   436.54454777
_cell_formula_units_Z   2
loop_
 _symmetry_equiv_pos_site_id
 _symmetry_equiv_pos_as_xyz
  1  'x, y, z'
loop_
 _atom_site_type_symbol
 _atom_site_label
 _atom_site_symmetry_multiplicity
 _atom_site_fract_x
 _atom_site_fract_y
 _atom_site_fract_z
 _atom_site_occupancy
  Ba  Ba0  1  0.91302300  0.33387800  0.80184900  1
  Ba  Ba1  1  0.41302300  0.66612200  0.19815100  1
  Ba  Ba2  1  0.08697700  0.66612200  0.19815100  1
  Ba  Ba3  1  0.58697700  0.33387800  0.80184900  1
  Li  Li0  1  0.75000000  0.99096100  0.52100600  1
  Li  Li1  1  0.25000000  0.00903900  0.47899400  1
  B  B0  1  0.16461800  0.43792700  0.68022300  1
  B  B1  1  0.66461800  0.56207300  0.31977700  1
  B  B2  1  0.83538200  0.56207300  0.31977700  1
  B  B3  1  0.33538200  0.43792700  0.68022300  1
  B  B4  1  0.75000000  0.77159400  0.99488900  1
  B  B5  1  0.25000000  0.22840600  0.00511100  1
  B  B6  1  0.91915100  0.05041700  0.31968200  1
  B  B7  1  0.41915100  0.94958300  0.68031800  1
  B  B8  1  0.08084900  0.94958300  0.68031800  1
  B  B9  1  0.58084900  0.05041700  0.31968200  1
  O  O0  1  0.91093600  0.72531200  0.39369300  1
  O  O1  1  0.41093600  0.27468800  0.60630700  1
  O  O2  1  0.08906400  0.27468800  0.60630700  1
  O  O3  1  0.58906400  0.72531200  0.39369300  1
  O  O4  1  0.75000000  0.62257500  0.41248300  1
  O  O5  1  0.25000000  0.37742500  0.58751700  1
  O  O6  1  0.75000000  0.96082700  0.80609500  1
  O  O7  1  0.25000000  0.03917300  0.19390500  1
  O  O8  1  0.51384400  0.17000700  0.19103300  1
  O  O9  1  0.01384400  0.82999300  0.80896700  1
  O  O10  1  0.48615600  0.82999300  0.80896700  1
  O  O11  1  0.98615600  0.17000700  0.19103300  1
  O  O12  1  0.64555200  0.22367400  0.39117800  1
  O  O13  1  0.14555200  0.77632600  0.60882200  1
  O  O14  1  0.35444800  0.77632600  0.60882200  1
  O  O15  1  0.85444800  0.22367400  0.39117800  1
  O  O16  1  0.66876300  0.66823600  0.09347700  1
  O  O17  1  0.16876300  0.33176400  0.90652300  1
  O  O18  1  0.33123700  0.33176400  0.90652300  1
  O  O19  1  0.83123700  0.66823600  0.09347700  1
loop_
_geom_bond_atom_site_label_1
_geom_bond_atom_site_label_2
_geom_bond_distance
_geom_bond_site_symmetry_2
Ba0 O9 2.686429 1_655
Ba0 O9 2.695568 1_645
Ba0 O11 2.779609 1_556
Ba0 O0 2.886646 1_555
Ba0 O6 2.938566 1_545
Ba0 O2 2.975675 1_655
Ba0 O19 3.011322 1_556
Ba0 O15 3.069210 1_555
Ba1 O8 2.686429 1_555
Ba1 O8 2.695568 1_565
Ba1 O10 2.779609 1_554
Ba1 O1 2.886646 1_555
Ba1 O7 2.938566 1_565
Ba1 O3 2.975675 1_555
Ba1 O18 3.011322 1_554
Ba1 O14 3.069210 1_555
Ba2 O11 2.686429 1_455
Ba2 O11 2.695568 1_465
Ba2 O9 2.779609 1_554
Ba2 O2 2.886646 1_555
Ba2 O7 2.938566 1_565
Ba2 O0 2.975675 1_455
Ba2 O17 3.011322 1_554
Ba2 O13 3.069210 1_555
Ba3 O10 2.686429 1_555
Ba3 O10 2.695568 1_545
Ba3 O8 2.779609 1_556
Ba3 O3 2.886646 1_555
Ba3 O6 2.938566 1_545
Ba3 O1 2.975675 1_555
Ba3 O16 3.011322 1_556
Ba3 O12 3.069210 1_555
Li0 O6 1.903365 1_555
Li0 O15 1.954273 1_565
Li0 O12 1.954273 1_565
Li0 O4 1.960776 1_555
Li1 O7 1.903365 1_555
Li1 O14 1.954273 1_545
Li1 O13 1.954273 1_545
Li1 O5 1.960776 1_555
B0 O5 1.471094 1_555
B0 O17 1.491021 1_555
B0 O2 1.491750 1_555
B0 O13 1.496958 1_555
B1 O4 1.471094 1_555
B1 O16 1.491021 1_555
B1 O3 1.491750 1_555
B1 O12 1.496958 1_555
B2 O4 1.471094 1_555
B2 O19 1.491021 1_555
B2 O0 1.491750 1_555
B2 O15 1.496958 1_555
B3 O5 1.471094 1_555
B3 O18 1.491021 1_555
B3 O1 1.491750 1_555
B3 O14 1.496958 1_555
B4 O6 1.349105 1_555
B4 O16 1.402886 1_556
B4 O19 1.402886 1_556
B5 O7 1.349105 1_555
B5 O18 1.402886 1_554
B5 O17 1.402886 1_554
B6 O11 1.345343 1_555
B6 O15 1.394456 1_555
B6 O0 1.420649 1_545
B7 O10 1.345343 1_555
B7 O14 1.394456 1_555
B7 O1 1.420649 1_565
B8 O9 1.345343 1_555
B8 O13 1.394456 1_555
B8 O2 1.420649 1_565
B9 O8 1.345343 1_555
B9 O12 1.394456 1_555
B9 O3 1.420649 1_545
