# generated using pymatgen
data_Ni(PO3)4
_symmetry_space_group_name_H-M   'P 1'
_cell_length_a   7.29728427
_cell_length_b   7.29728427
_cell_length_c   9.72772164
_cell_angle_alpha   69.36021064
_cell_angle_beta   69.36021064
_cell_angle_gamma   70.78910828
_symmetry_Int_Tables_number   1
_chemical_formula_structural   Ni(PO3)4
_chemical_formula_sum   'Ni2 P8 O24'
_cell_volume   441.06389785
_cell_formula_units_Z   2
loop_
 _symmetry_equiv_pos_site_id
 _symmetry_equiv_pos_as_xyz
  1  'x, y, z'
loop_
 _atom_site_type_symbol
 _atom_site_label
 _atom_site_symmetry_multiplicity
 _atom_site_fract_x
 _atom_site_fract_y
 _atom_site_fract_z
 _atom_site_occupancy
  Ni  Ni0  1  0.00000000  0.50000000  0.00000000  1
  Ni  Ni1  1  0.50000000  0.00000000  0.50000000  1
  P  P0  1  0.30767600  0.31794900  0.69345600  1
  P  P1  1  0.72482600  0.27039400  0.97114800  1
  P  P2  1  0.31794900  0.30767600  0.19345600  1
  P  P3  1  0.68205100  0.69232400  0.80654400  1
  P  P4  1  0.27517400  0.72960600  0.02885200  1
  P  P5  1  0.72960600  0.27517400  0.52885200  1
  P  P6  1  0.27039400  0.72482600  0.47114800  1
  P  P7  1  0.69232400  0.68205100  0.30654400  1
  O  O0  1  0.67170200  0.80693700  0.64928600  1
  O  O1  1  0.10257100  0.85470400  0.39937900  1
  O  O2  1  0.31598700  0.12740600  0.65910400  1
  O  O3  1  0.33179900  0.80429400  0.56918400  1
  O  O4  1  0.53308900  0.33921300  0.66111100  1
  O  O5  1  0.89742900  0.14529600  0.60062100  1
  O  O6  1  0.19306300  0.32829800  0.85071400  1
  O  O7  1  0.19570600  0.66820100  0.93081600  1
  O  O8  1  0.51100400  0.21790400  0.07029000  1
  O  O9  1  0.66078700  0.46691100  0.83888900  1
  O  O10  1  0.87259400  0.68401300  0.84089600  1
  O  O11  1  0.48899600  0.78209600  0.92971000  1
  O  O12  1  0.32829800  0.19306300  0.35071400  1
  O  O13  1  0.80693700  0.67170200  0.14928600  1
  O  O14  1  0.46691100  0.66078700  0.33888900  1
  O  O15  1  0.33921300  0.53308900  0.16111100  1
  O  O16  1  0.14529600  0.89742900  0.10062100  1
  O  O17  1  0.80429400  0.33179900  0.06918400  1
  O  O18  1  0.85470400  0.10257100  0.89937900  1
  O  O19  1  0.68401300  0.87259400  0.34089600  1
  O  O20  1  0.12740600  0.31598700  0.15910400  1
  O  O21  1  0.78209600  0.48899600  0.42971000  1
  O  O22  1  0.21790400  0.51100400  0.57029000  1
  O  O23  1  0.66820100  0.19570600  0.43081600  1
loop_
_geom_bond_atom_site_label_1
_geom_bond_atom_site_label_2
_geom_bond_distance
_geom_bond_site_symmetry_2
Ni0 O10 1.946951 1_454
Ni0 O20 1.946951 1_555
Ni0 O7 1.972976 1_554
Ni0 O17 1.972976 1_455
Ni0 O6 2.083839 1_554
Ni0 O13 2.083839 1_455
Ni1 O19 1.946951 1_545
Ni1 O2 1.946951 1_555
Ni1 O23 1.972976 1_555
Ni1 O3 1.972976 1_545
Ni1 O0 2.083839 1_545
Ni1 O12 2.083839 1_555
O0 P3 1.477591 1_555
O1 P6 1.502625 1_555
O2 P0 1.518706 1_555
O3 P6 1.519438 1_555
O4 P0 1.611665 1_555
O4 P5 1.616255 1_555
O5 P5 1.502625 1_555
O6 P0 1.477591 1_555
O7 P4 1.519438 1_556
O8 P1 1.607311 1_554
O8 P2 1.614111 1_555
O9 P3 1.611665 1_555
O9 P1 1.616255 1_555
O10 P3 1.518706 1_555
O11 P4 1.607311 1_556
O11 P3 1.614111 1_555
O12 P2 1.477591 1_555
O13 P7 1.477591 1_555
O14 P7 1.611665 1_555
O14 P6 1.616255 1_555
O15 P2 1.611665 1_555
O15 P4 1.616255 1_555
O16 P4 1.502625 1_555
O17 P1 1.519438 1_554
O18 P1 1.502625 1_555
O19 P7 1.518706 1_555
O20 P2 1.518706 1_555
O21 P5 1.607311 1_555
O21 P7 1.614111 1_555
O22 P6 1.607311 1_555
O22 P0 1.614111 1_555
O23 P5 1.519438 1_555
