# generated using pymatgen
data_SnPO4
_symmetry_space_group_name_H-M   'P 1'
_cell_length_a   8.13162805
_cell_length_b   8.13162805
_cell_length_c   9.70867086
_cell_angle_alpha   89.73943568
_cell_angle_beta   89.73943568
_cell_angle_gamma   117.57546657
_symmetry_Int_Tables_number   1
_chemical_formula_structural   SnPO4
_chemical_formula_sum   'Sn6 P6 O24'
_cell_volume   569.02157238
_cell_formula_units_Z   6
loop_
 _symmetry_equiv_pos_site_id
 _symmetry_equiv_pos_as_xyz
  1  'x, y, z'
loop_
 _atom_site_type_symbol
 _atom_site_label
 _atom_site_symmetry_multiplicity
 _atom_site_fract_x
 _atom_site_fract_y
 _atom_site_fract_z
 _atom_site_occupancy
  Sn  Sn0  1  0.99335800  0.37879400  0.54782400  1
  Sn  Sn1  1  0.41655800  0.01032600  0.54049100  1
  Sn  Sn2  1  0.65580600  0.58044600  0.53661100  1
  Sn  Sn3  1  0.37879400  0.99335800  0.04782400  1
  Sn  Sn4  1  0.01032600  0.41655800  0.04049100  1
  Sn  Sn5  1  0.58044600  0.65580600  0.03661100  1
  P  P0  1  0.35189100  0.64730900  0.33122300  1
  P  P1  1  0.98584000  0.00078200  0.96676500  1
  P  P2  1  0.35880900  0.64584600  0.73961700  1
  P  P3  1  0.64584600  0.35880900  0.23961700  1
  P  P4  1  0.64730900  0.35189100  0.83122300  1
  P  P5  1  0.00078200  0.98584000  0.46676500  1
  O  O0  1  0.98562600  0.97749800  0.31322300  1
  O  O1  1  0.32358200  0.81714000  0.36642700  1
  O  O2  1  0.20280100  0.08223000  0.52540400  1
  O  O3  1  0.44946000  0.21034600  0.19975000  1
  O  O4  1  0.79374800  0.29891100  0.19838700  1
  O  O5  1  0.55034700  0.69248400  0.67455600  1
  O  O6  1  0.18244100  0.46366800  0.37192200  1
  O  O7  1  0.08223000  0.20280100  0.02540400  1
  O  O8  1  0.38294300  0.65369500  0.90121400  1
  O  O9  1  0.81714000  0.32358200  0.86642700  1
  O  O10  1  0.64504700  0.37654100  0.66910300  1
  O  O11  1  0.21034600  0.44946000  0.69975000  1
  O  O12  1  0.53435900  0.66638900  0.39322000  1
  O  O13  1  0.91252000  0.78218900  0.53494300  1
  O  O14  1  0.09206900  0.89818200  0.03012500  1
  O  O15  1  0.89818200  0.09206900  0.53012500  1
  O  O16  1  0.37654100  0.64504700  0.16910300  1
  O  O17  1  0.66638900  0.53435900  0.89322000  1
  O  O18  1  0.29891100  0.79374800  0.69838700  1
  O  O19  1  0.46366800  0.18244100  0.87192200  1
  O  O20  1  0.97749800  0.98562600  0.81322300  1
  O  O21  1  0.65369500  0.38294300  0.40121400  1
  O  O22  1  0.69248400  0.55034700  0.17455600  1
  O  O23  1  0.78218900  0.91252000  0.03494300  1
loop_
_geom_bond_atom_site_label_1
_geom_bond_atom_site_label_2
_geom_bond_distance
_geom_bond_site_symmetry_2
O0 P5 1.495591 1_655
O1 P0 1.541064 1_555
O1 Sn1 2.198048 1_565
O2 P5 1.567653 1_545
O2 Sn1 2.080171 1_555
O3 P3 1.543511 1_555
O3 Sn3 2.170674 1_545
O4 P3 1.543908 1_555
O4 Sn4 2.183806 1_655
O5 P2 1.552635 1_555
O5 Sn2 2.020648 1_555
O6 P0 1.539273 1_555
O6 Sn0 2.177114 1_455
O7 P1 1.567653 1_454
O7 Sn4 2.080171 1_555
O8 P2 1.579913 1_555
O8 Sn5 2.073995 1_556
O9 P4 1.541064 1_555
O9 Sn4 2.198048 1_656
O10 P4 1.587043 1_555
O10 Sn2 2.063196 1_555
O11 P2 1.543511 1_555
O11 Sn0 2.170674 1_455
O12 P0 1.543941 1_555
O12 Sn2 2.011058 1_555
O13 P5 1.606533 1_655
O13 Sn2 1.969279 1_555
O14 P1 1.577352 1_464
O14 Sn3 2.097334 1_555
O15 P5 1.577352 1_645
O15 Sn0 2.097334 1_555
O16 P0 1.587043 1_555
O16 Sn5 2.063196 1_555
O17 P4 1.543941 1_555
O17 Sn5 2.011058 1_556
O18 P2 1.543908 1_555
O18 Sn1 2.183806 1_565
O19 P4 1.539273 1_555
O19 Sn3 2.177114 1_546
O20 P1 1.495591 1_565
O21 P3 1.579913 1_555
O21 Sn2 2.073995 1_555
O22 P3 1.552635 1_555
O22 Sn5 2.020648 1_555
O23 P1 1.606533 1_564
O23 Sn5 1.969279 1_555
