# generated using pymatgen
data_La2Th8O19
_symmetry_space_group_name_H-M   'P 1'
_cell_length_a   3.98048000
_cell_length_b   3.98048000
_cell_length_c   28.23808400
_cell_angle_alpha   90.00000000
_cell_angle_beta   90.00000000
_cell_angle_gamma   90.00000000
_symmetry_Int_Tables_number   1
_chemical_formula_structural   La2Th8O19
_chemical_formula_sum   'La2 Th8 O19'
_cell_volume   447.41044437
_cell_formula_units_Z   1
loop_
 _symmetry_equiv_pos_site_id
 _symmetry_equiv_pos_as_xyz
  1  'x, y, z'
loop_
 _atom_site_type_symbol
 _atom_site_label
 _atom_site_symmetry_multiplicity
 _atom_site_fract_x
 _atom_site_fract_y
 _atom_site_fract_z
 _atom_site_occupancy
  La  La0  1  0.50000000  0.00000000  0.94406600  1
  La  La1  1  0.00000000  0.50000000  0.05593400  1
  Th  Th0  1  0.50000000  0.00000000  0.15079700  1
  Th  Th1  1  0.00000000  0.50000000  0.24997300  1
  Th  Th2  1  0.50000000  0.00000000  0.34988800  1
  Th  Th3  1  0.00000000  0.50000000  0.44999200  1
  Th  Th4  1  0.50000000  0.00000000  0.55000800  1
  Th  Th5  1  0.00000000  0.50000000  0.65011200  1
  Th  Th6  1  0.50000000  0.00000000  0.75002700  1
  Th  Th7  1  0.00000000  0.50000000  0.84920300  1
  O  O0  1  0.50000000  0.50000000  0.19897400  1
  O  O1  1  0.00000000  0.00000000  0.30031500  1
  O  O2  1  0.50000000  0.50000000  0.39972800  1
  O  O3  1  0.00000000  0.00000000  0.50000000  1
  O  O4  1  0.50000000  0.50000000  0.60027200  1
  O  O5  1  0.00000000  0.00000000  0.69968500  1
  O  O6  1  0.50000000  0.50000000  0.80102600  1
  O  O7  1  0.00000000  0.00000000  0.89509200  1
  O  O8  1  0.00000000  0.00000000  0.79842200  1
  O  O9  1  0.50000000  0.50000000  0.90246700  1
  O  O10  1  0.00000000  0.00000000  0.00000000  1
  O  O11  1  0.00000000  0.00000000  0.10490800  1
  O  O12  1  0.50000000  0.50000000  0.09753300  1
  O  O13  1  0.00000000  0.00000000  0.20157800  1
  O  O14  1  0.50000000  0.50000000  0.29943200  1
  O  O15  1  0.00000000  0.00000000  0.39989300  1
  O  O16  1  0.50000000  0.50000000  0.50000000  1
  O  O17  1  0.00000000  0.00000000  0.60010700  1
  O  O18  1  0.50000000  0.50000000  0.70056800  1
loop_
_geom_bond_atom_site_label_1
_geom_bond_atom_site_label_2
_geom_bond_distance
_geom_bond_site_symmetry_2
La0 O9 2.311043 1_545
La0 O9 2.311043 1_555
La0 O7 2.423542 1_555
La0 O7 2.423542 1_655
La0 O10 2.540822 1_656
La0 O10 2.540822 1_556
La1 O12 2.311043 1_455
La1 O12 2.311043 1_555
La1 O11 2.423542 1_555
La1 O11 2.423542 1_565
La1 O10 2.540822 1_555
La1 O10 2.540822 1_565
O0 Th0 2.410771 1_555
O0 Th0 2.410771 1_565
O0 Th1 2.456620 1_655
O0 Th1 2.456620 1_555
O1 Th2 2.433234 1_455
O1 Th2 2.433234 1_555
O1 Th1 2.445791 1_545
O1 Th1 2.445791 1_555
O2 Th2 2.437579 1_555
O2 Th2 2.437579 1_565
O2 Th3 2.444511 1_655
O2 Th3 2.444511 1_555
O3 Th4 2.440321 1_455
O3 Th4 2.440321 1_555
O3 Th3 2.440321 1_545
O3 Th3 2.440321 1_555
O4 Th5 2.437579 1_555
O4 Th5 2.437579 1_655
O4 Th4 2.444511 1_555
O4 Th4 2.444511 1_565
O5 Th5 2.433234 1_545
O5 Th5 2.433234 1_555
O5 Th6 2.445791 1_555
O5 Th6 2.445791 1_455
O6 Th7 2.410771 1_655
O6 Th7 2.410771 1_555
O6 Th6 2.456620 1_555
O6 Th6 2.456620 1_565
O7 Th7 2.374910 1_545
O7 Th7 2.374910 1_555
O8 Th6 2.414250 1_455
O8 Th6 2.414250 1_555
O8 Th7 2.453017 1_545
O8 Th7 2.453017 1_555
O9 Th7 2.494653 1_655
O9 Th7 2.494653 1_555
O11 Th0 2.374910 1_455
O11 Th0 2.374910 1_555
O12 Th0 2.494653 1_555
O12 Th0 2.494653 1_565
O13 Th1 2.414250 1_545
O13 Th1 2.414250 1_555
O13 Th0 2.453017 1_455
O13 Th0 2.453017 1_555
O14 Th1 2.431383 1_655
O14 Th1 2.431383 1_555
O14 Th2 2.447663 1_565
O14 Th2 2.447663 1_555
O15 Th2 2.440272 1_455
O15 Th2 2.440272 1_555
O15 Th3 2.441809 1_555
O15 Th3 2.441809 1_545
O16 Th4 2.440321 1_565
O16 Th4 2.440321 1_555
O16 Th3 2.440321 1_655
O16 Th3 2.440321 1_555
O17 Th5 2.440272 1_545
O17 Th5 2.440272 1_555
O17 Th4 2.441809 1_455
O17 Th4 2.441809 1_555
O18 Th6 2.431383 1_555
O18 Th6 2.431383 1_565
O18 Th5 2.447663 1_655
O18 Th5 2.447663 1_555
