# generated using pymatgen
data_Ag2S
_symmetry_space_group_name_H-M   'P 1'
_cell_length_a   7.40179500
_cell_length_b   4.36113600
_cell_length_c   8.14957718
_cell_angle_alpha   69.61127955
_cell_angle_beta   90.00000000
_cell_angle_gamma   90.00000000
_symmetry_Int_Tables_number   1
_chemical_formula_structural   Ag2S
_chemical_formula_sum   'Ag8 S4'
_cell_volume   246.58906749
_cell_formula_units_Z   4
loop_
 _symmetry_equiv_pos_site_id
 _symmetry_equiv_pos_as_xyz
  1  'x, y, z'
loop_
 _atom_site_type_symbol
 _atom_site_label
 _atom_site_symmetry_multiplicity
 _atom_site_fract_x
 _atom_site_fract_y
 _atom_site_fract_z
 _atom_site_occupancy
  Ag  Ag0  1  0.50881300  0.47745700  0.79358700  1
  Ag  Ag1  1  0.49118700  0.52254300  0.20641300  1
  Ag  Ag2  1  0.69302900  0.85532900  0.44290900  1
  Ag  Ag3  1  0.00881300  0.52254300  0.70641300  1
  Ag  Ag4  1  0.99118700  0.47745700  0.29358700  1
  Ag  Ag5  1  0.30697100  0.14467100  0.55709100  1
  Ag  Ag6  1  0.80697100  0.85532900  0.94290900  1
  Ag  Ag7  1  0.19302900  0.14467100  0.05709100  1
  S  S0  1  0.76334400  0.26030900  0.14053900  1
  S  S1  1  0.26334400  0.73969100  0.35946100  1
  S  S2  1  0.23665600  0.73969100  0.85946100  1
  S  S3  1  0.73665600  0.26030900  0.64053900  1
loop_
_geom_bond_atom_site_label_1
_geom_bond_atom_site_label_2
_geom_bond_distance
_geom_bond_site_symmetry_2
Ag0 S2 2.466153 1_555
Ag0 S3 2.473794 1_555
Ag1 S0 2.466153 1_555
Ag1 S1 2.473794 1_555
Ag2 S0 2.535739 1_565
Ag2 S3 2.553431 1_555
Ag2 S3 2.792799 1_565
Ag3 S3 2.466153 1_455
Ag3 S2 2.473794 1_555
Ag4 S1 2.466153 1_655
Ag4 S0 2.473794 1_555
Ag5 S2 2.535739 1_545
Ag5 S1 2.553431 1_555
Ag5 S1 2.792799 1_545
Ag6 S3 2.535739 1_565
Ag6 S0 2.553431 1_556
Ag6 S0 2.792799 1_566
Ag7 S1 2.535739 1_545
Ag7 S2 2.553431 1_554
Ag7 S2 2.792799 1_544
