# generated using pymatgen
data_Lu5(In2Ni)2
_symmetry_space_group_name_H-M   'P 1'
_cell_length_a   7.04157198
_cell_length_b   15.54535284
_cell_length_c   34.96019990
_cell_angle_alpha   90.00000000
_cell_angle_beta   90.00000000
_cell_angle_gamma   90.00000000
_symmetry_Int_Tables_number   1
_chemical_formula_structural   Lu5(In2Ni)2
_chemical_formula_sum   'Lu80 In64 Ni32'
_cell_volume   3826.87356717
_cell_formula_units_Z   16
loop_
 _symmetry_equiv_pos_site_id
 _symmetry_equiv_pos_as_xyz
  1  'x, y, z'
loop_
 _atom_site_type_symbol
 _atom_site_label
 _atom_site_symmetry_multiplicity
 _atom_site_fract_x
 _atom_site_fract_y
 _atom_site_fract_z
 _atom_site_occupancy
  Lu  Lu0_0  1  0.00000000  0.44257204  0.04411458  1
  Lu  Lu0_1  1  0.00000000  0.44257204  0.54411458  1
  Lu  Lu0_2  1  0.00000000  0.94257203  0.04411458  1
  Lu  Lu0_3  1  0.00000000  0.94257203  0.54411458  1
  Lu  Lu0_4  1  0.50000000  0.44257204  0.04411458  1
  Lu  Lu0_5  1  0.50000000  0.44257204  0.54411458  1
  Lu  Lu0_6  1  0.50000000  0.94257203  0.04411458  1
  Lu  Lu0_7  1  0.50000000  0.94257203  0.54411458  1
  Lu  Lu1_0  1  0.00000000  0.37713501  0.13950276  1
  Lu  Lu1_1  1  0.00000000  0.37713501  0.63950276  1
  Lu  Lu1_2  1  0.00000000  0.87713502  0.13950276  1
  Lu  Lu1_3  1  0.00000000  0.87713502  0.63950276  1
  Lu  Lu1_4  1  0.50000000  0.37713501  0.13950276  1
  Lu  Lu1_5  1  0.50000000  0.37713501  0.63950276  1
  Lu  Lu1_6  1  0.50000000  0.87713502  0.13950276  1
  Lu  Lu1_7  1  0.50000000  0.87713502  0.63950276  1
  Lu  Lu2_0  1  0.00000000  0.37286498  0.38950276  1
  Lu  Lu2_1  1  0.00000000  0.37286498  0.88950276  1
  Lu  Lu2_2  1  0.00000000  0.87286498  0.38950276  1
  Lu  Lu2_3  1  0.00000000  0.87286498  0.88950276  1
  Lu  Lu2_4  1  0.50000000  0.37286498  0.38950276  1
  Lu  Lu2_5  1  0.50000000  0.37286498  0.88950276  1
  Lu  Lu2_6  1  0.50000000  0.87286498  0.38950276  1
  Lu  Lu2_7  1  0.50000000  0.87286498  0.88950276  1
  Lu  Lu3_0  1  0.00000000  0.19257204  0.20588542  1
  Lu  Lu3_1  1  0.00000000  0.19257204  0.70588542  1
  Lu  Lu3_2  1  0.00000000  0.69257203  0.20588542  1
  Lu  Lu3_3  1  0.00000000  0.69257203  0.70588542  1
  Lu  Lu3_4  1  0.50000000  0.19257204  0.20588542  1
  Lu  Lu3_5  1  0.50000000  0.19257204  0.70588542  1
  Lu  Lu3_6  1  0.50000000  0.69257203  0.20588542  1
  Lu  Lu3_7  1  0.50000000  0.69257203  0.70588542  1
  Lu  Lu4_0  1  0.00000000  0.05742796  0.45588542  1
  Lu  Lu4_1  1  0.00000000  0.05742796  0.95588542  1
  Lu  Lu4_2  1  0.00000000  0.55742797  0.45588542  1
  Lu  Lu4_3  1  0.00000000  0.55742797  0.95588542  1
  Lu  Lu4_4  1  0.50000000  0.05742796  0.45588542  1
  Lu  Lu4_5  1  0.50000000  0.05742796  0.95588542  1
  Lu  Lu4_6  1  0.50000000  0.55742797  0.45588542  1
  Lu  Lu4_7  1  0.50000000  0.55742797  0.95588542  1
  Lu  Lu5_0  1  0.00000000  0.12286498  0.36049724  1
  Lu  Lu5_1  1  0.00000000  0.12286498  0.86049724  1
  Lu  Lu5_2  1  0.00000000  0.62286498  0.36049724  1
  Lu  Lu5_3  1  0.00000000  0.62286498  0.86049724  1
  Lu  Lu5_4  1  0.50000000  0.12286498  0.36049724  1
  Lu  Lu5_5  1  0.50000000  0.12286498  0.86049724  1
  Lu  Lu5_6  1  0.50000000  0.62286498  0.36049724  1
  Lu  Lu5_7  1  0.50000000  0.62286498  0.86049724  1
  Lu  Lu6_0  1  0.00000000  0.25000000  0.00000000  1
  Lu  Lu6_1  1  0.00000000  0.25000000  0.50000000  1
  Lu  Lu6_2  1  0.00000000  0.75000000  0.00000000  1
  Lu  Lu6_3  1  0.00000000  0.75000000  0.50000000  1
  Lu  Lu6_4  1  0.50000000  0.25000000  0.00000000  1
  Lu  Lu6_5  1  0.50000000  0.25000000  0.50000000  1
  Lu  Lu6_6  1  0.50000000  0.75000000  0.00000000  1
  Lu  Lu6_7  1  0.50000000  0.75000000  0.50000000  1
  Lu  Lu7_0  1  0.00000000  0.12713501  0.11049724  1
  Lu  Lu7_1  1  0.00000000  0.12713501  0.61049724  1
  Lu  Lu7_2  1  0.00000000  0.62713501  0.11049724  1
  Lu  Lu7_3  1  0.00000000  0.62713501  0.61049724  1
  Lu  Lu7_4  1  0.50000000  0.12713501  0.11049724  1
  Lu  Lu7_5  1  0.50000000  0.12713501  0.61049724  1
  Lu  Lu7_6  1  0.50000000  0.62713501  0.11049724  1
  Lu  Lu7_7  1  0.50000000  0.62713501  0.61049724  1
  Lu  Lu8_0  1  0.00000000  0.30742796  0.29411458  1
  Lu  Lu8_1  1  0.00000000  0.30742796  0.79411458  1
  Lu  Lu8_2  1  0.00000000  0.80742796  0.29411458  1
  Lu  Lu8_3  1  0.00000000  0.80742796  0.79411458  1
  Lu  Lu8_4  1  0.50000000  0.30742796  0.29411458  1
  Lu  Lu8_5  1  0.50000000  0.30742796  0.79411458  1
  Lu  Lu8_6  1  0.50000000  0.80742796  0.29411458  1
  Lu  Lu8_7  1  0.50000000  0.80742796  0.79411458  1
  Lu  Lu9_0  1  0.00000000  0.00000000  0.25000000  1
  Lu  Lu9_1  1  0.00000000  0.00000000  0.75000000  1
  Lu  Lu9_2  1  0.00000000  0.50000000  0.25000000  1
  Lu  Lu9_3  1  0.00000000  0.50000000  0.75000000  1
  Lu  Lu9_4  1  0.50000000  0.00000000  0.25000000  1
  Lu  Lu9_5  1  0.50000000  0.00000000  0.75000000  1
  Lu  Lu9_6  1  0.50000000  0.50000000  0.25000000  1
  Lu  Lu9_7  1  0.50000000  0.50000000  0.75000000  1
  In  In0_0  1  0.25000000  0.10316474  0.03409479  1
  In  In0_1  1  0.25000000  0.10316474  0.53409479  1
  In  In0_2  1  0.25000000  0.60316474  0.03409479  1
  In  In0_3  1  0.25000000  0.60316474  0.53409479  1
  In  In0_4  1  0.75000000  0.10316474  0.03409479  1
  In  In0_5  1  0.75000000  0.10316474  0.53409479  1
  In  In0_6  1  0.75000000  0.60316474  0.03409479  1
  In  In0_7  1  0.75000000  0.60316474  0.53409479  1
  In  In1_0  1  0.25000000  0.21266492  0.42402887  1
  In  In1_1  1  0.25000000  0.21266492  0.92402887  1
  In  In1_2  1  0.25000000  0.71266492  0.42402887  1
  In  In1_3  1  0.25000000  0.71266492  0.92402887  1
  In  In1_4  1  0.75000000  0.21266492  0.42402887  1
  In  In1_5  1  0.75000000  0.21266492  0.92402887  1
  In  In1_6  1  0.75000000  0.71266492  0.42402887  1
  In  In1_7  1  0.75000000  0.71266492  0.92402887  1
  In  In2_0  1  0.25000000  0.28733507  0.07597113  1
  In  In2_1  1  0.25000000  0.28733507  0.57597114  1
  In  In2_2  1  0.25000000  0.78733507  0.07597113  1
  In  In2_3  1  0.25000000  0.78733507  0.57597114  1
  In  In2_4  1  0.75000000  0.28733507  0.07597113  1
  In  In2_5  1  0.75000000  0.28733507  0.57597114  1
  In  In2_6  1  0.75000000  0.78733507  0.07597113  1
  In  In2_7  1  0.75000000  0.78733507  0.57597114  1
  In  In3_0  1  0.25000000  0.03733508  0.17402887  1
  In  In3_1  1  0.25000000  0.03733508  0.67402887  1
  In  In3_2  1  0.25000000  0.53733507  0.17402887  1
  In  In3_3  1  0.25000000  0.53733507  0.67402887  1
  In  In3_4  1  0.75000000  0.03733508  0.17402887  1
  In  In3_5  1  0.75000000  0.03733508  0.67402887  1
  In  In3_6  1  0.75000000  0.53733507  0.17402887  1
  In  In3_7  1  0.75000000  0.53733507  0.67402887  1
  In  In4_0  1  0.25000000  0.46266493  0.32597114  1
  In  In4_1  1  0.25000000  0.46266493  0.82597114  1
  In  In4_2  1  0.25000000  0.96266492  0.32597114  1
  In  In4_3  1  0.25000000  0.96266492  0.82597114  1
  In  In4_4  1  0.75000000  0.46266493  0.32597114  1
  In  In4_5  1  0.75000000  0.46266493  0.82597114  1
  In  In4_6  1  0.75000000  0.96266492  0.32597114  1
  In  In4_7  1  0.75000000  0.96266492  0.82597114  1
  In  In5_0  1  0.25000000  0.39683526  0.46590521  1
  In  In5_1  1  0.25000000  0.39683526  0.96590521  1
  In  In5_2  1  0.25000000  0.89683526  0.46590521  1
  In  In5_3  1  0.25000000  0.89683526  0.96590521  1
  In  In5_4  1  0.75000000  0.39683526  0.46590521  1
  In  In5_5  1  0.75000000  0.39683526  0.96590521  1
  In  In5_6  1  0.75000000  0.89683526  0.46590521  1
  In  In5_7  1  0.75000000  0.89683526  0.96590521  1
  In  In6_0  1  0.25000000  0.35316474  0.21590521  1
  In  In6_1  1  0.25000000  0.35316474  0.71590521  1
  In  In6_2  1  0.25000000  0.85316474  0.21590521  1
  In  In6_3  1  0.25000000  0.85316474  0.71590521  1
  In  In6_4  1  0.75000000  0.35316474  0.21590521  1
  In  In6_5  1  0.75000000  0.35316474  0.71590521  1
  In  In6_6  1  0.75000000  0.85316474  0.21590521  1
  In  In6_7  1  0.75000000  0.85316474  0.71590521  1
  In  In7_0  1  0.25000000  0.14683526  0.28409479  1
  In  In7_1  1  0.25000000  0.14683526  0.78409479  1
  In  In7_2  1  0.25000000  0.64683526  0.28409479  1
  In  In7_3  1  0.25000000  0.64683526  0.78409479  1
  In  In7_4  1  0.75000000  0.14683526  0.28409479  1
  In  In7_5  1  0.75000000  0.14683526  0.78409479  1
  In  In7_6  1  0.75000000  0.64683526  0.28409479  1
  In  In7_7  1  0.75000000  0.64683526  0.78409479  1
  Ni  Ni0_0  1  0.25000000  0.48647962  0.09796838  1
  Ni  Ni0_1  1  0.25000000  0.48647962  0.59796838  1
  Ni  Ni0_2  1  0.25000000  0.98647962  0.09796838  1
  Ni  Ni0_3  1  0.25000000  0.98647962  0.59796838  1
  Ni  Ni0_4  1  0.75000000  0.48647962  0.09796838  1
  Ni  Ni0_5  1  0.75000000  0.48647962  0.59796838  1
  Ni  Ni0_6  1  0.75000000  0.98647962  0.09796838  1
  Ni  Ni0_7  1  0.75000000  0.98647962  0.59796838  1
  Ni  Ni1_0  1  0.25000000  0.01352038  0.40203162  1
  Ni  Ni1_1  1  0.25000000  0.01352038  0.90203162  1
  Ni  Ni1_2  1  0.25000000  0.51352038  0.40203162  1
  Ni  Ni1_3  1  0.25000000  0.51352038  0.90203162  1
  Ni  Ni1_4  1  0.75000000  0.01352038  0.40203162  1
  Ni  Ni1_5  1  0.75000000  0.01352038  0.90203162  1
  Ni  Ni1_6  1  0.75000000  0.51352038  0.40203162  1
  Ni  Ni1_7  1  0.75000000  0.51352038  0.90203162  1
  Ni  Ni2_0  1  0.25000000  0.26352038  0.34796838  1
  Ni  Ni2_1  1  0.25000000  0.26352038  0.84796838  1
  Ni  Ni2_2  1  0.25000000  0.76352038  0.34796838  1
  Ni  Ni2_3  1  0.25000000  0.76352038  0.84796838  1
  Ni  Ni2_4  1  0.75000000  0.26352038  0.34796838  1
  Ni  Ni2_5  1  0.75000000  0.26352038  0.84796838  1
  Ni  Ni2_6  1  0.75000000  0.76352038  0.34796838  1
  Ni  Ni2_7  1  0.75000000  0.76352038  0.84796838  1
  Ni  Ni3_0  1  0.25000000  0.23647962  0.15203162  1
  Ni  Ni3_1  1  0.25000000  0.23647962  0.65203162  1
  Ni  Ni3_2  1  0.25000000  0.73647962  0.15203162  1
  Ni  Ni3_3  1  0.25000000  0.73647962  0.65203162  1
  Ni  Ni3_4  1  0.75000000  0.23647962  0.15203162  1
  Ni  Ni3_5  1  0.75000000  0.23647962  0.65203162  1
  Ni  Ni3_6  1  0.75000000  0.73647962  0.15203162  1
  Ni  Ni3_7  1  0.75000000  0.73647962  0.65203162  1
loop_
_geom_bond_atom_site_label_1
_geom_bond_atom_site_label_2
_geom_bond_distance
_geom_bond_site_symmetry_2
Lu0_0 Ni0_0 2.666379 1_555
Lu0_0 Ni0_4 2.666379 1_455
Lu0_0 Lu6_0 3.367520 1_555
Lu0_1 Ni0_1 2.666379 1_555
Lu0_1 Ni0_5 2.666379 1_455
Lu0_1 Lu6_1 3.367520 1_555
Lu0_2 Ni0_2 2.666379 1_555
Lu0_2 Ni0_6 2.666379 1_455
Lu0_2 Lu6_2 3.367520 1_555
Lu0_3 Ni0_3 2.666379 1_555
Lu0_3 Ni0_7 2.666379 1_455
Lu0_3 Lu6_3 3.367520 1_555
Lu0_4 Ni0_0 2.666379 1_555
Lu0_4 Ni0_4 2.666379 1_555
Lu0_4 Lu6_4 3.367520 1_555
Lu0_5 Ni0_5 2.666379 1_555
Lu0_5 Ni0_1 2.666379 1_555
Lu0_5 Lu6_5 3.367520 1_555
Lu0_6 Ni0_2 2.666379 1_555
Lu0_6 Ni0_6 2.666379 1_555
Lu0_6 Lu6_6 3.367520 1_555
Lu0_7 Ni0_3 2.666379 1_555
Lu0_7 Ni0_7 2.666379 1_555
Lu0_7 Lu6_7 3.367520 1_555
Lu1_0 Ni3_0 2.841089 1_555
Lu1_0 Ni3_4 2.841089 1_455
Lu1_0 Ni0_4 2.845480 1_455
Lu1_0 Ni0_0 2.845480 1_555
Lu1_1 Ni3_1 2.841089 1_555
Lu1_1 Ni3_5 2.841089 1_455
Lu1_1 Ni0_5 2.845480 1_455
Lu1_1 Ni0_1 2.845480 1_555
Lu1_2 Ni3_6 2.841089 1_455
Lu1_2 Ni3_2 2.841089 1_555
Lu1_2 Ni0_2 2.845480 1_555
Lu1_2 Ni0_6 2.845480 1_455
Lu1_3 Ni3_3 2.841089 1_555
Lu1_3 Ni3_7 2.841089 1_455
Lu1_3 Ni0_3 2.845480 1_555
Lu1_3 Ni0_7 2.845480 1_455
Lu1_4 Ni3_0 2.841089 1_555
Lu1_4 Ni3_4 2.841089 1_555
Lu1_4 Ni0_4 2.845480 1_555
Lu1_4 Ni0_0 2.845480 1_555
Lu1_5 Ni3_5 2.841089 1_555
Lu1_5 Ni3_1 2.841089 1_555
Lu1_5 Ni0_5 2.845480 1_555
Lu1_5 Ni0_1 2.845480 1_555
Lu1_6 Ni3_2 2.841089 1_555
Lu1_6 Ni3_6 2.841089 1_555
Lu1_6 Ni0_2 2.845480 1_555
Lu1_6 Ni0_6 2.845480 1_555
Lu1_7 Ni3_3 2.841089 1_555
Lu1_7 Ni3_7 2.841089 1_555
Lu1_7 Ni0_3 2.845480 1_555
Lu1_7 Ni0_7 2.845480 1_555
Lu2_0 Ni1_2 2.841089 1_555
Lu2_0 Ni1_6 2.841089 1_455
Lu2_0 Ni2_0 2.845480 1_555
Lu2_0 Ni2_4 2.845480 1_455
Lu2_1 Ni1_3 2.841089 1_555
Lu2_1 Ni1_7 2.841089 1_455
Lu2_1 Ni2_1 2.845480 1_555
Lu2_1 Ni2_5 2.845480 1_455
Lu2_2 Ni1_0 2.841089 1_565
Lu2_2 Ni1_4 2.841089 1_465
Lu2_2 Ni2_2 2.845480 1_555
Lu2_2 Ni2_6 2.845480 1_455
Lu2_3 Ni1_5 2.841089 1_465
Lu2_3 Ni1_1 2.841089 1_565
Lu2_3 Ni2_3 2.845480 1_555
Lu2_3 Ni2_7 2.845480 1_455
Lu2_4 Ni1_2 2.841089 1_555
Lu2_4 Ni1_6 2.841089 1_555
Lu2_4 Ni2_4 2.845480 1_555
Lu2_4 Ni2_0 2.845480 1_555
Lu2_5 Ni1_3 2.841089 1_555
Lu2_5 Ni1_7 2.841089 1_555
Lu2_5 Ni2_1 2.845480 1_555
Lu2_5 Ni2_5 2.845480 1_555
Lu2_6 Ni1_0 2.841089 1_565
Lu2_6 Ni1_4 2.841089 1_565
Lu2_6 Ni2_2 2.845480 1_555
Lu2_6 Ni2_6 2.845480 1_555
Lu2_7 Ni1_1 2.841089 1_565
Lu2_7 Ni1_5 2.841089 1_565
Lu2_7 Ni2_3 2.845480 1_555
Lu2_7 Ni2_7 2.845480 1_555
Lu3_0 Ni3_4 2.666379 1_455
Lu3_0 Ni3_0 2.666379 1_555
Lu3_0 Lu9_0 3.367520 1_555
Lu3_1 Ni3_1 2.666379 1_555
Lu3_1 Ni3_5 2.666379 1_455
Lu3_1 Lu9_1 3.367520 1_555
Lu3_2 Ni3_2 2.666379 1_555
Lu3_2 Ni3_6 2.666379 1_455
Lu3_2 Lu9_2 3.367520 1_555
Lu3_3 Ni3_3 2.666379 1_555
Lu3_3 Ni3_7 2.666379 1_455
Lu3_3 Lu9_3 3.367520 1_555
Lu3_4 Ni3_4 2.666379 1_555
Lu3_4 Ni3_0 2.666379 1_555
Lu3_4 Lu9_4 3.367520 1_555
Lu3_5 Ni3_1 2.666379 1_555
Lu3_5 Ni3_5 2.666379 1_555
Lu3_5 Lu9_5 3.367520 1_555
Lu3_6 Ni3_2 2.666379 1_555
Lu3_6 Ni3_6 2.666379 1_555
Lu3_6 Lu9_6 3.367520 1_555
Lu3_7 Ni3_3 2.666379 1_555
Lu3_7 Ni3_7 2.666379 1_555
Lu3_7 Lu9_7 3.367520 1_555
Lu4_0 Ni1_0 2.666379 1_555
Lu4_0 Ni1_4 2.666379 1_455
Lu4_0 Lu6_1 3.367520 1_555
Lu4_1 Ni1_1 2.666379 1_555
Lu4_1 Ni1_5 2.666379 1_455
Lu4_1 Lu6_0 3.367520 1_556
Lu4_2 Ni1_2 2.666379 1_555
Lu4_2 Ni1_6 2.666379 1_455
Lu4_2 Lu6_3 3.367520 1_555
Lu4_3 Ni1_3 2.666379 1_555
Lu4_3 Ni1_7 2.666379 1_455
Lu4_3 Lu6_2 3.367520 1_556
Lu4_4 Ni1_0 2.666379 1_555
Lu4_4 Ni1_4 2.666379 1_555
Lu4_4 Lu6_5 3.367520 1_555
Lu4_5 Ni1_1 2.666379 1_555
Lu4_5 Ni1_5 2.666379 1_555
Lu4_5 Lu6_4 3.367520 1_556
Lu4_6 Ni1_2 2.666379 1_555
Lu4_6 Ni1_6 2.666379 1_555
Lu4_6 Lu6_7 3.367520 1_555
Lu4_7 Ni1_3 2.666379 1_555
Lu4_7 Ni1_7 2.666379 1_555
Lu4_7 Lu6_6 3.367520 1_556
Lu5_0 Ni2_0 2.841089 1_555
Lu5_0 Ni2_4 2.841089 1_455
Lu5_0 Ni1_0 2.845480 1_555
Lu5_0 Ni1_4 2.845480 1_455
Lu5_1 Ni2_1 2.841089 1_555
Lu5_1 Ni2_5 2.841089 1_455
Lu5_1 Ni1_1 2.845480 1_555
Lu5_1 Ni1_5 2.845480 1_455
Lu5_2 Ni2_6 2.841089 1_455
Lu5_2 Ni2_2 2.841089 1_555
Lu5_2 Ni1_2 2.845480 1_555
Lu5_2 Ni1_6 2.845480 1_455
Lu5_3 Ni2_3 2.841089 1_555
Lu5_3 Ni2_7 2.841089 1_455
Lu5_3 Ni1_3 2.845480 1_555
Lu5_3 Ni1_7 2.845480 1_455
Lu5_4 Ni2_4 2.841089 1_555
Lu5_4 Ni2_0 2.841089 1_555
Lu5_4 Ni1_0 2.845480 1_555
Lu5_4 Ni1_4 2.845480 1_555
Lu5_5 Ni2_1 2.841089 1_555
Lu5_5 Ni2_5 2.841089 1_555
Lu5_5 Ni1_1 2.845480 1_555
Lu5_5 Ni1_5 2.845480 1_555
Lu5_6 Ni2_2 2.841089 1_555
Lu5_6 Ni2_6 2.841089 1_555
Lu5_6 Ni1_6 2.845480 1_555
Lu5_6 Ni1_2 2.845480 1_555
Lu5_7 Ni2_3 2.841089 1_555
Lu5_7 Ni2_7 2.841089 1_555
Lu5_7 Ni1_3 2.845480 1_555
Lu5_7 Ni1_7 2.845480 1_555
Lu6_0 Lu6_4 3.520786 1_555
Lu6_0 Lu6_4 3.520786 1_455
Lu6_1 Lu6_5 3.520786 1_455
Lu6_1 Lu6_5 3.520786 1_555
Lu6_2 Lu6_6 3.520786 1_455
Lu6_2 Lu6_6 3.520786 1_555
Lu6_3 Lu6_7 3.520786 1_555
Lu6_3 Lu6_7 3.520786 1_455
Lu7_0 Ni0_2 2.841089 1_545
Lu7_0 Ni0_6 2.841089 1_445
Lu7_0 Ni3_0 2.845480 1_555
Lu7_0 Ni3_4 2.845480 1_455
Lu7_1 Ni0_3 2.841089 1_545
Lu7_1 Ni0_7 2.841089 1_445
Lu7_1 Ni3_1 2.845480 1_555
Lu7_1 Ni3_5 2.845480 1_455
Lu7_2 Ni0_0 2.841089 1_555
Lu7_2 Ni0_4 2.841089 1_455
Lu7_2 Ni3_6 2.845480 1_455
Lu7_2 Ni3_2 2.845480 1_555
Lu7_3 Ni0_1 2.841089 1_555
Lu7_3 Ni0_5 2.841089 1_455
Lu7_3 Ni3_3 2.845480 1_555
Lu7_3 Ni3_7 2.845480 1_455
Lu7_4 Ni0_2 2.841089 1_545
Lu7_4 Ni0_6 2.841089 1_545
Lu7_4 Ni3_4 2.845480 1_555
Lu7_4 Ni3_0 2.845480 1_555
Lu7_5 Ni0_3 2.841089 1_545
Lu7_5 Ni0_7 2.841089 1_545
Lu7_5 Ni3_1 2.845480 1_555
Lu7_5 Ni3_5 2.845480 1_555
Lu7_6 Ni0_0 2.841089 1_555
Lu7_6 Ni0_4 2.841089 1_555
Lu7_6 Ni3_6 2.845480 1_555
Lu7_6 Ni3_2 2.845480 1_555
Lu7_7 Ni0_1 2.841089 1_555
Lu7_7 Ni0_5 2.841089 1_555
Lu7_7 Ni3_7 2.845480 1_555
Lu7_7 Ni3_3 2.845480 1_555
Lu8_0 Ni2_0 2.666379 1_555
Lu8_0 Ni2_4 2.666379 1_455
Lu8_0 Lu9_2 3.367520 1_555
Lu8_1 Ni2_1 2.666379 1_555
Lu8_1 Ni2_5 2.666379 1_455
Lu8_1 Lu9_3 3.367520 1_555
Lu8_2 Ni2_2 2.666379 1_555
Lu8_2 Ni2_6 2.666379 1_455
Lu8_2 Lu9_0 3.367520 1_565
Lu8_3 Ni2_3 2.666379 1_555
Lu8_3 Ni2_7 2.666379 1_455
Lu8_3 Lu9_1 3.367520 1_565
Lu8_4 Ni2_0 2.666379 1_555
Lu8_4 Ni2_4 2.666379 1_555
Lu8_4 Lu9_6 3.367520 1_555
Lu8_5 Ni2_1 2.666379 1_555
Lu8_5 Ni2_5 2.666379 1_555
Lu8_5 Lu9_7 3.367520 1_555
Lu8_6 Ni2_6 2.666379 1_555
Lu8_6 Ni2_2 2.666379 1_555
Lu8_6 Lu9_4 3.367520 1_565
Lu8_7 Ni2_3 2.666379 1_555
Lu8_7 Ni2_7 2.666379 1_555
Lu8_7 Lu9_5 3.367520 1_565
Lu9_0 Lu9_4 3.520786 1_455
Lu9_0 Lu9_4 3.520786 1_555
Lu9_1 Lu9_5 3.520786 1_455
Lu9_1 Lu9_5 3.520786 1_555
Lu9_2 Lu9_6 3.520786 1_555
Lu9_2 Lu9_6 3.520786 1_455
Lu9_3 Lu9_7 3.520786 1_455
Lu9_3 Lu9_7 3.520786 1_555
In0_0 Ni0_2 2.876928 1_545
In0_0 Lu0_2 3.074744 1_545
In0_0 Lu0_6 3.074744 1_545
In0_0 Lu6_4 3.119302 1_555
In0_0 Lu6_0 3.119302 1_555
In0_0 In2_0 3.215593 1_555
In0_0 Lu7_0 3.220608 1_555
In0_0 Lu7_4 3.220608 1_555
In0_0 Lu4_1 3.328728 1_554
In0_0 Lu4_5 3.328728 1_554
In0_1 Ni0_3 2.876928 1_545
In0_1 Lu0_3 3.074744 1_545
In0_1 Lu0_7 3.074744 1_545
In0_1 Lu6_1 3.119302 1_555
In0_1 Lu6_5 3.119302 1_555
In0_1 In2_1 3.215593 1_555
In0_1 Lu7_1 3.220608 1_555
In0_1 Lu7_5 3.220608 1_555
In0_1 Lu4_0 3.328728 1_555
In0_1 Lu4_4 3.328728 1_555
In0_2 Ni0_0 2.876928 1_555
In0_2 Lu0_0 3.074744 1_555
In0_2 Lu0_4 3.074744 1_555
In0_2 Lu6_2 3.119302 1_555
In0_2 Lu6_6 3.119302 1_555
In0_2 In2_2 3.215593 1_555
In0_2 Lu7_6 3.220608 1_555
In0_2 Lu7_2 3.220608 1_555
In0_2 Lu4_7 3.328728 1_554
In0_2 Lu4_3 3.328728 1_554
In0_3 Ni0_1 2.876928 1_555
In0_3 Lu0_5 3.074744 1_555
In0_3 Lu0_1 3.074744 1_555
In0_3 Lu6_7 3.119302 1_555
In0_3 Lu6_3 3.119302 1_555
In0_3 In2_3 3.215593 1_555
In0_3 Lu7_3 3.220608 1_555
In0_3 Lu7_7 3.220608 1_555
In0_3 Lu4_2 3.328728 1_555
In0_3 Lu4_6 3.328728 1_555
In0_4 Ni0_6 2.876928 1_545
In0_4 Lu0_6 3.074744 1_545
In0_4 Lu0_2 3.074744 1_645
In0_4 Lu6_4 3.119302 1_555
In0_4 Lu6_0 3.119302 1_655
In0_4 In2_4 3.215593 1_555
In0_4 Lu7_0 3.220608 1_655
In0_4 Lu7_4 3.220608 1_555
In0_4 Lu4_1 3.328728 1_654
In0_4 Lu4_5 3.328728 1_554
In0_5 Ni0_7 2.876928 1_545
In0_5 Lu0_7 3.074744 1_545
In0_5 Lu0_3 3.074744 1_645
In0_5 Lu6_1 3.119302 1_655
In0_5 Lu6_5 3.119302 1_555
In0_5 In2_5 3.215593 1_555
In0_5 Lu7_1 3.220608 1_655
In0_5 Lu7_5 3.220608 1_555
In0_5 Lu4_0 3.328728 1_655
In0_5 Lu4_4 3.328728 1_555
In0_6 Ni0_4 2.876928 1_555
In0_6 Lu0_4 3.074744 1_555
In0_6 Lu0_0 3.074744 1_655
In0_6 Lu6_6 3.119302 1_555
In0_6 Lu6_2 3.119302 1_655
In0_6 In2_6 3.215593 1_555
In0_6 Lu7_2 3.220608 1_655
In0_6 Lu7_6 3.220608 1_555
In0_6 Lu4_7 3.328728 1_554
In0_6 Lu4_3 3.328728 1_654
In0_7 Ni0_5 2.876928 1_555
In0_7 Lu0_5 3.074744 1_555
In0_7 Lu0_1 3.074744 1_655
In0_7 Lu6_7 3.119302 1_555
In0_7 Lu6_3 3.119302 1_655
In0_7 In2_7 3.215593 1_555
In0_7 Lu7_7 3.220608 1_555
In0_7 Lu7_3 3.220608 1_655
In0_7 Lu4_2 3.328728 1_655
In0_7 Lu4_6 3.328728 1_555
In1_0 Ni2_0 2.774122 1_555
In1_0 Lu5_0 3.159258 1_555
In1_0 Lu5_4 3.159258 1_555
In1_0 Lu4_4 3.187936 1_555
In1_0 Lu4_0 3.187936 1_555
In1_0 Ni1_0 3.189860 1_555
In1_0 In5_0 3.215593 1_555
In1_0 Lu6_1 3.238825 1_555
In1_0 Lu6_5 3.238825 1_555
In1_0 Lu2_0 3.279917 1_555
In1_0 Lu2_4 3.279917 1_555
In1_0 In1_4 3.520786 1_455
In1_0 In1_4 3.520786 1_555
In1_1 Ni2_1 2.774122 1_555
In1_1 Lu5_5 3.159258 1_555
In1_1 Lu5_1 3.159258 1_555
In1_1 Lu4_5 3.187936 1_555
In1_1 Lu4_1 3.187936 1_555
In1_1 Ni1_1 3.189860 1_555
In1_1 In5_1 3.215593 1_555
In1_1 Lu6_4 3.238825 1_556
In1_1 Lu6_0 3.238825 1_556
In1_1 Lu2_5 3.279917 1_555
In1_1 Lu2_1 3.279917 1_555
In1_1 In1_5 3.520786 1_455
In1_1 In1_5 3.520786 1_555
In1_2 Ni2_2 2.774122 1_555
In1_2 Lu5_2 3.159258 1_555
In1_2 Lu5_6 3.159258 1_555
In1_2 Lu4_2 3.187936 1_555
In1_2 Lu4_6 3.187936 1_555
In1_2 Ni1_2 3.189860 1_555
In1_2 In5_2 3.215593 1_555
In1_2 Lu6_3 3.238825 1_555
In1_2 Lu6_7 3.238825 1_555
In1_2 Lu2_2 3.279917 1_555
In1_2 Lu2_6 3.279917 1_555
In1_2 In1_6 3.520786 1_455
In1_2 In1_6 3.520786 1_555
In1_3 Ni2_3 2.774122 1_555
In1_3 Lu5_3 3.159258 1_555
In1_3 Lu5_7 3.159258 1_555
In1_3 Lu4_3 3.187936 1_555
In1_3 Lu4_7 3.187936 1_555
In1_3 Ni1_3 3.189860 1_555
In1_3 In5_3 3.215593 1_555
In1_3 Lu6_2 3.238825 1_556
In1_3 Lu6_6 3.238825 1_556
In1_3 Lu2_3 3.279917 1_555
In1_3 Lu2_7 3.279917 1_555
In1_3 In1_7 3.520786 1_455
In1_3 In1_7 3.520786 1_555
In1_4 Ni2_4 2.774122 1_555
In1_4 Lu5_4 3.159258 1_555
In1_4 Lu5_0 3.159258 1_655
In1_4 Lu4_4 3.187936 1_555
In1_4 Lu4_0 3.187936 1_655
In1_4 Ni1_4 3.189860 1_555
In1_4 In5_4 3.215593 1_555
In1_4 Lu6_1 3.238825 1_655
In1_4 Lu6_5 3.238825 1_555
In1_4 Lu2_0 3.279917 1_655
In1_4 Lu2_4 3.279917 1_555
In1_5 Ni2_5 2.774122 1_555
In1_5 Lu5_5 3.159258 1_555
In1_5 Lu5_1 3.159258 1_655
In1_5 Lu4_5 3.187936 1_555
In1_5 Lu4_1 3.187936 1_655
In1_5 Ni1_5 3.189860 1_555
In1_5 In5_5 3.215593 1_555
In1_5 Lu6_4 3.238825 1_556
In1_5 Lu6_0 3.238825 1_656
In1_5 Lu2_1 3.279917 1_655
In1_5 Lu2_5 3.279917 1_555
In1_6 Ni2_6 2.774122 1_555
In1_6 Lu5_2 3.159258 1_655
In1_6 Lu5_6 3.159258 1_555
In1_6 Lu4_2 3.187936 1_655
In1_6 Lu4_6 3.187936 1_555
In1_6 Ni1_6 3.189860 1_555
In1_6 In5_6 3.215593 1_555
In1_6 Lu6_7 3.238825 1_555
In1_6 Lu6_3 3.238825 1_655
In1_6 Lu2_2 3.279917 1_655
In1_6 Lu2_6 3.279917 1_555
In1_7 Ni2_7 2.774122 1_555
In1_7 Lu5_3 3.159258 1_655
In1_7 Lu5_7 3.159258 1_555
In1_7 Lu4_7 3.187936 1_555
In1_7 Lu4_3 3.187936 1_655
In1_7 Ni1_7 3.189860 1_555
In1_7 In5_7 3.215593 1_555
In1_7 Lu6_2 3.238825 1_656
In1_7 Lu6_6 3.238825 1_556
In1_7 Lu2_3 3.279917 1_655
In1_7 Lu2_7 3.279917 1_555
In2_0 Ni3_0 2.774122 1_555
In2_0 Lu1_0 3.159258 1_555
In2_0 Lu1_4 3.159258 1_555
In2_0 Lu0_0 3.187936 1_555
In2_0 Lu0_4 3.187936 1_555
In2_0 Ni0_0 3.189860 1_555
In2_0 Lu6_0 3.238825 1_555
In2_0 Lu6_4 3.238825 1_555
In2_0 Lu7_0 3.279917 1_555
In2_0 Lu7_4 3.279917 1_555
In2_0 In2_4 3.520786 1_555
In2_0 In2_4 3.520786 1_455
In2_1 Ni3_1 2.774122 1_555
In2_1 Lu1_1 3.159258 1_555
In2_1 Lu1_5 3.159258 1_555
In2_1 Lu0_1 3.187936 1_555
In2_1 Lu0_5 3.187936 1_555
In2_1 Ni0_1 3.189860 1_555
In2_1 Lu6_1 3.238825 1_555
In2_1 Lu6_5 3.238825 1_555
In2_1 Lu7_1 3.279917 1_555
In2_1 Lu7_5 3.279917 1_555
In2_1 In2_5 3.520786 1_455
In2_1 In2_5 3.520786 1_555
In2_2 Ni3_2 2.774122 1_555
In2_2 Lu1_2 3.159258 1_555
In2_2 Lu1_6 3.159258 1_555
In2_2 Lu0_6 3.187936 1_555
In2_2 Lu0_2 3.187936 1_555
In2_2 Ni0_2 3.189860 1_555
In2_2 Lu6_2 3.238825 1_555
In2_2 Lu6_6 3.238825 1_555
In2_2 Lu7_2 3.279917 1_555
In2_2 Lu7_6 3.279917 1_555
In2_2 In2_6 3.520786 1_555
In2_2 In2_6 3.520786 1_455
In2_3 Ni3_3 2.774122 1_555
In2_3 Lu1_7 3.159258 1_555
In2_3 Lu1_3 3.159258 1_555
In2_3 Lu0_3 3.187936 1_555
In2_3 Lu0_7 3.187936 1_555
In2_3 Ni0_3 3.189860 1_555
In2_3 Lu6_3 3.238825 1_555
In2_3 Lu6_7 3.238825 1_555
In2_3 Lu7_3 3.279917 1_555
In2_3 Lu7_7 3.279917 1_555
In2_3 In2_7 3.520786 1_555
In2_3 In2_7 3.520786 1_455
In2_4 Ni3_4 2.774122 1_555
In2_4 Lu1_0 3.159258 1_655
In2_4 Lu1_4 3.159258 1_555
In2_4 Lu0_0 3.187936 1_655
In2_4 Lu0_4 3.187936 1_555
In2_4 Ni0_4 3.189860 1_555
In2_4 Lu6_0 3.238825 1_655
In2_4 Lu6_4 3.238825 1_555
In2_4 Lu7_0 3.279917 1_655
In2_4 Lu7_4 3.279917 1_555
In2_5 Ni3_5 2.774122 1_555
In2_5 Lu1_1 3.159258 1_655
In2_5 Lu1_5 3.159258 1_555
In2_5 Lu0_1 3.187936 1_655
In2_5 Lu0_5 3.187936 1_555
In2_5 Ni0_5 3.189860 1_555
In2_5 Lu6_1 3.238825 1_655
In2_5 Lu6_5 3.238825 1_555
In2_5 Lu7_1 3.279917 1_655
In2_5 Lu7_5 3.279917 1_555
In2_6 Ni3_6 2.774122 1_555
In2_6 Lu1_6 3.159258 1_555
In2_6 Lu1_2 3.159258 1_655
In2_6 Lu0_6 3.187936 1_555
In2_6 Lu0_2 3.187936 1_655
In2_6 Ni0_6 3.189860 1_555
In2_6 Lu6_6 3.238825 1_555
In2_6 Lu6_2 3.238825 1_655
In2_6 Lu7_2 3.279917 1_655
In2_6 Lu7_6 3.279917 1_555
In2_7 Ni3_7 2.774122 1_555
In2_7 Lu1_7 3.159258 1_555
In2_7 Lu1_3 3.159258 1_655
In2_7 Lu0_7 3.187936 1_555
In2_7 Lu0_3 3.187936 1_655
In2_7 Ni0_7 3.189860 1_555
In2_7 Lu6_7 3.238825 1_555
In2_7 Lu6_3 3.238825 1_655
In2_7 Lu7_7 3.279917 1_555
In2_7 Lu7_3 3.279917 1_655
In3_0 Ni0_2 2.774122 1_545
In3_0 Lu7_0 3.159258 1_555
In3_0 Lu7_4 3.159258 1_555
In3_0 Lu3_4 3.187936 1_555
In3_0 Lu3_0 3.187936 1_555
In3_0 Ni3_0 3.189860 1_555
In3_0 In6_2 3.215593 1_545
In3_0 Lu9_0 3.238825 1_555
In3_0 Lu9_4 3.238825 1_555
In3_0 Lu1_2 3.279917 1_545
In3_0 Lu1_6 3.279917 1_545
In3_0 In3_4 3.520786 1_555
In3_0 In3_4 3.520786 1_455
In3_1 Ni0_3 2.774122 1_545
In3_1 Lu7_5 3.159258 1_555
In3_1 Lu7_1 3.159258 1_555
In3_1 Lu3_5 3.187936 1_555
In3_1 Lu3_1 3.187936 1_555
In3_1 Ni3_1 3.189860 1_555
In3_1 In6_3 3.215593 1_545
In3_1 Lu9_5 3.238825 1_555
In3_1 Lu9_1 3.238825 1_555
In3_1 Lu1_3 3.279917 1_545
In3_1 Lu1_7 3.279917 1_545
In3_1 In3_5 3.520786 1_555
In3_1 In3_5 3.520786 1_455
In3_2 Ni0_0 2.774122 1_555
In3_2 Lu7_6 3.159258 1_555
In3_2 Lu7_2 3.159258 1_555
In3_2 Lu3_2 3.187936 1_555
In3_2 Lu3_6 3.187936 1_555
In3_2 Ni3_2 3.189860 1_555
In3_2 In6_0 3.215593 1_555
In3_2 Lu9_2 3.238825 1_555
In3_2 Lu9_6 3.238825 1_555
In3_2 Lu1_0 3.279917 1_555
In3_2 Lu1_4 3.279917 1_555
In3_2 In3_6 3.520786 1_555
In3_2 In3_6 3.520786 1_455
In3_3 Ni0_1 2.774122 1_555
In3_3 Lu7_3 3.159258 1_555
In3_3 Lu7_7 3.159258 1_555
In3_3 Lu3_7 3.187936 1_555
In3_3 Lu3_3 3.187936 1_555
In3_3 Ni3_3 3.189860 1_555
In3_3 In6_1 3.215593 1_555
In3_3 Lu9_3 3.238825 1_555
In3_3 Lu9_7 3.238825 1_555
In3_3 Lu1_5 3.279917 1_555
In3_3 Lu1_1 3.279917 1_555
In3_3 In3_7 3.520786 1_555
In3_3 In3_7 3.520786 1_455
In3_4 Ni0_6 2.774122 1_545
In3_4 Lu7_0 3.159258 1_655
In3_4 Lu7_4 3.159258 1_555
In3_4 Lu3_0 3.187936 1_655
In3_4 Lu3_4 3.187936 1_555
In3_4 Ni3_4 3.189860 1_555
In3_4 In6_6 3.215593 1_545
In3_4 Lu9_4 3.238825 1_555
In3_4 Lu9_0 3.238825 1_655
In3_4 Lu1_2 3.279917 1_645
In3_4 Lu1_6 3.279917 1_545
In3_5 Ni0_7 2.774122 1_545
In3_5 Lu7_1 3.159258 1_655
In3_5 Lu7_5 3.159258 1_555
In3_5 Lu3_5 3.187936 1_555
In3_5 Lu3_1 3.187936 1_655
In3_5 Ni3_5 3.189860 1_555
In3_5 In6_7 3.215593 1_545
In3_5 Lu9_5 3.238825 1_555
In3_5 Lu9_1 3.238825 1_655
In3_5 Lu1_3 3.279917 1_645
In3_5 Lu1_7 3.279917 1_545
In3_6 Ni0_4 2.774122 1_555
In3_6 Lu7_2 3.159258 1_655
In3_6 Lu7_6 3.159258 1_555
In3_6 Lu3_2 3.187936 1_655
In3_6 Lu3_6 3.187936 1_555
In3_6 Ni3_6 3.189860 1_555
In3_6 In6_4 3.215593 1_555
In3_6 Lu9_2 3.238825 1_655
In3_6 Lu9_6 3.238825 1_555
In3_6 Lu1_0 3.279917 1_655
In3_6 Lu1_4 3.279917 1_555
In3_7 Ni0_5 2.774122 1_555
In3_7 Lu7_7 3.159258 1_555
In3_7 Lu7_3 3.159258 1_655
In3_7 Lu3_3 3.187936 1_655
In3_7 Lu3_7 3.187936 1_555
In3_7 Ni3_7 3.189860 1_555
In3_7 In6_5 3.215593 1_555
In3_7 Lu9_3 3.238825 1_655
In3_7 Lu9_7 3.238825 1_555
In3_7 Lu1_5 3.279917 1_555
In3_7 Lu1_1 3.279917 1_655
In4_0 Ni1_2 2.774122 1_555
In4_0 Lu2_0 3.159258 1_555
In4_0 Lu2_4 3.159258 1_555
In4_0 Lu8_0 3.187936 1_555
In4_0 Lu8_4 3.187936 1_555
In4_0 Ni2_0 3.189860 1_555
In4_0 In7_2 3.215593 1_555
In4_0 Lu9_2 3.238825 1_555
In4_0 Lu9_6 3.238825 1_555
In4_0 Lu5_2 3.279917 1_555
In4_0 Lu5_6 3.279917 1_555
In4_0 In4_4 3.520786 1_555
In4_0 In4_4 3.520786 1_455
In4_1 Ni1_3 2.774122 1_555
In4_1 Lu2_1 3.159258 1_555
In4_1 Lu2_5 3.159258 1_555
In4_1 Lu8_1 3.187936 1_555
In4_1 Lu8_5 3.187936 1_555
In4_1 Ni2_1 3.189860 1_555
In4_1 In7_3 3.215593 1_555
In4_1 Lu9_3 3.238825 1_555
In4_1 Lu9_7 3.238825 1_555
In4_1 Lu5_7 3.279917 1_555
In4_1 Lu5_3 3.279917 1_555
In4_1 In4_5 3.520786 1_455
In4_1 In4_5 3.520786 1_555
In4_2 Ni1_0 2.774122 1_565
In4_2 Lu2_6 3.159258 1_555
In4_2 Lu2_2 3.159258 1_555
In4_2 Lu8_2 3.187936 1_555
In4_2 Lu8_6 3.187936 1_555
In4_2 Ni2_2 3.189860 1_555
In4_2 In7_0 3.215593 1_565
In4_2 Lu9_0 3.238825 1_565
In4_2 Lu9_4 3.238825 1_565
In4_2 Lu5_4 3.279917 1_565
In4_2 Lu5_0 3.279917 1_565
In4_2 In4_6 3.520786 1_555
In4_2 In4_6 3.520786 1_455
In4_3 Ni1_1 2.774122 1_565
In4_3 Lu2_3 3.159258 1_555
In4_3 Lu2_7 3.159258 1_555
In4_3 Lu8_3 3.187936 1_555
In4_3 Lu8_7 3.187936 1_555
In4_3 Ni2_3 3.189860 1_555
In4_3 In7_1 3.215593 1_565
In4_3 Lu9_1 3.238825 1_565
In4_3 Lu9_5 3.238825 1_565
In4_3 Lu5_5 3.279917 1_565
In4_3 Lu5_1 3.279917 1_565
In4_3 In4_7 3.520786 1_555
In4_3 In4_7 3.520786 1_455
In4_4 Ni1_6 2.774122 1_555
In4_4 Lu2_0 3.159258 1_655
In4_4 Lu2_4 3.159258 1_555
In4_4 Lu8_4 3.187936 1_555
In4_4 Lu8_0 3.187936 1_655
In4_4 Ni2_4 3.189860 1_555
In4_4 In7_6 3.215593 1_555
In4_4 Lu9_2 3.238825 1_655
In4_4 Lu9_6 3.238825 1_555
In4_4 Lu5_6 3.279917 1_555
In4_4 Lu5_2 3.279917 1_655
In4_5 Ni1_7 2.774122 1_555
In4_5 Lu2_1 3.159258 1_655
In4_5 Lu2_5 3.159258 1_555
In4_5 Lu8_1 3.187936 1_655
In4_5 Lu8_5 3.187936 1_555
In4_5 Ni2_5 3.189860 1_555
In4_5 In7_7 3.215593 1_555
In4_5 Lu9_3 3.238825 1_655
In4_5 Lu9_7 3.238825 1_555
In4_5 Lu5_3 3.279917 1_655
In4_5 Lu5_7 3.279917 1_555
In4_6 Ni1_4 2.774122 1_565
In4_6 Lu2_2 3.159258 1_655
In4_6 Lu2_6 3.159258 1_555
In4_6 Lu8_6 3.187936 1_555
In4_6 Lu8_2 3.187936 1_655
In4_6 Ni2_6 3.189860 1_555
In4_6 In7_4 3.215593 1_565
In4_6 Lu9_0 3.238825 1_665
In4_6 Lu9_4 3.238825 1_565
In4_6 Lu5_4 3.279917 1_565
In4_6 Lu5_0 3.279917 1_665
In4_7 Ni1_5 2.774122 1_565
In4_7 Lu2_3 3.159258 1_655
In4_7 Lu2_7 3.159258 1_555
In4_7 Lu8_3 3.187936 1_655
In4_7 Lu8_7 3.187936 1_555
In4_7 Ni2_7 3.189860 1_555
In4_7 In7_5 3.215593 1_565
In4_7 Lu9_5 3.238825 1_565
In4_7 Lu9_1 3.238825 1_665
In4_7 Lu5_1 3.279917 1_665
In4_7 Lu5_5 3.279917 1_565
In5_0 Ni1_2 2.876928 1_555
In5_0 Lu4_2 3.074744 1_555
In5_0 Lu4_6 3.074744 1_555
In5_0 Lu6_1 3.119302 1_555
In5_0 Lu6_5 3.119302 1_555
In5_0 Lu2_0 3.220608 1_555
In5_0 Lu2_4 3.220608 1_555
In5_0 Lu0_1 3.328728 1_555
In5_0 Lu0_5 3.328728 1_555
In5_1 Ni1_3 2.876928 1_555
In5_1 Lu4_3 3.074744 1_555
In5_1 Lu4_7 3.074744 1_555
In5_1 Lu6_4 3.119302 1_556
In5_1 Lu6_0 3.119302 1_556
In5_1 Lu2_1 3.220608 1_555
In5_1 Lu2_5 3.220608 1_555
In5_1 Lu0_0 3.328728 1_556
In5_1 Lu0_4 3.328728 1_556
In5_2 Ni1_0 2.876928 1_565
In5_2 Lu4_0 3.074744 1_565
In5_2 Lu4_4 3.074744 1_565
In5_2 Lu6_7 3.119302 1_555
In5_2 Lu6_3 3.119302 1_555
In5_2 Lu2_2 3.220608 1_555
In5_2 Lu2_6 3.220608 1_555
In5_2 Lu0_3 3.328728 1_555
In5_2 Lu0_7 3.328728 1_555
In5_3 Ni1_1 2.876928 1_565
In5_3 Lu4_1 3.074744 1_565
In5_3 Lu4_5 3.074744 1_565
In5_3 Lu6_2 3.119302 1_556
In5_3 Lu6_6 3.119302 1_556
In5_3 Lu2_3 3.220608 1_555
In5_3 Lu2_7 3.220608 1_555
In5_3 Lu0_2 3.328728 1_556
In5_3 Lu0_6 3.328728 1_556
In5_4 Ni1_6 2.876928 1_555
In5_4 Lu4_6 3.074744 1_555
In5_4 Lu4_2 3.074744 1_655
In5_4 Lu6_1 3.119302 1_655
In5_4 Lu6_5 3.119302 1_555
In5_4 Lu2_0 3.220608 1_655
In5_4 Lu2_4 3.220608 1_555
In5_4 Lu0_1 3.328728 1_655
In5_4 Lu0_5 3.328728 1_555
In5_5 Ni1_7 2.876928 1_555
In5_5 Lu4_3 3.074744 1_655
In5_5 Lu4_7 3.074744 1_555
In5_5 Lu6_0 3.119302 1_656
In5_5 Lu6_4 3.119302 1_556
In5_5 Lu2_1 3.220608 1_655
In5_5 Lu2_5 3.220608 1_555
In5_5 Lu0_0 3.328728 1_656
In5_5 Lu0_4 3.328728 1_556
In5_6 Ni1_4 2.876928 1_565
In5_6 Lu4_4 3.074744 1_565
In5_6 Lu4_0 3.074744 1_665
In5_6 Lu6_7 3.119302 1_555
In5_6 Lu6_3 3.119302 1_655
In5_6 Lu2_6 3.220608 1_555
In5_6 Lu2_2 3.220608 1_655
In5_6 Lu0_3 3.328728 1_655
In5_6 Lu0_7 3.328728 1_555
In5_7 Ni1_5 2.876928 1_565
In5_7 Lu4_5 3.074744 1_565
In5_7 Lu4_1 3.074744 1_665
In5_7 Lu6_2 3.119302 1_656
In5_7 Lu6_6 3.119302 1_556
In5_7 Lu2_3 3.220608 1_655
In5_7 Lu2_7 3.220608 1_555
In5_7 Lu0_6 3.328728 1_556
In5_7 Lu0_2 3.328728 1_656
In6_0 Ni3_0 2.876928 1_555
In6_0 Lu3_0 3.074744 1_555
In6_0 Lu3_4 3.074744 1_555
In6_0 Lu9_2 3.119302 1_555
In6_0 Lu9_6 3.119302 1_555
In6_0 Lu1_0 3.220608 1_555
In6_0 Lu1_4 3.220608 1_555
In6_0 Lu8_0 3.328728 1_555
In6_0 Lu8_4 3.328728 1_555
In6_1 Ni3_1 2.876928 1_555
In6_1 Lu3_5 3.074744 1_555
In6_1 Lu3_1 3.074744 1_555
In6_1 Lu9_3 3.119302 1_555
In6_1 Lu9_7 3.119302 1_555
In6_1 Lu1_1 3.220608 1_555
In6_1 Lu1_5 3.220608 1_555
In6_1 Lu8_1 3.328728 1_555
In6_1 Lu8_5 3.328728 1_555
In6_2 Ni3_2 2.876928 1_555
In6_2 Lu3_6 3.074744 1_555
In6_2 Lu3_2 3.074744 1_555
In6_2 Lu9_0 3.119302 1_565
In6_2 Lu9_4 3.119302 1_565
In6_2 Lu1_6 3.220608 1_555
In6_2 Lu1_2 3.220608 1_555
In6_2 Lu8_6 3.328728 1_555
In6_2 Lu8_2 3.328728 1_555
In6_3 Ni3_3 2.876928 1_555
In6_3 Lu3_3 3.074744 1_555
In6_3 Lu3_7 3.074744 1_555
In6_3 Lu9_1 3.119302 1_565
In6_3 Lu9_5 3.119302 1_565
In6_3 Lu1_7 3.220608 1_555
In6_3 Lu1_3 3.220608 1_555
In6_3 Lu8_3 3.328728 1_555
In6_3 Lu8_7 3.328728 1_555
In6_4 Ni3_4 2.876928 1_555
In6_4 Lu3_0 3.074744 1_655
In6_4 Lu3_4 3.074744 1_555
In6_4 Lu9_2 3.119302 1_655
In6_4 Lu9_6 3.119302 1_555
In6_4 Lu1_0 3.220608 1_655
In6_4 Lu1_4 3.220608 1_555
In6_4 Lu8_0 3.328728 1_655
In6_4 Lu8_4 3.328728 1_555
In6_5 Ni3_5 2.876928 1_555
In6_5 Lu3_1 3.074744 1_655
In6_5 Lu3_5 3.074744 1_555
In6_5 Lu9_3 3.119302 1_655
In6_5 Lu9_7 3.119302 1_555
In6_5 Lu1_5 3.220608 1_555
In6_5 Lu1_1 3.220608 1_655
In6_5 Lu8_1 3.328728 1_655
In6_5 Lu8_5 3.328728 1_555
In6_6 Ni3_6 2.876928 1_555
In6_6 Lu3_6 3.074744 1_555
In6_6 Lu3_2 3.074744 1_655
In6_6 Lu9_4 3.119302 1_565
In6_6 Lu9_0 3.119302 1_665
In6_6 Lu1_2 3.220608 1_655
In6_6 Lu1_6 3.220608 1_555
In6_6 Lu8_6 3.328728 1_555
In6_6 Lu8_2 3.328728 1_655
In6_7 Ni3_7 2.876928 1_555
In6_7 Lu3_3 3.074744 1_655
In6_7 Lu3_7 3.074744 1_555
In6_7 Lu9_5 3.119302 1_565
In6_7 Lu9_1 3.119302 1_665
In6_7 Lu1_7 3.220608 1_555
In6_7 Lu1_3 3.220608 1_655
In6_7 Lu8_3 3.328728 1_655
In6_7 Lu8_7 3.328728 1_555
In7_0 Ni2_0 2.876928 1_555
In7_0 Lu8_0 3.074744 1_555
In7_0 Lu8_4 3.074744 1_555
In7_0 Lu9_4 3.119302 1_555
In7_0 Lu9_0 3.119302 1_555
In7_0 Lu5_0 3.220608 1_555
In7_0 Lu5_4 3.220608 1_555
In7_0 Lu3_0 3.328728 1_555
In7_0 Lu3_4 3.328728 1_555
In7_1 Ni2_1 2.876928 1_555
In7_1 Lu8_5 3.074744 1_555
In7_1 Lu8_1 3.074744 1_555
In7_1 Lu9_1 3.119302 1_555
In7_1 Lu9_5 3.119302 1_555
In7_1 Lu5_5 3.220608 1_555
In7_1 Lu5_1 3.220608 1_555
In7_1 Lu3_1 3.328728 1_555
In7_1 Lu3_5 3.328728 1_555
In7_2 Ni2_2 2.876928 1_555
In7_2 Lu8_2 3.074744 1_555
In7_2 Lu8_6 3.074744 1_555
In7_2 Lu9_6 3.119302 1_555
In7_2 Lu9_2 3.119302 1_555
In7_2 Lu5_2 3.220608 1_555
In7_2 Lu5_6 3.220608 1_555
In7_2 Lu3_2 3.328728 1_555
In7_2 Lu3_6 3.328728 1_555
In7_3 Ni2_3 2.876928 1_555
In7_3 Lu8_3 3.074744 1_555
In7_3 Lu8_7 3.074744 1_555
In7_3 Lu9_3 3.119302 1_555
In7_3 Lu9_7 3.119302 1_555
In7_3 Lu5_7 3.220608 1_555
In7_3 Lu5_3 3.220608 1_555
In7_3 Lu3_3 3.328728 1_555
In7_3 Lu3_7 3.328728 1_555
In7_4 Ni2_4 2.876928 1_555
In7_4 Lu8_4 3.074744 1_555
In7_4 Lu8_0 3.074744 1_655
In7_4 Lu9_4 3.119302 1_555
In7_4 Lu9_0 3.119302 1_655
In7_4 Lu5_0 3.220608 1_655
In7_4 Lu5_4 3.220608 1_555
In7_4 Lu3_0 3.328728 1_655
In7_4 Lu3_4 3.328728 1_555
In7_5 Ni2_5 2.876928 1_555
In7_5 Lu8_5 3.074744 1_555
In7_5 Lu8_1 3.074744 1_655
In7_5 Lu9_5 3.119302 1_555
In7_5 Lu9_1 3.119302 1_655
In7_5 Lu5_1 3.220608 1_655
In7_5 Lu5_5 3.220608 1_555
In7_5 Lu3_1 3.328728 1_655
In7_5 Lu3_5 3.328728 1_555
In7_6 Ni2_6 2.876928 1_555
In7_6 Lu8_2 3.074744 1_655
In7_6 Lu8_6 3.074744 1_555
In7_6 Lu9_2 3.119302 1_655
In7_6 Lu9_6 3.119302 1_555
In7_6 Lu5_6 3.220608 1_555
In7_6 Lu5_2 3.220608 1_655
In7_6 Lu3_2 3.328728 1_655
In7_6 Lu3_6 3.328728 1_555
In7_7 Ni2_7 2.876928 1_555
In7_7 Lu8_3 3.074744 1_655
In7_7 Lu8_7 3.074744 1_555
In7_7 Lu9_3 3.119302 1_655
In7_7 Lu9_7 3.119302 1_555
In7_7 Lu5_7 3.220608 1_555
In7_7 Lu5_3 3.220608 1_655
In7_7 Lu3_3 3.328728 1_655
In7_7 Lu3_7 3.328728 1_555
