# generated using pymatgen
data_Na3LaTi2Nb2O12
_symmetry_space_group_name_H-M   'P 1'
_cell_length_a   7.92743700
_cell_length_b   7.78049500
_cell_length_c   11.04108281
_cell_angle_alpha   45.21802939
_cell_angle_beta   90.00000000
_cell_angle_gamma   90.00000000
_symmetry_Int_Tables_number   1
_chemical_formula_structural   Na3LaTi2Nb2O12
_chemical_formula_sum   'Na6 La2 Ti4 Nb4 O24'
_cell_volume   483.37374538
_cell_formula_units_Z   2
loop_
 _symmetry_equiv_pos_site_id
 _symmetry_equiv_pos_as_xyz
  1  'x, y, z'
loop_
 _atom_site_type_symbol
 _atom_site_label
 _atom_site_symmetry_multiplicity
 _atom_site_fract_x
 _atom_site_fract_y
 _atom_site_fract_z
 _atom_site_occupancy
  Na  Na0  1  0.24525800  0.50000000  0.25000000  1
  Na  Na1  1  0.74882900  0.50000000  0.25000000  1
  Na  Na2  1  0.25117100  0.50000000  0.75000000  1
  Na  Na3  1  0.75474200  0.50000000  0.75000000  1
  Na  Na4  1  0.75834500  0.00000000  0.75000000  1
  Na  Na5  1  0.24165500  0.00000000  0.25000000  1
  La  La0  1  0.25846300  0.00000000  0.75000000  1
  La  La1  1  0.74153700  0.00000000  0.25000000  1
  Ti  Ti0  1  0.50000000  0.00000000  0.00000000  1
  Ti  Ti1  1  0.50000000  0.00000000  0.50000000  1
  Ti  Ti2  1  0.00000000  0.50000000  0.50000000  1
  Ti  Ti3  1  0.00000000  0.50000000  0.00000000  1
  Nb  Nb0  1  0.50000000  0.50000000  0.50000000  1
  Nb  Nb1  1  0.50000000  0.50000000  0.00000000  1
  Nb  Nb2  1  0.00000000  0.00000000  0.00000000  1
  Nb  Nb3  1  0.00000000  0.00000000  0.50000000  1
  O  O0  1  0.24788600  0.46838100  0.49877900  1
  O  O1  1  0.25255700  0.03395200  0.49903700  1
  O  O2  1  0.48120400  0.80682500  0.44566500  1
  O  O3  1  0.51662800  0.71030200  0.24786000  1
  O  O4  1  0.51662800  0.28969800  0.25214000  1
  O  O5  1  0.48120400  0.19317500  0.05433500  1
  O  O6  1  0.51879600  0.80682500  0.94566500  1
  O  O7  1  0.48337200  0.71030200  0.74786000  1
  O  O8  1  0.48337200  0.28969800  0.75214000  1
  O  O9  1  0.74744300  0.03395200  0.99903700  1
  O  O10  1  0.75211400  0.46838100  0.99877900  1
  O  O11  1  0.51879600  0.19317500  0.55433500  1
  O  O12  1  0.02308200  0.29613900  0.95599600  1
  O  O13  1  0.74744300  0.96604800  0.50096300  1
  O  O14  1  0.75211400  0.53161900  0.50122100  1
  O  O15  1  0.00608700  0.19875200  0.74756100  1
  O  O16  1  0.00608700  0.80124800  0.75243900  1
  O  O17  1  0.02308200  0.70386100  0.54400400  1
  O  O18  1  0.97691800  0.29613900  0.45599600  1
  O  O19  1  0.99391300  0.19875200  0.24756100  1
  O  O20  1  0.99391300  0.80124800  0.25243900  1
  O  O21  1  0.97691800  0.70386100  0.04400400  1
  O  O22  1  0.24788600  0.53161900  0.00122100  1
  O  O23  1  0.25255700  0.96604800  0.00096300  1
loop_
_geom_bond_atom_site_label_1
_geom_bond_atom_site_label_2
_geom_bond_distance
_geom_bond_site_symmetry_2
Na0 O0 2.579498 1_555
Na0 O22 2.579498 1_555
Na0 O23 2.581821 1_555
Na0 O1 2.581821 1_555
Na0 O18 2.670509 1_455
Na0 O21 2.670509 1_455
Na0 O4 2.692838 1_555
Na0 O3 2.692838 1_555
Na1 O18 2.424021 1_555
Na1 O21 2.424021 1_555
Na1 O4 2.451899 1_555
Na1 O3 2.451899 1_555
Na2 O12 2.424021 1_555
Na2 O17 2.424021 1_555
Na2 O8 2.451899 1_555
Na2 O7 2.451899 1_555
Na3 O10 2.579498 1_555
Na3 O14 2.579498 1_555
Na3 O13 2.581821 1_555
Na3 O9 2.581821 1_555
Na3 O12 2.670509 1_655
Na3 O17 2.670509 1_655
Na3 O8 2.692838 1_555
Na3 O7 2.692838 1_555
Na4 O11 2.440884 1_555
Na4 O6 2.440884 1_545
Na4 O15 2.488074 1_655
Na4 O16 2.488074 1_645
Na4 O21 2.882948 1_546
Na4 O18 2.882948 1_555
Na5 O2 2.440884 1_545
Na5 O5 2.440884 1_555
Na5 O19 2.488074 1_455
Na5 O20 2.488074 1_445
Na5 O17 2.882948 1_545
Na5 O12 2.882948 1_554
La0 O15 2.517172 1_555
La0 O16 2.517172 1_545
La0 O6 2.571155 1_545
La0 O11 2.571155 1_555
La0 O23 2.592038 1_546
La0 O1 2.592038 1_555
La0 O22 2.596252 1_546
La0 O0 2.596252 1_555
La0 O7 2.887039 1_545
La0 O8 2.887039 1_555
La1 O19 2.517172 1_555
La1 O20 2.517172 1_545
La1 O2 2.571155 1_545
La1 O5 2.571155 1_555
La1 O13 2.592038 1_545
La1 O9 2.592038 1_554
La1 O10 2.596252 1_554
La1 O14 2.596252 1_545
La1 O4 2.887039 1_555
La1 O3 2.887039 1_545
Nb0 O3 2.006833 1_555
Nb0 O8 2.006833 1_555
Nb0 O14 2.014907 1_555
Nb0 O0 2.014907 1_555
Nb0 O2 2.015793 1_555
Nb0 O11 2.015793 1_555
Nb1 O7 2.006833 1_554
Nb1 O4 2.006833 1_555
Nb1 O22 2.014907 1_555
Nb1 O10 2.014907 1_554
Nb1 O6 2.015793 1_554
Nb1 O5 2.015793 1_555
Nb2 O12 2.000334 1_554
Nb2 O21 2.000334 1_445
Nb2 O9 2.018530 1_454
Nb2 O23 2.018530 1_545
Nb2 O20 2.022369 1_445
Nb2 O15 2.022369 1_554
Nb3 O18 2.000334 1_455
Nb3 O17 2.000334 1_545
Nb3 O1 2.018530 1_555
Nb3 O13 2.018530 1_445
Nb3 O16 2.022369 1_545
Nb3 O19 2.022369 1_455
O0 Ti2 1.981665 1_555
O1 Ti1 1.978325 1_555
O2 Ti1 1.977726 1_565
O3 Ti0 1.974066 1_565
O4 Ti1 1.974066 1_555
O5 Ti0 1.977726 1_555
O6 Ti0 1.977726 1_566
O7 Ti1 1.974066 1_565
O8 Ti0 1.974066 1_556
O9 Ti0 1.978325 1_556
O10 Ti3 1.981665 1_656
O11 Ti1 1.977726 1_555
O12 Ti3 1.967499 1_556
O13 Ti1 1.978325 1_565
O14 Ti2 1.981665 1_655
O15 Ti2 1.985308 1_555
O16 Ti3 1.985308 1_556
O17 Ti2 1.967499 1_555
O18 Ti2 1.967499 1_655
O19 Ti3 1.985308 1_655
O20 Ti2 1.985308 1_655
O21 Ti3 1.967499 1_655
O22 Ti3 1.981665 1_555
O23 Ti0 1.978325 1_565
