# generated using pymatgen
data_Sr2NiN2
_symmetry_space_group_name_H-M   'P 1'
_cell_length_a   3.85391200
_cell_length_b   7.71063100
_cell_length_c   12.52465700
_cell_angle_alpha   90.00000000
_cell_angle_beta   90.00000000
_cell_angle_gamma   90.00000000
_symmetry_Int_Tables_number   1
_chemical_formula_structural   Sr2NiN2
_chemical_formula_sum   'Sr8 Ni4 N8'
_cell_volume   372.18387644
_cell_formula_units_Z   4
loop_
 _symmetry_equiv_pos_site_id
 _symmetry_equiv_pos_as_xyz
  1  'x, y, z'
loop_
 _atom_site_type_symbol
 _atom_site_label
 _atom_site_symmetry_multiplicity
 _atom_site_fract_x
 _atom_site_fract_y
 _atom_site_fract_z
 _atom_site_occupancy
  Sr  Sr0  1  0.25000000  0.11689200  0.39655100  1
  Sr  Sr1  1  0.75000000  0.87334700  0.89896900  1
  Sr  Sr2  1  0.25000000  0.62665300  0.39896900  1
  Sr  Sr3  1  0.25000000  0.12665300  0.10103100  1
  Sr  Sr4  1  0.75000000  0.88310800  0.60344900  1
  Sr  Sr5  1  0.75000000  0.37334700  0.60103100  1
  Sr  Sr6  1  0.25000000  0.61689200  0.10344900  1
  Sr  Sr7  1  0.75000000  0.38310800  0.89655100  1
  Ni  Ni0  1  0.75000000  0.87176100  0.24818500  1
  Ni  Ni1  1  0.25000000  0.12823900  0.75181500  1
  Ni  Ni2  1  0.75000000  0.37176100  0.25181500  1
  Ni  Ni3  1  0.25000000  0.62823900  0.74818500  1
  N  N0  1  0.75000000  0.36790700  0.39222800  1
  N  N1  1  0.75000000  0.87551600  0.38931300  1
  N  N2  1  0.25000000  0.12448400  0.61068700  1
  N  N3  1  0.25000000  0.63209300  0.60777200  1
  N  N4  1  0.25000000  0.62448400  0.88931300  1
  N  N5  1  0.75000000  0.37551600  0.11068700  1
  N  N6  1  0.25000000  0.13209300  0.89222800  1
  N  N7  1  0.75000000  0.86790700  0.10777200  1
loop_
_geom_bond_atom_site_label_1
_geom_bond_atom_site_label_2
_geom_bond_distance
_geom_bond_site_symmetry_2
N0 Ni2 1.758876 1_555
N0 Sr5 2.615522 1_555
N0 Sr0 2.731701 1_655
N0 Sr0 2.731701 1_555
N0 Sr2 2.775012 1_555
N0 Sr2 2.775012 1_655
N1 Ni0 1.767817 1_555
N1 Sr0 2.680541 1_565
N1 Sr0 2.680541 1_665
N1 Sr4 2.682619 1_555
N1 Sr2 2.722118 1_555
N1 Sr2 2.722118 1_655
N2 Ni1 1.767817 1_555
N2 Sr4 2.680541 1_445
N2 Sr4 2.680541 1_545
N2 Sr0 2.682619 1_555
N2 Sr5 2.722118 1_455
N2 Sr5 2.722118 1_555
N3 Ni3 1.758876 1_555
N3 Sr2 2.615522 1_555
N3 Sr4 2.731701 1_455
N3 Sr4 2.731701 1_555
N3 Sr5 2.775012 1_555
N3 Sr5 2.775012 1_455
N4 Ni3 1.767817 1_555
N4 Sr7 2.680541 1_455
N4 Sr7 2.680541 1_555
N4 Sr6 2.682619 1_556
N4 Sr1 2.722118 1_455
N4 Sr1 2.722118 1_555
N5 Ni2 1.767817 1_555
N5 Sr6 2.680541 1_555
N5 Sr6 2.680541 1_655
N5 Sr7 2.682619 1_554
N5 Sr3 2.722118 1_555
N5 Sr3 2.722118 1_655
N6 Ni1 1.758876 1_555
N6 Sr3 2.615522 1_556
N6 Sr7 2.731701 1_455
N6 Sr7 2.731701 1_555
N6 Sr1 2.775012 1_445
N6 Sr1 2.775012 1_545
N7 Ni0 1.758876 1_555
N7 Sr1 2.615522 1_554
N7 Sr6 2.731701 1_655
N7 Sr6 2.731701 1_555
N7 Sr3 2.775012 1_565
N7 Sr3 2.775012 1_665
