# generated using pymatgen
data_Fe2S
_symmetry_space_group_name_H-M   'P 1'
_cell_length_a   4.63311968
_cell_length_b   4.63311968
_cell_length_c   19.52253172
_cell_angle_alpha   89.76728675
_cell_angle_beta   89.76728675
_cell_angle_gamma   38.55221085
_symmetry_Int_Tables_number   1
_chemical_formula_structural   Fe2S
_chemical_formula_sum   'Fe14 S7'
_cell_volume   261.17150054
_cell_formula_units_Z   7
loop_
 _symmetry_equiv_pos_site_id
 _symmetry_equiv_pos_as_xyz
  1  'x, y, z'
loop_
 _atom_site_type_symbol
 _atom_site_label
 _atom_site_symmetry_multiplicity
 _atom_site_fract_x
 _atom_site_fract_y
 _atom_site_fract_z
 _atom_site_occupancy
  Fe  Fe0  1  0.46707200  0.46707200  0.84749800  1
  Fe  Fe1  1  0.30951800  0.30951800  0.96728800  1
  Fe  Fe2  1  0.02534200  0.02534200  0.63602400  1
  Fe  Fe3  1  0.89052400  0.89052400  0.75017100  1
  Fe  Fe4  1  0.29039100  0.29039100  0.56789900  1
  Fe  Fe5  1  0.60540400  0.60540400  0.73348300  1
  Fe  Fe6  1  0.72722100  0.72722100  0.46466100  1
  Fe  Fe7  1  0.43910000  0.43910000  0.45605400  1
  Fe  Fe8  1  0.16141700  0.16141700  0.28572500  1
  Fe  Fe9  1  0.86403300  0.86403300  0.35104100  1
  Fe  Fe10  1  0.60266300  0.60266300  0.18403300  1
  Fe  Fe11  1  0.31783900  0.31783900  0.17068000  1
  Fe  Fe12  1  0.02060100  0.02060100  0.00409700  1
  Fe  Fe13  1  0.73239400  0.73239400  0.06540300  1
  S  S0  1  0.62553000  0.62553000  0.93658600  1
  S  S1  1  0.22881900  0.22881900  0.80096600  1
  S  S2  1  0.76781000  0.76781000  0.64498700  1
  S  S3  1  0.06084100  0.06084100  0.52044700  1
  S  S4  1  0.59499000  0.59499000  0.36407500  1
  S  S5  1  0.91599500  0.91599500  0.23821500  1
  S  S6  1  0.46768800  0.46768800  0.08217400  1
loop_
_geom_bond_atom_site_label_1
_geom_bond_atom_site_label_2
_geom_bond_distance
_geom_bond_site_symmetry_2
Fe0 S0 2.228592 1_555
Fe0 S1 2.276914 1_555
Fe1 S0 2.301464 1_455
Fe1 S0 2.301464 1_545
Fe1 S6 2.640294 1_556
Fe2 S2 2.258606 1_445
Fe2 S3 2.276296 1_555
Fe2 S2 2.621256 1_545
Fe2 S2 2.621256 1_455
Fe3 S1 2.304592 1_655
Fe3 S1 2.304592 1_565
Fe3 S2 2.321150 1_555
Fe4 S2 2.154222 1_455
Fe4 S2 2.154222 1_545
Fe4 S3 2.214843 1_555
Fe5 S2 2.231951 1_555
Fe5 S1 2.291834 1_655
Fe5 S1 2.291834 1_565
Fe6 S4 2.283275 1_555
Fe6 S3 2.372690 1_655
Fe6 S3 2.372690 1_565
Fe7 S4 2.250013 1_555
Fe7 S3 2.250572 1_565
Fe7 S3 2.250572 1_655
Fe8 S4 2.238062 1_455
Fe8 S4 2.238062 1_545
Fe8 S5 2.342118 1_445
Fe9 S5 2.247135 1_555
Fe9 S4 2.365883 1_555
Fe9 S4 2.547433 1_565
Fe9 S4 2.547433 1_655
Fe10 S6 2.316963 1_555
Fe10 S5 2.471678 1_545
Fe10 S5 2.471678 1_455
Fe11 S6 2.164240 1_555
Fe11 S5 2.196475 1_545
Fe11 S5 2.196475 1_455
Fe12 S6 2.206997 1_545
Fe12 S6 2.206997 1_455
Fe12 S0 2.215480 1_544
Fe12 S0 2.215480 1_454
Fe13 S6 2.336960 1_555
Fe13 S6 2.586107 1_565
Fe13 S6 2.586107 1_655
