# generated using pymatgen
data_NaTiFeO4
_symmetry_space_group_name_H-M   'P 1'
_cell_length_a   2.97230721
_cell_length_b   9.13530430
_cell_length_c   11.32801069
_cell_angle_alpha   90.00000000
_cell_angle_beta   90.00000000
_cell_angle_gamma   90.00000000
_symmetry_Int_Tables_number   1
_chemical_formula_structural   NaTiFeO4
_chemical_formula_sum   'Na4 Ti4 Fe4 O16'
_cell_volume   307.58869078
_cell_formula_units_Z   4
loop_
 _symmetry_equiv_pos_site_id
 _symmetry_equiv_pos_as_xyz
  1  'x, y, z'
loop_
 _atom_site_type_symbol
 _atom_site_label
 _atom_site_symmetry_multiplicity
 _atom_site_fract_x
 _atom_site_fract_y
 _atom_site_fract_z
 _atom_site_occupancy
  Na  Na0  1  0.75000000  0.38889018  0.89029394  1
  Na  Na1  1  0.25000000  0.11110982  0.39029394  1
  Na  Na2  1  0.25000000  0.61110982  0.10970606  1
  Na  Na3  1  0.75000000  0.88889018  0.60970606  1
  Ti  Ti0  1  0.75000000  0.72491588  0.83981663  1
  Ti  Ti1  1  0.25000000  0.77508412  0.33981663  1
  Ti  Ti2  1  0.25000000  0.27508412  0.16018337  1
  Ti  Ti3  1  0.75000000  0.22491588  0.66018337  1
  Fe  Fe0  1  0.75000000  0.98335371  0.11796282  1
  Fe  Fe1  1  0.25000000  0.51664629  0.61796282  1
  Fe  Fe2  1  0.75000000  0.48335371  0.38203718  1
  Fe  Fe3  1  0.25000000  0.01664629  0.88203718  1
  O  O0  1  0.75000000  0.12469688  0.81036991  1
  O  O1  1  0.75000000  0.88288597  0.40612840  1
  O  O2  1  0.25000000  0.11488677  0.04031132  1
  O  O3  1  0.25000000  0.61711403  0.90612840  1
  O  O4  1  0.25000000  0.84993233  0.76983771  1
  O  O5  1  0.75000000  0.15006767  0.23016229  1
  O  O6  1  0.75000000  0.62469688  0.68963009  1
  O  O7  1  0.25000000  0.37530312  0.31036991  1
  O  O8  1  0.75000000  0.38511323  0.54031132  1
  O  O9  1  0.25000000  0.87530312  0.18963009  1
  O  O10  1  0.25000000  0.61488677  0.45968868  1
  O  O11  1  0.25000000  0.11711403  0.59387160  1
  O  O12  1  0.75000000  0.88511323  0.95968868  1
  O  O13  1  0.25000000  0.34993233  0.73016229  1
  O  O14  1  0.75000000  0.38288597  0.09387160  1
  O  O15  1  0.75000000  0.65006767  0.26983771  1
loop_
_geom_bond_atom_site_label_1
_geom_bond_atom_site_label_2
_geom_bond_distance
_geom_bond_site_symmetry_2
Na0 O14 2.306782 1_556
Na0 O13 2.371879 1_555
Na0 O13 2.371879 1_655
Na0 O3 2.566634 1_555
Na0 O3 2.566634 1_655
Na0 O0 2.577718 1_555
Na1 O11 2.306782 1_555
Na1 O5 2.371879 1_555
Na1 O5 2.371879 1_455
Na1 O1 2.566634 1_445
Na1 O1 2.566634 1_545
Na1 O7 2.577718 1_555
Na2 O3 2.306782 1_554
Na2 O15 2.371879 1_455
Na2 O15 2.371879 1_555
Na2 O14 2.566634 1_555
Na2 O14 2.566634 1_455
Na2 O9 2.577718 1_555
Na3 O1 2.306782 1_555
Na3 O4 2.371879 1_555
Na3 O4 2.371879 1_655
Na3 O11 2.566634 1_565
Na3 O11 2.566634 1_665
Na3 O6 2.577718 1_555
Fe0 O9 1.960119 1_555
Fe0 O9 1.960119 1_655
Fe0 O5 1.983661 1_565
Fe0 O12 2.005001 1_554
Fe0 O2 2.103864 1_665
Fe0 O2 2.103864 1_565
Fe1 O6 1.960119 1_455
Fe1 O6 1.960119 1_555
Fe1 O13 1.983661 1_555
Fe1 O10 2.005001 1_555
Fe1 O8 2.103864 1_455
Fe1 O8 2.103864 1_555
Fe2 O7 1.960119 1_655
Fe2 O7 1.960119 1_555
Fe2 O15 1.983661 1_555
Fe2 O8 2.005001 1_555
Fe2 O10 2.103864 1_555
Fe2 O10 2.103864 1_655
Fe3 O0 1.960119 1_455
Fe3 O0 1.960119 1_555
Fe3 O4 1.983661 1_545
Fe3 O2 2.005001 1_556
Fe3 O12 2.103864 1_445
Fe3 O12 2.103864 1_545
O0 Ti3 1.932012 1_555
O1 Ti1 1.934622 1_555
O1 Ti1 1.934622 1_655
O2 Ti2 1.996401 1_555
O3 Ti0 1.934622 1_455
O3 Ti0 1.934622 1_555
O4 Ti0 2.035035 1_555
O4 Ti0 2.035035 1_455
O5 Ti2 2.035035 1_555
O5 Ti2 2.035035 1_655
O6 Ti0 1.932012 1_555
O7 Ti2 1.932012 1_555
O8 Ti3 1.996401 1_555
O9 Ti1 1.932012 1_555
O10 Ti1 1.996401 1_555
O11 Ti3 1.934622 1_455
O11 Ti3 1.934622 1_555
O12 Ti0 1.996401 1_555
O13 Ti3 2.035035 1_555
O13 Ti3 2.035035 1_455
O14 Ti2 1.934622 1_555
O14 Ti2 1.934622 1_655
O15 Ti1 2.035035 1_655
O15 Ti1 2.035035 1_555
