# generated using pymatgen
data_Mg54Ag17
_symmetry_space_group_name_H-M   'P 1'
_cell_length_a   12.44401349
_cell_length_b   12.44401350
_cell_length_c   12.44401350
_cell_angle_alpha   107.63696600
_cell_angle_beta   110.18673898
_cell_angle_gamma   110.60566619
_symmetry_Int_Tables_number   1
_chemical_formula_structural   Mg54Ag17
_chemical_formula_sum   'Mg54 Ag17'
_cell_volume   1482.24805565
_cell_formula_units_Z   1
loop_
 _symmetry_equiv_pos_site_id
 _symmetry_equiv_pos_as_xyz
  1  'x, y, z'
loop_
 _atom_site_type_symbol
 _atom_site_label
 _atom_site_symmetry_multiplicity
 _atom_site_fract_x
 _atom_site_fract_y
 _atom_site_fract_z
 _atom_site_occupancy
  Mg  Mg0  1  0.47968496  0.87342500  0.60625996  1
  Mg  Mg1  1  0.26716503  0.87342500  0.39374004  1
  Mg  Mg2  1  0.73283497  0.12657500  0.60625996  1
  Mg  Mg3  1  0.52031504  0.12657500  0.39374004  1
  Mg  Mg4  1  0.56683524  0.67498291  0.89185233  1
  Mg  Mg5  1  0.78313058  0.67498291  0.10814767  1
  Mg  Mg6  1  0.21686942  0.32501709  0.89185233  1
  Mg  Mg7  1  0.43316476  0.32501709  0.10814767  1
  Mg  Mg8  1  0.81658263  0.09846277  0.91504540  1
  Mg  Mg9  1  0.18341737  0.90153723  0.08495460  1
  Mg  Mg10  1  0.81658263  0.90153723  0.71811985  1
  Mg  Mg11  1  0.18341737  0.09846277  0.28188015  1
  Mg  Mg12  1  0.67908322  0.39675304  0.07583625  1
  Mg  Mg13  1  0.32091678  0.60324696  0.92416375  1
  Mg  Mg14  1  0.67908322  0.60324696  0.28233018  1
  Mg  Mg15  1  0.32091678  0.39675304  0.71766982  1
  Mg  Mg16  1  0.61096332  0.77961955  0.16865623  1
  Mg  Mg17  1  0.88459318  0.50000000  0.38459318  1
  Mg  Mg18  1  0.11540682  0.50000000  0.61540682  1
  Mg  Mg19  1  0.37895060  0.58007972  0.58169072  1
  Mg  Mg20  1  0.99838900  0.79725988  0.41830928  1
  Mg  Mg21  1  0.00161100  0.41992028  0.79887089  1
  Mg  Mg22  1  0.62104940  0.20274012  0.20112911  1
  Mg  Mg23  1  0.62104940  0.41992028  0.41830928  1
  Mg  Mg24  1  0.00161100  0.20274012  0.58169072  1
  Mg  Mg25  1  0.99838900  0.58007972  0.20112911  1
  Mg  Mg26  1  0.37895060  0.79725988  0.79887089  1
  Mg  Mg27  1  0.30623125  0.37170839  0.29261004  1
  Mg  Mg28  1  0.07909836  0.01362122  0.70738996  1
  Mg  Mg29  1  0.92090164  0.62829161  0.93452286  1
  Mg  Mg30  1  0.69376875  0.98637878  0.06547714  1
  Mg  Mg31  1  0.69376875  0.62829161  0.70738996  1
  Mg  Mg32  1  0.92090164  0.98637878  0.29261004  1
  Mg  Mg33  1  0.07909836  0.37170839  0.06547714  1
  Mg  Mg34  1  0.30623125  0.01362122  0.93452286  1
  Mg  Mg35  1  0.43702227  0.33261248  0.53256409  1
  Mg  Mg36  1  0.80004839  0.90445818  0.46743591  1
  Mg  Mg37  1  0.19995161  0.66738752  0.10440979  1
  Mg  Mg38  1  0.56297773  0.09554182  0.89559021  1
  Mg  Mg39  1  0.56297773  0.66738752  0.46743591  1
  Mg  Mg40  1  0.19995161  0.09554182  0.53256409  1
  Mg  Mg41  1  0.80004839  0.33261248  0.89559021  1
  Mg  Mg42  1  0.43702227  0.90445818  0.10440979  1
  Mg  Mg43  1  0.11402841  0.11402841  0.00000000  1
  Mg  Mg44  1  0.88597159  0.88597159  0.00000000  1
  Mg  Mg45  1  0.50000000  0.14536209  0.64536209  1
  Mg  Mg46  1  0.50000000  0.85463791  0.35463791  1
  Mg  Mg47  1  0.10215635  0.43775595  0.33559960  1
  Mg  Mg48  1  0.10215635  0.76655675  0.66440040  1
  Mg  Mg49  1  0.89784365  0.56224405  0.66440040  1
  Mg  Mg50  1  0.89784365  0.23344325  0.33559960  1
  Mg  Mg51  1  0.38903668  0.55769291  0.16865623  1
  Mg  Mg52  1  0.38903668  0.22038045  0.83134377  1
  Mg  Mg53  1  0.61096332  0.44230709  0.83134377  1
  Ag  Ag0  1  0.62456557  0.83209705  0.79246852  1
  Ag  Ag1  1  0.03962852  0.83209705  0.20753148  1
  Ag  Ag2  1  0.96037148  0.16790295  0.79246852  1
  Ag  Ag3  1  0.37543443  0.16790295  0.20753148  1
  Ag  Ag4  1  0.83253006  0.29012190  0.12265196  1
  Ag  Ag5  1  0.16746994  0.70987810  0.87734804  1
  Ag  Ag6  1  0.83253006  0.70987810  0.54240816  1
  Ag  Ag7  1  0.16746994  0.29012190  0.45759184  1
  Ag  Ag8  1  0.70082761  0.03414076  0.33331315  1
  Ag  Ag9  1  0.70082761  0.36751446  0.66668685  1
  Ag  Ag10  1  0.29917239  0.96585924  0.66668685  1
  Ag  Ag11  1  0.29917239  0.63248554  0.33331315  1
  Ag  Ag12  1  0.00000000  0.83128145  0.83128145  1
  Ag  Ag13  1  0.00000000  0.16871855  0.16871855  1
  Ag  Ag14  1  0.81089019  0.31089019  0.50000000  1
  Ag  Ag15  1  0.18910981  0.68910981  0.50000000  1
  Ag  Ag16  1  0.50000000  0.50000000  0.00000000  1
loop_
_geom_bond_atom_site_label_1
_geom_bond_atom_site_label_2
_geom_bond_distance
_geom_bond_site_symmetry_2
Mg0 Mg19 3.290676 1_555
Mg0 Mg26 3.290676 1_555
Mg1 Mg20 3.290676 1_455
Mg1 Mg25 3.290676 1_455
Mg2 Mg24 3.290676 1_655
Mg2 Mg21 3.290676 1_655
Mg10 Mg28 3.137144 1_665
Mg10 Mg31 3.137144 1_555
Mg11 Mg32 3.137144 1_445
Mg11 Mg27 3.137144 1_555
Mg12 Mg25 3.257639 1_555
Mg12 Mg22 3.257639 1_555
Mg13 Mg21 3.257639 1_555
Mg13 Mg26 3.257639 1_555
Mg14 Mg20 3.257639 1_555
Mg14 Mg23 3.257639 1_555
Mg15 Mg24 3.257639 1_555
Mg15 Mg19 3.257639 1_555
Mg16 Mg32 3.221657 1_555
Mg16 Mg30 3.221657 1_555
Mg17 Mg23 3.290464 1_555
Mg17 Mg20 3.290464 1_555
Mg17 Mg22 3.290464 1_555
Mg17 Mg25 3.290464 1_555
Mg18 Mg19 3.290464 1_555
Mg18 Mg24 3.290464 1_555
Mg18 Mg26 3.290464 1_555
Mg18 Mg21 3.290464 1_555
Mg19 Mg47 3.085215 1_555
Mg19 Mg39 3.142941 1_555
Mg19 Mg26 3.190926 1_555
Mg19 Mg4 3.290049 1_555
Mg19 Mg27 3.306438 1_555
Mg19 Mg35 3.333114 1_555
Mg19 Mg31 3.420818 1_555
Mg20 Mg48 3.085215 1_655
Mg20 Mg40 3.142941 1_665
Mg20 Mg25 3.190926 1_555
Mg20 Mg5 3.290049 1_555
Mg20 Mg28 3.306438 1_665
Mg20 Mg36 3.333114 1_555
Mg20 Mg32 3.420818 1_555
Mg21 Mg49 3.085215 1_455
Mg21 Mg41 3.142941 1_455
Mg21 Mg24 3.190926 1_555
Mg21 Mg6 3.290049 1_555
Mg21 Mg29 3.306438 1_455
Mg21 Mg37 3.333114 1_556
Mg21 Mg33 3.420818 1_556
Mg22 Mg50 3.085215 1_555
Mg22 Mg42 3.142941 1_545
Mg22 Mg23 3.190926 1_555
Mg22 Mg7 3.290049 1_555
Mg22 Mg3 3.290676 1_555
Mg22 Mg30 3.306438 1_545
Mg22 Mg38 3.333114 1_554
Mg22 Mg34 3.420818 1_554
Mg23 Mg49 3.085215 1_555
Mg23 Mg35 3.142941 1_555
Mg23 Mg7 3.290049 1_555
Mg23 Mg3 3.290676 1_555
Mg23 Mg31 3.306438 1_555
Mg23 Mg39 3.333114 1_555
Mg23 Mg27 3.420818 1_555
Mg24 Mg50 3.085215 1_455
Mg24 Mg36 3.142941 1_445
Mg24 Mg6 3.290049 1_555
Mg24 Mg32 3.306438 1_445
Mg24 Mg40 3.333114 1_555
Mg24 Mg28 3.420818 1_555
Mg25 Mg47 3.085215 1_655
Mg25 Mg37 3.142941 1_655
Mg25 Mg5 3.290049 1_555
Mg25 Mg33 3.306438 1_655
Mg25 Mg41 3.333114 1_554
Mg25 Mg29 3.420818 1_554
Mg26 Mg48 3.085215 1_555
Mg26 Mg38 3.142941 1_565
Mg26 Mg4 3.290049 1_555
Mg26 Mg34 3.306438 1_565
Mg26 Mg42 3.333114 1_556
Mg26 Mg30 3.420818 1_556
Mg27 Mg47 3.090489 1_555
Mg27 Mg35 3.144095 1_555
Mg27 Mg51 3.221658 1_555
Mg27 Mg7 3.231393 1_555
Mg27 Mg33 3.234814 1_555
Mg27 Mg39 3.249116 1_555
Mg27 Mg43 3.282866 1_555
Mg28 Mg48 3.090489 1_545
Mg28 Mg36 3.144095 1_445
Mg28 Mg52 3.221657 1_555
Mg28 Mg6 3.231393 1_555
Mg28 Mg34 3.234814 1_555
Mg28 Mg40 3.249116 1_555
Mg28 Mg43 3.282866 1_556
Mg29 Mg49 3.090489 1_555
Mg29 Mg9 3.137144 1_656
Mg29 Mg37 3.144095 1_656
Mg29 Mg53 3.221657 1_555
Mg29 Mg5 3.231393 1_556
Mg29 Mg31 3.234814 1_555
Mg29 Mg41 3.249116 1_555
Mg29 Mg44 3.282866 1_556
Mg30 Mg50 3.090489 1_565
Mg30 Mg8 3.137144 1_564
Mg30 Mg38 3.144095 1_564
Mg30 Mg4 3.231393 1_554
Mg30 Mg32 3.234814 1_555
Mg30 Mg42 3.249116 1_555
Mg30 Mg44 3.282866 1_555
Mg31 Mg49 3.090489 1_555
Mg31 Mg39 3.144095 1_555
Mg31 Mg53 3.221658 1_555
Mg31 Mg4 3.231393 1_555
Mg31 Mg35 3.249116 1_555
Mg31 Mg44 3.282866 1_556
Mg32 Mg50 3.090489 1_565
Mg32 Mg40 3.144095 1_665
Mg32 Mg5 3.231393 1_555
Mg32 Mg36 3.249116 1_555
Mg32 Mg44 3.282866 1_555
Mg33 Mg47 3.090489 1_555
Mg33 Mg8 3.137144 1_454
Mg33 Mg41 3.144095 1_454
Mg33 Mg51 3.221657 1_555
Mg33 Mg6 3.231393 1_554
Mg33 Mg37 3.249116 1_555
Mg33 Mg43 3.282866 1_555
Mg34 Mg48 3.090489 1_545
Mg34 Mg9 3.137144 1_546
Mg34 Mg42 3.144095 1_546
Mg34 Mg52 3.221657 1_555
Mg34 Mg7 3.231393 1_556
Mg34 Mg38 3.249116 1_555
Mg34 Mg43 3.282866 1_556
Ag0 Mg4 2.637787 1_555
Ag0 Mg0 2.715837 1_555
Ag0 Mg8 2.805192 1_565
Ag0 Mg10 2.805192 1_555
Ag0 Mg19 2.965205 1_555
Ag0 Mg26 2.965205 1_555
Ag0 Mg30 2.972211 1_556
Ag0 Mg31 2.972211 1_555
Ag0 Mg44 3.052611 1_556
Ag1 Mg5 2.637787 1_455
Ag1 Mg1 2.715837 1_555
Ag1 Mg11 2.805192 1_565
Ag1 Mg9 2.805192 1_555
Ag1 Mg20 2.965205 1_455
Ag1 Mg25 2.965205 1_455
Ag1 Mg32 2.972211 1_455
Ag1 Mg29 2.972211 1_454
Ag1 Mg44 3.052611 1_455
Ag2 Mg6 2.637787 1_655
Ag2 Mg2 2.715837 1_555
Ag2 Mg10 2.805192 1_545
Ag2 Mg8 2.805192 1_555
Ag2 Mg24 2.965205 1_655
Ag2 Mg21 2.965205 1_655
Ag2 Mg28 2.972211 1_655
Ag2 Mg33 2.972211 1_656
Ag2 Mg43 3.052611 1_656
Ag3 Mg7 2.637787 1_555
Ag3 Mg3 2.715837 1_555
Ag3 Mg9 2.805192 1_545
Ag3 Mg11 2.805192 1_555
Ag3 Mg23 2.965205 1_555
Ag3 Mg22 2.965205 1_555
Ag3 Mg34 2.972211 1_554
Ag3 Mg27 2.972211 1_555
Ag3 Mg43 3.052611 1_555
Ag4 Mg12 2.688937 1_555
Ag4 Mg8 2.825102 1_554
Ag4 Mg47 2.868755 1_655
Ag4 Mg50 2.868755 1_555
Ag4 Mg38 2.948606 1_554
Ag4 Mg41 2.948606 1_554
Ag4 Mg22 3.076485 1_555
Ag4 Mg25 3.076485 1_555
Ag4 Mg17 3.171534 1_555
Ag4 Mg33 3.271569 1_655
Ag4 Mg30 3.271569 1_545
Ag5 Mg13 2.688937 1_555
Ag5 Mg9 2.825102 1_556
Ag5 Mg49 2.868755 1_455
Ag5 Mg48 2.868755 1_555
Ag5 Mg42 2.948606 1_556
Ag5 Mg37 2.948606 1_556
Ag5 Mg26 3.076485 1_555
Ag5 Mg21 3.076485 1_555
Ag5 Mg18 3.171534 1_555
Ag5 Mg29 3.271569 1_455
Ag5 Mg34 3.271569 1_565
Ag6 Mg14 2.688937 1_555
Ag6 Mg10 2.825102 1_555
Ag6 Mg48 2.868755 1_655
Ag6 Mg49 2.868755 1_555
Ag6 Mg39 2.948606 1_555
Ag6 Mg36 2.948606 1_555
Ag6 Mg20 3.076485 1_555
Ag6 Mg23 3.076485 1_555
Ag6 Mg17 3.171534 1_555
Ag6 Mg31 3.271568 1_555
Ag6 Mg28 3.271569 1_665
Ag7 Mg15 2.688937 1_555
Ag7 Mg11 2.825102 1_555
Ag7 Mg50 2.868755 1_455
Ag7 Mg47 2.868755 1_555
Ag7 Mg35 2.948606 1_555
Ag7 Mg40 2.948606 1_555
Ag7 Mg24 3.076485 1_555
Ag7 Mg19 3.076485 1_555
Ag7 Mg18 3.171534 1_555
Ag7 Mg27 3.271568 1_555
Ag7 Mg32 3.271569 1_445
Ag8 Mg16 2.733773 1_545
Ag8 Mg50 2.791374 1_555
Ag8 Mg46 2.862371 1_545
Ag8 Mg42 2.920062 1_545
Ag8 Mg36 2.920062 1_545
Ag8 Mg2 3.065075 1_555
Ag8 Mg3 3.065075 1_555
Ag8 Mg32 3.167074 1_545
Ag8 Mg30 3.167074 1_545
Ag8 Mg24 3.243976 1_655
Ag8 Mg22 3.243976 1_555
Ag9 Mg53 2.733773 1_555
Ag9 Mg49 2.791374 1_555
Ag9 Mg45 2.862371 1_555
Ag9 Mg35 2.920062 1_555
Ag9 Mg41 2.920062 1_555
Ag9 Mg3 3.065075 1_555
Ag9 Mg2 3.065075 1_555
Ag9 Mg29 3.167074 1_555
Ag9 Mg31 3.167074 1_555
Ag9 Mg23 3.243976 1_555
Ag9 Mg21 3.243976 1_655
Ag10 Mg52 2.733773 1_565
Ag10 Mg48 2.791374 1_555
Ag10 Mg45 2.862371 1_565
Ag10 Ag15 2.903311 1_555
Ag10 Mg38 2.920062 1_565
Ag10 Mg40 2.920062 1_565
Ag10 Mg1 3.065075 1_555
Ag10 Mg0 3.065075 1_555
Ag10 Mg28 3.167074 1_565
Ag10 Mg34 3.167074 1_565
Ag10 Mg20 3.243976 1_455
Ag10 Mg26 3.243976 1_555
Ag11 Mg51 2.733773 1_555
Ag11 Mg47 2.791374 1_555
Ag11 Mg46 2.862371 1_555
Ag11 Ag15 2.903311 1_555
Ag11 Mg39 2.920062 1_555
Ag11 Mg37 2.920062 1_555
Ag11 Mg0 3.065075 1_555
Ag11 Mg1 3.065075 1_555
Ag11 Mg33 3.167074 1_555
Ag11 Mg27 3.167074 1_555
Ag11 Mg19 3.243976 1_555
Ag11 Mg25 3.243976 1_455
Ag12 Mg9 2.808772 1_556
Ag12 Mg10 2.808772 1_455
Ag12 Mg48 2.847180 1_555
Ag12 Mg49 2.847180 1_455
Ag12 Mg44 2.958833 1_456
Ag12 Mg43 2.958833 1_566
Ag12 Ag6 2.978314 1_455
Ag12 Ag5 2.978314 1_555
Ag12 Mg31 3.176372 1_455
Ag12 Mg34 3.176372 1_565
Ag12 Mg29 3.176372 1_455
Ag12 Mg28 3.176372 1_565
Ag13 Mg8 2.808772 1_454
Ag13 Mg11 2.808772 1_555
Ag13 Mg50 2.847180 1_455
Ag13 Mg47 2.847180 1_555
Ag13 Mg43 2.958833 1_555
Ag13 Mg44 2.958833 1_445
Ag13 Ag7 2.978314 1_555
Ag13 Ag4 2.978314 1_455
Ag13 Mg27 3.176372 1_555
Ag13 Mg30 3.176372 1_445
Ag13 Mg33 3.176372 1_555
Ag13 Mg32 3.176372 1_445
Ag14 Mg50 2.711455 1_555
Ag14 Mg49 2.711455 1_555
Ag14 Ag9 2.903311 1_555
Ag14 Ag8 2.903311 1_555
Ag14 Mg2 3.018075 1_555
Ag14 Mg3 3.018075 1_555
Ag14 Mg18 3.143150 1_655
Ag14 Mg17 3.143150 1_555
Ag14 Mg24 3.144753 1_655
Ag14 Mg23 3.144753 1_555
Ag14 Mg21 3.144753 1_655
Ag14 Mg22 3.144753 1_555
Ag15 Mg48 2.711455 1_555
Ag15 Mg47 2.711455 1_555
Ag15 Mg1 3.018075 1_555
Ag15 Mg0 3.018075 1_555
Ag15 Mg17 3.143150 1_455
Ag15 Mg18 3.143150 1_555
Ag15 Mg20 3.144753 1_455
Ag15 Mg19 3.144753 1_555
Ag15 Mg25 3.144753 1_455
Ag15 Mg26 3.144753 1_555
Ag16 Mg6 2.918540 1_554
Ag16 Mg5 2.918540 1_555
Ag16 Mg7 2.918540 1_555
Ag16 Mg4 2.918540 1_554
Ag16 Mg53 2.934576 1_554
Ag16 Mg51 2.934576 1_555
Ag16 Mg52 2.934576 1_554
Ag16 Mg16 2.934576 1_555
Ag16 Mg13 2.967521 1_554
Ag16 Mg12 2.967521 1_555
Ag16 Mg14 2.967521 1_555
Ag16 Mg15 2.967521 1_554
