# generated using pymatgen
data_U(HO)8
_symmetry_space_group_name_H-M   'P 1'
_cell_length_a   7.58506261
_cell_length_b   7.58506261
_cell_length_c   8.50605530
_cell_angle_alpha   60.10264829
_cell_angle_beta   60.10264829
_cell_angle_gamma   52.33213520
_symmetry_Int_Tables_number   1
_chemical_formula_structural   U(HO)8
_chemical_formula_sum   'U2 H16 O16'
_cell_volume   322.14632014
_cell_formula_units_Z   2
loop_
 _symmetry_equiv_pos_site_id
 _symmetry_equiv_pos_as_xyz
  1  'x, y, z'
loop_
 _atom_site_type_symbol
 _atom_site_label
 _atom_site_symmetry_multiplicity
 _atom_site_fract_x
 _atom_site_fract_y
 _atom_site_fract_z
 _atom_site_occupancy
  U  U0  1  -0.00000000  0.00000000  0.50000000  1
  U  U1  1  -0.00000000  0.00000000  -0.00000000  1
  H  H0  1  0.77228440  0.70629706  0.81817963  1
  H  H1  1  0.29370294  0.22771560  0.68182037  1
  H  H2  1  0.22771560  0.29370294  0.18182037  1
  H  H3  1  0.70629706  0.77228440  0.31817963  1
  H  H4  1  0.77029258  0.70635996  0.63024799  1
  H  H5  1  0.29364004  0.22970742  0.86975201  1
  H  H6  1  0.22970742  0.29364004  0.36975201  1
  H  H7  1  0.70635996  0.77029258  0.13024799  1
  H  H8  1  0.67565658  0.51273995  0.57365565  1
  H  H9  1  0.48726005  0.32434342  0.92634435  1
  H  H10  1  0.32434342  0.48726005  0.42634435  1
  H  H11  1  0.51273995  0.67565658  0.07365565  1
  H  H12  1  0.47413114  0.75952505  0.60537309  1
  H  H13  1  0.24047495  0.52586886  0.89462691  1
  H  H14  1  0.52586886  0.24047495  0.39462691  1
  H  H15  1  0.75952505  0.47413114  0.10537309  1
  O  O0  1  0.05437850  0.81726733  0.80702794  1
  O  O1  1  0.18273267  0.94562150  0.69297206  1
  O  O2  1  0.94562150  0.18273267  0.19297206  1
  O  O3  1  0.81726733  0.05437850  0.30702794  1
  O  O4  1  0.73429285  0.24390693  0.58211442  1
  O  O5  1  0.75609307  0.26570715  0.91788558  1
  O  O6  1  0.26570715  0.75609307  0.41788558  1
  O  O7  1  0.24390693  0.73429285  0.08211442  1
  O  O8  1  0.83060159  0.74999079  0.67787728  1
  O  O9  1  0.25000921  0.16939841  0.82212272  1
  O  O10  1  0.16939841  0.25000921  0.32212272  1
  O  O11  1  0.74999079  0.83060159  0.17787728  1
  O  O12  1  0.64200419  0.67005967  0.54914123  1
  O  O13  1  0.32994033  0.35799581  0.95085877  1
  O  O14  1  0.35799581  0.32994033  0.45085877  1
  O  O15  1  0.67005967  0.64200419  0.04914123  1
loop_
_geom_bond_atom_site_label_1
_geom_bond_atom_site_label_2
_geom_bond_distance
_geom_bond_site_symmetry_2
H0 O8 0.994168 1_555
H0 O15 1.639228 1_556
H1 O9 0.994168 1_555
H1 O14 1.639228 1_555
H2 O10 0.994168 1_555
H2 O13 1.639228 1_554
H3 O11 0.994168 1_555
H3 O12 1.639228 1_555
H4 O8 0.993154 1_555
H4 O12 1.638507 1_555
H5 O9 0.993154 1_555
H5 O13 1.638507 1_555
H6 O10 0.993154 1_555
H6 O14 1.638507 1_555
H7 O11 0.993154 1_555
H7 O15 1.638507 1_555
H8 O12 0.982498 1_555
H9 O13 0.982498 1_555
H10 O14 0.982498 1_555
H11 O15 0.982498 1_555
H12 O12 0.985399 1_555
H12 O1 1.739726 1_555
H13 O13 0.985399 1_555
H13 O0 1.739726 1_555
H14 O14 0.985399 1_555
H14 O3 1.739726 1_555
H15 O15 0.985399 1_555
H15 O2 1.739726 1_555
O0 O1 1.453324 1_555
O0 U0 2.382913 1_565
O0 U1 2.383258 1_566
O1 U1 2.382913 1_566
O1 U0 2.383258 1_565
O2 O3 1.453324 1_555
O2 U0 2.382913 1_655
O2 U1 2.383258 1_655
O3 U1 2.382913 1_655
O3 U0 2.383258 1_655
O4 U0 1.816671 1_655
O5 U1 1.816671 1_656
O6 U0 1.816671 1_565
O7 U1 1.816671 1_565
O8 U0 2.390790 1_665
O9 U1 2.390790 1_556
O10 U0 2.390790 1_555
O11 U1 2.390790 1_665
