# generated using pymatgen
data_Rb2BaPt2(CN)8
_symmetry_space_group_name_H-M   'P 1'
_cell_length_a   7.86332400
_cell_length_b   7.86332400
_cell_length_c   7.02780900
_cell_angle_alpha   90.00000000
_cell_angle_beta   90.00000000
_cell_angle_gamma   90.00000000
_symmetry_Int_Tables_number   1
_chemical_formula_structural   Rb2BaPt2(CN)8
_chemical_formula_sum   'Rb2 Ba1 Pt2 C8 N8'
_cell_volume   434.54253262
_cell_formula_units_Z   1
loop_
 _symmetry_equiv_pos_site_id
 _symmetry_equiv_pos_as_xyz
  1  'x, y, z'
loop_
 _atom_site_type_symbol
 _atom_site_label
 _atom_site_symmetry_multiplicity
 _atom_site_fract_x
 _atom_site_fract_y
 _atom_site_fract_z
 _atom_site_occupancy
  Rb  Rb0  1  0.50000000  0.00000000  0.50000000  1
  Rb  Rb1  1  0.00000000  0.50000000  0.50000000  1
  Ba  Ba0  1  0.50000000  0.50000000  0.00000000  1
  Pt  Pt0  1  0.00000000  0.00000000  0.75705000  1
  Pt  Pt1  1  0.00000000  0.00000000  0.24295000  1
  C  C0  1  0.17897800  0.17897800  0.75985000  1
  C  C1  1  0.82102200  0.82102200  0.24015000  1
  C  C2  1  0.82102200  0.17897800  0.75985000  1
  C  C3  1  0.17897800  0.82102200  0.75985000  1
  C  C4  1  0.17897800  0.17897800  0.24015000  1
  C  C5  1  0.82102200  0.82102200  0.75985000  1
  C  C6  1  0.82102200  0.17897800  0.24015000  1
  C  C7  1  0.17897800  0.82102200  0.24015000  1
  N  N0  1  0.28484200  0.71515800  0.76288900  1
  N  N1  1  0.28484200  0.28484200  0.23711100  1
  N  N2  1  0.28484200  0.28484200  0.76288900  1
  N  N3  1  0.71515800  0.71515800  0.23711100  1
  N  N4  1  0.71515800  0.28484200  0.76288900  1
  N  N5  1  0.71515800  0.71515800  0.76288900  1
  N  N6  1  0.28484200  0.71515800  0.23711100  1
  N  N7  1  0.71515800  0.28484200  0.23711100  1
loop_
_geom_bond_atom_site_label_1
_geom_bond_atom_site_label_2
_geom_bond_distance
_geom_bond_site_symmetry_2
Ba0 N4 2.915742 1_554
Ba0 N6 2.915742 1_555
Ba0 N5 2.915742 1_554
Ba0 N7 2.915742 1_555
Ba0 N3 2.915742 1_555
Ba0 N0 2.915742 1_554
Ba0 N1 2.915742 1_555
Ba0 N2 2.915742 1_554
C0 N2 1.177446 1_555
C0 Pt0 1.990408 1_555
C0 Rb1 3.418725 1_555
C0 Rb0 3.418725 1_555
C1 N3 1.177446 1_555
C1 Pt1 1.990408 1_665
C1 Rb0 3.418725 1_565
C1 Rb1 3.418725 1_655
C2 N4 1.177446 1_555
C2 Pt0 1.990408 1_655
C2 Rb1 3.418725 1_655
C2 Rb0 3.418725 1_555
C3 N0 1.177446 1_555
C3 Pt0 1.990408 1_565
C3 Rb1 3.418725 1_555
C3 Rb0 3.418725 1_565
C4 N1 1.177446 1_555
C4 Pt1 1.990408 1_555
C4 Rb1 3.418725 1_555
C4 Rb0 3.418725 1_555
C5 N5 1.177446 1_555
C5 Pt0 1.990408 1_665
C5 Rb1 3.418725 1_655
C5 Rb0 3.418725 1_565
C6 N7 1.177446 1_555
C6 Pt1 1.990408 1_655
C6 Rb1 3.418725 1_655
C6 Rb0 3.418725 1_555
C7 N6 1.177446 1_555
C7 Pt1 1.990408 1_565
C7 Rb1 3.418725 1_555
C7 Rb0 3.418725 1_565
N0 Rb1 3.360430 1_555
N0 Rb0 3.360430 1_565
N1 Rb1 3.360430 1_555
N1 Rb0 3.360430 1_555
N2 Rb1 3.360430 1_555
N2 Rb0 3.360430 1_555
N3 Rb0 3.360430 1_565
N3 Rb1 3.360430 1_655
N4 Rb0 3.360430 1_555
N4 Rb1 3.360430 1_655
N5 Rb0 3.360430 1_565
N5 Rb1 3.360430 1_655
N6 Rb1 3.360430 1_555
N6 Rb0 3.360430 1_565
N7 Rb0 3.360430 1_555
N7 Rb1 3.360430 1_655
