# generated using pymatgen
data_Al(HO)3
_symmetry_space_group_name_H-M   'P 1'
_cell_length_a   8.76161600
_cell_length_b   5.12883208
_cell_length_c   9.37531119
_cell_angle_alpha   91.41383262
_cell_angle_beta   95.35354049
_cell_angle_gamma   90.54152620
_symmetry_Int_Tables_number   1
_chemical_formula_structural   Al(HO)3
_chemical_formula_sum   'Al8 H24 O24'
_cell_volume   419.30236415
_cell_formula_units_Z   8
loop_
 _symmetry_equiv_pos_site_id
 _symmetry_equiv_pos_as_xyz
  1  'x, y, z'
loop_
 _atom_site_type_symbol
 _atom_site_label
 _atom_site_symmetry_multiplicity
 _atom_site_fract_x
 _atom_site_fract_y
 _atom_site_fract_z
 _atom_site_occupancy
  Al  Al0  1  0.94364400  0.81002800  0.52200800  1
  Al  Al1  1  0.55757700  0.30696200  0.48539700  1
  Al  Al2  1  0.52732700  0.17533400  0.99351100  1
  Al  Al3  1  0.96412000  0.67564400  0.00072400  1
  Al  Al4  1  0.00187700  0.14274800  0.48796000  1
  Al  Al5  1  0.49124600  0.64238100  0.51868500  1
  Al  Al6  1  0.48431800  0.84415600  0.00009000  1
  Al  Al7  1  0.01911500  0.34126000  0.99780900  1
  H  H0  1  0.81066700  0.50761700  0.65052200  1
  H  H1  1  0.66370600  0.99079000  0.38660100  1
  H  H2  1  0.29855900  0.53178200  0.87195100  1
  H  H3  1  0.17120300  0.03593600  0.09821800  1
  H  H4  1  0.16653700  0.44447300  0.39226700  1
  H  H5  1  0.32035300  0.97473100  0.61958500  1
  H  H6  1  0.69966100  0.47923500  0.13282000  1
  H  H7  1  0.63248700  0.96218500  0.78369200  1
  H  H8  1  0.13429500  0.10509600  0.81980900  1
  H  H9  1  0.36813800  0.60244200  0.11956200  1
  H  H10  1  0.33671600  0.12259800  0.29181900  1
  H  H11  1  0.18826000  0.70572500  0.71300300  1
  H  H12  1  0.83365000  0.88269700  0.20519900  1
  H  H13  1  0.64202000  0.40004200  0.84075900  1
  H  H14  1  0.15839900  0.40979700  0.63586200  1
  H  H15  1  0.23584600  0.26714300  0.72349600  1
  H  H16  1  0.33154600  0.89891000  0.38705400  1
  H  H17  1  0.27347700  0.75285200  0.27303500  1
  H  H18  1  0.66473600  0.71066600  0.79071100  1
  H  H19  1  0.83501000  0.22954700  0.21212400  1
  H  H20  1  0.81090500  0.62693600  0.30163300  1
  H  H21  1  0.73067200  0.21842800  0.70946800  1
  H  H22  1  0.34959600  0.36325100  0.20139500  1
  H  H23  1  0.06013700  0.89301700  0.85739700  1
  O  O0  1  0.63173500  0.48237000  0.61783900  1
  O  O1  1  0.84854500  0.96335300  0.39145600  1
  O  O2  1  0.11506800  0.50599800  0.88713500  1
  O  O3  1  0.36168700  0.02703400  0.10670400  1
  O  O4  1  0.35748700  0.46255900  0.39684100  1
  O  O5  1  0.13074400  0.98841900  0.61313700  1
  O  O6  1  0.87509100  0.51162500  0.11100300  1
  O  O7  1  0.62297400  0.99214900  0.88764900  1
  O  O8  1  0.65764600  0.79950800  0.62916700  1
  O  O9  1  0.84500400  0.28019900  0.38042400  1
  O  O10  1  0.21050500  0.19678900  0.87398600  1
  O  O11  1  0.29110800  0.70395600  0.11738400  1
  O  O12  1  0.33636800  0.13655100  0.39744100  1
  O  O13  1  0.16513100  0.66518500  0.61122600  1
  O  O14  1  0.78963600  0.82810500  0.11152500  1
  O  O15  1  0.71162900  0.30820700  0.87891700  1
  O  O16  1  0.21415400  0.30220200  0.62247000  1
  O  O17  1  0.27925800  0.79025300  0.38311100  1
  O  O18  1  0.64773400  0.67893800  0.89102100  1
  O  O19  1  0.84113800  0.19970100  0.10252800  1
  O  O20  1  0.78287700  0.65464200  0.40261400  1
  O  O21  1  0.70995900  0.17445300  0.60863600  1
  O  O22  1  0.34876000  0.34633400  0.09599400  1
  O  O23  1  0.16055300  0.81090800  0.89230600  1
loop_
_geom_bond_atom_site_label_1
_geom_bond_atom_site_label_2
_geom_bond_distance
_geom_bond_site_symmetry_2
Al0 O1 1.637168 1_555
Al0 O20 1.874226 1_555
Al0 O5 1.981432 1_655
Al0 O13 2.184581 1_655
Al1 O0 1.598930 1_555
Al1 O21 1.829593 1_555
Al1 Al5 1.849557 1_555
Al1 O4 2.046239 1_555
Al1 H1 2.113583 1_545
Al1 O12 2.198746 1_555
Al2 O7 1.641370 1_545
Al2 O3 2.029103 1_556
Al3 O6 1.601898 1_555
Al3 O2 1.969545 1_654
Al4 O5 1.759003 1_545
Al4 O1 1.782893 1_445
Al4 O9 1.788117 1_455
Al5 O0 1.701769 1_555
Al5 O4 1.790733 1_555
Al5 O8 1.871551 1_555
Al6 O3 1.790657 1_565
Al6 O7 1.850484 1_554
Al6 O18 2.016695 1_554
Al6 H9 2.021156 1_555
Al7 O2 1.640089 1_555
Al7 O6 1.925359 1_456
Al7 O19 2.054769 1_456
H0 O0 1.572581 1_555
H1 O1 1.623418 1_555
H2 O2 1.631563 1_555
H3 O3 1.664525 1_555
H4 O4 1.671214 1_555
H5 O5 1.658949 1_555
H6 O6 1.577173 1_555
H7 O7 0.994221 1_555
H8 O10 0.918692 1_555
H9 O11 0.855328 1_555
H9 O22 1.333223 1_555
H10 O12 0.991350 1_555
H11 O13 0.973709 1_555
H12 O14 0.959694 1_555
H13 O15 0.833559 1_555
H14 O16 0.756337 1_555
H14 O13 1.337357 1_555
H15 O16 0.970055 1_555
H16 O17 0.716107 1_555
H16 O12 1.220325 1_565
H17 O17 1.041476 1_555
H17 O11 1.496990 1_555
H18 O18 0.983020 1_555
H18 O8 1.588176 1_555
H19 O19 1.041514 1_555
H19 O9 1.586939 1_555
H20 O20 1.007073 1_555
H21 O21 0.966513 1_555
H22 O22 0.989173 1_555
H23 O23 1.009253 1_555
O2 O23 1.608606 1_555
O10 O2 1.806674 1_555
O11 O3 1.771579 1_565
O12 O4 1.680714 1_555
O17 O4 1.824022 1_555
O22 O3 1.647501 1_555
