# generated using pymatgen
data_NaHNO2
_symmetry_space_group_name_H-M   'P 1'
_cell_length_a   6.35869100
_cell_length_b   6.80839300
_cell_length_c   9.88712400
_cell_angle_alpha   90.00000000
_cell_angle_beta   90.00000000
_cell_angle_gamma   90.00000000
_symmetry_Int_Tables_number   1
_chemical_formula_structural   NaHNO2
_chemical_formula_sum   'Na8 H8 N8 O16'
_cell_volume   428.03799240
_cell_formula_units_Z   8
loop_
 _symmetry_equiv_pos_site_id
 _symmetry_equiv_pos_as_xyz
  1  'x, y, z'
loop_
 _atom_site_type_symbol
 _atom_site_label
 _atom_site_symmetry_multiplicity
 _atom_site_fract_x
 _atom_site_fract_y
 _atom_site_fract_z
 _atom_site_occupancy
  Na  Na0  1  0.00000000  0.50000000  0.00000000  1
  Na  Na1  1  0.00000000  0.00000000  0.00000000  1
  Na  Na2  1  0.00000000  0.50000000  0.50000000  1
  Na  Na3  1  0.00000000  0.00000000  0.50000000  1
  Na  Na4  1  0.34116300  0.50000000  0.75000000  1
  Na  Na5  1  0.65883700  0.00000000  0.25000000  1
  Na  Na6  1  0.65883700  0.50000000  0.25000000  1
  Na  Na7  1  0.34116300  0.00000000  0.75000000  1
  H  H0  1  0.83844500  0.60648700  0.72412400  1
  H  H1  1  0.16155500  0.10648700  0.27587600  1
  H  H2  1  0.83844500  0.39351300  0.77587600  1
  H  H3  1  0.16155500  0.89351300  0.22412400  1
  H  H4  1  0.16155500  0.39351300  0.27587600  1
  H  H5  1  0.83844500  0.89351300  0.72412400  1
  H  H6  1  0.16155500  0.60648700  0.22412400  1
  H  H7  1  0.83844500  0.10648700  0.77587600  1
  N  N0  1  0.57930000  0.75000000  0.52492800  1
  N  N1  1  0.42070000  0.25000000  0.47507200  1
  N  N2  1  0.57930000  0.25000000  0.97507200  1
  N  N3  1  0.42070000  0.75000000  0.02492800  1
  N  N4  1  0.38983000  0.75000000  0.47548700  1
  N  N5  1  0.61017000  0.25000000  0.52451300  1
  N  N6  1  0.38983000  0.25000000  0.02451300  1
  N  N7  1  0.61017000  0.75000000  0.97548700  1
  O  O0  1  0.73927100  0.75000000  0.43988300  1
  O  O1  1  0.26072900  0.25000000  0.56011700  1
  O  O2  1  0.73927100  0.25000000  0.06011700  1
  O  O3  1  0.26072900  0.75000000  0.93988300  1
  O  O4  1  0.61819900  0.75000000  0.65698300  1
  O  O5  1  0.38180100  0.25000000  0.34301700  1
  O  O6  1  0.61819900  0.25000000  0.84301700  1
  O  O7  1  0.38180100  0.75000000  0.15698300  1
  O  O8  1  0.24077500  0.75000000  0.57156100  1
  O  O9  1  0.75922500  0.25000000  0.42843900  1
  O  O10  1  0.24077500  0.25000000  0.92843900  1
  O  O11  1  0.75922500  0.75000000  0.07156100  1
  O  O12  1  0.93711000  0.50000000  0.75000000  1
  O  O13  1  0.06289000  0.00000000  0.25000000  1
  O  O14  1  0.06289000  0.50000000  0.25000000  1
  O  O15  1  0.93711000  0.00000000  0.75000000  1
loop_
_geom_bond_atom_site_label_1
_geom_bond_atom_site_label_2
_geom_bond_distance
_geom_bond_site_symmetry_2
Na0 O10 2.396194 1_554
Na0 O11 2.396194 1_455
Na0 O2 2.449295 1_455
Na0 O3 2.449295 1_554
Na0 O12 2.503921 1_454
Na0 O14 2.503921 1_555
Na1 O10 2.396194 1_554
Na1 O11 2.396194 1_445
Na1 O2 2.449295 1_455
Na1 O3 2.449295 1_544
Na1 O15 2.503921 1_454
Na1 O13 2.503921 1_555
Na2 O8 2.396194 1_555
Na2 O9 2.396194 1_455
Na2 O1 2.449295 1_555
Na2 O0 2.449295 1_455
Na2 O12 2.503921 1_455
Na2 O14 2.503921 1_555
Na3 O8 2.396194 1_545
Na3 O9 2.396194 1_455
Na3 O1 2.449295 1_555
Na3 O0 2.449295 1_445
Na3 O15 2.503921 1_455
Na3 O13 2.503921 1_555
Na4 O10 2.533216 1_555
Na4 O8 2.533216 1_555
Na4 O12 2.569248 1_455
Na4 O3 2.585216 1_555
Na4 O1 2.585216 1_555
Na4 O6 2.616509 1_555
Na4 O4 2.616509 1_555
Na5 O9 2.533216 1_555
Na5 O11 2.533216 1_545
Na5 O13 2.569248 1_655
Na5 O0 2.585216 1_545
Na5 O2 2.585216 1_555
Na5 O5 2.616509 1_555
Na5 O7 2.616509 1_545
Na6 O9 2.533216 1_555
Na6 O11 2.533216 1_555
Na6 O14 2.569248 1_655
Na6 O0 2.585216 1_555
Na6 O2 2.585216 1_555
Na6 O5 2.616509 1_555
Na6 O7 2.616509 1_555
Na7 O10 2.533216 1_555
Na7 O8 2.533216 1_545
Na7 O15 2.569248 1_455
Na7 O3 2.585216 1_545
Na7 O1 2.585216 1_555
Na7 O4 2.616509 1_545
Na7 O6 2.616509 1_555
H0 O12 0.992317 1_555
H0 Na2 2.547809 1_655
H1 O13 0.992317 1_555
H1 Na3 2.547809 1_555
H2 O12 0.992317 1_555
H2 Na0 2.547809 1_656
H3 O13 0.992317 1_565
H3 Na1 2.547809 1_565
H4 O14 0.992317 1_555
H4 Na2 2.547809 1_555
H5 O15 0.992317 1_565
H5 Na3 2.547809 1_665
H6 O14 0.992317 1_555
H6 Na0 2.547809 1_555
H7 O15 0.992317 1_555
H7 Na1 2.547809 1_656
N0 N4 1.300174 1_555
N0 O0 1.319749 1_555
N0 O4 1.328867 1_555
N1 N5 1.300174 1_555
N1 O1 1.319749 1_555
N1 O5 1.328867 1_555
N2 N6 1.300174 1_556
N2 O2 1.319749 1_556
N2 O6 1.328867 1_555
N3 N7 1.300174 1_554
N3 O3 1.319749 1_554
N3 O7 1.328867 1_555
N4 O8 1.341870 1_555
N5 O9 1.341870 1_555
N6 O10 1.341870 1_554
N7 O11 1.341870 1_556
