# generated using pymatgen
data_Cu2Bi8Pb6S19
_symmetry_space_group_name_H-M   'P 1'
_cell_length_a   4.06316900
_cell_length_b   14.20571800
_cell_length_c   15.94226980
_cell_angle_alpha   89.35175689
_cell_angle_beta   97.28123422
_cell_angle_gamma   98.19691767
_symmetry_Int_Tables_number   1
_chemical_formula_structural   Cu2Bi8Pb6S19
_chemical_formula_sum   'Cu2 Bi8 Pb6 S19'
_cell_volume   903.42475832
_cell_formula_units_Z   1
loop_
 _symmetry_equiv_pos_site_id
 _symmetry_equiv_pos_as_xyz
  1  'x, y, z'
loop_
 _atom_site_type_symbol
 _atom_site_label
 _atom_site_symmetry_multiplicity
 _atom_site_fract_x
 _atom_site_fract_y
 _atom_site_fract_z
 _atom_site_occupancy
  Cu  Cu0  1  0.54577700  0.98837300  0.09065700  1
  Cu  Cu1  1  0.45422300  0.01162700  0.90934300  1
  Bi  Bi0  1  0.89730400  0.75367800  0.04474400  1
  Bi  Bi1  1  0.29327600  0.13615700  0.46137600  1
  Bi  Bi2  1  0.09086800  0.89692900  0.29330100  1
  Bi  Bi3  1  0.70672400  0.86384300  0.53862400  1
  Bi  Bi4  1  0.90913200  0.10307100  0.70669900  1
  Bi  Bi5  1  0.10269600  0.24632200  0.95525600  1
  Bi  Bi6  1  0.77911700  0.45389700  0.10495800  1
  Bi  Bi7  1  0.22088300  0.54610300  0.89504200  1
  Pb  Pb0  1  0.68423200  0.15998300  0.22129700  1
  Pb  Pb1  1  0.31576800  0.84001700  0.77870300  1
  Pb  Pb2  1  0.09913200  0.60820500  0.59281500  1
  Pb  Pb3  1  0.50788300  0.36378400  0.65422400  1
  Pb  Pb4  1  0.49211700  0.63621600  0.34577600  1
  Pb  Pb5  1  0.90086800  0.39179500  0.40718500  1
  S  S0  1  0.50414900  0.79128400  0.22383000  1
  S  S1  1  0.30392500  0.97701800  0.62474100  1
  S  S2  1  0.09067900  0.01314500  0.16174100  1
  S  S3  1  0.11275500  0.76596200  0.45370200  1
  S  S4  1  0.90932100  0.98685500  0.83825900  1
  S  S5  1  0.88724500  0.23403800  0.54629800  1
  S  S6  1  0.32711200  0.58890700  0.06674700  1
  S  S7  1  0.90397400  0.52644600  0.27304700  1
  S  S8  1  0.09602600  0.47355400  0.72695300  1
  S  S9  1  0.49585100  0.20871600  0.77617000  1
  S  S10  1  0.56774800  0.13323100  0.00667400  1
  S  S11  1  0.21165700  0.31080800  0.11464000  1
  S  S12  1  0.29246700  0.25465700  0.33344500  1
  S  S13  1  0.50000000  0.50000000  0.50000000  1
  S  S14  1  0.43225200  0.86676900  0.99332600  1
  S  S15  1  0.69607500  0.02298200  0.37525900  1
  S  S16  1  0.67288800  0.41109300  0.93325300  1
  S  S17  1  0.70753300  0.74534300  0.66655500  1
  S  S18  1  0.78834300  0.68919200  0.88536000  1
loop_
_geom_bond_atom_site_label_1
_geom_bond_atom_site_label_2
_geom_bond_distance
_geom_bond_site_symmetry_2
Cu0 S14 2.292737 1_554
Cu0 S2 2.336849 1_665
Cu0 S2 2.356510 1_565
Cu0 S10 2.439412 1_565
Cu0 Pb0 3.166073 1_565
Cu1 S10 2.292737 1_556
Cu1 S4 2.336849 1_445
Cu1 S4 2.356510 1_545
Cu1 S14 2.439412 1_545
Cu1 Pb1 3.166073 1_545
Bi0 S18 2.672724 1_554
Bi0 S14 2.695672 1_554
Bi0 S14 2.720933 1_654
Bi0 S6 3.100073 1_555
Bi0 S6 3.105398 1_655
Bi1 S12 2.629746 1_555
Bi1 S5 2.784052 1_455
Bi1 S5 2.801479 1_555
Bi1 S15 2.907021 1_455
Bi1 S15 2.918572 1_555
Bi2 S2 2.654453 1_565
Bi2 S0 2.740479 1_455
Bi2 S0 2.743422 1_555
Bi2 S15 2.981639 1_465
Bi2 S15 2.990578 1_565
Bi2 S3 3.144873 1_555
Bi3 S17 2.629746 1_555
Bi3 S3 2.784052 1_655
Bi3 S3 2.801479 1_555
Bi3 S1 2.907021 1_655
Bi3 S1 2.918572 1_555
Bi4 S4 2.654453 1_545
Bi4 S9 2.740479 1_655
Bi4 S9 2.743422 1_555
Bi4 S1 2.981639 1_645
Bi4 S1 2.990578 1_545
Bi4 S5 3.144873 1_555
Bi5 S11 2.672724 1_556
Bi5 S10 2.695672 1_556
Bi5 S10 2.720933 1_456
Bi5 S16 3.100073 1_555
Bi5 S16 3.105398 1_455
Bi6 S16 2.777148 1_554
Bi6 S7 2.840640 1_555
Bi6 S6 2.847257 1_655
Bi6 S6 2.849012 1_555
Bi6 S11 2.861325 1_655
Bi6 S11 2.866791 1_555
Bi7 S6 2.777148 1_556
Bi7 S8 2.840640 1_555
Bi7 S16 2.847257 1_455
Bi7 S16 2.849012 1_555
Bi7 S18 2.861325 1_455
Bi7 S18 2.866791 1_555
Pb0 S12 2.987553 1_555
Pb0 S2 3.016427 1_555
Pb0 S12 3.016555 1_655
Pb0 S2 3.066678 1_655
Pb0 S15 3.115006 1_555
Pb1 S17 2.987553 1_555
Pb1 S4 3.016427 1_555
Pb1 S17 3.016555 1_455
Pb1 S4 3.066678 1_455
Pb1 S1 3.115006 1_555
Pb2 S8 2.852971 1_555
Pb2 S13 2.924002 1_455
Pb2 S13 2.929419 1_555
Pb2 S17 3.019738 1_455
Pb2 S17 3.038117 1_555
Pb2 S3 3.134835 1_555
Pb3 S8 2.786166 1_655
Pb3 S8 2.802361 1_555
Pb3 S9 2.920777 1_555
Pb3 S13 3.111366 1_555
Pb3 S5 3.207437 1_555
Pb3 S5 3.219222 1_455
Pb4 S7 2.786166 1_455
Pb4 S7 2.802361 1_555
Pb4 S0 2.920777 1_555
Pb4 S13 3.111366 1_555
Pb4 S3 3.207437 1_555
Pb4 S3 3.219222 1_655
Pb5 S7 2.852971 1_555
Pb5 S13 2.924002 1_655
Pb5 S13 2.929419 1_555
Pb5 S12 3.019738 1_655
Pb5 S12 3.038117 1_555
Pb5 S5 3.134835 1_555
