# generated using pymatgen
data_Sr8Ru7O24
_symmetry_space_group_name_H-M   'P 1'
_cell_length_a   5.59074317
_cell_length_b   5.59050294
_cell_length_c   67.75063031
_cell_angle_alpha   119.67379075
_cell_angle_beta   119.67549311
_cell_angle_gamma   90.00558892
_symmetry_Int_Tables_number   1
_chemical_formula_structural   Sr8Ru7O24
_chemical_formula_sum   'Sr24 Ru21 O72'
_cell_volume   1511.87063262
_cell_formula_units_Z   3
loop_
 _symmetry_equiv_pos_site_id
 _symmetry_equiv_pos_as_xyz
  1  'x, y, z'
loop_
 _atom_site_type_symbol
 _atom_site_label
 _atom_site_symmetry_multiplicity
 _atom_site_fract_x
 _atom_site_fract_y
 _atom_site_fract_z
 _atom_site_occupancy
  Sr  Sr0  1  0.27247400  0.77246400  0.96208000  1
  Sr  Sr1  1  0.23079800  0.73089000  0.87180400  1
  Sr  Sr2  1  0.77236500  0.27242100  0.96206700  1
  Sr  Sr3  1  0.27822900  0.77818800  0.79638000  1
  Sr  Sr4  1  0.73074200  0.23070100  0.87178700  1
  Sr  Sr5  1  0.25294300  0.75296500  0.70882800  1
  Sr  Sr6  1  0.77820500  0.27824900  0.79637900  1
  Sr  Sr7  1  0.25005000  0.75004500  0.62501200  1
  Sr  Sr8  1  0.75303200  0.25302500  0.70883800  1
  Sr  Sr9  1  0.25002100  0.75001800  0.54167600  1
  Sr  Sr10  1  0.75016600  0.25017100  0.62503400  1
  Sr  Sr11  1  0.24979900  0.74980300  0.45829800  1
  Sr  Sr12  1  0.75020100  0.25019700  0.54170200  1
  Sr  Sr13  1  0.24983400  0.74982900  0.37496600  1
  Sr  Sr14  1  0.74997900  0.24998200  0.45832400  1
  Sr  Sr15  1  0.24696800  0.74697500  0.29116200  1
  Sr  Sr16  1  0.74995000  0.24995500  0.37498800  1
  Sr  Sr17  1  0.22179500  0.72175100  0.20362100  1
  Sr  Sr18  1  0.74705700  0.24703500  0.29117200  1
  Sr  Sr19  1  0.26925800  0.76929900  0.12821300  1
  Sr  Sr20  1  0.72177100  0.22181200  0.20362000  1
  Sr  Sr21  1  0.22763500  0.72757900  0.03793300  1
  Sr  Sr22  1  0.76920200  0.26911000  0.12819600  1
  Sr  Sr23  1  0.72752600  0.22753600  0.03792000  1
  Ru  Ru0  1  0.00483600  0.00488100  0.91747100  1
  Ru  Ru1  1  0.49799300  0.49801400  0.91632400  1
  Ru  Ru2  1  0.00269500  0.00269200  0.75045600  1
  Ru  Ru3  1  0.50500900  0.50498000  0.83417600  1
  Ru  Ru4  1  0.00097000  0.00095400  0.66682600  1
  Ru  Ru5  1  0.50578800  0.50580000  0.75096900  1
  Ru  Ru6  1  0.99940900  0.99940500  0.58324600  1
  Ru  Ru7  1  0.50154400  0.50154000  0.66692500  1
  Ru  Ru8  1  0.00000000  0.00000000  0.50000000  1
  Ru  Ru9  1  0.49903100  0.49902400  0.58318000  1
  Ru  Ru10  1  0.00059100  0.00059500  0.41675400  1
  Ru  Ru11  1  0.50000000  0.50000000  0.50000000  1
  Ru  Ru12  1  0.99903000  0.99904600  0.33317400  1
  Ru  Ru13  1  0.50096900  0.50097600  0.41682000  1
  Ru  Ru14  1  0.99730500  0.99730800  0.24954400  1
  Ru  Ru15  1  0.49845600  0.49846000  0.33307500  1
  Ru  Ru16  1  0.49421200  0.49420000  0.24903100  1
  Ru  Ru17  1  0.99516400  0.99511900  0.08252900  1
  Ru  Ru18  1  0.49499100  0.49502000  0.16582400  1
  Ru  Ru19  1  0.00000000  0.00000000  0.00000000  1
  Ru  Ru20  1  0.50200700  0.50198600  0.08367600  1
  O  O0  1  0.23094700  0.23101100  0.95516100  1
  O  O1  1  0.19787000  0.29906500  0.91649200  1
  O  O2  1  0.29913000  0.80017100  0.91649300  1
  O  O3  1  0.26920800  0.26926200  0.87820800  1
  O  O4  1  0.75081500  0.75073800  0.95846700  1
  O  O5  1  0.23665700  0.28279000  0.83311300  1
  O  O6  1  0.69874300  0.19773000  0.91648200  1
  O  O7  1  0.28287800  0.76064800  0.83311700  1
  O  O8  1  0.80006400  0.69886000  0.91649300  1
  O  O9  1  0.24415800  0.24418400  0.79069300  1
  O  O10  1  0.74796800  0.74791900  0.87466600  1
  O  O11  1  0.19912600  0.28872900  0.74900200  1
  O  O12  1  0.71447700  0.23664300  0.83311300  1
  O  O13  1  0.28864600  0.78875600  0.74898200  1
  O  O14  1  0.76062600  0.71445400  0.83311700  1
  O  O15  1  0.24364500  0.24369000  0.70728500  1
  O  O16  1  0.73401700  0.73399900  0.78900200  1
  O  O17  1  0.20329500  0.29240400  0.66632000  1
  O  O18  1  0.69908300  0.19898700  0.74897500  1
  O  O19  1  0.29234600  0.79247900  0.66631300  1
  O  O20  1  0.78885100  0.69922900  0.74900400  1
  O  O21  1  0.24904400  0.24911500  0.62485300  1
  O  O22  1  0.74983800  0.74977900  0.70831100  1
  O  O23  1  0.20279300  0.29442200  0.58313100  1
  O  O24  1  0.70338900  0.20324900  0.66630400  1
  O  O25  1  0.29423700  0.79447600  0.58312500  1
  O  O26  1  0.79252600  0.70340800  0.66632000  1
  O  O27  1  0.24875600  0.24881000  0.54145600  1
  O  O28  1  0.74712700  0.74704300  0.62452300  1
  O  O29  1  0.20447700  0.29558300  0.49999900  1
  O  O30  1  0.70316300  0.20291800  0.58312300  1
  O  O31  1  0.29542800  0.79535000  0.50000200  1
  O  O32  1  0.79468100  0.70304200  0.58313100  1
  O  O33  1  0.25054700  0.25059900  0.45843600  1
  O  O34  1  0.74945300  0.74940100  0.54156400  1
  O  O35  1  0.20531900  0.29695800  0.41686900  1
  O  O36  1  0.70457200  0.20465000  0.49999800  1
  O  O37  1  0.29683700  0.79708200  0.41687700  1
  O  O38  1  0.79552300  0.70441700  0.50000100  1
  O  O39  1  0.25287300  0.25295700  0.37547700  1
  O  O40  1  0.75124400  0.75119000  0.45854400  1
  O  O41  1  0.20747400  0.29659200  0.33368000  1
  O  O42  1  0.70576300  0.20552400  0.41687500  1
  O  O43  1  0.29661100  0.79675100  0.33369600  1
  O  O44  1  0.79720700  0.70557800  0.41686900  1
  O  O45  1  0.25016200  0.25022100  0.29168900  1
  O  O46  1  0.75095600  0.75088500  0.37514700  1
  O  O47  1  0.21114900  0.30077100  0.25099600  1
  O  O48  1  0.70765400  0.20752100  0.33368700  1
  O  O49  1  0.30091700  0.80101300  0.25102500  1
  O  O50  1  0.79670500  0.70759600  0.33368000  1
  O  O51  1  0.26598300  0.26600100  0.21099800  1
  O  O52  1  0.75635500  0.75631000  0.29271500  1
  O  O53  1  0.23937400  0.28554600  0.16688300  1
  O  O54  1  0.71135400  0.21124400  0.25101800  1
  O  O55  1  0.28552300  0.76335700  0.16688700  1
  O  O56  1  0.80087400  0.71127100  0.25099800  1
  O  O57  1  0.25203200  0.25208100  0.12533400  1
  O  O58  1  0.75584200  0.75581600  0.20930700  1
  O  O59  1  0.19993600  0.30114000  0.08350700  1
  O  O60  1  0.71712200  0.23935200  0.16688300  1
  O  O61  1  0.30125600  0.80227000  0.08351800  1
  O  O62  1  0.76334300  0.71721000  0.16688700  1
  O  O63  1  0.24918500  0.24926200  0.04153300  1
  O  O64  1  0.73079200  0.73073800  0.12179200  1
  O  O65  1  0.21410100  0.26375700  0.99999700  1
  O  O66  1  0.70087000  0.19982900  0.08350700  1
  O  O67  1  0.26378500  0.78595800  0.00000600  1
  O  O68  1  0.80213000  0.70093500  0.08350800  1
  O  O69  1  0.76905300  0.76898900  0.04483900  1
  O  O70  1  0.73621500  0.21404200  0.99999400  1
  O  O71  1  0.78589900  0.73624300  0.00000300  1
loop_
_geom_bond_atom_site_label_1
_geom_bond_atom_site_label_2
_geom_bond_distance
_geom_bond_site_symmetry_2
O0 Ru0 1.823141 1_555
O0 Sr0 2.814872 1_555
O0 Sr2 2.815153 1_555
O0 Sr2 2.815370 1_455
O0 Sr0 2.815562 1_545
O1 Ru0 2.013069 1_555
O1 Ru1 2.020802 1_555
O1 Sr4 2.676095 1_455
O1 Sr0 2.710809 1_555
O2 Ru0 2.013562 1_565
O2 Ru1 2.020758 1_555
O2 Sr1 2.675173 1_555
O2 Sr2 2.709666 1_565
O3 Ru1 1.843748 1_555
O3 Sr1 2.812069 1_545
O3 Sr4 2.812232 1_455
O3 Sr1 2.812659 1_555
O3 Sr4 2.812916 1_555
O4 Ru19 2.009035 1_666
O4 Ru1 2.038542 1_555
O4 Sr2 2.800211 1_555
O4 Sr0 2.800719 1_655
O4 Sr0 2.800940 1_555
O4 Sr2 2.801130 1_565
O5 Ru3 1.898175 1_555
O5 Sr6 2.526889 1_455
O5 Sr1 2.594458 1_555
O5 Sr3 2.797708 1_545
O5 Sr4 2.858232 1_555
O6 Ru0 2.013378 1_655
O6 Ru1 2.020939 1_555
O6 Sr1 2.674646 1_545
O6 Sr2 2.710436 1_555
O7 Ru3 1.898420 1_555
O7 Sr3 2.526417 1_555
O7 Sr4 2.593344 1_565
O7 Sr6 2.797788 1_455
O7 Sr1 2.858295 1_555
O8 Ru0 2.013495 1_665
O8 Ru1 2.020070 1_555
O8 Sr4 2.676316 1_555
O8 Sr0 2.710784 1_655
O9 Ru2 1.946345 1_555
O9 Ru3 2.103361 1_555
O9 Sr3 2.808093 1_555
O9 Sr6 2.808479 1_555
O9 Sr6 2.809261 1_455
O9 Sr3 2.809417 1_545
O10 Ru3 1.958583 1_555
O10 Ru0 2.070564 1_665
O10 Sr4 2.798403 1_555
O10 Sr1 2.798783 1_555
O10 Sr1 2.798812 1_655
O10 Sr4 2.799034 1_565
O11 Ru2 2.008874 1_555
O11 Ru5 2.010738 1_555
O11 Sr8 2.531154 1_455
O11 Sr3 2.807855 1_555
O11 Sr5 3.034666 1_545
O12 Ru3 1.898399 1_555
O12 Sr3 2.526684 1_545
O12 Sr4 2.593264 1_555
O12 Sr6 2.797511 1_555
O12 Sr1 2.858878 1_655
O13 Ru2 2.009075 1_565
O13 Ru5 2.010867 1_555
O13 Sr5 2.530637 1_555
O13 Sr6 2.808309 1_565
O13 Sr8 3.033616 1_455
O14 Ru3 1.898217 1_555
O14 Sr6 2.526690 1_555
O14 Sr1 2.593735 1_655
O14 Sr3 2.797684 1_555
O14 Sr4 2.858014 1_565
O15 Ru4 1.957084 1_555
O15 Ru5 2.113083 1_555
O15 Sr8 2.795997 1_455
O15 Sr5 2.796154 1_545
O15 Sr5 2.796341 1_555
O15 Sr8 2.796764 1_555
O16 Ru5 1.839733 1_555
O16 Sr3 2.817742 1_655
O16 Sr6 2.817863 1_565
O16 Sr6 2.818010 1_555
O16 Sr3 2.818382 1_555
O17 Ru4 2.007187 1_555
O17 Ru7 2.008353 1_555
O17 Sr10 2.574309 1_455
O17 Sr5 2.620484 1_555
O17 Sr7 3.068680 1_545
O17 Sr8 3.107102 1_555
O18 Ru2 2.009053 1_655
O18 Ru5 2.010874 1_555
O18 Sr5 2.530407 1_545
O18 Sr6 2.809074 1_555
O18 Sr8 3.033539 1_555
O19 Ru4 2.007373 1_565
O19 Ru7 2.008540 1_555
O19 Sr7 2.574784 1_555
O19 Sr8 2.621030 1_565
O19 Sr10 3.067616 1_455
O19 Sr5 3.106836 1_555
O20 Ru2 2.008747 1_665
O20 Ru5 2.010548 1_555
O20 Sr8 2.531227 1_555
O20 Sr3 2.807908 1_655
O20 Sr5 3.034906 1_555
O21 Ru6 2.012615 1_445
O21 Ru7 2.035108 1_555
O21 Sr7 2.795128 1_555
O21 Sr10 2.795184 1_455
O21 Sr7 2.795396 1_545
O21 Sr10 2.795586 1_555
O22 Ru7 2.001924 1_555
O22 Ru2 2.038639 1_665
O22 Sr8 2.794899 1_555
O22 Sr5 2.795467 1_555
O22 Sr5 2.795500 1_655
O22 Sr8 2.795837 1_565
O23 Ru6 2.008552 1_445
O23 Ru9 2.010410 1_555
O23 Sr12 2.573395 1_455
O23 Sr7 2.590467 1_555
O23 Sr9 3.080866 1_545
O23 Sr10 3.094977 1_555
O24 Ru4 2.007451 1_655
O24 Ru7 2.008479 1_555
O24 Sr7 2.574756 1_545
O24 Sr8 2.621595 1_555
O24 Sr10 3.066829 1_555
O24 Sr5 3.106683 1_655
O25 Ru6 2.008473 1_455
O25 Ru9 2.010314 1_555
O25 Sr9 2.574957 1_555
O25 Sr10 2.592243 1_565
O25 Sr12 3.078449 1_455
O25 Sr7 3.093273 1_555
O26 Ru4 2.007446 1_665
O26 Ru7 2.008297 1_555
O26 Sr10 2.574273 1_555
O26 Sr5 2.620343 1_655
O26 Sr7 3.068664 1_555
O26 Sr8 3.107101 1_565
O27 Ru8 2.005310 1_555
O27 Ru9 2.018274 1_555
O27 Sr9 2.794645 1_555
O27 Sr12 2.795223 1_555
O27 Sr12 2.795571 1_455
O27 Sr9 2.795898 1_545
O28 Ru9 1.999844 1_555
O28 Ru4 2.046282 1_665
O28 Sr10 2.795015 1_555
O28 Sr7 2.795410 1_655
O28 Sr7 2.795534 1_555
O28 Sr10 2.795707 1_565
O29 Ru11 2.008772 1_555
O29 Ru8 2.009301 1_555
O29 Sr14 2.583983 1_455
O29 Sr9 2.584055 1_555
O29 Sr11 3.087037 1_545
O29 Sr12 3.087111 1_555
O30 Ru6 2.008414 1_545
O30 Ru9 2.010263 1_555
O30 Sr9 2.574710 1_545
O30 Sr10 2.592303 1_555
O30 Sr12 3.078876 1_555
O30 Sr7 3.093487 1_655
O31 Ru11 2.008652 1_555
O31 Ru8 2.009290 1_565
O31 Sr12 2.585591 1_565
O31 Sr11 2.585953 1_555
O31 Sr14 3.084821 1_455
O31 Sr9 3.085232 1_555
O32 Ru6 2.008281 1_555
O32 Ru9 2.010423 1_555
O32 Sr12 2.573402 1_555
O32 Sr7 2.590455 1_655
O32 Sr9 3.080864 1_555
O32 Sr10 3.095050 1_565
O33 Ru11 2.010535 1_555
O33 Ru10 2.016243 1_555
O33 Sr14 2.794795 1_455
O33 Sr11 2.795080 1_545
O33 Sr11 2.795438 1_555
O33 Sr14 2.795958 1_555
O34 Ru11 2.010535 1_555
O34 Ru6 2.016243 1_555
O34 Sr9 2.794795 1_655
O34 Sr12 2.795080 1_565
O34 Sr12 2.795438 1_555
O34 Sr9 2.795958 1_555
O35 Ru10 2.008281 1_555
O35 Ru13 2.010423 1_555
O35 Sr11 2.573402 1_555
O35 Sr16 2.590455 1_455
O35 Sr14 3.080864 1_555
O35 Sr13 3.095050 1_545
O36 Ru11 2.008652 1_555
O36 Ru8 2.009290 1_655
O36 Sr11 2.585591 1_545
O36 Sr12 2.585953 1_555
O36 Sr9 3.084821 1_655
O36 Sr14 3.085232 1_555
O37 Ru10 2.008414 1_565
O37 Ru13 2.010263 1_555
O37 Sr14 2.574710 1_565
O37 Sr13 2.592303 1_555
O37 Sr11 3.078876 1_555
O37 Sr16 3.093487 1_455
O38 Ru11 2.008772 1_555
O38 Ru8 2.009301 1_665
O38 Sr9 2.583983 1_655
O38 Sr14 2.584055 1_555
O38 Sr12 3.087037 1_565
O38 Sr11 3.087111 1_555
O39 Ru13 1.999844 1_555
O39 Ru12 2.046282 1_445
O39 Sr13 2.795015 1_555
O39 Sr16 2.795410 1_455
O39 Sr16 2.795534 1_555
O39 Sr13 2.795707 1_545
O40 Ru8 2.005310 1_665
O40 Ru13 2.018274 1_555
O40 Sr14 2.794645 1_555
O40 Sr11 2.795223 1_555
O40 Sr11 2.795571 1_655
O40 Sr14 2.795898 1_565
O41 Ru12 2.007446 1_445
O41 Ru15 2.008297 1_555
O41 Sr13 2.574273 1_555
O41 Sr18 2.620343 1_455
O41 Sr16 3.068664 1_555
O41 Sr15 3.107101 1_545
O42 Ru10 2.008473 1_655
O42 Ru13 2.010314 1_555
O42 Sr14 2.574957 1_555
O42 Sr13 2.592243 1_545
O42 Sr11 3.078449 1_655
O42 Sr16 3.093273 1_555
O43 Ru12 2.007451 1_455
O43 Ru15 2.008479 1_555
O43 Sr16 2.574756 1_565
O43 Sr15 2.621595 1_555
O43 Sr13 3.066829 1_555
O43 Sr18 3.106683 1_455
O44 Ru10 2.008552 1_665
O44 Ru13 2.010410 1_555
O44 Sr11 2.573395 1_655
O44 Sr16 2.590467 1_555
O44 Sr14 3.080866 1_565
O44 Sr13 3.094977 1_555
O45 Ru15 2.001924 1_555
O45 Ru14 2.038639 1_445
O45 Sr15 2.794899 1_555
O45 Sr18 2.795467 1_555
O45 Sr18 2.795500 1_455
O45 Sr15 2.795837 1_545
O46 Ru10 2.012615 1_665
O46 Ru15 2.035108 1_555
O46 Sr16 2.795128 1_555
O46 Sr13 2.795184 1_655
O46 Sr16 2.795396 1_565
O46 Sr13 2.795586 1_555
O47 Ru14 2.008747 1_445
O47 Ru16 2.010548 1_555
O47 Sr15 2.531227 1_555
O47 Sr20 2.807908 1_455
O47 Sr18 3.034906 1_555
O48 Ru12 2.007373 1_545
O48 Ru15 2.008540 1_555
O48 Sr16 2.574784 1_555
O48 Sr15 2.621030 1_545
O48 Sr13 3.067616 1_655
O48 Sr18 3.106836 1_555
O49 Ru14 2.009053 1_455
O49 Ru16 2.010874 1_555
O49 Sr18 2.530407 1_565
O49 Sr17 2.809074 1_555
O49 Sr15 3.033539 1_555
O50 Ru12 2.007187 1_555
O50 Ru15 2.008353 1_555
O50 Sr13 2.574309 1_655
O50 Sr18 2.620484 1_555
O50 Sr16 3.068680 1_565
O50 Sr15 3.107102 1_555
O51 Ru16 1.839733 1_555
O51 Sr20 2.817742 1_455
O51 Sr17 2.817863 1_545
O51 Sr17 2.818010 1_555
O51 Sr20 2.818382 1_555
O52 Ru12 1.957084 1_555
O52 Ru16 2.113083 1_555
O52 Sr15 2.795997 1_655
O52 Sr18 2.796154 1_565
O52 Sr18 2.796341 1_555
O52 Sr15 2.796764 1_555
O53 Ru18 1.898217 1_555
O53 Sr17 2.526690 1_555
O53 Sr22 2.593735 1_455
O53 Sr20 2.797684 1_555
O53 Sr19 2.858014 1_545
O54 Ru14 2.009075 1_545
O54 Ru16 2.010867 1_555
O54 Sr18 2.530637 1_555
O54 Sr17 2.808309 1_545
O54 Sr15 3.033616 1_655
O55 Ru18 1.898399 1_555
O55 Sr20 2.526684 1_565
O55 Sr19 2.593264 1_555
O55 Sr17 2.797511 1_555
O55 Sr22 2.858878 1_455
O56 Ru14 2.008874 1_555
O56 Ru16 2.010738 1_555
O56 Sr15 2.531154 1_655
O56 Sr20 2.807855 1_555
O56 Sr18 3.034666 1_565
O57 Ru18 1.958583 1_555
O57 Ru17 2.070564 1_445
O57 Sr19 2.798403 1_555
O57 Sr22 2.798783 1_555
O57 Sr22 2.798812 1_455
O57 Sr19 2.799034 1_545
O58 Ru14 1.946345 1_555
O58 Ru18 2.103361 1_555
O58 Sr20 2.808093 1_555
O58 Sr17 2.808479 1_555
O58 Sr17 2.809261 1_655
O58 Sr20 2.809417 1_565
O59 Ru17 2.013495 1_445
O59 Ru20 2.020070 1_555
O59 Sr19 2.676316 1_555
O59 Sr23 2.710784 1_455
O60 Ru18 1.898420 1_555
O60 Sr20 2.526417 1_555
O60 Sr19 2.593344 1_545
O60 Sr17 2.797788 1_655
O60 Sr22 2.858295 1_555
O61 Ru17 2.013373 1_455
O61 Ru20 2.020942 1_555
O61 Sr22 2.674648 1_565
O61 Sr21 2.710439 1_555
O62 Ru18 1.898175 1_555
O62 Sr17 2.526889 1_655
O62 Sr22 2.594458 1_555
O62 Sr20 2.797708 1_565
O62 Sr19 2.858232 1_555
O63 Ru19 2.009035 1_555
O63 Ru20 2.038542 1_555
O63 Sr21 2.800211 1_555
O63 Sr23 2.800719 1_455
O63 Sr23 2.800940 1_555
O63 Sr21 2.801130 1_545
O64 Ru20 1.843748 1_555
O64 Sr22 2.812069 1_565
O64 Sr19 2.812232 1_655
O64 Sr22 2.812659 1_555
O64 Sr19 2.812916 1_555
O65 Ru19 1.899267 1_556
O65 Sr21 2.558118 1_556
O65 Sr2 2.558205 1_455
O65 Sr0 2.844949 1_545
O65 Sr23 2.845065 1_556
O66 Ru17 2.013562 1_545
O66 Ru20 2.020758 1_555
O66 Sr22 2.675173 1_555
O66 Sr21 2.709666 1_545
O67 Ru19 1.899208 1_565
O67 Sr23 2.557372 1_565
O67 Sr0 2.557754 1_554
O67 Sr21 2.845110 1_555
O67 Sr2 2.845488 1_454
O68 Ru17 2.013069 1_555
O68 Ru20 2.020802 1_555
O68 Sr19 2.676095 1_655
O68 Sr23 2.710809 1_555
O69 Ru17 1.823141 1_555
O69 Sr23 2.814872 1_555
O69 Sr21 2.815153 1_555
O69 Sr21 2.815370 1_655
O69 Sr23 2.815562 1_565
O70 Ru19 1.899208 1_656
O70 Sr0 2.557372 1_545
O70 Sr23 2.557754 1_556
O70 Sr2 2.845110 1_555
O70 Sr21 2.845488 1_656
O71 Ru19 1.899267 1_665
O71 Sr2 2.558118 1_554
O71 Sr21 2.558205 1_655
O71 Sr23 2.844949 1_565
O71 Sr0 2.845065 1_554
