# generated using pymatgen
data_K2Ba(Ge4O9)2
_symmetry_space_group_name_H-M   'P 1'
_cell_length_a   11.90796458
_cell_length_b   11.90796458
_cell_length_c   19.58686600
_cell_angle_alpha   90.00000000
_cell_angle_beta   90.00000000
_cell_angle_gamma   120.00000322
_symmetry_Int_Tables_number   1
_chemical_formula_structural   K2Ba(Ge4O9)2
_chemical_formula_sum   'K12 Ba6 Ge48 O108'
_cell_volume   2405.30768073
_cell_formula_units_Z   6
loop_
 _symmetry_equiv_pos_site_id
 _symmetry_equiv_pos_as_xyz
  1  'x, y, z'
loop_
 _atom_site_type_symbol
 _atom_site_label
 _atom_site_symmetry_multiplicity
 _atom_site_fract_x
 _atom_site_fract_y
 _atom_site_fract_z
 _atom_site_occupancy
  K  K0  1  0.66267900  0.99829800  0.53934900  1
  K  K1  1  0.00170200  0.66438200  0.53934900  1
  K  K2  1  0.99829800  0.33561800  0.46065100  1
  K  K3  1  0.66438200  0.66267900  0.46065100  1
  K  K4  1  0.33561800  0.99829800  0.03934900  1
  K  K5  1  0.00170200  0.33732100  0.03934900  1
  K  K6  1  0.33732100  0.33561800  0.96065100  1
  K  K7  1  0.66267900  0.66438200  0.03934900  1
  K  K8  1  0.66438200  0.00170200  0.96065100  1
  K  K9  1  0.33561800  0.33732100  0.53934900  1
  K  K10  1  0.33732100  0.00170200  0.46065100  1
  K  K11  1  0.99829800  0.66267900  0.96065100  1
  Ba  Ba0  1  0.33513400  0.00000000  0.25000000  1
  Ba  Ba1  1  0.66486600  0.00000000  0.75000000  1
  Ba  Ba2  1  0.66486600  0.66486600  0.25000000  1
  Ba  Ba3  1  0.33513400  0.33513400  0.75000000  1
  Ba  Ba4  1  0.00000000  0.33513400  0.25000000  1
  Ba  Ba5  1  0.00000000  0.66486600  0.75000000  1
  Ge  Ge0  1  0.14481700  0.66155200  0.14924100  1
  Ge  Ge1  1  0.33844800  0.85518300  0.64924100  1
  Ge  Ge2  1  0.66155200  0.51673500  0.85075900  1
  Ge  Ge3  1  0.15484900  0.66641900  0.39126400  1
  Ge  Ge4  1  0.17780700  0.00360500  0.87267500  1
  Ge  Ge5  1  0.00360500  0.82579800  0.12732500  1
  Ge  Ge6  1  0.17420200  0.17780700  0.12732500  1
  Ge  Ge7  1  0.00360500  0.17780700  0.62732500  1
  Ge  Ge8  1  0.17780700  0.17420200  0.37267500  1
  Ge  Ge9  1  0.33333300  0.66666700  0.02223100  1
  Ge  Ge10  1  0.84515100  0.33358100  0.60873600  1
  Ge  Ge11  1  0.33358100  0.48843000  0.39126400  1
  Ge  Ge12  1  0.66641900  0.51157000  0.60873600  1
  Ge  Ge13  1  0.66641900  0.15484900  0.10873600  1
  Ge  Ge14  1  0.48843000  0.33358100  0.10873600  1
  Ge  Ge15  1  0.99639500  0.82219300  0.37267500  1
  Ge  Ge16  1  0.66666700  0.33333300  0.72794500  1
  Ge  Ge17  1  0.82219300  0.82579800  0.62732500  1
  Ge  Ge18  1  0.17420200  0.99639500  0.62732500  1
  Ge  Ge19  1  0.33844800  0.48326500  0.14924100  1
  Ge  Ge20  1  0.33333300  0.66666700  0.52223100  1
  Ge  Ge21  1  0.33358100  0.84515100  0.89126400  1
  Ge  Ge22  1  0.48326500  0.14481700  0.85075900  1
  Ge  Ge23  1  0.51673500  0.85518300  0.14924100  1
  Ge  Ge24  1  0.00000000  0.00000000  0.25000000  1
  Ge  Ge25  1  0.48326500  0.33844800  0.35075900  1
  Ge  Ge26  1  0.14481700  0.48326500  0.64924100  1
  Ge  Ge27  1  0.33333300  0.66666700  0.27205500  1
  Ge  Ge28  1  0.82579800  0.82219300  0.87267500  1
  Ge  Ge29  1  0.82219300  0.99639500  0.12732500  1
  Ge  Ge30  1  0.15484900  0.48843000  0.89126400  1
  Ge  Ge31  1  0.66666700  0.33333300  0.47776900  1
  Ge  Ge32  1  0.48843000  0.15484900  0.60873600  1
  Ge  Ge33  1  0.00000000  0.00000000  0.00000000  1
  Ge  Ge34  1  0.00000000  0.00000000  0.50000000  1
  Ge  Ge35  1  0.85518300  0.33844800  0.85075900  1
  Ge  Ge36  1  0.66666700  0.33333300  0.22794500  1
  Ge  Ge37  1  0.84515100  0.51157000  0.10873600  1
  Ge  Ge38  1  0.33333300  0.66666700  0.77205500  1
  Ge  Ge39  1  0.66666700  0.33333300  0.97776900  1
  Ge  Ge40  1  0.51157000  0.84515100  0.39126400  1
  Ge  Ge41  1  0.00000000  0.00000000  0.75000000  1
  Ge  Ge42  1  0.51157000  0.66641900  0.89126400  1
  Ge  Ge43  1  0.82579800  0.00360500  0.37267500  1
  Ge  Ge44  1  0.51673500  0.66155200  0.64924100  1
  Ge  Ge45  1  0.85518300  0.51673500  0.35075900  1
  Ge  Ge46  1  0.99639500  0.17420200  0.87267500  1
  Ge  Ge47  1  0.66155200  0.14481700  0.35075900  1
  O  O0  1  0.15152500  0.06764000  0.44142100  1
  O  O1  1  0.99117800  0.51561500  0.13591400  1
  O  O2  1  0.12067600  0.32548400  0.67251300  1
  O  O3  1  0.78296700  0.10723700  0.08452900  1
  O  O4  1  0.58960300  0.40664800  0.78259000  1
  O  O5  1  0.39509400  0.81882200  0.96725500  1
  O  O6  1  0.48438500  0.47556300  0.13591400  1
  O  O7  1  0.75695700  0.27352500  0.17091000  1
  O  O8  1  0.67573000  0.89276300  0.41547100  1
  O  O9  1  0.15152500  0.08388600  0.94142100  1
  O  O10  1  0.08388600  0.15152500  0.55857900  1
  O  O11  1  0.48438500  0.00882200  0.63591400  1
  O  O12  1  0.79519200  0.67451600  0.82748700  1
  O  O13  1  0.06764000  0.91611400  0.55857900  1
  O  O14  1  0.06764000  0.15152500  0.05857900  1
  O  O15  1  0.18117800  0.60490600  0.46725500  1
  O  O16  1  0.81704500  0.41039700  0.78259000  1
  O  O17  1  0.51328300  0.24078900  0.92363800  1
  O  O18  1  0.12067600  0.79519200  0.17251300  1
  O  O19  1  0.27352500  0.75695700  0.32909000  1
  O  O20  1  0.51328300  0.27249400  0.42363800  1
  O  O21  1  0.93676400  0.84888800  0.69193800  1
  O  O22  1  0.18295500  0.59335200  0.71741000  1
  O  O23  1  0.79519200  0.12067600  0.32748700  1
  O  O24  1  0.93676400  0.08787600  0.19193800  1
  O  O25  1  0.32548400  0.20480800  0.32748700  1
  O  O26  1  0.81882200  0.42372800  0.03274500  1
  O  O27  1  0.57627200  0.18117800  0.53274500  1
  O  O28  1  0.24078900  0.51328300  0.57636200  1
  O  O29  1  0.21703300  0.32427000  0.41547100  1
  O  O30  1  0.75695700  0.48343100  0.67091000  1
  O  O31  1  0.57627200  0.39509400  0.03274500  1
  O  O32  1  0.51561500  0.52443700  0.86408600  1
  O  O33  1  0.32427000  0.21703300  0.08452900  1
  O  O34  1  0.15111200  0.08787600  0.69193800  1
  O  O35  1  0.72750600  0.48671700  0.92363800  1
  O  O36  1  0.41039700  0.81704500  0.71741000  1
  O  O37  1  0.72750600  0.24078900  0.42363800  1
  O  O38  1  0.67573000  0.78296700  0.91547100  1
  O  O39  1  0.15111200  0.06323600  0.19193800  1
  O  O40  1  0.47556300  0.99117800  0.86408600  1
  O  O41  1  0.87932400  0.20480800  0.82748700  1
  O  O42  1  0.08388600  0.93236000  0.05857900  1
  O  O43  1  0.48343100  0.72647500  0.32909000  1
  O  O44  1  0.81704500  0.40664800  0.28259000  1
  O  O45  1  0.84847500  0.93236000  0.55857900  1
  O  O46  1  0.40664800  0.58960300  0.71741000  1
  O  O47  1  0.93236000  0.84847500  0.94142100  1
  O  O48  1  0.59335200  0.41039700  0.28259000  1
  O  O49  1  0.60490600  0.18117800  0.03274500  1
  O  O50  1  0.72647500  0.48343100  0.17091000  1
  O  O51  1  0.24304300  0.72647500  0.82909000  1
  O  O52  1  0.24304300  0.51656900  0.32909000  1
  O  O53  1  0.59335200  0.18295500  0.78259000  1
  O  O54  1  0.20480800  0.87932400  0.67251300  1
  O  O55  1  0.52443700  0.51561500  0.63591400  1
  O  O56  1  0.40664800  0.81704500  0.21741000  1
  O  O57  1  0.27249400  0.75921100  0.57636200  1
  O  O58  1  0.67451600  0.79519200  0.67251300  1
  O  O59  1  0.20480800  0.32548400  0.17251300  1
  O  O60  1  0.99117800  0.47556300  0.63591400  1
  O  O61  1  0.81882200  0.39509400  0.53274500  1
  O  O62  1  0.75921100  0.27249400  0.92363800  1
  O  O63  1  0.32427000  0.10723700  0.58452900  1
  O  O64  1  0.84888800  0.91212400  0.30806200  1
  O  O65  1  0.60490600  0.42372800  0.53274500  1
  O  O66  1  0.93236000  0.08388600  0.44142100  1
  O  O67  1  0.89276300  0.67573000  0.08452900  1
  O  O68  1  0.08787600  0.15111200  0.80806200  1
  O  O69  1  0.51656900  0.27352500  0.67091000  1
  O  O70  1  0.00882200  0.48438500  0.86408600  1
  O  O71  1  0.18117800  0.57627200  0.96725500  1
  O  O72  1  0.08787600  0.93676400  0.30806200  1
  O  O73  1  0.47556300  0.48438500  0.36408600  1
  O  O74  1  0.06323600  0.91212400  0.80806200  1
  O  O75  1  0.32548400  0.12067600  0.82748700  1
  O  O76  1  0.91611400  0.84847500  0.44142100  1
  O  O77  1  0.91212400  0.06323600  0.69193800  1
  O  O78  1  0.84847500  0.91611400  0.05857900  1
  O  O79  1  0.42372800  0.60490600  0.96725500  1
  O  O80  1  0.51561500  0.99117800  0.36408600  1
  O  O81  1  0.91212400  0.84888800  0.19193800  1
  O  O82  1  0.21703300  0.89276300  0.91547100  1
  O  O83  1  0.27249400  0.51328300  0.07636200  1
  O  O84  1  0.58960300  0.18295500  0.28259000  1
  O  O85  1  0.10723700  0.78296700  0.41547100  1
  O  O86  1  0.41039700  0.59335200  0.21741000  1
  O  O87  1  0.06323600  0.15111200  0.30806200  1
  O  O88  1  0.48343100  0.75695700  0.82909000  1
  O  O89  1  0.42372800  0.81882200  0.46725500  1
  O  O90  1  0.48671700  0.75921100  0.07636200  1
  O  O91  1  0.51656900  0.24304300  0.17091000  1
  O  O92  1  0.89276300  0.21703300  0.58452900  1
  O  O93  1  0.72647500  0.24304300  0.67091000  1
  O  O94  1  0.87932400  0.67451600  0.32748700  1
  O  O95  1  0.91611400  0.06764000  0.94142100  1
  O  O96  1  0.39509400  0.57627200  0.46725500  1
  O  O97  1  0.78296700  0.67573000  0.58452900  1
  O  O98  1  0.27352500  0.51656900  0.82909000  1
  O  O99  1  0.24078900  0.72750600  0.07636200  1
  O  O100  1  0.67451600  0.87932400  0.17251300  1
  O  O101  1  0.75921100  0.48671700  0.42363800  1
  O  O102  1  0.10723700  0.32427000  0.91547100  1
  O  O103  1  0.84888800  0.93676400  0.80806200  1
  O  O104  1  0.52443700  0.00882200  0.13591400  1
  O  O105  1  0.00882200  0.52443700  0.36408600  1
  O  O106  1  0.18295500  0.58960300  0.21741000  1
  O  O107  1  0.48671700  0.72750600  0.57636200  1
loop_
_geom_bond_atom_site_label_1
_geom_bond_atom_site_label_2
_geom_bond_distance
_geom_bond_site_symmetry_2
K0 O45 2.718552 1_555
K0 O8 2.772382 1_555
K0 O92 2.817407 1_565
K0 O27 2.838779 1_565
K0 O11 2.892546 1_565
K0 O107 2.925298 1_555
K0 O89 2.928619 1_555
K1 O13 2.718529 1_555
K1 O85 2.772378 1_555
K1 O97 2.817401 1_455
K1 O61 2.838788 1_455
K1 O60 2.892555 1_455
K1 O57 2.925300 1_555
K1 O15 2.928627 1_555
K2 O66 2.718529 1_555
K2 O92 2.772378 1_555
K2 O29 2.817401 1_655
K2 O15 2.838788 1_655
K2 O105 2.892555 1_655
K2 O37 2.925300 1_555
K2 O61 2.928627 1_555
K3 O76 2.718535 1_555
K3 O97 2.772376 1_555
K3 O8 2.817412 1_555
K3 O96 2.838790 1_555
K3 O73 2.892551 1_555
K3 O101 2.925289 1_555
K3 O65 2.928617 1_555
K4 O42 2.718529 1_555
K4 O82 2.772378 1_554
K4 O33 2.817401 1_565
K4 O49 2.838788 1_565
K4 O104 2.892555 1_565
K4 O99 2.925300 1_555
K4 O5 2.928627 1_554
K5 O14 2.718552 1_555
K5 O102 2.772382 1_554
K5 O3 2.817407 1_455
K5 O26 2.838779 1_455
K5 O1 2.892546 1_455
K5 O83 2.925298 1_555
K5 O71 2.928619 1_554
K6 O9 2.718535 1_555
K6 O33 2.772376 1_556
K6 O102 2.817412 1_555
K6 O79 2.838790 1_555
K6 O32 2.892551 1_555
K6 O17 2.925289 1_555
K6 O31 2.928617 1_556
K7 O78 2.718535 1_555
K7 O38 2.772376 1_554
K7 O67 2.817412 1_555
K7 O31 2.838790 1_555
K7 O6 2.892551 1_555
K7 O90 2.925289 1_555
K7 O79 2.928617 1_554
K8 O95 2.718529 1_555
K8 O3 2.772378 1_556
K8 O38 2.817401 1_545
K8 O5 2.838788 1_545
K8 O40 2.892555 1_545
K8 O62 2.925300 1_555
K8 O49 2.928627 1_556
K9 O10 2.718535 1_555
K9 O29 2.772376 1_555
K9 O63 2.817412 1_555
K9 O65 2.838790 1_555
K9 O55 2.892551 1_555
K9 O28 2.925289 1_555
K9 O96 2.928617 1_555
K10 O0 2.718552 1_555
K10 O63 2.772382 1_555
K10 O85 2.817407 1_545
K10 O89 2.838779 1_545
K10 O80 2.892546 1_545
K10 O20 2.925298 1_555
K10 O27 2.928619 1_555
K11 O47 2.718552 1_555
K11 O67 2.772382 1_556
K11 O82 2.817407 1_655
K11 O71 2.838779 1_655
K11 O70 2.892546 1_655
K11 O35 2.925298 1_555
K11 O26 2.928619 1_556
Ba0 O84 2.781070 1_555
Ba0 O56 2.781070 1_545
Ba0 O72 2.883120 1_545
Ba0 O39 2.883120 1_555
Ba0 O18 2.923170 1_545
Ba0 O25 2.923170 1_555
Ba0 O19 3.031641 1_545
Ba0 O91 3.031644 1_555
Ba0 O104 3.138325 1_555
Ba0 O80 3.138325 1_545
Ba1 O36 2.781070 1_545
Ba1 O53 2.781070 1_555
Ba1 O77 2.883120 1_555
Ba1 O103 2.883120 1_545
Ba1 O41 2.923170 1_555
Ba1 O58 2.923170 1_545
Ba1 O93 3.031641 1_555
Ba1 O88 3.031644 1_545
Ba1 O40 3.138325 1_545
Ba1 O11 3.138325 1_555
Ba2 O48 2.781070 1_555
Ba2 O86 2.781070 1_555
Ba2 O81 2.883120 1_555
Ba2 O64 2.883120 1_555
Ba2 O94 2.923170 1_555
Ba2 O100 2.923170 1_555
Ba2 O50 3.031651 1_555
Ba2 O43 3.031651 1_555
Ba2 O6 3.138325 1_555
Ba2 O73 3.138325 1_555
Ba3 O4 2.781070 1_555
Ba3 O46 2.781070 1_555
Ba3 O34 2.883120 1_555
Ba3 O68 2.883120 1_555
Ba3 O75 2.923170 1_555
Ba3 O2 2.923170 1_555
Ba3 O69 3.031651 1_555
Ba3 O98 3.031651 1_555
Ba3 O32 3.138325 1_555
Ba3 O55 3.138325 1_555
Ba4 O106 2.781070 1_555
Ba4 O44 2.781070 1_455
Ba4 O24 2.883120 1_455
Ba4 O87 2.883120 1_555
Ba4 O23 2.923170 1_455
Ba4 O59 2.923170 1_555
Ba4 O7 3.031641 1_455
Ba4 O52 3.031644 1_555
Ba4 O105 3.138325 1_555
Ba4 O1 3.138325 1_455
Ba5 O16 2.781070 1_455
Ba5 O22 2.781070 1_555
Ba5 O74 2.883120 1_555
Ba5 O21 2.883120 1_455
Ba5 O54 2.923170 1_555
Ba5 O12 2.923170 1_455
Ba5 O51 3.031641 1_555
Ba5 O30 3.031644 1_455
Ba5 O60 3.138325 1_455
Ba5 O70 3.138325 1_555
Ge0 O99 1.750143 1_555
Ge0 O106 1.764142 1_555
Ge0 O1 1.804419 1_455
Ge0 O18 1.811182 1_555
Ge1 O57 1.750143 1_555
Ge1 O36 1.764142 1_555
Ge1 O11 1.804419 1_565
Ge1 O54 1.811182 1_555
Ge2 O35 1.750143 1_555
Ge2 O4 1.764142 1_555
Ge2 O32 1.804419 1_555
Ge2 O12 1.811182 1_555
Ge3 O15 1.754968 1_555
Ge3 O19 1.766036 1_555
Ge3 O105 1.796012 1_555
Ge3 O85 1.805336 1_555
Ge4 O9 1.767527 1_555
Ge4 O74 1.778614 1_545
Ge4 O82 1.810939 1_545
Ge4 O75 1.835141 1_555
Ge5 O42 1.767522 1_555
Ge5 O81 1.778615 1_455
Ge5 O67 1.810939 1_455
Ge5 O18 1.835142 1_555
Ge6 O14 1.767520 1_555
Ge6 O39 1.778615 1_555
Ge6 O33 1.810939 1_555
Ge6 O59 1.835142 1_555
Ge7 O10 1.767527 1_555
Ge7 O77 1.778614 1_455
Ge7 O92 1.810939 1_455
Ge7 O2 1.835141 1_555
Ge8 O0 1.767520 1_555
Ge8 O87 1.778615 1_555
Ge8 O29 1.810939 1_555
Ge8 O25 1.835142 1_555
Ge9 O5 1.910679 1_554
Ge9 O71 1.910680 1_554
Ge9 O79 1.910688 1_554
Ge9 O99 1.913583 1_555
Ge9 O90 1.913591 1_555
Ge9 O83 1.913592 1_555
Ge10 O61 1.754968 1_555
Ge10 O93 1.766036 1_555
Ge10 O60 1.796012 1_555
Ge10 O92 1.805336 1_555
Ge11 O96 1.754968 1_555
Ge11 O52 1.766042 1_555
Ge11 O73 1.796012 1_555
Ge11 O29 1.805336 1_555
Ge12 O65 1.754968 1_555
Ge12 O30 1.766042 1_555
Ge12 O55 1.796012 1_555
Ge12 O97 1.805336 1_555
Ge13 O49 1.754968 1_555
Ge13 O7 1.766036 1_555
Ge13 O104 1.796012 1_555
Ge13 O3 1.805336 1_555
Ge14 O31 1.754968 1_555
Ge14 O91 1.766042 1_555
Ge14 O6 1.796012 1_555
Ge14 O33 1.805336 1_555
Ge15 O76 1.767527 1_555
Ge15 O72 1.778614 1_655
Ge15 O85 1.810939 1_655
Ge15 O94 1.835141 1_555
Ge16 O53 1.884419 1_555
Ge16 O16 1.884419 1_555
Ge16 O4 1.884428 1_555
Ge16 O30 1.917532 1_555
Ge16 O69 1.917532 1_555
Ge16 O93 1.917532 1_555
Ge17 O45 1.767520 1_555
Ge17 O21 1.778615 1_555
Ge17 O97 1.810939 1_555
Ge17 O58 1.835142 1_555
Ge18 O13 1.767522 1_555
Ge18 O34 1.778615 1_565
Ge18 O63 1.810939 1_565
Ge18 O54 1.835142 1_555
Ge19 O83 1.750143 1_555
Ge19 O86 1.764142 1_555
Ge19 O6 1.804419 1_555
Ge19 O59 1.811182 1_555
Ge20 O15 1.910679 1_555
Ge20 O89 1.910680 1_555
Ge20 O96 1.910688 1_555
Ge20 O57 1.913583 1_555
Ge20 O28 1.913591 1_555
Ge20 O107 1.913592 1_555
Ge21 O5 1.754968 1_555
Ge21 O51 1.766036 1_555
Ge21 O40 1.796012 1_555
Ge21 O82 1.805336 1_555
Ge22 O17 1.750143 1_555
Ge22 O53 1.764142 1_555
Ge22 O40 1.804419 1_545
Ge22 O75 1.811182 1_555
Ge23 O90 1.750143 1_555
Ge23 O56 1.764142 1_555
Ge23 O104 1.804419 1_565
Ge23 O100 1.811182 1_555
Ge24 O64 1.934772 1_445
Ge24 O81 1.934772 1_445
Ge24 O87 1.934772 1_555
Ge24 O39 1.934772 1_555
Ge24 O72 1.934773 1_545
Ge24 O24 1.934773 1_455
Ge25 O20 1.750143 1_555
Ge25 O48 1.764142 1_555
Ge25 O73 1.804419 1_555
Ge25 O25 1.811182 1_555
Ge26 O28 1.750143 1_555
Ge26 O22 1.764142 1_555
Ge26 O60 1.804419 1_455
Ge26 O2 1.811182 1_555
Ge27 O56 1.884419 1_555
Ge27 O106 1.884419 1_555
Ge27 O86 1.884428 1_555
Ge27 O52 1.917532 1_555
Ge27 O43 1.917532 1_555
Ge27 O19 1.917532 1_555
Ge28 O47 1.767520 1_555
Ge28 O103 1.778615 1_555
Ge28 O38 1.810939 1_555
Ge28 O12 1.835142 1_555
Ge29 O78 1.767527 1_555
Ge29 O24 1.778614 1_565
Ge29 O3 1.810939 1_565
Ge29 O100 1.835141 1_555
Ge30 O71 1.754968 1_555
Ge30 O98 1.766034 1_555
Ge30 O70 1.796012 1_555
Ge30 O102 1.805336 1_555
Ge31 O61 1.910679 1_555
Ge31 O27 1.910680 1_555
Ge31 O65 1.910688 1_555
Ge31 O37 1.913583 1_555
Ge31 O101 1.913591 1_555
Ge31 O20 1.913592 1_555
Ge32 O27 1.754968 1_555
Ge32 O69 1.766034 1_555
Ge32 O11 1.796012 1_555
Ge32 O63 1.805336 1_555
Ge33 O14 1.941032 1_555
Ge33 O47 1.941032 1_444
Ge33 O78 1.941032 1_445
Ge33 O9 1.941032 1_554
Ge33 O42 1.941041 1_545
Ge33 O95 1.941041 1_454
Ge34 O0 1.941032 1_555
Ge34 O45 1.941032 1_445
Ge34 O76 1.941032 1_445
Ge34 O10 1.941032 1_555
Ge34 O66 1.941041 1_455
Ge34 O13 1.941041 1_545
Ge35 O62 1.750143 1_555
Ge35 O16 1.764142 1_555
Ge35 O70 1.804419 1_655
Ge35 O41 1.811182 1_555
Ge36 O44 1.884419 1_555
Ge36 O84 1.884419 1_555
Ge36 O48 1.884428 1_555
Ge36 O91 1.917532 1_555
Ge36 O50 1.917532 1_555
Ge36 O7 1.917532 1_555
Ge37 O26 1.754968 1_555
Ge37 O50 1.766034 1_555
Ge37 O1 1.796012 1_555
Ge37 O67 1.805336 1_555
Ge38 O22 1.884419 1_555
Ge38 O36 1.884419 1_555
Ge38 O46 1.884428 1_555
Ge38 O88 1.917532 1_555
Ge38 O98 1.917532 1_555
Ge38 O51 1.917532 1_555
Ge39 O49 1.910679 1_556
Ge39 O26 1.910680 1_556
Ge39 O31 1.910688 1_556
Ge39 O62 1.913583 1_555
Ge39 O17 1.913591 1_555
Ge39 O35 1.913592 1_555
Ge40 O89 1.754968 1_555
Ge40 O43 1.766034 1_555
Ge40 O80 1.796012 1_555
Ge40 O8 1.805336 1_555
Ge41 O68 1.934772 1_555
Ge41 O34 1.934772 1_555
Ge41 O103 1.934772 1_445
Ge41 O21 1.934772 1_445
Ge41 O74 1.934773 1_545
Ge41 O77 1.934773 1_455
Ge42 O79 1.754968 1_555
Ge42 O88 1.766042 1_555
Ge42 O32 1.796012 1_555
Ge42 O38 1.805336 1_555
Ge43 O66 1.767522 1_555
Ge43 O64 1.778615 1_545
Ge43 O8 1.810939 1_545
Ge43 O23 1.835142 1_555
Ge44 O107 1.750143 1_555
Ge44 O46 1.764142 1_555
Ge44 O55 1.804419 1_555
Ge44 O58 1.811182 1_555
Ge45 O101 1.750143 1_555
Ge45 O44 1.764142 1_555
Ge45 O105 1.804419 1_655
Ge45 O94 1.811182 1_555
Ge46 O95 1.767522 1_555
Ge46 O68 1.778615 1_655
Ge46 O102 1.810939 1_655
Ge46 O41 1.835142 1_555
Ge47 O37 1.750143 1_555
Ge47 O84 1.764142 1_555
Ge47 O80 1.804419 1_545
Ge47 O23 1.811182 1_555
