# generated using pymatgen
data_RbHO
_symmetry_space_group_name_H-M   'P 1'
_cell_length_a   4.22856732
_cell_length_b   4.12049824
_cell_length_c   5.74792450
_cell_angle_alpha   69.44840054
_cell_angle_beta   90.00000000
_cell_angle_gamma   90.00000000
_symmetry_Int_Tables_number   1
_chemical_formula_structural   RbHO
_chemical_formula_sum   'Rb2 H2 O2'
_cell_volume   93.77676108
_cell_formula_units_Z   2
loop_
 _symmetry_equiv_pos_site_id
 _symmetry_equiv_pos_as_xyz
  1  'x, y, z'
loop_
 _atom_site_type_symbol
 _atom_site_label
 _atom_site_symmetry_multiplicity
 _atom_site_fract_x
 _atom_site_fract_y
 _atom_site_fract_z
 _atom_site_occupancy
  Rb  Rb0  1  0.76013229  0.85830045  0.27577262  1
  Rb  Rb1  1  0.26013229  0.14169955  0.72422738  1
  H  H0  1  0.89907598  0.53418198  0.93530058  1
  H  H1  1  0.39907598  0.46581802  0.06469942  1
  O  O0  1  0.73882873  0.60985177  0.80478984  1
  O  O1  1  0.23882873  0.39014823  0.19521016  1
loop_
_geom_bond_atom_site_label_1
_geom_bond_atom_site_label_2
_geom_bond_distance
_geom_bond_site_symmetry_2
H0 O0 0.977194 1_555
H0 Rb0 2.791730 1_556
H0 Rb1 2.792111 1_655
H0 Rb1 2.817262 1_665
H0 Rb0 2.846845 1_546
H1 O1 0.977194 1_555
H1 Rb1 2.791730 1_554
H1 Rb0 2.792111 1_555
H1 Rb0 2.817262 1_545
H1 Rb1 2.846845 1_564
O0 Rb0 2.848987 1_555
O0 Rb1 2.898603 1_565
O0 Rb1 2.942805 1_555
O0 Rb1 3.027168 1_665
O0 Rb1 3.069519 1_655
O1 Rb1 2.848987 1_555
O1 Rb0 2.898603 1_445
O1 Rb0 2.942805 1_455
O1 Rb0 3.027168 1_545
O1 Rb0 3.069519 1_555
