# generated using pymatgen
data_Ba8Ce7YHO24
_symmetry_space_group_name_H-M   'P 1'
_cell_length_a   6.32794800
_cell_length_b   6.33463904
_cell_length_c   17.57433711
_cell_angle_alpha   90.04792077
_cell_angle_beta   90.12609143
_cell_angle_gamma   90.70976654
_symmetry_Int_Tables_number   1
_chemical_formula_structural   Ba8Ce7YHO24
_chemical_formula_sum   'Ba8 Ce7 Y1 H1 O24'
_cell_volume   704.41596493
_cell_formula_units_Z   1
loop_
 _symmetry_equiv_pos_site_id
 _symmetry_equiv_pos_as_xyz
  1  'x, y, z'
loop_
 _atom_site_type_symbol
 _atom_site_label
 _atom_site_symmetry_multiplicity
 _atom_site_fract_x
 _atom_site_fract_y
 _atom_site_fract_z
 _atom_site_occupancy
  Ba  Ba0  1  0.02156700  0.00844200  0.87438400  1
  Ba  Ba1  1  0.04086900  0.98837000  0.36408500  1
  Ba  Ba2  1  0.47687200  0.51452900  0.12605100  1
  Ba  Ba3  1  0.49886500  0.51137200  0.62423700  1
  Ba  Ba4  1  0.46967200  0.50972500  0.36470100  1
  Ba  Ba5  1  0.51984000  0.49032200  0.87447900  1
  Ba  Ba6  1  0.98845500  0.99142900  0.62634900  1
  Ba  Ba7  1  0.99040100  0.98250000  0.12596900  1
  Ce  Ce0  1  0.00016300  0.49639100  0.00017700  1
  Ce  Ce1  1  0.00149200  0.50077000  0.74833500  1
  Ce  Ce2  1  0.00649500  0.50916200  0.49715900  1
  Ce  Ce3  1  0.50471400  0.00072000  0.74851500  1
  Ce  Ce4  1  0.50688000  0.00409200  0.24827500  1
  Ce  Ce5  1  0.50465200  0.00090900  0.99899300  1
  Ce  Ce6  1  0.49587400  0.99749500  0.49899400  1
  Y  Y0  1  0.99411000  0.49310100  0.24831500  1
  H  H0  1  0.75267300  0.24276000  0.39232500  1
  O  O0  1  0.97168600  0.42358300  0.62076700  1
  O  O1  1  0.00641000  0.41710000  0.12214700  1
  O  O2  1  0.24237300  0.76070600  0.72255500  1
  O  O3  1  0.23973000  0.76587900  0.52830100  1
  O  O4  1  0.23563200  0.76643000  0.02253500  1
  O  O5  1  0.24548200  0.75923900  0.22876600  1
  O  O6  1  0.26604800  0.26257600  0.76297600  1
  O  O7  1  0.25967600  0.25086600  0.26424500  1
  O  O8  1  0.26973500  0.26422200  0.97578000  1
  O  O9  1  0.26680900  0.26684700  0.48630200  1
  O  O10  1  0.48139800  0.92160300  0.87190100  1
  O  O11  1  0.46506700  0.92859300  0.37739500  1
  O  O12  1  0.53664400  0.08502500  0.12287300  1
  O  O13  1  0.54447700  0.08275800  0.62109900  1
  O  O14  1  0.74079800  0.74381300  0.51645200  1
  O  O15  1  0.73321900  0.73241500  0.01942400  1
  O  O16  1  0.74169000  0.74126000  0.72728600  1
  O  O17  1  0.73929300  0.74350100  0.23261500  1
  O  O18  1  0.75963800  0.24352900  0.45031500  1
  O  O19  1  0.76885000  0.23204600  0.97112900  1
  O  O20  1  0.76641700  0.23763100  0.77303200  1
  O  O21  1  0.75398200  0.24298900  0.28974200  1
  O  O22  1  0.99006900  0.57756800  0.87201000  1
  O  O23  1  0.03848500  0.57243100  0.37690900  1
loop_
_geom_bond_atom_site_label_1
_geom_bond_atom_site_label_2
_geom_bond_distance
_geom_bond_site_symmetry_2
Ba0 O22 2.734512 1_445
Ba0 O19 2.741997 1_455
Ba0 O20 2.817279 1_455
Ba0 O8 2.861232 1_555
Ba0 O6 2.962325 1_555
Ba0 O10 2.968424 1_545
Ba1 H0 2.498888 1_465
Ba1 O23 2.644492 1_555
Ba1 O11 2.725097 1_555
Ba1 O21 2.769450 1_465
Ba1 O7 2.778364 1_565
Ba1 O18 2.855725 1_465
Ba1 O5 3.081087 1_555
Ba1 O9 3.112408 1_565
Ba1 O17 3.359699 1_455
Ba1 O3 3.454507 1_555
Ba2 O12 2.752092 1_555
Ba2 O5 2.805113 1_555
Ba2 O15 2.830219 1_555
Ba2 O4 2.870400 1_555
Ba2 O17 2.879377 1_555
Ba2 O1 3.033481 1_555
Ba2 O7 3.246787 1_555
Ba2 O8 3.336601 1_554
Ba2 O1 3.415589 1_655
Ba3 O13 2.734490 1_555
Ba3 O16 2.772988 1_555
Ba3 O14 2.839294 1_555
Ba3 O2 2.861087 1_555
Ba3 O3 2.861582 1_555
Ba3 O0 3.050727 1_555
Ba3 O9 3.217714 1_555
Ba3 O6 3.250248 1_555
Ba3 O0 3.375604 1_455
Ba4 H0 2.524914 1_555
Ba4 O11 2.663078 1_555
Ba4 O7 2.739042 1_555
Ba4 O23 2.770915 1_555
Ba4 O21 2.812331 1_555
Ba4 O9 2.924154 1_555
Ba4 O5 3.203897 1_555
Ba4 O17 3.233125 1_555
Ba5 O10 2.746220 1_555
Ba5 O8 2.772387 1_555
Ba5 O19 2.846317 1_555
Ba5 O20 2.871381 1_555
Ba5 O6 2.902507 1_555
Ba5 O22 3.020149 1_555
Ba5 O15 3.254358 1_556
Ba5 O16 3.340188 1_555
Ba5 O22 3.404551 1_455
Ba6 O0 2.742737 1_565
Ba6 O3 2.757368 1_655
Ba6 O2 2.761680 1_655
Ba6 O16 2.837607 1_555
Ba6 O13 2.876726 1_565
Ba6 O14 2.926987 1_555
Ba7 O1 2.754524 1_665
Ba7 O4 2.765273 1_655
Ba7 O5 2.813785 1_655
Ba7 O17 2.878894 1_555
Ba7 O15 2.929518 1_555
Ba7 O12 2.952115 1_565
Ce0 O1 2.202394 1_555
Ce0 O19 2.267541 1_454
Ce0 O4 2.287772 1_555
Ce0 O15 2.295100 1_455
Ce0 O8 2.306733 1_554
Ce0 O22 2.311744 1_454
Ce1 O22 2.228412 1_455
Ce1 O20 2.263253 1_455
Ce1 O2 2.276424 1_555
Ce1 O6 2.281850 1_555
Ce1 O16 2.284894 1_455
Ce1 O0 2.301062 1_455
Ce2 O23 2.160785 1_555
Ce2 O3 2.248970 1_555
Ce2 O0 2.250007 1_455
Ce2 O9 2.273663 1_555
Ce2 O14 2.283603 1_455
Ce2 O18 2.424096 1_455
Ce3 O10 2.230789 1_545
Ce3 O20 2.261541 1_555
Ce3 O16 2.269753 1_545
Ce3 O6 2.271571 1_555
Ce3 O2 2.282238 1_545
Ce3 O13 2.312751 1_555
Ce4 O17 2.241615 1_545
Ce4 O7 2.243042 1_555
Ce4 O12 2.270821 1_555
Ce4 O5 2.278698 1_545
Ce4 O21 2.280516 1_555
Ce4 O11 2.334379 1_545
Ce5 O12 2.249035 1_556
Ce5 O19 2.263353 1_555
Ce5 O15 2.274495 1_546
Ce5 O4 2.284047 1_546
Ce5 O8 2.284367 1_555
Ce5 O10 2.292958 1_545
Ce6 O11 2.188577 1_555
Ce6 O13 2.232107 1_565
Ce6 O3 2.234097 1_555
Ce6 O9 2.263317 1_565
Ce6 O14 2.266948 1_555
Ce6 O18 2.427103 1_565
H0 O18 1.019996 1_555
O1 Y0 2.270297 1_455
O5 Y0 2.329682 1_455
O7 Y0 2.306416 1_455
O17 Y0 2.292234 1_555
O21 Y0 2.301385 1_555
O23 Y0 2.330362 1_455
