# generated using pymatgen
data_Al3Bi5Br12
_symmetry_space_group_name_H-M   'P 1'
_cell_length_a   12.65976660
_cell_length_b   12.65976660
_cell_length_c   12.65976598
_cell_angle_alpha   58.82584704
_cell_angle_beta   58.82584704
_cell_angle_gamma   58.82584979
_symmetry_Int_Tables_number   1
_chemical_formula_structural   Al3Bi5Br12
_chemical_formula_sum   'Al6 Bi10 Br24'
_cell_volume   1396.23881261
_cell_formula_units_Z   2
loop_
 _symmetry_equiv_pos_site_id
 _symmetry_equiv_pos_as_xyz
  1  'x, y, z'
loop_
 _atom_site_type_symbol
 _atom_site_label
 _atom_site_symmetry_multiplicity
 _atom_site_fract_x
 _atom_site_fract_y
 _atom_site_fract_z
 _atom_site_occupancy
  Al  Al0  1  0.23520757  0.26479243  0.75000000  1
  Al  Al1  1  0.26479243  0.75000000  0.23520757  1
  Al  Al2  1  0.76479243  0.73520757  0.25000000  1
  Al  Al3  1  0.25000000  0.76479243  0.73520757  1
  Al  Al4  1  0.75000000  0.23520757  0.26479243  1
  Al  Al5  1  0.73520757  0.25000000  0.76479243  1
  Bi  Bi0  1  0.67282455  0.67282455  0.67282455  1
  Bi  Bi1  1  0.17282455  0.17282455  0.17282455  1
  Bi  Bi2  1  0.32717545  0.32717545  0.32717545  1
  Bi  Bi3  1  0.40068149  0.09931851  0.25000000  1
  Bi  Bi4  1  0.25000000  0.40068149  0.09931851  1
  Bi  Bi5  1  0.09931851  0.25000000  0.40068149  1
  Bi  Bi6  1  0.59931851  0.90068149  0.75000000  1
  Bi  Bi7  1  0.82717545  0.82717545  0.82717545  1
  Bi  Bi8  1  0.75000000  0.59931851  0.90068149  1
  Bi  Bi9  1  0.90068149  0.75000000  0.59931851  1
  Br  Br0  1  0.09273016  0.70034101  0.27715657  1
  Br  Br1  1  0.45209404  0.57069594  0.19594554  1
  Br  Br2  1  0.72284342  0.90726984  0.29965899  1
  Br  Br3  1  0.04790596  0.30405446  0.92930406  1
  Br  Br4  1  0.29965899  0.72284342  0.90726984  1
  Br  Br5  1  0.92930406  0.04790596  0.30405446  1
  Br  Br6  1  0.07069594  0.95209404  0.69594554  1
  Br  Br7  1  0.77715658  0.20034101  0.59273016  1
  Br  Br8  1  0.70034101  0.27715658  0.09273016  1
  Br  Br9  1  0.69594554  0.07069594  0.95209404  1
  Br  Br10  1  0.20034101  0.59273016  0.77715657  1
  Br  Br11  1  0.40726984  0.22284342  0.79965899  1
  Br  Br12  1  0.42930406  0.80405446  0.54790596  1
  Br  Br13  1  0.19594554  0.45209404  0.57069594  1
  Br  Br14  1  0.79965899  0.40726984  0.22284343  1
  Br  Br15  1  0.54790596  0.42930406  0.80405446  1
  Br  Br16  1  0.95209404  0.69594554  0.07069594  1
  Br  Br17  1  0.22284342  0.79965899  0.40726984  1
  Br  Br18  1  0.57069594  0.19594554  0.45209404  1
  Br  Br19  1  0.80405446  0.54790596  0.42930406  1
  Br  Br20  1  0.90726984  0.29965899  0.72284343  1
  Br  Br21  1  0.27715658  0.09273016  0.70034101  1
  Br  Br22  1  0.30405446  0.92930406  0.04790596  1
  Br  Br23  1  0.59273016  0.77715658  0.20034101  1
loop_
_geom_bond_atom_site_label_1
_geom_bond_atom_site_label_2
_geom_bond_distance
_geom_bond_site_symmetry_2
Al0 Br11 2.301430 1_555
Al0 Br21 2.301430 1_555
Al0 Br13 2.323314 1_555
Al0 Br3 2.323314 1_555
Al1 Br17 2.301430 1_555
Al1 Br0 2.301430 1_555
Al1 Br22 2.323314 1_555
Al1 Br1 2.323314 1_555
Al2 Br23 2.301430 1_555
Al2 Br2 2.301430 1_555
Al2 Br19 2.323314 1_555
Al2 Br16 2.323314 1_555
Al3 Br4 2.301430 1_555
Al3 Br10 2.301430 1_555
Al3 Br12 2.323314 1_555
Al3 Br6 2.323314 1_555
Al4 Br8 2.301430 1_555
Al4 Br14 2.301430 1_555
Al4 Br18 2.323314 1_555
Al4 Br5 2.323314 1_555
Al5 Br7 2.301430 1_555
Al5 Br20 2.301430 1_555
Al5 Br9 2.323314 1_555
Al5 Br15 2.323314 1_555
Bi0 Bi8 3.055978 1_555
Bi0 Bi9 3.055978 1_555
Bi0 Bi6 3.055979 1_555
Bi0 Br19 3.433705 1_555
Bi0 Br15 3.433705 1_555
Bi0 Br12 3.433705 1_555
Bi1 Bi5 3.055978 1_555
Bi1 Bi4 3.055978 1_555
Bi1 Bi3 3.055979 1_555
Bi1 Br3 3.433705 1_554
Bi1 Br5 3.433705 1_455
Bi1 Br22 3.433705 1_545
Bi2 Bi4 3.055978 1_555
Bi2 Bi5 3.055978 1_555
Bi2 Bi3 3.055979 1_555
Bi2 Br13 3.433705 1_555
Bi2 Br1 3.433705 1_555
Bi2 Br18 3.433705 1_555
Bi3 Bi5 3.245237 1_555
Bi3 Bi4 3.245237 1_555
Bi4 Bi5 3.245237 1_555
Bi6 Bi7 3.055979 1_555
Bi6 Bi9 3.245237 1_555
Bi6 Bi8 3.245237 1_555
Bi7 Bi9 3.055978 1_555
Bi7 Bi8 3.055978 1_555
Bi7 Br16 3.433705 1_556
Bi7 Br6 3.433705 1_655
Bi7 Br9 3.433705 1_565
Bi8 Bi9 3.245237 1_555
