# generated using pymatgen
data_SiO2
_symmetry_space_group_name_H-M   'P 1'
_cell_length_a   15.88483190
_cell_length_b   9.52246335
_cell_length_c   8.55610682
_cell_angle_alpha   90.00000000
_cell_angle_beta   90.00000000
_cell_angle_gamma   90.00000000
_symmetry_Int_Tables_number   1
_chemical_formula_structural   SiO2
_chemical_formula_sum   'Si24 O48'
_cell_volume   1294.22007225
_cell_formula_units_Z   24
loop_
 _symmetry_equiv_pos_site_id
 _symmetry_equiv_pos_as_xyz
  1  'x, y, z'
loop_
 _atom_site_type_symbol
 _atom_site_label
 _atom_site_symmetry_multiplicity
 _atom_site_fract_x
 _atom_site_fract_y
 _atom_site_fract_z
 _atom_site_occupancy
  Si  Si0  1  0.17264364  0.65891592  0.43716715  1
  Si  Si1  1  0.17264364  0.34108408  0.56283285  1
  Si  Si2  1  0.82735636  0.65891592  0.06283285  1
  Si  Si3  1  0.82735636  0.34108408  0.93716715  1
  Si  Si4  1  0.82735636  0.34108408  0.56283285  1
  Si  Si5  1  0.82735636  0.65891592  0.43716715  1
  Si  Si6  1  0.17264364  0.34108408  0.93716715  1
  Si  Si7  1  0.17264364  0.65891592  0.06283285  1
  Si  Si8  1  0.67264364  0.15891592  0.43716715  1
  Si  Si9  1  0.67264364  0.84108408  0.56283285  1
  Si  Si10  1  0.32735636  0.15891592  0.06283285  1
  Si  Si11  1  0.32735636  0.84108408  0.93716715  1
  Si  Si12  1  0.32735636  0.84108408  0.56283285  1
  Si  Si13  1  0.32735636  0.15891592  0.43716715  1
  Si  Si14  1  0.67264364  0.84108408  0.93716715  1
  Si  Si15  1  0.67264364  0.15891592  0.06283285  1
  Si  Si16  1  -0.00000000  0.34127532  0.43720624  1
  Si  Si17  1  -0.00000000  0.65872468  0.56279376  1
  Si  Si18  1  -0.00000000  0.34127532  0.06279376  1
  Si  Si19  1  -0.00000000  0.65872468  0.93720624  1
  Si  Si20  1  0.50000000  0.84127532  0.43720624  1
  Si  Si21  1  0.50000000  0.15872468  0.56279376  1
  Si  Si22  1  0.50000000  0.84127532  0.06279376  1
  Si  Si23  1  0.50000000  0.15872468  0.93720624  1
  O  O0  1  0.08557024  0.73010395  0.49864371  1
  O  O1  1  0.08557024  0.26989605  0.50135629  1
  O  O2  1  0.91442976  0.73010395  0.00135629  1
  O  O3  1  0.91442976  0.26989605  0.99864371  1
  O  O4  1  0.91442976  0.26989605  0.50135629  1
  O  O5  1  0.91442976  0.73010395  0.49864371  1
  O  O6  1  0.08557024  0.26989605  0.99864371  1
  O  O7  1  0.08557024  0.73010395  0.00135629  1
  O  O8  1  0.58557024  0.23010395  0.49864371  1
  O  O9  1  0.58557024  0.76989605  0.50135629  1
  O  O10  1  0.41442976  0.23010395  0.00135629  1
  O  O11  1  0.41442976  0.76989605  0.99864371  1
  O  O12  1  0.41442976  0.76989605  0.50135629  1
  O  O13  1  0.41442976  0.23010395  0.49864371  1
  O  O14  1  0.58557024  0.76989605  0.99864371  1
  O  O15  1  0.58557024  0.23010395  0.00135629  1
  O  O16  1  0.18173221  0.50000000  0.50000000  1
  O  O17  1  0.81826779  0.50000000  -0.00000000  1
  O  O18  1  0.81826779  0.50000000  0.50000000  1
  O  O19  1  0.18173221  0.50000000  -0.00000000  1
  O  O20  1  0.68173221  -0.00000000  0.50000000  1
  O  O21  1  0.31826779  -0.00000000  -0.00000000  1
  O  O22  1  0.31826779  -0.00000000  0.50000000  1
  O  O23  1  0.68173221  -0.00000000  -0.00000000  1
  O  O24  1  0.17258772  0.65746073  0.25000000  1
  O  O25  1  0.17258772  0.34253927  0.75000000  1
  O  O26  1  0.82741228  0.65746073  0.25000000  1
  O  O27  1  0.82741228  0.34253927  0.75000000  1
  O  O28  1  0.67258772  0.15746073  0.25000000  1
  O  O29  1  0.67258772  0.84253927  0.75000000  1
  O  O30  1  0.32741228  0.15746073  0.25000000  1
  O  O31  1  0.32741228  0.84253927  0.75000000  1
  O  O32  1  0.25000000  0.75000000  0.50000000  1
  O  O33  1  0.25000000  0.25000000  0.50000000  1
  O  O34  1  0.75000000  0.75000000  -0.00000000  1
  O  O35  1  0.75000000  0.25000000  -0.00000000  1
  O  O36  1  0.75000000  0.25000000  0.50000000  1
  O  O37  1  0.75000000  0.75000000  0.50000000  1
  O  O38  1  0.25000000  0.25000000  -0.00000000  1
  O  O39  1  0.25000000  0.75000000  -0.00000000  1
  O  O40  1  -0.00000000  0.33793601  0.25000000  1
  O  O41  1  -0.00000000  0.66206399  0.75000000  1
  O  O42  1  0.50000000  0.83793601  0.25000000  1
  O  O43  1  0.50000000  0.16206399  0.75000000  1
  O  O44  1  -0.00000000  0.50000000  0.50000000  1
  O  O45  1  -0.00000000  0.50000000  -0.00000000  1
  O  O46  1  0.50000000  -0.00000000  0.50000000  1
  O  O47  1  0.50000000  -0.00000000  -0.00000000  1
loop_
_geom_bond_atom_site_label_1
_geom_bond_atom_site_label_2
_geom_bond_distance
_geom_bond_site_symmetry_2
O0 Si17 1.615821 1_555
O0 Si0 1.627667 1_555
O1 Si16 1.615821 1_555
O1 Si1 1.627667 1_555
O2 Si19 1.615821 1_654
O2 Si2 1.627667 1_555
O3 Si18 1.615821 1_656
O3 Si3 1.627667 1_555
O4 Si16 1.615821 1_655
O4 Si4 1.627667 1_555
O5 Si17 1.615821 1_655
O5 Si5 1.627667 1_555
O6 Si18 1.615821 1_556
O6 Si6 1.627667 1_555
O7 Si19 1.615821 1_554
O7 Si7 1.627667 1_555
O8 Si21 1.615821 1_555
O8 Si8 1.627667 1_555
O9 Si20 1.615821 1_555
O9 Si9 1.627667 1_555
O10 Si23 1.615821 1_554
O10 Si10 1.627667 1_555
O11 Si22 1.615821 1_556
O11 Si11 1.627667 1_555
O12 Si20 1.615821 1_555
O12 Si12 1.627667 1_555
O13 Si21 1.615821 1_555
O13 Si13 1.627667 1_555
O14 Si22 1.615821 1_556
O14 Si14 1.627667 1_555
O15 Si23 1.615821 1_554
O15 Si15 1.627667 1_555
O16 Si0 1.612405 1_555
O16 Si1 1.612405 1_555
O17 Si3 1.612405 1_554
O17 Si2 1.612405 1_555
O18 Si5 1.612405 1_555
O18 Si4 1.612405 1_555
O19 Si6 1.612405 1_554
O19 Si7 1.612405 1_555
O20 Si9 1.612405 1_545
O20 Si8 1.612405 1_555
O21 Si11 1.612405 1_544
O21 Si10 1.612405 1_555
O22 Si12 1.612405 1_545
O22 Si13 1.612405 1_555
O23 Si14 1.612405 1_544
O23 Si15 1.612405 1_555
O24 Si7 1.601482 1_555
O24 Si0 1.601482 1_555
O25 Si1 1.601482 1_555
O25 Si6 1.601482 1_555
O26 Si2 1.601482 1_555
O26 Si5 1.601482 1_555
O27 Si4 1.601482 1_555
O27 Si3 1.601482 1_555
O28 Si8 1.601482 1_555
O28 Si15 1.601482 1_555
O29 Si9 1.601482 1_555
O29 Si14 1.601482 1_555
O30 Si10 1.601482 1_555
O30 Si13 1.601482 1_555
O31 Si12 1.601482 1_555
O31 Si11 1.601482 1_555
O32 Si0 1.597259 1_555
O32 Si12 1.597259 1_555
O33 Si13 1.597259 1_555
O33 Si1 1.597259 1_555
O34 Si14 1.597259 1_554
O34 Si2 1.597259 1_555
O35 Si3 1.597259 1_554
O35 Si15 1.597259 1_555
O36 Si8 1.597259 1_555
O36 Si4 1.597259 1_555
O37 Si9 1.597259 1_555
O37 Si5 1.597259 1_555
O38 Si6 1.597259 1_554
O38 Si10 1.597259 1_555
O39 Si7 1.597259 1_555
O39 Si11 1.597259 1_554
O40 Si18 1.602072 1_555
O40 Si16 1.602072 1_555
O41 Si17 1.602072 1_555
O41 Si19 1.602072 1_555
O42 Si22 1.602072 1_555
O42 Si20 1.602072 1_555
O43 Si23 1.602072 1_555
O43 Si21 1.602072 1_555
O44 Si16 1.604101 1_555
O44 Si17 1.604101 1_555
O45 Si18 1.604101 1_555
O45 Si19 1.604101 1_554
O46 Si20 1.604101 1_545
O46 Si21 1.604101 1_555
O47 Si22 1.604101 1_545
O47 Si23 1.604101 1_554
