# generated using pymatgen
data_Si4H2O9
_symmetry_space_group_name_H-M   'P 1'
_cell_length_a   7.64665300
_cell_length_b   7.64908110
_cell_length_c   15.46907716
_cell_angle_alpha   104.26305162
_cell_angle_beta   104.26541145
_cell_angle_gamma   89.95757355
_symmetry_Int_Tables_number   1
_chemical_formula_structural   Si4H2O9
_chemical_formula_sum   'Si16 H8 O36'
_cell_volume   848.12094016
_cell_formula_units_Z   4
loop_
 _symmetry_equiv_pos_site_id
 _symmetry_equiv_pos_as_xyz
  1  'x, y, z'
loop_
 _atom_site_type_symbol
 _atom_site_label
 _atom_site_symmetry_multiplicity
 _atom_site_fract_x
 _atom_site_fract_y
 _atom_site_fract_z
 _atom_site_occupancy
  Si  Si0  1  0.45436500  0.54500400  0.50004800  1
  Si  Si1  1  0.04601300  0.95540500  0.49997200  1
  Si  Si2  1  0.20409400  0.79431600  0.99935800  1
  Si  Si3  1  0.79529600  0.20517000  0.99975600  1
  Si  Si4  1  0.45541600  0.95413800  0.49991300  1
  Si  Si5  1  0.04399800  0.54571400  0.49948900  1
  Si  Si6  1  0.20561900  0.20428700  0.00044500  1
  Si  Si7  1  0.79503200  0.79603700  0.00026300  1
  Si  Si8  1  0.82340500  0.12138200  0.64720500  1
  Si  Si9  1  0.82378600  0.52738000  0.64825000  1
  Si  Si10  1  0.42545200  0.22405700  0.85186100  1
  Si  Si11  1  0.42783400  0.62990600  0.85220300  1
  Si  Si12  1  0.87873100  0.17571200  0.35208700  1
  Si  Si13  1  0.47342800  0.17647400  0.35224500  1
  Si  Si14  1  0.77642000  0.57340900  0.14766100  1
  Si  Si15  1  0.37122500  0.57414500  0.14762200  1
  H  H0  1  0.97979400  0.00152000  0.75877100  1
  H  H1  1  0.80087300  0.78494900  0.75312700  1
  H  H2  1  0.45278900  0.96914300  0.74817500  1
  H  H3  1  0.28450000  0.72493900  0.72646800  1
  H  H4  1  0.01894500  0.20934500  0.24486700  1
  H  H5  1  0.22613100  0.03565400  0.24497900  1
  H  H6  1  0.02389600  0.71402000  0.25468300  1
  H  H7  1  0.23070300  0.54073600  0.25472200  1
  O  O0  1  0.86015300  0.04336200  0.73941100  1
  O  O1  1  0.88243500  0.68925200  0.74263600  1
  O  O2  1  0.36802000  0.06223500  0.75725900  1
  O  O3  1  0.40523800  0.70977500  0.76096200  1
  O  O4  1  0.95182900  0.11704700  0.25868600  1
  O  O5  1  0.30715600  0.14162500  0.25885900  1
  O  O6  1  0.94264800  0.60837400  0.24119100  1
  O  O7  1  0.29836000  0.63304000  0.24119200  1
  O  O8  1  0.30168300  0.71990300  0.08788200  1
  O  O9  1  0.78673900  0.36788500  0.08834400  1
  O  O10  1  0.46261200  0.38198300  0.41165500  1
  O  O11  1  0.94840900  0.02968900  0.41154800  1
  O  O12  1  0.30260200  0.36819500  0.08846500  1
  O  O13  1  0.78560800  0.71978500  0.08818600  1
  O  O14  1  0.46491300  0.03041300  0.41202000  1
  O  O15  1  0.94771600  0.38156000  0.41164400  1
  O  O16  1  0.27983100  0.69673900  0.91113000  1
  O  O17  1  0.63124700  0.21494000  0.91192100  1
  O  O18  1  0.61836300  0.53534400  0.58777000  1
  O  O19  1  0.96999600  0.05387600  0.58766000  1
  O  O20  1  0.27978000  0.21350600  0.91192300  1
  O  O21  1  0.63218700  0.69832400  0.91228300  1
  O  O22  1  0.61802900  0.05135700  0.58844000  1
  O  O23  1  0.97071000  0.53737100  0.58848100  1
  O  O24  1  0.66043000  0.16068100  0.32081400  1
  O  O25  1  0.58953900  0.58962700  0.17920700  1
  O  O26  1  0.83993600  0.33921200  0.67889300  1
  O  O27  1  0.40850300  0.41192500  0.82072900  1
  O  O28  1  0.98765600  0.22405100  0.97407100  1
  O  O29  1  0.98640000  0.74977300  0.97390800  1
  O  O30  1  0.26369400  0.99986400  0.52591900  1
  O  O31  1  0.26241800  0.52708000  0.52659900  1
  O  O32  1  0.77565400  0.01368400  0.02614000  1
  O  O33  1  0.25055200  0.01206000  0.02613500  1
  O  O34  1  0.99929700  0.73778500  0.47372700  1
  O  O35  1  0.47452900  0.73640800  0.47377300  1
loop_
_geom_bond_atom_site_label_1
_geom_bond_atom_site_label_2
_geom_bond_distance
_geom_bond_site_symmetry_2
H0 O0 0.969974 1_555
H1 O1 0.970461 1_555
H2 O2 0.970490 1_565
H3 O3 0.968557 1_555
H4 O4 0.967720 1_455
H5 O5 0.967695 1_555
H6 O6 0.967623 1_455
H7 O7 0.967816 1_555
O0 Si8 1.640494 1_555
O1 Si9 1.628898 1_555
O2 Si10 1.630357 1_555
O3 Si11 1.643080 1_555
O4 Si12 1.636912 1_555
O5 Si13 1.637075 1_555
O6 Si14 1.638290 1_555
O7 Si15 1.638369 1_555
O8 Si2 1.623540 1_554
O8 Si15 1.626172 1_555
O9 Si3 1.623246 1_554
O9 Si14 1.626128 1_555
O10 Si0 1.621968 1_555
O10 Si13 1.627235 1_555
O11 Si1 1.621755 1_645
O11 Si12 1.625212 1_555
O12 Si6 1.624299 1_555
O12 Si15 1.627469 1_555
O13 Si7 1.623106 1_555
O13 Si14 1.626200 1_555
O14 Si4 1.622911 1_545
O14 Si13 1.626736 1_555
O15 Si5 1.622580 1_655
O15 Si12 1.628857 1_555
O16 Si2 1.625460 1_555
O16 Si11 1.628189 1_555
O17 Si3 1.623334 1_555
O17 Si10 1.629609 1_555
O18 Si0 1.621752 1_555
O18 Si9 1.627911 1_555
O19 Si1 1.621625 1_645
O19 Si8 1.626399 1_555
O20 Si6 1.622352 1_556
O20 Si10 1.630231 1_555
O21 Si11 1.620257 1_555
O21 Si7 1.620614 1_556
O22 Si4 1.623229 1_545
O22 Si8 1.623975 1_555
O23 Si5 1.623813 1_655
O23 Si9 1.633932 1_555
O24 Si12 1.615122 1_555
O24 Si13 1.615289 1_555
O25 Si14 1.615296 1_555
O25 Si15 1.615351 1_555
O26 Si8 1.612391 1_555
O26 Si9 1.618220 1_555
O27 Si11 1.613646 1_555
O27 Si10 1.619786 1_555
O28 Si3 1.630617 1_555
O28 Si6 1.631581 1_656
O29 Si2 1.629062 1_655
O29 Si7 1.629390 1_556
O30 Si1 1.628415 1_555
O30 Si4 1.629104 1_555
O31 Si0 1.633071 1_555
O31 Si5 1.633893 1_555
O32 Si7 1.629185 1_545
O32 Si3 1.630814 1_554
O33 Si6 1.630283 1_555
O33 Si2 1.631017 1_544
O34 Si5 1.629332 1_655
O34 Si1 1.630861 1_655
O35 Si4 1.629561 1_555
O35 Si0 1.630000 1_555
