# generated using pymatgen
data_H8W(S2N)2
_symmetry_space_group_name_H-M   'P 1'
_cell_length_a   7.08306106
_cell_length_b   9.60641225
_cell_length_c   12.48479754
_cell_angle_alpha   90.00000000
_cell_angle_beta   90.00000000
_cell_angle_gamma   90.00000000
_symmetry_Int_Tables_number   1
_chemical_formula_structural   H8W(S2N)2
_chemical_formula_sum   'H32 W4 S16 N8'
_cell_volume   849.50063866
_cell_formula_units_Z   4
loop_
 _symmetry_equiv_pos_site_id
 _symmetry_equiv_pos_as_xyz
  1  'x, y, z'
loop_
 _atom_site_type_symbol
 _atom_site_label
 _atom_site_symmetry_multiplicity
 _atom_site_fract_x
 _atom_site_fract_y
 _atom_site_fract_z
 _atom_site_occupancy
  H  H0  1  0.75000000  0.96289943  0.25441021  1
  H  H1  1  0.75000000  0.46289943  0.24558979  1
  H  H2  1  0.25000000  0.03710057  0.74558979  1
  H  H3  1  0.25000000  0.53710057  0.75441021  1
  H  H4  1  0.75000000  0.04550832  0.13601205  1
  H  H5  1  0.75000000  0.54550832  0.36398795  1
  H  H6  1  0.25000000  0.95449168  0.86398795  1
  H  H7  1  0.25000000  0.45449168  0.63601205  1
  H  H8  1  0.63210989  0.89244945  0.15250206  1
  H  H9  1  0.86789011  0.39244945  0.34749794  1
  H  H10  1  0.13210989  0.10755055  0.84749794  1
  H  H11  1  0.36789011  0.60755055  0.65250206  1
  H  H12  1  0.36789011  0.10755055  0.84749794  1
  H  H13  1  0.13210989  0.60755055  0.65250206  1
  H  H14  1  0.86789011  0.89244945  0.15250206  1
  H  H15  1  0.63210989  0.39244945  0.34749794  1
  H  H16  1  0.75000000  0.75622152  0.85318571  1
  H  H17  1  0.75000000  0.25622152  0.64681429  1
  H  H18  1  0.25000000  0.24377848  0.14681429  1
  H  H19  1  0.25000000  0.74377848  0.35318571  1
  H  H20  1  0.75000000  0.58169123  0.84147788  1
  H  H21  1  0.75000000  0.08169123  0.65852212  1
  H  H22  1  0.25000000  0.41830877  0.15852212  1
  H  H23  1  0.25000000  0.91830877  0.34147788  1
  H  H24  1  0.63174372  0.65842916  0.94197080  1
  H  H25  1  0.86825628  0.15842916  0.55802920  1
  H  H26  1  0.13174372  0.34157084  0.05802920  1
  H  H27  1  0.36825628  0.84157084  0.44197080  1
  H  H28  1  0.36825628  0.34157084  0.05802920  1
  H  H29  1  0.13174372  0.84157084  0.44197080  1
  H  H30  1  0.86825628  0.65842916  0.94197080  1
  H  H31  1  0.63174372  0.15842916  0.55802920  1
  W  W0  1  0.75000000  0.24719017  0.92934896  1
  W  W1  1  0.75000000  0.74719017  0.57065104  1
  W  W2  1  0.25000000  0.75280983  0.07065104  1
  W  W3  1  0.25000000  0.25280983  0.42934896  1
  S  S0  1  0.75000000  0.02603137  0.88562649  1
  S  S1  1  0.75000000  0.52603137  0.61437351  1
  S  S2  1  0.25000000  0.97396863  0.11437351  1
  S  S3  1  0.25000000  0.47396863  0.38562649  1
  S  S4  1  0.75000000  0.27139005  0.10433810  1
  S  S5  1  0.75000000  0.77139005  0.39566190  1
  S  S6  1  0.25000000  0.72860995  0.89566190  1
  S  S7  1  0.25000000  0.22860995  0.60433810  1
  S  S8  1  0.49912498  0.34950066  0.86359481  1
  S  S9  1  0.00087502  0.84950066  0.63640519  1
  S  S10  1  0.99912498  0.65049934  0.13640519  1
  S  S11  1  0.50087502  0.15049934  0.36359481  1
  S  S12  1  0.50087502  0.65049934  0.13640519  1
  S  S13  1  0.99912498  0.15049934  0.36359481  1
  S  S14  1  0.00087502  0.34950066  0.86359481  1
  S  S15  1  0.49912498  0.84950066  0.63640519  1
  N  N0  1  0.75000000  0.94881767  0.17311423  1
  N  N1  1  0.75000000  0.44881767  0.32688577  1
  N  N2  1  0.25000000  0.05118233  0.82688577  1
  N  N3  1  0.25000000  0.55118233  0.67311423  1
  N  N4  1  0.75000000  0.66376074  0.89413999  1
  N  N5  1  0.75000000  0.16376074  0.60586001  1
  N  N6  1  0.25000000  0.33623926  0.10586001  1
  N  N7  1  0.25000000  0.83623926  0.39413999  1
loop_
_geom_bond_atom_site_label_1
_geom_bond_atom_site_label_2
_geom_bond_distance
_geom_bond_site_symmetry_2
H0 N0 1.023939 1_555
H1 N1 1.023939 1_555
H2 N2 1.023939 1_555
H3 N3 1.023939 1_555
H4 N0 1.037945 1_545
H5 N1 1.037945 1_555
H6 N2 1.037945 1_565
H7 N3 1.037945 1_555
H8 N0 1.027961 1_555
H9 N1 1.027961 1_555
H10 N2 1.027961 1_555
H11 N3 1.027961 1_555
H12 N2 1.027961 1_555
H13 N3 1.027961 1_555
H14 N0 1.027961 1_555
H15 N1 1.027961 1_555
H16 N4 1.024872 1_555
H17 N5 1.024872 1_555
H18 N6 1.024872 1_555
H19 N7 1.024872 1_555
H20 N4 1.026567 1_555
H21 N5 1.026567 1_555
H22 N6 1.026567 1_555
H23 N7 1.026567 1_555
H24 N4 1.029962 1_555
H25 N5 1.029962 1_555
H26 N6 1.029962 1_555
H27 N7 1.029962 1_555
H28 N6 1.029962 1_555
H29 N7 1.029962 1_555
H30 N4 1.029962 1_555
H31 N5 1.029962 1_555
S0 W0 2.193548 1_555
S1 W1 2.193548 1_555
S2 W2 2.193548 1_555
S3 W3 2.193548 1_555
S4 W0 2.197038 1_554
S5 W1 2.197038 1_555
S6 W2 2.197038 1_556
S7 W3 2.197038 1_555
S8 W0 2.190317 1_555
S9 W1 2.190317 1_455
S10 W2 2.190317 1_655
S11 W3 2.190317 1_555
S12 W2 2.190317 1_555
S13 W3 2.190317 1_655
S14 W0 2.190317 1_455
S15 W1 2.190317 1_555
