# generated using pymatgen
data_LiAlSi2H2O7
_symmetry_space_group_name_H-M   'P 1'
_cell_length_a   5.06343300
_cell_length_b   7.64423689
_cell_length_c   8.51179942
_cell_angle_alpha   68.54677672
_cell_angle_beta   87.72804331
_cell_angle_gamma   87.07810363
_symmetry_Int_Tables_number   1
_chemical_formula_structural   LiAlSi2H2O7
_chemical_formula_sum   'Li2 Al2 Si4 H4 O14'
_cell_volume   306.15556378
_cell_formula_units_Z   2
loop_
 _symmetry_equiv_pos_site_id
 _symmetry_equiv_pos_as_xyz
  1  'x, y, z'
loop_
 _atom_site_type_symbol
 _atom_site_label
 _atom_site_symmetry_multiplicity
 _atom_site_fract_x
 _atom_site_fract_y
 _atom_site_fract_z
 _atom_site_occupancy
  Li  Li0  1  0.68407600  0.81464100  0.29471400  1
  Li  Li1  1  0.16405400  0.11735300  0.71338500  1
  Al  Al0  1  0.16174400  0.06214500  0.39566900  1
  Al  Al1  1  0.66706800  0.09317100  0.90535700  1
  Si  Si0  1  0.17664300  0.92254900  0.10342300  1
  Si  Si1  1  0.09752800  0.50320800  0.14904300  1
  Si  Si2  1  0.64184100  0.51116100  0.91272500  1
  Si  Si3  1  0.66299500  0.92572000  0.62749700  1
  H  H0  1  0.65295700  0.51636200  0.23528300  1
  H  H1  1  0.53091700  0.38804300  0.70934200  1
  H  H2  1  0.11915500  0.47899000  0.61127900  1
  H  H3  1  0.21805000  0.38704400  0.47656900  1
  O  O0  1  0.30990500  0.95320900  0.26255900  1
  O  O1  1  0.86320600  0.99488100  0.08272300  1
  O  O2  1  0.23418100  0.70304900  0.13480900  1
  O  O3  1  0.40982400  0.45019100  0.05056500  1
  O  O4  1  0.14446300  0.30958400  0.31974500  1
  O  O5  1  0.85554000  0.94229500  0.46420900  1
  O  O6  1  0.80809500  0.58317500  0.24139100  1
  O  O7  1  0.80086700  0.03410800  0.73704200  1
  O  O8  1  0.33240500  0.04580900  0.92841500  1
  O  O9  1  0.65688100  0.35268100  0.80618000  1
  O  O10  1  0.93480800  0.48313400  0.98894600  1
  O  O11  1  0.61901300  0.70499300  0.74827300  1
  O  O12  1  0.36648400  0.01343200  0.57160800  1
  O  O13  1  0.25069800  0.39137000  0.59245100  1
loop_
_geom_bond_atom_site_label_1
_geom_bond_atom_site_label_2
_geom_bond_distance
_geom_bond_site_symmetry_2
Li0 O1 2.038633 1_555
Li0 O6 2.045143 1_555
Li0 O0 2.100199 1_555
Li0 O5 2.236709 1_555
Li1 O12 1.912628 1_555
Li1 O8 1.928648 1_555
Li1 O7 1.955382 1_455
Li1 O13 2.029856 1_555
Al0 O4 1.759678 1_555
Al0 O0 1.760402 1_545
Al0 O12 1.769713 1_555
Al0 O5 1.807128 1_445
Al1 O8 1.739332 1_555
Al1 O1 1.744452 1_546
Al1 O7 1.755096 1_555
Al1 O9 1.848954 1_555
H0 O6 0.971686 1_555
H1 O9 1.010153 1_555
H2 O13 0.970828 1_555
H3 O13 1.019157 1_555
H3 O4 1.706273 1_555
O0 Si0 1.632730 1_555
O1 Si0 1.648331 1_655
O2 Si0 1.612474 1_555
O2 Si1 1.671179 1_555
O3 Si2 1.587602 1_554
O3 Si1 1.856182 1_555
O4 Si1 1.666363 1_555
O5 Si3 1.635437 1_555
O6 Si1 1.818823 1_655
O7 Si3 1.648921 1_545
O8 Si0 1.638522 1_546
O9 Si2 1.756317 1_555
O10 Si2 1.615418 1_555
O10 Si1 1.677573 1_656
O11 Si2 1.626780 1_555
O11 Si3 1.644602 1_555
O12 Si3 1.628079 1_545
