# generated using pymatgen
data_NaGeSbO5
_symmetry_space_group_name_H-M   'P 1'
_cell_length_a   5.57344316
_cell_length_b   5.57344319
_cell_length_c   7.23887406
_cell_angle_alpha   104.57318688
_cell_angle_beta   104.57317599
_cell_angle_gamma   105.80290260
_symmetry_Int_Tables_number   1
_chemical_formula_structural   NaGeSbO5
_chemical_formula_sum   'Na2 Ge2 Sb2 O10'
_cell_volume   196.64050233
_cell_formula_units_Z   2
loop_
 _symmetry_equiv_pos_site_id
 _symmetry_equiv_pos_as_xyz
  1  'x, y, z'
loop_
 _atom_site_type_symbol
 _atom_site_label
 _atom_site_symmetry_multiplicity
 _atom_site_fract_x
 _atom_site_fract_y
 _atom_site_fract_z
 _atom_site_occupancy
  Na  Na0  1  0.33311972  0.66688028  0.75000000  1
  Na  Na1  1  0.66688028  0.33311972  0.25000000  1
  Ge  Ge0  1  0.31407442  0.68592558  0.25000000  1
  Ge  Ge1  1  0.68592558  0.31407442  0.75000000  1
  Sb  Sb0  1  -0.00000000  -0.00000000  0.50000000  1
  Sb  Sb1  1  -0.00000000  -0.00000000  -0.00000000  1
  O  O0  1  0.07914065  0.92085935  0.75000000  1
  O  O1  1  0.92085935  0.07914065  0.25000000  1
  O  O2  1  0.09200161  0.68717101  0.38447261  1
  O  O3  1  0.31282899  0.90799839  0.11552639  1
  O  O4  1  0.90799839  0.31282899  0.61552639  1
  O  O5  1  0.68717101  0.09200161  0.88447361  1
  O  O6  1  0.37098164  0.24552879  0.57769591  1
  O  O7  1  0.75447121  0.62901836  0.92230409  1
  O  O8  1  0.62901836  0.75447121  0.42230409  1
  O  O9  1  0.24552879  0.37098164  0.07769591  1
loop_
_geom_bond_atom_site_label_1
_geom_bond_atom_site_label_2
_geom_bond_distance
_geom_bond_site_symmetry_2
Na0 O0 2.258064 1_555
Na0 O5 2.404491 1_565
Na0 O4 2.404491 1_455
Na0 O6 2.458349 1_555
Na0 O7 2.458349 1_555
Na0 O3 2.695180 1_556
Na0 O2 2.695187 1_555
Na1 O1 2.258064 1_555
Na1 O3 2.404491 1_545
Na1 O2 2.404491 1_655
Na1 O8 2.458349 1_555
Na1 O9 2.458349 1_555
Na1 O5 2.695180 1_554
Na1 O4 2.695181 1_555
Ge0 O9 1.753859 1_555
Ge0 O8 1.753859 1_555
Ge0 O2 1.757022 1_555
Ge0 O3 1.757028 1_555
Ge1 O7 1.753859 1_555
Ge1 O6 1.753859 1_555
Ge1 O4 1.757028 1_555
Ge1 O5 1.757028 1_555
O0 Sb1 1.941690 1_566
O0 Sb0 1.941690 1_565
O1 Sb1 1.941690 1_655
O1 Sb0 1.941690 1_655
O2 Sb0 1.992785 1_565
O3 Sb1 1.992783 1_565
O4 Sb0 1.992783 1_655
O5 Sb1 1.992783 1_656
O6 Sb0 1.987588 1_555
O7 Sb1 1.987588 1_666
O8 Sb0 1.987588 1_665
O9 Sb1 1.987588 1_555
