# generated using pymatgen
data_CoH9C6(S2O)3
_symmetry_space_group_name_H-M   'P 1'
_cell_length_a   13.63063600
_cell_length_b   9.66284300
_cell_length_c   12.81040932
_cell_angle_alpha   59.91471103
_cell_angle_beta   90.00000000
_cell_angle_gamma   90.00000000
_symmetry_Int_Tables_number   1
_chemical_formula_structural   CoH9C6(S2O)3
_chemical_formula_sum   'Co4 H36 C24 S24 O12'
_cell_volume   1459.95945512
_cell_formula_units_Z   4
loop_
 _symmetry_equiv_pos_site_id
 _symmetry_equiv_pos_as_xyz
  1  'x, y, z'
loop_
 _atom_site_type_symbol
 _atom_site_label
 _atom_site_symmetry_multiplicity
 _atom_site_fract_x
 _atom_site_fract_y
 _atom_site_fract_z
 _atom_site_occupancy
  Co  Co0  1  0.49029900  0.40916800  0.26588300  1
  Co  Co1  1  0.50970100  0.59083200  0.73411700  1
  Co  Co2  1  0.00970100  0.40916800  0.76588300  1
  Co  Co3  1  0.99029900  0.59083200  0.23411700  1
  H  H0  1  0.13037500  0.08665500  0.28014500  1
  H  H1  1  0.69469300  0.38372700  0.57715800  1
  H  H2  1  0.86962500  0.91334500  0.71985500  1
  H  H3  1  0.22828800  0.74318600  0.45407800  1
  H  H4  1  0.17489000  0.24620900  0.48679900  1
  H  H5  1  0.65718500  0.18222800  0.62303400  1
  H  H6  1  0.75003900  0.92556800  0.41773000  1
  H  H7  1  0.74996100  0.92556800  0.91773000  1
  H  H8  1  0.86507400  0.95235700  0.47270500  1
  H  H9  1  0.25003900  0.07443200  0.08227000  1
  H  H10  1  0.32511000  0.24620900  0.98679900  1
  H  H11  1  0.24996100  0.07443200  0.58227000  1
  H  H12  1  0.63037500  0.91334500  0.21985500  1
  H  H13  1  0.53858300  0.06065300  0.19627800  1
  H  H14  1  0.19469300  0.61627300  0.92284200  1
  H  H15  1  0.34281500  0.81777200  0.37696600  1
  H  H16  1  0.03858300  0.93934700  0.30372200  1
  H  H17  1  0.36507400  0.04764300  0.02729500  1
  H  H18  1  0.03818900  0.13005200  0.16675600  1
  H  H19  1  0.96181100  0.86994800  0.83324400  1
  H  H20  1  0.84281500  0.18222800  0.12303400  1
  H  H21  1  0.82511000  0.75379100  0.51320100  1
  H  H22  1  0.30530700  0.61627300  0.42284200  1
  H  H23  1  0.27171200  0.74318600  0.95407800  1
  H  H24  1  0.36962500  0.08665500  0.78014500  1
  H  H25  1  0.15718500  0.81777200  0.87696600  1
  H  H26  1  0.46181100  0.13005200  0.66675600  1
  H  H27  1  0.77171200  0.25681400  0.54592200  1
  H  H28  1  0.96141700  0.06065300  0.69627800  1
  H  H29  1  0.67489000  0.75379100  0.01320100  1
  H  H30  1  0.80530700  0.38372700  0.07715800  1
  H  H31  1  0.46141700  0.93934700  0.80372200  1
  H  H32  1  0.63492600  0.95235700  0.97270500  1
  H  H33  1  0.13492600  0.04764300  0.52729500  1
  H  H34  1  0.53818900  0.86994800  0.33324400  1
  H  H35  1  0.72828800  0.25681400  0.04592200  1
  C  C0  1  0.28050000  0.73921600  0.39046800  1
  C  C1  1  0.00787900  0.72245300  0.70792600  1
  C  C2  1  0.82373800  0.76995600  0.14270900  1
  C  C3  1  0.44588900  0.06699300  0.76382100  1
  C  C4  1  0.69815000  0.87321400  0.99324800  1
  C  C5  1  0.05411100  0.06699300  0.26382100  1
  C  C6  1  0.80185000  0.87321400  0.49324800  1
  C  C7  1  0.65557100  0.27167800  0.23641700  1
  C  C8  1  0.34442900  0.72832200  0.76358300  1
  C  C9  1  0.17626200  0.23004400  0.85729100  1
  C  C10  1  0.55411100  0.93300700  0.23617900  1
  C  C11  1  0.32373800  0.23004400  0.35729100  1
  C  C12  1  0.19815000  0.12678600  0.50675200  1
  C  C13  1  0.78050000  0.26078400  0.10953200  1
  C  C14  1  0.99212100  0.27754700  0.29207400  1
  C  C15  1  0.49212100  0.72245300  0.20792600  1
  C  C16  1  0.21950000  0.73921600  0.89046800  1
  C  C17  1  0.84442900  0.27167800  0.73641700  1
  C  C18  1  0.15557100  0.72832200  0.26358300  1
  C  C19  1  0.30185000  0.12678600  0.00675200  1
  C  C20  1  0.71950000  0.26078400  0.60953200  1
  C  C21  1  0.50787900  0.27754700  0.79207400  1
  C  C22  1  0.94588900  0.93300700  0.73617900  1
  C  C23  1  0.67626200  0.76995600  0.64270900  1
  S  S0  1  0.90081200  0.43293400  0.62297200  1
  S  S1  1  0.37951600  0.26199600  0.22911600  1
  S  S2  1  0.91620000  0.35227100  0.35596800  1
  S  S3  1  0.59918800  0.43293400  0.12297200  1
  S  S4  1  0.11881300  0.32596900  0.92002300  1
  S  S5  1  0.61881300  0.67403100  0.57997700  1
  S  S6  1  0.62048400  0.73800400  0.77088400  1
  S  S7  1  0.40081200  0.56706600  0.87702800  1
  S  S8  1  0.43220200  0.41844400  0.68884000  1
  S  S9  1  0.87951600  0.73800400  0.27088400  1
  S  S10  1  0.08380000  0.64772900  0.64403200  1
  S  S11  1  0.59738900  0.20424700  0.37013000  1
  S  S12  1  0.90261100  0.20424700  0.87013000  1
  S  S13  1  0.12048400  0.26199600  0.72911600  1
  S  S14  1  0.88118700  0.67403100  0.07997700  1
  S  S15  1  0.58380000  0.35227100  0.85596800  1
  S  S16  1  0.93220200  0.58155600  0.81116000  1
  S  S17  1  0.41620000  0.64772900  0.14403200  1
  S  S18  1  0.09918800  0.56706600  0.37702800  1
  S  S19  1  0.09738900  0.79575300  0.12987000  1
  S  S20  1  0.06779800  0.41844400  0.18884000  1
  S  S21  1  0.56779800  0.58155600  0.31116000  1
  S  S22  1  0.40261100  0.79575300  0.62987000  1
  S  S23  1  0.38118700  0.32596900  0.42002300  1
  O  O0  1  0.01134300  0.87680800  0.67540100  1
  O  O1  1  0.76521700  0.19748300  0.72766200  1
  O  O2  1  0.73478300  0.19748300  0.22766200  1
  O  O3  1  0.75582100  0.86119200  0.60037400  1
  O  O4  1  0.23478300  0.80251700  0.27233800  1
  O  O5  1  0.51134300  0.12319200  0.82459900  1
  O  O6  1  0.98865700  0.12319200  0.32459900  1
  O  O7  1  0.26521700  0.80251700  0.77233800  1
  O  O8  1  0.74417900  0.86119200  0.10037400  1
  O  O9  1  0.48865700  0.87680800  0.17540100  1
  O  O10  1  0.24417900  0.13880800  0.39962600  1
  O  O11  1  0.25582100  0.13880800  0.89962600  1
loop_
_geom_bond_atom_site_label_1
_geom_bond_atom_site_label_2
_geom_bond_distance
_geom_bond_site_symmetry_2
Co0 S17 2.272226 1_555
Co0 S23 2.272831 1_555
Co0 S11 2.276811 1_555
Co0 S3 2.277234 1_555
Co0 S21 2.279413 1_555
Co0 S1 2.279468 1_555
Co1 S15 2.272226 1_555
Co1 S5 2.272831 1_555
Co1 S22 2.276811 1_555
Co1 S7 2.277234 1_555
Co1 S8 2.279413 1_555
Co1 S6 2.279468 1_555
Co2 S10 2.272226 1_555
Co2 S4 2.272831 1_555
Co2 S12 2.276811 1_455
Co2 S0 2.277234 1_455
Co2 S16 2.279413 1_455
Co2 S13 2.279468 1_555
Co3 S2 2.272226 1_555
Co3 S14 2.272831 1_555
Co3 S19 2.276811 1_655
Co3 S18 2.277234 1_655
Co3 S20 2.279413 1_655
Co3 S9 2.279468 1_555
C0 H15 1.093594 1_555
C0 H3 1.096958 1_555
C0 H22 1.097120 1_555
C0 O4 1.457565 1_555
C1 O0 1.333184 1_555
C1 S10 1.689600 1_555
C1 S16 1.691574 1_455
C2 O8 1.329661 1_555
C2 S9 1.691503 1_555
C2 S14 1.692621 1_555
C3 H31 1.093306 1_545
C3 H24 1.095571 1_555
C3 H26 1.097685 1_555
C3 O5 1.456359 1_555
C4 H32 1.093156 1_555
C4 H7 1.095397 1_555
C4 H29 1.096253 1_556
C4 O8 1.459652 1_556
C5 H16 1.093306 1_545
C5 H0 1.095571 1_555
C5 H18 1.097685 1_555
C5 O6 1.456359 1_455
C6 H8 1.093156 1_555
C6 H6 1.095397 1_555
C6 H21 1.096253 1_555
C6 O3 1.459652 1_555
C7 O2 1.331526 1_555
C7 S3 1.691243 1_555
C7 S11 1.693697 1_555
C8 O7 1.331526 1_555
C8 S7 1.691243 1_555
C8 S22 1.693697 1_555
C9 O11 1.329661 1_555
C9 S13 1.691503 1_555
C9 S4 1.692621 1_555
C10 H13 1.093306 1_565
C10 H12 1.095571 1_555
C10 H34 1.097685 1_555
C10 O9 1.456359 1_555
C11 O10 1.329661 1_555
C11 S1 1.691503 1_555
C11 S23 1.692621 1_555
C12 H33 1.093156 1_555
C12 H11 1.095397 1_555
C12 H4 1.096253 1_555
C12 O10 1.459652 1_555
C13 H20 1.093594 1_555
C13 H35 1.096958 1_555
C13 H30 1.097120 1_555
C13 O2 1.457565 1_555
C14 O6 1.333184 1_555
C14 S2 1.689600 1_555
C14 S20 1.691574 1_655
C15 O9 1.333184 1_555
C15 S17 1.689600 1_555
C15 S21 1.691574 1_555
C16 H25 1.093594 1_555
C16 H23 1.096958 1_555
C16 H14 1.097120 1_555
C16 O7 1.457565 1_555
C17 O1 1.331526 1_555
C17 S0 1.691243 1_555
C17 S12 1.693697 1_555
C18 O4 1.331526 1_555
C18 S18 1.691243 1_555
C18 S19 1.693697 1_555
C19 H17 1.093156 1_555
C19 H9 1.095397 1_555
C19 H10 1.096253 1_554
C19 O11 1.459652 1_554
C20 H5 1.093594 1_555
C20 H27 1.096958 1_555
C20 H1 1.097120 1_555
C20 O1 1.457565 1_555
C21 O5 1.333184 1_555
C21 S15 1.689600 1_555
C21 S8 1.691574 1_555
C22 H28 1.093306 1_565
C22 H2 1.095571 1_555
C22 H19 1.097685 1_555
C22 O0 1.456359 1_655
C23 O3 1.329661 1_555
C23 S6 1.691503 1_555
C23 S5 1.692621 1_555
