# generated using pymatgen
data_V2O5
_symmetry_space_group_name_H-M   'P 1'
_cell_length_a   2.88430900
_cell_length_b   5.77299600
_cell_length_c   11.36025700
_cell_angle_alpha   90.00000000
_cell_angle_beta   90.00000000
_cell_angle_gamma   90.00000000
_symmetry_Int_Tables_number   1
_chemical_formula_structural   V2O5
_chemical_formula_sum   'V4 O10'
_cell_volume   189.16082441
_cell_formula_units_Z   2
loop_
 _symmetry_equiv_pos_site_id
 _symmetry_equiv_pos_as_xyz
  1  'x, y, z'
loop_
 _atom_site_type_symbol
 _atom_site_label
 _atom_site_symmetry_multiplicity
 _atom_site_fract_x
 _atom_site_fract_y
 _atom_site_fract_z
 _atom_site_occupancy
  V  V0  1  0.50000000  0.64707600  0.15700300  1
  V  V1  1  0.50000000  0.64707600  0.84299700  1
  V  V2  1  0.00000000  0.35292400  0.34299700  1
  V  V3  1  0.00000000  0.35292400  0.65700300  1
  O  O0  1  0.50000000  0.15894700  0.65998400  1
  O  O1  1  0.00000000  0.84105300  0.15998400  1
  O  O2  1  0.00000000  0.84105300  0.84001600  1
  O  O3  1  0.50000000  0.15894700  0.34001600  1
  O  O4  1  0.50000000  0.59719000  0.67539600  1
  O  O5  1  0.00000000  0.40281000  0.17539600  1
  O  O6  1  0.00000000  0.40281000  0.82460400  1
  O  O7  1  0.50000000  0.59719000  0.32460400  1
  O  O8  1  0.50000000  0.59371300  0.00000000  1
  O  O9  1  0.00000000  0.40628700  0.50000000  1
loop_
_geom_bond_atom_site_label_1
_geom_bond_atom_site_label_2
_geom_bond_distance
_geom_bond_site_symmetry_2
O0 V3 1.826191 1_655
O0 V3 1.826191 1_555
O1 V0 1.826191 1_555
O1 V0 1.826191 1_455
O2 V1 1.826191 1_555
O2 V1 1.826191 1_455
O3 V2 1.826191 1_655
O3 V2 1.826191 1_555
O4 V1 1.925648 1_555
O4 V3 2.027802 1_555
O4 V3 2.027802 1_655
O5 V2 1.925648 1_555
O5 V0 2.027802 1_555
O5 V0 2.027802 1_455
O6 V3 1.925648 1_555
O6 V1 2.027802 1_455
O6 V1 2.027802 1_555
O7 V0 1.925648 1_555
O7 V2 2.027802 1_655
O7 V2 2.027802 1_555
O8 V1 1.810004 1_554
O8 V0 1.810004 1_555
O9 V3 1.810004 1_555
O9 V2 1.810004 1_555
