# generated using pymatgen
data_V6H4O13
_symmetry_space_group_name_H-M   'P 1'
_cell_length_a   6.51003011
_cell_length_b   6.51003011
_cell_length_c   10.42548193
_cell_angle_alpha   79.71396454
_cell_angle_beta   100.28603546
_cell_angle_gamma   144.93112860
_symmetry_Int_Tables_number   1
_chemical_formula_structural   V6H4O13
_chemical_formula_sum   'V6 H4 O13'
_cell_volume   249.37130374
_cell_formula_units_Z   1
loop_
 _symmetry_equiv_pos_site_id
 _symmetry_equiv_pos_as_xyz
  1  'x, y, z'
loop_
 _atom_site_type_symbol
 _atom_site_label
 _atom_site_symmetry_multiplicity
 _atom_site_fract_x
 _atom_site_fract_y
 _atom_site_fract_z
 _atom_site_occupancy
  V  V0  1  0.64986000  0.35014000  0.99775000  1
  V  V1  1  0.35190900  0.64809100  0.00353600  1
  V  V2  1  0.59022200  0.40977800  0.60912400  1
  V  V3  1  0.40713400  0.59286600  0.36536300  1
  V  V4  1  0.28704300  0.71295700  0.63283800  1
  V  V5  1  0.71783500  0.28216500  0.38688800  1
  H  H0  1  0.81038600  0.18961400  0.87685800  1
  H  H1  1  0.92528300  0.07471700  0.49535700  1
  H  H2  1  0.51741300  0.48258700  0.80439900  1
  H  H3  1  0.58180900  0.41819100  0.19439900  1
  O  O0  1  0.81878800  0.18121200  0.97307600  1
  O  O1  1  0.19307700  0.80692300  0.00536400  1
  O  O2  1  0.12340600  0.87659400  0.61635300  1
  O  O3  1  0.89512100  0.10487900  0.40060500  1
  O  O4  1  0.75693200  0.24306800  0.59516900  1
  O  O5  1  0.25530300  0.74469700  0.41516600  1
  O  O6  1  0.49212500  0.50787500  0.00394200  1
  O  O7  1  0.59647100  0.40352900  0.80293500  1
  O  O8  1  0.38404600  0.61595400  0.19943800  1
  O  O9  1  0.32614500  0.67385500  0.79923100  1
  O  O10  1  0.66179200  0.33820800  0.19928100  1
  O  O11  1  0.43622100  0.56377900  0.58158000  1
  O  O12  1  0.56576600  0.43423400  0.42159200  1
loop_
_geom_bond_atom_site_label_1
_geom_bond_atom_site_label_2
_geom_bond_distance
_geom_bond_site_symmetry_2
H0 O0 0.988908 1_555
H1 O3 0.988687 1_555
H2 O7 0.984485 1_555
H3 O10 0.984736 1_555
O0 V1 2.016893 1_546
O0 V1 2.016893 1_656
O0 V0 2.160258 1_555
O1 V1 1.975572 1_555
O1 V0 2.031025 1_454
O1 V0 2.031025 1_564
O2 V2 2.002652 1_565
O2 V2 2.002652 1_455
O2 V4 2.006500 1_555
O3 V3 2.006139 1_545
O3 V3 2.006139 1_655
O3 V5 2.178776 1_555
O4 V4 2.021343 1_655
O4 V4 2.021343 1_545
O4 V2 2.101830 1_555
O4 V5 2.134470 1_555
O5 V5 2.024542 1_565
O5 V5 2.024542 1_455
O5 V3 2.046793 1_555
O5 V4 2.229405 1_555
O6 V1 1.740008 1_555
O6 V0 1.971404 1_554
O7 V2 2.007492 1_555
O7 V0 2.015010 1_555
O8 V3 1.699656 1_555
O8 V1 2.006311 1_555
O9 V4 1.711591 1_555
O9 V1 2.093789 1_556
O10 V5 1.949345 1_555
O10 V0 2.078417 1_554
O11 V2 1.879452 1_555
O11 V4 2.021478 1_555
O11 V3 2.215130 1_555
O12 V2 1.921542 1_555
O12 V3 1.946770 1_555
O12 V5 1.987736 1_555
