# generated using pymatgen
data_Ir3(CO)8
_symmetry_space_group_name_H-M   'P 1'
_cell_length_a   9.83526283
_cell_length_b   9.87164265
_cell_length_c   15.91069078
_cell_angle_alpha   97.87649577
_cell_angle_beta   100.43889361
_cell_angle_gamma   119.19315298
_symmetry_Int_Tables_number   1
_chemical_formula_structural   Ir3(CO)8
_chemical_formula_sum   'Ir12 C32 O32'
_cell_volume   1279.70659375
_cell_formula_units_Z   4
loop_
 _symmetry_equiv_pos_site_id
 _symmetry_equiv_pos_as_xyz
  1  'x, y, z'
loop_
 _atom_site_type_symbol
 _atom_site_label
 _atom_site_symmetry_multiplicity
 _atom_site_fract_x
 _atom_site_fract_y
 _atom_site_fract_z
 _atom_site_occupancy
  Ir  Ir0  1  0.58530700  0.83278900  0.74925600  1
  Ir  Ir1  1  0.48299000  0.46156900  0.21405200  1
  Ir  Ir2  1  0.74845900  0.26855200  0.28559900  1
  Ir  Ir3  1  0.58215100  0.27524000  0.12177300  1
  Ir  Ir4  1  0.41518000  0.16455200  0.24973800  1
  Ir  Ir5  1  0.65150600  0.45729500  0.37836800  1
  Ir  Ir6  1  0.34515200  0.54118300  0.62173400  1
  Ir  Ir7  1  0.25156800  0.73166800  0.71519300  1
  Ir  Ir8  1  0.42139700  0.72558400  0.87825000  1
  Ir  Ir9  1  0.81789800  0.56687000  0.25098500  1
  Ir  Ir10  1  0.51581700  0.53547600  0.78489500  1
  Ir  Ir11  1  0.18100100  0.43314800  0.74987700  1
  C  C0  1  0.49996200  0.33893900  0.73976400  1
  C  C1  1  0.71359000  0.61186800  0.87314100  1
  C  C2  1  0.63127700  0.36593300  0.47639300  1
  C  C3  1  0.00337600  0.39640100  0.79469000  1
  C  C4  1  0.46605000  0.92861600  0.82265300  1
  C  C5  1  0.09865600  0.75768000  0.76083700  1
  C  C6  1  0.36910700  0.63256900  0.52380700  1
  C  C7  1  0.60634300  0.64014800  0.67737300  1
  C  C8  1  0.76191700  0.15863600  0.37300200  1
  C  C9  1  0.89994300  0.50987000  0.37158300  1
  C  C10  1  0.20233100  0.03578100  0.17034600  1
  C  C11  1  0.49949200  0.65846300  0.25897300  1
  C  C12  1  0.39364100  0.35798800  0.32324700  1
  C  C13  1  0.23767100  0.84149600  0.62779200  1
  C  C14  1  0.90199800  0.24299500  0.24042800  1
  C  C15  1  0.89696100  0.78843300  0.29350600  1
  C  C16  1  0.36653500  0.03157300  0.32894100  1
  C  C17  1  0.72984900  0.66784100  0.44692500  1
  C  C18  1  0.63350600  0.96439400  0.66930400  1
  C  C19  1  0.09920800  0.48920300  0.62778700  1
  C  C20  1  0.72442900  0.28135700  0.05367800  1
  C  C21  1  0.28492400  0.38482300  0.12582200  1
  C  C22  1  0.79733300  0.96228600  0.82952700  1
  C  C23  1  0.53629500  0.07104400  0.17612000  1
  C  C24  1  0.27192600  0.33253800  0.55295900  1
  C  C25  1  0.99605800  0.60468500  0.20672000  1
  C  C26  1  0.61088000  0.84415400  0.97682000  1
  C  C27  1  0.09968800  0.21129600  0.70655300  1
  C  C28  1  0.39246300  0.15592000  0.02357700  1
  C  C29  1  0.35842300  0.47237600  0.87112500  1
  C  C30  1  0.28070100  0.71882300  0.94735500  1
  C  C31  1  0.63857400  0.52698500  0.12845800  1
  O  O0  1  0.70658900  0.64193200  0.64420000  1
  O  O1  1  0.94182400  0.92372600  0.31723600  1
  O  O2  1  0.05314400  0.07569300  0.68202100  1
  O  O3  1  0.97016400  0.42055300  0.57310900  1
  O  O4  1  0.81403300  0.29100400  0.01312700  1
  O  O5  1  0.61015100  0.30288300  0.53307500  1
  O  O6  1  0.29107900  0.35439800  0.35476200  1
  O  O7  1  0.22632500  0.90565900  0.57378100  1
  O  O8  1  0.50416600  0.06314400  0.85488000  1
  O  O9  1  0.92575700  0.04214500  0.87947100  1
  O  O10  1  0.10592400  0.62681500  0.18043400  1
  O  O11  1  0.49512200  0.22250900  0.70947100  1
  O  O12  1  0.39351800  0.69444000  0.46687700  1
  O  O13  1  0.16672800  0.34035300  0.07103900  1
  O  O14  1  0.78470100  0.79910600  0.48691900  1
  O  O15  1  0.66239000  0.04383200  0.62004300  1
  O  O16  1  0.89372100  0.37498800  0.82093700  1
  O  O17  1  0.77411400  0.09501800  0.42714300  1
  O  O18  1  0.22300600  0.20353200  0.51192500  1
  O  O19  1  0.50050200  0.93756700  0.14328000  1
  O  O20  1  0.33673800  0.95151100  0.37783600  1
  O  O21  1  0.34245700  0.39889200  0.92602100  1
  O  O22  1  0.72922500  0.92270200  0.03464600  1
  O  O23  1  0.27231800  0.07653100  0.96691700  1
  O  O24  1  0.65394300  0.60156600  0.07410500  1
  O  O25  1  0.02820200  0.57846000  0.42694100  1
  O  O26  1  0.83278000  0.65755700  0.92748200  1
  O  O27  1  0.19112100  0.70646200  0.98844800  1
  O  O28  1  0.99006300  0.22163500  0.20969400  1
  O  O29  1  0.07294800  0.95640000  0.12131000  1
  O  O30  1  0.50687500  0.77624200  0.28912500  1
  O  O31  1  0.00964200  0.77804100  0.79118800  1
loop_
_geom_bond_atom_site_label_1
_geom_bond_atom_site_label_2
_geom_bond_distance
_geom_bond_site_symmetry_2
C0 O11 1.158479 1_555
C0 Ir10 1.893819 1_555
C1 O26 1.155523 1_555
C1 Ir10 1.900749 1_555
C2 O5 1.157362 1_555
C2 Ir5 1.899583 1_555
C3 O16 1.160699 1_455
C3 Ir11 1.896311 1_555
C4 O8 1.193787 1_565
C4 Ir8 2.181848 1_555
C4 Ir0 2.215925 1_555
C4 Ir7 2.221321 1_555
C5 O31 1.156855 1_555
C5 Ir7 1.891175 1_555
C6 O12 1.156950 1_555
C6 Ir6 1.899449 1_555
C7 O0 1.193801 1_555
C7 Ir6 2.197258 1_555
C7 Ir0 2.200165 1_555
C7 Ir10 2.219469 1_555
C8 O17 1.155489 1_555
C8 Ir2 1.901500 1_555
C9 O25 1.194250 1_655
C9 Ir2 2.161513 1_555
C9 Ir9 2.197113 1_555
C9 Ir5 2.263908 1_555
C10 O29 1.158439 1_545
C10 Ir4 1.897277 1_555
C11 O30 1.157313 1_555
C11 Ir1 1.893278 1_555
C12 O6 1.193103 1_555
C12 Ir5 2.166868 1_555
C12 Ir4 2.220673 1_555
C12 Ir1 2.236027 1_555
C13 O7 1.155642 1_555
C13 Ir7 1.901797 1_555
C14 O28 1.156359 1_555
C14 Ir2 1.890983 1_555
C15 O1 1.160831 1_555
C15 Ir9 1.894957 1_555
C16 O20 1.157983 1_545
C16 Ir4 1.897203 1_555
C17 O14 1.158761 1_555
C17 Ir5 1.901373 1_555
C18 O15 1.158350 1_565
C18 Ir0 1.897747 1_555
C19 O3 1.194227 1_455
C19 Ir7 2.177649 1_555
C19 Ir11 2.211194 1_555
C19 Ir6 2.238506 1_555
C20 O4 1.158884 1_555
C20 Ir3 1.902771 1_555
C21 O13 1.154973 1_555
C21 Ir1 1.901919 1_555
C22 O9 1.158255 1_565
C22 Ir0 1.897591 1_555
C23 O19 1.193845 1_545
C23 Ir3 2.178657 1_555
C23 Ir4 2.219214 1_555
C23 Ir2 2.230038 1_555
C24 O18 1.157633 1_555
C24 Ir6 1.899469 1_555
C25 O10 1.161370 1_655
C25 Ir9 1.893916 1_555
C26 O22 1.156939 1_556
C26 Ir8 1.900673 1_555
C27 O2 1.161073 1_555
C27 Ir11 1.894450 1_555
C28 O23 1.157651 1_554
C28 Ir3 1.898597 1_555
C29 O21 1.194150 1_555
C29 Ir10 2.174828 1_555
C29 Ir11 2.198346 1_555
C29 Ir8 2.242992 1_555
C30 O27 1.159456 1_555
C30 Ir8 1.899892 1_555
C31 O24 1.194182 1_555
C31 Ir1 2.155332 1_555
C31 Ir9 2.220906 1_555
C31 Ir3 2.248559 1_555
