# generated using pymatgen
data_LiCaAlF6
_symmetry_space_group_name_H-M   'P 1'
_cell_length_a   5.08317862
_cell_length_b   5.08317862
_cell_length_c   9.74955500
_cell_angle_alpha   90.00000000
_cell_angle_beta   90.00000000
_cell_angle_gamma   120.00000812
_symmetry_Int_Tables_number   1
_chemical_formula_structural   LiCaAlF6
_chemical_formula_sum   'Li2 Ca2 Al2 F12'
_cell_volume   218.16552930
_cell_formula_units_Z   2
loop_
 _symmetry_equiv_pos_site_id
 _symmetry_equiv_pos_as_xyz
  1  'x, y, z'
loop_
 _atom_site_type_symbol
 _atom_site_label
 _atom_site_symmetry_multiplicity
 _atom_site_fract_x
 _atom_site_fract_y
 _atom_site_fract_z
 _atom_site_occupancy
  Li  Li0  1  0.33333300  0.66666700  0.25000000  1
  Li  Li1  1  0.66666700  0.33333300  0.75000000  1
  Ca  Ca0  1  0.00000000  0.00000000  0.00000000  1
  Ca  Ca1  1  0.00000000  0.00000000  0.50000000  1
  Al  Al0  1  0.66666700  0.33333300  0.25000000  1
  Al  Al1  1  0.33333300  0.66666700  0.75000000  1
  F  F0  1  0.37581800  0.03132400  0.14312900  1
  F  F1  1  0.62418200  0.65550600  0.64312900  1
  F  F2  1  0.34449400  0.96867600  0.64312900  1
  F  F3  1  0.03132400  0.37581800  0.64312900  1
  F  F4  1  0.96867600  0.62418200  0.35687100  1
  F  F5  1  0.96867600  0.34449400  0.14312900  1
  F  F6  1  0.65550600  0.62418200  0.14312900  1
  F  F7  1  0.65550600  0.03132400  0.35687100  1
  F  F8  1  0.03132400  0.65550600  0.85687100  1
  F  F9  1  0.37581800  0.34449400  0.35687100  1
  F  F10  1  0.62418200  0.96867600  0.85687100  1
  F  F11  1  0.34449400  0.37581800  0.85687100  1
loop_
_geom_bond_atom_site_label_1
_geom_bond_atom_site_label_2
_geom_bond_distance
_geom_bond_site_symmetry_2
Ca0 F11 2.306052 1_554
Ca0 F6 2.306052 1_445
Ca0 F10 2.306052 1_444
Ca0 F0 2.306052 1_555
Ca0 F8 2.306052 1_544
Ca0 F5 2.306052 1_455
Ca1 F1 2.306052 1_445
Ca1 F9 2.306052 1_555
Ca1 F3 2.306052 1_555
Ca1 F4 2.306052 1_445
Ca1 F2 2.306052 1_545
Ca1 F7 2.306052 1_455
Al0 F7 1.832623 1_555
Al0 F5 1.832623 1_555
Al0 F0 1.832625 1_555
Al0 F4 1.832625 1_555
Al0 F6 1.832627 1_555
Al0 F9 1.832627 1_555
Al1 F2 1.832623 1_555
Al1 F8 1.832623 1_555
Al1 F10 1.832625 1_555
Al1 F3 1.832625 1_555
Al1 F1 1.832627 1_555
Al1 F11 1.832627 1_555
F0 Li0 2.041538 1_545
F1 Li1 2.041542 1_555
F2 Li1 2.041539 1_565
F3 Li1 2.041538 1_455
F4 Li0 2.041538 1_655
F5 Li0 2.041539 1_655
F6 Li0 2.041542 1_555
F7 Li0 2.041539 1_545
F8 Li1 2.041539 1_455
F9 Li0 2.041542 1_555
F10 Li1 2.041538 1_565
F11 Li1 2.041542 1_555
