# generated using pymatgen
data_C13Cl3
_symmetry_space_group_name_H-M   'P 1'
_cell_length_a   13.06092985
_cell_length_b   13.06092985
_cell_length_c   18.77056600
_cell_angle_alpha   90.00000000
_cell_angle_beta   90.00000000
_cell_angle_gamma   119.99999922
_symmetry_Int_Tables_number   1
_chemical_formula_structural   C13Cl3
_chemical_formula_sum   'C156 Cl36'
_cell_volume   2773.04040118
_cell_formula_units_Z   12
loop_
 _symmetry_equiv_pos_site_id
 _symmetry_equiv_pos_as_xyz
  1  'x, y, z'
loop_
 _atom_site_type_symbol
 _atom_site_label
 _atom_site_symmetry_multiplicity
 _atom_site_fract_x
 _atom_site_fract_y
 _atom_site_fract_z
 _atom_site_occupancy
  C  C0  1  0.89796800  0.64262900  0.82572200  1
  C  C1  1  0.67217200  0.84744200  0.21268800  1
  C  C2  1  0.47643500  0.45171400  0.25000000  1
  C  C3  1  0.69992400  0.45514300  0.95944800  1
  C  C4  1  0.63792500  0.63044600  0.75000000  1
  C  C5  1  0.17527000  0.32782800  0.21268800  1
  C  C6  1  0.58032300  0.36931900  0.95940900  1
  C  C7  1  0.24478100  0.69992400  0.45944800  1
  C  C8  1  0.51781500  0.97613400  0.68343500  1
  C  C9  1  0.48677300  0.94799100  0.37608200  1
  C  C10  1  0.95209800  0.28630800  0.81663400  1
  C  C11  1  0.97527900  0.52356500  0.25000000  1
  C  C12  1  0.63044600  0.99252000  0.25000000  1
  C  C13  1  0.53878200  0.48677300  0.87608200  1
  C  C14  1  0.02386600  0.54168100  0.68343500  1
  C  C15  1  0.66579000  0.95209800  0.31663400  1
  C  C16  1  0.61365100  0.64210200  0.28729100  1
  C  C17  1  0.88681400  0.50081100  0.91843300  1
  C  C18  1  0.94799100  0.46121800  0.87608200  1
  C  C19  1  0.26397700  0.87212900  0.40241800  1
  C  C20  1  0.38600400  0.88681400  0.08156700  1
  C  C21  1  0.51322700  0.05200900  0.62391800  1
  C  C22  1  0.02472100  0.47643500  0.75000000  1
  C  C23  1  0.08648700  0.66188100  0.12384000  1
  C  C24  1  0.05200900  0.53878200  0.12391800  1
  C  C25  1  0.61365100  0.64210200  0.21270900  1
  C  C26  1  0.48677300  0.94799100  0.12391800  1
  C  C27  1  0.32782800  0.15255800  0.78731200  1
  C  C28  1  0.74466100  0.10203200  0.82572200  1
  C  C29  1  0.71369200  0.66579000  0.81663400  1
  C  C30  1  0.64210200  0.02845100  0.78729100  1
  C  C31  1  0.17527000  0.32782800  0.28731200  1
  C  C32  1  0.46121800  0.51322700  0.12391800  1
  C  C33  1  0.46121800  0.51322700  0.37608200  1
  C  C34  1  0.75521900  0.30007600  0.54055200  1
  C  C35  1  0.35737100  0.25533900  0.67427800  1
  C  C36  1  0.84744200  0.17527000  0.78731200  1
  C  C37  1  0.38634900  0.35789800  0.71270900  1
  C  C38  1  0.12787100  0.39184800  0.09758200  1
  C  C39  1  0.25533900  0.89796800  0.32572200  1
  C  C40  1  0.26397700  0.87212900  0.09758200  1
  C  C41  1  0.73602300  0.12787100  0.90241800  1
  C  C42  1  0.66188100  0.57539400  0.87616000  1
  C  C43  1  0.12787100  0.39184800  0.40241800  1
  C  C44  1  0.73602300  0.12787100  0.59758200  1
  C  C45  1  0.64262900  0.74466100  0.17427800  1
  C  C46  1  0.08648700  0.66188100  0.37616000  1
  C  C47  1  0.45514300  0.75521900  0.45944800  1
  C  C48  1  0.84744200  0.17527000  0.71268800  1
  C  C49  1  0.35737100  0.25533900  0.82572200  1
  C  C50  1  0.75521900  0.30007600  0.95944800  1
  C  C51  1  0.21100300  0.58032300  0.04059100  1
  C  C52  1  0.36931900  0.78899700  0.04059100  1
  C  C53  1  0.21100300  0.58032300  0.45940900  1
  C  C54  1  0.64210200  0.02845100  0.71270900  1
  C  C55  1  0.74466100  0.10203200  0.67427800  1
  C  C56  1  0.32782800  0.15255800  0.71268800  1
  C  C57  1  0.04790200  0.71369200  0.18336600  1
  C  C58  1  0.99252000  0.36207500  0.75000000  1
  C  C59  1  0.00748000  0.63792500  0.25000000  1
  C  C60  1  0.50081100  0.61399600  0.08156700  1
  C  C61  1  0.55904700  0.81845500  0.08137000  1
  C  C62  1  0.02845100  0.38634900  0.21270900  1
  C  C63  1  0.94799100  0.46121800  0.62391800  1
  C  C64  1  0.15255800  0.82473000  0.28731200  1
  C  C65  1  0.88681400  0.50081100  0.58156700  1
  C  C66  1  0.02386600  0.54168100  0.81656500  1
  C  C67  1  0.53878200  0.48677300  0.62391800  1
  C  C68  1  0.15255800  0.82473000  0.21268800  1
  C  C69  1  0.30007600  0.54485700  0.04055200  1
  C  C70  1  0.91351300  0.33811900  0.62384000  1
  C  C71  1  0.49918900  0.38600400  0.91843300  1
  C  C72  1  0.95209800  0.28630800  0.68336600  1
  C  C73  1  0.38634900  0.35789800  0.78729100  1
  C  C74  1  0.02845100  0.38634900  0.28729100  1
  C  C75  1  0.51781500  0.97613400  0.81656500  1
  C  C76  1  0.28630800  0.33421000  0.31663400  1
  C  C77  1  0.58032300  0.36931900  0.54059100  1
  C  C78  1  0.97154900  0.61365100  0.71270900  1
  C  C79  1  0.04790200  0.71369200  0.31663400  1
  C  C80  1  0.30007600  0.54485700  0.45944800  1
  C  C81  1  0.69992400  0.45514300  0.54055200  1
  C  C82  1  0.28630800  0.33421000  0.18336600  1
  C  C83  1  0.51322700  0.05200900  0.87608200  1
  C  C84  1  0.89796800  0.64262900  0.67427800  1
  C  C85  1  0.52356500  0.54828600  0.75000000  1
  C  C86  1  0.97613400  0.45831900  0.18343500  1
  C  C87  1  0.66188100  0.57539400  0.62384000  1
  C  C88  1  0.39184800  0.26397700  0.59758200  1
  C  C89  1  0.35789800  0.97154900  0.21270900  1
  C  C90  1  0.57539400  0.91351300  0.37616000  1
  C  C91  1  0.36955400  0.00748000  0.75000000  1
  C  C92  1  0.91351300  0.33811900  0.87616000  1
  C  C93  1  0.54168100  0.51781500  0.18343500  1
  C  C94  1  0.45831900  0.48218500  0.81656500  1
  C  C95  1  0.11318600  0.49918900  0.08156700  1
  C  C96  1  0.25533900  0.89796800  0.17427800  1
  C  C97  1  0.67217200  0.84744200  0.28731200  1
  C  C98  1  0.78899700  0.41967700  0.95940900  1
  C  C99  1  0.10203200  0.35737100  0.32572200  1
  C  C100  1  0.44095300  0.18154500  0.58137000  1
  C  C101  1  0.57539400  0.91351300  0.12384000  1
  C  C102  1  0.81845500  0.25940800  0.58137000  1
  C  C103  1  0.48218500  0.02386600  0.31656500  1
  C  C104  1  0.54485700  0.24478100  0.95944800  1
  C  C105  1  0.54828600  0.02472100  0.25000000  1
  C  C106  1  0.64262900  0.74466100  0.32572200  1
  C  C107  1  0.18154500  0.74059200  0.08137000  1
  C  C108  1  0.60815200  0.73602300  0.40241800  1
  C  C109  1  0.54168100  0.51781500  0.31656500  1
  C  C110  1  0.74059200  0.55904700  0.58137000  1
  C  C111  1  0.25940800  0.44095300  0.08137000  1
  C  C112  1  0.82473000  0.67217200  0.71268800  1
  C  C113  1  0.44095300  0.18154500  0.91863000  1
  C  C114  1  0.61399600  0.11318600  0.91843300  1
  C  C115  1  0.42460600  0.08648700  0.62384000  1
  C  C116  1  0.33421000  0.04790200  0.81663400  1
  C  C117  1  0.87212900  0.60815200  0.59758200  1
  C  C118  1  0.87212900  0.60815200  0.90241800  1
  C  C119  1  0.18154500  0.74059200  0.41863000  1
  C  C120  1  0.42460600  0.08648700  0.87616000  1
  C  C121  1  0.97613400  0.45831900  0.31656500  1
  C  C122  1  0.61399600  0.11318600  0.58156700  1
  C  C123  1  0.10203200  0.35737100  0.17427800  1
  C  C124  1  0.97154900  0.61365100  0.78729100  1
  C  C125  1  0.82473000  0.67217200  0.78731200  1
  C  C126  1  0.74059200  0.55904700  0.91863000  1
  C  C127  1  0.71369200  0.66579000  0.68336600  1
  C  C128  1  0.50081100  0.61399600  0.41843300  1
  C  C129  1  0.49918900  0.38600400  0.58156700  1
  C  C130  1  0.41967700  0.63068100  0.45940900  1
  C  C131  1  0.54485700  0.24478100  0.54055200  1
  C  C132  1  0.60815200  0.73602300  0.09758200  1
  C  C133  1  0.41967700  0.63068100  0.04059100  1
  C  C134  1  0.81845500  0.25940800  0.91863000  1
  C  C135  1  0.35789800  0.97154900  0.28729100  1
  C  C136  1  0.55904700  0.81845500  0.41863000  1
  C  C137  1  0.36207500  0.36955400  0.25000000  1
  C  C138  1  0.25940800  0.44095300  0.41863000  1
  C  C139  1  0.78899700  0.41967700  0.54059100  1
  C  C140  1  0.33421000  0.04790200  0.68336600  1
  C  C141  1  0.33811900  0.42460600  0.37616000  1
  C  C142  1  0.11318600  0.49918900  0.41843300  1
  C  C143  1  0.63068100  0.21100300  0.95940900  1
  C  C144  1  0.45831900  0.48218500  0.68343500  1
  C  C145  1  0.38600400  0.88681400  0.41843300  1
  C  C146  1  0.45171400  0.97527900  0.75000000  1
  C  C147  1  0.45514300  0.75521900  0.04055200  1
  C  C148  1  0.24478100  0.69992400  0.04055200  1
  C  C149  1  0.36931900  0.78899700  0.45940900  1
  C  C150  1  0.33811900  0.42460600  0.12384000  1
  C  C151  1  0.39184800  0.26397700  0.90241800  1
  C  C152  1  0.66579000  0.95209800  0.18336600  1
  C  C153  1  0.48218500  0.02386600  0.18343500  1
  C  C154  1  0.05200900  0.53878200  0.37608200  1
  C  C155  1  0.63068100  0.21100300  0.54059100  1
  Cl  Cl0  1  0.73393700  0.76739700  0.04034200  1
  Cl  Cl1  1  0.03346000  0.26606300  0.04034200  1
  Cl  Cl2  1  0.23260300  0.96654000  0.45965800  1
  Cl  Cl3  1  0.74497900  0.81092600  0.65070500  1
  Cl  Cl4  1  0.76739700  0.03346000  0.54034200  1
  Cl  Cl5  1  0.93405200  0.74497900  0.15070500  1
  Cl  Cl6  1  0.35953300  0.53342700  0.84953800  1
  Cl  Cl7  1  0.35953300  0.53342700  0.65046200  1
  Cl  Cl8  1  0.25502100  0.18907400  0.15070500  1
  Cl  Cl9  1  0.64046700  0.46657300  0.34953800  1
  Cl  Cl10  1  0.76739700  0.03346000  0.95965800  1
  Cl  Cl11  1  0.64046700  0.46657300  0.15046200  1
  Cl  Cl12  1  0.82610600  0.35953300  0.34953800  1
  Cl  Cl13  1  0.06594800  0.25502100  0.65070500  1
  Cl  Cl14  1  0.53342700  0.17389400  0.34953800  1
  Cl  Cl15  1  0.46657300  0.82610600  0.84953800  1
  Cl  Cl16  1  0.81092600  0.06594800  0.34929500  1
  Cl  Cl17  1  0.53342700  0.17389400  0.15046200  1
  Cl  Cl18  1  0.96654000  0.73393700  0.95965800  1
  Cl  Cl19  1  0.82610600  0.35953300  0.15046200  1
  Cl  Cl20  1  0.17389400  0.64046700  0.65046200  1
  Cl  Cl21  1  0.26606300  0.23260300  0.95965800  1
  Cl  Cl22  1  0.93405200  0.74497900  0.34929500  1
  Cl  Cl23  1  0.18907400  0.93405200  0.84929500  1
  Cl  Cl24  1  0.18907400  0.93405200  0.65070500  1
  Cl  Cl25  1  0.81092600  0.06594800  0.15070500  1
  Cl  Cl26  1  0.25502100  0.18907400  0.34929500  1
  Cl  Cl27  1  0.26606300  0.23260300  0.54034200  1
  Cl  Cl28  1  0.17389400  0.64046700  0.84953800  1
  Cl  Cl29  1  0.03346000  0.26606300  0.45965800  1
  Cl  Cl30  1  0.23260300  0.96654000  0.04034200  1
  Cl  Cl31  1  0.96654000  0.73393700  0.54034200  1
  Cl  Cl32  1  0.74497900  0.81092600  0.84929500  1
  Cl  Cl33  1  0.46657300  0.82610600  0.65046200  1
  Cl  Cl34  1  0.73393700  0.76739700  0.45965800  1
  Cl  Cl35  1  0.06594800  0.25502100  0.84929500  1
loop_
_geom_bond_atom_site_label_1
_geom_bond_atom_site_label_2
_geom_bond_distance
_geom_bond_site_symmetry_2
C0 C124 1.396763 1_555
C0 C125 1.397423 1_555
C0 C118 1.495735 1_555
C1 C45 1.397423 1_555
C1 C97 1.400735 1_555
C1 C152 1.514016 1_555
C2 C93 1.515585 1_555
C3 C6 1.394864 1_555
C3 C98 1.451521 1_555
C4 C85 1.334048 1_555
C5 C82 1.514016 1_555
C6 C71 1.411712 1_555
C8 Cl33 1.832815 1_555
C9 C90 1.436578 1_555
C10 C36 1.514016 1_555
C10 C58 1.516561 1_555
C10 C92 1.517024 1_555
C10 Cl35 1.833467 1_655
C11 C59 1.334045 1_655
C11 C121 1.515585 1_555
C11 C86 1.515585 1_555
C12 C152 1.516555 1_555
C12 C15 1.516555 1_555
C13 C71 1.396774 1_555
C13 C42 1.436578 1_555
C13 C94 1.514304 1_555
C14 C63 1.514304 1_455
C14 C78 1.514842 1_455
C14 C22 1.515585 1_555
C14 Cl20 1.832815 1_555
C15 C97 1.514016 1_555
C15 C90 1.517024 1_555
C15 Cl16 1.833459 1_565
C16 C25 1.399946 1_555
C17 C18 1.396784 1_555
C17 C98 1.411699 1_555
C18 C92 1.436578 1_555
C18 C66 1.514304 1_655
C19 C39 1.495735 1_555
C19 Cl2 1.829788 1_555
C20 C26 1.396775 1_555
C20 C52 1.411691 1_555
C20 C40 1.536756 1_555
C21 C8 1.514304 1_545
C22 C58 1.334045 1_455
C22 C66 1.515585 1_555
C23 C24 1.436578 1_555
C23 C57 1.517024 1_555
C24 C95 1.396784 1_555
C24 C86 1.514304 1_455
C25 C45 1.396763 1_555
C25 C93 1.514842 1_555
C27 C49 1.397423 1_555
C27 C56 1.400735 1_555
C28 C30 1.396763 1_555
C28 C36 1.397423 1_555
C28 C41 1.495735 1_555
C29 C4 1.516561 1_555
C29 C42 1.517024 1_555
C29 Cl32 1.833455 1_555
C30 C54 1.399946 1_555
C30 C75 1.514842 1_545
C31 C99 1.397423 1_555
C31 C5 1.400735 1_555
C31 C76 1.514016 1_555
C32 C60 1.396774 1_555
C32 C93 1.514304 1_555
C35 C37 1.396763 1_555
C35 C56 1.397423 1_555
C35 C88 1.495735 1_555
C36 C48 1.400735 1_555
C37 C73 1.399946 1_555
C38 C95 1.536744 1_555
C38 Cl1 1.829788 1_555
C39 C64 1.397423 1_555
C40 C96 1.495735 1_555
C40 Cl30 1.829788 1_555
C41 Cl10 1.829788 1_555
C43 C99 1.495735 1_555
C43 Cl29 1.829788 1_555
C44 C55 1.495735 1_555
C44 Cl4 1.829788 1_555
C46 C79 1.517024 1_555
C48 C55 1.397423 1_555
C48 C72 1.514016 1_555
C49 C73 1.396763 1_555
C50 C98 1.394860 1_555
C51 C95 1.411699 1_555
C51 C69 1.451521 1_555
C53 C7 1.394860 1_555
C53 C80 1.451521 1_555
C54 C55 1.396763 1_555
C54 C8 1.514842 1_545
C57 C68 1.514016 1_555
C57 C59 1.516561 1_555
C57 Cl5 1.833467 1_455
C58 C72 1.516561 1_555
C59 C79 1.516561 1_555
C62 C74 1.399946 1_555
C62 C86 1.514842 1_455
C63 C65 1.396784 1_555
C63 C70 1.436578 1_555
C64 C68 1.400735 1_555
C64 C79 1.514016 1_555
C66 Cl28 1.832815 1_555
C67 C87 1.436578 1_555
C68 C96 1.397423 1_555
C70 C72 1.517024 1_555
C72 Cl13 1.833467 1_655
C73 C94 1.514842 1_555
C74 C99 1.396763 1_555
C75 C83 1.514304 1_565
C75 Cl15 1.832815 1_555
C76 Cl26 1.833455 1_555
C77 C81 1.394864 1_555
C78 C84 1.396763 1_555
C79 Cl22 1.833467 1_455
C82 Cl8 1.833455 1_555
C85 C94 1.515585 1_555
C86 Cl19 1.832815 1_555
C88 Cl27 1.829788 1_555
C89 C96 1.396763 1_555
C93 Cl11 1.832815 1_555
C94 Cl6 1.832815 1_555
C100 C115 1.399088 1_555
C100 C131 1.410675 1_555
C100 C88 1.534146 1_555
C101 C61 1.399088 1_555
C101 C26 1.436578 1_555
C101 C152 1.517024 1_555
C102 C70 1.399088 1_555
C102 C34 1.410675 1_555
C102 C44 1.534146 1_555
C103 C9 1.514304 1_545
C103 C135 1.514842 1_545
C103 C105 1.515585 1_555
C103 Cl14 1.832815 1_555
C104 C143 1.394873 1_555
C104 C113 1.410675 1_555
C104 C6 1.451509 1_555
C105 C12 1.334058 1_545
C105 C153 1.515585 1_555
C106 C16 1.396763 1_555
C106 C97 1.397423 1_555
C106 C108 1.495735 1_555
C107 C23 1.399088 1_555
C107 C148 1.410675 1_555
C107 C40 1.534146 1_555
C108 C136 1.534146 1_555
C108 C128 1.536751 1_555
C108 Cl34 1.829788 1_555
C109 C33 1.514304 1_555
C109 C16 1.514842 1_555
C109 C2 1.515585 1_555
C109 Cl9 1.832815 1_555
C110 C87 1.399088 1_555
C110 C81 1.410675 1_555
C110 C117 1.534146 1_555
C111 C150 1.399088 1_555
C111 C69 1.410675 1_555
C111 C38 1.534146 1_555
C112 C84 1.397423 1_555
C112 C125 1.400735 1_555
C112 C127 1.514016 1_555
C113 C120 1.399088 1_555
C113 C151 1.534146 1_555
C114 C83 1.396775 1_555
C114 C143 1.411691 1_555
C114 C41 1.536756 1_555
C115 C21 1.436578 1_555
C115 C140 1.517024 1_555
C116 C27 1.514016 1_555
C116 C91 1.516555 1_555
C116 C120 1.517024 1_555
C116 Cl23 1.833459 1_545
C117 C84 1.495735 1_555
C117 C65 1.536744 1_555
C117 Cl31 1.829788 1_555
C118 C126 1.534146 1_555
C118 C17 1.536744 1_555
C118 Cl18 1.829788 1_555
C119 C46 1.399088 1_555
C119 C7 1.410675 1_555
C119 C19 1.534146 1_555
C120 C83 1.436578 1_555
C121 C154 1.514304 1_655
C121 C74 1.514842 1_655
C121 Cl12 1.832815 1_555
C122 C21 1.396775 1_555
C122 C155 1.411691 1_555
C122 C44 1.536756 1_555
C123 C62 1.396763 1_555
C123 C5 1.397423 1_555
C123 C38 1.495735 1_555
C124 C78 1.399946 1_555
C124 C66 1.514842 1_655
C125 C29 1.514016 1_555
C126 C42 1.399088 1_555
C126 C3 1.410675 1_555
C127 C4 1.516561 1_555
C127 C87 1.517024 1_555
C127 Cl3 1.833455 1_555
C128 C33 1.396774 1_555
C128 C130 1.411712 1_555
C129 C67 1.396774 1_555
C129 C77 1.411712 1_555
C129 C88 1.536751 1_555
C130 C80 1.394864 1_555
C130 C47 1.451509 1_555
C131 C155 1.394873 1_555
C131 C77 1.451509 1_555
C132 C45 1.495735 1_555
C132 C61 1.534146 1_555
C132 C60 1.536751 1_555
C132 Cl0 1.829788 1_555
C133 C69 1.394864 1_555
C133 C60 1.411712 1_555
C133 C147 1.451509 1_555
C134 C92 1.399088 1_555
C134 C50 1.410675 1_555
C134 C41 1.534146 1_555
C135 C39 1.396763 1_555
C135 C89 1.399946 1_555
C136 C90 1.399088 1_555
C136 C47 1.410675 1_555
C137 C2 1.334048 1_555
C137 C82 1.516561 1_555
C137 C76 1.516561 1_555
C138 C141 1.399088 1_555
C138 C80 1.410675 1_555
C138 C43 1.534146 1_555
C139 C34 1.394860 1_555
C139 C65 1.411699 1_555
C139 C81 1.451521 1_555
C140 C56 1.514016 1_555
C140 C91 1.516555 1_555
C140 Cl24 1.833459 1_545
C141 C33 1.436578 1_555
C141 C76 1.517024 1_555
C142 C154 1.396784 1_555
C142 C53 1.411699 1_555
C142 C43 1.536744 1_555
C143 C50 1.451512 1_555
C144 C67 1.514304 1_555
C144 C37 1.514842 1_555
C144 C85 1.515585 1_555
C144 Cl7 1.832815 1_555
C145 C9 1.396775 1_555
C145 C149 1.411691 1_555
C145 C19 1.536756 1_555
C146 C91 1.334058 1_565
C146 C8 1.515585 1_555
C146 C75 1.515585 1_555
C147 C52 1.394873 1_555
C147 C61 1.410675 1_555
C148 C51 1.394860 1_555
C148 C52 1.451512 1_555
C149 C47 1.394873 1_555
C149 C7 1.451512 1_555
C150 C32 1.436578 1_555
C150 C82 1.517024 1_555
C151 C49 1.495735 1_555
C151 C71 1.536751 1_555
C151 Cl21 1.829788 1_555
C152 Cl25 1.833459 1_565
C153 C26 1.514304 1_545
C153 C89 1.514842 1_545
C153 Cl17 1.832815 1_555
C154 C46 1.436578 1_555
C155 C34 1.451512 1_555
