# generated using pymatgen
data_InAgS2
_symmetry_space_group_name_H-M   'P 1'
_cell_length_a   3.86584389
_cell_length_b   3.86584389
_cell_length_c   6.73056690
_cell_angle_alpha   83.06139415
_cell_angle_beta   83.06139415
_cell_angle_gamma   57.38729152
_symmetry_Int_Tables_number   1
_chemical_formula_structural   InAgS2
_chemical_formula_sum   'In1 Ag1 S2'
_cell_volume   83.92010594
_cell_formula_units_Z   1
loop_
 _symmetry_equiv_pos_site_id
 _symmetry_equiv_pos_as_xyz
  1  'x, y, z'
loop_
 _atom_site_type_symbol
 _atom_site_label
 _atom_site_symmetry_multiplicity
 _atom_site_fract_x
 _atom_site_fract_y
 _atom_site_fract_z
 _atom_site_occupancy
  In  In0  1  0.00000000  0.00000000  0.00000000  1
  Ag  Ag0  1  0.00000000  0.00000000  0.50000000  1
  S  S0  1  0.64546200  0.64546200  0.22735300  1
  S  S1  1  0.35453800  0.35453800  0.77264700  1
loop_
_geom_bond_atom_site_label_1
_geom_bond_atom_site_label_2
_geom_bond_distance
_geom_bond_site_symmetry_2
In0 S1 2.666458 1_554
In0 S0 2.666458 1_445
In0 S0 2.678757 1_545
In0 S0 2.678757 1_455
In0 S1 2.678757 1_544
In0 S1 2.678757 1_454
Ag0 S0 2.699483 1_455
Ag0 S0 2.699483 1_545
Ag0 S1 2.699483 1_455
Ag0 S1 2.699483 1_545
