# generated using pymatgen
data_Co
_symmetry_space_group_name_H-M   'P 1'
_cell_length_a   7.86000971
_cell_length_b   7.86000971
_cell_length_c   9.68637200
_cell_angle_alpha   90.00000000
_cell_angle_beta   90.00000000
_cell_angle_gamma   119.99999757
_symmetry_Int_Tables_number   1
_chemical_formula_structural   Co
_chemical_formula_sum   Co46
_cell_volume   518.24837788
_cell_formula_units_Z   46
loop_
 _symmetry_equiv_pos_site_id
 _symmetry_equiv_pos_as_xyz
  1  'x, y, z'
loop_
 _atom_site_type_symbol
 _atom_site_label
 _atom_site_symmetry_multiplicity
 _atom_site_fract_x
 _atom_site_fract_y
 _atom_site_fract_z
 _atom_site_occupancy
  Co  Co0  1  0.00000000  0.00000000  0.35176300  1
  Co  Co1  1  0.32649300  0.16324600  0.47793000  1
  Co  Co2  1  0.18861700  0.37723500  0.22767200  1
  Co  Co3  1  0.00175300  0.50087700  0.09661700  1
  Co  Co4  1  0.81138300  0.18861700  0.72767200  1
  Co  Co5  1  0.49912300  0.50087700  0.09661700  1
  Co  Co6  1  0.67520500  0.83760200  0.72621000  1
  Co  Co7  1  0.00000000  0.00000000  0.85176300  1
  Co  Co8  1  0.49912300  0.99824700  0.09661700  1
  Co  Co9  1  0.48540700  0.51459300  0.84677900  1
  Co  Co10  1  0.83675400  0.67350700  0.47793000  1
  Co  Co11  1  0.00000000  0.00000000  0.10433200  1
  Co  Co12  1  0.17547600  0.35095200  0.47819800  1
  Co  Co13  1  0.83675400  0.16324600  0.47793000  1
  Co  Co14  1  0.35095200  0.17547600  0.97819800  1
  Co  Co15  1  0.82452400  0.64904800  0.97819800  1
  Co  Co16  1  0.33333300  0.66666700  0.38406100  1
  Co  Co17  1  0.82452400  0.17547600  0.97819800  1
  Co  Co18  1  0.67350700  0.83675400  0.97793000  1
  Co  Co19  1  0.02918700  0.51459300  0.84677900  1
  Co  Co20  1  0.51459300  0.02918700  0.34677900  1
  Co  Co21  1  0.50087700  0.49912300  0.59661700  1
  Co  Co22  1  0.64904800  0.82452400  0.47819800  1
  Co  Co23  1  0.62276500  0.81138300  0.22767200  1
  Co  Co24  1  0.51459300  0.48540700  0.34677900  1
  Co  Co25  1  0.16324600  0.83675400  0.97793000  1
  Co  Co26  1  0.50087700  0.00175300  0.59661700  1
  Co  Co27  1  0.83760200  0.67520500  0.22621000  1
  Co  Co28  1  0.33333300  0.66666700  0.67877600  1
  Co  Co29  1  0.16239800  0.32479500  0.72621000  1
  Co  Co30  1  0.97081300  0.48540700  0.34677900  1
  Co  Co31  1  0.66666700  0.33333300  0.17877600  1
  Co  Co32  1  0.48540700  0.97081300  0.84677900  1
  Co  Co33  1  0.17547600  0.82452400  0.47819800  1
  Co  Co34  1  0.83760200  0.16239800  0.22621000  1
  Co  Co35  1  0.16324600  0.32649300  0.97793000  1
  Co  Co36  1  0.66666700  0.33333300  0.88406100  1
  Co  Co37  1  0.66666700  0.33333300  0.48965400  1
  Co  Co38  1  0.81138300  0.62276500  0.72767200  1
  Co  Co39  1  0.16239800  0.83760200  0.72621000  1
  Co  Co40  1  0.37723500  0.18861700  0.72767200  1
  Co  Co41  1  0.00000000  0.00000000  0.60433200  1
  Co  Co42  1  0.32479500  0.16239800  0.22621000  1
  Co  Co43  1  0.33333300  0.66666700  0.98965400  1
  Co  Co44  1  0.18861700  0.81138300  0.22767200  1
  Co  Co45  1  0.99824700  0.49912300  0.59661700  1
loop_
_geom_bond_atom_site_label_1
_geom_bond_atom_site_label_2
_geom_bond_distance
_geom_bond_site_symmetry_2
Co0 Co11 2.396709 1_555
Co0 Co41 2.446477 1_555
Co0 Co27 2.523286 1_445
Co0 Co42 2.523286 1_555
Co0 Co34 2.523292 1_455
Co0 Co13 2.536273 1_455
Co0 Co10 2.536279 1_445
Co0 Co1 2.536279 1_555
Co0 Co33 2.684551 1_545
Co0 Co12 2.684551 1_555
Co0 Co22 2.684551 1_445
Co0 Co44 2.835222 1_545
Co0 Co2 2.835228 1_555
Co0 Co23 2.835228 1_445
Co1 Co33 2.310175 1_545
Co1 Co12 2.310182 1_555
Co1 Co37 2.318337 1_555
Co1 Co42 2.438281 1_555
Co1 Co40 2.443628 1_555
Co1 Co41 2.537377 1_555
Co1 Co20 2.543204 1_555
Co1 Co24 2.543216 1_555
Co1 Co26 2.559578 1_555
Co1 Co21 2.559578 1_555
Co2 Co42 2.409304 1_555
Co2 Co34 2.409304 1_455
Co2 Co35 2.443628 1_554
Co2 Co3 2.478014 1_555
Co2 Co5 2.478014 1_555
Co2 Co30 2.537764 1_455
Co2 Co24 2.537764 1_555
Co3 Co31 2.415767 1_455
Co3 Co30 2.432297 1_455
Co3 Co44 2.478014 1_555
Co3 Co43 2.483498 1_554
Co3 Co35 2.559578 1_554
Co3 Co34 2.624087 1_455
Co4 Co6 2.409304 1_545
Co4 Co45 2.478014 1_555
Co4 Co41 2.832145 1_655
Co4 Co7 2.835222 1_655
Co5 Co9 2.427217 1_554
Co6 Co9 2.499545 1_555
Co6 Co7 2.523286 1_665
Co10 Co33 2.310175 1_655
Co10 Co22 2.310182 1_555
Co10 Co37 2.318337 1_555
Co10 Co27 2.438281 1_555
Co10 Co38 2.443628 1_555
Co10 Co41 2.537377 1_665
Co10 Co30 2.543204 1_555
Co10 Co24 2.543216 1_555
Co10 Co45 2.559578 1_555
Co10 Co21 2.559578 1_555
Co11 Co7 2.446477 1_554
Co11 Co27 2.506323 1_445
Co11 Co42 2.506323 1_555
Co11 Co34 2.506329 1_455
Co11 Co25 2.537371 1_544
Co11 Co35 2.537377 1_554
Co11 Co18 2.537377 1_444
Co11 Co17 2.683222 1_454
Co11 Co14 2.683223 1_554
Co11 Co15 2.683223 1_444
Co11 Co44 2.832145 1_545
Co11 Co23 2.832152 1_445
Co11 Co2 2.832152 1_555
Co12 Co13 2.310176 1_455
Co12 Co16 2.334509 1_555
Co12 Co29 2.408926 1_555
Co12 Co2 2.433274 1_555
Co12 Co45 2.496985 1_455
Co12 Co21 2.496991 1_555
Co12 Co24 2.650492 1_555
Co12 Co30 2.650499 1_455
Co12 Co41 2.683223 1_555
Co12 Co28 2.897106 1_555
Co13 Co22 2.310176 1_545
Co13 Co37 2.318337 1_555
Co13 Co34 2.438281 1_555
Co13 Co4 2.443628 1_555
Co13 Co41 2.537371 1_655
Co13 Co30 2.543217 1_555
Co13 Co20 2.543217 1_555
Co13 Co26 2.559578 1_555
Co13 Co45 2.559578 1_555
Co14 Co25 2.310176 1_545
Co14 Co35 2.310182 1_555
Co14 Co36 2.334509 1_555
Co14 Co42 2.408926 1_556
Co14 Co40 2.433274 1_555
Co14 Co8 2.496985 1_546
Co14 Co5 2.496991 1_556
Co14 Co9 2.650492 1_555
Co14 Co32 2.650499 1_545
Co14 Co7 2.684551 1_555
Co14 Co31 2.897106 1_556
Co15 Co25 2.310176 1_655
Co15 Co18 2.310182 1_555
Co15 Co36 2.334509 1_555
Co15 Co27 2.408926 1_556
Co15 Co38 2.433274 1_555
Co15 Co3 2.496985 1_656
Co15 Co5 2.496991 1_556
Co15 Co9 2.650492 1_555
Co15 Co19 2.650499 1_655
Co15 Co7 2.684551 1_665
Co15 Co31 2.897106 1_556
Co16 Co33 2.334502 1_555
Co16 Co22 2.334509 1_555
Co16 Co44 2.485207 1_555
Co16 Co2 2.485207 1_555
Co16 Co23 2.485207 1_555
Co16 Co24 2.493946 1_555
Co16 Co30 2.493947 1_455
Co16 Co20 2.493947 1_565
Co16 Co28 2.854719 1_555
Co17 Co35 2.310175 1_655
Co17 Co18 2.310175 1_545
Co17 Co36 2.334502 1_555
Co17 Co34 2.408925 1_556
Co17 Co4 2.433274 1_555
Co17 Co8 2.496991 1_546
Co17 Co3 2.496991 1_656
Co17 Co19 2.650493 1_655
Co17 Co32 2.650493 1_545
Co17 Co7 2.684551 1_655
Co17 Co31 2.897101 1_556
Co18 Co43 2.318337 1_555
Co18 Co6 2.438281 1_555
Co18 Co23 2.443628 1_556
Co18 Co7 2.536279 1_665
Co18 Co32 2.543204 1_555
Co18 Co9 2.543216 1_555
Co18 Co8 2.559578 1_556
Co18 Co5 2.559578 1_556
Co19 Co3 2.427218 1_556
Co19 Co45 2.432297 1_455
Co19 Co43 2.490278 1_555
Co19 Co36 2.493947 1_455
Co19 Co29 2.499545 1_555
Co19 Co39 2.499545 1_555
Co19 Co38 2.537764 1_455
Co19 Co4 2.537764 1_455
Co19 Co35 2.543204 1_555
Co19 Co25 2.543217 1_555
Co19 Co28 2.633330 1_555
Co20 Co26 2.427218 1_555
Co20 Co8 2.432297 1_545
Co20 Co37 2.490278 1_555
Co20 Co42 2.499545 1_555
Co20 Co34 2.499545 1_555
Co20 Co23 2.537764 1_545
Co20 Co44 2.537764 1_545
Co20 Co31 2.633330 1_555
Co20 Co33 2.650493 1_545
Co20 Co22 2.650499 1_545
Co21 Co28 2.415779 1_555
Co21 Co24 2.427217 1_555
Co21 Co9 2.432297 1_555
Co21 Co38 2.478014 1_555
Co21 Co40 2.478014 1_555
Co21 Co37 2.483498 1_555
Co21 Co22 2.496991 1_555
Co21 Co6 2.624087 1_555
Co21 Co29 2.624087 1_555
Co22 Co6 2.408926 1_555
Co22 Co23 2.433274 1_555
Co22 Co26 2.496985 1_565
Co22 Co24 2.650492 1_555
Co22 Co41 2.683223 1_665
Co22 Co28 2.897106 1_555
Co23 Co27 2.409304 1_555
Co23 Co34 2.409304 1_565
Co23 Co8 2.478014 1_555
Co23 Co5 2.478014 1_555
Co23 Co24 2.537764 1_555
Co24 Co5 2.432297 1_555
Co24 Co37 2.490289 1_555
Co24 Co42 2.499545 1_555
Co24 Co27 2.499545 1_555
Co24 Co31 2.633341 1_555
Co25 Co43 2.318337 1_555
Co25 Co39 2.438281 1_555
Co25 Co44 2.443628 1_556
Co25 Co7 2.536273 1_565
Co25 Co32 2.543217 1_555
Co25 Co8 2.559578 1_556
Co25 Co3 2.559578 1_556
Co26 Co28 2.415767 1_545
Co26 Co32 2.432297 1_545
Co26 Co40 2.478014 1_555
Co26 Co4 2.478014 1_555
Co26 Co37 2.483498 1_555
Co26 Co33 2.496991 1_545
Co26 Co6 2.624087 1_545
Co26 Co39 2.624087 1_545
Co27 Co31 2.372036 1_555
Co27 Co44 2.409304 1_655
Co27 Co30 2.499545 1_555
Co27 Co3 2.624087 1_655
Co27 Co5 2.624087 1_555
Co28 Co39 2.372023 1_555
Co28 Co29 2.372036 1_555
Co28 Co6 2.372036 1_555
Co28 Co45 2.415767 1_455
Co28 Co32 2.633330 1_555
Co28 Co9 2.633341 1_555
Co28 Co33 2.897101 1_555
Co28 Co43 3.011280 1_555
Co29 Co40 2.409304 1_555
Co29 Co4 2.409304 1_455
Co29 Co35 2.438281 1_555
Co29 Co9 2.499545 1_555
Co29 Co41 2.506323 1_555
Co29 Co7 2.523286 1_555
Co29 Co45 2.624087 1_455
Co30 Co45 2.427218 1_555
Co30 Co37 2.490278 1_555
Co30 Co34 2.499545 1_555
Co30 Co44 2.537764 1_655
Co30 Co31 2.633330 1_555
Co30 Co33 2.650493 1_655
Co31 Co34 2.372023 1_555
Co31 Co42 2.372036 1_555
Co31 Co8 2.415767 1_545
Co31 Co5 2.415779 1_555
Co31 Co36 2.854719 1_554
Co31 Co37 3.011280 1_555
Co32 Co8 2.427218 1_556
Co32 Co43 2.490278 1_555
Co32 Co36 2.493947 1_565
Co32 Co6 2.499545 1_555
Co32 Co39 2.499545 1_555
Co32 Co40 2.537764 1_565
Co32 Co4 2.537764 1_565
Co33 Co39 2.408925 1_555
Co33 Co44 2.433274 1_555
Co33 Co45 2.496991 1_455
Co33 Co41 2.683222 1_565
Co34 Co8 2.624087 1_545
Co35 Co43 2.318337 1_555
Co35 Co7 2.536279 1_555
Co35 Co9 2.543216 1_555
Co35 Co5 2.559578 1_556
Co36 Co4 2.485207 1_555
Co36 Co40 2.485207 1_555
Co36 Co38 2.485207 1_555
Co36 Co9 2.493946 1_555
Co37 Co45 2.483498 1_555
Co38 Co6 2.409304 1_555
Co38 Co39 2.409304 1_655
Co38 Co45 2.478014 1_555
Co38 Co9 2.537764 1_555
Co38 Co41 2.832152 1_665
Co38 Co7 2.835228 1_665
Co39 Co40 2.409304 1_565
Co39 Co41 2.506329 1_565
Co39 Co7 2.523292 1_565
Co39 Co45 2.624087 1_455
Co40 Co9 2.537764 1_555
Co40 Co41 2.832152 1_555
Co40 Co7 2.835228 1_555
Co41 Co7 2.396709 1_555
Co41 Co6 2.506323 1_445
Co42 Co44 2.409304 1_545
Co42 Co8 2.624087 1_545
Co42 Co5 2.624087 1_555
Co43 Co5 2.483498 1_556
Co43 Co8 2.483498 1_556
Co43 Co9 2.490289 1_555
Co44 Co8 2.478014 1_555
