# generated using pymatgen
data_Ba3Gd2(PS4)4
_symmetry_space_group_name_H-M   'P 1'
_cell_length_a   10.42432303
_cell_length_b   12.82180576
_cell_length_c   19.38684528
_cell_angle_alpha   89.97931922
_cell_angle_beta   90.06328201
_cell_angle_gamma   89.96652332
_symmetry_Int_Tables_number   1
_chemical_formula_structural   Ba3Gd2(PS4)4
_chemical_formula_sum   'Ba12 Gd8 P16 S64'
_cell_volume   2591.21727955
_cell_formula_units_Z   4
loop_
 _symmetry_equiv_pos_site_id
 _symmetry_equiv_pos_as_xyz
  1  'x, y, z'
loop_
 _atom_site_type_symbol
 _atom_site_label
 _atom_site_symmetry_multiplicity
 _atom_site_fract_x
 _atom_site_fract_y
 _atom_site_fract_z
 _atom_site_occupancy
  Ba  Ba0  1  0.21088200  0.61039600  0.22788600  1
  Ba  Ba1  1  0.71087900  0.61041000  0.27212900  1
  Ba  Ba2  1  0.28900800  0.11040300  0.27210300  1
  Ba  Ba3  1  0.71094600  0.88957600  0.72790100  1
  Ba  Ba4  1  0.88096300  0.74995900  0.99997000  1
  Ba  Ba5  1  0.61908300  0.24998600  0.50001700  1
  Ba  Ba6  1  0.38091000  0.75003200  0.49997700  1
  Ba  Ba7  1  0.11910600  0.24999700  0.99999800  1
  Ba  Ba8  1  0.78908300  0.11036500  0.22790800  1
  Ba  Ba9  1  0.28912000  0.38965000  0.72789200  1
  Ba  Ba10  1  0.21091700  0.88956700  0.77210800  1
  Ba  Ba11  1  0.78910700  0.38965600  0.77212200  1
  Gd  Gd0  1  0.37096200  0.88735200  0.07393400  1
  Gd  Gd1  1  0.87097900  0.88733200  0.42611300  1
  Gd  Gd2  1  0.37112100  0.61271500  0.92614400  1
  Gd  Gd3  1  0.62898700  0.11266700  0.92605500  1
  Gd  Gd4  1  0.87106400  0.61271700  0.57389500  1
  Gd  Gd5  1  0.12907300  0.11268900  0.57388000  1
  Gd  Gd6  1  0.62901900  0.38729200  0.07387900  1
  Gd  Gd7  1  0.12890100  0.38726700  0.42615400  1
  P  P0  1  0.99561300  0.36077000  0.60297900  1
  P  P1  1  0.49552100  0.13920300  0.10303100  1
  P  P2  1  0.00440000  0.63924300  0.39704500  1
  P  P3  1  0.50424800  0.63923200  0.10308300  1
  P  P4  1  0.99572200  0.13932500  0.39692800  1
  P  P5  1  0.93943600  0.45160200  0.13092800  1
  P  P6  1  0.06041600  0.54842900  0.86895900  1
  P  P7  1  0.43936700  0.45163900  0.36899500  1
  P  P8  1  0.43945000  0.04835000  0.63099400  1
  P  P9  1  0.49577600  0.36079400  0.89691000  1
  P  P10  1  0.56053700  0.54837900  0.63104100  1
  P  P11  1  0.06067500  0.95157200  0.13102200  1
  P  P12  1  0.50442300  0.86077800  0.89697000  1
  P  P13  1  0.56059700  0.95162400  0.36903300  1
  P  P14  1  0.00432900  0.86064000  0.60307900  1
  P  P15  1  0.93933800  0.04839600  0.86889000  1
  S  S0  1  0.56697300  0.76911400  0.15267800  1
  S  S1  1  0.29488900  0.38676000  0.30737600  1
  S  S2  1  0.38811200  0.10013600  0.01714300  1
  S  S3  1  0.81918300  0.66811000  0.43055200  1
  S  S4  1  0.93300800  0.26918300  0.34728600  1
  S  S5  1  0.70489900  0.88675200  0.30730100  1
  S  S6  1  0.38808300  0.39986000  0.98282600  1
  S  S7  1  0.31915400  0.83192900  0.93059000  1
  S  S8  1  0.93162300  0.61204300  0.14648700  1
  S  S9  1  0.79515200  0.38676400  0.19271500  1
  S  S10  1  0.20502100  0.88672500  0.19269200  1
  S  S11  1  0.68072800  0.33187000  0.93058800  1
  S  S12  1  0.88174000  0.60534500  0.84961000  1
  S  S13  1  0.88164600  0.89465700  0.15035400  1
  S  S14  1  0.18084800  0.33191700  0.56943800  1
  S  S15  1  0.50600700  0.48550900  0.83127000  1
  S  S16  1  0.06678600  0.76910100  0.34732500  1
  S  S17  1  0.61187400  0.60013400  0.01717600  1
  S  S18  1  0.11191100  0.60004400  0.48287800  1
  S  S19  1  0.99386700  0.98550200  0.66867500  1
  S  S20  1  0.43165400  0.61200100  0.35356100  1
  S  S21  1  0.11715500  0.58593400  0.96780500  1
  S  S22  1  0.11845400  0.39462400  0.15044600  1
  S  S23  1  0.50613800  0.01453000  0.16878100  1
  S  S24  1  0.43168600  0.88797400  0.64646800  1
  S  S25  1  0.11834300  0.10531100  0.84966700  1
  S  S26  1  0.88312100  0.08598700  0.96785100  1
  S  S27  1  0.61700800  0.91404900  0.46777200  1
  S  S28  1  0.93180900  0.88798700  0.85356800  1
  S  S29  1  0.61829000  0.39460900  0.34969500  1
  S  S30  1  0.61187500  0.89985000  0.98288100  1
  S  S31  1  0.43315400  0.26914000  0.15266200  1
  S  S32  1  0.99386200  0.51455000  0.33123000  1
  S  S33  1  0.20494100  0.61323400  0.80729200  1
  S  S34  1  0.81924000  0.83193700  0.56938300  1
  S  S35  1  0.88808100  0.39994500  0.51709800  1
  S  S36  1  0.56833400  0.38797200  0.64644000  1
  S  S37  1  0.93321300  0.23086400  0.65264900  1
  S  S38  1  0.79498600  0.11326100  0.80731000  1
  S  S39  1  0.56680200  0.73083000  0.84735400  1
  S  S40  1  0.11187800  0.89986300  0.51716300  1
  S  S41  1  0.38161900  0.89466400  0.34957900  1
  S  S42  1  0.29509400  0.11326300  0.69268100  1
  S  S43  1  0.61693000  0.58596500  0.53211600  1
  S  S44  1  0.00615200  0.48538800  0.66876400  1
  S  S45  1  0.43298500  0.23091400  0.84729700  1
  S  S46  1  0.38305800  0.41400900  0.46786000  1
  S  S47  1  0.88300200  0.41413300  0.03227000  1
  S  S48  1  0.31921500  0.66815900  0.06940300  1
  S  S49  1  0.68081000  0.16802500  0.06943900  1
  S  S50  1  0.06697600  0.73086700  0.65269600  1
  S  S51  1  0.18076200  0.16807200  0.43059300  1
  S  S52  1  0.56828900  0.11204800  0.35351800  1
  S  S53  1  0.38170800  0.60537000  0.65029200  1
  S  S54  1  0.06843500  0.38796200  0.85352100  1
  S  S55  1  0.70503200  0.61321400  0.69264100  1
  S  S56  1  0.88814800  0.10016200  0.48282700  1
  S  S57  1  0.00614900  0.01453100  0.33131500  1
  S  S58  1  0.49380500  0.98542800  0.83124900  1
  S  S59  1  0.06817600  0.11203600  0.14645000  1
  S  S60  1  0.61835500  0.10533500  0.65039600  1
  S  S61  1  0.49396200  0.51451300  0.16873900  1
  S  S62  1  0.11685000  0.91407000  0.03219100  1
  S  S63  1  0.38300600  0.08596100  0.53217500  1
loop_
_geom_bond_atom_site_label_1
_geom_bond_atom_site_label_2
_geom_bond_distance
_geom_bond_site_symmetry_2
Ba0 S32 3.264006 1_455
Ba0 S22 3.292295 1_555
Ba0 S8 3.309823 1_455
Ba0 S20 3.349748 1_555
Ba0 S48 3.357232 1_555
Ba0 S1 3.369677 1_555
Ba0 S61 3.396827 1_555
Ba0 S16 3.430209 1_555
Ba0 S10 3.608363 1_555
Ba1 S61 3.261532 1_555
Ba1 S29 3.294275 1_555
Ba1 S20 3.312884 1_555
Ba1 S8 3.352769 1_555
Ba1 S3 3.354093 1_555
Ba1 S9 3.371664 1_555
Ba1 S32 3.393041 1_555
Ba1 S0 3.426260 1_555
Ba1 S5 3.608976 1_555
Ba2 S23 3.264219 1_555
Ba2 S41 3.290957 1_545
Ba2 S52 3.310201 1_555
Ba2 S59 3.349842 1_555
Ba2 S51 3.356983 1_555
Ba2 S10 3.371198 1_545
Ba2 S57 3.396149 1_555
Ba2 S31 3.430757 1_555
Ba2 S1 3.609564 1_555
Ba3 S58 3.264507 1_555
Ba3 S60 3.291368 1_565
Ba3 S24 3.310171 1_555
Ba3 S28 3.350258 1_555
Ba3 S34 3.357564 1_555
Ba3 S38 3.371400 1_565
Ba3 S19 3.397054 1_555
Ba3 S39 3.430973 1_555
Ba3 S55 3.609585 1_555
Ba4 S62 3.296658 1_656
Ba4 S21 3.297316 1_655
Ba4 S8 3.386194 1_556
Ba4 S28 3.386680 1_555
Ba4 S30 3.415100 1_555
Ba4 S17 3.417300 1_556
Ba4 S12 3.455339 1_555
Ba4 S13 3.456298 1_556
Ba5 S46 3.294655 1_555
Ba5 S63 3.297943 1_555
Ba5 S36 3.387328 1_555
Ba5 S52 3.387658 1_555
Ba5 S56 3.415349 1_555
Ba5 S35 3.416785 1_555
Ba5 S29 3.453635 1_555
Ba5 S60 3.454778 1_555
Ba6 S43 3.294911 1_555
Ba6 S27 3.298214 1_555
Ba6 S20 3.387508 1_555
Ba6 S24 3.387526 1_555
Ba6 S40 3.415109 1_555
Ba6 S18 3.417036 1_555
Ba6 S53 3.453789 1_555
Ba6 S41 3.454957 1_555
Ba7 S26 3.296323 1_455
Ba7 S47 3.297934 1_456
Ba7 S54 3.385889 1_555
Ba7 S59 3.387182 1_556
Ba7 S2 3.414286 1_556
Ba7 S6 3.416550 1_555
Ba7 S25 3.455350 1_555
Ba7 S22 3.456864 1_556
Ba8 S57 3.260965 1_655
Ba8 S13 3.293052 1_545
Ba8 S59 3.311936 1_655
Ba8 S52 3.352675 1_555
Ba8 S49 3.353908 1_555
Ba8 S5 3.370804 1_545
Ba8 S23 3.394298 1_555
Ba8 S4 3.428293 1_555
Ba8 S9 3.609376 1_555
Ba9 S15 3.260989 1_555
Ba9 S53 3.293700 1_555
Ba9 S36 3.312975 1_555
Ba9 S54 3.352168 1_555
Ba9 S14 3.354625 1_555
Ba9 S33 3.370609 1_555
Ba9 S44 3.392516 1_555
Ba9 S45 3.425715 1_555
Ba9 S42 3.609685 1_555
Ba10 S19 3.261646 1_455
Ba10 S25 3.293517 1_565
Ba10 S28 3.312085 1_455
Ba10 S24 3.352911 1_555
Ba10 S7 3.353951 1_555
Ba10 S42 3.371991 1_565
Ba10 S58 3.393994 1_555
Ba10 S50 3.427912 1_555
Ba10 S33 3.608494 1_555
Ba11 S44 3.263803 1_655
Ba11 S12 3.292451 1_555
Ba11 S54 3.310459 1_655
Ba11 S36 3.349861 1_555
Ba11 S11 3.357157 1_555
Ba11 S55 3.368930 1_555
Ba11 S15 3.396876 1_555
Ba11 S37 3.431362 1_555
Ba11 S38 3.609175 1_555
Gd0 S62 2.789836 1_555
Gd0 S23 2.832824 1_565
Gd0 S48 2.863420 1_555
Gd0 S10 2.881308 1_555
Gd0 S7 2.918559 1_554
Gd0 S2 2.947283 1_565
Gd0 S0 2.965072 1_555
Gd0 S30 3.075497 1_554
Gd1 S27 2.789734 1_555
Gd1 S57 2.833587 1_665
Gd1 S3 2.863802 1_555
Gd1 S5 2.879962 1_555
Gd1 S34 2.917619 1_555
Gd1 S56 2.947872 1_565
Gd1 S16 2.966888 1_655
Gd1 S40 3.072247 1_655
Gd2 S21 2.790105 1_555
Gd2 S15 2.832940 1_555
Gd2 S7 2.863483 1_555
Gd2 S33 2.881196 1_555
Gd2 S48 2.918228 1_556
Gd2 S6 2.946881 1_555
Gd2 S39 2.965898 1_555
Gd2 S17 3.070617 1_556
Gd3 S26 2.790291 1_555
Gd3 S58 2.832790 1_545
Gd3 S11 2.863535 1_555
Gd3 S38 2.881469 1_555
Gd3 S49 2.919123 1_556
Gd3 S30 2.947904 1_545
Gd3 S45 2.965206 1_555
Gd3 S2 3.075585 1_556
Gd4 S43 2.790761 1_555
Gd4 S44 2.832047 1_655
Gd4 S34 2.863218 1_555
Gd4 S55 2.881687 1_555
Gd4 S3 2.917945 1_555
Gd4 S35 2.947643 1_555
Gd4 S50 2.966137 1_655
Gd4 S18 3.074564 1_655
Gd5 S63 2.789634 1_555
Gd5 S19 2.833648 1_445
Gd5 S14 2.863838 1_555
Gd5 S42 2.879422 1_555
Gd5 S51 2.917799 1_555
Gd5 S40 2.947863 1_545
Gd5 S37 2.966711 1_455
Gd5 S56 3.072499 1_455
Gd6 S47 2.790076 1_555
Gd6 S61 2.833760 1_555
Gd6 S49 2.863801 1_555
Gd6 S9 2.880655 1_555
Gd6 S11 2.918368 1_554
Gd6 S17 2.946992 1_555
Gd6 S31 2.967392 1_555
Gd6 S6 3.072400 1_554
Gd7 S46 2.790563 1_555
Gd7 S32 2.832146 1_455
Gd7 S51 2.862934 1_555
Gd7 S1 2.881908 1_555
Gd7 S14 2.916849 1_555
Gd7 S18 2.947157 1_555
Gd7 S4 2.966236 1_455
Gd7 S35 3.073524 1_455
P0 S37 2.031304 1_555
P0 S44 2.047692 1_655
P0 S35 2.067737 1_555
P0 S14 2.071321 1_655
P1 S31 2.031108 1_555
P1 S23 2.047044 1_555
P1 S2 2.067426 1_555
P1 S49 2.072405 1_555
P2 S16 2.031213 1_555
P2 S32 2.048804 1_455
P2 S18 2.066945 1_555
P2 S3 2.070970 1_455
P3 S0 2.031340 1_555
P3 S61 2.046437 1_555
P3 S48 2.068949 1_555
P3 S17 2.070720 1_555
P4 S4 2.030286 1_555
P4 S57 2.047368 1_655
P4 S51 2.069001 1_655
P4 S56 2.070529 1_555
P5 S22 2.038635 1_655
P5 S47 2.057593 1_555
P5 S8 2.080809 1_555
P5 S9 2.095927 1_555
P6 S12 2.034486 1_455
P6 S21 2.061995 1_555
P6 S54 2.080883 1_555
P6 S33 2.096236 1_555
P7 S29 2.038045 1_555
P7 S46 2.062317 1_555
P7 S20 2.079177 1_555
P7 S1 2.094174 1_555
P8 S60 2.038054 1_555
P8 S63 2.060465 1_555
P8 S24 2.079605 1_545
P8 S42 2.095385 1_555
P9 S45 2.031705 1_555
P9 S15 2.046173 1_555
P9 S11 2.068144 1_555
P9 S6 2.071140 1_555
P10 S53 2.036794 1_555
P10 S43 2.063517 1_555
P10 S36 2.079684 1_555
P10 S55 2.093867 1_555
P11 S13 2.039327 1_455
P11 S62 2.061086 1_555
P11 S59 2.080675 1_565
P11 S10 2.092545 1_555
P12 S39 2.031126 1_555
P12 S58 2.046465 1_555
P12 S30 2.068043 1_555
P12 S7 2.072444 1_555
P13 S41 2.038821 1_555
P13 S27 2.058818 1_555
P13 S52 2.080299 1_565
P13 S5 2.095270 1_555
P14 S50 2.028939 1_555
P14 S19 2.047864 1_455
P14 S34 2.069565 1_455
P14 S40 2.070840 1_555
P15 S25 2.038709 1_655
P15 S26 2.063821 1_555
P15 S28 2.079693 1_545
P15 S38 2.091686 1_555
