# generated using pymatgen
data_BiF3
_symmetry_space_group_name_H-M   'P 1'
_cell_length_a   4.12393347
_cell_length_b   4.12393347
_cell_length_c   7.02804300
_cell_angle_alpha   90.00000000
_cell_angle_beta   90.00000000
_cell_angle_gamma   119.99999156
_symmetry_Int_Tables_number   1
_chemical_formula_structural   BiF3
_chemical_formula_sum   'Bi2 F6'
_cell_volume   103.51144711
_cell_formula_units_Z   2
loop_
 _symmetry_equiv_pos_site_id
 _symmetry_equiv_pos_as_xyz
  1  'x, y, z'
loop_
 _atom_site_type_symbol
 _atom_site_label
 _atom_site_symmetry_multiplicity
 _atom_site_fract_x
 _atom_site_fract_y
 _atom_site_fract_z
 _atom_site_occupancy
  Bi  Bi0  1  0.66666700  0.33333300  0.75000000  1
  Bi  Bi1  1  0.33333300  0.66666700  0.25000000  1
  F  F0  1  0.00000000  0.00000000  0.25000000  1
  F  F1  1  0.00000000  0.00000000  0.75000000  1
  F  F2  1  0.33333300  0.66666700  0.57896400  1
  F  F3  1  0.33333300  0.66666700  0.92103600  1
  F  F4  1  0.66666700  0.33333300  0.07896400  1
  F  F5  1  0.66666700  0.33333300  0.42103600  1
loop_
_geom_bond_atom_site_label_1
_geom_bond_atom_site_label_2
_geom_bond_distance
_geom_bond_site_symmetry_2
Bi0 F5 2.311973 1_555
Bi0 F4 2.311973 1_556
Bi0 F1 2.380952 1_655
Bi0 F1 2.380955 1_665
Bi0 F1 2.380955 1_555
Bi0 F3 2.667181 1_545
Bi0 F2 2.667181 1_545
Bi0 F3 2.667181 1_655
Bi0 F2 2.667181 1_655
Bi0 F2 2.667187 1_555
Bi0 F3 2.667187 1_555
Bi1 F2 2.311973 1_555
Bi1 F3 2.311973 1_554
Bi1 F0 2.380952 1_565
Bi1 F0 2.380955 1_555
Bi1 F0 2.380955 1_665
Bi1 F4 2.667181 1_455
Bi1 F5 2.667181 1_455
Bi1 F4 2.667181 1_565
Bi1 F5 2.667181 1_565
Bi1 F4 2.667187 1_555
Bi1 F5 2.667187 1_555
