# generated using pymatgen
data_Sr(H2N)2
_symmetry_space_group_name_H-M   'P 1'
_cell_length_a   7.74759728
_cell_length_b   6.64861001
_cell_length_c   6.72216773
_cell_angle_alpha   70.17546012
_cell_angle_beta   90.00000238
_cell_angle_gamma   90.00000908
_symmetry_Int_Tables_number   1
_chemical_formula_structural   Sr(H2N)2
_chemical_formula_sum   'Sr4 H16 N8'
_cell_volume   325.74279732
_cell_formula_units_Z   4
loop_
 _symmetry_equiv_pos_site_id
 _symmetry_equiv_pos_as_xyz
  1  'x, y, z'
loop_
 _atom_site_type_symbol
 _atom_site_label
 _atom_site_symmetry_multiplicity
 _atom_site_fract_x
 _atom_site_fract_y
 _atom_site_fract_z
 _atom_site_occupancy
  Sr  Sr0  1  0.37718413  0.99866700  0.75001798  1
  Sr  Sr1  1  0.87718444  0.50133288  0.24998234  1
  Sr  Sr2  1  0.62281591  0.00133207  0.24998256  1
  Sr  Sr3  1  0.12281580  0.49866765  0.75001749  1
  H  H0  1  0.03415655  0.87961935  0.93576528  1
  H  H1  1  0.53415627  0.62038181  0.06423574  1
  H  H2  1  0.96584422  0.12038108  0.06423622  1
  H  H3  1  0.46584397  0.37961655  0.93576426  1
  H  H4  1  0.17825783  0.75862461  0.10738901  1
  H  H5  1  0.67825796  0.74137657  0.89261205  1
  H  H6  1  0.82174233  0.24137376  0.89261125  1
  H  H7  1  0.32174207  0.25862355  0.10738878  1
  H  H8  1  0.22648416  0.32812172  0.37402985  1
  H  H9  1  0.72648388  0.17187850  0.62597128  1
  H  H10  1  0.77351706  0.67187752  0.62596951  1
  H  H11  1  0.27351585  0.82812294  0.37402838  1
  H  H12  1  0.08834190  0.14141111  0.47481023  1
  H  H13  1  0.58834118  0.35859039  0.52519240  1
  H  H14  1  0.91165780  0.85858949  0.52519107  1
  H  H15  1  0.41165662  0.64141058  0.47480771  1
  N  N0  1  0.11518427  0.75006740  0.97646262  1
  N  N1  1  0.61518462  0.74993256  0.02353838  1
  N  N2  1  0.88481500  0.24993214  0.02353779  1
  N  N3  1  0.38481445  0.25006681  0.97646190  1
  N  N4  1  0.14033266  0.27416209  0.49663051  1
  N  N5  1  0.64033411  0.22584020  0.50336901  1
  N  N6  1  0.85966605  0.72583953  0.50336871  1
  N  N7  1  0.35966694  0.77416114  0.49662969  1
loop_
_geom_bond_atom_site_label_1
_geom_bond_atom_site_label_2
_geom_bond_distance
_geom_bond_site_symmetry_2
H0 N0 1.025190 1_555
H1 N1 1.025187 1_555
H2 N2 1.025193 1_555
H3 N3 1.025188 1_555
H4 N0 1.024983 1_554
H5 N1 1.024979 1_556
H6 N2 1.024983 1_556
H7 N3 1.024980 1_554
H8 N4 1.026101 1_555
H9 N5 1.026101 1_555
H10 N6 1.026090 1_555
H11 N7 1.026103 1_555
H12 N4 1.024976 1_555
H13 N5 1.024987 1_555
H14 N6 1.024979 1_555
H15 N7 1.024975 1_555
N0 Sr3 2.615363 1_555
N1 Sr2 2.615356 1_565
N2 Sr1 2.615365 1_555
N3 Sr0 2.615356 1_545
N4 Sr3 2.621484 1_555
N5 Sr2 2.621495 1_555
N6 Sr1 2.621487 1_555
N7 Sr0 2.621493 1_555
