# generated using pymatgen
data_Si4Ag10O13
_symmetry_space_group_name_H-M   'P 1'
_cell_length_a   8.11205487
_cell_length_b   9.38491730
_cell_length_c   11.60167684
_cell_angle_alpha   113.40783942
_cell_angle_beta   98.37313993
_cell_angle_gamma   100.57526233
_symmetry_Int_Tables_number   1
_chemical_formula_structural   Si4Ag10O13
_chemical_formula_sum   'Si8 Ag20 O26'
_cell_volume   773.05666440
_cell_formula_units_Z   2
loop_
 _symmetry_equiv_pos_site_id
 _symmetry_equiv_pos_as_xyz
  1  'x, y, z'
loop_
 _atom_site_type_symbol
 _atom_site_label
 _atom_site_symmetry_multiplicity
 _atom_site_fract_x
 _atom_site_fract_y
 _atom_site_fract_z
 _atom_site_occupancy
  Si  Si0  1  0.77886200  0.42073300  0.75542700  1
  Si  Si1  1  0.22113800  0.57926700  0.24457300  1
  Si  Si2  1  0.26795700  0.91941600  0.24502300  1
  Si  Si3  1  0.55730000  0.48444400  0.25032400  1
  Si  Si4  1  0.91665800  0.02361400  0.25132200  1
  Si  Si5  1  0.73204300  0.08058400  0.75497700  1
  Si  Si6  1  0.44270000  0.51555600  0.74967600  1
  Si  Si7  1  0.08334200  0.97638600  0.74867800  1
  Ag  Ag0  1  0.11075400  0.59376400  0.64163900  1
  Ag  Ag1  1  0.15912800  0.40923400  0.91663600  1
  Ag  Ag2  1  0.57663000  0.12407000  0.16101100  1
  Ag  Ag3  1  0.33406600  0.37151900  0.43272800  1
  Ag  Ag4  1  0.21382200  0.17127200  0.07014600  1
  Ag  Ag5  1  0.15082700  0.73145100  0.92860300  1
  Ag  Ag6  1  0.32020000  0.07898400  0.56951300  1
  Ag  Ag7  1  0.84917300  0.26854900  0.07139700  1
  Ag  Ag8  1  0.84087200  0.59076600  0.08336400  1
  Ag  Ag9  1  0.67980000  0.92101600  0.43048700  1
  Ag  Ag10  1  0.78617800  0.82872800  0.92985400  1
  Ag  Ag11  1  0.98599400  0.81836100  0.42905000  1
  Ag  Ag12  1  0.56093200  0.73177600  0.08398800  1
  Ag  Ag13  1  0.43906800  0.26822400  0.91601200  1
  Ag  Ag14  1  0.63293400  0.23719500  0.44799100  1
  Ag  Ag15  1  0.42337000  0.87593000  0.83898900  1
  Ag  Ag16  1  0.66593400  0.62848100  0.56727200  1
  Ag  Ag17  1  0.88924600  0.40623600  0.35836100  1
  Ag  Ag18  1  0.01400600  0.18163900  0.57095000  1
  Ag  Ag19  1  0.36706600  0.76280500  0.55200900  1
  O  O0  1  0.59473500  0.97652000  0.61322500  1
  O  O1  1  0.62005000  0.43217600  0.11444900  1
  O  O2  1  0.72455000  0.58195700  0.37707400  1
  O  O3  1  0.35635300  0.89357400  0.12341400  1
  O  O4  1  0.83066900  0.25935500  0.76345400  1
  O  O5  1  0.88385800  0.57923600  0.89020300  1
  O  O6  1  0.18583300  0.96867500  0.87932100  1
  O  O7  1  0.27545000  0.41804300  0.62292600  1
  O  O8  1  0.64364700  0.10642600  0.87658600  1
  O  O9  1  0.40526500  0.02348000  0.38677500  1
  O  O10  1  0.43332600  0.61108600  0.25489700  1
  O  O11  1  0.16933100  0.74064500  0.23654600  1
  O  O12  1  0.11614200  0.42076400  0.10979700  1
  O  O13  1  0.81416700  0.03132500  0.12067900  1
  O  O14  1  0.17464100  0.56663700  0.37313700  1
  O  O15  1  0.82535900  0.43336300  0.62686300  1
  O  O16  1  0.18342100  0.13834000  0.73465200  1
  O  O17  1  0.56173800  0.67638100  0.74388400  1
  O  O18  1  0.93356100  0.19001400  0.38038700  1
  O  O19  1  0.11286800  0.00867800  0.23175800  1
  O  O20  1  0.88713200  0.99132200  0.76824200  1
  O  O21  1  0.37995000  0.56782400  0.88555100  1
  O  O22  1  0.06643900  0.80998600  0.61961300  1
  O  O23  1  0.81657900  0.86166000  0.26534800  1
  O  O24  1  0.43826200  0.32361900  0.25611600  1
  O  O25  1  0.56667400  0.38891400  0.74510300  1
loop_
_geom_bond_atom_site_label_1
_geom_bond_atom_site_label_2
_geom_bond_distance
_geom_bond_site_symmetry_2
Ag0 O22 2.228295 1_555
Ag0 O7 2.271659 1_555
Ag0 O15 2.460792 1_455
Ag1 O21 2.278179 1_555
Ag1 O12 2.281252 1_556
Ag1 O16 2.645772 1_555
Ag1 O4 2.737767 1_455
Ag2 O13 2.290012 1_555
Ag2 O24 2.339868 1_555
Ag2 O3 2.380575 1_545
Ag3 O7 2.214082 1_555
Ag3 O24 2.242077 1_555
Ag3 O14 2.668036 1_555
Ag4 O6 2.217792 1_544
Ag4 O24 2.337432 1_555
Ag4 O12 2.500657 1_555
Ag5 O5 2.237647 1_455
Ag5 O3 2.332816 1_556
Ag5 O6 2.488111 1_555
Ag5 O21 2.602082 1_555
Ag6 O9 2.218726 1_555
Ag6 O16 2.282556 1_555
Ag6 O0 2.643147 1_545
Ag7 O12 2.237647 1_655
Ag7 O8 2.332816 1_554
Ag7 O13 2.488111 1_555
Ag7 O1 2.602082 1_555
Ag8 O1 2.278179 1_555
Ag8 O5 2.281252 1_554
Ag8 O23 2.645772 1_555
Ag8 O11 2.737767 1_655
Ag9 O0 2.218726 1_555
Ag9 O23 2.282556 1_555
Ag9 O9 2.643147 1_565
Ag10 O13 2.217792 1_566
Ag10 O17 2.337432 1_555
Ag10 O5 2.500657 1_555
Ag11 O22 2.248689 1_655
Ag11 O23 2.391420 1_555
Ag11 O2 2.573201 1_555
Ag12 O21 2.279251 1_554
Ag12 O3 2.421416 1_555
Ag12 O23 2.444835 1_555
Ag13 O1 2.279251 1_556
Ag13 O8 2.421416 1_555
Ag13 O16 2.444835 1_555
Ag14 O9 2.250479 1_555
Ag14 O15 2.258020 1_555
Ag15 O6 2.290012 1_555
Ag15 O17 2.339868 1_555
Ag15 O8 2.380575 1_565
Ag16 O2 2.214082 1_555
Ag16 O17 2.242077 1_555
Ag16 O15 2.668036 1_555
Ag17 O18 2.228295 1_555
Ag17 O2 2.271659 1_555
Ag17 O14 2.460792 1_655
Ag18 O18 2.248689 1_455
Ag18 O16 2.391420 1_555
Ag18 O7 2.573201 1_555
Ag19 O0 2.250479 1_555
Ag19 O14 2.258020 1_555
O0 Si5 1.640161 1_565
O1 Si3 1.641846 1_555
O2 Si3 1.653665 1_555
O3 Si2 1.627934 1_555
O4 Si0 1.677306 1_555
O4 Si5 1.678661 1_555
O5 Si0 1.637726 1_555
O6 Si7 1.654084 1_555
O7 Si6 1.653665 1_555
O8 Si5 1.627934 1_555
O9 Si2 1.640161 1_545
O10 Si1 1.670089 1_555
O10 Si3 1.682550 1_555
O11 Si1 1.677306 1_555
O11 Si2 1.678661 1_555
O12 Si1 1.637726 1_555
O13 Si4 1.654084 1_555
O14 Si1 1.633700 1_555
O15 Si0 1.633700 1_555
O16 Si7 1.666677 1_545
O17 Si6 1.667204 1_555
O18 Si4 1.644182 1_555
O19 Si2 1.655638 1_545
O19 Si4 1.663249 1_455
O20 Si5 1.655638 1_565
O20 Si7 1.663249 1_655
O21 Si6 1.641846 1_555
O22 Si7 1.644182 1_555
O23 Si4 1.666677 1_565
O24 Si3 1.667204 1_555
O25 Si0 1.670089 1_555
O25 Si6 1.682550 1_555
