# generated using pymatgen
data_GdRu2
_symmetry_space_group_name_H-M   'P 1'
_cell_length_a   5.34037241
_cell_length_b   5.34181515
_cell_length_c   5.32726554
_cell_angle_alpha   59.96491309
_cell_angle_beta   59.99700157
_cell_angle_gamma   59.97275408
_symmetry_Int_Tables_number   1
_chemical_formula_structural   GdRu2
_chemical_formula_sum   'Gd2 Ru4'
_cell_volume   107.40763684
_cell_formula_units_Z   2
loop_
 _symmetry_equiv_pos_site_id
 _symmetry_equiv_pos_as_xyz
  1  'x, y, z'
loop_
 _atom_site_type_symbol
 _atom_site_label
 _atom_site_symmetry_multiplicity
 _atom_site_fract_x
 _atom_site_fract_y
 _atom_site_fract_z
 _atom_site_occupancy
  Gd  Gd0  1  0.12503058  0.12493722  0.12508294  1
  Gd  Gd1  1  0.87491885  0.87506493  0.87495342  1
  Ru  Ru0  1  0.49999922  0.50004306  0.99991837  1
  Ru  Ru1  1  0.49997167  0.99998382  0.50003276  1
  Ru  Ru2  1  0.49997193  0.50001305  0.50003211  1
  Ru  Ru3  1  0.00010674  0.49995892  0.49997739  1
loop_
_geom_bond_atom_site_label_1
_geom_bond_atom_site_label_2
_geom_bond_distance
_geom_bond_site_symmetry_2
Gd0 Ru3 3.123118 1_554
Gd0 Ru1 3.124390 1_544
Gd0 Ru1 3.126069 1_545
Gd0 Ru2 3.126990 1_545
Gd0 Ru2 3.127273 1_554
Gd0 Ru3 3.127618 1_555
Gd0 Ru2 3.129102 1_455
Gd0 Ru0 3.129815 1_454
Gd0 Ru0 3.130511 1_544
Gd0 Ru3 3.130717 1_545
Gd0 Ru1 3.131285 1_445
Gd0 Ru0 3.132479 1_554
Gd1 Ru3 3.123349 1_656
Gd1 Ru1 3.124444 1_556
Gd1 Ru1 3.126043 1_555
Gd1 Ru2 3.126994 1_565
Gd1 Ru2 3.127294 1_556
Gd1 Ru3 3.127772 1_655
Gd1 Ru2 3.128971 1_655
Gd1 Ru0 3.129586 1_655
Gd1 Ru0 3.130440 1_565
Gd1 Ru3 3.130935 1_665
Gd1 Ru1 3.131179 1_655
Gd1 Ru0 3.132327 1_555
Ru0 Ru2 2.663180 1_555
Ru0 Ru2 2.664086 1_556
Ru0 Ru1 2.665401 1_555
Ru0 Ru1 2.666325 1_546
Ru0 Ru3 2.666664 1_556
Ru0 Ru3 2.666926 1_655
Ru1 Ru3 2.669020 1_565
Ru1 Ru3 2.669874 1_655
Ru1 Ru2 2.670752 1_555
Ru1 Ru2 2.671063 1_565
Ru2 Ru3 2.669757 1_555
Ru2 Ru3 2.670616 1_655
