# generated using pymatgen
data_NaNb13O33
_symmetry_space_group_name_H-M   'P 1'
_cell_length_a   3.87772700
_cell_length_b   11.60944655
_cell_length_c   15.66350819
_cell_angle_alpha   91.49976675
_cell_angle_beta   89.96849438
_cell_angle_gamma   99.60287884
_symmetry_Int_Tables_number   1
_chemical_formula_structural   NaNb13O33
_chemical_formula_sum   'Na1 Nb13 O33'
_cell_volume   695.01984828
_cell_formula_units_Z   1
loop_
 _symmetry_equiv_pos_site_id
 _symmetry_equiv_pos_as_xyz
  1  'x, y, z'
loop_
 _atom_site_type_symbol
 _atom_site_label
 _atom_site_symmetry_multiplicity
 _atom_site_fract_x
 _atom_site_fract_y
 _atom_site_fract_z
 _atom_site_occupancy
  Na  Na0  1  0.50830300  0.00051000  0.49740000  1
  Nb  Nb0  1  0.14381800  0.27459800  0.46743700  1
  Nb  Nb1  1  0.05646800  0.14055000  0.22878500  1
  Nb  Nb2  1  0.84827700  0.69016400  0.09508800  1
  Nb  Nb3  1  0.91714500  0.85968800  0.77159800  1
  Nb  Nb4  1  0.71100600  0.41558000  0.62531500  1
  Nb  Nb5  1  0.22770100  0.44853500  0.13691400  1
  Nb  Nb6  1  0.09116700  0.17352700  0.67461900  1
  Nb  Nb7  1  0.29401800  0.58587400  0.37396900  1
  Nb  Nb8  1  0.86530700  0.72685700  0.53277000  1
  Nb  Nb9  1  0.77357200  0.55145500  0.86227800  1
  Nb  Nb10  1  0.15189800  0.31096400  0.90385700  1
  Nb  Nb11  1  0.91950000  0.82602300  0.32468700  1
  Nb  Nb12  1  0.01278400  0.00115600  0.99981300  1
  O  O0  1  0.19690400  0.38784500  0.02709200  1
  O  O1  1  0.92022900  0.83755600  0.04973300  1
  O  O2  1  0.24923500  0.50157400  0.86227400  1
  O  O3  1  0.82103900  0.63745900  0.38930700  1
  O  O4  1  0.35082200  0.69654300  0.50561100  1
  O  O5  1  0.03514900  0.06980500  0.12019900  1
  O  O6  1  0.07296600  0.13808600  0.54441100  1
  O  O7  1  0.43438200  0.85972500  0.75527400  1
  O  O8  1  0.01902700  0.02379500  0.70858500  1
  O  O9  1  0.73386100  0.46718900  0.73480300  1
  O  O10  1  0.87469700  0.74274100  0.21323500  1
  O  O11  1  0.10903600  0.20054700  0.36531800  1
  O  O12  1  0.61268900  0.21944900  0.66330300  1
  O  O13  1  0.84840000  0.69445300  0.80515400  1
  O  O14  1  0.07524600  0.16418700  0.95136000  1
  O  O15  1  0.57665100  0.14033700  0.24629200  1
  O  O16  1  0.74991700  0.49822500  0.13728300  1
  O  O17  1  0.18559700  0.36352200  0.61091700  1
  O  O18  1  0.39570000  0.78183400  0.33844100  1
  O  O19  1  0.67966000  0.36081100  0.90000800  1
  O  O20  1  0.93273700  0.86241300  0.45590100  1
  O  O21  1  0.15965300  0.30637800  0.19516300  1
  O  O22  1  0.80217700  0.61219300  0.97231200  1
  O  O23  1  0.65779600  0.30442700  0.49551000  1
  O  O24  1  0.77999100  0.55328500  0.56691000  1
  O  O25  1  0.12608000  0.25580200  0.78733200  1
  O  O26  1  0.22494700  0.44574000  0.43008800  1
  O  O27  1  0.99648300  0.97630700  0.29104600  1
  O  O28  1  0.50018800  0.00145800  0.00026500  1
  O  O29  1  0.26555500  0.53735600  0.26381000  1
  O  O30  1  0.90426500  0.79955800  0.63560700  1
  O  O31  1  0.32115300  0.64072000  0.09822000  1
  O  O32  1  0.96852100  0.92927000  0.88105700  1
loop_
_geom_bond_atom_site_label_1
_geom_bond_atom_site_label_2
_geom_bond_distance
_geom_bond_site_symmetry_2
Na0 O20 2.554659 1_545
Na0 O6 2.580894 1_655
Na0 O20 2.593725 1_445
Na0 O6 2.603763 1_555
Nb0 O11 1.790353 1_555
Nb0 O6 1.998805 1_555
Nb0 O23 2.012041 1_555
Nb0 O23 2.018438 1_455
Nb0 O26 2.059355 1_555
Nb0 O17 2.442533 1_555
Nb1 O5 1.865104 1_555
Nb1 O15 1.880152 1_455
Nb1 O21 1.984835 1_555
Nb1 O15 2.036250 1_555
Nb1 O27 2.142442 1_445
Nb1 O11 2.230559 1_555
Nb2 O1 1.847882 1_555
Nb2 O10 1.930802 1_555
Nb2 O31 2.011728 1_655
Nb2 O31 2.029758 1_555
Nb2 O22 2.098794 1_554
Nb2 O16 2.311037 1_555
Nb3 O32 1.872426 1_555
Nb3 O7 1.889616 1_555
Nb3 O13 1.977160 1_555
Nb3 O7 2.021727 1_655
Nb3 O8 2.146368 1_665
Nb3 O30 2.222108 1_555
Nb4 O9 1.799058 1_555
Nb4 O24 1.843325 1_555
Nb4 O17 2.037067 1_555
Nb4 O17 2.041185 1_655
Nb4 O12 2.337745 1_555
Nb4 O23 2.369803 1_555
Nb5 O0 1.838064 1_555
Nb5 O21 1.886541 1_555
Nb5 O16 2.010865 1_555
Nb5 O16 2.030215 1_455
Nb5 O29 2.208637 1_555
Nb5 O31 2.297287 1_555
Nb6 O8 1.808044 1_555
Nb6 O25 1.979001 1_555
Nb6 O12 2.012526 1_555
Nb6 O12 2.023243 1_455
Nb6 O6 2.068921 1_555
Nb6 O17 2.416669 1_555
Nb7 O29 1.798698 1_555
Nb7 O26 1.849423 1_555
Nb7 O3 2.034373 1_455
Nb7 O3 2.043899 1_555
Nb7 O18 2.325397 1_555
Nb7 O4 2.391316 1_555
Nb8 O30 1.793429 1_555
Nb8 O20 1.989034 1_555
Nb8 O4 2.010926 1_555
Nb8 O4 2.015367 1_655
Nb8 O24 2.071166 1_555
Nb8 O3 2.444409 1_555
Nb9 O22 1.841340 1_555
Nb9 O13 1.886153 1_555
Nb9 O2 2.019049 1_555
Nb9 O2 2.023329 1_655
Nb9 O9 2.194404 1_555
Nb9 O19 2.275911 1_555
Nb10 O14 1.855461 1_555
Nb10 O25 1.915485 1_555
Nb10 O19 2.011805 1_455
Nb10 O19 2.033056 1_555
Nb10 O0 2.100319 1_556
Nb10 O2 2.293477 1_555
Nb11 O27 1.812453 1_555
Nb11 O10 1.966852 1_555
Nb11 O18 2.010399 1_655
Nb11 O18 2.023074 1_555
Nb11 O20 2.086309 1_555
Nb11 O3 2.408161 1_555
Nb12 O28 1.889455 1_556
Nb12 O28 1.988304 1_456
Nb12 O32 2.014286 1_445
Nb12 O5 2.024077 1_556
Nb12 O14 2.034457 1_555
Nb12 O1 2.048799 1_446
