# generated using pymatgen
data_Ba3In4(CuO4)3
_symmetry_space_group_name_H-M   'P 1'
_cell_length_a   9.72999089
_cell_length_b   9.72999089
_cell_length_c   9.72999089
_cell_angle_alpha   101.33565591
_cell_angle_beta   101.33565591
_cell_angle_gamma   127.36477240
_symmetry_Int_Tables_number   1
_chemical_formula_structural   Ba3In4(CuO4)3
_chemical_formula_sum   'Ba6 In8 Cu6 O24'
_cell_volume   656.24538398
_cell_formula_units_Z   2
loop_
 _symmetry_equiv_pos_site_id
 _symmetry_equiv_pos_as_xyz
  1  'x, y, z'
loop_
 _atom_site_type_symbol
 _atom_site_label
 _atom_site_symmetry_multiplicity
 _atom_site_fract_x
 _atom_site_fract_y
 _atom_site_fract_z
 _atom_site_occupancy
  Ba  Ba0  1  0.27957300  0.77957300  0.05914700  1
  Ba  Ba1  1  0.22042700  0.27957300  0.50000000  1
  Ba  Ba2  1  0.72042700  0.22042700  0.94085300  1
  Ba  Ba3  1  0.00000000  0.00000000  0.00000000  1
  Ba  Ba4  1  0.77957300  0.72042700  0.50000000  1
  Ba  Ba5  1  0.50000000  0.50000000  0.00000000  1
  In  In0  1  0.00711600  0.25000000  0.75711600  1
  In  In1  1  0.99288400  0.75000000  0.24288400  1
  In  In2  1  0.25000000  0.49288400  0.24288400  1
  In  In3  1  0.75000000  0.50711600  0.75711600  1
  In  In4  1  0.50711600  0.75000000  0.75711600  1
  In  In5  1  0.75000000  0.99288400  0.24288400  1
  In  In6  1  0.49288400  0.25000000  0.24288400  1
  In  In7  1  0.25000000  0.00711600  0.75711600  1
  Cu  Cu0  1  0.39515900  0.10484100  0.50000000  1
  Cu  Cu1  1  0.10484100  0.60484100  0.70968300  1
  Cu  Cu2  1  0.60484100  0.89515900  0.50000000  1
  Cu  Cu3  1  0.25000000  0.75000000  0.50000000  1
  Cu  Cu4  1  0.89515900  0.39515900  0.29031700  1
  Cu  Cu5  1  0.75000000  0.25000000  0.50000000  1
  O  O0  1  0.76916200  0.49823300  0.26739500  1
  O  O1  1  0.62019200  0.62019200  0.74038400  1
  O  O2  1  0.99823300  0.26916200  0.26739500  1
  O  O3  1  0.65990900  0.15990900  0.27514900  1
  O  O4  1  0.37980800  0.37980800  0.25961600  1
  O  O5  1  0.34009100  0.84009100  0.72485100  1
  O  O6  1  0.12019200  0.12019200  0.74038400  1
  O  O7  1  0.26916200  0.00176700  0.27093000  1
  O  O8  1  0.00176700  0.73083800  0.73260500  1
  O  O9  1  0.38476000  0.65990900  0.50000000  1
  O  O10  1  0.87980800  0.87980800  0.25961600  1
  O  O11  1  0.49823300  0.23083800  0.72907000  1
  O  O12  1  0.50176700  0.76916200  0.27093000  1
  O  O13  1  0.15990900  0.88476000  0.50000000  1
  O  O14  1  0.62019200  0.87980800  0.00000000  1
  O  O15  1  0.12019200  0.37980800  0.00000000  1
  O  O16  1  0.37980800  0.12019200  0.00000000  1
  O  O17  1  0.11524000  0.61524000  0.27514900  1
  O  O18  1  0.61524000  0.34009100  0.50000000  1
  O  O19  1  0.88476000  0.38476000  0.72485100  1
  O  O20  1  0.84009100  0.11524000  0.50000000  1
  O  O21  1  0.73083800  0.99823300  0.72907000  1
  O  O22  1  0.87980800  0.62019200  0.00000000  1
  O  O23  1  0.23083800  0.50176700  0.73260500  1
loop_
_geom_bond_atom_site_label_1
_geom_bond_atom_site_label_2
_geom_bond_distance
_geom_bond_site_symmetry_2
Ba0 O7 2.743555 1_565
Ba0 O12 2.743555 1_555
Ba0 O17 3.011541 1_555
Ba0 O3 3.011548 1_565
Ba0 Cu1 3.047843 1_554
Ba0 O22 3.051810 1_455
Ba0 O15 3.051810 1_555
Ba0 O16 3.051816 1_565
Ba0 O14 3.051816 1_555
Ba1 O23 2.743555 1_555
Ba1 O2 2.743555 1_455
Ba1 O20 3.011550 1_455
Ba1 O9 3.011550 1_555
Ba1 Cu0 3.047843 1_555
Ba1 O6 3.051811 1_555
Ba1 O10 3.051811 1_445
Ba1 O1 3.051811 1_555
Ba1 O4 3.051811 1_555
Ba2 O11 2.743555 1_555
Ba2 O21 2.743555 1_545
Ba2 O19 3.011541 1_555
Ba2 O5 3.011548 1_545
Ba2 Cu4 3.047843 1_556
Ba2 O15 3.051810 1_656
Ba2 O22 3.051810 1_556
Ba2 O16 3.051816 1_556
Ba2 O14 3.051816 1_546
Ba3 O14 3.127122 1_445
Ba3 O22 3.127122 1_445
Ba3 O16 3.127122 1_555
Ba3 O4 3.127122 1_555
Ba3 O15 3.127122 1_555
Ba3 O1 3.127122 1_444
Ba3 O10 3.127122 1_445
Ba3 O6 3.127122 1_554
Ba3 O8 3.319925 1_544
Ba3 O2 3.319925 1_455
Ba3 O21 3.319931 1_444
Ba3 O7 3.319931 1_555
Ba4 O8 2.743555 1_655
Ba4 O0 2.743555 1_555
Ba4 O18 3.011550 1_555
Ba4 O13 3.011550 1_655
Ba4 Cu2 3.047843 1_555
Ba4 O1 3.051811 1_555
Ba4 O10 3.051811 1_555
Ba4 O4 3.051811 1_555
Ba4 O6 3.051811 1_665
Ba5 O14 3.127122 1_555
Ba5 O22 3.127122 1_555
Ba5 O10 3.127122 1_555
Ba5 O4 3.127122 1_555
Ba5 O15 3.127122 1_555
Ba5 O16 3.127122 1_555
Ba5 O6 3.127122 1_554
Ba5 O1 3.127122 1_554
Ba5 O23 3.319925 1_554
Ba5 O0 3.319925 1_555
Ba5 O11 3.319931 1_554
Ba5 O12 3.319931 1_555
In0 O15 2.123328 1_556
In0 O6 2.123328 1_555
In0 O21 2.181202 1_445
In0 O23 2.181205 1_555
In0 O19 2.268219 1_455
In0 O20 2.268219 1_455
In1 O22 2.123328 1_555
In1 O10 2.123328 1_555
In1 O7 2.181202 1_665
In1 O0 2.181205 1_555
In1 O13 2.268219 1_655
In1 O17 2.268219 1_655
In2 O4 2.123328 1_555
In2 O15 2.123328 1_555
In2 O12 2.181202 1_555
In2 O2 2.181205 1_455
In2 O9 2.268219 1_555
In2 O17 2.268219 1_555
In3 O22 2.123328 1_556
In3 O1 2.123328 1_555
In3 O11 2.181202 1_555
In3 O8 2.181205 1_655
In3 O18 2.268219 1_555
In3 O19 2.268219 1_555
In4 O14 2.123328 1_556
In4 O1 2.123328 1_555
In4 O23 2.181205 1_555
In4 O21 2.181210 1_555
In4 O5 2.268219 1_555
In4 O9 2.268219 1_555
In5 O14 2.123328 1_555
In5 O10 2.123328 1_555
In5 O2 2.181205 1_565
In5 O12 2.181210 1_555
In5 O3 2.268219 1_565
In5 O20 2.268219 1_565
In6 O4 2.123328 1_555
In6 O16 2.123328 1_555
In6 O0 2.181205 1_555
In6 O7 2.181210 1_555
In6 O18 2.268219 1_555
In6 O3 2.268219 1_555
In7 O16 2.123328 1_556
In7 O6 2.123328 1_555
In7 O8 2.181205 1_545
In7 O11 2.181210 1_555
In7 O13 2.268219 1_545
In7 O5 2.268219 1_545
Cu0 O13 1.968639 1_545
Cu0 O18 1.968639 1_555
Cu0 O7 2.007807 1_555
Cu0 O11 2.007807 1_555
Cu1 O19 1.968634 1_455
Cu1 O5 1.968643 1_555
Cu1 O8 2.007815 1_555
Cu1 O23 2.007815 1_555
Cu2 O9 1.968639 1_555
Cu2 O20 1.968639 1_565
Cu2 O12 2.007807 1_555
Cu2 O21 2.007807 1_555
Cu3 O5 1.970477 1_555
Cu3 O17 1.970477 1_555
Cu3 O9 1.970477 1_555
Cu3 O13 1.970477 1_555
Cu4 O17 1.968634 1_655
Cu4 O3 1.968643 1_555
Cu4 O0 2.007815 1_555
Cu4 O2 2.007815 1_555
Cu5 O20 1.970477 1_555
Cu5 O19 1.970477 1_555
Cu5 O18 1.970477 1_555
Cu5 O3 1.970477 1_555
