# generated using pymatgen
data_Ba2CaY(Co4O7)2
_symmetry_space_group_name_H-M   'P 1'
_cell_length_a   6.78770168
_cell_length_b   6.78770168
_cell_length_c   9.80582500
_cell_angle_alpha   90.00000000
_cell_angle_beta   90.00000000
_cell_angle_gamma   119.99999692
_symmetry_Int_Tables_number   1
_chemical_formula_structural   Ba2CaY(Co4O7)2
_chemical_formula_sum   'Ba2 Ca1 Y1 Co8 O14'
_cell_volume   391.25533960
_cell_formula_units_Z   1
loop_
 _symmetry_equiv_pos_site_id
 _symmetry_equiv_pos_as_xyz
  1  'x, y, z'
loop_
 _atom_site_type_symbol
 _atom_site_label
 _atom_site_symmetry_multiplicity
 _atom_site_fract_x
 _atom_site_fract_y
 _atom_site_fract_z
 _atom_site_occupancy
  Ba  Ba0  1  0.66666700  0.33333300  0.10664600  1
  Ba  Ba1  1  0.00000000  0.00000000  0.61308900  1
  Ca  Ca0  1  0.00000000  0.00000000  0.97042800  1
  Y  Y0  1  0.66666700  0.33333300  0.49150600  1
  Co  Co0  1  0.52171400  0.47828600  0.78443300  1
  Co  Co1  1  0.33333300  0.66666700  0.39266900  1
  Co  Co2  1  0.52171400  0.04342900  0.78443300  1
  Co  Co3  1  0.95657100  0.47828600  0.78443300  1
  Co  Co4  1  0.66747500  0.83373700  0.22302500  1
  Co  Co5  1  0.16626300  0.33252500  0.22302500  1
  Co  Co6  1  0.16626300  0.83373700  0.22302500  1
  Co  Co7  1  0.33333300  0.66666700  0.74548800  1
  O  O0  1  0.49790000  0.50210000  0.37107000  1
  O  O1  1  0.41260800  0.20630400  0.68176900  1
  O  O2  1  0.49790000  0.99579900  0.37107000  1
  O  O3  1  0.79369600  0.58739200  0.68176900  1
  O  O4  1  0.79369600  0.20630400  0.68176900  1
  O  O5  1  0.62914500  0.81457300  0.84386200  1
  O  O6  1  0.00420100  0.50210000  0.37107000  1
  O  O7  1  0.86891700  0.13108300  0.15335900  1
  O  O8  1  0.18542700  0.37085500  0.84386200  1
  O  O9  1  0.86891700  0.73783400  0.15335900  1
  O  O10  1  0.33333300  0.66666700  0.19050300  1
  O  O11  1  0.26216600  0.13108300  0.15335900  1
  O  O12  1  0.18542700  0.81457300  0.84386200  1
  O  O13  1  0.33333300  0.66666700  0.57291800  1
loop_
_geom_bond_atom_site_label_1
_geom_bond_atom_site_label_2
_geom_bond_distance
_geom_bond_site_symmetry_2
Ba0 O7 2.421500 1_555
Ba0 O11 2.421506 1_555
Ba0 O9 2.421506 1_555
Ba1 O4 2.517206 1_455
Ba1 O1 2.517206 1_555
Ba1 O3 2.517206 1_445
Ca0 O7 2.364880 1_456
Ca0 O11 2.364880 1_556
Ca0 O9 2.364880 1_446
Ca0 O12 2.508523 1_545
Ca0 O8 2.508528 1_555
Ca0 O5 2.508528 1_445
Co0 O3 1.898134 1_555
Co0 O1 1.898134 1_555
Co0 O5 2.101708 1_555
Co0 O8 2.101708 1_555
Co1 O13 1.767490 1_555
Co1 O2 1.946302 1_555
Co1 O6 1.946302 1_555
Co1 O0 1.946314 1_555
Co1 O10 1.982404 1_555
Co2 O1 1.898128 1_555
Co2 O4 1.898133 1_555
Co2 O5 2.101707 1_545
Co2 O12 2.101708 1_545
Co3 O3 1.898128 1_555
Co3 O4 1.898133 1_555
Co3 O8 2.101707 1_655
Co3 O12 2.101708 1_655
Co4 O9 1.910519 1_555
Co4 O7 1.910524 1_565
Co4 O10 1.989915 1_555
Co4 O2 2.430745 1_555
Co4 O0 2.430745 1_555
Co5 O11 1.910519 1_555
Co5 O7 1.910524 1_455
Co5 O10 1.989915 1_555
Co5 O6 2.430745 1_555
Co5 O0 2.430745 1_555
Co6 O11 1.910525 1_565
Co6 O9 1.910525 1_455
Co6 O10 1.989903 1_555
Co6 O2 2.430745 1_555
Co6 O6 2.430745 1_555
Co7 O13 1.692191 1_555
Co7 O12 1.988523 1_555
Co7 O8 1.988523 1_555
Co7 O5 1.988523 1_555
O0 Y0 2.309001 1_555
O1 Y0 2.389801 1_555
O2 Y0 2.309001 1_565
O3 Y0 2.389801 1_555
O4 Y0 2.389797 1_555
O6 Y0 2.309001 1_455
