# generated using pymatgen
data_Cs3Bi2I9
_symmetry_space_group_name_H-M   'P 1'
_cell_length_a   8.52312681
_cell_length_b   8.52312681
_cell_length_c   21.69991442
_cell_angle_alpha   88.68370363
_cell_angle_beta   88.68370363
_cell_angle_gamma   120.06202656
_symmetry_Int_Tables_number   1
_chemical_formula_structural   Cs3Bi2I9
_chemical_formula_sum   'Cs6 Bi4 I18'
_cell_volume   1362.87200351
_cell_formula_units_Z   2
loop_
 _symmetry_equiv_pos_site_id
 _symmetry_equiv_pos_as_xyz
  1  'x, y, z'
loop_
 _atom_site_type_symbol
 _atom_site_label
 _atom_site_symmetry_multiplicity
 _atom_site_fract_x
 _atom_site_fract_y
 _atom_site_fract_z
 _atom_site_occupancy
  Cs  Cs0  1  0.99579766  0.00420234  0.75000000  1
  Cs  Cs1  1  0.66326883  0.32676000  0.07451160  1
  Cs  Cs2  1  0.00420234  0.99579766  0.25000000  1
  Cs  Cs3  1  0.32676000  0.66326883  0.57451160  1
  Cs  Cs4  1  0.33673117  0.67324000  0.92548840  1
  Cs  Cs5  1  0.67324000  0.33673117  0.42548840  1
  Bi  Bi0  1  0.65497612  0.32449986  0.65595205  1
  Bi  Bi1  1  0.34502388  0.67550014  0.34404795  1
  Bi  Bi2  1  0.32449986  0.65497612  0.15595205  1
  Bi  Bi3  1  0.67550014  0.34502388  0.84404795  1
  I  I0  1  0.65347586  0.81940126  0.07349544  1
  I  I1  1  0.34652414  0.18059874  0.92650456  1
  I  I2  1  0.49434880  0.99448562  0.76015682  1
  I  I3  1  0.18515389  0.85496796  0.41695429  1
  I  I4  1  0.85496796  0.18515389  0.91695429  1
  I  I5  1  0.81940126  0.65347586  0.57349544  1
  I  I6  1  0.81484611  0.14503204  0.58304571  1
  I  I7  1  0.30954515  0.14661937  0.58934065  1
  I  I8  1  0.50565120  0.00551438  0.23984318  1
  I  I9  1  0.00551438  0.50565120  0.73984318  1
  I  I10  1  0.14503204  0.81484611  0.08304571  1
  I  I11  1  0.99448562  0.49434880  0.26015682  1
  I  I12  1  0.49475668  0.50524332  0.75000000  1
  I  I13  1  0.85338063  0.69045485  0.91065935  1
  I  I14  1  0.14661937  0.30954515  0.08934065  1
  I  I15  1  0.69045485  0.85338063  0.41065935  1
  I  I16  1  0.50524332  0.49475668  0.25000000  1
  I  I17  1  0.18059874  0.34652414  0.42650456  1
loop_
_geom_bond_atom_site_label_1
_geom_bond_atom_site_label_2
_geom_bond_distance
_geom_bond_site_symmetry_2
Cs0 I13 4.111417 1_545
Cs0 I7 4.111417 1_655
Cs0 I2 4.233560 1_545
Cs0 I9 4.233560 1_655
Cs0 I12 4.257595 1_545
Cs0 I12 4.257595 1_655
Cs0 I9 4.301862 1_645
Cs0 I2 4.301862 1_645
Cs0 I6 4.342384 1_555
Cs0 I4 4.342384 1_555
Cs1 I1 4.045749 1_554
Cs1 I10 4.142112 1_655
Cs1 I4 4.210018 1_554
Cs1 I14 4.214378 1_655
Cs1 I8 4.220786 1_555
Cs1 I0 4.240837 1_555
Cs1 I0 4.283659 1_545
Cs1 I14 4.336016 1_555
Cs1 I13 4.367297 1_554
Cs1 I10 4.381576 1_545
Cs1 I16 4.506971 1_555
Cs2 I14 4.111417 1_565
Cs2 I15 4.111417 1_455
Cs2 I11 4.233560 1_455
Cs2 I8 4.233560 1_565
Cs2 I16 4.257595 1_455
Cs2 I16 4.257595 1_565
Cs2 I11 4.301862 1_465
Cs2 I8 4.301862 1_465
Cs2 I10 4.342384 1_555
Cs2 I3 4.342384 1_555
Cs3 I17 4.045749 1_555
Cs3 I6 4.142112 1_565
Cs3 I3 4.210018 1_555
Cs3 I7 4.214378 1_565
Cs3 I9 4.220786 1_555
Cs3 I5 4.240837 1_555
Cs3 I5 4.283659 1_455
Cs3 I7 4.336016 1_555
Cs3 I15 4.367297 1_555
Cs3 I6 4.381576 1_455
Cs3 I12 4.506971 1_555
Cs4 I0 4.045749 1_556
Cs4 I4 4.142112 1_455
Cs4 I10 4.210018 1_556
Cs4 I13 4.214378 1_455
Cs4 I2 4.220786 1_555
Cs4 I1 4.240837 1_555
Cs4 I1 4.283659 1_565
Cs4 I13 4.336016 1_555
Cs4 I14 4.367297 1_556
Cs4 I4 4.381576 1_565
Cs4 I12 4.506971 1_555
Cs5 I5 4.045749 1_555
Cs5 I3 4.142112 1_545
Cs5 I6 4.210018 1_555
Cs5 I15 4.214378 1_545
Cs5 I11 4.220786 1_555
Cs5 I17 4.240837 1_555
Cs5 I17 4.283659 1_655
Cs5 I15 4.336016 1_555
Cs5 I7 4.367297 1_555
Cs5 I3 4.381576 1_655
Cs5 I16 4.506971 1_555
Bi0 I5 2.957184 1_555
Bi0 I6 2.966419 1_555
Bi0 I7 2.979959 1_555
Bi0 I9 3.222038 1_655
Bi0 I12 3.244522 1_555
Bi0 I2 3.256778 1_545
Bi1 I17 2.957184 1_555
Bi1 I3 2.966419 1_555
Bi1 I15 2.979959 1_555
Bi1 I11 3.222038 1_455
Bi1 I16 3.244522 1_555
Bi1 I8 3.256778 1_565
Bi2 I0 2.957184 1_555
Bi2 I10 2.966419 1_555
Bi2 I14 2.979959 1_555
Bi2 I8 3.222038 1_565
Bi2 I16 3.244522 1_555
Bi2 I11 3.256778 1_455
Bi3 I1 2.957184 1_555
Bi3 I4 2.966419 1_555
Bi3 I13 2.979959 1_555
Bi3 I2 3.222038 1_545
Bi3 I12 3.244522 1_555
Bi3 I9 3.256778 1_655
