# generated using pymatgen
data_Cr9In7S24
_symmetry_space_group_name_H-M   'P 1'
_cell_length_a   12.75621201
_cell_length_b   12.75621201
_cell_length_c   7.30458783
_cell_angle_alpha   73.56933542
_cell_angle_beta   73.56933542
_cell_angle_gamma   120.39712426
_symmetry_Int_Tables_number   1
_chemical_formula_structural   Cr9In7S24
_chemical_formula_sum   'Cr9 In7 S24'
_cell_volume   842.98683464
_cell_formula_units_Z   1
loop_
 _symmetry_equiv_pos_site_id
 _symmetry_equiv_pos_as_xyz
  1  'x, y, z'
loop_
 _atom_site_type_symbol
 _atom_site_label
 _atom_site_symmetry_multiplicity
 _atom_site_fract_x
 _atom_site_fract_y
 _atom_site_fract_z
 _atom_site_occupancy
  Cr  Cr0  1  0.95148900  0.61793900  0.14033400  1
  Cr  Cr1  1  0.63352800  0.45921200  0.61591300  1
  Cr  Cr2  1  0.95012800  0.61750000  0.62632600  1
  Cr  Cr3  1  0.96023900  0.12421000  0.62601700  1
  Cr  Cr4  1  0.12421000  0.96023900  0.62601700  1
  Cr  Cr5  1  0.29009900  0.29009900  0.61336400  1
  Cr  Cr6  1  0.61793900  0.95148900  0.14033400  1
  Cr  Cr7  1  0.45921200  0.63352800  0.61591300  1
  Cr  Cr8  1  0.61750000  0.95012800  0.62632600  1
  In  In0  1  0.00042300  0.33374700  0.99718400  1
  In  In1  1  0.33374700  0.00042300  0.99718400  1
  In  In2  1  0.30778900  0.79462400  0.61331100  1
  In  In3  1  0.66782100  0.66782100  0.00166800  1
  In  In4  1  0.79462400  0.30778900  0.61331100  1
  In  In5  1  0.91127200  0.91127200  0.25276300  1
  In  In6  1  0.29739500  0.29739500  0.13700200  1
  S  S0  1  0.39905700  0.71647100  0.36556400  1
  S  S1  1  0.56023000  0.03570200  0.36560100  1
  S  S2  1  0.40046400  0.71671300  0.84523500  1
  S  S3  1  0.71647100  0.39905700  0.36556400  1
  S  S4  1  0.55574500  0.02937500  0.87153700  1
  S  S5  1  0.03570200  0.56023000  0.36560100  1
  S  S6  1  0.86897200  0.68194900  0.38955000  1
  S  S7  1  0.71671300  0.40046400  0.84523500  1
  S  S8  1  0.04083200  0.04083200  0.41027400  1
  S  S9  1  0.18243400  0.86196600  0.41772000  1
  S  S10  1  0.90043800  0.71425000  0.86252100  1
  S  S11  1  0.35090300  0.19179300  0.41470500  1
  S  S12  1  0.02937500  0.55574500  0.87153700  1
  S  S13  1  0.19179300  0.35090300  0.41470500  1
  S  S14  1  0.18222800  0.85902400  0.87468300  1
  S  S15  1  0.05635900  0.05635900  0.83337100  1
  S  S16  1  0.52627200  0.52627200  0.41826900  1
  S  S17  1  0.23638300  0.38925200  0.83788700  1
  S  S18  1  0.68194900  0.86897200  0.38955000  1
  S  S19  1  0.38925200  0.23638300  0.83788700  1
  S  S20  1  0.54588500  0.54588500  0.82912300  1
  S  S21  1  0.86196600  0.18243400  0.41772000  1
  S  S22  1  0.71425000  0.90043800  0.86252100  1
  S  S23  1  0.85902400  0.18222800  0.87468300  1
loop_
_geom_bond_atom_site_label_1
_geom_bond_atom_site_label_2
_geom_bond_distance
_geom_bond_site_symmetry_2
Cr0 S5 2.349150 1_655
Cr0 S3 2.372867 1_555
Cr0 S6 2.390664 1_555
Cr0 S12 2.459064 1_654
Cr0 S14 2.473705 1_654
Cr0 S10 2.489659 1_554
Cr1 S3 2.360782 1_555
Cr1 S7 2.365099 1_555
Cr1 S6 2.392578 1_555
Cr1 S19 2.447341 1_555
Cr1 S20 2.477461 1_555
Cr1 S16 2.508217 1_555
Cr2 S7 2.355280 1_555
Cr2 S5 2.402165 1_655
Cr2 S6 2.410141 1_555
Cr2 S12 2.425431 1_655
Cr2 S9 2.496738 1_655
Cr2 S10 2.505830 1_555
Cr3 S13 2.391915 1_655
Cr3 S8 2.410361 1_655
Cr3 S21 2.412489 1_555
Cr3 S23 2.432041 1_555
Cr3 S15 2.435071 1_655
Cr3 S22 2.461339 1_545
Cr4 S11 2.391915 1_565
Cr4 S8 2.410361 1_565
Cr4 S9 2.412489 1_555
Cr4 S14 2.432041 1_555
Cr4 S15 2.435071 1_565
Cr4 S10 2.461339 1_455
Cr5 S11 2.378427 1_555
Cr5 S13 2.378427 1_555
Cr5 S15 2.438217 1_555
Cr5 S16 2.478060 1_555
Cr5 S19 2.484721 1_555
Cr5 S17 2.484721 1_555
Cr6 S1 2.349150 1_565
Cr6 S0 2.372867 1_555
Cr6 S18 2.390664 1_555
Cr6 S4 2.459064 1_564
Cr6 S23 2.473705 1_564
Cr6 S22 2.489659 1_554
Cr7 S0 2.360782 1_555
Cr7 S2 2.365099 1_555
Cr7 S18 2.392578 1_555
Cr7 S17 2.447341 1_555
Cr7 S20 2.477461 1_555
Cr7 S16 2.508217 1_555
Cr8 S2 2.355280 1_555
Cr8 S1 2.402165 1_565
Cr8 S18 2.410141 1_555
Cr8 S4 2.425431 1_565
Cr8 S21 2.496738 1_565
Cr8 S22 2.505830 1_555
In0 S23 2.480583 1_455
In0 S12 2.505531 1_555
In0 S17 2.512175 1_555
In0 S21 2.531380 1_456
In1 S14 2.480583 1_545
In1 S4 2.505531 1_555
In1 S19 2.512175 1_555
In1 S9 2.531380 1_546
In2 S2 2.573864 1_555
In2 S0 2.574413 1_555
In2 S1 2.575886 1_565
In2 S9 2.706350 1_555
In2 S14 2.715557 1_555
In2 S12 2.731934 1_555
In3 S20 2.489380 1_554
In3 S16 2.502971 1_555
In3 S10 2.522618 1_554
In3 S22 2.522618 1_554
In4 S7 2.573864 1_555
In4 S3 2.574413 1_555
In4 S5 2.575886 1_655
In4 S21 2.706350 1_555
In4 S23 2.715557 1_555
In4 S4 2.731934 1_555
In5 S8 2.484725 1_665
In5 S18 2.508183 1_555
In5 S6 2.508183 1_555
In5 S15 2.520778 1_664
In6 S11 2.561886 1_555
In6 S13 2.561886 1_555
In6 S20 2.630476 1_554
In6 S8 2.678772 1_555
In6 S19 2.681249 1_554
In6 S17 2.681249 1_554
