# generated using pymatgen
data_K4Eu(PS4)2
_symmetry_space_group_name_H-M   'P 1'
_cell_length_a   8.90850709
_cell_length_b   9.83888919
_cell_length_c   11.36089003
_cell_angle_alpha   115.60468028
_cell_angle_beta   113.14531446
_cell_angle_gamma   90.12888849
_symmetry_Int_Tables_number   1
_chemical_formula_structural   K4Eu(PS4)2
_chemical_formula_sum   'K8 Eu2 P4 S16'
_cell_volume   807.72989841
_cell_formula_units_Z   2
loop_
 _symmetry_equiv_pos_site_id
 _symmetry_equiv_pos_as_xyz
  1  'x, y, z'
loop_
 _atom_site_type_symbol
 _atom_site_label
 _atom_site_symmetry_multiplicity
 _atom_site_fract_x
 _atom_site_fract_y
 _atom_site_fract_z
 _atom_site_occupancy
  K  K0  1  0.79717600  0.91618300  0.83350600  1
  K  K1  1  0.74200900  0.99152100  0.48663400  1
  K  K2  1  0.21196300  0.08430900  0.16925100  1
  K  K3  1  0.26130000  0.51140600  0.51696700  1
  K  K4  1  0.95744300  0.58034600  0.16143700  1
  K  K5  1  0.25835500  0.01065100  0.51932400  1
  K  K6  1  0.74264500  0.49560200  0.48503300  1
  K  K7  1  0.04007200  0.41329600  0.83035900  1
  Eu  Eu0  1  0.49896200  0.74683100  0.99801800  1
  Eu  Eu1  1  0.50339800  0.25096500  0.00028600  1
  P  P0  1  0.83335900  0.12846000  0.25498400  1
  P  P1  1  0.16744200  0.87225500  0.74319800  1
  P  P2  1  0.42301100  0.62765400  0.25805000  1
  P  P3  1  0.57366000  0.36903900  0.74050900  1
  S  S0  1  0.36889000  0.39299800  0.78671400  1
  S  S1  1  0.28143900  0.41082500  0.16041000  1
  S  S2  1  0.87825600  0.24937900  0.15903700  1
  S  S3  1  0.28335400  0.74741900  0.16029300  1
  S  S4  1  0.12588200  0.75212800  0.84103700  1
  S  S5  1  0.62904800  0.60496600  0.21344300  1
  S  S6  1  0.50601800  0.25833600  0.52309700  1
  S  S7  1  0.41920800  0.89637300  0.79235800  1
  S  S8  1  0.71209800  0.24928200  0.83899700  1
  S  S9  1  0.01742900  0.76336500  0.52514700  1
  S  S10  1  0.87654100  0.91074600  0.15876400  1
  S  S11  1  0.58187400  0.10287500  0.20659600  1
  S  S12  1  0.12351900  0.08938900  0.83721800  1
  S  S13  1  0.71402600  0.58617500  0.83561700  1
  S  S14  1  0.49429100  0.73852400  0.47655900  1
  S  S15  1  0.98126000  0.23887100  0.47306500  1
loop_
_geom_bond_atom_site_label_1
_geom_bond_atom_site_label_2
_geom_bond_distance
_geom_bond_site_symmetry_2
K0 S7 3.205460 1_555
K0 S4 3.336345 1_655
K0 S13 3.340982 1_555
K0 S12 3.343219 1_665
K0 S8 3.345268 1_565
K0 S14 3.468596 1_555
K0 S10 3.503509 1_556
K0 S2 3.515204 1_566
K1 S14 3.257250 1_555
K1 S15 3.323908 1_565
K1 S6 3.354460 1_565
K1 S9 3.358631 1_655
K1 S5 3.526378 1_555
K1 S11 3.578974 1_565
K2 S11 3.147052 1_555
K2 S1 3.321519 1_555
K2 S3 3.342210 1_545
K2 S10 3.373491 1_445
K2 S2 3.376734 1_455
K2 S6 3.421469 1_555
K2 S4 3.518708 1_544
K2 S12 3.560811 1_554
K3 S9 3.295112 1_555
K3 S6 3.318471 1_555
K3 S14 3.335731 1_555
K3 S15 3.390929 1_455
K3 S7 3.519582 1_555
K3 S0 3.528344 1_555
K4 S5 3.194475 1_555
K4 S2 3.316623 1_555
K4 S1 3.338290 1_655
K4 S3 3.340444 1_655
K4 S10 3.341633 1_555
K4 S8 3.488096 1_554
K4 S13 3.504480 1_554
K4 S9 3.525737 1_655
K5 S6 3.258759 1_555
K5 S9 3.279904 1_545
K5 S15 3.381821 1_455
K5 S14 3.395019 1_545
K5 S0 3.479081 1_555
K5 S7 3.530846 1_545
K6 S14 3.266800 1_555
K6 S15 3.297277 1_555
K6 S9 3.346161 1_655
K6 S6 3.412805 1_555
K6 S5 3.481679 1_555
K6 S11 3.582896 1_555
K7 S0 3.150442 1_555
K7 S12 3.300711 1_555
K7 S4 3.358411 1_555
K7 S13 3.377005 1_455
K7 S8 3.389904 1_455
K7 S15 3.464058 1_455
K7 S1 3.524890 1_556
K7 S3 3.533474 1_556
Eu0 S4 3.106606 1_555
Eu0 S0 3.130005 1_555
Eu0 S7 3.130452 1_555
Eu0 S13 3.137693 1_555
Eu0 S10 3.138665 1_556
Eu0 S3 3.140490 1_556
Eu0 S11 3.141653 1_566
Eu0 S5 3.164065 1_556
Eu1 S8 3.076791 1_554
Eu1 S2 3.113623 1_555
Eu1 S11 3.126274 1_555
Eu1 S7 3.128361 1_544
Eu1 S5 3.132067 1_555
Eu1 S12 3.148572 1_554
Eu1 S0 3.150959 1_554
Eu1 S1 3.172014 1_555
P0 S15 2.038529 1_555
P0 S2 2.055492 1_555
P0 S10 2.059563 1_545
P0 S11 2.072301 1_555
P1 S9 2.041477 1_555
P1 S12 2.053794 1_565
P1 S4 2.055861 1_555
P1 S7 2.072914 1_555
P2 S14 2.042760 1_555
P2 S1 2.053049 1_555
P2 S3 2.054587 1_555
P2 S5 2.076283 1_555
P3 S6 2.037652 1_555
P3 S8 2.054875 1_555
P3 S13 2.055696 1_555
P3 S0 2.075227 1_555
