# generated using pymatgen
data_Li6Ti9O20
_symmetry_space_group_name_H-M   'P 1'
_cell_length_a   5.98326323
_cell_length_b   5.98326357
_cell_length_c   59.93159310
_cell_angle_alpha   60.00516949
_cell_angle_beta   60.00516761
_cell_angle_gamma   59.90117537
_symmetry_Int_Tables_number   1
_chemical_formula_structural   Li6Ti9O20
_chemical_formula_sum   'Li24 Ti36 O80'
_cell_volume   1516.09191255
_cell_formula_units_Z   4
loop_
 _symmetry_equiv_pos_site_id
 _symmetry_equiv_pos_as_xyz
  1  'x, y, z'
loop_
 _atom_site_type_symbol
 _atom_site_label
 _atom_site_symmetry_multiplicity
 _atom_site_fract_x
 _atom_site_fract_y
 _atom_site_fract_z
 _atom_site_occupancy
  Li  Li0  1  0.00774025  0.00774025  0.99865888  1
  Li  Li1  1  0.25065831  0.25065831  0.02391130  1
  Li  Li2  1  0.01452922  0.01452922  0.09596500  1
  Li  Li3  1  0.25360406  0.25360406  0.12386873  1
  Li  Li4  1  0.00327579  0.00327579  0.19904095  1
  Li  Li5  1  0.25059959  0.25059959  0.22481073  1
  Li  Li6  1  0.63620342  0.63620342  0.10894561  1
  Li  Li7  1  0.00033530  0.00033530  0.29991487  1
  Li  Li8  1  0.24987185  0.24987185  0.32502266  1
  Li  Li9  1  0.00008076  0.00008076  0.39998139  1
  Li  Li10  1  0.24991924  0.24991924  0.42501861  1
  Li  Li11  1  0.99940041  0.99940041  0.60018927  1
  Li  Li12  1  0.24966470  0.24966470  0.52508513  1
  Li  Li13  1  0.00012815  0.00012815  0.49997734  1
  Li  Li14  1  0.24672421  0.24672421  0.62595905  1
  Li  Li15  1  0.99639594  0.99639594  0.70113127  1
  Li  Li16  1  0.99934169  0.99934169  0.80108870  1
  Li  Li17  1  0.23547078  0.23547078  0.72903500  1
  Li  Li18  1  0.61379658  0.61379658  0.71605439  1
  Li  Li19  1  0.24225975  0.24225975  0.82634112  1
  Li  Li20  1  0.00160326  0.00160326  0.90104819  1
  Li  Li21  1  0.24839674  0.24839674  0.92395181  1
  Li  Li22  1  0.62377416  0.62377416  0.86296607  1
  Li  Li23  1  0.62622584  0.62622584  0.96203393  1
  Ti  Ti0  1  0.11861343  0.62416492  0.06342177  1
  Ti  Ti1  1  0.62416492  0.11861343  0.06342177  1
  Ti  Ti2  1  0.62495964  0.62495964  0.00935560  1
  Ti  Ti3  1  0.62615315  0.62615315  0.06239875  1
  Ti  Ti4  1  0.13776335  0.62671592  0.16089648  1
  Ti  Ti5  1  0.62671592  0.13776335  0.16089648  1
  Ti  Ti6  1  0.62657730  0.62657730  0.16091225  1
  Ti  Ti7  1  0.12591242  0.62526502  0.26235476  1
  Ti  Ti8  1  0.62526502  0.12591242  0.26235476  1
  Ti  Ti9  1  0.62887159  0.62887159  0.21134103  1
  Ti  Ti10  1  0.62525147  0.62525147  0.26235801  1
  Ti  Ti11  1  0.12505816  0.62501055  0.36248957  1
  Ti  Ti12  1  0.62501055  0.12505816  0.36248957  1
  Ti  Ti13  1  0.62510048  0.62510048  0.31247343  1
  Ti  Ti14  1  0.62501475  0.62501475  0.36248974  1
  Ti  Ti15  1  0.12494184  0.62498945  0.46251043  1
  Ti  Ti16  1  0.62498945  0.12494184  0.46251043  1
  Ti  Ti17  1  0.62500000  0.62500000  0.41250000  1
  Ti  Ti18  1  0.62498525  0.62498525  0.46251026  1
  Ti  Ti19  1  0.12408758  0.62473498  0.56264524  1
  Ti  Ti20  1  0.62473498  0.12408758  0.56264524  1
  Ti  Ti21  1  0.62489952  0.62489952  0.51252657  1
  Ti  Ti22  1  0.62474853  0.62474853  0.56264199  1
  Ti  Ti23  1  0.11223665  0.62328408  0.66410352  1
  Ti  Ti24  1  0.62328408  0.11223665  0.66410352  1
  Ti  Ti25  1  0.62112841  0.62112841  0.61365897  1
  Ti  Ti26  1  0.62342270  0.62342270  0.66408775  1
  Ti  Ti27  1  0.13138657  0.62583508  0.76157823  1
  Ti  Ti28  1  0.62583508  0.13138657  0.76157823  1
  Ti  Ti29  1  0.62384685  0.62384685  0.76260125  1
  Ti  Ti30  1  0.11532063  0.61697330  0.86341487  1
  Ti  Ti31  1  0.61697330  0.11532063  0.86341487  1
  Ti  Ti32  1  0.62504036  0.62504036  0.81564440  1
  Ti  Ti33  1  0.13467937  0.63302670  0.96158513  1
  Ti  Ti34  1  0.63302670  0.13467937  0.96158513  1
  Ti  Ti35  1  0.62500000  0.62500000  0.91250000  1
  O  O0  1  0.38565731  0.38565731  0.03992912  1
  O  O1  1  0.38221975  0.82717249  0.04100379  1
  O  O2  1  0.38265508  0.38265508  0.08498199  1
  O  O3  1  0.82717249  0.38221975  0.04100379  1
  O  O4  1  0.36954989  0.36954989  0.14218164  1
  O  O5  1  0.41253786  0.87427597  0.08436480  1
  O  O6  1  0.38679398  0.38679398  0.18395887  1
  O  O7  1  0.36942794  0.83889221  0.14218634  1
  O  O8  1  0.87427597  0.41253786  0.08436480  1
  O  O9  1  0.86157911  0.86157911  0.04171929  1
  O  O10  1  0.87188617  0.87188617  0.08453098  1
  O  O11  1  0.83889221  0.36942794  0.14218634  1
  O  O12  1  0.38817739  0.38817739  0.23874690  1
  O  O13  1  0.41588680  0.85858657  0.18672882  1
  O  O14  1  0.38782744  0.83638566  0.23876459  1
  O  O15  1  0.85858657  0.41588680  0.18672882  1
  O  O16  1  0.38747303  0.38747303  0.28378320  1
  O  O17  1  0.86119250  0.86119250  0.14161336  1
  O  O18  1  0.85827557  0.85827557  0.18673537  1
  O  O19  1  0.83638566  0.38782744  0.23876459  1
  O  O20  1  0.38764812  0.38764812  0.33874579  1
  O  O21  1  0.41291052  0.86272947  0.28619744  1
  O  O22  1  0.38727616  0.83739639  0.33876970  1
  O  O23  1  0.86272947  0.41291052  0.28619744  1
  O  O24  1  0.86236957  0.86236957  0.24126522  1
  O  O25  1  0.38758247  0.38758247  0.38374973  1
  O  O26  1  0.83739639  0.38727616  0.33876970  1
  O  O27  1  0.86236630  0.86236630  0.28621785  1
  O  O28  1  0.41248422  0.86271456  0.38624208  1
  O  O29  1  0.38765011  0.38765011  0.43873615  1
  O  O30  1  0.86271456  0.41248422  0.38624208  1
  O  O31  1  0.86238662  0.86238662  0.34125808  1
  O  O32  1  0.38761338  0.38761338  0.48374192  1
  O  O33  1  0.38728544  0.83751578  0.43875792  1
  O  O34  1  0.86234989  0.86234989  0.38626385  1
  O  O35  1  0.83751578  0.38728544  0.43875792  1
  O  O36  1  0.41260361  0.86272384  0.48623030  1
  O  O37  1  0.38763370  0.38763370  0.53878215  1
  O  O38  1  0.86272384  0.41260361  0.48623030  1
  O  O39  1  0.86241753  0.86241753  0.44125027  1
  O  O40  1  0.38727053  0.83708948  0.53880256  1
  O  O41  1  0.38763043  0.38763043  0.58373478  1
  O  O42  1  0.86235188  0.86235188  0.48625421  1
  O  O43  1  0.83708948  0.38727053  0.53880256  1
  O  O44  1  0.39172443  0.39172443  0.63826463  1
  O  O45  1  0.41361434  0.86217256  0.58623541  1
  O  O46  1  0.38880750  0.38880750  0.68338664  1
  O  O47  1  0.86217256  0.41361434  0.58623541  1
  O  O48  1  0.86252697  0.86252697  0.54121680  1
  O  O49  1  0.39141343  0.83411320  0.63827118  1
  O  O50  1  0.86182261  0.86182261  0.58625310  1
  O  O51  1  0.83411320  0.39141343  0.63827118  1
  O  O52  1  0.41110779  0.88057206  0.68281366  1
  O  O53  1  0.37811383  0.37811383  0.74046902  1
  O  O54  1  0.86320602  0.86320602  0.64104113  1
  O  O55  1  0.88057206  0.41110779  0.68281366  1
  O  O56  1  0.38842089  0.38842089  0.78328071  1
  O  O57  1  0.37572403  0.83746214  0.74063520  1
  O  O58  1  0.83746214  0.37572403  0.74063520  1
  O  O59  1  0.88045011  0.88045011  0.68281836  1
  O  O60  1  0.42282751  0.86778025  0.78399621  1
  O  O61  1  0.39091899  0.39091899  0.83761468  1
  O  O62  1  0.86778025  0.42282751  0.78399621  1
  O  O63  1  0.38048814  0.38048814  0.88253363  1
  O  O64  1  0.38428705  0.84376443  0.83630418  1
  O  O65  1  0.86734492  0.86734492  0.74001801  1
  O  O66  1  0.86434269  0.86434269  0.78507088  1
  O  O67  1  0.84376443  0.38428705  0.83630418  1
  O  O68  1  0.41459965  0.87431895  0.88716973  1
  O  O69  1  0.38683023  0.38683023  0.93838745  1
  O  O70  1  0.87431895  0.41459965  0.88716973  1
  O  O71  1  0.87605970  0.87605970  0.84138570  1
  O  O72  1  0.37394030  0.37394030  0.98361430  1
  O  O73  1  0.37568105  0.83540035  0.93783027  1
  O  O74  1  0.86316977  0.86316977  0.88661255  1
  O  O75  1  0.83540035  0.37568105  0.93783027  1
  O  O76  1  0.40623557  0.86571295  0.98869582  1
  O  O77  1  0.86571295  0.40623557  0.98869582  1
  O  O78  1  0.86951186  0.86951186  0.94246637  1
  O  O79  1  0.85908101  0.85908101  0.98738532  1
loop_
_geom_bond_atom_site_label_1
_geom_bond_atom_site_label_2
_geom_bond_distance
_geom_bond_site_symmetry_2
Li0 O76 1.953266 1_545
Li0 O77 1.953266 1_455
Li0 O79 2.008494 1_445
Li0 O9 2.107970 1_446
Li1 O72 1.975895 1_554
Li1 O3 2.073596 1_455
Li1 O1 2.073596 1_545
Li1 O0 2.105081 1_555
Li2 O5 1.944784 1_545
Li2 O8 1.944784 1_455
Li2 O10 1.956146 1_445
Li2 O17 2.234513 1_445
Li3 O2 1.903514 1_555
Li3 O11 2.038332 1_455
Li3 O7 2.038332 1_545
Li3 O4 2.042629 1_555
Li4 O13 2.015542 1_545
Li4 O15 2.015543 1_455
Li4 O18 2.020807 1_445
Li4 O24 2.066875 1_445
Li5 O6 1.999695 1_555
Li5 O19 2.022136 1_455
Li5 O14 2.022136 1_545
Li5 O12 2.026631 1_555
Li6 O8 1.987778 1_555
Li6 O5 1.987778 1_555
Li6 O10 1.996611 1_555
Li6 O4 2.292755 1_555
Li6 O7 2.298256 1_555
Li6 O11 2.298256 1_555
Li7 O21 2.014106 1_545
Li7 O23 2.014106 1_455
Li7 O27 2.018746 1_445
Li7 O31 2.023747 1_445
Li8 O26 2.013621 1_455
Li8 O22 2.013621 1_545
Li8 O20 2.018138 1_555
Li8 O16 2.018668 1_555
Li9 O28 2.013270 1_545
Li9 O30 2.013270 1_455
Li9 O34 2.017421 1_445
Li9 O39 2.020108 1_445
Li10 O35 2.013270 1_455
Li10 O33 2.013270 1_545
Li10 O29 2.017421 1_555
Li10 O25 2.020108 1_555
Li11 O54 1.999695 1_555
Li11 O45 2.022136 1_655
Li11 O47 2.022136 1_565
Li11 O50 2.026631 1_555
Li12 O43 2.014106 1_455
Li12 O40 2.014106 1_545
Li12 O37 2.018746 1_555
Li12 O32 2.023747 1_555
Li13 O36 2.013621 1_545
Li13 O38 2.013621 1_455
Li13 O42 2.018138 1_445
Li13 O48 2.018668 1_445
Li14 O51 2.015542 1_455
Li14 O49 2.015543 1_545
Li14 O44 2.020807 1_555
Li14 O41 2.066875 1_555
Li15 O65 1.903514 1_555
Li15 O52 2.038332 1_655
Li15 O55 2.038332 1_565
Li15 O59 2.042629 1_555
Li16 O71 1.975895 1_555
Li16 O60 2.073596 1_655
Li16 O62 2.073596 1_565
Li16 O66 2.105081 1_555
Li17 O58 1.944784 1_455
Li17 O57 1.944784 1_545
Li17 O53 1.956146 1_555
Li17 O46 2.234513 1_555
Li18 O57 1.987778 1_555
Li18 O58 1.987778 1_555
Li18 O53 1.996611 1_555
Li18 O59 2.292755 1_555
Li18 O55 2.298256 1_555
Li18 O52 2.298256 1_555
Li19 O67 1.953266 1_455
Li19 O64 1.953266 1_545
Li19 O61 2.008494 1_555
Li19 O56 2.107970 1_555
Li20 O68 2.017127 1_545
Li20 O70 2.017128 1_455
Li20 O78 2.028383 1_445
Li20 O74 2.059528 1_445
Li21 O75 2.017127 1_455
Li21 O73 2.017128 1_545
Li21 O63 2.028383 1_555
Li21 O69 2.059528 1_555
Li22 O63 2.079594 1_555
Li22 O70 2.096418 1_555
Li22 O68 2.096418 1_555
Li22 O71 2.147384 1_555
Li22 O64 2.152600 1_555
Li22 O67 2.152600 1_555
Li23 O78 2.079594 1_555
Li23 O73 2.096418 1_555
Li23 O75 2.096418 1_555
Li23 O72 2.147384 1_555
Li23 O77 2.152600 1_555
Li23 O76 2.152600 1_555
O0 Ti0 2.011083 1_555
O0 Ti1 2.011083 1_555
O0 Ti2 2.065794 1_555
O1 Ti3 1.946646 1_555
O1 Ti0 1.984741 1_555
O1 Ti2 2.224520 1_555
O2 Ti0 2.034215 1_555
O2 Ti1 2.034215 1_555
O2 Ti3 2.064667 1_555
O3 Ti3 1.946646 1_555
O3 Ti1 1.984741 1_555
O3 Ti2 2.224520 1_555
O4 Ti5 1.891800 1_555
O4 Ti4 1.891800 1_555
O5 Ti1 1.936213 1_565
O5 Ti3 1.984759 1_555
O6 Ti4 2.030080 1_555
O6 Ti5 2.030080 1_555
O6 Ti6 2.031324 1_555
O7 Ti4 1.891535 1_555
O7 Ti6 1.892396 1_555
O8 Ti0 1.936213 1_655
O8 Ti3 1.984759 1_555
O9 Ti3 2.000879 1_555
O9 Ti0 2.009045 1_655
O9 Ti1 2.009045 1_565
O10 Ti1 1.946682 1_565
O10 Ti0 1.946682 1_655
O11 Ti5 1.891535 1_555
O11 Ti6 1.892396 1_555
O12 Ti7 2.007676 1_555
O12 Ti8 2.007676 1_555
O12 Ti9 2.048380 1_555
O13 Ti9 1.945365 1_555
O13 Ti6 2.086203 1_555
O13 Ti5 2.086481 1_565
O14 Ti7 2.008711 1_555
O14 Ti10 2.008907 1_555
O14 Ti9 2.048691 1_555
O15 Ti9 1.945365 1_555
O15 Ti6 2.086202 1_555
O15 Ti4 2.086481 1_655
O16 Ti7 2.017939 1_555
O16 Ti8 2.017939 1_555
O16 Ti10 2.018400 1_555
O17 Ti4 2.001166 1_655
O17 Ti5 2.001166 1_565
O17 Ti6 2.002145 1_555
O18 Ti9 1.945418 1_555
O18 Ti4 2.084763 1_655
O18 Ti5 2.084763 1_565
O19 Ti8 2.008711 1_555
O19 Ti10 2.008907 1_555
O19 Ti9 2.048691 1_555
O20 Ti11 2.014359 1_555
O20 Ti12 2.014359 1_555
O20 Ti13 2.016776 1_555
O21 Ti13 2.015712 1_555
O21 Ti8 2.019292 1_565
O21 Ti10 2.019554 1_555
O22 Ti11 2.015118 1_555
O22 Ti14 2.015370 1_555
O22 Ti13 2.017037 1_555
O23 Ti13 2.015712 1_555
O23 Ti7 2.019292 1_655
O23 Ti10 2.019554 1_555
O24 Ti7 2.013151 1_655
O24 Ti8 2.013151 1_565
O24 Ti10 2.013982 1_555
O25 Ti11 2.015453 1_555
O25 Ti12 2.015453 1_555
O25 Ti14 2.016028 1_555
O26 Ti12 2.015118 1_555
O26 Ti14 2.015370 1_555
O26 Ti13 2.017037 1_555
O27 Ti13 2.015210 1_555
O27 Ti7 2.018525 1_655
O27 Ti8 2.018525 1_565
O28 Ti17 2.016207 1_555
O28 Ti12 2.016240 1_565
O28 Ti14 2.016568 1_555
O29 Ti15 2.015542 1_555
O29 Ti16 2.015542 1_555
O29 Ti17 2.015793 1_555
O30 Ti17 2.016207 1_555
O30 Ti11 2.016240 1_655
O30 Ti14 2.016568 1_555
O31 Ti11 2.014958 1_655
O31 Ti12 2.014958 1_565
O31 Ti14 2.015615 1_555
O32 Ti15 2.014958 1_555
O32 Ti16 2.014958 1_555
O32 Ti18 2.015615 1_555
O33 Ti17 2.016207 1_555
O33 Ti15 2.016240 1_555
O33 Ti18 2.016568 1_555
O34 Ti11 2.015542 1_655
O34 Ti12 2.015542 1_565
O34 Ti17 2.015793 1_555
O35 Ti17 2.016207 1_555
O35 Ti16 2.016240 1_555
O35 Ti18 2.016568 1_555
O36 Ti16 2.015118 1_565
O36 Ti18 2.015370 1_555
O36 Ti21 2.017037 1_555
O37 Ti21 2.015210 1_555
O37 Ti19 2.018525 1_555
O37 Ti20 2.018525 1_555
O38 Ti15 2.015118 1_655
O38 Ti18 2.015370 1_555
O38 Ti21 2.017037 1_555
O39 Ti15 2.015453 1_655
O39 Ti16 2.015453 1_565
O39 Ti18 2.016028 1_555
O40 Ti21 2.015712 1_555
O40 Ti19 2.019292 1_555
O40 Ti22 2.019554 1_555
O41 Ti19 2.013151 1_555
O41 Ti20 2.013151 1_555
O41 Ti22 2.013982 1_555
O42 Ti15 2.014359 1_655
O42 Ti16 2.014359 1_565
O42 Ti21 2.016776 1_555
O43 Ti21 2.015712 1_555
O43 Ti20 2.019292 1_555
O43 Ti22 2.019554 1_555
O44 Ti25 1.945418 1_555
O44 Ti23 2.084763 1_555
O44 Ti24 2.084763 1_555
O45 Ti20 2.008711 1_565
O45 Ti22 2.008907 1_555
O45 Ti25 2.048691 1_555
O46 Ti23 2.001166 1_555
O46 Ti24 2.001166 1_555
O46 Ti26 2.002145 1_555
O47 Ti19 2.008711 1_655
O47 Ti22 2.008907 1_555
O47 Ti25 2.048691 1_555
O48 Ti19 2.017939 1_655
O48 Ti20 2.017939 1_565
O48 Ti22 2.018400 1_555
O49 Ti25 1.945365 1_555
O49 Ti26 2.086202 1_555
O49 Ti23 2.086481 1_555
O50 Ti19 2.007676 1_655
O50 Ti20 2.007676 1_565
O50 Ti25 2.048380 1_555
O51 Ti25 1.945365 1_555
O51 Ti26 2.086203 1_555
O51 Ti24 2.086481 1_555
O52 Ti24 1.891535 1_565
O52 Ti26 1.892396 1_555
O53 Ti28 1.946682 1_555
O53 Ti27 1.946682 1_555
O54 Ti23 2.030080 1_655
O54 Ti24 2.030080 1_565
O54 Ti26 2.031324 1_555
O55 Ti23 1.891535 1_655
O55 Ti26 1.892396 1_555
O56 Ti29 2.000879 1_555
O56 Ti27 2.009045 1_555
O56 Ti28 2.009045 1_555
O57 Ti27 1.936213 1_555
O57 Ti29 1.984759 1_555
O58 Ti28 1.936213 1_555
O58 Ti29 1.984759 1_555
O59 Ti24 1.891800 1_565
O59 Ti23 1.891800 1_655
O60 Ti29 1.946646 1_555
O60 Ti28 1.984741 1_565
O60 Ti32 2.224520 1_555
O61 Ti32 1.984451 1_555
O61 Ti30 2.060125 1_555
O61 Ti31 2.060125 1_555
O62 Ti29 1.946646 1_555
O62 Ti27 1.984741 1_655
O62 Ti32 2.224520 1_555
O63 Ti30 1.943495 1_555
O63 Ti31 1.943495 1_555
O64 Ti32 1.807426 1_555
O64 Ti30 2.107742 1_555
O65 Ti27 2.034215 1_655
O65 Ti28 2.034215 1_565
O65 Ti29 2.064667 1_555
O66 Ti27 2.011083 1_655
O66 Ti28 2.011083 1_565
O66 Ti32 2.065794 1_555
O67 Ti32 1.807426 1_555
O67 Ti31 2.107742 1_555
O68 Ti31 1.883447 1_565
O68 Ti35 1.969180 1_555
O69 Ti35 2.020935 1_555
O69 Ti33 2.024933 1_555
O69 Ti34 2.024933 1_555
O70 Ti30 1.883447 1_655
O70 Ti35 1.969180 1_555
O71 Ti31 1.952712 1_565
O71 Ti30 1.952712 1_655
O72 Ti34 1.952712 1_555
O72 Ti33 1.952712 1_555
O73 Ti33 1.883447 1_555
O73 Ti35 1.969180 1_555
O74 Ti35 2.020935 1_555
O74 Ti30 2.024933 1_655
O74 Ti31 2.024933 1_565
O75 Ti34 1.883447 1_555
O75 Ti35 1.969180 1_555
O76 Ti2 1.807426 1_556
O76 Ti34 2.107742 1_565
O77 Ti2 1.807426 1_556
O77 Ti33 2.107742 1_655
O78 Ti33 1.943495 1_655
O78 Ti34 1.943495 1_565
O79 Ti2 1.984451 1_556
O79 Ti33 2.060125 1_655
O79 Ti34 2.060125 1_565
