# generated using pymatgen
data_Er2Mn3Si5
_symmetry_space_group_name_H-M   'P 1'
_cell_length_a   10.56802398
_cell_length_b   10.56802398
_cell_length_c   5.41273439
_cell_angle_alpha   90.00000000
_cell_angle_beta   90.00000000
_cell_angle_gamma   90.00000000
_symmetry_Int_Tables_number   1
_chemical_formula_structural   Er2Mn3Si5
_chemical_formula_sum   'Er8 Mn12 Si20'
_cell_volume   604.51112309
_cell_formula_units_Z   4
loop_
 _symmetry_equiv_pos_site_id
 _symmetry_equiv_pos_as_xyz
  1  'x, y, z'
loop_
 _atom_site_type_symbol
 _atom_site_label
 _atom_site_symmetry_multiplicity
 _atom_site_fract_x
 _atom_site_fract_y
 _atom_site_fract_z
 _atom_site_occupancy
  Er  Er0  1  0.57462972  0.73808094  0.50000000  1
  Er  Er1  1  0.23808094  0.07462972  -0.00000000  1
  Er  Er2  1  0.76191906  0.92537028  -0.00000000  1
  Er  Er3  1  0.26191906  0.57462972  0.50000000  1
  Er  Er4  1  0.42537028  0.26191906  0.50000000  1
  Er  Er5  1  0.73808094  0.42537028  0.50000000  1
  Er  Er6  1  0.07462972  0.76191906  -0.00000000  1
  Er  Er7  1  0.92537028  0.23808094  -0.00000000  1
  Mn  Mn0  1  0.13952651  0.88180207  0.50000000  1
  Mn  Mn1  1  0.63952651  0.61819793  -0.00000000  1
  Mn  Mn2  1  0.86047349  0.11819793  0.50000000  1
  Mn  Mn3  1  0.11819793  0.13952651  0.50000000  1
  Mn  Mn4  1  0.38180207  0.63952651  -0.00000000  1
  Mn  Mn5  1  0.36047349  0.38180207  -0.00000000  1
  Mn  Mn6  1  0.50000000  0.00000000  0.25000000  1
  Mn  Mn7  1  0.88180207  0.86047349  0.50000000  1
  Mn  Mn8  1  0.61819793  0.36047349  -0.00000000  1
  Mn  Mn9  1  0.50000000  0.00000000  0.75000000  1
  Mn  Mn10  1  -0.00000000  0.50000000  0.75000000  1
  Mn  Mn11  1  -0.00000000  0.50000000  0.25000000  1
  Si  Si0  1  -0.00000000  0.00000000  0.76243856  1
  Si  Si1  1  0.32408968  0.82408968  0.25000000  1
  Si  Si2  1  0.47710206  0.18429873  -0.00000000  1
  Si  Si3  1  0.17591032  0.32408968  0.75000000  1
  Si  Si4  1  0.67591032  0.17591032  0.75000000  1
  Si  Si5  1  0.82408968  0.67591032  0.75000000  1
  Si  Si6  1  0.68429873  0.97710206  0.50000000  1
  Si  Si7  1  0.50000000  0.50000000  0.73756144  1
  Si  Si8  1  0.31570127  0.02289794  0.50000000  1
  Si  Si9  1  0.18429873  0.52289794  -0.00000000  1
  Si  Si10  1  0.81570127  0.47710206  -0.00000000  1
  Si  Si11  1  0.67591032  0.17591032  0.25000000  1
  Si  Si12  1  0.97710206  0.31570127  0.50000000  1
  Si  Si13  1  0.02289794  0.68429873  0.50000000  1
  Si  Si14  1  0.17591032  0.32408968  0.25000000  1
  Si  Si15  1  0.52289794  0.81570127  -0.00000000  1
  Si  Si16  1  0.32408968  0.82408968  0.75000000  1
  Si  Si17  1  -0.00000000  0.00000000  0.23756144  1
  Si  Si18  1  0.82408968  0.67591032  0.25000000  1
  Si  Si19  1  0.50000000  0.50000000  0.26243856  1
loop_
_geom_bond_atom_site_label_1
_geom_bond_atom_site_label_2
_geom_bond_distance
_geom_bond_site_symmetry_2
Er0 Si6 2.779177 1_555
Er0 Si15 2.880311 1_556
Er0 Si15 2.880311 1_555
Er0 Si19 2.933588 1_555
Er0 Si7 2.933588 1_555
Er0 Si5 3.035268 1_555
Er0 Si18 3.035268 1_555
Er0 Mn1 3.065924 1_555
Er0 Mn1 3.065924 1_556
Er0 Si16 3.109287 1_555
Er0 Si1 3.109287 1_555
Er0 Mn9 3.180374 1_565
Er0 Mn6 3.180374 1_565
Er1 Si2 2.779177 1_555
Er1 Si8 2.880311 1_554
Er1 Si8 2.880311 1_555
Er1 Si0 2.933588 1_554
Er1 Si17 2.933588 1_555
Er1 Si3 3.035268 1_554
Er1 Si14 3.035268 1_555
Er1 Mn3 3.065924 1_554
Er1 Mn3 3.065924 1_555
Er1 Si16 3.109287 1_544
Er1 Si1 3.109287 1_545
Er1 Mn6 3.180374 1_555
Er1 Mn9 3.180374 1_554
Er2 Si15 2.779177 1_555
Er2 Si6 2.880311 1_555
Er2 Si6 2.880311 1_554
Er2 Si17 2.933588 1_665
Er2 Si0 2.933588 1_664
Er2 Si18 3.035268 1_555
Er2 Si5 3.035268 1_554
Er2 Mn7 3.065924 1_554
Er2 Mn7 3.065924 1_555
Er2 Si11 3.109287 1_565
Er2 Si4 3.109287 1_564
Er2 Mn6 3.180374 1_565
Er2 Mn9 3.180374 1_564
Er3 Si13 2.779177 1_555
Er3 Si9 2.880311 1_555
Er3 Si9 2.880311 1_556
Er3 Si19 2.933588 1_555
Er3 Si7 2.933588 1_555
Er3 Si16 3.035268 1_555
Er3 Si1 3.035268 1_555
Er3 Mn4 3.065924 1_555
Er3 Mn4 3.065924 1_556
Er3 Si14 3.109287 1_555
Er3 Si3 3.109287 1_555
Er3 Mn10 3.180374 1_555
Er3 Mn11 3.180374 1_555
Er4 Si8 2.779177 1_555
Er4 Si2 2.880311 1_556
Er4 Si2 2.880311 1_555
Er4 Si7 2.933588 1_555
Er4 Si19 2.933588 1_555
Er4 Si14 3.035268 1_555
Er4 Si3 3.035268 1_555
Er4 Mn5 3.065924 1_556
Er4 Mn5 3.065924 1_555
Er4 Si4 3.109287 1_555
Er4 Si11 3.109287 1_555
Er4 Mn9 3.180374 1_555
Er4 Mn6 3.180374 1_555
Er5 Si12 2.779177 1_555
Er5 Si10 2.880311 1_555
Er5 Si10 2.880311 1_556
Er5 Si19 2.933588 1_555
Er5 Si7 2.933588 1_555
Er5 Si4 3.035268 1_555
Er5 Si11 3.035268 1_555
Er5 Mn8 3.065924 1_555
Er5 Mn8 3.065924 1_556
Er5 Si5 3.109287 1_555
Er5 Si18 3.109287 1_555
Er5 Mn10 3.180374 1_655
Er5 Mn11 3.180374 1_655
Er6 Si9 2.779177 1_555
Er6 Si13 2.880311 1_555
Er6 Si13 2.880311 1_554
Er6 Si0 2.933588 1_564
Er6 Si17 2.933588 1_565
Er6 Si1 3.035268 1_555
Er6 Si16 3.035268 1_554
Er6 Mn0 3.065924 1_554
Er6 Mn0 3.065924 1_555
Er6 Si5 3.109287 1_454
Er6 Si18 3.109287 1_455
Er6 Mn10 3.180374 1_554
Er6 Mn11 3.180374 1_555
Er7 Si10 2.779177 1_555
Er7 Si12 2.880311 1_555
Er7 Si12 2.880311 1_554
Er7 Si17 2.933588 1_655
Er7 Si0 2.933588 1_654
Er7 Si11 3.035268 1_555
Er7 Si4 3.035268 1_554
Er7 Mn2 3.065924 1_555
Er7 Mn2 3.065924 1_554
Er7 Si3 3.109287 1_654
Er7 Si14 3.109287 1_655
Er7 Mn11 3.180374 1_655
Er7 Mn10 3.180374 1_654
Mn0 Si8 2.385322 1_565
Mn0 Si0 2.398407 1_565
Mn0 Si17 2.398407 1_565
Mn0 Si13 2.423969 1_555
Mn0 Si16 2.451003 1_555
Mn0 Si1 2.451003 1_555
Mn1 Si10 2.385322 1_555
Mn1 Si19 2.398407 1_555
Mn1 Si7 2.398407 1_554
Mn1 Si15 2.423969 1_555
Mn1 Si18 2.451003 1_555
Mn1 Si5 2.451003 1_554
Mn2 Si6 2.385322 1_545
Mn2 Si0 2.398407 1_655
Mn2 Si17 2.398407 1_655
Mn2 Si12 2.423969 1_555
Mn2 Si4 2.451003 1_555
Mn2 Si11 2.451003 1_555
Mn3 Si12 2.385322 1_455
Mn3 Si0 2.398407 1_555
Mn3 Si17 2.398407 1_555
Mn3 Si8 2.423969 1_555
Mn3 Si14 2.451003 1_555
Mn3 Si3 2.451003 1_555
Mn4 Si15 2.385322 1_555
Mn4 Si19 2.398407 1_555
Mn4 Si7 2.398407 1_554
Mn4 Si9 2.423969 1_555
Mn4 Si16 2.451003 1_554
Mn4 Si1 2.451003 1_555
Mn5 Si9 2.385322 1_555
Mn5 Si7 2.398407 1_554
Mn5 Si19 2.398407 1_555
Mn5 Si2 2.423969 1_555
Mn5 Si3 2.451003 1_554
Mn5 Si14 2.451003 1_555
Mn6 Si2 2.383924 1_555
Mn6 Si6 2.383924 1_545
Mn6 Si15 2.383924 1_545
Mn6 Si8 2.383924 1_555
Mn6 Si1 2.629058 1_545
Mn6 Si11 2.629058 1_555
Mn7 Si13 2.385322 1_655
Mn7 Si0 2.398407 1_665
Mn7 Si17 2.398407 1_665
Mn7 Si6 2.423969 1_555
Mn7 Si5 2.451003 1_555
Mn7 Si18 2.451003 1_555
Mn8 Si2 2.385322 1_555
Mn8 Si7 2.398407 1_554
Mn8 Si19 2.398407 1_555
Mn8 Si10 2.423969 1_555
Mn8 Si4 2.451003 1_554
Mn8 Si11 2.451003 1_555
Mn9 Si6 2.383924 1_545
Mn9 Si2 2.383924 1_556
Mn9 Si15 2.383924 1_546
Mn9 Si8 2.383924 1_555
Mn9 Si16 2.629058 1_545
Mn9 Si4 2.629058 1_555
Mn10 Si12 2.383924 1_455
Mn10 Si9 2.383924 1_556
Mn10 Si13 2.383924 1_555
Mn10 Si10 2.383924 1_456
Mn10 Si3 2.629058 1_555
Mn10 Si5 2.629058 1_455
Mn11 Si10 2.383924 1_455
Mn11 Si12 2.383924 1_455
Mn11 Si9 2.383924 1_555
Mn11 Si13 2.383924 1_555
Mn11 Si18 2.629058 1_455
Mn11 Si14 2.629058 1_555
Si0 Si17 2.571714 1_556
Si1 Si8 2.500642 1_565
Si1 Si15 2.500642 1_555
Si1 Si16 2.706367 1_555
Si1 Si16 2.706367 1_554
Si2 Si4 2.500642 1_554
Si3 Si9 2.500642 1_556
Si4 Si6 2.500642 1_545
Si10 Si18 2.500642 1_555
Si10 Si5 2.500642 1_554
Si11 Si6 2.500642 1_545
Si11 Si2 2.500642 1_555
Si11 Si4 2.706367 1_555
Si11 Si4 2.706367 1_554
Si12 Si3 2.500642 1_655
Si12 Si14 2.500642 1_655
Si13 Si5 2.500642 1_455
Si13 Si18 2.500642 1_455
Si14 Si9 2.500642 1_555
Si14 Si3 2.706367 1_554
Si14 Si3 2.706367 1_555
Si15 Si16 2.500642 1_554
Si16 Si8 2.500642 1_565
Si18 Si5 2.706367 1_554
Si18 Si5 2.706367 1_555
Si19 Si7 2.571714 1_555
