# generated using pymatgen
data_In2Te3
_symmetry_space_group_name_H-M   'P 1'
_cell_length_a   13.41693257
_cell_length_b   13.41693257
_cell_length_c   13.41693257
_cell_angle_alpha   60.00000000
_cell_angle_beta   60.00000000
_cell_angle_gamma   60.00000000
_symmetry_Int_Tables_number   1
_chemical_formula_structural   In2Te3
_chemical_formula_sum   'In18 Te27'
_cell_volume   1707.83029485
_cell_formula_units_Z   9
loop_
 _symmetry_equiv_pos_site_id
 _symmetry_equiv_pos_as_xyz
  1  'x, y, z'
loop_
 _atom_site_type_symbol
 _atom_site_label
 _atom_site_symmetry_multiplicity
 _atom_site_fract_x
 _atom_site_fract_y
 _atom_site_fract_z
 _atom_site_occupancy
  In  In0  1  0.09503900  0.74646200  0.74646200  1
  In  In1  1  0.41860400  0.41860400  0.08139600  1
  In  In2  1  0.41203700  0.74646200  0.74646200  1
  In  In3  1  0.74646200  0.74646200  0.09503900  1
  In  In4  1  0.41203700  0.09503900  0.74646200  1
  In  In5  1  0.09503900  0.74646200  0.41203700  1
  In  In6  1  0.74646200  0.41203700  0.09503900  1
  In  In7  1  0.08139600  0.08139600  0.41860400  1
  In  In8  1  0.09503900  0.41203700  0.74646200  1
  In  In9  1  0.41860400  0.08139600  0.41860400  1
  In  In10  1  0.41860400  0.08139600  0.08139600  1
  In  In11  1  0.74646200  0.09503900  0.74646200  1
  In  In12  1  0.74646200  0.74646200  0.41203700  1
  In  In13  1  0.41203700  0.74646200  0.09503900  1
  In  In14  1  0.74646200  0.09503900  0.41203700  1
  In  In15  1  0.08139600  0.41860400  0.08139600  1
  In  In16  1  0.08139600  0.41860400  0.41860400  1
  In  In17  1  0.74646200  0.41203700  0.74646200  1
  Te  Te0  1  0.65225500  0.34774500  0.34774500  1
  Te  Te1  1  0.65225500  0.34774500  0.65225500  1
  Te  Te2  1  0.65225500  0.65225500  0.34774500  1
  Te  Te3  1  0.30251900  0.68054700  0.00846700  1
  Te  Te4  1  0.67416500  0.67416500  0.67416500  1
  Te  Te5  1  0.34310800  0.97067600  0.34310800  1
  Te  Te6  1  0.00846700  0.68054700  0.30251900  1
  Te  Te7  1  0.68054700  0.30251900  0.00846700  1
  Te  Te8  1  0.30251900  0.00846700  0.68054700  1
  Te  Te9  1  0.00846700  0.68054700  0.00846700  1
  Te  Te10  1  0.97750600  0.67416500  0.67416500  1
  Te  Te11  1  0.00846700  0.30251900  0.00846700  1
  Te  Te12  1  0.67416500  0.67416500  0.97750600  1
  Te  Te13  1  0.34310800  0.34310800  0.97067600  1
  Te  Te14  1  0.00000000  0.00000000  0.00000000  1
  Te  Te15  1  0.68054700  0.00846700  0.30251900  1
  Te  Te16  1  0.34774500  0.65225500  0.65225500  1
  Te  Te17  1  0.34774500  0.65225500  0.34774500  1
  Te  Te18  1  0.97067600  0.34310800  0.34310800  1
  Te  Te19  1  0.67416500  0.97750600  0.67416500  1
  Te  Te20  1  0.30251900  0.00846700  0.00846700  1
  Te  Te21  1  0.00846700  0.30251900  0.68054700  1
  Te  Te22  1  0.68054700  0.00846700  0.00846700  1
  Te  Te23  1  0.34774500  0.34774500  0.65225500  1
  Te  Te24  1  0.34310800  0.34310800  0.34310800  1
  Te  Te25  1  0.00846700  0.00846700  0.68054700  1
  Te  Te26  1  0.00846700  0.00846700  0.30251900  1
loop_
_geom_bond_atom_site_label_1
_geom_bond_atom_site_label_2
_geom_bond_distance
_geom_bond_site_symmetry_2
In0 Te16 2.778045 1_555
In0 Te25 2.885113 1_565
In0 Te9 2.885113 1_556
In0 Te10 2.892871 1_455
In1 Te24 2.879978 1_555
In1 Te13 2.879978 1_554
In1 Te3 2.888961 1_555
In1 Te7 2.888961 1_555
In2 Te16 2.778045 1_555
In2 Te3 2.885113 1_556
In2 Te8 2.885113 1_565
In2 Te4 2.892882 1_555
In3 Te2 2.778045 1_555
In3 Te22 2.885113 1_565
In3 Te9 2.885113 1_655
In3 Te12 2.892871 1_554
In4 Te23 2.778045 1_555
In4 Te20 2.885113 1_556
In4 Te8 2.885113 1_555
In4 Te19 2.892881 1_545
In5 Te17 2.778045 1_555
In5 Te26 2.885113 1_565
In5 Te6 2.885113 1_555
In5 Te10 2.892881 1_455
In6 Te0 2.778045 1_555
In6 Te11 2.885113 1_655
In6 Te7 2.885113 1_555
In6 Te12 2.892881 1_554
In7 Te18 2.879978 1_455
In7 Te5 2.879978 1_545
In7 Te25 2.888961 1_555
In7 Te26 2.888961 1_555
In8 Te23 2.778045 1_555
In8 Te11 2.885113 1_556
In8 Te21 2.885113 1_555
In8 Te10 2.892881 1_455
In9 Te24 2.879978 1_555
In9 Te5 2.879978 1_545
In9 Te8 2.888961 1_555
In9 Te15 2.888961 1_555
In10 Te13 2.879978 1_554
In10 Te5 2.879978 1_545
In10 Te22 2.888961 1_555
In10 Te20 2.888961 1_555
In11 Te1 2.778045 1_555
In11 Te25 2.885113 1_655
In11 Te22 2.885113 1_556
In11 Te19 2.892871 1_545
In12 Te2 2.778045 1_555
In12 Te6 2.885113 1_655
In12 Te15 2.885113 1_565
In12 Te4 2.892882 1_555
In13 Te17 2.778045 1_555
In13 Te20 2.885113 1_565
In13 Te3 2.885113 1_555
In13 Te12 2.892881 1_554
In14 Te0 2.778045 1_555
In14 Te26 2.885113 1_655
In14 Te15 2.885113 1_555
In14 Te19 2.892881 1_545
In15 Te18 2.879978 1_455
In15 Te13 2.879978 1_554
In15 Te9 2.888961 1_555
In15 Te11 2.888961 1_555
In16 Te24 2.879978 1_555
In16 Te18 2.879978 1_455
In16 Te6 2.888961 1_555
In16 Te21 2.888961 1_555
In17 Te1 2.778045 1_555
In17 Te21 2.885113 1_655
In17 Te7 2.885113 1_556
In17 Te4 2.892882 1_555
