# generated using pymatgen
data_Gd8Zr7O26
_symmetry_space_group_name_H-M   'P 1'
_cell_length_a   12.80998492
_cell_length_b   12.80998492
_cell_length_c   14.62561772
_cell_angle_alpha   31.04608267
_cell_angle_beta   31.04608267
_cell_angle_gamma   34.57584985
_symmetry_Int_Tables_number   1
_chemical_formula_structural   Gd8Zr7O26
_chemical_formula_sum   'Gd8 Zr7 O26'
_cell_volume   601.24243761
_cell_formula_units_Z   1
loop_
 _symmetry_equiv_pos_site_id
 _symmetry_equiv_pos_as_xyz
  1  'x, y, z'
loop_
 _atom_site_type_symbol
 _atom_site_label
 _atom_site_symmetry_multiplicity
 _atom_site_fract_x
 _atom_site_fract_y
 _atom_site_fract_z
 _atom_site_occupancy
  Gd  Gd0  1  0.00000000  0.00000000  0.00000000  1
  Gd  Gd1  1  0.00000000  0.50000000  0.50000000  1
  Gd  Gd2  1  0.99461400  0.99461400  0.76405600  1
  Gd  Gd3  1  0.50000000  0.00000000  0.50000000  1
  Gd  Gd4  1  0.00000000  0.50000000  0.00000000  1
  Gd  Gd5  1  0.50000000  0.00000000  0.00000000  1
  Gd  Gd6  1  0.00000000  0.00000000  0.50000000  1
  Gd  Gd7  1  0.00538600  0.00538600  0.23594400  1
  Zr  Zr0  1  0.48113800  0.48113800  0.77469300  1
  Zr  Zr1  1  0.50000000  0.50000000  0.50000000  1
  Zr  Zr2  1  0.00487000  0.50255100  0.25999400  1
  Zr  Zr3  1  0.51886200  0.51886200  0.22530700  1
  Zr  Zr4  1  0.50255100  0.00487000  0.25999400  1
  Zr  Zr5  1  0.99513000  0.49744900  0.74000600  1
  Zr  Zr6  1  0.49744900  0.99513000  0.74000600  1
  O  O0  1  0.13102800  0.13102800  0.67332800  1
  O  O1  1  0.15965500  0.15965500  0.39874700  1
  O  O2  1  0.59120800  0.14476300  0.19457500  1
  O  O3  1  0.12806100  0.12806100  0.18252300  1
  O  O4  1  0.58477100  0.15808000  0.96725300  1
  O  O5  1  0.14476300  0.59120800  0.19457500  1
  O  O6  1  0.15808000  0.58477100  0.96725300  1
  O  O7  1  0.15806500  0.15806500  0.88565800  1
  O  O8  1  0.40102400  0.40102400  0.77390200  1
  O  O9  1  0.81037600  0.43132200  0.56489200  1
  O  O10  1  0.58827300  0.16544200  0.66099300  1
  O  O11  1  0.83455800  0.41172700  0.33900700  1
  O  O12  1  0.56867800  0.18962400  0.43510800  1
  O  O13  1  0.16544200  0.58827300  0.66099300  1
  O  O14  1  0.43132200  0.81037600  0.56489200  1
  O  O15  1  0.18962400  0.56867800  0.43510800  1
  O  O16  1  0.84193500  0.84193500  0.11434200  1
  O  O17  1  0.59897600  0.59897600  0.22609800  1
  O  O18  1  0.41172700  0.83455800  0.33900700  1
  O  O19  1  0.84192000  0.41522900  0.03274700  1
  O  O20  1  0.85523700  0.40879200  0.80542500  1
  O  O21  1  0.41522900  0.84192000  0.03274700  1
  O  O22  1  0.87193900  0.87193900  0.81747700  1
  O  O23  1  0.40879200  0.85523700  0.80542500  1
  O  O24  1  0.84034500  0.84034500  0.60125300  1
  O  O25  1  0.86897200  0.86897200  0.32667200  1
loop_
_geom_bond_atom_site_label_1
_geom_bond_atom_site_label_2
_geom_bond_distance
_geom_bond_site_symmetry_2
Gd0 O25 2.370361 1_445
Gd0 O0 2.370361 1_554
Gd0 O7 2.478608 1_554
Gd0 O16 2.478608 1_445
Gd0 O23 2.544723 1_544
Gd0 O20 2.544723 1_454
Gd0 O5 2.544723 1_545
Gd0 O2 2.544723 1_455
Gd1 O20 2.277932 1_455
Gd1 O5 2.277932 1_555
Gd1 O25 2.297684 1_455
Gd1 O0 2.297684 1_555
Gd1 O15 2.390244 1_555
Gd1 O9 2.390244 1_455
Gd2 O0 2.224871 1_665
Gd2 O22 2.325596 1_555
Gd2 O16 2.420296 1_556
Gd2 O1 2.477010 1_665
Gd2 O4 2.569943 1_565
Gd2 O6 2.569943 1_655
Gd2 O9 2.732410 1_565
Gd2 O14 2.732410 1_655
Gd3 O23 2.277932 1_545
Gd3 O2 2.277932 1_555
Gd3 O25 2.297684 1_545
Gd3 O0 2.297684 1_555
Gd3 O12 2.390244 1_555
Gd3 O14 2.390244 1_545
Gd4 O22 2.314502 1_454
Gd4 O3 2.314502 1_555
Gd4 O8 2.506542 1_554
Gd4 O17 2.506542 1_455
Gd4 O6 2.564636 1_554
Gd4 O19 2.564636 1_455
Gd4 O11 2.586075 1_455
Gd4 O13 2.586075 1_554
Gd5 O22 2.314502 1_544
Gd5 O3 2.314502 1_555
Gd5 O8 2.506542 1_554
Gd5 O17 2.506542 1_545
Gd5 O4 2.564636 1_554
Gd5 O21 2.564636 1_545
Gd5 O18 2.586075 1_545
Gd5 O10 2.586075 1_554
Gd6 O22 2.295644 1_445
Gd6 O3 2.295644 1_555
Gd6 O18 2.591760 1_545
Gd6 O11 2.591760 1_455
Gd6 O13 2.591760 1_545
Gd6 O10 2.591760 1_455
Gd6 O1 2.658416 1_555
Gd6 O24 2.658416 1_445
Gd7 O25 2.224871 1_445
Gd7 O3 2.325596 1_555
Gd7 O7 2.420296 1_554
Gd7 O24 2.477010 1_445
Gd7 O19 2.569943 1_455
Gd7 O21 2.569943 1_545
Gd7 O15 2.732410 1_545
Gd7 O12 2.732410 1_455
O1 Zr4 2.149941 1_555
O1 Zr2 2.149941 1_555
O2 Zr4 1.992025 1_555
O4 Zr0 2.051502 1_555
O4 Zr4 2.138000 1_556
O5 Zr2 1.992025 1_555
O6 Zr0 2.051502 1_555
O6 Zr2 2.138000 1_556
O7 Zr5 2.145181 1_455
O7 Zr6 2.145181 1_545
O8 Zr0 1.970180 1_555
O8 Zr1 2.122258 1_555
O9 Zr0 2.087681 1_555
O9 Zr2 2.158607 1_655
O10 Zr1 2.116745 1_555
O10 Zr6 2.237166 1_545
O11 Zr1 2.116745 1_555
O11 Zr2 2.237166 1_655
O12 Zr3 2.087681 1_555
O12 Zr6 2.158607 1_545
O13 Zr1 2.116745 1_555
O13 Zr5 2.237166 1_455
O14 Zr0 2.087681 1_555
O14 Zr4 2.158607 1_565
O15 Zr3 2.087681 1_555
O15 Zr5 2.158607 1_455
O16 Zr4 2.145181 1_565
O16 Zr2 2.145181 1_655
O17 Zr3 1.970180 1_555
O17 Zr1 2.122258 1_555
O18 Zr1 2.116745 1_555
O18 Zr4 2.237166 1_565
O19 Zr3 2.051502 1_555
O19 Zr5 2.138000 1_554
O20 Zr5 1.992025 1_555
O21 Zr3 2.051502 1_555
O21 Zr6 2.138000 1_554
O23 Zr6 1.992025 1_555
O24 Zr5 2.149941 1_555
O24 Zr6 2.149941 1_555
