# generated using pymatgen
data_BaNb2O6
_symmetry_space_group_name_H-M   'P 1'
_cell_length_a   3.97929800
_cell_length_b   6.23495100
_cell_length_c   10.72756600
_cell_angle_alpha   90.00000000
_cell_angle_beta   90.00000000
_cell_angle_gamma   90.00000000
_symmetry_Int_Tables_number   1
_chemical_formula_structural   BaNb2O6
_chemical_formula_sum   'Ba2 Nb4 O12'
_cell_volume   266.15872260
_cell_formula_units_Z   2
loop_
 _symmetry_equiv_pos_site_id
 _symmetry_equiv_pos_as_xyz
  1  'x, y, z'
loop_
 _atom_site_type_symbol
 _atom_site_label
 _atom_site_symmetry_multiplicity
 _atom_site_fract_x
 _atom_site_fract_y
 _atom_site_fract_z
 _atom_site_occupancy
  Ba  Ba0  1  0.50000000  0.31227900  0.75000000  1
  Ba  Ba1  1  0.50000000  0.68772100  0.25000000  1
  Nb  Nb0  1  0.00000000  0.21513300  0.07822100  1
  Nb  Nb1  1  0.00000000  0.21513300  0.42177900  1
  Nb  Nb2  1  0.00000000  0.78486700  0.57822100  1
  Nb  Nb3  1  0.00000000  0.78486700  0.92177900  1
  O  O0  1  0.50000000  0.22118100  0.41306900  1
  O  O1  1  0.00000000  0.89540300  0.39291900  1
  O  O2  1  0.00000000  0.89540300  0.10708100  1
  O  O3  1  0.50000000  0.22118100  0.08693100  1
  O  O4  1  0.00000000  0.10459700  0.60708100  1
  O  O5  1  0.50000000  0.77881900  0.58693100  1
  O  O6  1  0.50000000  0.77881900  0.91306900  1
  O  O7  1  0.00000000  0.34386600  0.25000000  1
  O  O8  1  0.00000000  0.50000000  0.00000000  1
  O  O9  1  0.00000000  0.10459700  0.89291900  1
  O  O10  1  0.00000000  0.65613400  0.75000000  1
  O  O11  1  0.00000000  0.50000000  0.50000000  1
loop_
_geom_bond_atom_site_label_1
_geom_bond_atom_site_label_2
_geom_bond_distance
_geom_bond_site_symmetry_2
Ba0 O4 2.825961 1_655
Ba0 O9 2.825961 1_555
Ba0 O9 2.825961 1_655
Ba0 O4 2.825961 1_555
Ba0 O10 2.924909 1_555
Ba0 O10 2.924909 1_655
Ba1 O1 2.825961 1_655
Ba1 O1 2.825961 1_555
Ba1 O2 2.825961 1_555
Ba1 O2 2.825961 1_655
Ba1 O7 2.924909 1_655
Ba1 O7 2.924909 1_555
Nb0 O8 1.964375 1_555
Nb0 O3 1.992199 1_555
Nb0 O3 1.992199 1_455
Nb0 O7 2.009985 1_555
Nb0 O2 2.017398 1_545
Nb0 O9 2.103921 1_554
Nb1 O11 1.964375 1_555
Nb1 O0 1.992199 1_555
Nb1 O0 1.992199 1_455
Nb1 O7 2.009985 1_555
Nb1 O1 2.017398 1_545
Nb1 O4 2.103921 1_555
Nb2 O11 1.964375 1_555
Nb2 O5 1.992199 1_455
Nb2 O5 1.992199 1_555
Nb2 O10 2.009985 1_555
Nb2 O4 2.017398 1_565
Nb2 O1 2.103921 1_555
Nb3 O8 1.964375 1_556
Nb3 O6 1.992199 1_455
Nb3 O6 1.992199 1_555
Nb3 O10 2.009985 1_555
Nb3 O9 2.017398 1_565
Nb3 O2 2.103921 1_556
