# generated using pymatgen
data_Li2CuGe
_symmetry_space_group_name_H-M   'P 1'
_cell_length_a   4.21642500
_cell_length_b   4.28366600
_cell_length_c   5.82342800
_cell_angle_alpha   90.00000000
_cell_angle_beta   90.00000000
_cell_angle_gamma   90.00000000
_symmetry_Int_Tables_number   1
_chemical_formula_structural   Li2CuGe
_chemical_formula_sum   'Li4 Cu2 Ge2'
_cell_volume   105.18133803
_cell_formula_units_Z   2
loop_
 _symmetry_equiv_pos_site_id
 _symmetry_equiv_pos_as_xyz
  1  'x, y, z'
loop_
 _atom_site_type_symbol
 _atom_site_label
 _atom_site_symmetry_multiplicity
 _atom_site_fract_x
 _atom_site_fract_y
 _atom_site_fract_z
 _atom_site_occupancy
  Li  Li0  1  0.50000000  0.78262200  0.18750300  1
  Li  Li1  1  0.00000000  0.21737800  0.68750300  1
  Li  Li2  1  0.50000000  0.28566500  0.93759500  1
  Li  Li3  1  0.00000000  0.71433500  0.43759500  1
  Cu  Cu0  1  0.50000000  0.27248800  0.43621100  1
  Cu  Cu1  1  0.00000000  0.72751200  0.93621100  1
  Ge  Ge0  1  0.00000000  0.22830300  0.18869100  1
  Ge  Ge1  1  0.50000000  0.77169700  0.68869100  1
loop_
_geom_bond_atom_site_label_1
_geom_bond_atom_site_label_2
_geom_bond_distance
_geom_bond_site_symmetry_2
Cu0 Li0 2.549715 1_545
Cu0 Ge0 2.560871 1_655
Cu0 Ge0 2.560871 1_555
Cu0 Li1 2.577164 1_555
Cu0 Li1 2.577164 1_655
Cu0 Ge1 2.595135 1_555
Cu0 Ge1 2.600722 1_545
Cu0 Li0 2.621633 1_555
Cu0 Li3 2.833202 1_655
Cu0 Li3 2.833202 1_555
Cu0 Li2 2.904203 1_554
Cu0 Li2 2.920319 1_555
Cu1 Li1 2.549715 1_565
Cu1 Ge1 2.560871 1_455
Cu1 Ge1 2.560871 1_555
Cu1 Li0 2.577164 1_456
Cu1 Li0 2.577164 1_556
Cu1 Ge0 2.595135 1_556
Cu1 Ge0 2.600722 1_566
Cu1 Li1 2.621633 1_555
Cu1 Li2 2.833202 1_455
Cu1 Li2 2.833202 1_555
Cu1 Li3 2.904203 1_555
Cu1 Li3 2.920319 1_556
Ge0 Li3 2.536867 1_555
Ge0 Li2 2.577418 1_554
Ge0 Li2 2.577418 1_454
Ge0 Li3 2.635966 1_545
Ge0 Li0 2.844197 1_445
Ge0 Li0 2.844197 1_545
Ge0 Li1 2.905173 1_555
Ge0 Li1 2.919007 1_554
Ge1 Li2 2.536867 1_555
Ge1 Li3 2.577418 1_555
Ge1 Li3 2.577418 1_655
Ge1 Li2 2.635966 1_565
Ge1 Li1 2.844197 1_565
Ge1 Li1 2.844197 1_665
Ge1 Li0 2.905173 1_556
Ge1 Li0 2.919007 1_555
