# generated using pymatgen
data_KNiPH2O5
_symmetry_space_group_name_H-M   'P 1'
_cell_length_a   5.61027600
_cell_length_b   8.36101402
_cell_length_c   9.54144701
_cell_angle_alpha   89.99388533
_cell_angle_beta   90.00040254
_cell_angle_gamma   90.00443644
_symmetry_Int_Tables_number   1
_chemical_formula_structural   KNiPH2O5
_chemical_formula_sum   'K4 Ni4 P4 H8 O20'
_cell_volume   447.56634090
_cell_formula_units_Z   4
loop_
 _symmetry_equiv_pos_site_id
 _symmetry_equiv_pos_as_xyz
  1  'x, y, z'
loop_
 _atom_site_type_symbol
 _atom_site_label
 _atom_site_symmetry_multiplicity
 _atom_site_fract_x
 _atom_site_fract_y
 _atom_site_fract_z
 _atom_site_occupancy
  K  K0  1  0.49998100  0.45765200  0.31536100  1
  K  K1  1  0.49998200  0.45765300  0.81538700  1
  K  K2  1  0.99998100  0.54279300  0.06536400  1
  K  K3  1  0.99998200  0.54276900  0.56536900  1
  Ni  Ni0  1  0.49965700  0.01728900  0.75227000  1
  Ni  Ni1  1  0.00003900  0.98283700  0.50252600  1
  Ni  Ni2  1  0.50004900  0.01737800  0.25221500  1
  Ni  Ni3  1  0.00029300  0.98276300  0.00260300  1
  P  P0  1  0.50003100  0.79128200  0.03902900  1
  P  P1  1  0.50003100  0.79127400  0.53900800  1
  P  P2  1  0.00003300  0.20852000  0.28905900  1
  P  P3  1  0.99995100  0.20845600  0.78912900  1
  H  H0  1  0.64033800  0.19106200  0.04272700  1
  H  H1  1  0.64034600  0.19106200  0.54276900  1
  H  H2  1  0.35966900  0.19107400  0.04274700  1
  H  H3  1  0.35963800  0.19107900  0.54276500  1
  H  H4  1  0.85961000  0.80917400  0.29289600  1
  H  H5  1  0.85958500  0.80917200  0.79290800  1
  H  H6  1  0.14037600  0.80918300  0.29289100  1
  H  H7  1  0.14037100  0.80913600  0.79288800  1
  O  O0  1  0.49998500  0.82173300  0.37975200  1
  O  O1  1  0.49999300  0.82174400  0.87974300  1
  O  O2  1  0.00002000  0.17825900  0.12978400  1
  O  O3  1  0.00002000  0.17830900  0.62981000  1
  O  O4  1  0.50001000  0.61122100  0.06814400  1
  O  O5  1  0.49998100  0.61119500  0.56812900  1
  O  O6  1  0.00001200  0.38863400  0.31808500  1
  O  O7  1  0.00000600  0.38843800  0.81846000  1
  O  O8  1  0.50000900  0.20778700  0.10386500  1
  O  O9  1  0.49998300  0.20779200  0.60387600  1
  O  O10  1  0.00000200  0.79228900  0.35393400  1
  O  O11  1  0.00003000  0.79227400  0.85393500  1
  O  O12  1  0.72139100  0.87582700  0.11193500  1
  O  O13  1  0.72149000  0.87574500  0.61185800  1
  O  O14  1  0.27850100  0.87574500  0.11187100  1
  O  O15  1  0.27848100  0.87574300  0.61186000  1
  O  O16  1  0.77842100  0.12395700  0.36188300  1
  O  O17  1  0.77830300  0.12382300  0.86183000  1
  O  O18  1  0.22166300  0.12396000  0.36187300  1
  O  O19  1  0.22175300  0.12391700  0.86185600  1
loop_
_geom_bond_atom_site_label_1
_geom_bond_atom_site_label_2
_geom_bond_distance
_geom_bond_site_symmetry_2
K0 O4 2.685510 1_555
K0 O5 2.732286 1_555
K0 O6 2.863782 1_555
K0 O6 2.864209 1_655
K0 O8 2.904751 1_555
K0 O0 3.105532 1_555
K0 O18 3.227730 1_555
K0 O16 3.228302 1_555
K1 O5 2.685746 1_555
K1 O4 2.732291 1_556
K1 O7 2.864184 1_555
K1 O7 2.864535 1_655
K1 O9 2.904826 1_555
K1 O1 3.105548 1_555
K1 O19 3.227750 1_555
K1 O17 3.228851 1_555
K2 O7 2.686280 1_654
K2 O6 2.734072 1_655
K2 O4 2.862896 1_555
K2 O4 2.863128 1_655
K2 O11 2.901688 1_654
K2 O2 3.109171 1_655
K2 O14 3.223005 1_655
K2 O12 3.224084 1_555
K3 O6 2.688578 1_655
K3 O7 2.737863 1_655
K3 O5 2.862957 1_655
K3 O5 2.863056 1_555
K3 O10 2.901962 1_655
K3 O3 3.108604 1_655
K3 O15 3.223086 1_655
K3 O13 3.223290 1_555
Ni0 O1 2.037642 1_545
Ni0 O19 2.078314 1_555
Ni0 O17 2.080863 1_555
Ni0 O9 2.131028 1_555
Ni0 O15 2.176063 1_545
Ni0 O13 2.178285 1_545
Ni1 O3 2.036283 1_565
Ni1 O15 2.080939 1_555
Ni1 O13 2.081280 1_455
Ni1 O10 2.132790 1_555
Ni1 O18 2.176861 1_565
Ni1 O16 2.176863 1_465
Ni2 O0 2.038676 1_545
Ni2 O16 2.080388 1_555
Ni2 O18 2.080524 1_555
Ni2 O8 2.130162 1_555
Ni2 O12 2.175969 1_545
Ni2 O14 2.177262 1_545
Ni3 O2 2.035859 1_565
Ni3 O14 2.079364 1_555
Ni3 O12 2.082207 1_455
Ni3 O11 2.132905 1_554
Ni3 O19 2.177029 1_564
Ni3 O17 2.178548 1_464
H0 O8 0.989800 1_555
H1 O9 0.989783 1_555
H2 O8 0.989699 1_555
H3 O9 0.989682 1_555
H4 O10 0.989685 1_655
H5 O11 0.989875 1_655
H6 O10 0.989633 1_555
H7 O11 0.989470 1_555
O0 P1 1.540699 1_555
O1 P0 1.540985 1_556
O2 P2 1.540658 1_555
O3 P3 1.540916 1_455
O4 P0 1.530879 1_555
O5 P1 1.531038 1_555
O6 P2 1.531219 1_555
O7 P3 1.530664 1_455
O12 P0 1.589286 1_555
O13 P1 1.589211 1_555
O14 P0 1.589553 1_555
O15 P1 1.589705 1_555
O16 P2 1.590058 1_655
O17 P3 1.589964 1_555
O18 P2 1.590162 1_555
O19 P3 1.590476 1_455
