# generated using pymatgen
data_P2SN3Cl5O
_symmetry_space_group_name_H-M   'P 1'
_cell_length_a   10.60575300
_cell_length_b   10.70721825
_cell_length_c   17.39545332
_cell_angle_alpha   89.46993530
_cell_angle_beta   106.00982816
_cell_angle_gamma   119.19328866
_symmetry_Int_Tables_number   1
_chemical_formula_structural   P2SN3Cl5O
_chemical_formula_sum   'P12 S6 N18 Cl30 O6'
_cell_volume   1639.01747636
_cell_formula_units_Z   6
loop_
 _symmetry_equiv_pos_site_id
 _symmetry_equiv_pos_as_xyz
  1  'x, y, z'
loop_
 _atom_site_type_symbol
 _atom_site_label
 _atom_site_symmetry_multiplicity
 _atom_site_fract_x
 _atom_site_fract_y
 _atom_site_fract_z
 _atom_site_occupancy
  P  P0  1  0.82655900  0.39641500  0.12089600  1
  P  P1  1  0.67655100  0.12364500  0.19214200  1
  P  P2  1  0.71214400  0.77242900  0.89052000  1
  P  P3  1  0.32344900  0.87635500  0.80785800  1
  P  P4  1  0.51403600  0.50005200  0.21526500  1
  P  P5  1  0.28785600  0.22757100  0.10948000  1
  P  P6  1  0.17344100  0.60358500  0.87910400  1
  P  P7  1  0.70460100  0.84237200  0.54739900  1
  P  P8  1  0.76965800  0.59227500  0.57269500  1
  P  P9  1  0.23034200  0.40772500  0.42730500  1
  P  P10  1  0.48596400  0.49994800  0.78473500  1
  P  P11  1  0.29539900  0.15762800  0.45260100  1
  S  S0  1  0.82230500  0.61444500  0.20819800  1
  S  S1  1  0.38053000  0.71823400  0.48058900  1
  S  S2  1  0.63014600  0.98821300  0.90474200  1
  S  S3  1  0.61947000  0.28176600  0.51941100  1
  S  S4  1  0.17769500  0.38555500  0.79180200  1
  S  S5  1  0.36985400  0.01178700  0.09525800  1
  N  N0  1  0.35248400  0.48978600  0.81534200  1
  N  N1  1  0.52206700  0.01272500  0.12281200  1
  N  N2  1  0.77112800  0.28447800  0.17963900  1
  N  N3  1  0.11152500  0.43766100  0.84504300  1
  N  N4  1  0.47793300  0.98727500  0.87718800  1
  N  N5  1  0.63476800  0.43232400  0.53201700  1
  N  N6  1  0.22887200  0.71552200  0.82036100  1
  N  N7  1  0.39280000  0.15587400  0.13304700  1
  N  N8  1  0.88847500  0.56233900  0.15495700  1
  N  N9  1  0.54193300  0.82757500  0.53722400  1
  N  N10  1  0.60720000  0.84412600  0.86695300  1
  N  N11  1  0.45806700  0.17242500  0.46277600  1
  N  N12  1  0.36523200  0.56767600  0.46798300  1
  N  N13  1  0.64877700  0.62707500  0.83455200  1
  N  N14  1  0.28801000  0.29918400  0.44900700  1
  N  N15  1  0.35122300  0.37292500  0.16544800  1
  N  N16  1  0.64751600  0.51021400  0.18465800  1
  N  N17  1  0.71199000  0.70081600  0.55099300  1
  Cl  Cl0  1  0.84720100  0.60382300  0.69374700  1
  Cl  Cl1  1  0.66714700  0.34167600  0.01248800  1
  Cl  Cl2  1  0.95520200  0.64643600  0.53911500  1
  Cl  Cl3  1  0.00138200  0.40461200  0.09301700  1
  Cl  Cl4  1  0.15279900  0.39617700  0.30625300  1
  Cl  Cl5  1  0.78381700  0.94308500  0.45798400  1
  Cl  Cl6  1  0.33285300  0.65832400  0.98751200  1
  Cl  Cl7  1  0.99861800  0.59538800  0.90698300  1
  Cl  Cl8  1  0.74765900  0.73999000  0.00703700  1
  Cl  Cl9  1  0.92256900  0.90792600  0.88691600  1
  Cl  Cl10  1  0.04479800  0.35356400  0.46088500  1
  Cl  Cl11  1  0.36777400  0.78784200  0.36713600  1
  Cl  Cl12  1  0.15777500  0.01331800  0.35182600  1
  Cl  Cl13  1  0.19840400  0.97227700  0.79144800  1
  Cl  Cl14  1  0.63977200  0.12864600  0.29895100  1
  Cl  Cl15  1  0.91510700  0.59168200  0.32579000  1
  Cl  Cl16  1  0.08489300  0.40831800  0.67421000  1
  Cl  Cl17  1  0.21618300  0.05691500  0.54201600  1
  Cl  Cl18  1  0.49366900  0.31622300  0.78988700  1
  Cl  Cl19  1  0.50633100  0.68377700  0.21011300  1
  Cl  Cl20  1  0.76825500  0.14946100  0.84844300  1
  Cl  Cl21  1  0.84222500  0.98668200  0.64817400  1
  Cl  Cl22  1  0.63222600  0.21215800  0.63286400  1
  Cl  Cl23  1  0.55345300  0.48184000  0.33364800  1
  Cl  Cl24  1  0.25234100  0.26001000  0.99296300  1
  Cl  Cl25  1  0.36022800  0.87135400  0.70104900  1
  Cl  Cl26  1  0.07743100  0.09207400  0.11308400  1
  Cl  Cl27  1  0.80159600  0.02772300  0.20855200  1
  Cl  Cl28  1  0.23174500  0.85053900  0.15155700  1
  Cl  Cl29  1  0.44654700  0.51816000  0.66635200  1
  O  O0  1  0.73681300  0.27616300  0.49576500  1
  O  O1  1  0.12537300  0.23327500  0.78901800  1
  O  O2  1  0.26318700  0.72383700  0.50423500  1
  O  O3  1  0.28985800  0.96341300  0.00998400  1
  O  O4  1  0.71014200  0.03658700  0.99001600  1
  O  O5  1  0.87462700  0.76672500  0.21098200  1
loop_
_geom_bond_atom_site_label_1
_geom_bond_atom_site_label_2
_geom_bond_distance
_geom_bond_site_symmetry_2
N0 S4 1.556017 1_555
N0 P10 1.601193 1_555
N1 S5 1.547053 1_555
N1 P1 1.608647 1_555
N2 P1 1.564395 1_555
N2 P0 1.564498 1_555
N3 S4 1.552915 1_555
N3 P6 1.614103 1_555
N4 S2 1.547053 1_555
N4 P3 1.608647 1_555
N5 S3 1.550777 1_555
N5 P8 1.598240 1_555
N6 P3 1.564395 1_555
N6 P6 1.564498 1_555
N7 S5 1.560689 1_555
N7 P5 1.603802 1_555
N8 S0 1.552915 1_555
N8 P0 1.614103 1_555
N9 S1 1.551637 1_555
N9 P7 1.611906 1_555
N10 S2 1.560689 1_555
N10 P2 1.603802 1_555
N11 S3 1.551637 1_555
N11 P11 1.611906 1_555
N12 S1 1.550777 1_555
N12 P9 1.598240 1_555
N13 P2 1.571147 1_555
N13 P10 1.577658 1_555
N14 P11 1.555224 1_555
N14 P9 1.557289 1_555
N15 P5 1.571147 1_555
N15 P4 1.577658 1_555
N16 S0 1.556017 1_555
N16 P4 1.601193 1_555
N17 P7 1.555224 1_555
N17 P8 1.557289 1_555
Cl0 P8 2.018960 1_555
Cl1 P0 2.013284 1_555
Cl2 P8 2.016049 1_555
Cl3 P0 2.004285 1_455
Cl4 P9 2.018960 1_555
Cl5 P7 2.023365 1_555
Cl6 P6 2.013284 1_555
Cl7 P6 2.004285 1_655
Cl8 P2 2.015981 1_554
Cl9 P2 2.001575 1_555
Cl10 P9 2.016049 1_555
Cl11 S1 2.095858 1_555
Cl12 P11 2.007406 1_555
Cl13 P3 2.002402 1_555
Cl14 P1 2.007272 1_555
Cl15 S0 2.080071 1_555
Cl16 S4 2.080071 1_555
Cl17 P11 2.023365 1_555
Cl18 P10 2.008491 1_555
Cl19 P4 2.008491 1_555
Cl20 S2 2.092479 1_545
Cl21 P7 2.007406 1_555
Cl22 S3 2.095858 1_555
Cl23 P4 2.012668 1_555
Cl24 P5 2.015981 1_556
Cl25 P3 2.007272 1_555
Cl26 P5 2.001575 1_555
Cl27 P1 2.002402 1_555
Cl28 S5 2.092479 1_565
Cl29 P10 2.012668 1_555
O0 S3 1.441271 1_555
O1 S4 1.439721 1_555
O2 S1 1.441271 1_555
O3 S5 1.442162 1_565
O4 S2 1.442162 1_545
O5 S0 1.439721 1_555
