# generated using pymatgen
data_U(OF)2
_symmetry_space_group_name_H-M   'P 1'
_cell_length_a   5.26058128
_cell_length_b   5.26058128
_cell_length_c   4.29407966
_cell_angle_alpha   79.72250271
_cell_angle_beta   79.72250271
_cell_angle_gamma   37.84287637
_symmetry_Int_Tables_number   1
_chemical_formula_structural   U(OF)2
_chemical_formula_sum   'U1 O2 F2'
_cell_volume   71.59547699
_cell_formula_units_Z   1
loop_
 _symmetry_equiv_pos_site_id
 _symmetry_equiv_pos_as_xyz
  1  'x, y, z'
loop_
 _atom_site_type_symbol
 _atom_site_label
 _atom_site_symmetry_multiplicity
 _atom_site_fract_x
 _atom_site_fract_y
 _atom_site_fract_z
 _atom_site_occupancy
  U  U0  1  0.00000000  0.00000000  0.00000000  1
  O  O0  1  0.61338700  0.61338700  0.05373400  1
  O  O1  1  0.38661300  0.38661300  0.94626600  1
  F  F0  1  0.87951900  0.87951900  0.45536600  1
  F  F1  1  0.12048100  0.12048100  0.54463400  1
loop_
_geom_bond_atom_site_label_1
_geom_bond_atom_site_label_2
_geom_bond_distance
_geom_bond_site_symmetry_2
O0 U0 2.082047 1_655
O0 U0 2.082047 1_565
O1 U0 2.082047 1_566
O1 U0 2.082047 1_656
F0 U0 2.092104 1_665
F1 U0 2.092104 1_556
