# generated using pymatgen
data_CoH12(BrO7)2
_symmetry_space_group_name_H-M   'P 1'
_cell_length_a   7.85278376
_cell_length_b   9.95138467
_cell_length_c   18.30189149
_cell_angle_alpha   95.56990024
_cell_angle_beta   89.97085827
_cell_angle_gamma   66.80586637
_symmetry_Int_Tables_number   1
_chemical_formula_structural   CoH12(BrO7)2
_chemical_formula_sum   'Co4 H48 Br8 O56'
_cell_volume   1307.24392431
_cell_formula_units_Z   4
loop_
 _symmetry_equiv_pos_site_id
 _symmetry_equiv_pos_as_xyz
  1  'x, y, z'
loop_
 _atom_site_type_symbol
 _atom_site_label
 _atom_site_symmetry_multiplicity
 _atom_site_fract_x
 _atom_site_fract_y
 _atom_site_fract_z
 _atom_site_occupancy
  Co  Co0  1  0.50003300  0.99994000  0.49994700  1
  Co  Co1  1  0.24997400  0.50004400  0.75003700  1
  Co  Co2  1  0.99996800  0.00005800  0.00005400  1
  Co  Co3  1  0.75002200  0.49995800  0.24996300  1
  H  H0  1  0.43777600  0.52397500  0.62799400  1
  H  H1  1  0.18778700  0.02399400  0.87804800  1
  H  H2  1  0.93778900  0.52403800  0.12798900  1
  H  H3  1  0.68777700  0.02400200  0.37793300  1
  H  H4  1  0.73935800  0.72327200  0.52832900  1
  H  H5  1  0.48933800  0.22330700  0.77843200  1
  H  H6  1  0.23933400  0.72332400  0.02844100  1
  H  H7  1  0.98933300  0.22329100  0.27832400  1
  H  H8  1  0.98785800  0.42271600  0.67873800  1
  H  H9  1  0.73783700  0.92272600  0.92877200  1
  H  H10  1  0.48783400  0.42270200  0.17871500  1
  H  H11  1  0.23788000  0.92268500  0.42867500  1
  H  H12  1  0.58938500  0.42294500  0.67855000  1
  H  H13  1  0.33939900  0.92294900  0.92858900  1
  H  H14  1  0.08942200  0.42291700  0.17852500  1
  H  H15  1  0.83941000  0.92291500  0.42848600  1
  H  H16  1  0.53688800  0.72330200  0.52832900  1
  H  H17  1  0.28686000  0.22333900  0.77843600  1
  H  H18  1  0.03686800  0.72334900  0.02844100  1
  H  H19  1  0.78688300  0.22331700  0.27833700  1
  H  H20  1  0.03850800  0.52386200  0.62809700  1
  H  H21  1  0.78847900  0.02388700  0.87815000  1
  H  H22  1  0.53843600  0.52392900  0.12809200  1
  H  H23  1  0.28848400  0.02389100  0.37803700  1
  H  H24  1  0.56221700  0.47597800  0.37195700  1
  H  H25  1  0.31222200  0.97602200  0.62198700  1
  H  H26  1  0.06222500  0.47600000  0.87205900  1
  H  H27  1  0.81220400  0.97598700  0.12203200  1
  H  H28  1  0.26066300  0.27668700  0.47155100  1
  H  H29  1  0.01064600  0.77672000  0.72165200  1
  H  H30  1  0.76064600  0.27671900  0.97168000  1
  H  H31  1  0.51067800  0.77667900  0.22158900  1
  H  H32  1  0.01217700  0.57726900  0.32123200  1
  H  H33  1  0.76214300  0.07728200  0.57124600  1
  H  H34  1  0.51212800  0.57730500  0.82131200  1
  H  H35  1  0.26214900  0.07731700  0.07130400  1
  H  H36  1  0.41060500  0.57705000  0.32142200  1
  H  H37  1  0.16062000  0.07705400  0.57143500  1
  H  H38  1  0.91059900  0.57707500  0.82150400  1
  H  H39  1  0.66055800  0.07709300  0.07148900  1
  H  H40  1  0.46314400  0.27665300  0.47155000  1
  H  H41  1  0.21311800  0.77668700  0.72164900  1
  H  H42  1  0.96310100  0.27669600  0.97168200  1
  H  H43  1  0.71313600  0.77665400  0.22157700  1
  H  H44  1  0.96154400  0.47609000  0.37185300  1
  H  H45  1  0.71149700  0.97613900  0.62188400  1
  H  H46  1  0.46150600  0.47611700  0.87195500  1
  H  H47  1  0.21155000  0.97608900  0.12193000  1
  Br  Br0  1  0.83591700  0.32810400  0.49735500  1
  Br  Br1  1  0.58590400  0.82811700  0.74754700  1
  Br  Br2  1  0.33588800  0.32816000  0.99759700  1
  Br  Br3  1  0.08592800  0.82808500  0.24739800  1
  Br  Br4  1  0.16411000  0.67185500  0.50241000  1
  Br  Br5  1  0.91408300  0.17190300  0.75262000  1
  Br  Br6  1  0.66408300  0.67189500  0.00263100  1
  Br  Br7  1  0.41409100  0.17187800  0.25243800  1
  O  O0  1  0.76869800  0.46226300  0.56451300  1
  O  O1  1  0.51869700  0.96223300  0.81469900  1
  O  O2  1  0.26867200  0.46232100  0.06472200  1
  O  O3  1  0.01866500  0.96232600  0.31451100  1
  O  O4  1  0.23129800  0.53775000  0.43525700  1
  O  O5  1  0.98130300  0.03774400  0.68546500  1
  O  O6  1  0.73133000  0.53767800  0.93550600  1
  O  O7  1  0.48133900  0.03768300  0.18532900  1
  O  O8  1  0.91663900  0.16655000  0.53076100  1
  O  O9  1  0.66662900  0.66655500  0.78094600  1
  O  O10  1  0.41660700  0.16661800  0.03100800  1
  O  O11  1  0.16661000  0.66659800  0.28085200  1
  O  O12  1  0.65977100  0.33781500  0.44518300  1
  O  O13  1  0.40974900  0.83785100  0.69536300  1
  O  O14  1  0.15975300  0.33785300  0.94540800  1
  O  O15  1  0.90982700  0.83772300  0.19521100  1
  O  O16  1  0.00233200  0.33810700  0.44521800  1
  O  O17  1  0.75231800  0.83814200  0.69540200  1
  O  O18  1  0.50232200  0.33814200  0.94544600  1
  O  O19  1  0.25239200  0.83800600  0.19525400  1
  O  O20  1  0.08337100  0.83343700  0.46902900  1
  O  O21  1  0.83337000  0.33344900  0.71920800  1
  O  O22  1  0.58338000  0.83341000  0.96919500  1
  O  O23  1  0.33339500  0.33339000  0.21899700  1
  O  O24  1  0.34027000  0.66210800  0.55459500  1
  O  O25  1  0.09022300  0.16218900  0.80479700  1
  O  O26  1  0.84019900  0.66224100  0.05481000  1
  O  O27  1  0.59020700  0.16221200  0.30463400  1
  O  O28  1  0.99770000  0.66182200  0.55455900  1
  O  O29  1  0.74766300  0.16190400  0.80475900  1
  O  O30  1  0.49764100  0.66195000  0.05477500  1
  O  O31  1  0.24763300  0.16192400  0.30458600  1
  O  O32  1  0.45691900  0.46364700  0.66889400  1
  O  O33  1  0.20692400  0.96365400  0.91894100  1
  O  O34  1  0.95696500  0.46352700  0.16881900  1
  O  O35  1  0.70695300  0.96353000  0.41877900  1
  O  O36  1  0.61242200  0.77485800  0.51310600  1
  O  O37  1  0.36239200  0.27490100  0.76321100  1
  O  O38  1  0.11238900  0.77492000  0.01321900  1
  O  O39  1  0.86239800  0.27486800  0.26309600  1
  O  O40  1  0.07964200  0.46345100  0.66896300  1
  O  O41  1  0.82964200  0.96343500  0.91900000  1
  O  O42  1  0.57967800  0.46336000  0.16890200  1
  O  O43  1  0.32973700  0.96333400  0.41884500  1
  O  O44  1  0.54307300  0.53636600  0.33108200  1
  O  O45  1  0.29309100  0.03634200  0.58108600  1
  O  O46  1  0.04306200  0.53644000  0.83120500  1
  O  O47  1  0.79301400  0.03649300  0.08120000  1
  O  O48  1  0.38761000  0.22509300  0.48677500  1
  O  O49  1  0.13758700  0.72513200  0.73687300  1
  O  O50  1  0.88758300  0.22513700  0.98690400  1
  O  O51  1  0.63761400  0.72510000  0.23682000  1
  O  O52  1  0.92038300  0.53654500  0.33100400  1
  O  O53  1  0.67036400  0.03654200  0.58101800  1
  O  O54  1  0.42028300  0.53664400  0.83113100  1
  O  O55  1  0.17027300  0.03669400  0.08113800  1
loop_
_geom_bond_atom_site_label_1
_geom_bond_atom_site_label_2
_geom_bond_distance
_geom_bond_site_symmetry_2
Co0 O36 2.098037 1_555
Co0 O53 2.098610 1_565
Co0 O48 2.098734 1_565
Co0 O43 2.098822 1_555
Co0 O45 2.099218 1_565
Co0 O35 2.099446 1_555
Co1 O49 2.098112 1_555
Co1 O40 2.098622 1_555
Co1 O37 2.098652 1_555
Co1 O54 2.098772 1_555
Co1 O32 2.099295 1_555
Co1 O46 2.099430 1_555
Co2 O50 2.097974 1_554
Co2 O41 2.098442 1_544
Co2 O38 2.098570 1_645
Co2 O55 2.098751 1_655
Co2 O33 2.098963 1_644
Co2 O47 2.099307 1_555
Co3 O39 2.098006 1_555
Co3 O52 2.098344 1_555
Co3 O51 2.098518 1_555
Co3 O42 2.098542 1_555
Co3 O44 2.098992 1_555
Co3 O34 2.099228 1_555
H0 O32 0.979592 1_555
H1 O33 0.979565 1_545
H2 O34 0.979657 1_555
H3 O35 0.979654 1_545
H4 O36 0.979664 1_555
H5 O37 0.979727 1_555
H6 O38 0.979730 1_555
H7 O39 0.979674 1_555
H8 O40 0.979753 1_655
H9 O41 0.979702 1_555
H10 O42 0.979779 1_555
H11 O43 0.979875 1_555
H12 O32 0.979571 1_555
H13 O33 0.979603 1_555
H14 O34 0.979699 1_455
H15 O35 0.979704 1_555
H16 O36 0.979779 1_555
H17 O37 0.979826 1_555
H18 O38 0.979808 1_555
H19 O39 0.979729 1_555
H20 O40 0.979647 1_555
H21 O41 0.979653 1_545
H22 O42 0.979757 1_555
H23 O43 0.979667 1_545
H24 O44 0.979588 1_555
H25 O45 0.979565 1_565
H26 O46 0.979584 1_555
H27 O47 0.979646 1_565
H28 O48 0.979752 1_555
H29 O49 0.979686 1_555
H30 O50 0.979670 1_555
H31 O51 0.979702 1_555
H32 O52 0.979732 1_455
H33 O53 0.979741 1_555
H34 O54 0.979832 1_555
H35 O55 0.979839 1_555
H36 O44 0.979599 1_555
H37 O45 0.979588 1_555
H38 O46 0.979724 1_655
H39 O47 0.979711 1_555
H40 O48 0.979823 1_555
H41 O49 0.979758 1_555
H42 O50 0.979695 1_555
H43 O51 0.979810 1_555
H44 O52 0.979654 1_555
H45 O53 0.979601 1_565
H46 O54 0.979720 1_555
H47 O55 0.979710 1_565
Br0 O0 1.642395 1_555
Br0 O16 1.657660 1_655
Br0 O12 1.657823 1_555
Br0 O8 1.657931 1_555
Br1 O1 1.642058 1_555
Br1 O17 1.657832 1_555
Br1 O9 1.657940 1_555
Br1 O13 1.657959 1_555
Br2 O2 1.642003 1_556
Br2 O18 1.657841 1_555
Br2 O10 1.657871 1_556
Br2 O14 1.657972 1_555
Br3 O3 1.642345 1_555
Br3 O19 1.657699 1_555
Br3 O11 1.657768 1_555
Br3 O15 1.657851 1_455
Br4 O4 1.642003 1_555
Br4 O28 1.657883 1_455
Br4 O20 1.657957 1_555
Br4 O24 1.657973 1_555
Br5 O5 1.642358 1_555
Br5 O29 1.657696 1_555
Br5 O25 1.657831 1_655
Br5 O21 1.657914 1_555
Br6 O6 1.642345 1_554
Br6 O30 1.657661 1_555
Br6 O26 1.657828 1_555
Br6 O22 1.657853 1_554
Br7 O7 1.642015 1_555
Br7 O31 1.657843 1_555
Br7 O23 1.657870 1_555
Br7 O27 1.657983 1_555
