# generated using pymatgen
data_Ca3Yb2Zr3Ti8O28
_symmetry_space_group_name_H-M   'P 1'
_cell_length_a   8.66054000
_cell_length_b   8.84333007
_cell_length_c   9.01466087
_cell_angle_alpha   94.92165522
_cell_angle_beta   95.56652546
_cell_angle_gamma   116.18275074
_symmetry_Int_Tables_number   1
_chemical_formula_structural   Ca3Yb2Zr3Ti8O28
_chemical_formula_sum   'Ca3 Yb2 Zr3 Ti8 O28'
_cell_volume   610.22577928
_cell_formula_units_Z   1
loop_
 _symmetry_equiv_pos_site_id
 _symmetry_equiv_pos_as_xyz
  1  'x, y, z'
loop_
 _atom_site_type_symbol
 _atom_site_label
 _atom_site_symmetry_multiplicity
 _atom_site_fract_x
 _atom_site_fract_y
 _atom_site_fract_z
 _atom_site_occupancy
  Ca  Ca0  1  0.77357700  0.27754600  0.02002800  1
  Ca  Ca1  1  0.12661100  0.29655400  0.39390300  1
  Ca  Ca2  1  0.15360100  0.55264000  0.91723200  1
  Yb  Yb0  1  0.71211000  0.29670400  0.49461200  1
  Yb  Yb1  1  0.31732500  0.02241100  0.81946500  1
  Zr  Zr0  1  0.75830300  0.96870700  0.32837700  1
  Zr  Zr1  1  0.45815100  0.41599700  0.13659700  1
  Zr  Zr2  1  0.82638600  0.69546700  0.82774300  1
  Ti  Ti0  1  0.35722500  0.04098900  0.18592500  1
  Ti  Ti1  1  0.46165400  0.37725100  0.69301600  1
  Ti  Ti2  1  0.00637500  0.02165600  0.10179700  1
  Ti  Ti3  1  0.33439100  0.65984300  0.58454300  1
  Ti  Ti4  1  0.36539100  0.72004000  0.23853100  1
  Ti  Ti5  1  0.98768000  0.07402300  0.68153600  1
  Ti  Ti6  1  0.62987700  0.63549500  0.46798700  1
  Ti  Ti7  1  0.55524600  0.83906800  0.89121300  1
  O  O0  1  0.20381900  0.19551100  0.64518900  1
  O  O1  1  0.16116200  0.94421700  0.02489200  1
  O  O2  1  0.51090400  0.20782400  0.66028600  1
  O  O3  1  0.60811900  0.04275900  0.85914000  1
  O  O4  1  0.48478100  0.45522200  0.90036800  1
  O  O5  1  0.63225100  0.45433400  0.32955800  1
  O  O6  1  0.59040200  0.69607700  0.24538800  1
  O  O7  1  0.48760100  0.20525100  0.05248000  1
  O  O8  1  0.88066700  0.15472800  0.51535400  1
  O  O9  1  0.06929800  0.16576700  0.90583800  1
  O  O10  1  0.97531500  0.25247000  0.83341500  1
  O  O11  1  0.57768700  0.07160600  0.29701300  1
  O  O12  1  0.89469600  0.53886900  0.92901000  1
  O  O13  1  0.90112800  0.16349300  0.18566000  1
  O  O14  1  0.70419500  0.52247500  0.62772700  1
  O  O15  1  0.24952700  0.48925400  0.15538800  1
  O  O16  1  0.01339400  0.88059000  0.74417800  1
  O  O17  1  0.27703800  0.20420700  0.23607400  1
  O  O18  1  0.96842500  0.93317300  0.27128900  1
  O  O19  1  0.11958100  0.53664800  0.49747600  1
  O  O20  1  0.30763100  0.75170000  0.77023900  1
  O  O21  1  0.39405900  0.47318900  0.52179800  1
  O  O22  1  0.58726400  0.71971600  0.72247000  1
  O  O23  1  0.41766300  0.80580000  0.05487500  1
  O  O24  1  0.24244000  0.83536700  0.27083800  1
  O  O25  1  0.47796400  0.78304600  0.45194200  1
  O  O26  1  0.78139900  0.85426000  0.98687300  1
  O  O27  1  0.81368500  0.84606000  0.51273800  1
loop_
_geom_bond_atom_site_label_1
_geom_bond_atom_site_label_2
_geom_bond_distance
_geom_bond_site_symmetry_2
Ca0 O3 2.218654 1_554
Ca0 O13 2.321337 1_555
Ca0 O7 2.324591 1_555
Ca0 O12 2.338206 1_554
Ca0 O10 2.603809 1_554
Ca1 O21 2.261476 1_555
Ca1 O19 2.273437 1_555
Ca1 O17 2.342553 1_555
Ca1 O13 2.367294 1_455
Ca1 O8 2.374697 1_455
Ca1 O0 2.637740 1_555
Ca1 O15 2.851693 1_555
Ca1 O18 2.938860 1_445
Ca2 O12 2.204825 1_455
Ca2 O20 2.303282 1_555
Ca2 O10 2.411208 1_455
Ca2 O15 2.425897 1_556
Ca2 O23 2.497278 1_556
O0 Ti5 1.780511 1_455
O0 Ti1 2.069412 1_555
O0 Yb1 2.686776 1_555
O1 Ti2 1.911966 1_565
O1 Ti0 1.936287 1_565
O1 Yb1 2.370017 1_564
O2 Ti1 1.739657 1_555
O2 Yb0 2.320011 1_555
O2 Yb1 2.450066 1_555
O3 Ti7 1.710303 1_545
O3 Yb1 2.432509 1_555
O4 Ti1 1.895742 1_555
O4 Zr1 2.204500 1_556
O5 Ti6 1.953274 1_555
O5 Zr1 2.086399 1_555
O5 Yb0 2.375376 1_555
O6 Ti4 2.046833 1_555
O6 Ti6 2.154895 1_555
O6 Zr0 2.207382 1_555
O6 Zr1 2.295694 1_555
O7 Ti0 1.986979 1_555
O7 Zr1 2.080366 1_555
O7 Yb1 2.431766 1_554
O8 Ti5 2.027400 1_555
O8 Zr0 2.075936 1_545
O8 Yb0 2.312379 1_555
O9 Ti5 2.044882 1_455
O9 Ti2 2.236477 1_556
O10 O9 1.486666 1_655
O10 Ti5 2.045273 1_555
O11 Ti0 1.961629 1_555
O11 Zr0 2.137584 1_545
O11 Yb0 2.331319 1_555
O12 Zr2 1.984010 1_555
O13 Ti2 1.988859 1_655
O13 Zr0 2.227361 1_545
O14 Ti6 2.030186 1_555
O14 Ti1 2.096887 1_555
O14 Zr2 2.106939 1_555
O14 Yb0 2.270812 1_555
O15 Ti4 1.875731 1_555
O15 Zr1 2.187781 1_555
O16 Ti5 1.942195 1_465
O16 Zr2 1.994779 1_455
O16 Yb1 2.357159 1_565
O17 Ti0 1.898300 1_555
O17 Zr1 2.177365 1_555
O17 Ti2 2.311039 1_555
O18 Ti2 1.769304 1_665
O18 Zr0 2.081760 1_555
O19 Ti3 1.745091 1_555
O20 Ti3 1.877200 1_555
O20 Ti7 2.079566 1_555
O20 Yb1 2.359716 1_565
O21 Ti1 1.983055 1_555
O21 Ti3 1.990183 1_555
O21 Ti6 2.047269 1_555
O22 Ti7 1.889300 1_555
O22 Ti3 2.226649 1_555
O22 Zr2 2.298013 1_555
O22 Ti6 2.463198 1_555
O22 Ti1 2.706386 1_555
O23 Ti4 1.891821 1_555
O23 Ti7 1.946582 1_554
O23 Ti0 2.579625 1_565
O24 Ti4 1.796206 1_555
O24 Ti0 1.916230 1_565
O25 Ti3 1.865028 1_555
O25 Ti4 1.983658 1_555
O25 Ti6 2.228202 1_555
O25 Zr0 2.674290 1_555
O26 Ti2 1.964926 1_666
O26 Ti7 2.004512 1_555
O26 Zr2 2.104076 1_555
O27 Ti6 1.815183 1_555
O27 Zr0 2.186833 1_555
O27 Ti5 2.235673 1_565
