# generated using pymatgen
data_Na3LiMg4(Si2O5)6
_symmetry_space_group_name_H-M   'P 1'
_cell_length_a   10.19071252
_cell_length_b   10.19071252
_cell_length_c   14.66865900
_cell_angle_alpha   90.00000000
_cell_angle_beta   90.00000000
_cell_angle_gamma   120.51215795
_symmetry_Int_Tables_number   1
_chemical_formula_structural   Na3LiMg4(Si2O5)6
_chemical_formula_sum   'Na6 Li2 Mg8 Si24 O60'
_cell_volume   1312.39813706
_cell_formula_units_Z   2
loop_
 _symmetry_equiv_pos_site_id
 _symmetry_equiv_pos_as_xyz
  1  'x, y, z'
loop_
 _atom_site_type_symbol
 _atom_site_label
 _atom_site_symmetry_multiplicity
 _atom_site_fract_x
 _atom_site_fract_y
 _atom_site_fract_z
 _atom_site_occupancy
  Na  Na0  1  0.00000000  0.00000000  0.97311100  1
  Na  Na1  1  0.28933500  0.61342900  0.46566000  1
  Na  Na2  1  0.38657100  0.71066500  0.96566000  1
  Na  Na3  1  0.61342900  0.28933500  0.96566000  1
  Na  Na4  1  0.71066500  0.38657100  0.46566000  1
  Na  Na5  1  0.00000000  0.00000000  0.47311100  1
  Li  Li0  1  0.00000000  0.50000000  0.24733000  1
  Li  Li1  1  0.50000000  0.00000000  0.74733000  1
  Mg  Mg0  1  0.50000000  0.50000000  0.24269400  1
  Mg  Mg1  1  0.00000000  0.50000000  0.75246800  1
  Mg  Mg2  1  0.33661700  0.68662100  0.73790000  1
  Mg  Mg3  1  0.31337900  0.66338300  0.23790000  1
  Mg  Mg4  1  0.50000000  0.00000000  0.25246800  1
  Mg  Mg5  1  0.66338300  0.31337900  0.73790000  1
  Mg  Mg6  1  0.68662100  0.33661700  0.23790000  1
  Mg  Mg7  1  0.50000000  0.50000000  0.74269400  1
  Si  Si0  1  0.11228800  0.36467800  0.89356600  1
  Si  Si1  1  0.09707800  0.36284500  0.09226300  1
  Si  Si2  1  0.10635900  0.12757300  0.67903300  1
  Si  Si3  1  0.19328000  0.26112100  0.31434100  1
  Si  Si4  1  0.63715500  0.90292200  0.59226300  1
  Si  Si5  1  0.63532200  0.88771200  0.39356600  1
  Si  Si6  1  0.73887900  0.80672000  0.81434100  1
  Si  Si7  1  0.87242700  0.89364100  0.17903300  1
  Si  Si8  1  0.24699700  0.88392500  0.88809300  1
  Si  Si9  1  0.24570300  0.88678000  0.09844300  1
  Si  Si10  1  0.88678000  0.24570300  0.59844300  1
  Si  Si11  1  0.88392500  0.24699700  0.38809300  1
  Si  Si12  1  0.11322000  0.75429700  0.59844300  1
  Si  Si13  1  0.11607500  0.75300300  0.38809300  1
  Si  Si14  1  0.75429700  0.11322000  0.09844300  1
  Si  Si15  1  0.75300300  0.11607500  0.88809300  1
  Si  Si16  1  0.26112100  0.19328000  0.81434100  1
  Si  Si17  1  0.12757300  0.10635900  0.17903300  1
  Si  Si18  1  0.36284500  0.09707800  0.59226300  1
  Si  Si19  1  0.36467800  0.11228800  0.39356600  1
  Si  Si20  1  0.89364100  0.87242700  0.67903300  1
  Si  Si21  1  0.80672000  0.73887900  0.31434100  1
  Si  Si22  1  0.88771200  0.63532200  0.89356600  1
  Si  Si23  1  0.90292200  0.63715500  0.09226300  1
  O  O0  1  0.16358700  0.23504200  0.88900200  1
  O  O1  1  0.13052200  0.21865200  0.09538100  1
  O  O2  1  0.02547200  0.22149700  0.63615600  1
  O  O3  1  0.02431300  0.22470400  0.35220100  1
  O  O4  1  0.34125200  0.48248100  0.57383400  1
  O  O5  1  0.34991100  0.51397700  0.66332600  1
  O  O6  1  0.31987000  0.44021900  0.31550700  1
  O  O7  1  0.17072100  0.44862700  0.99351100  1
  O  O8  1  0.15173300  0.47988900  0.17436000  1
  O  O9  1  0.17409000  0.49413800  0.81571800  1
  O  O10  1  0.55978100  0.68013000  0.81550700  1
  O  O11  1  0.48602300  0.65008900  0.16332600  1
  O  O12  1  0.78134800  0.86947800  0.59538100  1
  O  O13  1  0.76495800  0.83641300  0.38900200  1
  O  O14  1  0.51751900  0.65874800  0.07383400  1
  O  O15  1  0.55137300  0.82927900  0.49351100  1
  O  O16  1  0.77529600  0.97568700  0.85220100  1
  O  O17  1  0.77850300  0.97452800  0.13615600  1
  O  O18  1  0.52011100  0.84826700  0.67436000  1
  O  O19  1  0.50586200  0.82591000  0.31571800  1
  O  O20  1  0.14582900  0.65233100  0.66806900  1
  O  O21  1  0.15849700  0.64613300  0.33093200  1
  O  O22  1  0.72622100  0.08808200  0.58308400  1
  O  O23  1  0.73175400  0.07440100  0.38824600  1
  O  O24  1  0.06964000  0.68367500  0.49357200  1
  O  O25  1  0.35386700  0.84150300  0.83093200  1
  O  O26  1  0.34766900  0.85417100  0.16806900  1
  O  O27  1  0.31632500  0.93036000  0.99357200  1
  O  O28  1  0.92559900  0.26824600  0.88824600  1
  O  O29  1  0.91191800  0.27377900  0.08308400  1
  O  O30  1  0.07440100  0.73175400  0.88824600  1
  O  O31  1  0.08808200  0.72622100  0.08308400  1
  O  O32  1  0.68367500  0.06964000  0.99357200  1
  O  O33  1  0.64613300  0.15849700  0.83093200  1
  O  O34  1  0.65233100  0.14582900  0.16806900  1
  O  O35  1  0.93036000  0.31632500  0.49357200  1
  O  O36  1  0.27377900  0.91191800  0.58308400  1
  O  O37  1  0.26824600  0.92559900  0.38824600  1
  O  O38  1  0.85417100  0.34766900  0.66806900  1
  O  O39  1  0.84150300  0.35386700  0.33093200  1
  O  O40  1  0.47988900  0.15173300  0.67436000  1
  O  O41  1  0.49413800  0.17409000  0.31571800  1
  O  O42  1  0.22470400  0.02431300  0.85220100  1
  O  O43  1  0.22149700  0.02547200  0.13615600  1
  O  O44  1  0.44862700  0.17072100  0.49351100  1
  O  O45  1  0.48248100  0.34125200  0.07383400  1
  O  O46  1  0.21865200  0.13052200  0.59538100  1
  O  O47  1  0.23504200  0.16358700  0.38900200  1
  O  O48  1  0.44021900  0.31987000  0.81550700  1
  O  O49  1  0.51397700  0.34991100  0.16332600  1
  O  O50  1  0.84826700  0.52011100  0.17436000  1
  O  O51  1  0.82591000  0.50586200  0.81571800  1
  O  O52  1  0.82927900  0.55137300  0.99351100  1
  O  O53  1  0.65008900  0.48602300  0.66332600  1
  O  O54  1  0.68013000  0.55978100  0.31550700  1
  O  O55  1  0.65874800  0.51751900  0.57383400  1
  O  O56  1  0.97452800  0.77850300  0.63615600  1
  O  O57  1  0.97568700  0.77529600  0.35220100  1
  O  O58  1  0.83641300  0.76495800  0.88900200  1
  O  O59  1  0.86947800  0.78134800  0.09538100  1
loop_
_geom_bond_atom_site_label_1
_geom_bond_atom_site_label_2
_geom_bond_distance
_geom_bond_site_symmetry_2
Na0 O58 2.446180 1_445
Na0 O0 2.446180 1_555
Na0 O1 2.634651 1_556
Na0 O59 2.634651 1_446
Na0 O42 2.806153 1_555
Na0 O16 2.806153 1_445
Na1 O4 2.301182 1_555
Na1 O15 2.484276 1_555
Na1 O21 2.499152 1_555
Na1 O24 2.705545 1_555
Na1 O6 2.936233 1_555
Na2 O14 2.301182 1_556
Na2 O7 2.484276 1_555
Na2 O25 2.499152 1_555
Na2 O27 2.705545 1_555
Na2 O10 2.936233 1_555
Na3 O45 2.301182 1_556
Na3 O52 2.484276 1_555
Na3 O33 2.499152 1_555
Na3 O32 2.705545 1_555
Na3 O48 2.936233 1_555
Na4 O55 2.301182 1_555
Na4 O44 2.484276 1_555
Na4 O39 2.499152 1_555
Na4 O35 2.705545 1_555
Na4 O54 2.936233 1_555
Na5 O13 2.446180 1_445
Na5 O47 2.446180 1_555
Na5 O12 2.634651 1_445
Na5 O46 2.634651 1_555
Na5 O3 2.806153 1_555
Na5 O57 2.806153 1_445
Li0 O21 1.971792 1_555
Li0 O39 1.971792 1_455
Li0 O8 1.974952 1_555
Li0 O50 1.974952 1_455
Li1 O33 1.971792 1_555
Li1 O25 1.971792 1_545
Li1 O40 1.974952 1_555
Li1 O18 1.974952 1_545
Mg0 O54 1.935449 1_555
Mg0 O6 1.935449 1_555
Mg0 O49 1.984020 1_555
Mg0 O11 1.984020 1_555
Mg1 O38 1.951519 1_455
Mg1 O20 1.951519 1_555
Mg1 O9 2.029636 1_555
Mg1 O51 2.029636 1_455
Mg2 O18 1.987721 1_555
Mg2 O25 2.025501 1_555
Mg2 O20 2.064371 1_555
Mg2 O5 2.133628 1_555
Mg2 O9 2.143558 1_555
Mg2 O10 2.573918 1_555
Mg3 O8 1.987721 1_555
Mg3 O21 2.025501 1_555
Mg3 O26 2.064371 1_555
Mg3 O11 2.133628 1_555
Mg3 O19 2.143558 1_555
Mg3 O6 2.573918 1_555
Mg4 O26 1.951519 1_545
Mg4 O34 1.951519 1_555
Mg4 O41 2.029636 1_555
Mg4 O19 2.029636 1_545
Mg5 O40 1.987721 1_555
Mg5 O33 2.025501 1_555
Mg5 O38 2.064371 1_555
Mg5 O53 2.133628 1_555
Mg5 O51 2.143558 1_555
Mg5 O48 2.573918 1_555
Mg6 O50 1.987721 1_555
Mg6 O39 2.025501 1_555
Mg6 O34 2.064371 1_555
Mg6 O49 2.133628 1_555
Mg6 O41 2.143558 1_555
Mg6 O54 2.573918 1_555
Mg7 O10 1.935449 1_555
Mg7 O48 1.935449 1_555
Mg7 O5 1.984020 1_555
Mg7 O53 1.984020 1_555
O0 Si0 1.650554 1_555
O0 Si16 1.672720 1_555
O1 Si17 1.667690 1_555
O1 Si1 1.669136 1_555
O2 Si10 1.648794 1_455
O2 Si2 1.671030 1_555
O3 Si11 1.644873 1_455
O3 Si3 1.661980 1_555
O4 O5 1.343615 1_555
O6 Si3 1.613927 1_555
O7 Si0 1.648789 1_555
O7 Si1 1.661188 1_556
O8 Si1 1.583834 1_555
O9 Si0 1.611660 1_555
O10 Si6 1.613927 1_555
O11 O14 1.343615 1_555
O12 Si20 1.667690 1_555
O12 Si4 1.669136 1_555
O13 Si5 1.650554 1_555
O13 Si21 1.672720 1_555
O15 Si5 1.648789 1_555
O15 Si4 1.661188 1_555
O16 Si15 1.644873 1_565
O16 Si6 1.661980 1_555
O17 Si14 1.648794 1_565
O17 Si7 1.671030 1_555
O18 Si4 1.583834 1_555
O19 Si5 1.611660 1_555
O20 Si12 1.607452 1_555
O21 Si13 1.598162 1_555
O22 Si10 1.624582 1_555
O22 Si4 1.631960 1_545
O23 Si5 1.640982 1_545
O23 Si11 1.651894 1_555
O24 Si12 1.660436 1_555
O24 Si13 1.666590 1_555
O25 Si8 1.598162 1_555
O26 Si9 1.607452 1_555
O27 Si9 1.660436 1_556
O27 Si8 1.666590 1_555
O28 Si0 1.640982 1_655
O28 Si15 1.651894 1_555
O29 Si14 1.624582 1_555
O29 Si1 1.631960 1_655
O30 Si22 1.640982 1_455
O30 Si8 1.651894 1_555
O31 Si9 1.624582 1_555
O31 Si23 1.631960 1_455
O32 Si14 1.660436 1_556
O32 Si15 1.666590 1_555
O33 Si15 1.598162 1_555
O34 Si14 1.607452 1_555
O35 Si10 1.660436 1_555
O35 Si11 1.666590 1_555
O36 Si12 1.624582 1_555
O36 Si18 1.631960 1_565
O37 Si19 1.640982 1_565
O37 Si13 1.651894 1_555
O38 Si10 1.607452 1_555
O39 Si11 1.598162 1_555
O40 Si18 1.583834 1_555
O41 Si19 1.611660 1_555
O42 Si8 1.644873 1_545
O42 Si16 1.661980 1_555
O43 Si9 1.648794 1_545
O43 Si17 1.671030 1_555
O44 Si19 1.648789 1_555
O44 Si18 1.661188 1_555
O45 O49 1.343615 1_555
O46 Si2 1.667690 1_555
O46 Si18 1.669136 1_555
O47 Si19 1.650554 1_555
O47 Si3 1.672720 1_555
O48 Si16 1.613927 1_555
O50 Si23 1.583834 1_555
O51 Si22 1.611660 1_555
O52 Si22 1.648789 1_555
O52 Si23 1.661188 1_556
O53 O55 1.343615 1_555
O54 Si21 1.613927 1_555
O56 Si12 1.648794 1_655
O56 Si20 1.671030 1_555
O57 Si13 1.644873 1_655
O57 Si21 1.661980 1_555
O58 Si22 1.650554 1_555
O58 Si6 1.672720 1_555
O59 Si7 1.667690 1_555
O59 Si23 1.669136 1_555
