# generated using pymatgen
data_Ba5Re3O16
_symmetry_space_group_name_H-M   'P 1'
_cell_length_a   11.07861832
_cell_length_b   11.07861832
_cell_length_c   7.96378900
_cell_angle_alpha   90.00000000
_cell_angle_beta   90.00000000
_cell_angle_gamma   120.00000193
_symmetry_Int_Tables_number   1
_chemical_formula_structural   Ba5Re3O16
_chemical_formula_sum   'Ba10 Re6 O32'
_cell_volume   846.48948765
_cell_formula_units_Z   2
loop_
 _symmetry_equiv_pos_site_id
 _symmetry_equiv_pos_as_xyz
  1  'x, y, z'
loop_
 _atom_site_type_symbol
 _atom_site_label
 _atom_site_symmetry_multiplicity
 _atom_site_fract_x
 _atom_site_fract_y
 _atom_site_fract_z
 _atom_site_occupancy
  Ba  Ba0  1  0.66666700  0.33333300  0.50293900  1
  Ba  Ba1  1  0.33333300  0.66666700  0.50293900  1
  Ba  Ba2  1  0.33333300  0.66666700  0.00293900  1
  Ba  Ba3  1  0.66666700  0.33333300  0.00293900  1
  Ba  Ba4  1  0.26023800  0.26023800  0.23957100  1
  Ba  Ba5  1  0.73976200  0.00000000  0.23957100  1
  Ba  Ba6  1  0.00000000  0.73976200  0.23957100  1
  Ba  Ba7  1  0.73976200  0.73976200  0.73957100  1
  Ba  Ba8  1  0.26023800  0.00000000  0.73957100  1
  Ba  Ba9  1  0.00000000  0.26023800  0.73957100  1
  Re  Re0  1  0.39001700  0.39001700  0.79490300  1
  Re  Re1  1  0.60998300  0.00000000  0.79490300  1
  Re  Re2  1  0.00000000  0.60998300  0.79490300  1
  Re  Re3  1  0.60998300  0.60998300  0.29490300  1
  Re  Re4  1  0.39001700  0.00000000  0.29490300  1
  Re  Re5  1  0.00000000  0.39001700  0.29490300  1
  O  O0  1  0.00000000  0.00000000  0.17935000  1
  O  O1  1  0.00000000  0.00000000  0.67935000  1
  O  O2  1  0.29694400  0.29694400  0.61567900  1
  O  O3  1  0.70305600  0.00000000  0.61567900  1
  O  O4  1  0.00000000  0.70305600  0.61567900  1
  O  O5  1  0.70305600  0.70305600  0.11567900  1
  O  O6  1  0.29694400  0.00000000  0.11567900  1
  O  O7  1  0.00000000  0.29694400  0.11567900  1
  O  O8  1  0.57690400  0.44624300  0.75913100  1
  O  O9  1  0.55375700  0.13066100  0.75913100  1
  O  O10  1  0.86933900  0.42309600  0.75913100  1
  O  O11  1  0.44624300  0.57690400  0.75913100  1
  O  O12  1  0.13066100  0.55375700  0.75913100  1
  O  O13  1  0.42309600  0.86933900  0.75913100  1
  O  O14  1  0.42309600  0.55375700  0.25913100  1
  O  O15  1  0.44624300  0.86933900  0.25913100  1
  O  O16  1  0.13066100  0.57690400  0.25913100  1
  O  O17  1  0.55375700  0.42309600  0.25913100  1
  O  O18  1  0.86933900  0.44624300  0.25913100  1
  O  O19  1  0.57690400  0.13066100  0.25913100  1
  O  O20  1  0.38580500  0.25444000  0.93542500  1
  O  O21  1  0.74556000  0.13136500  0.93542500  1
  O  O22  1  0.86863500  0.61419500  0.93542500  1
  O  O23  1  0.25444000  0.38580500  0.93542500  1
  O  O24  1  0.13136500  0.74556000  0.93542500  1
  O  O25  1  0.61419500  0.86863500  0.93542500  1
  O  O26  1  0.61419500  0.74556000  0.43542500  1
  O  O27  1  0.25444000  0.86863500  0.43542500  1
  O  O28  1  0.13136500  0.38580500  0.43542500  1
  O  O29  1  0.74556000  0.61419500  0.43542500  1
  O  O30  1  0.86863500  0.25444000  0.43542500  1
  O  O31  1  0.38580500  0.13136500  0.43542500  1
loop_
_geom_bond_atom_site_label_1
_geom_bond_atom_site_label_2
_geom_bond_distance
_geom_bond_site_symmetry_2
Ba0 O19 2.750909 1_555
Ba0 O18 2.750910 1_555
Ba0 O17 2.750916 1_555
Ba0 O10 2.821385 1_555
Ba0 O9 2.821385 1_555
Ba0 O8 2.821391 1_555
Ba0 O30 2.831110 1_555
Ba0 O31 2.831118 1_555
Ba0 O29 2.831121 1_555
Ba1 O16 2.750909 1_555
Ba1 O15 2.750910 1_555
Ba1 O14 2.750916 1_555
Ba1 O13 2.821385 1_555
Ba1 O12 2.821385 1_555
Ba1 O11 2.821391 1_555
Ba1 O27 2.831110 1_555
Ba1 O28 2.831118 1_555
Ba1 O26 2.831121 1_555
Ba2 O13 2.750909 1_554
Ba2 O12 2.750910 1_554
Ba2 O11 2.750916 1_554
Ba2 O16 2.821385 1_555
Ba2 O15 2.821385 1_555
Ba2 O14 2.821391 1_555
Ba2 O24 2.831110 1_554
Ba2 O25 2.831118 1_554
Ba2 O23 2.831121 1_554
Ba3 O10 2.750909 1_554
Ba3 O9 2.750910 1_554
Ba3 O8 2.750916 1_554
Ba3 O19 2.821385 1_555
Ba3 O18 2.821385 1_555
Ba3 O17 2.821391 1_555
Ba3 O21 2.831110 1_554
Ba3 O22 2.831118 1_554
Ba3 O20 2.831121 1_554
Ba4 O20 2.809893 1_554
Ba4 O23 2.809893 1_554
Ba4 O17 2.826067 1_555
Ba4 O14 2.826067 1_555
Ba4 O28 2.896987 1_555
Ba4 O31 2.896987 1_555
Ba4 O0 2.922694 1_555
Ba4 O2 3.022723 1_555
Ba4 O6 3.259354 1_555
Ba4 O7 3.259354 1_555
Ba5 O25 2.809893 1_544
Ba5 O21 2.809893 1_554
Ba5 O15 2.826067 1_545
Ba5 O19 2.826067 1_555
Ba5 O30 2.896987 1_555
Ba5 O26 2.896987 1_545
Ba5 O0 2.922694 1_655
Ba5 O3 3.022723 1_555
Ba5 O7 3.259354 1_655
Ba5 O5 3.259354 1_545
Ba6 O22 2.809893 1_454
Ba6 O24 2.809893 1_554
Ba6 O18 2.826067 1_455
Ba6 O16 2.826067 1_555
Ba6 O27 2.896987 1_555
Ba6 O29 2.896987 1_455
Ba6 O0 2.922694 1_565
Ba6 O4 3.022723 1_555
Ba6 O6 3.259354 1_565
Ba6 O5 3.259354 1_455
Ba7 O29 2.809893 1_555
Ba7 O26 2.809893 1_555
Ba7 O11 2.826067 1_555
Ba7 O8 2.826067 1_555
Ba7 O25 2.896987 1_555
Ba7 O22 2.896987 1_555
Ba7 O1 2.922694 1_665
Ba7 O5 3.022723 1_556
Ba7 O4 3.259354 1_655
Ba7 O3 3.259354 1_565
Ba8 O31 2.809893 1_555
Ba8 O27 2.809893 1_545
Ba8 O9 2.826067 1_555
Ba8 O13 2.826067 1_545
Ba8 O24 2.896987 1_545
Ba8 O20 2.896987 1_555
Ba8 O1 2.922694 1_555
Ba8 O6 3.022723 1_556
Ba8 O4 3.259354 1_545
Ba8 O2 3.259354 1_555
Ba9 O28 2.809893 1_555
Ba9 O30 2.809893 1_455
Ba9 O12 2.826067 1_555
Ba9 O10 2.826067 1_455
Ba9 O21 2.896987 1_455
Ba9 O23 2.896987 1_555
Ba9 O1 2.922694 1_555
Ba9 O7 3.022723 1_556
Ba9 O3 3.259354 1_455
Ba9 O2 3.259354 1_555
O2 Re0 1.760795 1_555
O3 Re1 1.760795 1_555
O4 Re2 1.760795 1_555
O5 Re3 1.760795 1_555
O6 Re4 1.760795 1_555
O7 Re5 1.760795 1_555
O8 Re0 1.861783 1_555
O9 Re1 1.861783 1_555
O10 Re2 1.861783 1_655
O11 Re0 1.861783 1_555
O12 Re2 1.861783 1_555
O13 Re1 1.861783 1_565
O14 Re3 1.861783 1_555
O15 Re4 1.861783 1_565
O16 Re5 1.861783 1_555
O17 Re3 1.861783 1_555
O18 Re5 1.861783 1_655
O19 Re4 1.861783 1_555
O20 Re0 1.854850 1_555
O21 Re1 1.854850 1_555
O22 Re2 1.854850 1_655
O23 Re0 1.854850 1_555
O24 Re2 1.854850 1_555
O25 Re1 1.854850 1_565
O26 Re3 1.854850 1_555
O27 Re4 1.854850 1_565
O28 Re5 1.854850 1_555
O29 Re3 1.854850 1_555
O30 Re5 1.854850 1_655
O31 Re4 1.854850 1_555
