# generated using pymatgen
data_CoPS3
_symmetry_space_group_name_H-M   'P 1'
_cell_length_a   5.76964479
_cell_length_b   5.76964479
_cell_length_c   6.85962157
_cell_angle_alpha   98.08595857
_cell_angle_beta   98.08595857
_cell_angle_gamma   119.99106474
_symmetry_Int_Tables_number   1
_chemical_formula_structural   CoPS3
_chemical_formula_sum   'Co2 P2 S6'
_cell_volume   189.78855981
_cell_formula_units_Z   2
loop_
 _symmetry_equiv_pos_site_id
 _symmetry_equiv_pos_as_xyz
  1  'x, y, z'
loop_
 _atom_site_type_symbol
 _atom_site_label
 _atom_site_symmetry_multiplicity
 _atom_site_fract_x
 _atom_site_fract_y
 _atom_site_fract_z
 _atom_site_occupancy
  Co  Co0  1  0.33328400  0.66671600  0.50000000  1
  Co  Co1  1  0.66671600  0.33328400  0.50000000  1
  P  P0  1  0.05565500  0.05565500  0.66432100  1
  P  P1  1  0.94434500  0.94434500  0.33567900  1
  S  S0  1  0.07270000  0.42738700  0.71739300  1
  S  S1  1  0.57261300  0.92730000  0.28260700  1
  S  S2  1  0.28110000  0.28110000  0.28184700  1
  S  S3  1  0.71890000  0.71890000  0.71815300  1
  S  S4  1  0.42738700  0.07270000  0.71739300  1
  S  S5  1  0.92730000  0.57261300  0.28260700  1
loop_
_geom_bond_atom_site_label_1
_geom_bond_atom_site_label_2
_geom_bond_distance
_geom_bond_site_symmetry_2
Co0 S5 2.350206 1_455
Co0 S4 2.350206 1_565
Co0 S0 2.350626 1_555
Co0 S1 2.350626 1_555
Co0 S3 2.355204 1_555
Co0 S2 2.355204 1_555
Co1 S1 2.350206 1_545
Co1 S0 2.350206 1_655
Co1 S4 2.350626 1_555
Co1 S5 2.350626 1_555
Co1 S3 2.355204 1_555
Co1 S2 2.355204 1_555
P0 S4 2.074034 1_555
P0 S0 2.074034 1_555
P0 S3 2.077530 1_445
P0 P1 2.163358 1_445
P1 S1 2.074034 1_555
P1 S5 2.074034 1_555
P1 S2 2.077530 1_665
