# generated using pymatgen
data_ZnH16C6(N3O5)2
_symmetry_space_group_name_H-M   'P 1'
_cell_length_a   8.83769253
_cell_length_b   8.83769253
_cell_length_c   11.34193695
_cell_angle_alpha   69.00246165
_cell_angle_beta   69.00246165
_cell_angle_gamma   70.15093138
_symmetry_Int_Tables_number   1
_chemical_formula_structural   ZnH16C6(N3O5)2
_chemical_formula_sum   'Zn2 H32 C12 N12 O20'
_cell_volume   749.11822419
_cell_formula_units_Z   2
loop_
 _symmetry_equiv_pos_site_id
 _symmetry_equiv_pos_as_xyz
  1  'x, y, z'
loop_
 _atom_site_type_symbol
 _atom_site_label
 _atom_site_symmetry_multiplicity
 _atom_site_fract_x
 _atom_site_fract_y
 _atom_site_fract_z
 _atom_site_occupancy
  Zn  Zn0  1  0.32865400  0.67134600  0.75000000  1
  Zn  Zn1  1  0.67134600  0.32865400  0.25000000  1
  H  H0  1  0.06351400  0.16023300  0.47464500  1
  H  H1  1  0.83976700  0.93648600  0.02535500  1
  H  H2  1  0.93648600  0.83976700  0.52535500  1
  H  H3  1  0.16023300  0.06351400  0.97464500  1
  H  H4  1  0.89241100  0.32030900  0.43831200  1
  H  H5  1  0.67969100  0.10758900  0.06168800  1
  H  H6  1  0.10758900  0.67969100  0.56168800  1
  H  H7  1  0.32030900  0.89241100  0.93831200  1
  H  H8  1  0.13884100  0.10762300  0.65928300  1
  H  H9  1  0.89237700  0.86115900  0.84071700  1
  H  H10  1  0.86115900  0.89237700  0.34071700  1
  H  H11  1  0.10762300  0.13884100  0.15928300  1
  H  H12  1  0.04529300  0.25207100  0.75616200  1
  H  H13  1  0.74792900  0.95470700  0.74383800  1
  H  H14  1  0.95470700  0.74792900  0.24383800  1
  H  H15  1  0.25207100  0.04529300  0.25616200  1
  H  H16  1  0.73951500  0.49519300  0.58427500  1
  H  H17  1  0.50480700  0.26048500  0.91572500  1
  H  H18  1  0.26048500  0.50480700  0.41572500  1
  H  H19  1  0.49519300  0.73951500  0.08427500  1
  H  H20  1  0.81839500  0.46888000  0.71287700  1
  H  H21  1  0.53112000  0.18160500  0.78712300  1
  H  H22  1  0.18160500  0.53112000  0.28712300  1
  H  H23  1  0.46888000  0.81839500  0.21287700  1
  H  H24  1  0.30341600  0.42833600  0.66807000  1
  H  H25  1  0.57166400  0.69658400  0.83193000  1
  H  H26  1  0.69658400  0.57166400  0.33193000  1
  H  H27  1  0.42833600  0.30341600  0.16807000  1
  H  H28  1  0.13093000  0.47485800  0.77162400  1
  H  H29  1  0.52514200  0.86907000  0.72837600  1
  H  H30  1  0.86907000  0.52514200  0.22837600  1
  H  H31  1  0.47485800  0.13093000  0.27162400  1
  C  C0  1  0.34195300  0.90895100  0.49709200  1
  C  C1  1  0.09104900  0.65804700  0.00290800  1
  C  C2  1  0.65804700  0.09104900  0.50290800  1
  C  C3  1  0.90895100  0.34195300  0.99709200  1
  C  C4  1  0.24742600  0.51301900  0.02608100  1
  C  C5  1  0.48698100  0.75257400  0.47391900  1
  C  C6  1  0.75257400  0.48698100  0.97391900  1
  C  C7  1  0.51301900  0.24742600  0.52608100  1
  C  C8  1  0.94761400  0.29896300  0.60472800  1
  C  C9  1  0.70103700  0.05238600  0.89527200  1
  C  C10  1  0.05238600  0.70103700  0.39527200  1
  C  C11  1  0.29896300  0.94761400  0.10472800  1
  N  N0  1  0.95401200  0.24111100  0.50735900  1
  N  N1  1  0.75888900  0.04598800  0.99264100  1
  N  N2  1  0.04598800  0.75888900  0.49264100  1
  N  N3  1  0.24111100  0.95401200  0.00735900  1
  N  N4  1  0.05868000  0.21832700  0.67490000  1
  N  N5  1  0.78167300  0.94132000  0.82510000  1
  N  N6  1  0.94132000  0.78167300  0.32510000  1
  N  N7  1  0.21832700  0.05868000  0.17490000  1
  N  N8  1  0.83185500  0.43431800  0.63158800  1
  N  N9  1  0.56568200  0.16814500  0.86841200  1
  N  N10  1  0.16814500  0.56568200  0.36841200  1
  N  N11  1  0.43431800  0.83185500  0.13158800  1
  O  O0  1  0.25779000  0.90170600  0.61628000  1
  O  O1  1  0.09829400  0.74221000  0.88372000  1
  O  O2  1  0.74221000  0.09829400  0.38372000  1
  O  O3  1  0.90170600  0.25779000  0.11628000  1
  O  O4  1  0.35813000  0.47957800  0.92348400  1
  O  O5  1  0.52042200  0.64187000  0.57651600  1
  O  O6  1  0.64187000  0.52042200  0.07651600  1
  O  O7  1  0.47957800  0.35813000  0.42348400  1
  O  O8  1  0.21639100  0.52640600  0.69795900  1
  O  O9  1  0.47359400  0.78360900  0.80204100  1
  O  O10  1  0.78360900  0.47359400  0.30204100  1
  O  O11  1  0.52640600  0.21639100  0.19795900  1
  O  O12  1  0.31552300  0.03168600  0.40081400  1
  O  O13  1  0.96831400  0.68447700  0.09918600  1
  O  O14  1  0.68447700  0.96831400  0.59918600  1
  O  O15  1  0.03168600  0.31552300  0.90081400  1
  O  O16  1  0.25403200  0.43980900  0.14251700  1
  O  O17  1  0.56019100  0.74596800  0.35748300  1
  O  O18  1  0.74596800  0.56019100  0.85748300  1
  O  O19  1  0.43980900  0.25403200  0.64251700  1
loop_
_geom_bond_atom_site_label_1
_geom_bond_atom_site_label_2
_geom_bond_distance
_geom_bond_site_symmetry_2
H0 N0 1.023767 1_455
H1 N1 1.023767 1_564
H2 N2 1.023767 1_655
H3 N3 1.023767 1_546
H4 N0 1.026413 1_555
H5 N1 1.026413 1_554
H6 N2 1.026413 1_555
H7 N3 1.026413 1_556
H8 N4 1.026666 1_555
H9 N5 1.026666 1_555
H10 N6 1.026666 1_555
H11 N7 1.026666 1_555
H12 N4 1.023366 1_555
H13 N5 1.023366 1_555
H14 N6 1.023366 1_555
H15 N7 1.023366 1_555
H16 N8 1.025752 1_555
H17 N9 1.025752 1_555
H18 N10 1.025752 1_555
H19 N11 1.025752 1_555
H20 N8 1.027636 1_555
H21 N9 1.027636 1_555
H22 N10 1.027636 1_555
H23 N11 1.027636 1_555
H24 O8 1.014233 1_555
H24 O19 1.648812 1_555
H25 O9 1.014233 1_555
H25 O18 1.648812 1_555
H26 O10 1.014233 1_555
H26 O17 1.648812 1_555
H27 O11 1.014233 1_555
H27 O16 1.648812 1_555
H28 O8 0.992318 1_555
H29 O9 0.992318 1_555
H30 O10 0.992318 1_555
H31 O11 0.992318 1_555
C0 O12 1.259137 1_565
C0 O0 1.278472 1_555
C1 O13 1.259137 1_455
C1 O1 1.278472 1_554
C2 O14 1.259137 1_545
C2 O2 1.278472 1_555
C3 O15 1.259137 1_655
C3 O3 1.278472 1_556
C4 O16 1.258291 1_555
C4 O4 1.277825 1_554
C5 O17 1.258291 1_555
C5 O5 1.277825 1_555
C6 O18 1.258291 1_555
C6 O6 1.277825 1_556
C7 O19 1.258291 1_555
C7 O7 1.277825 1_555
C8 N8 1.333091 1_555
C8 N4 1.335339 1_655
C8 N0 1.350726 1_555
C9 N9 1.333091 1_555
C9 N5 1.335339 1_545
C9 N1 1.350726 1_555
C10 N10 1.333091 1_555
C10 N6 1.335339 1_455
C10 N2 1.350726 1_555
C11 N11 1.333091 1_555
C11 N7 1.335339 1_565
C11 N3 1.350726 1_555
O0 Zn0 2.106940 1_555
O1 Zn0 2.106940 1_555
O2 Zn1 2.106940 1_555
O3 Zn1 2.106940 1_555
O4 Zn0 2.118833 1_555
O5 Zn0 2.118833 1_555
O6 Zn1 2.118833 1_555
O7 Zn1 2.118833 1_555
O8 Zn0 2.190455 1_555
O9 Zn0 2.190455 1_555
O10 Zn1 2.190455 1_555
O11 Zn1 2.190455 1_555
