# generated using pymatgen
data_Nb2Sb
_symmetry_space_group_name_H-M   'P 1'
_cell_length_a   5.87689000
_cell_length_b   13.89413376
_cell_length_c   42.40957087
_cell_angle_alpha   83.20976905
_cell_angle_beta   86.29139703
_cell_angle_gamma   83.53630071
_symmetry_Int_Tables_number   1
_chemical_formula_structural   Nb2Sb
_chemical_formula_sum   'Nb112 Sb56'
_cell_volume   3412.14116380
_cell_formula_units_Z   56
loop_
 _symmetry_equiv_pos_site_id
 _symmetry_equiv_pos_as_xyz
  1  'x, y, z'
loop_
 _atom_site_type_symbol
 _atom_site_label
 _atom_site_symmetry_multiplicity
 _atom_site_fract_x
 _atom_site_fract_y
 _atom_site_fract_z
 _atom_site_occupancy
  Nb  Nb0_0  1  0.30134550  0.03396700  0.43073250  1
  Nb  Nb0_1  1  0.30134550  0.03396700  0.93073250  1
  Nb  Nb0_2  1  0.30134550  0.53396700  0.43073250  1
  Nb  Nb0_3  1  0.30134550  0.53396700  0.93073250  1
  Nb  Nb0_4  1  0.80134550  0.03396700  0.43073250  1
  Nb  Nb0_5  1  0.80134550  0.03396700  0.93073250  1
  Nb  Nb0_6  1  0.80134550  0.53396700  0.43073250  1
  Nb  Nb0_7  1  0.80134550  0.53396700  0.93073250  1
  Nb  Nb1_0  1  0.44497550  0.41816950  0.38227600  1
  Nb  Nb1_1  1  0.44497550  0.41816950  0.88227600  1
  Nb  Nb1_2  1  0.44497550  0.91816950  0.38227600  1
  Nb  Nb1_3  1  0.44497550  0.91816950  0.88227600  1
  Nb  Nb1_4  1  0.94497550  0.41816950  0.38227600  1
  Nb  Nb1_5  1  0.94497550  0.41816950  0.88227600  1
  Nb  Nb1_6  1  0.94497550  0.91816950  0.38227600  1
  Nb  Nb1_7  1  0.94497550  0.91816950  0.88227600  1
  Nb  Nb2_0  1  0.04156350  0.10192750  0.36012900  1
  Nb  Nb2_1  1  0.04156350  0.10192750  0.86012900  1
  Nb  Nb2_2  1  0.04156350  0.60192750  0.36012900  1
  Nb  Nb2_3  1  0.04156350  0.60192750  0.86012900  1
  Nb  Nb2_4  1  0.54156350  0.10192750  0.36012900  1
  Nb  Nb2_5  1  0.54156350  0.10192750  0.86012900  1
  Nb  Nb2_6  1  0.54156350  0.60192750  0.36012900  1
  Nb  Nb2_7  1  0.54156350  0.60192750  0.86012900  1
  Nb  Nb3_0  1  0.12833650  0.16023600  0.47311450  1
  Nb  Nb3_1  1  0.12833650  0.16023600  0.97311450  1
  Nb  Nb3_2  1  0.12833650  0.66023600  0.47311450  1
  Nb  Nb3_3  1  0.12833650  0.66023600  0.97311450  1
  Nb  Nb3_4  1  0.62833650  0.16023600  0.47311450  1
  Nb  Nb3_5  1  0.62833650  0.16023600  0.97311450  1
  Nb  Nb3_6  1  0.62833650  0.66023600  0.47311450  1
  Nb  Nb3_7  1  0.62833650  0.66023600  0.97311450  1
  Nb  Nb4_0  1  0.33047350  0.17108300  0.28877550  1
  Nb  Nb4_1  1  0.33047350  0.17108300  0.78877550  1
  Nb  Nb4_2  1  0.33047350  0.67108300  0.28877550  1
  Nb  Nb4_3  1  0.33047350  0.67108300  0.78877550  1
  Nb  Nb4_4  1  0.83047350  0.17108300  0.28877550  1
  Nb  Nb4_5  1  0.83047350  0.17108300  0.78877550  1
  Nb  Nb4_6  1  0.83047350  0.67108300  0.28877550  1
  Nb  Nb4_7  1  0.83047350  0.67108300  0.78877550  1
  Nb  Nb5_0  1  0.11899650  0.24446400  0.21764750  1
  Nb  Nb5_1  1  0.11899650  0.24446400  0.71764750  1
  Nb  Nb5_2  1  0.11899650  0.74446400  0.21764750  1
  Nb  Nb5_3  1  0.11899650  0.74446400  0.71764750  1
  Nb  Nb5_4  1  0.61899650  0.24446400  0.21764750  1
  Nb  Nb5_5  1  0.61899650  0.24446400  0.71764750  1
  Nb  Nb5_6  1  0.61899650  0.74446400  0.21764750  1
  Nb  Nb5_7  1  0.61899650  0.74446400  0.71764750  1
  Nb  Nb6_0  1  0.31053150  0.13233050  0.17043500  1
  Nb  Nb6_1  1  0.31053150  0.13233050  0.67043500  1
  Nb  Nb6_2  1  0.31053150  0.63233050  0.17043500  1
  Nb  Nb6_3  1  0.31053150  0.63233050  0.67043500  1
  Nb  Nb6_4  1  0.81053150  0.13233050  0.17043500  1
  Nb  Nb6_5  1  0.81053150  0.13233050  0.67043500  1
  Nb  Nb6_6  1  0.81053150  0.63233050  0.17043500  1
  Nb  Nb6_7  1  0.81053150  0.63233050  0.67043500  1
  Nb  Nb7_0  1  0.23286050  0.48576450  0.31283350  1
  Nb  Nb7_1  1  0.23286050  0.48576450  0.81283350  1
  Nb  Nb7_2  1  0.23286050  0.98576450  0.31283350  1
  Nb  Nb7_3  1  0.23286050  0.98576450  0.81283350  1
  Nb  Nb7_4  1  0.73286050  0.48576450  0.31283350  1
  Nb  Nb7_5  1  0.73286050  0.48576450  0.81283350  1
  Nb  Nb7_6  1  0.73286050  0.98576450  0.31283350  1
  Nb  Nb7_7  1  0.73286050  0.98576450  0.81283350  1
  Nb  Nb8_0  1  0.40604500  0.32169600  0.14606100  1
  Nb  Nb8_1  1  0.40604500  0.32169600  0.64606100  1
  Nb  Nb8_2  1  0.40604500  0.82169600  0.14606100  1
  Nb  Nb8_3  1  0.40604500  0.82169600  0.64606100  1
  Nb  Nb8_4  1  0.90604500  0.32169600  0.14606100  1
  Nb  Nb8_5  1  0.90604500  0.32169600  0.64606100  1
  Nb  Nb8_6  1  0.90604500  0.82169600  0.14606100  1
  Nb  Nb8_7  1  0.90604500  0.82169600  0.64606100  1
  Nb  Nb9_0  1  0.02221850  0.05705800  0.24166500  1
  Nb  Nb9_1  1  0.02221850  0.05705800  0.74166500  1
  Nb  Nb9_2  1  0.02221850  0.55705800  0.24166500  1
  Nb  Nb9_3  1  0.02221850  0.55705800  0.74166500  1
  Nb  Nb9_4  1  0.52221850  0.05705800  0.24166500  1
  Nb  Nb9_5  1  0.52221850  0.05705800  0.74166500  1
  Nb  Nb9_6  1  0.52221850  0.55705800  0.24166500  1
  Nb  Nb9_7  1  0.52221850  0.55705800  0.74166500  1
  Nb  Nb10_0  1  0.19332050  0.40276950  0.07523450  1
  Nb  Nb10_1  1  0.19332050  0.40276950  0.57523450  1
  Nb  Nb10_2  1  0.19332050  0.90276950  0.07523450  1
  Nb  Nb10_3  1  0.19332050  0.90276950  0.57523450  1
  Nb  Nb10_4  1  0.69332050  0.40276950  0.07523450  1
  Nb  Nb10_5  1  0.69332050  0.40276950  0.57523450  1
  Nb  Nb10_6  1  0.69332050  0.90276950  0.07523450  1
  Nb  Nb10_7  1  0.69332050  0.90276950  0.57523450  1
  Nb  Nb11_0  1  0.49908250  0.47572250  0.00408950  1
  Nb  Nb11_1  1  0.49908250  0.47572250  0.50408950  1
  Nb  Nb11_2  1  0.49908250  0.97572250  0.00408950  1
  Nb  Nb11_3  1  0.49908250  0.97572250  0.50408950  1
  Nb  Nb11_4  1  0.99908250  0.47572250  0.00408950  1
  Nb  Nb11_5  1  0.99908250  0.47572250  0.50408950  1
  Nb  Nb11_6  1  0.99908250  0.97572250  0.00408950  1
  Nb  Nb11_7  1  0.99908250  0.97572250  0.50408950  1
  Nb  Nb12_0  1  0.09793350  0.21049100  0.09891500  1
  Nb  Nb12_1  1  0.09793350  0.21049100  0.59891500  1
  Nb  Nb12_2  1  0.09793350  0.71049100  0.09891500  1
  Nb  Nb12_3  1  0.09793350  0.71049100  0.59891500  1
  Nb  Nb12_4  1  0.59793350  0.21049100  0.09891500  1
  Nb  Nb12_5  1  0.59793350  0.21049100  0.59891500  1
  Nb  Nb12_6  1  0.59793350  0.71049100  0.09891500  1
  Nb  Nb12_7  1  0.59793350  0.71049100  0.59891500  1
  Nb  Nb13_0  1  0.38696100  0.29034650  0.03111200  1
  Nb  Nb13_1  1  0.38696100  0.29034650  0.53111200  1
  Nb  Nb13_2  1  0.38696100  0.79034650  0.03111200  1
  Nb  Nb13_3  1  0.38696100  0.79034650  0.53111200  1
  Nb  Nb13_4  1  0.88696100  0.29034650  0.03111200  1
  Nb  Nb13_5  1  0.88696100  0.29034650  0.53111200  1
  Nb  Nb13_6  1  0.88696100  0.79034650  0.03111200  1
  Nb  Nb13_7  1  0.88696100  0.79034650  0.53111200  1
  Sb  Sb0_0  1  0.33376600  0.34661450  0.46351300  1
  Sb  Sb0_1  1  0.33376600  0.34661450  0.96351300  1
  Sb  Sb0_2  1  0.33376600  0.84661450  0.46351300  1
  Sb  Sb0_3  1  0.33376600  0.84661450  0.96351300  1
  Sb  Sb0_4  1  0.83376600  0.34661450  0.46351300  1
  Sb  Sb0_5  1  0.83376600  0.34661450  0.96351300  1
  Sb  Sb0_6  1  0.83376600  0.84661450  0.46351300  1
  Sb  Sb0_7  1  0.83376600  0.84661450  0.96351300  1
  Sb  Sb1_0  1  0.20561550  0.23094450  0.40337750  1
  Sb  Sb1_1  1  0.20561550  0.23094450  0.90337750  1
  Sb  Sb1_2  1  0.20561550  0.73094450  0.40337750  1
  Sb  Sb1_3  1  0.20561550  0.73094450  0.90337750  1
  Sb  Sb1_4  1  0.70561550  0.23094450  0.40337750  1
  Sb  Sb1_5  1  0.70561550  0.23094450  0.90337750  1
  Sb  Sb1_6  1  0.70561550  0.73094450  0.40337750  1
  Sb  Sb1_7  1  0.70561550  0.73094450  0.90337750  1
  Sb  Sb2_0  1  0.02046600  0.29914000  0.32931150  1
  Sb  Sb2_1  1  0.02046600  0.29914000  0.82931150  1
  Sb  Sb2_2  1  0.02046600  0.79914000  0.32931150  1
  Sb  Sb2_3  1  0.02046600  0.79914000  0.82931150  1
  Sb  Sb2_4  1  0.52046600  0.29914000  0.32931150  1
  Sb  Sb2_5  1  0.52046600  0.29914000  0.82931150  1
  Sb  Sb2_6  1  0.52046600  0.79914000  0.32931150  1
  Sb  Sb2_7  1  0.52046600  0.79914000  0.82931150  1
  Sb  Sb3_0  1  0.31043900  0.37166600  0.25764450  1
  Sb  Sb3_1  1  0.31043900  0.37166600  0.75764450  1
  Sb  Sb3_2  1  0.31043900  0.87166600  0.25764450  1
  Sb  Sb3_3  1  0.31043900  0.87166600  0.75764450  1
  Sb  Sb3_4  1  0.81043900  0.37166600  0.25764450  1
  Sb  Sb3_5  1  0.81043900  0.37166600  0.75764450  1
  Sb  Sb3_6  1  0.81043900  0.87166600  0.25764450  1
  Sb  Sb3_7  1  0.81043900  0.87166600  0.75764450  1
  Sb  Sb4_0  1  0.09634450  0.44640200  0.18620400  1
  Sb  Sb4_1  1  0.09634450  0.44640200  0.68620400  1
  Sb  Sb4_2  1  0.09634450  0.94640200  0.18620400  1
  Sb  Sb4_3  1  0.09634450  0.94640200  0.68620400  1
  Sb  Sb4_4  1  0.59634450  0.44640200  0.18620400  1
  Sb  Sb4_5  1  0.59634450  0.44640200  0.68620400  1
  Sb  Sb4_6  1  0.59634450  0.94640200  0.18620400  1
  Sb  Sb4_7  1  0.59634450  0.94640200  0.68620400  1
  Sb  Sb5_0  1  0.38406100  0.02610800  0.11473250  1
  Sb  Sb5_1  1  0.38406100  0.02610800  0.61473250  1
  Sb  Sb5_2  1  0.38406100  0.52610800  0.11473250  1
  Sb  Sb5_3  1  0.38406100  0.52610800  0.61473250  1
  Sb  Sb5_4  1  0.88406100  0.02610800  0.11473250  1
  Sb  Sb5_5  1  0.88406100  0.02610800  0.61473250  1
  Sb  Sb5_6  1  0.88406100  0.52610800  0.11473250  1
  Sb  Sb5_7  1  0.88406100  0.52610800  0.61473250  1
  Sb  Sb6_0  1  0.18126750  0.10609000  0.04105200  1
  Sb  Sb6_1  1  0.18126750  0.10609000  0.54105200  1
  Sb  Sb6_2  1  0.18126750  0.60609000  0.04105200  1
  Sb  Sb6_3  1  0.18126750  0.60609000  0.54105200  1
  Sb  Sb6_4  1  0.68126750  0.10609000  0.04105200  1
  Sb  Sb6_5  1  0.68126750  0.10609000  0.54105200  1
  Sb  Sb6_6  1  0.68126750  0.60609000  0.04105200  1
  Sb  Sb6_7  1  0.68126750  0.60609000  0.54105200  1
loop_
_geom_bond_atom_site_label_1
_geom_bond_atom_site_label_2
_geom_bond_distance
_geom_bond_site_symmetry_2
Nb0_0 Nb3_0 2.729469 1_555
Nb0_0 Sb0_2 2.794989 1_545
Nb0_0 Sb1_0 2.852997 1_555
Nb0_1 Nb3_1 2.729469 1_555
Nb0_1 Sb0_3 2.794989 1_545
Nb0_1 Sb1_1 2.852997 1_555
Nb0_2 Nb3_2 2.729469 1_555
Nb0_2 Sb0_0 2.794989 1_555
Nb0_2 Sb1_2 2.852997 1_555
Nb0_3 Nb3_3 2.729469 1_555
Nb0_3 Sb0_1 2.794989 1_555
Nb0_3 Sb1_3 2.852997 1_555
Nb0_4 Nb3_4 2.729469 1_555
Nb0_4 Sb0_6 2.794989 1_545
Nb0_4 Sb1_4 2.852997 1_555
Nb0_5 Nb3_5 2.729469 1_555
Nb0_5 Sb0_7 2.794989 1_545
Nb0_5 Sb1_5 2.852997 1_555
Nb0_6 Nb3_6 2.729469 1_555
Nb0_6 Sb0_4 2.794989 1_555
Nb0_6 Sb1_6 2.852997 1_555
Nb0_7 Nb3_7 2.729469 1_555
Nb0_7 Sb0_5 2.794989 1_555
Nb0_7 Sb1_7 2.852997 1_555
Nb1_0 Nb2_6 2.722733 1_555
Nb1_0 Sb2_4 2.926033 1_555
Nb1_0 Sb1_4 2.940027 1_555
Nb1_0 Sb1_0 3.107586 1_555
Nb1_0 Sb0_0 3.511439 1_555
Nb1_1 Nb2_7 2.722733 1_555
Nb1_1 Sb2_5 2.926033 1_555
Nb1_1 Sb1_5 2.940027 1_555
Nb1_1 Sb1_1 3.107586 1_555
Nb1_1 Sb0_1 3.511439 1_555
Nb1_2 Nb2_4 2.722733 1_565
Nb1_2 Sb2_6 2.926033 1_555
Nb1_2 Sb1_6 2.940027 1_555
Nb1_2 Sb1_2 3.107586 1_555
Nb1_2 Sb0_2 3.511439 1_555
Nb1_3 Nb2_5 2.722733 1_565
Nb1_3 Sb2_7 2.926033 1_555
Nb1_3 Sb1_7 2.940027 1_555
Nb1_3 Sb1_3 3.107586 1_555
Nb1_3 Sb0_3 3.511439 1_555
Nb1_4 Nb2_2 2.722733 1_655
Nb1_4 Sb2_0 2.926033 1_655
Nb1_4 Sb1_0 2.940027 1_655
Nb1_4 Sb1_4 3.107586 1_555
Nb1_4 Sb0_4 3.511439 1_555
Nb1_5 Nb2_3 2.722733 1_655
Nb1_5 Sb2_1 2.926033 1_655
Nb1_5 Sb1_1 2.940027 1_655
Nb1_5 Sb1_5 3.107586 1_555
Nb1_5 Sb0_5 3.511439 1_555
Nb1_6 Nb2_0 2.722733 1_665
Nb1_6 Sb2_2 2.926033 1_655
Nb1_6 Sb1_2 2.940027 1_655
Nb1_6 Sb1_6 3.107586 1_555
Nb1_6 Sb0_6 3.511439 1_555
Nb1_7 Nb2_1 2.722733 1_665
Nb1_7 Sb2_3 2.926033 1_655
Nb1_7 Sb1_3 2.940027 1_655
Nb1_7 Sb1_7 3.107586 1_555
Nb1_7 Sb0_7 3.511439 1_555
Nb2_0 Nb7_2 2.820866 1_545
Nb2_0 Sb2_0 2.886048 1_555
Nb2_0 Nb2_4 2.938445 1_455
Nb2_0 Nb2_4 2.938445 1_555
Nb2_0 Sb1_0 2.983675 1_555
Nb2_0 Sb1_4 3.160319 1_455
Nb2_1 Nb7_3 2.820866 1_545
Nb2_1 Sb2_1 2.886048 1_555
Nb2_1 Nb2_5 2.938445 1_555
Nb2_1 Nb2_5 2.938445 1_455
Nb2_1 Sb1_1 2.983675 1_555
Nb2_1 Sb1_5 3.160319 1_455
Nb2_2 Nb7_0 2.820866 1_555
Nb2_2 Sb2_2 2.886048 1_555
Nb2_2 Nb2_6 2.938445 1_555
Nb2_2 Nb2_6 2.938445 1_455
Nb2_2 Sb1_2 2.983675 1_555
Nb2_2 Sb1_6 3.160319 1_455
Nb2_3 Nb7_1 2.820866 1_555
Nb2_3 Sb2_3 2.886048 1_555
Nb2_3 Nb2_7 2.938445 1_555
Nb2_3 Nb2_7 2.938445 1_455
Nb2_3 Sb1_3 2.983675 1_555
Nb2_3 Sb1_7 3.160319 1_455
Nb2_4 Nb7_6 2.820866 1_545
Nb2_4 Sb2_4 2.886048 1_555
Nb2_4 Sb1_4 2.983675 1_555
Nb2_4 Sb1_0 3.160319 1_555
Nb2_5 Nb7_7 2.820866 1_545
Nb2_5 Sb2_5 2.886048 1_555
Nb2_5 Sb1_5 2.983675 1_555
Nb2_5 Sb1_1 3.160319 1_555
Nb2_6 Nb7_4 2.820866 1_555
Nb2_6 Sb2_6 2.886048 1_555
Nb2_6 Sb1_6 2.983675 1_555
Nb2_6 Sb1_2 3.160319 1_555
Nb2_7 Nb7_5 2.820866 1_555
Nb2_7 Sb2_7 2.886048 1_555
Nb2_7 Sb1_7 2.983675 1_555
Nb2_7 Sb1_3 3.160319 1_555
Nb3_0 Sb6_1 2.918003 1_555
Nb3_0 Nb3_4 2.938445 1_555
Nb3_0 Nb3_4 2.938445 1_455
Nb3_0 Sb0_4 2.949762 1_455
Nb3_0 Sb0_0 2.952991 1_555
Nb3_0 Sb1_0 3.026212 1_555
Nb3_1 Sb6_0 2.918003 1_556
Nb3_1 Nb3_5 2.938445 1_555
Nb3_1 Nb3_5 2.938445 1_455
Nb3_1 Sb0_5 2.949762 1_455
Nb3_1 Sb0_1 2.952991 1_555
Nb3_1 Sb1_1 3.026212 1_555
Nb3_2 Sb6_3 2.918003 1_555
Nb3_2 Nb3_6 2.938445 1_455
Nb3_2 Nb3_6 2.938445 1_555
Nb3_2 Sb0_6 2.949762 1_455
Nb3_2 Sb0_2 2.952991 1_555
Nb3_2 Sb1_2 3.026212 1_555
Nb3_3 Sb6_2 2.918003 1_556
Nb3_3 Nb3_7 2.938445 1_455
Nb3_3 Nb3_7 2.938445 1_555
Nb3_3 Sb0_7 2.949762 1_455
Nb3_3 Sb0_3 2.952991 1_555
Nb3_3 Sb1_3 3.026212 1_555
Nb3_4 Sb6_5 2.918003 1_555
Nb3_4 Sb0_0 2.949762 1_555
Nb3_4 Sb0_4 2.952991 1_555
Nb3_4 Sb1_4 3.026212 1_555
Nb3_5 Sb6_4 2.918003 1_556
Nb3_5 Sb0_1 2.949762 1_555
Nb3_5 Sb0_5 2.952991 1_555
Nb3_5 Sb1_5 3.026212 1_555
Nb3_6 Sb6_7 2.918003 1_555
Nb3_6 Sb0_2 2.949762 1_555
Nb3_6 Sb0_6 2.952991 1_555
Nb3_6 Sb1_6 3.026212 1_555
Nb3_7 Sb6_6 2.918003 1_556
Nb3_7 Sb0_3 2.949762 1_555
Nb3_7 Sb0_7 2.952991 1_555
Nb3_7 Sb1_7 3.026212 1_555
Nb4_0 Nb7_2 2.763241 1_545
Nb4_0 Nb9_4 2.797643 1_555
Nb4_0 Sb3_0 2.932583 1_555
Nb4_0 Nb4_4 2.938445 1_555
Nb4_0 Nb4_4 2.938445 1_455
Nb4_0 Sb2_4 2.964231 1_555
Nb4_0 Sb2_0 3.004762 1_555
Nb4_1 Nb7_3 2.763241 1_545
Nb4_1 Nb9_5 2.797643 1_555
Nb4_1 Sb3_1 2.932583 1_555
Nb4_1 Nb4_5 2.938445 1_455
Nb4_1 Nb4_5 2.938445 1_555
Nb4_1 Sb2_5 2.964231 1_555
Nb4_1 Sb2_1 3.004762 1_555
Nb4_2 Nb7_0 2.763241 1_555
Nb4_2 Nb9_6 2.797643 1_555
Nb4_2 Sb3_2 2.932583 1_555
Nb4_2 Nb4_6 2.938445 1_555
Nb4_2 Nb4_6 2.938445 1_455
Nb4_2 Sb2_6 2.964231 1_555
Nb4_2 Sb2_2 3.004762 1_555
Nb4_3 Nb7_1 2.763241 1_555
Nb4_3 Nb9_7 2.797643 1_555
Nb4_3 Sb3_3 2.932583 1_555
Nb4_3 Nb4_7 2.938445 1_555
Nb4_3 Nb4_7 2.938445 1_455
Nb4_3 Sb2_7 2.964231 1_555
Nb4_3 Sb2_3 3.004762 1_555
Nb4_4 Nb7_6 2.763241 1_545
Nb4_4 Nb9_0 2.797643 1_655
Nb4_4 Sb3_4 2.932583 1_555
Nb4_4 Sb2_0 2.964231 1_655
Nb4_4 Sb2_4 3.004762 1_555
Nb4_5 Nb7_7 2.763241 1_545
Nb4_5 Nb9_1 2.797643 1_655
Nb4_5 Sb3_5 2.932583 1_555
Nb4_5 Sb2_1 2.964231 1_655
Nb4_5 Sb2_5 3.004762 1_555
Nb4_6 Nb7_4 2.763241 1_555
Nb4_6 Nb9_2 2.797643 1_655
Nb4_6 Sb3_6 2.932583 1_555
Nb4_6 Sb2_2 2.964231 1_655
Nb4_6 Sb2_6 3.004762 1_555
Nb4_7 Nb7_5 2.763241 1_555
Nb4_7 Nb9_3 2.797643 1_655
Nb4_7 Sb3_7 2.932583 1_555
Nb4_7 Sb2_3 2.964231 1_655
Nb4_7 Sb2_7 3.004762 1_555
Nb5_0 Nb6_0 2.784729 1_555
Nb5_0 Nb9_0 2.787884 1_555
Nb5_0 Nb5_4 2.938445 1_555
Nb5_0 Nb5_4 2.938445 1_455
Nb5_0 Sb3_0 2.944513 1_555
Nb5_0 Sb4_0 2.953360 1_555
Nb5_0 Sb3_4 2.979690 1_455
Nb5_1 Nb6_1 2.784729 1_555
Nb5_1 Nb9_1 2.787884 1_555
Nb5_1 Nb5_5 2.938445 1_455
Nb5_1 Nb5_5 2.938445 1_555
Nb5_1 Sb3_1 2.944513 1_555
Nb5_1 Sb4_1 2.953360 1_555
Nb5_1 Sb3_5 2.979690 1_455
Nb5_2 Nb6_2 2.784729 1_555
Nb5_2 Nb9_2 2.787884 1_555
Nb5_2 Nb5_6 2.938445 1_555
Nb5_2 Nb5_6 2.938445 1_455
Nb5_2 Sb3_2 2.944513 1_555
Nb5_2 Sb4_2 2.953360 1_555
Nb5_2 Sb3_6 2.979690 1_455
Nb5_3 Nb6_3 2.784729 1_555
Nb5_3 Nb9_3 2.787884 1_555
Nb5_3 Nb5_7 2.938445 1_555
Nb5_3 Nb5_7 2.938445 1_455
Nb5_3 Sb3_3 2.944513 1_555
Nb5_3 Sb4_3 2.953360 1_555
Nb5_3 Sb3_7 2.979690 1_455
Nb5_4 Nb6_4 2.784729 1_555
Nb5_4 Nb9_4 2.787884 1_555
Nb5_4 Sb3_4 2.944513 1_555
Nb5_4 Sb4_4 2.953360 1_555
Nb5_4 Sb3_0 2.979690 1_555
Nb5_5 Nb6_5 2.784729 1_555
Nb5_5 Nb9_5 2.787884 1_555
Nb5_5 Sb3_5 2.944513 1_555
Nb5_5 Sb4_5 2.953360 1_555
Nb5_5 Sb3_1 2.979690 1_555
Nb5_6 Nb6_6 2.784729 1_555
Nb5_6 Nb9_6 2.787884 1_555
Nb5_6 Sb3_6 2.944513 1_555
Nb5_6 Sb4_6 2.953360 1_555
Nb5_6 Sb3_2 2.979690 1_555
Nb5_7 Nb6_7 2.784729 1_555
Nb5_7 Nb9_7 2.787884 1_555
Nb5_7 Sb3_7 2.944513 1_555
Nb5_7 Sb4_7 2.953360 1_555
Nb5_7 Sb3_3 2.979690 1_555
Nb6_0 Nb8_0 2.814330 1_555
Nb6_0 Sb5_0 2.914493 1_555
Nb6_0 Nb6_4 2.938445 1_455
Nb6_0 Nb6_4 2.938445 1_555
Nb6_0 Sb4_6 2.949907 1_545
Nb6_0 Sb4_2 2.986622 1_545
Nb6_1 Nb8_1 2.814330 1_555
Nb6_1 Sb5_1 2.914493 1_555
Nb6_1 Nb6_5 2.938445 1_455
Nb6_1 Nb6_5 2.938445 1_555
Nb6_1 Sb4_7 2.949907 1_545
Nb6_1 Sb4_3 2.986622 1_545
Nb6_2 Nb8_2 2.814330 1_555
Nb6_2 Sb5_2 2.914493 1_555
Nb6_2 Nb6_6 2.938445 1_555
Nb6_2 Nb6_6 2.938445 1_455
Nb6_2 Sb4_4 2.949907 1_555
Nb6_2 Sb4_0 2.986622 1_555
Nb6_3 Nb8_3 2.814330 1_555
Nb6_3 Sb5_3 2.914493 1_555
Nb6_3 Nb6_7 2.938445 1_555
Nb6_3 Nb6_7 2.938445 1_455
Nb6_3 Sb4_5 2.949907 1_555
Nb6_3 Sb4_1 2.986622 1_555
Nb6_4 Nb8_4 2.814330 1_555
Nb6_4 Sb5_4 2.914493 1_555
Nb6_4 Sb4_2 2.949907 1_645
Nb6_4 Sb4_6 2.986622 1_545
Nb6_5 Nb8_5 2.814330 1_555
Nb6_5 Sb5_5 2.914493 1_555
Nb6_5 Sb4_3 2.949907 1_645
Nb6_5 Sb4_7 2.986622 1_545
Nb6_6 Nb8_6 2.814330 1_555
Nb6_6 Sb5_6 2.914493 1_555
Nb6_6 Sb4_0 2.949907 1_655
Nb6_6 Sb4_4 2.986622 1_555
Nb6_7 Nb8_7 2.814330 1_555
Nb6_7 Sb5_7 2.914493 1_555
Nb6_7 Sb4_1 2.949907 1_655
Nb6_7 Sb4_5 2.986622 1_555
Nb7_0 Sb3_0 2.962399 1_555
Nb7_0 Sb2_4 2.967548 1_555
Nb7_0 Sb2_0 2.992885 1_555
Nb7_1 Sb3_1 2.962399 1_555
Nb7_1 Sb2_5 2.967548 1_555
Nb7_1 Sb2_1 2.992885 1_555
Nb7_2 Sb3_2 2.962399 1_555
Nb7_2 Sb2_6 2.967548 1_555
Nb7_2 Sb2_2 2.992885 1_555
Nb7_3 Sb3_3 2.962399 1_555
Nb7_3 Sb2_7 2.967548 1_555
Nb7_3 Sb2_3 2.992885 1_555
Nb7_4 Sb3_4 2.962399 1_555
Nb7_4 Sb2_0 2.967548 1_655
Nb7_4 Sb2_4 2.992885 1_555
Nb7_5 Sb3_5 2.962399 1_555
Nb7_5 Sb2_1 2.967548 1_655
Nb7_5 Sb2_5 2.992885 1_555
Nb7_6 Sb3_6 2.962399 1_555
Nb7_6 Sb2_2 2.967548 1_655
Nb7_6 Sb2_6 2.992885 1_555
Nb7_7 Sb3_7 2.962399 1_555
Nb7_7 Sb2_3 2.967548 1_655
Nb7_7 Sb2_7 2.992885 1_555
Nb8_0 Sb4_4 2.920855 1_555
Nb8_0 Nb8_4 2.938445 1_555
Nb8_0 Nb8_4 2.938445 1_455
Nb8_0 Sb4_0 2.966455 1_555
Nb8_0 Sb5_2 2.982541 1_555
Nb8_1 Sb4_5 2.920855 1_555
Nb8_1 Nb8_5 2.938445 1_555
Nb8_1 Nb8_5 2.938445 1_455
Nb8_1 Sb4_1 2.966455 1_555
Nb8_1 Sb5_3 2.982541 1_555
Nb8_2 Sb4_6 2.920855 1_555
Nb8_2 Nb8_6 2.938445 1_555
Nb8_2 Nb8_6 2.938445 1_455
Nb8_2 Sb4_2 2.966455 1_555
Nb8_2 Sb5_0 2.982541 1_565
Nb8_3 Sb4_7 2.920855 1_555
Nb8_3 Nb8_7 2.938445 1_555
Nb8_3 Nb8_7 2.938445 1_455
Nb8_3 Sb4_3 2.966455 1_555
Nb8_3 Sb5_1 2.982541 1_565
Nb8_4 Sb4_0 2.920855 1_655
Nb8_4 Sb4_4 2.966455 1_555
Nb8_4 Sb5_6 2.982541 1_555
Nb8_5 Sb4_1 2.920855 1_655
Nb8_5 Sb4_5 2.966455 1_555
Nb8_5 Sb5_7 2.982541 1_555
Nb8_6 Sb4_2 2.920855 1_655
Nb8_6 Sb4_6 2.966455 1_555
Nb8_6 Sb5_4 2.982541 1_565
Nb8_7 Sb4_3 2.920855 1_655
Nb8_7 Sb4_7 2.966455 1_555
Nb8_7 Sb5_5 2.982541 1_565
Nb9_0 Sb4_2 2.942386 1_545
Nb9_0 Sb3_2 2.952420 1_545
Nb9_0 Sb3_6 2.973763 1_445
Nb9_1 Sb4_3 2.942386 1_545
Nb9_1 Sb3_3 2.952420 1_545
Nb9_1 Sb3_7 2.973763 1_445
Nb9_2 Sb4_0 2.942386 1_555
Nb9_2 Sb3_0 2.952420 1_555
Nb9_2 Sb3_4 2.973763 1_455
Nb9_3 Sb4_1 2.942386 1_555
Nb9_3 Sb3_1 2.952420 1_555
Nb9_3 Sb3_5 2.973763 1_455
Nb9_4 Sb4_6 2.942386 1_545
Nb9_4 Sb3_6 2.952420 1_545
Nb9_4 Sb3_2 2.973763 1_545
Nb9_5 Sb4_7 2.942386 1_545
Nb9_5 Sb3_7 2.952420 1_545
Nb9_5 Sb3_3 2.973763 1_545
Nb9_6 Sb4_4 2.942386 1_555
Nb9_6 Sb3_4 2.952420 1_555
Nb9_6 Sb3_0 2.973763 1_555
Nb9_7 Sb4_5 2.942386 1_555
Nb9_7 Sb3_5 2.952420 1_555
Nb9_7 Sb3_1 2.973763 1_555
Nb10_0 Nb13_0 2.692933 1_555
Nb10_0 Nb12_0 2.844272 1_555
Nb10_0 Sb5_2 2.890227 1_555
Nb10_0 Sb5_6 2.937619 1_455
Nb10_0 Nb10_4 2.938445 1_455
Nb10_0 Nb10_4 2.938445 1_555
Nb10_0 Sb6_2 3.014430 1_555
Nb10_1 Nb13_1 2.692933 1_555
Nb10_1 Nb12_1 2.844272 1_555
Nb10_1 Sb5_3 2.890227 1_555
Nb10_1 Sb5_7 2.937619 1_455
Nb10_1 Nb10_5 2.938445 1_555
Nb10_1 Nb10_5 2.938445 1_455
Nb10_1 Sb6_3 3.014430 1_555
Nb10_2 Nb13_2 2.692933 1_555
Nb10_2 Nb12_2 2.844272 1_555
Nb10_2 Sb5_0 2.890227 1_565
Nb10_2 Sb5_4 2.937619 1_465
Nb10_2 Nb10_6 2.938445 1_455
Nb10_2 Nb10_6 2.938445 1_555
Nb10_2 Sb6_0 3.014430 1_565
Nb10_3 Nb13_3 2.692933 1_555
Nb10_3 Nb12_3 2.844272 1_555
Nb10_3 Sb5_1 2.890227 1_565
Nb10_3 Sb5_5 2.937619 1_465
Nb10_3 Nb10_7 2.938445 1_555
Nb10_3 Nb10_7 2.938445 1_455
Nb10_3 Sb6_1 3.014430 1_565
Nb10_4 Nb13_4 2.692933 1_555
Nb10_4 Nb12_4 2.844272 1_555
Nb10_4 Sb5_6 2.890227 1_555
Nb10_4 Sb5_2 2.937619 1_555
Nb10_4 Sb6_6 3.014430 1_555
Nb10_5 Nb13_5 2.692933 1_555
Nb10_5 Nb12_5 2.844272 1_555
Nb10_5 Sb5_7 2.890227 1_555
Nb10_5 Sb5_3 2.937619 1_555
Nb10_5 Sb6_7 3.014430 1_555
Nb10_6 Nb13_6 2.692933 1_555
Nb10_6 Nb12_6 2.844272 1_555
Nb10_6 Sb5_4 2.890227 1_565
Nb10_6 Sb5_0 2.937619 1_565
Nb10_6 Sb6_4 3.014430 1_565
Nb10_7 Nb13_7 2.692933 1_555
Nb10_7 Nb12_7 2.844272 1_555
Nb10_7 Sb5_5 2.890227 1_565
Nb10_7 Sb5_1 2.937619 1_565
Nb10_7 Sb6_5 3.014430 1_565
Nb11_0 Nb13_0 2.822743 1_555
Nb11_0 Sb6_6 2.865270 1_555
Nb11_0 Nb3_7 2.896201 1_554
Nb11_0 Sb0_1 2.908895 1_554
Nb11_0 Nb11_4 2.938445 1_555
Nb11_0 Nb11_4 2.938445 1_455
Nb11_0 Sb6_2 2.959345 1_555
Nb11_0 Sb0_5 3.089585 1_554
Nb11_1 Nb13_1 2.822743 1_555
Nb11_1 Sb6_7 2.865270 1_555
Nb11_1 Nb3_6 2.896201 1_555
Nb11_1 Sb0_0 2.908895 1_555
Nb11_1 Nb11_5 2.938445 1_555
Nb11_1 Nb11_5 2.938445 1_455
Nb11_1 Sb6_3 2.959345 1_555
Nb11_1 Sb0_4 3.089585 1_555
Nb11_2 Nb13_2 2.822743 1_555
Nb11_2 Sb6_4 2.865270 1_565
Nb11_2 Nb3_5 2.896201 1_564
Nb11_2 Sb0_3 2.908895 1_554
Nb11_2 Nb11_6 2.938445 1_555
Nb11_2 Nb11_6 2.938445 1_455
Nb11_2 Sb6_0 2.959345 1_565
Nb11_2 Sb0_7 3.089585 1_554
Nb11_3 Nb13_3 2.822743 1_555
Nb11_3 Sb6_5 2.865270 1_565
Nb11_3 Nb3_4 2.896201 1_565
Nb11_3 Sb0_2 2.908895 1_555
Nb11_3 Nb11_7 2.938445 1_555
Nb11_3 Nb11_7 2.938445 1_455
Nb11_3 Sb6_1 2.959345 1_565
Nb11_3 Sb0_6 3.089585 1_555
Nb11_4 Nb13_4 2.822743 1_555
Nb11_4 Sb6_2 2.865270 1_655
Nb11_4 Nb3_3 2.896201 1_654
Nb11_4 Sb0_5 2.908895 1_554
Nb11_4 Sb6_6 2.959345 1_555
Nb11_4 Sb0_1 3.089585 1_654
Nb11_5 Nb13_5 2.822743 1_555
Nb11_5 Sb6_3 2.865270 1_655
Nb11_5 Nb3_2 2.896201 1_655
Nb11_5 Sb0_4 2.908895 1_555
Nb11_5 Sb6_7 2.959345 1_555
Nb11_5 Sb0_0 3.089585 1_655
Nb11_6 Nb13_6 2.822743 1_555
Nb11_6 Sb6_0 2.865270 1_665
Nb11_6 Nb3_1 2.896201 1_664
Nb11_6 Sb0_7 2.908895 1_554
Nb11_6 Sb6_4 2.959345 1_565
Nb11_6 Sb0_3 3.089585 1_654
Nb11_7 Nb13_7 2.822743 1_555
Nb11_7 Sb6_1 2.865270 1_665
Nb11_7 Nb3_0 2.896201 1_665
Nb11_7 Sb0_6 2.908895 1_555
Nb11_7 Sb6_5 2.959345 1_565
Nb11_7 Sb0_2 3.089585 1_655
Nb12_0 Nb8_4 2.775493 1_455
Nb12_0 Sb5_0 2.934323 1_555
Nb12_0 Sb5_4 2.966877 1_455
Nb12_0 Sb6_0 2.981970 1_555
Nb12_1 Nb8_5 2.775493 1_455
Nb12_1 Sb5_1 2.934323 1_555
Nb12_1 Sb5_5 2.966877 1_455
Nb12_1 Sb6_1 2.981970 1_555
Nb12_2 Nb8_6 2.775493 1_455
Nb12_2 Sb5_2 2.934323 1_555
Nb12_2 Sb5_6 2.966877 1_455
Nb12_2 Sb6_2 2.981970 1_555
Nb12_3 Nb8_7 2.775493 1_455
Nb12_3 Sb5_3 2.934323 1_555
Nb12_3 Sb5_7 2.966877 1_455
Nb12_3 Sb6_3 2.981970 1_555
Nb12_4 Nb8_0 2.775493 1_555
Nb12_4 Sb5_4 2.934323 1_555
Nb12_4 Sb5_0 2.966877 1_555
Nb12_4 Sb6_4 2.981970 1_555
Nb12_5 Nb8_1 2.775493 1_555
Nb12_5 Sb5_5 2.934323 1_555
Nb12_5 Sb5_1 2.966877 1_555
Nb12_5 Sb6_5 2.981970 1_555
Nb12_6 Nb8_2 2.775493 1_555
Nb12_6 Sb5_6 2.934323 1_555
Nb12_6 Sb5_2 2.966877 1_555
Nb12_6 Sb6_6 2.981970 1_555
Nb12_7 Nb8_3 2.775493 1_555
Nb12_7 Sb5_7 2.934323 1_555
Nb12_7 Sb5_3 2.966877 1_555
Nb12_7 Sb6_7 2.981970 1_555
Nb13_0 Sb0_1 2.908376 1_554
Nb13_0 Sb6_4 2.926681 1_555
Nb13_0 Sb6_0 2.927230 1_555
Nb13_1 Sb0_0 2.908376 1_555
Nb13_1 Sb6_5 2.926681 1_555
Nb13_1 Sb6_1 2.927230 1_555
Nb13_2 Sb0_3 2.908376 1_554
Nb13_2 Sb6_6 2.926681 1_555
Nb13_2 Sb6_2 2.927230 1_555
Nb13_3 Sb0_2 2.908376 1_555
Nb13_3 Sb6_7 2.926681 1_555
Nb13_3 Sb6_3 2.927230 1_555
Nb13_4 Sb0_5 2.908376 1_554
Nb13_4 Sb6_0 2.926681 1_655
Nb13_4 Sb6_4 2.927230 1_555
Nb13_5 Sb0_4 2.908376 1_555
Nb13_5 Sb6_1 2.926681 1_655
Nb13_5 Sb6_5 2.927230 1_555
Nb13_6 Sb0_7 2.908376 1_554
Nb13_6 Sb6_2 2.926681 1_655
Nb13_6 Sb6_6 2.927230 1_555
Nb13_7 Sb0_6 2.908376 1_555
Nb13_7 Sb6_3 2.926681 1_655
Nb13_7 Sb6_7 2.927230 1_555
Sb0_0 Sb0_4 2.938445 1_555
Sb0_0 Sb0_4 2.938445 1_455
Sb0_0 Sb1_0 3.338326 1_555
Sb0_1 Sb0_5 2.938445 1_455
Sb0_1 Sb0_5 2.938445 1_555
Sb0_1 Sb1_1 3.338326 1_555
Sb0_2 Sb0_6 2.938445 1_555
Sb0_2 Sb0_6 2.938445 1_455
Sb0_2 Sb1_2 3.338326 1_555
Sb0_3 Sb0_7 2.938445 1_555
Sb0_3 Sb0_7 2.938445 1_455
Sb0_3 Sb1_3 3.338326 1_555
Sb0_4 Sb1_4 3.338326 1_555
Sb0_5 Sb1_5 3.338326 1_555
Sb0_6 Sb1_6 3.338326 1_555
Sb0_7 Sb1_7 3.338326 1_555
Sb1_0 Sb1_4 2.938445 1_555
Sb1_0 Sb1_4 2.938445 1_455
Sb1_1 Sb1_5 2.938445 1_455
Sb1_1 Sb1_5 2.938445 1_555
Sb1_2 Sb1_6 2.938445 1_455
Sb1_2 Sb1_6 2.938445 1_555
Sb1_3 Sb1_7 2.938445 1_555
Sb1_3 Sb1_7 2.938445 1_455
