# generated using pymatgen
data_Cs2Re2S5
_symmetry_space_group_name_H-M   'P 1'
_cell_length_a   12.54692259
_cell_length_b   12.54692259
_cell_length_c   12.54692328
_cell_angle_alpha   69.08961174
_cell_angle_beta   69.08961174
_cell_angle_gamma   69.08960940
_symmetry_Int_Tables_number   1
_chemical_formula_structural   Cs2Re2S5
_chemical_formula_sum   'Cs12 Re12 S30'
_cell_volume   1662.90386196
_cell_formula_units_Z   6
loop_
 _symmetry_equiv_pos_site_id
 _symmetry_equiv_pos_as_xyz
  1  'x, y, z'
loop_
 _atom_site_type_symbol
 _atom_site_label
 _atom_site_symmetry_multiplicity
 _atom_site_fract_x
 _atom_site_fract_y
 _atom_site_fract_z
 _atom_site_occupancy
  Cs  Cs0  1  0.47075900  0.87179200  0.68121600  1
  Cs  Cs1  1  0.12820800  0.31878400  0.52924100  1
  Cs  Cs2  1  0.87179200  0.68121600  0.47075900  1
  Cs  Cs3  1  0.37179200  0.97075900  0.18121600  1
  Cs  Cs4  1  0.02924100  0.81878400  0.62820800  1
  Cs  Cs5  1  0.97075900  0.18121600  0.37179200  1
  Cs  Cs6  1  0.18121600  0.37179200  0.97075900  1
  Cs  Cs7  1  0.31878400  0.52924100  0.12820800  1
  Cs  Cs8  1  0.62820800  0.02924100  0.81878400  1
  Cs  Cs9  1  0.81878400  0.62820800  0.02924100  1
  Cs  Cs10  1  0.52924100  0.12820800  0.31878400  1
  Cs  Cs11  1  0.68121600  0.47075900  0.87179200  1
  Re  Re0  1  0.94336900  0.07778900  0.86506000  1
  Re  Re1  1  0.36506000  0.57778900  0.44336900  1
  Re  Re2  1  0.92221100  0.13494000  0.05663100  1
  Re  Re3  1  0.44336900  0.36506000  0.57778900  1
  Re  Re4  1  0.07778900  0.86506000  0.94336900  1
  Re  Re5  1  0.86506000  0.94336900  0.07778900  1
  Re  Re6  1  0.63494000  0.42221100  0.55663100  1
  Re  Re7  1  0.42221100  0.55663100  0.63494000  1
  Re  Re8  1  0.57778900  0.44336900  0.36506000  1
  Re  Re9  1  0.55663100  0.63494000  0.42221100  1
  Re  Re10  1  0.05663100  0.92221100  0.13494000  1
  Re  Re11  1  0.13494000  0.05663100  0.92221100  1
  S  S0  1  0.60437100  0.60437100  0.60437100  1
  S  S1  1  0.25283100  0.49981900  0.64376900  1
  S  S2  1  0.18537600  0.65688100  0.37006300  1
  S  S3  1  0.74716900  0.50018100  0.35623100  1
  S  S4  1  0.65688100  0.37006300  0.18537600  1
  S  S5  1  0.99981900  0.75283100  0.14376900  1
  S  S6  1  0.24716900  0.85623100  0.00018100  1
  S  S7  1  0.49981900  0.64376900  0.25283100  1
  S  S8  1  0.37006300  0.18537600  0.65688100  1
  S  S9  1  0.15688100  0.68537600  0.87006300  1
  S  S10  1  0.68537600  0.87006300  0.15688100  1
  S  S11  1  0.50018100  0.35623100  0.74716900  1
  S  S12  1  0.87006300  0.15688100  0.68537600  1
  S  S13  1  0.81462400  0.34311900  0.62993700  1
  S  S14  1  0.14376900  0.99981900  0.75283100  1
  S  S15  1  0.00018100  0.24716900  0.85623100  1
  S  S16  1  0.35623100  0.74716900  0.50018100  1
  S  S17  1  0.31462400  0.12993700  0.84311900  1
  S  S18  1  0.12993700  0.84311900  0.31462400  1
  S  S19  1  0.89562900  0.89562900  0.89562900  1
  S  S20  1  0.64376900  0.25283100  0.49981900  1
  S  S21  1  0.10437100  0.10437100  0.10437100  1
  S  S22  1  0.34311900  0.62993700  0.81462400  1
  S  S23  1  0.85623100  0.00018100  0.24716900  1
  S  S24  1  0.62993700  0.81462400  0.34311900  1
  S  S25  1  0.84311900  0.31462400  0.12993700  1
  S  S26  1  0.39562900  0.39562900  0.39562900  1
  S  S27  1  0.25000000  0.25000000  0.25000000  1
  S  S28  1  0.75000000  0.75000000  0.75000000  1
  S  S29  1  0.75283100  0.14376900  0.99981900  1
loop_
_geom_bond_atom_site_label_1
_geom_bond_atom_site_label_2
_geom_bond_distance
_geom_bond_site_symmetry_2
Cs0 S0 3.484027 1_555
Cs0 S22 3.536201 1_555
Cs0 S28 3.570791 1_555
Cs0 S8 3.611006 1_565
Cs0 S14 3.730221 1_555
Cs0 S6 3.967815 1_556
Cs0 S16 4.017245 1_555
Cs1 S26 3.484027 1_555
Cs1 S8 3.536201 1_555
Cs1 S27 3.570791 1_555
Cs1 S13 3.611006 1_455
Cs1 S15 3.730222 1_555
Cs1 S14 3.967814 1_545
Cs1 S1 4.017245 1_555
Cs2 S0 3.484027 1_555
Cs2 S24 3.536201 1_555
Cs2 S28 3.570791 1_555
Cs2 S2 3.611006 1_655
Cs2 S5 3.730222 1_555
Cs2 S23 3.967814 1_565
Cs2 S3 4.017245 1_555
Cs3 S21 3.484027 1_565
Cs3 S18 3.536201 1_555
Cs3 S27 3.570791 1_565
Cs3 S10 3.611006 1_555
Cs3 S7 3.730221 1_555
Cs3 S16 3.967815 1_555
Cs3 S6 4.017245 1_555
Cs4 S19 3.484027 1_455
Cs4 S9 3.536202 1_555
Cs4 S28 3.570791 1_455
Cs4 S18 3.611006 1_555
Cs4 S16 3.730221 1_555
Cs4 S1 3.967814 1_555
Cs4 S14 4.017245 1_555
Cs5 S21 3.484027 1_655
Cs5 S25 3.536202 1_555
Cs5 S27 3.570791 1_655
Cs5 S12 3.611006 1_555
Cs5 S20 3.730221 1_555
Cs5 S3 3.967814 1_555
Cs5 S23 4.017245 1_555
Cs6 S21 3.484027 1_556
Cs6 S17 3.536201 1_555
Cs6 S27 3.570791 1_556
Cs6 S9 3.611006 1_555
Cs6 S1 3.730222 1_555
Cs6 S11 3.967814 1_555
Cs6 S15 4.017245 1_555
Cs7 S26 3.484027 1_555
Cs7 S2 3.536202 1_555
Cs7 S27 3.570791 1_555
Cs7 S22 3.611006 1_554
Cs7 S6 3.730221 1_555
Cs7 S5 3.967814 1_455
Cs7 S7 4.017245 1_555
Cs8 S19 3.484027 1_545
Cs8 S12 3.536201 1_555
Cs8 S28 3.570791 1_545
Cs8 S17 3.611006 1_555
Cs8 S11 3.730221 1_555
Cs8 S20 3.967815 1_555
Cs8 S29 4.017245 1_555
Cs9 S19 3.484027 1_554
Cs9 S10 3.536201 1_555
Cs9 S28 3.570791 1_554
Cs9 S25 3.611006 1_555
Cs9 S3 3.730222 1_555
Cs9 S7 3.967814 1_555
Cs9 S5 4.017245 1_555
Cs10 S26 3.484027 1_555
Cs10 S4 3.536201 1_555
Cs10 S27 3.570791 1_555
Cs10 S24 3.611006 1_545
Cs10 S23 3.730221 1_555
Cs10 S29 3.967815 1_554
Cs10 S20 4.017245 1_555
Cs11 S0 3.484027 1_555
Cs11 S13 3.536202 1_555
Cs11 S28 3.570791 1_555
Cs11 S4 3.611006 1_556
Cs11 S29 3.730221 1_555
Cs11 S15 3.967814 1_655
Cs11 S11 4.017245 1_555
Re0 S15 2.427709 1_655
Re0 S19 2.432513 1_545
Re0 S29 2.441420 1_555
Re0 S14 2.441767 1_645
Re0 S12 2.478927 1_555
Re1 S16 2.427709 1_555
Re1 S26 2.432513 1_555
Re1 S7 2.441420 1_555
Re1 S1 2.441767 1_555
Re1 S2 2.478927 1_555
Re2 S29 2.427709 1_554
Re2 S21 2.432513 1_655
Re2 S23 2.441420 1_555
Re2 S15 2.441767 1_654
Re2 S25 2.478927 1_555
Re3 S11 2.427709 1_555
Re3 S26 2.432513 1_555
Re3 S1 2.441420 1_555
Re3 S20 2.441767 1_555
Re3 S8 2.478927 1_555
Re4 S6 2.427709 1_556
Re4 S19 2.432513 1_455
Re4 S14 2.441420 1_555
Re4 S5 2.441767 1_456
Re4 S9 2.478927 1_555
Re5 S23 2.427709 1_565
Re5 S19 2.432513 1_554
Re5 S5 2.441420 1_555
Re5 S29 2.441767 1_564
Re5 S10 2.478927 1_555
Re6 S20 2.427709 1_555
Re6 S0 2.432513 1_555
Re6 S11 2.441420 1_555
Re6 S3 2.441767 1_555
Re6 S13 2.478927 1_555
Re7 S1 2.427709 1_555
Re7 S0 2.432513 1_555
Re7 S16 2.441420 1_555
Re7 S11 2.441767 1_555
Re7 S22 2.478927 1_555
Re8 S3 2.427709 1_555
Re8 S26 2.432513 1_555
Re8 S20 2.441420 1_555
Re8 S7 2.441767 1_555
Re8 S4 2.478927 1_555
Re9 S7 2.427709 1_555
Re9 S0 2.432513 1_555
Re9 S3 2.441420 1_555
Re9 S16 2.441767 1_555
Re9 S24 2.478927 1_555
Re10 S5 2.427709 1_455
Re10 S21 2.432513 1_565
Re10 S6 2.441420 1_555
Re10 S23 2.441767 1_465
Re10 S18 2.478927 1_555
Re11 S14 2.427709 1_545
Re11 S21 2.432513 1_556
Re11 S15 2.441420 1_555
Re11 S6 2.441767 1_546
Re11 S17 2.478927 1_555
S10 S24 2.110175 1_555
S12 S13 2.110174 1_555
S17 S8 2.110175 1_555
S18 S2 2.110174 1_555
S22 S9 2.110174 1_555
S25 S4 2.110174 1_555
