# generated using pymatgen
data_Mg2TiO
_symmetry_space_group_name_H-M   'P 1'
_cell_length_a   5.93272900
_cell_length_b   6.12230804
_cell_length_c   20.97149433
_cell_angle_alpha   82.08305461
_cell_angle_beta   82.36754106
_cell_angle_gamma   62.10751250
_symmetry_Int_Tables_number   1
_chemical_formula_structural   Mg2TiO
_chemical_formula_sum   'Mg16 Ti8 O8'
_cell_volume   664.78010237
_cell_formula_units_Z   8
loop_
 _symmetry_equiv_pos_site_id
 _symmetry_equiv_pos_as_xyz
  1  'x, y, z'
loop_
 _atom_site_type_symbol
 _atom_site_label
 _atom_site_symmetry_multiplicity
 _atom_site_fract_x
 _atom_site_fract_y
 _atom_site_fract_z
 _atom_site_occupancy
  Mg  Mg0  1  0.62689400  0.62280500  0.12491200  1
  Mg  Mg1  1  0.12174900  0.62545800  0.12643500  1
  Mg  Mg2  1  0.50000000  0.50000000  0.00000000  1
  Mg  Mg3  1  0.62283200  0.12939900  0.12342100  1
  Mg  Mg4  1  0.87482300  0.87534800  0.37487000  1
  Mg  Mg5  1  0.37494600  0.87526100  0.37474100  1
  Mg  Mg6  1  0.74930100  0.74991200  0.25017000  1
  Mg  Mg7  1  0.87457700  0.37480600  0.37511000  1
  Mg  Mg8  1  0.12517700  0.12465200  0.62513000  1
  Mg  Mg9  1  0.00000000  0.00000000  0.50000000  1
  Mg  Mg10  1  0.62505400  0.12473900  0.62525900  1
  Mg  Mg11  1  0.12542300  0.62519400  0.62489000  1
  Mg  Mg12  1  0.37310600  0.37719500  0.87508800  1
  Mg  Mg13  1  0.87825100  0.37454200  0.87356500  1
  Mg  Mg14  1  0.25069900  0.25008800  0.74983000  1
  Mg  Mg15  1  0.37716800  0.87060100  0.87657900  1
  Ti  Ti0  1  0.00000000  0.50000000  0.00000000  1
  Ti  Ti1  1  0.00000000  0.00000000  0.00000000  1
  Ti  Ti2  1  0.75020000  0.24954900  0.25126900  1
  Ti  Ti3  1  0.24996500  0.24911300  0.25025600  1
  Ti  Ti4  1  0.00000000  0.50000000  0.50000000  1
  Ti  Ti5  1  0.50000000  0.50000000  0.50000000  1
  Ti  Ti6  1  0.24980000  0.75045100  0.74873100  1
  Ti  Ti7  1  0.75003500  0.75088700  0.74974400  1
  O  O0  1  0.15541400  0.16457000  0.03256700  1
  O  O1  1  0.09075200  0.09125500  0.21616900  1
  O  O2  1  0.40465300  0.41244800  0.28272300  1
  O  O3  1  0.34455800  0.33643200  0.46751900  1
  O  O4  1  0.65544200  0.66356800  0.53248100  1
  O  O5  1  0.90924800  0.90874500  0.78383100  1
  O  O6  1  0.59534700  0.58755200  0.71727700  1
  O  O7  1  0.84458600  0.83543000  0.96743300  1
loop_
_geom_bond_atom_site_label_1
_geom_bond_atom_site_label_2
_geom_bond_distance
_geom_bond_site_symmetry_2
Mg0 Mg1 2.947899 1_655
Mg0 Mg1 2.985263 1_555
Mg0 Mg3 3.036614 1_555
Mg0 Mg3 3.086190 1_565
Mg0 Mg2 3.096818 1_555
Mg0 Mg6 3.103528 1_555
Mg0 Ti0 3.126087 1_655
Mg0 Ti2 3.172047 1_555
Mg1 Mg3 3.101727 1_555
Mg1 Mg6 3.105303 1_455
Mg1 Ti0 3.119483 1_555
Mg1 Mg3 3.120223 1_465
Mg1 Ti3 3.141190 1_555
Mg1 Mg2 3.166094 1_555
Mg1 Ti1 3.177204 1_565
Mg2 Ti0 2.966365 1_555
Mg2 Ti0 2.966365 1_655
Mg2 Ti1 3.110308 1_565
Mg2 Ti1 3.110308 1_655
Mg2 Mg3 3.116852 1_555
Mg3 Ti1 3.114776 1_655
Mg3 Ti2 3.146788 1_555
Mg3 Ti3 3.156406 1_555
Mg3 Mg6 3.197494 1_545
Mg4 Mg5 2.966245 1_555
Mg4 Mg5 2.966487 1_655
Mg4 Mg7 3.057850 1_565
Mg4 Mg7 3.064466 1_555
Mg4 Mg6 3.096601 1_555
Mg4 Mg9 3.101577 1_665
Mg4 Ti2 3.130905 1_565
Mg4 Ti4 3.158841 1_655
Mg5 Mg7 3.109969 1_465
Mg5 Mg7 3.110669 1_555
Mg5 Mg6 3.124538 1_555
Mg5 Mg9 3.137331 1_565
Mg5 Ti3 3.143924 1_565
Mg5 Ti5 3.160631 1_555
Mg6 Ti2 3.057798 1_555
Mg6 Ti2 3.064693 1_565
Mg6 Ti3 3.105749 1_565
Mg6 Ti3 3.114868 1_655
Mg6 Mg7 3.155064 1_555
Mg7 Ti2 3.076493 1_555
Mg7 Ti4 3.099250 1_655
Mg7 Ti5 3.130340 1_555
Mg7 Ti3 3.132172 1_655
Mg7 Mg9 3.153346 1_655
Mg8 Mg9 3.101577 1_555
Mg8 Ti6 3.130905 1_545
Mg8 Ti4 3.158841 1_555
Mg9 Ti4 3.061154 1_545
Mg9 Ti4 3.061154 1_555
Mg9 Ti5 3.110308 1_455
Mg9 Ti5 3.110308 1_545
Mg10 Mg8 2.966245 1_555
Mg10 Mg8 2.966487 1_655
Mg10 Mg11 3.109969 1_645
Mg10 Mg11 3.110669 1_555
Mg10 Mg14 3.124538 1_555
Mg10 Mg9 3.137331 1_655
Mg10 Ti7 3.143924 1_545
Mg10 Ti5 3.160631 1_555
Mg11 Mg8 3.057850 1_565
Mg11 Mg8 3.064466 1_555
Mg11 Ti6 3.076493 1_555
Mg11 Ti4 3.099250 1_555
Mg11 Ti5 3.130340 1_555
Mg11 Ti7 3.132172 1_455
Mg11 Mg9 3.153346 1_565
Mg11 Mg14 3.155064 1_555
Mg12 Mg13 2.947899 1_455
Mg12 Mg13 2.985263 1_555
Mg12 Mg15 3.036614 1_555
Mg12 Mg15 3.086190 1_545
Mg12 Mg2 3.096818 1_556
Mg12 Mg14 3.103528 1_555
Mg12 Ti0 3.126087 1_556
Mg12 Ti6 3.172047 1_555
Mg13 Mg15 3.101727 1_555
Mg13 Mg14 3.105303 1_655
Mg13 Ti0 3.119483 1_656
Mg13 Mg15 3.120223 1_645
Mg13 Ti7 3.141190 1_555
Mg13 Mg2 3.166094 1_556
Mg13 Ti1 3.177204 1_656
Mg14 Ti6 3.057798 1_555
Mg14 Ti6 3.064693 1_545
Mg14 Mg8 3.096601 1_555
Mg14 Ti7 3.105749 1_545
Mg14 Ti7 3.114868 1_455
Mg14 Mg15 3.197494 1_545
Mg15 Ti1 3.114776 1_566
Mg15 Mg2 3.116852 1_556
Mg15 Ti6 3.146788 1_555
Mg15 Ti7 3.156406 1_555
O0 Ti0 1.882340 1_555
O0 Ti1 1.886208 1_555
O1 Ti2 1.879508 1_455
O1 Ti3 1.887078 1_555
O2 Ti3 1.875626 1_555
O2 Ti2 1.881887 1_555
O3 Ti5 1.880453 1_555
O3 Ti4 1.883667 1_555
O4 Ti5 1.880453 1_555
O4 Ti4 1.883667 1_655
O5 Ti6 1.879508 1_655
O5 Ti7 1.887078 1_555
O6 Ti7 1.875626 1_555
O6 Ti6 1.881887 1_555
O7 Ti0 1.882340 1_656
O7 Ti1 1.886208 1_666
