# generated using pymatgen
data_U2Al20Fe
_symmetry_space_group_name_H-M   'P 1'
_cell_length_a   10.25376588
_cell_length_b   10.25376588
_cell_length_c   10.25376588
_cell_angle_alpha   103.98832252
_cell_angle_beta   103.98832252
_cell_angle_gamma   121.10123140
_symmetry_Int_Tables_number   1
_chemical_formula_structural   U2Al20Fe
_chemical_formula_sum   'U4 Al40 Fe2'
_cell_volume   803.83595439
_cell_formula_units_Z   2
loop_
 _symmetry_equiv_pos_site_id
 _symmetry_equiv_pos_as_xyz
  1  'x, y, z'
loop_
 _atom_site_type_symbol
 _atom_site_label
 _atom_site_symmetry_multiplicity
 _atom_site_fract_x
 _atom_site_fract_y
 _atom_site_fract_z
 _atom_site_occupancy
  U  U0  1  0.58588500  0.58588500  0.67507100  1
  U  U1  1  0.41411500  0.08918600  0.00000000  1
  U  U2  1  0.08918600  0.41411500  0.00000000  1
  U  U3  1  0.91081400  0.91081400  0.32492900  1
  Al  Al0  1  0.75074000  0.22509800  0.00000000  1
  Al  Al1  1  0.49316500  0.34638200  0.32592300  1
  Al  Al2  1  0.04233600  0.44903300  0.26986500  1
  Al  Al3  1  0.50000000  0.65274300  0.15274300  1
  Al  Al4  1  0.83275800  0.50683500  0.85321700  1
  Al  Al5  1  0.73584400  0.32305400  0.26820100  1
  Al  Al6  1  0.74318700  0.74318700  0.00000000  1
  Al  Al7  1  0.34638200  0.49316500  0.32592300  1
  Al  Al8  1  0.26415600  0.53235600  0.58721000  1
  Al  Al9  1  0.84895500  0.00000000  0.84895500  1
  Al  Al10  1  0.82083200  0.55096700  0.59330300  1
  Al  Al11  1  0.32305400  0.73584400  0.26820100  1
  Al  Al12  1  0.77247100  0.17916800  0.73013500  1
  Al  Al13  1  0.24926000  0.24926000  0.47435800  1
  Al  Al14  1  0.97954100  0.65361800  0.14678300  1
  Al  Al15  1  0.25681300  0.25681300  0.00000000  1
  Al  Al16  1  0.15104500  0.00000000  0.15104500  1
  Al  Al17  1  0.02045900  0.16724200  0.67407700  1
  Al  Al18  1  0.22509800  0.75074000  0.00000000  1
  Al  Al19  1  0.17916800  0.77247100  0.73013500  1
  Al  Al20  1  0.34725700  0.50000000  0.84725700  1
  Al  Al21  1  0.00000000  0.84895500  0.84895500  1
  Al  Al22  1  0.22752900  0.95766400  0.40669700  1
  Al  Al23  1  0.55096700  0.82083200  0.59330300  1
  Al  Al24  1  0.67694600  0.94514600  0.41279000  1
  Al  Al25  1  0.50683500  0.83275800  0.85321700  1
  Al  Al26  1  0.53235600  0.26415600  0.58721000  1
  Al  Al27  1  0.75000000  0.25000000  0.50000000  1
  Al  Al28  1  0.94514600  0.67694600  0.41279000  1
  Al  Al29  1  0.16724200  0.02045900  0.67407700  1
  Al  Al30  1  0.65274300  0.50000000  0.15274300  1
  Al  Al31  1  0.00000000  0.15104500  0.15104500  1
  Al  Al32  1  0.77490200  0.77490200  0.52564200  1
  Al  Al33  1  0.46764400  0.05485400  0.73179900  1
  Al  Al34  1  0.50000000  0.34725700  0.84725700  1
  Al  Al35  1  0.65361800  0.97954100  0.14678300  1
  Al  Al36  1  0.05485400  0.46764400  0.73179900  1
  Al  Al37  1  0.95766400  0.22752900  0.40669700  1
  Al  Al38  1  0.44903300  0.04233600  0.26986500  1
  Al  Al39  1  0.25000000  0.75000000  0.50000000  1
  Fe  Fe0  1  0.00000000  0.50000000  0.50000000  1
  Fe  Fe1  1  0.50000000  0.00000000  0.50000000  1
loop_
_geom_bond_atom_site_label_1
_geom_bond_atom_site_label_2
_geom_bond_distance
_geom_bond_site_symmetry_2
Al0 Al33 2.760657 1_554
Al0 Al5 2.760660 1_555
Al0 Al2 2.775778 1_655
Al0 Al12 2.775778 1_554
Al0 U2 2.975066 1_655
Al0 U1 2.981053 1_555
Al0 Al25 3.092405 1_544
Al0 Al35 3.092405 1_545
Al1 Al7 2.621216 1_555
Al1 Al38 2.793765 1_555
Al1 Al5 2.803217 1_555
Al1 Al30 2.899320 1_555
Al1 Al10 2.947965 1_555
Al1 Al26 2.995316 1_555
Al1 Al16 3.023953 1_555
Al1 Al13 3.092405 1_555
Al1 Al15 3.191635 1_555
Al1 U1 3.316881 1_555
Al1 U0 3.382866 1_555
Al2 Fe0 2.482618 1_555
Al2 Al39 2.624426 1_555
Al2 Al5 2.704608 1_455
Al2 Al31 2.753758 1_555
Al2 Al7 2.793765 1_555
Al2 Al37 2.823684 1_455
Al2 U2 2.890909 1_555
Al3 Al30 2.727648 1_555
Al3 Al7 2.899320 1_555
Al3 Al35 2.899320 1_555
Al3 Al6 3.119639 1_555
Al3 U3 3.239411 1_555
Al3 U2 3.239411 1_555
Al4 Al6 3.191635 1_556
Al4 U0 3.316881 1_555
Al4 U2 3.382866 1_656
Al5 Fe0 2.450184 1_655
Al5 U1 2.906780 1_555
Al6 U3 2.901719 1_555
Al6 U0 2.901719 1_554
Al7 Al8 2.995316 1_555
Al7 U2 3.316881 1_555
Al7 U0 3.382866 1_555
Al8 Fe0 2.450189 1_555
Al8 U0 2.906775 1_555
Al9 U2 3.266083 1_656
Al9 U0 3.266083 1_545
Al10 Fe0 2.482618 1_655
Al10 Al27 2.624426 1_555
Al10 Al28 2.704604 1_555
Al10 Al21 2.753758 1_655
Al10 Al32 2.775778 1_555
Al10 Al4 2.793765 1_555
Al10 Al19 2.823684 1_655
Al10 Al26 2.870038 1_555
Al10 U0 2.890909 1_555
Al11 Fe1 2.450184 1_565
Al11 Al39 2.652868 1_555
Al11 Al38 2.704608 1_565
Al11 Al3 2.750908 1_555
Al11 Al18 2.760660 1_555
Al11 Al7 2.803217 1_555
Al11 Al2 2.870033 1_555
Al11 U2 2.906780 1_555
Al11 Al14 2.995316 1_455
Al12 Fe1 2.482618 1_555
Al12 Al27 2.624426 1_555
Al12 Al33 2.704600 1_555
Al12 Al9 2.753758 1_555
Al12 Al17 2.793765 1_655
Al12 Al23 2.823684 1_545
Al12 Al36 2.870043 1_655
Al12 U2 2.890909 1_656
Al12 Al4 2.947965 1_555
Al13 Al26 2.760651 1_555
Al13 Al8 2.760651 1_555
Al13 Al37 2.775778 1_455
Al13 Al22 2.775778 1_545
Al13 U3 2.975066 1_445
Al13 U0 2.981053 1_555
Al13 Al7 3.092405 1_555
Al14 Al4 2.621216 1_554
Al14 Al22 2.793765 1_655
Al14 Al28 2.803221 1_555
Al14 Al30 2.899320 1_555
Al14 Al2 2.947965 1_655
Al14 Al16 3.023953 1_665
Al14 Al18 3.092405 1_655
Al14 Al6 3.191635 1_555
Al14 U3 3.316881 1_555
Al14 U2 3.382866 1_655
Al15 U2 2.901719 1_555
Al15 U1 2.901719 1_555
Al15 Al30 3.119639 1_555
Al15 Al3 3.119639 1_555
Al15 Al20 3.119639 1_554
Al15 Al34 3.119639 1_554
Al15 Al7 3.191635 1_555
Al15 Al17 3.191635 1_554
Al15 Al29 3.191635 1_554
Al16 Al31 2.697326 1_555
Al16 Al21 2.697326 1_544
Al16 Al38 2.753758 1_555
Al16 Al22 2.753758 1_545
Al16 U1 3.266083 1_555
Al16 U3 3.266083 1_445
Al17 Al29 2.621216 1_555
Al17 Al36 2.803222 1_555
Al17 Al20 2.899320 1_555
Al17 Al37 2.947965 1_455
Al17 Al24 2.995316 1_445
Al17 Al9 3.023953 1_455
Al17 Al32 3.092405 1_445
Al17 U2 3.316881 1_556
Al17 U3 3.382866 1_445
Al18 Al36 2.760657 1_554
Al18 Al38 2.775778 1_565
Al18 Al19 2.775778 1_554
Al18 U1 2.975066 1_565
Al18 U2 2.981053 1_555
Al18 Al4 3.092405 1_454
Al19 Fe0 2.482618 1_555
Al19 Al39 2.624426 1_555
Al19 Al36 2.704600 1_555
Al19 Al21 2.753758 1_555
Al19 Al29 2.793765 1_565
Al19 Al33 2.870043 1_565
Al19 U1 2.890909 1_566
Al19 Al25 2.947965 1_555
Al20 Al34 2.727648 1_555
Al20 Al3 2.727648 1_556
Al20 Al8 2.750903 1_555
Al20 Al36 2.750904 1_555
Al20 Al25 2.899320 1_555
Al20 Al6 3.119639 1_556
Al20 U0 3.239411 1_555
Al20 U2 3.239411 1_556
Al21 Al9 2.697326 1_465
Al21 Al29 3.023953 1_565
Al21 Al4 3.023953 1_455
Al21 U1 3.266083 1_566
Al21 U0 3.266083 1_455
Al22 Fe1 2.482618 1_565
Al22 Al39 2.624426 1_555
Al22 Al26 2.704604 1_565
Al22 Al38 2.823684 1_565
Al22 Al28 2.870038 1_455
Al22 U3 2.890909 1_455
Al22 Al29 2.947965 1_565
Al23 Fe1 2.482618 1_565
Al23 Al39 2.624426 1_555
Al23 Al24 2.704604 1_555
Al23 Al9 2.753758 1_565
Al23 Al32 2.775778 1_555
Al23 Al25 2.793765 1_555
Al23 Al8 2.870038 1_555
Al23 U0 2.890909 1_555
Al23 Al7 2.947965 1_555
Al24 Fe1 2.450189 1_565
Al24 Al27 2.652878 1_565
Al24 Al3 2.750903 1_555
Al24 Al32 2.760651 1_555
Al24 Al35 2.803221 1_555
Al24 Al37 2.870038 1_565
Al24 U3 2.906775 1_555
Al25 Al35 2.621216 1_556
Al25 Al8 2.803221 1_555
Al25 Al33 2.995321 1_565
Al25 Al9 3.023953 1_565
Al25 Al6 3.191635 1_556
Al25 U0 3.316881 1_555
Al25 U1 3.382866 1_566
Al26 Fe1 2.450189 1_555
Al26 Al27 2.652878 1_555
Al26 Al34 2.750903 1_555
Al26 Al4 2.803221 1_555
Al26 U0 2.906775 1_555
Al27 Fe0 2.520655 1_655
Al27 Fe1 2.520655 1_555
Al27 Al37 2.624426 1_555
Al27 Al38 2.624426 1_555
Al27 Al5 2.652868 1_555
Al27 Al36 2.652873 1_655
Al28 Fe0 2.450189 1_655
Al28 Al39 2.652878 1_655
Al28 Al30 2.750903 1_555
Al28 Al32 2.760651 1_555
Al28 U3 2.906775 1_555
Al28 Al29 2.995316 1_665
Al29 Al33 2.803222 1_555
Al29 Al34 2.899320 1_555
Al29 Al32 3.092405 1_445
Al29 U1 3.316881 1_556
Al29 U3 3.382866 1_445
Al30 Al34 2.727648 1_554
Al30 Al5 2.750908 1_555
Al30 Al6 3.119639 1_555
Al30 U1 3.239411 1_555
Al30 U3 3.239411 1_555
Al31 Al9 2.697326 1_454
Al31 Al37 2.753758 1_455
Al31 Al7 3.023953 1_555
Al31 Al35 3.023953 1_445
Al31 U2 3.266083 1_555
Al31 U3 3.266083 1_445
Al32 U0 2.975066 1_555
Al32 U3 2.981053 1_555
Al33 Fe1 2.450180 1_555
Al33 Al39 2.652873 1_545
Al33 Al34 2.750904 1_555
Al33 U1 2.906785 1_556
Al34 Al4 2.899320 1_555
Al34 Al6 3.119639 1_556
Al34 U0 3.239411 1_555
Al34 U1 3.239411 1_556
Al35 Al37 2.793765 1_565
Al35 Al38 2.947965 1_565
Al35 Al5 2.995316 1_565
Al35 Al6 3.191635 1_555
Al35 U3 3.316881 1_555
Al35 U1 3.382866 1_565
Al36 Fe0 2.450180 1_555
Al36 U2 2.906785 1_556
Al36 Al4 2.995321 1_455
Al37 Fe0 2.482618 1_655
Al37 Al8 2.704604 1_655
Al37 U3 2.890909 1_545
Al38 Fe1 2.482618 1_555
Al38 Al5 2.870033 1_555
Al38 U1 2.890909 1_555
Al39 Fe1 2.520655 1_565
Al39 Fe0 2.520655 1_555
Al39 Al8 2.652878 1_555
