# generated using pymatgen
data_Ti10Bi(Pb3O10)3
_symmetry_space_group_name_H-M   'P 1'
_cell_length_a   8.77165200
_cell_length_b   8.77309031
_cell_length_c   9.42368749
_cell_angle_alpha   100.73817163
_cell_angle_beta   111.86187208
_cell_angle_gamma   89.96873027
_symmetry_Int_Tables_number   1
_chemical_formula_structural   Ti10Bi(Pb3O10)3
_chemical_formula_sum   'Ti10 Bi1 Pb9 O30'
_cell_volume   659.36956418
_cell_formula_units_Z   1
loop_
 _symmetry_equiv_pos_site_id
 _symmetry_equiv_pos_as_xyz
  1  'x, y, z'
loop_
 _atom_site_type_symbol
 _atom_site_label
 _atom_site_symmetry_multiplicity
 _atom_site_fract_x
 _atom_site_fract_y
 _atom_site_fract_z
 _atom_site_occupancy
  Ti  Ti0  1  0.59548400  0.05163500  0.73114600  1
  Ti  Ti1  1  0.99244200  0.24620100  0.73098000  1
  Ti  Ti2  1  0.79258500  0.14641300  0.23248700  1
  Ti  Ti3  1  0.19344900  0.34754900  0.23207000  1
  Ti  Ti4  1  0.38927500  0.44082500  0.73082500  1
  Ti  Ti5  1  0.79769700  0.64303900  0.73091100  1
  Ti  Ti6  1  0.59212900  0.54714700  0.23209900  1
  Ti  Ti7  1  0.18702400  0.84927300  0.73098900  1
  Ti  Ti8  1  0.99397700  0.74621700  0.23227200  1
  Ti  Ti9  1  0.39232200  0.94493400  0.23218300  1
  Bi  Bi0  1  0.41230200  0.70619000  0.53080600  1
  Pb  Pb0  1  0.00236200  0.00255100  0.00576100  1
  Pb  Pb1  1  0.40135600  0.20072700  0.00572800  1
  Pb  Pb2  1  0.19784400  0.09680900  0.49682600  1
  Pb  Pb3  1  0.80260200  0.40110300  0.00570300  1
  Pb  Pb4  1  0.59960100  0.30173900  0.49663100  1
  Pb  Pb5  1  0.20182800  0.60017000  0.00460900  1
  Pb  Pb6  1  0.00105900  0.49831300  0.49656800  1
  Pb  Pb7  1  0.60270400  0.80098500  0.00508400  1
  Pb  Pb8  1  0.79611800  0.90038000  0.49698900  1
  O  O0  1  0.07995500  0.03905300  0.68867300  1
  O  O1  1  0.47568300  0.23779300  0.68918900  1
  O  O2  1  0.27633200  0.13812800  0.19114000  1
  O  O3  1  0.67553700  0.08684300  0.93862700  1
  O  O4  1  0.77681100  0.13335000  0.68855700  1
  O  O5  1  0.57636700  0.03772600  0.19117900  1
  O  O6  1  0.87107500  0.43640700  0.68869000  1
  O  O7  1  0.67578600  0.33813000  0.19070000  1
  O  O8  1  0.07572100  0.28764900  0.93922900  1
  O  O9  1  0.87605300  0.18819900  0.44024400  1
  O  O10  1  0.17387600  0.34205500  0.68844000  1
  O  O11  1  0.97609600  0.23882700  0.19062900  1
  O  O12  1  0.47549500  0.48855700  0.93820100  1
  O  O13  1  0.27801200  0.63991800  0.68082700  1
  O  O14  1  0.27645900  0.39166500  0.43964900  1
  O  O15  1  0.07515000  0.53768400  0.18816900  1
  O  O16  1  0.56864500  0.54205200  0.68072500  1
  O  O17  1  0.37546900  0.43727000  0.18815600  1
  O  O18  1  0.66659300  0.83246900  0.68092800  1
  O  O19  1  0.47572400  0.73773000  0.18873700  1
  O  O20  1  0.87404700  0.68750300  0.93791200  1
  O  O21  1  0.67230400  0.58834500  0.43983700  1
  O  O22  1  0.97571300  0.73779600  0.68926800  1
  O  O23  1  0.77674100  0.63830800  0.19156700  1
  O  O24  1  0.07982700  0.78741600  0.43994700  1
  O  O25  1  0.87690300  0.93831500  0.19117800  1
  O  O26  1  0.27611300  0.88785400  0.93799100  1
  O  O27  1  0.37602200  0.93029100  0.68080700  1
  O  O28  1  0.17519700  0.83783900  0.18820500  1
  O  O29  1  0.47533400  0.98422900  0.43993300  1
loop_
_geom_bond_atom_site_label_1
_geom_bond_atom_site_label_2
_geom_bond_distance
_geom_bond_site_symmetry_2
Bi0 O16 2.294189 1_555
Bi0 O27 2.294238 1_555
Bi0 O13 2.295989 1_555
Bi0 O18 2.296230 1_555
O0 Ti7 1.944205 1_545
O0 Ti1 2.001824 1_455
O0 Pb2 2.515718 1_555
O0 Pb8 2.603227 1_445
O1 Ti0 1.963982 1_555
O1 Ti4 1.964874 1_555
O1 Pb2 2.575467 1_555
O1 Pb4 2.576426 1_555
O2 Ti3 1.999049 1_555
O2 Ti9 2.001699 1_545
O2 Pb1 2.518432 1_555
O2 Pb0 2.518737 1_555
O3 Ti0 1.778798 1_555
O3 Ti2 2.517896 1_556
O3 Pb7 2.823952 1_546
O3 Pb0 2.826115 1_656
O3 Pb3 2.841178 1_556
O3 Pb1 2.841962 1_556
O4 Ti0 1.946457 1_555
O4 Ti1 2.002244 1_555
O4 Pb8 2.513455 1_545
O4 Pb4 2.601775 1_555
O5 Ti2 1.992889 1_555
O5 Ti9 2.000369 1_545
O5 Pb7 2.527146 1_545
O5 Pb1 2.527190 1_555
O6 Ti5 1.944095 1_555
O6 Ti1 2.001655 1_555
O6 Pb4 2.517650 1_555
O6 Pb6 2.603327 1_655
O7 Ti2 1.994527 1_555
O7 Ti6 1.999595 1_555
O7 Pb1 2.526142 1_555
O7 Pb3 2.527004 1_555
O8 Ti1 1.784342 1_455
O8 Ti3 2.509185 1_556
O8 Pb0 2.819524 1_556
O8 Pb1 2.824116 1_556
O8 Pb5 2.826092 1_556
O8 Pb3 2.829353 1_456
O9 Ti2 1.780130 1_555
O9 Ti1 2.491115 1_555
O9 Pb4 2.813301 1_555
O9 Pb6 2.813846 1_655
O9 Pb2 2.816097 1_655
O9 Pb8 2.817420 1_545
O10 Ti4 1.947055 1_555
O10 Ti1 2.000726 1_455
O10 Pb6 2.515291 1_555
O10 Pb2 2.601634 1_555
O11 Ti2 1.999378 1_555
O11 Ti3 2.001471 1_655
O11 Pb3 2.515310 1_555
O11 Pb0 2.517465 1_655
O12 Ti4 1.777947 1_555
O12 Ti6 2.518221 1_556
O12 Pb7 2.826835 1_556
O12 Pb5 2.828566 1_556
O12 Pb3 2.836579 1_556
O12 Pb1 2.848346 1_556
O13 Ti4 2.046380 1_555
O13 Ti7 2.046879 1_555
O13 Pb6 2.553039 1_555
O14 Ti3 1.778749 1_555
O14 Ti4 2.496353 1_555
O14 Pb6 2.788245 1_555
O14 Pb4 2.822582 1_555
O14 Pb2 2.873227 1_555
O15 Ti8 1.990559 1_455
O15 Ti3 1.991469 1_555
O15 Pb3 2.506342 1_455
O15 Pb5 2.512567 1_555
O16 Ti5 2.045359 1_555
O16 Ti4 2.048917 1_555
O16 Pb4 2.552555 1_555
O17 Ti3 1.988679 1_555
O17 Ti6 1.994898 1_555
O17 Pb1 2.504856 1_555
O17 Pb5 2.512149 1_555
O18 Ti0 2.046821 1_565
O18 Ti5 2.047543 1_555
O18 Pb8 2.550034 1_555
O19 Ti6 1.986742 1_555
O19 Ti9 1.987855 1_555
O19 Pb7 2.517547 1_555
O19 Pb5 2.521411 1_555
O20 Ti5 1.774752 1_555
O20 Ti8 2.522241 1_556
O20 Pb7 2.818070 1_556
O20 Pb3 2.830568 1_556
O20 Pb5 2.842525 1_656
O20 Pb0 2.850251 1_666
O21 Ti6 1.780148 1_555
O21 Ti5 2.495443 1_555
O21 Pb4 2.787987 1_555
O21 Pb8 2.825201 1_555
O21 Pb6 2.869194 1_655
O22 Ti7 1.965364 1_655
O22 Ti5 1.965373 1_555
O22 Pb8 2.575712 1_555
O22 Pb6 2.576767 1_655
O23 Ti6 1.995923 1_555
O23 Ti8 1.999165 1_555
O23 Pb3 2.527264 1_555
O23 Pb7 2.527825 1_555
O24 Ti8 1.779594 1_455
O24 Ti7 2.495250 1_555
O24 Pb2 2.788229 1_565
O24 Pb6 2.824149 1_555
O24 Pb8 2.873898 1_455
O25 Ti2 1.994923 1_565
O25 Ti8 1.997476 1_555
O25 Pb0 2.526146 1_665
O25 Pb7 2.527139 1_555
O26 Ti7 1.774687 1_555
O26 Ti9 2.520805 1_556
O26 Pb1 2.824314 1_566
O26 Pb7 2.831178 1_556
O26 Pb5 2.843509 1_556
O26 Pb0 2.843655 1_566
O27 Ti7 2.046370 1_555
O27 Ti0 2.048921 1_565
O27 Pb2 2.550715 1_565
O28 Ti9 1.987670 1_555
O28 Ti8 1.990674 1_455
O28 Pb0 2.514900 1_565
O28 Pb5 2.520267 1_555
O29 Ti9 1.780174 1_555
O29 Ti0 2.496713 1_565
O29 Pb8 2.786777 1_555
O29 Pb2 2.821251 1_565
O29 Pb4 2.871908 1_565
