# generated using pymatgen
data_BaSb3
_symmetry_space_group_name_H-M   'P 1'
_cell_length_a   6.57678055
_cell_length_b   6.98368236
_cell_length_c   6.98368342
_cell_angle_alpha   76.72711638
_cell_angle_beta   72.41425294
_cell_angle_gamma   72.41425215
_symmetry_Int_Tables_number   1
_chemical_formula_structural   BaSb3
_chemical_formula_sum   'Ba2 Sb6'
_cell_volume   288.08537332
_cell_formula_units_Z   2
loop_
 _symmetry_equiv_pos_site_id
 _symmetry_equiv_pos_as_xyz
  1  'x, y, z'
loop_
 _atom_site_type_symbol
 _atom_site_label
 _atom_site_symmetry_multiplicity
 _atom_site_fract_x
 _atom_site_fract_y
 _atom_site_fract_z
 _atom_site_occupancy
  Ba  Ba0  1  0.17595046  0.66466255  0.66466255  1
  Ba  Ba1  1  0.82404954  0.33533745  0.33533745  1
  Sb  Sb0  1  0.30004626  0.13837591  0.58620222  1
  Sb  Sb1  1  0.69995374  0.41379778  0.86162409  1
  Sb  Sb2  1  0.27585467  0.01024704  0.01024704  1
  Sb  Sb3  1  0.72414533  0.98975296  0.98975296  1
  Sb  Sb4  1  0.30004626  0.58620222  0.13837591  1
  Sb  Sb5  1  0.69995374  0.86162409  0.41379778  1
loop_
_geom_bond_atom_site_label_1
_geom_bond_atom_site_label_2
_geom_bond_distance
_geom_bond_site_symmetry_2
Ba0 Sb0 3.527023 1_565
Ba0 Sb4 3.527024 1_556
Ba0 Sb0 3.649240 1_555
Ba0 Sb4 3.649240 1_555
Ba0 Sb3 3.654045 1_455
Ba0 Sb1 3.790403 1_455
Ba0 Sb5 3.790403 1_455
Ba0 Sb5 3.866213 1_555
Ba0 Sb1 3.866213 1_555
Ba1 Sb5 3.527023 1_545
Ba1 Sb1 3.527024 1_554
Ba1 Sb5 3.649240 1_555
Ba1 Sb1 3.649240 1_555
Ba1 Sb2 3.654045 1_655
Ba1 Sb4 3.790403 1_655
Ba1 Sb0 3.790403 1_655
Ba1 Sb0 3.866213 1_555
Ba1 Sb4 3.866213 1_555
Sb0 Sb2 2.860141 1_556
Sb0 Sb5 2.861110 1_545
Sb1 Sb3 2.860141 1_545
Sb1 Sb4 2.861110 1_556
Sb2 Sb4 2.860141 1_545
Sb2 Sb3 2.869309 1_544
Sb3 Sb5 2.860141 1_556
