# generated using pymatgen
data_Tm2PbS4
_symmetry_space_group_name_H-M   'P 1'
_cell_length_a   13.37738100
_cell_length_b   10.25964000
_cell_length_c   11.71996966
_cell_angle_alpha   66.97416504
_cell_angle_beta   90.00000000
_cell_angle_gamma   90.00000000
_symmetry_Int_Tables_number   1
_chemical_formula_structural   Tm2PbS4
_chemical_formula_sum   'Tm16 Pb8 S32'
_cell_volume   1480.37796911
_cell_formula_units_Z   8
loop_
 _symmetry_equiv_pos_site_id
 _symmetry_equiv_pos_as_xyz
  1  'x, y, z'
loop_
 _atom_site_type_symbol
 _atom_site_label
 _atom_site_symmetry_multiplicity
 _atom_site_fract_x
 _atom_site_fract_y
 _atom_site_fract_z
 _atom_site_occupancy
  Tm  Tm0  1  0.29712900  0.94720200  0.58127700  1
  Tm  Tm1  1  0.73826700  0.81289500  0.88260800  1
  Tm  Tm2  1  0.60431100  0.81967400  0.17756800  1
  Tm  Tm3  1  0.99554900  0.67791700  0.51585200  1
  Tm  Tm4  1  0.62963000  0.71019600  0.59727800  1
  Tm  Tm5  1  0.09610800  0.53578900  0.84308600  1
  Tm  Tm6  1  0.18809200  0.69212300  0.14043300  1
  Tm  Tm7  1  0.77275300  0.42626500  0.45668000  1
  Tm  Tm8  1  0.27275300  0.57373500  0.54332000  1
  Tm  Tm9  1  0.68809200  0.30787700  0.85956700  1
  Tm  Tm10  1  0.59610800  0.46421100  0.15691400  1
  Tm  Tm11  1  0.12963000  0.28980400  0.40272200  1
  Tm  Tm12  1  0.49554900  0.32208300  0.48414800  1
  Tm  Tm13  1  0.10431100  0.18032600  0.82243200  1
  Tm  Tm14  1  0.23826700  0.18710500  0.11739200  1
  Tm  Tm15  1  0.79712900  0.05279800  0.41872300  1
  Pb  Pb0  1  0.98926900  0.94797100  0.66309400  1
  Pb  Pb1  1  0.92472300  0.00155800  0.07487700  1
  Pb  Pb2  1  0.43288400  0.56751800  0.83416800  1
  Pb  Pb3  1  0.40024900  0.60654100  0.28830600  1
  Pb  Pb4  1  0.90024900  0.39345900  0.71169400  1
  Pb  Pb5  1  0.93288400  0.43248200  0.16583200  1
  Pb  Pb6  1  0.42472300  0.99844200  0.92512300  1
  Pb  Pb7  1  0.48926900  0.05202900  0.33690600  1
  S  S0  1  0.72639800  0.92031400  0.64417800  1
  S  S1  1  0.33055000  0.81737600  0.82436300  1
  S  S2  1  0.26105900  0.63324500  0.94963200  1
  S  S3  1  0.05527100  0.74152800  0.93819600  1
  S  S4  1  0.19644700  0.98542500  0.02429000  1
  S  S5  1  0.42180800  0.92333100  0.18939800  1
  S  S6  1  0.42887900  0.73921300  0.55774200  1
  S  S7  1  0.67104000  0.87546700  0.36859400  1
  S  S8  1  0.15946100  0.73743000  0.61562700  1
  S  S9  1  0.94980500  0.92240600  0.36950000  1
  S  S10  1  0.92225500  0.65118600  0.73854500  1
  S  S11  1  0.65747900  0.57767200  0.83587200  1
  S  S12  1  0.55653100  0.73158400  0.99749500  1
  S  S13  1  0.91330000  0.73263500  0.02197200  1
  S  S14  1  0.74508300  0.60926200  0.23513500  1
  S  S15  1  0.11987200  0.56979700  0.38760100  1
  S  S16  1  0.61987200  0.43020300  0.61239900  1
  S  S17  1  0.24508300  0.39073800  0.76486500  1
  S  S18  1  0.41330000  0.26736500  0.97802800  1
  S  S19  1  0.05653100  0.26841600  0.00250500  1
  S  S20  1  0.15747900  0.42232800  0.16412800  1
  S  S21  1  0.42225500  0.34881400  0.26145500  1
  S  S22  1  0.44980500  0.07759400  0.63050000  1
  S  S23  1  0.65946100  0.26257000  0.38437300  1
  S  S24  1  0.17104000  0.12453300  0.63140600  1
  S  S25  1  0.92887900  0.26078700  0.44225800  1
  S  S26  1  0.92180800  0.07666900  0.81060200  1
  S  S27  1  0.69644700  0.01457500  0.97571000  1
  S  S28  1  0.55527100  0.25847200  0.06180400  1
  S  S29  1  0.76105900  0.36675500  0.05036800  1
  S  S30  1  0.83055000  0.18262400  0.17563700  1
  S  S31  1  0.22639800  0.07968600  0.35582200  1
loop_
_geom_bond_atom_site_label_1
_geom_bond_atom_site_label_2
_geom_bond_distance
_geom_bond_site_symmetry_2
Pb0 S26 2.707822 1_565
Pb0 S10 2.958160 1_555
Pb0 S24 2.967459 1_665
Pb1 S30 2.854590 1_555
Pb1 S26 2.884686 1_554
Pb1 S13 3.059163 1_545
Pb1 S19 3.083458 1_655
Pb2 S1 2.868467 1_555
Pb2 S2 2.878065 1_555
Pb2 S18 2.886643 1_555
Pb2 S11 3.006635 1_555
Pb2 S6 3.022768 1_555
Pb3 S21 2.797921 1_555
Pb3 S5 3.007168 1_555
Pb3 Tm12 3.189128 1_555
Pb3 Tm6 3.261733 1_555
Pb3 Tm8 3.341848 1_555
Pb3 Tm2 3.420190 1_555
Pb3 Tm10 3.623203 1_555
Pb4 S10 2.797921 1_555
Pb4 S26 3.007168 1_555
Pb4 Tm3 3.189128 1_555
Pb4 Tm9 3.261733 1_555
Pb4 Tm7 3.341848 1_555
Pb4 Tm13 3.420190 1_655
Pb4 Tm5 3.623203 1_655
Pb5 S30 2.868467 1_555
Pb5 S29 2.878065 1_555
Pb5 S13 2.886643 1_555
Pb5 S20 3.006635 1_655
Pb5 S25 3.022768 1_555
Pb6 S1 2.854590 1_555
Pb6 S5 2.884686 1_556
Pb6 S18 3.059163 1_565
Pb6 S12 3.083458 1_555
Pb7 S5 2.707822 1_545
Pb7 S21 2.958160 1_555
Pb7 S7 2.967459 1_545
S0 Tm1 2.576672 1_555
S0 Tm15 2.629650 1_565
S0 Tm4 2.748096 1_555
S1 S2 2.102072 1_555
S1 Tm0 2.668711 1_555
S2 Tm6 2.715680 1_556
S2 Tm5 2.899118 1_555
S3 Tm5 2.799485 1_555
S3 Tm6 2.844641 1_556
S4 Tm13 2.722819 1_564
S4 Tm14 2.747957 1_565
S4 Tm6 2.777794 1_555
S5 Tm2 2.688134 1_555
S5 Tm14 3.503959 1_565
S6 Tm4 2.721663 1_555
S6 Tm8 2.738150 1_555
S6 Tm0 2.862923 1_555
S7 Tm4 2.609625 1_555
S7 Tm2 2.671956 1_555
S7 Tm15 2.708595 1_565
S8 Tm8 2.636091 1_555
S8 Tm3 2.665849 1_455
S8 Tm0 2.740036 1_555
S8 Tm5 2.791111 1_555
S9 Tm3 2.498530 1_555
S9 Tm15 2.626328 1_565
S10 Tm5 2.678983 1_655
S10 Tm3 2.699717 1_555
S11 Tm4 2.613911 1_555
S11 Tm9 2.702834 1_555
S11 Tm1 2.885503 1_555
S12 Tm2 2.677958 1_556
S12 Tm10 2.699368 1_556
S12 Tm1 2.746033 1_555
S13 S3 2.123497 1_654
S13 Tm1 2.788593 1_554
S14 Tm7 2.567136 1_555
S14 Tm2 2.742683 1_555
S14 Tm10 2.844991 1_555
S15 Tm3 2.749563 1_455
S15 Tm8 2.751844 1_555
S15 Tm11 2.811082 1_555
S15 Tm6 2.820518 1_555
S16 Tm12 2.749563 1_555
S16 Tm7 2.751844 1_555
S16 Tm4 2.811082 1_555
S16 Tm9 2.820518 1_555
S17 Tm8 2.567136 1_555
S17 Tm13 2.742683 1_555
S17 Tm5 2.844991 1_555
S18 S28 2.123497 1_556
S18 Tm14 2.788593 1_556
S19 Tm13 2.677958 1_554
S19 Tm5 2.699368 1_554
S19 Tm14 2.746033 1_555
S20 Tm11 2.613911 1_555
S20 Tm6 2.702834 1_555
S20 Tm14 2.885503 1_555
S21 Tm10 2.678983 1_555
S21 Tm12 2.699717 1_555
S22 Tm12 2.498530 1_555
S22 Tm0 2.626328 1_545
S23 Tm7 2.636091 1_555
S23 Tm12 2.665849 1_555
S23 Tm15 2.740036 1_555
S23 Tm10 2.791111 1_555
S24 Tm11 2.609625 1_555
S24 Tm13 2.671956 1_555
S24 Tm0 2.708595 1_545
S25 Tm11 2.721663 1_655
S25 Tm7 2.738150 1_555
S25 Tm15 2.862923 1_555
S26 Tm13 2.688134 1_655
S26 Tm1 3.503959 1_545
S27 Tm2 2.722819 1_546
S27 Tm1 2.747957 1_545
S27 Tm9 2.777794 1_555
S28 Tm10 2.799485 1_555
S28 Tm9 2.844641 1_554
S29 S30 2.102072 1_555
S29 Tm9 2.715680 1_554
S29 Tm10 2.899118 1_555
S30 Tm15 2.668711 1_555
S31 Tm14 2.576672 1_555
S31 Tm0 2.629650 1_545
S31 Tm11 2.748096 1_555
