# generated using pymatgen
data_NdFeO3
_symmetry_space_group_name_H-M   'P 1'
_cell_length_a   4.52331700
_cell_length_b   5.12555900
_cell_length_c   12.14826000
_cell_angle_alpha   90.00000000
_cell_angle_beta   90.00000000
_cell_angle_gamma   90.00000000
_symmetry_Int_Tables_number   1
_chemical_formula_structural   NdFeO3
_chemical_formula_sum   'Nd4 Fe4 O12'
_cell_volume   281.65167606
_cell_formula_units_Z   4
loop_
 _symmetry_equiv_pos_site_id
 _symmetry_equiv_pos_as_xyz
  1  'x, y, z'
loop_
 _atom_site_type_symbol
 _atom_site_label
 _atom_site_symmetry_multiplicity
 _atom_site_fract_x
 _atom_site_fract_y
 _atom_site_fract_z
 _atom_site_occupancy
  Nd  Nd0  1  0.53397200  0.60831200  0.25000000  1
  Nd  Nd1  1  0.96602800  0.10831200  0.25000000  1
  Nd  Nd2  1  0.03397200  0.89168800  0.75000000  1
  Nd  Nd3  1  0.46602800  0.39168800  0.75000000  1
  Fe  Fe0  1  0.50000000  0.50000000  0.50000000  1
  Fe  Fe1  1  0.00000000  0.00000000  0.00000000  1
  Fe  Fe2  1  0.50000000  0.50000000  0.00000000  1
  Fe  Fe3  1  0.00000000  0.00000000  0.50000000  1
  O  O0  1  0.26574700  0.23940900  0.56136500  1
  O  O1  1  0.23425300  0.73940900  0.56136500  1
  O  O2  1  0.76574700  0.26059100  0.06136500  1
  O  O3  1  0.04914600  0.53320800  0.25000000  1
  O  O4  1  0.54914600  0.96679200  0.75000000  1
  O  O5  1  0.73425300  0.76059100  0.43863500  1
  O  O6  1  0.45085400  0.03320800  0.25000000  1
  O  O7  1  0.76574700  0.26059100  0.43863500  1
  O  O8  1  0.73425300  0.76059100  0.06136500  1
  O  O9  1  0.23425300  0.73940900  0.93863500  1
  O  O10  1  0.95085400  0.46679200  0.75000000  1
  O  O11  1  0.26574700  0.23940900  0.93863500  1
loop_
_geom_bond_atom_site_label_1
_geom_bond_atom_site_label_2
_geom_bond_distance
_geom_bond_site_symmetry_2
Nd0 O6 2.210044 1_565
Nd0 O3 2.226551 1_555
Nd0 O3 2.361877 1_655
Nd0 O8 2.584820 1_555
Nd0 O5 2.584820 1_555
Nd0 O6 2.971609 1_555
Nd1 O3 2.210044 1_655
Nd1 O6 2.226551 1_655
Nd1 O6 2.361877 1_555
Nd1 O7 2.584820 1_555
Nd1 O2 2.584820 1_555
Nd1 O3 2.971609 1_645
Nd2 O10 2.210044 1_455
Nd2 O4 2.226551 1_455
Nd2 O4 2.361877 1_555
Nd2 O9 2.584820 1_555
Nd2 O1 2.584820 1_555
Nd2 O10 2.971609 1_465
Nd3 O4 2.210044 1_545
Nd3 O10 2.226551 1_555
Nd3 O10 2.361877 1_455
Nd3 O11 2.584820 1_555
Nd3 O0 2.584820 1_555
Nd3 O4 2.971609 1_555
Fe0 O0 1.860784 1_555
Fe0 O5 1.860784 1_555
Fe0 O7 1.872556 1_555
Fe0 O1 1.872556 1_555
Fe1 O9 1.860784 1_544
Fe1 O2 1.860784 1_455
Fe1 O8 1.872556 1_445
Fe1 O11 1.872556 1_554
Fe2 O11 1.860784 1_554
Fe2 O8 1.860784 1_555
Fe2 O2 1.872556 1_555
Fe2 O9 1.872556 1_554
Fe3 O1 1.860784 1_545
Fe3 O7 1.860784 1_455
Fe3 O5 1.872556 1_445
Fe3 O0 1.872556 1_555
