# generated using pymatgen
data_LaSn3
_symmetry_space_group_name_H-M   'P 1'
_cell_length_a   4.80384980
_cell_length_b   4.80384980
_cell_length_c   4.80384980
_cell_angle_alpha   90.00000000
_cell_angle_beta   90.00000000
_cell_angle_gamma   90.00000000
_symmetry_Int_Tables_number   1
_chemical_formula_structural   LaSn3
_chemical_formula_sum   'La1 Sn3'
_cell_volume   110.85831165
_cell_formula_units_Z   1
loop_
 _symmetry_equiv_pos_site_id
 _symmetry_equiv_pos_as_xyz
  1  'x, y, z'
loop_
 _atom_site_type_symbol
 _atom_site_label
 _atom_site_symmetry_multiplicity
 _atom_site_fract_x
 _atom_site_fract_y
 _atom_site_fract_z
 _atom_site_occupancy
  La  La0  1  0.00000000  -0.00000000  0.00000000  1
  Sn  Sn0  1  0.50000000  -0.00000000  0.50000000  1
  Sn  Sn1  1  -0.00000000  0.50000000  0.50000000  1
  Sn  Sn2  1  0.50000000  0.50000000  -0.00000000  1
loop_
_geom_bond_atom_site_label_1
_geom_bond_atom_site_label_2
_geom_bond_distance
_geom_bond_site_symmetry_2
La0 Sn2 3.396835 1_545
La0 Sn2 3.396835 1_445
La0 Sn0 3.396835 1_555
La0 Sn2 3.396835 1_455
La0 Sn1 3.396835 1_544
La0 Sn1 3.396835 1_555
La0 Sn1 3.396835 1_545
La0 Sn0 3.396835 1_455
La0 Sn0 3.396835 1_454
La0 Sn1 3.396835 1_554
La0 Sn2 3.396835 1_555
La0 Sn0 3.396835 1_554
Sn0 Sn2 3.396835 1_545
Sn0 Sn1 3.396835 1_645
Sn0 Sn2 3.396835 1_556
Sn0 Sn2 3.396835 1_546
Sn0 Sn1 3.396835 1_555
Sn0 Sn1 3.396835 1_545
Sn0 Sn1 3.396835 1_655
Sn0 Sn2 3.396835 1_555
Sn1 Sn2 3.396835 1_556
Sn1 Sn2 3.396835 1_455
Sn1 Sn2 3.396835 1_555
Sn1 Sn2 3.396835 1_456
