# generated using pymatgen
data_Pr7FeI12
_symmetry_space_group_name_H-M   'P 1'
_cell_length_a   10.02347043
_cell_length_b   10.02347043
_cell_length_c   10.02347092
_cell_angle_alpha   107.26695325
_cell_angle_beta   107.26695325
_cell_angle_gamma   107.26695037
_symmetry_Int_Tables_number   1
_chemical_formula_structural   Pr7FeI12
_chemical_formula_sum   'Pr7 Fe1 I12'
_cell_volume   832.50434465
_cell_formula_units_Z   1
loop_
 _symmetry_equiv_pos_site_id
 _symmetry_equiv_pos_as_xyz
  1  'x, y, z'
loop_
 _atom_site_type_symbol
 _atom_site_label
 _atom_site_symmetry_multiplicity
 _atom_site_fract_x
 _atom_site_fract_y
 _atom_site_fract_z
 _atom_site_occupancy
  Pr  Pr0  1  0.80082200  0.52981400  0.59893600  1
  Pr  Pr1  1  0.52981400  0.59893600  0.80082200  1
  Pr  Pr2  1  0.19917800  0.47018600  0.40106400  1
  Pr  Pr3  1  0.47018600  0.40106400  0.19917800  1
  Pr  Pr4  1  0.00000000  0.00000000  0.00000000  1
  Pr  Pr5  1  0.59893600  0.80082200  0.52981400  1
  Pr  Pr6  1  0.40106400  0.19917800  0.47018600  1
  Fe  Fe0  1  0.50000000  0.50000000  0.50000000  1
  I  I0  1  0.72961600  0.18496700  0.57562100  1
  I  I1  1  0.97203900  0.89162100  0.65667200  1
  I  I2  1  0.57562100  0.72961600  0.18496700  1
  I  I3  1  0.10837900  0.34332800  0.02796100  1
  I  I4  1  0.65667200  0.97203900  0.89162100  1
  I  I5  1  0.89162100  0.65667200  0.97203900  1
  I  I6  1  0.02796100  0.10837900  0.34332800  1
  I  I7  1  0.81503300  0.42437900  0.27038400  1
  I  I8  1  0.34332800  0.02796100  0.10837900  1
  I  I9  1  0.27038400  0.81503300  0.42437900  1
  I  I10  1  0.18496700  0.57562100  0.72961600  1
  I  I11  1  0.42437900  0.27038400  0.81503300  1
loop_
_geom_bond_atom_site_label_1
_geom_bond_atom_site_label_2
_geom_bond_distance
_geom_bond_site_symmetry_2
Fe0 Pr0 2.771041 1_555
Fe0 Pr2 2.771041 1_555
Fe0 Pr5 2.771041 1_555
Fe0 Pr6 2.771041 1_555
Fe0 Pr1 2.771041 1_555
Fe0 Pr3 2.771041 1_555
I0 Pr6 3.206910 1_555
I0 Pr0 3.235542 1_555
I0 Pr5 3.514538 1_545
I1 Pr4 3.182585 1_666
I1 Pr5 3.301604 1_555
I1 Pr0 3.301796 1_555
I2 Pr3 3.206910 1_555
I2 Pr5 3.235542 1_555
I2 Pr1 3.514538 1_554
I3 Pr4 3.182585 1_555
I3 Pr2 3.301604 1_555
I3 Pr3 3.301796 1_555
I4 Pr4 3.182585 1_666
I4 Pr1 3.301604 1_555
I4 Pr5 3.301797 1_555
I5 Pr4 3.182585 1_666
I5 Pr0 3.301604 1_555
I5 Pr1 3.301796 1_555
I6 Pr4 3.182585 1_555
I6 Pr6 3.301604 1_555
I6 Pr2 3.301796 1_555
I7 Pr0 3.206910 1_555
I7 Pr3 3.235542 1_555
I7 Pr2 3.514538 1_655
I8 Pr4 3.182585 1_555
I8 Pr3 3.301604 1_555
I8 Pr6 3.301797 1_555
I9 Pr5 3.206910 1_555
I9 Pr2 3.235542 1_555
I9 Pr6 3.514538 1_565
I10 Pr2 3.206910 1_555
I10 Pr1 3.235542 1_555
I10 Pr0 3.514538 1_455
I11 Pr1 3.206910 1_555
I11 Pr6 3.235542 1_555
I11 Pr3 3.514538 1_556
