# generated using pymatgen
data_KMgIn(MoO4)3
_symmetry_space_group_name_H-M   'P 1'
_cell_length_a   9.67485184
_cell_length_b   9.67485184
_cell_length_c   9.99091869
_cell_angle_alpha   61.10592459
_cell_angle_beta   61.10592459
_cell_angle_gamma   59.93175298
_symmetry_Int_Tables_number   1
_chemical_formula_structural   KMgIn(MoO4)3
_chemical_formula_sum   'K2 Mg2 In2 Mo6 O24'
_cell_volume   671.75104800
_cell_formula_units_Z   2
loop_
 _symmetry_equiv_pos_site_id
 _symmetry_equiv_pos_as_xyz
  1  'x, y, z'
loop_
 _atom_site_type_symbol
 _atom_site_label
 _atom_site_symmetry_multiplicity
 _atom_site_fract_x
 _atom_site_fract_y
 _atom_site_fract_z
 _atom_site_occupancy
  K  K0  1  0.88054700  0.62428900  0.24471400  1
  K  K1  1  0.37571100  0.11945300  0.75528600  1
  Mg  Mg0  1  0.24417300  0.96834000  0.18153700  1
  Mg  Mg1  1  0.03166000  0.75582700  0.81846300  1
  In  In0  1  0.74536500  0.46753700  0.68009800  1
  In  In1  1  0.53246300  0.25463500  0.31990200  1
  Mo  Mo0  1  0.92866800  0.07133200  0.00000000  1
  Mo  Mo1  1  0.63673200  0.64960600  0.00263200  1
  Mo  Mo2  1  0.85910400  0.14089600  0.50000000  1
  Mo  Mo3  1  0.41945500  0.86378300  0.49888000  1
  Mo  Mo4  1  0.13621700  0.58054500  0.50112000  1
  Mo  Mo5  1  0.35039400  0.36326800  0.99736800  1
  O  O0  1  0.95687000  0.88743100  0.97503100  1
  O  O1  1  0.89060600  0.96632100  0.67441500  1
  O  O2  1  0.81744800  0.67857500  0.97676300  1
  O  O3  1  0.95781200  0.54921600  0.51685700  1
  O  O4  1  0.89638200  0.24981300  0.82338300  1
  O  O5  1  0.66408300  0.61688400  0.82722200  1
  O  O6  1  0.82921600  0.33270900  0.51822300  1
  O  O7  1  0.60853300  0.67991600  0.51928400  1
  O  O8  1  0.53026700  0.38919100  0.82027600  1
  O  O9  1  0.38858100  0.89883100  0.32275500  1
  O  O10  1  0.24261900  0.83359200  0.66994000  1
  O  O11  1  0.66729100  0.17078400  0.48177700  1
  O  O12  1  0.61080900  0.46973300  0.17972400  1
  O  O13  1  0.16666500  0.54359300  0.97149100  1
  O  O14  1  0.45640700  0.83333500  0.02850900  1
  O  O15  1  0.75018700  0.10361800  0.17661700  1
  O  O16  1  0.32008400  0.39146700  0.48071600  1
  O  O17  1  0.10116900  0.61141900  0.67724500  1
  O  O18  1  0.45078400  0.04218800  0.48314300  1
  O  O19  1  0.16640800  0.75738100  0.33006000  1
  O  O20  1  0.38311600  0.33591700  0.17277800  1
  O  O21  1  0.32142500  0.18255200  0.02323700  1
  O  O22  1  0.03367900  0.10939400  0.32558500  1
  O  O23  1  0.11256900  0.04313000  0.02496900  1
loop_
_geom_bond_atom_site_label_1
_geom_bond_atom_site_label_2
_geom_bond_distance
_geom_bond_site_symmetry_2
K0 O0 2.760165 1_554
K0 O2 2.777510 1_554
K0 O7 2.787742 1_555
K0 O3 2.826789 1_555
K0 O6 2.883513 1_555
K0 O13 2.883625 1_654
K1 O23 2.760165 1_556
K1 O21 2.777510 1_556
K1 O16 2.787742 1_555
K1 O18 2.826789 1_555
K1 O11 2.883513 1_555
K1 O14 2.883625 1_546
Mg0 O22 2.088450 1_565
Mg0 O9 2.107454 1_555
Mg0 O19 2.113454 1_555
Mg0 O14 2.113827 1_555
Mg0 O23 2.121168 1_565
Mg0 O21 2.144145 1_565
Mg1 O1 2.088450 1_455
Mg1 O17 2.107454 1_555
Mg1 O10 2.113454 1_555
Mg1 O13 2.113827 1_555
Mg1 O0 2.121168 1_455
Mg1 O2 2.144145 1_455
In0 O8 2.145911 1_555
In0 O4 2.155070 1_555
In0 O3 2.156763 1_555
In0 O5 2.159538 1_555
In0 O6 2.164647 1_555
In0 O7 2.166863 1_555
In1 O12 2.145911 1_555
In1 O15 2.155070 1_555
In1 O18 2.156763 1_555
In1 O20 2.159538 1_555
In1 O11 2.164647 1_555
In1 O16 2.166863 1_555
Mo0 O23 1.782968 1_655
Mo0 O0 1.782968 1_544
Mo0 O15 1.800167 1_555
Mo0 O4 1.800167 1_554
Mo1 O14 1.780703 1_555
Mo1 O2 1.785104 1_554
Mo1 O5 1.801551 1_554
Mo1 O12 1.804110 1_555
Mo2 O1 1.770674 1_545
Mo2 O22 1.770674 1_655
Mo2 O6 1.816185 1_555
Mo2 O11 1.816185 1_555
Mo3 O10 1.768021 1_555
Mo3 O9 1.769295 1_555
Mo3 O7 1.816986 1_555
Mo3 O18 1.819821 1_565
Mo4 O19 1.768021 1_555
Mo4 O17 1.769295 1_555
Mo4 O16 1.816986 1_555
Mo4 O3 1.819821 1_455
Mo5 O13 1.780703 1_555
Mo5 O21 1.785104 1_556
Mo5 O20 1.801551 1_556
Mo5 O8 1.804110 1_555
