# generated using pymatgen
data_Na3Ce5Cl18
_symmetry_space_group_name_H-M   'P 1'
_cell_length_a   7.60451578
_cell_length_b   7.60451583
_cell_length_c   13.01329575
_cell_angle_alpha   90.00000000
_cell_angle_beta   90.00000000
_cell_angle_gamma   119.99999982
_symmetry_Int_Tables_number   1
_chemical_formula_structural   Na3Ce5Cl18
_chemical_formula_sum   'Na3 Ce5 Cl18'
_cell_volume   651.72002563
_cell_formula_units_Z   1
loop_
 _symmetry_equiv_pos_site_id
 _symmetry_equiv_pos_as_xyz
  1  'x, y, z'
loop_
 _atom_site_type_symbol
 _atom_site_label
 _atom_site_symmetry_multiplicity
 _atom_site_fract_x
 _atom_site_fract_y
 _atom_site_fract_z
 _atom_site_occupancy
  Na  Na0  1  0.33333300  0.66666700  0.75000000  1
  Na  Na1  1  0.00000000  0.00000000  0.61237275  1
  Na  Na2  1  0.00000000  0.00000000  0.88762725  1
  Ce  Ce0  1  0.33333300  0.66666700  0.08455587  1
  Ce  Ce1  1  0.33333300  0.66666700  0.41544413  1
  Ce  Ce2  1  0.66666700  0.33333300  0.58434700  1
  Ce  Ce3  1  0.66666700  0.33333300  0.25000000  1
  Ce  Ce4  1  0.66666700  0.33333300  0.91565300  1
  Cl  Cl0  1  0.30556026  0.91225820  0.25000000  1
  Cl  Cl1  1  0.31188852  0.92135065  0.57591429  1
  Cl  Cl2  1  0.31188852  0.92135065  0.92408571  1
  Cl  Cl3  1  0.08774180  0.39330206  0.25000000  1
  Cl  Cl4  1  0.07864935  0.39053787  0.57591429  1
  Cl  Cl5  1  0.07864935  0.39053787  0.92408571  1
  Cl  Cl6  1  0.39218435  0.30518582  0.08551769  1
  Cl  Cl7  1  0.39218435  0.30518582  0.41448231  1
  Cl  Cl8  1  0.38150328  0.28350358  0.75000000  1
  Cl  Cl9  1  0.60669794  0.69443974  0.25000000  1
  Cl  Cl10  1  0.60946213  0.68811148  0.57591429  1
  Cl  Cl11  1  0.60946213  0.68811148  0.92408571  1
  Cl  Cl12  1  0.91300146  0.60781565  0.08551769  1
  Cl  Cl13  1  0.90200031  0.61849672  0.75000000  1
  Cl  Cl14  1  0.91300146  0.60781565  0.41448231  1
  Cl  Cl15  1  0.69481418  0.08699854  0.08551769  1
  Cl  Cl16  1  0.69481418  0.08699854  0.41448231  1
  Cl  Cl17  1  0.71649642  0.09799969  0.75000000  1
loop_
_geom_bond_atom_site_label_1
_geom_bond_atom_site_label_2
_geom_bond_distance
_geom_bond_site_symmetry_2
Ce0 Cl2 2.907608 1_554
Ce0 Cl5 2.907611 1_554
Ce0 Cl11 2.907613 1_554
Ce0 Cl0 2.926136 1_555
Ce0 Cl3 2.926139 1_555
Ce0 Cl9 2.926141 1_555
Ce0 Cl12 2.997836 1_455
Ce0 Cl15 2.997839 1_565
Ce0 Cl6 2.997843 1_555
Ce1 Cl1 2.907608 1_555
Ce1 Cl4 2.907611 1_555
Ce1 Cl10 2.907613 1_555
Ce1 Cl0 2.926136 1_555
Ce1 Cl3 2.926139 1_555
Ce1 Cl9 2.926141 1_555
Ce1 Cl14 2.997836 1_455
Ce1 Cl16 2.997839 1_565
Ce1 Cl7 2.997843 1_555
Ce2 Cl4 2.941706 1_655
Ce2 Cl1 2.941709 1_545
Ce2 Cl10 2.941714 1_555
Ce2 Cl17 2.944720 1_555
Ce2 Cl13 2.944723 1_555
Ce2 Cl8 2.944725 1_555
Ce2 Cl16 2.973578 1_555
Ce2 Cl14 2.973581 1_555
Ce2 Cl7 2.973583 1_555
Ce3 Cl15 2.921886 1_555
Ce3 Cl16 2.921886 1_555
Ce3 Cl12 2.921889 1_555
Ce3 Cl14 2.921889 1_555
Ce3 Cl6 2.921891 1_555
Ce3 Cl7 2.921891 1_555
Ce3 Cl3 3.000160 1_655
Ce3 Cl0 3.000163 1_545
Ce3 Cl9 3.000168 1_555
Ce4 Cl5 2.941706 1_655
Ce4 Cl2 2.941709 1_545
Ce4 Cl11 2.941714 1_555
Ce4 Cl17 2.944720 1_555
Ce4 Cl13 2.944723 1_555
Ce4 Cl8 2.944725 1_555
Ce4 Cl15 2.973578 1_556
Ce4 Cl12 2.973581 1_556
Ce4 Cl6 2.973583 1_556
Cl1 Na1 2.761628 1_565
Cl1 Na0 3.037364 1_555
Cl2 Na2 2.761628 1_565
Cl2 Na0 3.037364 1_555
Cl4 Na1 2.761628 1_555
Cl4 Na0 3.037367 1_555
Cl5 Na2 2.761628 1_555
Cl5 Na0 3.037367 1_555
Cl8 Na0 3.113134 1_555
Cl8 Na1 3.165061 1_555
Cl8 Na2 3.165061 1_555
Cl10 Na1 2.761628 1_665
Cl10 Na0 3.037369 1_555
Cl11 Na2 2.761628 1_665
Cl11 Na0 3.037369 1_555
Cl13 Na0 3.113126 1_655
Cl13 Na1 3.165061 1_665
Cl13 Na2 3.165061 1_665
Cl17 Na0 3.113129 1_545
Cl17 Na1 3.165061 1_655
Cl17 Na2 3.165061 1_655
