# generated using pymatgen
data_Gd3Co11B4
_symmetry_space_group_name_H-M   'P 1'
_cell_length_a   5.04431151
_cell_length_b   5.06753570
_cell_length_c   9.68635527
_cell_angle_alpha   90.00000000
_cell_angle_beta   90.00000000
_cell_angle_gamma   119.84846186
_symmetry_Int_Tables_number   1
_chemical_formula_structural   Gd3Co11B4
_chemical_formula_sum   'Gd3 Co11 B4'
_cell_volume   214.75875864
_cell_formula_units_Z   1
loop_
 _symmetry_equiv_pos_site_id
 _symmetry_equiv_pos_as_xyz
  1  'x, y, z'
loop_
 _atom_site_type_symbol
 _atom_site_label
 _atom_site_symmetry_multiplicity
 _atom_site_fract_x
 _atom_site_fract_y
 _atom_site_fract_z
 _atom_site_occupancy
  Gd  Gd0  1  0.00000000  0.00000000  0.65552297  1
  Gd  Gd1  1  0.00000000  0.00000000  0.34447703  1
  Gd  Gd2  1  0.00000000  0.00000000  -0.00000000  1
  Co  Co0  1  0.00000000  0.50000000  0.79987793  1
  Co  Co1  1  0.50000000  0.50000000  0.79987493  1
  Co  Co2  1  0.50000000  0.00000000  0.20094908  1
  Co  Co3  1  0.66622504  0.33245007  -0.00000000  1
  Co  Co4  1  0.00000000  0.50000000  0.20012207  1
  Co  Co5  1  0.50000000  0.00000000  0.79905092  1
  Co  Co6  1  0.50000000  0.50000000  0.20012507  1
  Co  Co7  1  0.50000000  0.50000000  0.50000000  1
  Co  Co8  1  0.33377496  0.66754993  -0.00000000  1
  Co  Co9  1  0.50000000  0.00000000  0.50000000  1
  Co  Co10  1  0.00000000  0.50000000  0.50000000  1
  B  B0  1  0.66656910  0.33314120  0.64765349  1
  B  B1  1  0.33343090  0.66685880  0.35234651  1
  B  B2  1  0.33343090  0.66685880  0.64765349  1
  B  B3  1  0.66656910  0.33314120  0.35234651  1
loop_
_geom_bond_atom_site_label_1
_geom_bond_atom_site_label_2
_geom_bond_distance
_geom_bond_site_symmetry_2
Gd0 Gd1 3.012901 1_555
Gd0 Gd2 3.336727 1_556
Gd1 Gd2 3.336727 1_555
Co0 Co8 2.426984 1_556
Co0 Co3 2.426984 1_456
Co0 Gd0 2.893985 1_565
Co0 Gd0 2.893985 1_555
Co0 Gd2 3.190232 1_566
Co0 Gd2 3.190232 1_556
Co1 Co8 2.427007 1_556
Co1 Co3 2.427007 1_556
Co1 Gd0 2.893972 1_665
Co1 Gd0 2.893972 1_555
Co1 Gd2 3.190251 1_666
Co1 Gd2 3.190251 1_556
Co2 Co3 2.433902 1_555
Co2 Co8 2.433902 1_545
Co2 Gd1 2.879948 1_655
Co2 Gd1 2.879948 1_555
Co2 Gd2 3.185905 1_655
Co2 Gd2 3.185905 1_555
Co3 Co4 2.426984 1_655
Co3 Co6 2.427007 1_555
Co3 Co5 2.433902 1_554
Co3 Gd2 2.914862 1_655
Co3 Gd2 2.914864 1_555
Co3 Gd2 2.934083 1_665
Co4 Co8 2.426984 1_555
Co4 Gd1 2.893985 1_565
Co4 Gd1 2.893985 1_555
Co4 Gd2 3.190232 1_565
Co4 Gd2 3.190232 1_555
Co5 Co8 2.433902 1_546
Co5 Gd0 2.879948 1_655
Co5 Gd0 2.879948 1_555
Co5 Gd2 3.185905 1_556
Co5 Gd2 3.185905 1_656
Co6 Co8 2.427007 1_555
Co6 Gd1 2.893972 1_555
Co6 Gd1 2.893972 1_665
Co6 Gd2 3.190251 1_665
Co6 Gd2 3.190251 1_555
Co7 Gd0 2.947776 1_665
Co7 Gd1 2.947776 1_555
Co7 Gd1 2.947776 1_665
Co7 Gd0 2.947776 1_555
Co8 Gd2 2.914862 1_565
Co8 Gd2 2.914864 1_665
Co8 Gd2 2.934083 1_555
Co9 Gd0 2.937799 1_655
Co9 Gd1 2.937799 1_655
Co9 Gd1 2.937799 1_555
Co9 Gd0 2.937799 1_555
Co10 Gd1 2.947774 1_565
Co10 Gd1 2.947774 1_555
Co10 Gd0 2.947774 1_555
Co10 Gd0 2.947774 1_565
B0 Co7 2.042965 1_555
B0 Co10 2.042975 1_655
B0 Co9 2.046848 1_555
B0 Co5 2.072350 1_555
B0 Co1 2.074181 1_555
B0 Co0 2.074212 1_655
B0 Gd0 2.917378 1_555
B0 Gd0 2.917389 1_655
B0 Gd0 2.932036 1_665
B1 Co7 2.042965 1_555
B1 Co10 2.042975 1_555
B1 Co9 2.046848 1_565
B1 Co2 2.072350 1_565
B1 Co6 2.074181 1_555
B1 Co4 2.074212 1_555
B1 Gd1 2.917378 1_665
B1 Gd1 2.917389 1_565
B1 Gd1 2.932036 1_555
B2 Co7 2.042965 1_555
B2 Co10 2.042975 1_555
B2 Co9 2.046848 1_565
B2 Co5 2.072350 1_565
B2 Co1 2.074181 1_555
B2 Co0 2.074212 1_555
B2 Gd0 2.917378 1_665
B2 Gd0 2.917389 1_565
B2 Gd0 2.932036 1_555
B3 Co7 2.042965 1_555
B3 Co10 2.042975 1_655
B3 Co9 2.046848 1_555
B3 Co2 2.072350 1_555
B3 Co6 2.074181 1_555
B3 Co4 2.074212 1_655
B3 Gd1 2.917378 1_555
B3 Gd1 2.917389 1_655
B3 Gd1 2.932036 1_665
