# generated using pymatgen
data_LaSb2Au
_symmetry_space_group_name_H-M   'P 1'
_cell_length_a   4.45468812
_cell_length_b   4.45468812
_cell_length_c   10.67211452
_cell_angle_alpha   90.00000000
_cell_angle_beta   90.00000000
_cell_angle_gamma   90.00000000
_symmetry_Int_Tables_number   1
_chemical_formula_structural   LaSb2Au
_chemical_formula_sum   'La2 Sb4 Au2'
_cell_volume   211.78006851
_cell_formula_units_Z   2
loop_
 _symmetry_equiv_pos_site_id
 _symmetry_equiv_pos_as_xyz
  1  'x, y, z'
loop_
 _atom_site_type_symbol
 _atom_site_label
 _atom_site_symmetry_multiplicity
 _atom_site_fract_x
 _atom_site_fract_y
 _atom_site_fract_z
 _atom_site_occupancy
  La  La0  1  0.00000000  0.50000000  0.25570820  1
  La  La1  1  0.50000000  0.00000000  0.74429180  1
  Sb  Sb0  1  0.00000000  0.00000000  0.50000000  1
  Sb  Sb1  1  0.50000000  0.50000000  0.50000000  1
  Sb  Sb2  1  0.00000000  0.50000000  0.83345536  1
  Sb  Sb3  1  0.50000000  -0.00000000  0.16654464  1
  Au  Au0  1  0.00000000  0.00000000  -0.00000000  1
  Au  Au1  1  0.50000000  0.50000000  -0.00000000  1
loop_
_geom_bond_atom_site_label_1
_geom_bond_atom_site_label_2
_geom_bond_distance
_geom_bond_site_symmetry_2
La0 Sb3 3.290531 1_465
La0 Sb3 3.290531 1_555
La0 Sb3 3.290531 1_455
La0 Sb3 3.290531 1_565
La0 Sb1 3.429006 1_555
La0 Sb0 3.429006 1_565
La0 Sb1 3.429006 1_455
La0 Sb0 3.429006 1_555
La1 Sb2 3.290531 1_645
La1 Sb2 3.290531 1_555
La1 Sb2 3.290531 1_545
La1 Sb2 3.290531 1_655
La1 Sb0 3.429006 1_555
La1 Sb1 3.429006 1_545
La1 Sb1 3.429006 1_555
La1 Sb0 3.429006 1_655
Sb0 Sb1 3.149940 1_455
Sb0 Sb1 3.149940 1_555
Sb0 Sb1 3.149940 1_445
Sb0 Sb1 3.149940 1_545
Au0 Sb3 2.849588 1_455
Au0 Sb3 2.849588 1_555
Au0 Sb2 2.849588 1_544
Au0 Sb2 2.849588 1_554
Au0 La0 3.522530 1_545
Au0 La0 3.522530 1_555
Au0 La1 3.522530 1_454
Au0 La1 3.522530 1_554
Au1 Sb3 2.849588 1_565
Au1 Sb3 2.849588 1_555
Au1 Sb2 2.849588 1_654
Au1 Sb2 2.849588 1_554
Au1 La0 3.522530 1_555
Au1 La0 3.522530 1_655
Au1 La1 3.522530 1_564
Au1 La1 3.522530 1_554
