# generated using pymatgen
data_SiO2
_symmetry_space_group_name_H-M   'P 1'
_cell_length_a   9.60251180
_cell_length_b   9.60251180
_cell_length_c   9.60251180
_cell_angle_alpha   60.00000000
_cell_angle_beta   60.00000000
_cell_angle_gamma   60.00000000
_symmetry_Int_Tables_number   1
_chemical_formula_structural   SiO2
_chemical_formula_sum   'Si10 O20'
_cell_volume   626.09401272
_cell_formula_units_Z   10
loop_
 _symmetry_equiv_pos_site_id
 _symmetry_equiv_pos_as_xyz
  1  'x, y, z'
loop_
 _atom_site_type_symbol
 _atom_site_label
 _atom_site_symmetry_multiplicity
 _atom_site_fract_x
 _atom_site_fract_y
 _atom_site_fract_z
 _atom_site_occupancy
  Si  Si0  1  0.11424597  0.11424597  0.11424597  1
  Si  Si1  1  0.88575403  0.34273590  0.88575403  1
  Si  Si2  1  0.88575403  0.88575403  0.34273590  1
  Si  Si3  1  0.34273590  0.88575403  0.88575403  1
  Si  Si4  1  0.11424597  0.11424597  0.65726410  1
  Si  Si5  1  0.65726410  0.11424597  0.11424597  1
  Si  Si6  1  0.11424597  0.65726410  0.11424597  1
  Si  Si7  1  0.88575403  0.88575403  0.88575403  1
  Si  Si8  1  0.75000000  0.75000000  0.75000000  1
  Si  Si9  1  0.25000000  0.25000000  0.25000000  1
  O  O0  1  -0.00000000  0.00000000  0.27491043  1
  O  O1  1  -0.00000000  0.27491043  0.00000000  1
  O  O2  1  0.72508957  -0.00000000  0.27491043  1
  O  O3  1  0.00000000  0.72508957  0.27491043  1
  O  O4  1  0.27491043  -0.00000000  0.00000000  1
  O  O5  1  0.27491043  0.72508957  0.00000000  1
  O  O6  1  0.72508957  0.27491043  -0.00000000  1
  O  O7  1  0.27491043  0.00000000  0.72508957  1
  O  O8  1  0.72508957  0.00000000  -0.00000000  1
  O  O9  1  0.00000000  0.72508957  -0.00000000  1
  O  O10  1  -0.00000000  0.27491043  0.72508957  1
  O  O11  1  0.00000000  -0.00000000  0.72508957  1
  O  O12  1  0.18195553  0.18195553  0.18195553  1
  O  O13  1  0.81804447  0.54586659  0.81804447  1
  O  O14  1  0.81804447  0.81804447  0.54586659  1
  O  O15  1  0.54586659  0.81804447  0.81804447  1
  O  O16  1  0.18195553  0.18195553  0.45413341  1
  O  O17  1  0.45413341  0.18195553  0.18195553  1
  O  O18  1  0.18195553  0.45413341  0.18195553  1
  O  O19  1  0.81804447  0.81804447  0.81804447  1
loop_
_geom_bond_atom_site_label_1
_geom_bond_atom_site_label_2
_geom_bond_distance
_geom_bond_site_symmetry_2
O0 Si0 1.614221 1_555
O0 Si2 1.614226 1_445
O1 Si0 1.614221 1_555
O1 Si1 1.614226 1_454
O2 Si5 1.614210 1_555
O2 Si2 1.614210 1_545
O3 Si6 1.614210 1_555
O3 Si2 1.614210 1_455
O4 Si0 1.614221 1_555
O4 Si3 1.614226 1_544
O5 Si6 1.614210 1_555
O5 Si3 1.614210 1_554
O6 Si5 1.614210 1_555
O6 Si1 1.614210 1_554
O7 Si4 1.614210 1_555
O7 Si3 1.614210 1_545
O8 Si7 1.614221 1_544
O8 Si5 1.614226 1_555
O9 Si7 1.614221 1_454
O9 Si6 1.614226 1_555
O10 Si4 1.614210 1_555
O10 Si1 1.614210 1_455
O11 Si7 1.614221 1_445
O11 Si4 1.614226 1_555
O12 Si0 1.592614 1_555
O12 Si9 1.600491 1_555
O13 Si1 1.592630 1_555
O13 Si8 1.600491 1_555
O14 Si2 1.592630 1_555
O14 Si8 1.600491 1_555
O15 Si3 1.592630 1_555
O15 Si8 1.600491 1_555
O16 Si4 1.592630 1_555
O16 Si9 1.600491 1_555
O17 Si5 1.592630 1_555
O17 Si9 1.600491 1_555
O18 Si6 1.592630 1_555
O18 Si9 1.600491 1_555
O19 Si7 1.592614 1_555
O19 Si8 1.600491 1_555
