# generated using pymatgen
data_Ca2Al2FeSi3HO13
_symmetry_space_group_name_H-M   'P 1'
_cell_length_a   5.71501700
_cell_length_b   9.00829100
_cell_length_c   10.25942920
_cell_angle_alpha   64.62798795
_cell_angle_beta   90.00000000
_cell_angle_gamma   90.00000000
_symmetry_Int_Tables_number   1
_chemical_formula_structural   Ca2Al2FeSi3HO13
_chemical_formula_sum   'Ca4 Al4 Fe2 Si6 H2 O26'
_cell_volume   477.23554270
_cell_formula_units_Z   2
loop_
 _symmetry_equiv_pos_site_id
 _symmetry_equiv_pos_as_xyz
  1  'x, y, z'
loop_
 _atom_site_type_symbol
 _atom_site_label
 _atom_site_symmetry_multiplicity
 _atom_site_fract_x
 _atom_site_fract_y
 _atom_site_fract_z
 _atom_site_occupancy
  Ca  Ca0  1  0.25000000  0.24493400  0.15110800  1
  Ca  Ca1  1  0.75000000  0.75506600  0.84889200  1
  Ca  Ca2  1  0.25000000  0.39374400  0.42376300  1
  Ca  Ca3  1  0.75000000  0.60625600  0.57623700  1
  Al  Al0  1  0.50000000  0.00000000  0.00000000  1
  Al  Al1  1  0.00000000  0.00000000  0.00000000  1
  Al  Al2  1  0.50000000  0.00000000  0.50000000  1
  Al  Al3  1  0.00000000  0.00000000  0.50000000  1
  Fe  Fe0  1  0.75000000  0.70611000  0.22426300  1
  Fe  Fe1  1  0.25000000  0.29389000  0.77573700  1
  Si  Si0  1  0.25000000  0.66122400  0.04741500  1
  Si  Si1  1  0.75000000  0.33877600  0.95258500  1
  Si  Si2  1  0.75000000  0.31402800  0.27486500  1
  Si  Si3  1  0.25000000  0.68597200  0.72513500  1
  Si  Si4  1  0.25000000  0.81613700  0.31901000  1
  Si  Si5  1  0.75000000  0.18386300  0.68099000  1
  H  H0  1  0.75000000  0.94513700  0.32574500  1
  H  H1  1  0.25000000  0.05486300  0.67425500  1
  O  O0  1  0.49331000  0.76723900  0.03953000  1
  O  O1  1  0.99331000  0.23276100  0.96047000  1
  O  O2  1  0.50669000  0.23276100  0.96047000  1
  O  O3  1  0.00669000  0.76723900  0.03953000  1
  O  O4  1  0.48062800  0.69547900  0.35727100  1
  O  O5  1  0.98062800  0.30452100  0.64272900  1
  O  O6  1  0.51937200  0.30452100  0.64272900  1
  O  O7  1  0.01937200  0.69547900  0.35727100  1
  O  O8  1  0.51377500  0.20347800  0.33837600  1
  O  O9  1  0.01377500  0.79652200  0.66162400  1
  O  O10  1  0.48622500  0.79652200  0.66162400  1
  O  O11  1  0.98622500  0.20347800  0.33837600  1
  O  O12  1  0.75000000  0.94866600  0.12834800  1
  O  O13  1  0.25000000  0.05133400  0.87165200  1
  O  O14  1  0.25000000  0.95818400  0.14599200  1
  O  O15  1  0.75000000  0.04181600  0.85400800  1
  O  O16  1  0.25000000  0.93252700  0.40815500  1
  O  O17  1  0.75000000  0.06747300  0.59184500  1
  O  O18  1  0.25000000  0.48551600  0.18152200  1
  O  O19  1  0.75000000  0.51448400  0.81847800  1
  O  O20  1  0.75000000  0.47148900  0.31094300  1
  O  O21  1  0.25000000  0.52851100  0.68905700  1
  O  O22  1  0.75000000  0.37446700  0.09825100  1
  O  O23  1  0.25000000  0.62553300  0.90174900  1
  O  O24  1  0.75000000  0.91636600  0.42991100  1
  O  O25  1  0.25000000  0.08363400  0.57008900  1
loop_
_geom_bond_atom_site_label_1
_geom_bond_atom_site_label_2
_geom_bond_distance
_geom_bond_site_symmetry_2
Ca0 O18 2.318144 1_555
Ca0 O11 2.342717 1_455
Ca0 O8 2.342717 1_555
Ca0 O2 2.484588 1_554
Ca0 O1 2.484588 1_454
Ca0 O14 2.606049 1_545
Ca1 O19 2.318144 1_555
Ca1 O9 2.342717 1_655
Ca1 O10 2.342717 1_555
Ca1 O0 2.484588 1_556
Ca1 O3 2.484588 1_656
Ca1 O15 2.606049 1_565
Ca2 O18 2.258138 1_555
Ca2 O25 2.542372 1_555
Ca2 O5 2.552490 1_455
Ca2 O6 2.552490 1_555
Ca2 O8 2.695246 1_555
Ca2 O11 2.695246 1_455
Ca2 O7 2.828729 1_555
Ca2 O4 2.828729 1_555
Ca2 O20 3.049734 1_455
Ca2 O20 3.049734 1_555
Ca3 O19 2.258138 1_555
Ca3 O24 2.542372 1_555
Ca3 O7 2.552490 1_655
Ca3 O4 2.552490 1_555
Ca3 O9 2.695246 1_655
Ca3 O10 2.695246 1_555
Ca3 O6 2.828729 1_555
Ca3 O5 2.828729 1_555
Ca3 O21 3.049734 1_655
Ca3 O21 3.049734 1_555
Al0 O12 1.862055 1_545
Al0 O13 1.862055 1_554
Al0 O0 1.957976 1_545
Al0 O2 1.957976 1_554
Al0 O14 1.985726 1_545
Al0 O15 1.985726 1_554
Al1 O13 1.862055 1_554
Al1 O12 1.862055 1_445
Al1 O1 1.957976 1_454
Al1 O3 1.957976 1_545
Al1 O14 1.985726 1_545
Al1 O15 1.985726 1_454
Al2 O8 1.873723 1_555
Al2 O10 1.873723 1_545
Al2 O25 1.894806 1_555
Al2 O24 1.894806 1_545
Al2 O17 1.946661 1_555
Al2 O16 1.946661 1_545
Al3 O11 1.873723 1_455
Al3 O9 1.873723 1_545
Al3 O25 1.894806 1_555
Al3 O24 1.894806 1_445
Al3 O17 1.946661 1_455
Al3 O16 1.946661 1_545
Fe0 O20 1.909743 1_555
Fe0 O12 1.974837 1_555
Fe0 O7 2.032050 1_655
Fe0 O4 2.032050 1_555
Fe0 O0 2.269996 1_555
Fe0 O3 2.269996 1_655
Fe1 O21 1.909743 1_555
Fe1 O13 1.974837 1_555
Fe1 O6 2.032050 1_555
Fe1 O5 2.032050 1_455
Fe1 O2 2.269996 1_555
Fe1 O1 2.269996 1_455
H0 O24 0.985845 1_555
H1 O25 0.985845 1_555
O0 Si0 1.669112 1_555
O1 Si1 1.669112 1_555
O2 Si1 1.669112 1_555
O3 Si0 1.669112 1_555
O4 Si4 1.645322 1_555
O5 Si5 1.645322 1_555
O6 Si5 1.645322 1_555
O7 Si4 1.645322 1_555
O8 Si2 1.637926 1_555
O9 Si3 1.637926 1_555
O10 Si3 1.637926 1_555
O11 Si2 1.637926 1_555
O14 Si4 1.685733 1_555
O15 Si5 1.685733 1_555
O16 Si4 1.660580 1_555
O17 Si5 1.660580 1_555
O18 Si0 1.591237 1_555
O19 Si1 1.591237 1_555
O20 Si2 1.612128 1_555
O21 Si3 1.612128 1_555
O22 Si2 1.653537 1_555
O22 Si1 1.657868 1_554
O23 Si3 1.653537 1_555
O23 Si0 1.657868 1_556
