# generated using pymatgen
data_Ce8Gd2O19
_symmetry_space_group_name_H-M   'P 1'
_cell_length_a   3.86129400
_cell_length_b   3.86129400
_cell_length_c   27.34120000
_cell_angle_alpha   90.00000000
_cell_angle_beta   90.00000000
_cell_angle_gamma   90.00000000
_symmetry_Int_Tables_number   1
_chemical_formula_structural   Ce8Gd2O19
_chemical_formula_sum   'Ce8 Gd2 O19'
_cell_volume   407.64611914
_cell_formula_units_Z   1
loop_
 _symmetry_equiv_pos_site_id
 _symmetry_equiv_pos_as_xyz
  1  'x, y, z'
loop_
 _atom_site_type_symbol
 _atom_site_label
 _atom_site_symmetry_multiplicity
 _atom_site_fract_x
 _atom_site_fract_y
 _atom_site_fract_z
 _atom_site_occupancy
  Ce  Ce0  1  0.50000000  0.00000000  0.15012200  1
  Ce  Ce1  1  0.00000000  0.50000000  0.25004000  1
  Ce  Ce2  1  0.50000000  0.00000000  0.35005600  1
  Ce  Ce3  1  0.00000000  0.50000000  0.45007600  1
  Ce  Ce4  1  0.50000000  0.00000000  0.54992400  1
  Ce  Ce5  1  0.00000000  0.50000000  0.64994400  1
  Ce  Ce6  1  0.50000000  0.00000000  0.74996000  1
  Ce  Ce7  1  0.00000000  0.50000000  0.84987800  1
  Gd  Gd0  1  0.50000000  0.00000000  0.94381100  1
  Gd  Gd1  1  0.00000000  0.50000000  0.05618900  1
  O  O0  1  0.00000000  0.00000000  0.30002700  1
  O  O1  1  0.50000000  0.50000000  0.40043000  1
  O  O2  1  0.00000000  0.00000000  0.50000000  1
  O  O3  1  0.50000000  0.50000000  0.59957000  1
  O  O4  1  0.00000000  0.00000000  0.69997300  1
  O  O5  1  0.50000000  0.50000000  0.80132900  1
  O  O6  1  0.00000000  0.00000000  0.79842700  1
  O  O7  1  0.00000000  0.00000000  0.89566600  1
  O  O8  1  0.50000000  0.50000000  0.90533700  1
  O  O9  1  0.00000000  0.00000000  0.00000000  1
  O  O10  1  0.00000000  0.00000000  0.10433400  1
  O  O11  1  0.50000000  0.50000000  0.09466300  1
  O  O12  1  0.50000000  0.50000000  0.19867100  1
  O  O13  1  0.00000000  0.00000000  0.20157300  1
  O  O14  1  0.50000000  0.50000000  0.30000000  1
  O  O15  1  0.00000000  0.00000000  0.39981700  1
  O  O16  1  0.50000000  0.50000000  0.50000000  1
  O  O17  1  0.00000000  0.00000000  0.60018300  1
  O  O18  1  0.50000000  0.50000000  0.70000000  1
loop_
_geom_bond_atom_site_label_1
_geom_bond_atom_site_label_2
_geom_bond_distance
_geom_bond_site_symmetry_2
Ce0 O10 2.301010 1_555
Ce0 O10 2.301010 1_655
Ce0 O12 2.342938 1_545
Ce0 O12 2.342938 1_555
Ce0 O13 2.388785 1_655
Ce0 O13 2.388785 1_555
Ce0 O11 2.454916 1_555
Ce0 O11 2.454916 1_545
Ce1 O13 2.341668 1_565
Ce1 O13 2.341668 1_555
Ce1 O14 2.365008 1_455
Ce1 O14 2.365008 1_555
Ce1 O0 2.365434 1_565
Ce1 O0 2.365434 1_555
Ce1 O12 2.387465 1_555
Ce1 O12 2.387465 1_455
Ce2 O15 2.361869 1_555
Ce2 O15 2.361869 1_655
Ce2 O0 2.366098 1_655
Ce2 O0 2.366098 1_555
Ce2 O14 2.366525 1_545
Ce2 O14 2.366525 1_555
Ce2 O1 2.371564 1_555
Ce2 O1 2.371564 1_545
Ce3 O1 2.360060 1_555
Ce3 O1 2.360060 1_455
Ce3 O2 2.364439 1_555
Ce3 O16 2.364439 1_455
Ce3 O2 2.364439 1_565
Ce3 O16 2.364439 1_555
Ce3 O15 2.369739 1_565
Ce3 O15 2.369739 1_555
Ce4 O3 2.360060 1_545
Ce4 O3 2.360060 1_555
Ce4 O16 2.364439 1_545
Ce4 O2 2.364439 1_555
Ce4 O2 2.364439 1_655
Ce4 O16 2.364439 1_555
Ce4 O17 2.369739 1_555
Ce4 O17 2.369739 1_655
Ce5 O17 2.361869 1_565
Ce5 O17 2.361869 1_555
Ce5 O4 2.366098 1_565
Ce5 O4 2.366098 1_555
Ce5 O18 2.366525 1_555
Ce5 O18 2.366525 1_455
Ce5 O3 2.371564 1_455
Ce5 O3 2.371564 1_555
Ce6 O6 2.341668 1_655
Ce6 O6 2.341668 1_555
Ce6 O18 2.365008 1_545
Ce6 O18 2.365008 1_555
Ce6 O4 2.365434 1_655
Ce6 O4 2.365434 1_555
Ce6 O5 2.387465 1_555
Ce6 O5 2.387465 1_545
Ce7 O7 2.301010 1_555
Ce7 O7 2.301010 1_565
Ce7 O5 2.342938 1_455
Ce7 O5 2.342938 1_555
Ce7 O6 2.388785 1_555
Ce7 O6 2.388785 1_565
Ce7 O8 2.454916 1_555
Ce7 O8 2.454916 1_455
Gd0 O8 2.198623 1_555
Gd0 O8 2.198623 1_545
Gd0 O7 2.336697 1_555
Gd0 O7 2.336697 1_655
Gd0 O9 2.467294 1_656
Gd0 O9 2.467294 1_556
Gd1 O11 2.198623 1_555
Gd1 O11 2.198623 1_455
Gd1 O10 2.336697 1_555
Gd1 O10 2.336697 1_565
Gd1 O9 2.467294 1_565
Gd1 O9 2.467294 1_555
