# generated using pymatgen
data_Na2Si4O9
_symmetry_space_group_name_H-M   'P 1'
_cell_length_a   9.43720300
_cell_length_b   10.99478300
_cell_length_c   19.42047353
_cell_angle_alpha   89.76272623
_cell_angle_beta   90.00000000
_cell_angle_gamma   90.00000000
_symmetry_Int_Tables_number   1
_chemical_formula_structural   Na2Si4O9
_chemical_formula_sum   'Na24 Si48 O108'
_cell_volume   2015.05103707
_cell_formula_units_Z   12
loop_
 _symmetry_equiv_pos_site_id
 _symmetry_equiv_pos_as_xyz
  1  'x, y, z'
loop_
 _atom_site_type_symbol
 _atom_site_label
 _atom_site_symmetry_multiplicity
 _atom_site_fract_x
 _atom_site_fract_y
 _atom_site_fract_z
 _atom_site_occupancy
  Na  Na0  1  0.53655800  0.48362500  0.61593900  1
  Na  Na1  1  0.55135300  0.43823900  0.20440700  1
  Na  Na2  1  0.45812600  0.66969800  0.07254200  1
  Na  Na3  1  0.46344200  0.51637500  0.38406100  1
  Na  Na4  1  0.04187400  0.16969800  0.57254200  1
  Na  Na5  1  0.04467500  0.56361500  0.38608200  1
  Na  Na6  1  0.97662400  0.42741400  0.22776600  1
  Na  Na7  1  0.54187400  0.33030200  0.92745800  1
  Na  Na8  1  0.47380700  0.10507800  0.57728300  1
  Na  Na9  1  0.94864700  0.93823900  0.70440700  1
  Na  Na10  1  0.96344200  0.98362500  0.11593900  1
  Na  Na11  1  0.02619300  0.60507800  0.07728300  1
  Na  Na12  1  0.95532500  0.43638500  0.61391800  1
  Na  Na13  1  0.02337600  0.57258600  0.77223400  1
  Na  Na14  1  0.03655800  0.01637500  0.88406100  1
  Na  Na15  1  0.44864700  0.56176100  0.79559300  1
  Na  Na16  1  0.45532500  0.06361500  0.88608200  1
  Na  Na17  1  0.52619300  0.89492200  0.42271700  1
  Na  Na18  1  0.54467500  0.93638500  0.11391800  1
  Na  Na19  1  0.52337600  0.92741400  0.72776600  1
  Na  Na20  1  0.05135300  0.06176100  0.29559300  1
  Na  Na21  1  0.97380700  0.39492200  0.92271700  1
  Na  Na22  1  0.95812600  0.83030200  0.42745800  1
  Na  Na23  1  0.47662400  0.07258600  0.27223400  1
  Si  Si0  1  0.99734400  0.27222600  0.75843100  1
  Si  Si1  1  0.23540000  0.78101700  0.80327900  1
  Si  Si2  1  0.75667600  0.87601100  0.83945000  1
  Si  Si3  1  0.99937800  0.28223800  0.07902900  1
  Si  Si4  1  0.49477100  0.78112900  0.91298200  1
  Si  Si5  1  0.74075800  0.66324000  0.15321200  1
  Si  Si6  1  0.72780800  0.44034600  0.04345300  1
  Si  Si7  1  0.77219200  0.94034600  0.54345300  1
  Si  Si8  1  0.26129000  0.69337700  0.48263900  1
  Si  Si9  1  0.72455000  0.44138300  0.75444700  1
  Si  Si10  1  0.26460000  0.28101700  0.30327900  1
  Si  Si11  1  0.73922000  0.59643600  0.50970900  1
  Si  Si12  1  0.74332400  0.37601100  0.33945000  1
  Si  Si13  1  0.22455000  0.05861700  0.74555300  1
  Si  Si14  1  0.49937800  0.21776200  0.42097100  1
  Si  Si15  1  0.75924200  0.16324000  0.65321200  1
  Si  Si16  1  0.26078000  0.40356400  0.49029100  1
  Si  Si17  1  0.24187400  0.84924900  0.15540000  1
  Si  Si18  1  0.23922000  0.90356400  0.99029100  1
  Si  Si19  1  0.77479000  0.06737600  0.39331000  1
  Si  Si20  1  0.76460000  0.21898300  0.19672100  1
  Si  Si21  1  0.49734400  0.22777400  0.74156900  1
  Si  Si22  1  0.24075800  0.83676000  0.34678800  1
  Si  Si23  1  0.75812600  0.15075100  0.84460000  1
  Si  Si24  1  0.72521000  0.56737600  0.89331000  1
  Si  Si25  1  0.73540000  0.71898300  0.69672100  1
  Si  Si26  1  0.74187400  0.65075100  0.34460000  1
  Si  Si27  1  0.73871000  0.30662300  0.51736100  1
  Si  Si28  1  0.25667600  0.62398900  0.66055000  1
  Si  Si29  1  0.27479000  0.43262400  0.10669000  1
  Si  Si30  1  0.23871000  0.19337700  0.98263900  1
  Si  Si31  1  0.25812600  0.34924900  0.65540000  1
  Si  Si32  1  0.00522900  0.28112900  0.41298200  1
  Si  Si33  1  0.24332400  0.12398900  0.16055000  1
  Si  Si34  1  0.22780800  0.05965400  0.45654700  1
  Si  Si35  1  0.76078000  0.09643600  0.00970900  1
  Si  Si36  1  0.27219200  0.55965400  0.95654700  1
  Si  Si37  1  0.25924200  0.33676000  0.84678800  1
  Si  Si38  1  0.99477100  0.71887100  0.58701800  1
  Si  Si39  1  0.50265600  0.77222600  0.25843100  1
  Si  Si40  1  0.00265600  0.72777400  0.24156900  1
  Si  Si41  1  0.00062200  0.71776200  0.92097100  1
  Si  Si42  1  0.50062200  0.78223800  0.57902900  1
  Si  Si43  1  0.76129000  0.80662300  0.01736100  1
  Si  Si44  1  0.27545000  0.55861700  0.24555300  1
  Si  Si45  1  0.50522900  0.21887100  0.08701800  1
  Si  Si46  1  0.22521000  0.93262400  0.60669000  1
  Si  Si47  1  0.77545000  0.94138300  0.25444700  1
  O  O0  1  0.89017900  0.17029300  0.37572500  1
  O  O1  1  0.60661400  0.35458200  0.72041900  1
  O  O2  1  0.38959300  0.25661400  0.66697900  1
  O  O3  1  0.80899800  0.00066700  0.46724800  1
  O  O4  1  0.11000400  0.82423300  0.29411200  1
  O  O5  1  0.60633900  0.22424400  0.16608200  1
  O  O6  1  0.10548700  0.83505600  0.95748300  1
  O  O7  1  0.89186600  0.59787800  0.88130100  1
  O  O8  1  0.89735200  0.69063300  0.31682900  1
  O  O9  1  0.39739600  0.10270300  0.12599100  1
  O  O10  1  0.68735700  0.45656300  0.83724100  1
  O  O11  1  0.10260400  0.60270300  0.62599100  1
  O  O12  1  0.19049200  0.92256200  0.78146600  1
  O  O13  1  0.80885500  0.01591700  0.81620800  1
  O  O14  1  0.11040700  0.75661400  0.16697900  1
  O  O15  1  0.89739600  0.39729700  0.37400900  1
  O  O16  1  0.39379100  0.09785900  0.45862500  1
  O  O17  1  0.39186600  0.90212200  0.61869900  1
  O  O18  1  0.18735700  0.04343700  0.66275900  1
  O  O19  1  0.10618800  0.37010000  0.81306700  1
  O  O20  1  0.69100200  0.50066700  0.96724800  1
  O  O21  1  0.10754400  0.71847200  0.84549600  1
  O  O22  1  0.60620900  0.90214100  0.54137500  1
  O  O23  1  0.19379000  0.95651900  0.39566100  1
  O  O24  1  0.68974900  0.45084500  0.51243100  1
  O  O25  1  0.61389100  0.33246700  0.04865700  1
  O  O26  1  0.39338600  0.64541800  0.27958100  1
  O  O27  1  0.60264800  0.19063300  0.81682900  1
  O  O28  1  0.61227100  0.33083900  0.38515600  1
  O  O29  1  0.10264800  0.30936700  0.68317100  1
  O  O30  1  0.60618800  0.12990000  0.68693300  1
  O  O31  1  0.80621000  0.04348100  0.60433900  1
  O  O32  1  0.89883800  0.28335600  0.49025200  1
  O  O33  1  0.88999600  0.17576700  0.70588800  1
  O  O34  1  0.76806300  0.64164300  0.42935800  1
  O  O35  1  0.81025100  0.95084500  0.01243100  1
  O  O36  1  0.10661400  0.14541800  0.77958100  1
  O  O37  1  0.38999600  0.32423300  0.79411200  1
  O  O38  1  0.23193700  0.35835700  0.57064200  1
  O  O39  1  0.26806300  0.85835700  0.07064200  1
  O  O40  1  0.11129100  0.59283100  0.26202300  1
  O  O41  1  0.74630400  0.80697300  0.76518600  1
  O  O42  1  0.61000400  0.67576700  0.20588800  1
  O  O43  1  0.11186100  0.28573600  0.00417200  1
  O  O44  1  0.38527100  0.89824600  0.94687600  1
  O  O45  1  0.10982100  0.82970700  0.62427500  1
  O  O46  1  0.39245600  0.21847200  0.34549600  1
  O  O47  1  0.61040700  0.74338600  0.33302100  1
  O  O48  1  0.19100200  0.99933300  0.53275200  1
  O  O49  1  0.69049200  0.57743800  0.71853400  1
  O  O50  1  0.60813400  0.09787800  0.38130100  1
  O  O51  1  0.39451300  0.33505600  0.45748300  1
  O  O52  1  0.38870900  0.09283100  0.76202300  1
  O  O53  1  0.25835600  0.21594500  0.89783700  1
  O  O54  1  0.89338600  0.85458200  0.22041900  1
  O  O55  1  0.31264300  0.54343700  0.16275900  1
  O  O56  1  0.89379100  0.40214100  0.04137500  1
  O  O57  1  0.11472900  0.39824600  0.44687600  1
  O  O58  1  0.39017900  0.32970700  0.12427500  1
  O  O59  1  0.88870900  0.40716900  0.73797700  1
  O  O60  1  0.38772900  0.66916100  0.61484400  1
  O  O61  1  0.81264300  0.95656300  0.33724100  1
  O  O62  1  0.75835600  0.28405500  0.60216300  1
  O  O63  1  0.39883800  0.21664400  0.00974800  1
  O  O64  1  0.69114500  0.51591700  0.31620800  1
  O  O65  1  0.88527100  0.60175400  0.55312400  1
  O  O66  1  0.61186100  0.21426400  0.49582800  1
  O  O67  1  0.31025100  0.54915500  0.48756900  1
  O  O68  1  0.88772900  0.83083900  0.88515600  1
  O  O69  1  0.60548700  0.66494400  0.54251700  1
  O  O70  1  0.60116200  0.78335600  0.99025200  1
  O  O71  1  0.60754400  0.78152800  0.65450400  1
  O  O72  1  0.89366100  0.72424400  0.66608200  1
  O  O73  1  0.61472900  0.10175400  0.05312400  1
  O  O74  1  0.75369600  0.30697300  0.26518600  1
  O  O75  1  0.30950800  0.42256200  0.28146600  1
  O  O76  1  0.88959300  0.24338600  0.83302100  1
  O  O77  1  0.69379000  0.54348100  0.10433900  1
  O  O78  1  0.39366100  0.77575600  0.83391800  1
  O  O79  1  0.11227100  0.16916100  0.11484400  1
  O  O80  1  0.30621000  0.45651900  0.89566100  1
  O  O81  1  0.10813400  0.40212200  0.11869900  1
  O  O82  1  0.39381200  0.87010000  0.31306700  1
  O  O83  1  0.19114500  0.98408300  0.18379200  1
  O  O84  1  0.73193700  0.14164300  0.92935800  1
  O  O85  1  0.39735200  0.80936700  0.18317100  1
  O  O86  1  0.25369600  0.19302700  0.23481400  1
  O  O87  1  0.10633900  0.27575600  0.33391800  1
  O  O88  1  0.38813900  0.78573600  0.50417200  1
  O  O89  1  0.38610900  0.66753300  0.95134300  1
  O  O90  1  0.88813900  0.71426400  0.99582800  1
  O  O91  1  0.60260400  0.89729700  0.87400900  1
  O  O92  1  0.10620900  0.59785900  0.95862500  1
  O  O93  1  0.60982100  0.67029300  0.87572500  1
  O  O94  1  0.88610900  0.83246700  0.54865700  1
  O  O95  1  0.89451300  0.16494400  0.04251700  1
  O  O96  1  0.80950800  0.07743800  0.21853400  1
  O  O97  1  0.30885500  0.48408300  0.68379200  1
  O  O98  1  0.11389100  0.16753300  0.45134300  1
  O  O99  1  0.61129100  0.90716900  0.23797700  1
  O  O100  1  0.18974900  0.04915500  0.98756900  1
  O  O101  1  0.30899800  0.49933300  0.03275200  1
  O  O102  1  0.10116200  0.71664400  0.50974800  1
  O  O103  1  0.89245600  0.28152800  0.15450400  1
  O  O104  1  0.74164400  0.78405500  0.10216300  1
  O  O105  1  0.24630400  0.69302700  0.73481400  1
  O  O106  1  0.24164400  0.71594500  0.39783700  1
  O  O107  1  0.89381200  0.62990000  0.18693300  1
loop_
_geom_bond_atom_site_label_1
_geom_bond_atom_site_label_2
_geom_bond_distance
_geom_bond_site_symmetry_2
Na0 O60 2.476712 1_555
Na0 O24 2.503344 1_555
Na0 O97 2.520753 1_555
Na0 O69 2.531217 1_555
Na0 O1 2.557986 1_555
Na0 O49 2.676024 1_555
Na1 O58 2.484877 1_555
Na1 O5 2.524588 1_555
Na1 O77 2.627519 1_555
Na1 O55 2.656905 1_555
Na1 O74 2.666171 1_555
Na1 O42 2.669851 1_555
Na1 O64 2.683171 1_555
Na1 O75 2.734270 1_555
Na2 O70 2.433342 1_554
Na2 O89 2.450110 1_554
Na2 O101 2.469485 1_555
Na2 O55 2.619483 1_555
Na2 O77 2.691882 1_555
Na2 O85 2.707461 1_555
Na2 O39 2.742358 1_555
Na3 O28 2.476712 1_555
Na3 O67 2.503344 1_555
Na3 O64 2.520753 1_555
Na3 O51 2.531217 1_555
Na3 O26 2.557986 1_555
Na3 O75 2.676024 1_555
Na4 O32 2.433342 1_455
Na4 O98 2.450110 1_555
Na4 O48 2.469485 1_545
Na4 O18 2.619483 1_555
Na4 O31 2.691882 1_455
Na4 O29 2.707461 1_555
Na4 O38 2.742358 1_555
Na5 O57 2.262534 1_555
Na5 O15 2.309597 1_455
Na5 O8 2.382554 1_455
Na5 O40 2.509313 1_555
Na5 O106 2.513091 1_555
Na6 O103 2.290613 1_555
Na6 O40 2.318517 1_655
Na6 O81 2.471637 1_655
Na6 O107 2.486232 1_555
Na6 O74 2.588388 1_555
Na6 O87 2.915530 1_655
Na6 O15 2.954169 1_555
Na7 O63 2.433342 1_556
Na7 O25 2.450110 1_556
Na7 O20 2.469485 1_555
Na7 O10 2.619483 1_555
Na7 O80 2.691882 1_555
Na7 O27 2.707461 1_555
Na7 O84 2.742358 1_555
Na8 O66 2.371752 1_555
Na8 O16 2.426575 1_555
Na8 O30 2.484882 1_555
Na8 O17 2.491876 1_545
Na8 O2 2.542816 1_555
Na8 O22 2.653095 1_545
Na9 O45 2.484877 1_655
Na9 O72 2.524588 1_555
Na9 O31 2.627519 1_565
Na9 O18 2.656905 1_665
Na9 O41 2.666171 1_555
Na9 O33 2.669851 1_565
Na9 O13 2.683171 1_565
Na9 O12 2.734270 1_655
Na10 O79 2.476712 1_665
Na10 O35 2.503344 1_555
Na10 O83 2.520753 1_655
Na10 O95 2.531217 1_565
Na10 O54 2.557986 1_555
Na10 O96 2.676024 1_565
Na11 O90 2.371752 1_454
Na11 O92 2.426575 1_554
Na11 O107 2.484882 1_455
Na11 O81 2.491876 1_555
Na11 O14 2.542816 1_555
Na11 O56 2.653095 1_455
Na12 O65 2.262534 1_555
Na12 O11 2.309597 1_655
Na12 O29 2.382554 1_655
Na12 O59 2.509313 1_555
Na12 O62 2.513091 1_555
Na13 O21 2.290613 1_555
Na13 O59 2.318517 1_455
Na13 O7 2.471637 1_455
Na13 O19 2.486232 1_555
Na13 O105 2.588388 1_555
Na13 O72 2.915530 1_455
Na13 O11 2.954169 1_555
Na14 O68 2.476712 1_445
Na14 O100 2.503344 1_555
Na14 O13 2.520753 1_455
Na14 O6 2.531217 1_545
Na14 O36 2.557986 1_555
Na14 O12 2.676024 1_545
Na15 O93 2.484877 1_555
Na15 O78 2.524588 1_555
Na15 O80 2.627519 1_555
Na15 O10 2.656905 1_555
Na15 O105 2.666171 1_555
Na15 O37 2.669851 1_555
Na15 O97 2.683171 1_555
Na15 O49 2.734270 1_555
Na16 O44 2.262534 1_545
Na16 O91 2.309597 1_545
Na16 O27 2.382554 1_555
Na16 O52 2.509313 1_555
Na16 O53 2.513091 1_555
Na17 O88 2.371752 1_555
Na17 O22 2.426575 1_555
Na17 O82 2.484882 1_555
Na17 O50 2.491876 1_565
Na17 O47 2.542816 1_555
Na17 O16 2.653095 1_565
Na18 O73 2.262534 1_565
Na18 O9 2.309597 1_565
Na18 O85 2.382554 1_555
Na18 O99 2.509313 1_555
Na18 O104 2.513091 1_555
Na19 O71 2.290613 1_555
Na19 O52 2.318517 1_565
Na19 O17 2.471637 1_555
Na19 O30 2.486232 1_565
Na19 O41 2.588388 1_555
Na19 O78 2.915530 1_555
Na19 O91 2.954169 1_555
Na20 O0 2.484877 1_455
Na20 O87 2.524588 1_555
Na20 O23 2.627519 1_545
Na20 O61 2.656905 1_445
Na20 O86 2.666171 1_555
Na20 O4 2.669851 1_545
Na20 O83 2.683171 1_545
Na20 O96 2.734270 1_455
Na21 O43 2.371752 1_656
Na21 O56 2.426575 1_556
Na21 O19 2.484882 1_655
Na21 O7 2.491876 1_555
Na21 O76 2.542816 1_555
Na21 O92 2.653095 1_655
Na22 O102 2.433342 1_655
Na22 O94 2.450110 1_555
Na22 O3 2.469485 1_565
Na22 O61 2.619483 1_555
Na22 O23 2.691882 1_655
Na22 O8 2.707461 1_555
Na22 O34 2.742358 1_555
Na23 O46 2.290613 1_555
Na23 O99 2.318517 1_545
Na23 O50 2.471637 1_555
Na23 O82 2.486232 1_545
Na23 O86 2.588388 1_555
Na23 O5 2.915530 1_555
Na23 O9 2.954169 1_555
O0 Si19 1.606127 1_555
O0 Si32 1.787375 1_655
O1 Si9 1.609804 1_555
O1 Si21 1.780790 1_555
O2 Si31 1.620279 1_555
O2 Si21 1.796977 1_555
O3 Si19 1.641733 1_555
O3 Si7 1.656077 1_545
O4 Si22 1.609127 1_555
O4 Si40 1.789206 1_555
O5 Si20 1.608658 1_555
O5 Si45 1.808969 1_555
O6 Si18 1.603152 1_555
O6 Si41 1.775631 1_555
O7 Si24 1.624748 1_555
O7 Si41 1.841935 1_655
O8 Si26 1.622989 1_555
O8 Si40 1.812631 1_655
O9 Si33 1.618845 1_555
O9 Si45 1.797719 1_555
O10 Si9 1.654877 1_555
O10 Si24 1.675913 1_555
O11 Si28 1.618845 1_555
O11 Si38 1.797719 1_455
O12 Si1 1.665995 1_555
O12 Si13 1.678928 1_565
O13 Si23 1.654602 1_555
O13 Si2 1.675302 1_545
O14 Si17 1.620279 1_555
O14 Si40 1.796977 1_555
O15 Si12 1.618845 1_555
O15 Si32 1.797719 1_655
O16 Si34 1.622305 1_555
O16 Si14 1.804881 1_555
O17 Si46 1.624748 1_555
O17 Si42 1.841935 1_555
O18 Si13 1.654877 1_555
O18 Si46 1.675913 1_545
O19 Si37 1.627127 1_555
O19 Si0 1.829864 1_455
O20 Si24 1.641733 1_555
O20 Si6 1.656077 1_556
O21 Si1 1.611305 1_555
O21 Si41 1.779492 1_555
O22 Si7 1.622305 1_555
O22 Si42 1.804881 1_555
O23 Si34 1.672769 1_565
O23 Si22 1.685658 1_555
O24 Si27 1.654030 1_555
O24 Si11 1.668062 1_555
O25 Si6 1.603689 1_555
O25 Si45 1.777299 1_555
O26 Si44 1.609804 1_555
O26 Si39 1.780790 1_555
O27 Si23 1.622989 1_555
O27 Si21 1.812631 1_555
O28 Si12 1.600161 1_555
O28 Si14 1.776900 1_555
O29 Si31 1.622989 1_555
O29 Si0 1.812631 1_455
O30 Si15 1.627127 1_555
O30 Si21 1.829864 1_555
O31 Si7 1.672769 1_545
O31 Si15 1.685658 1_555
O32 Si27 1.620905 1_555
O32 Si32 1.805782 1_655
O33 Si15 1.609127 1_555
O33 Si0 1.789206 1_555
O34 Si11 1.658233 1_555
O34 Si26 1.667092 1_555
O35 Si43 1.654030 1_555
O35 Si35 1.668062 1_565
O36 Si13 1.609804 1_555
O36 Si0 1.780790 1_455
O37 Si37 1.609127 1_555
O37 Si21 1.789206 1_555
O38 Si16 1.658233 1_555
O38 Si31 1.667092 1_555
O39 Si18 1.658233 1_554
O39 Si17 1.667092 1_555
O40 Si44 1.626296 1_555
O40 Si40 1.845329 1_555
O41 Si2 1.635506 1_555
O41 Si25 1.650776 1_555
O42 Si5 1.609127 1_555
O42 Si39 1.789206 1_555
O43 Si30 1.625612 1_554
O43 Si3 1.800351 1_455
O44 Si18 1.616929 1_555
O44 Si4 1.779401 1_555
O45 Si46 1.606127 1_555
O45 Si38 1.787375 1_455
O46 Si10 1.611305 1_555
O46 Si14 1.779492 1_555
O47 Si26 1.620279 1_555
O47 Si39 1.796977 1_555
O48 Si46 1.641733 1_555
O48 Si34 1.656077 1_565
O49 Si25 1.665995 1_555
O49 Si9 1.678928 1_555
O50 Si19 1.624748 1_555
O50 Si14 1.841935 1_555
O51 Si16 1.603152 1_555
O51 Si14 1.775631 1_555
O52 Si13 1.626296 1_555
O52 Si21 1.845329 1_555
O53 Si37 1.654237 1_555
O53 Si30 1.674760 1_555
O54 Si47 1.609804 1_555
O54 Si40 1.780790 1_655
O55 Si44 1.654877 1_555
O55 Si29 1.675913 1_555
O56 Si6 1.622305 1_555
O56 Si3 1.804881 1_555
O57 Si16 1.616929 1_555
O57 Si32 1.779401 1_555
O58 Si29 1.606127 1_555
O58 Si45 1.787375 1_555
O59 Si9 1.626296 1_555
O59 Si0 1.845329 1_555
O60 Si28 1.600161 1_555
O60 Si42 1.776900 1_555
O61 Si47 1.654877 1_555
O61 Si19 1.675913 1_565
O62 Si15 1.654237 1_555
O62 Si27 1.674760 1_555
O63 Si30 1.620905 1_554
O63 Si45 1.805782 1_555
O64 Si26 1.654602 1_555
O64 Si12 1.675302 1_555
O65 Si11 1.616929 1_555
O65 Si38 1.779401 1_555
O66 Si27 1.625612 1_555
O66 Si14 1.800351 1_555
O67 Si8 1.654030 1_555
O67 Si16 1.668062 1_555
O68 Si2 1.600161 1_555
O68 Si41 1.776900 1_655
O69 Si11 1.603152 1_555
O69 Si42 1.775631 1_555
O70 Si43 1.620905 1_556
O70 Si4 1.805782 1_555
O71 Si25 1.611305 1_555
O71 Si42 1.779492 1_555
O72 Si25 1.608658 1_555
O72 Si38 1.808969 1_555
O73 Si35 1.616929 1_555
O73 Si45 1.779401 1_555
O74 Si12 1.635506 1_555
O74 Si20 1.650776 1_555
O75 Si10 1.665995 1_555
O75 Si44 1.678928 1_555
O76 Si23 1.620279 1_555
O76 Si0 1.796977 1_555
O77 Si6 1.672769 1_555
O77 Si5 1.685658 1_555
O78 Si1 1.608658 1_555
O78 Si4 1.808969 1_555
O79 Si33 1.600161 1_555
O79 Si3 1.776900 1_455
O80 Si36 1.672769 1_555
O80 Si37 1.685658 1_555
O81 Si29 1.624748 1_555
O81 Si3 1.841935 1_455
O82 Si22 1.627127 1_555
O82 Si39 1.829864 1_555
O83 Si17 1.654602 1_555
O83 Si33 1.675302 1_565
O84 Si35 1.658233 1_556
O84 Si23 1.667092 1_555
O85 Si17 1.622989 1_555
O85 Si39 1.812631 1_555
O86 Si33 1.635506 1_555
O86 Si10 1.650776 1_555
O87 Si10 1.608658 1_555
O87 Si32 1.808969 1_555
O88 Si8 1.625612 1_555
O88 Si42 1.800351 1_555
O89 Si36 1.603689 1_555
O89 Si4 1.777299 1_555
O90 Si43 1.625612 1_556
O90 Si41 1.800351 1_655
O91 Si2 1.618845 1_555
O91 Si4 1.797719 1_555
O92 Si36 1.622305 1_555
O92 Si41 1.804881 1_555
O93 Si24 1.606127 1_555
O93 Si4 1.787375 1_555
O94 Si7 1.603689 1_555
O94 Si38 1.777299 1_555
O95 Si35 1.603152 1_555
O95 Si3 1.775631 1_555
O96 Si20 1.665995 1_555
O96 Si47 1.678928 1_545
O97 Si31 1.654602 1_555
O97 Si28 1.675302 1_555
O98 Si34 1.603689 1_555
O98 Si32 1.777299 1_555
O99 Si47 1.626296 1_555
O99 Si39 1.845329 1_555
O100 Si30 1.654030 1_555
O100 Si18 1.668062 1_545
O101 Si29 1.641733 1_555
O101 Si36 1.656077 1_554
O102 Si8 1.620905 1_555
O102 Si38 1.805782 1_455
O103 Si20 1.611305 1_555
O103 Si3 1.779492 1_555
O104 Si5 1.654237 1_555
O104 Si43 1.674760 1_555
O105 Si28 1.635506 1_555
O105 Si1 1.650776 1_555
O106 Si22 1.654237 1_555
O106 Si8 1.674760 1_555
O107 Si5 1.627127 1_555
O107 Si40 1.829864 1_655
