# generated using pymatgen
data_NaBePO4
_symmetry_space_group_name_H-M   'P 1'
_cell_length_a   7.89767300
_cell_length_b   8.23002800
_cell_length_c   16.53631483
_cell_angle_alpha   60.23883032
_cell_angle_beta   90.00000000
_cell_angle_gamma   90.00000000
_symmetry_Int_Tables_number   1
_chemical_formula_structural   NaBePO4
_chemical_formula_sum   'Na12 Be12 P12 O48'
_cell_volume   933.06087837
_cell_formula_units_Z   12
loop_
 _symmetry_equiv_pos_site_id
 _symmetry_equiv_pos_as_xyz
  1  'x, y, z'
loop_
 _atom_site_type_symbol
 _atom_site_label
 _atom_site_symmetry_multiplicity
 _atom_site_fract_x
 _atom_site_fract_y
 _atom_site_fract_z
 _atom_site_occupancy
  Na  Na0  1  0.96791000  0.29711500  0.93123200  1
  Na  Na1  1  0.46791000  0.70288500  0.56876800  1
  Na  Na2  1  0.03209000  0.70288500  0.06876800  1
  Na  Na3  1  0.53209000  0.29711500  0.43123200  1
  Na  Na4  1  0.52812700  0.35729300  0.91232300  1
  Na  Na5  1  0.02812700  0.64270700  0.58767700  1
  Na  Na6  1  0.47187300  0.64270700  0.08767700  1
  Na  Na7  1  0.97187300  0.35729300  0.41232300  1
  Na  Na8  1  0.00042900  0.00191700  0.75059800  1
  Na  Na9  1  0.50042900  0.99808300  0.74940200  1
  Na  Na10  1  0.99957100  0.99808300  0.24940200  1
  Na  Na11  1  0.49957100  0.00191700  0.25059800  1
  Be  Be0  1  0.83150500  0.65895800  0.90939900  1
  Be  Be1  1  0.33150500  0.34104200  0.59060100  1
  Be  Be2  1  0.16849500  0.34104200  0.09060100  1
  Be  Be3  1  0.66849500  0.65895800  0.40939900  1
  Be  Be4  1  0.33137600  0.98293600  0.91905300  1
  Be  Be5  1  0.83137600  0.01706400  0.58094700  1
  Be  Be6  1  0.66862400  0.01706400  0.08094700  1
  Be  Be7  1  0.16862400  0.98293600  0.41905300  1
  Be  Be8  1  0.83148200  0.32040500  0.75912300  1
  Be  Be9  1  0.33148200  0.67959500  0.74087700  1
  Be  Be10  1  0.16851800  0.67959500  0.24087700  1
  Be  Be11  1  0.66851800  0.32040500  0.25912300  1
  P  P0  1  0.21044400  0.65964500  0.90882700  1
  P  P1  1  0.71044400  0.34035500  0.59117300  1
  P  P2  1  0.78955600  0.34035500  0.09117300  1
  P  P3  1  0.28955600  0.65964500  0.40882700  1
  P  P4  1  0.70934400  0.97559000  0.91892900  1
  P  P5  1  0.20934400  0.02441000  0.58107100  1
  P  P6  1  0.29065600  0.02441000  0.08107100  1
  P  P7  1  0.79065600  0.97559000  0.41892900  1
  P  P8  1  0.21348900  0.31834700  0.76211600  1
  P  P9  1  0.71348900  0.68165300  0.73788400  1
  P  P10  1  0.78651100  0.68165300  0.23788400  1
  P  P11  1  0.28651100  0.31834700  0.26211600  1
  O  O0  1  0.02749900  0.61842900  0.89080800  1
  O  O1  1  0.52749900  0.38157100  0.60919200  1
  O  O2  1  0.97250100  0.38157100  0.10919200  1
  O  O3  1  0.47250100  0.61842900  0.39080800  1
  O  O4  1  0.52549000  0.90097400  0.93549600  1
  O  O5  1  0.02549000  0.09902600  0.56450400  1
  O  O6  1  0.47451000  0.09902600  0.06450400  1
  O  O7  1  0.97451000  0.90097400  0.43549600  1
  O  O8  1  0.02838400  0.27862800  0.79792900  1
  O  O9  1  0.52838400  0.72137200  0.70207100  1
  O  O10  1  0.97161600  0.72137200  0.20207100  1
  O  O11  1  0.47161600  0.27862800  0.29792900  1
  O  O12  1  0.33325700  0.60697900  0.85241000  1
  O  O13  1  0.83325700  0.39302100  0.64759000  1
  O  O14  1  0.66674300  0.39302100  0.14759000  1
  O  O15  1  0.16674300  0.60697900  0.35241000  1
  O  O16  1  0.83116100  0.80795100  0.94769300  1
  O  O17  1  0.33116100  0.19204900  0.55230700  1
  O  O18  1  0.16883900  0.19204900  0.05230700  1
  O  O19  1  0.66883900  0.80795100  0.44769300  1
  O  O20  1  0.33311100  0.20830200  0.84642900  1
  O  O21  1  0.83311100  0.79169800  0.65357100  1
  O  O22  1  0.66688900  0.79169800  0.15357100  1
  O  O23  1  0.16688900  0.20830200  0.34642900  1
  O  O24  1  0.74665500  0.45646500  0.98553100  1
  O  O25  1  0.24665500  0.54353500  0.51446900  1
  O  O26  1  0.25334500  0.54353500  0.01446900  1
  O  O27  1  0.75334500  0.45646500  0.48553100  1
  O  O28  1  0.74835000  0.06933200  0.97857100  1
  O  O29  1  0.24835000  0.93066800  0.52142900  1
  O  O30  1  0.25165000  0.93066800  0.02142900  1
  O  O31  1  0.75165000  0.06933200  0.47857100  1
  O  O32  1  0.75122600  0.46921900  0.78671300  1
  O  O33  1  0.25122600  0.53078100  0.71328700  1
  O  O34  1  0.24877400  0.53078100  0.21328700  1
  O  O35  1  0.74877400  0.46921900  0.28671300  1
  O  O36  1  0.22524400  0.87113100  0.87693400  1
  O  O37  1  0.72524400  0.12886900  0.62306600  1
  O  O38  1  0.77475600  0.12886900  0.12306600  1
  O  O39  1  0.27475600  0.87113100  0.37693400  1
  O  O40  1  0.73227600  0.12025800  0.81435500  1
  O  O41  1  0.23227600  0.87974200  0.68564500  1
  O  O42  1  0.26772400  0.87974200  0.18564500  1
  O  O43  1  0.76772400  0.12025800  0.31435500  1
  O  O44  1  0.73331300  0.74896800  0.81001200  1
  O  O45  1  0.23331300  0.25103200  0.68998800  1
  O  O46  1  0.26668700  0.25103200  0.18998800  1
  O  O47  1  0.76668700  0.74896800  0.31001200  1
loop_
_geom_bond_atom_site_label_1
_geom_bond_atom_site_label_2
_geom_bond_distance
_geom_bond_site_symmetry_2
Na0 O8 2.333095 1_655
Na0 O18 2.357049 1_656
Na0 O28 2.382656 1_555
Na0 O0 2.430303 1_655
Na0 O24 2.597808 1_555
Na0 O32 2.699163 1_555
Na1 O9 2.333095 1_555
Na1 O19 2.357049 1_555
Na1 O29 2.382656 1_555
Na1 O1 2.430303 1_555
Na1 O25 2.597808 1_555
Na1 O33 2.699163 1_555
Na2 O10 2.333095 1_455
Na2 O16 2.357049 1_454
Na2 O30 2.382656 1_555
Na2 O2 2.430303 1_455
Na2 O26 2.597808 1_555
Na2 O34 2.699163 1_555
Na3 O11 2.333095 1_555
Na3 O17 2.357049 1_555
Na3 O31 2.382656 1_555
Na3 O3 2.430303 1_555
Na3 O27 2.597808 1_555
Na3 O35 2.699163 1_555
Na4 O12 2.356200 1_555
Na4 O6 2.391609 1_556
Na4 O24 2.468040 1_555
Na4 O32 2.523484 1_555
Na4 O20 2.527743 1_555
Na4 O28 2.695213 1_555
Na5 O13 2.356200 1_455
Na5 O7 2.391609 1_455
Na5 O25 2.468040 1_555
Na5 O33 2.523484 1_555
Na5 O21 2.527743 1_455
Na5 O29 2.695213 1_555
Na6 O14 2.356200 1_555
Na6 O4 2.391609 1_554
Na6 O26 2.468040 1_555
Na6 O34 2.523484 1_555
Na6 O22 2.527743 1_555
Na6 O30 2.695213 1_555
Na7 O15 2.356200 1_655
Na7 O5 2.391609 1_655
Na7 O27 2.468040 1_555
Na7 O35 2.523484 1_555
Na7 O23 2.527743 1_655
Na7 O31 2.695213 1_555
Na8 O36 2.538321 1_545
Na8 O45 2.559443 1_555
Na8 O41 2.567028 1_545
Na8 O40 2.750376 1_455
Na8 O8 2.759919 1_555
Na8 O5 2.775987 1_555
Na8 O44 2.778297 1_445
Na8 O37 2.841649 1_455
Na8 O0 2.849166 1_545
Na9 O37 2.538321 1_565
Na9 O44 2.559443 1_555
Na9 O40 2.567028 1_565
Na9 O41 2.750376 1_555
Na9 O9 2.759919 1_555
Na9 O4 2.775987 1_555
Na9 O45 2.778297 1_565
Na9 O36 2.841649 1_555
Na9 O1 2.849166 1_565
Na10 O38 2.538321 1_565
Na10 O47 2.559443 1_555
Na10 O43 2.567028 1_565
Na10 O42 2.750376 1_655
Na10 O10 2.759919 1_555
Na10 O7 2.775987 1_555
Na10 O46 2.778297 1_665
Na10 O39 2.841649 1_655
Na10 O2 2.849166 1_565
Na11 O39 2.538321 1_545
Na11 O46 2.559443 1_555
Na11 O42 2.567028 1_545
Na11 O43 2.750376 1_555
Na11 O11 2.759919 1_555
Na11 O6 2.775987 1_555
Na11 O47 2.778297 1_545
Na11 O38 2.841649 1_555
Na11 O3 2.849166 1_545
Be0 O44 1.625590 1_555
Be0 O16 1.635692 1_555
Be0 O0 1.644249 1_655
Be0 O24 1.651788 1_555
Be1 O45 1.625590 1_555
Be1 O17 1.635692 1_555
Be1 O1 1.644249 1_555
Be1 O25 1.651788 1_555
Be2 O46 1.625590 1_555
Be2 O18 1.635692 1_555
Be2 O2 1.644249 1_455
Be2 O26 1.651788 1_555
Be3 O47 1.625590 1_555
Be3 O19 1.635692 1_555
Be3 O3 1.644249 1_555
Be3 O27 1.651788 1_555
Be4 O36 1.634202 1_555
Be4 O20 1.634394 1_565
Be4 O4 1.642285 1_555
Be4 O30 1.650609 1_556
Be5 O37 1.634202 1_555
Be5 O21 1.634394 1_545
Be5 O5 1.642285 1_655
Be5 O31 1.650609 1_555
Be6 O38 1.634202 1_555
Be6 O22 1.634394 1_545
Be6 O6 1.642285 1_555
Be6 O28 1.650609 1_554
Be7 O39 1.634202 1_555
Be7 O23 1.634394 1_565
Be7 O7 1.642285 1_455
Be7 O29 1.650609 1_555
Be8 O32 1.632369 1_555
Be8 O13 1.632390 1_555
Be8 O40 1.633334 1_555
Be8 O8 1.652029 1_655
Be9 O33 1.632369 1_555
Be9 O12 1.632390 1_555
Be9 O41 1.633334 1_555
Be9 O9 1.652029 1_555
Be10 O34 1.632369 1_555
Be10 O15 1.632390 1_555
Be10 O42 1.633334 1_555
Be10 O10 1.652029 1_455
Be11 O35 1.632369 1_555
Be11 O14 1.632390 1_555
Be11 O43 1.633334 1_555
Be11 O11 1.652029 1_555
O0 P0 1.546529 1_555
O1 P1 1.546529 1_555
O2 P2 1.546529 1_555
O3 P3 1.546529 1_555
O4 P4 1.547094 1_555
O5 P5 1.547094 1_555
O6 P6 1.547094 1_555
O7 P7 1.547094 1_555
O8 P8 1.550011 1_555
O9 P9 1.550011 1_555
O10 P10 1.550011 1_555
O11 P11 1.550011 1_555
O12 P0 1.549340 1_555
O13 P1 1.549340 1_555
O14 P2 1.549340 1_555
O15 P3 1.549340 1_555
O16 P4 1.550427 1_555
O17 P5 1.550427 1_555
O18 P6 1.550427 1_555
O19 P7 1.550427 1_555
O20 P8 1.550177 1_555
O21 P9 1.550177 1_555
O22 P10 1.550177 1_555
O23 P11 1.550177 1_555
O24 P2 1.556416 1_556
O25 P3 1.556416 1_555
O26 P0 1.556416 1_554
O27 P1 1.556416 1_555
O28 P4 1.555061 1_545
O29 P5 1.555061 1_565
O30 P6 1.555061 1_565
O31 P7 1.555061 1_545
O32 P9 1.547900 1_555
O33 P8 1.547900 1_555
O34 P11 1.547900 1_555
O35 P10 1.547900 1_555
O36 P0 1.552404 1_555
O37 P1 1.552404 1_555
O38 P2 1.552404 1_555
O39 P3 1.552404 1_555
O40 P4 1.548137 1_545
O41 P5 1.548137 1_565
O42 P6 1.548137 1_565
O43 P7 1.548137 1_545
O44 P9 1.552431 1_555
O45 P8 1.552431 1_555
O46 P11 1.552431 1_555
O47 P10 1.552431 1_555
