# generated using pymatgen
data_Co2W4C
_symmetry_space_group_name_H-M   'P 1'
_cell_length_a   8.01283788
_cell_length_b   8.01283788
_cell_length_c   8.01283788
_cell_angle_alpha   60.00000000
_cell_angle_beta   60.00000000
_cell_angle_gamma   60.00000000
_symmetry_Int_Tables_number   1
_chemical_formula_structural   Co2W4C
_chemical_formula_sum   'Co8 W16 C4'
_cell_volume   363.78439850
_cell_formula_units_Z   4
loop_
 _symmetry_equiv_pos_site_id
 _symmetry_equiv_pos_as_xyz
  1  'x, y, z'
loop_
 _atom_site_type_symbol
 _atom_site_label
 _atom_site_symmetry_multiplicity
 _atom_site_fract_x
 _atom_site_fract_y
 _atom_site_fract_z
 _atom_site_occupancy
  Co  Co0  1  0.91853300  0.24440200  0.91853300  1
  Co  Co1  1  0.24440200  0.91853300  0.91853300  1
  Co  Co2  1  0.91853300  0.91853300  0.24440200  1
  Co  Co3  1  0.00559800  0.33146700  0.33146700  1
  Co  Co4  1  0.33146700  0.00559800  0.33146700  1
  Co  Co5  1  0.91853300  0.91853300  0.91853300  1
  Co  Co6  1  0.33146700  0.33146700  0.33146700  1
  Co  Co7  1  0.33146700  0.33146700  0.00559800  1
  W  W0  1  0.62500000  0.12500000  0.12500000  1
  W  W1  1  0.56169000  0.93831000  0.56169000  1
  W  W2  1  0.68831000  0.31169000  0.68831000  1
  W  W3  1  0.68831000  0.68831000  0.31169000  1
  W  W4  1  0.31169000  0.31169000  0.68831000  1
  W  W5  1  0.68831000  0.31169000  0.31169000  1
  W  W6  1  0.31169000  0.68831000  0.68831000  1
  W  W7  1  0.93831000  0.56169000  0.56169000  1
  W  W8  1  0.12500000  0.12500000  0.62500000  1
  W  W9  1  0.93831000  0.93831000  0.56169000  1
  W  W10  1  0.31169000  0.68831000  0.31169000  1
  W  W11  1  0.56169000  0.56169000  0.93831000  1
  W  W12  1  0.93831000  0.56169000  0.93831000  1
  W  W13  1  0.12500000  0.62500000  0.12500000  1
  W  W14  1  0.12500000  0.12500000  0.12500000  1
  W  W15  1  0.56169000  0.93831000  0.93831000  1
  C  C0  1  0.62500000  0.62500000  0.62500000  1
  C  C1  1  0.12500000  0.62500000  0.62500000  1
  C  C2  1  0.62500000  0.12500000  0.62500000  1
  C  C3  1  0.62500000  0.62500000  0.12500000  1
loop_
_geom_bond_atom_site_label_1
_geom_bond_atom_site_label_2
_geom_bond_distance
_geom_bond_site_symmetry_2
Co0 W14 2.441452 1_656
Co0 W8 2.441459 1_655
Co0 W0 2.441459 1_556
Co0 Co2 2.611135 1_546
Co0 Co1 2.611135 1_645
Co0 Co5 2.611135 1_545
Co0 W12 2.710129 1_555
Co0 W7 2.710134 1_555
Co0 W11 2.710134 1_555
Co0 W5 2.917294 1_556
Co0 W4 2.917294 1_655
Co0 W2 2.917301 1_555
Co1 W14 2.441452 1_566
Co1 W13 2.441459 1_556
Co1 W8 2.441459 1_565
Co1 Co5 2.611135 1_455
Co1 Co2 2.611135 1_456
Co1 W15 2.710129 1_555
Co1 W1 2.710134 1_555
Co1 W11 2.710134 1_555
Co1 W10 2.917294 1_556
Co1 W4 2.917294 1_565
Co1 W6 2.917301 1_555
Co2 W14 2.441452 1_665
Co2 W0 2.441459 1_565
Co2 W13 2.441459 1_655
Co2 Co5 2.611135 1_554
Co2 W9 2.710129 1_555
Co2 W7 2.710134 1_555
Co2 W1 2.710134 1_555
Co2 W10 2.917294 1_655
Co2 W5 2.917294 1_565
Co2 W3 2.917301 1_555
Co3 W14 2.441452 1_555
Co3 W8 2.441459 1_555
Co3 W13 2.441459 1_555
Co3 Co6 2.611135 1_555
Co3 Co7 2.611135 1_555
Co3 Co4 2.611135 1_555
Co3 W5 2.710129 1_455
Co3 W3 2.710134 1_455
Co3 W2 2.710134 1_455
Co3 W9 2.917294 1_445
Co3 W12 2.917294 1_454
Co3 W7 2.917301 1_455
Co4 W14 2.441452 1_555
Co4 W0 2.441459 1_555
Co4 W8 2.441459 1_555
Co4 Co6 2.611135 1_555
Co4 Co7 2.611135 1_555
Co4 W10 2.710129 1_545
Co4 W6 2.710134 1_545
Co4 W3 2.710134 1_545
Co4 W9 2.917294 1_445
Co4 W15 2.917294 1_544
Co4 W1 2.917301 1_545
Co5 W0 2.441454 1_566
Co5 W13 2.441454 1_656
Co5 W8 2.441454 1_665
Co5 W15 2.710137 1_555
Co5 W9 2.710137 1_555
Co5 W12 2.710137 1_555
Co5 W3 2.917298 1_556
Co5 W2 2.917298 1_565
Co5 W6 2.917298 1_655
Co6 W13 2.441454 1_555
Co6 W0 2.441454 1_555
Co6 W8 2.441454 1_555
Co6 Co7 2.611135 1_555
Co6 W4 2.710137 1_555
Co6 W5 2.710137 1_555
Co6 W10 2.710137 1_555
Co6 W11 2.917298 1_554
Co6 W1 2.917298 1_545
Co6 W7 2.917298 1_455
Co7 W14 2.441452 1_555
Co7 W0 2.441459 1_555
Co7 W13 2.441459 1_555
Co7 W4 2.710129 1_554
Co7 W6 2.710134 1_554
Co7 W2 2.710134 1_554
Co7 W12 2.917294 1_454
Co7 W15 2.917294 1_544
Co7 W11 2.917301 1_554
C0 W11 2.127802 1_555
C0 W1 2.127802 1_555
C0 W7 2.127802 1_555
C0 W6 2.127802 1_555
C0 W3 2.127802 1_555
C0 W2 2.127802 1_555
C1 W12 2.127802 1_455
C1 W4 2.127802 1_555
C1 W7 2.127802 1_455
C1 W6 2.127802 1_555
C1 W10 2.127802 1_555
C1 W9 2.127802 1_455
C2 W4 2.127802 1_555
C2 W1 2.127802 1_545
C2 W15 2.127802 1_545
C2 W5 2.127802 1_555
C2 W9 2.127802 1_545
C2 W2 2.127802 1_555
C3 W11 2.127802 1_554
C3 W15 2.127802 1_554
C3 W12 2.127802 1_554
C3 W3 2.127802 1_555
C3 W5 2.127802 1_555
C3 W10 2.127802 1_555
