# generated using pymatgen
data_NaYbF4
_symmetry_space_group_name_H-M   'P 1'
_cell_length_a   6.32897641
_cell_length_b   6.32897641
_cell_length_c   6.32897641
_cell_angle_alpha   126.44716358
_cell_angle_beta   126.44716358
_cell_angle_gamma   79.15443180
_symmetry_Int_Tables_number   1
_chemical_formula_structural   NaYbF4
_chemical_formula_sum   'Na2 Yb2 F8'
_cell_volume   158.63260941
_cell_formula_units_Z   2
loop_
 _symmetry_equiv_pos_site_id
 _symmetry_equiv_pos_as_xyz
  1  'x, y, z'
loop_
 _atom_site_type_symbol
 _atom_site_label
 _atom_site_symmetry_multiplicity
 _atom_site_fract_x
 _atom_site_fract_y
 _atom_site_fract_z
 _atom_site_occupancy
  Na  Na0  1  0.50000000  0.50000000  0.00000000  1
  Na  Na1  1  0.25000000  0.75000000  0.50000000  1
  Yb  Yb0  1  0.00000000  0.00000000  0.00000000  1
  Yb  Yb1  1  0.75000000  0.25000000  0.50000000  1
  F  F0  1  0.37500000  0.36174300  0.48674300  1
  F  F1  1  0.87500000  0.88825700  0.51325700  1
  F  F2  1  0.11174300  0.12500000  0.48674300  1
  F  F3  1  0.63825700  0.12500000  0.01325700  1
  F  F4  1  0.87500000  0.36174300  0.98674300  1
  F  F5  1  0.63825700  0.62500000  0.51325700  1
  F  F6  1  0.11174300  0.62500000  0.98674300  1
  F  F7  1  0.37500000  0.88825700  0.01325700  1
loop_
_geom_bond_atom_site_label_1
_geom_bond_atom_site_label_2
_geom_bond_distance
_geom_bond_site_symmetry_2
F0 Yb1 2.311343 1_555
F0 Yb0 2.311343 1_555
F0 Na1 2.402792 1_555
F0 Na0 2.402792 1_556
F1 Yb1 2.311343 1_565
F1 Yb0 2.311343 1_666
F1 Na0 2.402792 1_555
F1 Na1 2.402792 1_655
F2 Yb0 2.311343 1_555
F2 Yb1 2.311343 1_455
F2 Na1 2.402792 1_545
F2 Na0 2.402792 1_556
F3 Yb1 2.311343 1_555
F3 Yb0 2.311343 1_655
F3 Na0 2.402792 1_555
F3 Na1 2.402792 1_544
F4 Yb0 2.311343 1_656
F4 Yb1 2.311343 1_555
F4 Na1 2.402792 1_656
F4 Na0 2.402792 1_556
F5 Yb0 2.311343 1_666
F5 Yb1 2.311343 1_555
F5 Na0 2.402792 1_555
F5 Na1 2.402792 1_555
F6 Yb0 2.311343 1_566
F6 Yb1 2.311343 1_455
F6 Na0 2.402792 1_556
F6 Na1 2.402792 1_556
F7 Yb0 2.311343 1_565
F7 Yb1 2.311343 1_565
F7 Na0 2.402792 1_555
F7 Na1 2.402792 1_554
