# generated using pymatgen
data_Hf2Nb3Ge4
_symmetry_space_group_name_H-M   'P 1'
_cell_length_a   6.80382826
_cell_length_b   6.94891919
_cell_length_c   13.21238047
_cell_angle_alpha   90.00000000
_cell_angle_beta   90.00000000
_cell_angle_gamma   90.00000000
_symmetry_Int_Tables_number   1
_chemical_formula_structural   Hf2Nb3Ge4
_chemical_formula_sum   'Hf8 Nb12 Ge16'
_cell_volume   624.67147582
_cell_formula_units_Z   4
loop_
 _symmetry_equiv_pos_site_id
 _symmetry_equiv_pos_as_xyz
  1  'x, y, z'
loop_
 _atom_site_type_symbol
 _atom_site_label
 _atom_site_symmetry_multiplicity
 _atom_site_fract_x
 _atom_site_fract_y
 _atom_site_fract_z
 _atom_site_occupancy
  Hf  Hf0  1  0.48804819  0.67547666  0.59097715  1
  Hf  Hf1  1  0.98804819  0.82452334  0.90902285  1
  Hf  Hf2  1  0.51195181  0.32452334  0.09097715  1
  Hf  Hf3  1  0.01195181  0.17547666  0.40902285  1
  Hf  Hf4  1  0.51195181  0.32452334  0.40902285  1
  Hf  Hf5  1  0.01195181  0.17547666  0.09097715  1
  Hf  Hf6  1  0.48804819  0.67547666  0.90902285  1
  Hf  Hf7  1  0.98804819  0.82452334  0.59097715  1
  Nb  Nb0  1  0.65839065  0.16608187  0.62405800  1
  Nb  Nb1  1  0.15839065  0.33391813  0.87594200  1
  Nb  Nb2  1  0.34160935  0.83391813  0.12405800  1
  Nb  Nb3  1  0.84160935  0.66608187  0.37594200  1
  Nb  Nb4  1  0.34160935  0.83391813  0.37594200  1
  Nb  Nb5  1  0.84160935  0.66608187  0.12405800  1
  Nb  Nb6  1  0.65839065  0.16608187  0.87594200  1
  Nb  Nb7  1  0.15839065  0.33391813  0.62405800  1
  Nb  Nb8  1  0.83457334  0.49355149  0.75000000  1
  Nb  Nb9  1  0.33457334  0.00644851  0.75000000  1
  Nb  Nb10  1  0.16542666  0.50644851  0.25000000  1
  Nb  Nb11  1  0.66542666  0.99355149  0.25000000  1
  Ge  Ge0  1  0.68416701  0.96159224  0.46007913  1
  Ge  Ge1  1  0.18416701  0.53840776  0.03992087  1
  Ge  Ge2  1  0.31583299  0.03840776  0.96007913  1
  Ge  Ge3  1  0.81583299  0.46159224  0.53992087  1
  Ge  Ge4  1  0.31583299  0.03840776  0.53992087  1
  Ge  Ge5  1  0.81583299  0.46159224  0.96007913  1
  Ge  Ge6  1  0.68416701  0.96159224  0.03992087  1
  Ge  Ge7  1  0.18416701  0.53840776  0.46007913  1
  Ge  Ge8  1  0.46026306  0.38893161  0.75000000  1
  Ge  Ge9  1  0.96026306  0.11106839  0.75000000  1
  Ge  Ge10  1  0.53973694  0.61106839  0.25000000  1
  Ge  Ge11  1  0.03973694  0.88893161  0.25000000  1
  Ge  Ge12  1  0.69300170  0.84915696  0.75000000  1
  Ge  Ge13  1  0.19300170  0.65084304  0.75000000  1
  Ge  Ge14  1  0.30699830  0.15084304  0.25000000  1
  Ge  Ge15  1  0.80699830  0.34915696  0.25000000  1
loop_
_geom_bond_atom_site_label_1
_geom_bond_atom_site_label_2
_geom_bond_distance
_geom_bond_site_symmetry_2
Ge0 Nb3 2.569053 1_555
Ge0 Nb0 2.596900 1_565
Ge0 Nb4 2.730397 1_555
Ge0 Hf3 2.763655 1_665
Ge0 Nb11 2.787434 1_555
Ge0 Hf7 2.858861 1_555
Ge0 Hf4 2.861532 1_565
Ge0 Hf0 2.953728 1_555
Ge1 Nb2 2.569053 1_555
Ge1 Nb1 2.596900 1_554
Ge1 Nb5 2.730397 1_455
Ge1 Hf2 2.763655 1_555
Ge1 Nb10 2.787434 1_555
Ge1 Hf6 2.858861 1_554
Ge1 Hf5 2.861532 1_555
Ge1 Hf1 2.953728 1_454
Ge2 Nb1 2.569053 1_555
Ge2 Nb2 2.596900 1_546
Ge2 Nb6 2.730397 1_555
Ge2 Hf1 2.763655 1_445
Ge2 Nb9 2.787434 1_555
Ge2 Hf5 2.858861 1_556
Ge2 Hf6 2.861532 1_545
Ge2 Hf2 2.953728 1_556
Ge3 Nb0 2.569053 1_555
Ge3 Nb3 2.596900 1_555
Ge3 Nb7 2.730397 1_655
Ge3 Hf0 2.763655 1_555
Ge3 Nb8 2.787434 1_555
Ge3 Hf4 2.858861 1_555
Ge3 Hf7 2.861532 1_555
Ge3 Hf3 2.953728 1_655
Ge4 Nb7 2.569053 1_555
Ge4 Nb4 2.596900 1_545
Ge4 Nb0 2.730397 1_555
Ge4 Hf7 2.763655 1_445
Ge4 Nb9 2.787434 1_555
Ge4 Hf3 2.858861 1_555
Ge4 Hf0 2.861532 1_545
Ge4 Hf4 2.953728 1_555
Ge5 Nb6 2.569053 1_555
Ge5 Nb5 2.596900 1_556
Ge5 Nb1 2.730397 1_655
Ge5 Hf6 2.763655 1_555
Ge5 Nb8 2.787434 1_555
Ge5 Hf2 2.858861 1_556
Ge5 Hf1 2.861532 1_555
Ge5 Hf5 2.953728 1_656
Ge6 Nb5 2.569053 1_555
Ge6 Nb6 2.596900 1_564
Ge6 Nb2 2.730397 1_555
Ge6 Hf5 2.763655 1_665
Ge6 Nb11 2.787434 1_555
Ge6 Hf1 2.858861 1_554
Ge6 Hf2 2.861532 1_565
Ge6 Hf6 2.953728 1_554
Ge7 Nb4 2.569053 1_555
Ge7 Nb7 2.596900 1_555
Ge7 Nb3 2.730397 1_455
Ge7 Hf4 2.763655 1_555
Ge7 Nb10 2.787434 1_555
Ge7 Hf0 2.858861 1_555
Ge7 Hf3 2.861532 1_555
Ge7 Hf7 2.953728 1_455
Ge8 Nb0 2.642745 1_555
Ge8 Nb6 2.642745 1_555
Ge8 Nb8 2.648475 1_555
Ge8 Nb7 2.670856 1_555
Ge8 Nb1 2.670856 1_555
Ge8 Nb9 2.792034 1_555
Ge8 Hf0 2.900866 1_555
Ge8 Hf6 2.900866 1_555
Ge9 Nb7 2.642745 1_655
Ge9 Nb1 2.642745 1_655
Ge9 Nb9 2.648475 1_655
Ge9 Nb6 2.670856 1_555
Ge9 Nb0 2.670856 1_555
Ge9 Nb8 2.792034 1_555
Ge9 Hf7 2.900866 1_545
Ge9 Hf1 2.900866 1_545
Ge10 Ge15 2.572739 1_555
Ge10 Nb4 2.642745 1_555
Ge10 Nb2 2.642745 1_555
Ge10 Nb10 2.648475 1_555
Ge10 Nb5 2.670856 1_555
Ge10 Nb3 2.670856 1_555
Ge10 Nb11 2.792034 1_555
Ge10 Hf2 2.900866 1_555
Ge10 Hf4 2.900866 1_555
Ge11 Ge14 2.572739 1_565
Ge11 Nb3 2.642745 1_455
Ge11 Nb5 2.642745 1_455
Ge11 Nb11 2.648475 1_455
Ge11 Nb2 2.670856 1_555
Ge11 Nb4 2.670856 1_555
Ge11 Nb10 2.792034 1_555
Ge11 Hf3 2.900866 1_565
Ge11 Hf5 2.900866 1_565
Ge12 Ge9 2.572739 1_565
Ge12 Nb8 2.652172 1_555
Ge12 Nb9 2.672423 1_565
Ge12 Nb6 2.770269 1_565
Ge12 Nb0 2.770269 1_565
Ge12 Hf6 2.795644 1_555
Ge12 Hf0 2.795644 1_555
Ge12 Hf1 2.910951 1_555
Ge12 Hf7 2.910951 1_555
Ge13 Ge8 2.572739 1_555
Ge13 Nb9 2.652172 1_565
Ge13 Nb8 2.672423 1_455
Ge13 Nb1 2.770269 1_555
Ge13 Nb7 2.770269 1_555
Ge13 Hf7 2.795644 1_455
Ge13 Hf1 2.795644 1_455
Ge13 Hf0 2.910951 1_555
Ge13 Hf6 2.910951 1_555
Ge14 Nb10 2.652172 1_555
Ge14 Nb11 2.672423 1_545
Ge14 Nb2 2.770269 1_545
Ge14 Nb4 2.770269 1_545
Ge14 Hf4 2.795644 1_555
Ge14 Hf2 2.795644 1_555
Ge14 Hf3 2.910951 1_555
Ge14 Hf5 2.910951 1_555
Ge15 Nb11 2.652172 1_545
Ge15 Nb10 2.672423 1_655
Ge15 Nb5 2.770269 1_555
Ge15 Nb3 2.770269 1_555
Ge15 Hf5 2.795644 1_655
Ge15 Hf3 2.795644 1_655
Ge15 Hf2 2.910951 1_555
Ge15 Hf4 2.910951 1_555
