# generated using pymatgen
data_Ce3B2(ClO2)3
_symmetry_space_group_name_H-M   'P 1'
_cell_length_a   9.22250422
_cell_length_b   9.22250422
_cell_length_c   5.85296500
_cell_angle_alpha   90.00000000
_cell_angle_beta   90.00000000
_cell_angle_gamma   120.00000155
_symmetry_Int_Tables_number   1
_chemical_formula_structural   Ce3B2(ClO2)3
_chemical_formula_sum   'Ce6 B4 Cl6 O12'
_cell_volume   431.12606170
_cell_formula_units_Z   2
loop_
 _symmetry_equiv_pos_site_id
 _symmetry_equiv_pos_as_xyz
  1  'x, y, z'
loop_
 _atom_site_type_symbol
 _atom_site_label
 _atom_site_symmetry_multiplicity
 _atom_site_fract_x
 _atom_site_fract_y
 _atom_site_fract_z
 _atom_site_occupancy
  Ce  Ce0  1  0.33657900  0.38641600  0.75000000  1
  Ce  Ce1  1  0.04983700  0.66342100  0.75000000  1
  Ce  Ce2  1  0.66342100  0.61358400  0.25000000  1
  Ce  Ce3  1  0.38641600  0.04983700  0.25000000  1
  Ce  Ce4  1  0.61358400  0.95016300  0.75000000  1
  Ce  Ce5  1  0.95016300  0.33657900  0.25000000  1
  B  B0  1  0.66666700  0.33333300  0.51339400  1
  B  B1  1  0.66666700  0.33333300  0.98660600  1
  B  B2  1  0.33333300  0.66666700  0.01339400  1
  B  B3  1  0.33333300  0.66666700  0.48660600  1
  Cl  Cl0  1  0.03689300  0.79778100  0.25000000  1
  Cl  Cl1  1  0.23911200  0.03689300  0.75000000  1
  Cl  Cl2  1  0.76088800  0.96310700  0.25000000  1
  Cl  Cl3  1  0.96310700  0.20221900  0.75000000  1
  Cl  Cl4  1  0.79778100  0.76088800  0.75000000  1
  Cl  Cl5  1  0.20221900  0.23911200  0.25000000  1
  O  O0  1  0.17083700  0.53654900  0.50085900  1
  O  O1  1  0.82916300  0.46345100  0.00085900  1
  O  O2  1  0.36571200  0.82916300  0.50085900  1
  O  O3  1  0.53654900  0.36571200  0.00085900  1
  O  O4  1  0.63428800  0.17083700  0.00085900  1
  O  O5  1  0.46345100  0.63428800  0.99914100  1
  O  O6  1  0.46345100  0.63428800  0.50085900  1
  O  O7  1  0.53654900  0.36571200  0.49914100  1
  O  O8  1  0.36571200  0.82916300  0.99914100  1
  O  O9  1  0.63428800  0.17083700  0.49914100  1
  O  O10  1  0.17083700  0.53654900  0.99914100  1
  O  O11  1  0.82916300  0.46345100  0.49914100  1
loop_
_geom_bond_atom_site_label_1
_geom_bond_atom_site_label_2
_geom_bond_distance
_geom_bond_site_symmetry_2
Ce0 O3 2.438355 1_556
Ce0 O7 2.438355 1_555
Ce0 O5 2.458957 1_555
Ce0 O6 2.458957 1_555
Ce0 Cl1 2.881190 1_555
Ce0 O0 2.914865 1_555
Ce0 O10 2.914865 1_555
Ce0 Cl3 2.982984 1_455
Ce0 Cl5 3.203425 1_556
Ce0 Cl5 3.203425 1_555
Ce1 O1 2.438355 1_456
Ce1 O11 2.438355 1_455
Ce1 O10 2.458957 1_555
Ce1 O0 2.458957 1_555
Ce1 Cl4 2.881190 1_455
Ce1 O2 2.914865 1_555
Ce1 O8 2.914865 1_555
Ce1 Cl1 2.982984 1_565
Ce1 Cl0 3.203425 1_555
Ce1 Cl0 3.203425 1_556
Ce2 O5 2.438355 1_554
Ce2 O6 2.438355 1_555
Ce2 O7 2.458957 1_555
Ce2 O3 2.458957 1_555
Ce2 Cl2 2.881190 1_555
Ce2 O1 2.914865 1_555
Ce2 O11 2.914865 1_555
Ce2 Cl0 2.982984 1_655
Ce2 Cl4 3.203425 1_554
Ce2 Cl4 3.203425 1_555
Ce3 O8 2.438355 1_544
Ce3 O2 2.438355 1_545
Ce3 O4 2.458957 1_555
Ce3 O9 2.458957 1_555
Ce3 Cl0 2.881190 1_545
Ce3 O7 2.914865 1_555
Ce3 O3 2.914865 1_555
Ce3 Cl5 2.982984 1_555
Ce3 Cl1 3.203425 1_554
Ce3 Cl1 3.203425 1_555
Ce4 O4 2.438355 1_566
Ce4 O9 2.438355 1_565
Ce4 O2 2.458957 1_555
Ce4 O8 2.458957 1_555
Ce4 Cl3 2.881190 1_565
Ce4 O6 2.914865 1_555
Ce4 O5 2.914865 1_555
Ce4 Cl4 2.982984 1_555
Ce4 Cl2 3.203425 1_556
Ce4 Cl2 3.203425 1_555
Ce5 O0 2.438355 1_655
Ce5 O10 2.438355 1_654
Ce5 O1 2.458957 1_555
Ce5 O11 2.458957 1_555
Ce5 Cl5 2.881190 1_655
Ce5 O4 2.914865 1_555
Ce5 O9 2.914865 1_555
Ce5 Cl2 2.982984 1_545
Ce5 Cl3 3.203425 1_555
Ce5 Cl3 3.203425 1_554
B0 O9 1.376402 1_555
B0 O11 1.376405 1_555
B0 O7 1.376411 1_555
B1 O4 1.376402 1_556
B1 O1 1.376405 1_556
B1 O3 1.376411 1_556
B2 O8 1.376402 1_554
B2 O10 1.376405 1_554
B2 O5 1.376411 1_554
B3 O2 1.376402 1_555
B3 O0 1.376405 1_555
B3 O6 1.376411 1_555
