# generated using pymatgen
data_La2EuS4
_symmetry_space_group_name_H-M   'P 1'
_cell_length_a   7.56062313
_cell_length_b   7.56062313
_cell_length_c   7.56062313
_cell_angle_alpha   109.35594430
_cell_angle_beta   109.35594430
_cell_angle_gamma   109.70202011
_symmetry_Int_Tables_number   1
_chemical_formula_structural   La2EuS4
_chemical_formula_sum   'La4 Eu2 S8'
_cell_volume   332.69447793
_cell_formula_units_Z   2
loop_
 _symmetry_equiv_pos_site_id
 _symmetry_equiv_pos_as_xyz
  1  'x, y, z'
loop_
 _atom_site_type_symbol
 _atom_site_label
 _atom_site_symmetry_multiplicity
 _atom_site_fract_x
 _atom_site_fract_y
 _atom_site_fract_z
 _atom_site_occupancy
  La  La0  1  0.62500000  0.24630405  0.12130405  1
  La  La1  1  0.49630405  0.37500000  0.62130405  1
  La  La2  1  0.12500000  0.50369595  0.87869595  1
  La  La3  1  0.75369595  0.87500000  0.37869595  1
  Eu  Eu0  1  0.25000000  0.75000000  0.50000000  1
  Eu  Eu1  1  0.00000000  -0.00000000  -0.00000000  1
  S  S0  1  0.72927649  0.12628984  0.75032307  1
  S  S1  1  0.22895342  0.12596677  0.74967693  1
  S  S2  1  0.02104658  0.27072351  0.39701335  1
  S  S3  1  0.37628984  0.47927649  0.25032307  1
  S  S4  1  0.87403323  0.62371016  0.10298665  1
  S  S5  1  0.52072351  0.77104658  0.89701335  1
  S  S6  1  0.87371016  0.62403323  0.60298665  1
  S  S7  1  0.37596677  0.97895342  0.24967693  1
loop_
_geom_bond_atom_site_label_1
_geom_bond_atom_site_label_2
_geom_bond_distance
_geom_bond_site_symmetry_2
La0 S4 2.918671 1_555
La0 S7 2.918671 1_545
La0 S2 2.929189 1_655
La0 S1 2.929189 1_554
La0 S5 3.094059 1_544
La0 S0 3.094059 1_554
La0 S6 3.146464 1_555
La0 S3 3.146464 1_555
La1 S1 2.918671 1_555
La1 S6 2.918671 1_555
La1 S7 2.929189 1_545
La1 S5 2.929189 1_555
La1 S3 3.094059 1_555
La1 S2 3.094059 1_555
La1 S0 3.146464 1_555
La1 S4 3.146464 1_556
La2 S5 2.918671 1_555
La2 S0 2.918671 1_455
La2 S3 2.929189 1_556
La2 S6 2.929189 1_455
La2 S7 3.094059 1_556
La2 S4 3.094059 1_456
La2 S1 3.146464 1_555
La2 S2 3.146464 1_555
La3 S2 2.918671 1_665
La3 S3 2.918671 1_555
La3 S0 2.929189 1_565
La3 S4 2.929189 1_555
La3 S6 3.094059 1_555
La3 S1 3.094059 1_665
La3 S7 3.146464 1_555
La3 S5 3.146464 1_554
Eu0 S4 2.935306 1_455
Eu0 S5 2.935306 1_555
Eu0 S1 2.935306 1_565
Eu0 S3 2.935306 1_555
Eu0 S6 3.120950 1_455
Eu0 S7 3.120950 1_555
Eu0 S2 3.120950 1_555
Eu0 S0 3.120950 1_565
Eu1 S0 2.935306 1_454
Eu1 S2 2.935306 1_555
Eu1 S7 2.935306 1_545
Eu1 S6 2.935306 1_444
Eu1 S4 3.120950 1_445
Eu1 S1 3.120950 1_554
Eu1 S3 3.120950 1_555
Eu1 S5 3.120950 1_444
