# generated using pymatgen
data_BaH4(ClO)2
_symmetry_space_group_name_H-M   'P 1'
_cell_length_a   11.05456500
_cell_length_b   6.81902400
_cell_length_c   9.80828426
_cell_angle_alpha   47.07981183
_cell_angle_beta   90.00000000
_cell_angle_gamma   90.00000000
_symmetry_Int_Tables_number   1
_chemical_formula_structural   BaH4(ClO)2
_chemical_formula_sum   'Ba4 H16 Cl8 O8'
_cell_volume   541.43675546
_cell_formula_units_Z   4
loop_
 _symmetry_equiv_pos_site_id
 _symmetry_equiv_pos_as_xyz
  1  'x, y, z'
loop_
 _atom_site_type_symbol
 _atom_site_label
 _atom_site_symmetry_multiplicity
 _atom_site_fract_x
 _atom_site_fract_y
 _atom_site_fract_z
 _atom_site_occupancy
  Ba  Ba0  1  0.78339500  0.10548900  0.85390300  1
  Ba  Ba1  1  0.71660500  0.10548900  0.35390300  1
  Ba  Ba2  1  0.21660500  0.89451100  0.14609700  1
  Ba  Ba3  1  0.28339500  0.89451100  0.64609700  1
  H  H0  1  0.56092200  0.52805100  0.61839000  1
  H  H1  1  0.93907800  0.52805100  0.11839000  1
  H  H2  1  0.43907800  0.47194900  0.38161000  1
  H  H3  1  0.06092200  0.47194900  0.88161000  1
  H  H4  1  0.62526800  0.56640700  0.45707800  1
  H  H5  1  0.87473200  0.56640700  0.95707800  1
  H  H6  1  0.37473200  0.43359300  0.54292200  1
  H  H7  1  0.12526800  0.43359300  0.04292200  1
  H  H8  1  0.63752700  0.50421200  0.90049100  1
  H  H9  1  0.86247300  0.50421200  0.40049100  1
  H  H10  1  0.36247300  0.49578800  0.09950900  1
  H  H11  1  0.13752700  0.49578800  0.59950900  1
  H  H12  1  0.56418200  0.23957000  0.01174300  1
  H  H13  1  0.93581800  0.23957000  0.51174300  1
  H  H14  1  0.43581800  0.76043000  0.98825700  1
  H  H15  1  0.06418200  0.76043000  0.48825700  1
  Cl  Cl0  1  0.58144300  0.92746000  0.70812800  1
  Cl  Cl1  1  0.91855700  0.92746000  0.20812800  1
  Cl  Cl2  1  0.41855700  0.07254000  0.29187200  1
  Cl  Cl3  1  0.08144300  0.07254000  0.79187200  1
  Cl  Cl4  1  0.60328300  0.65775500  0.20084000  1
  Cl  Cl5  1  0.89671700  0.65775500  0.70084000  1
  Cl  Cl6  1  0.39671700  0.34224500  0.79916000  1
  Cl  Cl7  1  0.10328300  0.34224500  0.29916000  1
  O  O0  1  0.64017500  0.56353700  0.55858400  1
  O  O1  1  0.85982500  0.56353700  0.05858400  1
  O  O2  1  0.35982500  0.43646300  0.44141600  1
  O  O3  1  0.14017500  0.43646300  0.94141600  1
  O  O4  1  0.64697800  0.30649500  0.99310400  1
  O  O5  1  0.85302200  0.30649500  0.49310400  1
  O  O6  1  0.35302200  0.69350500  0.00689600  1
  O  O7  1  0.14697800  0.69350500  0.50689600  1
loop_
_geom_bond_atom_site_label_1
_geom_bond_atom_site_label_2
_geom_bond_distance
_geom_bond_site_symmetry_2
Ba0 O1 2.880447 1_546
Ba0 O0 2.886285 1_555
Ba0 O5 2.896234 1_555
Ba0 O4 2.926731 1_555
Ba0 Cl1 3.167466 1_546
Ba0 Cl5 3.210168 1_555
Ba0 Cl4 3.273446 1_546
Ba0 Cl0 3.296383 1_545
Ba0 Cl3 3.385628 1_655
Ba1 O0 2.880447 1_545
Ba1 O1 2.886285 1_555
Ba1 O4 2.896234 1_554
Ba1 O5 2.926731 1_555
Ba1 Cl0 3.167466 1_545
Ba1 Cl4 3.210168 1_555
Ba1 Cl5 3.273446 1_545
Ba1 Cl1 3.296383 1_545
Ba1 Cl2 3.385628 1_555
Ba2 O3 2.880447 1_564
Ba2 O2 2.886285 1_555
Ba2 O7 2.896234 1_555
Ba2 O6 2.926731 1_555
Ba2 Cl3 3.167466 1_564
Ba2 Cl7 3.210168 1_555
Ba2 Cl6 3.273446 1_564
Ba2 Cl2 3.296383 1_565
Ba2 Cl1 3.385628 1_455
Ba3 O2 2.880447 1_565
Ba3 O3 2.886285 1_555
Ba3 O6 2.896234 1_556
Ba3 O7 2.926731 1_555
Ba3 Cl2 3.167466 1_565
Ba3 Cl6 3.210168 1_555
Ba3 Cl7 3.273446 1_565
Ba3 Cl3 3.296383 1_565
Ba3 Cl0 3.385628 1_555
H0 O0 0.988377 1_555
H1 O1 0.988377 1_555
H2 O2 0.988377 1_555
H3 O3 0.988377 1_555
H4 O0 0.996103 1_555
H5 O1 0.996103 1_556
H6 O2 0.996103 1_555
H7 O3 0.996103 1_554
H8 O4 0.992878 1_555
H9 O5 0.992878 1_555
H10 O6 0.992878 1_555
H11 O7 0.992878 1_555
H12 O4 0.982744 1_554
H13 O5 0.982744 1_555
H14 O6 0.982744 1_556
H15 O7 0.982744 1_555
