# generated using pymatgen
data_Np(FeGe)2
_symmetry_space_group_name_H-M   'P 1'
_cell_length_a   5.59173435
_cell_length_b   5.59173435
_cell_length_c   5.59173435
_cell_angle_alpha   138.03692751
_cell_angle_beta   138.03692751
_cell_angle_gamma   60.84644709
_symmetry_Int_Tables_number   1
_chemical_formula_structural   Np(FeGe)2
_chemical_formula_sum   'Np1 Fe2 Ge2'
_cell_volume   77.31985645
_cell_formula_units_Z   1
loop_
 _symmetry_equiv_pos_site_id
 _symmetry_equiv_pos_as_xyz
  1  'x, y, z'
loop_
 _atom_site_type_symbol
 _atom_site_label
 _atom_site_symmetry_multiplicity
 _atom_site_fract_x
 _atom_site_fract_y
 _atom_site_fract_z
 _atom_site_occupancy
  Np  Np0  1  0.00000000  0.00000000  0.00000000  1
  Fe  Fe0  1  0.25000000  0.75000000  0.50000000  1
  Fe  Fe1  1  0.75000000  0.25000000  0.50000000  1
  Ge  Ge0  1  0.37076300  0.37076300  0.00000000  1
  Ge  Ge1  1  0.62923700  0.62923700  0.00000000  1
loop_
_geom_bond_atom_site_label_1
_geom_bond_atom_site_label_2
_geom_bond_distance
_geom_bond_site_symmetry_2
Fe0 Ge1 2.316277 1_556
Fe0 Ge0 2.316277 1_566
Fe0 Ge1 2.316277 1_455
Fe0 Ge0 2.316277 1_555
Fe0 Np0 3.133897 1_565
Fe0 Np0 3.133897 1_555
Fe0 Np0 3.133897 1_566
Fe0 Np0 3.133897 1_666
Fe1 Ge1 2.316277 1_545
Fe1 Ge0 2.316277 1_656
Fe1 Ge1 2.316277 1_556
Fe1 Ge0 2.316277 1_555
Fe1 Np0 3.133897 1_655
Fe1 Np0 3.133897 1_555
Fe1 Np0 3.133897 1_656
Fe1 Np0 3.133897 1_666
Ge0 Ge1 2.492620 1_555
Ge0 Np0 3.093708 1_666
Ge0 Np0 3.093708 1_565
Ge0 Np0 3.093708 1_655
Ge0 Np0 3.093708 1_554
Ge1 Np0 3.093708 1_666
Ge1 Np0 3.093708 1_565
Ge1 Np0 3.093708 1_655
Ge1 Np0 3.093708 1_554
