# generated using pymatgen
data_Rb2FeC5N6O
_symmetry_space_group_name_H-M   'P 1'
_cell_length_a   5.64784600
_cell_length_b   12.54747900
_cell_length_c   15.98057800
_cell_angle_alpha   90.00000000
_cell_angle_beta   90.00000000
_cell_angle_gamma   90.00000000
_symmetry_Int_Tables_number   1
_chemical_formula_structural   Rb2FeC5N6O
_chemical_formula_sum   'Rb8 Fe4 C20 N24 O4'
_cell_volume   1132.48330138
_cell_formula_units_Z   4
loop_
 _symmetry_equiv_pos_site_id
 _symmetry_equiv_pos_as_xyz
  1  'x, y, z'
loop_
 _atom_site_type_symbol
 _atom_site_label
 _atom_site_symmetry_multiplicity
 _atom_site_fract_x
 _atom_site_fract_y
 _atom_site_fract_z
 _atom_site_occupancy
  Rb  Rb0  1  0.97872800  0.68330900  0.89242300  1
  Rb  Rb1  1  0.47872800  0.81669100  0.10757700  1
  Rb  Rb2  1  0.02127200  0.18330900  0.60757700  1
  Rb  Rb3  1  0.52127200  0.31669100  0.39242300  1
  Rb  Rb4  1  0.02841400  0.13173200  0.14679000  1
  Rb  Rb5  1  0.52841400  0.36826800  0.85321000  1
  Rb  Rb6  1  0.47158600  0.86826800  0.64679000  1
  Rb  Rb7  1  0.97158600  0.63173200  0.35321000  1
  Fe  Fe0  1  0.23145300  0.53054900  0.62022800  1
  Fe  Fe1  1  0.26854700  0.46945100  0.12022800  1
  Fe  Fe2  1  0.73145300  0.96945100  0.37977200  1
  Fe  Fe3  1  0.76854700  0.03054900  0.87977200  1
  C  C0  1  0.57417100  0.04519800  0.46799700  1
  C  C1  1  0.43577400  0.58613800  0.70652400  1
  C  C2  1  0.08483100  0.44332800  0.70433900  1
  C  C3  1  0.06422600  0.41386200  0.20652400  1
  C  C4  1  0.94609900  0.08819400  0.38600200  1
  C  C5  1  0.92582900  0.95480200  0.96799700  1
  C  C6  1  0.06836000  0.40086800  0.03853300  1
  C  C7  1  0.42582900  0.54519800  0.03200300  1
  C  C8  1  0.43164000  0.59913200  0.53853300  1
  C  C9  1  0.05390100  0.58819400  0.11399800  1
  C  C10  1  0.56422600  0.08613800  0.79347600  1
  C  C11  1  0.58483100  0.05667200  0.29566100  1
  C  C12  1  0.44609900  0.41180600  0.61399800  1
  C  C13  1  0.93164000  0.90086800  0.46146700  1
  C  C14  1  0.93577400  0.91386200  0.29347600  1
  C  C15  1  0.55390100  0.91180600  0.88600200  1
  C  C16  1  0.91516900  0.94332800  0.79566100  1
  C  C17  1  0.56836000  0.09913200  0.96146700  1
  C  C18  1  0.07417100  0.45480200  0.53200300  1
  C  C19  1  0.41516900  0.55667200  0.20433900  1
  N  N0  1  0.46096900  0.37010500  0.12512700  1
  N  N1  1  0.53903100  0.87010500  0.37487300  1
  N  N2  1  0.93050100  0.66317100  0.11000100  1
  N  N3  1  0.96096900  0.12989500  0.87487300  1
  N  N4  1  0.51660500  0.59155400  0.97696900  1
  N  N5  1  0.01660500  0.90844600  0.02303100  1
  N  N6  1  0.94743000  0.35489300  0.99093800  1
  N  N7  1  0.55569600  0.62211600  0.75942900  1
  N  N8  1  0.49475900  0.61165000  0.25671400  1
  N  N9  1  0.43050100  0.83682900  0.88999900  1
  N  N10  1  0.98339500  0.40844600  0.47696900  1
  N  N11  1  0.94430400  0.37788400  0.25942900  1
  N  N12  1  0.44430400  0.12211600  0.74057100  1
  N  N13  1  0.99475900  0.88835000  0.74328600  1
  N  N14  1  0.44743000  0.14510700  0.00906200  1
  N  N15  1  0.05257000  0.85489300  0.50906200  1
  N  N16  1  0.56949900  0.33682900  0.61000100  1
  N  N17  1  0.05569600  0.87788400  0.24057100  1
  N  N18  1  0.06949900  0.16317100  0.38999900  1
  N  N19  1  0.50524100  0.11165000  0.24328600  1
  N  N20  1  0.48339500  0.09155400  0.52303100  1
  N  N21  1  0.55257000  0.64510700  0.49093800  1
  N  N22  1  0.03903100  0.62989500  0.62512700  1
  N  N23  1  0.00524100  0.38835000  0.75671400  1
  O  O0  1  0.40866900  0.79971900  0.37066300  1
  O  O1  1  0.09133100  0.20028100  0.87066300  1
  O  O2  1  0.59133100  0.29971900  0.12933700  1
  O  O3  1  0.90866900  0.70028100  0.62933700  1
loop_
_geom_bond_atom_site_label_1
_geom_bond_atom_site_label_2
_geom_bond_distance
_geom_bond_site_symmetry_2
Fe0 N22 1.655616 1_555
Fe1 N0 1.655616 1_555
Fe2 N1 1.655616 1_555
Fe3 N3 1.655616 1_555
C0 N20 1.172452 1_555
C0 Fe2 1.918382 1_545
C1 N7 1.173592 1_555
C1 Fe0 1.928722 1_555
C2 N23 1.174084 1_555
C2 Fe0 1.920985 1_555
C3 N11 1.173592 1_455
C3 Fe1 1.928722 1_555
C4 N18 1.172546 1_655
C4 Fe2 1.923390 1_545
C5 N5 1.172452 1_656
C5 Fe3 1.918382 1_565
C6 N6 1.173783 1_454
C6 Fe1 1.929577 1_555
C7 N4 1.172452 1_554
C7 Fe1 1.918382 1_555
C8 N21 1.173783 1_555
C8 Fe0 1.929577 1_555
C9 N2 1.172546 1_455
C9 Fe1 1.923390 1_555
C10 N12 1.173592 1_555
C10 Fe3 1.928722 1_555
C11 N19 1.174084 1_555
C11 Fe2 1.920985 1_545
C12 N16 1.172546 1_555
C12 Fe0 1.923390 1_555
C13 N15 1.173783 1_655
C13 Fe2 1.929577 1_555
C14 N17 1.173592 1_655
C14 Fe2 1.928722 1_555
C15 N9 1.172546 1_555
C15 Fe3 1.923390 1_565
C16 N13 1.174084 1_555
C16 Fe3 1.920985 1_565
C17 N14 1.173783 1_556
C17 Fe3 1.929577 1_555
C18 N10 1.172452 1_455
C18 Fe0 1.918382 1_555
C19 N8 1.174084 1_555
C19 Fe1 1.920985 1_555
N0 O2 1.151779 1_555
N1 O0 1.151779 1_555
N2 Rb1 3.197259 1_555
N3 O1 1.151779 1_655
N4 Rb0 3.156427 1_555
N4 Rb5 3.430058 1_555
N5 Rb1 3.156427 1_555
N5 Rb4 3.430058 1_565
N6 Rb5 3.236193 1_555
N7 Rb0 3.288602 1_555
N8 Rb7 3.113510 1_555
N8 Rb7 3.342498 1_455
N9 Rb0 3.197259 1_455
N10 Rb3 3.156427 1_555
N10 Rb7 3.430058 1_555
N11 Rb3 3.288602 1_555
N12 Rb2 3.288602 1_555
N13 Rb6 3.113510 1_655
N13 Rb6 3.342498 1_555
N14 Rb4 3.236193 1_555
N15 Rb6 3.236193 1_555
N16 Rb2 3.197259 1_655
N17 Rb1 3.288602 1_555
N18 Rb3 3.197259 1_555
N19 Rb4 3.113510 1_555
N19 Rb4 3.342498 1_655
N20 Rb2 3.156427 1_555
N20 Rb6 3.430058 1_545
N21 Rb7 3.236193 1_555
N22 O3 1.151779 1_455
N23 Rb5 3.113510 1_455
N23 Rb5 3.342498 1_555
O0 Rb7 3.257997 1_455
O1 Rb5 3.257997 1_555
O2 Rb4 3.257997 1_655
O3 Rb6 3.257997 1_555
