# generated using pymatgen
data_NaPr9Si6(SO12)2
_symmetry_space_group_name_H-M   'P 1'
_cell_length_a   6.96104100
_cell_length_b   9.96180000
_cell_length_c   19.92708783
_cell_angle_alpha   60.00750944
_cell_angle_beta   90.00000000
_cell_angle_gamma   90.00000000
_symmetry_Int_Tables_number   1
_chemical_formula_structural   NaPr9Si6(SO12)2
_chemical_formula_sum   'Na2 Pr18 Si12 S4 O48'
_cell_volume   1196.79381133
_cell_formula_units_Z   2
loop_
 _symmetry_equiv_pos_site_id
 _symmetry_equiv_pos_as_xyz
  1  'x, y, z'
loop_
 _atom_site_type_symbol
 _atom_site_label
 _atom_site_symmetry_multiplicity
 _atom_site_fract_x
 _atom_site_fract_y
 _atom_site_fract_z
 _atom_site_occupancy
  Na  Na0  1  0.25604000  0.66637500  0.33348000  1
  Na  Na1  1  0.74396000  0.66637500  0.83348000  1
  Pr  Pr0  1  0.49298000  0.75106200  0.12417500  1
  Pr  Pr1  1  0.24645000  0.33499000  0.16680400  1
  Pr  Pr2  1  0.74946200  0.33212400  0.16638700  1
  Pr  Pr3  1  0.49687700  0.00103400  0.37563700  1
  Pr  Pr4  1  0.50702000  0.75106200  0.62417500  1
  Pr  Pr5  1  0.00169000  0.76093300  0.49378500  1
  Pr  Pr6  1  0.50346500  0.24755800  0.00056000  1
  Pr  Pr7  1  0.99990800  0.98788500  0.12586200  1
  Pr  Pr8  1  0.74484900  0.66697400  0.33321900  1
  Pr  Pr9  1  0.25053800  0.33212400  0.66638700  1
  Pr  Pr10  1  0.75355000  0.33499000  0.66680400  1
  Pr  Pr11  1  0.50312300  0.00103400  0.87563700  1
  Pr  Pr12  1  0.99831000  0.76093300  0.99378500  1
  Pr  Pr13  1  0.49653500  0.24755800  0.50056000  1
  Pr  Pr14  1  0.00440000  0.25201500  0.38029300  1
  Pr  Pr15  1  0.00009200  0.98788500  0.62586200  1
  Pr  Pr16  1  0.25515100  0.66697400  0.83321900  1
  Pr  Pr17  1  0.99560000  0.25201500  0.88029300  1
  Si  Si0  1  0.50401200  0.37490000  0.29698700  1
  Si  Si1  1  0.49841200  0.59392400  0.01551500  1
  Si  Si2  1  0.99754500  0.96799100  0.30814000  1
  Si  Si3  1  0.50055900  0.03087500  0.18753600  1
  Si  Si4  1  0.49598800  0.37490000  0.79698700  1
  Si  Si5  1  0.50158800  0.59392400  0.51551500  1
  Si  Si6  1  0.99662100  0.41582900  0.48382200  1
  Si  Si7  1  0.99504000  0.61650800  0.20788500  1
  Si  Si8  1  0.00245500  0.96799100  0.80814000  1
  Si  Si9  1  0.49944100  0.03087500  0.68753600  1
  Si  Si10  1  0.00337900  0.41582900  0.98382200  1
  Si  Si11  1  0.00496000  0.61650800  0.70788500  1
  S  S0  1  0.25759300  0.99338300  0.50445100  1
  S  S1  1  0.24926400  0.00610500  0.99582500  1
  S  S2  1  0.74240700  0.99338300  0.00445100  1
  S  S3  1  0.75073600  0.00610500  0.49582500  1
  O  O0  1  0.30904500  0.63770400  0.05154500  1
  O  O1  1  0.68943600  0.63660500  0.05085200  1
  O  O2  1  0.99483500  0.49456900  0.17508000  1
  O  O3  1  0.49619700  0.47229000  0.20038600  1
  O  O4  1  0.69410600  0.26119500  0.31607100  1
  O  O5  1  0.31420700  0.25916900  0.32143800  1
  O  O6  1  0.49764800  0.40053100  0.06345500  1
  O  O7  1  0.99801200  0.15543400  0.24697600  1
  O  O8  1  0.00529800  0.34986300  0.07761500  1
  O  O9  1  0.49162500  0.12686300  0.23614400  1
  O  O10  1  0.80358900  0.90445900  0.36326800  1
  O  O11  1  0.17379800  0.92291100  0.37043000  1
  O  O12  1  0.31370300  0.09805700  0.12823800  1
  O  O13  1  0.69324200  0.10578600  0.13198300  1
  O  O14  1  0.31056400  0.63660500  0.55085200  1
  O  O15  1  0.69095500  0.63770400  0.55154500  1
  O  O16  1  0.00516500  0.49456900  0.67508000  1
  O  O17  1  0.50380300  0.47229000  0.70038600  1
  O  O18  1  0.00243400  0.87054900  0.26194600  1
  O  O19  1  0.50551500  0.67630800  0.42214500  1
  O  O20  1  0.50534700  0.84418700  0.23988800  1
  O  O21  1  0.68579300  0.25916900  0.82143800  1
  O  O22  1  0.30589400  0.26119500  0.81607100  1
  O  O23  1  0.00033200  0.60565900  0.43536900  1
  O  O24  1  0.50235200  0.40053100  0.56345500  1
  O  O25  1  0.17140000  0.74108000  0.16814600  1
  O  O26  1  0.80126400  0.72659300  0.18495000  1
  O  O27  1  0.00198800  0.15543400  0.74697600  1
  O  O28  1  0.99470200  0.34986300  0.57761500  1
  O  O29  1  0.50837500  0.12686300  0.73614400  1
  O  O30  1  0.00203700  0.52397200  0.30274200  1
  O  O31  1  0.50794100  0.47959600  0.33797500  1
  O  O32  1  0.80452300  0.36774000  0.45178700  1
  O  O33  1  0.17522300  0.33840900  0.46121300  1
  O  O34  1  0.82620200  0.92291100  0.87043000  1
  O  O35  1  0.19641100  0.90445900  0.86326800  1
  O  O36  1  0.68629700  0.09805700  0.62823800  1
  O  O37  1  0.30675800  0.10578600  0.63198300  1
  O  O38  1  0.99756600  0.87054900  0.76194600  1
  O  O39  1  0.49448500  0.67630800  0.92214500  1
  O  O40  1  0.49465300  0.84418700  0.73988800  1
  O  O41  1  0.99966800  0.60565900  0.93536900  1
  O  O42  1  0.19873600  0.72659300  0.68495000  1
  O  O43  1  0.82860000  0.74108000  0.66814600  1
  O  O44  1  0.99796300  0.52397200  0.80274200  1
  O  O45  1  0.49205900  0.47959600  0.83797500  1
  O  O46  1  0.19547700  0.36774000  0.95178700  1
  O  O47  1  0.82477700  0.33840900  0.96121300  1
loop_
_geom_bond_atom_site_label_1
_geom_bond_atom_site_label_2
_geom_bond_distance
_geom_bond_site_symmetry_2
Na0 O19 2.514376 1_555
Na0 O20 2.514920 1_555
Na0 O31 2.525505 1_555
Na0 O30 2.526373 1_555
Na0 O18 2.527195 1_555
Na0 O23 2.535503 1_555
Na1 O39 2.514376 1_555
Na1 O40 2.514920 1_555
Na1 O45 2.525505 1_555
Na1 O44 2.526373 1_555
Na1 O38 2.527195 1_555
Na1 O41 2.535503 1_555
Pr0 S2 2.962403 1_555
Pr0 S1 3.062368 1_564
Pr3 S3 2.997039 1_555
Pr3 S0 3.028790 1_545
Pr4 S0 2.962403 1_555
Pr4 S3 3.062368 1_565
Pr5 S0 3.012066 1_555
Pr5 S3 3.019549 1_465
Pr6 S2 2.997912 1_545
Pr6 S1 3.025301 1_554
Pr7 S2 2.989453 1_555
Pr7 S1 3.047995 1_664
Pr11 S1 2.997039 1_555
Pr11 S2 3.028790 1_546
Pr12 S2 3.012066 1_556
Pr12 S1 3.019549 1_665
Pr13 S0 2.997912 1_545
Pr13 S3 3.025301 1_555
Pr14 S3 2.963227 1_455
Pr14 S0 3.081018 1_545
Pr15 S0 2.989453 1_555
Pr15 S3 3.047995 1_465
Pr17 S1 2.963227 1_655
Pr17 S2 3.081018 1_546
O0 Si1 1.660234 1_555
O0 Pr12 2.469384 1_454
O0 Pr0 2.577453 1_555
O0 Pr1 2.763007 1_555
O1 Si1 1.656539 1_555
O1 Pr12 2.458025 1_554
O1 Pr0 2.640198 1_555
O1 Pr2 2.773736 1_555
O2 Si7 1.642197 1_555
O2 Pr2 2.417937 1_555
O2 Pr1 2.425735 1_655
O2 Pr12 3.241756 1_554
O3 Si0 1.668111 1_555
O3 Pr0 2.408835 1_555
O3 Pr1 2.501206 1_555
O3 Pr2 2.542162 1_555
O4 Si0 1.657704 1_555
O4 Pr14 2.488896 1_655
O4 Pr3 2.633444 1_555
O4 Pr2 2.727187 1_555
O5 Si0 1.658501 1_555
O5 Pr14 2.438817 1_555
O5 Pr3 2.572793 1_555
O5 Pr1 2.821546 1_555
O6 Si1 1.668587 1_555
O6 Pr6 2.409178 1_555
O6 Pr2 2.519268 1_555
O6 Pr1 2.526040 1_555
O7 Si2 1.642218 1_545
O7 Pr2 2.417549 1_555
O7 Pr1 2.426019 1_655
O7 Pr14 3.246643 1_655
O8 Si10 1.642353 1_554
O8 Pr1 2.394855 1_555
O8 Pr2 2.453466 1_455
O8 Pr7 3.234591 1_445
O9 Si3 1.668059 1_555
O9 Pr3 2.411582 1_555
O9 Pr1 2.501291 1_555
O9 Pr2 2.548135 1_555
O10 Si2 1.653817 1_555
O10 Pr3 2.404529 1_565
O10 Pr5 2.644315 1_655
O10 Pr8 2.745711 1_555
O11 Si2 1.640242 1_455
O11 Pr3 2.398961 1_565
O11 Pr5 2.473016 1_555
O12 Si3 1.656920 1_555
O12 Pr7 2.455619 1_445
O12 Pr6 2.578336 1_555
O12 Pr1 2.862546 1_555
O13 Si3 1.659957 1_555
O13 Pr7 2.468719 1_545
O13 Pr6 2.626875 1_555
O13 Pr2 2.693031 1_555
O14 Si5 1.656539 1_555
O14 Pr5 2.458025 1_555
O14 Pr4 2.640198 1_555
O14 Pr9 2.773736 1_555
O15 Si5 1.660234 1_555
O15 Pr5 2.469384 1_655
O15 Pr4 2.577453 1_555
O15 Pr10 2.763007 1_555
O16 Si11 1.642197 1_555
O16 Pr9 2.417937 1_555
O16 Pr10 2.425735 1_455
O16 Pr5 3.241756 1_555
O17 Si4 1.668111 1_555
O17 Pr4 2.408835 1_555
O17 Pr10 2.501206 1_555
O17 Pr9 2.542162 1_555
O18 Si2 1.638319 1_455
O18 Pr7 2.356103 1_455
O18 Pr8 2.542692 1_455
O19 Si5 1.615382 1_555
O19 Pr8 2.467609 1_555
O19 Pr3 2.886091 1_565
O20 Si3 1.615053 1_565
O20 Pr8 2.464226 1_555
O20 Pr0 2.885040 1_555
O21 Si4 1.658501 1_555
O21 Pr17 2.438817 1_555
O21 Pr11 2.572793 1_555
O21 Pr10 2.821546 1_555
O22 Si4 1.657704 1_555
O22 Pr17 2.488896 1_455
O22 Pr11 2.633444 1_555
O22 Pr9 2.727187 1_555
O23 Si6 1.638148 1_455
O23 Pr5 2.355401 1_555
O23 Pr8 2.536989 1_455
O24 Si5 1.668587 1_555
O24 Pr13 2.409178 1_555
O24 Pr9 2.519268 1_555
O24 Pr10 2.526040 1_555
O25 Si7 1.640644 1_455
O25 Pr0 2.387792 1_555
O25 Pr7 2.471579 1_455
O26 Si7 1.652242 1_555
O26 Pr0 2.415820 1_555
O26 Pr7 2.647564 1_555
O26 Pr8 2.735338 1_555
O27 Si8 1.642218 1_545
O27 Pr9 2.417549 1_555
O27 Pr10 2.426019 1_455
O27 Pr17 3.246643 1_455
O28 Si6 1.642353 1_555
O28 Pr10 2.394855 1_555
O28 Pr9 2.453466 1_655
O28 Pr15 3.234591 1_645
O29 Si9 1.668059 1_555
O29 Pr11 2.411582 1_555
O29 Pr10 2.501291 1_555
O29 Pr9 2.548135 1_555
O30 Si7 1.637993 1_455
O30 Pr14 2.354222 1_555
O30 Pr8 2.543290 1_455
O31 Si0 1.614713 1_555
O31 Pr8 2.456830 1_555
O31 Pr13 2.891151 1_555
O32 Si6 1.652529 1_555
O32 Pr13 2.410603 1_555
O32 Pr14 2.633738 1_655
O32 Pr8 2.756692 1_555
O33 Si6 1.640387 1_455
O33 Pr13 2.393133 1_555
O33 Pr14 2.478366 1_555
O34 Si8 1.640242 1_655
O34 Pr11 2.398961 1_565
O34 Pr12 2.473016 1_555
O35 Si8 1.653817 1_555
O35 Pr11 2.404529 1_565
O35 Pr12 2.644315 1_455
O35 Pr16 2.745711 1_555
O36 Si9 1.656920 1_555
O36 Pr15 2.455619 1_645
O36 Pr13 2.578336 1_555
O36 Pr10 2.862546 1_555
O37 Si9 1.659957 1_555
O37 Pr15 2.468719 1_545
O37 Pr13 2.626875 1_555
O37 Pr9 2.693031 1_555
O38 Si8 1.638319 1_655
O38 Pr15 2.356103 1_655
O38 Pr16 2.542692 1_655
O39 Si1 1.615382 1_556
O39 Pr16 2.467609 1_555
O39 Pr11 2.886091 1_565
O40 Si9 1.615053 1_565
O40 Pr16 2.464226 1_555
O40 Pr4 2.885040 1_555
O41 Si10 1.638148 1_655
O41 Pr12 2.355401 1_555
O41 Pr16 2.536989 1_655
O42 Si11 1.652242 1_555
O42 Pr4 2.415820 1_555
O42 Pr15 2.647564 1_555
O42 Pr16 2.735338 1_555
O43 Si11 1.640644 1_655
O43 Pr4 2.387792 1_555
O43 Pr15 2.471579 1_655
O44 Si11 1.637993 1_655
O44 Pr17 2.354222 1_555
O44 Pr16 2.543290 1_655
O45 Si4 1.614713 1_555
O45 Pr16 2.456830 1_555
O45 Pr6 2.891151 1_556
O46 Si10 1.652529 1_555
O46 Pr6 2.410603 1_556
O46 Pr17 2.633738 1_455
O46 Pr16 2.756692 1_555
O47 Si10 1.640387 1_655
O47 Pr6 2.393133 1_556
O47 Pr17 2.478366 1_555
