# generated using pymatgen
data_ReO2F3
_symmetry_space_group_name_H-M   'P 1'
_cell_length_a   10.19722600
_cell_length_b   9.44710900
_cell_length_c   15.78043437
_cell_angle_alpha   84.75586396
_cell_angle_beta   90.00000000
_cell_angle_gamma   90.00000000
_symmetry_Int_Tables_number   1
_chemical_formula_structural   ReO2F3
_chemical_formula_sum   'Re16 O32 F48'
_cell_volume   1513.83407664
_cell_formula_units_Z   16
loop_
 _symmetry_equiv_pos_site_id
 _symmetry_equiv_pos_as_xyz
  1  'x, y, z'
loop_
 _atom_site_type_symbol
 _atom_site_label
 _atom_site_symmetry_multiplicity
 _atom_site_fract_x
 _atom_site_fract_y
 _atom_site_fract_z
 _atom_site_occupancy
  Re  Re0  1  0.16401600  0.75309200  0.04547100  1
  Re  Re1  1  0.82280500  0.55109500  0.74324300  1
  Re  Re2  1  0.32280500  0.94890500  0.25675700  1
  Re  Re3  1  0.18214600  0.04431200  0.75184900  1
  Re  Re4  1  0.16295100  0.80174500  0.54256400  1
  Re  Re5  1  0.17719500  0.44890500  0.25675700  1
  Re  Re6  1  0.31785400  0.54431200  0.75184900  1
  Re  Re7  1  0.33704900  0.30174500  0.54256400  1
  Re  Re8  1  0.66401600  0.74690800  0.95452900  1
  Re  Re9  1  0.81785400  0.95568800  0.24815100  1
  Re  Re10  1  0.33598400  0.25309200  0.04547100  1
  Re  Re11  1  0.67719500  0.05109500  0.74324300  1
  Re  Re12  1  0.68214600  0.45568800  0.24815100  1
  Re  Re13  1  0.83598400  0.24690800  0.95452900  1
  Re  Re14  1  0.83704900  0.19825500  0.45743600  1
  Re  Re15  1  0.66295100  0.69825500  0.45743600  1
  O  O0  1  0.78700000  0.11246300  0.02736400  1
  O  O1  1  0.59780000  0.96023500  0.67009200  1
  O  O2  1  0.37870400  0.42729700  0.46249500  1
  O  O3  1  0.73333100  0.35584800  0.16957900  1
  O  O4  1  0.40901600  0.41515300  0.80610700  1
  O  O5  1  0.73900900  0.19415000  0.68275100  1
  O  O6  1  0.09098400  0.91515300  0.80610700  1
  O  O7  1  0.90220000  0.46023500  0.67009200  1
  O  O8  1  0.18357100  0.65293600  0.48999000  1
  O  O9  1  0.90901600  0.08484700  0.19389300  1
  O  O10  1  0.71300000  0.61246300  0.02736400  1
  O  O11  1  0.68357100  0.84706400  0.51001000  1
  O  O12  1  0.76666900  0.85584800  0.16957900  1
  O  O13  1  0.21300000  0.88753700  0.97263600  1
  O  O14  1  0.90913700  0.36326100  0.01628000  1
  O  O15  1  0.26099100  0.80585000  0.31724900  1
  O  O16  1  0.23333100  0.14415200  0.83042100  1
  O  O17  1  0.87870400  0.07270300  0.53750500  1
  O  O18  1  0.26666900  0.64415200  0.83042100  1
  O  O19  1  0.40913700  0.13673900  0.98372000  1
  O  O20  1  0.23900900  0.30585000  0.31724900  1
  O  O21  1  0.81642900  0.34706400  0.51001000  1
  O  O22  1  0.59086300  0.86326100  0.01628000  1
  O  O23  1  0.09086300  0.63673900  0.98372000  1
  O  O24  1  0.09780000  0.53976500  0.32990800  1
  O  O25  1  0.59098400  0.58484700  0.19389300  1
  O  O26  1  0.76099100  0.69415000  0.68275100  1
  O  O27  1  0.12129600  0.92729700  0.46249500  1
  O  O28  1  0.28700000  0.38753700  0.97263600  1
  O  O29  1  0.62129600  0.57270300  0.53750500  1
  O  O30  1  0.31642900  0.15293600  0.48999000  1
  O  O31  1  0.40220000  0.03976500  0.32990800  1
  F  F0  1  0.45500500  0.66032300  0.70779400  1
  F  F1  1  0.00563100  0.23779900  0.41409700  1
  F  F2  1  0.76026000  0.13037000  0.85526500  1
  F  F3  1  0.48963700  0.33508200  0.08435500  1
  F  F4  1  0.04499500  0.16032300  0.70779400  1
  F  F5  1  0.70784900  0.81539400  0.33821500  1
  F  F6  1  0.62462800  0.88833300  0.84268600  1
  F  F7  1  0.16774300  0.05563200  0.24774100  1
  F  F8  1  0.29215100  0.18460600  0.66178500  1
  F  F9  1  0.23974000  0.86963000  0.14473500  1
  F  F10  1  0.84022300  0.65023700  0.44765600  1
  F  F11  1  0.46879000  0.86283600  0.21123700  1
  F  F12  1  0.01036300  0.83508200  0.08435500  1
  F  F13  1  0.85352900  0.04079800  0.36794400  1
  F  F14  1  0.99436900  0.76220100  0.58590300  1
  F  F15  1  0.35352900  0.45920200  0.63205600  1
  F  F16  1  0.66774300  0.44436800  0.75225900  1
  F  F17  1  0.73974000  0.63037000  0.85526500  1
  F  F18  1  0.82757100  0.83602300  0.93926600  1
  F  F19  1  0.83225700  0.94436800  0.75225900  1
  F  F20  1  0.33470700  0.93652900  0.74149800  1
  F  F21  1  0.16529300  0.43652900  0.74149800  1
  F  F22  1  0.95500500  0.83967700  0.29220600  1
  F  F23  1  0.98963700  0.16491800  0.91564500  1
  F  F24  1  0.37537200  0.11166700  0.15731400  1
  F  F25  1  0.50563100  0.26220100  0.58590300  1
  F  F26  1  0.87537200  0.38833300  0.84268600  1
  F  F27  1  0.34022300  0.84976300  0.55234400  1
  F  F28  1  0.12462800  0.61166700  0.15731400  1
  F  F29  1  0.96879000  0.63716400  0.78876300  1
  F  F30  1  0.49436900  0.73779900  0.41409700  1
  F  F31  1  0.67242900  0.33602300  0.93926600  1
  F  F32  1  0.51036300  0.66491800  0.91564500  1
  F  F33  1  0.79215100  0.31539400  0.33821500  1
  F  F34  1  0.15977700  0.34976300  0.55234400  1
  F  F35  1  0.65977700  0.15023700  0.44765600  1
  F  F36  1  0.54499500  0.33967700  0.29220600  1
  F  F37  1  0.83470700  0.56347100  0.25850200  1
  F  F38  1  0.64647100  0.54079800  0.36794400  1
  F  F39  1  0.26026000  0.36963000  0.14473500  1
  F  F40  1  0.14647100  0.95920200  0.63205600  1
  F  F41  1  0.66529300  0.06347100  0.25850200  1
  F  F42  1  0.33225700  0.55563200  0.24774100  1
  F  F43  1  0.53121000  0.13716400  0.78876300  1
  F  F44  1  0.03121000  0.36283600  0.21123700  1
  F  F45  1  0.17242900  0.16397700  0.06073400  1
  F  F46  1  0.32757100  0.66397700  0.06073400  1
  F  F47  1  0.20784900  0.68460600  0.66178500  1
loop_
_geom_bond_atom_site_label_1
_geom_bond_atom_site_label_2
_geom_bond_distance
_geom_bond_site_symmetry_2
O0 Re13 1.707890 1_554
O1 Re11 1.704675 1_565
O2 Re7 1.705814 1_555
O3 Re12 1.706805 1_555
O4 Re6 1.701505 1_555
O5 Re11 1.702694 1_555
O6 Re3 1.701505 1_565
O7 Re1 1.704675 1_555
O8 Re4 1.709396 1_555
O9 Re9 1.701505 1_545
O10 Re8 1.707890 1_554
O11 Re15 1.709396 1_555
O12 Re9 1.706805 1_555
O13 Re0 1.707890 1_556
O14 Re13 1.705890 1_554
O15 Re2 1.702694 1_555
O16 Re3 1.706805 1_555
O17 Re14 1.705814 1_555
O18 Re6 1.706805 1_555
O19 Re10 1.705890 1_556
O20 Re5 1.702694 1_555
O21 Re14 1.709396 1_555
O22 Re8 1.705890 1_554
O23 Re0 1.705890 1_556
O24 Re5 1.704675 1_555
O25 Re12 1.701505 1_555
O26 Re1 1.702694 1_555
O27 Re4 1.705814 1_555
O28 Re10 1.707890 1_556
O29 Re15 1.705814 1_555
O30 Re7 1.709396 1_555
O31 Re2 1.704675 1_545
F0 Re6 1.871136 1_555
F1 Re14 1.875042 1_455
F2 Re13 2.139459 1_555
F2 Re11 2.155299 1_555
F3 Re10 1.875719 1_555
F4 Re3 1.871136 1_555
F5 Re15 2.143167 1_555
F5 Re9 2.165765 1_555
F6 Re8 2.151814 1_555
F6 Re11 2.161740 1_565
F7 Re2 1.873716 1_545
F8 Re7 2.143167 1_555
F8 Re3 2.165765 1_555
F9 Re0 2.139459 1_555
F9 Re2 2.155299 1_555
F10 Re15 1.873530 1_555
F11 Re2 1.870816 1_555
F12 Re0 1.875719 1_555
F13 Re14 2.149260 1_555
F13 Re9 2.151797 1_545
F14 Re4 1.875042 1_655
F15 Re7 2.149260 1_555
F15 Re6 2.151797 1_555
F16 Re1 1.873716 1_555
F17 Re8 2.139459 1_555
F17 Re1 2.155299 1_555
F18 Re8 1.873843 1_555
F19 Re11 1.873716 1_565
F20 Re3 1.874591 1_565
F21 Re6 1.874591 1_555
F22 Re9 1.871136 1_555
F23 Re13 1.875719 1_555
F24 Re10 2.151814 1_555
F24 Re2 2.161740 1_545
F25 Re7 1.875042 1_555
F26 Re13 2.151814 1_555
F26 Re1 2.161740 1_555
F27 Re4 1.873530 1_555
F28 Re0 2.151814 1_555
F28 Re5 2.161740 1_555
F29 Re1 1.870816 1_555
F30 Re15 1.875042 1_555
F31 Re13 1.873843 1_555
F32 Re8 1.875719 1_555
F33 Re14 2.143167 1_555
F33 Re12 2.165765 1_555
F34 Re7 1.873530 1_555
F35 Re14 1.873530 1_555
F36 Re12 1.871136 1_555
F37 Re12 1.874591 1_555
F38 Re15 2.149260 1_555
F38 Re12 2.151797 1_555
F39 Re10 2.139459 1_555
F39 Re5 2.155299 1_555
F40 Re4 2.149260 1_555
F40 Re3 2.151797 1_565
F41 Re9 1.874591 1_545
F42 Re5 1.873716 1_555
F43 Re11 1.870816 1_555
F44 Re5 1.870816 1_555
F45 Re10 1.873843 1_555
F46 Re0 1.873843 1_555
F47 Re4 2.143167 1_555
F47 Re6 2.165765 1_555
