# generated using pymatgen
data_CoPO4
_symmetry_space_group_name_H-M   'P 1'
_cell_length_a   5.13564748
_cell_length_b   6.58296564
_cell_length_c   10.32375794
_cell_angle_alpha   90.00000000
_cell_angle_beta   90.00000000
_cell_angle_gamma   90.00000000
_symmetry_Int_Tables_number   1
_chemical_formula_structural   CoPO4
_chemical_formula_sum   'Co4 P4 O16'
_cell_volume   349.02344974
_cell_formula_units_Z   4
loop_
 _symmetry_equiv_pos_site_id
 _symmetry_equiv_pos_as_xyz
  1  'x, y, z'
loop_
 _atom_site_type_symbol
 _atom_site_label
 _atom_site_symmetry_multiplicity
 _atom_site_fract_x
 _atom_site_fract_y
 _atom_site_fract_z
 _atom_site_occupancy
  Co  Co0  1  0.17405221  0.78702107  0.34432208  1
  Co  Co1  1  0.32594779  0.78702107  0.84432208  1
  Co  Co2  1  0.82594779  0.28702107  0.65567792  1
  Co  Co3  1  0.67405221  0.28702107  0.15567792  1
  P  P0  1  0.67925459  0.03717665  0.40600835  1
  P  P1  1  0.82074541  0.03717665  0.90600835  1
  P  P2  1  0.17925459  0.53717665  0.09399165  1
  P  P3  1  0.32074541  0.53717665  0.59399165  1
  O  O0  1  0.25006971  0.57256307  0.95195750  1
  O  O1  1  0.61437981  0.49699115  0.60459905  1
  O  O2  1  0.24469191  0.72840604  0.17274457  1
  O  O3  1  0.82535521  0.84931102  0.35615834  1
  O  O4  1  0.88562019  0.49699115  0.10459905  1
  O  O5  1  0.75530809  0.22840604  0.82725543  1
  O  O6  1  0.24993029  0.57256307  0.45195750  1
  O  O7  1  0.17464479  0.34931102  0.64384166  1
  O  O8  1  0.11437981  0.99699115  0.89540095  1
  O  O9  1  0.32535521  0.34931102  0.14384166  1
  O  O10  1  0.25530809  0.72840604  0.67274457  1
  O  O11  1  0.74993029  0.07256307  0.04804250  1
  O  O12  1  0.74469191  0.22840604  0.32725543  1
  O  O13  1  0.38562019  0.99699115  0.39540095  1
  O  O14  1  0.67464479  0.84931102  0.85615834  1
  O  O15  1  0.75006971  0.07256307  0.54804250  1
loop_
_geom_bond_atom_site_label_1
_geom_bond_atom_site_label_2
_geom_bond_distance
_geom_bond_site_symmetry_2
Co0 O13 1.835534 1_555
Co0 O6 1.838400 1_555
Co0 O3 1.841191 1_455
Co0 O2 1.848808 1_555
Co1 O8 1.835534 1_555
Co1 O0 1.838400 1_555
Co1 O14 1.841191 1_555
Co1 O10 1.848808 1_555
Co2 O1 1.835534 1_555
Co2 O15 1.838400 1_555
Co2 O7 1.841191 1_655
Co2 O5 1.848808 1_555
Co3 O4 1.835534 1_555
Co3 O11 1.838400 1_555
Co3 O9 1.841191 1_555
Co3 O12 1.848808 1_555
O0 P2 1.528608 1_556
O1 P3 1.534942 1_555
O2 P2 1.535796 1_555
O3 P0 1.535348 1_565
O4 P2 1.534942 1_655
O5 P1 1.535796 1_555
O6 P3 1.528608 1_555
O7 P3 1.535348 1_555
O8 P1 1.534942 1_465
O9 P2 1.535348 1_555
O10 P3 1.535796 1_555
O11 P1 1.528608 1_554
O12 P0 1.535796 1_555
O13 P0 1.534942 1_565
O14 P1 1.535348 1_565
O15 P0 1.528608 1_555
