# generated using pymatgen
data_Y2Mn2S2O5
_symmetry_space_group_name_H-M   'P 1'
_cell_length_a   11.78523670
_cell_length_b   11.78523670
_cell_length_c   11.78523670
_cell_angle_alpha   161.33306936
_cell_angle_beta   161.33306936
_cell_angle_gamma   26.51848821
_symmetry_Int_Tables_number   1
_chemical_formula_structural   Y2Mn2S2O5
_chemical_formula_sum   'Y2 Mn2 S2 O5'
_cell_volume   167.62397889
_cell_formula_units_Z   1
loop_
 _symmetry_equiv_pos_site_id
 _symmetry_equiv_pos_as_xyz
  1  'x, y, z'
loop_
 _atom_site_type_symbol
 _atom_site_label
 _atom_site_symmetry_multiplicity
 _atom_site_fract_x
 _atom_site_fract_y
 _atom_site_fract_z
 _atom_site_occupancy
  Y  Y0  1  0.66019800  0.66019800  0.00000000  1
  Y  Y1  1  0.33980200  0.33980200  0.00000000  1
  Mn  Mn0  1  0.92083900  0.92083900  0.00000000  1
  Mn  Mn1  1  0.07916100  0.07916100  0.00000000  1
  S  S0  1  0.79443900  0.79443900  0.00000000  1
  S  S1  1  0.20556100  0.20556100  0.00000000  1
  O  O0  1  0.00000000  0.00000000  0.00000000  1
  O  O1  1  0.89918200  0.39918200  0.50000000  1
  O  O2  1  0.60081800  0.10081800  0.50000000  1
  O  O3  1  0.39918200  0.89918200  0.50000000  1
  O  O4  1  0.10081800  0.60081800  0.50000000  1
loop_
_geom_bond_atom_site_label_1
_geom_bond_atom_site_label_2
_geom_bond_distance
_geom_bond_site_symmetry_2
Mn0 O0 1.816123 1_665
Mn0 O3 1.974856 1_655
Mn0 O1 1.974856 1_565
Mn0 O1 1.974856 1_554
Mn0 O3 1.974856 1_554
Mn0 S0 2.899886 1_555
Mn1 O0 1.816123 1_555
Mn1 O2 1.974856 1_555
Mn1 O4 1.974856 1_555
Mn1 O2 1.974856 1_454
Mn1 O4 1.974856 1_544
Mn1 S1 2.899886 1_555
S0 Y1 2.896461 1_666
S0 Y1 2.896461 1_565
S0 Y1 2.896461 1_655
S0 Y1 2.896461 1_554
S0 Y0 3.079776 1_555
S1 Y0 2.896461 1_444
S1 Y0 2.896461 1_545
S1 Y0 2.896461 1_556
S1 Y0 2.896461 1_455
S1 Y1 3.079776 1_555
O1 Y1 2.347139 1_555
O1 Y1 2.347139 1_656
O2 Y0 2.347139 1_556
O2 Y0 2.347139 1_545
O3 Y1 2.347139 1_555
O3 Y1 2.347139 1_566
O4 Y0 2.347139 1_455
O4 Y0 2.347139 1_556
