# generated using pymatgen
data_CdH16C4S4(N4Cl)2
_symmetry_space_group_name_H-M   'P 1'
_cell_length_a   14.11382100
_cell_length_b   14.11382100
_cell_length_c   9.45011300
_cell_angle_alpha   90.00000000
_cell_angle_beta   90.00000000
_cell_angle_gamma   90.00000000
_symmetry_Int_Tables_number   1
_chemical_formula_structural   CdH16C4S4(N4Cl)2
_chemical_formula_sum   'Cd4 H64 C16 S16 N32 Cl8'
_cell_volume   1882.46197302
_cell_formula_units_Z   4
loop_
 _symmetry_equiv_pos_site_id
 _symmetry_equiv_pos_as_xyz
  1  'x, y, z'
loop_
 _atom_site_type_symbol
 _atom_site_label
 _atom_site_symmetry_multiplicity
 _atom_site_fract_x
 _atom_site_fract_y
 _atom_site_fract_z
 _atom_site_occupancy
  Cd  Cd0  1  0.25000000  0.75000000  0.75000000  1
  Cd  Cd1  1  0.75000000  0.25000000  0.75000000  1
  Cd  Cd2  1  0.75000000  0.75000000  0.25000000  1
  Cd  Cd3  1  0.25000000  0.25000000  0.25000000  1
  H  H0  1  0.95062400  0.75570400  0.97374200  1
  H  H1  1  0.04937600  0.24429600  0.97374200  1
  H  H2  1  0.74429600  0.45062400  0.47374200  1
  H  H3  1  0.25570400  0.54937600  0.47374200  1
  H  H4  1  0.54937600  0.74429600  0.52625800  1
  H  H5  1  0.45062400  0.25570400  0.52625800  1
  H  H6  1  0.75570400  0.04937600  0.02625800  1
  H  H7  1  0.24429600  0.95062400  0.02625800  1
  H  H8  1  0.04670500  0.08292800  0.71623000  1
  H  H9  1  0.95329500  0.91707200  0.71623000  1
  H  H10  1  0.41707200  0.54670500  0.21623000  1
  H  H11  1  0.58292800  0.45329500  0.21623000  1
  H  H12  1  0.45329500  0.41707200  0.78377000  1
  H  H13  1  0.54670500  0.58292800  0.78377000  1
  H  H14  1  0.08292800  0.95329500  0.28377000  1
  H  H15  1  0.91707200  0.04670500  0.28377000  1
  H  H16  1  0.25778200  0.05922200  0.52055600  1
  H  H17  1  0.74221800  0.94077800  0.52055600  1
  H  H18  1  0.44077800  0.75778200  0.02055600  1
  H  H19  1  0.55922200  0.24221800  0.02055600  1
  H  H20  1  0.24221800  0.44077800  0.97944400  1
  H  H21  1  0.75778200  0.55922200  0.97944400  1
  H  H22  1  0.05922200  0.74221800  0.47944400  1
  H  H23  1  0.94077800  0.25778200  0.47944400  1
  H  H24  1  0.28898300  0.94936700  0.59292900  1
  H  H25  1  0.71101700  0.05063300  0.59292900  1
  H  H26  1  0.55063300  0.78898300  0.09292900  1
  H  H27  1  0.44936700  0.21101700  0.09292900  1
  H  H28  1  0.21101700  0.55063300  0.90707100  1
  H  H29  1  0.78898300  0.44936700  0.90707100  1
  H  H30  1  0.94936700  0.71101700  0.40707100  1
  H  H31  1  0.05063300  0.28898300  0.40707100  1
  H  H32  1  0.12938800  0.13884400  0.60385700  1
  H  H33  1  0.87061200  0.86115600  0.60385700  1
  H  H34  1  0.36115600  0.62938800  0.10385700  1
  H  H35  1  0.63884400  0.37061200  0.10385700  1
  H  H36  1  0.37061200  0.36115600  0.89614300  1
  H  H37  1  0.62938800  0.63884400  0.89614300  1
  H  H38  1  0.13884400  0.87061200  0.39614300  1
  H  H39  1  0.86115600  0.12938800  0.39614300  1
  H  H40  1  0.85761800  0.67777100  0.81926100  1
  H  H41  1  0.14238200  0.32222900  0.81926100  1
  H  H42  1  0.82222900  0.35761800  0.31926100  1
  H  H43  1  0.17777100  0.64238200  0.31926100  1
  H  H44  1  0.64238200  0.82222900  0.68073900  1
  H  H45  1  0.35761800  0.17777100  0.68073900  1
  H  H46  1  0.67777100  0.14238200  0.18073900  1
  H  H47  1  0.32222900  0.85761800  0.18073900  1
  H  H48  1  0.07493400  0.74617800  0.96848900  1
  H  H49  1  0.92506600  0.25382200  0.96848900  1
  H  H50  1  0.75382200  0.57493400  0.46848900  1
  H  H51  1  0.24617800  0.42506600  0.46848900  1
  H  H52  1  0.42506600  0.75382200  0.53151100  1
  H  H53  1  0.57493400  0.24617800  0.53151100  1
  H  H54  1  0.74617800  0.92506600  0.03151100  1
  H  H55  1  0.25382200  0.07493400  0.03151100  1
  H  H56  1  0.90715800  0.60389800  0.68908100  1
  H  H57  1  0.09284200  0.39610200  0.68908100  1
  H  H58  1  0.89610200  0.40715800  0.18908100  1
  H  H59  1  0.10389800  0.59284200  0.18908100  1
  H  H60  1  0.59284200  0.89610200  0.81091900  1
  H  H61  1  0.40715800  0.10389800  0.81091900  1
  H  H62  1  0.60389800  0.09284200  0.31091900  1
  H  H63  1  0.39610200  0.90715800  0.31091900  1
  C  C0  1  0.16223700  0.00276600  0.66137500  1
  C  C1  1  0.83776300  0.99723400  0.66137500  1
  C  C2  1  0.49723400  0.66223700  0.16137500  1
  C  C3  1  0.50276600  0.33776300  0.16137500  1
  C  C4  1  0.33776300  0.49723400  0.83862500  1
  C  C5  1  0.66223700  0.50276600  0.83862500  1
  C  C6  1  0.00276600  0.83776300  0.33862500  1
  C  C7  1  0.99723400  0.16223700  0.33862500  1
  C  C8  1  0.00304000  0.67246900  0.81410500  1
  C  C9  1  0.99696000  0.32753100  0.81410500  1
  C  C10  1  0.82753100  0.50304000  0.31410500  1
  C  C11  1  0.17246900  0.49696000  0.31410500  1
  C  C12  1  0.49696000  0.82753100  0.68589500  1
  C  C13  1  0.50304000  0.17246900  0.68589500  1
  C  C14  1  0.67246900  0.99696000  0.18589500  1
  C  C15  1  0.32753100  0.00304000  0.18589500  1
  S  S0  1  0.13176200  0.91036100  0.76970700  1
  S  S1  1  0.86823800  0.08963900  0.76970700  1
  S  S2  1  0.58963900  0.63176200  0.26970700  1
  S  S3  1  0.41036100  0.36823800  0.26970700  1
  S  S4  1  0.36823800  0.58963900  0.73029300  1
  S  S5  1  0.63176200  0.41036100  0.73029300  1
  S  S6  1  0.91036100  0.86823800  0.23029300  1
  S  S7  1  0.08963900  0.13176200  0.23029300  1
  S  S8  1  0.09934800  0.62939900  0.72375000  1
  S  S9  1  0.90065200  0.37060100  0.72375000  1
  S  S10  1  0.87060100  0.59934800  0.22375000  1
  S  S11  1  0.12939900  0.40065200  0.22375000  1
  S  S12  1  0.40065200  0.87060100  0.77625000  1
  S  S13  1  0.59934800  0.12939900  0.77625000  1
  S  S14  1  0.62939900  0.90065200  0.27625000  1
  S  S15  1  0.37060100  0.09934800  0.27625000  1
  N  N0  1  0.10710800  0.07988900  0.65715800  1
  N  N1  1  0.89289200  0.92011100  0.65715800  1
  N  N2  1  0.42011100  0.60710800  0.15715800  1
  N  N3  1  0.57988900  0.39289200  0.15715800  1
  N  N4  1  0.39289200  0.42011100  0.84284200  1
  N  N5  1  0.60710800  0.57988900  0.84284200  1
  N  N6  1  0.07988900  0.89289200  0.34284200  1
  N  N7  1  0.92011100  0.10710800  0.34284200  1
  N  N8  1  0.23982300  0.00138300  0.57935800  1
  N  N9  1  0.76017700  0.99861700  0.57935800  1
  N  N10  1  0.49861700  0.73982300  0.07935800  1
  N  N11  1  0.50138300  0.26017700  0.07935800  1
  N  N12  1  0.26017700  0.49861700  0.92064200  1
  N  N13  1  0.73982300  0.50138300  0.92064200  1
  N  N14  1  0.00138300  0.76017700  0.42064200  1
  N  N15  1  0.99861700  0.23982300  0.42064200  1
  N  N16  1  0.91593900  0.65082300  0.76899900  1
  N  N17  1  0.08406100  0.34917700  0.76899900  1
  N  N18  1  0.84917700  0.41593900  0.26899900  1
  N  N19  1  0.15082300  0.58406100  0.26899900  1
  N  N20  1  0.58406100  0.84917700  0.73100100  1
  N  N21  1  0.41593900  0.15082300  0.73100100  1
  N  N22  1  0.65082300  0.08406100  0.23100100  1
  N  N23  1  0.34917700  0.91593900  0.23100100  1
  N  N24  1  0.01021100  0.72834800  0.92853500  1
  N  N25  1  0.98978900  0.27165200  0.92853500  1
  N  N26  1  0.77165200  0.51021100  0.42853500  1
  N  N27  1  0.22834800  0.48978900  0.42853500  1
  N  N28  1  0.48978900  0.77165200  0.57146500  1
  N  N29  1  0.51021100  0.22834800  0.57146500  1
  N  N30  1  0.72834800  0.98978900  0.07146500  1
  N  N31  1  0.27165200  0.01021100  0.07146500  1
  Cl  Cl0  1  0.23739500  0.75005800  0.03419000  1
  Cl  Cl1  1  0.76260500  0.24994200  0.03419000  1
  Cl  Cl2  1  0.74994200  0.73739500  0.53419000  1
  Cl  Cl3  1  0.25005800  0.26260500  0.53419000  1
  Cl  Cl4  1  0.26260500  0.74994200  0.46581000  1
  Cl  Cl5  1  0.73739500  0.25005800  0.46581000  1
  Cl  Cl6  1  0.75005800  0.76260500  0.96581000  1
  Cl  Cl7  1  0.24994200  0.23739500  0.96581000  1
loop_
_geom_bond_atom_site_label_1
_geom_bond_atom_site_label_2
_geom_bond_distance
_geom_bond_site_symmetry_2
Cd0 Cl4 2.691514 1_555
Cd0 Cl0 2.691514 1_556
Cd0 S12 2.734935 1_555
Cd0 S8 2.734935 1_555
Cd0 S0 2.818173 1_555
Cd0 S4 2.818173 1_555
Cd1 Cl1 2.691514 1_556
Cd1 Cl5 2.691514 1_555
Cd1 S9 2.734935 1_555
Cd1 S13 2.734935 1_555
Cd1 S1 2.818173 1_555
Cd1 S5 2.818173 1_555
Cd2 Cl6 2.691514 1_554
Cd2 Cl2 2.691514 1_555
Cd2 S10 2.734935 1_555
Cd2 S14 2.734935 1_555
Cd2 S6 2.818173 1_555
Cd2 S2 2.818173 1_555
Cd3 Cl7 2.691514 1_554
Cd3 Cl3 2.691514 1_555
Cd3 S11 2.734935 1_555
Cd3 S15 2.734935 1_555
Cd3 S3 2.818173 1_555
Cd3 S7 2.818173 1_555
H0 N24 1.019246 1_655
H1 N25 1.019246 1_455
H2 N26 1.019246 1_555
H3 N27 1.019246 1_555
H4 N28 1.019246 1_555
H5 N29 1.019246 1_555
H6 N30 1.019246 1_545
H7 N31 1.019246 1_565
H8 N0 1.019928 1_555
H9 N1 1.019928 1_555
H10 N2 1.019928 1_555
H11 N3 1.019928 1_555
H12 N4 1.019928 1_555
H13 N5 1.019928 1_555
H14 N6 1.019928 1_555
H15 N7 1.019928 1_555
H16 N8 1.019523 1_555
H17 N9 1.019523 1_555
H18 N10 1.019523 1_555
H19 N11 1.019523 1_555
H20 N12 1.019523 1_555
H21 N13 1.019523 1_555
H22 N14 1.019523 1_555
H23 N15 1.019523 1_555
H24 N8 1.018245 1_565
H25 N9 1.018245 1_545
H26 N10 1.018245 1_555
H27 N11 1.018245 1_555
H28 N12 1.018245 1_555
H29 N13 1.018245 1_555
H30 N14 1.018245 1_655
H31 N15 1.018245 1_455
H32 N0 1.022230 1_555
H33 N1 1.022230 1_555
H34 N2 1.022230 1_555
H35 N3 1.022230 1_555
H36 N4 1.022230 1_555
H37 N5 1.022230 1_555
H38 N6 1.022230 1_555
H39 N7 1.022230 1_555
H40 N16 1.023627 1_555
H41 N17 1.023627 1_555
H42 N18 1.023627 1_555
H43 N19 1.023627 1_555
H44 N20 1.023627 1_555
H45 N21 1.023627 1_555
H46 N22 1.023627 1_555
H47 N23 1.023627 1_555
H48 N24 1.019975 1_555
H49 N25 1.019975 1_555
H50 N26 1.019975 1_555
H51 N27 1.019975 1_555
H52 N28 1.019975 1_555
H53 N29 1.019975 1_555
H54 N30 1.019975 1_555
H55 N31 1.019975 1_555
H56 N16 1.012110 1_555
H57 N17 1.012110 1_555
H58 N18 1.012110 1_555
H59 N19 1.012110 1_555
H60 N20 1.012110 1_555
H61 N21 1.012110 1_555
H62 N22 1.012110 1_555
H63 N23 1.012110 1_555
C0 N0 1.338593 1_555
C0 N8 1.341721 1_555
C0 S0 1.712884 1_545
C1 N1 1.338593 1_555
C1 N9 1.341721 1_555
C1 S1 1.712884 1_565
C2 N2 1.338593 1_555
C2 N10 1.341721 1_555
C2 S2 1.712884 1_555
C3 N3 1.338593 1_555
C3 N11 1.341721 1_555
C3 S3 1.712884 1_555
C4 N4 1.338593 1_555
C4 N12 1.341721 1_555
C4 S4 1.712884 1_555
C5 N5 1.338593 1_555
C5 N13 1.341721 1_555
C5 S5 1.712884 1_555
C6 N6 1.338593 1_555
C6 N14 1.341721 1_555
C6 S6 1.712884 1_455
C7 N7 1.338593 1_555
C7 N15 1.341721 1_555
C7 S7 1.712884 1_655
C8 N16 1.336517 1_455
C8 N24 1.342242 1_555
C8 S8 1.716459 1_555
C9 N17 1.336517 1_655
C9 N25 1.342242 1_555
C9 S9 1.716459 1_555
C10 N18 1.336517 1_555
C10 N26 1.342242 1_555
C10 S10 1.716459 1_555
C11 N19 1.336517 1_555
C11 N27 1.342242 1_555
C11 S11 1.716459 1_555
C12 N20 1.336517 1_555
C12 N28 1.342242 1_555
C12 S12 1.716459 1_555
C13 N21 1.336517 1_555
C13 N29 1.342242 1_555
C13 S13 1.716459 1_555
C14 N22 1.336517 1_565
C14 N30 1.342242 1_555
C14 S14 1.716459 1_555
C15 N23 1.336517 1_545
C15 N31 1.342242 1_555
C15 S15 1.716459 1_555
