# generated using pymatgen
data_Sm3Eu3S8
_symmetry_space_group_name_H-M   'P 1'
_cell_length_a   7.41814513
_cell_length_b   7.41814513
_cell_length_c   8.56234167
_cell_angle_alpha   54.91138695
_cell_angle_beta   54.91138695
_cell_angle_gamma   70.58748082
_symmetry_Int_Tables_number   1
_chemical_formula_structural   Sm3Eu3S8
_chemical_formula_sum   'Sm3 Eu3 S8'
_cell_volume   315.47741928
_cell_formula_units_Z   1
loop_
 _symmetry_equiv_pos_site_id
 _symmetry_equiv_pos_as_xyz
  1  'x, y, z'
loop_
 _atom_site_type_symbol
 _atom_site_label
 _atom_site_symmetry_multiplicity
 _atom_site_fract_x
 _atom_site_fract_y
 _atom_site_fract_z
 _atom_site_occupancy
  Sm  Sm0  1  0.62685305  0.12489869  0.87561946  1
  Sm  Sm1  1  0.37230541  0.62769459  -0.00000000  1
  Sm  Sm2  1  0.87510131  0.37314695  0.12438054  1
  Eu  Eu0  1  0.12747658  0.87252342  0.50000000  1
  Eu  Eu1  1  0.74966426  0.75168077  0.37601787  1
  Eu  Eu2  1  0.24831923  0.25033574  0.62398213  1
  S  S0  1  0.50387227  0.15231623  0.24221496  1
  S  S1  1  0.99848352  0.85059189  0.89757101  1
  S  S2  1  0.14940811  0.00151648  0.10242899  1
  S  S3  1  0.99865015  0.35839679  0.38910164  1
  S  S4  1  0.50494313  0.64436600  0.24124526  1
  S  S5  1  0.84768377  0.49612773  0.75778504  1
  S  S6  1  0.64160321  0.00134985  0.61089836  1
  S  S7  1  0.35563400  0.49505687  0.75875474  1
loop_
_geom_bond_atom_site_label_1
_geom_bond_atom_site_label_2
_geom_bond_distance
_geom_bond_site_symmetry_2
Eu0 S2 2.872640 1_565
Eu0 S1 2.872640 1_455
Eu0 S0 2.911322 1_565
Eu0 S5 2.911322 1_455
Eu0 S3 3.102361 1_465
Eu0 S6 3.102361 1_465
Eu0 S7 3.105195 1_555
Eu0 S4 3.105195 1_555
Eu1 S3 2.866292 1_555
Eu1 S0 2.890435 1_565
Eu1 S2 2.896764 1_665
Eu1 S7 2.901889 1_555
Eu1 S1 3.078764 1_554
Eu1 S5 3.082149 1_555
Eu1 S6 3.091824 1_565
Eu1 S4 3.112275 1_555
Eu2 S6 2.866292 1_555
Eu2 S5 2.890435 1_455
Eu2 S1 2.896764 1_445
Eu2 S4 2.901889 1_555
Eu2 S2 3.078764 1_556
Eu2 S0 3.082149 1_555
Eu2 S3 3.091824 1_455
Eu2 S7 3.112275 1_555
S0 Sm0 2.836341 1_554
S0 Sm2 3.031387 1_555
S0 Sm1 3.052929 1_555
S1 Sm0 2.864085 1_565
S1 Sm1 3.045327 1_656
S1 Sm2 3.058885 1_556
S2 Sm2 2.864085 1_455
S2 Sm1 3.045327 1_545
S2 Sm0 3.058885 1_554
S3 Sm2 2.833038 1_555
S3 Sm1 2.861038 1_655
S3 Sm0 3.103438 1_555
S4 Sm1 2.821602 1_555
S4 Sm2 2.841191 1_555
S4 Sm0 3.063225 1_564
S5 Sm2 2.836341 1_556
S5 Sm0 3.031387 1_555
S5 Sm1 3.052929 1_556
S6 Sm0 2.833038 1_555
S6 Sm1 2.861038 1_546
S6 Sm2 3.103438 1_555
S7 Sm1 2.821602 1_556
S7 Sm0 2.841191 1_555
S7 Sm2 3.063225 1_456
