# generated using pymatgen
data_RbCrI3
_symmetry_space_group_name_H-M   'P 1'
_cell_length_a   8.08457642
_cell_length_b   8.08457642
_cell_length_c   7.02522113
_cell_angle_alpha   85.40497228
_cell_angle_beta   85.40497228
_cell_angle_gamma   60.17367567
_symmetry_Int_Tables_number   1
_chemical_formula_structural   RbCrI3
_chemical_formula_sum   'Rb2 Cr2 I6'
_cell_volume   396.63686276
_cell_formula_units_Z   2
loop_
 _symmetry_equiv_pos_site_id
 _symmetry_equiv_pos_as_xyz
  1  'x, y, z'
loop_
 _atom_site_type_symbol
 _atom_site_label
 _atom_site_symmetry_multiplicity
 _atom_site_fract_x
 _atom_site_fract_y
 _atom_site_fract_z
 _atom_site_occupancy
  Rb  Rb0  1  0.33810800  0.33810800  0.74032200  1
  Rb  Rb1  1  0.66189200  0.66189200  0.25967800  1
  Cr  Cr0  1  0.00000000  0.00000000  0.00000000  1
  Cr  Cr1  1  0.00000000  0.00000000  0.50000000  1
  I  I0  1  0.83384900  0.83384900  0.80947400  1
  I  I1  1  0.84018500  0.32280400  0.72090700  1
  I  I2  1  0.32280400  0.84018500  0.72090700  1
  I  I3  1  0.67719600  0.15981500  0.27909300  1
  I  I4  1  0.15981500  0.67719600  0.27909300  1
  I  I5  1  0.16615100  0.16615100  0.19052600  1
loop_
_geom_bond_atom_site_label_1
_geom_bond_atom_site_label_2
_geom_bond_distance
_geom_bond_site_symmetry_2
Cr0 I5 2.787698 1_555
Cr0 I0 2.787698 1_444
Cr0 I4 2.925109 1_545
Cr0 I3 2.925109 1_455
Cr0 I1 2.925109 1_454
Cr0 I2 2.925109 1_544
Cr1 I1 2.803930 1_455
Cr1 I2 2.803930 1_545
Cr1 I4 2.803930 1_545
Cr1 I3 2.803930 1_455
Cr1 I5 3.032248 1_555
Cr1 I0 3.032248 1_445
I0 Rb1 3.792363 1_556
I0 Rb0 4.081686 1_565
I0 Rb0 4.081686 1_655
I1 Rb1 3.935274 1_555
I1 Rb0 3.990547 1_555
I1 Rb0 4.101787 1_655
I2 Rb1 3.935274 1_555
I2 Rb0 3.990547 1_555
I2 Rb0 4.101787 1_565
I3 Rb0 3.935274 1_555
I3 Rb1 3.990547 1_555
I3 Rb1 4.101787 1_545
I4 Rb0 3.935274 1_555
I4 Rb1 3.990547 1_555
I4 Rb1 4.101787 1_455
I5 Rb0 3.792363 1_554
I5 Rb1 4.081686 1_455
I5 Rb1 4.081686 1_545
