# generated using pymatgen
data_Na11La7Th2Ti20O60
_symmetry_space_group_name_H-M   'P 1'
_cell_length_a   5.50818100
_cell_length_b   5.50865732
_cell_length_c   38.84190001
_cell_angle_alpha   89.94154169
_cell_angle_beta   89.97806375
_cell_angle_gamma   89.79483900
_symmetry_Int_Tables_number   1
_chemical_formula_structural   Na11La7Th2Ti20O60
_chemical_formula_sum   'Na11 La7 Th2 Ti20 O60'
_cell_volume   1178.55914935
_cell_formula_units_Z   1
loop_
 _symmetry_equiv_pos_site_id
 _symmetry_equiv_pos_as_xyz
  1  'x, y, z'
loop_
 _atom_site_type_symbol
 _atom_site_label
 _atom_site_symmetry_multiplicity
 _atom_site_fract_x
 _atom_site_fract_y
 _atom_site_fract_z
 _atom_site_occupancy
  Na  Na0  1  0.01071800  0.00728700  0.15055900  1
  Na  Na1  1  0.01439000  0.00716800  0.34796100  1
  Na  Na2  1  0.01393300  0.00541000  0.55361900  1
  Na  Na3  1  0.00614800  0.00731800  0.74872200  1
  Na  Na4  1  0.00575100  0.00690200  0.94889600  1
  Na  Na5  1  0.49551500  0.50665000  0.04901000  1
  Na  Na6  1  0.50134700  0.50888200  0.64738000  1
  Na  Na7  1  0.50243800  0.50598800  0.25363200  1
  Na  Na8  1  0.49407600  0.50727400  0.84887600  1
  Na  Na9  1  0.51340900  0.49387100  0.34557300  1
  Na  Na10  1  0.51381100  0.49678500  0.55610300  1
  La  La0  1  0.50587400  0.49427900  0.74867400  1
  La  La1  1  0.50667700  0.49450800  0.94906000  1
  La  La2  1  0.99993400  0.99584400  0.25280700  1
  La  La3  1  0.99150300  0.99404400  0.04862000  1
  La  La4  1  0.00153500  0.99461200  0.64839600  1
  La  La5  1  0.99523100  0.99937700  0.45004300  1
  La  La6  1  0.99281400  0.99430000  0.84897000  1
  Th  Th0  1  0.49003600  0.49899000  0.45017500  1
  Th  Th1  1  0.52466400  0.49495900  0.15060000  1
  Ti  Ti0  1  0.99993400  0.50959900  0.99904900  1
  Ti  Ti1  1  0.00794600  0.50879800  0.09971400  1
  Ti  Ti2  1  0.01127000  0.50568700  0.20091500  1
  Ti  Ti3  1  0.01221500  0.50373800  0.30150400  1
  Ti  Ti4  1  0.00066300  0.49506600  0.39629700  1
  Ti  Ti5  1  0.99938500  0.51025400  0.79869600  1
  Ti  Ti6  1  0.50295700  0.00614500  0.09921700  1
  Ti  Ti7  1  0.49845700  0.00660600  0.99887200  1
  Ti  Ti8  1  0.49873800  0.99961400  0.50422800  1
  Ti  Ti9  1  0.51197900  0.00475100  0.30177000  1
  Ti  Ti10  1  0.50685100  0.00240800  0.20170500  1
  Ti  Ti11  1  0.51576300  0.00495400  0.59901700  1
  Ti  Ti12  1  0.50043000  0.01063800  0.89877400  1
  Ti  Ti13  1  0.50151800  0.99993700  0.39603700  1
  Ti  Ti14  1  0.50475000  0.00876600  0.69841500  1
  Ti  Ti15  1  0.49847400  0.00636500  0.79858500  1
  Ti  Ti16  1  0.99759800  0.49619900  0.50401300  1
  Ti  Ti17  1  0.00452300  0.50597800  0.69868300  1
  Ti  Ti18  1  0.01574500  0.50076400  0.59911900  1
  Ti  Ti19  1  0.00179700  0.50662500  0.89877600  1
  O  O0  1  0.00067600  0.42045700  0.05137100  1
  O  O1  1  0.99540400  0.42682600  0.24871100  1
  O  O2  1  0.00690300  0.43023200  0.44936600  1
  O  O3  1  0.99532700  0.42801700  0.65037500  1
  O  O4  1  0.00211800  0.42294500  0.85091200  1
  O  O5  1  0.26247500  0.26682900  0.18934200  1
  O  O6  1  0.24411100  0.24937200  0.59355400  1
  O  O7  1  0.25928600  0.25891600  0.39452300  1
  O  O8  1  0.26426300  0.26690100  0.11053300  1
  O  O9  1  0.24316500  0.24637900  0.30576700  1
  O  O10  1  0.25539900  0.25286800  0.79289600  1
  O  O11  1  0.25511300  0.25187700  0.99307400  1
  O  O12  1  0.25889200  0.25912200  0.50429900  1
  O  O13  1  0.25368200  0.25338900  0.70831800  1
  O  O14  1  0.25680100  0.25306400  0.90867900  1
  O  O15  1  0.23970200  0.75728000  0.20648200  1
  O  O16  1  0.24205100  0.75196200  0.00870000  1
  O  O17  1  0.23841300  0.75900600  0.09279400  1
  O  O18  1  0.23849100  0.75021700  0.29161000  1
  O  O19  1  0.25031600  0.74811200  0.48883100  1
  O  O20  1  0.24330500  0.75056400  0.69298800  1
  O  O21  1  0.23766400  0.75322100  0.60800200  1
  O  O22  1  0.25064200  0.74792300  0.41069900  1
  O  O23  1  0.24350600  0.75203200  0.89304700  1
  O  O24  1  0.24224400  0.75303700  0.80842600  1
  O  O25  1  0.49421400  0.90717900  0.14969000  1
  O  O26  1  0.48819700  0.92160600  0.35039800  1
  O  O27  1  0.48799300  0.92238600  0.54924200  1
  O  O28  1  0.49633400  0.92382100  0.75076800  1
  O  O29  1  0.49713300  0.92269400  0.95105700  1
  O  O30  1  0.50089200  0.06907700  0.05112500  1
  O  O31  1  0.49381800  0.06923600  0.24892700  1
  O  O32  1  0.49548800  0.06908100  0.65042000  1
  O  O33  1  0.49335600  0.08211700  0.44937900  1
  O  O34  1  0.50287000  0.06741200  0.85084600  1
  O  O35  1  0.74751800  0.24828000  0.10972500  1
  O  O36  1  0.74715800  0.24829600  0.19031800  1
  O  O37  1  0.75370400  0.23518700  0.30598200  1
  O  O38  1  0.75022500  0.24438700  0.70812100  1
  O  O39  1  0.75797400  0.23927100  0.39530500  1
  O  O40  1  0.75380200  0.23762600  0.59340400  1
  O  O41  1  0.75658500  0.24042400  0.50358100  1
  O  O42  1  0.75214600  0.24314300  0.79300700  1
  O  O43  1  0.75244200  0.24315400  0.90846200  1
  O  O44  1  0.75207000  0.24189800  0.99322200  1
  O  O45  1  0.74204200  0.74501100  0.09259400  1
  O  O46  1  0.74592500  0.74297500  0.00860000  1
  O  O47  1  0.74026400  0.74517700  0.20675800  1
  O  O48  1  0.74682700  0.75030300  0.29116700  1
  O  O49  1  0.73824700  0.73920000  0.48839700  1
  O  O50  1  0.74524500  0.74540000  0.69300100  1
  O  O51  1  0.73824300  0.73904300  0.41109800  1
  O  O52  1  0.74676200  0.75269900  0.60847000  1
  O  O53  1  0.74666400  0.74402400  0.80845800  1
  O  O54  1  0.74688000  0.74299700  0.89312000  1
  O  O55  1  0.97515600  0.57259200  0.14980800  1
  O  O56  1  0.98668400  0.57589100  0.35037700  1
  O  O57  1  0.98594900  0.57600000  0.54911900  1
  O  O58  1  0.99457300  0.56786300  0.75067700  1
  O  O59  1  0.99587500  0.56666200  0.95101800  1
loop_
_geom_bond_atom_site_label_1
_geom_bond_atom_site_label_2
_geom_bond_distance
_geom_bond_site_symmetry_2
Na0 O55 2.403491 1_445
Na0 O36 2.498745 1_455
Na0 O5 2.501314 1_555
Na0 O35 2.522591 1_455
Na0 O8 2.533934 1_555
Na0 O25 2.717949 1_545
Na0 O15 2.861703 1_545
Na0 O25 2.900105 1_445
Na0 O17 2.910257 1_545
Na1 O56 2.382950 1_445
Na1 O9 2.452801 1_555
Na1 O37 2.506577 1_455
Na1 O39 2.645965 1_455
Na1 O26 2.652081 1_545
Na1 O7 2.652182 1_555
Na2 O57 2.377656 1_445
Na2 O6 2.416109 1_555
Na2 O40 2.463056 1_455
Na2 O27 2.654760 1_545
Na2 O41 2.728861 1_455
Na2 O12 2.729428 1_555
Na2 O21 2.809689 1_545
Na2 O27 2.939481 1_445
Na2 O52 2.940908 1_445
Na3 O58 2.422987 1_445
Na3 O38 2.482728 1_455
Na3 O13 2.483272 1_555
Na3 O42 2.567790 1_455
Na3 O10 2.584258 1_555
Na4 O59 2.427251 1_445
Na4 O43 2.468114 1_455
Na4 O14 2.489706 1_555
Na4 O44 2.565598 1_455
Na4 O11 2.583023 1_555
Na5 O30 2.411832 1_555
Na5 O46 2.463317 1_555
Na5 O16 2.492108 1_555
Na5 O45 2.540267 1_555
Na5 O17 2.611345 1_555
Na6 O32 2.425798 1_555
Na6 O52 2.433661 1_555
Na6 O21 2.498817 1_555
Na6 O50 2.580975 1_555
Na6 O20 2.630635 1_555
Na6 O3 2.758059 1_555
Na6 O3 2.826529 1_455
Na6 O6 2.906054 1_555
Na6 O40 2.924244 1_555
Na7 O48 2.401549 1_555
Na7 O31 2.413672 1_555
Na7 O18 2.467426 1_555
Na7 O47 2.602434 1_555
Na7 O15 2.710560 1_555
Na7 O1 2.755194 1_555
Na7 O1 2.834771 1_455
Na7 O9 2.862155 1_555
Na7 O37 2.873432 1_555
Na8 O34 2.424490 1_555
Na8 O53 2.471509 1_555
Na8 O24 2.491866 1_555
Na8 O54 2.568623 1_555
Na8 O23 2.579912 1_555
Na9 O26 2.367454 1_555
Na9 O37 2.477240 1_555
Na9 O9 2.546695 1_555
Na9 O56 2.654013 1_555
Na9 O7 2.693583 1_555
Na9 O39 2.737894 1_555
Na9 O48 2.849396 1_555
Na9 O56 2.940553 1_455
Na9 O18 2.943058 1_555
Na10 O27 2.363100 1_555
Na10 O40 2.422483 1_555
Na10 O6 2.487824 1_555
Na10 O57 2.652279 1_555
Na10 O12 2.784805 1_555
Na10 O52 2.791399 1_555
Na10 O41 2.816847 1_555
Na10 O21 2.891520 1_555
Na10 O57 2.951133 1_455
La0 O28 2.368074 1_555
La0 O13 2.483286 1_555
La0 O38 2.485381 1_555
La0 O10 2.574686 1_555
La0 O42 2.588952 1_555
La0 O58 2.724778 1_555
La0 O58 2.844968 1_455
La0 O50 2.886695 1_555
La0 O20 2.957153 1_555
La0 O53 3.010985 1_555
La0 O24 3.084848 1_555
La0 O28 3.144054 1_545
La1 O29 2.360481 1_555
La1 O14 2.478405 1_555
La1 O43 2.495146 1_555
La1 O11 2.576034 1_555
La1 O44 2.586351 1_555
La1 O59 2.726257 1_555
La1 O59 2.841117 1_455
La1 O54 2.889654 1_555
La1 O23 2.971301 1_555
La1 O46 2.996680 1_556
La1 O16 3.080846 1_556
La1 O29 3.151429 1_545
La2 O1 2.379337 1_565
La2 O18 2.411155 1_655
La2 O48 2.449702 1_555
La2 O15 2.588337 1_655
La2 O47 2.678216 1_555
La2 O31 2.755756 1_665
La2 O37 2.798997 1_565
La2 O31 2.819574 1_565
La2 O9 2.819989 1_665
La2 O36 3.121804 1_565
La2 O1 3.138911 1_555
La2 O5 3.225145 1_665
La3 O0 2.352225 1_665
La3 O16 2.465073 1_655
La3 O46 2.485623 1_555
La3 O17 2.540600 1_655
La3 O45 2.587339 1_555
La3 O30 2.734048 1_565
La3 O30 2.839271 1_665
La3 O44 2.866508 1_564
La3 O11 2.964221 1_664
La3 O35 3.064564 1_565
La3 O0 3.161615 1_655
La3 O8 3.213401 1_665
La4 O3 2.388917 1_465
La4 O21 2.431436 1_555
La4 O52 2.483843 1_455
La4 O20 2.562217 1_555
La4 O50 2.624190 1_455
La4 O32 2.754150 1_565
La4 O32 2.817049 1_465
La4 O40 2.863542 1_465
La4 O6 2.880548 1_565
La4 O38 3.030080 1_465
La4 O13 3.066213 1_565
La4 O3 3.122355 1_455
La5 O2 2.374652 1_665
La5 O19 2.478564 1_655
La5 O22 2.494400 1_655
La5 O49 2.507131 1_555
La5 O51 2.523731 1_555
La6 O4 2.363280 1_665
La6 O24 2.474571 1_655
La6 O53 2.496922 1_555
La6 O23 2.569603 1_655
La6 O54 2.588255 1_555
La6 O34 2.728117 1_565
La6 O34 2.840602 1_665
La6 O42 2.888688 1_565
La6 O10 2.978350 1_665
La6 O43 2.993840 1_565
La6 O14 3.090173 1_665
La6 O4 3.148460 1_655
O0 Ti1 1.940714 1_555
O0 Ti0 2.090285 1_454
O1 Ti2 1.908246 1_655
O1 Ti3 2.096464 1_655
O2 Ti4 2.091928 1_555
O2 Ti16 2.154400 1_455
O3 Ti17 1.926047 1_655
O3 Ti18 2.033560 1_655
O4 Ti19 1.915879 1_555
O4 Ti5 2.083985 1_455
O5 Ti2 1.958477 1_555
O5 Ti10 2.036962 1_555
O5 Th1 2.436570 1_555
O6 Ti18 1.880074 1_555
O6 Ti11 2.020404 1_555
O7 Ti4 1.926958 1_555
O7 Ti13 1.950698 1_545
O8 Ti1 1.982765 1_555
O8 Ti6 1.993093 1_555
O8 Th1 2.464995 1_555
O9 Ti3 1.908492 1_555
O9 Ti9 1.993570 1_555
O10 Ti15 1.916239 1_555
O10 Ti5 2.008912 1_455
O11 Ti7 1.912980 1_555
O11 Ti0 2.007780 1_455
O12 Ti16 1.940019 1_455
O12 Ti8 1.943044 1_545
O13 Ti14 1.965611 1_555
O13 Ti17 1.986277 1_555
O14 Ti12 1.928750 1_555
O14 Ti19 2.014235 1_555
O15 Ti2 1.887875 1_555
O15 Ti10 2.009140 1_565
O16 Ti0 1.927617 1_454
O16 Ti7 2.029971 1_564
O17 Ti1 1.896051 1_555
O17 Ti6 2.013491 1_565
O18 Ti3 1.885563 1_555
O18 Ti9 2.099464 1_565
O19 Ti8 2.040928 1_555
O19 Ti16 2.054923 1_455
O19 Th0 2.422999 1_555
O20 Ti17 1.898950 1_555
O20 Ti14 2.038839 1_565
O21 Ti18 1.886997 1_555
O21 Ti11 2.098821 1_565
O22 Ti4 2.040823 1_555
O22 Ti13 2.042714 1_555
O22 Th0 2.440202 1_555
O23 Ti19 1.913548 1_555
O23 Ti12 2.024095 1_565
O24 Ti5 1.932665 1_455
O24 Ti15 2.024368 1_565
O25 Ti6 2.034919 1_565
O25 Ti10 2.089121 1_565
O25 Th1 2.276605 1_555
O26 Ti13 1.826457 1_555
O26 Ti9 1.947561 1_565
O27 Ti8 1.800021 1_555
O27 Ti11 1.992651 1_565
O28 Ti15 1.912655 1_565
O28 Ti14 2.086704 1_565
O29 Ti7 1.914365 1_565
O29 Ti12 2.087363 1_565
O30 Ti6 1.899564 1_555
O30 Ti7 2.058977 1_554
O31 Ti10 1.872438 1_555
O31 Ti9 2.085055 1_555
O32 Ti14 1.893935 1_555
O32 Ti11 2.030916 1_555
O33 Ti13 2.121661 1_545
O33 Ti8 2.178114 1_545
O33 Th0 2.296657 1_555
O34 Ti12 1.887438 1_555
O34 Ti15 2.058088 1_555
O35 Ti6 1.942873 1_555
O35 Ti1 2.069215 1_655
O35 Th1 2.421770 1_555
O36 Ti10 1.947706 1_555
O36 Ti2 2.076679 1_655
O36 Th1 2.390286 1_555
O37 Ti9 1.850302 1_555
O37 Ti3 2.064141 1_655
O38 Ti14 1.915465 1_555
O38 Ti17 2.045950 1_655
O39 Ti13 1.935897 1_545
O39 Ti4 1.946180 1_655
O40 Ti11 1.849515 1_555
O40 Ti18 2.061085 1_655
O41 Ti16 1.939415 1_555
O41 Ti8 1.947023 1_545
O42 Ti15 1.926869 1_555
O42 Ti5 2.020831 1_555
O43 Ti12 1.929559 1_555
O43 Ti19 2.036485 1_655
O44 Ti7 1.921395 1_555
O44 Ti0 2.026132 1_555
O45 Ti6 1.963841 1_565
O45 Ti1 1.975036 1_655
O46 Ti0 1.932774 1_554
O46 Ti7 2.023598 1_564
O47 Ti10 1.919885 1_565
O47 Ti2 2.001631 1_655
O48 Ti9 1.948186 1_565
O48 Ti3 2.031754 1_655
O49 Ti8 2.040603 1_555
O49 Ti16 2.045937 1_555
O49 Th0 2.417181 1_555
O50 Ti17 1.952936 1_655
O50 Ti14 1.972428 1_565
O51 Ti13 2.023206 1_555
O51 Ti4 2.052603 1_655
O51 Th0 2.434927 1_555
O52 Ti11 1.916085 1_565
O52 Ti18 2.058890 1_655
O53 Ti5 1.930701 1_555
O53 Ti15 2.022258 1_565
O54 Ti19 1.924018 1_655
O54 Ti12 2.012659 1_565
O55 Ti1 1.985627 1_655
O55 Ti2 2.028369 1_655
O55 Th1 2.519653 1_555
O56 Ti4 1.839485 1_655
O56 Ti3 1.944816 1_655
O57 Ti16 1.807805 1_555
O57 Ti18 1.992122 1_655
O58 Ti5 1.891815 1_555
O58 Ti17 2.049139 1_655
O59 Ti0 1.891723 1_555
O59 Ti19 2.056514 1_655
