# generated using pymatgen
data_BaLa2Mn3O9
_symmetry_space_group_name_H-M   'P 1'
_cell_length_a   5.62938129
_cell_length_b   5.62938129
_cell_length_c   13.67027400
_cell_angle_alpha   90.00000000
_cell_angle_beta   90.00000000
_cell_angle_gamma   119.99999166
_symmetry_Int_Tables_number   1
_chemical_formula_structural   BaLa2Mn3O9
_chemical_formula_sum   'Ba2 La4 Mn6 O18'
_cell_volume   375.17096328
_cell_formula_units_Z   2
loop_
 _symmetry_equiv_pos_site_id
 _symmetry_equiv_pos_as_xyz
  1  'x, y, z'
loop_
 _atom_site_type_symbol
 _atom_site_label
 _atom_site_symmetry_multiplicity
 _atom_site_fract_x
 _atom_site_fract_y
 _atom_site_fract_z
 _atom_site_occupancy
  Ba  Ba0  1  0.00000000  0.00000000  0.75000000  1
  Ba  Ba1  1  0.00000000  0.00000000  0.25000000  1
  La  La0  1  0.66666700  0.33333300  0.41796400  1
  La  La1  1  0.33333300  0.66666700  0.08203600  1
  La  La2  1  0.33333300  0.66666700  0.58203600  1
  La  La3  1  0.66666700  0.33333300  0.91796400  1
  Mn  Mn0  1  0.33333300  0.66666700  0.83328100  1
  Mn  Mn1  1  0.66666700  0.33333300  0.16671900  1
  Mn  Mn2  1  0.00000000  0.00000000  0.50000000  1
  Mn  Mn3  1  0.00000000  0.00000000  0.00000000  1
  Mn  Mn4  1  0.33333300  0.66666700  0.33328100  1
  Mn  Mn5  1  0.66666700  0.33333300  0.66671900  1
  O  O0  1  0.77112200  0.11206800  0.57675800  1
  O  O1  1  0.65905400  0.88793200  0.92324200  1
  O  O2  1  0.22887800  0.34094600  0.92324200  1
  O  O3  1  0.11206800  0.77112200  0.92324200  1
  O  O4  1  0.77112200  0.65905400  0.07675800  1
  O  O5  1  0.34094600  0.11206800  0.07675800  1
  O  O6  1  0.00000000  0.52087300  0.25000000  1
  O  O7  1  0.52087300  0.00000000  0.25000000  1
  O  O8  1  0.22887800  0.88793200  0.42324200  1
  O  O9  1  0.47912700  0.47912700  0.25000000  1
  O  O10  1  0.11206800  0.34094600  0.42324200  1
  O  O11  1  0.65905400  0.77112200  0.42324200  1
  O  O12  1  0.34094600  0.22887800  0.57675800  1
  O  O13  1  0.88793200  0.65905400  0.57675800  1
  O  O14  1  0.52087300  0.52087300  0.75000000  1
  O  O15  1  0.47912700  0.00000000  0.75000000  1
  O  O16  1  0.00000000  0.47912700  0.75000000  1
  O  O17  1  0.88793200  0.22887800  0.07675800  1
loop_
_geom_bond_atom_site_label_1
_geom_bond_atom_site_label_2
_geom_bond_distance
_geom_bond_site_symmetry_2
Ba0 O15 2.697189 1_555
Ba0 O16 2.697189 1_555
Ba0 O14 2.697189 1_445
Ba0 O0 2.911977 1_455
Ba0 O3 2.911977 1_545
Ba0 O13 2.911977 1_445
Ba0 O1 2.911977 1_445
Ba0 O2 2.911977 1_555
Ba0 O12 2.911977 1_555
Ba0 O16 2.932193 1_545
Ba0 O15 2.932193 1_455
Ba0 O14 2.932193 1_555
Ba1 O7 2.697189 1_455
Ba1 O6 2.697189 1_545
Ba1 O9 2.697189 1_555
Ba1 O8 2.911977 1_545
Ba1 O17 2.911977 1_455
Ba1 O10 2.911977 1_555
Ba1 O5 2.911977 1_555
Ba1 O11 2.911977 1_445
Ba1 O4 2.911977 1_445
Ba1 O6 2.932193 1_555
Ba1 O7 2.932193 1_555
Ba1 O9 2.932193 1_445
La0 O10 2.487228 1_655
La0 O8 2.487231 1_545
La0 O11 2.487233 1_555
La0 O0 2.709587 1_555
La0 O13 2.709589 1_555
La0 O12 2.709590 1_555
La0 O7 2.815452 1_555
La0 O6 2.815452 1_655
La0 O9 2.815454 1_555
La1 O5 2.487228 1_565
La1 O17 2.487231 1_455
La1 O4 2.487233 1_555
La1 O3 2.709587 1_554
La1 O1 2.709589 1_554
La1 O2 2.709590 1_554
La1 O6 2.815452 1_555
La1 O7 2.815452 1_565
La1 O9 2.815454 1_555
La2 O13 2.487228 1_455
La2 O0 2.487231 1_565
La2 O12 2.487233 1_555
La2 O8 2.709587 1_555
La2 O10 2.709589 1_555
La2 O11 2.709590 1_555
La2 O15 2.815452 1_565
La2 O16 2.815452 1_555
La2 O14 2.815454 1_555
La3 O1 2.487228 1_545
La3 O3 2.487231 1_655
La3 O2 2.487233 1_555
La3 O17 2.709587 1_556
La3 O5 2.709589 1_556
La3 O4 2.709590 1_556
La3 O16 2.815452 1_655
La3 O15 2.815452 1_555
La3 O14 2.815454 1_555
Mn0 O15 1.987650 1_565
Mn0 O16 1.987650 1_555
Mn0 O14 1.987654 1_555
Mn0 O3 2.035205 1_555
Mn0 O1 2.035208 1_555
Mn0 O2 2.035209 1_555
Mn1 O7 1.987650 1_555
Mn1 O6 1.987650 1_655
Mn1 O9 1.987654 1_555
Mn1 O17 2.035205 1_555
Mn1 O5 2.035208 1_555
Mn1 O4 2.035209 1_555
Mn2 O0 1.992978 1_455
Mn2 O8 1.992978 1_545
Mn2 O10 1.992979 1_555
Mn2 O13 1.992979 1_445
Mn2 O12 1.992979 1_555
Mn2 O11 1.992979 1_445
Mn3 O17 1.992978 1_455
Mn3 O3 1.992978 1_544
Mn3 O5 1.992979 1_555
Mn3 O1 1.992979 1_444
Mn3 O4 1.992979 1_445
Mn3 O2 1.992979 1_554
Mn4 O6 1.987650 1_555
Mn4 O7 1.987650 1_565
Mn4 O9 1.987654 1_555
Mn4 O8 2.035205 1_555
Mn4 O10 2.035208 1_555
Mn4 O11 2.035209 1_555
Mn5 O16 1.987650 1_655
Mn5 O15 1.987650 1_555
Mn5 O14 1.987654 1_555
Mn5 O0 2.035205 1_555
Mn5 O13 2.035208 1_555
Mn5 O12 2.035209 1_555
