# generated using pymatgen
data_LiNi(PO3)4
_symmetry_space_group_name_H-M   'P 1'
_cell_length_a   9.21590500
_cell_length_b   9.48459800
_cell_length_c   10.43798900
_cell_angle_alpha   90.00000000
_cell_angle_beta   90.00000000
_cell_angle_gamma   90.00000000
_symmetry_Int_Tables_number   1
_chemical_formula_structural   LiNi(PO3)4
_chemical_formula_sum   'Li4 Ni4 P16 O48'
_cell_volume   912.37578932
_cell_formula_units_Z   4
loop_
 _symmetry_equiv_pos_site_id
 _symmetry_equiv_pos_as_xyz
  1  'x, y, z'
loop_
 _atom_site_type_symbol
 _atom_site_label
 _atom_site_symmetry_multiplicity
 _atom_site_fract_x
 _atom_site_fract_y
 _atom_site_fract_z
 _atom_site_occupancy
  Li  Li0  1  0.15094000  0.25112200  0.67162800  1
  Li  Li1  1  0.84906000  0.75112200  0.82837200  1
  Li  Li2  1  0.34906000  0.74887800  0.17162800  1
  Li  Li3  1  0.65094000  0.24887800  0.32837200  1
  Ni  Ni0  1  0.99892100  0.26381500  0.29395000  1
  Ni  Ni1  1  0.50107900  0.73618500  0.79395000  1
  Ni  Ni2  1  0.00107900  0.76381500  0.20605000  1
  Ni  Ni3  1  0.49892100  0.23618500  0.70605000  1
  P  P0  1  0.00312900  0.55868600  0.60626800  1
  P  P1  1  0.79411300  0.53731800  0.38743800  1
  P  P2  1  0.70127500  0.95421100  0.61066100  1
  P  P3  1  0.99867400  0.48140600  0.01554500  1
  P  P4  1  0.20127500  0.54578900  0.38933900  1
  P  P5  1  0.79872500  0.04578900  0.11066100  1
  P  P6  1  0.00132600  0.98140600  0.48445500  1
  P  P7  1  0.29411300  0.96268200  0.61256200  1
  P  P8  1  0.50312900  0.94131400  0.39373200  1
  P  P9  1  0.49867400  0.01859400  0.98445500  1
  P  P10  1  0.20588700  0.03731800  0.11256200  1
  P  P11  1  0.50132600  0.51859400  0.51554500  1
  P  P12  1  0.99687100  0.05868600  0.89373200  1
  P  P13  1  0.49687100  0.44131400  0.10626800  1
  P  P14  1  0.70588700  0.46268200  0.88743800  1
  P  P15  1  0.29872500  0.45421100  0.88933900  1
  O  O0  1  0.99235200  0.63754900  0.04211200  1
  O  O1  1  0.50004600  0.11817100  0.87354800  1
  O  O2  1  0.49212200  0.85130400  0.27632400  1
  O  O3  1  0.65066400  0.10383000  0.62318400  1
  O  O4  1  0.86663100  0.11759700  0.98249000  1
  O  O5  1  0.12612700  0.93635200  0.58498700  1
  O  O6  1  0.99995400  0.88182900  0.37354800  1
  O  O7  1  0.86968200  0.94514900  0.57968800  1
  O  O8  1  0.63336900  0.88240300  0.48249000  1
  O  O9  1  0.49235200  0.86245100  0.95788800  1
  O  O10  1  0.31999800  0.11920800  0.63132700  1
  O  O11  1  0.13031800  0.44514900  0.92031200  1
  O  O12  1  0.97905700  0.90319000  0.87029600  1
  O  O13  1  0.68000200  0.61920800  0.86867300  1
  O  O14  1  0.00004600  0.38182900  0.12645200  1
  O  O15  1  0.02094300  0.40319000  0.62970400  1
  O  O16  1  0.13986000  0.08905200  0.97717300  1
  O  O17  1  0.18000200  0.88079200  0.13132700  1
  O  O18  1  0.62612700  0.56364800  0.41501300  1
  O  O19  1  0.99212200  0.64869600  0.72367600  1
  O  O20  1  0.81999800  0.38079200  0.36867300  1
  O  O21  1  0.63986000  0.41094800  0.02282700  1
  O  O22  1  0.00787800  0.14869600  0.77632400  1
  O  O23  1  0.82171900  0.14461500  0.22266600  1
  O  O24  1  0.63031800  0.05485100  0.07968800  1
  O  O25  1  0.84933600  0.89617000  0.12318400  1
  O  O26  1  0.50787800  0.35130400  0.22367600  1
  O  O27  1  0.15869100  0.13510300  0.21678200  1
  O  O28  1  0.65869100  0.36489700  0.78321800  1
  O  O29  1  0.36663100  0.38240300  0.01751000  1
  O  O30  1  0.37387300  0.06364800  0.08498700  1
  O  O31  1  0.67828100  0.85538500  0.72266600  1
  O  O32  1  0.50764800  0.36245100  0.54211200  1
  O  O33  1  0.36014000  0.91094800  0.47717300  1
  O  O34  1  0.00764800  0.13754900  0.45788800  1
  O  O35  1  0.87387300  0.43635200  0.91501300  1
  O  O36  1  0.34130900  0.86489700  0.71678200  1
  O  O37  1  0.17828100  0.64461500  0.27733400  1
  O  O38  1  0.86014000  0.58905200  0.52282700  1
  O  O39  1  0.36968200  0.55485100  0.42031200  1
  O  O40  1  0.52094300  0.09681000  0.37029600  1
  O  O41  1  0.13336900  0.61759700  0.51751000  1
  O  O42  1  0.34933600  0.60383000  0.87681600  1
  O  O43  1  0.49995400  0.61817100  0.62645200  1
  O  O44  1  0.47905700  0.59681000  0.12970400  1
  O  O45  1  0.32171900  0.35538500  0.77733400  1
  O  O46  1  0.84130900  0.63510300  0.28321800  1
  O  O47  1  0.15066400  0.39617000  0.37681600  1
loop_
_geom_bond_atom_site_label_1
_geom_bond_atom_site_label_2
_geom_bond_distance
_geom_bond_site_symmetry_2
Li0 O15 1.925366 1_555
Li0 O22 1.968832 1_555
Li0 O10 2.042001 1_555
Li0 O45 2.161577 1_555
Li1 O12 1.925366 1_555
Li1 O19 1.968832 1_555
Li1 O13 2.042001 1_555
Li1 O31 2.161577 1_555
Li2 O44 1.925366 1_555
Li2 O2 1.968832 1_555
Li2 O17 2.042001 1_555
Li2 O37 2.161577 1_555
Li3 O40 1.925366 1_555
Li3 O26 1.968832 1_555
Li3 O20 2.042001 1_555
Li3 O23 2.161577 1_555
Ni0 O47 2.068736 1_655
Ni0 O27 2.075365 1_655
Ni0 O14 2.075976 1_655
Ni0 O34 2.090172 1_655
Ni0 O23 2.121024 1_555
Ni0 O20 2.135012 1_555
Ni1 O42 2.068736 1_555
Ni1 O36 2.075365 1_555
Ni1 O43 2.075976 1_555
Ni1 O9 2.090172 1_555
Ni1 O31 2.121024 1_555
Ni1 O13 2.135012 1_555
Ni2 O25 2.068736 1_455
Ni2 O46 2.075365 1_455
Ni2 O6 2.075976 1_455
Ni2 O0 2.090172 1_455
Ni2 O37 2.121024 1_555
Ni2 O17 2.135012 1_555
Ni3 O3 2.068736 1_555
Ni3 O28 2.075365 1_555
Ni3 O1 2.075976 1_555
Ni3 O32 2.090172 1_555
Ni3 O45 2.121024 1_555
Ni3 O10 2.135012 1_555
O0 P3 1.507819 1_555
O1 P9 1.494084 1_555
O2 P8 1.496986 1_555
O3 P2 1.499472 1_545
O4 P12 1.615917 1_555
O4 P5 1.626449 1_556
O5 P7 1.594351 1_555
O5 P6 1.614495 1_555
O6 P6 1.494084 1_655
O7 P2 1.587666 1_555
O7 P6 1.605700 1_655
O8 P8 1.615917 1_555
O8 P2 1.626449 1_555
O9 P9 1.507819 1_565
O10 P7 1.516334 1_545
O11 P15 1.587666 1_555
O11 P3 1.605700 1_456
O12 P12 1.503954 1_565
O13 P14 1.516334 1_555
O14 P3 1.494084 1_455
O15 P0 1.503954 1_555
O16 P12 1.605628 1_455
O16 P10 1.614973 1_556
O17 P10 1.516334 1_565
O18 P1 1.594351 1_555
O18 P11 1.614495 1_555
O19 P0 1.496986 1_655
O20 P1 1.516334 1_555
O21 P13 1.605628 1_555
O21 P14 1.614973 1_554
O22 P12 1.496986 1_455
O23 P5 1.513372 1_555
O24 P5 1.587666 1_555
O24 P9 1.605700 1_554
O25 P5 1.499472 1_565
O26 P13 1.496986 1_555
O27 P10 1.494243 1_555
O28 P14 1.494243 1_555
O29 P13 1.615917 1_555
O29 P15 1.626449 1_554
O30 P10 1.594351 1_555
O30 P9 1.614495 1_554
O31 P2 1.513372 1_555
O32 P11 1.507819 1_555
O33 P8 1.605628 1_555
O33 P7 1.614973 1_555
O34 P6 1.507819 1_545
O35 P14 1.594351 1_555
O35 P3 1.614495 1_556
O36 P7 1.494243 1_555
O37 P4 1.513372 1_555
O38 P0 1.605628 1_655
O38 P1 1.614973 1_555
O39 P4 1.587666 1_555
O39 P11 1.605700 1_555
O40 P8 1.503954 1_545
O41 P0 1.615917 1_555
O41 P4 1.626449 1_555
O42 P15 1.499472 1_555
O43 P11 1.494084 1_555
O44 P13 1.503954 1_555
O45 P15 1.513372 1_555
O46 P1 1.494243 1_555
O47 P4 1.499472 1_555
