# generated using pymatgen
data_C
_symmetry_space_group_name_H-M   'P 1'
_cell_length_a   9.84758869
_cell_length_b   9.84758949
_cell_length_c   9.84758976
_cell_angle_alpha   55.32684556
_cell_angle_beta   55.32684156
_cell_angle_gamma   55.32684541
_symmetry_Int_Tables_number   1
_chemical_formula_structural   C
_chemical_formula_sum   C60
_cell_volume   601.94380892
_cell_formula_units_Z   60
loop_
 _symmetry_equiv_pos_site_id
 _symmetry_equiv_pos_as_xyz
  1  'x, y, z'
loop_
 _atom_site_type_symbol
 _atom_site_label
 _atom_site_symmetry_multiplicity
 _atom_site_fract_x
 _atom_site_fract_y
 _atom_site_fract_z
 _atom_site_occupancy
  C  C0  1  0.87697247  0.02952458  0.71887639  1
  C  C1  1  0.24902233  0.24902233  0.57134656  1
  C  C2  1  0.02952458  0.71887639  0.87697247  1
  C  C3  1  0.47184792  0.91686837  0.64475314  1
  C  C4  1  0.71887639  0.02952458  0.87697247  1
  C  C5  1  0.52815208  0.08313163  0.35524686  1
  C  C6  1  0.24902233  0.57134656  0.24902233  1
  C  C7  1  0.91686837  0.64475314  0.47184792  1
  C  C8  1  0.89071853  0.63294352  0.19784268  1
  C  C9  1  0.57134656  0.24902233  0.24902233  1
  C  C10  1  0.19784268  0.89071853  0.63294352  1
  C  C11  1  0.78992982  0.94399596  0.45442803  1
  C  C12  1  0.73847486  0.73847486  0.30735672  1
  C  C13  1  0.30735672  0.73847486  0.73847486  1
  C  C14  1  0.64475314  0.47184792  0.91686837  1
  C  C15  1  0.08313163  0.52815208  0.35524686  1
  C  C16  1  0.97047542  0.28112361  0.12302753  1
  C  C17  1  0.54557197  0.05600404  0.21007018  1
  C  C18  1  0.21007018  0.05600404  0.54557197  1
  C  C19  1  0.97047542  0.12302753  0.28112361  1
  C  C20  1  0.35524686  0.08313163  0.52815208  1
  C  C21  1  0.94399596  0.45442803  0.78992982  1
  C  C22  1  0.45442803  0.94399596  0.78992982  1
  C  C23  1  0.73847486  0.30735672  0.73847486  1
  C  C24  1  0.64475314  0.91686837  0.47184792  1
  C  C25  1  0.12302753  0.97047542  0.28112361  1
  C  C26  1  0.63294352  0.19784268  0.89071853  1
  C  C27  1  0.28112361  0.12302753  0.97047542  1
  C  C28  1  0.19784268  0.63294352  0.89071853  1
  C  C29  1  0.69264328  0.26152514  0.26152514  1
  C  C30  1  0.75097767  0.42865344  0.75097767  1
  C  C31  1  0.02952458  0.87697247  0.71887639  1
  C  C32  1  0.91686837  0.47184792  0.64475314  1
  C  C33  1  0.52815208  0.35524686  0.08313163  1
  C  C34  1  0.05600404  0.21007018  0.54557197  1
  C  C35  1  0.42865344  0.75097767  0.75097767  1
  C  C36  1  0.75097767  0.75097767  0.42865344  1
  C  C37  1  0.45442803  0.78992982  0.94399596  1
  C  C38  1  0.87697247  0.71887639  0.02952458  1
  C  C39  1  0.26152514  0.69264328  0.26152514  1
  C  C40  1  0.05600404  0.54557197  0.21007018  1
  C  C41  1  0.94399596  0.78992982  0.45442803  1
  C  C42  1  0.35524686  0.52815208  0.08313163  1
  C  C43  1  0.26152514  0.26152514  0.69264328  1
  C  C44  1  0.47184792  0.64475314  0.91686837  1
  C  C45  1  0.80215732  0.10928147  0.36705648  1
  C  C46  1  0.08313163  0.35524686  0.52815208  1
  C  C47  1  0.89071853  0.19784268  0.63294352  1
  C  C48  1  0.28112361  0.97047542  0.12302753  1
  C  C49  1  0.21007018  0.54557197  0.05600404  1
  C  C50  1  0.10928147  0.80215732  0.36705648  1
  C  C51  1  0.63294352  0.89071853  0.19784268  1
  C  C52  1  0.36705648  0.10928147  0.80215732  1
  C  C53  1  0.12302753  0.28112361  0.97047542  1
  C  C54  1  0.80215732  0.36705648  0.10928147  1
  C  C55  1  0.78992982  0.45442803  0.94399596  1
  C  C56  1  0.71887639  0.87697247  0.02952458  1
  C  C57  1  0.54557197  0.21007018  0.05600404  1
  C  C58  1  0.10928147  0.36705648  0.80215732  1
  C  C59  1  0.36705648  0.80215732  0.10928147  1
loop_
_geom_bond_atom_site_label_1
_geom_bond_atom_site_label_2
_geom_bond_distance
_geom_bond_site_symmetry_2
C0 C31 1.394938 1_645
C0 C47 1.418048 1_555
C0 C4 1.445632 1_555
C1 C43 1.344995 1_555
C1 C46 1.511269 1_555
C1 C20 1.511269 1_555
C2 C38 1.394938 1_456
C2 C28 1.418048 1_555
C2 C31 1.445633 1_555
C3 C35 1.511269 1_555
C4 C56 1.394939 1_546
C5 C9 1.511269 1_555
C10 C18 1.384120 1_565
C10 C31 1.418048 1_555
C10 C13 1.467507 1_555
C11 C45 1.384120 1_565
C11 C41 1.408783 1_555
C11 C24 1.499341 1_555
C12 C36 1.344995 1_555
C12 C8 1.467507 1_555
C12 C51 1.467507 1_555
C13 C35 1.344995 1_555
C13 C28 1.467507 1_555
C14 C55 1.499341 1_555
C14 C30 1.511269 1_555
C14 C44 1.581048 1_555
C14 C33 1.593632 1_556
C15 C40 1.499341 1_555
C15 C6 1.511269 1_555
C15 C46 1.581048 1_555
C15 C7 1.593632 1_455
C16 C53 1.394938 1_654
C16 C54 1.418048 1_555
C16 C19 1.445633 1_555
C17 C51 1.384120 1_545
C17 C57 1.408783 1_555
C17 C5 1.499341 1_555
C18 C34 1.408783 1_555
C18 C20 1.499341 1_555
C19 C25 1.394938 1_645
C19 C45 1.418048 1_555
C20 C5 1.581047 1_555
C20 C3 1.593632 1_545
C21 C58 1.384120 1_655
C21 C55 1.408783 1_555
C21 C32 1.499341 1_555
C22 C52 1.384120 1_565
C22 C37 1.408783 1_555
C22 C3 1.499341 1_555
C23 C30 1.344995 1_555
C23 C26 1.467507 1_555
C23 C47 1.467507 1_555
C24 C36 1.511269 1_555
C24 C3 1.581047 1_555
C24 C5 1.593632 1_565
C25 C50 1.418048 1_555
C25 C48 1.445632 1_555
C26 C57 1.384120 1_556
C26 C4 1.418048 1_555
C27 C48 1.394939 1_546
C27 C52 1.418048 1_555
C27 C53 1.445633 1_555
C28 C49 1.384120 1_556
C29 C9 1.344995 1_555
C29 C54 1.467507 1_555
C29 C45 1.467507 1_555
C30 C32 1.511269 1_555
C32 C7 1.581048 1_555
C32 C46 1.593632 1_655
C33 C57 1.499341 1_555
C33 C9 1.511269 1_555
C33 C42 1.581048 1_555
C34 C47 1.384120 1_455
C34 C46 1.499341 1_555
C35 C44 1.511269 1_555
C36 C7 1.511269 1_555
C37 C59 1.384120 1_556
C37 C44 1.499341 1_555
C38 C8 1.418049 1_555
C38 C56 1.445633 1_555
C39 C6 1.344995 1_555
C39 C59 1.467507 1_555
C39 C50 1.467507 1_555
C40 C8 1.384120 1_455
C40 C49 1.408783 1_555
C41 C50 1.384120 1_655
C41 C7 1.499341 1_555
C42 C49 1.499341 1_555
C42 C6 1.511269 1_555
C42 C44 1.593632 1_554
C43 C58 1.467507 1_555
C43 C52 1.467507 1_555
C48 C59 1.418048 1_555
C51 C56 1.418048 1_555
C53 C58 1.418049 1_555
C54 C55 1.384120 1_554
