# generated using pymatgen
data_Co(CO)4
_symmetry_space_group_name_H-M   'P 1'
_cell_length_a   15.35048900
_cell_length_b   6.48400300
_cell_length_c   11.08712833
_cell_angle_alpha   89.45949444
_cell_angle_beta   90.00000000
_cell_angle_gamma   90.00000000
_symmetry_Int_Tables_number   1
_chemical_formula_structural   Co(CO)4
_chemical_formula_sum   'Co8 C32 O32'
_cell_volume   1103.48179225
_cell_formula_units_Z   8
loop_
 _symmetry_equiv_pos_site_id
 _symmetry_equiv_pos_as_xyz
  1  'x, y, z'
loop_
 _atom_site_type_symbol
 _atom_site_label
 _atom_site_symmetry_multiplicity
 _atom_site_fract_x
 _atom_site_fract_y
 _atom_site_fract_z
 _atom_site_occupancy
  Co  Co0  1  0.66655800  0.24367700  0.55210700  1
  Co  Co1  1  0.66671800  0.75223000  0.08321900  1
  Co  Co2  1  0.33328200  0.24777000  0.91678100  1
  Co  Co3  1  0.16655800  0.75632300  0.44789300  1
  Co  Co4  1  0.16671800  0.24777000  0.91678100  1
  Co  Co5  1  0.83328200  0.75223000  0.08321900  1
  Co  Co6  1  0.83344200  0.24367700  0.55210700  1
  Co  Co7  1  0.33344200  0.75632300  0.44789300  1
  C  C0  1  0.60283600  0.62266300  0.19420900  1
  C  C1  1  0.61354200  0.99956800  0.07393300  1
  C  C2  1  0.75000000  0.02124100  0.56903900  1
  C  C3  1  0.89716400  0.62266300  0.19420900  1
  C  C4  1  0.86644700  0.67732700  0.93458500  1
  C  C5  1  0.38398900  0.50664100  0.44260900  1
  C  C6  1  0.12783700  0.83042300  0.30127800  1
  C  C7  1  0.60417300  0.11257300  0.44153000  1
  C  C8  1  0.11354200  0.00043200  0.92606700  1
  C  C9  1  0.10283600  0.37733700  0.80579100  1
  C  C10  1  0.11601100  0.50664100  0.44260900  1
  C  C11  1  0.75000000  0.52842400  0.07369600  1
  C  C12  1  0.25000000  0.97875900  0.43096100  1
  C  C13  1  0.10417300  0.88742700  0.55847000  1
  C  C14  1  0.13355300  0.32267300  0.06541500  1
  C  C15  1  0.87216300  0.16957700  0.69872200  1
  C  C16  1  0.75000000  0.87524700  0.19259600  1
  C  C17  1  0.62783700  0.16957700  0.69872200  1
  C  C18  1  0.88398900  0.49335900  0.55739100  1
  C  C19  1  0.88645800  0.99956800  0.07393300  1
  C  C20  1  0.37216300  0.83042300  0.30127800  1
  C  C21  1  0.25000000  0.12475300  0.80740400  1
  C  C22  1  0.38645800  0.00043200  0.92606700  1
  C  C23  1  0.36644700  0.32267300  0.06541500  1
  C  C24  1  0.89582700  0.11257300  0.44153000  1
  C  C25  1  0.39582700  0.88742700  0.55847000  1
  C  C26  1  0.63355300  0.67732700  0.93458500  1
  C  C27  1  0.75000000  0.36555300  0.44141100  1
  C  C28  1  0.25000000  0.47157600  0.92630400  1
  C  C29  1  0.39716400  0.37733700  0.80579100  1
  C  C30  1  0.61601100  0.49335900  0.55739100  1
  C  C31  1  0.25000000  0.63444700  0.55858900  1
  O  O0  1  0.07870300  0.35172400  0.44398700  1
  O  O1  1  0.61263900  0.62444000  0.83935000  1
  O  O2  1  0.57349700  0.15067300  0.07135000  1
  O  O3  1  0.06111800  0.97077400  0.62870800  1
  O  O4  1  0.56111800  0.02922600  0.37129200  1
  O  O5  1  0.42129700  0.35172400  0.44398700  1
  O  O6  1  0.75000000  0.84128500  0.58689900  1
  O  O7  1  0.05898600  0.45870800  0.73486000  1
  O  O8  1  0.39876000  0.88089200  0.20770900  1
  O  O9  1  0.60124000  0.11910800  0.79229100  1
  O  O10  1  0.25000000  0.53186200  0.64724400  1
  O  O11  1  0.92129700  0.64827600  0.55601300  1
  O  O12  1  0.25000000  0.65251800  0.93847800  1
  O  O13  1  0.25000000  0.15871500  0.41310100  1
  O  O14  1  0.25000000  0.02385100  0.71931200  1
  O  O15  1  0.11263900  0.37556000  0.16065000  1
  O  O16  1  0.43888200  0.97077400  0.62870800  1
  O  O17  1  0.94101400  0.54129200  0.26514000  1
  O  O18  1  0.55898600  0.54129200  0.26514000  1
  O  O19  1  0.75000000  0.46813800  0.35275600  1
  O  O20  1  0.44101400  0.45870800  0.73486000  1
  O  O21  1  0.10124000  0.88089200  0.20770900  1
  O  O22  1  0.92650300  0.15067300  0.07135000  1
  O  O23  1  0.57870300  0.64827600  0.55601300  1
  O  O24  1  0.89876000  0.11910800  0.79229100  1
  O  O25  1  0.93888200  0.02922600  0.37129200  1
  O  O26  1  0.42650300  0.84932700  0.92865000  1
  O  O27  1  0.75000000  0.97614900  0.28068800  1
  O  O28  1  0.75000000  0.34748200  0.06152200  1
  O  O29  1  0.38736100  0.37556000  0.16065000  1
  O  O30  1  0.88736100  0.62444000  0.83935000  1
  O  O31  1  0.07349700  0.84932700  0.92865000  1
loop_
_geom_bond_atom_site_label_1
_geom_bond_atom_site_label_2
_geom_bond_distance
_geom_bond_site_symmetry_2
C0 O18 1.158487 1_555
C0 Co1 1.778252 1_555
C1 O2 1.156763 1_565
C1 Co1 1.801604 1_555
C2 O6 1.181675 1_545
C2 Co6 1.936733 1_555
C2 Co0 1.936733 1_555
C3 O17 1.158487 1_555
C3 Co5 1.778252 1_555
C4 O30 1.158611 1_555
C4 Co5 1.796055 1_556
C5 O5 1.156248 1_555
C5 Co7 1.796730 1_555
C6 O21 1.159135 1_555
C6 Co3 1.792145 1_555
C7 O4 1.158981 1_555
C7 Co0 1.778314 1_555
C8 O31 1.156763 1_545
C8 Co4 1.801604 1_555
C9 O7 1.158487 1_555
C9 Co4 1.778252 1_555
C10 O0 1.156248 1_555
C10 Co3 1.796730 1_555
C11 O28 1.182231 1_555
C11 Co1 1.937590 1_555
C11 Co5 1.937590 1_555
C12 O13 1.181675 1_565
C12 Co3 1.936733 1_555
C12 Co7 1.936733 1_555
C13 O3 1.158981 1_555
C13 Co3 1.778314 1_555
C14 O15 1.158611 1_555
C14 Co4 1.796055 1_554
C15 O24 1.159135 1_555
C15 Co6 1.792145 1_555
C16 O27 1.180684 1_555
C16 Co1 1.938924 1_555
C16 Co5 1.938924 1_555
C17 O9 1.159135 1_555
C17 Co0 1.792145 1_555
C18 O11 1.156248 1_555
C18 Co6 1.796730 1_555
C19 O22 1.156763 1_565
C19 Co5 1.801604 1_555
C20 O8 1.159135 1_555
C20 Co7 1.792145 1_555
C21 O14 1.180684 1_555
C21 Co4 1.938924 1_555
C21 Co2 1.938924 1_555
C22 O26 1.156763 1_545
C22 Co2 1.801604 1_555
C23 O29 1.158611 1_555
C23 Co2 1.796055 1_554
C24 O25 1.158981 1_555
C24 Co6 1.778314 1_555
C25 O16 1.158981 1_555
C25 Co7 1.778314 1_555
C26 O1 1.158611 1_555
C26 Co1 1.796055 1_556
C27 O19 1.181632 1_555
C27 Co6 1.937291 1_555
C27 Co0 1.937291 1_555
C28 O12 1.182231 1_555
C28 Co4 1.937590 1_555
C28 Co2 1.937590 1_555
C29 O20 1.158487 1_555
C29 Co2 1.778252 1_555
C30 O23 1.156248 1_555
C30 Co0 1.796730 1_555
C31 O10 1.181632 1_555
C31 Co3 1.937291 1_555
C31 Co7 1.937291 1_555
