# generated using pymatgen
data_La5Re3NiO16
_symmetry_space_group_name_H-M   'P 1'
_cell_length_a   7.99141631
_cell_length_b   8.07080429
_cell_length_c   11.40829425
_cell_angle_alpha   69.27940094
_cell_angle_beta   105.77153275
_cell_angle_gamma   89.85383207
_symmetry_Int_Tables_number   1
_chemical_formula_structural   La5Re3NiO16
_chemical_formula_sum   'La10 Re6 Ni2 O32'
_cell_volume   658.30445177
_cell_formula_units_Z   2
loop_
 _symmetry_equiv_pos_site_id
 _symmetry_equiv_pos_as_xyz
  1  'x, y, z'
loop_
 _atom_site_type_symbol
 _atom_site_label
 _atom_site_symmetry_multiplicity
 _atom_site_fract_x
 _atom_site_fract_y
 _atom_site_fract_z
 _atom_site_occupancy
  La  La0  1  0.75016100  0.24993600  0.50013700  1
  La  La1  1  0.24989700  0.75002000  0.49993900  1
  La  La2  1  0.82832500  0.14558600  0.19614700  1
  La  La3  1  0.32826900  0.64526100  0.19625600  1
  La  La4  1  0.67177100  0.35473500  0.80373200  1
  La  La5  1  0.17166400  0.85451300  0.80379900  1
  La  La6  1  0.83287100  0.66153400  0.20519900  1
  La  La7  1  0.33268000  0.16156900  0.20516300  1
  La  La8  1  0.66730000  0.83842900  0.79480400  1
  La  La9  1  0.16715700  0.33842200  0.79480400  1
  Re  Re0  1  0.49995700  0.50003500  0.99996700  1
  Re  Re1  1  0.99999900  0.99999700  0.00000600  1
  Re  Re2  1  0.85894400  0.69685000  0.60585300  1
  Re  Re3  1  0.35897500  0.19680700  0.60587200  1
  Re  Re4  1  0.64103300  0.80321500  0.39411000  1
  Re  Re5  1  0.14105400  0.30314700  0.39413500  1
  Ni  Ni0  1  0.50001300  0.00000000  0.00001500  1
  Ni  Ni1  1  0.99999900  0.50001000  0.99999600  1
  O  O0  1  0.91013800  0.78561300  0.43491200  1
  O  O1  1  0.41010100  0.28562700  0.43489200  1
  O  O2  1  0.58991800  0.71437500  0.56510700  1
  O  O3  1  0.08989900  0.21437700  0.56511500  1
  O  O4  1  0.11643600  0.66433300  0.67581200  1
  O  O5  1  0.61644300  0.16430600  0.67583700  1
  O  O6  1  0.38359500  0.83565000  0.32420900  1
  O  O7  1  0.88358600  0.33563200  0.32421400  1
  O  O8  1  0.85447100  0.59687900  0.80250800  1
  O  O9  1  0.35461600  0.09672600  0.80262000  1
  O  O10  1  0.64537600  0.90326400  0.19738900  1
  O  O11  1  0.14551600  0.40312300  0.19748700  1
  O  O12  1  0.48306100  0.59522800  0.81561400  1
  O  O13  1  0.98315200  0.09565900  0.81552400  1
  O  O14  1  0.01683200  0.90435400  0.18446600  1
  O  O15  1  0.51691200  0.40479000  0.18433500  1
  O  O16  1  0.85060700  0.91722600  0.63700100  1
  O  O17  1  0.35057900  0.41716600  0.63699900  1
  O  O18  1  0.64946600  0.58281400  0.36303300  1
  O  O19  1  0.14938100  0.08274100  0.36300300  1
  O  O20  1  0.85748500  0.44658200  0.63420000  1
  O  O21  1  0.35747900  0.94646800  0.63427000  1
  O  O22  1  0.64253400  0.05350800  0.36577200  1
  O  O23  1  0.14248100  0.55343100  0.36580700  1
  O  O24  1  0.44189400  0.74664000  0.00001200  1
  O  O25  1  0.94259500  0.24721500  0.99984500  1
  O  O26  1  0.55807700  0.25340000  0.99996500  1
  O  O27  1  0.05737200  0.75280100  0.00014800  1
  O  O28  1  0.25252300  0.03440800  0.03679100  1
  O  O29  1  0.75318700  0.53344500  0.03703100  1
  O  O30  1  0.24679000  0.46657100  0.96294500  1
  O  O31  1  0.74743000  0.96558200  0.96320100  1
loop_
_geom_bond_atom_site_label_1
_geom_bond_atom_site_label_2
_geom_bond_distance
_geom_bond_site_symmetry_2
La0 O5 2.413539 1_555
La0 O7 2.414132 1_555
La0 O20 2.570045 1_555
La0 O22 2.571499 1_555
La0 O16 2.575578 1_545
La0 O18 2.577406 1_555
La0 O3 2.598935 1_655
La0 O1 2.601316 1_555
La1 O6 2.413723 1_555
La1 O4 2.413840 1_555
La1 O23 2.570361 1_555
La1 O21 2.571290 1_555
La1 O19 2.575858 1_565
La1 O17 2.577154 1_555
La1 O0 2.599078 1_455
La1 O2 2.601045 1_555
La2 O7 2.433250 1_555
La2 O10 2.443121 1_545
La2 O25 2.517459 1_554
La2 O14 2.520998 1_645
La2 O26 2.532825 1_554
La2 O22 2.655429 1_555
La2 O19 2.668099 1_655
La3 O6 2.434589 1_555
La3 O11 2.441005 1_555
La3 O24 2.513740 1_555
La3 O15 2.518155 1_555
La3 O27 2.535491 1_555
La3 O23 2.654704 1_555
La3 O18 2.668827 1_555
La4 O5 2.434350 1_555
La4 O8 2.440798 1_555
La4 O26 2.513960 1_555
La4 O12 2.518405 1_555
La4 O25 2.535159 1_555
La4 O20 2.654090 1_555
La4 O17 2.668612 1_555
La5 O4 2.433450 1_555
La5 O9 2.442515 1_565
La5 O27 2.518041 1_556
La5 O13 2.520719 1_465
La5 O24 2.532938 1_556
La5 O21 2.654695 1_555
La5 O16 2.667920 1_455
La6 O10 2.418415 1_555
La6 O29 2.428491 1_555
La6 O14 2.435880 1_655
La6 O7 2.468702 1_555
La6 O18 2.534543 1_555
La6 O23 2.575571 1_655
La7 O11 2.416321 1_555
La7 O28 2.425422 1_555
La7 O15 2.439721 1_555
La7 O6 2.468887 1_545
La7 O19 2.533943 1_555
La7 O22 2.577041 1_555
La8 O8 2.416196 1_555
La8 O31 2.425614 1_555
La8 O12 2.439636 1_555
La8 O5 2.468470 1_565
La8 O16 2.533664 1_555
La8 O21 2.576542 1_555
La9 O9 2.417994 1_555
La9 O30 2.428546 1_555
La9 O13 2.435751 1_455
La9 O4 2.468732 1_555
La9 O17 2.534391 1_555
La9 O20 2.575975 1_455
Ni0 O10 2.087733 1_545
Ni0 O9 2.087995 1_554
Ni0 O24 2.098068 1_545
Ni0 O26 2.098112 1_554
Ni0 O31 2.166582 1_544
Ni0 O28 2.166918 1_555
Ni1 O8 2.089103 1_555
Ni1 O11 2.089106 1_656
Ni1 O27 2.092746 1_656
Ni1 O25 2.092829 1_555
Ni1 O30 2.161546 1_655
Ni1 O29 2.161613 1_556
O0 Re2 1.982488 1_555
O0 Re4 2.066184 1_555
O1 Re3 1.982642 1_555
O1 Re5 2.065781 1_555
O2 Re4 1.982780 1_555
O2 Re2 2.065627 1_555
O3 Re5 1.982747 1_555
O3 Re3 2.066003 1_555
O4 Re2 1.973921 1_455
O5 Re3 1.973749 1_555
O6 Re4 1.973478 1_555
O7 Re5 1.973713 1_655
O8 Re2 2.109122 1_555
O9 Re3 2.109838 1_555
O10 Re4 2.109510 1_555
O11 Re5 2.109021 1_555
O12 Re0 1.932216 1_555
O13 Re1 1.933721 1_546
O14 Re1 1.933511 1_455
O15 Re0 1.932273 1_554
O16 Re2 1.937438 1_555
O17 Re3 1.937218 1_555
O18 Re4 1.937280 1_555
O19 Re5 1.937575 1_555
O20 Re2 1.929900 1_555
O21 Re3 1.930365 1_565
O22 Re4 1.930138 1_545
O23 Re5 1.930058 1_555
O24 Re0 2.042728 1_554
O25 Re1 2.045419 1_546
O26 Re0 2.042867 1_555
O27 Re1 2.045279 1_455
O28 Re1 1.987619 1_445
O29 Re0 1.991240 1_554
O30 Re0 1.990858 1_555
O31 Re1 1.987968 1_556
