# generated using pymatgen
data_PbI2
_symmetry_space_group_name_H-M   'P 1'
_cell_length_a   4.65040040
_cell_length_b   4.65040040
_cell_length_c   110.03646500
_cell_angle_alpha   90.00000000
_cell_angle_beta   90.00000000
_cell_angle_gamma   120.00000570
_symmetry_Int_Tables_number   1
_chemical_formula_structural   PbI2
_chemical_formula_sum   'Pb15 I30'
_cell_volume   2060.85734937
_cell_formula_units_Z   15
loop_
 _symmetry_equiv_pos_site_id
 _symmetry_equiv_pos_as_xyz
  1  'x, y, z'
loop_
 _atom_site_type_symbol
 _atom_site_label
 _atom_site_symmetry_multiplicity
 _atom_site_fract_x
 _atom_site_fract_y
 _atom_site_fract_z
 _atom_site_occupancy
  Pb  Pb0  1  0.00000000  0.00000000  0.01664600  1
  Pb  Pb1  1  0.33333300  0.66666700  0.94998900  1
  Pb  Pb2  1  0.33333300  0.66666700  0.61668100  1
  Pb  Pb3  1  0.33333300  0.66666700  0.41664300  1
  Pb  Pb4  1  0.33333300  0.66666700  0.48330900  1
  Pb  Pb5  1  0.33333300  0.66666700  0.81668800  1
  Pb  Pb6  1  0.00000000  0.00000000  0.35004800  1
  Pb  Pb7  1  0.33333300  0.66666700  0.68334000  1
  Pb  Pb8  1  0.33333300  0.66666700  0.21663200  1
  Pb  Pb9  1  0.00000000  0.00000000  0.55001700  1
  Pb  Pb10  1  0.33333300  0.66666700  0.08335300  1
  Pb  Pb11  1  0.33333300  0.66666700  0.28329600  1
  Pb  Pb12  1  0.00000000  0.00000000  0.15001200  1
  Pb  Pb13  1  0.33333300  0.66666700  0.88333800  1
  Pb  Pb14  1  0.00000000  0.00000000  0.75000300  1
  I  I0  1  0.33333300  0.66666700  0.73294200  1
  I  I1  1  0.66666700  0.33333300  0.56709900  1
  I  I2  1  0.66666700  0.33333300  0.16706900  1
  I  I3  1  0.66666700  0.33333300  0.36708800  1
  I  I4  1  0.66666700  0.33333300  0.90042100  1
  I  I5  1  0.66666700  0.33333300  0.96707900  1
  I  I6  1  0.66666700  0.33333300  0.63377400  1
  I  I7  1  0.00000000  0.00000000  0.26624400  1
  I  I8  1  0.66666700  0.33333300  0.23372100  1
  I  I9  1  0.33333300  0.66666700  0.53292200  1
  I  I10  1  0.00000000  0.00000000  0.39959000  1
  I  I11  1  0.66666700  0.33333300  0.70038700  1
  I  I12  1  0.00000000  0.00000000  0.86624500  1
  I  I13  1  0.66666700  0.33333300  0.76710000  1
  I  I14  1  0.00000000  0.00000000  0.46626000  1
  I  I15  1  0.66666700  0.33333300  0.43373700  1
  I  I16  1  0.00000000  0.00000000  0.19957100  1
  I  I17  1  0.66666700  0.33333300  0.10045300  1
  I  I18  1  0.00000000  0.00000000  0.59958700  1
  I  I19  1  0.33333300  0.66666700  0.99956900  1
  I  I20  1  0.33333300  0.66666700  0.13290500  1
  I  I21  1  0.00000000  0.00000000  0.06624500  1
  I  I22  1  0.66666700  0.33333300  0.03371800  1
  I  I23  1  0.66666700  0.33333300  0.30040300  1
  I  I24  1  0.33333300  0.66666700  0.33293300  1
  I  I25  1  0.00000000  0.00000000  0.93291200  1
  I  I26  1  0.66666700  0.33333300  0.83378000  1
  I  I27  1  0.00000000  0.00000000  0.66625200  1
  I  I28  1  0.00000000  0.00000000  0.79961000  1
  I  I29  1  0.66666700  0.33333300  0.50039000  1
loop_
_geom_bond_atom_site_label_1
_geom_bond_atom_site_label_2
_geom_bond_distance
_geom_bond_site_symmetry_2
I0 Pb14 3.276142 1_565
I0 Pb14 3.276145 1_665
I0 Pb14 3.276145 1_555
I1 Pb9 3.277466 1_655
I1 Pb9 3.277469 1_555
I1 Pb9 3.277469 1_665
I2 Pb12 3.275889 1_655
I2 Pb12 3.275892 1_665
I2 Pb12 3.275892 1_555
I3 Pb6 3.274818 1_655
I3 Pb6 3.274821 1_665
I3 Pb6 3.274821 1_555
I4 Pb13 3.277529 1_545
I4 Pb13 3.277529 1_655
I4 Pb13 3.277536 1_555
I5 Pb1 3.277971 1_545
I5 Pb1 3.277971 1_655
I5 Pb1 3.277978 1_555
I6 Pb2 3.278160 1_545
I6 Pb2 3.278160 1_655
I6 Pb2 3.278167 1_555
I7 Pb11 3.275574 1_545
I7 Pb11 3.275577 1_555
I7 Pb11 3.275577 1_445
I8 Pb8 3.277908 1_545
I8 Pb8 3.277908 1_655
I8 Pb8 3.277915 1_555
I9 Pb9 3.278287 1_565
I9 Pb9 3.278290 1_555
I9 Pb9 3.278290 1_665
I10 Pb3 3.275637 1_545
I10 Pb3 3.275640 1_445
I10 Pb3 3.275640 1_555
I11 Pb7 3.275259 1_545
I11 Pb7 3.275259 1_655
I11 Pb7 3.275266 1_555
I12 Pb13 3.278161 1_545
I12 Pb13 3.278164 1_445
I12 Pb13 3.278164 1_555
I13 Pb14 3.278413 1_655
I13 Pb14 3.278416 1_665
I13 Pb14 3.278416 1_555
I14 Pb4 3.275385 1_545
I14 Pb4 3.275388 1_445
I14 Pb4 3.275388 1_555
I15 Pb3 3.278223 1_545
I15 Pb3 3.278223 1_655
I15 Pb3 3.278230 1_555
I16 Pb8 3.276142 1_545
I16 Pb8 3.276145 1_445
I16 Pb8 3.276145 1_555
I17 Pb10 3.278602 1_545
I17 Pb10 3.278602 1_655
I17 Pb10 3.278609 1_555
I18 Pb2 3.278224 1_545
I18 Pb2 3.278227 1_555
I18 Pb2 3.278227 1_445
I19 Pb0 3.277151 1_566
I19 Pb0 3.277154 1_556
I19 Pb0 3.277154 1_666
I20 Pb12 3.279045 1_565
I20 Pb12 3.279048 1_665
I20 Pb12 3.279048 1_555
I21 Pb10 3.279108 1_545
I21 Pb10 3.279111 1_555
I21 Pb10 3.279111 1_445
I22 Pb0 3.276835 1_655
I22 Pb0 3.276838 1_665
I22 Pb0 3.276838 1_555
I23 Pb11 3.279044 1_545
I23 Pb11 3.279044 1_655
I23 Pb11 3.279051 1_555
I24 Pb6 3.279550 1_565
I24 Pb6 3.279553 1_665
I24 Pb6 3.279553 1_555
I25 Pb1 3.277151 1_545
I25 Pb1 3.277154 1_555
I25 Pb1 3.277154 1_445
I26 Pb5 3.278097 1_545
I26 Pb5 3.278097 1_655
I26 Pb5 3.278104 1_555
I27 Pb7 3.277845 1_545
I27 Pb7 3.277848 1_445
I27 Pb7 3.277848 1_555
I28 Pb5 3.277214 1_545
I28 Pb5 3.277217 1_555
I28 Pb5 3.277217 1_445
I29 Pb4 3.277403 1_545
I29 Pb4 3.277403 1_655
I29 Pb4 3.277410 1_555
