# generated using pymatgen
data_ZnBi6P2O15
_symmetry_space_group_name_H-M   'P 1'
_cell_length_a   8.21370993
_cell_length_b   8.21370993
_cell_length_c   17.20458474
_cell_angle_alpha   76.37653605
_cell_angle_beta   76.37653605
_cell_angle_gamma   39.29689896
_symmetry_Int_Tables_number   1
_chemical_formula_structural   ZnBi6P2O15
_chemical_formula_sum   'Zn2 Bi12 P4 O30'
_cell_volume   711.75885357
_cell_formula_units_Z   2
loop_
 _symmetry_equiv_pos_site_id
 _symmetry_equiv_pos_as_xyz
  1  'x, y, z'
loop_
 _atom_site_type_symbol
 _atom_site_label
 _atom_site_symmetry_multiplicity
 _atom_site_fract_x
 _atom_site_fract_y
 _atom_site_fract_z
 _atom_site_occupancy
  Zn  Zn0  1  0.00329200  0.62259300  0.76770700  1
  Zn  Zn1  1  0.37740700  0.99670800  0.23229300  1
  Bi  Bi0  1  0.47140100  0.10697500  0.38987600  1
  Bi  Bi1  1  0.13024000  0.73048300  0.92283900  1
  Bi  Bi2  1  0.22852900  0.82247200  0.59504700  1
  Bi  Bi3  1  0.72092400  0.22670400  0.74264800  1
  Bi  Bi4  1  0.36169700  0.92439200  0.75729500  1
  Bi  Bi5  1  0.07560800  0.63830300  0.24270500  1
  Bi  Bi6  1  0.89302500  0.52859900  0.61012400  1
  Bi  Bi7  1  0.17752800  0.77147100  0.40495300  1
  Bi  Bi8  1  0.79207100  0.40057300  0.91218200  1
  Bi  Bi9  1  0.77329600  0.27907600  0.25735200  1
  Bi  Bi10  1  0.59942700  0.20792900  0.08781800  1
  Bi  Bi11  1  0.26951700  0.86976000  0.07716100  1
  P  P0  1  0.46761700  0.10451600  0.89726900  1
  P  P1  1  0.89548400  0.53238300  0.10273100  1
  P  P2  1  0.76850900  0.51290300  0.42102500  1
  P  P3  1  0.48709700  0.23149100  0.57897500  1
  O  O0  1  0.46651300  0.59738800  0.83979800  1
  O  O1  1  0.18358300  0.95020600  0.29160900  1
  O  O2  1  0.32197700  0.24274300  0.65222000  1
  O  O3  1  0.61058400  0.68203000  0.49365600  1
  O  O4  1  0.31797000  0.38941600  0.50634400  1
  O  O5  1  0.94899300  0.05100700  0.00000000  1
  O  O6  1  0.96566200  0.08553900  0.83789000  1
  O  O7  1  0.06665600  0.26951400  0.15787000  1
  O  O8  1  0.32016000  0.48755800  0.33693000  1
  O  O9  1  0.04935100  0.25363200  0.43913300  1
  O  O10  1  0.74636800  0.95064900  0.56086700  1
  O  O11  1  0.02062500  0.16866700  0.66077400  1
  O  O12  1  0.39699800  0.19034100  0.26169200  1
  O  O13  1  0.63502600  0.46436900  0.39797700  1
  O  O14  1  0.80965900  0.60300200  0.73830800  1
  O  O15  1  0.53563100  0.36497400  0.60202300  1
  O  O16  1  0.83133300  0.97937500  0.33922600  1
  O  O17  1  0.40261200  0.53348700  0.16020200  1
  O  O18  1  0.04979400  0.81641700  0.70839100  1
  O  O19  1  0.91446100  0.03433800  0.16211000  1
  O  O20  1  0.85563600  0.49966800  0.02749600  1
  O  O21  1  0.45672400  0.54327600  0.00000000  1
  O  O22  1  0.38629300  0.97987300  0.91200800  1
  O  O23  1  0.62391200  0.73701100  0.15214300  1
  O  O24  1  0.02012700  0.61370700  0.08799200  1
  O  O25  1  0.50033200  0.14436400  0.97250400  1
  O  O26  1  0.75725700  0.67802300  0.34778000  1
  O  O27  1  0.26298900  0.37608800  0.84785700  1
  O  O28  1  0.73048700  0.93334400  0.84213000  1
  O  O29  1  0.51244200  0.67984000  0.66307000  1
loop_
_geom_bond_atom_site_label_1
_geom_bond_atom_site_label_2
_geom_bond_distance
_geom_bond_site_symmetry_2
Bi0 O12 2.231987 1_555
Bi0 O16 2.240295 1_545
Bi0 O8 2.307844 1_555
Bi0 O26 2.459310 1_545
Bi0 O9 2.611573 1_555
Bi0 O4 2.731385 1_555
Bi1 O0 2.251350 1_555
Bi1 O6 2.299894 1_465
Bi1 O5 2.357739 1_466
Bi1 O21 2.377239 1_556
Bi2 O29 2.142791 1_555
Bi2 O18 2.163117 1_555
Bi2 O11 2.317344 1_565
Bi2 O15 2.399442 1_555
Bi2 O3 2.643411 1_555
Bi3 O18 2.257685 1_645
Bi3 O6 2.262636 1_555
Bi3 O11 2.266668 1_655
Bi3 O28 2.563049 1_545
Bi3 O15 2.687854 1_555
Bi3 O0 2.708340 1_555
Bi3 O29 2.738423 1_555
Bi4 O29 2.221452 1_555
Bi4 O0 2.273946 1_555
Bi4 O14 2.328143 1_555
Bi4 O6 2.516320 1_465
Bi4 O11 2.560026 1_565
Bi4 O2 2.634869 1_565
Bi5 O8 2.221452 1_555
Bi5 O17 2.273946 1_555
Bi5 O12 2.328143 1_555
Bi5 O19 2.516320 1_465
Bi5 O16 2.560026 1_455
Bi5 O26 2.634869 1_455
Bi6 O14 2.231987 1_555
Bi6 O11 2.240295 1_655
Bi6 O29 2.307844 1_555
Bi6 O2 2.459310 1_655
Bi6 O10 2.611573 1_555
Bi6 O3 2.731385 1_555
Bi7 O8 2.142791 1_555
Bi7 O1 2.163117 1_555
Bi7 O16 2.317344 1_455
Bi7 O13 2.399442 1_555
Bi7 O4 2.643411 1_555
Bi8 O21 2.262826 1_556
Bi8 O0 2.290073 1_555
Bi8 O5 2.309534 1_556
Bi8 O6 2.313331 1_555
Bi8 O20 2.603353 1_556
Bi9 O1 2.257685 1_645
Bi9 O19 2.262636 1_555
Bi9 O16 2.266668 1_545
Bi9 O7 2.563054 1_655
Bi9 O13 2.687854 1_555
Bi9 O17 2.708340 1_555
Bi9 O8 2.738423 1_555
Bi10 O21 2.262826 1_555
Bi10 O17 2.290073 1_555
Bi10 O5 2.309534 1_555
Bi10 O19 2.313331 1_555
Bi10 O25 2.603353 1_554
Bi11 O17 2.251350 1_555
Bi11 O19 2.299894 1_465
Bi11 O5 2.357739 1_465
Bi11 O21 2.377239 1_555
O1 Zn1 1.927178 1_555
O2 P3 1.578504 1_555
O3 P2 1.561738 1_555
O4 P3 1.561738 1_555
O7 P1 1.582240 1_455
O7 Zn1 2.123952 1_545
O9 P2 1.541459 1_455
O10 P3 1.541459 1_565
O12 Zn1 1.903851 1_545
O13 P2 1.572886 1_555
O14 Zn0 1.903851 1_655
O15 P3 1.572886 1_555
O18 Zn0 1.927178 1_555
O20 P1 1.534378 1_555
O22 P0 1.554016 1_565
O23 P1 1.581257 1_555
O23 Zn1 1.984148 1_555
O24 P1 1.554016 1_455
O25 P0 1.534378 1_555
O26 P2 1.578504 1_555
O27 P0 1.581257 1_555
O27 Zn0 1.984148 1_555
O28 P0 1.582244 1_565
O28 Zn0 2.123952 1_655
