# generated using pymatgen
data_K3HPdS2(ClO3)2
_symmetry_space_group_name_H-M   'P 1'
_cell_length_a   9.31997925
_cell_length_b   9.31997925
_cell_length_c   7.14402800
_cell_angle_alpha   90.00000000
_cell_angle_beta   90.00000000
_cell_angle_gamma   110.50808048
_symmetry_Int_Tables_number   1
_chemical_formula_structural   K3HPdS2(ClO3)2
_chemical_formula_sum   'K6 H2 Pd2 S4 Cl4 O12'
_cell_volume   581.21626605
_cell_formula_units_Z   2
loop_
 _symmetry_equiv_pos_site_id
 _symmetry_equiv_pos_as_xyz
  1  'x, y, z'
loop_
 _atom_site_type_symbol
 _atom_site_label
 _atom_site_symmetry_multiplicity
 _atom_site_fract_x
 _atom_site_fract_y
 _atom_site_fract_z
 _atom_site_occupancy
  K  K0  1  0.41850000  0.86361700  0.09527300  1
  K  K1  1  0.86361700  0.41850000  0.09527300  1
  K  K2  1  0.58150000  0.13638300  0.59527300  1
  K  K3  1  0.13638300  0.58150000  0.59527300  1
  K  K4  1  0.87888200  0.87888200  0.27317600  1
  K  K5  1  0.12111800  0.12111800  0.77317600  1
  H  H0  1  0.51124700  0.51124700  0.52177200  1
  H  H1  1  0.48875300  0.48875300  0.02177200  1
  Pd  Pd0  1  0.75198300  0.75198300  0.74997200  1
  Pd  Pd1  1  0.24801700  0.24801700  0.24997200  1
  S  S0  1  0.53903500  0.75724200  0.59194600  1
  S  S1  1  0.75724200  0.53903500  0.59194600  1
  S  S2  1  0.46096500  0.24275800  0.09194600  1
  S  S3  1  0.24275800  0.46096500  0.09194600  1
  Cl  Cl0  1  0.76896200  0.99101600  0.89917500  1
  Cl  Cl1  1  0.99101600  0.76896200  0.89917500  1
  Cl  Cl2  1  0.23103800  0.00898400  0.39917500  1
  Cl  Cl3  1  0.00898400  0.23103800  0.39917500  1
  O  O0  1  0.43726800  0.81670100  0.70250900  1
  O  O1  1  0.81670100  0.43726800  0.70250900  1
  O  O2  1  0.56273200  0.18329900  0.20250900  1
  O  O3  1  0.18329900  0.56273200  0.20250900  1
  O  O4  1  0.59740000  0.85422000  0.42274900  1
  O  O5  1  0.85422000  0.59740000  0.42274900  1
  O  O6  1  0.40260000  0.14578000  0.92274900  1
  O  O7  1  0.14578000  0.40260000  0.92274900  1
  O  O8  1  0.43766400  0.59467300  0.52803800  1
  O  O9  1  0.59467300  0.43766400  0.52803800  1
  O  O10  1  0.56233600  0.40532700  0.02803800  1
  O  O11  1  0.40532700  0.56233600  0.02803800  1
loop_
_geom_bond_atom_site_label_1
_geom_bond_atom_site_label_2
_geom_bond_distance
_geom_bond_site_symmetry_2
K0 O11 2.808687 1_555
K0 O0 2.854566 1_554
K0 O4 2.891933 1_555
K0 O2 2.909402 1_565
K0 O6 2.954608 1_564
K0 O3 2.991439 1_555
K1 O10 2.808687 1_555
K1 O1 2.854566 1_554
K1 O5 2.891933 1_555
K1 O3 2.909402 1_655
K1 O7 2.954608 1_654
K1 O2 2.991439 1_555
K2 O9 2.808687 1_555
K2 O2 2.854566 1_555
K2 O6 2.891933 1_555
K2 O0 2.909402 1_545
K2 O4 2.954608 1_545
K2 O1 2.991439 1_555
K3 O8 2.808687 1_555
K3 O3 2.854566 1_555
K3 O7 2.891933 1_555
K3 O1 2.909402 1_455
K3 O5 2.954608 1_455
K3 O0 2.991439 1_555
K4 O4 2.766658 1_555
K4 O5 2.766658 1_555
K5 O6 2.766658 1_555
K5 O7 2.766658 1_555
H0 O8 1.204360 1_555
H0 O9 1.204360 1_555
H1 O11 1.204360 1_555
H1 O10 1.204360 1_555
Pd0 S0 2.298693 1_555
Pd0 S1 2.298693 1_555
Pd1 S3 2.298693 1_555
Pd1 S2 2.298693 1_555
Cl0 Pd0 2.424296 1_555
Cl0 K4 3.167143 1_556
Cl0 K5 3.203769 1_665
Cl0 K2 3.355621 1_565
Cl0 K0 3.365072 1_556
Cl1 Pd0 2.424296 1_555
Cl1 K4 3.167143 1_556
Cl1 K5 3.203769 1_665
Cl1 K3 3.355621 1_655
Cl1 K1 3.365072 1_556
Cl2 Pd1 2.424296 1_555
Cl2 K5 3.167143 1_555
Cl2 K4 3.203769 1_445
Cl2 K0 3.355621 1_545
Cl2 K2 3.365072 1_555
Cl3 Pd1 2.424296 1_555
Cl3 K5 3.167143 1_555
Cl3 K4 3.203769 1_445
Cl3 K1 3.355621 1_455
Cl3 K3 3.365072 1_555
O0 S0 1.482849 1_555
O1 S1 1.482849 1_555
O2 S2 1.482849 1_555
O3 S3 1.482849 1_555
O4 S0 1.493114 1_555
O5 S1 1.493114 1_555
O6 S2 1.493114 1_556
O7 S3 1.493114 1_556
O8 S0 1.547158 1_555
O9 S1 1.547158 1_555
O10 S2 1.547158 1_555
O11 S3 1.547158 1_555
