# generated using pymatgen
data_Ca2SiO4
_symmetry_space_group_name_H-M   'P 1'
_cell_length_a   6.98483347
_cell_length_b   6.98483347
_cell_length_c   5.57657529
_cell_angle_alpha   89.45391950
_cell_angle_beta   89.45391950
_cell_angle_gamma   134.81431954
_symmetry_Int_Tables_number   1
_chemical_formula_structural   Ca2SiO4
_chemical_formula_sum   'Ca4 Si2 O8'
_cell_volume   192.94515805
_cell_formula_units_Z   2
loop_
 _symmetry_equiv_pos_site_id
 _symmetry_equiv_pos_as_xyz
  1  'x, y, z'
loop_
 _atom_site_type_symbol
 _atom_site_label
 _atom_site_symmetry_multiplicity
 _atom_site_fract_x
 _atom_site_fract_y
 _atom_site_fract_z
 _atom_site_occupancy
  Ca  Ca0  1  0.11859400  0.98751500  0.92969800  1
  Ca  Ca1  1  0.25233700  0.78166800  0.42408800  1
  Ca  Ca2  1  0.78166800  0.25233700  0.92408800  1
  Ca  Ca3  1  0.98751500  0.11859400  0.42969800  1
  Si  Si0  1  0.36400400  0.62526600  0.92303600  1
  Si  Si1  1  0.62526600  0.36400400  0.42303600  1
  O  O0  1  0.17250400  0.34605600  0.76989800  1
  O  O1  1  0.68547900  0.86077600  0.84752600  1
  O  O2  1  0.22160800  0.73943700  0.85643800  1
  O  O3  1  0.29758200  0.54716300  0.20931600  1
  O  O4  1  0.73943700  0.22160800  0.35643800  1
  O  O5  1  0.34605600  0.17250400  0.26989800  1
  O  O6  1  0.54716300  0.29758200  0.70931600  1
  O  O7  1  0.86077600  0.68547900  0.34752600  1
loop_
_geom_bond_atom_site_label_1
_geom_bond_atom_site_label_2
_geom_bond_distance
_geom_bond_site_symmetry_2
Ca0 O5 2.236818 1_566
Ca0 O2 2.335077 1_555
Ca0 O0 2.414424 1_565
Ca0 O6 2.429436 1_565
Ca0 O1 2.530763 1_455
Ca0 O7 2.755677 1_456
Ca1 O3 2.230960 1_555
Ca1 O7 2.356128 1_455
Ca1 O2 2.415262 1_555
Ca1 O5 2.458826 1_565
Ca1 O4 2.525203 1_565
Ca2 O6 2.230960 1_555
Ca2 O1 2.356128 1_545
Ca2 O4 2.415262 1_556
Ca2 O0 2.458826 1_655
Ca2 O2 2.525203 1_655
Ca3 O0 2.236818 1_655
Ca3 O4 2.335077 1_555
Ca3 O5 2.414424 1_655
Ca3 O3 2.429436 1_655
Ca3 O7 2.530763 1_545
Ca3 O1 2.755677 1_545
O0 Si0 1.642623 1_555
O1 Si0 1.639311 1_555
O2 Si0 1.697822 1_555
O3 Si0 1.635253 1_554
O4 Si1 1.697822 1_555
O5 Si1 1.642623 1_555
O6 Si1 1.635253 1_555
O7 Si1 1.639311 1_555
