# generated using pymatgen
data_CuH4(OF)2
_symmetry_space_group_name_H-M   'P 1'
_cell_length_a   5.00769232
_cell_length_b   5.00769232
_cell_length_c   3.37746623
_cell_angle_alpha   75.97253016
_cell_angle_beta   75.97253016
_cell_angle_gamma   94.21635718
_symmetry_Int_Tables_number   1
_chemical_formula_structural   CuH4(OF)2
_chemical_formula_sum   'Cu1 H4 O2 F2'
_cell_volume   78.92948342
_cell_formula_units_Z   1
loop_
 _symmetry_equiv_pos_site_id
 _symmetry_equiv_pos_as_xyz
  1  'x, y, z'
loop_
 _atom_site_type_symbol
 _atom_site_label
 _atom_site_symmetry_multiplicity
 _atom_site_fract_x
 _atom_site_fract_y
 _atom_site_fract_z
 _atom_site_occupancy
  Cu  Cu0  1  0.00000000  0.00000000  0.00000000  1
  H  H0  1  0.55141600  0.22893100  0.20275000  1
  H  H1  1  0.22893100  0.55141600  0.20275000  1
  H  H2  1  0.44858400  0.77106900  0.79725000  1
  H  H3  1  0.77106900  0.44858400  0.79725000  1
  O  O0  1  0.73956900  0.26043100  0.00000000  1
  O  O1  1  0.26043100  0.73956900  0.00000000  1
  F  F0  1  0.76670200  0.76670200  0.54486100  1
  F  F1  1  0.23329800  0.23329800  0.45513900  1
loop_
_geom_bond_atom_site_label_1
_geom_bond_atom_site_label_2
_geom_bond_distance
_geom_bond_site_symmetry_2
Cu0 O1 1.910957 1_545
Cu0 O0 1.910957 1_455
Cu0 F1 1.957327 1_554
Cu0 F0 1.957327 1_445
Cu0 F0 2.575525 1_444
Cu0 F1 2.575525 1_555
H0 O0 0.997282 1_555
H1 O1 0.997282 1_555
H2 O1 0.997282 1_556
H3 O0 0.997282 1_556
F0 H2 1.618872 1_555
F0 H3 1.618872 1_555
F1 H0 1.618872 1_555
F1 H1 1.618872 1_555
