# generated using pymatgen
data_Ca10P6SO24
_symmetry_space_group_name_H-M   'P 1'
_cell_length_a   6.79669000
_cell_length_b   9.70756400
_cell_length_c   16.76480401
_cell_angle_alpha   89.72222819
_cell_angle_beta   90.00000000
_cell_angle_gamma   90.00000000
_symmetry_Int_Tables_number   1
_chemical_formula_structural   Ca10P6SO24
_chemical_formula_sum   'Ca20 P12 S2 O48'
_cell_volume   1106.11708766
_cell_formula_units_Z   2
loop_
 _symmetry_equiv_pos_site_id
 _symmetry_equiv_pos_as_xyz
  1  'x, y, z'
loop_
 _atom_site_type_symbol
 _atom_site_label
 _atom_site_symmetry_multiplicity
 _atom_site_fract_x
 _atom_site_fract_y
 _atom_site_fract_z
 _atom_site_occupancy
  Ca  Ca0  1  0.73403800  0.00079600  0.74522400  1
  Ca  Ca1  1  0.75748100  0.87470700  0.12455600  1
  Ca  Ca2  1  0.98240800  0.76042800  0.92280200  1
  Ca  Ca3  1  0.49039800  0.74591000  0.90977800  1
  Ca  Ca4  1  0.22249600  0.62639600  0.11997800  1
  Ca  Ca5  1  0.74817700  0.49098400  0.24911700  1
  Ca  Ca6  1  0.72249600  0.37360400  0.88002200  1
  Ca  Ca7  1  0.72480700  0.38738600  0.62510000  1
  Ca  Ca8  1  0.99039800  0.25409000  0.09022200  1
  Ca  Ca9  1  0.48240800  0.23957200  0.07719800  1
  Ca  Ca10  1  0.99532900  0.24061300  0.40929000  1
  Ca  Ca11  1  0.50251300  0.25519100  0.42229500  1
  Ca  Ca12  1  0.25748100  0.12529300  0.87544400  1
  Ca  Ca13  1  0.26014600  0.12794900  0.62351300  1
  Ca  Ca14  1  0.23403800  0.99920400  0.25477600  1
  Ca  Ca15  1  0.76014600  0.87205100  0.37648700  1
  Ca  Ca16  1  0.00251300  0.74480900  0.57770500  1
  Ca  Ca17  1  0.49532900  0.75938700  0.59071000  1
  Ca  Ca18  1  0.22480700  0.61261400  0.37490000  1
  Ca  Ca19  1  0.24817700  0.50901600  0.75088300  1
  P  P0  1  0.24584500  0.91892800  0.04614500  1
  P  P1  1  0.23618200  0.86635500  0.76514000  1
  P  P2  1  0.73172200  0.53397900  0.06675300  1
  P  P3  1  0.23172200  0.46602100  0.93324700  1
  P  P4  1  0.23607600  0.41982500  0.55075900  1
  P  P5  1  0.24761400  0.35730300  0.26518200  1
  P  P6  1  0.73618200  0.13364500  0.23486000  1
  P  P7  1  0.74584500  0.08107200  0.95385500  1
  P  P8  1  0.75087700  0.03190300  0.56268200  1
  P  P9  1  0.25087700  0.96809700  0.43731800  1
  P  P10  1  0.74761400  0.64269700  0.73481800  1
  P  P11  1  0.73607600  0.58017500  0.44924100  1
  S  S0  1  0.99681000  0.74658500  0.24944200  1
  S  S1  1  0.49681000  0.25341500  0.75055800  1
  O  O0  1  0.07690200  0.97640400  0.78617500  1
  O  O1  1  0.74149300  0.93395000  0.91902900  1
  O  O2  1  0.26523500  0.92191900  0.95324900  1
  O  O3  1  0.43706800  0.92111500  0.79631000  1
  O  O4  1  0.05303900  0.83743400  0.06295100  1
  O  O5  1  0.41732200  0.83277700  0.08203500  1
  O  O6  1  0.19925600  0.72946400  0.81248200  1
  O  O7  1  0.74131900  0.65789600  0.00826900  1
  O  O8  1  0.74654100  0.66351600  0.82619900  1
  O  O9  1  0.20297600  0.60302800  0.98030600  1
  O  O10  1  0.56511900  0.55802200  0.12889700  1
  O  O11  1  0.92393500  0.50923700  0.11555100  1
  O  O12  1  0.42393500  0.49076300  0.88444900  1
  O  O13  1  0.04828000  0.41497600  0.29622800  1
  O  O14  1  0.06511900  0.44197800  0.87110300  1
  O  O15  1  0.74402900  0.43037700  0.41837200  1
  O  O16  1  0.20780500  0.41675400  0.45813100  1
  O  O17  1  0.41093300  0.46025100  0.29093300  1
  O  O18  1  0.70297600  0.39697200  0.01969400  1
  O  O19  1  0.06944900  0.33877200  0.59432600  1
  O  O20  1  0.24654100  0.33648400  0.17380100  1
  O  O21  1  0.24131900  0.34210400  0.99173100  1
  O  O22  1  0.43043700  0.33902900  0.56527600  1
  O  O23  1  0.69925600  0.27053600  0.18751800  1
  O  O24  1  0.27978400  0.21893500  0.31144200  1
  O  O25  1  0.91732200  0.16722300  0.91796500  1
  O  O26  1  0.74661800  0.15508900  0.50426900  1
  O  O27  1  0.73918900  0.16107500  0.32560600  1
  O  O28  1  0.55303900  0.16256600  0.93704900  1
  O  O29  1  0.27012600  0.10720700  0.48323700  1
  O  O30  1  0.93706800  0.07888500  0.20369000  1
  O  O31  1  0.76523500  0.07808100  0.04675100  1
  O  O32  1  0.24149300  0.06605000  0.08097100  1
  O  O33  1  0.55911300  0.01552200  0.61321100  1
  O  O34  1  0.57690200  0.02359600  0.21382500  1
  O  O35  1  0.92241100  0.04811200  0.62321800  1
  O  O36  1  0.42241100  0.95188800  0.37678200  1
  O  O37  1  0.05911300  0.98447800  0.38678900  1
  O  O38  1  0.77012600  0.89279300  0.51676300  1
  O  O39  1  0.23918900  0.83892500  0.67439400  1
  O  O40  1  0.24661800  0.84491100  0.49573100  1
  O  O41  1  0.77978400  0.78106500  0.68855800  1
  O  O42  1  0.93043700  0.66097100  0.43472400  1
  O  O43  1  0.56944900  0.66122800  0.40567400  1
  O  O44  1  0.91093300  0.53974900  0.70906700  1
  O  O45  1  0.70780500  0.58324600  0.54186900  1
  O  O46  1  0.24402900  0.56962300  0.58162800  1
  O  O47  1  0.54828000  0.58502400  0.70377200  1
loop_
_geom_bond_atom_site_label_1
_geom_bond_atom_site_label_2
_geom_bond_distance
_geom_bond_site_symmetry_2
Ca0 O3 2.323658 1_545
Ca0 O41 2.359814 1_545
Ca0 O0 2.440555 1_645
Ca0 O35 2.454538 1_555
Ca0 O33 2.515752 1_555
Ca0 S1 2.936613 1_555
Ca0 O1 2.982548 1_545
Ca1 O4 2.288352 1_655
Ca1 O31 2.361558 1_565
Ca1 O34 2.419941 1_565
Ca1 O5 2.453935 1_555
Ca1 O30 2.684027 1_565
Ca1 O7 2.877899 1_555
Ca1 S0 2.924240 1_555
Ca2 O9 2.344608 1_655
Ca2 O1 2.349806 1_555
Ca2 O6 2.385078 1_655
Ca2 O7 2.390590 1_556
Ca2 O8 2.468338 1_555
Ca2 O4 2.515310 1_656
Ca2 O2 2.533995 1_655
Ca3 O8 2.375870 1_555
Ca3 O2 2.409271 1_555
Ca3 O1 2.504287 1_555
Ca3 O7 2.520164 1_556
Ca3 O12 2.555266 1_555
Ca3 O6 2.569886 1_555
Ca3 O3 2.571265 1_555
Ca3 O9 2.668753 1_555
Ca4 O11 2.327575 1_455
Ca4 O9 2.357367 1_554
Ca4 O10 2.425862 1_555
Ca4 O5 2.481843 1_555
Ca4 O4 2.533492 1_555
Ca4 S0 2.906811 1_455
Ca4 O20 2.955807 1_555
Ca5 O13 2.307157 1_655
Ca5 O23 2.403768 1_555
Ca5 O17 2.415026 1_555
Ca5 O10 2.453751 1_555
Ca5 O11 2.543345 1_555
Ca5 O15 2.895223 1_555
Ca5 S0 3.002087 1_555
Ca6 O12 2.327575 1_555
Ca6 O18 2.357367 1_556
Ca6 O14 2.425862 1_655
Ca6 O25 2.481843 1_555
Ca6 O28 2.533492 1_555
Ca6 S1 2.906811 1_555
Ca6 O8 2.955807 1_555
Ca7 O22 2.287745 1_555
Ca7 O45 2.355773 1_555
Ca7 O44 2.406193 1_555
Ca7 O19 2.445036 1_655
Ca7 O47 2.623846 1_555
Ca7 S1 2.913757 1_555
Ca7 O26 3.042196 1_555
Ca8 O20 2.375870 1_655
Ca8 O31 2.409271 1_555
Ca8 O32 2.504287 1_655
Ca8 O21 2.520164 1_654
Ca8 O11 2.555266 1_555
Ca8 O23 2.569886 1_555
Ca8 O30 2.571265 1_555
Ca8 O18 2.668753 1_555
Ca9 O18 2.344608 1_555
Ca9 O32 2.349806 1_555
Ca9 O23 2.385078 1_555
Ca9 O21 2.390590 1_554
Ca9 O20 2.468338 1_555
Ca9 O28 2.515310 1_554
Ca9 O31 2.533995 1_555
Ca10 O27 2.367631 1_555
Ca10 O16 2.386065 1_655
Ca10 O26 2.463613 1_555
Ca10 O15 2.517280 1_555
Ca10 O24 2.544878 1_655
Ca10 O37 2.553772 1_645
Ca10 O13 2.560512 1_655
Ca10 O29 2.585884 1_655
Ca11 O26 2.360639 1_555
Ca11 O29 2.363899 1_555
Ca11 O15 2.364304 1_555
Ca11 O24 2.423969 1_555
Ca11 O27 2.462576 1_555
Ca11 O22 2.582075 1_555
Ca11 O16 2.615735 1_555
Ca12 O28 2.288352 1_555
Ca12 O2 2.361558 1_545
Ca12 O0 2.419941 1_545
Ca12 O25 2.453935 1_455
Ca12 O3 2.684027 1_545
Ca12 O21 2.877899 1_555
Ca12 S1 2.924240 1_555
Ca13 O33 2.313387 1_555
Ca13 O29 2.362250 1_555
Ca13 O35 2.422798 1_455
Ca13 O19 2.469432 1_555
Ca13 O22 2.544039 1_555
Ca13 O39 2.932025 1_545
Ca13 S1 2.938092 1_555
Ca14 O30 2.323658 1_465
Ca14 O24 2.359814 1_565
Ca14 O34 2.440555 1_565
Ca14 O36 2.454538 1_555
Ca14 O37 2.515752 1_555
Ca14 S0 2.936613 1_455
Ca14 O32 2.982548 1_565
Ca15 O37 2.313387 1_655
Ca15 O38 2.362250 1_555
Ca15 O36 2.422798 1_555
Ca15 O43 2.469432 1_555
Ca15 O42 2.544039 1_555
Ca15 O27 2.932025 1_565
Ca15 S0 2.938092 1_555
Ca16 O40 2.360639 1_555
Ca16 O38 2.363899 1_455
Ca16 O46 2.364304 1_555
Ca16 O41 2.423969 1_455
Ca16 O39 2.462576 1_555
Ca16 O42 2.582075 1_455
Ca16 O45 2.615735 1_455
Ca17 O39 2.367631 1_555
Ca17 O45 2.386065 1_555
Ca17 O40 2.463613 1_555
Ca17 O46 2.517280 1_555
Ca17 O41 2.544878 1_555
Ca17 O33 2.553772 1_565
Ca17 O47 2.560512 1_555
Ca17 O38 2.585884 1_555
Ca18 O42 2.287745 1_455
Ca18 O16 2.355773 1_555
Ca18 O17 2.406193 1_555
Ca18 O43 2.445036 1_555
Ca18 O13 2.623846 1_555
Ca18 S0 2.913757 1_455
Ca18 O40 3.042196 1_555
Ca19 O47 2.307157 1_555
Ca19 O6 2.403768 1_555
Ca19 O44 2.415026 1_455
Ca19 O14 2.453751 1_555
Ca19 O12 2.543345 1_555
Ca19 O46 2.895223 1_555
Ca19 S1 3.002087 1_555
O0 P1 1.562455 1_555
O1 P7 1.545829 1_565
O2 P0 1.563079 1_556
O3 P1 1.556455 1_555
O4 P0 1.555742 1_555
O5 P0 1.553998 1_555
O6 P1 1.564802 1_555
O7 P2 1.549578 1_555
O8 P10 1.546246 1_555
O9 P3 1.561946 1_555
O10 P2 1.557068 1_555
O11 P2 1.559412 1_555
O12 P3 1.559412 1_555
O13 P5 1.556498 1_555
O14 P3 1.557068 1_555
O15 P11 1.546822 1_555
O16 P4 1.565160 1_555
O17 P5 1.556107 1_555
O18 P2 1.561946 1_555
O19 P4 1.558711 1_555
O20 P5 1.546246 1_555
O21 P3 1.549578 1_555
O22 P4 1.554873 1_555
O23 P6 1.564802 1_555
O24 P5 1.563138 1_555
O25 P7 1.553998 1_555
O26 P8 1.542239 1_555
O27 P6 1.545873 1_555
O28 P7 1.555742 1_555
O29 P9 1.563156 1_545
O30 P6 1.556455 1_555
O31 P7 1.563079 1_554
O32 P0 1.545829 1_545
O33 P8 1.562153 1_555
O34 P6 1.562455 1_555
O35 P8 1.554193 1_555
O36 P9 1.554193 1_555
O37 P9 1.562153 1_555
O38 P8 1.563156 1_565
O39 P1 1.545873 1_555
O40 P9 1.542239 1_555
O41 P10 1.563138 1_555
O42 P11 1.554873 1_555
O43 P11 1.558711 1_555
O44 P10 1.556107 1_555
O45 P11 1.565160 1_555
O46 P4 1.546822 1_555
O47 P10 1.556498 1_555
