# generated using pymatgen
data_Sr4Bi14O25
_symmetry_space_group_name_H-M   'P 1'
_cell_length_a   3.70033500
_cell_length_b   10.68338488
_cell_length_c   22.30335209
_cell_angle_alpha   103.09926245
_cell_angle_beta   91.40210851
_cell_angle_gamma   95.04809664
_symmetry_Int_Tables_number   1
_chemical_formula_structural   Sr4Bi14O25
_chemical_formula_sum   'Sr4 Bi14 O25'
_cell_volume   854.52798743
_cell_formula_units_Z   1
loop_
 _symmetry_equiv_pos_site_id
 _symmetry_equiv_pos_as_xyz
  1  'x, y, z'
loop_
 _atom_site_type_symbol
 _atom_site_label
 _atom_site_symmetry_multiplicity
 _atom_site_fract_x
 _atom_site_fract_y
 _atom_site_fract_z
 _atom_site_occupancy
  Sr  Sr0  1  0.46040700  0.00290700  0.83611000  1
  Sr  Sr1  1  0.93189300  0.96522700  0.67856000  1
  Sr  Sr2  1  0.34752500  0.01234000  0.44449800  1
  Sr  Sr3  1  0.32166500  0.97613100  0.29485300  1
  Bi  Bi0  1  0.04073600  0.03481200  0.98948600  1
  Bi  Bi1  1  0.63522400  0.35238300  0.95727800  1
  Bi  Bi2  1  0.05298800  0.30037000  0.78884800  1
  Bi  Bi3  1  0.86814400  0.69795000  0.87713300  1
  Bi  Bi4  1  0.49003900  0.22802300  0.61685400  1
  Bi  Bi5  1  0.35510700  0.66385100  0.71219100  1
  Bi  Bi6  1  0.95155700  0.30236200  0.40476300  1
  Bi  Bi7  1  0.96870200  0.49798900  0.56923300  1
  Bi  Bi8  1  0.62814000  0.74678900  0.52959100  1
  Bi  Bi9  1  0.80227800  0.04694700  0.15881200  1
  Bi  Bi10  1  0.28840400  0.50571000  0.24158600  1
  Bi  Bi11  1  0.15337300  0.38855000  0.09335600  1
  Bi  Bi12  1  0.75275300  0.68221400  0.16612500  1
  Bi  Bi13  1  0.22556100  0.68847000  0.01107500  1
  O  O0  1  0.58382700  0.12333900  0.95280300  1
  O  O1  1  0.02673800  0.55655500  0.34574900  1
  O  O2  1  0.97652600  0.10295500  0.78644700  1
  O  O3  1  0.93920500  0.89839800  0.88181700  1
  O  O4  1  0.98651000  0.26996900  0.54478000  1
  O  O5  1  0.12261600  0.32945200  0.89501400  1
  O  O6  1  0.40150500  0.93783100  0.58688100  1
  O  O7  1  0.41195600  0.86755300  0.72593200  1
  O  O8  1  0.30146600  0.10452400  0.21188500  1
  O  O9  1  0.00350500  0.21790700  0.67850900  1
  O  O10  1  0.90148400  0.18473100  0.48307900  1
  O  O11  1  0.04083500  0.95158700  0.56444400  1
  O  O12  1  0.68080600  0.56902700  0.96681400  1
  O  O13  1  0.55963000  0.36299200  0.30198900  1
  O  O14  1  0.83940600  0.96936400  0.37229500  1
  O  O15  1  0.67497700  0.55429800  0.34398300  1
  O  O16  1  0.41392400  0.19238100  0.38023800  1
  O  O17  1  0.89492300  0.32885500  0.29977300  1
  O  O18  1  0.06707500  0.18099200  0.07923700  1
  O  O19  1  0.77419300  0.88518100  0.21229700  1
  O  O20  1  0.89302600  0.86168000  0.07308300  1
  O  O21  1  0.51025200  0.50888900  0.50587300  1
  O  O22  1  0.31057100  0.65559300  0.80899200  1
  O  O23  1  0.63409300  0.87636200  0.02284800  1
  O  O24  1  0.53650500  0.43255900  0.63423700  1
loop_
_geom_bond_atom_site_label_1
_geom_bond_atom_site_label_2
_geom_bond_distance
_geom_bond_site_symmetry_2
Bi0 O0 2.233119 1_455
Bi0 O18 2.236528 1_556
Bi0 O0 2.387287 1_555
Bi0 O23 2.420911 1_446
Bi0 O3 2.510945 1_445
Bi1 O12 2.266488 1_555
Bi1 O5 2.285067 1_555
Bi1 O5 2.299406 1_655
Bi1 O0 2.416659 1_555
Bi2 O2 2.091436 1_455
Bi2 O5 2.322122 1_555
Bi2 O9 2.415092 1_555
Bi3 O3 2.112836 1_555
Bi3 O22 2.266070 1_655
Bi3 O22 2.478269 1_555
Bi3 O12 2.743522 1_555
Bi4 O24 2.121629 1_555
Bi4 O9 2.301763 1_555
Bi4 O9 2.342699 1_655
Bi4 O4 2.546758 1_555
Bi4 O4 2.565803 1_455
Bi5 O7 2.118515 1_555
Bi5 O22 2.190287 1_555
Bi5 O24 2.825034 1_555
Bi6 O16 2.171457 1_655
Bi6 O16 2.209437 1_555
Bi6 O10 2.373701 1_555
Bi6 O17 2.427775 1_555
Bi7 O21 2.209163 1_555
Bi7 O24 2.350391 1_555
Bi7 O4 2.379875 1_555
Bi7 O21 2.489641 1_655
Bi7 O24 2.752050 1_655
Bi8 O6 2.381828 1_555
Bi8 O21 2.472633 1_555
Bi8 O11 2.511249 1_655
Bi9 O8 2.134137 1_655
Bi9 O8 2.278529 1_555
Bi9 O19 2.308555 1_545
Bi9 O20 2.473699 1_545
Bi9 O18 2.674126 1_655
Bi10 O1 2.502077 1_555
Bi10 O13 2.506218 1_555
Bi10 O15 2.589105 1_555
Bi11 O18 2.161493 1_555
Bi12 O19 2.173058 1_555
Bi13 O12 2.308516 1_554
Bi13 O12 2.354810 1_454
Bi13 O23 2.364569 1_555
Bi13 O20 2.484949 1_455
O0 Sr0 2.637858 1_555
O1 O15 1.299200 1_455
O2 Sr0 2.509512 1_555
O2 Sr1 2.513013 1_545
O2 Sr0 2.520255 1_655
O3 Sr0 2.490065 1_565
O3 Sr0 2.497714 1_665
O6 Sr1 2.697862 1_455
O6 Sr1 2.747683 1_555
O7 Sr1 2.468776 1_455
O7 Sr1 2.480451 1_555
O7 Sr0 2.546335 1_565
O8 Sr3 2.544226 1_545
O9 Sr1 2.689409 1_445
O10 O4 1.477281 1_555
O10 Sr2 2.596657 1_655
O10 Sr2 2.620142 1_555
O11 O6 1.445110 1_555
O11 Sr1 2.560091 1_455
O11 Sr2 3.109957 1_565
O13 O17 1.322587 1_555
O14 Sr2 2.388314 1_665
O14 Sr2 2.464205 1_565
O14 Sr3 2.521458 1_655
O14 Sr3 2.564739 1_555
O16 Sr3 2.629774 1_545
O16 Sr2 2.645324 1_555
O19 Sr3 2.600893 1_555
O19 Sr3 2.664299 1_655
O20 O23 1.500507 1_555
