# generated using pymatgen
data_YAl6Si30(N15O)3
_symmetry_space_group_name_H-M   'P 1'
_cell_length_a   7.88675200
_cell_length_b   7.89765939
_cell_length_c   17.12592949
_cell_angle_alpha   90.12122280
_cell_angle_beta   90.14375206
_cell_angle_gamma   119.80109460
_symmetry_Int_Tables_number   1
_chemical_formula_structural   YAl6Si30(N15O)3
_chemical_formula_sum   'Y1 Al6 Si30 N45 O3'
_cell_volume   925.64340851
_cell_formula_units_Z   1
loop_
 _symmetry_equiv_pos_site_id
 _symmetry_equiv_pos_as_xyz
  1  'x, y, z'
loop_
 _atom_site_type_symbol
 _atom_site_label
 _atom_site_symmetry_multiplicity
 _atom_site_fract_x
 _atom_site_fract_y
 _atom_site_fract_z
 _atom_site_occupancy
  Y  Y0  1  0.67382000  0.32589700  0.08725800  1
  Al  Al0  1  0.49203900  0.89772100  0.09759400  1
  Al  Al1  1  0.08384600  0.25458900  0.99696000  1
  Al  Al2  1  0.57522600  0.08856000  0.26679200  1
  Al  Al3  1  0.91445500  0.16889700  0.82825700  1
  Al  Al4  1  0.91116800  0.16389500  0.49718100  1
  Al  Al5  1  0.91685700  0.17279100  0.16718200  1
  Si  Si0  1  0.15620100  0.91019100  0.99629300  1
  Si  Si1  1  0.15522000  0.90992900  0.66239800  1
  Si  Si2  1  0.15781200  0.91320600  0.33128700  1
  Si  Si3  1  0.48970000  0.90957100  0.76138800  1
  Si  Si4  1  0.49193900  0.90856500  0.43259200  1
  Si  Si5  1  0.07763600  0.56373500  0.76070000  1
  Si  Si6  1  0.08011800  0.56451800  0.43026100  1
  Si  Si7  1  0.08706000  0.56945700  0.09635300  1
  Si  Si8  1  0.74583700  0.83114900  0.99636100  1
  Si  Si9  1  0.74473000  0.83335400  0.66476900  1
  Si  Si10  1  0.74609600  0.83570200  0.33618800  1
  Si  Si11  1  0.83412200  0.74550300  0.83052300  1
  Si  Si12  1  0.83598200  0.74213100  0.49922100  1
  Si  Si13  1  0.83402800  0.75457500  0.16816800  1
  Si  Si14  1  0.42714300  0.51143500  0.76070000  1
  Si  Si15  1  0.42925900  0.51134600  0.42948800  1
  Si  Si16  1  0.42538500  0.51125100  0.09589800  1
  Si  Si17  1  0.08901900  0.26122200  0.33277800  1
  Si  Si18  1  0.08916000  0.25987800  0.66315300  1
  Si  Si19  1  0.51415200  0.43119800  0.92746500  1
  Si  Si20  1  0.51682100  0.43061200  0.59594000  1
  Si  Si21  1  0.52171400  0.43959900  0.26609600  1
  Si  Si22  1  0.92998100  0.48892500  0.92536800  1
  Si  Si23  1  0.92053600  0.48480800  0.59631300  1
  Si  Si24  1  0.92213900  0.49040800  0.26674600  1
  Si  Si25  1  0.24881300  0.08603400  0.83519100  1
  Si  Si26  1  0.24724900  0.08230400  0.17165300  1
  Si  Si27  1  0.25007700  0.08728400  0.50297500  1
  Si  Si28  1  0.56940900  0.07516800  0.92464100  1
  Si  Si29  1  0.57058700  0.08473900  0.59610800  1
  N  N0  1  0.60472100  0.95224400  0.67098200  1
  N  N1  1  0.61023000  0.95013500  0.34510600  1
  N  N2  1  0.61017400  0.95288000  0.99968500  1
  N  N3  1  0.04339000  0.66041000  0.67230000  1
  N  N4  1  0.04822800  0.66421700  0.34144600  1
  N  N5  1  0.04702400  0.65812700  0.00622900  1
  N  N6  1  0.99248900  0.98775200  0.99834800  1
  N  N7  1  0.00452900  0.98967300  0.82939300  1
  N  N8  1  0.99797800  0.00264300  0.66500400  1
  N  N9  1  0.00474000  0.98742900  0.49762100  1
  N  N10  1  0.00480200  0.99585700  0.16366500  1
  N  N11  1  0.32921600  0.66591100  0.77846600  1
  N  N12  1  0.33046500  0.66433300  0.44859200  1
  N  N13  1  0.32243700  0.64869200  0.12033800  1
  N  N14  1  0.67693500  0.68951400  0.75032600  1
  N  N15  1  0.68036400  0.68161600  0.41851900  1
  N  N16  1  0.67861500  0.68174400  0.08448000  1
  N  N17  1  0.68541100  0.67745300  0.91522100  1
  N  N18  1  0.68757900  0.68036900  0.58376400  1
  N  N19  1  0.68417100  0.69201200  0.25044700  1
  N  N20  1  0.00958700  0.32592500  0.74374300  1
  N  N21  1  0.00913000  0.32551100  0.41370300  1
  N  N22  1  0.97737700  0.32626600  0.07932400  1
  N  N23  1  0.34857000  0.38715600  0.67099400  1
  N  N24  1  0.36302400  0.38519000  0.00824000  1
  N  N25  1  0.34824200  0.38976200  0.33870900  1
  N  N26  1  0.39449200  0.34132000  0.83634800  1
  N  N27  1  0.39275200  0.34154900  0.50441900  1
  N  N28  1  0.40706100  0.34104500  0.16952500  1
  N  N29  1  0.95103500  0.60679500  0.83616900  1
  N  N30  1  0.95404700  0.60451600  0.50589000  1
  N  N31  1  0.94128700  0.60133800  0.16975600  1
  N  N32  1  0.67081600  0.33208900  0.94854700  1
  N  N33  1  0.66916700  0.33410300  0.61475500  1
  N  N34  1  0.67621000  0.35294900  0.28463100  1
  N  N35  1  0.31903200  0.00686400  0.91851400  1
  N  N36  1  0.31900900  0.00931500  0.58661000  1
  N  N37  1  0.30846000  0.00291000  0.25309400  1
  N  N38  1  0.00987800  0.33162700  0.91176400  1
  N  N39  1  0.01032500  0.33213500  0.25320700  1
  N  N40  1  0.00348200  0.32279900  0.58423900  1
  N  N41  1  0.64067000  0.04536400  0.83440000  1
  N  N42  1  0.63984700  0.04030200  0.50719200  1
  N  N43  1  0.65120800  0.07456500  0.16668000  1
  N  N44  1  0.99911800  0.00470700  0.33389800  1
  O  O0  1  0.31056500  0.99132300  0.74993000  1
  O  O1  1  0.31311600  0.99284100  0.41872900  1
  O  O2  1  0.31032200  0.99991000  0.08275000  1
loop_
_geom_bond_atom_site_label_1
_geom_bond_atom_site_label_2
_geom_bond_distance
_geom_bond_site_symmetry_2
Al0 N43 1.780227 1_565
Al0 N13 1.788843 1_555
Al0 N2 1.864655 1_554
Al0 O2 1.979549 1_555
Al1 N38 1.786514 1_555
Al1 N6 1.857909 1_445
Al1 N22 1.868222 1_456
Al1 N24 1.920626 1_556
Al2 N1 1.836989 1_545
Al2 N43 1.838765 1_555
Al2 N34 1.852216 1_555
Al2 N37 1.876518 1_555
Al3 N20 1.812180 1_655
Al3 N38 1.813506 1_655
Al3 N7 1.872979 1_645
Al3 N41 1.879625 1_555
Al4 N21 1.817417 1_655
Al4 N40 1.845641 1_655
Al4 N42 1.867487 1_555
Al4 N9 1.873314 1_645
Al5 N39 1.833628 1_655
Al5 N43 1.837313 1_555
Al5 N22 1.843157 1_555
Al5 N10 1.844063 1_645
N0 Si3 1.743288 1_555
N0 Si29 1.759441 1_565
N0 Si9 1.772845 1_555
N1 Si4 1.711034 1_555
N1 Si10 1.717881 1_555
N2 Si28 1.731953 1_565
N2 Si8 1.759203 1_555
N3 Si1 1.721789 1_555
N3 Si5 1.776427 1_555
N3 Si23 1.790540 1_455
N4 Si2 1.719589 1_555
N4 Si24 1.771763 1_455
N4 Si6 1.787957 1_555
N5 Si0 1.741175 1_554
N5 Si7 1.787254 1_555
N5 Si22 1.820761 1_454
N6 Si0 1.682205 1_655
N6 Si8 1.709679 1_555
N7 Si25 1.685877 1_565
N7 Si11 1.717397 1_455
N8 Si1 1.725916 1_645
N8 Si9 1.767035 1_545
N8 Si18 1.787063 1_655
N9 Si27 1.690057 1_565
N9 Si12 1.721261 1_455
N10 Si26 1.685742 1_565
N10 Si13 1.703293 1_455
N11 Si3 1.724498 1_555
N11 Si5 1.756431 1_555
N11 Si14 1.764549 1_555
N12 Si4 1.726199 1_555
N12 Si6 1.751312 1_555
N12 Si15 1.763331 1_555
N13 Si7 1.687250 1_555
N13 Si16 1.699539 1_555
N14 Si11 1.750069 1_555
N14 Si9 1.769336 1_555
N14 Si14 1.771845 1_555
N15 Si12 1.746590 1_555
N15 Si15 1.766761 1_555
N15 Si10 1.766802 1_555
N16 Si16 1.780459 1_555
N16 Si13 1.781652 1_555
N16 Si8 1.827716 1_554
N16 Y0 2.792265 1_555
N17 Si19 1.744363 1_555
N17 Si8 1.745293 1_555
N17 Si11 1.775880 1_555
N18 Si9 1.742408 1_555
N18 Si20 1.763695 1_555
N18 Si12 1.774311 1_555
N19 Si13 1.748545 1_555
N19 Si10 1.766625 1_555
N19 Si21 1.775552 1_555
N20 Si5 1.701408 1_555
N20 Si18 1.702206 1_555
N21 Si17 1.701446 1_555
N21 Si6 1.703931 1_555
N22 Si7 1.693262 1_655
N22 Y0 2.396828 1_555
N23 Si20 1.757419 1_555
N23 Si14 1.758370 1_555
N23 Si18 1.779905 1_555
N24 Si16 1.729169 1_555
N24 Si19 1.745349 1_554
N25 Si21 1.745999 1_555
N25 Si15 1.768097 1_555
N25 Si17 1.776554 1_555
N26 Si25 1.755726 1_555
N26 Si19 1.775273 1_555
N26 Si14 1.793018 1_555
N27 Si27 1.747253 1_555
N27 Si15 1.775753 1_555
N27 Si20 1.792323 1_555
N28 Si26 1.790559 1_555
N28 Si16 1.797992 1_555
N28 Si21 1.856401 1_555
N28 Y0 2.586481 1_555
N29 Si11 1.750319 1_555
N29 Si22 1.755391 1_555
N29 Si5 1.767828 1_655
N30 Si12 1.751344 1_555
N30 Si6 1.755823 1_655
N30 Si23 1.766815 1_555
N31 Si13 1.788451 1_555
N31 Si7 1.805292 1_655
N31 Si24 1.850760 1_555
N31 Y0 2.566889 1_555
N32 Si19 1.797194 1_555
N32 Si28 1.818299 1_555
N32 Si22 1.832830 1_555
N32 Y0 2.376463 1_556
N33 Si20 1.742923 1_555
N33 Si29 1.749031 1_555
N33 Si23 1.762374 1_555
N34 Si21 1.697511 1_555
N34 Si24 1.716326 1_555
N35 Si0 1.744918 1_545
N35 Si25 1.754400 1_555
N35 Si28 1.772347 1_555
N36 Si1 1.724614 1_545
N36 Si27 1.748961 1_555
N36 Si29 1.772360 1_555
N37 Si26 1.694920 1_555
N37 Si2 1.697687 1_545
N38 Si22 1.664997 1_455
N39 Si17 1.703042 1_555
N39 Si24 1.721530 1_455
N40 Si18 1.691759 1_555
N40 Si23 1.714448 1_455
N41 Si3 1.687879 1_545
N41 Si28 1.701185 1_555
N42 Si4 1.689973 1_545
N42 Si29 1.712549 1_555
N43 Y0 2.341503 1_555
N44 Si2 1.729108 1_645
N44 Si10 1.765877 1_545
N44 Si17 1.783175 1_655
O0 Si25 1.813792 1_565
O0 Si3 1.832260 1_555
O0 Si1 1.834486 1_555
O1 Si27 1.803554 1_565
O1 Si2 1.832890 1_555
O1 Si4 1.849443 1_555
O2 Si0 1.817230 1_554
O2 Si26 1.819447 1_565
O2 Y0 2.741274 1_565
