# generated using pymatgen
data_Li2FeP2O7
_symmetry_space_group_name_H-M   'P 1'
_cell_length_a   5.10209915
_cell_length_b   12.84484460
_cell_length_c   8.50438959
_cell_angle_alpha   79.87484299
_cell_angle_beta   88.64372110
_cell_angle_gamma   88.31190977
_symmetry_Int_Tables_number   1
_chemical_formula_structural   Li2FeP2O7
_chemical_formula_sum   'Li8 Fe4 P8 O28'
_cell_volume   548.32594579
_cell_formula_units_Z   4
loop_
 _symmetry_equiv_pos_site_id
 _symmetry_equiv_pos_as_xyz
  1  'x, y, z'
loop_
 _atom_site_type_symbol
 _atom_site_label
 _atom_site_symmetry_multiplicity
 _atom_site_fract_x
 _atom_site_fract_y
 _atom_site_fract_z
 _atom_site_occupancy
  Li  Li0  1  0.23121900  0.68314300  0.88123000  1
  Li  Li1  1  0.23063100  0.18325900  0.38130700  1
  Li  Li2  1  0.76911100  0.31670200  0.11861400  1
  Li  Li3  1  0.76862100  0.81681900  0.61886000  1
  Li  Li4  1  0.29378700  0.91825000  0.07728200  1
  Li  Li5  1  0.29341100  0.41804400  0.57732700  1
  Li  Li6  1  0.70659500  0.08197000  0.92263500  1
  Li  Li7  1  0.70637100  0.58177000  0.42269500  1
  Fe  Fe0  1  0.76664200  0.02072700  0.25886100  1
  Fe  Fe1  1  0.23341000  0.47924700  0.24115100  1
  Fe  Fe2  1  0.76669900  0.52078500  0.75880300  1
  Fe  Fe3  1  0.23345900  0.97917500  0.74118800  1
  P  P0  1  0.21923400  0.14750800  0.03154200  1
  P  P1  1  0.21905400  0.64738100  0.53150500  1
  P  P2  1  0.78101600  0.85262600  0.96853100  1
  P  P3  1  0.78081300  0.35250600  0.46839700  1
  P  P4  1  0.71793000  0.62433300  0.07352900  1
  P  P5  1  0.71749900  0.12421600  0.57357500  1
  P  P6  1  0.28242300  0.37577400  0.92642000  1
  P  P7  1  0.28203900  0.87567000  0.42652200  1
  O  O0  1  0.07850000  0.85065900  0.93180900  1
  O  O1  1  0.07836800  0.35042400  0.43187100  1
  O  O2  1  0.92168500  0.14961300  0.06799500  1
  O  O3  1  0.92153800  0.64933100  0.56817400  1
  O  O4  1  0.28186800  0.25279000  0.90272200  1
  O  O5  1  0.28118000  0.75267700  0.40269500  1
  O  O6  1  0.71896300  0.74732600  0.09732500  1
  O  O7  1  0.71834600  0.24720300  0.59721200  1
  O  O8  1  0.57318800  0.40251700  0.92931400  1
  O  O9  1  0.57281800  0.90232200  0.42957500  1
  O  O10  1  0.42707700  0.59774400  0.07058500  1
  O  O11  1  0.42667400  0.09754900  0.57075100  1
  O  O12  1  0.61261400  0.35580100  0.32122400  1
  O  O13  1  0.61251100  0.85591900  0.82147800  1
  O  O14  1  0.38745500  0.64411600  0.67860300  1
  O  O15  1  0.38740000  0.14423900  0.17872700  1
  O  O16  1  0.85924400  0.56481700  0.21995900  1
  O  O17  1  0.85905300  0.06474700  0.71991900  1
  O  O18  1  0.14088900  0.43519800  0.78002700  1
  O  O19  1  0.14079900  0.93517500  0.28004800  1
  O  O20  1  0.69656100  0.43952900  0.56468000  1
  O  O21  1  0.69681700  0.93966600  0.06484700  1
  O  O22  1  0.30332500  0.56034700  0.43520900  1
  O  O23  1  0.30354200  0.06046200  0.93530800  1
  O  O24  1  0.13464400  0.37967300  0.08504600  1
  O  O25  1  0.13409100  0.87951100  0.58511400  1
  O  O26  1  0.86575700  0.62044800  0.91491500  1
  O  O27  1  0.86513000  0.12029200  0.41489300  1
loop_
_geom_bond_atom_site_label_1
_geom_bond_atom_site_label_2
_geom_bond_distance
_geom_bond_site_symmetry_2
Li0 O14 2.017760 1_555
Li0 O10 2.045870 1_556
Li0 O26 2.046821 1_455
Li0 O0 2.373356 1_555
Li1 O15 2.018372 1_555
Li1 O27 2.048348 1_455
Li1 O11 2.048401 1_555
Li1 O1 2.368434 1_555
Li2 O12 2.018479 1_555
Li2 O8 2.047758 1_554
Li2 O24 2.048511 1_655
Li2 O2 2.368155 1_555
Li3 O13 2.017819 1_555
Li3 O9 2.045825 1_555
Li3 O25 2.046869 1_655
Li3 O3 2.373625 1_555
Li4 O19 1.920466 1_555
Li4 O0 1.997250 1_554
Li4 O23 2.006026 1_564
Li4 O21 2.080391 1_555
Li5 O18 1.919814 1_555
Li5 O1 1.996638 1_555
Li5 O22 2.007539 1_555
Li5 O20 2.081141 1_555
Li6 O17 1.920044 1_555
Li6 O2 1.996363 1_556
Li6 O21 2.007876 1_546
Li6 O23 2.080697 1_555
Li7 O16 1.920103 1_555
Li7 O3 1.996717 1_555
Li7 O20 2.006378 1_555
Li7 O22 2.080488 1_555
Fe0 O27 2.077257 1_555
Fe0 O21 2.141768 1_545
Fe0 O9 2.154793 1_545
Fe0 O19 2.169643 1_645
Fe0 O2 2.252292 1_555
Fe0 O15 2.495349 1_555
Fe1 O24 2.078200 1_555
Fe1 O22 2.142494 1_555
Fe1 O10 2.154455 1_555
Fe1 O16 2.169791 1_455
Fe1 O1 2.251066 1_555
Fe1 O12 2.494629 1_555
Fe2 O26 2.079496 1_555
Fe2 O20 2.144452 1_555
Fe2 O8 2.152065 1_555
Fe2 O18 2.170003 1_655
Fe2 O3 2.248045 1_555
Fe2 O14 2.494145 1_555
Fe3 O25 2.079700 1_555
Fe3 O23 2.144624 1_565
Fe3 O11 2.151845 1_565
Fe3 O17 2.170874 1_465
Fe3 O0 2.247985 1_555
Fe3 O13 2.492991 1_555
O0 P2 1.542705 1_455
O1 P3 1.542792 1_455
O2 P0 1.542657 1_655
O3 P1 1.542778 1_655
O4 P0 1.618365 1_556
O4 P6 1.627372 1_555
O5 P1 1.617918 1_555
O5 P7 1.627862 1_555
O6 P2 1.617808 1_554
O6 P4 1.627815 1_555
O7 P3 1.618362 1_555
O7 P5 1.627308 1_555
O8 P6 1.534320 1_555
O9 P7 1.534198 1_555
O10 P4 1.534287 1_555
O11 P5 1.534323 1_555
O12 P3 1.528028 1_555
O13 P2 1.528094 1_555
O14 P1 1.528150 1_555
O15 P0 1.528059 1_555
O16 P4 1.526543 1_555
O17 P5 1.526380 1_555
O18 P6 1.526441 1_555
O19 P7 1.526591 1_555
O20 P3 1.543234 1_555
O21 P2 1.543527 1_554
O22 P1 1.543444 1_555
O23 P0 1.543272 1_556
O24 P6 1.537604 1_554
O25 P7 1.537628 1_555
O26 P4 1.537599 1_556
O27 P5 1.537721 1_555
