# generated using pymatgen
data_Ba2Yb2Al4Si3(N5O2)2
_symmetry_space_group_name_H-M   'P 1'
_cell_length_a   6.80729900
_cell_length_b   7.18355406
_cell_length_c   8.25062304
_cell_angle_alpha   100.46623204
_cell_angle_beta   92.05557910
_cell_angle_gamma   114.82908848
_symmetry_Int_Tables_number   1
_chemical_formula_structural   Ba2Yb2Al4Si3(N5O2)2
_chemical_formula_sum   'Ba2 Yb2 Al4 Si3 N10 O4'
_cell_volume   357.21983992
_cell_formula_units_Z   1
loop_
 _symmetry_equiv_pos_site_id
 _symmetry_equiv_pos_as_xyz
  1  'x, y, z'
loop_
 _atom_site_type_symbol
 _atom_site_label
 _atom_site_symmetry_multiplicity
 _atom_site_fract_x
 _atom_site_fract_y
 _atom_site_fract_z
 _atom_site_occupancy
  Ba  Ba0  1  0.61385700  0.31809900  0.15451100  1
  Ba  Ba1  1  0.41354800  0.76061700  0.61343500  1
  Yb  Yb0  1  0.65350300  0.29820400  0.80702000  1
  Yb  Yb1  1  0.17885800  0.55904500  0.20924000  1
  Al  Al0  1  0.83979000  0.17292100  0.45961800  1
  Al  Al1  1  0.08929600  0.77097200  0.91381300  1
  Al  Al2  1  0.54569200  0.82160100  0.04071600  1
  Al  Al3  1  0.18503500  0.38519200  0.84592300  1
  Si  Si0  1  0.87634800  0.60743600  0.50014400  1
  Si  Si1  1  0.96396700  0.92862000  0.19759700  1
  Si  Si2  1  0.43153900  0.28375700  0.49908800  1
  N  N0  1  0.97743400  0.77483600  0.34898700  1
  N  N1  1  0.43762200  0.53217700  0.00865200  1
  N  N2  1  0.99874100  0.49686100  0.94842700  1
  N  N3  1  0.20289200  0.89418100  0.38259000  1
  N  N4  1  0.23493100  0.08739000  0.33820700  1
  N  N5  1  0.39164700  0.93635200  0.94066200  1
  N  N6  1  0.75555500  0.99984600  0.23340700  1
  N  N7  1  0.99175500  0.44017600  0.43474000  1
  N  N8  1  0.59636700  0.51344200  0.45211100  1
  N  N9  1  0.93632300  0.15101900  0.69080800  1
  O  O0  1  0.97270100  0.73241900  0.69639500  1
  O  O1  1  0.58247000  0.15824200  0.53611500  1
  O  O2  1  0.78072200  0.04081800  0.78027300  1
  O  O3  1  0.34940600  0.33577800  0.67941900  1
loop_
_geom_bond_atom_site_label_1
_geom_bond_atom_site_label_2
_geom_bond_distance
_geom_bond_site_symmetry_2
Ba0 N8 2.630912 1_555
Ba0 N1 2.714895 1_555
Ba0 N5 2.736481 1_544
Ba0 Yb0 2.872644 1_554
Ba0 N6 2.988046 1_545
Ba0 N4 3.049618 1_555
Ba0 N7 3.110364 1_555
Ba0 N2 3.113183 1_554
Ba0 N0 3.232299 1_555
Ba1 O2 2.591334 1_565
Ba1 N8 2.754839 1_555
Ba1 O1 2.800758 1_565
Ba1 N5 2.802431 1_555
Ba1 N3 2.868442 1_555
Ba1 N7 2.937554 1_455
Ba1 O0 3.033580 1_455
Ba1 O3 3.049987 1_555
Al0 N7 1.813433 1_555
Al0 O1 1.850980 1_555
Al0 N6 1.959441 1_545
Al0 N9 2.049616 1_555
Al1 O0 1.859371 1_455
Al1 N5 1.874775 1_555
Al1 N2 1.880536 1_455
Al2 N5 1.836211 1_554
Al2 N1 1.853510 1_555
Al2 N6 1.941441 1_555
Al3 O3 1.879330 1_555
Al3 N2 1.910962 1_455
Al3 N1 1.915354 1_556
Al3 N9 2.001157 1_455
N0 N3 1.394792 1_655
N0 Si1 1.834969 1_555
N0 Si0 1.840225 1_555
N0 Yb1 2.619451 1_655
N1 Yb1 2.501525 1_555
N1 Yb0 2.997664 1_554
N2 Yb0 2.302746 1_555
N2 Yb1 2.309751 1_656
N3 N4 1.429742 1_565
N3 Yb1 2.503940 1_555
N4 Si2 1.774749 1_555
N4 Si1 1.909969 1_445
N5 Yb0 2.905339 1_565
N6 Si1 1.716577 1_555
N7 Si0 1.714531 1_555
N7 Yb1 2.376278 1_655
N8 Si2 1.685319 1_555
N8 Si0 1.735887 1_555
N9 O2 1.362963 1_555
O0 Si0 1.661074 1_555
O1 Si2 1.678529 1_555
O1 Yb0 2.222214 1_555
O2 Yb0 2.329700 1_555
O3 Si2 1.642883 1_555
O3 Yb0 2.425405 1_555
