# generated using pymatgen
data_Co3SnC12ClO12
_symmetry_space_group_name_H-M   'P 1'
_cell_length_a   16.45211700
_cell_length_b   8.59053200
_cell_length_c   16.50363679
_cell_angle_alpha   74.19199112
_cell_angle_beta   90.00000000
_cell_angle_gamma   90.00000000
_symmetry_Int_Tables_number   1
_chemical_formula_structural   Co3SnC12ClO12
_chemical_formula_sum   'Co12 Sn4 C48 Cl4 O48'
_cell_volume   2244.28391954
_cell_formula_units_Z   4
loop_
 _symmetry_equiv_pos_site_id
 _symmetry_equiv_pos_as_xyz
  1  'x, y, z'
loop_
 _atom_site_type_symbol
 _atom_site_label
 _atom_site_symmetry_multiplicity
 _atom_site_fract_x
 _atom_site_fract_y
 _atom_site_fract_z
 _atom_site_occupancy
  Co  Co0  1  0.62207900  0.06829200  0.75087200  1
  Co  Co1  1  0.12207900  0.93170800  0.74912800  1
  Co  Co2  1  0.37792100  0.93170800  0.24912800  1
  Co  Co3  1  0.87792100  0.06829200  0.25087200  1
  Co  Co4  1  0.84618800  0.16923000  0.88376300  1
  Co  Co5  1  0.34618800  0.83077000  0.61623700  1
  Co  Co6  1  0.15381200  0.83077000  0.11623700  1
  Co  Co7  1  0.65381200  0.16923000  0.38376300  1
  Co  Co8  1  0.67774700  0.75836400  0.00803600  1
  Co  Co9  1  0.17774700  0.24163600  0.49196400  1
  Co  Co10  1  0.32225300  0.24163600  0.99196400  1
  Co  Co11  1  0.82225300  0.75836400  0.50803600  1
  Sn  Sn0  1  0.73766700  0.94725100  0.86444800  1
  Sn  Sn1  1  0.23766700  0.05274900  0.63555200  1
  Sn  Sn2  1  0.26233300  0.05274900  0.13555200  1
  Sn  Sn3  1  0.76233300  0.94725100  0.36444800  1
  C  C0  1  0.61975000  0.86772500  0.73995700  1
  C  C1  1  0.11975000  0.13227500  0.76004300  1
  C  C2  1  0.38025000  0.13227500  0.26004300  1
  C  C3  1  0.88025000  0.86772500  0.23995700  1
  C  C4  1  0.54887200  0.15360100  0.67263300  1
  C  C5  1  0.04887200  0.84639900  0.82736700  1
  C  C6  1  0.45112800  0.84639900  0.32736700  1
  C  C7  1  0.95112800  0.15360100  0.17263300  1
  C  C8  1  0.69835900  0.20546100  0.69990300  1
  C  C9  1  0.19835900  0.79453900  0.80009700  1
  C  C10  1  0.30164100  0.79453900  0.30009700  1
  C  C11  1  0.80164100  0.20546100  0.19990300  1
  C  C12  1  0.56770300  0.10366000  0.83674100  1
  C  C13  1  0.06770300  0.89634000  0.66325900  1
  C  C14  1  0.43229700  0.89634000  0.16325900  1
  C  C15  1  0.93229700  0.10366000  0.33674100  1
  C  C16  1  0.88193300  0.14536100  0.78622900  1
  C  C17  1  0.38193300  0.85463900  0.71377100  1
  C  C18  1  0.11806700  0.85463900  0.21377100  1
  C  C19  1  0.61806700  0.14536100  0.28622900  1
  C  C20  1  0.76014800  0.29299900  0.88717100  1
  C  C21  1  0.26014800  0.70700100  0.61282900  1
  C  C22  1  0.23985200  0.70700100  0.11282900  1
  C  C23  1  0.73985200  0.29299900  0.38717100  1
  C  C24  1  0.91775000  0.31978500  0.88892100  1
  C  C25  1  0.41775000  0.68021500  0.61107900  1
  C  C26  1  0.08225000  0.68021500  0.11107900  1
  C  C27  1  0.58225000  0.31978500  0.38892100  1
  C  C28  1  0.87693200  0.03028900  0.97905400  1
  C  C29  1  0.37693200  0.96971100  0.52094600  1
  C  C30  1  0.12306800  0.96971100  0.02094600  1
  C  C31  1  0.62306800  0.03028900  0.47905400  1
  C  C32  1  0.60159800  0.69527300  0.94737200  1
  C  C33  1  0.10159800  0.30472700  0.55262800  1
  C  C34  1  0.39840200  0.30472700  0.05262800  1
  C  C35  1  0.89840200  0.69527300  0.44737200  1
  C  C36  1  0.66546900  0.94685000  0.03083700  1
  C  C37  1  0.16546900  0.05315000  0.46916300  1
  C  C38  1  0.33453100  0.05315000  0.96916300  1
  C  C39  1  0.83453100  0.94685000  0.53083700  1
  C  C40  1  0.63840300  0.64209600  0.10582500  1
  C  C41  1  0.13840300  0.35790400  0.39417500  1
  C  C42  1  0.36159700  0.35790400  0.89417500  1
  C  C43  1  0.86159700  0.64209600  0.60582500  1
  C  C44  1  0.77183700  0.65178100  0.01665300  1
  C  C45  1  0.27183700  0.34821900  0.48334700  1
  C  C46  1  0.22816300  0.34821900  0.98334700  1
  C  C47  1  0.72816300  0.65178100  0.51665300  1
  Cl  Cl0  1  0.81269900  0.76763700  0.80156700  1
  Cl  Cl1  1  0.31269900  0.23236300  0.69843300  1
  Cl  Cl2  1  0.18730100  0.23236300  0.19843300  1
  Cl  Cl3  1  0.68730100  0.76763700  0.30156700  1
  O  O0  1  0.61448000  0.73923400  0.73069900  1
  O  O1  1  0.11448000  0.26076600  0.76930100  1
  O  O2  1  0.38552000  0.26076600  0.26930100  1
  O  O3  1  0.88552000  0.73923400  0.23069900  1
  O  O4  1  0.50410700  0.21260100  0.61912900  1
  O  O5  1  0.00410700  0.78739900  0.88087100  1
  O  O6  1  0.49589300  0.78739900  0.38087100  1
  O  O7  1  0.99589300  0.21260100  0.11912900  1
  O  O8  1  0.74436600  0.30212900  0.66393500  1
  O  O9  1  0.24436600  0.69787100  0.83606500  1
  O  O10  1  0.25563400  0.69787100  0.33606500  1
  O  O11  1  0.75563400  0.30212900  0.16393500  1
  O  O12  1  0.52764400  0.12913700  0.88957600  1
  O  O13  1  0.02764400  0.87086300  0.61042400  1
  O  O14  1  0.47235600  0.87086300  0.11042400  1
  O  O15  1  0.97235600  0.12913700  0.38957600  1
  O  O16  1  0.90814500  0.13839400  0.72214000  1
  O  O17  1  0.40814500  0.86160600  0.77786000  1
  O  O18  1  0.09185500  0.86160600  0.27786000  1
  O  O19  1  0.59185500  0.13839400  0.22214000  1
  O  O20  1  0.70716100  0.37920000  0.89157800  1
  O  O21  1  0.20716100  0.62080000  0.60842200  1
  O  O22  1  0.29283900  0.62080000  0.10842200  1
  O  O23  1  0.79283900  0.37920000  0.39157800  1
  O  O24  1  0.96340400  0.41967100  0.89265300  1
  O  O25  1  0.46340400  0.58032900  0.60734700  1
  O  O26  1  0.03659600  0.58032900  0.10734700  1
  O  O27  1  0.53659600  0.41967100  0.39265300  1
  O  O28  1  0.90355700  0.94960500  0.04156100  1
  O  O29  1  0.40355700  0.05039500  0.45843900  1
  O  O30  1  0.09644300  0.05039500  0.95843900  1
  O  O31  1  0.59644300  0.94960500  0.54156100  1
  O  O32  1  0.54919300  0.64761700  0.91384000  1
  O  O33  1  0.04919300  0.35238300  0.58616000  1
  O  O34  1  0.45080700  0.35238300  0.08616000  1
  O  O35  1  0.95080700  0.64761700  0.41384000  1
  O  O36  1  0.65443800  0.06743100  0.04785600  1
  O  O37  1  0.15443800  0.93256900  0.45214400  1
  O  O38  1  0.34556200  0.93256900  0.95214400  1
  O  O39  1  0.84556200  0.06743100  0.54785600  1
  O  O40  1  0.61082800  0.56614600  0.16843500  1
  O  O41  1  0.11082800  0.43385400  0.33156500  1
  O  O42  1  0.38917200  0.43385400  0.83156500  1
  O  O43  1  0.88917200  0.56614600  0.66843500  1
  O  O44  1  0.82968200  0.57201900  0.02685400  1
  O  O45  1  0.32968200  0.42798100  0.47314600  1
  O  O46  1  0.17031800  0.42798100  0.97314600  1
  O  O47  1  0.67031800  0.57201900  0.52685400  1
loop_
_geom_bond_atom_site_label_1
_geom_bond_atom_site_label_2
_geom_bond_distance
_geom_bond_site_symmetry_2
C0 O0 1.158074 1_555
C0 Co0 1.780918 1_565
C1 O1 1.158074 1_555
C1 Co1 1.780918 1_545
C2 O2 1.158074 1_555
C2 Co2 1.780918 1_545
C3 O3 1.158074 1_555
C3 Co3 1.780918 1_565
C4 O4 1.155492 1_555
C4 Co0 1.771830 1_555
C5 O5 1.155492 1_555
C5 Co1 1.771830 1_555
C6 O6 1.155492 1_555
C6 Co2 1.771830 1_555
C7 O7 1.155492 1_555
C7 Co3 1.771830 1_555
C8 O8 1.160312 1_555
C8 Co0 1.769463 1_555
C9 O9 1.160312 1_555
C9 Co1 1.769463 1_555
C10 O10 1.160312 1_555
C10 Co2 1.769463 1_555
C11 O11 1.160312 1_555
C11 Co3 1.769463 1_555
C12 O12 1.160414 1_555
C12 Co0 1.770742 1_555
C13 O13 1.160414 1_555
C13 Co1 1.770742 1_555
C14 O14 1.160414 1_555
C14 Co2 1.770742 1_555
C15 O15 1.160414 1_555
C15 Co3 1.770742 1_555
C16 O16 1.158782 1_555
C16 Co4 1.777282 1_555
C17 O17 1.158782 1_555
C17 Co5 1.777282 1_555
C18 O18 1.158782 1_555
C18 Co6 1.777282 1_555
C19 O19 1.158782 1_555
C19 Co7 1.777282 1_555
C20 O20 1.158852 1_555
C20 Co4 1.780444 1_555
C21 O21 1.158852 1_555
C21 Co5 1.780444 1_555
C22 O22 1.158852 1_555
C22 Co6 1.780444 1_555
C23 O23 1.158852 1_555
C23 Co7 1.780444 1_555
C24 O24 1.154572 1_555
C24 Co4 1.768085 1_555
C25 O25 1.154572 1_555
C25 Co5 1.768085 1_555
C26 O26 1.154572 1_555
C26 Co6 1.768085 1_555
C27 O27 1.154572 1_555
C27 Co7 1.768085 1_555
C28 O28 1.160565 1_546
C28 Co4 1.769463 1_555
C29 O29 1.160565 1_565
C29 Co5 1.769463 1_555
C30 O30 1.160565 1_564
C30 Co6 1.769463 1_555
C31 O31 1.160565 1_545
C31 Co7 1.769463 1_555
C32 O32 1.157855 1_555
C32 Co8 1.777998 1_556
C33 O33 1.157855 1_555
C33 Co9 1.777998 1_555
C34 O34 1.157855 1_555
C34 Co10 1.777998 1_554
C35 O35 1.157855 1_555
C35 Co11 1.777998 1_555
C36 O36 1.159025 1_565
C36 Co8 1.770922 1_555
C37 O37 1.159025 1_545
C37 Co9 1.770922 1_555
C38 O38 1.159025 1_545
C38 Co10 1.770922 1_555
C39 O39 1.159025 1_565
C39 Co11 1.770922 1_555
C40 O40 1.154076 1_555
C40 Co8 1.772837 1_555
C41 O41 1.154076 1_555
C41 Co9 1.772837 1_555
C42 O42 1.154076 1_555
C42 Co10 1.772837 1_555
C43 O43 1.154076 1_555
C43 Co11 1.772837 1_555
C44 O44 1.157874 1_555
C44 Co8 1.784336 1_555
C45 O45 1.157874 1_555
C45 Co9 1.784336 1_555
C46 O46 1.157874 1_555
C46 Co10 1.784336 1_555
C47 O47 1.157874 1_555
C47 Co11 1.784336 1_555
Cl0 Sn0 2.419500 1_555
Cl1 Sn1 2.419500 1_555
Cl2 Sn2 2.419500 1_555
Cl3 Sn3 2.419500 1_555
