# generated using pymatgen
data_Sr2YNbO6
_symmetry_space_group_name_H-M   'P 1'
_cell_length_a   5.96318000
_cell_length_b   5.85843700
_cell_length_c   10.17235294
_cell_angle_alpha   55.03870243
_cell_angle_beta   90.00000000
_cell_angle_gamma   90.00000000
_symmetry_Int_Tables_number   1
_chemical_formula_structural   Sr2YNbO6
_chemical_formula_sum   'Sr4 Y2 Nb2 O12'
_cell_volume   291.23990917
_cell_formula_units_Z   2
loop_
 _symmetry_equiv_pos_site_id
 _symmetry_equiv_pos_as_xyz
  1  'x, y, z'
loop_
 _atom_site_type_symbol
 _atom_site_label
 _atom_site_symmetry_multiplicity
 _atom_site_fract_x
 _atom_site_fract_y
 _atom_site_fract_z
 _atom_site_occupancy
  Sr  Sr0  1  0.46043100  0.25863100  0.75066200  1
  Sr  Sr1  1  0.96043100  0.74136900  0.74933800  1
  Sr  Sr2  1  0.03956900  0.25863100  0.25066200  1
  Sr  Sr3  1  0.53956900  0.74136900  0.24933800  1
  Y  Y0  1  0.50000000  0.00000000  0.50000000  1
  Y  Y1  1  0.00000000  0.00000000  0.00000000  1
  Nb  Nb0  1  0.00000000  0.50000000  0.50000000  1
  Nb  Nb1  1  0.50000000  0.50000000  0.00000000  1
  O  O0  1  0.19612200  0.73383100  0.54251700  1
  O  O1  1  0.69612200  0.26616900  0.95748300  1
  O  O2  1  0.80387800  0.26616900  0.45748300  1
  O  O3  1  0.30387800  0.73383100  0.04251700  1
  O  O4  1  0.72356400  0.64640600  0.54711800  1
  O  O5  1  0.22356400  0.35359400  0.95288200  1
  O  O6  1  0.27643600  0.35359400  0.45288200  1
  O  O7  1  0.77643600  0.64640600  0.04711800  1
  O  O8  1  0.02681900  0.18043500  0.73526300  1
  O  O9  1  0.52681900  0.81956500  0.76473700  1
  O  O10  1  0.97318100  0.81956500  0.26473700  1
  O  O11  1  0.47318100  0.18043500  0.23526300  1
loop_
_geom_bond_atom_site_label_1
_geom_bond_atom_site_label_2
_geom_bond_distance
_geom_bond_site_symmetry_2
Nb0 O2 2.027410 1_455
Nb0 O0 2.027410 1_555
Nb0 O10 2.030540 1_455
Nb0 O8 2.030540 1_555
Nb0 O6 2.038108 1_555
Nb0 O4 2.038108 1_455
Nb1 O1 2.027410 1_554
Nb1 O3 2.027410 1_555
Nb1 O11 2.030540 1_555
Nb1 O9 2.030540 1_554
Nb1 O5 2.038108 1_554
Nb1 O7 2.038108 1_555
O0 Y0 2.264797 1_565
O0 Sr1 2.551466 1_455
O0 Sr0 2.821726 1_555
O0 Sr2 2.945738 1_565
O1 Y1 2.264797 1_656
O1 Sr0 2.551466 1_555
O1 Sr1 2.821726 1_555
O1 Sr3 2.945738 1_546
O2 Y0 2.264797 1_555
O2 Sr2 2.551466 1_655
O2 Sr3 2.821726 1_555
O2 Sr1 2.945738 1_545
O3 Y1 2.264797 1_565
O3 Sr3 2.551466 1_555
O3 Sr2 2.821726 1_555
O3 Sr0 2.945738 1_564
O4 Y0 2.271627 1_565
O4 Sr0 2.553303 1_555
O4 Sr1 2.801361 1_555
O4 Sr3 2.959326 1_555
O5 Y1 2.271627 1_556
O5 Sr1 2.553303 1_455
O5 Sr0 2.801361 1_555
O5 Sr2 2.959326 1_556
O6 Y0 2.271627 1_555
O6 Sr3 2.553303 1_555
O6 Sr2 2.801361 1_555
O6 Sr0 2.959326 1_555
O7 Y1 2.271627 1_665
O7 Sr2 2.553303 1_655
O7 Sr3 2.801361 1_555
O7 Sr1 2.959326 1_554
O8 Y1 2.265564 1_556
O8 Sr1 2.524198 1_445
O8 Sr0 2.646227 1_555
O9 Y0 2.265564 1_565
O9 Sr0 2.524198 1_565
O9 Sr1 2.646227 1_555
O10 Y1 2.265564 1_665
O10 Sr2 2.524198 1_665
O10 Sr3 2.646227 1_555
O11 Y0 2.265564 1_555
O11 Sr3 2.524198 1_545
O11 Sr2 2.646227 1_555
