# generated using pymatgen
data_U3(Si3Pd10)2
_symmetry_space_group_name_H-M   'P 1'
_cell_length_a   8.69476777
_cell_length_b   8.69111998
_cell_length_c   8.68700988
_cell_angle_alpha   60.07567395
_cell_angle_beta   59.99600504
_cell_angle_gamma   59.86309334
_symmetry_Int_Tables_number   1
_chemical_formula_structural   U3(Si3Pd10)2
_chemical_formula_sum   'U3 Si6 Pd20'
_cell_volume   463.95069196
_cell_formula_units_Z   1
loop_
 _symmetry_equiv_pos_site_id
 _symmetry_equiv_pos_as_xyz
  1  'x, y, z'
loop_
 _atom_site_type_symbol
 _atom_site_label
 _atom_site_symmetry_multiplicity
 _atom_site_fract_x
 _atom_site_fract_y
 _atom_site_fract_z
 _atom_site_occupancy
  U  U0  1  0.25001676  0.25003427  0.24999546  1
  U  U1  1  0.74998532  0.74996658  0.75000264  1
  U  U2  1  -0.00000573  0.00000787  0.00000518  1
  Si  Si0  1  0.73292265  0.26703012  0.26691638  1
  Si  Si1  1  0.26692837  0.73294217  0.26734875  1
  Si  Si2  1  0.26707644  0.73297111  0.73307930  1
  Si  Si3  1  0.73238582  0.73240280  0.26761656  1
  Si  Si4  1  0.73306637  0.26705489  0.73265775  1
  Si  Si5  1  0.26761498  0.26759738  0.73238308  1
  Pd  Pd0  1  -0.00001231  0.65362410  0.99972929  1
  Pd  Pd1  1  0.38386262  0.84728693  0.38459908  1
  Pd  Pd2  1  0.99996246  0.65402590  0.34584020  1
  Pd  Pd3  1  0.34568360  -0.00003541  0.00006843  1
  Pd  Pd4  1  0.65426564  0.34583695  -0.00015753  1
  Pd  Pd5  1  0.61612429  0.15273172  0.61539231  1
  Pd  Pd6  1  0.65363766  -0.00006737  0.34671007  1
  Pd  Pd7  1  0.84727363  0.38389040  0.38424643  1
  Pd  Pd8  1  0.34635381  0.00007585  0.65328582  1
  Pd  Pd9  1  0.38455084  0.38420568  0.38389403  1
  Pd  Pd10  1  0.00039535  0.99948630  0.65384387  1
  Pd  Pd11  1  0.99960928  0.00051665  0.34616673  1
  Pd  Pd12  1  0.61545035  0.61579758  0.61609239  1
  Pd  Pd13  1  0.15274043  0.61610323  0.61574871  1
  Pd  Pd14  1  0.61582553  0.61541063  0.15266783  1
  Pd  Pd15  1  0.34571798  0.65416759  0.00015705  1
  Pd  Pd16  1  0.00002312  0.34636719  0.00028350  1
  Pd  Pd17  1  0.38417667  0.38457915  0.84734528  1
  Pd  Pd18  1  0.00006441  0.34594746  0.65414146  1
  Pd  Pd19  1  0.65430266  0.00004127  -0.00006006  1
loop_
_geom_bond_atom_site_label_1
_geom_bond_atom_site_label_2
_geom_bond_distance
_geom_bond_site_symmetry_2
Pd0 Si2 2.422516 1_555
Pd0 Si3 2.423387 1_456
Pd0 U2 3.011688 1_566
Pd1 Si3 2.471198 1_555
Pd1 Si1 2.473653 1_555
Pd1 Si2 2.473938 1_555
Pd1 U0 2.856725 1_565
Pd2 Si3 2.422068 1_555
Pd2 Si1 2.423317 1_655
Pd2 U2 3.009060 1_665
Pd3 Si1 2.423889 1_545
Pd3 Si5 2.423895 1_554
Pd3 U2 3.005774 1_555
Pd4 Si4 2.418579 1_554
Pd4 Si0 2.418822 1_555
Pd4 U2 2.999616 1_655
Pd5 Si5 2.471100 1_555
Pd5 Si4 2.473664 1_555
Pd5 Si0 2.473908 1_555
Pd5 U1 2.856851 1_545
Pd6 Si0 2.422408 1_555
Pd6 Si3 2.423212 1_545
Pd6 U2 3.011480 1_655
Pd7 Si3 2.472071 1_555
Pd7 Si4 2.473482 1_555
Pd7 Si0 2.473717 1_555
Pd7 U0 2.855599 1_655
Pd8 Si2 2.422428 1_545
Pd8 Si5 2.423191 1_555
Pd8 U2 3.011555 1_556
Pd9 Si0 2.470078 1_555
Pd9 Si1 2.473619 1_555
Pd9 Si5 2.474031 1_555
Pd9 U0 2.857413 1_555
Pd10 Si2 2.414123 1_555
Pd10 Si4 2.418380 1_465
Pd10 U2 3.007627 1_566
Pd11 Si0 2.414185 1_555
Pd11 Si1 2.418393 1_645
Pd11 U2 3.007643 1_655
Pd12 Si2 2.470093 1_555
Pd12 Si4 2.473664 1_555
Pd12 Si3 2.473938 1_555
Pd12 U1 2.857485 1_555
Pd13 Si5 2.472025 1_555
Pd13 Si1 2.473403 1_555
Pd13 Si2 2.473669 1_555
Pd13 U1 2.855684 1_455
Pd14 Si0 2.471082 1_555
Pd14 Si3 2.473455 1_555
Pd14 Si1 2.473810 1_555
Pd14 U1 2.858611 1_554
Pd15 Si1 2.418630 1_555
Pd15 Si2 2.418780 1_554
Pd15 U2 2.999643 1_565
Pd16 Si0 2.422505 1_455
Pd16 Si5 2.423407 1_554
Pd16 U2 3.011583 1_555
Pd17 Si2 2.471162 1_555
Pd17 Si5 2.473487 1_555
Pd17 Si4 2.473757 1_555
Pd17 U0 2.858504 1_556
Pd18 Si5 2.422027 1_555
Pd18 Si4 2.423383 1_455
Pd18 U2 3.009001 1_556
Pd19 Si4 2.423868 1_554
Pd19 Si3 2.423900 1_545
Pd19 U2 3.005846 1_655
