# generated using pymatgen
data_Pr4Si4N7ClO3
_symmetry_space_group_name_H-M   'P 1'
_cell_length_a   10.42306400
_cell_length_b   10.49524100
_cell_length_c   10.61953200
_cell_angle_alpha   90.00000000
_cell_angle_beta   90.00000000
_cell_angle_gamma   90.00000000
_symmetry_Int_Tables_number   1
_chemical_formula_structural   Pr4Si4N7ClO3
_chemical_formula_sum   'Pr16 Si16 N28 Cl4 O12'
_cell_volume   1161.69788322
_cell_formula_units_Z   4
loop_
 _symmetry_equiv_pos_site_id
 _symmetry_equiv_pos_as_xyz
  1  'x, y, z'
loop_
 _atom_site_type_symbol
 _atom_site_label
 _atom_site_symmetry_multiplicity
 _atom_site_fract_x
 _atom_site_fract_y
 _atom_site_fract_z
 _atom_site_occupancy
  Pr  Pr0  1  0.81752300  0.68758200  0.04419900  1
  Pr  Pr1  1  0.10631900  0.10742900  0.10125900  1
  Pr  Pr2  1  0.19234200  0.44899100  0.17798700  1
  Pr  Pr3  1  0.45445800  0.18390200  0.18959000  1
  Pr  Pr4  1  0.54554200  0.68390200  0.31041000  1
  Pr  Pr5  1  0.80765800  0.94899100  0.32201300  1
  Pr  Pr6  1  0.89368100  0.60742900  0.39874100  1
  Pr  Pr7  1  0.18247700  0.18758200  0.45580100  1
  Pr  Pr8  1  0.68247700  0.31241800  0.54419900  1
  Pr  Pr9  1  0.39368100  0.89257100  0.60125900  1
  Pr  Pr10  1  0.30765800  0.55100900  0.67798700  1
  Pr  Pr11  1  0.04554200  0.81609800  0.68959000  1
  Pr  Pr12  1  0.95445800  0.31609800  0.81041000  1
  Pr  Pr13  1  0.69234200  0.05100900  0.82201300  1
  Pr  Pr14  1  0.60631900  0.39257100  0.89874100  1
  Pr  Pr15  1  0.31752300  0.81241800  0.95580100  1
  Si  Si0  1  0.57240000  0.92901700  0.07102400  1
  Si  Si1  1  0.74631200  0.19786700  0.07709600  1
  Si  Si2  1  0.08169000  0.74151800  0.19497000  1
  Si  Si3  1  0.30455200  0.91754600  0.24361000  1
  Si  Si4  1  0.69544800  0.41754600  0.25639000  1
  Si  Si5  1  0.91831000  0.24151800  0.30503000  1
  Si  Si6  1  0.25368800  0.69786700  0.42290400  1
  Si  Si7  1  0.42760000  0.42901700  0.42897600  1
  Si  Si8  1  0.92760000  0.07098300  0.57102400  1
  Si  Si9  1  0.75368800  0.80213300  0.57709600  1
  Si  Si10  1  0.41831000  0.25848200  0.69497000  1
  Si  Si11  1  0.19544800  0.08245400  0.74361000  1
  Si  Si12  1  0.80455200  0.58245400  0.75639000  1
  Si  Si13  1  0.58169000  0.75848200  0.80503000  1
  Si  Si14  1  0.24631200  0.30213300  0.92290400  1
  Si  Si15  1  0.07240000  0.57098300  0.92897600  1
  N  N0  1  0.63407500  0.07805500  0.05414900  1
  N  N1  1  0.28643900  0.25786000  0.07356200  1
  N  N2  1  0.05203100  0.63319500  0.07717000  1
  N  N3  1  0.64980700  0.32418300  0.13226400  1
  N  N4  1  0.42232900  0.94486300  0.13450600  1
  N  N5  1  0.17535700  0.86919100  0.15037800  1
  N  N6  1  0.86907700  0.15151600  0.17746700  1
  N  N7  1  0.13092300  0.65151700  0.32253300  1
  N  N8  1  0.82464300  0.36919100  0.34962200  1
  N  N9  1  0.57767100  0.44486300  0.36549400  1
  N  N10  1  0.35019300  0.82418300  0.36773600  1
  N  N11  1  0.94796900  0.13319500  0.42283000  1
  N  N12  1  0.71356100  0.75786000  0.42643800  1
  N  N13  1  0.36592500  0.57805500  0.44585100  1
  N  N14  1  0.86592500  0.92194500  0.55414900  1
  N  N15  1  0.21356100  0.74214000  0.57356200  1
  N  N16  1  0.44796900  0.36680500  0.57717000  1
  N  N17  1  0.85019300  0.67581700  0.63226400  1
  N  N18  1  0.07767100  0.05513700  0.63450600  1
  N  N19  1  0.32464300  0.13080900  0.65037800  1
  N  N20  1  0.63092300  0.84848300  0.67746700  1
  N  N21  1  0.36907700  0.34848400  0.82253300  1
  N  N22  1  0.67535700  0.63080900  0.84962200  1
  N  N23  1  0.92232900  0.55513700  0.86549400  1
  N  N24  1  0.14980700  0.17581700  0.86773600  1
  N  N25  1  0.55203100  0.86680500  0.92283000  1
  N  N26  1  0.78643900  0.24214000  0.92643800  1
  N  N27  1  0.13407500  0.42194500  0.94585100  1
  Cl  Cl0  1  0.42522000  0.57779700  0.07109100  1
  Cl  Cl1  1  0.57478000  0.07779700  0.42890900  1
  Cl  Cl2  1  0.07478000  0.42220300  0.57109100  1
  Cl  Cl3  1  0.92522000  0.92220300  0.92890900  1
  O  O0  1  0.66578900  0.83523100  0.15870500  1
  O  O1  1  0.73985600  0.56552300  0.21053200  1
  O  O2  1  0.93118000  0.78565100  0.23545800  1
  O  O3  1  0.06882000  0.28565100  0.26454200  1
  O  O4  1  0.26014400  0.06552300  0.28946800  1
  O  O5  1  0.33421100  0.33523100  0.34129500  1
  O  O6  1  0.83421100  0.16476900  0.65870500  1
  O  O7  1  0.76014400  0.43447700  0.71053200  1
  O  O8  1  0.56882000  0.21434900  0.73545800  1
  O  O9  1  0.43118000  0.71434900  0.76454200  1
  O  O10  1  0.23985600  0.93447700  0.78946800  1
  O  O11  1  0.16578900  0.66476900  0.84129500  1
loop_
_geom_bond_atom_site_label_1
_geom_bond_atom_site_label_2
_geom_bond_distance
_geom_bond_site_symmetry_2
N0 Si0 1.700603 1_545
N0 Si1 1.734686 1_555
N0 Pr13 2.554702 1_554
N0 Pr3 2.609180 1_555
N1 Si14 1.717723 1_554
N1 Pr3 2.277648 1_555
N1 Pr1 2.470585 1_555
N1 Pr2 2.493107 1_555
N2 Si15 1.716999 1_554
N2 Si2 1.718431 1_555
N2 Pr0 2.534359 1_455
N2 Pr2 2.650016 1_555
N3 Si4 1.709969 1_555
N3 Si1 1.764241 1_555
N3 Pr3 2.585357 1_555
N3 Pr14 2.621174 1_554
N4 Si0 1.711390 1_555
N4 Si3 1.712198 1_555
N4 Pr15 2.593658 1_554
N4 Pr3 2.597743 1_565
N5 Si2 1.724208 1_555
N5 Si3 1.746758 1_555
N5 Pr15 2.611598 1_554
N5 Pr1 2.653624 1_565
N6 Si5 1.729361 1_555
N6 Si1 1.734970 1_555
N6 Pr1 2.642675 1_655
N6 Pr5 2.698896 1_545
N7 Si2 1.729355 1_555
N7 Si6 1.734967 1_555
N7 Pr6 2.642677 1_455
N7 Pr2 2.698904 1_555
N8 Si5 1.724208 1_555
N8 Si4 1.746758 1_555
N8 Pr8 2.611598 1_555
N8 Pr6 2.653624 1_555
N9 Si7 1.711390 1_555
N9 Si4 1.712198 1_555
N9 Pr8 2.593658 1_555
N9 Pr4 2.597743 1_555
N10 Si3 1.709969 1_555
N10 Si6 1.764241 1_555
N10 Pr4 2.585357 1_555
N10 Pr9 2.621174 1_555
N11 Si8 1.716999 1_555
N11 Si5 1.718431 1_555
N11 Pr7 2.534359 1_655
N11 Pr5 2.650016 1_545
N12 Si9 1.717723 1_555
N12 Pr4 2.277648 1_555
N12 Pr6 2.470585 1_555
N12 Pr5 2.493107 1_555
N13 Si7 1.700603 1_555
N13 Si6 1.734686 1_555
N13 Pr10 2.554702 1_555
N13 Pr4 2.609180 1_555
N14 Si8 1.700603 1_565
N14 Si9 1.734686 1_555
N14 Pr5 2.554702 1_555
N14 Pr11 2.609180 1_655
N15 Si6 1.717723 1_555
N15 Pr11 2.277648 1_555
N15 Pr9 2.470585 1_555
N15 Pr10 2.493107 1_555
N16 Si7 1.716999 1_555
N16 Si10 1.718431 1_555
N16 Pr8 2.534359 1_555
N16 Pr10 2.650016 1_555
N17 Si12 1.709969 1_555
N17 Si9 1.764241 1_555
N17 Pr11 2.585357 1_655
N17 Pr6 2.621174 1_555
N18 Si8 1.711390 1_455
N18 Si11 1.712198 1_555
N18 Pr7 2.593658 1_555
N18 Pr11 2.597743 1_545
N19 Si10 1.724208 1_555
N19 Si11 1.746758 1_555
N19 Pr7 2.611598 1_555
N19 Pr9 2.653624 1_545
N20 Si13 1.729355 1_555
N20 Si9 1.734967 1_555
N20 Pr9 2.642677 1_555
N20 Pr13 2.698904 1_565
N21 Si10 1.729361 1_555
N21 Si14 1.734970 1_555
N21 Pr14 2.642675 1_555
N21 Pr10 2.698896 1_555
N22 Si13 1.724208 1_555
N22 Si12 1.746758 1_555
N22 Pr0 2.611598 1_556
N22 Pr14 2.653624 1_555
N23 Si15 1.711390 1_655
N23 Si12 1.712198 1_555
N23 Pr0 2.593658 1_556
N23 Pr12 2.597743 1_555
N24 Si11 1.709969 1_555
N24 Si14 1.764241 1_555
N24 Pr12 2.585357 1_455
N24 Pr1 2.621174 1_556
N25 Si0 1.716999 1_556
N25 Si13 1.718431 1_555
N25 Pr15 2.534359 1_555
N25 Pr13 2.650016 1_565
N26 Si1 1.717723 1_556
N26 Pr12 2.277648 1_555
N26 Pr14 2.470585 1_555
N26 Pr13 2.493107 1_555
N27 Si15 1.700603 1_555
N27 Si14 1.734686 1_555
N27 Pr2 2.554702 1_556
N27 Pr12 2.609180 1_455
Cl0 Pr15 2.970267 1_554
Cl0 Pr2 3.001323 1_555
Cl0 Pr4 3.044983 1_555
Cl0 Pr14 3.269873 1_554
Cl1 Pr8 2.970267 1_555
Cl1 Pr5 3.001323 1_545
Cl1 Pr3 3.044983 1_555
Cl1 Pr9 3.269873 1_545
Cl2 Pr7 2.970267 1_555
Cl2 Pr10 3.001323 1_555
Cl2 Pr12 3.044983 1_455
Cl2 Pr6 3.269873 1_455
Cl3 Pr0 2.970267 1_556
Cl3 Pr13 3.001323 1_565
Cl3 Pr11 3.044983 1_655
Cl3 Pr1 3.269873 1_666
O0 Si0 1.668344 1_555
O0 Pr0 2.526104 1_555
O0 Pr5 2.572880 1_555
O0 Pr4 2.586270 1_555
O1 Si4 1.692154 1_555
O1 Pr0 2.327335 1_555
O1 Pr6 2.599781 1_555
O1 Pr4 2.602042 1_555
O2 Si2 1.691291 1_655
O2 Pr5 2.332655 1_555
O2 Pr0 2.566723 1_555
O2 Pr6 2.580347 1_555
O3 Si5 1.691291 1_455
O3 Pr2 2.332655 1_555
O3 Pr7 2.566723 1_555
O3 Pr1 2.580347 1_555
O4 Si3 1.692154 1_545
O4 Pr7 2.327335 1_555
O4 Pr1 2.599781 1_555
O4 Pr3 2.602042 1_555
O5 Si7 1.668344 1_555
O5 Pr7 2.526104 1_555
O5 Pr2 2.572880 1_555
O5 Pr3 2.586270 1_555
O6 Si8 1.668344 1_555
O6 Pr8 2.526104 1_555
O6 Pr13 2.572880 1_555
O6 Pr12 2.586270 1_555
O7 Si12 1.692154 1_555
O7 Pr8 2.327335 1_555
O7 Pr14 2.599781 1_555
O7 Pr12 2.602042 1_555
O8 Si10 1.691291 1_555
O8 Pr13 2.332655 1_555
O8 Pr8 2.566723 1_555
O8 Pr14 2.580347 1_555
O9 Si13 1.691291 1_555
O9 Pr10 2.332655 1_555
O9 Pr15 2.566723 1_555
O9 Pr9 2.580347 1_555
O10 Si11 1.692154 1_565
O10 Pr15 2.327335 1_555
O10 Pr9 2.599781 1_555
O10 Pr11 2.602042 1_555
O11 Si15 1.668344 1_555
O11 Pr15 2.526104 1_555
O11 Pr10 2.572880 1_555
O11 Pr11 2.586270 1_555
