# generated using pymatgen
data_Mg2TiO4
_symmetry_space_group_name_H-M   'P 1'
_cell_length_a   6.07605800
_cell_length_b   10.33750548
_cell_length_c   14.75342785
_cell_angle_alpha   91.48907475
_cell_angle_beta   90.05213288
_cell_angle_gamma   90.07760078
_symmetry_Int_Tables_number   1
_chemical_formula_structural   Mg2TiO4
_chemical_formula_sum   'Mg24 Ti12 O48'
_cell_volume   926.36752442
_cell_formula_units_Z   12
loop_
 _symmetry_equiv_pos_site_id
 _symmetry_equiv_pos_as_xyz
  1  'x, y, z'
loop_
 _atom_site_type_symbol
 _atom_site_label
 _atom_site_symmetry_multiplicity
 _atom_site_fract_x
 _atom_site_fract_y
 _atom_site_fract_z
 _atom_site_occupancy
  Mg  Mg0  1  0.00450400  0.41357000  0.58319400  1
  Mg  Mg1  1  0.99578000  0.75107900  0.25168700  1
  Mg  Mg2  1  0.99614800  0.25190000  0.24885300  1
  Mg  Mg3  1  0.24917000  0.83465300  0.91677000  1
  Mg  Mg4  1  0.25160100  0.16451300  0.58291800  1
  Mg  Mg5  1  0.24526200  0.50107900  0.25014000  1
  Mg  Mg6  1  0.24430500  0.33290200  0.79223400  1
  Mg  Mg7  1  0.25323700  0.66451600  0.45959500  1
  Mg  Mg8  1  0.24517800  0.99989800  0.12629100  1
  Mg  Mg9  1  0.25920600  0.66567500  0.70803900  1
  Mg  Mg10  1  0.25043600  0.00277800  0.37486800  1
  Mg  Mg11  1  0.25785500  0.33393000  0.03923400  1
  Mg  Mg12  1  0.50014700  0.08348300  0.91678300  1
  Mg  Mg13  1  0.74223900  0.83621100  0.79181400  1
  Mg  Mg14  1  0.75979300  0.16312400  0.70873100  1
  Mg  Mg15  1  0.74878300  0.16513900  0.45676400  1
  Mg  Mg16  1  0.74570500  0.49943400  0.37556800  1
  Mg  Mg17  1  0.74122200  0.50175300  0.12376200  1
  Mg  Mg18  1  0.75214900  0.83405800  0.04359200  1
  Mg  Mg19  1  0.75363200  0.49889000  0.75001700  1
  Mg  Mg20  1  0.74736100  0.16800000  0.08231900  1
  Mg  Mg21  1  0.75237000  0.83353900  0.41758700  1
  Mg  Mg22  1  0.00138000  0.58213900  0.91579200  1
  Mg  Mg23  1  0.00296100  0.91648900  0.58440300  1
  Ti  Ti0  1  0.00043600  0.07984700  0.92177300  1
  Ti  Ti1  1  0.25445700  0.00072000  0.75008800  1
  Ti  Ti2  1  0.23578900  0.33352300  0.41558500  1
  Ti  Ti3  1  0.23099300  0.66600000  0.08467700  1
  Ti  Ti4  1  0.50311200  0.59302800  0.91402200  1
  Ti  Ti5  1  0.50154300  0.91669700  0.57844100  1
  Ti  Ti6  1  0.50530800  0.40866500  0.58728700  1
  Ti  Ti7  1  0.49552200  0.25554300  0.24362800  1
  Ti  Ti8  1  0.49565700  0.74748100  0.25578400  1
  Ti  Ti9  1  0.74500400  0.33410300  0.91458100  1
  Ti  Ti10  1  0.77011400  0.66429000  0.58447700  1
  Ti  Ti11  1  0.76049800  0.00177600  0.25031700  1
  O  O0  1  0.01726000  0.92896000  0.83356700  1
  O  O1  1  0.03453500  0.07620800  0.66929900  1
  O  O2  1  0.03151300  0.25144300  0.49409000  1
  O  O3  1  0.02640600  0.41263500  0.33728700  1
  O  O4  1  0.02321400  0.58891100  0.16294900  1
  O  O5  1  0.02958700  0.74498100  0.00426200  1
  O  O6  1  0.24143200  0.15109100  0.83510000  1
  O  O7  1  0.26269600  0.48224800  0.50066800  1
  O  O8  1  0.25740700  0.81825400  0.16881400  1
  O  O9  1  0.26287700  0.51745300  0.99985300  1
  O  O10  1  0.26116800  0.84759900  0.66563800  1
  O  O11  1  0.25943500  0.18332000  0.33018300  1
  O  O12  1  0.26424900  0.65664600  0.84350100  1
  O  O13  1  0.26694500  0.34108600  0.65654900  1
  O  O14  1  0.23527900  0.01075000  0.99099400  1
  O  O15  1  0.26767000  0.98870600  0.50972900  1
  O  O16  1  0.25886300  0.32529500  0.17506000  1
  O  O17  1  0.25863800  0.67726900  0.32444900  1
  O  O18  1  0.46851600  0.92448500  0.83150000  1
  O  O19  1  0.51569500  0.91187100  0.32538000  1
  O  O20  1  0.51825300  0.42076700  0.84133100  1
  O  O21  1  0.47713900  0.59845000  0.16862800  1
  O  O22  1  0.51482600  0.09004400  0.17333700  1
  O  O23  1  0.51998200  0.75502600  0.50907600  1
  O  O24  1  0.53146200  0.25172100  0.99315000  1
  O  O25  1  0.52365100  0.57474000  0.65784400  1
  O  O26  1  0.47889000  0.40393100  0.33090200  1
  O  O27  1  0.48516800  0.06920000  0.66780200  1
  O  O28  1  0.48339700  0.26199200  0.50012100  1
  O  O29  1  0.48376900  0.73927400  0.99878400  1
  O  O30  1  0.76422500  0.00984600  0.99008300  1
  O  O31  1  0.74179700  0.34015400  0.65619900  1
  O  O32  1  0.73688000  0.65794000  0.84263000  1
  O  O33  1  0.73315900  0.67742400  0.32472900  1
  O  O34  1  0.73502300  0.32479100  0.17551800  1
  O  O35  1  0.73817000  0.98948700  0.51103900  1
  O  O36  1  0.73649800  0.83798300  0.17867200  1
  O  O37  1  0.75968800  0.16989600  0.84412400  1
  O  O38  1  0.74152200  0.50199200  0.51097300  1
  O  O39  1  0.74160000  0.82711000  0.65618500  1
  O  O40  1  0.73381600  0.16431200  0.32156700  1
  O  O41  1  0.74116000  0.49804800  0.98850700  1
  O  O42  1  0.98301100  0.24649400  0.99177300  1
  O  O43  1  0.96990200  0.41499600  0.83807100  1
  O  O44  1  0.97723700  0.58548800  0.66206800  1
  O  O45  1  0.97278500  0.74475400  0.50440100  1
  O  O46  1  0.96789600  0.92365000  0.33015600  1
  O  O47  1  0.96685600  0.08085800  0.17184300  1
loop_
_geom_bond_atom_site_label_1
_geom_bond_atom_site_label_2
_geom_bond_distance
_geom_bond_site_symmetry_2
Mg0 O13 2.077909 1_555
Mg0 O31 2.079984 1_455
Mg0 O44 2.105629 1_455
Mg0 O2 2.109655 1_555
Mg0 O7 2.119654 1_555
Mg0 O38 2.139055 1_455
Mg1 O17 2.080426 1_655
Mg1 O33 2.080805 1_555
Mg1 O4 2.106943 1_655
Mg1 O46 2.108382 1_555
Mg1 O36 2.121425 1_555
Mg1 O8 2.132795 1_655
Mg2 O34 2.073210 1_555
Mg2 O47 2.084048 1_555
Mg2 O16 2.086102 1_655
Mg2 O3 2.093569 1_655
Mg2 O11 2.131980 1_655
Mg2 O40 2.135656 1_555
Mg3 O18 2.069217 1_555
Mg3 O5 2.089867 1_556
Mg3 O14 2.101696 1_565
Mg3 O12 2.111940 1_555
Mg3 O0 2.122637 1_555
Mg3 O29 2.128561 1_555
Mg4 O1 2.063301 1_555
Mg4 O2 2.091546 1_555
Mg4 O15 2.092157 1_545
Mg4 O13 2.101635 1_555
Mg4 O28 2.134119 1_555
Mg4 O27 2.148921 1_555
Mg5 O3 2.078034 1_555
Mg5 O4 2.088127 1_555
Mg5 O17 2.102745 1_555
Mg5 O16 2.105198 1_555
Mg5 O26 2.122811 1_555
Mg5 O21 2.122861 1_555
Mg6 O43 1.983287 1_455
Mg6 O6 1.998595 1_555
Mg6 O13 2.010630 1_555
Mg6 O20 2.019865 1_555
Mg7 O7 1.995061 1_555
Mg7 O23 1.998363 1_555
Mg7 O45 2.001531 1_455
Mg7 O17 2.001932 1_555
Mg8 O8 1.996634 1_555
Mg8 O47 1.997144 1_465
Mg8 O22 1.998673 1_565
Mg8 O14 2.003006 1_564
Mg9 O25 1.995975 1_555
Mg9 O10 1.997341 1_555
Mg9 O12 2.003337 1_555
Mg9 O44 2.011767 1_455
Mg10 O19 1.996111 1_545
Mg10 O11 1.996152 1_555
Mg10 O15 2.001396 1_545
Mg10 O46 2.004370 1_445
Mg11 O24 1.980930 1_554
Mg11 O9 1.998728 1_554
Mg11 O16 2.008206 1_555
Mg11 O42 2.014190 1_454
Mg12 O18 2.052518 1_545
Mg12 O24 2.056005 1_555
Mg12 O30 2.089610 1_555
Mg12 O14 2.096851 1_555
Mg12 O6 2.110715 1_555
Mg12 O37 2.117311 1_555
Mg13 O18 1.979833 1_555
Mg13 O39 2.000760 1_555
Mg13 O32 2.007738 1_555
Mg13 O0 2.013509 1_655
Mg14 O1 1.977656 1_655
Mg14 O37 1.996919 1_555
Mg14 O31 2.008931 1_555
Mg14 O27 2.013705 1_555
Mg15 O28 1.996179 1_555
Mg15 O40 1.996404 1_555
Mg15 O35 2.004453 1_545
Mg15 O2 2.004729 1_655
Mg16 O38 1.997361 1_555
Mg16 O26 1.999270 1_555
Mg16 O3 2.003141 1_655
Mg16 O33 2.006461 1_555
Mg17 O41 1.994847 1_554
Mg17 O21 1.995980 1_555
Mg17 O34 2.000860 1_555
Mg17 O4 2.012144 1_655
Mg18 O36 1.994609 1_555
Mg18 O5 2.001131 1_655
Mg18 O30 2.001288 1_564
Mg18 O29 2.004067 1_554
Mg19 O43 2.055505 1_555
Mg19 O44 2.095521 1_555
Mg19 O32 2.112954 1_555
Mg19 O25 2.114626 1_555
Mg19 O31 2.120171 1_555
Mg19 O20 2.137633 1_555
Mg20 O24 2.063896 1_554
Mg20 O47 2.096788 1_555
Mg20 O34 2.099531 1_555
Mg20 O30 2.102452 1_554
Mg20 O22 2.122616 1_555
Mg20 O42 2.133012 1_554
Mg21 O46 2.075748 1_555
Mg21 O45 2.082727 1_555
Mg21 O33 2.092659 1_555
Mg21 O35 2.095792 1_555
Mg21 O23 2.128777 1_555
Mg21 O19 2.152010 1_555
Mg22 O43 2.057319 1_455
Mg22 O12 2.079489 1_555
Mg22 O32 2.099081 1_455
Mg22 O5 2.109834 1_556
Mg22 O41 2.110522 1_455
Mg22 O9 2.133570 1_555
Mg23 O1 2.054975 1_565
Mg23 O35 2.090946 1_455
Mg23 O15 2.097783 1_555
Mg23 O10 2.109241 1_555
Mg23 O45 2.113832 1_455
Mg23 O39 2.132385 1_455
O0 Ti0 2.008003 1_565
O0 Ti1 2.047457 1_565
O1 Ti1 1.965572 1_555
O2 Ti2 1.911236 1_555
O3 Ti2 1.915993 1_555
O4 Ti3 1.900049 1_555
O5 Ti3 1.903192 1_555
O6 Ti1 1.973541 1_555
O6 Ti0 2.090734 1_555
O7 Ti2 1.965910 1_555
O7 Ti6 2.105916 1_555
O8 Ti3 1.985262 1_555
O8 Ti8 2.079785 1_555
O9 Ti3 1.965477 1_556
O9 Ti4 2.096722 1_555
O10 Ti1 1.989297 1_565
O10 Ti5 2.084874 1_555
O11 Ti2 1.979490 1_555
O11 Ti7 2.072635 1_555
O12 Ti4 1.912275 1_555
O13 Ti6 1.914907 1_555
O14 Ti0 1.904541 1_555
O15 Ti5 1.908026 1_555
O16 Ti7 1.910255 1_555
O17 Ti8 1.914449 1_555
O18 Ti1 1.950514 1_565
O19 Ti8 1.966094 1_555
O19 Ti11 2.086960 1_565
O20 Ti9 1.979813 1_555
O20 Ti4 2.056947 1_555
O21 Ti8 1.983899 1_555
O21 Ti3 2.074339 1_555
O22 Ti7 1.981097 1_555
O22 Ti11 2.098840 1_555
O23 Ti5 1.940316 1_555
O23 Ti10 2.117110 1_555
O24 Ti9 1.950246 1_555
O25 Ti6 1.987413 1_555
O25 Ti10 2.079047 1_555
O26 Ti7 1.979683 1_555
O26 Ti2 2.078506 1_555
O27 Ti1 1.996270 1_555
O27 Ti5 2.031262 1_545
O28 Ti6 1.966794 1_555
O28 Ti2 2.100781 1_555
O29 Ti4 1.940548 1_555
O29 Ti3 2.142150 1_556
O30 Ti0 1.907075 1_655
O31 Ti6 1.907226 1_555
O32 Ti4 1.901065 1_555
O33 Ti8 1.918345 1_555
O34 Ti7 1.917570 1_555
O35 Ti5 1.913314 1_555
O36 Ti11 1.977759 1_565
O36 Ti8 2.089411 1_555
O37 Ti9 1.969475 1_555
O37 Ti0 2.091592 1_655
O38 Ti10 1.981251 1_555
O38 Ti6 2.077017 1_555
O39 Ti10 1.972519 1_555
O39 Ti5 2.087246 1_555
O40 Ti11 1.965616 1_555
O40 Ti7 2.089269 1_555
O41 Ti9 1.991598 1_555
O41 Ti4 2.078636 1_555
O42 Ti0 1.988400 1_655
O42 Ti9 2.064625 1_555
O43 Ti9 1.972185 1_555
O44 Ti10 1.899062 1_555
O45 Ti10 1.911798 1_555
O46 Ti11 1.917607 1_565
O47 Ti11 1.905233 1_555
