# generated using pymatgen
data_Ba4Na(BO3)3
_symmetry_space_group_name_H-M   'P 1'
_cell_length_a   13.88969648
_cell_length_b   13.88969648
_cell_length_c   13.88969648
_cell_angle_alpha   109.47122063
_cell_angle_beta   109.47122063
_cell_angle_gamma   109.47122063
_symmetry_Int_Tables_number   1
_chemical_formula_structural   Ba4Na(BO3)3
_chemical_formula_sum   'Ba32 Na8 B24 O72'
_cell_volume   2062.79645161
_cell_formula_units_Z   8
loop_
 _symmetry_equiv_pos_site_id
 _symmetry_equiv_pos_as_xyz
  1  'x, y, z'
loop_
 _atom_site_type_symbol
 _atom_site_label
 _atom_site_symmetry_multiplicity
 _atom_site_fract_x
 _atom_site_fract_y
 _atom_site_fract_z
 _atom_site_occupancy
  Ba  Ba0  1  0.74863900  0.49863900  0.25000000  1
  Ba  Ba1  1  0.49863900  0.74863900  0.75000000  1
  Ba  Ba2  1  0.75000000  0.75136100  0.00136100  1
  Ba  Ba3  1  0.49863900  0.25000000  0.74863900  1
  Ba  Ba4  1  0.25000000  0.74863900  0.49863900  1
  Ba  Ba5  1  0.00136100  0.75000000  0.75136100  1
  Ba  Ba6  1  0.75136100  0.25000000  0.00136100  1
  Ba  Ba7  1  0.74863900  0.75000000  0.49863900  1
  Ba  Ba8  1  0.75000000  0.49863900  0.74863900  1
  Ba  Ba9  1  0.25000000  0.00136100  0.75136100  1
  Ba  Ba10  1  0.00136100  0.75136100  0.25000000  1
  Ba  Ba11  1  0.75136100  0.00136100  0.75000000  1
  Ba  Ba12  1  0.25136100  0.50136100  0.75000000  1
  Ba  Ba13  1  0.50136100  0.25136100  0.25000000  1
  Ba  Ba14  1  0.25000000  0.24863900  0.99863900  1
  Ba  Ba15  1  0.50136100  0.75000000  0.25136100  1
  Ba  Ba16  1  0.75000000  0.25136100  0.50136100  1
  Ba  Ba17  1  0.99863900  0.25000000  0.24863900  1
  Ba  Ba18  1  0.24863900  0.75000000  0.99863900  1
  Ba  Ba19  1  0.25136100  0.25000000  0.50136100  1
  Ba  Ba20  1  0.25000000  0.50136100  0.25136100  1
  Ba  Ba21  1  0.75000000  0.99863900  0.24863900  1
  Ba  Ba22  1  0.99863900  0.24863900  0.75000000  1
  Ba  Ba23  1  0.24863900  0.99863900  0.25000000  1
  Ba  Ba24  1  0.50000000  0.50000000  0.50000000  1
  Ba  Ba25  1  0.50000000  0.50000000  0.00000000  1
  Ba  Ba26  1  0.50000000  0.00000000  0.50000000  1
  Ba  Ba27  1  0.00000000  0.50000000  0.50000000  1
  Ba  Ba28  1  0.50000000  0.00000000  0.00000000  1
  Ba  Ba29  1  0.00000000  0.00000000  0.50000000  1
  Ba  Ba30  1  0.00000000  0.50000000  0.00000000  1
  Ba  Ba31  1  0.00000000  0.00000000  0.00000000  1
  Na  Na0  1  0.25000000  0.25000000  0.25000000  1
  Na  Na1  1  0.25000000  0.50000000  0.00000000  1
  Na  Na2  1  0.00000000  0.25000000  0.50000000  1
  Na  Na3  1  0.50000000  0.00000000  0.25000000  1
  Na  Na4  1  0.75000000  0.75000000  0.75000000  1
  Na  Na5  1  0.75000000  0.50000000  0.00000000  1
  Na  Na6  1  0.00000000  0.75000000  0.50000000  1
  Na  Na7  1  0.50000000  0.00000000  0.75000000  1
  B  B0  1  0.73359200  0.98359200  0.96718400  1
  B  B1  1  0.48359200  0.23359200  0.46718400  1
  B  B2  1  0.23359200  0.26640800  0.75000000  1
  B  B3  1  0.01640800  0.48359200  0.75000000  1
  B  B4  1  0.75000000  0.01640800  0.48359200  1
  B  B5  1  0.46718400  0.48359200  0.23359200  1
  B  B6  1  0.23359200  0.46718400  0.48359200  1
  B  B7  1  0.26640800  0.75000000  0.23359200  1
  B  B8  1  0.01640800  0.03281600  0.26640800  1
  B  B9  1  0.96718400  0.73359200  0.98359200  1
  B  B10  1  0.51640800  0.25000000  0.98359200  1
  B  B11  1  0.25000000  0.76640800  0.73359200  1
  B  B12  1  0.98359200  0.96718400  0.73359200  1
  B  B13  1  0.73359200  0.25000000  0.76640800  1
  B  B14  1  0.76640800  0.53281600  0.51640800  1
  B  B15  1  0.53281600  0.51640800  0.76640800  1
  B  B16  1  0.25000000  0.98359200  0.51640800  1
  B  B17  1  0.98359200  0.51640800  0.25000000  1
  B  B18  1  0.76640800  0.73359200  0.25000000  1
  B  B19  1  0.51640800  0.76640800  0.53281600  1
  B  B20  1  0.26640800  0.01640800  0.03281600  1
  B  B21  1  0.03281600  0.26640800  0.01640800  1
  B  B22  1  0.48359200  0.75000000  0.01640800  1
  B  B23  1  0.75000000  0.23359200  0.26640800  1
  O  O0  1  0.74301300  0.59761700  0.59861100  1
  O  O1  1  0.41112900  0.45556400  0.70556400  1
  O  O2  1  0.70556400  0.41112900  0.45556400  1
  O  O3  1  0.79443600  0.25000000  0.70556400  1
  O  O4  1  0.04443600  0.08887100  0.79443600  1
  O  O5  1  0.25000000  0.70556400  0.79443600  1
  O  O6  1  0.45556400  0.25000000  0.04443600  1
  O  O7  1  0.79443600  0.04443600  0.08887100  1
  O  O8  1  0.40138900  0.25698700  0.40238300  1
  O  O9  1  0.25698700  0.35460500  0.85559900  1
  O  O10  1  0.99900600  0.40138900  0.64440100  1
  O  O11  1  0.64440100  0.99900600  0.40138900  1
  O  O12  1  0.40238300  0.50099400  0.14539500  1
  O  O13  1  0.14539500  0.40238300  0.50099400  1
  O  O14  1  0.35460500  0.85559900  0.25698700  1
  O  O15  1  0.99900600  0.09761700  0.35460500  1
  O  O16  1  0.64440100  0.14539500  0.24301300  1
  O  O17  1  0.50099400  0.85559900  0.09861100  1
  O  O18  1  0.09761700  0.35460500  0.99900600  1
  O  O19  1  0.24301300  0.64440100  0.14539500  1
  O  O20  1  0.85559900  0.09861100  0.50099400  1
  O  O21  1  0.40238300  0.40138900  0.25698700  1
  O  O22  1  0.25698700  0.40238300  0.40138900  1
  O  O23  1  0.35460500  0.99900600  0.09761700  1
  O  O24  1  0.24301300  0.09861100  0.09761700  1
  O  O25  1  0.14539500  0.24301300  0.64440100  1
  O  O26  1  0.09761700  0.24301300  0.09861100  1
  O  O27  1  0.09861100  0.50099400  0.85559900  1
  O  O28  1  0.09861100  0.09761700  0.24301300  1
  O  O29  1  0.50099400  0.14539500  0.40238300  1
  O  O30  1  0.85559900  0.25698700  0.35460500  1
  O  O31  1  0.40138900  0.64440100  0.99900600  1
  O  O32  1  0.59861100  0.74301300  0.59761700  1
  O  O33  1  0.74301300  0.64539500  0.14440100  1
  O  O34  1  0.00099400  0.59861100  0.35559900  1
  O  O35  1  0.35559900  0.00099400  0.59861100  1
  O  O36  1  0.59761700  0.49900600  0.85460500  1
  O  O37  1  0.85460500  0.59761700  0.49900600  1
  O  O38  1  0.64539500  0.14440100  0.74301300  1
  O  O39  1  0.00099400  0.90238300  0.64539500  1
  O  O40  1  0.35559900  0.85460500  0.75698700  1
  O  O41  1  0.49900600  0.14440100  0.90138900  1
  O  O42  1  0.90238300  0.64539500  0.00099400  1
  O  O43  1  0.75698700  0.35559900  0.85460500  1
  O  O44  1  0.14440100  0.90138900  0.49900600  1
  O  O45  1  0.59761700  0.59861100  0.74301300  1
  O  O46  1  0.08887100  0.79443600  0.04443600  1
  O  O47  1  0.64539500  0.00099400  0.90238300  1
  O  O48  1  0.75698700  0.90138900  0.90238300  1
  O  O49  1  0.85460500  0.75698700  0.35559900  1
  O  O50  1  0.90238300  0.75698700  0.90138900  1
  O  O51  1  0.90138900  0.49900600  0.14440100  1
  O  O52  1  0.25000000  0.04443600  0.45556400  1
  O  O53  1  0.49900600  0.85460500  0.59761700  1
  O  O54  1  0.14440100  0.74301300  0.64539500  1
  O  O55  1  0.59861100  0.35559900  0.00099400  1
  O  O56  1  0.54443600  0.29443600  0.58887100  1
  O  O57  1  0.29443600  0.20556400  0.75000000  1
  O  O58  1  0.95556400  0.54443600  0.75000000  1
  O  O59  1  0.75000000  0.95556400  0.54443600  1
  O  O60  1  0.58887100  0.54443600  0.29443600  1
  O  O61  1  0.29443600  0.58887100  0.54443600  1
  O  O62  1  0.20556400  0.75000000  0.29443600  1
  O  O63  1  0.95556400  0.91112900  0.20556400  1
  O  O64  1  0.75000000  0.29443600  0.20556400  1
  O  O65  1  0.54443600  0.75000000  0.95556400  1
  O  O66  1  0.91112900  0.20556400  0.95556400  1
  O  O67  1  0.20556400  0.95556400  0.91112900  1
  O  O68  1  0.45556400  0.70556400  0.41112900  1
  O  O69  1  0.70556400  0.79443600  0.25000000  1
  O  O70  1  0.04443600  0.45556400  0.25000000  1
  O  O71  1  0.90138900  0.90238300  0.75698700  1
loop_
_geom_bond_atom_site_label_1
_geom_bond_atom_site_label_2
_geom_bond_distance
_geom_bond_site_symmetry_2
Ba0 O64 2.702307 1_555
Ba0 O60 2.702320 1_555
Ba0 O55 2.847073 1_555
Ba0 O37 2.847073 1_555
Ba0 O33 2.887120 1_555
Ba0 O34 2.887121 1_655
Ba0 O49 2.953821 1_555
Ba0 O51 2.953833 1_555
Ba1 O65 2.702307 1_555
Ba1 O61 2.702309 1_555
Ba1 O40 2.847071 1_555
Ba1 O45 2.847073 1_555
Ba1 O47 2.887121 1_565
Ba1 O32 2.887122 1_555
Ba1 O48 2.953823 1_555
Ba1 O53 2.953833 1_555
Ba2 O65 2.702307 1_554
Ba2 O63 2.702309 1_555
Ba2 O33 2.847071 1_555
Ba2 O48 2.847073 1_554
Ba2 O36 2.887121 1_554
Ba2 O50 2.887122 1_554
Ba2 O45 2.953823 1_554
Ba2 O42 2.953833 1_555
Ba3 O57 2.702307 1_555
Ba3 O56 2.702320 1_555
Ba3 O36 2.847073 1_555
Ba3 O35 2.847073 1_555
Ba3 O38 2.887120 1_555
Ba3 O55 2.887121 1_556
Ba3 O43 2.953821 1_555
Ba3 O41 2.953833 1_555
Ba4 O62 2.702307 1_555
Ba4 O61 2.702320 1_555
Ba4 O53 2.847073 1_555
Ba4 O34 2.847073 1_555
Ba4 O54 2.887120 1_555
Ba4 O35 2.887121 1_565
Ba4 O40 2.953821 1_555
Ba4 O44 2.953833 1_555
Ba5 O58 2.702307 1_455
Ba5 O67 2.702309 1_555
Ba5 O54 2.847071 1_555
Ba5 O50 2.847073 1_455
Ba5 O37 2.887121 1_455
Ba5 O71 2.887122 1_455
Ba5 O0 2.953823 1_455
Ba5 O39 2.953833 1_555
Ba6 O64 2.702307 1_555
Ba6 O66 2.702320 1_554
Ba6 O51 2.847073 1_555
Ba6 O47 2.847073 1_554
Ba6 O43 2.887120 1_554
Ba6 O41 2.887121 1_554
Ba6 O38 2.953821 1_554
Ba6 O55 2.953833 1_555
Ba7 O59 2.702307 1_555
Ba7 O60 2.702309 1_555
Ba7 O49 2.847071 1_555
Ba7 O32 2.847073 1_555
Ba7 O39 2.887121 1_655
Ba7 O0 2.887122 1_555
Ba7 O71 2.953823 1_555
Ba7 O37 2.953833 1_555
Ba8 O58 2.702307 1_555
Ba8 O56 2.702309 1_555
Ba8 O43 2.847071 1_555
Ba8 O0 2.847073 1_555
Ba8 O42 2.887121 1_556
Ba8 O45 2.887122 1_555
Ba8 O50 2.953823 1_555
Ba8 O36 2.953833 1_555
Ba9 O57 2.702307 1_555
Ba9 O67 2.702320 1_545
Ba9 O39 2.847073 1_545
Ba9 O41 2.847073 1_555
Ba9 O40 2.887120 1_545
Ba9 O44 2.887121 1_545
Ba9 O54 2.953821 1_545
Ba9 O35 2.953833 1_555
Ba10 O62 2.702307 1_555
Ba10 O63 2.702320 1_455
Ba10 O42 2.847073 1_455
Ba10 O44 2.847073 1_555
Ba10 O49 2.887120 1_455
Ba10 O51 2.887121 1_455
Ba10 O33 2.953821 1_455
Ba10 O34 2.953833 1_555
Ba11 O59 2.702307 1_545
Ba11 O66 2.702309 1_555
Ba11 O38 2.847071 1_555
Ba11 O71 2.847073 1_545
Ba11 O53 2.887121 1_545
Ba11 O48 2.887122 1_545
Ba11 O32 2.953823 1_545
Ba11 O47 2.953833 1_555
Ba12 O5 2.702307 1_555
Ba12 O1 2.702320 1_555
Ba12 O13 2.847073 1_555
Ba12 O31 2.847073 1_555
Ba12 O9 2.887120 1_555
Ba12 O10 2.887121 1_455
Ba12 O25 2.953821 1_555
Ba12 O27 2.953833 1_555
Ba13 O6 2.702307 1_555
Ba13 O2 2.702309 1_555
Ba13 O16 2.847071 1_555
Ba13 O21 2.847073 1_555
Ba13 O23 2.887121 1_545
Ba13 O8 2.887122 1_555
Ba13 O24 2.953823 1_555
Ba13 O29 2.953833 1_555
Ba14 O6 2.702307 1_556
Ba14 O4 2.702309 1_555
Ba14 O9 2.847071 1_555
Ba14 O24 2.847073 1_556
Ba14 O12 2.887121 1_556
Ba14 O26 2.887122 1_556
Ba14 O21 2.953823 1_556
Ba14 O18 2.953833 1_555
Ba15 O69 2.702307 1_555
Ba15 O68 2.702320 1_555
Ba15 O12 2.847073 1_555
Ba15 O11 2.847073 1_555
Ba15 O14 2.887120 1_555
Ba15 O31 2.887121 1_554
Ba15 O19 2.953821 1_555
Ba15 O17 2.953833 1_555
Ba16 O3 2.702307 1_555
Ba16 O2 2.702320 1_555
Ba16 O29 2.847073 1_555
Ba16 O10 2.847073 1_555
Ba16 O30 2.887120 1_555
Ba16 O11 2.887121 1_545
Ba16 O16 2.953821 1_555
Ba16 O20 2.953833 1_555
Ba17 O70 2.702307 1_655
Ba17 O7 2.702309 1_555
Ba17 O30 2.847071 1_555
Ba17 O26 2.847073 1_655
Ba17 O13 2.887121 1_655
Ba17 O28 2.887122 1_655
Ba17 O22 2.953823 1_655
Ba17 O15 2.953833 1_555
Ba18 O5 2.702307 1_555
Ba18 O46 2.702320 1_556
Ba18 O23 2.847073 1_556
Ba18 O27 2.847073 1_555
Ba18 O19 2.887120 1_556
Ba18 O17 2.887121 1_556
Ba18 O14 2.953821 1_556
Ba18 O31 2.953833 1_555
Ba19 O52 2.702307 1_555
Ba19 O1 2.702309 1_555
Ba19 O25 2.847071 1_555
Ba19 O8 2.847073 1_555
Ba19 O15 2.887121 1_455
Ba19 O22 2.887122 1_555
Ba19 O28 2.953823 1_555
Ba19 O13 2.953833 1_555
Ba20 O70 2.702307 1_555
Ba20 O68 2.702309 1_555
Ba20 O19 2.847071 1_555
Ba20 O22 2.847073 1_555
Ba20 O18 2.887121 1_554
Ba20 O21 2.887122 1_555
Ba20 O26 2.953823 1_555
Ba20 O12 2.953833 1_555
Ba21 O69 2.702307 1_555
Ba21 O7 2.702320 1_565
Ba21 O15 2.847073 1_565
Ba21 O17 2.847073 1_555
Ba21 O16 2.887120 1_565
Ba21 O20 2.887121 1_565
Ba21 O30 2.953821 1_565
Ba21 O11 2.953833 1_555
Ba22 O3 2.702307 1_555
Ba22 O4 2.702320 1_655
Ba22 O18 2.847073 1_655
Ba22 O20 2.847073 1_555
Ba22 O25 2.887120 1_655
Ba22 O27 2.887121 1_655
Ba22 O9 2.953821 1_655
Ba22 O10 2.953833 1_555
Ba23 O52 2.702307 1_565
Ba23 O46 2.702309 1_555
Ba23 O14 2.847071 1_555
Ba23 O28 2.847073 1_565
Ba23 O29 2.887121 1_565
Ba23 O24 2.887122 1_565
Ba23 O8 2.953823 1_565
Ba23 O23 2.953833 1_555
Ba24 O8 2.781426 1_555
Ba24 O21 2.781426 1_555
Ba24 O22 2.781426 1_555
Ba24 O0 2.781426 1_555
Ba24 O32 2.781426 1_555
Ba24 O45 2.781426 1_555
Ba25 O55 2.781414 1_555
Ba25 O31 2.781414 1_554
Ba25 O36 2.781414 1_554
Ba25 O12 2.781414 1_555
Ba25 O9 2.781424 1_554
Ba25 O33 2.781424 1_555
Ba26 O53 2.781414 1_545
Ba26 O11 2.781414 1_545
Ba26 O35 2.781414 1_555
Ba26 O29 2.781414 1_555
Ba26 O14 2.781424 1_545
Ba26 O38 2.781424 1_555
Ba27 O13 2.781414 1_555
Ba27 O34 2.781414 1_555
Ba27 O37 2.781414 1_455
Ba27 O10 2.781414 1_455
Ba27 O30 2.781424 1_455
Ba27 O54 2.781424 1_555
Ba28 O47 2.781414 1_554
Ba28 O41 2.781414 1_554
Ba28 O23 2.781414 1_545
Ba28 O17 2.781414 1_545
Ba28 O16 2.781424 1_555
Ba28 O40 2.781424 1_544
Ba29 O44 2.781414 1_545
Ba29 O20 2.781414 1_455
Ba29 O39 2.781414 1_545
Ba29 O15 2.781414 1_455
Ba29 O25 2.781424 1_555
Ba29 O49 2.781424 1_445
Ba30 O51 2.781414 1_455
Ba30 O18 2.781414 1_554
Ba30 O42 2.781414 1_455
Ba30 O27 2.781414 1_554
Ba30 O19 2.781424 1_555
Ba30 O43 2.781424 1_454
Ba31 O26 2.781426 1_555
Ba31 O24 2.781426 1_555
Ba31 O50 2.781426 1_444
Ba31 O28 2.781426 1_555
Ba31 O48 2.781426 1_444
Ba31 O71 2.781426 1_444
Na0 O21 2.381330 1_555
Na0 O8 2.381330 1_555
Na0 O22 2.381330 1_555
Na0 O24 2.381330 1_555
Na0 O28 2.381330 1_555
Na0 O26 2.381330 1_555
Na1 O19 2.381314 1_555
Na1 O9 2.381314 1_554
Na1 O18 2.381322 1_554
Na1 O12 2.381322 1_555
Na1 O27 2.381322 1_554
Na1 O31 2.381322 1_554
Na2 O25 2.381314 1_555
Na2 O30 2.381314 1_455
Na2 O13 2.381322 1_555
Na2 O15 2.381322 1_455
Na2 O10 2.381322 1_455
Na2 O20 2.381322 1_455
Na3 O16 2.381314 1_555
Na3 O14 2.381314 1_545
Na3 O29 2.381322 1_555
Na3 O23 2.381322 1_545
Na3 O17 2.381322 1_545
Na3 O11 2.381322 1_545
Na4 O45 2.381330 1_555
Na4 O71 2.381330 1_555
Na4 O50 2.381330 1_555
Na4 O0 2.381330 1_555
Na4 O32 2.381330 1_555
Na4 O48 2.381330 1_555
Na5 O43 2.381314 1_554
Na5 O33 2.381314 1_555
Na5 O51 2.381322 1_555
Na5 O55 2.381322 1_555
Na5 O42 2.381322 1_555
Na5 O36 2.381322 1_554
Na6 O54 2.381314 1_555
Na6 O49 2.381314 1_455
Na6 O34 2.381322 1_555
Na6 O44 2.381322 1_555
Na6 O37 2.381322 1_455
Na6 O39 2.381322 1_555
Na7 O40 2.381314 1_545
Na7 O38 2.381314 1_555
Na7 O41 2.381322 1_555
Na7 O35 2.381322 1_555
Na7 O47 2.381322 1_555
Na7 O53 2.381322 1_545
B0 O7 1.380039 1_566
B0 O48 1.405907 1_555
B0 O47 1.405917 1_565
B1 O56 1.380039 1_555
B1 O8 1.405907 1_555
B1 O29 1.405917 1_555
B2 O57 1.380050 1_555
B2 O9 1.405923 1_555
B2 O25 1.405923 1_555
B3 O58 1.380050 1_455
B3 O27 1.405917 1_555
B3 O10 1.405917 1_455
B4 O59 1.380050 1_545
B4 O20 1.405917 1_555
B4 O11 1.405917 1_545
B5 O60 1.380039 1_555
B5 O21 1.405907 1_555
B5 O12 1.405917 1_555
B6 O61 1.380039 1_555
B6 O22 1.405907 1_555
B6 O13 1.405917 1_555
B7 O62 1.380050 1_555
B7 O14 1.405923 1_555
B7 O19 1.405923 1_555
B8 O63 1.380039 1_445
B8 O28 1.405907 1_555
B8 O15 1.405917 1_455
B9 O46 1.380039 1_656
B9 O50 1.405907 1_555
B9 O42 1.405917 1_556
B10 O6 1.380050 1_556
B10 O41 1.405917 1_555
B10 O55 1.405917 1_556
B11 O5 1.380050 1_555
B11 O40 1.405923 1_555
B11 O54 1.405923 1_555
B12 O4 1.380039 1_665
B12 O71 1.405907 1_555
B12 O39 1.405917 1_655
B13 O3 1.380050 1_555
B13 O38 1.405923 1_555
B13 O43 1.405923 1_555
B14 O2 1.380039 1_555
B14 O0 1.405907 1_555
B14 O37 1.405917 1_555
B15 O1 1.380039 1_555
B15 O45 1.405907 1_555
B15 O36 1.405917 1_555
B16 O52 1.380050 1_565
B16 O44 1.405917 1_555
B16 O35 1.405917 1_565
B17 O70 1.380050 1_655
B17 O51 1.405917 1_555
B17 O34 1.405917 1_655
B18 O69 1.380050 1_555
B18 O49 1.405923 1_555
B18 O33 1.405923 1_555
B19 O68 1.380039 1_555
B19 O32 1.405907 1_555
B19 O53 1.405917 1_555
B20 O67 1.380039 1_544
B20 O24 1.405907 1_555
B20 O23 1.405917 1_545
B21 O66 1.380039 1_454
B21 O26 1.405907 1_555
B21 O18 1.405917 1_554
B22 O65 1.380050 1_554
B22 O17 1.405917 1_555
B22 O31 1.405917 1_554
B23 O64 1.380050 1_555
B23 O16 1.405923 1_555
B23 O30 1.405923 1_555
