# generated using pymatgen
data_La15B14C19
_symmetry_space_group_name_H-M   'P 1'
_cell_length_a   8.69489400
_cell_length_b   8.67238000
_cell_length_c   19.57101244
_cell_angle_alpha   87.24724358
_cell_angle_beta   90.00000000
_cell_angle_gamma   90.00000000
_symmetry_Int_Tables_number   1
_chemical_formula_structural   La15B14C19
_chemical_formula_sum   'La30 B28 C38'
_cell_volume   1474.05759346
_cell_formula_units_Z   2
loop_
 _symmetry_equiv_pos_site_id
 _symmetry_equiv_pos_as_xyz
  1  'x, y, z'
loop_
 _atom_site_type_symbol
 _atom_site_label
 _atom_site_symmetry_multiplicity
 _atom_site_fract_x
 _atom_site_fract_y
 _atom_site_fract_z
 _atom_site_occupancy
  La  La0  1  0.70148800  0.36839300  0.13919300  1
  La  La1  1  0.39552200  0.30590200  0.99216200  1
  La  La2  1  0.79851200  0.36839300  0.63919300  1
  La  La3  1  0.89552200  0.69409800  0.50783800  1
  La  La4  1  0.10447800  0.30590200  0.49216200  1
  La  La5  1  0.51691700  0.23555100  0.80588500  1
  La  La6  1  0.08884800  0.56434600  0.17919500  1
  La  La7  1  0.79128500  0.11211500  0.97396300  1
  La  La8  1  0.21530600  0.16679800  0.66896500  1
  La  La9  1  0.58884800  0.43565400  0.32080500  1
  La  La10  1  0.29128500  0.88788500  0.52603700  1
  La  La11  1  0.70871500  0.11211500  0.47396300  1
  La  La12  1  0.50000000  0.50000000  0.50000000  1
  La  La13  1  0.20871500  0.88788500  0.02603700  1
  La  La14  1  0.78469400  0.83320200  0.33103500  1
  La  La15  1  0.98308300  0.23555100  0.30588500  1
  La  La16  1  0.59914800  0.97078000  0.65435600  1
  La  La17  1  0.01691700  0.76444900  0.69411500  1
  La  La18  1  0.90085200  0.97078000  0.15435600  1
  La  La19  1  0.00000000  0.50000000  0.00000000  1
  La  La20  1  0.29851200  0.63160700  0.86080700  1
  La  La21  1  0.20148800  0.63160700  0.36080700  1
  La  La22  1  0.41115200  0.56434600  0.67919500  1
  La  La23  1  0.28469400  0.16679800  0.16896500  1
  La  La24  1  0.48308300  0.76444900  0.19411500  1
  La  La25  1  0.09914800  0.02922000  0.84564400  1
  La  La26  1  0.40085200  0.02922000  0.34564400  1
  La  La27  1  0.71530600  0.83320200  0.83103500  1
  La  La28  1  0.60447800  0.69409800  0.00783800  1
  La  La29  1  0.91115200  0.43565400  0.82080500  1
  B  B0  1  0.51544700  0.74423600  0.39592100  1
  B  B1  1  0.39672200  0.92692700  0.78826600  1
  B  B2  1  0.61009500  0.54894600  0.79210500  1
  B  B3  1  0.52874200  0.02339300  0.07174600  1
  B  B4  1  0.89672200  0.07307300  0.71173400  1
  B  B5  1  0.38990500  0.45105400  0.20789500  1
  B  B6  1  0.88990500  0.54894600  0.29210500  1
  B  B7  1  0.60219200  0.80309600  0.53411200  1
  B  B8  1  0.02874200  0.97660700  0.42825400  1
  B  B9  1  0.33198000  0.56129800  0.06848800  1
  B  B10  1  0.10327800  0.92692700  0.28826600  1
  B  B11  1  0.60327800  0.07307300  0.21173400  1
  B  B12  1  0.70637600  0.66821900  0.66046600  1
  B  B13  1  0.20637600  0.33178100  0.83953400  1
  B  B14  1  0.98455300  0.74423600  0.89592100  1
  B  B15  1  0.79362400  0.66821900  0.16046600  1
  B  B16  1  0.48455300  0.25576400  0.60407900  1
  B  B17  1  0.16802000  0.56129800  0.56848800  1
  B  B18  1  0.11009500  0.45105400  0.70789500  1
  B  B19  1  0.10219200  0.19690400  0.96588800  1
  B  B20  1  0.83198000  0.43870200  0.43151200  1
  B  B21  1  0.29362400  0.33178100  0.33953400  1
  B  B22  1  0.66802000  0.43870200  0.93151200  1
  B  B23  1  0.89780800  0.80309600  0.03411200  1
  B  B24  1  0.97125800  0.02339300  0.57174600  1
  B  B25  1  0.47125800  0.97660700  0.92825400  1
  B  B26  1  0.39780800  0.19690400  0.46588800  1
  B  B27  1  0.01544700  0.25576400  0.10407900  1
  C  C0  1  0.40746900  0.93367700  0.86309800  1
  C  C1  1  0.51153200  0.26430800  0.67689000  1
  C  C2  1  0.32705200  0.87853800  0.72478900  1
  C  C3  1  0.69678300  0.12960400  0.34318600  1
  C  C4  1  0.81080900  0.39777000  0.50421200  1
  C  C5  1  0.14236800  0.30804500  0.90796300  1
  C  C6  1  0.59253100  0.06632300  0.13690200  1
  C  C7  1  0.68919100  0.39777000  0.00421200  1
  C  C8  1  0.58122200  0.79963500  0.45888300  1
  C  C9  1  0.98846800  0.26430800  0.17689000  1
  C  C10  1  0.41877800  0.20036500  0.54111700  1
  C  C11  1  0.29771600  0.38966500  0.26851400  1
  C  C12  1  0.70228400  0.61033500  0.73148600  1
  C  C13  1  0.87482600  0.51781500  0.36676000  1
  C  C14  1  0.64236800  0.69195500  0.59203700  1
  C  C15  1  0.79771600  0.61033500  0.23148600  1
  C  C16  1  0.82705200  0.12146200  0.77521100  1
  C  C17  1  0.08122200  0.20036500  0.04111700  1
  C  C18  1  0.31080900  0.60223000  0.99578800  1
  C  C19  1  0.09253100  0.93367700  0.36309800  1
  C  C20  1  0.85763200  0.69195500  0.09203700  1
  C  C21  1  0.48846800  0.73569200  0.32311000  1
  C  C22  1  0.12517400  0.48218500  0.63324000  1
  C  C23  1  0.19678300  0.87039600  0.15681400  1
  C  C24  1  0.37482600  0.48218500  0.13324000  1
  C  C25  1  0.01153200  0.73569200  0.82311000  1
  C  C26  1  0.35763200  0.30804500  0.40796300  1
  C  C27  1  0.80321700  0.12960400  0.84318600  1
  C  C28  1  0.90746900  0.06632300  0.63690200  1
  C  C29  1  0.00000000  0.00000000  0.50000000  1
  C  C30  1  0.18919100  0.60223000  0.49578800  1
  C  C31  1  0.91877800  0.79963500  0.95888300  1
  C  C32  1  0.30321700  0.87039600  0.65681400  1
  C  C33  1  0.20228400  0.38966500  0.76851400  1
  C  C34  1  0.62517400  0.51781500  0.86676000  1
  C  C35  1  0.50000000  0.00000000  0.00000000  1
  C  C36  1  0.17294800  0.87853800  0.22478900  1
  C  C37  1  0.67294800  0.12146200  0.27521100  1
loop_
_geom_bond_atom_site_label_1
_geom_bond_atom_site_label_2
_geom_bond_distance
_geom_bond_site_symmetry_2
B0 C21 1.449566 1_555
B0 C8 1.460533 1_555
B0 La14 2.755796 1_555
B0 La26 2.799227 1_565
B0 La12 2.870382 1_555
B0 La21 2.990457 1_555
B0 La9 3.179326 1_555
B1 C2 1.461668 1_555
B1 C0 1.471484 1_555
B1 La25 2.972909 1_565
B1 La20 2.992468 1_555
B1 La27 2.994854 1_555
B2 C34 1.478826 1_555
B2 C12 1.507573 1_555
B2 La27 2.770351 1_555
B2 La22 2.804409 1_555
B2 La29 2.842525 1_555
B2 La20 3.123141 1_555
B3 C35 1.450030 1_555
B3 C6 1.455298 1_555
B3 La7 3.053520 1_554
B3 La23 3.145936 1_555
B3 La13 3.166251 1_545
B4 C16 1.461668 1_555
B4 C28 1.471484 1_555
B4 La16 2.972909 1_545
B4 La2 2.992468 1_555
B4 La8 2.994854 1_655
B5 C24 1.478826 1_555
B5 C11 1.507573 1_555
B5 La23 2.770351 1_555
B5 La9 2.804409 1_555
B5 La6 2.842525 1_555
B5 La0 3.123141 1_555
B6 C13 1.478826 1_555
B6 C15 1.507573 1_555
B6 La14 2.770351 1_555
B6 La6 2.804409 1_655
B6 La9 2.842525 1_555
B6 La21 3.123141 1_655
B7 C8 1.485288 1_555
B7 C14 1.493740 1_555
B7 La10 2.803990 1_555
B7 La16 2.825274 1_555
B7 La11 3.020365 1_565
B8 C29 1.450030 1_565
B8 C19 1.455298 1_555
B8 La10 3.053520 1_555
B8 La14 3.145936 1_455
B8 La11 3.166251 1_465
B9 C24 1.460122 1_555
B9 C18 1.461430 1_554
B9 La6 3.028133 1_555
B9 La13 3.103993 1_555
B10 C36 1.461668 1_555
B10 C19 1.471484 1_555
B10 La26 2.972909 1_565
B10 La21 2.992468 1_555
B10 La14 2.994854 1_455
B11 C37 1.461668 1_555
B11 C6 1.471484 1_555
B11 La18 2.972909 1_545
B11 La0 2.992468 1_555
B11 La23 2.994854 1_555
B12 C12 1.455389 1_555
B12 C14 1.455732 1_555
B12 La22 2.739218 1_555
B12 La2 2.771311 1_555
B12 La16 2.781796 1_555
B13 C33 1.455389 1_555
B13 C5 1.455732 1_555
B13 La29 2.739218 1_455
B13 La20 2.771311 1_555
B13 La25 2.781796 1_555
B14 C25 1.449566 1_655
B14 C31 1.460533 1_555
B14 La27 2.755796 1_555
B14 La25 2.799227 1_665
B14 La19 2.870382 1_656
B14 La20 2.990457 1_655
B14 La29 3.179326 1_555
B15 C15 1.455389 1_555
B15 C20 1.455732 1_555
B15 La6 2.739218 1_655
B15 La0 2.771311 1_555
B15 La18 2.781796 1_555
B16 C1 1.449566 1_555
B16 C10 1.460533 1_555
B16 La8 2.755796 1_555
B16 La16 2.799227 1_545
B16 La12 2.870382 1_555
B16 La2 2.990457 1_555
B16 La22 3.179326 1_555
B17 C22 1.460122 1_555
B17 C30 1.461430 1_555
B17 La22 3.028133 1_555
B17 La10 3.103993 1_555
B18 C22 1.478826 1_555
B18 C33 1.507573 1_555
B18 La8 2.770351 1_555
B18 La29 2.804409 1_455
B18 La22 2.842525 1_555
B18 La2 3.123141 1_455
B19 C17 1.485288 1_556
B19 C5 1.493740 1_555
B19 La7 2.803990 1_455
B19 La25 2.825274 1_555
B19 La13 3.020365 1_546
B20 C13 1.460122 1_555
B20 C4 1.461430 1_555
B20 La9 3.028133 1_555
B20 La11 3.103993 1_555
B21 C11 1.455389 1_555
B21 C26 1.455732 1_555
B21 La9 2.739218 1_555
B21 La21 2.771311 1_555
B21 La26 2.781796 1_555
B22 C34 1.460122 1_555
B22 C7 1.461430 1_556
B22 La29 3.028133 1_555
B22 La7 3.103993 1_555
B23 C31 1.485288 1_554
B23 C20 1.493740 1_555
B23 La13 2.803990 1_655
B23 La18 2.825274 1_555
B23 La7 3.020365 1_564
B24 C29 1.450030 1_655
B24 C28 1.455298 1_555
B24 La11 3.053520 1_555
B24 La8 3.145936 1_655
B24 La10 3.166251 1_645
B25 C35 1.450030 1_566
B25 C0 1.455298 1_555
B25 La13 3.053520 1_556
B25 La27 3.145936 1_555
B25 La7 3.166251 1_565
B26 C10 1.485288 1_555
B26 C26 1.493740 1_555
B26 La11 2.803990 1_555
B26 La26 2.825274 1_555
B26 La10 3.020365 1_545
B27 C9 1.449566 1_455
B27 C17 1.460533 1_555
B27 La23 2.755796 1_555
B27 La18 2.799227 1_445
B27 La19 2.870382 1_555
B27 La0 2.990457 1_455
B27 La6 3.179326 1_555
C0 La20 2.788091 1_555
C0 La25 2.821850 1_565
C0 La27 2.893059 1_555
C1 La5 2.525338 1_555
C1 La16 2.713428 1_545
C1 La8 2.717675 1_555
C1 La2 2.742529 1_555
C1 La22 2.746945 1_555
C2 C32 1.351577 1_555
C2 La16 2.833964 1_555
C2 La8 2.850409 1_565
C2 La22 2.998163 1_555
C2 La20 3.344585 1_555
C3 C37 1.351577 1_555
C3 La11 2.558751 1_555
C3 La14 2.703158 1_545
C3 La26 2.716057 1_555
C3 La15 2.740360 1_555
C3 La9 2.829421 1_555
C4 La2 2.643927 1_555
C4 La3 2.677558 1_555
C4 La4 2.688564 1_655
C4 La11 2.723307 1_555
C4 La12 2.844123 1_555
C5 La1 2.749162 1_555
C5 La25 2.785521 1_555
C5 La19 2.799309 1_556
C5 La29 2.827501 1_455
C5 La20 3.212498 1_555
C6 La0 2.788091 1_555
C6 La18 2.821850 1_545
C6 La23 2.893059 1_555
C7 La0 2.643927 1_555
C7 La28 2.677558 1_555
C7 La1 2.688564 1_554
C7 La7 2.723307 1_554
C7 La19 2.844123 1_655
C8 La12 2.774507 1_555
C8 La11 2.955771 1_565
C8 La10 2.960568 1_555
C8 La14 3.066808 1_555
C9 La15 2.525338 1_555
C9 La18 2.713428 1_545
C9 La23 2.717675 1_655
C9 La0 2.742529 1_555
C9 La6 2.746945 1_655
C10 La12 2.774507 1_555
C10 La10 2.955771 1_545
C10 La11 2.960568 1_555
C10 La8 3.066808 1_555
C11 La9 2.766476 1_555
C11 La23 2.811753 1_555
C11 La6 2.897318 1_555
C11 La21 2.954520 1_555
C12 La22 2.766476 1_555
C12 La27 2.811753 1_555
C12 La29 2.897318 1_555
C12 La2 2.954520 1_555
C13 La9 2.749741 1_555
C13 La14 2.898345 1_555
C13 La21 3.007267 1_655
C14 La3 2.749162 1_555
C14 La16 2.785521 1_555
C14 La12 2.799309 1_555
C14 La22 2.827501 1_555
C14 La2 3.212498 1_555
C15 La6 2.766476 1_655
C15 La14 2.811753 1_555
C15 La9 2.897318 1_555
C15 La0 2.954520 1_555
C16 C27 1.351577 1_555
C16 La25 2.833964 1_655
C16 La27 2.850409 1_545
C16 La29 2.998163 1_555
C16 La2 3.344585 1_555
C17 La19 2.774507 1_555
C17 La13 2.955771 1_545
C17 La7 2.960568 1_454
C17 La23 3.066808 1_555
C18 La20 2.643927 1_555
C18 La1 2.677558 1_555
C18 La28 2.688564 1_556
C18 La13 2.723307 1_556
C18 La19 2.844123 1_556
C19 La21 2.788091 1_555
C19 La26 2.821850 1_565
C19 La14 2.893059 1_455
C20 La28 2.749162 1_555
C20 La18 2.785521 1_555
C20 La19 2.799309 1_655
C20 La6 2.827501 1_655
C20 La0 3.212498 1_555
C21 La24 2.525338 1_555
C21 La26 2.713428 1_565
C21 La14 2.717675 1_555
C21 La21 2.742529 1_555
C21 La9 2.746945 1_555
C22 La22 2.749741 1_555
C22 La8 2.898345 1_555
C22 La2 3.007267 1_455
C23 C36 1.351577 1_555
C23 La13 2.558751 1_555
C23 La23 2.703158 1_565
C23 La18 2.716057 1_455
C23 La24 2.740360 1_555
C23 La6 2.829421 1_555
C24 La6 2.749741 1_555
C24 La23 2.898345 1_555
C24 La0 3.007267 1_555
C25 La17 2.525338 1_555
C25 La25 2.713428 1_565
C25 La27 2.717675 1_455
C25 La20 2.742529 1_555
C25 La29 2.746945 1_455
C26 La4 2.749162 1_555
C26 La26 2.785521 1_555
C26 La12 2.799309 1_555
C26 La9 2.827501 1_555
C26 La21 3.212498 1_555
C27 La7 2.558751 1_555
C27 La27 2.703158 1_545
C27 La25 2.716057 1_655
C27 La5 2.740360 1_555
C27 La29 2.829421 1_555
C28 La2 2.788091 1_555
C28 La16 2.821850 1_545
C28 La8 2.893059 1_655
C29 La10 2.751723 1_545
C29 La11 2.751723 1_455
C29 La4 2.801348 1_555
C29 La3 2.801348 1_445
C30 La21 2.643927 1_555
C30 La4 2.677558 1_555
C30 La3 2.688564 1_455
C30 La10 2.723307 1_555
C30 La12 2.844123 1_555
C31 La19 2.774507 1_656
C31 La7 2.955771 1_565
C31 La13 2.960568 1_656
C31 La27 3.066808 1_555
C32 La10 2.558751 1_555
C32 La8 2.703158 1_565
C32 La16 2.716057 1_555
C32 La17 2.740360 1_555
C32 La22 2.829421 1_555
C33 La29 2.766476 1_455
C33 La8 2.811753 1_555
C33 La22 2.897318 1_555
C33 La20 2.954520 1_555
C34 La29 2.749741 1_555
C34 La27 2.898345 1_555
C34 La20 3.007267 1_555
C35 La7 2.751723 1_554
C35 La13 2.751723 1_545
C35 La1 2.801348 1_554
C35 La28 2.801348 1_545
C36 La18 2.833964 1_455
C36 La23 2.850409 1_565
C36 La6 2.998163 1_555
C36 La21 3.344585 1_555
C37 La26 2.833964 1_555
C37 La14 2.850409 1_545
C37 La9 2.998163 1_555
C37 La0 3.344585 1_555
