# generated using pymatgen
data_Pu31Pt20
_symmetry_space_group_name_H-M   'P 1'
_cell_length_a   11.27432316
_cell_length_b   11.27432360
_cell_length_c   20.28386327
_cell_angle_alpha   106.13572103
_cell_angle_beta   106.13572169
_cell_angle_gamma   90.00000096
_symmetry_Int_Tables_number   1
_chemical_formula_structural   Pu31Pt20
_chemical_formula_sum   'Pu62 Pt40'
_cell_volume   2370.80405226
_cell_formula_units_Z   2
loop_
 _symmetry_equiv_pos_site_id
 _symmetry_equiv_pos_as_xyz
  1  'x, y, z'
loop_
 _atom_site_type_symbol
 _atom_site_label
 _atom_site_symmetry_multiplicity
 _atom_site_fract_x
 _atom_site_fract_y
 _atom_site_fract_z
 _atom_site_occupancy
  Pu  Pu0  1  0.16634755  0.66634755  0.33269510  1
  Pu  Pu1  1  0.43689284  0.12501768  0.42485542  1
  Pu  Pu2  1  0.98796258  0.29983774  0.42485542  1
  Pu  Pu3  1  0.56310716  0.87498232  0.57514458  1
  Pu  Pu4  1  0.66005833  0.83994167  1.00000000  1
  Pu  Pu5  1  0.05807090  0.35621238  0.27408179  1
  Pu  Pu6  1  0.35621238  0.21601088  0.27408179  1
  Pu  Pu7  1  0.92223907  0.42223907  0.84447814  1
  Pu  Pu8  1  0.37498232  0.06310716  0.57514458  1
  Pu  Pu9  1  0.84957383  0.11779828  0.10052695  1
  Pu  Pu10  1  0.65042617  0.51727133  0.89947305  1
  Pu  Pu11  1  0.98272867  0.84957383  0.10052695  1
  Pu  Pu12  1  0.79983774  0.48796258  0.42485542  1
  Pu  Pu13  1  0.51203742  0.37498232  0.57514458  1
  Pu  Pu14  1  0.87498232  0.01203742  0.57514458  1
  Pu  Pu15  1  0.55807090  0.41786940  0.27408179  1
  Pu  Pu16  1  0.61779828  0.34957383  0.10052695  1
  Pu  Pu17  1  0.24904688  0.38220172  0.89947305  1
  Pu  Pu18  1  0.94192910  0.64378762  0.72591821  1
  Pu  Pu19  1  0.51727133  0.24904688  0.89947305  1
  Pu  Pu20  1  0.21601088  0.91786940  0.27408179  1
  Pu  Pu21  1  0.71601088  0.85621238  0.27408179  1
  Pu  Pu22  1  0.78398912  0.08213060  0.72591821  1
  Pu  Pu23  1  0.12501768  0.98796258  0.42485542  1
  Pu  Pu24  1  0.01203742  0.70016226  0.57514458  1
  Pu  Pu25  1  0.41786940  0.71601088  0.27408179  1
  Pu  Pu26  1  0.74904688  0.01727133  0.89947305  1
  Pu  Pu27  1  0.48796258  0.62501768  0.42485542  1
  Pu  Pu28  1  0.20016226  0.51203742  0.57514458  1
  Pu  Pu29  1  0.64378762  0.78398912  0.72591821  1
  Pu  Pu30  1  0.85621238  0.55807090  0.27408179  1
  Pu  Pu31  1  0.33365245  0.83365245  0.66730490  1
  Pu  Pu32  1  0.29983774  0.43689284  0.42485542  1
  Pu  Pu33  1  0.48272867  0.75095312  0.10052695  1
  Pu  Pu34  1  0.38220172  0.65042617  0.89947305  1
  Pu  Pu35  1  0.25000000  0.75000000  0.50000000  1
  Pu  Pu36  1  0.44192910  0.58213060  0.72591821  1
  Pu  Pu37  1  0.75095312  0.61779828  0.10052695  1
  Pu  Pu38  1  0.15042617  0.88220172  0.89947305  1
  Pu  Pu39  1  0.42223907  0.92223907  0.84447814  1
  Pu  Pu40  1  0.57776093  0.07776093  0.15552186  1
  Pu  Pu41  1  0.01727133  0.15042617  0.89947305  1
  Pu  Pu42  1  0.58213060  0.28398912  0.72591821  1
  Pu  Pu43  1  0.14378762  0.44192910  0.72591821  1
  Pu  Pu44  1  0.66634755  0.16634755  0.33269510  1
  Pu  Pu45  1  0.91786940  0.05807090  0.27408179  1
  Pu  Pu46  1  0.75000000  0.25000000  0.50000000  1
  Pu  Pu47  1  0.28398912  0.14378762  0.72591821  1
  Pu  Pu48  1  0.11779828  0.25095312  0.10052695  1
  Pu  Pu49  1  0.93689284  0.79983774  0.42485542  1
  Pu  Pu50  1  0.25095312  0.98272867  0.10052695  1
  Pu  Pu51  1  0.88220172  0.74904688  0.89947305  1
  Pu  Pu52  1  0.83994167  0.33994167  1.00000000  1
  Pu  Pu53  1  0.83365245  0.33365245  0.66730490  1
  Pu  Pu54  1  0.34957383  0.48272867  0.10052695  1
  Pu  Pu55  1  0.16005833  0.66005833  0.00000000  1
  Pu  Pu56  1  0.08213060  0.94192910  0.72591821  1
  Pu  Pu57  1  0.07776093  0.57776093  0.15552186  1
  Pu  Pu58  1  0.06310716  0.20016226  0.57514458  1
  Pu  Pu59  1  0.33994167  0.16005833  0.00000000  1
  Pu  Pu60  1  0.62501768  0.93689284  0.42485542  1
  Pu  Pu61  1  0.70016226  0.56310716  0.57514458  1
  Pt  Pt0  1  0.40372839  0.90372839  0.00000000  1
  Pt  Pt1  1  0.39241906  0.25398643  0.14640550  1
  Pt  Pt2  1  0.17714680  0.17714680  0.35429361  1
  Pt  Pt3  1  0.60758094  0.74601357  0.85359450  1
  Pt  Pt4  1  0.96715979  0.78439484  0.25155463  1
  Pt  Pt5  1  0.89241906  0.39241906  0.14640550  1
  Pt  Pt6  1  0.59627161  0.09627161  1.00000000  1
  Pt  Pt7  1  0.46715979  0.96715979  0.25155463  1
  Pt  Pt8  1  0.28439484  0.46715979  0.25155463  1
  Pt  Pt9  1  0.03284021  0.21560516  0.74844537  1
  Pt  Pt10  1  0.67714680  0.67714680  0.35429361  1
  Pt  Pt11  1  0.10758094  0.60758094  0.85359450  1
  Pt  Pt12  1  0.71560516  0.53284021  0.74844537  1
  Pt  Pt13  1  0.32285320  0.32285320  0.64570639  1
  Pt  Pt14  1  0.09627161  0.40372839  0.00000000  1
  Pt  Pt15  1  0.89924610  0.89924610  0.79849220  1
  Pt  Pt16  1  0.75398643  0.89241906  0.14640550  1
  Pt  Pt17  1  0.44451185  0.63394135  0.57845321  1
  Pt  Pt18  1  0.60075390  0.60075390  0.20150780  1
  Pt  Pt19  1  0.25398643  0.75398643  0.14640550  1
  Pt  Pt20  1  0.55548815  0.36605865  0.42154679  1
  Pt  Pt21  1  0.36605865  0.86605865  0.42154679  1
  Pt  Pt22  1  0.39924610  0.39924610  0.79849220  1
  Pt  Pt23  1  0.94451185  0.44451185  0.57845321  1
  Pt  Pt24  1  0.10075390  0.10075390  0.20150780  1
  Pt  Pt25  1  0.24601357  0.10758094  0.85359450  1
  Pt  Pt26  1  0.90372839  0.59627161  1.00000000  1
  Pt  Pt27  1  0.75000000  0.75000000  0.50000000  1
  Pt  Pt28  1  0.50000000  0.50000000  0.00000000  1
  Pt  Pt29  1  0.13394135  0.94451185  0.57845321  1
  Pt  Pt30  1  0.74601357  0.24601357  0.85359450  1
  Pt  Pt31  1  0.53284021  0.03284021  0.74844537  1
  Pt  Pt32  1  0.21560516  0.71560516  0.74844537  1
  Pt  Pt33  1  0.78439484  0.28439484  0.25155463  1
  Pt  Pt34  1  0.86605865  0.05548815  0.42154679  1
  Pt  Pt35  1  0.00000000  0.00000000  0.00000000  1
  Pt  Pt36  1  0.63394135  0.13394135  0.57845321  1
  Pt  Pt37  1  0.05548815  0.55548815  0.42154679  1
  Pt  Pt38  1  0.82285320  0.82285320  0.64570639  1
  Pt  Pt39  1  0.25000000  0.25000000  0.50000000  1
loop_
_geom_bond_atom_site_label_1
_geom_bond_atom_site_label_2
_geom_bond_distance
_geom_bond_site_symmetry_2
Pu0 Pu35 3.120494 1_555
Pu0 Pu57 3.304554 1_555
Pu0 Pu25 3.465885 1_555
Pu0 Pu20 3.465885 1_555
Pu0 Pu30 3.465885 1_455
Pu0 Pu5 3.465885 1_555
Pu0 Pu27 3.684571 1_555
Pu0 Pu49 3.684571 1_455
Pu0 Pu32 3.684571 1_555
Pu0 Pu23 3.684571 1_555
Pu1 Pu60 2.999519 1_545
Pu1 Pu6 3.380905 1_555
Pu1 Pu13 3.426698 1_555
Pu1 Pu46 3.547635 1_555
Pu1 Pu8 3.554267 1_555
Pu1 Pu20 3.578519 1_545
Pu1 Pu44 3.684571 1_555
Pu2 Pu45 3.380905 1_555
Pu2 Pu58 3.426698 1_655
Pu2 Pu46 3.547635 1_555
Pu2 Pu28 3.554267 1_655
Pu2 Pu5 3.578519 1_655
Pu2 Pu44 3.684571 1_555
Pu3 Pu8 2.999519 1_565
Pu3 Pu35 3.547635 1_555
Pu3 Pu60 3.554267 1_555
Pu3 Pu31 3.684571 1_555
Pu4 Pu9 3.544646 1_566
Pu4 Pu51 3.627354 1_555
Pu10 Pu34 3.376176 1_555
Pu10 Pu19 3.376176 1_555
Pu10 Pu52 3.544646 1_555
Pu10 Pu7 3.608224 1_555
Pu10 Pu4 3.627354 1_555
Pu10 Pu42 3.640091 1_555
Pu10 Pu51 3.695499 1_555
Pu10 Pu37 3.749965 1_556
Pu11 Pu50 3.376176 1_655
Pu11 Pu9 3.376176 1_565
Pu11 Pu55 3.544646 1_655
Pu11 Pu57 3.608224 1_655
Pu11 Pu4 3.627354 1_554
Pu11 Pu20 3.640091 1_655
Pu11 Pu37 3.695499 1_555
Pu11 Pu51 3.749965 1_554
Pu12 Pu2 2.999519 1_555
Pu12 Pu15 3.380905 1_555
Pu12 Pu61 3.426698 1_555
Pu12 Pu46 3.547635 1_555
Pu12 Pu24 3.554267 1_655
Pu12 Pu30 3.578519 1_555
Pu12 Pu44 3.684571 1_555
Pu13 Pu61 2.999519 1_555
Pu13 Pu42 3.380905 1_555
Pu13 Pu46 3.547635 1_555
Pu13 Pu32 3.554267 1_555
Pu13 Pu36 3.578519 1_555
Pu13 Pu53 3.684571 1_555
Pu14 Pu58 2.999519 1_655
Pu14 Pu22 3.380905 1_555
Pu14 Pu60 3.426698 1_545
Pu14 Pu46 3.547635 1_555
Pu14 Pu49 3.554267 1_545
Pu14 Pu56 3.578519 1_645
Pu14 Pu53 3.684571 1_555
Pu15 Pu44 3.465885 1_555
Pu15 Pu27 3.578519 1_555
Pu15 Pu16 3.640091 1_555
Pu16 Pu54 3.376176 1_555
Pu16 Pu37 3.376176 1_555
Pu16 Pu59 3.544646 1_555
Pu16 Pu40 3.608224 1_555
Pu16 Pu52 3.627354 1_554
Pu16 Pu9 3.695499 1_555
Pu16 Pu19 3.749965 1_554
Pu17 Pu19 3.376176 1_555
Pu17 Pu34 3.376176 1_555
Pu17 Pu55 3.544646 1_556
Pu17 Pu7 3.608224 1_455
Pu17 Pu59 3.627354 1_556
Pu17 Pu43 3.640091 1_555
Pu17 Pu41 3.695499 1_555
Pu17 Pu54 3.749965 1_556
Pu18 Pu61 3.380905 1_555
Pu18 Pu53 3.465885 1_555
Pu18 Pu24 3.578519 1_655
Pu18 Pu51 3.640091 1_555
Pu19 Pu59 3.544646 1_556
Pu19 Pu39 3.608224 1_545
Pu19 Pu52 3.627354 1_555
Pu19 Pu47 3.640091 1_555
Pu19 Pu26 3.695499 1_555
Pu20 Pu23 3.380905 1_555
Pu21 Pu60 3.380905 1_555
Pu21 Pu44 3.465885 1_565
Pu21 Pu49 3.578519 1_555
Pu21 Pu33 3.640091 1_555
Pu22 Pu53 3.465885 1_555
Pu22 Pu3 3.578519 1_545
Pu22 Pu41 3.640091 1_655
Pu23 Pu49 2.999519 1_455
Pu23 Pu8 3.426698 1_565
Pu23 Pu35 3.547635 1_555
Pu23 Pu58 3.554267 1_565
Pu23 Pu45 3.578519 1_465
Pu24 Pu28 2.999519 1_555
Pu24 Pu56 3.380905 1_555
Pu24 Pu49 3.426698 1_455
Pu24 Pu35 3.547635 1_555
Pu24 Pu31 3.684571 1_555
Pu25 Pu27 3.380905 1_555
Pu25 Pu60 3.578519 1_555
Pu25 Pu54 3.640091 1_555
Pu26 Pu41 3.376176 1_655
Pu26 Pu51 3.376176 1_545
Pu26 Pu4 3.544646 1_545
Pu26 Pu39 3.608224 1_545
Pu26 Pu52 3.627354 1_555
Pu26 Pu29 3.640091 1_545
Pu26 Pu9 3.749965 1_556
Pu27 Pu32 2.999519 1_555
Pu27 Pu3 3.426698 1_555
Pu27 Pu35 3.547635 1_555
Pu27 Pu61 3.554267 1_555
Pu28 Pu36 3.380905 1_555
Pu28 Pu32 3.426698 1_555
Pu28 Pu35 3.547635 1_555
Pu28 Pu43 3.578519 1_555
Pu28 Pu31 3.684571 1_555
Pu29 Pu3 3.380905 1_555
Pu29 Pu31 3.465885 1_555
Pu29 Pu61 3.578519 1_555
Pu30 Pu49 3.380905 1_555
Pu30 Pu37 3.640091 1_555
Pu31 Pu35 3.120494 1_555
Pu31 Pu39 3.304554 1_555
Pu31 Pu56 3.465885 1_555
Pu31 Pu36 3.465885 1_555
Pu31 Pu47 3.465885 1_565
Pu31 Pu8 3.684571 1_565
Pu32 Pu5 3.380905 1_555
Pu32 Pu35 3.547635 1_555
Pu32 Pu6 3.578519 1_555
Pu33 Pu37 3.376176 1_555
Pu33 Pu54 3.376176 1_555
Pu33 Pu4 3.544646 1_554
Pu33 Pu40 3.608224 1_565
Pu33 Pu55 3.627354 1_555
Pu33 Pu50 3.695499 1_555
Pu33 Pu34 3.749965 1_554
Pu34 Pu4 3.544646 1_555
Pu34 Pu39 3.608224 1_555
Pu34 Pu55 3.627354 1_556
Pu34 Pu36 3.640091 1_555
Pu34 Pu38 3.695499 1_555
Pu35 Pu49 3.547635 1_455
Pu35 Pu8 3.547635 1_565
Pu37 Pu52 3.544646 1_554
Pu37 Pu57 3.608224 1_655
Pu37 Pu4 3.627354 1_554
Pu38 Pu51 3.376176 1_455
Pu38 Pu41 3.376176 1_565
Pu38 Pu59 3.544646 1_566
Pu38 Pu39 3.608224 1_555
Pu38 Pu55 3.627354 1_556
Pu38 Pu56 3.640091 1_555
Pu38 Pu50 3.749965 1_556
Pu40 Pu44 3.304554 1_555
Pu40 Pu50 3.608224 1_545
Pu40 Pu9 3.608224 1_555
Pu41 Pu52 3.544646 1_455
Pu41 Pu7 3.608224 1_455
Pu41 Pu59 3.627354 1_556
Pu41 Pu48 3.749965 1_556
Pu42 Pu53 3.465885 1_555
Pu42 Pu8 3.578519 1_555
Pu43 Pu58 3.380905 1_555
Pu43 Pu53 3.465885 1_455
Pu44 Pu46 3.120494 1_555
Pu44 Pu45 3.465885 1_555
Pu44 Pu6 3.465885 1_555
Pu44 Pu60 3.684571 1_545
Pu45 Pu9 3.640091 1_555
Pu46 Pu53 3.120494 1_555
Pu46 Pu58 3.547635 1_655
Pu46 Pu60 3.547635 1_545
Pu46 Pu61 3.547635 1_555
Pu47 Pu8 3.380905 1_555
Pu47 Pu58 3.578519 1_555
Pu48 Pu9 3.376176 1_455
Pu48 Pu50 3.376176 1_545
Pu48 Pu52 3.544646 1_454
Pu48 Pu57 3.608224 1_555
Pu48 Pu59 3.627354 1_555
Pu48 Pu5 3.640091 1_555
Pu48 Pu54 3.695499 1_555
Pu50 Pu59 3.544646 1_565
Pu50 Pu55 3.627354 1_555
Pu50 Pu6 3.640091 1_565
Pu51 Pu55 3.544646 1_656
Pu51 Pu7 3.608224 1_555
Pu52 Pu9 3.627354 1_556
Pu53 Pu7 3.304554 1_555
Pu53 Pu58 3.684571 1_655
Pu53 Pu61 3.684571 1_555
Pu54 Pu55 3.544646 1_555
Pu54 Pu57 3.608224 1_555
Pu54 Pu59 3.627354 1_555
Pt0 Pu38 2.976679 1_554
Pt0 Pu50 2.976679 1_555
Pt0 Pu33 2.976679 1_555
Pt0 Pu34 2.976679 1_554
Pt0 Pu4 2.978082 1_554
Pt0 Pu59 2.978082 1_565
Pt0 Pt6 3.069967 1_564
Pt0 Pu39 3.281823 1_554
Pt0 Pu40 3.281823 1_565
Pt1 Pu59 2.750610 1_555
Pt1 Pu6 2.874151 1_555
Pt1 Pu15 2.874151 1_555
Pt1 Pu40 2.887480 1_555
Pt1 Pu48 2.972242 1_555
Pt1 Pu54 2.972243 1_555
Pt1 Pu50 3.218049 1_545
Pt1 Pu16 3.218049 1_555
Pt1 Pt8 3.225389 1_555
Pt2 Pt39 2.717648 1_555
Pt2 Pt24 2.849691 1_555
Pt2 Pu23 3.017893 1_545
Pt2 Pu2 3.017893 1_455
Pt2 Pu1 3.017893 1_555
Pt2 Pu32 3.017893 1_555
Pt2 Pu45 3.022718 1_455
Pt2 Pu6 3.022718 1_555
Pt2 Pu5 3.022718 1_555
Pt2 Pu20 3.022718 1_545
Pt3 Pu4 2.750610 1_555
Pt3 Pu29 2.874151 1_555
Pt3 Pu36 2.874151 1_555
Pt3 Pu39 2.887480 1_555
Pt3 Pu51 2.972242 1_555
Pt3 Pu10 2.972243 1_555
Pt3 Pu26 3.218049 1_565
Pt3 Pu34 3.218049 1_555
Pt4 Pu0 2.947276 1_655
Pt4 Pu20 3.041398 1_655
Pt4 Pu30 3.041398 1_555
Pt4 Pu21 3.065206 1_555
Pt4 Pu45 3.065206 1_565
Pt4 Pu57 3.099084 1_655
Pt4 Pu11 3.391978 1_555
Pt4 Pu37 3.391978 1_555
Pt4 Pu49 3.581900 1_555
Pt4 Pu23 3.581900 1_655
Pt5 Pu52 2.750610 1_554
Pt5 Pu5 2.874151 1_655
Pt5 Pu30 2.874151 1_555
Pt5 Pu57 2.887480 1_655
Pt5 Pu16 2.972242 1_555
Pt5 Pu9 2.972242 1_555
Pt5 Pu48 3.218049 1_655
Pt5 Pu37 3.218049 1_555
Pt6 Pu9 2.976679 1_556
Pt6 Pu26 2.976679 1_555
Pt6 Pu19 2.976679 1_555
Pt6 Pu16 2.976679 1_556
Pt6 Pu59 2.978082 1_556
Pt6 Pu4 2.978082 1_545
Pt6 Pu40 3.281823 1_556
Pt6 Pu39 3.281823 1_545
Pt7 Pu44 2.947276 1_565
Pt7 Pu21 3.041398 1_555
Pt7 Pu6 3.041398 1_565
Pt7 Pu20 3.065206 1_555
Pt7 Pu25 3.065206 1_555
Pt7 Pu40 3.099084 1_565
Pt7 Pu50 3.391978 1_555
Pt7 Pu33 3.391978 1_555
Pt7 Pu60 3.581900 1_555
Pt7 Pu1 3.581900 1_565
Pt8 Pu0 2.947276 1_555
Pt8 Pu25 3.041398 1_555
Pt8 Pu5 3.041398 1_555
Pt8 Pu15 3.065206 1_555
Pt8 Pu6 3.065206 1_555
Pt8 Pu57 3.099084 1_555
Pt8 Pu54 3.391978 1_555
Pt8 Pu48 3.391978 1_555
Pt8 Pu32 3.581900 1_555
Pt8 Pu27 3.581900 1_555
Pt9 Pu53 2.947276 1_455
Pt9 Pu22 3.041398 1_455
Pt9 Pu43 3.041398 1_555
Pt9 Pu47 3.065206 1_555
Pt9 Pu56 3.065206 1_545
Pt9 Pu7 3.099084 1_455
Pt9 Pu41 3.391978 1_555
Pt9 Pu17 3.391978 1_555
Pt9 Pu58 3.581900 1_555
Pt9 Pu14 3.581900 1_455
Pt10 Pt27 2.717648 1_555
Pt10 Pt18 2.849691 1_555
Pt10 Pu27 3.017893 1_555
Pt10 Pu12 3.017893 1_555
Pt10 Pu49 3.017893 1_555
Pt10 Pu60 3.017893 1_555
Pt10 Pu25 3.022718 1_555
Pt10 Pu30 3.022718 1_555
Pt10 Pu21 3.022718 1_555
Pt10 Pu15 3.022718 1_555
Pt11 Pu55 2.750610 1_556
Pt11 Pu18 2.874151 1_455
Pt11 Pu43 2.874151 1_555
Pt11 Pu7 2.887480 1_455
Pt11 Pu34 2.972242 1_555
Pt11 Pu38 2.972242 1_555
Pt11 Pu51 3.218049 1_455
Pt11 Pu17 3.218049 1_555
Pt11 Pt32 3.225389 1_555
Pt12 Pu53 2.947276 1_555
Pt12 Pu42 3.041398 1_555
Pt12 Pu18 3.041398 1_555
Pt12 Pu36 3.065206 1_555
Pt12 Pu29 3.065206 1_555
Pt12 Pu7 3.099084 1_555
Pt12 Pt3 3.225389 1_555
Pt12 Pu10 3.391978 1_555
Pt12 Pu51 3.391978 1_555
Pt12 Pu61 3.581900 1_555
Pt12 Pu13 3.581900 1_555
Pt13 Pt39 2.717648 1_555
Pt13 Pt22 2.849691 1_555
Pt13 Pu13 3.017893 1_555
Pt13 Pu28 3.017893 1_555
Pt13 Pu58 3.017893 1_555
Pt13 Pu8 3.017893 1_555
Pt13 Pu42 3.022718 1_555
Pt13 Pu43 3.022718 1_555
Pt13 Pu47 3.022718 1_555
Pt13 Pu36 3.022718 1_555
Pt14 Pu54 2.976679 1_555
Pt14 Pu17 2.976679 1_554
Pt14 Pu48 2.976679 1_555
Pt14 Pu41 2.976679 1_554
Pt14 Pu52 2.978082 1_454
Pt14 Pu55 2.978082 1_555
Pt14 Pt26 3.069967 1_454
Pt14 Pu7 3.281823 1_454
Pt14 Pu57 3.281823 1_555
Pt15 Pt38 2.849691 1_555
Pt15 Pu29 2.954803 1_555
Pt15 Pu56 2.954803 1_655
Pt15 Pu18 2.954803 1_555
Pt15 Pu22 2.954803 1_565
Pt15 Pu38 3.040832 1_655
Pt15 Pu26 3.040832 1_565
Pt15 Pu51 3.040832 1_555
Pt15 Pu41 3.040832 1_665
Pt16 Pu4 2.750610 1_554
Pt16 Pu21 2.874151 1_555
Pt16 Pu45 2.874151 1_565
Pt16 Pu40 2.887480 1_565
Pt16 Pu11 2.972242 1_555
Pt16 Pu37 2.972242 1_555
Pt16 Pu33 3.218049 1_555
Pt16 Pu9 3.218049 1_565
Pt16 Pt4 3.225389 1_555
Pt17 Pu35 2.875991 1_555
Pt17 Pu31 2.979351 1_555
Pt17 Pu61 3.004592 1_555
Pt17 Pu13 3.004592 1_555
Pt17 Pu28 3.054300 1_555
Pt17 Pu3 3.054300 1_555
Pt17 Pu36 3.210711 1_555
Pt17 Pu29 3.210711 1_555
Pt17 Pu32 3.260506 1_555
Pt17 Pu27 3.260506 1_555
Pt18 Pu30 2.954803 1_555
Pt18 Pu21 2.954803 1_555
Pt18 Pu25 2.954803 1_555
Pt18 Pu15 2.954803 1_555
Pt18 Pu54 3.040832 1_555
Pt18 Pu37 3.040832 1_555
Pt18 Pu33 3.040832 1_555
Pt18 Pu16 3.040832 1_555
Pt19 Pu55 2.750610 1_555
Pt19 Pu25 2.874151 1_555
Pt19 Pu20 2.874151 1_555
Pt19 Pu57 2.887480 1_555
Pt19 Pu33 2.972242 1_555
Pt19 Pu50 2.972243 1_555
Pt19 Pu11 3.218049 1_455
Pt19 Pu54 3.218049 1_555
Pt19 Pt7 3.225389 1_555
Pt20 Pu46 2.875991 1_555
Pt20 Pu44 2.979351 1_555
Pt20 Pu32 3.004592 1_555
Pt20 Pu27 3.004592 1_555
Pt20 Pu12 3.054300 1_555
Pt20 Pu1 3.054300 1_555
Pt20 Pu15 3.210711 1_555
Pt20 Pu6 3.210711 1_555
Pt20 Pu61 3.260506 1_555
Pt20 Pu13 3.260506 1_555
Pt21 Pu35 2.875991 1_555
Pt21 Pu0 2.979351 1_555
Pt21 Pu60 3.004592 1_555
Pt21 Pu1 3.004592 1_565
Pt21 Pu23 3.054300 1_555
Pt21 Pu27 3.054300 1_555
Pt21 Pu20 3.210711 1_555
Pt21 Pu25 3.210711 1_555
Pt21 Pu3 3.260506 1_555
Pt21 Pu8 3.260506 1_565
Pt22 Pu43 2.954803 1_555
Pt22 Pu47 2.954803 1_555
Pt22 Pu42 2.954803 1_555
Pt22 Pu36 2.954803 1_555
Pt22 Pu10 3.040832 1_555
Pt22 Pu17 3.040832 1_555
Pt22 Pu19 3.040832 1_555
Pt22 Pu34 3.040832 1_555
Pt23 Pu46 2.875991 1_555
Pt23 Pu53 2.979351 1_555
Pt23 Pu28 3.004592 1_655
Pt23 Pu24 3.004592 1_655
Pt23 Pu61 3.054300 1_555
Pt23 Pu58 3.054300 1_655
Pt23 Pu43 3.210711 1_655
Pt23 Pu18 3.210711 1_555
Pt23 Pu12 3.260506 1_555
Pt23 Pu2 3.260506 1_555
Pt24 Pu6 2.954803 1_555
Pt24 Pu45 2.954803 1_455
Pt24 Pu5 2.954803 1_555
Pt24 Pu20 2.954803 1_545
Pt24 Pu9 3.040832 1_455
Pt24 Pu50 3.040832 1_545
Pt24 Pu48 3.040832 1_555
Pt24 Pu11 3.040832 1_445
Pt25 Pu59 2.750610 1_556
Pt25 Pu47 2.874151 1_555
Pt25 Pu56 2.874151 1_545
Pt25 Pu39 2.887480 1_545
Pt25 Pu41 2.972242 1_555
Pt25 Pu17 2.972242 1_555
Pt25 Pu19 3.218049 1_555
Pt25 Pu38 3.218049 1_545
Pt25 Pt9 3.225389 1_555
Pt26 Pu10 2.976679 1_555
Pt26 Pu37 2.976679 1_556
Pt26 Pu51 2.976679 1_555
Pt26 Pu11 2.976679 1_556
Pt26 Pu55 2.978082 1_656
Pt26 Pu52 2.978082 1_555
Pt26 Pu57 3.281823 1_656
Pt26 Pu7 3.281823 1_555
Pt27 Pt38 2.717648 1_555
Pt27 Pu27 3.056136 1_555
Pt27 Pu49 3.056136 1_555
Pt27 Pu24 3.056136 1_655
Pt27 Pu3 3.056136 1_555
Pt27 Pu61 3.056136 1_555
Pt27 Pu60 3.056136 1_555
Pt27 Pu14 3.056136 1_565
Pt27 Pu12 3.056136 1_555
Pt28 Pu17 3.035596 1_554
Pt28 Pu37 3.035596 1_555
Pt28 Pu54 3.035596 1_555
Pt28 Pu10 3.035596 1_554
Pt28 Pu16 3.035596 1_555
Pt28 Pu34 3.035596 1_554
Pt28 Pu33 3.035596 1_555
Pt28 Pu19 3.035596 1_554
Pt29 Pu35 2.875991 1_555
Pt29 Pu31 2.979351 1_555
Pt29 Pu14 3.004592 1_465
Pt29 Pu58 3.004592 1_565
Pt29 Pu24 3.054300 1_555
Pt29 Pu8 3.054300 1_565
Pt29 Pu56 3.210711 1_555
Pt29 Pu47 3.210711 1_565
Pt29 Pu49 3.260506 1_455
Pt29 Pu23 3.260506 1_555
Pt30 Pu52 2.750610 1_555
Pt30 Pu42 2.874151 1_555
Pt30 Pu22 2.874151 1_555
Pt30 Pu7 2.887480 1_555
Pt30 Pu19 2.972242 1_555
Pt30 Pu26 2.972243 1_555
Pt30 Pu41 3.218049 1_655
Pt30 Pu10 3.218049 1_555
Pt30 Pt31 3.225389 1_555
Pt31 Pu31 2.947276 1_545
Pt31 Pu47 3.041398 1_555
Pt31 Pu29 3.041398 1_545
Pt31 Pu22 3.065206 1_555
Pt31 Pu42 3.065206 1_555
Pt31 Pu39 3.099084 1_545
Pt31 Pu26 3.391978 1_555
Pt31 Pu19 3.391978 1_555
Pt31 Pu8 3.581900 1_555
Pt31 Pu3 3.581900 1_545
Pt32 Pu31 2.947276 1_555
Pt32 Pu36 3.041398 1_555
Pt32 Pu56 3.041398 1_555
Pt32 Pu18 3.065205 1_455
Pt32 Pu43 3.065206 1_555
Pt32 Pu39 3.099084 1_555
Pt32 Pu34 3.391978 1_555
Pt32 Pu38 3.391978 1_555
Pt32 Pu24 3.581900 1_555
Pt32 Pu28 3.581900 1_555
Pt33 Pu44 2.947276 1_555
Pt33 Pu15 3.041398 1_555
Pt33 Pu45 3.041398 1_555
Pt33 Pu5 3.065205 1_655
Pt33 Pu30 3.065206 1_555
Pt33 Pu40 3.099084 1_555
Pt33 Pt5 3.225389 1_555
Pt33 Pu16 3.391978 1_555
Pt33 Pu9 3.391978 1_555
Pt33 Pu2 3.581900 1_555
Pt33 Pu12 3.581900 1_555
Pt34 Pu46 2.875991 1_555
Pt34 Pu44 2.979351 1_555
Pt34 Pu23 3.004592 1_645
Pt34 Pu49 3.004592 1_545
Pt34 Pu2 3.054300 1_555
Pt34 Pu60 3.054300 1_545
Pt34 Pu45 3.210711 1_555
Pt34 Pu21 3.210711 1_545
Pt34 Pu58 3.260506 1_655
Pt34 Pu14 3.260506 1_555
Pt35 Pu50 3.035596 1_545
Pt35 Pu26 3.035596 1_454
Pt35 Pu38 3.035596 1_544
Pt35 Pu9 3.035596 1_455
Pt35 Pu41 3.035596 1_554
Pt35 Pu11 3.035596 1_445
Pt35 Pu48 3.035596 1_555
Pt35 Pu51 3.035596 1_444
Pt36 Pu46 2.875991 1_555
Pt36 Pu53 2.979351 1_555
Pt36 Pu8 3.004592 1_555
Pt36 Pu3 3.004592 1_545
Pt36 Pu14 3.054300 1_555
Pt36 Pu13 3.054300 1_555
Pt36 Pu22 3.210711 1_555
Pt36 Pu42 3.210711 1_555
Pt36 Pu1 3.260506 1_555
Pt36 Pu60 3.260506 1_545
Pt37 Pu35 2.875991 1_555
Pt37 Pu0 2.979351 1_555
Pt37 Pu12 3.004592 1_455
Pt37 Pu2 3.004592 1_455
Pt37 Pu32 3.054300 1_555
Pt37 Pu49 3.054300 1_455
Pt37 Pu30 3.210711 1_455
Pt37 Pu5 3.210711 1_555
Pt37 Pu28 3.260506 1_555
Pt37 Pu24 3.260506 1_555
Pt38 Pu14 3.017893 1_565
Pt38 Pu24 3.017893 1_655
Pt38 Pu3 3.017893 1_555
Pt38 Pu61 3.017893 1_555
Pt38 Pu56 3.022718 1_655
Pt38 Pu29 3.022718 1_555
Pt38 Pu18 3.022718 1_555
Pt38 Pu22 3.022718 1_565
Pt39 Pu13 3.056136 1_555
Pt39 Pu58 3.056136 1_555
Pt39 Pu2 3.056136 1_455
Pt39 Pu1 3.056136 1_555
Pt39 Pu32 3.056136 1_555
Pt39 Pu8 3.056136 1_555
Pt39 Pu23 3.056136 1_545
Pt39 Pu28 3.056136 1_555
