# generated using pymatgen
data_Tl2Te3
_symmetry_space_group_name_H-M   'P 1'
_cell_length_a   6.81711161
_cell_length_b   6.94271786
_cell_length_c   10.97124615
_cell_angle_alpha   121.09341336
_cell_angle_beta   89.99999998
_cell_angle_gamma   119.40332646
_symmetry_Int_Tables_number   1
_chemical_formula_structural   Tl2Te3
_chemical_formula_sum   'Tl4 Te6'
_cell_volume   364.31969122
_cell_formula_units_Z   2
loop_
 _symmetry_equiv_pos_site_id
 _symmetry_equiv_pos_as_xyz
  1  'x, y, z'
loop_
 _atom_site_type_symbol
 _atom_site_label
 _atom_site_symmetry_multiplicity
 _atom_site_fract_x
 _atom_site_fract_y
 _atom_site_fract_z
 _atom_site_occupancy
  Tl  Tl0  1  0.55126955  0.77029839  0.29571637  1
  Tl  Tl1  1  0.81069424  0.11138211  0.04466298  1
  Tl  Tl2  1  0.30068688  0.11138211  0.54466298  1
  Tl  Tl3  1  0.21902983  0.77029839  0.79571737  1
  Te  Te0  1  0.82078425  0.60197717  0.01854763  1
  Te  Te1  1  0.79376727  0.17575906  0.74752266  1
  Te  Te2  1  0.09602960  0.41258627  0.40454836  1
  Te  Te3  1  0.78119192  0.60197717  0.51854763  1
  Te  Te4  1  0.38199179  0.17575906  0.24752266  1
  Te  Te5  1  0.31655467  0.41258627  0.90454836  1
loop_
_geom_bond_atom_site_label_1
_geom_bond_atom_site_label_2
_geom_bond_distance
_geom_bond_site_symmetry_2
Te0 Te1 2.829953 1_554
Te0 Te5 2.995370 1_554
Te0 Te4 3.393477 1_665
Te0 Tl1 3.433219 1_565
Te0 Tl0 3.525080 1_555
Te0 Tl1 3.530725 1_555
Te1 Te5 3.113394 1_655
Te1 Te3 3.393475 1_545
Te1 Tl3 3.423140 1_655
Te1 Tl1 3.520834 1_556
Te2 Te3 2.995365 1_455
Te2 Te4 3.113407 1_555
Te2 Tl1 3.350254 1_455
Te2 Tl3 3.497926 1_555
Te2 Tl0 3.566453 1_555
Te3 Te4 2.829949 1_555
Te3 Tl2 3.433219 1_665
Te3 Tl3 3.525097 1_655
Te3 Tl2 3.530724 1_555
Te4 Tl0 3.423144 1_555
Te4 Tl2 3.520835 1_555
Te5 Tl2 3.350256 1_555
Te5 Tl0 3.497919 1_556
Te5 Tl3 3.566435 1_555
