# generated using pymatgen
data_LiV6O7F5
_symmetry_space_group_name_H-M   'P 1'
_cell_length_a   5.81366400
_cell_length_b   6.09138736
_cell_length_c   6.13815333
_cell_angle_alpha   100.73310583
_cell_angle_beta   100.40312049
_cell_angle_gamma   98.79544098
_symmetry_Int_Tables_number   1
_chemical_formula_structural   LiV6O7F5
_chemical_formula_sum   'Li1 V6 O7 F5'
_cell_volume   206.10793233
_cell_formula_units_Z   1
loop_
 _symmetry_equiv_pos_site_id
 _symmetry_equiv_pos_as_xyz
  1  'x, y, z'
loop_
 _atom_site_type_symbol
 _atom_site_label
 _atom_site_symmetry_multiplicity
 _atom_site_fract_x
 _atom_site_fract_y
 _atom_site_fract_z
 _atom_site_occupancy
  Li  Li0  1  0.99363100  0.98123800  0.00066600  1
  V  V0  1  0.30100100  0.60805200  0.13447800  1
  V  V1  1  0.85037500  0.66158700  0.38096500  1
  V  V2  1  0.59548600  0.15806700  0.34069000  1
  V  V3  1  0.40356300  0.85195000  0.66352300  1
  V  V4  1  0.15244100  0.34800100  0.60375700  1
  V  V5  1  0.68594000  0.40934900  0.87041300  1
  O  O0  1  0.93235800  0.65737800  0.07706500  1
  O  O1  1  0.56603100  0.41358800  0.17808700  1
  O  O2  1  0.57947900  0.82948700  0.41156400  1
  O  O3  1  0.18790100  0.57538000  0.42148000  1
  O  O4  1  0.82151600  0.42740300  0.58830500  1
  O  O5  1  0.41340700  0.17756300  0.58689800  1
  O  O6  1  0.42029100  0.59397500  0.82953600  1
  F  F0  1  0.32320400  0.94912100  0.09410600  1
  F  F1  1  0.93419300  0.10784300  0.31892400  1
  F  F2  1  0.05787100  0.88877300  0.67362400  1
  F  F3  1  0.68242400  0.06340400  0.90012500  1
  F  F4  1  0.09888800  0.29784500  0.92579400  1
loop_
_geom_bond_atom_site_label_1
_geom_bond_atom_site_label_2
_geom_bond_distance
_geom_bond_site_symmetry_2
Li0 O0 2.104418 1_555
O0 V5 1.977867 1_554
O0 V1 2.003621 1_555
O0 V0 2.184316 1_655
O1 V2 2.011598 1_555
O1 V1 2.087509 1_555
O1 V0 2.091934 1_555
O1 V5 2.125100 1_554
O2 V3 1.997930 1_555
O2 V1 2.022238 1_555
O2 V2 2.118001 1_565
O2 V0 2.194640 1_555
O3 V4 1.945729 1_555
O3 V0 2.020965 1_555
O3 V3 2.089623 1_555
O3 V1 2.091793 1_455
O4 V5 2.041860 1_555
O4 V4 2.044511 1_655
O4 V1 2.088763 1_555
O4 V2 2.102174 1_555
O5 V4 1.971993 1_555
O5 V2 1.991952 1_555
O5 V3 2.116833 1_545
O5 V5 2.221992 1_555
O6 V3 2.030913 1_555
O6 V5 2.051637 1_555
O6 V4 2.079453 1_555
O6 V0 2.102161 1_556
F0 Li0 1.948831 1_455
F0 V2 2.053691 1_565
F0 V0 2.125024 1_555
F1 V2 2.062263 1_555
F1 Li0 2.072323 1_545
F1 V4 2.117844 1_655
F2 V3 2.066610 1_555
F2 V1 2.092423 1_455
F2 Li0 2.097727 1_456
F3 Li0 1.973194 1_546
F3 V3 2.052045 1_545
F3 V5 2.146078 1_555
F4 Li0 2.091855 1_446
F4 V0 2.113742 1_556
F4 V4 2.125036 1_555
F4 V5 2.574952 1_455
