# generated using pymatgen
data_Ca2SiO5
_symmetry_space_group_name_H-M   'P 1'
_cell_length_a   7.32584800
_cell_length_b   10.65972300
_cell_length_c   10.93442800
_cell_angle_alpha   90.00000000
_cell_angle_beta   90.00000000
_cell_angle_gamma   90.00000000
_symmetry_Int_Tables_number   1
_chemical_formula_structural   Ca2SiO5
_chemical_formula_sum   'Ca16 Si8 O40'
_cell_volume   853.88599810
_cell_formula_units_Z   8
loop_
 _symmetry_equiv_pos_site_id
 _symmetry_equiv_pos_as_xyz
  1  'x, y, z'
loop_
 _atom_site_type_symbol
 _atom_site_label
 _atom_site_symmetry_multiplicity
 _atom_site_fract_x
 _atom_site_fract_y
 _atom_site_fract_z
 _atom_site_occupancy
  Ca  Ca0  1  0.99935100  0.69573400  0.76053300  1
  Ca  Ca1  1  0.49935100  0.80426600  0.23946700  1
  Ca  Ca2  1  0.00064900  0.19573400  0.73946700  1
  Ca  Ca3  1  0.50064900  0.30426600  0.26053300  1
  Ca  Ca4  1  0.00064900  0.30426600  0.23946700  1
  Ca  Ca5  1  0.50064900  0.19573400  0.76053300  1
  Ca  Ca6  1  0.99935100  0.80426600  0.26053300  1
  Ca  Ca7  1  0.49935100  0.69573400  0.73946700  1
  Ca  Ca8  1  0.75507200  0.06640500  0.07750900  1
  Ca  Ca9  1  0.25507200  0.43359500  0.92249100  1
  Ca  Ca10  1  0.24492800  0.56640500  0.42249100  1
  Ca  Ca11  1  0.74492800  0.93359500  0.57750900  1
  Ca  Ca12  1  0.24492800  0.93359500  0.92249100  1
  Ca  Ca13  1  0.74492800  0.56640500  0.07750900  1
  Ca  Ca14  1  0.75507200  0.43359500  0.57750900  1
  Ca  Ca15  1  0.25507200  0.06640500  0.42249100  1
  Si  Si0  1  0.23157600  0.31674900  0.54140700  1
  Si  Si1  1  0.73157600  0.18325100  0.45859300  1
  Si  Si2  1  0.76842400  0.81674900  0.95859300  1
  Si  Si3  1  0.26842400  0.68325100  0.04140700  1
  Si  Si4  1  0.76842400  0.68325100  0.45859300  1
  Si  Si5  1  0.26842400  0.81674900  0.54140700  1
  Si  Si6  1  0.23157600  0.18325100  0.04140700  1
  Si  Si7  1  0.73157600  0.31674900  0.95859300  1
  O  O0  1  0.97309300  0.42472300  0.80753000  1
  O  O1  1  0.47309300  0.07527700  0.19247000  1
  O  O2  1  0.02690700  0.92472300  0.69247000  1
  O  O3  1  0.52690700  0.57527700  0.30753000  1
  O  O4  1  0.02690700  0.57527700  0.19247000  1
  O  O5  1  0.52690700  0.92472300  0.80753000  1
  O  O6  1  0.97309300  0.07527700  0.30753000  1
  O  O7  1  0.47309300  0.42472300  0.69247000  1
  O  O8  1  0.05052000  0.38278800  0.59245500  1
  O  O9  1  0.55052000  0.11721200  0.40754500  1
  O  O10  1  0.94948000  0.88278800  0.90754500  1
  O  O11  1  0.44948000  0.61721200  0.09245500  1
  O  O12  1  0.94948000  0.61721200  0.40754500  1
  O  O13  1  0.44948000  0.88278800  0.59245500  1
  O  O14  1  0.05052000  0.11721200  0.09245500  1
  O  O15  1  0.55052000  0.38278800  0.90754500  1
  O  O16  1  0.26406500  0.18225500  0.60936300  1
  O  O17  1  0.76406500  0.31774500  0.39063700  1
  O  O18  1  0.73593500  0.68225500  0.89063700  1
  O  O19  1  0.23593500  0.81774500  0.10936300  1
  O  O20  1  0.73593500  0.81774500  0.39063700  1
  O  O21  1  0.23593500  0.68225500  0.60936300  1
  O  O22  1  0.26406500  0.31774500  0.10936300  1
  O  O23  1  0.76406500  0.18225500  0.89063700  1
  O  O24  1  0.41637900  0.41055100  0.55904800  1
  O  O25  1  0.91637900  0.08944900  0.44095200  1
  O  O26  1  0.58362100  0.91055100  0.94095200  1
  O  O27  1  0.08362100  0.58944900  0.05904800  1
  O  O28  1  0.58362100  0.58944900  0.44095200  1
  O  O29  1  0.08362100  0.91055100  0.55904800  1
  O  O30  1  0.41637900  0.08944900  0.05904800  1
  O  O31  1  0.91637900  0.41055100  0.94095200  1
  O  O32  1  0.23599600  0.31145600  0.38995600  1
  O  O33  1  0.73599600  0.18854400  0.61004400  1
  O  O34  1  0.76400400  0.81145600  0.11004400  1
  O  O35  1  0.26400400  0.68854400  0.88995600  1
  O  O36  1  0.76400400  0.68854400  0.61004400  1
  O  O37  1  0.26400400  0.81145600  0.38995600  1
  O  O38  1  0.23599600  0.18854400  0.88995600  1
  O  O39  1  0.73599600  0.31145600  0.11004400  1
loop_
_geom_bond_atom_site_label_1
_geom_bond_atom_site_label_2
_geom_bond_distance
_geom_bond_site_symmetry_2
Ca0 O36 2.384567 1_555
Ca0 O21 2.399338 1_655
Ca0 O35 2.401571 1_655
Ca0 O18 2.401747 1_555
Ca0 O2 2.559866 1_655
Ca0 O10 2.587145 1_555
Ca0 O0 2.940550 1_555
Ca1 O37 2.384567 1_555
Ca1 O20 2.399338 1_555
Ca1 O34 2.401571 1_555
Ca1 O19 2.401747 1_555
Ca1 O3 2.559866 1_555
Ca1 O11 2.587145 1_555
Ca1 O1 2.940550 1_565
Ca2 O38 2.384567 1_555
Ca2 O23 2.399338 1_455
Ca2 O33 2.401571 1_455
Ca2 O16 2.401747 1_555
Ca2 O0 2.559866 1_455
Ca2 O8 2.587145 1_555
Ca2 O2 2.940550 1_545
Ca3 O39 2.384567 1_555
Ca3 O22 2.399338 1_555
Ca3 O32 2.401571 1_555
Ca3 O17 2.401747 1_555
Ca3 O1 2.559866 1_555
Ca3 O9 2.587145 1_555
Ca3 O3 2.940550 1_555
Ca4 O32 2.384567 1_555
Ca4 O17 2.399338 1_455
Ca4 O39 2.401571 1_455
Ca4 O22 2.401747 1_555
Ca4 O6 2.559866 1_455
Ca4 O14 2.587145 1_555
Ca4 O4 2.940550 1_555
Ca5 O33 2.384567 1_555
Ca5 O16 2.399338 1_555
Ca5 O38 2.401571 1_555
Ca5 O23 2.401747 1_555
Ca5 O7 2.559866 1_555
Ca5 O15 2.587145 1_555
Ca5 O5 2.940550 1_545
Ca6 O34 2.384567 1_555
Ca6 O19 2.399338 1_655
Ca6 O37 2.401571 1_655
Ca6 O20 2.401747 1_555
Ca6 O4 2.559866 1_655
Ca6 O12 2.587145 1_555
Ca6 O6 2.940550 1_565
Ca7 O35 2.384567 1_555
Ca7 O18 2.399338 1_555
Ca7 O36 2.401571 1_555
Ca7 O21 2.401747 1_555
Ca7 O5 2.559866 1_555
Ca7 O13 2.587145 1_555
Ca7 O7 2.940550 1_555
Ca8 O14 2.237115 1_655
Ca8 O23 2.388435 1_554
Ca8 O1 2.419987 1_555
Ca8 O30 2.501501 1_555
Ca8 O26 2.562670 1_544
Ca8 O39 2.639991 1_555
Ca8 O34 2.741652 1_545
Ca8 O6 2.980927 1_555
Ca9 O15 2.237115 1_555
Ca9 O22 2.388435 1_556
Ca9 O0 2.419987 1_455
Ca9 O31 2.501501 1_455
Ca9 O27 2.562670 1_556
Ca9 O38 2.639991 1_555
Ca9 O35 2.741652 1_555
Ca9 O7 2.980927 1_555
Ca10 O12 2.237115 1_455
Ca10 O21 2.388435 1_555
Ca10 O3 2.419987 1_555
Ca10 O28 2.501501 1_555
Ca10 O24 2.562670 1_555
Ca10 O37 2.639991 1_555
Ca10 O32 2.741652 1_555
Ca10 O4 2.980927 1_555
Ca11 O13 2.237115 1_555
Ca11 O20 2.388435 1_555
Ca11 O2 2.419987 1_655
Ca11 O29 2.501501 1_655
Ca11 O25 2.562670 1_565
Ca11 O36 2.639991 1_555
Ca11 O33 2.741652 1_565
Ca11 O5 2.980927 1_555
Ca12 O10 2.237115 1_455
Ca12 O19 2.388435 1_556
Ca12 O5 2.419987 1_555
Ca12 O26 2.501501 1_555
Ca12 O30 2.562670 1_566
Ca12 O35 2.639991 1_555
Ca12 O38 2.741652 1_565
Ca12 O2 2.980927 1_555
Ca13 O11 2.237115 1_555
Ca13 O18 2.388435 1_554
Ca13 O4 2.419987 1_655
Ca13 O27 2.501501 1_655
Ca13 O31 2.562670 1_554
Ca13 O34 2.639991 1_555
Ca13 O39 2.741652 1_555
Ca13 O3 2.980927 1_555
Ca14 O8 2.237115 1_655
Ca14 O17 2.388435 1_555
Ca14 O7 2.419987 1_555
Ca14 O24 2.501501 1_555
Ca14 O28 2.562670 1_555
Ca14 O33 2.639991 1_555
Ca14 O36 2.741652 1_555
Ca14 O0 2.980927 1_555
Ca15 O9 2.237115 1_555
Ca15 O16 2.388435 1_555
Ca15 O6 2.419987 1_455
Ca15 O25 2.501501 1_455
Ca15 O29 2.562670 1_545
Ca15 O32 2.639991 1_555
Ca15 O37 2.741652 1_545
Ca15 O1 2.980927 1_555
O0 O31 1.524406 1_555
O1 O30 1.524406 1_555
O2 O29 1.524406 1_555
O8 Si0 1.602008 1_555
O9 Si1 1.602008 1_555
O10 Si2 1.602008 1_555
O11 Si3 1.602008 1_555
O12 Si4 1.602008 1_555
O13 Si5 1.602008 1_555
O14 Si6 1.602008 1_555
O15 Si7 1.602008 1_555
O16 Si0 1.632236 1_555
O17 Si1 1.632236 1_555
O18 Si2 1.632236 1_555
O19 Si3 1.632236 1_555
O20 Si4 1.632236 1_555
O21 Si5 1.632236 1_555
O22 Si6 1.632236 1_555
O23 Si7 1.632236 1_555
O24 O7 1.524406 1_555
O24 Si0 1.694076 1_555
O25 O6 1.524406 1_555
O25 Si1 1.694076 1_555
O26 O5 1.524406 1_555
O26 Si2 1.694076 1_555
O27 O4 1.524406 1_555
O27 Si3 1.694076 1_555
O28 O3 1.524406 1_555
O28 Si4 1.694076 1_555
O29 Si5 1.694076 1_555
O30 Si6 1.694076 1_555
O31 Si7 1.694076 1_555
O32 Si0 1.657307 1_555
O33 Si1 1.657307 1_555
O34 Si2 1.657307 1_554
O35 Si3 1.657307 1_556
O36 Si4 1.657307 1_555
O37 Si5 1.657307 1_555
O38 Si6 1.657307 1_556
O39 Si7 1.657307 1_554
