# generated using pymatgen
data_Li5Ti2Fe5O12
_symmetry_space_group_name_H-M   'P 1'
_cell_length_a   5.25683809
_cell_length_b   5.25683809
_cell_length_c   10.03032960
_cell_angle_alpha   84.38751432
_cell_angle_beta   84.38751432
_cell_angle_gamma   121.16062706
_symmetry_Int_Tables_number   1
_chemical_formula_structural   Li5Ti2Fe5O12
_chemical_formula_sum   'Li5 Ti2 Fe5 O12'
_cell_volume   232.44099709
_cell_formula_units_Z   1
loop_
 _symmetry_equiv_pos_site_id
 _symmetry_equiv_pos_as_xyz
  1  'x, y, z'
loop_
 _atom_site_type_symbol
 _atom_site_label
 _atom_site_symmetry_multiplicity
 _atom_site_fract_x
 _atom_site_fract_y
 _atom_site_fract_z
 _atom_site_occupancy
  Li  Li0  1  0.83426100  0.66997800  0.75357600  1
  Li  Li1  1  0.67259000  0.83300600  0.24481100  1
  Li  Li2  1  0.33002200  0.16573900  0.24642400  1
  Li  Li3  1  0.16699400  0.32741000  0.75518900  1
  Li  Li4  1  0.07953100  0.92046900  0.00000000  1
  Ti  Ti0  1  0.74774900  0.25225100  0.00000000  1
  Ti  Ti1  1  0.25356200  0.74643800  0.50000000  1
  Fe  Fe0  1  0.92250800  0.07749200  0.50000000  1
  Fe  Fe1  1  0.99609600  0.50485300  0.24811200  1
  Fe  Fe2  1  0.49514700  0.00390400  0.75188800  1
  Fe  Fe3  1  0.58076000  0.41924000  0.50000000  1
  Fe  Fe4  1  0.41879300  0.58120700  0.00000000  1
  O  O0  1  0.03073800  0.22532900  0.11419300  1
  O  O1  1  0.77467100  0.96926200  0.88580700  1
  O  O2  1  0.88308500  0.38074100  0.61791400  1
  O  O3  1  0.61925900  0.11691500  0.38208600  1
  O  O4  1  0.69266900  0.51727500  0.11375500  1
  O  O5  1  0.48272500  0.30733100  0.88624500  1
  O  O6  1  0.50910600  0.69951200  0.61845700  1
  O  O7  1  0.30048800  0.49089400  0.38154300  1
  O  O8  1  0.39529100  0.87901700  0.11443700  1
  O  O9  1  0.12098300  0.60470900  0.88556300  1
  O  O10  1  0.19989100  0.00692200  0.62020500  1
  O  O11  1  0.99307800  0.80010900  0.37979500  1
loop_
_geom_bond_atom_site_label_1
_geom_bond_atom_site_label_2
_geom_bond_distance
_geom_bond_site_symmetry_2
Li0 O10 2.032644 1_665
Li0 O5 2.048671 1_555
Li0 O2 2.229246 1_555
Li0 O9 2.231325 1_655
Li0 O1 2.273633 1_555
Li0 O6 2.338625 1_555
Li1 O7 2.072141 1_555
Li1 O0 2.117835 1_665
Li1 O8 2.137610 1_555
Li1 O3 2.227419 1_565
Li1 O4 2.252736 1_555
Li1 O11 2.324505 1_555
Li2 O11 2.032644 1_445
Li2 O4 2.048671 1_555
Li2 O3 2.229246 1_555
Li2 O8 2.231325 1_545
Li2 O0 2.273633 1_555
Li2 O7 2.338625 1_555
Li3 O6 2.072141 1_555
Li3 O1 2.117835 1_445
Li3 O9 2.137610 1_555
Li3 O2 2.227419 1_455
Li3 O5 2.252736 1_555
Li3 O10 2.324505 1_555
Li4 O4 2.131296 1_455
Li4 O5 2.131296 1_564
Li4 O1 2.161717 1_454
Li4 O0 2.161717 1_565
Li4 O9 2.195076 1_554
Li4 O8 2.195076 1_555
Fe0 O11 2.129260 1_545
Fe0 O10 2.129260 1_655
Fe0 O2 2.155401 1_555
Fe0 O3 2.155401 1_555
Fe0 O7 2.155699 1_655
Fe0 O6 2.155699 1_545
Fe1 O11 2.139219 1_555
Fe1 O0 2.147513 1_655
Fe1 O3 2.156718 1_555
Fe1 O8 2.175430 1_655
Fe1 O4 2.208095 1_555
Fe1 O7 2.208670 1_655
Fe2 O10 2.139219 1_555
Fe2 O1 2.147513 1_545
Fe2 O2 2.156718 1_555
Fe2 O9 2.175430 1_545
Fe2 O5 2.208095 1_555
Fe2 O6 2.208670 1_545
Fe3 O7 2.133906 1_555
Fe3 O6 2.133906 1_555
Fe3 O2 2.149248 1_555
Fe3 O3 2.149248 1_555
Fe3 O10 2.164718 1_555
Fe3 O11 2.164718 1_555
Fe4 O1 2.036562 1_554
Fe4 O0 2.036562 1_555
Fe4 O5 2.057833 1_554
Fe4 O4 2.057833 1_555
Fe4 O8 2.075483 1_555
Fe4 O9 2.075483 1_554
O0 Ti0 2.016048 1_455
O1 Ti0 2.016048 1_566
O2 Ti1 2.029178 1_655
O3 Ti1 2.029178 1_545
O4 Ti0 1.997615 1_555
O5 Ti0 1.997615 1_556
O6 Ti1 1.968500 1_555
O7 Ti1 1.968500 1_555
O8 Ti0 1.995359 1_565
O9 Ti0 1.995359 1_456
O10 Ti1 2.016075 1_545
O11 Ti1 2.016075 1_655
