# generated using pymatgen
data_Tm2Sb2O7
_symmetry_space_group_name_H-M   'P 1'
_cell_length_a   7.50586768
_cell_length_b   7.50586768
_cell_length_c   18.32047300
_cell_angle_alpha   90.00000000
_cell_angle_beta   90.00000000
_cell_angle_gamma   119.99999721
_symmetry_Int_Tables_number   1
_chemical_formula_structural   Tm2Sb2O7
_chemical_formula_sum   'Tm12 Sb12 O42'
_cell_volume   893.85924124
_cell_formula_units_Z   6
loop_
 _symmetry_equiv_pos_site_id
 _symmetry_equiv_pos_as_xyz
  1  'x, y, z'
loop_
 _atom_site_type_symbol
 _atom_site_label
 _atom_site_symmetry_multiplicity
 _atom_site_fract_x
 _atom_site_fract_y
 _atom_site_fract_z
 _atom_site_occupancy
  Tm  Tm0  1  0.00000000  0.84043800  0.66666700  1
  Tm  Tm1  1  0.00000000  0.83276900  0.16666700  1
  Tm  Tm2  1  0.17777600  0.68225800  0.01138700  1
  Tm  Tm3  1  0.15956200  0.15956200  0.00000000  1
  Tm  Tm4  1  0.50448200  0.82222400  0.67805400  1
  Tm  Tm5  1  0.16723100  0.16723100  0.50000000  1
  Tm  Tm6  1  0.31774200  0.49551800  0.34472000  1
  Tm  Tm7  1  0.49551800  0.31774200  0.65528000  1
  Tm  Tm8  1  0.68225800  0.17777600  0.98861300  1
  Tm  Tm9  1  0.82222400  0.50448200  0.32194600  1
  Tm  Tm10  1  0.83276900  0.00000000  0.83333300  1
  Tm  Tm11  1  0.84043800  0.00000000  0.33333300  1
  Sb  Sb0  1  0.00000000  0.32355400  0.16666700  1
  Sb  Sb1  1  0.00000000  0.31029600  0.66666700  1
  Sb  Sb2  1  0.16955500  0.67014000  0.50148800  1
  Sb  Sb3  1  0.50058500  0.83044500  0.16815500  1
  Sb  Sb4  1  0.32986000  0.49941500  0.83482100  1
  Sb  Sb5  1  0.31029600  0.00000000  0.33333300  1
  Sb  Sb6  1  0.67644600  0.67644600  0.50000000  1
  Sb  Sb7  1  0.32355400  0.00000000  0.83333300  1
  Sb  Sb8  1  0.68970400  0.68970400  0.00000000  1
  Sb  Sb9  1  0.49941500  0.32986000  0.16517900  1
  Sb  Sb10  1  0.67014000  0.16955500  0.49851200  1
  Sb  Sb11  1  0.83044500  0.50058500  0.83184500  1
  O  O0  1  0.02262500  0.85310300  0.28422000  1
  O  O1  1  0.98119500  0.80299500  0.80270300  1
  O  O2  1  0.10365800  0.65563500  0.39412200  1
  O  O3  1  0.06427500  0.46405800  0.80226600  1
  O  O4  1  0.32583500  0.99273400  0.95694400  1
  O  O5  1  0.24021100  0.69192900  0.60685600  1
  O  O6  1  0.00726600  0.33310100  0.29027800  1
  O  O7  1  0.20043200  0.68892300  0.13922000  1
  O  O8  1  0.39978300  0.93572500  0.46893200  1
  O  O9  1  0.45171800  0.75978900  0.27352300  1
  O  O10  1  0.48849100  0.79956800  0.80588700  1
  O  O11  1  0.34436500  0.44802300  0.72745500  1
  O  O12  1  0.14689700  0.16952200  0.61755300  1
  O  O13  1  0.31107700  0.51150900  0.47255300  1
  O  O14  1  0.19700500  0.17820000  0.13603600  1
  O  O15  1  0.16952200  0.14689700  0.38244700  1
  O  O16  1  0.30807100  0.54828200  0.94019000  1
  O  O17  1  0.17820000  0.19700500  0.86396400  1
  O  O18  1  0.55197700  0.89634200  0.06078900  1
  O  O19  1  0.53594200  0.60021700  0.13559900  1
  O  O20  1  0.82180000  0.01880500  0.46937000  1
  O  O21  1  0.66689900  0.67416500  0.62361100  1
  O  O22  1  0.44802300  0.34436500  0.27254500  1
  O  O23  1  0.60021700  0.53594200  0.86440100  1
  O  O24  1  0.33310100  0.00726600  0.70972200  1
  O  O25  1  0.83047800  0.97737500  0.95088700  1
  O  O26  1  0.54828200  0.30807100  0.05981000  1
  O  O27  1  0.67416500  0.66689900  0.37638900  1
  O  O28  1  0.51150900  0.31107700  0.52744700  1
  O  O29  1  0.46405800  0.06427500  0.19773400  1
  O  O30  1  0.69192900  0.24021100  0.39314400  1
  O  O31  1  0.68892300  0.20043200  0.86078000  1
  O  O32  1  0.89634200  0.55197700  0.93921100  1
  O  O33  1  0.97737500  0.83047800  0.04911300  1
  O  O34  1  0.79956800  0.48849100  0.19411300  1
  O  O35  1  0.01880500  0.82180000  0.53063000  1
  O  O36  1  0.75978900  0.45171800  0.72647700  1
  O  O37  1  0.65563500  0.10365800  0.60587800  1
  O  O38  1  0.93572500  0.39978300  0.53106800  1
  O  O39  1  0.80299500  0.98119500  0.19729700  1
  O  O40  1  0.99273400  0.32583500  0.04305600  1
  O  O41  1  0.85310300  0.02262500  0.71578000  1
loop_
_geom_bond_atom_site_label_1
_geom_bond_atom_site_label_2
_geom_bond_distance
_geom_bond_site_symmetry_2
O0 Sb5 2.075282 1_565
O0 Tm1 2.159704 1_555
O0 Tm11 2.324443 1_465
O0 Tm9 2.377268 1_455
O1 Sb11 2.036963 1_555
O1 Sb7 2.303258 1_665
O1 Tm10 2.321623 1_565
O1 Tm0 2.504100 1_655
O2 Sb2 2.017850 1_555
O2 Tm9 2.258607 1_455
O2 Sb5 2.513544 1_565
O2 Tm6 2.603225 1_555
O3 Sb4 1.967472 1_555
O3 Sb11 1.982518 1_455
O3 Sb1 2.679437 1_555
O4 Tm2 2.251843 1_556
O4 Sb7 2.265539 1_565
O4 Tm3 2.304455 1_566
O4 Tm8 2.388939 1_565
O5 Sb2 1.986877 1_555
O5 Tm4 2.156978 1_555
O5 Sb1 2.737174 1_555
O5 Tm0 2.775570 1_555
O6 Tm6 2.251835 1_555
O6 Sb0 2.265539 1_555
O6 Tm11 2.304449 1_455
O6 Tm9 2.388934 1_455
O7 Sb3 2.022827 1_555
O7 Tm1 2.303508 1_555
O7 Tm2 2.346848 1_555
O7 Sb0 2.431298 1_555
O8 Sb2 1.967477 1_555
O8 Sb10 1.982524 1_565
O8 Sb5 2.679437 1_565
O9 Sb3 1.986877 1_555
O9 Tm6 2.156967 1_555
O9 Sb5 2.737166 1_565
O9 Tm11 2.775563 1_565
O10 Sb4 2.022823 1_555
O10 Tm10 2.303504 1_565
O10 Tm4 2.346848 1_555
O10 Sb7 2.431294 1_565
O11 Sb4 2.017850 1_555
O11 Tm7 2.258596 1_555
O11 Sb1 2.513536 1_555
O11 Tm4 2.603218 1_555
O12 Sb1 2.075290 1_555
O12 Tm5 2.159704 1_555
O12 Tm0 2.324450 1_545
O12 Tm7 2.377273 1_555
O13 Sb2 2.022827 1_555
O13 Tm5 2.303508 1_555
O13 Tm6 2.346848 1_555
O13 Sb6 2.431298 1_555
O14 Sb9 2.036968 1_555
O14 Sb0 2.303262 1_555
O14 Tm1 2.321628 1_545
O14 Tm3 2.504100 1_555
O15 Sb5 2.075290 1_555
O15 Tm5 2.159704 1_555
O15 Tm11 2.324450 1_455
O15 Tm6 2.377273 1_555
O16 Sb4 1.986895 1_555
O16 Tm2 2.156966 1_556
O16 Sb8 2.737167 1_556
O16 Tm3 2.775563 1_556
O17 Sb4 2.036968 1_555
O17 Sb7 2.303262 1_555
O17 Tm10 2.321628 1_455
O17 Tm3 2.504100 1_556
O18 Sb3 2.017850 1_555
O18 Tm8 2.258607 1_564
O18 Sb8 2.513544 1_555
O18 Tm2 2.603225 1_555
O19 Sb3 1.967477 1_555
O19 Sb9 1.982523 1_555
O19 Sb8 2.679437 1_555
O20 Sb10 2.036963 1_555
O20 Sb6 2.303258 1_545
O20 Tm5 2.321623 1_655
O20 Tm11 2.504119 1_555
O21 Tm4 2.251843 1_555
O21 Sb6 2.265539 1_555
O21 Tm0 2.304455 1_655
O21 Tm7 2.388939 1_555
O22 Sb9 2.017850 1_555
O22 Tm6 2.258596 1_555
O22 Sb5 2.513536 1_555
O22 Tm9 2.603218 1_555
O23 Sb11 1.967477 1_555
O23 Sb4 1.982523 1_555
O23 Sb8 2.679437 1_556
O24 Tm7 2.251835 1_555
O24 Sb7 2.265539 1_555
O24 Tm0 2.304449 1_545
O24 Tm4 2.388934 1_545
O25 Sb8 2.075282 1_556
O25 Tm10 2.159722 1_565
O25 Tm3 2.324443 1_666
O25 Tm8 2.377268 1_565
O26 Sb9 1.986895 1_555
O26 Tm8 2.156966 1_554
O26 Sb8 2.737167 1_555
O26 Tm3 2.775563 1_555
O27 Tm9 2.251843 1_555
O27 Sb6 2.265539 1_555
O27 Tm11 2.304455 1_565
O27 Tm6 2.388939 1_555
O28 Sb10 2.022827 1_555
O28 Tm5 2.303508 1_555
O28 Tm7 2.346848 1_555
O28 Sb6 2.431298 1_555
O29 Sb9 1.967472 1_555
O29 Sb3 1.982518 1_545
O29 Sb5 2.679437 1_555
O30 Sb10 1.986877 1_555
O30 Tm9 2.156978 1_555
O30 Sb5 2.737174 1_555
O30 Tm11 2.775570 1_555
O31 Sb11 2.022827 1_555
O31 Tm10 2.303508 1_555
O31 Tm8 2.346848 1_555
O31 Sb7 2.431298 1_555
O32 Sb11 2.017850 1_555
O32 Tm2 2.258607 1_656
O32 Sb8 2.513544 1_556
O32 Tm8 2.603225 1_555
O33 Sb8 2.075282 1_555
O33 Tm1 2.159722 1_655
O33 Tm3 2.324443 1_665
O33 Tm2 2.377268 1_655
O34 Sb9 2.022823 1_555
O34 Tm1 2.303504 1_655
O34 Tm9 2.346848 1_555
O34 Sb0 2.431294 1_655
O35 Sb2 2.036963 1_555
O35 Sb6 2.303258 1_455
O35 Tm5 2.321623 1_565
O35 Tm0 2.504119 1_555
O36 Sb11 1.986877 1_555
O36 Tm7 2.156967 1_555
O36 Sb1 2.737166 1_655
O36 Tm0 2.775563 1_655
O37 Sb10 2.017850 1_555
O37 Tm4 2.258607 1_545
O37 Sb1 2.513544 1_655
O37 Tm7 2.603225 1_555
O38 Sb10 1.967477 1_555
O38 Sb2 1.982524 1_655
O38 Sb1 2.679437 1_655
O39 Sb3 2.036963 1_555
O39 Sb0 2.303258 1_665
O39 Tm1 2.321623 1_655
O39 Tm11 2.504100 1_565
O40 Tm8 2.251843 1_554
O40 Sb0 2.265539 1_655
O40 Tm3 2.304455 1_655
O40 Tm2 2.388939 1_655
O41 Sb1 2.075282 1_655
O41 Tm10 2.159704 1_555
O41 Tm0 2.324443 1_645
O41 Tm4 2.377268 1_545
