# generated using pymatgen
data_LiTeHO4
_symmetry_space_group_name_H-M   'P 1'
_cell_length_a   6.12976400
_cell_length_b   4.99681100
_cell_length_c   5.10785290
_cell_angle_alpha   79.09349674
_cell_angle_beta   90.00000000
_cell_angle_gamma   90.00000000
_symmetry_Int_Tables_number   1
_chemical_formula_structural   LiTeHO4
_chemical_formula_sum   'Li2 Te2 H2 O8'
_cell_volume   153.62390190
_cell_formula_units_Z   2
loop_
 _symmetry_equiv_pos_site_id
 _symmetry_equiv_pos_as_xyz
  1  'x, y, z'
loop_
 _atom_site_type_symbol
 _atom_site_label
 _atom_site_symmetry_multiplicity
 _atom_site_fract_x
 _atom_site_fract_y
 _atom_site_fract_z
 _atom_site_occupancy
  Li  Li0  1  0.24970500  0.61080200  0.61376100  1
  Li  Li1  1  0.75029500  0.61080200  0.61376100  1
  Te  Te0  1  0.50000000  0.99338000  0.00653600  1
  Te  Te1  1  0.00000000  0.99480700  0.00145100  1
  H  H0  1  0.00000000  0.06123700  0.45101100  1
  H  H1  1  0.50000000  0.04056200  0.46528300  1
  O  O0  1  0.00000000  0.20311900  0.28066500  1
  O  O1  1  0.50000000  0.18771700  0.29640000  1
  O  O2  1  0.25222100  0.22879700  0.83531900  1
  O  O3  1  0.74777900  0.22879700  0.83531900  1
  O  O4  1  0.75201100  0.76608800  0.18315700  1
  O  O5  1  0.24798900  0.76608800  0.18315700  1
  O  O6  1  0.00000000  0.81240900  0.71145500  1
  O  O7  1  0.50000000  0.80379800  0.72092100  1
loop_
_geom_bond_atom_site_label_1
_geom_bond_atom_site_label_2
_geom_bond_distance
_geom_bond_site_symmetry_2
Li0 O7 1.945062 1_555
Li0 O6 1.948566 1_555
Li0 O2 2.026587 1_555
Li0 O5 2.189521 1_555
Li1 O7 1.945062 1_555
Li1 O6 1.948566 1_655
Li1 O3 2.026587 1_555
Li1 O4 2.189521 1_555
H0 O0 1.013049 1_555
H0 O6 1.640038 1_545
H1 O1 1.022144 1_555
H1 O7 1.587476 1_545
O0 Te1 1.918130 1_545
O1 Te0 1.918112 1_545
O2 Te0 2.016467 1_546
O2 Te1 2.025330 1_546
O3 Te0 2.016467 1_546
O3 Te1 2.025330 1_646
O4 Te1 2.019137 1_655
O4 Te0 2.025428 1_555
O5 Te1 2.019137 1_555
O5 Te0 2.025428 1_555
O6 Te1 1.880334 1_556
O7 Te0 1.883796 1_556
