# generated using pymatgen
data_Li2FeF4
_symmetry_space_group_name_H-M   'P 1'
_cell_length_a   9.65245569
_cell_length_b   9.65245569
_cell_length_c   9.65245569
_cell_angle_alpha   100.84400970
_cell_angle_beta   100.84400970
_cell_angle_gamma   128.58892083
_symmetry_Int_Tables_number   1
_chemical_formula_structural   Li2FeF4
_chemical_formula_sum   'Li16 Fe8 F32'
_cell_volume   633.37736605
_cell_formula_units_Z   8
loop_
 _symmetry_equiv_pos_site_id
 _symmetry_equiv_pos_as_xyz
  1  'x, y, z'
loop_
 _atom_site_type_symbol
 _atom_site_label
 _atom_site_symmetry_multiplicity
 _atom_site_fract_x
 _atom_site_fract_y
 _atom_site_fract_z
 _atom_site_occupancy
  Li  Li0  1  0.76521000  0.37500000  0.89021000  1
  Li  Li1  1  0.38136300  0.88136300  0.76272600  1
  Li  Li2  1  0.13136300  0.86863700  0.00000000  1
  Li  Li3  1  0.12500000  0.51521000  0.89021000  1
  Li  Li4  1  0.62500000  0.23479000  0.10979000  1
  Li  Li5  1  0.11863700  0.61863700  0.23727400  1
  Li  Li6  1  0.86863700  0.13136300  0.00000000  1
  Li  Li7  1  0.48479000  0.87500000  0.10979000  1
  Li  Li8  1  0.76521000  0.87500000  0.39021000  1
  Li  Li9  1  0.13136300  0.13136300  0.26272600  1
  Li  Li10  1  0.38136300  0.61863700  0.50000000  1
  Li  Li11  1  0.12500000  0.23479000  0.60979000  1
  Li  Li12  1  0.62500000  0.51521000  0.39021000  1
  Li  Li13  1  0.86863700  0.86863700  0.73727400  1
  Li  Li14  1  0.11863700  0.88136300  0.50000000  1
  Li  Li15  1  0.48479000  0.37500000  0.60979000  1
  Fe  Fe0  1  0.46921600  0.10167900  0.36753700  1
  Fe  Fe1  1  0.51585800  0.64832100  0.86753700  1
  Fe  Fe2  1  0.35167900  0.48414200  0.13246300  1
  Fe  Fe3  1  0.89832100  0.53078400  0.63246300  1
  Fe  Fe4  1  0.35167900  0.21921600  0.86753700  1
  Fe  Fe5  1  0.89832100  0.26585800  0.36753700  1
  Fe  Fe6  1  0.73414200  0.10167900  0.63246300  1
  Fe  Fe7  1  0.78078400  0.64832100  0.13246300  1
  F  F0  1  0.51200100  0.14280300  0.88474200  1
  F  F1  1  0.99193900  0.60719700  0.86919900  1
  F  F2  1  0.85719700  0.48799900  0.11525800  1
  F  F3  1  0.87725900  0.26200100  0.86919900  1
  F  F4  1  0.39280300  0.00806100  0.13080100  1
  F  F5  1  0.37274100  0.74193900  0.88474200  1
  F  F6  1  0.75360200  0.88131100  0.87229200  1
  F  F7  1  0.24098100  0.86868900  0.37229200  1
  F  F8  1  0.73799900  0.12274100  0.13080100  1
  F  F9  1  0.25806100  0.62725900  0.11525800  1
  F  F10  1  0.27193400  0.39441600  0.87751800  1
  F  F11  1  0.73310200  0.35558400  0.37751800  1
  F  F12  1  0.64441600  0.26689800  0.62248200  1
  F  F13  1  0.11868900  0.99098100  0.87229200  1
  F  F14  1  0.60558400  0.48310200  0.87751800  1
  F  F15  1  0.60558400  0.72806600  0.12248200  1
  F  F16  1  0.11868900  0.24639800  0.12770800  1
  F  F17  1  0.64441600  0.02193400  0.37751800  1
  F  F18  1  0.13131100  0.50360200  0.37229200  1
  F  F19  1  0.13131100  0.75901900  0.62770800  1
  F  F20  1  0.51689800  0.39441600  0.12248200  1
  F  F21  1  0.97806600  0.35558400  0.62248200  1
  F  F22  1  0.51200100  0.62725900  0.36919900  1
  F  F23  1  0.99193900  0.12274100  0.38474200  1
  F  F24  1  0.00901900  0.88131100  0.12770800  1
  F  F25  1  0.49639800  0.86868900  0.62770800  1
  F  F26  1  0.85719700  0.74193900  0.36919900  1
  F  F27  1  0.87725900  0.00806100  0.61525800  1
  F  F28  1  0.39280300  0.26200100  0.38474200  1
  F  F29  1  0.37274100  0.48799900  0.63080100  1
  F  F30  1  0.25806100  0.14280300  0.63080100  1
  F  F31  1  0.73799900  0.60719700  0.61525800  1
loop_
_geom_bond_atom_site_label_1
_geom_bond_atom_site_label_2
_geom_bond_distance
_geom_bond_site_symmetry_2
F0 Li1 1.923206 1_545
F0 Li4 1.967594 1_556
F0 Li0 2.018217 1_555
F0 Fe4 2.083167 1_555
F1 Li2 1.923203 1_656
F1 Li3 1.967593 1_655
F1 Li0 2.018212 1_555
F1 Fe3 2.083176 1_555
F2 Li5 1.923206 1_655
F2 Li0 1.967594 1_554
F2 Li4 2.018217 1_555
F2 Fe7 2.083167 1_555
F3 Li6 1.923198 1_556
F3 Li0 1.967593 1_555
F3 Li3 2.018221 1_655
F3 Fe6 2.083175 1_555
F4 Li2 1.923203 1_545
F4 Li7 1.967593 1_545
F4 Li4 2.018212 1_555
F4 Fe0 2.083176 1_555
F5 Li1 1.923206 1_555
F5 Li7 1.967594 1_556
F5 Li3 2.018217 1_555
F5 Fe1 2.083167 1_555
F6 Li6 1.897442 1_566
F6 Li13 1.897452 1_555
F6 Fe1 1.951798 1_555
F7 Li5 1.897445 1_555
F7 Li14 1.897445 1_555
F7 Fe0 1.951802 1_565
F8 Li6 1.923198 1_555
F8 Li4 1.967593 1_555
F8 Li7 2.018221 1_545
F8 Fe5 2.083175 1_555
F9 Li5 1.923206 1_555
F9 Li3 1.967594 1_554
F9 Li7 2.018217 1_555
F9 Fe2 2.083167 1_555
F10 Fe1 2.129598 1_555
F10 Fe4 2.247677 1_555
F10 Fe2 2.247677 1_556
F10 Li11 2.336762 1_555
F10 Li3 2.336762 1_555
F11 Fe0 2.129598 1_555
F11 Fe5 2.247677 1_555
F11 Fe3 2.247677 1_555
F11 Li4 2.336762 1_555
F11 Li12 2.336762 1_555
F12 Fe3 2.129598 1_555
F12 Fe6 2.247677 1_555
F12 Fe0 2.247677 1_555
F12 Li0 2.336762 1_555
F12 Li15 2.336762 1_555
F13 Li13 1.897445 1_455
F13 Li2 1.897445 1_556
F13 Fe4 1.951802 1_565
F14 Fe4 2.129598 1_555
F14 Fe1 2.247677 1_555
F14 Fe7 2.247677 1_556
F14 Li15 2.336762 1_555
F14 Li0 2.336762 1_555
F15 Fe2 2.129598 1_555
F15 Fe7 2.247677 1_555
F15 Fe1 2.247677 1_554
F15 Li7 2.336762 1_555
F15 Li8 2.336762 1_555
F16 Li6 1.897442 1_455
F16 Li9 1.897452 1_555
F16 Fe2 1.951798 1_555
F17 Fe5 2.129598 1_555
F17 Fe0 2.247677 1_555
F17 Fe6 2.247677 1_555
F17 Li7 2.336762 1_545
F17 Li8 2.336762 1_545
F18 Li10 1.897442 1_555
F18 Li5 1.897452 1_555
F18 Fe5 1.951798 1_455
F19 Li14 1.897445 1_555
F19 Li1 1.897445 1_555
F19 Fe3 1.951802 1_455
F20 Fe7 2.129598 1_555
F20 Fe4 2.247677 1_554
F20 Fe2 2.247677 1_555
F20 Li4 2.336762 1_555
F20 Li12 2.336762 1_555
F21 Fe6 2.129598 1_555
F21 Fe3 2.247677 1_555
F21 Fe5 2.247677 1_555
F21 Li11 2.336762 1_655
F21 Li3 2.336762 1_655
F22 Li10 1.923198 1_555
F22 Li12 1.967593 1_555
F22 Li8 2.018221 1_555
F22 Fe2 2.083175 1_555
F23 Li9 1.923206 1_655
F23 Li11 1.967594 1_655
F23 Li8 2.018217 1_545
F23 Fe5 2.083167 1_555
F24 Li2 1.897445 1_555
F24 Li9 1.897445 1_565
F24 Fe7 1.951802 1_455
F25 Li10 1.897442 1_555
F25 Li1 1.897452 1_555
F25 Fe6 1.951798 1_565
F26 Li14 1.923203 1_655
F26 Li8 1.967593 1_555
F26 Li12 2.018212 1_555
F26 Fe7 2.083176 1_555
F27 Li13 1.923206 1_545
F27 Li8 1.967594 1_545
F27 Li11 2.018217 1_655
F27 Fe6 2.083167 1_555
F28 Li9 1.923206 1_555
F28 Li15 1.967594 1_555
F28 Li12 2.018217 1_555
F28 Fe0 2.083167 1_555
F29 Li10 1.923198 1_555
F29 Li15 1.967593 1_555
F29 Li11 2.018221 1_555
F29 Fe1 2.083175 1_555
F30 Li14 1.923203 1_545
F30 Li11 1.967593 1_555
F30 Li15 2.018212 1_555
F30 Fe4 2.083176 1_555
F31 Li13 1.923206 1_555
F31 Li12 1.967594 1_555
F31 Li15 2.018217 1_555
F31 Fe3 2.083167 1_555
