# generated using pymatgen
data_Sr2Zr7O16
_symmetry_space_group_name_H-M   'P 1'
_cell_length_a   9.68912657
_cell_length_b   9.68912657
_cell_length_c   9.68912561
_cell_angle_alpha   38.68407952
_cell_angle_beta   38.68407954
_cell_angle_gamma   38.68408016
_symmetry_Int_Tables_number   1
_chemical_formula_structural   Sr2Zr7O16
_chemical_formula_sum   'Sr2 Zr7 O16'
_cell_volume   319.37784021
_cell_formula_units_Z   1
loop_
 _symmetry_equiv_pos_site_id
 _symmetry_equiv_pos_as_xyz
  1  'x, y, z'
loop_
 _atom_site_type_symbol
 _atom_site_label
 _atom_site_symmetry_multiplicity
 _atom_site_fract_x
 _atom_site_fract_y
 _atom_site_fract_z
 _atom_site_occupancy
  Sr  Sr0  1  0.33354491  0.33354491  0.33354491  1
  Sr  Sr1  1  0.66645509  0.66645509  0.66645509  1
  Zr  Zr0  1  0.48647479  0.74529068  0.11343119  1
  Zr  Zr1  1  0.25470932  0.88656881  0.51352521  1
  Zr  Zr2  1  0.88656881  0.51352521  0.25470932  1
  Zr  Zr3  1  -0.00000000  -0.00000000  0.00000000  1
  Zr  Zr4  1  0.11343119  0.48647479  0.74529068  1
  Zr  Zr5  1  0.74529068  0.11343119  0.48647479  1
  Zr  Zr6  1  0.51352521  0.25470932  0.88656881  1
  O  O0  1  0.32242199  0.76812438  0.03643617  1
  O  O1  1  0.58711693  0.84999943  0.15272306  1
  O  O2  1  0.15000057  0.84727694  0.41288307  1
  O  O3  1  0.23187562  0.96356383  0.67757801  1
  O  O4  1  0.96356383  0.67757801  0.23187562  1
  O  O5  1  0.84727694  0.41288307  0.15000057  1
  O  O6  1  0.76336132  0.76336132  0.76336132  1
  O  O7  1  0.57160788  0.57160788  0.57160788  1
  O  O8  1  0.23663868  0.23663868  0.23663868  1
  O  O9  1  0.42839212  0.42839212  0.42839212  1
  O  O10  1  0.15272306  0.58711693  0.84999943  1
  O  O11  1  0.03643617  0.32242199  0.76812438  1
  O  O12  1  0.76812438  0.03643617  0.32242199  1
  O  O13  1  0.84999943  0.15272306  0.58711693  1
  O  O14  1  0.41288307  0.15000057  0.84727694  1
  O  O15  1  0.67757801  0.23187562  0.96356383  1
loop_
_geom_bond_atom_site_label_1
_geom_bond_atom_site_label_2
_geom_bond_distance
_geom_bond_site_symmetry_2
O0 Zr0 2.043694 1_555
O0 Zr3 2.111291 1_565
O0 Sr1 2.581393 1_554
O0 Sr0 2.623059 1_555
O1 Zr2 2.168478 1_555
O1 Zr0 2.202771 1_555
O1 Zr6 2.292027 1_564
O1 Zr1 2.300845 1_555
O2 Zr0 2.168477 1_555
O2 Zr1 2.202771 1_555
O2 Zr5 2.292027 1_465
O2 Zr4 2.300845 1_555
O3 Zr1 2.043694 1_555
O3 Zr3 2.111291 1_566
O3 Sr0 2.581394 1_565
O3 Sr1 2.623059 1_555
O4 Zr2 2.043695 1_555
O4 Zr3 2.111291 1_665
O4 Sr0 2.581394 1_655
O4 Sr1 2.623059 1_555
O5 Zr5 2.168478 1_555
O5 Zr2 2.202771 1_555
O5 Zr4 2.292027 1_654
O5 Zr0 2.300846 1_555
O6 Zr0 2.081463 1_556
O6 Zr5 2.081463 1_565
O6 Zr4 2.081463 1_655
O6 Sr1 2.602672 1_555
O7 Zr2 2.108340 1_555
O7 Zr6 2.108340 1_555
O7 Zr1 2.108340 1_555
O7 Sr1 2.547371 1_555
O8 Zr6 2.081463 1_554
O8 Zr1 2.081463 1_545
O8 Zr2 2.081463 1_455
O8 Sr0 2.602672 1_555
O9 Zr4 2.108340 1_555
O9 Zr0 2.108340 1_555
O9 Zr5 2.108340 1_555
O9 Sr0 2.547371 1_555
O10 Zr1 2.168478 1_555
O10 Zr4 2.202771 1_555
O10 Zr2 2.292027 1_456
O10 Zr6 2.300846 1_555
O11 Zr4 2.043695 1_555
O11 Zr3 2.111291 1_556
O11 Sr1 2.581394 1_455
O11 Sr0 2.623059 1_555
O12 Zr5 2.043694 1_555
O12 Zr3 2.111291 1_655
O12 Sr1 2.581394 1_545
O12 Sr0 2.623059 1_555
O13 Zr6 2.168477 1_555
O13 Zr5 2.202771 1_555
O13 Zr1 2.292027 1_645
O13 Zr2 2.300845 1_555
O14 Zr4 2.168478 1_555
O14 Zr6 2.202771 1_555
O14 Zr0 2.292027 1_546
O14 Zr5 2.300845 1_555
O15 Zr6 2.043694 1_555
O15 Zr3 2.111291 1_656
O15 Sr0 2.581393 1_556
O15 Sr1 2.623059 1_555
