# generated using pymatgen
data_Rb2NaZn2H5(C2O7)2
_symmetry_space_group_name_H-M   'P 1'
_cell_length_a   11.21091301
_cell_length_b   5.19775818
_cell_length_c   11.66692121
_cell_angle_alpha   65.52633661
_cell_angle_beta   90.00000000
_cell_angle_gamma   90.00000000
_symmetry_Int_Tables_number   1
_chemical_formula_structural   Rb2NaZn2H5(C2O7)2
_chemical_formula_sum   'Rb4 Na2 Zn4 H10 C8 O28'
_cell_volume   618.76700464
_cell_formula_units_Z   2
loop_
 _symmetry_equiv_pos_site_id
 _symmetry_equiv_pos_as_xyz
  1  'x, y, z'
loop_
 _atom_site_type_symbol
 _atom_site_label
 _atom_site_symmetry_multiplicity
 _atom_site_fract_x
 _atom_site_fract_y
 _atom_site_fract_z
 _atom_site_occupancy
  Rb  Rb0  1  0.83389561  0.04113441  0.92549231  1
  Rb  Rb1  1  0.33389561  0.95886559  0.57450769  1
  Rb  Rb2  1  0.66610439  0.04113441  0.42549231  1
  Rb  Rb3  1  0.16610439  0.95886559  0.07450769  1
  Na  Na0  1  0.50000000  0.00000000  -0.00000000  1
  Na  Na1  1  0.00000000  0.00000000  0.50000000  1
  Zn  Zn0  1  0.60377261  0.66853695  0.79515554  1
  Zn  Zn1  1  0.10377261  0.33146305  0.70484446  1
  Zn  Zn2  1  0.89622739  0.66853695  0.29515554  1
  Zn  Zn3  1  0.39622739  0.33146305  0.20484446  1
  H  H0  1  0.00000000  0.50000000  -0.00000000  1
  H  H1  1  0.30204638  0.05778018  0.81946829  1
  H  H2  1  0.33040216  0.37920754  0.77602284  1
  H  H3  1  0.83040216  0.62079246  0.72397716  1
  H  H4  1  0.80204638  0.94221982  0.68053171  1
  H  H5  1  0.50000000  0.50000000  0.50000000  1
  H  H6  1  0.19795362  0.05778018  0.31946829  1
  H  H7  1  0.16959784  0.37920754  0.27602284  1
  H  H8  1  0.66959784  0.62079246  0.22397716  1
  H  H9  1  0.69795362  0.94221982  0.18053171  1
  C  C0  1  0.37648260  0.57065570  0.93467509  1
  C  C1  1  0.07167696  0.71310314  0.81774160  1
  C  C2  1  0.57167696  0.28689686  0.68225840  1
  C  C3  1  0.87648260  0.42934430  0.56532491  1
  C  C4  1  0.12351740  0.57065570  0.43467509  1
  C  C5  1  0.42832304  0.71310314  0.31774160  1
  C  C6  1  0.92832304  0.28689686  0.18225840  1
  C  C7  1  0.62351740  0.42934430  0.06532491  1
  O  O0  1  0.61617500  0.66770279  0.96583659  1
  O  O1  1  0.33807599  0.79192741  0.94409112  1
  O  O2  1  0.04037399  0.47407097  0.90934036  1
  O  O3  1  0.41067340  0.57564623  0.82759440  1
  O  O4  1  0.06250047  0.94281900  0.83294695  1
  O  O5  1  0.61088196  0.29171310  0.78475582  1
  O  O6  1  0.78400033  0.75114187  0.74963906  1
  O  O7  1  0.28400033  0.24885813  0.75036094  1
  O  O8  1  0.11088196  0.70828690  0.71524418  1
  O  O9  1  0.91067340  0.42435377  0.67240560  1
  O  O10  1  0.56250047  0.05718100  0.66705305  1
  O  O11  1  0.54037399  0.52592903  0.59065964  1
  O  O12  1  0.83807599  0.20807259  0.55590888  1
  O  O13  1  0.11617500  0.33229721  0.53416341  1
  O  O14  1  0.88382500  0.66770279  0.46583659  1
  O  O15  1  0.16192401  0.79192741  0.44409112  1
  O  O16  1  0.45962601  0.47407097  0.40934036  1
  O  O17  1  0.43749953  0.94281900  0.33294695  1
  O  O18  1  0.08932660  0.57564623  0.32759440  1
  O  O19  1  0.88911804  0.29171310  0.28475582  1
  O  O20  1  0.71599967  0.75114187  0.24963906  1
  O  O21  1  0.21599967  0.24885813  0.25036094  1
  O  O22  1  0.38911804  0.70828690  0.21524418  1
  O  O23  1  0.93749953  0.05718100  0.16705305  1
  O  O24  1  0.58932660  0.42435377  0.17240560  1
  O  O25  1  0.95962601  0.52592903  0.09065964  1
  O  O26  1  0.66192401  0.20807259  0.05590888  1
  O  O27  1  0.38382500  0.33229721  0.03416341  1
loop_
_geom_bond_atom_site_label_1
_geom_bond_atom_site_label_2
_geom_bond_distance
_geom_bond_site_symmetry_2
Na0 O27 2.325684 1_555
Na0 O0 2.325684 1_544
Na0 O26 2.339875 1_555
Na0 O1 2.339875 1_544
Na0 O5 2.644950 1_554
Na0 O22 2.644950 1_545
Na1 O13 2.325684 1_555
Na1 O14 2.325684 1_445
Na1 O15 2.339875 1_545
Na1 O12 2.339875 1_455
Na1 O8 2.644950 1_545
Na1 O19 2.644950 1_455
H0 O25 1.208270 1_455
H0 O2 1.208270 1_554
H1 O7 1.006939 1_555
H1 O1 1.588071 1_545
H2 O7 0.993661 1_555
H2 O3 1.650273 1_555
H2 Rb1 2.955950 1_555
H3 O6 0.993661 1_555
H3 O9 1.650273 1_555
H3 Rb0 2.955950 1_555
H4 O6 1.006939 1_555
H4 O12 1.588071 1_565
H5 O16 1.208270 1_555
H5 O11 1.208270 1_555
H6 O21 1.006939 1_555
H6 O15 1.588071 1_545
H7 O21 0.993661 1_555
H7 O18 1.650273 1_555
H7 Rb3 2.955950 1_555
H8 O20 0.993661 1_555
H8 O24 1.650273 1_555
H8 Rb2 2.955950 1_555
H9 O20 1.006939 1_555
H9 O26 1.588071 1_565
C0 O1 1.274722 1_555
C0 O3 1.296728 1_555
C0 O27 1.302881 1_556
C1 O4 1.281877 1_555
C1 O8 1.283986 1_555
C1 O2 1.307190 1_555
C2 O10 1.281877 1_555
C2 O5 1.283986 1_555
C2 O11 1.307190 1_555
C3 O12 1.274722 1_555
C3 O9 1.296728 1_555
C3 O14 1.302881 1_555
C4 O15 1.274722 1_555
C4 O18 1.296728 1_555
C4 O13 1.302881 1_555
C5 O17 1.281877 1_555
C5 O22 1.283986 1_555
C5 O16 1.307190 1_555
C6 O23 1.281877 1_555
C6 O19 1.283986 1_555
C6 O25 1.307190 1_555
C7 O26 1.274722 1_555
C7 O24 1.296728 1_555
C7 O0 1.302881 1_554
O0 Zn0 1.994383 1_555
O0 Rb0 3.031471 1_565
O1 Rb3 2.806953 1_556
O2 Rb3 2.931856 1_546
O2 Rb0 3.179050 1_455
O3 Zn0 2.216166 1_555
O3 Rb1 2.924730 1_555
O4 Zn1 2.006743 1_565
O4 Rb0 2.907300 1_465
O4 Rb3 3.081141 1_556
O5 Zn0 2.013515 1_555
O5 Rb0 2.978495 1_555
O6 Zn0 2.088044 1_555
O6 Rb0 3.058841 1_565
O7 Zn1 2.088044 1_555
O7 Rb1 3.058841 1_545
O8 Zn1 2.013515 1_555
O8 Rb1 2.978495 1_555
O9 Zn1 2.216166 1_655
O9 Rb0 2.924730 1_555
O10 Zn0 2.006743 1_545
O10 Rb1 2.907300 1_545
O10 Rb2 3.081141 1_555
O11 Rb2 2.931856 1_565
O11 Rb1 3.179050 1_555
O12 Rb2 2.806953 1_555
O13 Zn1 1.994383 1_555
O13 Rb1 3.031471 1_545
O14 Zn2 1.994383 1_555
O14 Rb2 3.031471 1_565
O15 Rb1 2.806953 1_555
O16 Rb1 2.931856 1_545
O16 Rb2 3.179050 1_555
O17 Zn3 2.006743 1_565
O17 Rb2 2.907300 1_565
O17 Rb1 3.081141 1_555
O18 Zn2 2.216166 1_455
O18 Rb3 2.924730 1_555
O19 Zn2 2.013515 1_555
O19 Rb2 2.978495 1_555
O20 Zn2 2.088044 1_555
O20 Rb2 3.058841 1_565
O21 Zn3 2.088044 1_555
O21 Rb3 3.058841 1_545
O22 Zn3 2.013515 1_555
O22 Rb3 2.978495 1_555
O23 Zn2 2.006743 1_545
O23 Rb3 2.907300 1_645
O23 Rb0 3.081141 1_554
O24 Zn3 2.216166 1_555
O24 Rb2 2.924730 1_555
O25 Rb0 2.931856 1_564
O25 Rb3 3.179050 1_655
O26 Rb0 2.806953 1_554
O27 Zn3 1.994383 1_555
O27 Rb3 3.031471 1_545
