# generated using pymatgen
data_Mn3VSb2(PO4)6
_symmetry_space_group_name_H-M   'P 1'
_cell_length_a   8.90960229
_cell_length_b   8.75118259
_cell_length_c   8.75118263
_cell_angle_alpha   59.99999896
_cell_angle_beta   60.58646386
_cell_angle_gamma   60.58646519
_symmetry_Int_Tables_number   1
_chemical_formula_structural   Mn3VSb2(PO4)6
_chemical_formula_sum   'Mn3 V1 Sb2 P6 O24'
_cell_volume   486.70995204
_cell_formula_units_Z   1
loop_
 _symmetry_equiv_pos_site_id
 _symmetry_equiv_pos_as_xyz
  1  'x, y, z'
loop_
 _atom_site_type_symbol
 _atom_site_label
 _atom_site_symmetry_multiplicity
 _atom_site_fract_x
 _atom_site_fract_y
 _atom_site_fract_z
 _atom_site_occupancy
  Mn  Mn0  1  0.04778700  0.65073700  0.65073700  1
  Mn  Mn1  1  0.46339400  0.84553600  0.84553600  1
  Mn  Mn2  1  0.94061600  0.35312800  0.35312800  1
  V  V0  1  0.56365600  0.14544800  0.14544800  1
  Sb  Sb0  1  0.03935900  0.98688100  0.98688100  1
  Sb  Sb1  1  0.49816800  0.50061100  0.50061100  1
  P  P0  1  0.25037900  0.24922000  0.53707500  1
  P  P1  1  0.25037900  0.96332600  0.24922000  1
  P  P2  1  0.25037900  0.53707500  0.96332600  1
  P  P3  1  0.74690900  0.45168500  0.04861700  1
  P  P4  1  0.74690900  0.04861700  0.75278900  1
  P  P5  1  0.74690900  0.75278900  0.45168500  1
  O  O0  1  0.07286200  0.11093900  0.30834600  1
  O  O1  1  0.07286200  0.50785400  0.11093900  1
  O  O2  1  0.07286200  0.30834600  0.50785400  1
  O  O3  1  0.24254200  0.08210500  0.73271600  1
  O  O4  1  0.42307200  0.17986800  0.38542900  1
  O  O5  1  0.27089900  0.40726100  0.55212200  1
  O  O6  1  0.24254200  0.94263800  0.08210500  1
  O  O7  1  0.27089900  0.76971800  0.40726100  1
  O  O8  1  0.57236900  0.61293800  0.02179500  1
  O  O9  1  0.27089900  0.55212200  0.76971800  1
  O  O10  1  0.73640600  0.26400100  0.07798600  1
  O  O11  1  0.57236900  0.02179500  0.79289800  1
  O  O12  1  0.42307200  0.01163000  0.17986800  1
  O  O13  1  0.24254200  0.73271600  0.94263800  1
  O  O14  1  0.74313500  0.42654100  0.24168800  1
  O  O15  1  0.42307200  0.38542900  0.01163000  1
  O  O16  1  0.74313500  0.24168800  0.58863500  1
  O  O17  1  0.73640600  0.07798600  0.92160700  1
  O  O18  1  0.74313500  0.58863500  0.42654100  1
  O  O19  1  0.57236900  0.79289800  0.61293800  1
  O  O20  1  0.73640600  0.92160700  0.26400100  1
  O  O21  1  0.92376700  0.70925300  0.47242200  1
  O  O22  1  0.92376700  0.47242200  0.89455800  1
  O  O23  1  0.92376700  0.89455800  0.70925300  1
loop_
_geom_bond_atom_site_label_1
_geom_bond_atom_site_label_2
_geom_bond_distance
_geom_bond_site_symmetry_2
Mn0 O21 2.063247 1_455
Mn0 O22 2.063253 1_455
Mn0 O23 2.063262 1_455
Mn0 O5 2.286870 1_555
Mn0 O7 2.286877 1_555
Mn0 O9 2.286882 1_555
Mn1 O11 1.963487 1_565
Mn1 O8 1.963494 1_556
Mn1 O19 1.963503 1_555
Mn1 O6 2.235077 1_556
Mn1 O3 2.235081 1_565
Mn1 O13 2.235083 1_555
Mn2 O0 1.989500 1_655
Mn2 O1 1.989504 1_655
Mn2 O2 1.989508 1_655
Mn2 O18 2.099554 1_555
Mn2 O16 2.099557 1_555
Mn2 O14 2.099560 1_555
O0 P1 1.515170 1_545
O1 P2 1.515168 1_554
O2 P0 1.515166 1_555
O3 P0 1.598101 1_555
O3 Sb0 2.142919 1_545
O4 P0 1.542562 1_555
O4 V0 1.936075 1_555
O5 P0 1.554897 1_555
O5 Sb1 2.308819 1_555
O6 P1 1.598095 1_555
O6 Sb0 2.142915 1_554
O7 P1 1.554897 1_555
O7 Sb1 2.308815 1_555
O8 P3 1.528589 1_555
O9 P2 1.554897 1_555
O9 Sb1 2.308813 1_555
O10 P3 1.574066 1_555
O10 V0 1.963990 1_555
O10 Sb0 2.681939 1_644
O11 P4 1.528589 1_555
O12 P1 1.542557 1_545
O12 V0 1.936082 1_555
O13 P2 1.598104 1_555
O13 Sb0 2.142922 1_555
O14 P3 1.576065 1_555
O14 Sb1 2.353641 1_555
O15 P2 1.542559 1_554
O15 V0 1.936078 1_555
O16 P4 1.576068 1_555
O16 Sb1 2.353636 1_555
O17 P4 1.574066 1_555
O17 V0 1.963990 1_556
O17 Sb0 2.681948 1_645
O18 P5 1.576074 1_555
O18 Sb1 2.353630 1_555
O19 P5 1.528589 1_555
O20 P5 1.574066 1_555
O20 V0 1.963990 1_565
O20 Sb0 2.681943 1_654
O21 P5 1.510989 1_555
O22 P3 1.510989 1_556
O23 P4 1.510989 1_565
