# generated using pymatgen
data_Li6Cu5F14
_symmetry_space_group_name_H-M   'P 1'
_cell_length_a   7.86123793
_cell_length_b   7.86123735
_cell_length_c   9.86761771
_cell_angle_alpha   90.00000000
_cell_angle_beta   90.00000000
_cell_angle_gamma   92.21553772
_symmetry_Int_Tables_number   1
_chemical_formula_structural   Li6Cu5F14
_chemical_formula_sum   'Li12 Cu10 F28'
_cell_volume   609.35362015
_cell_formula_units_Z   2
loop_
 _symmetry_equiv_pos_site_id
 _symmetry_equiv_pos_as_xyz
  1  'x, y, z'
loop_
 _atom_site_type_symbol
 _atom_site_label
 _atom_site_symmetry_multiplicity
 _atom_site_fract_x
 _atom_site_fract_y
 _atom_site_fract_z
 _atom_site_occupancy
  Li  Li0  1  0.01050279  0.01050279  0.96058785  1
  Li  Li1  1  0.17628726  0.66615800  0.47136661  1
  Li  Li2  1  0.20537311  0.50007481  0.01213870  1
  Li  Li3  1  0.31623236  0.31623236  0.44901003  1
  Li  Li4  1  0.33384200  0.82371274  0.97136661  1
  Li  Li5  1  0.49992519  0.79462689  0.51213870  1
  Li  Li6  1  0.50007481  0.20537311  0.01213870  1
  Li  Li7  1  0.66615800  0.17628726  0.47136661  1
  Li  Li8  1  0.68376764  0.68376764  0.94901003  1
  Li  Li9  1  0.79462689  0.49992519  0.51213870  1
  Li  Li10  1  0.82371274  0.33384200  0.97136661  1
  Li  Li11  1  0.98949721  0.98949721  0.46058785  1
  Cu  Cu0  1  0.01471729  0.37284182  0.71172352  1
  Cu  Cu1  1  0.04322412  0.75629346  0.74731070  1
  Cu  Cu2  1  0.24370654  0.95677588  0.24731070  1
  Cu  Cu3  1  0.37284182  0.01471729  0.71172352  1
  Cu  Cu4  1  0.48858062  0.48858062  0.73848867  1
  Cu  Cu5  1  0.51141938  0.51141938  0.23848867  1
  Cu  Cu6  1  0.62715818  0.98528271  0.21172352  1
  Cu  Cu7  1  0.75629346  0.04322412  0.74731070  1
  Cu  Cu8  1  0.95677588  0.24370654  0.24731070  1
  Cu  Cu9  1  0.98528271  0.62715818  0.21172352  1
  F  F0  1  0.00611376  0.57954719  0.59020310  1
  F  F1  1  0.04833517  0.79908237  0.35161947  1
  F  F2  1  0.06171773  0.06171773  0.14041354  1
  F  F3  1  0.13294425  0.54650302  0.83154318  1
  F  F4  1  0.14989024  0.14989024  0.39139362  1
  F  F5  1  0.16842898  0.72176239  0.08924234  1
  F  F6  1  0.20091763  0.95166483  0.85161947  1
  F  F7  1  0.27823761  0.83157102  0.58924234  1
  F  F8  1  0.29021986  0.52588335  0.35922798  1
  F  F9  1  0.32474262  0.32474262  0.64912609  1
  F  F10  1  0.42045281  0.99388624  0.09020310  1
  F  F11  1  0.40748096  0.40748096  0.06634603  1
  F  F12  1  0.45349698  0.86705575  0.33154318  1
  F  F13  1  0.47411665  0.70978014  0.85922798  1
  F  F14  1  0.52588335  0.29021986  0.35922798  1
  F  F15  1  0.54650302  0.13294425  0.83154318  1
  F  F16  1  0.59251904  0.59251904  0.56634603  1
  F  F17  1  0.57954719  0.00611376  0.59020310  1
  F  F18  1  0.67525738  0.67525738  0.14912609  1
  F  F19  1  0.70978014  0.47411665  0.85922798  1
  F  F20  1  0.72176239  0.16842898  0.08924234  1
  F  F21  1  0.79908237  0.04833517  0.35161947  1
  F  F22  1  0.83157102  0.27823761  0.58924234  1
  F  F23  1  0.85010976  0.85010976  0.89139362  1
  F  F24  1  0.86705575  0.45349698  0.33154318  1
  F  F25  1  0.93828227  0.93828227  0.64041354  1
  F  F26  1  0.95166483  0.20091763  0.85161947  1
  F  F27  1  0.99388624  0.42045281  0.09020310  1
loop_
_geom_bond_atom_site_label_1
_geom_bond_atom_site_label_2
_geom_bond_distance
_geom_bond_site_symmetry_2
Cu0 F26 1.981454 1_455
Cu0 F22 2.000979 1_455
Cu0 F3 2.006830 1_555
Cu0 F0 2.022733 1_555
Cu0 F9 2.556487 1_555
Cu1 F25 1.982741 1_455
Cu1 F3 1.999538 1_555
Cu1 F0 2.094680 1_555
Cu1 F6 2.192680 1_555
Cu1 F23 2.226334 1_455
Cu1 F7 2.472197 1_555
Cu2 F2 1.982741 1_565
Cu2 F12 1.999538 1_555
Cu2 F10 2.094680 1_555
Cu2 F1 2.192680 1_555
Cu2 F4 2.226334 1_565
Cu2 F5 2.472197 1_555
Cu3 F6 1.981454 1_545
Cu3 F7 2.000979 1_545
Cu3 F15 2.006830 1_555
Cu3 F17 2.022733 1_555
Cu3 F9 2.556487 1_555
Cu4 F9 1.991742 1_555
Cu4 F16 2.041814 1_555
Cu4 F13 2.114581 1_555
Cu4 F19 2.114581 1_555
Cu5 F18 1.991742 1_555
Cu5 F11 2.041814 1_555
Cu5 F14 2.114581 1_555
Cu5 F8 2.114581 1_555
Cu6 F21 1.981454 1_565
Cu6 F20 2.000979 1_565
Cu6 F12 2.006830 1_555
Cu6 F10 2.022733 1_555
Cu6 F18 2.556487 1_555
Cu7 F25 1.982741 1_545
Cu7 F15 1.999538 1_555
Cu7 F17 2.094680 1_555
Cu7 F26 2.192680 1_555
Cu7 F23 2.226334 1_545
Cu7 F22 2.472197 1_555
Cu8 F2 1.982741 1_655
Cu8 F24 1.999538 1_555
Cu8 F27 2.094680 1_555
Cu8 F21 2.192680 1_555
Cu8 F4 2.226334 1_655
Cu8 F20 2.472197 1_555
Cu9 F1 1.981454 1_655
Cu9 F5 2.000979 1_655
Cu9 F24 2.006830 1_555
Cu9 F27 2.022733 1_555
Cu9 F18 2.556487 1_555
F0 Li1 1.886230 1_555
F0 Li9 1.915404 1_455
F1 Li1 1.892398 1_555
F1 Li11 1.914250 1_455
F2 Li0 1.860198 1_554
F3 Li2 1.910280 1_556
F4 Li11 1.876951 1_445
F4 Li3 1.900249 1_555
F5 Li4 1.898839 1_554
F5 Li2 1.933774 1_555
F6 Li4 1.892398 1_555
F6 Li0 1.914250 1_565
F7 Li1 1.898839 1_555
F7 Li5 1.933774 1_555
F8 Li1 1.821814 1_555
F8 Li3 1.889191 1_555
F9 Li3 1.976847 1_555
F10 Li4 1.886230 1_554
F10 Li6 1.915403 1_565
F11 Li6 1.851949 1_555
F11 Li2 1.851950 1_555
F12 Li5 1.910280 1_555
F13 Li4 1.821814 1_555
F13 Li8 1.889191 1_555
F14 Li7 1.821814 1_555
F14 Li3 1.889191 1_555
F15 Li6 1.910280 1_556
F16 Li5 1.851949 1_555
F16 Li9 1.851950 1_555
F17 Li7 1.886230 1_555
F17 Li5 1.915403 1_545
F18 Li8 1.976847 1_554
F19 Li10 1.821814 1_555
F19 Li8 1.889191 1_555
F20 Li10 1.898839 1_554
F20 Li6 1.933774 1_555
F21 Li7 1.892398 1_555
F21 Li11 1.914250 1_545
F22 Li7 1.898839 1_555
F22 Li9 1.933774 1_555
F23 Li0 1.876951 1_665
F23 Li8 1.900249 1_555
F24 Li9 1.910280 1_555
F25 Li11 1.860198 1_555
F26 Li10 1.892398 1_555
F26 Li0 1.914250 1_655
F27 Li10 1.886230 1_554
F27 Li2 1.915404 1_655
