# generated using pymatgen
data_CrNi3(PO4)4
_symmetry_space_group_name_H-M   'P 1'
_cell_length_a   5.76194200
_cell_length_b   4.77721500
_cell_length_c   9.92484272
_cell_angle_alpha   89.90474024
_cell_angle_beta   90.00000000
_cell_angle_gamma   90.00000000
_symmetry_Int_Tables_number   1
_chemical_formula_structural   CrNi3(PO4)4
_chemical_formula_sum   'Cr1 Ni3 P4 O16'
_cell_volume   273.19119788
_cell_formula_units_Z   1
loop_
 _symmetry_equiv_pos_site_id
 _symmetry_equiv_pos_as_xyz
  1  'x, y, z'
loop_
 _atom_site_type_symbol
 _atom_site_label
 _atom_site_symmetry_multiplicity
 _atom_site_fract_x
 _atom_site_fract_y
 _atom_site_fract_z
 _atom_site_occupancy
  Cr  Cr0  1  0.50000000  0.96899500  0.72856900  1
  Ni  Ni0  1  0.00000000  0.03922700  0.27300600  1
  Ni  Ni1  1  0.00000000  0.45760400  0.77237500  1
  Ni  Ni2  1  0.50000000  0.54133800  0.22890900  1
  P  P0  1  0.50000000  0.09232400  0.40461200  1
  P  P1  1  0.50000000  0.40089500  0.90702300  1
  P  P2  1  0.00000000  0.59144800  0.09616500  1
  P  P3  1  0.00000000  0.91784800  0.59121200  1
  O  O0  1  0.50000000  0.16640700  0.55619300  1
  O  O1  1  0.29186000  0.24037600  0.33225900  1
  O  O2  1  0.70814000  0.24037600  0.33225900  1
  O  O3  1  0.00000000  0.23408300  0.60504300  1
  O  O4  1  0.00000000  0.27213800  0.10884600  1
  O  O5  1  0.29618200  0.24638900  0.82966400  1
  O  O6  1  0.70381800  0.24638900  0.82966400  1
  O  O7  1  0.50000000  0.33291700  0.05612500  1
  O  O8  1  0.00000000  0.66243000  0.94596300  1
  O  O9  1  0.79288500  0.74050400  0.17004900  1
  O  O10  1  0.20711500  0.74050400  0.17004900  1
  O  O11  1  0.50000000  0.71749200  0.88408000  1
  O  O12  1  0.50000000  0.77375600  0.39392200  1
  O  O13  1  0.78949800  0.77640800  0.66966000  1
  O  O14  1  0.21050200  0.77640800  0.66966000  1
  O  O15  1  0.00000000  0.82374000  0.44469300  1
loop_
_geom_bond_atom_site_label_1
_geom_bond_atom_site_label_2
_geom_bond_distance
_geom_bond_site_symmetry_2
Cr0 O0 1.952149 1_565
Cr0 O11 1.954367 1_555
Cr0 O14 1.993121 1_555
Cr0 O13 1.993121 1_555
Cr0 O5 2.036271 1_565
Cr0 O6 2.036271 1_565
Ni0 O4 1.971419 1_555
Ni0 O15 1.989319 1_545
Ni0 O1 2.024636 1_555
Ni0 O2 2.024636 1_455
Ni0 O10 2.123598 1_545
Ni0 O9 2.123598 1_445
Ni1 O3 1.975900 1_555
Ni1 O8 1.982730 1_555
Ni1 O6 2.062020 1_455
Ni1 O5 2.062020 1_555
Ni1 O13 2.196524 1_455
Ni1 O14 2.196524 1_555
Ni2 O12 1.980149 1_555
Ni2 O7 1.984380 1_555
Ni2 O9 2.023026 1_555
Ni2 O10 2.023026 1_555
Ni2 O2 2.133700 1_555
Ni2 O1 2.133700 1_555
O0 P0 1.546058 1_555
O1 P0 1.566048 1_555
O2 P0 1.566048 1_555
O3 P3 1.517174 1_545
O4 P2 1.530387 1_555
O5 P1 1.585987 1_555
O6 P1 1.585987 1_555
O7 P1 1.514500 1_554
O8 P2 1.528262 1_556
O9 P2 1.571833 1_655
O10 P2 1.571833 1_555
O11 P1 1.529122 1_555
O12 P0 1.525738 1_565
O13 P3 1.591266 1_655
O14 P3 1.591266 1_555
O15 P3 1.522802 1_555
