# generated using pymatgen
data_Fe3O5F
_symmetry_space_group_name_H-M   'P 1'
_cell_length_a   3.00234900
_cell_length_b   6.58134400
_cell_length_c   10.38721164
_cell_angle_alpha   71.58125931
_cell_angle_beta   90.00000000
_cell_angle_gamma   90.00000000
_symmetry_Int_Tables_number   1
_chemical_formula_structural   Fe3O5F
_chemical_formula_sum   'Fe6 O10 F2'
_cell_volume   194.73182472
_cell_formula_units_Z   2
loop_
 _symmetry_equiv_pos_site_id
 _symmetry_equiv_pos_as_xyz
  1  'x, y, z'
loop_
 _atom_site_type_symbol
 _atom_site_label
 _atom_site_symmetry_multiplicity
 _atom_site_fract_x
 _atom_site_fract_y
 _atom_site_fract_z
 _atom_site_occupancy
  Fe  Fe0  1  0.00000000  0.99218500  0.01725200  1
  Fe  Fe1  1  0.50000000  0.50174400  0.99816200  1
  Fe  Fe2  1  0.00000000  0.34786700  0.32710500  1
  Fe  Fe3  1  0.50000000  0.17349300  0.65318900  1
  Fe  Fe4  1  0.50000000  0.81320600  0.33847800  1
  Fe  Fe5  1  0.00000000  0.66742000  0.66633000  1
  O  O0  1  0.00000000  0.30673900  0.00077000  1
  O  O1  1  0.00000000  0.69374300  0.00052800  1
  O  O2  1  0.50000000  0.39713100  0.20346300  1
  O  O3  1  0.50000000  0.27020300  0.45206100  1
  O  O4  1  0.50000000  0.93437800  0.13897400  1
  O  O5  1  0.00000000  0.63757300  0.33760300  1
  O  O6  1  0.00000000  0.35561600  0.66272200  1
  O  O7  1  0.50000000  0.73171500  0.53935200  1
  O  O8  1  0.50000000  0.60410500  0.79155800  1
  O  O9  1  0.00000000  0.98148700  0.66295000  1
  F  F0  1  0.00000000  0.02738100  0.33660000  1
  F  F1  1  0.50000000  0.06401500  0.87290100  1
loop_
_geom_bond_atom_site_label_1
_geom_bond_atom_site_label_2
_geom_bond_distance
_geom_bond_site_symmetry_2
Fe0 O4 1.921688 1_455
Fe0 O4 1.921688 1_555
Fe0 O0 2.022628 1_565
Fe0 O1 2.025753 1_555
Fe1 O1 1.967350 1_556
Fe1 O1 1.967350 1_656
Fe1 O0 1.969617 1_656
Fe1 O0 1.969617 1_556
Fe1 O2 2.023316 1_556
Fe1 O8 2.036108 1_555
Fe2 O2 1.935182 1_455
Fe2 O2 1.935182 1_555
Fe2 O5 1.943864 1_555
Fe2 O3 1.944277 1_555
Fe2 O3 1.944277 1_455
Fe3 O6 1.942938 1_655
Fe3 O6 1.942938 1_555
Fe3 O9 1.944138 1_645
Fe3 O9 1.944138 1_545
Fe3 O3 1.982278 1_555
Fe4 O5 1.896406 1_555
Fe4 O5 1.896406 1_655
Fe4 O4 1.971305 1_555
Fe4 O7 1.983447 1_555
Fe5 O8 1.943360 1_455
Fe5 O8 1.943360 1_555
Fe5 O7 1.954360 1_555
Fe5 O7 1.954360 1_455
Fe5 O9 2.056160 1_555
Fe5 O6 2.064237 1_555
F0 Fe4 2.055088 1_445
F0 Fe4 2.055088 1_545
F0 Fe2 2.080172 1_555
F1 Fe0 2.068163 1_646
F1 Fe0 2.068163 1_546
F1 Fe3 2.165284 1_555
