# generated using pymatgen
data_Sr(CoGe)2
_symmetry_space_group_name_H-M   'P 1'
_cell_length_a   3.98948498
_cell_length_b   3.98948450
_cell_length_c   6.16632629
_cell_angle_alpha   108.87409846
_cell_angle_beta   108.87409858
_cell_angle_gamma   90.00000195
_symmetry_Int_Tables_number   1
_chemical_formula_structural   Sr(CoGe)2
_chemical_formula_sum   'Sr1 Co2 Ge2'
_cell_volume   87.27069073
_cell_formula_units_Z   1
loop_
 _symmetry_equiv_pos_site_id
 _symmetry_equiv_pos_as_xyz
  1  'x, y, z'
loop_
 _atom_site_type_symbol
 _atom_site_label
 _atom_site_symmetry_multiplicity
 _atom_site_fract_x
 _atom_site_fract_y
 _atom_site_fract_z
 _atom_site_occupancy
  Sr  Sr0  1  -0.00000000  -0.00000000  0.00000000  1
  Co  Co0  1  0.25000000  0.75000000  0.50000000  1
  Co  Co1  1  0.75000000  0.25000000  0.50000000  1
  Ge  Ge0  1  0.64316487  0.64316487  0.28632975  1
  Ge  Ge1  1  0.35683513  0.35683513  0.71367025  1
loop_
_geom_bond_atom_site_label_1
_geom_bond_atom_site_label_2
_geom_bond_distance
_geom_bond_site_symmetry_2
Co0 Ge1 2.313361 1_565
Co0 Ge0 2.313361 1_455
Co0 Ge1 2.313361 1_555
Co0 Ge0 2.313361 1_555
Co0 Sr0 3.390485 1_555
Co0 Sr0 3.390485 1_666
Co0 Sr0 3.390486 1_565
Co0 Sr0 3.390486 1_566
Co1 Ge0 2.313361 1_545
Co1 Ge1 2.313361 1_655
Co1 Ge0 2.313361 1_555
Co1 Ge1 2.313361 1_555
Co1 Sr0 3.390485 1_666
Co1 Sr0 3.390485 1_555
Co1 Sr0 3.390486 1_656
Co1 Sr0 3.390486 1_655
Ge0 Sr0 3.228453 1_555
Ge0 Sr0 3.228454 1_655
Ge0 Sr0 3.228454 1_565
Ge0 Sr0 3.228454 1_665
Ge1 Sr0 3.228453 1_666
Ge1 Sr0 3.228454 1_566
Ge1 Sr0 3.228454 1_656
Ge1 Sr0 3.228454 1_556
