# generated using pymatgen
data_Li5Cu3(NiO5)2
_symmetry_space_group_name_H-M   'P 1'
_cell_length_a   4.97920600
_cell_length_b   5.25904157
_cell_length_c   7.48231487
_cell_angle_alpha   105.09080129
_cell_angle_beta   103.26647001
_cell_angle_gamma   103.99056503
_symmetry_Int_Tables_number   1
_chemical_formula_structural   Li5Cu3(NiO5)2
_chemical_formula_sum   'Li5 Cu3 Ni2 O10'
_cell_volume   174.39159395
_cell_formula_units_Z   1
loop_
 _symmetry_equiv_pos_site_id
 _symmetry_equiv_pos_as_xyz
  1  'x, y, z'
loop_
 _atom_site_type_symbol
 _atom_site_label
 _atom_site_symmetry_multiplicity
 _atom_site_fract_x
 _atom_site_fract_y
 _atom_site_fract_z
 _atom_site_occupancy
  Li  Li0  1  0.20838000  0.89714200  0.39894200  1
  Li  Li1  1  0.39629100  0.28065400  0.78580300  1
  Li  Li2  1  0.50000000  0.50000000  0.50000000  1
  Li  Li3  1  0.60370900  0.71934600  0.21419700  1
  Li  Li4  1  0.79162000  0.10285800  0.60105800  1
  Cu  Cu0  1  0.00000000  0.50000000  0.00000000  1
  Cu  Cu1  1  0.69634500  0.88761900  0.89724500  1
  Cu  Cu2  1  0.30365500  0.11238100  0.10275500  1
  Ni  Ni0  1  0.10054900  0.67558400  0.69244000  1
  Ni  Ni1  1  0.89945100  0.32441600  0.30756000  1
  O  O0  1  0.05824600  0.02149500  0.83601400  1
  O  O1  1  0.34048900  0.66843800  0.92425600  1
  O  O2  1  0.12916000  0.33262700  0.54474600  1
  O  O3  1  0.21442200  0.52328400  0.24754000  1
  O  O4  1  0.44363900  0.88024900  0.66317300  1
  O  O5  1  0.55636100  0.11975100  0.33682700  1
  O  O6  1  0.78557800  0.47671600  0.75246000  1
  O  O7  1  0.87084000  0.66737300  0.45525400  1
  O  O8  1  0.65951100  0.33156200  0.07574400  1
  O  O9  1  0.94175400  0.97850500  0.16398600  1
loop_
_geom_bond_atom_site_label_1
_geom_bond_atom_site_label_2
_geom_bond_distance
_geom_bond_site_symmetry_2
Li0 O3 2.008580 1_555
Li0 O7 2.017549 1_455
Li0 O5 2.064173 1_565
Li0 O4 2.089904 1_555
Li0 O9 2.152064 1_455
Li0 O2 2.433982 1_565
Li1 O6 2.066900 1_555
Li1 O0 2.068690 1_555
Li1 O2 2.104399 1_555
Li1 O1 2.148359 1_555
Li1 O4 2.159842 1_545
Li1 O8 2.172276 1_556
Li2 O7 1.986884 1_555
Li2 O2 1.986884 1_555
Li2 O3 2.139404 1_555
Li2 O6 2.139404 1_555
Li2 O4 2.173861 1_555
Li2 O5 2.173861 1_555
Li3 O3 2.066900 1_555
Li3 O9 2.068690 1_555
Li3 O7 2.104399 1_555
Li3 O8 2.148359 1_555
Li3 O5 2.159842 1_565
Li3 O1 2.172276 1_554
Li4 O6 2.008580 1_555
Li4 O2 2.017549 1_655
Li4 O4 2.064173 1_545
Li4 O5 2.089904 1_555
Li4 O0 2.152064 1_655
Li4 O7 2.433982 1_545
Cu0 O6 1.869900 1_454
Cu0 O3 1.869900 1_555
Cu0 O8 1.989064 1_455
Cu0 O1 1.989064 1_554
Cu1 O4 1.892565 1_555
Cu1 O9 1.951034 1_556
Cu1 O1 1.951201 1_555
Cu1 O0 1.971332 1_665
Cu1 O6 2.346685 1_555
Cu1 O8 2.442158 1_566
Cu2 O5 1.892565 1_555
Cu2 O0 1.951034 1_554
Cu2 O8 1.951201 1_555
Cu2 O9 1.971332 1_445
Cu2 O3 2.346685 1_555
Cu2 O1 2.442158 1_544
Ni0 O7 1.861244 1_455
Ni0 O6 1.878777 1_455
Ni0 O4 1.878873 1_555
Ni0 O1 1.881988 1_555
Ni0 O2 1.911345 1_555
Ni0 O0 1.944044 1_565
Ni1 O2 1.861244 1_655
Ni1 O3 1.878777 1_655
Ni1 O5 1.878873 1_555
Ni1 O8 1.881988 1_555
Ni1 O7 1.911345 1_555
Ni1 O9 1.944044 1_545
