# generated using pymatgen
data_Mn9FeO10
_symmetry_space_group_name_H-M   'P 1'
_cell_length_a   7.16022333
_cell_length_b   7.16022333
_cell_length_c   10.59678254
_cell_angle_alpha   78.19941109
_cell_angle_beta   78.19941109
_cell_angle_gamma   25.62852901
_symmetry_Int_Tables_number   1
_chemical_formula_structural   Mn9FeO10
_chemical_formula_sum   'Mn9 Fe1 O10'
_cell_volume   229.76303761
_cell_formula_units_Z   1
loop_
 _symmetry_equiv_pos_site_id
 _symmetry_equiv_pos_as_xyz
  1  'x, y, z'
loop_
 _atom_site_type_symbol
 _atom_site_label
 _atom_site_symmetry_multiplicity
 _atom_site_fract_x
 _atom_site_fract_y
 _atom_site_fract_z
 _atom_site_occupancy
  Mn  Mn0  1  0.50000000  0.50000000  0.50000000  1
  Mn  Mn1  1  0.89999200  0.89999200  0.29995400  1
  Mn  Mn2  1  0.79977900  0.79977900  0.60107600  1
  Mn  Mn3  1  0.39949000  0.39949000  0.80228600  1
  Mn  Mn4  1  0.30140400  0.30140400  0.09837600  1
  Mn  Mn5  1  0.20022100  0.20022100  0.39892400  1
  Mn  Mn6  1  0.60051000  0.60051000  0.19771400  1
  Mn  Mn7  1  0.69859600  0.69859600  0.90162400  1
  Mn  Mn8  1  0.10000800  0.10000800  0.70004600  1
  Fe  Fe0  1  0.00000000  0.00000000  0.00000000  1
  O  O0  1  0.94995600  0.94995600  0.65083500  1
  O  O1  1  0.05004400  0.05004400  0.34916500  1
  O  O2  1  0.54840200  0.54840200  0.85399400  1
  O  O3  1  0.45159800  0.45159800  0.14600600  1
  O  O4  1  0.34988900  0.34988900  0.44960400  1
  O  O5  1  0.75086700  0.75086700  0.24952400  1
  O  O6  1  0.65011100  0.65011100  0.55039600  1
  O  O7  1  0.85040800  0.85040800  0.95035900  1
  O  O8  1  0.14959200  0.14959200  0.04964100  1
  O  O9  1  0.24913300  0.24913300  0.75047600  1
loop_
_geom_bond_atom_site_label_1
_geom_bond_atom_site_label_2
_geom_bond_distance
_geom_bond_site_symmetry_2
Mn0 O1 2.257558 1_655
Mn0 O1 2.257558 1_565
Mn0 O0 2.257558 1_455
Mn0 O0 2.257558 1_545
Mn0 O4 2.269019 1_555
Mn0 O6 2.269019 1_555
Mn1 O4 2.249638 1_565
Mn1 O4 2.249638 1_655
Mn1 O5 2.255777 1_555
Mn1 O1 2.262856 1_665
Mn1 O3 2.282428 1_655
Mn1 O3 2.282428 1_565
Mn2 O9 2.249196 1_565
Mn2 O9 2.249196 1_655
Mn2 O4 2.262053 1_565
Mn2 O4 2.262053 1_655
Mn2 O6 2.264294 1_555
Mn2 O0 2.267028 1_555
Mn3 O7 2.236669 1_455
Mn3 O7 2.236669 1_545
Mn3 O2 2.258751 1_555
Mn3 O0 2.262713 1_545
Mn3 O0 2.262713 1_455
Mn3 O9 2.278827 1_555
Mn4 O7 2.236118 1_544
Mn4 O7 2.236118 1_454
Mn4 O3 2.257728 1_555
Mn4 O5 2.260808 1_545
Mn4 O5 2.260808 1_455
Mn4 O8 2.284681 1_555
Mn5 O5 2.249196 1_545
Mn5 O5 2.249196 1_455
Mn5 O6 2.262053 1_545
Mn5 O6 2.262053 1_455
Mn5 O4 2.264294 1_555
Mn5 O1 2.267028 1_555
Mn6 O8 2.236669 1_655
Mn6 O8 2.236669 1_565
Mn6 O3 2.258751 1_555
Mn6 O1 2.262713 1_655
Mn6 O1 2.262713 1_565
Mn6 O5 2.278827 1_555
Mn7 O8 2.236118 1_566
Mn7 O8 2.236118 1_656
Mn7 O2 2.257728 1_555
Mn7 O9 2.260808 1_565
Mn7 O9 2.260808 1_655
Mn7 O7 2.284681 1_555
Mn8 O6 2.249638 1_455
Mn8 O6 2.249638 1_545
Mn8 O9 2.255777 1_555
Mn8 O0 2.262856 1_445
Mn8 O2 2.282428 1_545
Mn8 O2 2.282428 1_455
Fe0 O2 2.221253 1_544
Fe0 O2 2.221253 1_454
Fe0 O3 2.221253 1_455
Fe0 O3 2.221253 1_545
Fe0 O7 2.258540 1_444
Fe0 O8 2.258540 1_555
