# generated using pymatgen
data_Mg2CClO6
_symmetry_space_group_name_H-M   'P 1'
_cell_length_a   7.51846400
_cell_length_b   13.36744087
_cell_length_c   13.44225658
_cell_angle_alpha   116.23411859
_cell_angle_beta   100.70271424
_cell_angle_gamma   100.87069874
_symmetry_Int_Tables_number   1
_chemical_formula_structural   Mg2CClO6
_chemical_formula_sum   'Mg12 C6 Cl6 O36'
_cell_volume   1133.19898744
_cell_formula_units_Z   6
loop_
 _symmetry_equiv_pos_site_id
 _symmetry_equiv_pos_as_xyz
  1  'x, y, z'
loop_
 _atom_site_type_symbol
 _atom_site_label
 _atom_site_symmetry_multiplicity
 _atom_site_fract_x
 _atom_site_fract_y
 _atom_site_fract_z
 _atom_site_occupancy
  Mg  Mg0  1  0.66013700  0.39787800  0.41731400  1
  Mg  Mg1  1  0.26454900  0.01982800  0.60208900  1
  Mg  Mg2  1  0.24469600  0.58176900  0.98039600  1
  Mg  Mg3  1  0.76466500  0.60091400  0.01996400  1
  Mg  Mg4  1  0.15687000  0.41335300  0.39601400  1
  Mg  Mg5  1  0.74404500  0.98053900  0.58119100  1
  Mg  Mg6  1  0.13446200  0.59538300  0.25246200  1
  Mg  Mg7  1  0.54004700  0.65896700  0.40478700  1
  Mg  Mg8  1  0.88274200  0.74862500  0.34058200  1
  Mg  Mg9  1  0.03981300  0.40685600  0.65812300  1
  Mg  Mg10  1  0.63531800  0.25386100  0.59558100  1
  Mg  Mg11  1  0.38289800  0.34305900  0.74751500  1
  C  C0  1  0.86483100  0.54727900  0.38755300  1
  C  C1  1  0.31925100  0.84143900  0.45290800  1
  C  C2  1  0.47744900  0.61194500  0.15878600  1
  C  C3  1  0.81914800  0.45335900  0.84132200  1
  C  C4  1  0.36312200  0.38676900  0.54541300  1
  C  C5  1  0.97886100  0.15999600  0.61314100  1
  Cl  Cl0  1  0.53983600  0.32895100  0.14779700  1
  Cl  Cl1  1  0.19506700  0.82057000  0.67328600  1
  Cl  Cl2  1  0.38709700  0.85296300  0.17837100  1
  Cl  Cl3  1  0.70165600  0.67392500  0.82197000  1
  Cl  Cl4  1  0.01730100  0.14174100  0.33309400  1
  Cl  Cl5  1  0.87674100  0.17706400  0.85074800  1
  O  O0  1  0.54021400  0.28249300  0.24022600  1
  O  O1  1  0.26076100  0.95973000  0.71936300  1
  O  O2  1  0.30175100  0.75988700  0.04067700  1
  O  O3  1  0.76126800  0.71925200  0.96008300  1
  O  O4  1  0.02927300  0.23361100  0.28515000  1
  O  O5  1  0.79820500  0.03857300  0.75772000  1
  O  O6  1  0.91368000  0.45692300  0.38202400  1
  O  O7  1  0.45810100  0.92465000  0.54242800  1
  O  O8  1  0.53234000  0.61627100  0.07400600  1
  O  O9  1  0.95827700  0.54198200  0.92567100  1
  O  O10  1  0.41057400  0.37888900  0.45436100  1
  O  O11  1  0.03298000  0.07487800  0.61762000  1
  O  O12  1  0.71220900  0.55911300  0.41853800  1
  O  O13  1  0.15502900  0.86138300  0.44114200  1
  O  O14  1  0.29389400  0.58060600  0.13982600  1
  O  O15  1  0.65423400  0.44109200  0.86050500  1
  O  O16  1  0.21040700  0.41765100  0.55695500  1
  O  O17  1  0.79480600  0.14077300  0.58170900  1
  O  O18  1  0.95951100  0.61879600  0.36303500  1
  O  O19  1  0.34139300  0.74570300  0.38169500  1
  O  O20  1  0.59619500  0.63817600  0.25479100  1
  O  O21  1  0.84150500  0.38357900  0.74537200  1
  O  O22  1  0.45924300  0.36434900  0.61786400  1
  O  O23  1  0.09713500  0.25642100  0.63877000  1
  O  O24  1  0.28059900  0.51430500  0.33058600  1
  O  O25  1  0.76821200  0.81575800  0.48251100  1
  O  O26  1  0.95340600  0.67104800  0.18502800  1
  O  O27  1  0.26762500  0.48661400  0.81475100  1
  O  O28  1  0.78235900  0.33037000  0.51522900  1
  O  O29  1  0.45405600  0.18608600  0.67184900  1
  O  O30  1  0.88258400  0.54144800  0.12801800  1
  O  O31  1  0.34140500  0.58404100  0.45823900  1
  O  O32  1  0.75738400  0.87574200  0.41305500  1
  O  O33  1  0.84021300  0.45955700  0.58499200  1
  O  O34  1  0.38371100  0.12828500  0.54328700  1
  O  O35  1  0.25605600  0.41492900  0.87251700  1
loop_
_geom_bond_atom_site_label_1
_geom_bond_atom_site_label_2
_geom_bond_distance
_geom_bond_site_symmetry_2
Mg0 O10 2.027861 1_555
Mg0 O0 2.071423 1_555
Mg0 O28 2.074789 1_555
Mg0 O33 2.096603 1_555
Mg0 O12 2.108754 1_555
Mg0 O6 2.140371 1_555
Mg1 O11 2.024541 1_555
Mg1 O1 2.063732 1_545
Mg1 O29 2.077391 1_555
Mg1 O34 2.077395 1_555
Mg1 O13 2.115196 1_545
Mg1 O7 2.146922 1_545
Mg2 O9 2.023613 1_455
Mg2 O2 2.071148 1_556
Mg2 O27 2.080129 1_555
Mg2 O35 2.083917 1_555
Mg2 O14 2.113557 1_556
Mg2 O8 2.138473 1_556
Mg3 O8 2.023767 1_555
Mg3 O3 2.069835 1_554
Mg3 O26 2.074971 1_555
Mg3 O30 2.082279 1_555
Mg3 O15 2.114129 1_554
Mg3 O9 2.140375 1_554
Mg4 O6 2.021995 1_455
Mg4 O24 2.083176 1_555
Mg4 O4 2.085217 1_555
Mg4 O16 2.098479 1_555
Mg4 O31 2.125613 1_555
Mg4 O10 2.135659 1_555
Mg5 O7 2.021262 1_555
Mg5 O5 2.071956 1_565
Mg5 O25 2.074077 1_555
Mg5 O17 2.100241 1_565
Mg5 O32 2.102076 1_555
Mg5 O11 2.138885 1_665
Mg6 O30 2.036288 1_455
Mg6 O19 2.051078 1_555
Mg6 O14 2.065747 1_555
Mg6 O18 2.123101 1_455
Mg6 O24 2.124029 1_555
Mg6 O26 2.137595 1_455
Mg7 O20 2.045932 1_555
Mg7 O31 2.054382 1_555
Mg7 O12 2.066939 1_555
Mg7 O25 2.114086 1_555
Mg7 O19 2.114372 1_555
Mg7 O24 2.165337 1_555
Mg8 O32 2.050942 1_555
Mg8 O18 2.052398 1_555
Mg8 O13 2.072940 1_655
Mg8 O26 2.105547 1_555
Mg8 O20 2.126810 1_555
Mg8 O25 2.138855 1_555
Mg9 O33 2.043966 1_455
Mg9 O23 2.050194 1_555
Mg9 O16 2.065633 1_555
Mg9 O27 2.119076 1_555
Mg9 O21 2.119543 1_455
Mg9 O28 2.148947 1_455
Mg10 O34 2.038529 1_555
Mg10 O21 2.050416 1_555
Mg10 O17 2.067707 1_555
Mg10 O28 2.104390 1_555
Mg10 O22 2.125371 1_555
Mg10 O29 2.145580 1_555
Mg11 O35 2.041928 1_555
Mg11 O22 2.048479 1_555
Mg11 O15 2.065678 1_555
Mg11 O29 2.112447 1_555
Mg11 O23 2.119523 1_555
Mg11 O27 2.152983 1_555
C0 O18 1.279957 1_555
C0 O6 1.302826 1_555
C0 O12 1.304974 1_555
C1 O19 1.279968 1_555
C1 O7 1.298916 1_555
C1 O13 1.307468 1_555
C2 O20 1.280388 1_555
C2 O8 1.302452 1_555
C2 O14 1.304568 1_555
C3 O21 1.279812 1_555
C3 O9 1.299140 1_555
C3 O15 1.307739 1_555
C4 O22 1.280194 1_555
C4 O10 1.303380 1_555
C4 O16 1.304275 1_555
C5 O23 1.277553 1_655
C5 O11 1.299956 1_655
C5 O17 1.308514 1_555
Cl0 O0 1.615821 1_555
Cl1 O1 1.615295 1_555
Cl2 O2 1.614756 1_555
Cl3 O3 1.615175 1_555
Cl4 O4 1.615910 1_555
Cl5 O5 1.614431 1_555
O24 O31 1.468388 1_555
O25 O32 1.476311 1_555
O26 O30 1.482853 1_555
O27 O35 1.476562 1_555
O28 O33 1.477922 1_555
O29 O34 1.479580 1_555
