# generated using pymatgen
data_Li4Ni3Sn5O16
_symmetry_space_group_name_H-M   'P 1'
_cell_length_a   6.05017600
_cell_length_b   6.11055832
_cell_length_c   9.81038816
_cell_angle_alpha   90.74140827
_cell_angle_beta   89.93357806
_cell_angle_gamma   119.43250806
_symmetry_Int_Tables_number   1
_chemical_formula_structural   Li4Ni3Sn5O16
_chemical_formula_sum   'Li4 Ni3 Sn5 O16'
_cell_volume   315.84703788
_cell_formula_units_Z   1
loop_
 _symmetry_equiv_pos_site_id
 _symmetry_equiv_pos_as_xyz
  1  'x, y, z'
loop_
 _atom_site_type_symbol
 _atom_site_label
 _atom_site_symmetry_multiplicity
 _atom_site_fract_x
 _atom_site_fract_y
 _atom_site_fract_z
 _atom_site_occupancy
  Li  Li0  1  0.66726000  0.32537500  0.89231100  1
  Li  Li1  1  0.97771200  0.01818300  0.98790500  1
  Li  Li2  1  0.98929700  0.00927500  0.49764600  1
  Li  Li3  1  0.33628100  0.67035600  0.40413500  1
  Ni  Ni0  1  0.83104600  0.17023800  0.21604500  1
  Ni  Ni1  1  0.66096800  0.82884400  0.71258200  1
  Ni  Ni2  1  0.17221300  0.33990600  0.71519800  1
  Sn  Sn0  1  0.83361300  0.66021300  0.21521100  1
  Sn  Sn1  1  0.67330900  0.33109400  0.49454300  1
  Sn  Sn2  1  0.33966600  0.16852400  0.21376000  1
  Sn  Sn3  1  0.17062800  0.83168300  0.71427100  1
  Sn  Sn4  1  0.34286700  0.65716800  0.98563200  1
  O  O0  1  0.84081400  0.68003900  0.59400000  1
  O  O1  1  0.51500700  0.48569200  0.34539500  1
  O  O2  1  0.66724900  0.33301900  0.10017300  1
  O  O3  1  0.00043700  0.00129800  0.31240600  1
  O  O4  1  0.97710700  0.98989100  0.80507000  1
  O  O5  1  0.32041700  0.16903300  0.59979000  1
  O  O6  1  0.96953000  0.48668600  0.34592600  1
  O  O7  1  0.51416400  0.03467500  0.34679000  1
  O  O8  1  0.16200000  0.83500000  0.09105300  1
  O  O9  1  0.84211800  0.16739600  0.60493900  1
  O  O10  1  0.48265100  0.96138300  0.84471900  1
  O  O11  1  0.03784800  0.50472000  0.83745200  1
  O  O12  1  0.35525900  0.67602000  0.60928700  1
  O  O13  1  0.67481100  0.83162100  0.09597400  1
  O  O14  1  0.47939200  0.50810700  0.83120500  1
  O  O15  1  0.16663100  0.32485800  0.09442200  1
loop_
_geom_bond_atom_site_label_1
_geom_bond_atom_site_label_2
_geom_bond_distance
_geom_bond_site_symmetry_2
Li0 O10 1.986295 1_545
Li0 O11 2.028633 1_655
Li0 O2 2.039138 1_556
Li0 O14 2.040666 1_555
Li1 O4 1.799601 1_545
Li1 O13 1.937939 1_546
Li1 O15 1.938333 1_656
Li1 O8 2.186002 1_646
Li2 O3 1.819358 1_655
Li2 O9 1.910886 1_555
Li2 O0 2.004743 1_545
Li2 O5 2.006936 1_655
Li3 O1 1.988851 1_555
Li3 O6 2.011996 1_455
Li3 O12 2.014907 1_555
Li3 O7 2.026580 1_565
Ni0 O3 2.019138 1_655
Ni0 O2 2.065023 1_555
Ni0 O6 2.100259 1_555
Ni0 O7 2.113767 1_555
Ni0 O15 2.139369 1_655
Ni0 O13 2.140020 1_545
Ni1 O4 1.892392 1_555
Ni1 O12 1.897974 1_555
Ni1 O0 2.075129 1_555
Ni1 O10 2.080521 1_555
Ni1 O14 2.083822 1_555
Ni1 O9 2.102761 1_565
Ni2 O11 1.970961 1_555
Ni2 O14 1.975576 1_555
Ni2 O5 2.015751 1_555
Ni2 O9 2.043588 1_455
Ni2 O4 2.076130 1_445
Ni2 O12 2.083618 1_555
O0 Sn1 2.085733 1_555
O0 Sn3 2.095834 1_655
O1 Sn2 2.113526 1_555
O1 Sn0 2.119754 1_555
O1 Sn1 2.208822 1_555
O2 Sn2 2.060613 1_555
O2 Sn0 2.061695 1_555
O3 Sn2 2.037862 1_555
O3 Sn0 2.038442 1_445
O4 Sn3 2.046127 1_655
O5 Sn1 2.132753 1_555
O5 Sn3 2.133907 1_545
O6 Sn0 2.083168 1_555
O6 Sn1 2.144017 1_555
O7 Sn2 2.089548 1_555
O7 Sn1 2.128433 1_555
O8 Sn0 2.124684 1_455
O8 Sn2 2.131807 1_565
O8 Sn4 2.141215 1_554
O9 Sn1 2.061860 1_555
O10 Sn3 2.082925 1_555
O10 Sn4 2.144904 1_555
O11 Sn3 2.140153 1_555
O11 Sn4 2.160615 1_555
O12 Sn3 2.056586 1_555
O13 Sn4 2.052473 1_554
O13 Sn0 2.100429 1_555
O14 Sn4 2.123184 1_555
O15 Sn4 2.079631 1_554
O15 Sn2 2.096159 1_555
