# generated using pymatgen
data_BaCd(ClO)4
_symmetry_space_group_name_H-M   'P 1'
_cell_length_a   8.75572800
_cell_length_b   8.71838659
_cell_length_c   7.15788274
_cell_angle_alpha   100.67829982
_cell_angle_beta   103.04467565
_cell_angle_gamma   103.38953683
_symmetry_Int_Tables_number   1
_chemical_formula_structural   BaCd(ClO)4
_chemical_formula_sum   'Ba2 Cd2 Cl8 O8'
_cell_volume   501.30071168
_cell_formula_units_Z   2
loop_
 _symmetry_equiv_pos_site_id
 _symmetry_equiv_pos_as_xyz
  1  'x, y, z'
loop_
 _atom_site_type_symbol
 _atom_site_label
 _atom_site_symmetry_multiplicity
 _atom_site_fract_x
 _atom_site_fract_y
 _atom_site_fract_z
 _atom_site_occupancy
  Ba  Ba0  1  0.77074400  0.24263400  0.76757000  1
  Ba  Ba1  1  0.22925600  0.75736600  0.23243000  1
  Cd  Cd0  1  0.57382300  0.74533300  0.91991000  1
  Cd  Cd1  1  0.42617700  0.25466700  0.08009000  1
  Cl  Cl0  1  0.70305800  0.14354000  0.06765900  1
  Cl  Cl1  1  0.29694200  0.85646000  0.93234100  1
  Cl  Cl2  1  0.45043100  0.34755500  0.80076600  1
  Cl  Cl3  1  0.54956900  0.65244500  0.19923400  1
  Cl  Cl4  1  0.56209500  0.81347400  0.64010400  1
  Cl  Cl5  1  0.43790500  0.18652600  0.35989600  1
  Cl  Cl6  1  0.87451600  0.68360800  0.96309500  1
  Cl  Cl7  1  0.12548400  0.31639200  0.03690500  1
  O  O0  1  0.86632300  0.07499000  0.41921900  1
  O  O1  1  0.13367700  0.92501000  0.58078100  1
  O  O2  1  0.03112900  0.90060800  0.65501300  1
  O  O3  1  0.96887100  0.09939200  0.34498700  1
  O  O4  1  0.78317200  0.51546100  0.50144600  1
  O  O5  1  0.21682800  0.48453900  0.49855400  1
  O  O6  1  0.14754200  0.45036100  0.60150400  1
  O  O7  1  0.85245800  0.54963900  0.39849600  1
loop_
_geom_bond_atom_site_label_1
_geom_bond_atom_site_label_2
_geom_bond_distance
_geom_bond_site_symmetry_2
Ba0 Cl0 2.595529 1_556
Ba0 O0 3.035092 1_555
Ba0 Cl7 3.112861 1_656
Ba0 Cl2 3.188619 1_555
Ba0 O4 3.309236 1_555
Ba0 Cl5 3.495598 1_555
Ba0 Cl4 3.603619 1_545
Ba0 Cl6 3.657759 1_555
Ba1 Cl1 2.595529 1_554
Ba1 O1 3.035092 1_555
Ba1 Cl6 3.112861 1_454
Ba1 Cl3 3.188619 1_555
Ba1 O5 3.309236 1_555
Ba1 Cl4 3.495598 1_555
Ba1 Cl5 3.603619 1_565
Ba1 Cl7 3.657759 1_555
Cd0 Cl4 2.179704 1_555
Cd0 Cl3 2.326040 1_556
Cd0 Cl6 2.768964 1_555
Cd0 Cl1 2.824364 1_555
Cd1 Cl5 2.179704 1_555
Cd1 Cl2 2.326040 1_554
Cd1 Cl7 2.768964 1_555
Cd1 Cl0 2.824364 1_555
O0 O3 1.141301 1_555
O1 O2 1.141301 1_555
O4 O7 1.095125 1_555
O5 O6 1.095125 1_555
