# generated using pymatgen
data_LiTi(PO3)4
_symmetry_space_group_name_H-M   'P 1'
_cell_length_a   7.05844696
_cell_length_b   7.05844696
_cell_length_c   9.81896021
_cell_angle_alpha   88.08721618
_cell_angle_beta   88.08721618
_cell_angle_gamma   109.24453614
_symmetry_Int_Tables_number   1
_chemical_formula_structural   LiTi(PO3)4
_chemical_formula_sum   'Li2 Ti2 P8 O24'
_cell_volume   461.09274018
_cell_formula_units_Z   2
loop_
 _symmetry_equiv_pos_site_id
 _symmetry_equiv_pos_as_xyz
  1  'x, y, z'
loop_
 _atom_site_type_symbol
 _atom_site_label
 _atom_site_symmetry_multiplicity
 _atom_site_fract_x
 _atom_site_fract_y
 _atom_site_fract_z
 _atom_site_occupancy
  Li  Li0  1  0.34358000  0.65642000  0.75000000  1
  Li  Li1  1  0.65642000  0.34358000  0.25000000  1
  Ti  Ti0  1  0.61333100  0.38666900  0.75000000  1
  Ti  Ti1  1  0.38666900  0.61333100  0.25000000  1
  P  P0  1  0.14742400  0.77688200  0.02421600  1
  P  P1  1  0.77688200  0.14742400  0.52421600  1
  P  P2  1  0.71189000  0.77773600  0.96107400  1
  P  P3  1  0.22226400  0.28811000  0.53892600  1
  P  P4  1  0.77773600  0.71189000  0.46107400  1
  P  P5  1  0.28811000  0.22226400  0.03892600  1
  P  P6  1  0.22311800  0.85257600  0.47578400  1
  P  P7  1  0.85257600  0.22311800  0.97578400  1
  O  O0  1  0.25784700  0.78171000  0.89291100  1
  O  O1  1  0.62905500  0.15223900  0.63804300  1
  O  O2  1  0.62873900  0.66017700  0.83868800  1
  O  O3  1  0.78171000  0.25784700  0.39291100  1
  O  O4  1  0.42572700  0.25824000  0.91300100  1
  O  O5  1  0.15223900  0.62905500  0.13804300  1
  O  O6  1  0.25528700  0.08633700  0.49536400  1
  O  O7  1  0.77842300  0.00648100  0.90752200  1
  O  O8  1  0.99351900  0.22157700  0.59247800  1
  O  O9  1  0.91366300  0.74471300  0.00463600  1
  O  O10  1  0.66017700  0.62873900  0.33868800  1
  O  O11  1  0.74176000  0.57427300  0.58699900  1
  O  O12  1  0.25824000  0.42572700  0.41300100  1
  O  O13  1  0.33982300  0.37126100  0.66131200  1
  O  O14  1  0.08633700  0.25528700  0.99536400  1
  O  O15  1  0.00648100  0.77842300  0.40752200  1
  O  O16  1  0.22157700  0.99351900  0.09247800  1
  O  O17  1  0.74471300  0.91366300  0.50463600  1
  O  O18  1  0.84776100  0.37094500  0.86195700  1
  O  O19  1  0.57427300  0.74176000  0.08699900  1
  O  O20  1  0.21829000  0.74215300  0.60708900  1
  O  O21  1  0.37126100  0.33982300  0.16131200  1
  O  O22  1  0.37094500  0.84776100  0.36195700  1
  O  O23  1  0.74215300  0.21829000  0.10708900  1
loop_
_geom_bond_atom_site_label_1
_geom_bond_atom_site_label_2
_geom_bond_distance
_geom_bond_site_symmetry_2
Li0 O20 1.869835 1_555
Li0 O0 1.869835 1_555
Li0 O13 2.212167 1_555
Li0 O2 2.212167 1_555
Li1 O23 1.869835 1_555
Li1 O3 1.869835 1_555
Li1 O10 2.212167 1_555
Li1 O21 2.212167 1_555
O0 P0 1.477621 1_556
O1 P1 1.512326 1_555
O1 Ti0 2.047731 1_555
O2 P2 1.506557 1_555
O2 Ti0 2.115963 1_555
O3 P1 1.477621 1_555
O4 P5 1.507682 1_556
O4 Ti0 2.026625 1_555
O5 P0 1.512326 1_555
O5 Ti1 2.047731 1_555
O6 P3 1.586975 1_555
O6 P6 1.608759 1_545
O7 P2 1.590888 1_545
O7 P7 1.620389 1_555
O8 P3 1.590888 1_655
O8 P1 1.620389 1_555
O9 P2 1.586975 1_554
O9 P0 1.608759 1_655
O10 P4 1.506557 1_555
O10 Ti1 2.115963 1_555
O11 P4 1.507682 1_555
O11 Ti0 2.026625 1_555
O12 P3 1.507682 1_555
O12 Ti1 2.026625 1_555
O13 P3 1.506557 1_555
O13 Ti0 2.115963 1_555
O14 P5 1.586975 1_556
O14 P7 1.608759 1_455
O15 P4 1.590888 1_455
O15 P6 1.620389 1_555
O16 P5 1.590888 1_565
O16 P0 1.620389 1_555
O17 P4 1.586975 1_555
O17 P1 1.608759 1_565
O18 P7 1.512326 1_555
O18 Ti0 2.047731 1_555
O19 P2 1.507682 1_554
O19 Ti1 2.026625 1_555
O20 P6 1.477621 1_555
O21 P5 1.506557 1_555
O21 Ti1 2.115963 1_555
O22 P6 1.512326 1_555
O22 Ti1 2.047731 1_555
O23 P7 1.477621 1_554
