# generated using pymatgen
data_Na6Ni2P(CO4)4
_symmetry_space_group_name_H-M   'P 1'
_cell_length_a   9.81049282
_cell_length_b   9.81049282
_cell_length_c   9.81049282
_cell_angle_alpha   60.00000000
_cell_angle_beta   60.00000000
_cell_angle_gamma   60.00000000
_symmetry_Int_Tables_number   1
_chemical_formula_structural   Na6Ni2P(CO4)4
_chemical_formula_sum   'Na12 Ni4 P2 C8 O32'
_cell_volume   667.66325439
_cell_formula_units_Z   2
loop_
 _symmetry_equiv_pos_site_id
 _symmetry_equiv_pos_as_xyz
  1  'x, y, z'
loop_
 _atom_site_type_symbol
 _atom_site_label
 _atom_site_symmetry_multiplicity
 _atom_site_fract_x
 _atom_site_fract_y
 _atom_site_fract_z
 _atom_site_occupancy
  Na  Na0  1  0.28735700  0.28735700  0.71264300  1
  Na  Na1  1  0.96264300  0.53735700  0.53735700  1
  Na  Na2  1  0.71264300  0.28735700  0.71264300  1
  Na  Na3  1  0.28735700  0.71264300  0.28735700  1
  Na  Na4  1  0.53735700  0.96264300  0.96264300  1
  Na  Na5  1  0.53735700  0.53735700  0.96264300  1
  Na  Na6  1  0.71264300  0.28735700  0.28735700  1
  Na  Na7  1  0.71264300  0.71264300  0.28735700  1
  Na  Na8  1  0.96264300  0.53735700  0.96264300  1
  Na  Na9  1  0.53735700  0.96264300  0.53735700  1
  Na  Na10  1  0.28735700  0.71264300  0.71264300  1
  Na  Na11  1  0.96264300  0.96264300  0.53735700  1
  Ni  Ni0  1  0.62500000  0.12500000  0.12500000  1
  Ni  Ni1  1  0.12500000  0.12500000  0.12500000  1
  Ni  Ni2  1  0.12500000  0.12500000  0.62500000  1
  Ni  Ni3  1  0.12500000  0.62500000  0.12500000  1
  P  P0  1  0.50000000  0.50000000  0.50000000  1
  P  P1  1  0.75000000  0.75000000  0.75000000  1
  C  C0  1  0.27559600  0.90813500  0.90813500  1
  C  C1  1  0.90813500  0.27559600  0.90813500  1
  C  C2  1  0.90813500  0.90813500  0.90813500  1
  C  C3  1  0.90813500  0.90813500  0.27559600  1
  C  C4  1  0.34186500  0.34186500  0.97440400  1
  C  C5  1  0.34186500  0.34186500  0.34186500  1
  C  C6  1  0.34186500  0.97440400  0.34186500  1
  C  C7  1  0.97440400  0.34186500  0.34186500  1
  O  O0  1  0.22437800  0.48550800  0.31843700  1
  O  O1  1  0.97167700  0.31843700  0.48550800  1
  O  O2  1  0.27832300  0.02562200  0.93156300  1
  O  O3  1  0.02562200  0.27832300  0.76449200  1
  O  O4  1  0.27832300  0.76449200  0.02562200  1
  O  O5  1  0.56466700  0.56466700  0.30600000  1
  O  O6  1  0.93156300  0.02562200  0.76449200  1
  O  O7  1  0.56466700  0.56466700  0.56466700  1
  O  O8  1  0.56466700  0.30600000  0.56466700  1
  O  O9  1  0.93156300  0.27832300  0.02562200  1
  O  O10  1  0.76449200  0.27832300  0.93156300  1
  O  O11  1  0.30600000  0.56466700  0.56466700  1
  O  O12  1  0.02562200  0.93156300  0.27832300  1
  O  O13  1  0.76449200  0.93156300  0.02562200  1
  O  O14  1  0.93156300  0.76449200  0.27832300  1
  O  O15  1  0.48550800  0.22437800  0.97167700  1
  O  O16  1  0.76449200  0.02562200  0.27832300  1
  O  O17  1  0.31843700  0.48550800  0.97167700  1
  O  O18  1  0.48550800  0.31843700  0.22437800  1
  O  O19  1  0.22437800  0.31843700  0.97167700  1
  O  O20  1  0.94400000  0.68533300  0.68533300  1
  O  O21  1  0.48550800  0.97167700  0.31843700  1
  O  O22  1  0.31843700  0.97167700  0.22437800  1
  O  O23  1  0.68533300  0.94400000  0.68533300  1
  O  O24  1  0.68533300  0.68533300  0.68533300  1
  O  O25  1  0.31843700  0.22437800  0.48550800  1
  O  O26  1  0.68533300  0.68533300  0.94400000  1
  O  O27  1  0.97167700  0.48550800  0.22437800  1
  O  O28  1  0.22437800  0.97167700  0.48550800  1
  O  O29  1  0.97167700  0.22437800  0.31843700  1
  O  O30  1  0.27832300  0.93156300  0.76449200  1
  O  O31  1  0.02562200  0.76449200  0.93156300  1
loop_
_geom_bond_atom_site_label_1
_geom_bond_atom_site_label_2
_geom_bond_distance
_geom_bond_site_symmetry_2
Na0 O2 2.395058 1_555
Na0 O3 2.395058 1_555
Na0 O11 2.413486 1_555
Na0 O8 2.413486 1_555
Na0 O25 2.439059 1_555
Na0 O19 2.439059 1_555
Na1 O0 2.395058 1_655
Na1 O1 2.395058 1_555
Na1 O20 2.413477 1_555
Na1 O24 2.413482 1_555
Na1 O14 2.439059 1_555
Na1 O3 2.439059 1_655
Na2 O10 2.395058 1_555
Na2 O6 2.395058 1_555
Na2 O8 2.413477 1_555
Na2 O7 2.413482 1_555
Na2 O15 2.439059 1_555
Na2 O1 2.439059 1_555
Na3 O12 2.395058 1_555
Na3 O4 2.395058 1_555
Na3 O11 2.413486 1_555
Na3 O5 2.413486 1_555
Na3 O22 2.439059 1_555
Na3 O0 2.439059 1_555
Na4 O22 2.395058 1_556
Na4 O15 2.395058 1_565
Na4 O23 2.413486 1_555
Na4 O26 2.413486 1_555
Na4 O2 2.439059 1_565
Na4 O13 2.439059 1_556
Na5 O17 2.395058 1_555
Na5 O18 2.395058 1_556
Na5 O26 2.413477 1_555
Na5 O24 2.413482 1_555
Na5 O10 2.439059 1_555
Na5 O4 2.439059 1_556
Na6 O16 2.395058 1_555
Na6 O9 2.395058 1_555
Na6 O8 2.413486 1_555
Na6 O5 2.413486 1_555
Na6 O29 2.439059 1_555
Na6 O18 2.439059 1_555
Na7 O14 2.395058 1_555
Na7 O13 2.395058 1_555
Na7 O5 2.413477 1_555
Na7 O7 2.413482 1_555
Na7 O27 2.439059 1_555
Na7 O21 2.439059 1_555
Na8 O19 2.395058 1_655
Na8 O27 2.395058 1_556
Na8 O26 2.413486 1_555
Na8 O20 2.413486 1_555
Na8 O9 2.439059 1_556
Na8 O31 2.439059 1_655
Na9 O21 2.395058 1_555
Na9 O25 2.395058 1_565
Na9 O23 2.413477 1_555
Na9 O24 2.413482 1_555
Na9 O16 2.439059 1_565
Na9 O30 2.439059 1_555
Na10 O30 2.395058 1_555
Na10 O31 2.395058 1_555
Na10 O11 2.413477 1_555
Na10 O7 2.413482 1_555
Na10 O17 2.439059 1_555
Na10 O28 2.439059 1_555
Na11 O29 2.395058 1_565
Na11 O28 2.395058 1_655
Na11 O23 2.413486 1_555
Na11 O20 2.413486 1_555
Na11 O12 2.439059 1_655
Na11 O6 2.439059 1_565
Ni0 O13 2.084122 1_545
Ni0 O16 2.084122 1_555
Ni0 O10 2.084122 1_554
Ni0 O18 2.084122 1_555
Ni0 O15 2.084122 1_554
Ni0 O21 2.084122 1_545
Ni1 O2 2.084122 1_554
Ni1 O12 2.084122 1_545
Ni1 O9 2.084122 1_455
Ni1 O22 2.084122 1_545
Ni1 O29 2.084122 1_455
Ni1 O19 2.084122 1_554
Ni2 O6 2.084122 1_455
Ni2 O3 2.084122 1_555
Ni2 O30 2.084122 1_545
Ni2 O28 2.084122 1_545
Ni2 O1 2.084122 1_455
Ni2 O25 2.084122 1_555
Ni3 O31 2.084122 1_554
Ni3 O14 2.084122 1_455
Ni3 O4 2.084122 1_555
Ni3 O27 2.084122 1_455
Ni3 O17 2.084122 1_554
Ni3 O0 2.084122 1_555
C0 O2 1.297668 1_565
C0 O4 1.297674 1_556
C0 O30 1.297677 1_555
C1 O9 1.297668 1_556
C1 O3 1.297674 1_655
C1 O10 1.297677 1_555
C2 O13 1.297673 1_556
C2 O31 1.297673 1_655
C2 O6 1.297673 1_565
C3 O12 1.297668 1_655
C3 O16 1.297674 1_565
C3 O14 1.297677 1_555
C4 O19 1.297668 1_555
C4 O15 1.297674 1_555
C4 O17 1.297677 1_555
C5 O0 1.297673 1_555
C5 O18 1.297673 1_555
C5 O25 1.297673 1_555
C6 O22 1.297668 1_555
C6 O28 1.297674 1_555
C6 O21 1.297677 1_555
C7 O29 1.297668 1_555
C7 O27 1.297674 1_555
C7 O1 1.297677 1_555
O5 P0 1.553985 1_555
O7 P0 1.553993 1_555
O8 P0 1.553985 1_555
O11 P0 1.553985 1_555
O20 P1 1.553985 1_555
O23 P1 1.553985 1_555
O24 P1 1.553993 1_555
O26 P1 1.553985 1_555
