# generated using pymatgen
data_Fe19Co5O32
_symmetry_space_group_name_H-M   'P 1'
_cell_length_a   8.52149173
_cell_length_b   8.52149173
_cell_length_c   10.39104342
_cell_angle_alpha   66.16597597
_cell_angle_beta   66.16597597
_cell_angle_gamma   89.91677969
_symmetry_Int_Tables_number   1
_chemical_formula_structural   Fe19Co5O32
_chemical_formula_sum   'Fe19 Co5 O32'
_cell_volume   619.42283182
_cell_formula_units_Z   1
loop_
 _symmetry_equiv_pos_site_id
 _symmetry_equiv_pos_as_xyz
  1  'x, y, z'
loop_
 _atom_site_type_symbol
 _atom_site_label
 _atom_site_symmetry_multiplicity
 _atom_site_fract_x
 _atom_site_fract_y
 _atom_site_fract_z
 _atom_site_occupancy
  Fe  Fe0  1  0.31613600  0.81496300  0.62095700  1
  Fe  Fe1  1  0.81496300  0.31613600  0.62095700  1
  Fe  Fe2  1  0.00000000  0.00000000  0.50000000  1
  Fe  Fe3  1  0.68386400  0.18503700  0.37904300  1
  Fe  Fe4  1  0.18503700  0.68386400  0.37904300  1
  Fe  Fe5  1  0.87074400  0.62529000  0.25011100  1
  Fe  Fe6  1  0.12679800  0.37413900  0.24829200  1
  Fe  Fe7  1  0.37413900  0.12679800  0.24829200  1
  Fe  Fe8  1  0.62529000  0.87074400  0.25011100  1
  Fe  Fe9  1  0.55518900  0.55518900  0.13406900  1
  Fe  Fe10  1  0.05932600  0.05932600  0.12626200  1
  Fe  Fe11  1  0.25031300  0.74968700  0.00000000  1
  Fe  Fe12  1  0.74968700  0.25031300  0.00000000  1
  Fe  Fe13  1  0.44481100  0.44481100  0.86593100  1
  Fe  Fe14  1  0.94067400  0.94067400  0.87373800  1
  Fe  Fe15  1  0.87320200  0.62586100  0.75170800  1
  Fe  Fe16  1  0.37471000  0.12925600  0.74988900  1
  Fe  Fe17  1  0.62586100  0.87320200  0.75170800  1
  Fe  Fe18  1  0.12925600  0.37471000  0.74988900  1
  Co  Co0  1  0.75017000  0.75017000  0.49907400  1
  Co  Co1  1  0.50000000  0.50000000  0.50000000  1
  Co  Co2  1  0.24983000  0.24983000  0.50092600  1
  Co  Co3  1  0.50000000  0.00000000  0.00000000  1
  Co  Co4  1  0.00000000  0.50000000  0.00000000  1
  O  O0  1  0.75686300  0.98725700  0.50251100  1
  O  O1  1  0.98725700  0.75686300  0.50251100  1
  O  O2  1  0.48499500  0.24937100  0.50477700  1
  O  O3  1  0.24937100  0.48499500  0.50477700  1
  O  O4  1  0.24313700  0.01274300  0.49748900  1
  O  O5  1  0.01274300  0.24313700  0.49748900  1
  O  O6  1  0.51500500  0.75062900  0.49522300  1
  O  O7  1  0.75062900  0.51500500  0.49522300  1
  O  O8  1  0.12802100  0.12802100  0.26627200  1
  O  O9  1  0.85324300  0.85324300  0.27153600  1
  O  O10  1  0.63491600  0.63491600  0.25684400  1
  O  O11  1  0.35094700  0.35094700  0.27195000  1
  O  O12  1  0.88145800  0.37970400  0.25677200  1
  O  O13  1  0.37970400  0.88145800  0.25677200  1
  O  O14  1  0.12355700  0.62181700  0.24357000  1
  O  O15  1  0.62181700  0.12355700  0.24357000  1
  O  O16  1  0.50334000  0.23644100  0.01684900  1
  O  O17  1  0.00445200  0.73610400  0.01774400  1
  O  O18  1  0.23644100  0.50334000  0.01684900  1
  O  O19  1  0.73610400  0.00445200  0.01774400  1
  O  O20  1  0.26389600  0.99554800  0.98225600  1
  O  O21  1  0.76355900  0.49666000  0.98315100  1
  O  O22  1  0.49666000  0.76355900  0.98315100  1
  O  O23  1  0.99554800  0.26389600  0.98225600  1
  O  O24  1  0.37818300  0.87644300  0.75643000  1
  O  O25  1  0.87644300  0.37818300  0.75643000  1
  O  O26  1  0.62029600  0.11854200  0.74322800  1
  O  O27  1  0.11854200  0.62029600  0.74322800  1
  O  O28  1  0.64905300  0.64905300  0.72805000  1
  O  O29  1  0.87197900  0.87197900  0.73372800  1
  O  O30  1  0.36508400  0.36508400  0.74315600  1
  O  O31  1  0.14675700  0.14675700  0.72846400  1
loop_
_geom_bond_atom_site_label_1
_geom_bond_atom_site_label_2
_geom_bond_distance
_geom_bond_site_symmetry_2
Fe0 O6 1.914725 1_555
Fe0 O24 1.932363 1_555
Fe0 O4 1.941107 1_565
Fe0 O27 1.943463 1_555
Fe1 O7 1.914725 1_555
Fe1 O25 1.932363 1_555
Fe1 O5 1.941107 1_655
Fe1 O26 1.943463 1_555
Fe2 O29 1.999908 1_445
Fe2 O8 1.999908 1_555
Fe2 O5 2.063946 1_555
Fe2 O4 2.063946 1_555
Fe2 O1 2.063946 1_445
Fe2 O0 2.063946 1_445
Fe3 O2 1.914725 1_555
Fe3 O15 1.932363 1_555
Fe3 O0 1.941107 1_545
Fe3 O12 1.943463 1_555
Fe4 O3 1.914725 1_555
Fe4 O14 1.932363 1_555
Fe4 O1 1.941107 1_455
Fe4 O13 1.943463 1_555
Fe5 O10 1.985113 1_555
Fe5 O17 1.989212 1_655
Fe5 O9 2.041307 1_555
Fe5 O12 2.068878 1_555
Fe5 O7 2.092693 1_555
Fe5 O14 2.128332 1_655
Fe6 O18 1.978882 1_555
Fe6 O11 2.021642 1_555
Fe6 O8 2.029405 1_555
Fe6 O12 2.057933 1_455
Fe6 O14 2.091644 1_555
Fe6 O5 2.128135 1_555
Fe7 O16 1.978882 1_555
Fe7 O11 2.021642 1_555
Fe7 O8 2.029405 1_555
Fe7 O13 2.057933 1_545
Fe7 O15 2.091644 1_555
Fe7 O4 2.128135 1_555
Fe8 O10 1.985113 1_555
Fe8 O19 1.989212 1_565
Fe8 O9 2.041307 1_555
Fe8 O13 2.068878 1_555
Fe8 O6 2.092693 1_555
Fe8 O15 2.128332 1_565
Fe9 O10 1.988220 1_555
Fe9 O11 2.022201 1_555
Fe9 O22 2.059121 1_554
Fe9 O21 2.059121 1_554
Fe10 O23 2.029713 1_454
Fe10 O20 2.029713 1_544
Fe10 O9 2.042255 1_445
Fe10 O8 2.044381 1_555
Fe11 O20 2.026848 1_554
Fe11 O17 2.026848 1_555
Fe11 O22 2.034309 1_554
Fe11 O18 2.034309 1_555
Fe11 O24 2.079650 1_554
Fe11 O14 2.079650 1_555
Fe12 O23 2.026848 1_554
Fe12 O19 2.026848 1_555
Fe12 O16 2.034309 1_555
Fe12 O21 2.034309 1_554
Fe12 O25 2.079650 1_554
Fe12 O15 2.079650 1_555
Fe13 O30 1.988220 1_555
Fe13 O28 2.022201 1_555
Fe13 O18 2.059121 1_556
Fe13 O16 2.059121 1_556
Fe14 O17 2.029713 1_656
Fe14 O19 2.029713 1_566
Fe14 O31 2.042255 1_665
Fe14 O29 2.044381 1_555
Fe15 O21 1.978882 1_555
Fe15 O28 2.021642 1_555
Fe15 O29 2.029405 1_555
Fe15 O27 2.057933 1_655
Fe15 O25 2.091644 1_555
Fe15 O1 2.128135 1_555
Fe16 O30 1.985113 1_555
Fe16 O20 1.989212 1_545
Fe16 O31 2.041307 1_555
Fe16 O26 2.068878 1_555
Fe16 O2 2.092693 1_555
Fe16 O24 2.128332 1_545
Fe17 O22 1.978882 1_555
Fe17 O28 2.021642 1_555
Fe17 O29 2.029405 1_555
Fe17 O26 2.057933 1_565
Fe17 O24 2.091644 1_555
Fe17 O0 2.128135 1_555
Fe18 O30 1.985113 1_555
Fe18 O23 1.989212 1_455
Fe18 O31 2.041307 1_555
Fe18 O27 2.068878 1_555
Fe18 O3 2.092693 1_555
Fe18 O25 2.128332 1_455
Co0 O9 1.943886 1_555
Co0 O28 1.958155 1_555
Co0 O6 2.020425 1_555
Co0 O7 2.020425 1_555
Co0 O0 2.036314 1_555
Co0 O1 2.036314 1_555
Co1 O30 2.082322 1_555
Co1 O10 2.082322 1_555
Co1 O6 2.118999 1_555
Co1 O7 2.118999 1_555
Co1 O3 2.118999 1_555
Co1 O2 2.118999 1_555
Co2 O31 1.943886 1_555
Co2 O11 1.958155 1_555
Co2 O2 2.020425 1_555
Co2 O3 2.020425 1_555
Co2 O5 2.036314 1_555
Co2 O4 2.036314 1_555
Co3 O16 2.092913 1_555
Co3 O22 2.092913 1_544
Co3 O19 2.095015 1_555
Co3 O20 2.095015 1_544
Co3 O13 2.191917 1_545
Co3 O26 2.191917 1_554
Co4 O18 2.092913 1_555
Co4 O21 2.092913 1_454
Co4 O17 2.095015 1_555
Co4 O23 2.095015 1_454
Co4 O12 2.191917 1_455
Co4 O27 2.191917 1_554
