# generated using pymatgen
data_Li(CoO2)2
_symmetry_space_group_name_H-M   'P 1'
_cell_length_a   8.05765542
_cell_length_b   8.06588136
_cell_length_c   8.06780121
_cell_angle_alpha   90.05901291
_cell_angle_beta   90.02203600
_cell_angle_gamma   90.02985827
_symmetry_Int_Tables_number   1
_chemical_formula_structural   Li(CoO2)2
_chemical_formula_sum   'Li8 Co16 O32'
_cell_volume   524.34289529
_cell_formula_units_Z   8
loop_
 _symmetry_equiv_pos_site_id
 _symmetry_equiv_pos_as_xyz
  1  'x, y, z'
loop_
 _atom_site_type_symbol
 _atom_site_label
 _atom_site_symmetry_multiplicity
 _atom_site_fract_x
 _atom_site_fract_y
 _atom_site_fract_z
 _atom_site_occupancy
  Li  Li0  1  0.99900800  0.99712100  0.00035300  1
  Li  Li1  1  0.25177200  0.25082500  0.24791100  1
  Li  Li2  1  0.25207700  0.74957300  0.74880100  1
  Li  Li3  1  0.49921000  0.99606700  0.50149000  1
  Li  Li4  1  0.49842700  0.50233400  0.00168500  1
  Li  Li5  1  0.74782200  0.24999500  0.75081800  1
  Li  Li6  1  0.74907900  0.75031500  0.24738100  1
  Li  Li7  1  0.00055200  0.50379400  0.50051400  1
  Co  Co0  1  0.12427600  0.12529500  0.62441700  1
  Co  Co1  1  0.12344000  0.37626600  0.87547200  1
  Co  Co2  1  0.12678200  0.87398700  0.37224400  1
  Co  Co3  1  0.12569900  0.62545800  0.12555800  1
  Co  Co4  1  0.37473200  0.37448800  0.62428400  1
  Co  Co5  1  0.37521700  0.12303900  0.87761000  1
  Co  Co6  1  0.37581200  0.62516400  0.37484500  1
  Co  Co7  1  0.37578200  0.87431200  0.12473100  1
  Co  Co8  1  0.62409400  0.37561500  0.37575700  1
  Co  Co9  1  0.62545600  0.12342600  0.12480900  1
  Co  Co10  1  0.62525700  0.62630600  0.62623800  1
  Co  Co11  1  0.62545300  0.87442100  0.87532700  1
  Co  Co12  1  0.87408700  0.12466300  0.37442200  1
  Co  Co13  1  0.87571700  0.37710500  0.12551800  1
  Co  Co14  1  0.87489200  0.87496200  0.62540600  1
  Co  Co15  1  0.87473600  0.62545400  0.87337300  1
  O  O0  1  0.10946400  0.11193200  0.38727400  1
  O  O1  1  0.11696300  0.89266100  0.60915100  1
  O  O2  1  0.11558500  0.60720500  0.88877300  1
  O  O3  1  0.13414000  0.14103500  0.86099300  1
  O  O4  1  0.10831500  0.38675700  0.11188200  1
  O  O5  1  0.13505100  0.35837200  0.63809100  1
  O  O6  1  0.13962000  0.64212800  0.36180200  1
  O  O7  1  0.13602100  0.86147300  0.14118200  1
  O  O8  1  0.35680500  0.13373700  0.64114800  1
  O  O9  1  0.35716600  0.36081000  0.86255200  1
  O  O10  1  0.36116300  0.63864100  0.13993800  1
  O  O11  1  0.39070100  0.60864700  0.61398100  1
  O  O12  1  0.35926600  0.86116800  0.36245100  1
  O  O13  1  0.39136200  0.38611600  0.38847700  1
  O  O14  1  0.39078500  0.11507500  0.10810300  1
  O  O15  1  0.38800600  0.89210600  0.88593800  1
  O  O16  1  0.61041100  0.38854400  0.60942300  1
  O  O17  1  0.61656200  0.60946800  0.39036300  1
  O  O18  1  0.61203500  0.88944100  0.11144500  1
  O  O19  1  0.64111800  0.36374600  0.14149400  1
  O  O20  1  0.60903000  0.11114500  0.88982500  1
  O  O21  1  0.63896200  0.14002500  0.36605600  1
  O  O22  1  0.64041700  0.85958600  0.63704400  1
  O  O23  1  0.63750300  0.63614500  0.85783500  1
  O  O24  1  0.86013300  0.36096100  0.36334800  1
  O  O25  1  0.86588900  0.14134800  0.14251000  1
  O  O26  1  0.86223600  0.86053500  0.85972100  1
  O  O27  1  0.88961300  0.89163400  0.38518800  1
  O  O28  1  0.85952500  0.64124400  0.63677700  1
  O  O29  1  0.89056500  0.11717700  0.60797600  1
  O  O30  1  0.89104800  0.38438200  0.89077900  1
  O  O31  1  0.88516500  0.60691000  0.10965600  1
loop_
_geom_bond_atom_site_label_1
_geom_bond_atom_site_label_2
_geom_bond_distance
_geom_bond_site_symmetry_2
Li0 O7 1.926054 1_655
Li0 O26 1.926330 1_554
Li0 O3 1.949220 1_664
Li0 O25 1.954150 1_565
Li1 O14 1.930163 1_555
Li1 O13 1.933181 1_555
Li1 O4 1.935334 1_555
Li1 O0 1.958654 1_555
Li2 O11 1.929385 1_555
Li2 O15 1.934053 1_555
Li2 O1 1.946719 1_555
Li2 O2 1.950839 1_555
Li3 O22 1.924908 1_555
Li3 O12 1.925870 1_555
Li3 O21 1.952536 1_565
Li3 O8 1.954218 1_565
Li4 O10 1.917252 1_555
Li4 O23 1.941624 1_554
Li4 O19 1.961301 1_555
Li4 O9 1.963073 1_554
Li5 O20 1.940342 1_555
Li5 O30 1.943458 1_555
Li5 O16 1.943968 1_555
Li5 O29 1.948950 1_555
Li6 O18 1.919455 1_555
Li6 O17 1.940059 1_555
Li6 O31 1.942821 1_555
Li6 O27 1.952622 1_555
Li7 O28 1.930989 1_455
Li7 O6 1.937849 1_555
Li7 O5 1.945608 1_555
Li7 O24 1.956304 1_455
Co0 O8 1.879636 1_555
Co0 O1 1.881200 1_545
Co0 O5 1.885045 1_555
Co0 O29 1.888874 1_455
Co0 O3 1.914353 1_555
Co0 O0 1.919810 1_555
Co1 O2 1.866812 1_555
Co1 O30 1.877821 1_455
Co1 O9 1.890379 1_555
Co1 O3 1.902819 1_555
Co1 O4 1.913034 1_556
Co1 O5 1.922742 1_555
Co2 O7 1.868304 1_555
Co2 O6 1.874869 1_555
Co2 O12 1.877870 1_555
Co2 O1 1.918755 1_555
Co2 O27 1.919269 1_455
Co2 O0 1.928071 1_565
Co3 O10 1.903697 1_555
Co3 O7 1.909475 1_555
Co3 O6 1.913811 1_555
Co3 O2 1.917546 1_554
Co3 O4 1.933384 1_555
Co3 O31 1.947998 1_455
Co4 O11 1.894921 1_555
Co4 O16 1.906170 1_555
Co4 O13 1.909606 1_555
Co4 O9 1.930821 1_555
Co4 O5 1.938822 1_555
Co4 O8 1.952050 1_555
Co5 O14 1.864925 1_556
Co5 O15 1.866857 1_545
Co5 O20 1.889015 1_555
Co5 O8 1.915468 1_555
Co5 O9 1.927369 1_555
Co5 O3 1.952573 1_555
Co6 O10 1.902034 1_555
Co6 O6 1.911004 1_555
Co6 O12 1.911030 1_555
Co6 O13 1.935502 1_555
Co6 O11 1.937709 1_555
Co6 O17 1.948061 1_555
Co7 O10 1.908556 1_555
Co7 O18 1.910546 1_555
Co7 O12 1.925566 1_555
Co7 O15 1.934564 1_554
Co7 O7 1.939237 1_555
Co7 O14 1.950422 1_565
Co8 O13 1.880068 1_555
Co8 O17 1.890794 1_555
Co8 O16 1.891208 1_555
Co8 O19 1.897333 1_555
Co8 O21 1.905605 1_555
Co8 O24 1.908312 1_555
Co9 O18 1.893294 1_545
Co9 O14 1.896800 1_555
Co9 O20 1.902843 1_554
Co9 O19 1.946948 1_555
Co9 O25 1.947813 1_555
Co9 O21 1.953782 1_555
Co10 O23 1.872643 1_555
Co10 O22 1.887429 1_555
Co10 O28 1.893302 1_555
Co10 O11 1.897790 1_555
Co10 O17 1.908950 1_555
Co10 O16 1.926066 1_555
Co11 O18 1.911782 1_556
Co11 O26 1.915442 1_555
Co11 O20 1.917490 1_565
Co11 O15 1.920586 1_555
Co11 O23 1.929433 1_555
Co11 O22 1.929838 1_555
Co12 O25 1.877132 1_555
Co12 O27 1.885896 1_545
Co12 O29 1.889918 1_555
Co12 O21 1.899846 1_555
Co12 O0 1.902212 1_655
Co12 O24 1.911503 1_555
Co13 O31 1.859645 1_555
Co13 O4 1.879040 1_655
Co13 O19 1.897769 1_555
Co13 O30 1.898865 1_554
Co13 O25 1.908269 1_555
Co13 O24 1.927451 1_555
Co14 O28 1.891462 1_555
Co14 O22 1.895690 1_555
Co14 O26 1.896884 1_555
Co14 O27 1.946488 1_555
Co14 O1 1.960120 1_655
Co14 O29 1.962881 1_565
Co15 O26 1.902164 1_555
Co15 O31 1.914114 1_556
Co15 O28 1.917064 1_555
Co15 O23 1.917590 1_555
Co15 O2 1.950252 1_655
Co15 O30 1.954157 1_555
