# generated using pymatgen
data_Co(Bi5O8)5
_symmetry_space_group_name_H-M   'P 1'
_cell_length_a   10.34986200
_cell_length_b   10.34986200
_cell_length_c   10.34986200
_cell_angle_alpha   90.00000000
_cell_angle_beta   90.00000000
_cell_angle_gamma   90.00000000
_symmetry_Int_Tables_number   1
_chemical_formula_structural   Co(Bi5O8)5
_chemical_formula_sum   'Co1 Bi25 O40'
_cell_volume   1108.67352688
_cell_formula_units_Z   1
loop_
 _symmetry_equiv_pos_site_id
 _symmetry_equiv_pos_as_xyz
  1  'x, y, z'
loop_
 _atom_site_type_symbol
 _atom_site_label
 _atom_site_symmetry_multiplicity
 _atom_site_fract_x
 _atom_site_fract_y
 _atom_site_fract_z
 _atom_site_occupancy
  Co  Co0  1  0.00000000  0.00000000  0.00000000  1
  Bi  Bi0  1  0.98178500  0.31960700  0.17681200  1
  Bi  Bi1  1  0.98178500  0.68039300  0.82318800  1
  Bi  Bi2  1  0.82318800  0.01821500  0.31960700  1
  Bi  Bi3  1  0.82318800  0.98178500  0.68039300  1
  Bi  Bi4  1  0.81912900  0.32172100  0.51060900  1
  Bi  Bi5  1  0.81912900  0.67827900  0.48939100  1
  Bi  Bi6  1  0.68039300  0.17681200  0.01821500  1
  Bi  Bi7  1  0.68039300  0.82318800  0.98178500  1
  Bi  Bi8  1  0.67827900  0.51060900  0.18087100  1
  Bi  Bi9  1  0.67827900  0.48939100  0.81912900  1
  Bi  Bi10  1  0.51060900  0.81912900  0.32172100  1
  Bi  Bi11  1  0.51060900  0.18087100  0.67827900  1
  Bi  Bi12  1  0.50000000  0.50000000  0.50000000  1
  Bi  Bi13  1  0.48939100  0.18087100  0.32172100  1
  Bi  Bi14  1  0.48939100  0.81912900  0.67827900  1
  Bi  Bi15  1  0.32172100  0.51060900  0.81912900  1
  Bi  Bi16  1  0.32172100  0.48939100  0.18087100  1
  Bi  Bi17  1  0.31960700  0.82318800  0.01821500  1
  Bi  Bi18  1  0.31960700  0.17681200  0.98178500  1
  Bi  Bi19  1  0.18087100  0.32172100  0.48939100  1
  Bi  Bi20  1  0.18087100  0.67827900  0.51060900  1
  Bi  Bi21  1  0.17681200  0.98178500  0.31960700  1
  Bi  Bi22  1  0.17681200  0.01821500  0.68039300  1
  Bi  Bi23  1  0.01821500  0.68039300  0.17681200  1
  Bi  Bi24  1  0.01821500  0.31960700  0.82318800  1
  O  O0  1  0.98995000  0.75165000  0.36648900  1
  O  O1  1  0.98995000  0.24835000  0.63351100  1
  O  O2  1  0.90510300  0.90510300  0.09489700  1
  O  O3  1  0.90510300  0.09489700  0.90510300  1
  O  O4  1  0.87164800  0.49096600  0.24438700  1
  O  O5  1  0.87164800  0.50903400  0.75561300  1
  O  O6  1  0.80538100  0.19461900  0.19461900  1
  O  O7  1  0.80538100  0.80538100  0.80538100  1
  O  O8  1  0.75165000  0.63351100  0.01005000  1
  O  O9  1  0.75165000  0.36648900  0.98995000  1
  O  O10  1  0.75561300  0.12835200  0.49096600  1
  O  O11  1  0.75561300  0.87164800  0.50903400  1
  O  O12  1  0.68501700  0.68501700  0.31498300  1
  O  O13  1  0.68501700  0.31498300  0.68501700  1
  O  O14  1  0.63351100  0.01005000  0.75165000  1
  O  O15  1  0.63351100  0.98995000  0.24835000  1
  O  O16  1  0.62638800  0.62638800  0.62638800  1
  O  O17  1  0.62638800  0.37361200  0.37361200  1
  O  O18  1  0.50903400  0.24438700  0.12835200  1
  O  O19  1  0.50903400  0.75561300  0.87164800  1
  O  O20  1  0.49096600  0.75561300  0.12835200  1
  O  O21  1  0.49096600  0.24438700  0.87164800  1
  O  O22  1  0.37361200  0.62638800  0.37361200  1
  O  O23  1  0.37361200  0.37361200  0.62638800  1
  O  O24  1  0.36648900  0.01005000  0.24835000  1
  O  O25  1  0.36648900  0.98995000  0.75165000  1
  O  O26  1  0.31498300  0.68501700  0.68501700  1
  O  O27  1  0.31498300  0.31498300  0.31498300  1
  O  O28  1  0.24438700  0.87164800  0.49096600  1
  O  O29  1  0.24438700  0.12835200  0.50903400  1
  O  O30  1  0.24835000  0.36648900  0.01005000  1
  O  O31  1  0.24835000  0.63351100  0.98995000  1
  O  O32  1  0.19461900  0.80538100  0.19461900  1
  O  O33  1  0.19461900  0.19461900  0.80538100  1
  O  O34  1  0.12835200  0.50903400  0.24438700  1
  O  O35  1  0.12835200  0.49096600  0.75561300  1
  O  O36  1  0.09489700  0.09489700  0.09489700  1
  O  O37  1  0.09489700  0.90510300  0.90510300  1
  O  O38  1  0.01005000  0.75165000  0.63351100  1
  O  O39  1  0.01005000  0.24835000  0.36648900  1
loop_
_geom_bond_atom_site_label_1
_geom_bond_atom_site_label_2
_geom_bond_distance
_geom_bond_site_symmetry_2
Co0 O36 1.701170 1_555
Co0 O2 1.701170 1_445
Co0 O37 1.701170 1_544
Co0 O3 1.701170 1_454
Bi0 O39 2.117396 1_655
Bi0 O4 2.221256 1_555
Bi0 O6 2.245168 1_555
Bi0 O34 2.575657 1_655
Bi0 O36 2.738296 1_655
Bi1 O38 2.117396 1_655
Bi1 O5 2.221256 1_555
Bi1 O7 2.245168 1_555
Bi1 O35 2.575657 1_655
Bi1 O37 2.738296 1_655
Bi2 O15 2.117396 1_545
Bi2 O10 2.221256 1_555
Bi2 O6 2.245168 1_555
Bi2 O11 2.575657 1_545
Bi2 O2 2.738296 1_545
Bi3 O14 2.117396 1_565
Bi3 O11 2.221256 1_555
Bi3 O7 2.245168 1_555
Bi3 O10 2.575657 1_565
Bi3 O3 2.738296 1_565
Bi4 O10 2.116330 1_555
Bi4 O13 2.278136 1_555
Bi4 O1 2.306604 1_555
Bi4 O17 2.505649 1_555
Bi4 O39 2.589632 1_655
Bi5 O11 2.116330 1_555
Bi5 O12 2.278136 1_555
Bi5 O0 2.306604 1_555
Bi5 O16 2.505649 1_555
Bi5 O38 2.589632 1_655
Bi6 O9 2.117396 1_554
Bi6 O18 2.221256 1_555
Bi6 O6 2.245168 1_555
Bi6 O21 2.575657 1_554
Bi6 O3 2.738296 1_554
Bi7 O8 2.117396 1_556
Bi7 O19 2.221256 1_555
Bi7 O7 2.245168 1_555
Bi7 O20 2.575657 1_556
Bi7 O2 2.738296 1_556
Bi8 O4 2.116330 1_555
Bi8 O12 2.278136 1_555
Bi8 O8 2.306604 1_555
Bi8 O17 2.505649 1_555
Bi8 O9 2.589632 1_554
Bi9 O5 2.116330 1_555
Bi9 O13 2.278136 1_555
Bi9 O9 2.306604 1_555
Bi9 O16 2.505649 1_555
Bi9 O8 2.589632 1_556
Bi10 O20 2.116330 1_555
Bi10 O12 2.278136 1_555
Bi10 O15 2.306604 1_555
Bi10 O22 2.505649 1_555
Bi10 O24 2.589632 1_565
Bi11 O21 2.116330 1_555
Bi11 O13 2.278136 1_555
Bi11 O14 2.306604 1_555
Bi11 O23 2.505649 1_555
Bi11 O25 2.589632 1_545
Bi12 O16 2.265693 1_555
Bi12 O17 2.265693 1_555
Bi12 O22 2.265693 1_555
Bi12 O23 2.265693 1_555
Bi13 O18 2.116330 1_555
Bi13 O27 2.278136 1_555
Bi13 O24 2.306604 1_555
Bi13 O17 2.505649 1_555
Bi13 O15 2.589632 1_545
Bi14 O19 2.116330 1_555
Bi14 O26 2.278136 1_555
Bi14 O25 2.306604 1_555
Bi14 O16 2.505649 1_555
Bi14 O14 2.589632 1_565
Bi15 O35 2.116330 1_555
Bi15 O26 2.278136 1_555
Bi15 O31 2.306604 1_555
Bi15 O23 2.505649 1_555
Bi15 O30 2.589632 1_556
Bi16 O34 2.116330 1_555
Bi16 O27 2.278136 1_555
Bi16 O30 2.306604 1_555
Bi16 O22 2.505649 1_555
Bi16 O31 2.589632 1_554
Bi17 O31 2.117396 1_554
Bi17 O20 2.221256 1_555
Bi17 O32 2.245168 1_555
Bi17 O19 2.575657 1_554
Bi17 O37 2.738296 1_554
Bi18 O30 2.117396 1_556
Bi18 O21 2.221256 1_555
Bi18 O33 2.245168 1_555
Bi18 O18 2.575657 1_556
Bi18 O36 2.738296 1_556
Bi19 O29 2.116330 1_555
Bi19 O27 2.278136 1_555
Bi19 O39 2.306604 1_555
Bi19 O23 2.505649 1_555
Bi19 O1 2.589632 1_455
Bi20 O28 2.116330 1_555
Bi20 O26 2.278136 1_555
Bi20 O38 2.306604 1_555
Bi20 O22 2.505649 1_555
Bi20 O0 2.589632 1_455
Bi21 O24 2.117396 1_565
Bi21 O28 2.221256 1_555
Bi21 O32 2.245168 1_555
Bi21 O29 2.575657 1_565
Bi21 O36 2.738296 1_565
Bi22 O25 2.117396 1_545
Bi22 O29 2.221256 1_555
Bi22 O33 2.245168 1_555
Bi22 O28 2.575657 1_545
Bi22 O37 2.738296 1_545
Bi23 O0 2.117396 1_455
Bi23 O34 2.221256 1_555
Bi23 O32 2.245168 1_555
Bi23 O4 2.575657 1_455
Bi23 O2 2.738296 1_455
Bi24 O1 2.117396 1_455
Bi24 O35 2.221256 1_555
Bi24 O33 2.245168 1_555
Bi24 O5 2.575657 1_455
Bi24 O3 2.738296 1_455
