# generated using pymatgen
data_Li3Mn2F7
_symmetry_space_group_name_H-M   'P 1'
_cell_length_a   6.02647221
_cell_length_b   6.02647221
_cell_length_c   10.39465980
_cell_angle_alpha   80.92843705
_cell_angle_beta   80.92843705
_cell_angle_gamma   50.84573088
_symmetry_Int_Tables_number   1
_chemical_formula_structural   Li3Mn2F7
_chemical_formula_sum   'Li6 Mn4 F14'
_cell_volume   288.24980125
_cell_formula_units_Z   2
loop_
 _symmetry_equiv_pos_site_id
 _symmetry_equiv_pos_as_xyz
  1  'x, y, z'
loop_
 _atom_site_type_symbol
 _atom_site_label
 _atom_site_symmetry_multiplicity
 _atom_site_fract_x
 _atom_site_fract_y
 _atom_site_fract_z
 _atom_site_occupancy
  Li  Li0  1  0.29392200  0.82495200  0.87302700  1
  Li  Li1  1  0.82495200  0.29392200  0.37302700  1
  Li  Li2  1  0.50595500  0.99873800  0.50407400  1
  Li  Li3  1  0.99873800  0.50595500  0.00407400  1
  Li  Li4  1  0.17743400  0.70773500  0.62520500  1
  Li  Li5  1  0.70773500  0.17743400  0.12520500  1
  Mn  Mn0  1  0.90417600  0.42106300  0.65865300  1
  Mn  Mn1  1  0.42106300  0.90417600  0.15865300  1
  Mn  Mn2  1  0.57933400  0.09688500  0.84190600  1
  Mn  Mn3  1  0.09688500  0.57933400  0.34190600  1
  F  F0  1  0.58585300  0.73754600  0.96858500  1
  F  F1  1  0.16453500  0.23237000  0.82083000  1
  F  F2  1  0.17295200  0.01421900  0.59768700  1
  F  F3  1  0.73754600  0.58585300  0.46858500  1
  F  F4  1  0.23237000  0.16453500  0.32083000  1
  F  F5  1  0.01421900  0.17295200  0.09768700  1
  F  F6  1  0.98728100  0.82802300  0.90285200  1
  F  F7  1  0.76377800  0.83935900  0.67711300  1
  F  F8  1  0.26844100  0.41262100  0.53213100  1
  F  F9  1  0.82802300  0.98728100  0.40285200  1
  F  F10  1  0.52542900  0.47588400  0.75077100  1
  F  F11  1  0.83935900  0.76377800  0.17711300  1
  F  F12  1  0.41262100  0.26844100  0.03213100  1
  F  F13  1  0.47588400  0.52542900  0.25077100  1
loop_
_geom_bond_atom_site_label_1
_geom_bond_atom_site_label_2
_geom_bond_distance
_geom_bond_site_symmetry_2
F0 Li0 1.890785 1_555
F0 Li3 2.004228 1_556
F0 Mn1 2.155355 1_556
F0 Mn2 2.331252 1_565
F1 Li0 2.055845 1_545
F1 Mn2 2.121870 1_555
F1 Mn0 2.138519 1_455
F1 Li3 2.377950 1_456
F2 Li4 1.807445 1_545
F2 Li2 2.039451 1_545
F2 Mn0 2.046423 1_455
F3 Li1 1.890785 1_555
F3 Li2 2.004228 1_555
F3 Mn0 2.155355 1_555
F3 Mn3 2.331252 1_655
F4 Li1 2.055845 1_455
F4 Mn3 2.121870 1_555
F4 Mn1 2.138519 1_545
F4 Li2 2.377950 1_545
F5 Li5 1.807445 1_455
F5 Li3 2.039451 1_455
F5 Mn1 2.046423 1_545
F6 Li0 1.813666 1_655
F6 Li3 2.022065 1_556
F6 Mn2 2.051308 1_565
F7 Li4 2.085306 1_655
F7 Mn0 2.124913 1_555
F7 Mn2 2.153563 1_565
F7 Li2 2.241399 1_555
F8 Li4 1.882374 1_555
F8 Li2 1.986052 1_545
F8 Mn3 2.166700 1_555
F8 Mn0 2.349666 1_455
F9 Li1 1.813666 1_565
F9 Li2 2.022065 1_555
F9 Mn3 2.051308 1_655
F10 Li0 2.136443 1_555
F10 Li4 2.154465 1_555
F10 Mn0 2.166599 1_555
F10 Mn2 2.167367 1_555
F11 Li5 2.085306 1_565
F11 Mn1 2.124913 1_555
F11 Mn3 2.153563 1_655
F11 Li3 2.241399 1_555
F12 Li5 1.882374 1_555
F12 Li3 1.986052 1_455
F12 Mn2 2.166700 1_554
F12 Mn1 2.349666 1_545
F13 Li1 2.136443 1_555
F13 Li5 2.154465 1_555
F13 Mn1 2.166599 1_555
F13 Mn3 2.167367 1_555
