# generated using pymatgen
data_Ga3NO3
_symmetry_space_group_name_H-M   'P 1'
_cell_length_a   8.31764400
_cell_length_b   8.31764400
_cell_length_c   3.14282500
_cell_angle_alpha   90.00000000
_cell_angle_beta   90.00000000
_cell_angle_gamma   119.99999997
_symmetry_Int_Tables_number   1
_chemical_formula_structural   Ga3NO3
_chemical_formula_sum   'Ga6 N2 O6'
_cell_volume   188.30050613
_cell_formula_units_Z   2
loop_
 _symmetry_equiv_pos_site_id
 _symmetry_equiv_pos_as_xyz
  1  'x, y, z'
loop_
 _atom_site_type_symbol
 _atom_site_label
 _atom_site_symmetry_multiplicity
 _atom_site_fract_x
 _atom_site_fract_y
 _atom_site_fract_z
 _atom_site_occupancy
  Ga  Ga0  1  0.17487700  0.76149100  0.25000000  1
  Ga  Ga1  1  0.23850900  0.41338600  0.25000000  1
  Ga  Ga2  1  0.58661400  0.82512300  0.25000000  1
  Ga  Ga3  1  0.41338600  0.17487700  0.75000000  1
  Ga  Ga4  1  0.76149100  0.58661400  0.75000000  1
  Ga  Ga5  1  0.82512300  0.23850900  0.75000000  1
  N  N0  1  0.33333300  0.66666700  0.25000000  1
  N  N1  1  0.66666700  0.33333300  0.75000000  1
  O  O0  1  0.02649200  0.70742900  0.75000000  1
  O  O1  1  0.29257100  0.31906300  0.75000000  1
  O  O2  1  0.68093700  0.97350800  0.75000000  1
  O  O3  1  0.31906300  0.02649200  0.25000000  1
  O  O4  1  0.70742900  0.68093700  0.25000000  1
  O  O5  1  0.97350800  0.29257100  0.25000000  1
loop_
_geom_bond_atom_site_label_1
_geom_bond_atom_site_label_2
_geom_bond_distance
_geom_bond_site_symmetry_2
Ga0 N0 1.843542 1_555
Ga0 O0 1.907835 1_554
Ga0 O0 1.907835 1_555
Ga0 O3 1.911352 1_565
Ga1 N0 1.843550 1_555
Ga1 O1 1.907835 1_555
Ga1 O1 1.907835 1_554
Ga1 O5 1.911352 1_455
Ga2 N0 1.843549 1_555
Ga2 O2 1.907835 1_555
Ga2 O2 1.907835 1_554
Ga2 O4 1.911352 1_555
Ga3 N1 1.843549 1_555
Ga3 O3 1.907835 1_556
Ga3 O3 1.907835 1_555
Ga3 O1 1.911352 1_555
Ga4 N1 1.843550 1_555
Ga4 O4 1.907835 1_555
Ga4 O4 1.907835 1_556
Ga4 O0 1.911352 1_655
Ga5 N1 1.843542 1_555
Ga5 O5 1.907835 1_555
Ga5 O5 1.907835 1_556
Ga5 O2 1.911352 1_545
