# generated using pymatgen
data_LiP4WO12
_symmetry_space_group_name_H-M   'P 1'
_cell_length_a   8.73801053
_cell_length_b   8.73801053
_cell_length_c   9.77335174
_cell_angle_alpha   60.36740297
_cell_angle_beta   60.36740297
_cell_angle_gamma   50.55388410
_symmetry_Int_Tables_number   1
_chemical_formula_structural   LiP4WO12
_chemical_formula_sum   'Li2 P8 W2 O24'
_cell_volume   482.47721453
_cell_formula_units_Z   2
loop_
 _symmetry_equiv_pos_site_id
 _symmetry_equiv_pos_as_xyz
  1  'x, y, z'
loop_
 _atom_site_type_symbol
 _atom_site_label
 _atom_site_symmetry_multiplicity
 _atom_site_fract_x
 _atom_site_fract_y
 _atom_site_fract_z
 _atom_site_occupancy
  Li  Li0  1  0.68852400  0.31147600  0.75000000  1
  Li  Li1  1  0.31147600  0.68852400  0.25000000  1
  P  P0  1  0.02880200  0.68497600  0.17325000  1
  P  P1  1  0.44253600  0.29480900  0.13299100  1
  P  P2  1  0.70519100  0.55746400  0.36700900  1
  P  P3  1  0.31502400  0.97119800  0.32675000  1
  P  P4  1  0.68497700  0.02880200  0.67325000  1
  P  P5  1  0.29480900  0.44253600  0.63299100  1
  P  P6  1  0.55746400  0.70519100  0.86700900  1
  P  P7  1  0.97119800  0.31502300  0.82675000  1
  W  W0  1  0.13629300  0.86370700  0.75000000  1
  W  W1  1  0.86370700  0.13629300  0.25000000  1
  O  O0  1  0.59797700  0.19483400  0.22107900  1
  O  O1  1  0.23480100  0.47545700  0.21694100  1
  O  O2  1  0.01676000  0.73745000  0.00642600  1
  O  O3  1  0.85702800  0.63679300  0.31204900  1
  O  O4  1  0.97838400  0.16254200  0.78840800  1
  O  O5  1  0.36320700  0.14297200  0.18795100  1
  O  O6  1  0.26255000  0.98324000  0.49357400  1
  O  O7  1  0.63503100  0.50726800  0.54757100  1
  O  O8  1  0.49273200  0.36496900  0.95242900  1
  O  O9  1  0.52454300  0.76519900  0.28305900  1
  O  O10  1  0.80516600  0.40202300  0.27892100  1
  O  O11  1  0.83745800  0.02161600  0.71159200  1
  O  O12  1  0.16254200  0.97838400  0.28840800  1
  O  O13  1  0.19483400  0.59797700  0.72107900  1
  O  O14  1  0.47545700  0.23480100  0.71694100  1
  O  O15  1  0.50726800  0.63503100  0.04757100  1
  O  O16  1  0.36496900  0.49273200  0.45242900  1
  O  O17  1  0.73745000  0.01676000  0.50642600  1
  O  O18  1  0.63679300  0.85702800  0.81204900  1
  O  O19  1  0.02161600  0.83745800  0.21159200  1
  O  O20  1  0.14297200  0.36320700  0.68795100  1
  O  O21  1  0.98324000  0.26255000  0.99357400  1
  O  O22  1  0.76519900  0.52454300  0.78305900  1
  O  O23  1  0.40202300  0.80516600  0.77892100  1
loop_
_geom_bond_atom_site_label_1
_geom_bond_atom_site_label_2
_geom_bond_distance
_geom_bond_site_symmetry_2
Li0 O7 1.900204 1_555
Li0 O8 1.900204 1_555
Li0 O11 2.125618 1_555
Li0 O4 2.125618 1_555
Li0 O22 2.532479 1_555
Li0 O14 2.532479 1_555
Li1 O16 1.900204 1_555
Li1 O15 1.900204 1_555
Li1 O19 2.125618 1_555
Li1 O12 2.125618 1_555
Li1 O9 2.532479 1_555
Li1 O1 2.532479 1_555
O0 P1 1.501340 1_555
O0 W1 2.174803 1_555
O1 P0 1.604258 1_555
O1 P1 1.620741 1_555
O2 P0 1.499564 1_555
O2 W0 2.174964 1_554
O3 P0 1.579593 1_655
O3 P2 1.620188 1_555
O4 P7 1.511209 1_555
O4 W0 2.177620 1_645
O5 P3 1.579593 1_545
O5 P1 1.620188 1_555
O6 P3 1.499564 1_555
O6 W0 2.174964 1_555
O7 P2 1.479470 1_555
O8 P1 1.479470 1_556
O9 P3 1.604258 1_555
O9 P2 1.620741 1_555
O10 P2 1.501340 1_555
O10 W1 2.174803 1_555
O11 P4 1.511209 1_555
O11 W0 2.177620 1_645
O12 P3 1.511218 1_555
O12 W1 2.177620 1_465
O13 P5 1.501340 1_555
O13 W0 2.174803 1_555
O14 P4 1.604261 1_555
O14 P5 1.620741 1_555
O15 P6 1.479470 1_554
O16 P5 1.479470 1_555
O17 P4 1.499566 1_555
O17 W1 2.174964 1_555
O18 P4 1.579597 1_565
O18 P6 1.620188 1_555
O19 P0 1.511218 1_555
O19 W1 2.177620 1_465
O20 P7 1.579597 1_455
O20 P5 1.620188 1_555
O21 P7 1.499566 1_555
O21 W1 2.174964 1_556
O22 P7 1.604261 1_555
O22 P6 1.620741 1_555
O23 P6 1.501340 1_555
O23 W0 2.174803 1_555
