# generated using pymatgen
data_La9ErO15
_symmetry_space_group_name_H-M   'P 1'
_cell_length_a   6.79007300
_cell_length_b   7.30229191
_cell_length_c   9.97186254
_cell_angle_alpha   108.05814471
_cell_angle_beta   89.99890256
_cell_angle_gamma   117.70419786
_symmetry_Int_Tables_number   1
_chemical_formula_structural   La9ErO15
_chemical_formula_sum   'La9 Er1 O15'
_cell_volume   410.04746971
_cell_formula_units_Z   1
loop_
 _symmetry_equiv_pos_site_id
 _symmetry_equiv_pos_as_xyz
  1  'x, y, z'
loop_
 _atom_site_type_symbol
 _atom_site_label
 _atom_site_symmetry_multiplicity
 _atom_site_fract_x
 _atom_site_fract_y
 _atom_site_fract_z
 _atom_site_occupancy
  La  La0  1  0.23065100  0.69768000  0.54873000  1
  La  La1  1  0.03319400  0.09507900  0.15278000  1
  La  La2  1  0.83079100  0.49964900  0.74761500  1
  La  La3  1  0.43312800  0.29359100  0.95301700  1
  La  La4  1  0.37035700  0.11158400  0.64653600  1
  La  La5  1  0.56958200  0.70181900  0.05061500  1
  La  La6  1  0.17005900  0.50639900  0.25065700  1
  La  La7  1  0.96855900  0.90453100  0.84913000  1
  La  La8  1  0.76598600  0.30897600  0.44758200  1
  Er  Er0  1  0.64029400  0.91962900  0.34695500  1
  O  O0  1  0.99996400  0.99863600  0.00115800  1
  O  O1  1  0.99146300  0.01803000  0.33035600  1
  O  O2  1  0.39996700  0.20065700  0.79974700  1
  O  O3  1  0.59108900  0.77374000  0.87172100  1
  O  O4  1  0.60817600  0.82775500  0.52086800  1
  O  O5  1  0.20829000  0.62321100  0.72949400  1
  O  O6  1  0.19240700  0.57264300  0.07182200  1
  O  O7  1  0.20600400  0.60177600  0.39900400  1
  O  O8  1  0.78862300  0.36527900  0.27252900  1
  O  O9  1  0.39003500  0.16890100  0.47118500  1
  O  O10  1  0.80880700  0.42419200  0.92947000  1
  O  O11  1  0.41772000  0.20960100  0.13946100  1
  O  O12  1  0.79437800  0.40453500  0.59574300  1
  O  O13  1  0.98994500  0.97599200  0.66996700  1
  O  O14  1  0.60013100  0.79591200  0.20406100  1
loop_
_geom_bond_atom_site_label_1
_geom_bond_atom_site_label_2
_geom_bond_distance
_geom_bond_site_symmetry_2
La0 O7 1.410829 1_555
La0 O5 2.024570 1_555
La0 O4 2.334556 1_555
La1 O0 1.423030 1_445
La1 O1 2.000465 1_455
La1 O11 2.360662 1_555
La2 O12 1.423133 1_555
La2 O10 2.038976 1_555
La2 O5 2.316810 1_655
La3 O2 1.436004 1_555
La3 O11 2.119191 1_556
La3 O10 2.312679 1_555
La4 O2 1.435269 1_555
La4 O9 1.911091 1_555
La4 O13 2.339304 1_445
La5 O14 1.439497 1_555
La5 O3 1.997244 1_554
La5 O6 2.317514 1_555
La6 O7 1.391465 1_555
La6 O6 1.975803 1_555
La6 O8 2.339906 1_455
La7 O0 1.426133 1_556
La7 O13 1.998202 1_555
La7 O3 2.321510 1_555
La8 O12 1.393805 1_555
La8 O8 1.904198 1_555
La8 O9 2.310735 1_555
Er0 O14 1.376149 1_555
Er0 O4 2.022497 1_555
Er0 O1 2.170252 1_565
