# generated using pymatgen
data_KV13O20
_symmetry_space_group_name_H-M   'P 1'
_cell_length_a   7.64135800
_cell_length_b   8.58508535
_cell_length_c   12.90738216
_cell_angle_alpha   87.38773724
_cell_angle_beta   75.14507178
_cell_angle_gamma   87.55910647
_symmetry_Int_Tables_number   1
_chemical_formula_structural   KV13O20
_chemical_formula_sum   'K2 V26 O40'
_cell_volume   817.17706814
_cell_formula_units_Z   2
loop_
 _symmetry_equiv_pos_site_id
 _symmetry_equiv_pos_as_xyz
  1  'x, y, z'
loop_
 _atom_site_type_symbol
 _atom_site_label
 _atom_site_symmetry_multiplicity
 _atom_site_fract_x
 _atom_site_fract_y
 _atom_site_fract_z
 _atom_site_occupancy
  K  K0  1  0.00068900  0.80030600  0.19085200  1
  K  K1  1  0.99931100  0.19969400  0.80914800  1
  V  V0  1  0.79884500  0.86121400  0.97240300  1
  V  V1  1  0.81062900  0.82986100  0.66931800  1
  V  V2  1  0.82265900  0.60316600  0.85509500  1
  V  V3  1  0.46078600  0.91522300  0.89689900  1
  V  V4  1  0.54615500  0.68959600  0.50486700  1
  V  V5  1  0.54252900  0.87812700  0.29692400  1
  V  V6  1  0.53876000  0.49109900  0.70630800  1
  V  V7  1  0.54550700  0.28267100  0.90055000  1
  V  V8  1  0.80385100  0.26054600  0.57439800  1
  V  V9  1  0.80631100  0.46810100  0.36591500  1
  V  V10  1  0.17921900  0.79759900  0.74814500  1
  V  V11  1  0.18341600  0.99580300  0.54493000  1
  V  V12  1  0.18855100  0.57170000  0.93431600  1
  V  V13  1  0.81658400  0.00419700  0.45507000  1
  V  V14  1  0.82078100  0.20240100  0.25185500  1
  V  V15  1  0.81144900  0.42830000  0.06568400  1
  V  V16  1  0.19614900  0.73945400  0.42560200  1
  V  V17  1  0.19368900  0.53189900  0.63408500  1
  V  V18  1  0.45449300  0.71732900  0.09945000  1
  V  V19  1  0.45384500  0.31040400  0.49513300  1
  V  V20  1  0.46124000  0.50890100  0.29369200  1
  V  V21  1  0.45747100  0.12187300  0.70307600  1
  V  V22  1  0.53921400  0.08477700  0.10310100  1
  V  V23  1  0.18937100  0.17013900  0.33068200  1
  V  V24  1  0.17734100  0.39683400  0.14490500  1
  V  V25  1  0.20115500  0.13878600  0.02759700  1
  O  O0  1  0.91556600  0.83987000  0.80980900  1
  O  O1  1  0.60540600  0.73479100  0.94451300  1
  O  O2  1  0.58913900  0.94168200  0.74608100  1
  O  O3  1  0.74649800  0.39933000  0.92532400  1
  O  O4  1  0.73670000  0.80575800  0.53159800  1
  O  O5  1  0.73919800  0.61173500  0.72313400  1
  O  O6  1  0.25927200  0.79082200  0.87681300  1
  O  O7  1  0.25579300  0.00617000  0.67804800  1
  O  O8  1  0.39258100  0.86308800  0.45548200  1
  O  O9  1  0.41147900  0.46232500  0.85659800  1
  O  O10  1  0.39011200  0.66438600  0.65496900  1
  O  O11  1  0.65936500  0.27439700  0.72433800  1
  O  O12  1  0.65973900  0.86581100  0.12674700  1
  O  O13  1  0.65547000  0.65735000  0.34654700  1
  O  O14  1  0.65992000  0.05763100  0.94241000  1
  O  O15  1  0.67257500  0.45936400  0.52970000  1
  O  O16  1  0.91352500  0.44664200  0.21384600  1
  O  O17  1  0.92210500  0.64764700  0.98936000  1
  O  O18  1  0.91945600  0.05482700  0.59640400  1
  O  O19  1  0.91961400  0.25005000  0.40459500  1
  O  O20  1  0.08647500  0.55335800  0.78615400  1
  O  O21  1  0.08054400  0.94517300  0.40359600  1
  O  O22  1  0.08038600  0.74995000  0.59540500  1
  O  O23  1  0.07789500  0.35235300  0.01064000  1
  O  O24  1  0.34008000  0.94236900  0.05759000  1
  O  O25  1  0.32742500  0.54063600  0.47030000  1
  O  O26  1  0.34063500  0.72560300  0.27566200  1
  O  O27  1  0.34026100  0.13418900  0.87325300  1
  O  O28  1  0.34453000  0.34265000  0.65345300  1
  O  O29  1  0.58852100  0.53767500  0.14340200  1
  O  O30  1  0.60988800  0.33561400  0.34503100  1
  O  O31  1  0.60741900  0.13691200  0.54451800  1
  O  O32  1  0.74420700  0.99383000  0.32195200  1
  O  O33  1  0.74072800  0.20917800  0.12318700  1
  O  O34  1  0.25350200  0.60067000  0.07467600  1
  O  O35  1  0.26080200  0.38826500  0.27686600  1
  O  O36  1  0.26330000  0.19424200  0.46840200  1
  O  O37  1  0.39459400  0.26520900  0.05548700  1
  O  O38  1  0.41086100  0.05831800  0.25391900  1
  O  O39  1  0.08443400  0.16013000  0.19019100  1
loop_
_geom_bond_atom_site_label_1
_geom_bond_atom_site_label_2
_geom_bond_distance
_geom_bond_site_symmetry_2
K0 O34 2.717518 1_555
K0 O32 2.782670 1_455
K0 O12 2.954100 1_455
K0 O24 2.993792 1_555
K0 O26 3.099925 1_555
K0 O16 3.120768 1_455
K0 O13 3.136285 1_455
K0 O17 3.165524 1_454
K0 O39 3.180474 1_565
K0 O21 3.270254 1_555
K1 O3 2.717518 1_555
K1 O7 2.782670 1_655
K1 O27 2.954100 1_655
K1 O14 2.993792 1_555
K1 O11 3.099925 1_555
K1 O20 3.120768 1_655
K1 O28 3.136285 1_655
K1 O23 3.165524 1_656
K1 O0 3.180474 1_545
K1 O18 3.270254 1_555
O0 V10 1.991464 1_655
O0 V0 2.072398 1_555
O0 V1 2.168944 1_555
O0 V2 2.185644 1_555
O1 V0 1.984331 1_555
O1 V3 2.028314 1_555
O1 V18 2.038761 1_556
O1 V2 2.083655 1_555
O2 V21 1.946531 1_565
O2 V3 1.950066 1_555
O2 V1 1.963737 1_555
O3 V7 1.968795 1_555
O3 V2 1.973415 1_555
O3 V15 2.025585 1_556
O4 V4 1.909504 1_555
O4 V13 1.968920 1_565
O4 V1 2.019954 1_555
O5 V6 1.947257 1_555
O5 V2 1.963374 1_555
O5 V1 2.015258 1_555
O6 V10 1.909134 1_555
O6 V3 1.987195 1_555
O6 V12 2.033573 1_555
O7 V11 1.942009 1_545
O7 V21 1.970005 1_555
O7 V10 2.009315 1_545
O8 V16 1.999549 1_555
O8 V4 2.037161 1_555
O8 V11 2.050445 1_555
O8 V5 2.074639 1_555
O9 V6 1.944063 1_555
O9 V7 1.957847 1_555
O9 V12 1.965512 1_555
O10 V17 1.999999 1_555
O10 V4 2.005360 1_555
O10 V6 2.023526 1_555
O10 V10 2.079884 1_555
O11 V8 1.973021 1_555
O11 V6 2.071003 1_555
O11 V21 2.142872 1_555
O11 V7 2.220334 1_555
O12 V0 2.004498 1_554
O12 V22 2.102264 1_565
O12 V5 2.154650 1_555
O12 V18 2.168730 1_555
O13 V9 1.995488 1_555
O13 V4 2.026549 1_555
O13 V5 2.186548 1_555
O13 V20 2.247660 1_555
O14 V0 2.029536 1_545
O14 V22 2.061986 1_556
O14 V7 2.189072 1_555
O14 V3 2.199424 1_545
O15 V8 2.076935 1_555
O15 V9 2.098440 1_555
O15 V4 2.209323 1_555
O15 V6 2.270209 1_555
O15 V19 2.290083 1_555
O16 V9 1.937355 1_555
O16 V24 2.019913 1_655
O16 V14 2.234761 1_555
O16 V15 2.256803 1_555
O17 V0 2.053959 1_555
O17 V12 2.064625 1_655
O17 V2 2.118227 1_555
O17 V15 2.184263 1_556
O18 V8 1.982483 1_555
O18 V11 2.005751 1_645
O18 V1 2.208440 1_545
O18 V13 2.229667 1_555
O19 V9 2.121691 1_555
O19 V23 2.135577 1_655
O19 V8 2.147403 1_555
O19 V13 2.291811 1_555
O19 V14 2.342574 1_555
O20 V17 1.937355 1_555
O20 V2 2.019913 1_455
O20 V10 2.234761 1_555
O20 V12 2.256803 1_555
O21 V16 1.982483 1_555
O21 V13 2.005751 1_465
O21 V23 2.208440 1_565
O21 V11 2.229667 1_555
O22 V17 2.121691 1_555
O22 V1 2.135577 1_455
O22 V16 2.147403 1_555
O22 V11 2.291811 1_555
O22 V10 2.342574 1_555
O23 V25 2.053959 1_555
O23 V15 2.064625 1_455
O23 V24 2.118227 1_555
O23 V12 2.184263 1_554
O24 V25 2.029536 1_565
O24 V3 2.061986 1_554
O24 V18 2.189072 1_555
O24 V22 2.199424 1_565
O25 V16 2.076935 1_555
O25 V17 2.098440 1_555
O25 V19 2.209323 1_555
O25 V20 2.270209 1_555
O25 V4 2.290083 1_555
O26 V16 1.973021 1_555
O26 V20 2.071003 1_555
O26 V5 2.142872 1_555
O26 V18 2.220334 1_555
O27 V25 2.004498 1_556
O27 V3 2.102264 1_545
O27 V21 2.154650 1_555
O27 V7 2.168730 1_555
O28 V17 1.995488 1_555
O28 V19 2.026549 1_555
O28 V21 2.186548 1_555
O28 V6 2.247660 1_555
O29 V20 1.944063 1_555
O29 V18 1.957847 1_555
O29 V15 1.965512 1_555
O30 V9 1.999999 1_555
O30 V19 2.005360 1_555
O30 V20 2.023526 1_555
O30 V14 2.079884 1_555
O31 V8 1.999549 1_555
O31 V19 2.037161 1_555
O31 V13 2.050445 1_555
O31 V21 2.074639 1_555
O32 V13 1.942009 1_565
O32 V5 1.970005 1_555
O32 V14 2.009315 1_565
O33 V14 1.909134 1_555
O33 V22 1.987195 1_555
O33 V15 2.033573 1_555
O34 V18 1.968795 1_555
O34 V24 1.973415 1_555
O34 V12 2.025585 1_554
O35 V20 1.947257 1_555
O35 V24 1.963374 1_555
O35 V23 2.015258 1_555
O36 V19 1.909504 1_555
O36 V11 1.968920 1_545
O36 V23 2.019954 1_555
O37 V25 1.984331 1_555
O37 V22 2.028314 1_555
O37 V7 2.038761 1_554
O37 V24 2.083655 1_555
O38 V5 1.946531 1_545
O38 V22 1.950066 1_555
O38 V23 1.963737 1_555
O39 V14 1.991464 1_455
O39 V25 2.072398 1_555
O39 V23 2.168944 1_555
O39 V24 2.185644 1_555
