# generated using pymatgen
data_Ca3W2O9
_symmetry_space_group_name_H-M   'P 1'
_cell_length_a   7.79125200
_cell_length_b   8.57187900
_cell_length_c   9.31314069
_cell_angle_alpha   62.28534723
_cell_angle_beta   90.00000000
_cell_angle_gamma   90.00000000
_symmetry_Int_Tables_number   1
_chemical_formula_structural   Ca3W2O9
_chemical_formula_sum   'Ca6 W4 O18'
_cell_volume   550.62700709
_cell_formula_units_Z   2
loop_
 _symmetry_equiv_pos_site_id
 _symmetry_equiv_pos_as_xyz
  1  'x, y, z'
loop_
 _atom_site_type_symbol
 _atom_site_label
 _atom_site_symmetry_multiplicity
 _atom_site_fract_x
 _atom_site_fract_y
 _atom_site_fract_z
 _atom_site_occupancy
  Ca  Ca0  1  0.75000000  0.89228100  0.75025700  1
  Ca  Ca1  1  0.00000000  0.00000000  0.00000000  1
  Ca  Ca2  1  0.50000000  0.00000000  0.00000000  1
  Ca  Ca3  1  0.75000000  0.62849800  0.21546200  1
  Ca  Ca4  1  0.25000000  0.37150200  0.78453800  1
  Ca  Ca5  1  0.25000000  0.10771900  0.24974300  1
  W  W0  1  0.25000000  0.83744600  0.72689800  1
  W  W1  1  0.75000000  0.44390100  0.70753400  1
  W  W2  1  0.25000000  0.55609900  0.29246600  1
  W  W3  1  0.75000000  0.16255400  0.27310200  1
  O  O0  1  0.75000000  0.88243400  0.99153200  1
  O  O1  1  0.44203100  0.92616400  0.77594200  1
  O  O2  1  0.05796900  0.92616400  0.77594200  1
  O  O3  1  0.25000000  0.89151400  0.51494600  1
  O  O4  1  0.75000000  0.63304200  0.74321400  1
  O  O5  1  0.25000000  0.60084300  0.84223200  1
  O  O6  1  0.44200400  0.69027200  0.20401000  1
  O  O7  1  0.05799600  0.69027200  0.20401000  1
  O  O8  1  0.75000000  0.52390500  0.49133900  1
  O  O9  1  0.25000000  0.47609500  0.50866100  1
  O  O10  1  0.94200400  0.30972800  0.79599000  1
  O  O11  1  0.55799600  0.30972800  0.79599000  1
  O  O12  1  0.75000000  0.39915700  0.15776800  1
  O  O13  1  0.25000000  0.36695800  0.25678600  1
  O  O14  1  0.75000000  0.10848600  0.48505400  1
  O  O15  1  0.94203100  0.07383600  0.22405800  1
  O  O16  1  0.55796900  0.07383600  0.22405800  1
  O  O17  1  0.25000000  0.11756600  0.00846800  1
loop_
_geom_bond_atom_site_label_1
_geom_bond_atom_site_label_2
_geom_bond_distance
_geom_bond_site_symmetry_2
Ca0 O0 2.209037 1_555
Ca0 O4 2.253419 1_555
Ca0 O14 2.297247 1_565
Ca0 O2 2.442054 1_655
Ca0 O1 2.442054 1_555
Ca1 O17 2.211267 1_555
Ca1 O0 2.211267 1_444
Ca1 O7 2.484134 1_545
Ca1 O10 2.484134 1_454
Ca1 O15 2.487416 1_455
Ca1 O2 2.487416 1_544
Ca2 O17 2.211267 1_555
Ca2 O0 2.211267 1_544
Ca2 O11 2.484134 1_554
Ca2 O6 2.484134 1_545
Ca2 O16 2.487416 1_555
Ca2 O1 2.487416 1_544
Ca3 O0 2.205668 1_554
Ca3 O12 2.266252 1_555
Ca3 O8 2.294002 1_555
Ca3 O7 2.449015 1_655
Ca3 O6 2.449015 1_555
Ca4 O17 2.205668 1_556
Ca4 O5 2.266252 1_555
Ca4 O9 2.294002 1_555
Ca4 O11 2.449015 1_555
Ca4 O10 2.449015 1_455
Ca5 O17 2.209037 1_555
Ca5 O13 2.253419 1_555
Ca5 O3 2.297247 1_545
Ca5 O16 2.442054 1_555
Ca5 O15 2.442054 1_455
O1 W0 1.829901 1_555
O2 W0 1.829901 1_555
O3 W0 1.805629 1_555
O4 W1 1.800033 1_555
O5 W0 1.800220 1_555
O6 W2 1.832488 1_555
O7 W2 1.832488 1_555
O8 W1 1.799992 1_555
O9 W2 1.799992 1_555
O10 W1 1.832488 1_555
O11 W1 1.832488 1_555
O12 W3 1.800220 1_555
O13 W2 1.800033 1_555
O14 W3 1.805629 1_555
O15 W3 1.829901 1_555
O16 W3 1.829901 1_555
