# generated using pymatgen
data_Li3MnFe2(BO3)3
_symmetry_space_group_name_H-M   'P 1'
_cell_length_a   3.15082500
_cell_length_b   8.25993000
_cell_length_c   14.28893849
_cell_angle_alpha   89.98496726
_cell_angle_beta   90.00000000
_cell_angle_gamma   90.00000000
_symmetry_Int_Tables_number   1
_chemical_formula_structural   Li3MnFe2(BO3)3
_chemical_formula_sum   'Li6 Mn2 Fe4 B6 O18'
_cell_volume   371.87809825
_cell_formula_units_Z   2
loop_
 _symmetry_equiv_pos_site_id
 _symmetry_equiv_pos_as_xyz
  1  'x, y, z'
loop_
 _atom_site_type_symbol
 _atom_site_label
 _atom_site_symmetry_multiplicity
 _atom_site_fract_x
 _atom_site_fract_y
 _atom_site_fract_z
 _atom_site_occupancy
  Li  Li0  1  0.50000000  0.70820400  0.99117000  1
  Li  Li1  1  0.50000000  0.66001600  0.35762800  1
  Li  Li2  1  0.50000000  0.63527300  0.65082800  1
  Li  Li3  1  0.50000000  0.20600400  0.49149400  1
  Li  Li4  1  0.50000000  0.15903400  0.85817300  1
  Li  Li5  1  0.50000000  0.13342200  0.15039700  1
  Mn  Mn0  1  0.00000000  0.32583500  0.31400700  1
  Mn  Mn1  1  0.00000000  0.30855100  0.68005200  1
  Fe  Fe0  1  0.00000000  0.86095100  0.50371900  1
  Fe  Fe1  1  0.00000000  0.82387700  0.81515400  1
  Fe  Fe2  1  0.00000000  0.81120000  0.18012700  1
  Fe  Fe3  1  0.00000000  0.36426400  0.00407300  1
  B  B0  1  0.50000000  0.99764300  0.66674900  1
  B  B1  1  0.00000000  0.00037900  0.00010300  1
  B  B2  1  0.50000000  0.99778000  0.33310400  1
  B  B3  1  0.50000000  0.50226000  0.16540000  1
  B  B4  1  0.00000000  0.50106400  0.50061100  1
  B  B5  1  0.50000000  0.50115800  0.83478600  1
  O  O0  1  0.50000000  0.98637100  0.43033600  1
  O  O1  1  0.50000000  0.98108100  0.76378700  1
  O  O2  1  0.50000000  0.86174300  0.60917500  1
  O  O3  1  0.50000000  0.85831800  0.27862200  1
  O  O4  1  0.00000000  0.84888900  0.95742700  1
  O  O5  1  0.50000000  0.65625200  0.12587400  1
  O  O6  1  0.50000000  0.65245800  0.79155800  1
  O  O7  1  0.00000000  0.63820700  0.44376900  1
  O  O8  1  0.00000000  0.51840800  0.59743300  1
  O  O9  1  0.50000000  0.48989400  0.93194200  1
  O  O10  1  0.50000000  0.48587000  0.26262000  1
  O  O11  1  0.50000000  0.36450100  0.10901500  1
  O  O12  1  0.50000000  0.36140100  0.78091200  1
  O  O13  1  0.00000000  0.34707600  0.46054500  1
  O  O14  1  0.50000000  0.15127300  0.62636800  1
  O  O15  1  0.50000000  0.14862400  0.29026000  1
  O  O16  1  0.00000000  0.14025700  0.94546000  1
  O  O17  1  0.00000000  0.01245900  0.09732700  1
loop_
_geom_bond_atom_site_label_1
_geom_bond_atom_site_label_2
_geom_bond_distance
_geom_bond_site_symmetry_2
Li0 O5 1.971922 1_556
Li0 O9 1.992148 1_555
Li0 O4 2.016050 1_555
Li0 O4 2.016050 1_655
Li1 O10 1.978154 1_555
Li1 O3 1.989067 1_555
Li1 O7 2.007308 1_555
Li1 O7 2.007308 1_655
Li2 O2 1.962879 1_555
Li2 O8 1.999053 1_655
Li2 O8 1.999053 1_555
Li2 O6 2.015923 1_555
Li3 O14 1.979403 1_555
Li3 O13 2.008735 1_555
Li3 O13 2.008735 1_655
Li3 O0 2.013866 1_545
Li4 O1 1.995122 1_545
Li4 O12 2.002957 1_555
Li4 O16 2.015312 1_655
Li4 O16 2.015312 1_555
Li5 O11 1.998042 1_555
Li5 O15 2.002468 1_555
Li5 O17 2.013866 1_555
Li5 O17 2.013866 1_655
Mn0 O13 2.101256 1_555
Mn0 O15 2.177128 1_455
Mn0 O15 2.177128 1_555
Mn0 O10 2.183557 1_555
Mn0 O10 2.183557 1_455
Mn1 O8 2.096971 1_555
Mn1 O12 2.179410 1_455
Mn1 O12 2.179410 1_555
Mn1 O14 2.181409 1_455
Mn1 O14 2.181409 1_555
Fe0 O7 2.029698 1_555
Fe0 O0 2.157326 1_555
Fe0 O0 2.157326 1_455
Fe0 O2 2.180042 1_555
Fe0 O2 2.180042 1_455
Fe1 O4 2.043455 1_555
Fe1 O6 2.144913 1_555
Fe1 O6 2.144913 1_455
Fe1 O1 2.169386 1_555
Fe1 O1 2.169386 1_455
Fe2 O17 2.040166 1_565
Fe2 O3 2.148121 1_555
Fe2 O3 2.148121 1_455
Fe2 O5 2.172889 1_555
Fe2 O5 2.172889 1_455
Fe3 O16 2.031205 1_554
Fe3 O9 2.149527 1_454
Fe3 O9 2.149527 1_554
Fe3 O11 2.174962 1_455
Fe3 O11 2.174962 1_555
B0 O2 1.391881 1_555
B0 O1 1.393266 1_555
B0 O14 1.393858 1_565
B1 O4 1.392118 1_544
B1 O17 1.392833 1_555
B1 O16 1.394299 1_554
B2 O15 1.388093 1_565
B2 O3 1.390503 1_555
B2 O0 1.392510 1_555
B3 O5 1.391580 1_555
B3 O11 1.394408 1_555
B3 O10 1.395716 1_555
B4 O8 1.390919 1_555
B4 O7 1.393708 1_555
B4 O13 1.394971 1_555
B5 O12 1.387682 1_555
B5 O9 1.391346 1_555
B5 O6 1.393896 1_555
