# generated using pymatgen
data_Mn6O7F5
_symmetry_space_group_name_H-M   'P 1'
_cell_length_a   5.55069700
_cell_length_b   5.58061997
_cell_length_c   7.35333912
_cell_angle_alpha   73.82823197
_cell_angle_beta   72.68221872
_cell_angle_gamma   71.24878022
_symmetry_Int_Tables_number   1
_chemical_formula_structural   Mn6O7F5
_chemical_formula_sum   'Mn6 O7 F5'
_cell_volume   201.65696949
_cell_formula_units_Z   1
loop_
 _symmetry_equiv_pos_site_id
 _symmetry_equiv_pos_as_xyz
  1  'x, y, z'
loop_
 _atom_site_type_symbol
 _atom_site_label
 _atom_site_symmetry_multiplicity
 _atom_site_fract_x
 _atom_site_fract_y
 _atom_site_fract_z
 _atom_site_occupancy
  Mn  Mn0  1  0.30209800  0.32084200  0.16186700  1
  Mn  Mn1  1  0.65306200  0.67410800  0.32402300  1
  Mn  Mn2  1  0.37038800  0.33745400  0.68231200  1
  Mn  Mn3  1  0.64581300  0.69170800  0.83582700  1
  Mn  Mn4  1  0.00231800  0.02359500  0.49615800  1
  Mn  Mn5  1  0.00946500  0.97074300  0.00294300  1
  O  O0  1  0.34718800  0.98165600  0.32947700  1
  O  O1  1  0.76509700  0.76372800  0.03714700  1
  O  O2  1  0.22637900  0.20874400  0.97173600  1
  O  O3  1  0.57351400  0.57824800  0.62402300  1
  O  O4  1  0.66317900  0.04706200  0.66401200  1
  O  O5  1  0.96162600  0.37403600  0.32312000  1
  O  O6  1  0.30058100  0.66709400  0.00505900  1
  F  F0  1  0.04854500  0.63899000  0.66886200  1
  F  F1  1  0.12968400  0.11700600  0.69316700  1
  F  F2  1  0.41765300  0.42577300  0.36304800  1
  F  F3  1  0.89286900  0.89973300  0.30853300  1
  F  F4  1  0.69053800  0.27947600  0.00868600  1
loop_
_geom_bond_atom_site_label_1
_geom_bond_atom_site_label_2
_geom_bond_distance
_geom_bond_site_symmetry_2
Mn0 O2 1.878492 1_554
Mn0 O5 1.888642 1_455
Mn0 O0 1.934983 1_545
Mn0 O6 1.953873 1_555
Mn1 O5 1.973125 1_555
Mn1 O1 1.979422 1_555
Mn1 O0 1.988530 1_555
Mn1 O3 2.064507 1_555
Mn2 O4 1.893039 1_555
Mn2 O3 1.904268 1_555
Mn2 O2 2.046724 1_555
Mn3 O1 1.969134 1_556
Mn3 O6 1.973297 1_556
Mn3 O3 2.018033 1_555
Mn3 O4 2.047665 1_565
Mn4 O4 1.905920 1_455
Mn4 O0 1.922596 1_545
Mn4 O5 1.998920 1_455
Mn5 O6 1.929428 1_555
Mn5 O1 1.969842 1_455
Mn5 O2 1.990051 1_564
F0 Mn2 2.027961 1_555
F0 Mn4 2.146381 1_565
F0 Mn3 2.176132 1_455
F1 Mn4 2.034095 1_555
F1 Mn2 2.059980 1_555
F1 Mn5 2.170220 1_546
F2 Mn0 2.057116 1_555
F2 Mn1 2.104727 1_555
F2 Mn2 2.212499 1_555
F3 Mn4 2.012603 1_665
F3 Mn1 2.068232 1_555
F3 Mn5 2.104383 1_655
F4 Mn5 2.034499 1_645
F4 Mn0 2.085629 1_555
F4 Mn3 2.271887 1_554
