# generated using pymatgen
data_AgHg
_symmetry_space_group_name_H-M   'P 1'
_cell_length_a   5.53146300
_cell_length_b   5.53146300
_cell_length_c   5.53146300
_cell_angle_alpha   90.00000000
_cell_angle_beta   90.00000000
_cell_angle_gamma   90.00000000
_symmetry_Int_Tables_number   1
_chemical_formula_structural   AgHg
_chemical_formula_sum   'Ag4 Hg4'
_cell_volume   169.24663208
_cell_formula_units_Z   4
loop_
 _symmetry_equiv_pos_site_id
 _symmetry_equiv_pos_as_xyz
  1  'x, y, z'
loop_
 _atom_site_type_symbol
 _atom_site_label
 _atom_site_symmetry_multiplicity
 _atom_site_fract_x
 _atom_site_fract_y
 _atom_site_fract_z
 _atom_site_occupancy
  Ag  Ag0  1  0.14881700  0.35118300  0.64881700  1
  Ag  Ag1  1  0.35118300  0.64881700  0.14881700  1
  Ag  Ag2  1  0.64881700  0.14881700  0.35118300  1
  Ag  Ag3  1  0.85118300  0.85118300  0.85118300  1
  Hg  Hg0  1  0.15476800  0.15476800  0.15476800  1
  Hg  Hg1  1  0.34523200  0.84523200  0.65476800  1
  Hg  Hg2  1  0.65476800  0.34523200  0.84523200  1
  Hg  Hg3  1  0.84523200  0.65476800  0.34523200  1
loop_
_geom_bond_atom_site_label_1
_geom_bond_atom_site_label_2
_geom_bond_distance
_geom_bond_site_symmetry_2
Ag0 Hg3 2.908580 1_455
Ag0 Hg2 2.941047 1_455
Ag0 Hg0 2.941047 1_555
Ag0 Hg1 2.941047 1_555
Ag0 Hg2 3.002319 1_555
Ag0 Hg1 3.002319 1_545
Ag0 Hg0 3.002319 1_556
Ag1 Hg2 2.908580 1_554
Ag1 Hg3 2.941047 1_555
Ag1 Hg0 2.941047 1_555
Ag1 Hg1 2.941047 1_554
Ag1 Hg3 3.002319 1_455
Ag1 Hg1 3.002319 1_555
Ag1 Hg0 3.002319 1_565
Ag2 Hg1 2.908580 1_545
Ag2 Hg2 2.941047 1_555
Ag2 Hg0 2.941047 1_555
Ag2 Hg3 2.941047 1_545
Ag2 Hg2 3.002319 1_554
Ag2 Hg3 3.002319 1_555
Ag2 Hg0 3.002319 1_655
Ag3 Hg0 2.908580 1_666
Ag3 Hg1 2.941047 1_655
Ag3 Hg3 2.941047 1_556
Ag3 Hg2 2.941047 1_565
Ag3 Hg2 3.002319 1_555
Ag3 Hg3 3.002319 1_555
Ag3 Hg1 3.002319 1_555
