# generated using pymatgen
data_Li3MnF6
_symmetry_space_group_name_H-M   'P 1'
_cell_length_a   5.15088898
_cell_length_b   5.15088898
_cell_length_c   9.64674238
_cell_angle_alpha   88.70504215
_cell_angle_beta   88.70504215
_cell_angle_gamma   120.65819617
_symmetry_Int_Tables_number   1
_chemical_formula_structural   Li3MnF6
_chemical_formula_sum   'Li6 Mn2 F12'
_cell_volume   219.93980024
_cell_formula_units_Z   2
loop_
 _symmetry_equiv_pos_site_id
 _symmetry_equiv_pos_as_xyz
  1  'x, y, z'
loop_
 _atom_site_type_symbol
 _atom_site_label
 _atom_site_symmetry_multiplicity
 _atom_site_fract_x
 _atom_site_fract_y
 _atom_site_fract_z
 _atom_site_occupancy
  Li  Li0  1  0.35569200  0.66856400  0.05112300  1
  Li  Li1  1  0.99340800  0.98049900  0.74908100  1
  Li  Li2  1  0.98049900  0.99340800  0.24908100  1
  Li  Li3  1  0.32499900  0.66556200  0.44856100  1
  Li  Li4  1  0.66556200  0.32499900  0.94856100  1
  Li  Li5  1  0.66856400  0.35569200  0.55112300  1
  Mn  Mn0  1  0.33327400  0.66544800  0.75029400  1
  Mn  Mn1  1  0.66544800  0.33327400  0.25029400  1
  F  F0  1  0.32174800  0.36298000  0.63323000  1
  F  F1  1  0.03601700  0.35565700  0.86854300  1
  F  F2  1  0.65771300  0.66827500  0.87471700  1
  F  F3  1  0.63938900  0.97419100  0.63372700  1
  F  F4  1  0.02209800  0.68086000  0.62372600  1
  F  F5  1  0.68086000  0.02209800  0.12372600  1
  F  F6  1  0.32998500  0.96078200  0.86672100  1
  F  F7  1  0.96078200  0.32998500  0.36672100  1
  F  F8  1  0.35565700  0.03601700  0.36854300  1
  F  F9  1  0.36298000  0.32174800  0.13323000  1
  F  F10  1  0.97419100  0.63938900  0.13372700  1
  F  F11  1  0.66827500  0.65771300  0.37471700  1
loop_
_geom_bond_atom_site_label_1
_geom_bond_atom_site_label_2
_geom_bond_distance
_geom_bond_site_symmetry_2
F0 Mn0 1.922065 1_555
F0 Li5 1.955970 1_555
F0 Li1 2.099450 1_445
F0 Li3 2.334423 1_555
F1 Mn0 1.881216 1_555
F1 Li4 1.970411 1_455
F1 Li1 2.188598 1_445
F1 Li0 2.442148 1_556
F2 Li4 1.911232 1_555
F2 Li1 2.006584 1_555
F2 Mn0 2.073704 1_555
F2 Li0 2.280105 1_556
F3 Mn0 1.887194 1_555
F3 Li5 2.035121 1_565
F3 Li1 2.144174 1_555
F3 Li3 2.444170 1_555
F4 Li5 1.900550 1_455
F4 Li1 2.043321 1_455
F4 Mn0 2.068811 1_555
F4 Li3 2.303916 1_555
F5 Li0 1.900550 1_545
F5 Li2 2.043321 1_545
F5 Mn1 2.068811 1_555
F5 Li4 2.303916 1_554
F6 Mn0 1.917949 1_555
F6 Li4 1.988001 1_565
F6 Li1 2.137072 1_455
F6 Li0 2.353806 1_556
F7 Mn1 1.917949 1_555
F7 Li3 1.988001 1_655
F7 Li2 2.137072 1_545
F7 Li5 2.353806 1_555
F8 Mn1 1.881216 1_555
F8 Li3 1.970411 1_545
F8 Li2 2.188598 1_445
F8 Li5 2.442148 1_555
F9 Mn1 1.922065 1_555
F9 Li0 1.955970 1_555
F9 Li2 2.099450 1_445
F9 Li4 2.334423 1_554
F10 Mn1 1.887194 1_555
F10 Li0 2.035121 1_655
F10 Li2 2.144174 1_555
F10 Li4 2.444170 1_554
F11 Li3 1.911232 1_555
F11 Li2 2.006584 1_555
F11 Mn1 2.073704 1_555
F11 Li5 2.280105 1_555
