# generated using pymatgen
data_UAs2H6O11
_symmetry_space_group_name_H-M   'P 1'
_cell_length_a   8.08597326
_cell_length_b   8.08597326
_cell_length_c   9.10408189
_cell_angle_alpha   62.30367968
_cell_angle_beta   62.30367968
_cell_angle_gamma   68.58412281
_symmetry_Int_Tables_number   1
_chemical_formula_structural   UAs2H6O11
_chemical_formula_sum   'U2 As4 H12 O22'
_cell_volume   458.14394839
_cell_formula_units_Z   2
loop_
 _symmetry_equiv_pos_site_id
 _symmetry_equiv_pos_as_xyz
  1  'x, y, z'
loop_
 _atom_site_type_symbol
 _atom_site_label
 _atom_site_symmetry_multiplicity
 _atom_site_fract_x
 _atom_site_fract_y
 _atom_site_fract_z
 _atom_site_occupancy
  U  U0  1  0.65791300  0.34208700  0.75000000  1
  U  U1  1  0.34208700  0.65791300  0.25000000  1
  As  As0  1  0.81077700  0.81205700  0.44249800  1
  As  As1  1  0.81205700  0.81077700  0.94249800  1
  As  As2  1  0.18794300  0.18922300  0.05750200  1
  As  As3  1  0.18922300  0.18794300  0.55750200  1
  H  H0  1  0.34203200  0.68462400  0.82526900  1
  H  H1  1  0.00136500  0.79071800  0.08210700  1
  H  H2  1  0.31537600  0.65796800  0.67473100  1
  H  H3  1  0.63983400  0.83891100  0.28197500  1
  H  H4  1  0.16108900  0.36016600  0.21802500  1
  H  H5  1  0.20928200  0.99863500  0.41789300  1
  H  H6  1  0.79071800  0.00136500  0.58210700  1
  H  H7  1  0.83891100  0.63983400  0.78197500  1
  H  H8  1  0.36016600  0.16108900  0.71802500  1
  H  H9  1  0.68462400  0.34203200  0.32526900  1
  H  H10  1  0.99863500  0.20928200  0.91789300  1
  H  H11  1  0.65796800  0.31537600  0.17473100  1
  O  O0  1  0.25891600  0.98574200  0.21251100  1
  O  O1  1  0.76243000  0.63755100  0.64885400  1
  O  O2  1  0.38854400  0.70131000  0.02172700  1
  O  O3  1  0.01425800  0.74108400  0.28748900  1
  O  O4  1  0.62582500  0.90059600  0.36316200  1
  O  O5  1  0.01038900  0.83283000  0.95669700  1
  O  O6  1  0.39029800  0.60970200  0.75000000  1
  O  O7  1  0.16717000  0.98961100  0.54330300  1
  O  O8  1  0.70131000  0.38854400  0.52172700  1
  O  O9  1  0.09940400  0.37417500  0.13683800  1
  O  O10  1  0.63755100  0.76243000  0.14885400  1
  O  O11  1  0.36244900  0.23757000  0.85114600  1
  O  O12  1  0.90059600  0.62582500  0.86316200  1
  O  O13  1  0.29869000  0.61145600  0.47827300  1
  O  O14  1  0.83283000  0.01038900  0.45669700  1
  O  O15  1  0.60970200  0.39029800  0.25000000  1
  O  O16  1  0.98961100  0.16717000  0.04330300  1
  O  O17  1  0.37417500  0.09940400  0.63683800  1
  O  O18  1  0.98574200  0.25891600  0.71251100  1
  O  O19  1  0.61145600  0.29869000  0.97827300  1
  O  O20  1  0.23757000  0.36244900  0.35114600  1
  O  O21  1  0.74108400  0.01425800  0.78748900  1
loop_
_geom_bond_atom_site_label_1
_geom_bond_atom_site_label_2
_geom_bond_distance
_geom_bond_site_symmetry_2
As0 O1 1.711505 1_555
As0 O3 1.712575 1_655
As0 O4 1.735613 1_555
As0 O14 1.744523 1_565
As1 O10 1.711505 1_556
As1 O21 1.712575 1_565
As1 O12 1.735613 1_555
As1 O5 1.744523 1_655
As2 O11 1.711505 1_554
As2 O0 1.712575 1_545
As2 O9 1.735613 1_555
As2 O16 1.744523 1_455
As3 O20 1.711505 1_555
As3 O18 1.712575 1_455
As3 O17 1.735613 1_555
As3 O7 1.744523 1_545
H0 O6 0.976494 1_555
H1 O5 1.002075 1_554
H1 O3 1.766697 1_555
H2 O6 0.976494 1_555
H3 O4 1.015651 1_555
H3 O10 1.605441 1_555
H4 O9 1.015651 1_555
H4 O20 1.605441 1_555
H5 O7 1.002075 1_555
H5 O0 1.766697 1_555
H6 O14 1.002075 1_555
H6 O21 1.766697 1_555
H7 O12 1.015651 1_555
H7 O1 1.605441 1_555
H8 O17 1.015651 1_555
H8 O11 1.605441 1_555
H9 O15 0.976494 1_555
H10 O16 1.002075 1_556
H10 O18 1.766697 1_555
H11 O15 0.976494 1_555
O0 U1 2.380354 1_555
O1 U0 2.444599 1_555
O2 U1 1.809944 1_555
O3 U1 2.380354 1_555
O6 U0 2.438364 1_555
O8 U0 1.809944 1_555
O10 U1 2.444599 1_555
O11 U0 2.444599 1_555
O13 U1 1.809944 1_555
O15 U1 2.438364 1_555
O18 U0 2.380354 1_555
O19 U0 1.809944 1_555
O20 U1 2.444599 1_555
O21 U0 2.380354 1_555
