# generated using pymatgen
data_Li4Ti3Mn3(CoO8)2
_symmetry_space_group_name_H-M   'P 1'
_cell_length_a   5.87056000
_cell_length_b   5.87929688
_cell_length_c   9.72805911
_cell_angle_alpha   89.88032590
_cell_angle_beta   90.40658423
_cell_angle_gamma   119.72189549
_symmetry_Int_Tables_number   1
_chemical_formula_structural   Li4Ti3Mn3(CoO8)2
_chemical_formula_sum   'Li4 Ti3 Mn3 Co2 O16'
_cell_volume   291.58184157
_cell_formula_units_Z   1
loop_
 _symmetry_equiv_pos_site_id
 _symmetry_equiv_pos_as_xyz
  1  'x, y, z'
loop_
 _atom_site_type_symbol
 _atom_site_label
 _atom_site_symmetry_multiplicity
 _atom_site_fract_x
 _atom_site_fract_y
 _atom_site_fract_z
 _atom_site_occupancy
  Li  Li0  1  0.32732400  0.67076500  0.10941800  1
  Li  Li1  1  0.00744100  0.00102100  0.00270600  1
  Li  Li2  1  0.00713900  0.99362600  0.50149700  1
  Li  Li3  1  0.66248800  0.33315400  0.60696900  1
  Ti  Ti0  1  0.65925500  0.82293300  0.78297000  1
  Ti  Ti1  1  0.15601800  0.33576500  0.78544500  1
  Ti  Ti2  1  0.82726300  0.16769400  0.28607000  1
  Mn  Mn0  1  0.17314600  0.83565100  0.78642700  1
  Mn  Mn1  1  0.82945500  0.66210700  0.28473100  1
  Mn  Mn2  1  0.33547700  0.16856500  0.28495100  1
  Co  Co0  1  0.33506900  0.66499400  0.50780700  1
  Co  Co1  1  0.66745900  0.33700500  0.01061200  1
  O  O0  1  0.68494300  0.84045300  0.39414200  1
  O  O1  1  0.48535100  0.51919800  0.67073400  1
  O  O2  1  0.33473400  0.66930400  0.89553800  1
  O  O3  1  0.00492500  0.99689700  0.68655700  1
  O  O4  1  0.00107200  0.99493200  0.18784300  1
  O  O5  1  0.15927900  0.31406900  0.39404900  1
  O  O6  1  0.48082000  0.96655800  0.66918400  1
  O  O7  1  0.03497800  0.52045000  0.66782500  1
  O  O8  1  0.84550300  0.16373700  0.89386800  1
  O  O9  1  0.16048200  0.83895900  0.39044900  1
  O  O10  1  0.96095800  0.48354200  0.16989100  1
  O  O11  1  0.51377700  0.03547900  0.16975500  1
  O  O12  1  0.66277100  0.33691600  0.39300400  1
  O  O13  1  0.84932600  0.68606600  0.89430600  1
  O  O14  1  0.51305000  0.48295500  0.17166800  1
  O  O15  1  0.32079900  0.15750400  0.89374300  1
loop_
_geom_bond_atom_site_label_1
_geom_bond_atom_site_label_2
_geom_bond_distance
_geom_bond_site_symmetry_2
Li0 O11 1.951748 1_565
Li0 O10 1.962467 1_455
Li0 O14 1.989060 1_555
Li0 O2 2.081525 1_554
Li1 O4 1.801590 1_545
Li1 O13 1.921559 1_444
Li1 O15 1.923410 1_554
Li1 O8 1.955317 1_454
Li2 O3 1.800625 1_555
Li2 O9 1.906273 1_555
Li2 O0 1.940670 1_455
Li2 O5 1.943239 1_565
Li3 O1 1.949983 1_555
Li3 O6 1.968138 1_545
Li3 O7 1.985317 1_655
Li3 O12 2.081539 1_555
Mn0 O3 1.930996 1_555
Mn0 O15 1.947026 1_565
Mn0 O6 1.950065 1_555
Mn0 O13 1.963491 1_455
Mn0 O2 1.970867 1_555
Mn0 O7 1.982036 1_555
Mn1 O10 1.940874 1_555
Mn1 O4 1.945075 1_655
Mn1 O14 1.950700 1_555
Mn1 O0 1.962544 1_555
Mn1 O12 1.968094 1_555
Mn1 O9 1.971744 1_655
Mn2 O4 1.943960 1_545
Mn2 O11 1.948358 1_555
Mn2 O14 1.953170 1_555
Mn2 O5 1.955745 1_555
Mn2 O12 1.966285 1_555
Mn2 O9 1.973968 1_545
Co0 O9 2.101891 1_555
Co0 O5 2.104398 1_555
Co0 O0 2.105241 1_555
Co0 O1 2.179348 1_555
Co0 O7 2.190402 1_555
Co0 O6 2.197369 1_555
Co1 O15 2.095336 1_554
Co1 O13 2.113410 1_554
Co1 O8 2.120728 1_554
Co1 O10 2.146535 1_555
Co1 O11 2.185374 1_555
Co1 O14 2.193122 1_555
O0 Ti2 1.978641 1_565
O1 Ti0 1.899434 1_555
O1 Ti1 2.025918 1_555
O2 Ti0 1.990900 1_555
O2 Ti1 2.011455 1_555
O3 Ti1 1.981179 1_565
O3 Ti0 2.002172 1_455
O4 Ti2 2.007851 1_465
O5 Ti2 1.988599 1_455
O6 Ti0 1.972894 1_555
O7 Ti1 1.934288 1_555
O8 Ti1 1.911294 1_655
O8 Ti0 2.047936 1_545
O10 Ti2 1.974917 1_555
O11 Ti2 1.956281 1_555
O12 Ti2 1.993919 1_555
O13 Ti0 1.983727 1_555
O15 Ti1 2.032323 1_555
