# generated using pymatgen
data_Rb5(WO3)18
_symmetry_space_group_name_H-M   'P 1'
_cell_length_a   7.52191102
_cell_length_b   7.52191156
_cell_length_c   46.49549768
_cell_angle_alpha   90.00000000
_cell_angle_beta   90.00000000
_cell_angle_gamma   120.00000228
_symmetry_Int_Tables_number   1
_chemical_formula_structural   Rb5(WO3)18
_chemical_formula_sum   'Rb10 W36 O108'
_cell_volume   2278.23194308
_cell_formula_units_Z   2
loop_
 _symmetry_equiv_pos_site_id
 _symmetry_equiv_pos_as_xyz
  1  'x, y, z'
loop_
 _atom_site_type_symbol
 _atom_site_label
 _atom_site_symmetry_multiplicity
 _atom_site_fract_x
 _atom_site_fract_y
 _atom_site_fract_z
 _atom_site_occupancy
  Rb  Rb0  1  -0.00000000  -0.00000000  0.58325311  1
  Rb  Rb1  1  -0.00000000  -0.00000000  0.24511970  1
  Rb  Rb2  1  -0.00000000  -0.00000000  0.33290202  1
  Rb  Rb3  1  -0.00000000  -0.00000000  0.41663436  1
  Rb  Rb4  1  -0.00000000  -0.00000000  0.49969896  1
  Rb  Rb5  1  -0.00000000  -0.00000000  0.66684259  1
  Rb  Rb6  1  -0.00000000  -0.00000000  0.75012181  1
  Rb  Rb7  1  -0.00000000  -0.00000000  0.83385317  1
  Rb  Rb8  1  -0.00000000  -0.00000000  0.92158286  1
  Rb  Rb9  1  -0.00000000  -0.00000000  0.08334050  1
  W  W0  1  0.00000000  0.49794982  0.04157785  1
  W  W1  1  0.00000000  0.49834656  0.20815086  1
  W  W2  1  1.00000000  0.50033969  0.37512343  1
  W  W3  1  0.00000000  0.50009348  0.54150854  1
  W  W4  1  1.00000000  0.50035897  0.70855383  1
  W  W5  1  0.00000000  0.49994549  0.87497995  1
  W  W6  1  0.49794982  1.00000000  0.04157785  1
  W  W7  1  0.50189304  0.00000000  0.12506918  1
  W  W8  1  0.49958349  1.00000000  0.45815976  1
  W  W9  1  0.49991352  0.00000000  0.62507475  1
  W  W10  1  0.49810696  0.49810696  0.12506918  1
  W  W11  1  0.49986900  0.49986900  0.29166611  1
  W  W12  1  0.50041651  0.50041651  0.45815976  1
  W  W13  1  0.50008648  0.50008648  0.62507475  1
  W  W14  1  0.50036579  0.50036579  0.79165272  1
  W  W15  1  0.49832296  0.49832296  0.95848370  1
  W  W16  1  0.50205018  0.50205018  0.04157785  1
  W  W17  1  0.50165344  0.50165344  0.20815086  1
  W  W18  1  0.49966031  0.49966031  0.37512343  1
  W  W19  1  0.49990652  0.49990652  0.54150854  1
  W  W20  1  0.50005451  0.50005451  0.87497995  1
  W  W21  1  0.49964103  0.49964103  0.70855383  1
  W  W22  1  0.49834656  1.00000000  0.20815086  1
  W  W23  1  0.50033969  0.00000000  0.37512343  1
  W  W24  1  0.50009348  1.00000000  0.54150854  1
  W  W25  1  0.50035897  0.00000000  0.70855383  1
  W  W26  1  0.49994549  1.00000000  0.87497995  1
  W  W27  1  0.50013100  0.00000000  0.29166611  1
  W  W28  1  0.49963421  1.00000000  0.79165272  1
  W  W29  1  0.50167704  0.00000000  0.95848370  1
  W  W30  1  1.00000000  0.50189304  0.12506918  1
  W  W31  1  1.00000000  0.50013100  0.29166611  1
  W  W32  1  0.00000000  0.49958349  0.45815976  1
  W  W33  1  0.00000000  0.49991352  0.62507475  1
  W  W34  1  0.00000000  0.49963421  0.79165272  1
  W  W35  1  1.00000000  0.50167704  0.95848370  1
  O  O0  1  0.00000000  0.50003328  0.00005585  1
  O  O1  1  0.00000000  0.50010451  0.33287867  1
  O  O2  1  0.00000000  0.49992544  0.16663594  1
  O  O3  1  -0.00000000  0.50005995  0.66637501  1
  O  O4  1  0.21177578  0.78732696  0.04197039  1
  O  O5  1  0.21153452  0.78755633  0.20859351  1
  O  O6  1  0.21014959  0.79006780  0.37472107  1
  O  O7  1  0.21012458  0.78990704  0.54184821  1
  O  O8  1  0.21024023  0.78997754  0.70823547  1
  O  O9  1  0.21045973  0.78959631  0.87516373  1
  O  O10  1  0.21263095  0.78816797  0.12471856  1
  O  O11  1  0.21038233  0.78958663  0.29148453  1
  O  O12  1  0.20984792  0.78984547  0.45841697  1
  O  O13  1  0.21014064  0.78983470  0.62490711  1
  O  O14  1  0.21005087  0.78970788  0.79185454  1
  O  O15  1  0.21243635  0.78846544  0.95808569  1
  O  O16  1  0.21183203  0.42446298  0.12471856  1
  O  O17  1  0.21041337  0.42079570  0.29148453  1
  O  O18  1  0.21015453  0.42000146  0.45841697  1
  O  O19  1  0.21016530  0.42030594  0.62490711  1
  O  O20  1  0.21029212  0.42034299  0.79185454  1
  O  O21  1  0.21153456  0.42397091  0.95808569  1
  O  O22  1  0.49996312  0.00000000  0.08335491  1
  O  O23  1  0.50001798  0.00000000  0.58337456  1
  O  O24  1  0.21267304  0.42444882  0.04197039  1
  O  O25  1  0.21244367  0.42397818  0.20859351  1
  O  O26  1  0.20993220  0.42008180  0.37472107  1
  O  O27  1  0.21009296  0.42021754  0.54184821  1
  O  O28  1  0.21002246  0.42026369  0.70823547  1
  O  O29  1  0.21040369  0.42086342  0.87516373  1
  O  O30  1  0.57555118  0.78822422  0.04197039  1
  O  O31  1  0.57602182  0.78846548  0.20859351  1
  O  O32  1  0.57991820  0.78985041  0.37472107  1
  O  O33  1  0.57978246  0.78987542  0.54184821  1
  O  O34  1  0.57973631  0.78975977  0.70823547  1
  O  O35  1  0.57913658  0.78954027  0.87516373  1
  O  O36  1  0.57553702  0.78736905  0.12471856  1
  O  O37  1  0.57920430  0.78961767  0.29148453  1
  O  O38  1  0.57999854  0.79015208  0.45841697  1
  O  O39  1  0.57969406  0.78985936  0.62490711  1
  O  O40  1  0.57965701  0.78994913  0.79185454  1
  O  O41  1  0.57602909  0.78756365  0.95808569  1
  O  O42  1  0.50003688  0.50003688  0.08335491  1
  O  O43  1  0.50057628  0.50057628  0.24999290  1
  O  O44  1  0.49998202  0.49998202  0.58337456  1
  O  O45  1  0.50007148  0.50007148  0.41644488  1
  O  O46  1  0.49998476  0.49998476  0.74992742  1
  O  O47  1  0.49943896  0.49943896  0.91669493  1
  O  O48  1  0.49996672  0.49996672  0.00005585  1
  O  O49  1  0.50007456  0.50007456  0.16663594  1
  O  O50  1  0.49989549  0.49989549  0.33287867  1
  O  O51  1  0.50010939  0.50010939  0.50042906  1
  O  O52  1  0.49994005  0.49994005  0.66637501  1
  O  O53  1  0.50011270  0.50011270  0.83383027  1
  O  O54  1  0.42444882  0.21267304  0.04197039  1
  O  O55  1  0.42397818  0.21244367  0.20859351  1
  O  O56  1  0.42008180  0.20993220  0.37472107  1
  O  O57  1  0.42021754  0.21009296  0.54184821  1
  O  O58  1  0.42026369  0.21002246  0.70823547  1
  O  O59  1  0.42086342  0.21040369  0.87516373  1
  O  O60  1  0.42446298  0.21183203  0.12471856  1
  O  O61  1  0.42079570  0.21041337  0.29148453  1
  O  O62  1  0.42000146  0.21015453  0.45841697  1
  O  O63  1  0.42030594  0.21016530  0.62490711  1
  O  O64  1  0.42034299  0.21029212  0.79185454  1
  O  O65  1  0.42397091  0.21153456  0.95808569  1
  O  O66  1  0.78736905  0.57553702  0.12471856  1
  O  O67  1  0.78961767  0.57920430  0.29148453  1
  O  O68  1  0.79015208  0.57999854  0.45841697  1
  O  O69  1  0.78985936  0.57969406  0.62490711  1
  O  O70  1  0.78994913  0.57965701  0.79185454  1
  O  O71  1  0.78756365  0.57602909  0.95808569  1
  O  O72  1  0.50003328  0.00000000  0.00005585  1
  O  O73  1  0.49992544  0.00000000  0.16663594  1
  O  O74  1  0.50010451  1.00000000  0.33287867  1
  O  O75  1  0.49989061  0.00000000  0.50042906  1
  O  O76  1  0.50005995  1.00000000  0.66637501  1
  O  O77  1  0.49988730  0.00000000  0.83383027  1
  O  O78  1  0.49992852  1.00000000  0.41644488  1
  O  O79  1  0.49942372  1.00000000  0.24999290  1
  O  O80  1  0.50001524  0.00000000  0.74992742  1
  O  O81  1  0.50056104  0.00000000  0.91669493  1
  O  O82  1  0.78822422  0.57555118  0.04197039  1
  O  O83  1  0.78846548  0.57602182  0.20859351  1
  O  O84  1  0.78985041  0.57991820  0.37472107  1
  O  O85  1  0.78987542  0.57978246  0.54184821  1
  O  O86  1  0.78975977  0.57973631  0.70823547  1
  O  O87  1  0.78954027  0.57913658  0.87516373  1
  O  O88  1  0.78732696  0.21177578  0.04197039  1
  O  O89  1  0.78755633  0.21153452  0.20859351  1
  O  O90  1  0.79006780  0.21014959  0.37472107  1
  O  O91  1  0.78990704  0.21012458  0.54184821  1
  O  O92  1  0.78997754  0.21024023  0.70823547  1
  O  O93  1  0.78959631  0.21045973  0.87516373  1
  O  O94  1  0.78816797  0.21263095  0.12471856  1
  O  O95  1  0.78958663  0.21038233  0.29148453  1
  O  O96  1  0.78984547  0.20984792  0.45841697  1
  O  O97  1  0.78983470  0.21014064  0.62490711  1
  O  O98  1  0.78970788  0.21005087  0.79185454  1
  O  O99  1  0.78846544  0.21243635  0.95808569  1
  O  O100  1  0.00000000  0.49996312  0.08335491  1
  O  O101  1  0.00000000  0.49942372  0.24999290  1
  O  O102  1  -0.00000000  0.49992852  0.41644488  1
  O  O103  1  0.00000000  0.50001524  0.74992742  1
  O  O104  1  0.00000000  0.50001798  0.58337456  1
  O  O105  1  0.00000000  0.50056104  0.91669493  1
  O  O106  1  0.00000000  0.49989061  0.50042906  1
  O  O107  1  -0.00000000  0.49988730  0.83383027  1
loop_
_geom_bond_atom_site_label_1
_geom_bond_atom_site_label_2
_geom_bond_distance
_geom_bond_site_symmetry_2
O0 W0 1.930650 1_555
O0 W35 1.932957 1_454
O1 W31 1.916198 1_455
O1 W2 1.964192 1_455
O2 W1 1.930293 1_555
O2 W30 1.932724 1_455
O3 W33 1.920276 1_555
O3 W4 1.961127 1_455
O4 W6 1.936359 1_555
O4 W0 1.951511 1_555
O4 Rb9 3.368203 1_565
O5 W22 1.939276 1_555
O5 W1 1.950175 1_555
O5 Rb1 3.242243 1_565
O6 W2 1.950267 1_455
O6 W23 1.952335 1_565
O6 Rb2 3.356936 1_565
O6 Rb3 3.359476 1_565
O7 W3 1.950652 1_555
O7 W24 1.951425 1_555
O7 Rb0 3.346543 1_565
O7 Rb4 3.366571 1_565
O8 W4 1.949819 1_455
O8 W25 1.952088 1_565
O8 Rb5 3.346462 1_565
O8 Rb6 3.359709 1_565
O9 W26 1.949382 1_555
O9 W5 1.950372 1_555
O9 Rb7 3.347466 1_565
O9 Rb8 3.489184 1_565
O10 W30 1.936787 1_455
O10 W7 1.950991 1_565
O10 Rb9 3.368490 1_565
O11 W31 1.949180 1_455
O11 W27 1.950806 1_565
O11 Rb2 3.349960 1_565
O11 Rb1 3.487276 1_565
O12 W8 1.950264 1_555
O12 W32 1.952509 1_555
O12 Rb4 3.342111 1_565
O12 Rb3 3.355534 1_565
O13 W9 1.950463 1_565
O13 W33 1.951211 1_555
O13 Rb0 3.353689 1_565
O13 Rb5 3.361264 1_565
O14 W28 1.949695 1_555
O14 W34 1.951866 1_555
O14 Rb6 3.356001 1_565
O14 Rb7 3.363164 1_565
O15 W35 1.939115 1_455
O15 W29 1.950318 1_565
O15 Rb8 3.241634 1_565
O16 W10 1.936787 1_555
O16 W30 1.950991 1_455
O16 Rb9 3.368490 1_555
O17 W11 1.949179 1_555
O17 W31 1.950807 1_455
O17 Rb2 3.349960 1_555
O17 Rb1 3.487276 1_555
O18 W32 1.950269 1_555
O18 W12 1.952507 1_555
O18 Rb4 3.342106 1_555
O18 Rb3 3.355528 1_555
O19 W33 1.950463 1_555
O19 W13 1.951211 1_555
O19 Rb0 3.353689 1_555
O19 Rb5 3.361264 1_555
O20 W34 1.949695 1_555
O20 W14 1.951866 1_555
O20 Rb6 3.356001 1_555
O20 Rb7 3.363164 1_555
O21 W15 1.939115 1_555
O21 W35 1.950319 1_455
O21 Rb8 3.241634 1_555
O22 W7 1.939580 1_555
O22 W6 1.942504 1_545
O23 W9 1.938871 1_555
O23 W24 1.946582 1_545
O24 W0 1.936360 1_555
O24 W16 1.951511 1_555
O24 Rb9 3.368203 1_555
O25 W1 1.939276 1_555
O25 W17 1.950175 1_555
O25 Rb1 3.242243 1_555
O26 W18 1.950267 1_555
O26 W2 1.952335 1_455
O26 Rb2 3.356936 1_555
O26 Rb3 3.359476 1_555
O27 W19 1.950652 1_555
O27 W3 1.951425 1_555
O27 Rb0 3.346543 1_555
O27 Rb4 3.366571 1_555
O28 W21 1.949821 1_555
O28 W4 1.952083 1_455
O28 Rb5 3.346467 1_555
O28 Rb6 3.359715 1_555
O29 W5 1.949382 1_555
O29 W20 1.950371 1_555
O29 Rb7 3.347466 1_555
O29 Rb8 3.489184 1_555
O30 W16 1.936360 1_555
O30 W6 1.951511 1_555
O30 Rb9 3.368203 1_665
O31 W17 1.939276 1_555
O31 W22 1.950175 1_555
O31 Rb1 3.242243 1_665
O32 W23 1.950267 1_565
O32 W18 1.952335 1_555
O32 Rb2 3.356936 1_665
O32 Rb3 3.359476 1_665
O33 W24 1.950652 1_555
O33 W19 1.951425 1_555
O33 Rb0 3.346542 1_665
O33 Rb4 3.366571 1_665
O34 W25 1.949814 1_565
O34 W21 1.952090 1_555
O34 Rb5 3.346467 1_665
O34 Rb6 3.359715 1_665
O35 W20 1.949382 1_555
O35 W26 1.950372 1_555
O35 Rb7 3.347466 1_665
O35 Rb8 3.489184 1_665
O36 W7 1.936787 1_565
O36 W10 1.950991 1_555
O36 Rb9 3.368490 1_665
O37 W27 1.949180 1_565
O37 W11 1.950807 1_555
O37 Rb2 3.349960 1_665
O37 Rb1 3.487276 1_665
O38 W12 1.950262 1_555
O38 W8 1.952515 1_555
O38 Rb4 3.342106 1_665
O38 Rb3 3.355528 1_665
O39 W13 1.950463 1_555
O39 W9 1.951211 1_565
O39 Rb0 3.353689 1_665
O39 Rb5 3.361264 1_665
O40 W14 1.949696 1_555
O40 W28 1.951866 1_555
O40 Rb6 3.356001 1_665
O40 Rb7 3.363164 1_665
O41 W29 1.939116 1_565
O41 W15 1.950319 1_555
O41 Rb8 3.241634 1_665
O42 W10 1.939580 1_555
O42 W16 1.942504 1_555
O43 W11 1.937624 1_555
O43 W17 1.945483 1_555
O44 W13 1.938871 1_555
O44 W19 1.946582 1_555
O45 W18 1.921264 1_555
O45 W12 1.939556 1_555
O46 W21 1.923687 1_555
O46 W14 1.940041 1_555
O47 W20 1.939564 1_555
O47 W15 1.943008 1_555
O48 W16 1.930650 1_555
O48 W15 1.932957 1_554
O49 W17 1.930293 1_555
O49 W10 1.932724 1_555
O50 W11 1.916198 1_555
O50 W18 1.964192 1_555
O51 W19 1.910011 1_555
O51 W12 1.965333 1_555
O52 W13 1.920276 1_555
O52 W21 1.961127 1_555
O53 W20 1.913275 1_555
O53 W14 1.961067 1_555
O54 W6 1.936360 1_545
O54 W16 1.951511 1_555
O54 Rb9 3.368203 1_555
O55 W22 1.939276 1_545
O55 W17 1.950175 1_555
O55 Rb1 3.242243 1_555
O56 W18 1.950267 1_555
O56 W23 1.952335 1_555
O56 Rb2 3.356936 1_555
O56 Rb3 3.359476 1_555
O57 W19 1.950652 1_555
O57 W24 1.951425 1_545
O57 Rb0 3.346542 1_555
O57 Rb4 3.366571 1_555
O58 W21 1.949821 1_555
O58 W25 1.952083 1_555
O58 Rb5 3.346467 1_555
O58 Rb6 3.359715 1_555
O59 W26 1.949382 1_545
O59 W20 1.950372 1_555
O59 Rb7 3.347466 1_555
O59 Rb8 3.489184 1_555
O60 W10 1.936787 1_555
O60 W7 1.950991 1_555
O60 Rb9 3.368490 1_555
O61 W11 1.949180 1_555
O61 W27 1.950807 1_555
O61 Rb2 3.349960 1_555
O61 Rb1 3.487276 1_555
O62 W8 1.950269 1_545
O62 W12 1.952508 1_555
O62 Rb4 3.342106 1_555
O62 Rb3 3.355528 1_555
O63 W9 1.950463 1_555
O63 W13 1.951211 1_555
O63 Rb0 3.353689 1_555
O63 Rb5 3.361264 1_555
O64 W28 1.949696 1_545
O64 W14 1.951866 1_555
O64 Rb6 3.356001 1_555
O64 Rb7 3.363164 1_555
O65 W15 1.939116 1_555
O65 W29 1.950319 1_555
O65 Rb8 3.241634 1_555
O66 W30 1.936787 1_555
O66 W10 1.950991 1_555
O66 Rb9 3.368490 1_665
O67 W31 1.949180 1_555
O67 W11 1.950806 1_555
O67 Rb2 3.349960 1_665
O67 Rb1 3.487276 1_665
O68 W12 1.950262 1_555
O68 W32 1.952515 1_655
O68 Rb4 3.342106 1_665
O68 Rb3 3.355528 1_665
O69 W13 1.950463 1_555
O69 W33 1.951211 1_655
O69 Rb0 3.353689 1_665
O69 Rb5 3.361264 1_665
O70 W14 1.949695 1_555
O70 W34 1.951866 1_655
O70 Rb6 3.356001 1_665
O70 Rb7 3.363164 1_665
O71 W35 1.939115 1_555
O71 W15 1.950318 1_555
O71 Rb8 3.241634 1_665
O72 W6 1.930650 1_545
O72 W29 1.932957 1_554
O73 W22 1.930293 1_545
O73 W7 1.932724 1_555
O74 W27 1.916198 1_565
O74 W23 1.964192 1_565
O75 W24 1.910011 1_545
O75 W8 1.965333 1_545
O76 W9 1.920276 1_565
O76 W25 1.961127 1_565
O77 W26 1.913275 1_545
O77 W28 1.961067 1_545
O78 W23 1.921264 1_565
O78 W8 1.939556 1_555
O79 W27 1.937624 1_565
O79 W22 1.945483 1_555
O80 W25 1.923687 1_555
O80 W28 1.940041 1_545
O81 W26 1.939564 1_545
O81 W29 1.943008 1_555
O82 W16 1.936359 1_555
O82 W0 1.951511 1_655
O82 Rb9 3.368203 1_665
O83 W17 1.939276 1_555
O83 W1 1.950175 1_655
O83 Rb1 3.242243 1_665
O84 W2 1.950267 1_555
O84 W18 1.952335 1_555
O84 Rb2 3.356936 1_665
O84 Rb3 3.359476 1_665
O85 W3 1.950652 1_655
O85 W19 1.951425 1_555
O85 Rb0 3.346543 1_665
O85 Rb4 3.366571 1_665
O86 W4 1.949814 1_555
O86 W21 1.952090 1_555
O86 Rb5 3.346467 1_665
O86 Rb6 3.359715 1_665
O87 W20 1.949382 1_555
O87 W5 1.950372 1_655
O87 Rb7 3.347466 1_665
O87 Rb8 3.489184 1_665
O88 W0 1.936360 1_655
O88 W6 1.951511 1_545
O88 Rb9 3.368203 1_655
O89 W1 1.939276 1_655
O89 W22 1.950175 1_545
O89 Rb1 3.242243 1_655
O90 W23 1.950267 1_555
O90 W2 1.952335 1_555
O90 Rb2 3.356936 1_655
O90 Rb3 3.359476 1_655
O91 W24 1.950652 1_545
O91 W3 1.951425 1_655
O91 Rb0 3.346543 1_655
O91 Rb4 3.366571 1_655
O92 W25 1.949819 1_555
O92 W4 1.952088 1_555
O92 Rb5 3.346462 1_655
O92 Rb6 3.359709 1_655
O93 W5 1.949382 1_655
O93 W26 1.950371 1_545
O93 Rb7 3.347466 1_655
O93 Rb8 3.489184 1_655
O94 W7 1.936787 1_555
O94 W30 1.950991 1_555
O94 Rb9 3.368490 1_655
O95 W27 1.949179 1_555
O95 W31 1.950807 1_555
O95 Rb2 3.349960 1_655
O95 Rb1 3.487276 1_655
O96 W32 1.950264 1_655
O96 W8 1.952509 1_545
O96 Rb4 3.342111 1_655
O96 Rb3 3.355534 1_655
O97 W33 1.950463 1_655
O97 W9 1.951211 1_555
O97 Rb0 3.353689 1_655
O97 Rb5 3.361264 1_655
O98 W34 1.949695 1_655
O98 W28 1.951866 1_545
O98 Rb6 3.356001 1_655
O98 Rb7 3.363164 1_655
O99 W29 1.939115 1_555
O99 W35 1.950319 1_555
O99 Rb8 3.241634 1_655
O100 W30 1.939580 1_455
O100 W0 1.942504 1_555
O101 W31 1.937624 1_455
O101 W1 1.945483 1_555
O102 W2 1.921264 1_455
O102 W32 1.939556 1_555
O103 W4 1.923687 1_455
O103 W34 1.940041 1_555
O104 W33 1.938871 1_555
O104 W3 1.946582 1_555
O105 W5 1.939564 1_555
O105 W35 1.943008 1_455
O106 W3 1.910011 1_555
O106 W32 1.965333 1_555
O107 W5 1.913275 1_555
O107 W34 1.961067 1_555
