# generated using pymatgen
data_Mn6O7F5
_symmetry_space_group_name_H-M   'P 1'
_cell_length_a   4.58756231
_cell_length_b   5.67141485
_cell_length_c   15.31632543
_cell_angle_alpha   90.04375814
_cell_angle_beta   89.63088294
_cell_angle_gamma   89.69334750
_symmetry_Int_Tables_number   1
_chemical_formula_structural   Mn6O7F5
_chemical_formula_sum   'Mn12 O14 F10'
_cell_volume   398.48557670
_cell_formula_units_Z   2
loop_
 _symmetry_equiv_pos_site_id
 _symmetry_equiv_pos_as_xyz
  1  'x, y, z'
loop_
 _atom_site_type_symbol
 _atom_site_label
 _atom_site_symmetry_multiplicity
 _atom_site_fract_x
 _atom_site_fract_y
 _atom_site_fract_z
 _atom_site_occupancy
  Mn  Mn0  1  0.00184300  0.15188200  0.40922900  1
  Mn  Mn1  1  0.01430600  0.84577300  0.24041300  1
  Mn  Mn2  1  0.02176800  0.16303800  0.07933700  1
  Mn  Mn3  1  0.03020000  0.16231000  0.74318300  1
  Mn  Mn4  1  0.01929300  0.83947900  0.57921800  1
  Mn  Mn5  1  0.02493400  0.85578200  0.91192900  1
  Mn  Mn6  1  0.50451900  0.36107900  0.59208800  1
  Mn  Mn7  1  0.49470900  0.33980400  0.92155100  1
  Mn  Mn8  1  0.49691600  0.34793300  0.25461100  1
  Mn  Mn9  1  0.50702600  0.63317300  0.09364000  1
  Mn  Mn10  1  0.51044700  0.65065700  0.42428100  1
  Mn  Mn11  1  0.47936500  0.63780100  0.75109700  1
  O  O0  1  0.21805300  0.11142100  0.30019900  1
  O  O1  1  0.23259500  0.11523300  0.63582200  1
  O  O2  1  0.21910400  0.11799600  0.97062900  1
  O  O3  1  0.23586000  0.88446000  0.13476200  1
  O  O4  1  0.21791000  0.88391100  0.46877500  1
  O  O5  1  0.23716200  0.88678700  0.80108400  1
  O  O6  1  0.28019000  0.39816200  0.14661600  1
  O  O7  1  0.27705700  0.60362800  0.64521600  1
  O  O8  1  0.27648500  0.39779800  0.81295500  1
  O  O9  1  0.72739700  0.38464200  0.02793600  1
  O  O10  1  0.72557500  0.61524700  0.19619900  1
  O  O11  1  0.71545300  0.38042300  0.36408500  1
  O  O12  1  0.72645200  0.61264900  0.53117600  1
  O  O13  1  0.72464100  0.38604400  0.69488800  1
  F  F0  1  0.25357200  0.61671700  0.32057200  1
  F  F1  1  0.25834100  0.37796700  0.48630200  1
  F  F2  1  0.26973900  0.61835800  0.98451400  1
  F  F3  1  0.72825700  0.62515400  0.86145300  1
  F  F4  1  0.76801500  0.12162500  0.18175900  1
  F  F5  1  0.75275200  0.12368000  0.52469900  1
  F  F6  1  0.75664400  0.88080800  0.34653700  1
  F  F7  1  0.75503400  0.86840600  0.02273500  1
  F  F8  1  0.77499800  0.12743800  0.84955700  1
  F  F9  1  0.76338800  0.87273400  0.69095200  1
loop_
_geom_bond_atom_site_label_1
_geom_bond_atom_site_label_2
_geom_bond_distance
_geom_bond_site_symmetry_2
Mn0 O0 1.949567 1_555
Mn0 O11 1.969542 1_455
Mn0 O4 2.030188 1_545
Mn1 O3 1.918712 1_555
Mn1 O10 1.987748 1_455
Mn1 O0 2.001503 1_565
Mn2 O2 1.906439 1_554
Mn2 O9 2.005022 1_455
Mn2 O3 2.043929 1_545
Mn2 O6 2.067870 1_555
Mn3 O1 1.901150 1_555
Mn3 O13 2.029274 1_455
Mn3 O5 2.031439 1_545
Mn3 O8 2.057132 1_555
Mn4 O4 1.933500 1_555
Mn4 O12 2.007728 1_455
Mn4 O1 2.044562 1_565
Mn4 O7 2.051797 1_555
Mn5 O2 1.958516 1_565
Mn5 O5 1.960138 1_555
Mn6 O13 1.881641 1_555
Mn6 O7 1.901390 1_555
Mn6 O12 1.986949 1_555
Mn6 O1 1.989524 1_555
Mn7 O2 1.937095 1_555
Mn7 O9 1.970755 1_556
Mn7 O8 1.973758 1_555
Mn8 O6 1.955646 1_555
Mn8 O11 1.968168 1_555
Mn8 O0 1.982847 1_555
Mn8 O10 2.050900 1_555
Mn9 O10 1.871497 1_555
Mn9 O6 1.877061 1_555
Mn9 O3 1.986159 1_555
Mn9 O9 1.997750 1_555
Mn10 O12 1.930836 1_555
Mn10 O4 1.995825 1_555
Mn10 O11 2.013624 1_555
Mn11 O7 1.884067 1_555
Mn11 O8 1.902840 1_555
Mn11 O5 1.945607 1_555
Mn11 O13 2.003597 1_555
F0 Mn10 1.993733 1_555
F0 Mn1 2.098643 1_555
F0 Mn8 2.134378 1_555
F1 Mn6 1.983052 1_555
F1 Mn0 2.110444 1_555
F1 Mn10 2.153834 1_555
F2 Mn9 2.002463 1_556
F2 Mn5 2.076667 1_555
F2 Mn7 2.111469 1_555
F3 Mn11 2.046945 1_555
F3 Mn5 2.047432 1_655
F3 Mn7 2.149968 1_555
F4 Mn2 1.962443 1_655
F4 Mn8 2.098094 1_555
F4 Mn1 2.127804 1_645
F5 Mn6 2.035006 1_555
F5 Mn0 2.106087 1_655
F5 Mn4 2.187358 1_645
F6 Mn1 2.012700 1_655
F6 Mn10 2.097170 1_555
F6 Mn0 2.140331 1_665
F7 Mn9 2.063070 1_555
F7 Mn5 2.095304 1_654
F7 Mn2 2.252651 1_665
F8 Mn3 2.010637 1_655
F8 Mn7 2.069552 1_555
F8 Mn5 2.144395 1_645
F9 Mn4 2.076965 1_655
F9 Mn11 2.080057 1_555
F9 Mn3 2.206239 1_665
