# generated using pymatgen
data_Na8TiO6
_symmetry_space_group_name_H-M   'P 1'
_cell_length_a   6.63070000
_cell_length_b   9.59246300
_cell_length_c   13.93894300
_cell_angle_alpha   90.00000000
_cell_angle_beta   90.00000000
_cell_angle_gamma   90.00000000
_symmetry_Int_Tables_number   1
_chemical_formula_structural   Na8TiO6
_chemical_formula_sum   'Na32 Ti4 O24'
_cell_volume   886.58290692
_cell_formula_units_Z   4
loop_
 _symmetry_equiv_pos_site_id
 _symmetry_equiv_pos_as_xyz
  1  'x, y, z'
loop_
 _atom_site_type_symbol
 _atom_site_label
 _atom_site_symmetry_multiplicity
 _atom_site_fract_x
 _atom_site_fract_y
 _atom_site_fract_z
 _atom_site_occupancy
  Na  Na0  1  0.51204400  0.77383800  0.01255400  1
  Na  Na1  1  0.27294700  0.52469000  0.06295000  1
  Na  Na2  1  0.91775500  0.18962900  0.07117600  1
  Na  Na3  1  0.94008900  0.83053300  0.07731900  1
  Na  Na4  1  0.33664900  0.01142700  0.11542400  1
  Na  Na5  1  0.55046500  0.81779100  0.21983200  1
  Na  Na6  1  0.57900300  0.19855800  0.22906400  1
  Na  Na7  1  0.92107500  0.00743300  0.24972500  1
  Na  Na8  1  0.42107500  0.50743300  0.25027500  1
  Na  Na9  1  0.07900300  0.69855800  0.27093600  1
  Na  Na10  1  0.05046500  0.31779100  0.28016800  1
  Na  Na11  1  0.83664900  0.51142700  0.38457600  1
  Na  Na12  1  0.44008900  0.33053300  0.42268100  1
  Na  Na13  1  0.41775500  0.68962900  0.42882400  1
  Na  Na14  1  0.77294700  0.02469000  0.43705000  1
  Na  Na15  1  0.01204400  0.27383800  0.48744600  1
  Na  Na16  1  0.98795600  0.77383800  0.51255400  1
  Na  Na17  1  0.22705300  0.52469000  0.56295000  1
  Na  Na18  1  0.58224500  0.18962900  0.57117600  1
  Na  Na19  1  0.55991100  0.83053300  0.57731900  1
  Na  Na20  1  0.16335100  0.01142700  0.61542400  1
  Na  Na21  1  0.94953500  0.81779100  0.71983200  1
  Na  Na22  1  0.92099700  0.19855800  0.72906400  1
  Na  Na23  1  0.57892500  0.00743300  0.74972500  1
  Na  Na24  1  0.07892500  0.50743300  0.75027500  1
  Na  Na25  1  0.42099700  0.69855800  0.77093600  1
  Na  Na26  1  0.44953500  0.31779100  0.78016800  1
  Na  Na27  1  0.66335100  0.51142700  0.88457600  1
  Na  Na28  1  0.05991100  0.33053300  0.92268100  1
  Na  Na29  1  0.08224500  0.68962900  0.92882400  1
  Na  Na30  1  0.72705300  0.02469000  0.93705000  1
  Na  Na31  1  0.48795600  0.27383800  0.98744600  1
  Ti  Ti0  1  0.78076400  0.51236500  0.12354800  1
  Ti  Ti1  1  0.28076400  0.01236500  0.37645200  1
  Ti  Ti2  1  0.71923600  0.51236500  0.62354800  1
  Ti  Ti3  1  0.21923600  0.01236500  0.87645200  1
  O  O0  1  0.78964300  0.62781900  0.01681600  1
  O  O1  1  0.55820100  0.39665600  0.12080700  1
  O  O2  1  0.70913200  0.00546900  0.11836900  1
  O  O3  1  0.25756100  0.75836700  0.12615500  1
  O  O4  1  0.00781700  0.40343900  0.12615400  1
  O  O5  1  0.74983600  0.61668600  0.23445600  1
  O  O6  1  0.24983600  0.11668600  0.26554400  1
  O  O7  1  0.50781700  0.90343900  0.37384600  1
  O  O8  1  0.75756100  0.25836700  0.37384500  1
  O  O9  1  0.20913200  0.50546900  0.38163100  1
  O  O10  1  0.05820100  0.89665600  0.37919300  1
  O  O11  1  0.28964300  0.12781900  0.48318400  1
  O  O12  1  0.71035700  0.62781900  0.51681600  1
  O  O13  1  0.94179900  0.39665600  0.62080700  1
  O  O14  1  0.79086800  0.00546900  0.61836900  1
  O  O15  1  0.24243900  0.75836700  0.62615500  1
  O  O16  1  0.49218300  0.40343900  0.62615400  1
  O  O17  1  0.75016400  0.61668600  0.73445600  1
  O  O18  1  0.25016400  0.11668600  0.76554400  1
  O  O19  1  0.99218300  0.90343900  0.87384600  1
  O  O20  1  0.74243900  0.25836700  0.87384500  1
  O  O21  1  0.29086800  0.50546900  0.88163100  1
  O  O22  1  0.44179900  0.89665600  0.87919300  1
  O  O23  1  0.21035700  0.12781900  0.98318400  1
loop_
_geom_bond_atom_site_label_1
_geom_bond_atom_site_label_2
_geom_bond_distance
_geom_bond_site_symmetry_2
Na0 O22 2.249551 1_554
Na0 O0 2.313769 1_555
Na0 O3 2.318781 1_555
Na1 O4 2.284623 1_555
Na1 O1 2.395055 1_555
Na1 O3 2.410618 1_555
Na1 O21 2.536896 1_554
Na2 O4 2.269436 1_655
Na2 O2 2.338158 1_555
Na2 O23 2.370673 1_654
Na3 O3 2.318162 1_655
Na3 O0 2.342552 1_555
Na3 O2 2.342759 1_565
Na4 O23 2.312031 1_554
Na4 O6 2.393626 1_555
Na4 O2 2.470825 1_555
Na4 O3 2.487968 1_545
Na5 O7 2.315960 1_555
Na5 O5 2.347456 1_555
Na5 O3 2.408716 1_555
Na5 O2 2.519549 1_565
Na6 O6 2.374684 1_555
Na6 O8 2.409071 1_555
Na6 O1 2.430435 1_555
Na6 O2 2.560450 1_555
Na7 O10 2.283121 1_645
Na7 O2 2.308189 1_555
Na7 O6 2.428779 1_655
Na8 O1 2.283121 1_555
Na8 O9 2.308189 1_555
Na8 O5 2.428779 1_555
Na9 O5 2.374684 1_455
Na9 O3 2.409071 1_555
Na9 O10 2.430435 1_555
Na9 O9 2.560450 1_555
Na10 O4 2.315960 1_555
Na10 O6 2.347456 1_555
Na10 O8 2.408716 1_455
Na10 O9 2.519549 1_555
Na11 O12 2.312031 1_555
Na11 O5 2.393626 1_555
Na11 O9 2.470825 1_655
Na11 O8 2.487968 1_555
Na12 O8 2.318162 1_555
Na12 O11 2.342552 1_555
Na12 O9 2.342759 1_555
Na13 O7 2.269436 1_555
Na13 O9 2.338158 1_555
Na13 O12 2.370673 1_555
Na14 O7 2.284623 1_545
Na14 O10 2.395055 1_645
Na14 O8 2.410618 1_555
Na14 O14 2.536896 1_555
Na15 O13 2.249551 1_455
Na15 O11 2.313769 1_555
Na15 O8 2.318781 1_455
Na16 O10 2.249551 1_655
Na16 O12 2.313769 1_555
Na16 O15 2.318781 1_655
Na17 O16 2.284623 1_555
Na17 O13 2.395055 1_455
Na17 O15 2.410618 1_555
Na17 O9 2.536896 1_555
Na18 O16 2.269436 1_555
Na18 O14 2.338158 1_555
Na18 O11 2.370673 1_555
Na19 O15 2.318162 1_555
Na19 O12 2.342552 1_555
Na19 O14 2.342759 1_565
Na20 O11 2.312031 1_555
Na20 O18 2.393626 1_555
Na20 O14 2.470825 1_455
Na20 O15 2.487968 1_545
Na21 O19 2.315960 1_555
Na21 O17 2.347456 1_555
Na21 O15 2.408716 1_655
Na21 O14 2.519549 1_565
Na22 O18 2.374684 1_655
Na22 O20 2.409071 1_555
Na22 O13 2.430435 1_555
Na22 O14 2.560450 1_555
Na23 O22 2.283121 1_545
Na23 O14 2.308189 1_555
Na23 O18 2.428779 1_555
Na24 O13 2.283121 1_455
Na24 O21 2.308189 1_555
Na24 O17 2.428779 1_455
Na25 O17 2.374684 1_555
Na25 O15 2.409071 1_555
Na25 O22 2.430435 1_555
Na25 O21 2.560450 1_555
Na26 O16 2.315960 1_555
Na26 O18 2.347456 1_555
Na26 O20 2.408716 1_555
Na26 O21 2.519549 1_555
Na27 O0 2.312031 1_556
Na27 O17 2.393626 1_555
Na27 O21 2.470825 1_555
Na27 O20 2.487968 1_555
Na28 O20 2.318162 1_455
Na28 O23 2.342552 1_555
Na28 O21 2.342759 1_555
Na29 O19 2.269436 1_455
Na29 O21 2.338158 1_555
Na29 O0 2.370673 1_456
Na30 O19 2.284623 1_545
Na30 O22 2.395055 1_545
Na30 O20 2.410618 1_555
Na30 O2 2.536896 1_556
Na31 O1 2.249551 1_556
Na31 O23 2.313769 1_555
Na31 O20 2.318781 1_555
O0 Ti0 1.855624 1_555
O1 Ti0 1.846956 1_555
O4 Ti0 1.832938 1_455
O5 Ti0 1.852938 1_555
O6 Ti1 1.852938 1_555
O7 Ti1 1.832938 1_565
O10 Ti1 1.846956 1_565
O11 Ti1 1.855624 1_555
O12 Ti2 1.855624 1_555
O13 Ti2 1.846956 1_555
O16 Ti2 1.832938 1_555
O17 Ti2 1.852938 1_555
O18 Ti3 1.852938 1_555
O19 Ti3 1.832938 1_665
O22 Ti3 1.846956 1_565
O23 Ti3 1.855624 1_555
