# generated using pymatgen
data_Mn6O7F5
_symmetry_space_group_name_H-M   'P 1'
_cell_length_a   4.69303800
_cell_length_b   5.64090002
_cell_length_c   7.67017428
_cell_angle_alpha   85.29747666
_cell_angle_beta   87.79214467
_cell_angle_gamma   85.93169922
_symmetry_Int_Tables_number   1
_chemical_formula_structural   Mn6O7F5
_chemical_formula_sum   'Mn6 O7 F5'
_cell_volume   201.74946301
_cell_formula_units_Z   1
loop_
 _symmetry_equiv_pos_site_id
 _symmetry_equiv_pos_as_xyz
  1  'x, y, z'
loop_
 _atom_site_type_symbol
 _atom_site_label
 _atom_site_symmetry_multiplicity
 _atom_site_fract_x
 _atom_site_fract_y
 _atom_site_fract_z
 _atom_site_occupancy
  Mn  Mn0  1  0.50524900  0.49225300  0.00305100  1
  Mn  Mn1  1  0.51245600  0.83154600  0.65393200  1
  Mn  Mn2  1  0.49718600  0.16756400  0.33791900  1
  Mn  Mn3  1  0.02076900  0.33746400  0.68214900  1
  Mn  Mn4  1  0.98127900  0.65870400  0.31665800  1
  Mn  Mn5  1  0.98346300  0.01135500  0.00678200  1
  O  O0  1  0.81223500  0.71857100  0.09465200  1
  O  O1  1  0.69333800  0.20718600  0.10944300  1
  O  O2  1  0.68859700  0.53181800  0.76826300  1
  O  O3  1  0.70181200  0.87294500  0.42712500  1
  O  O4  1  0.30510500  0.12340600  0.56762200  1
  O  O5  1  0.31266700  0.46891000  0.23226800  1
  O  O6  1  0.18607700  0.28260700  0.90513600  1
  F  F0  1  0.81409200  0.36114800  0.45235400  1
  F  F1  1  0.79976900  0.02423800  0.77848700  1
  F  F2  1  0.29865200  0.79866500  0.89291700  1
  F  F3  1  0.18715400  0.63860300  0.54959700  1
  F  F4  1  0.20010000  0.97301900  0.22164400  1
loop_
_geom_bond_atom_site_label_1
_geom_bond_atom_site_label_2
_geom_bond_distance
_geom_bond_site_symmetry_2
Mn0 O1 1.915677 1_555
Mn0 O5 1.944663 1_555
Mn0 O2 1.968570 1_554
Mn0 O0 2.164506 1_555
Mn0 O6 2.165612 1_554
Mn1 O3 1.927263 1_555
Mn1 O4 1.933723 1_565
Mn1 O2 1.981256 1_555
Mn2 O3 1.946809 1_545
Mn2 O1 1.951697 1_555
Mn2 O4 1.953544 1_555
Mn2 O5 1.978747 1_555
Mn3 O6 1.898500 1_555
Mn3 O4 1.966028 1_555
Mn3 O2 1.966028 1_455
Mn4 O0 1.901266 1_555
Mn4 O3 1.938028 1_555
Mn4 O5 1.945171 1_655
Mn5 O1 1.881699 1_555
Mn5 O0 1.947235 1_545
Mn5 O6 1.951141 1_654
F0 Mn3 2.034701 1_655
F0 Mn4 2.086556 1_555
F0 Mn2 2.159388 1_555
F1 Mn5 1.975157 1_556
F1 Mn1 2.095177 1_545
F1 Mn3 2.174965 1_655
F2 Mn5 2.051991 1_466
F2 Mn0 2.055986 1_556
F2 Mn1 2.056754 1_555
F3 Mn4 2.054955 1_455
F3 Mn3 2.091131 1_555
F3 Mn1 2.151363 1_555
F4 Mn5 1.958541 1_465
F4 Mn2 2.101661 1_565
F4 Mn4 2.172126 1_455
