# generated using pymatgen
data_Li4Ti5Mn4O18
_symmetry_space_group_name_H-M   'P 1'
_cell_length_a   2.91765500
_cell_length_b   9.10970800
_cell_length_c   26.39404600
_cell_angle_alpha   90.00000000
_cell_angle_beta   90.00000000
_cell_angle_gamma   90.00000000
_symmetry_Int_Tables_number   1
_chemical_formula_structural   Li4Ti5Mn4O18
_chemical_formula_sum   'Li8 Ti10 Mn8 O36'
_cell_volume   701.52695522
_cell_formula_units_Z   2
loop_
 _symmetry_equiv_pos_site_id
 _symmetry_equiv_pos_as_xyz
  1  'x, y, z'
loop_
 _atom_site_type_symbol
 _atom_site_label
 _atom_site_symmetry_multiplicity
 _atom_site_fract_x
 _atom_site_fract_y
 _atom_site_fract_z
 _atom_site_occupancy
  Li  Li0  1  0.00000000  0.18896200  0.99170300  1
  Li  Li1  1  0.00000000  0.20549500  0.18688400  1
  Li  Li2  1  0.00000000  0.29450500  0.68688400  1
  Li  Li3  1  0.00000000  0.31103800  0.49170300  1
  Li  Li4  1  0.00000000  0.68896200  0.50829700  1
  Li  Li5  1  0.00000000  0.70549500  0.31311600  1
  Li  Li6  1  0.00000000  0.79450500  0.81311600  1
  Li  Li7  1  0.00000000  0.81103800  0.00829700  1
  Ti  Ti0  1  0.00000000  0.00000000  0.50000000  1
  Ti  Ti1  1  0.00000000  0.99767000  0.10193100  1
  Ti  Ti2  1  0.50000000  0.14294000  0.80810900  1
  Ti  Ti3  1  0.50000000  0.35706000  0.30810900  1
  Ti  Ti4  1  0.00000000  0.50233000  0.60193100  1
  Ti  Ti5  1  0.00000000  0.50000000  0.00000000  1
  Ti  Ti6  1  0.00000000  0.49767000  0.39806900  1
  Ti  Ti7  1  0.50000000  0.64294000  0.69189100  1
  Ti  Ti8  1  0.50000000  0.85706000  0.19189100  1
  Ti  Ti9  1  0.00000000  0.00233000  0.89806900  1
  Mn  Mn0  1  0.00000000  0.01427700  0.30830000  1
  Mn  Mn1  1  0.50000000  0.14939000  0.58810500  1
  Mn  Mn2  1  0.50000000  0.35061000  0.08810500  1
  Mn  Mn3  1  0.00000000  0.48572300  0.80830000  1
  Mn  Mn4  1  0.00000000  0.51427700  0.19170000  1
  Mn  Mn5  1  0.50000000  0.64939000  0.91189500  1
  Mn  Mn6  1  0.50000000  0.85061000  0.41189500  1
  Mn  Mn7  1  0.00000000  0.98572300  0.69170000  1
  O  O0  1  0.00000000  0.98816000  0.42416300  1
  O  O1  1  0.00000000  0.01184000  0.57583700  1
  O  O2  1  0.50000000  0.05101000  0.94183300  1
  O  O3  1  0.50000000  0.05247900  0.15558600  1
  O  O4  1  0.50000000  0.11674100  0.66969100  1
  O  O5  1  0.00000000  0.09417200  0.76444500  1
  O  O6  1  0.50000000  0.14649300  0.49941700  1
  O  O7  1  0.50000000  0.14722000  0.29068600  1
  O  O8  1  0.00000000  0.18022400  0.85872200  1
  O  O9  1  0.00000000  0.20766200  0.08492200  1
  O  O10  1  0.00000000  0.29233800  0.58492200  1
  O  O11  1  0.00000000  0.31977600  0.35872200  1
  O  O12  1  0.50000000  0.35278000  0.79068600  1
  O  O13  1  0.50000000  0.35350700  0.99941700  1
  O  O14  1  0.00000000  0.40582800  0.26444500  1
  O  O15  1  0.50000000  0.38325900  0.16969100  1
  O  O16  1  0.50000000  0.44752100  0.65558600  1
  O  O17  1  0.50000000  0.44899000  0.44183300  1
  O  O18  1  0.00000000  0.48816000  0.07583700  1
  O  O19  1  0.00000000  0.51184000  0.92416300  1
  O  O20  1  0.50000000  0.55101000  0.55816700  1
  O  O21  1  0.50000000  0.55247900  0.34441400  1
  O  O22  1  0.50000000  0.61674100  0.83030900  1
  O  O23  1  0.00000000  0.59417200  0.73555500  1
  O  O24  1  0.50000000  0.64649300  0.00058300  1
  O  O25  1  0.50000000  0.64722000  0.20931400  1
  O  O26  1  0.00000000  0.68022400  0.64127800  1
  O  O27  1  0.00000000  0.70766200  0.41507800  1
  O  O28  1  0.00000000  0.79233800  0.91507800  1
  O  O29  1  0.00000000  0.81977600  0.14127800  1
  O  O30  1  0.50000000  0.85278000  0.70931400  1
  O  O31  1  0.50000000  0.85350700  0.50058300  1
  O  O32  1  0.00000000  0.90582800  0.23555500  1
  O  O33  1  0.50000000  0.88325900  0.33030900  1
  O  O34  1  0.50000000  0.94752100  0.84441400  1
  O  O35  1  0.50000000  0.94899000  0.05816700  1
loop_
_geom_bond_atom_site_label_1
_geom_bond_atom_site_label_2
_geom_bond_distance
_geom_bond_site_symmetry_2
Li0 O13 2.101548 1_455
Li0 O13 2.101548 1_555
Li0 O2 2.332391 1_555
Li0 O2 2.332391 1_455
Li0 O9 2.466317 1_556
Li1 O3 2.180282 1_555
Li1 O3 2.180282 1_455
Li1 O15 2.226318 1_455
Li1 O15 2.226318 1_555
Li2 O16 2.180282 1_555
Li2 O16 2.180282 1_455
Li2 O4 2.226318 1_555
Li2 O4 2.226318 1_455
Li3 O6 2.101548 1_455
Li3 O6 2.101548 1_555
Li3 O17 2.332391 1_455
Li3 O17 2.332391 1_555
Li3 O10 2.466317 1_555
Li4 O31 2.101548 1_555
Li4 O31 2.101548 1_455
Li4 O20 2.332391 1_455
Li4 O20 2.332391 1_555
Li4 O27 2.466317 1_555
Li5 O21 2.180282 1_455
Li5 O21 2.180282 1_555
Li5 O33 2.226318 1_555
Li5 O33 2.226318 1_455
Li6 O34 2.180282 1_455
Li6 O34 2.180282 1_555
Li6 O22 2.226318 1_455
Li6 O22 2.226318 1_555
Li7 O24 2.101548 1_555
Li7 O24 2.101548 1_455
Li7 O35 2.332391 1_555
Li7 O35 2.332391 1_455
Li7 O28 2.466317 1_554
Mn0 O7 1.952181 1_555
Mn0 O7 1.952181 1_455
Mn0 O33 1.972348 1_445
Mn0 O33 1.972348 1_545
Mn0 O32 2.159295 1_545
Mn1 O1 1.950163 1_655
Mn1 O1 1.950163 1_555
Mn1 O10 1.957294 1_655
Mn1 O10 1.957294 1_555
Mn1 O4 2.173827 1_555
Mn1 O6 2.340984 1_555
Mn2 O18 1.950163 1_555
Mn2 O18 1.950163 1_655
Mn2 O9 1.957294 1_555
Mn2 O9 1.957294 1_655
Mn2 O15 2.173827 1_555
Mn2 O13 2.340984 1_554
Mn3 O12 1.952181 1_455
Mn3 O12 1.952181 1_555
Mn3 O22 1.972348 1_455
Mn3 O22 1.972348 1_555
Mn3 O23 2.159295 1_555
Mn4 O25 1.952181 1_455
Mn4 O25 1.952181 1_555
Mn4 O15 1.972348 1_455
Mn4 O15 1.972348 1_555
Mn4 O14 2.159295 1_555
Mn5 O19 1.950163 1_555
Mn5 O19 1.950163 1_655
Mn5 O28 1.957294 1_555
Mn5 O28 1.957294 1_655
Mn5 O22 2.173827 1_555
Mn5 O24 2.340984 1_556
Mn6 O0 1.950163 1_555
Mn6 O0 1.950163 1_655
Mn6 O27 1.957294 1_555
Mn6 O27 1.957294 1_655
Mn6 O33 2.173827 1_555
Mn6 O31 2.340984 1_555
Mn7 O30 1.952181 1_455
Mn7 O30 1.952181 1_555
Mn7 O4 1.972348 1_565
Mn7 O4 1.972348 1_465
Mn7 O5 2.159295 1_565
O0 Ti0 2.004549 1_565
O1 Ti0 2.004549 1_555
O2 Ti9 1.912881 1_655
O2 Ti9 1.912881 1_555
O3 Ti8 2.021723 1_545
O3 Ti1 2.093566 1_545
O3 Ti1 2.093566 1_645
O5 Ti2 1.911474 1_555
O5 Ti2 1.911474 1_455
O6 Ti0 1.977202 1_555
O6 Ti0 1.977202 1_655
O7 Ti3 1.966117 1_555
O8 Ti9 1.924775 1_555
O8 Ti2 2.007017 1_555
O8 Ti2 2.007017 1_455
O9 Ti1 1.964938 1_545
O10 Ti4 1.964938 1_555
O11 Ti6 1.924775 1_555
O11 Ti3 2.007017 1_555
O11 Ti3 2.007017 1_455
O12 Ti2 1.966117 1_555
O13 Ti5 1.977202 1_656
O13 Ti5 1.977202 1_556
O14 Ti3 1.911474 1_555
O14 Ti3 1.911474 1_455
O16 Ti7 2.021723 1_555
O16 Ti4 2.093566 1_555
O16 Ti4 2.093566 1_655
O17 Ti6 1.912881 1_555
O17 Ti6 1.912881 1_655
O18 Ti5 2.004549 1_555
O19 Ti5 2.004549 1_556
O20 Ti4 1.912881 1_555
O20 Ti4 1.912881 1_655
O21 Ti3 2.021723 1_555
O21 Ti6 2.093566 1_655
O21 Ti6 2.093566 1_555
O23 Ti7 1.911474 1_555
O23 Ti7 1.911474 1_455
O24 Ti5 1.977202 1_655
O24 Ti5 1.977202 1_555
O25 Ti8 1.966117 1_555
O26 Ti4 1.924775 1_555
O26 Ti7 2.007017 1_555
O26 Ti7 2.007017 1_455
O27 Ti6 1.964938 1_555
O28 Ti9 1.964938 1_565
O29 Ti1 1.924775 1_555
O29 Ti8 2.007017 1_455
O29 Ti8 2.007017 1_555
O30 Ti7 1.966117 1_555
O31 Ti0 1.977202 1_665
O31 Ti0 1.977202 1_565
O32 Ti8 1.911474 1_455
O32 Ti8 1.911474 1_555
O34 Ti2 2.021723 1_565
O34 Ti9 2.093566 1_565
O34 Ti9 2.093566 1_665
O35 Ti1 1.912881 1_555
O35 Ti1 1.912881 1_655
