# generated using pymatgen
data_DyTe3O8
_symmetry_space_group_name_H-M   'P 1'
_cell_length_a   6.87175222
_cell_length_b   6.87175222
_cell_length_c   10.53490736
_cell_angle_alpha   66.12323602
_cell_angle_beta   66.12323602
_cell_angle_gamma   48.28036030
_symmetry_Int_Tables_number   1
_chemical_formula_structural   DyTe3O8
_chemical_formula_sum   'Dy2 Te6 O16'
_cell_volume   332.78941340
_cell_formula_units_Z   2
loop_
 _symmetry_equiv_pos_site_id
 _symmetry_equiv_pos_as_xyz
  1  'x, y, z'
loop_
 _atom_site_type_symbol
 _atom_site_label
 _atom_site_symmetry_multiplicity
 _atom_site_fract_x
 _atom_site_fract_y
 _atom_site_fract_z
 _atom_site_occupancy
  Dy  Dy0  1  0.43919600  0.56080400  0.75000000  1
  Dy  Dy1  1  0.56080400  0.43919600  0.25000000  1
  Te  Te0  1  0.69254600  0.86641200  0.85728000  1
  Te  Te1  1  0.86641200  0.69254600  0.35728000  1
  Te  Te2  1  0.00000000  0.00000000  0.50000000  1
  Te  Te3  1  0.00000000  0.00000000  0.00000000  1
  Te  Te4  1  0.13358800  0.30745400  0.64272000  1
  Te  Te5  1  0.30745400  0.13358800  0.14272000  1
  O  O0  1  0.00537700  0.78369500  0.90528500  1
  O  O1  1  0.78369500  0.00537700  0.40528500  1
  O  O2  1  0.36530500  0.86033300  0.86794600  1
  O  O3  1  0.78523100  0.57016300  0.58516100  1
  O  O4  1  0.84691700  0.32162500  0.82978900  1
  O  O5  1  0.86033300  0.36530500  0.36794600  1
  O  O6  1  0.57016300  0.78523100  0.08516100  1
  O  O7  1  0.32162500  0.84691700  0.32978900  1
  O  O8  1  0.67837500  0.15308300  0.67021100  1
  O  O9  1  0.42983700  0.21476900  0.91483900  1
  O  O10  1  0.13966700  0.63469500  0.63205400  1
  O  O11  1  0.15308300  0.67837500  0.17021100  1
  O  O12  1  0.21476900  0.42983700  0.41483900  1
  O  O13  1  0.63469500  0.13966700  0.13205400  1
  O  O14  1  0.21630500  0.99462300  0.59471500  1
  O  O15  1  0.99462300  0.21630500  0.09471500  1
loop_
_geom_bond_atom_site_label_1
_geom_bond_atom_site_label_2
_geom_bond_distance
_geom_bond_site_symmetry_2
Dy0 O9 2.333306 1_555
Dy0 O3 2.333306 1_555
Dy0 O0 2.431527 1_555
Dy0 O14 2.431527 1_555
Dy0 O8 2.432460 1_555
Dy0 O4 2.432460 1_555
Dy0 O10 2.491376 1_555
Dy0 O2 2.491376 1_555
Dy1 O12 2.333306 1_555
Dy1 O6 2.333306 1_555
Dy1 O1 2.431527 1_555
Dy1 O15 2.431527 1_555
Dy1 O11 2.432460 1_555
Dy1 O7 2.432460 1_555
Dy1 O13 2.491376 1_555
Dy1 O5 2.491376 1_555
O0 Te0 2.054534 1_455
O0 Te3 2.074629 1_566
O1 Te1 2.054534 1_545
O1 Te2 2.074629 1_655
O2 Te3 2.050645 1_566
O2 Te0 2.233334 1_555
O3 Te4 1.973374 1_655
O3 Te1 2.165101 1_555
O4 Te3 2.104991 1_656
O4 Te4 2.128657 1_655
O5 Te2 2.050645 1_655
O5 Te1 2.233334 1_555
O6 Te5 1.973374 1_565
O6 Te0 2.165101 1_554
O7 Te2 2.104991 1_565
O7 Te5 2.128657 1_565
O8 Te2 2.104991 1_655
O8 Te0 2.128657 1_545
O9 Te0 1.973374 1_545
O9 Te5 2.165101 1_556
O10 Te2 2.050645 1_565
O10 Te4 2.233334 1_555
O11 Te3 2.104991 1_565
O11 Te1 2.128657 1_455
O12 Te1 1.973374 1_455
O12 Te4 2.165101 1_555
O13 Te3 2.050645 1_655
O13 Te5 2.233334 1_555
O14 Te4 2.054534 1_565
O14 Te2 2.074629 1_565
O15 Te5 2.054534 1_655
O15 Te3 2.074629 1_655
