# generated using pymatgen
data_Li2Mn3(BO3)3
_symmetry_space_group_name_H-M   'P 1'
_cell_length_a   6.30120900
_cell_length_b   8.16399295
_cell_length_c   8.72027580
_cell_angle_alpha   117.53234032
_cell_angle_beta   108.88942875
_cell_angle_gamma   90.89181990
_symmetry_Int_Tables_number   1
_chemical_formula_structural   Li2Mn3(BO3)3
_chemical_formula_sum   'Li4 Mn6 B6 O18'
_cell_volume   369.00113251
_cell_formula_units_Z   2
loop_
 _symmetry_equiv_pos_site_id
 _symmetry_equiv_pos_as_xyz
  1  'x, y, z'
loop_
 _atom_site_type_symbol
 _atom_site_label
 _atom_site_symmetry_multiplicity
 _atom_site_fract_x
 _atom_site_fract_y
 _atom_site_fract_z
 _atom_site_occupancy
  Li  Li0  1  0.58762000  0.02001300  0.71959100  1
  Li  Li1  1  0.87897800  0.27983200  0.30151100  1
  Li  Li2  1  0.74029000  0.69166900  0.98236300  1
  Li  Li3  1  0.25415200  0.69260300  0.97896500  1
  Mn  Mn0  1  0.85841300  0.69412500  0.65484400  1
  Mn  Mn1  1  0.32643200  0.61823400  0.59722700  1
  Mn  Mn2  1  0.49067100  0.36666500  0.01790600  1
  Mn  Mn3  1  0.99477500  0.33538200  0.00300400  1
  Mn  Mn4  1  0.67744500  0.99798200  0.37680500  1
  Mn  Mn5  1  0.16892700  0.00320700  0.35481100  1
  B  B0  1  0.58784000  0.34349300  0.67950800  1
  B  B1  1  0.07958700  0.34361200  0.66390900  1
  B  B2  1  0.99081200  0.99114300  0.00069200  1
  B  B3  1  0.50349400  0.98245600  0.99485200  1
  B  B4  1  0.92601000  0.66158400  0.33093800  1
  B  B5  1  0.41515800  0.67521500  0.33029200  1
  O  O0  1  0.90921100  0.04240100  0.86403600  1
  O  O1  1  0.45773900  0.08497100  0.90482700  1
  O  O2  1  0.51628800  0.14813900  0.55990900  1
  O  O3  1  0.98013900  0.15563300  0.53445800  1
  O  O4  1  0.68717300  0.41018500  0.86842600  1
  O  O5  1  0.17772300  0.40792400  0.85052700  1
  O  O6  1  0.07051300  0.12165500  0.18651900  1
  O  O7  1  0.60449800  0.07853600  0.18897700  1
  O  O8  1  0.07233400  0.46395700  0.58923100  1
  O  O9  1  0.56389300  0.46905900  0.61173400  1
  O  O10  1  0.98366400  0.79843400  0.94049500  1
  O  O11  1  0.45907300  0.78625500  0.89512500  1
  O  O12  1  0.83188800  0.47237900  0.22534300  1
  O  O13  1  0.31830300  0.49094900  0.21426400  1
  O  O14  1  0.07788700  0.73940700  0.51741200  1
  O  O15  1  0.52585900  0.74705900  0.52330000  1
  O  O16  1  0.87180400  0.78546400  0.26246300  1
  O  O17  1  0.40324300  0.80036800  0.25940500  1
loop_
_geom_bond_atom_site_label_1
_geom_bond_atom_site_label_2
_geom_bond_distance
_geom_bond_site_symmetry_2
Li0 O1 1.907295 1_555
Li0 O0 1.961960 1_555
Li0 O15 2.015554 1_545
Li0 O2 2.047224 1_555
Li1 O6 1.940288 1_655
Li1 O12 1.962760 1_555
Li1 O7 1.994166 1_555
Li1 O8 2.125097 1_655
Li2 O10 1.964672 1_555
Li2 O11 2.006957 1_555
Li2 O4 2.007495 1_555
Li2 O16 2.044419 1_556
Li3 O10 1.925517 1_455
Li3 O11 1.970716 1_555
Li3 O5 2.024175 1_555
Li3 O17 2.033409 1_556
Mn0 O10 2.073163 1_555
Mn0 O15 2.196310 1_555
Mn0 O14 2.225378 1_655
Mn0 O8 2.293382 1_655
Mn0 O9 2.401070 1_555
Mn0 O0 2.512584 1_565
Mn1 O9 1.953121 1_555
Mn1 O14 1.973529 1_555
Mn1 O8 1.984588 1_555
Mn1 O15 2.052085 1_555
Mn1 O11 2.143044 1_555
Mn2 O1 2.015041 1_554
Mn2 O12 2.149537 1_555
Mn2 O5 2.178081 1_554
Mn2 O13 2.184816 1_555
Mn2 O4 2.194999 1_554
Mn3 O0 2.082659 1_554
Mn3 O13 2.118360 1_655
Mn3 O4 2.175696 1_554
Mn3 O5 2.268664 1_654
Mn3 O12 2.320132 1_555
Mn4 O3 1.942786 1_565
Mn4 O7 1.960688 1_565
Mn4 O17 1.969050 1_555
Mn4 O2 2.088662 1_565
Mn4 O16 2.182146 1_555
Mn5 O6 2.052991 1_555
Mn5 O2 2.194962 1_555
Mn5 O3 2.206418 1_455
Mn5 O16 2.215972 1_445
Mn5 O17 2.283018 1_545
B0 O4 1.376479 1_555
B0 O9 1.389285 1_555
B0 O2 1.403564 1_555
B1 O5 1.361893 1_555
B1 O3 1.390181 1_455
B1 O8 1.401820 1_555
B2 O6 1.368785 1_665
B2 O0 1.389455 1_564
B2 O10 1.404191 1_554
B3 O1 1.366840 1_565
B3 O11 1.393184 1_555
B3 O7 1.394728 1_566
B4 O12 1.374249 1_555
B4 O16 1.390345 1_555
B4 O14 1.407860 1_655
B5 O13 1.350439 1_555
B5 O15 1.406346 1_555
B5 O17 1.409954 1_555
