# generated using pymatgen
data_K2LiNbO4
_symmetry_space_group_name_H-M   'P 1'
_cell_length_a   8.27500500
_cell_length_b   5.92929300
_cell_length_c   12.46724243
_cell_angle_alpha   75.23181314
_cell_angle_beta   90.00000000
_cell_angle_gamma   90.00000000
_symmetry_Int_Tables_number   1
_chemical_formula_structural   K2LiNbO4
_chemical_formula_sum   'K8 Li4 Nb4 O16'
_cell_volume   591.49675896
_cell_formula_units_Z   4
loop_
 _symmetry_equiv_pos_site_id
 _symmetry_equiv_pos_as_xyz
  1  'x, y, z'
loop_
 _atom_site_type_symbol
 _atom_site_label
 _atom_site_symmetry_multiplicity
 _atom_site_fract_x
 _atom_site_fract_y
 _atom_site_fract_z
 _atom_site_occupancy
  K  K0  1  0.50938200  0.62913500  0.65876400  1
  K  K1  1  0.24317700  0.17517000  0.13804200  1
  K  K2  1  0.00938200  0.37086500  0.84123600  1
  K  K3  1  0.25682300  0.17517000  0.63804200  1
  K  K4  1  0.74317700  0.82483000  0.36195800  1
  K  K5  1  0.99061800  0.62913500  0.15876400  1
  K  K6  1  0.75682300  0.82483000  0.86195800  1
  K  K7  1  0.49061800  0.37086500  0.34123600  1
  Li  Li0  1  0.47474000  0.36256400  0.90994500  1
  Li  Li1  1  0.97474000  0.63743600  0.59005500  1
  Li  Li2  1  0.02526000  0.36256400  0.40994500  1
  Li  Li3  1  0.52526000  0.63743600  0.09005500  1
  Nb  Nb0  1  0.22049300  0.84932500  0.43249100  1
  Nb  Nb1  1  0.72049300  0.15067500  0.06750900  1
  Nb  Nb2  1  0.27950700  0.84932500  0.93249100  1
  Nb  Nb3  1  0.77950700  0.15067500  0.56750900  1
  O  O0  1  0.79924700  0.82353000  0.61783900  1
  O  O1  1  0.19737900  0.75688500  0.58814000  1
  O  O2  1  0.55229600  0.30692800  0.12140900  1
  O  O3  1  0.92691800  0.23433700  0.10028400  1
  O  O4  1  0.69737900  0.24311500  0.91186000  1
  O  O5  1  0.29924700  0.17647000  0.88216100  1
  O  O6  1  0.42691800  0.76566300  0.39971600  1
  O  O7  1  0.05229600  0.69307200  0.37859100  1
  O  O8  1  0.94770400  0.30692800  0.62140900  1
  O  O9  1  0.57308200  0.23433700  0.60028400  1
  O  O10  1  0.70075300  0.82353000  0.11783900  1
  O  O11  1  0.30262100  0.75688500  0.08814000  1
  O  O12  1  0.07308200  0.76566300  0.89971600  1
  O  O13  1  0.44770400  0.69307200  0.87859100  1
  O  O14  1  0.80262100  0.24311500  0.41186000  1
  O  O15  1  0.20075300  0.17647000  0.38216100  1
loop_
_geom_bond_atom_site_label_1
_geom_bond_atom_site_label_2
_geom_bond_distance
_geom_bond_site_symmetry_2
K0 O0 2.653770 1_555
K0 O9 2.675669 1_555
K0 O1 2.770347 1_555
K0 O13 2.906026 1_555
K0 O6 3.196639 1_555
K1 O3 2.666346 1_455
K1 O2 2.667189 1_555
K1 O11 2.750770 1_545
K1 O15 3.065632 1_555
K1 O5 3.221759 1_554
K2 O5 2.653770 1_555
K2 O12 2.675669 1_555
K2 O4 2.770347 1_455
K2 O8 2.906026 1_455
K2 O3 3.196639 1_456
K3 O9 2.666346 1_555
K3 O8 2.667189 1_455
K3 O1 2.750770 1_545
K3 O5 3.065632 1_555
K3 O15 3.221759 1_555
K4 O6 2.666346 1_555
K4 O7 2.667189 1_655
K4 O14 2.750770 1_565
K4 O10 3.065632 1_555
K4 O0 3.221759 1_555
K5 O10 2.653770 1_555
K5 O3 2.675669 1_555
K5 O11 2.770347 1_655
K5 O7 2.906026 1_655
K5 O12 3.196639 1_654
K6 O12 2.666346 1_655
K6 O13 2.667189 1_555
K6 O4 2.750770 1_565
K6 O0 3.065632 1_555
K6 O10 3.221759 1_556
K7 O15 2.653770 1_555
K7 O6 2.675669 1_555
K7 O14 2.770347 1_555
K7 O2 2.906026 1_555
K7 O9 3.196639 1_555
Li0 O5 1.908205 1_555
Li0 O13 1.911192 1_555
Li0 O4 1.971745 1_555
Li0 O2 2.650995 1_556
Li1 O0 1.908205 1_555
Li1 O8 1.911192 1_555
Li1 O1 1.971745 1_655
Li1 O7 2.650995 1_655
Li2 O15 1.908205 1_555
Li2 O7 1.911192 1_555
Li2 O14 1.971745 1_455
Li2 O8 2.650995 1_455
Li3 O10 1.908205 1_555
Li3 O2 1.911192 1_555
Li3 O11 1.971745 1_555
Li3 O13 2.650995 1_554
Nb0 O6 1.853163 1_555
Nb0 O1 1.886889 1_555
Nb0 O15 1.887452 1_565
Nb0 O7 1.887989 1_555
Nb1 O3 1.853163 1_555
Nb1 O4 1.886889 1_554
Nb1 O10 1.887452 1_545
Nb1 O2 1.887989 1_555
Nb2 O12 1.853163 1_555
Nb2 O11 1.886889 1_556
Nb2 O5 1.887452 1_565
Nb2 O13 1.887989 1_555
Nb3 O9 1.853163 1_555
Nb3 O14 1.886889 1_555
Nb3 O0 1.887452 1_545
Nb3 O8 1.887989 1_555
