# generated using pymatgen
data_LiSb3(PO5)2
_symmetry_space_group_name_H-M   'P 1'
_cell_length_a   5.29698000
_cell_length_b   6.70651075
_cell_length_c   6.99528000
_cell_angle_alpha   112.07276495
_cell_angle_beta   109.82912534
_cell_angle_gamma   85.41993523
_symmetry_Int_Tables_number   1
_chemical_formula_structural   LiSb3(PO5)2
_chemical_formula_sum   'Li1 Sb3 P2 O10'
_cell_volume   216.31110352
_cell_formula_units_Z   1
loop_
 _symmetry_equiv_pos_site_id
 _symmetry_equiv_pos_as_xyz
  1  'x, y, z'
loop_
 _atom_site_type_symbol
 _atom_site_label
 _atom_site_symmetry_multiplicity
 _atom_site_fract_x
 _atom_site_fract_y
 _atom_site_fract_z
 _atom_site_occupancy
  Li  Li0  1  0.88939700  0.48652800  0.99838100  1
  Sb  Sb0  1  0.55973100  0.41499900  0.33738500  1
  Sb  Sb1  1  0.01513700  0.01319700  0.03478400  1
  Sb  Sb2  1  0.38449600  0.16510700  0.76555600  1
  P  P0  1  0.64997800  0.93032900  0.38082200  1
  P  P1  1  0.28896100  0.61952700  0.70850700  1
  O  O0  1  0.72222000  0.99859100  0.63491900  1
  O  O1  1  0.36048900  0.86802300  0.84328400  1
  O  O2  1  0.58684400  0.68360100  0.25691500  1
  O  O3  1  0.24423200  0.57469000  0.46124100  1
  O  O4  1  0.04439900  0.55285500  0.74193600  1
  O  O5  1  0.22053400  0.28548600  0.05233700  1
  O  O6  1  0.71941400  0.24971900  0.04129700  1
  O  O7  1  0.53596600  0.48924700  0.78694700  1
  O  O8  1  0.87558800  0.00358300  0.32727900  1
  O  O9  1  0.38691200  0.05409900  0.31631000  1
loop_
_geom_bond_atom_site_label_1
_geom_bond_atom_site_label_2
_geom_bond_distance
_geom_bond_site_symmetry_2
Li0 O7 1.956782 1_555
Li0 O6 2.047728 1_556
Li0 O5 2.143032 1_656
Li0 O4 2.397367 1_655
O0 P0 1.571749 1_555
O0 Sb2 2.303366 1_565
O0 Sb1 2.667408 1_666
O1 P1 1.577152 1_555
O1 Sb2 2.276625 1_565
O1 Sb1 2.546904 1_566
O2 P0 1.553996 1_555
O2 Sb0 2.107306 1_555
O3 P1 1.575069 1_555
O3 Sb0 2.165555 1_555
O4 P1 1.519668 1_555
O5 Sb0 2.115565 1_555
O5 Sb1 2.142803 1_555
O5 Sb2 2.298565 1_554
O6 Sb2 2.050964 1_554
O6 Sb1 2.137577 1_655
O6 Sb0 2.355290 1_555
O7 P1 1.570676 1_555
O7 Sb2 2.311789 1_555
O8 P0 1.531508 1_545
O8 Sb1 2.422781 1_655
O9 P0 1.582581 1_545
O9 Sb1 2.209262 1_555
O9 Sb0 2.590768 1_555
