# generated using pymatgen
data_Li2Cu3F8
_symmetry_space_group_name_H-M   'P 1'
_cell_length_a   6.12803870
_cell_length_b   6.12803870
_cell_length_c   9.15462874
_cell_angle_alpha   89.86550397
_cell_angle_beta   89.86550397
_cell_angle_gamma   119.28122981
_symmetry_Int_Tables_number   1
_chemical_formula_structural   Li2Cu3F8
_chemical_formula_sum   'Li4 Cu6 F16'
_cell_volume   299.85399957
_cell_formula_units_Z   2
loop_
 _symmetry_equiv_pos_site_id
 _symmetry_equiv_pos_as_xyz
  1  'x, y, z'
loop_
 _atom_site_type_symbol
 _atom_site_label
 _atom_site_symmetry_multiplicity
 _atom_site_fract_x
 _atom_site_fract_y
 _atom_site_fract_z
 _atom_site_occupancy
  Li  Li0  1  0.33561200  0.66839900  0.53917900  1
  Li  Li1  1  0.33211900  0.66771700  0.91623800  1
  Li  Li2  1  0.66839900  0.33561200  0.03917900  1
  Li  Li3  1  0.66771700  0.33211900  0.41623800  1
  Cu  Cu0  1  0.66952800  0.83180100  0.24983800  1
  Cu  Cu1  1  0.16234500  0.33014100  0.24979400  1
  Cu  Cu2  1  0.83770700  0.16732900  0.74726400  1
  Cu  Cu3  1  0.16732900  0.83770700  0.24726400  1
  Cu  Cu4  1  0.83180100  0.66952800  0.74983800  1
  Cu  Cu5  1  0.33014100  0.16234500  0.74979400  1
  F  F0  1  0.66259700  0.80081600  0.63815400  1
  F  F1  1  0.45752200  0.48519300  0.37252800  1
  F  F2  1  0.52024600  0.97397600  0.37617800  1
  F  F3  1  0.33005000  0.67409000  0.12842600  1
  F  F4  1  0.99265900  0.00368700  0.86217600  1
  F  F5  1  0.14615800  0.33355000  0.64031600  1
  F  F6  1  0.02887600  0.53996400  0.37203200  1
  F  F7  1  0.85747000  0.19016500  0.14177800  1
  F  F8  1  0.19016500  0.85747000  0.64177800  1
  F  F9  1  0.97397600  0.52024600  0.87617800  1
  F  F10  1  0.53996400  0.02887600  0.87203200  1
  F  F11  1  0.67409000  0.33005000  0.62842600  1
  F  F12  1  0.00368700  0.99265900  0.36217600  1
  F  F13  1  0.80081600  0.66259700  0.13815400  1
  F  F14  1  0.48519300  0.45752200  0.87252800  1
  F  F15  1  0.33355000  0.14615800  0.14031600  1
loop_
_geom_bond_atom_site_label_1
_geom_bond_atom_site_label_2
_geom_bond_distance
_geom_bond_site_symmetry_2
Cu0 F13 1.893387 1_555
Cu0 F2 1.926935 1_555
Cu0 F12 2.064625 1_655
Cu0 F3 2.132231 1_555
Cu0 F7 2.153634 1_565
Cu0 F1 2.177964 1_555
Cu1 F7 1.910267 1_455
Cu1 F1 1.941787 1_555
Cu1 F12 2.073458 1_545
Cu1 F15 2.129268 1_555
Cu1 F3 2.144286 1_555
Cu1 F6 2.146090 1_555
Cu2 F5 1.916308 1_655
Cu2 F10 1.955749 1_555
Cu2 F4 1.986230 1_555
Cu2 F11 2.039910 1_555
Cu2 F0 2.202668 1_545
Cu2 F9 2.239942 1_555
Cu3 F15 1.916308 1_565
Cu3 F6 1.955749 1_555
Cu3 F12 1.986230 1_555
Cu3 F3 2.039910 1_555
Cu3 F13 2.202668 1_455
Cu3 F2 2.239942 1_555
Cu4 F0 1.893387 1_555
Cu4 F9 1.926935 1_555
Cu4 F4 2.064625 1_565
Cu4 F11 2.132231 1_555
Cu4 F8 2.153634 1_655
Cu4 F14 2.177964 1_555
Cu5 F8 1.910267 1_545
Cu5 F14 1.941787 1_555
Cu5 F4 2.073458 1_455
Cu5 F5 2.129268 1_555
Cu5 F11 2.144286 1_555
Cu5 F10 2.146090 1_555
F0 Li0 1.978893 1_555
F1 Li3 1.970226 1_555
F1 Li0 2.229176 1_555
F2 Li3 1.957845 1_565
F2 Li0 2.218080 1_555
F3 Li1 1.943123 1_554
F5 Li0 2.017765 1_555
F6 Li3 1.979953 1_455
F6 Li0 2.250801 1_555
F7 Li2 2.007589 1_555
F8 Li0 2.007589 1_555
F9 Li1 1.957845 1_655
F9 Li2 2.218080 1_556
F10 Li1 1.979953 1_545
F10 Li2 2.250801 1_556
F11 Li3 1.943123 1_555
F13 Li2 1.978893 1_555
F14 Li1 1.970226 1_555
F14 Li2 2.229176 1_556
F15 Li2 2.017765 1_555
