# generated using pymatgen
data_NaFe9Si6B3H2O31
_symmetry_space_group_name_H-M   'P 1'
_cell_length_a   9.79767256
_cell_length_b   9.79767256
_cell_length_c   7.60828012
_cell_angle_alpha   74.86882889
_cell_angle_beta   74.86882889
_cell_angle_gamma   113.31275441
_symmetry_Int_Tables_number   1
_chemical_formula_structural   NaFe9Si6B3H2O31
_chemical_formula_sum   'Na1 Fe9 Si6 B3 H2 O31'
_cell_volume   590.26687218
_cell_formula_units_Z   1
loop_
 _symmetry_equiv_pos_site_id
 _symmetry_equiv_pos_as_xyz
  1  'x, y, z'
loop_
 _atom_site_type_symbol
 _atom_site_label
 _atom_site_symmetry_multiplicity
 _atom_site_fract_x
 _atom_site_fract_y
 _atom_site_fract_z
 _atom_site_occupancy
  Na  Na0  1  0.00358000  0.00358000  0.76255100  1
  Fe  Fe0  1  0.55142400  0.33836400  0.09531700  1
  Fe  Fe1  1  0.22622500  0.66712400  0.42110500  1
  Fe  Fe2  1  0.99684300  0.82183300  0.41335700  1
  Fe  Fe3  1  0.18984300  0.18984300  0.23322200  1
  Fe  Fe4  1  0.77212100  0.43847500  0.65142700  1
  Fe  Fe5  1  0.33836400  0.55142400  0.09531700  1
  Fe  Fe6  1  0.82183300  0.99684300  0.41335700  1
  Fe  Fe7  1  0.66712400  0.22622500  0.42110500  1
  Fe  Fe8  1  0.43847500  0.77212100  0.65142700  1
  Si  Si0  1  0.62364700  0.81399300  0.18747400  1
  Si  Si1  1  0.80860200  0.18700600  0.00081000  1
  Si  Si2  1  0.37471000  0.18821800  0.81138500  1
  Si  Si3  1  0.18700600  0.80860200  0.00081000  1
  Si  Si4  1  0.81399300  0.62364700  0.18747400  1
  Si  Si5  1  0.18821800  0.37471000  0.81138500  1
  B  B0  1  0.32808000  0.00080200  0.43468400  1
  B  B1  1  0.67358500  0.67358500  0.76170800  1
  B  B2  1  0.00080200  0.32808000  0.43468400  1
  H  H0  1  0.99952800  0.63047300  0.73458900  1
  H  H1  1  0.63047300  0.99952800  0.73458900  1
  O  O0  1  0.72716400  0.00047200  0.00543900  1
  O  O1  1  0.27932900  0.56223000  0.64455600  1
  O  O2  1  0.71906700  0.43833900  0.20517000  1
  O  O3  1  0.47499900  0.14372500  0.35325500  1
  O  O4  1  0.32610700  0.85371900  0.50019300  1
  O  O5  1  0.72524300  0.72524300  0.11343700  1
  O  O6  1  0.99862900  0.27594500  0.83644400  1
  O  O7  1  0.37707200  0.19585800  0.02229900  1
  O  O8  1  0.17751300  0.79792100  0.22137200  1
  O  O9  1  0.38470400  0.38470400  0.21888500  1
  O  O10  1  0.00007800  0.61460500  0.61286200  1
  O  O11  1  0.18484300  0.00243100  0.44804300  1
  O  O12  1  0.71789200  0.28222000  0.92338500  1
  O  O13  1  0.43833900  0.71906700  0.20517000  1
  O  O14  1  0.19585800  0.37707200  0.02229900  1
  O  O15  1  0.82374700  0.62217300  0.39876500  1
  O  O16  1  0.01205500  0.01205500  0.21471300  1
  O  O17  1  0.14372500  0.47499900  0.35325500  1
  O  O18  1  0.67259400  0.52752600  0.82472800  1
  O  O19  1  0.00243100  0.18484300  0.44804300  1
  O  O20  1  0.81752600  0.81752600  0.63660000  1
  O  O21  1  0.52752600  0.67259400  0.82472800  1
  O  O22  1  0.85371900  0.32610700  0.50019300  1
  O  O23  1  0.62217300  0.82374700  0.39876500  1
  O  O24  1  0.79792100  0.17751300  0.22137200  1
  O  O25  1  0.61460500  0.00007800  0.61286200  1
  O  O26  1  0.00047200  0.72716400  0.00543900  1
  O  O27  1  0.26979700  0.26979700  0.73746800  1
  O  O28  1  0.56223000  0.27932900  0.64455600  1
  O  O29  1  0.28222000  0.71789200  0.92338500  1
  O  O30  1  0.27594500  0.99862900  0.83644400  1
loop_
_geom_bond_atom_site_label_1
_geom_bond_atom_site_label_2
_geom_bond_distance
_geom_bond_site_symmetry_2
Na0 O19 2.586751 1_555
Na0 O11 2.586751 1_555
Na0 O20 2.599608 1_445
Na0 O27 2.781805 1_555
Na0 O26 2.836019 1_546
Na0 O0 2.836019 1_456
Na0 O30 2.882877 1_545
Na0 O6 2.882877 1_455
Na0 O5 2.917693 1_446
Fe0 O9 1.940706 1_555
Fe0 O18 2.018224 1_554
Fe0 O7 2.046643 1_555
Fe0 O3 2.048778 1_555
Fe0 O2 2.055848 1_555
Fe0 O12 2.155421 1_554
Fe1 O17 1.996003 1_555
Fe1 O8 2.006330 1_555
Fe1 O4 2.031675 1_555
Fe1 O1 2.046960 1_555
Fe1 O13 2.054512 1_555
Fe1 O10 2.078638 1_555
Fe2 O16 1.992964 1_665
Fe2 O15 2.073899 1_555
Fe2 O20 2.078309 1_555
Fe2 O8 2.116349 1_655
Fe2 O11 2.123970 1_665
Fe2 O10 2.212344 1_655
Fe3 O16 1.985658 1_555
Fe3 O9 2.049249 1_555
Fe3 O7 2.066885 1_555
Fe3 O14 2.066885 1_555
Fe3 O11 2.089401 1_555
Fe3 O19 2.089401 1_555
Fe4 O12 2.008952 1_555
Fe4 O22 2.013190 1_555
Fe4 O18 2.013301 1_555
Fe4 O15 2.038649 1_555
Fe4 O28 2.055163 1_555
Fe4 O10 2.096488 1_655
Fe5 O9 1.940706 1_555
Fe5 O21 2.018224 1_554
Fe5 O14 2.046643 1_555
Fe5 O17 2.048778 1_555
Fe5 O13 2.055848 1_555
Fe5 O29 2.155421 1_554
Fe6 O16 1.992964 1_665
Fe6 O23 2.073899 1_555
Fe6 O20 2.078309 1_555
Fe6 O24 2.116349 1_565
Fe6 O19 2.123970 1_665
Fe6 O25 2.212344 1_565
Fe7 O3 1.996003 1_555
Fe7 O24 2.006330 1_555
Fe7 O22 2.031675 1_555
Fe7 O28 2.046960 1_555
Fe7 O2 2.054512 1_555
Fe7 O25 2.078638 1_555
Fe8 O29 2.008952 1_555
Fe8 O4 2.013190 1_555
Fe8 O21 2.013301 1_555
Fe8 O23 2.038649 1_555
Fe8 O1 2.055163 1_555
Fe8 O25 2.096488 1_565
B0 O3 1.379438 1_555
B0 O4 1.386877 1_545
B0 O11 1.387154 1_555
B1 O21 1.380660 1_555
B1 O18 1.380660 1_555
B1 O20 1.381308 1_555
B2 O17 1.379438 1_555
B2 O22 1.386877 1_455
B2 O19 1.387154 1_555
H0 O10 0.977317 1_655
H1 O25 0.977317 1_565
O0 Si0 1.662500 1_545
O0 Si1 1.665993 1_555
O1 Si5 1.635965 1_555
O2 Si4 1.627875 1_555
O5 Si0 1.646907 1_555
O5 Si4 1.646907 1_555
O6 Si5 1.649015 1_655
O6 Si1 1.649561 1_556
O7 Si2 1.631534 1_554
O8 Si3 1.629340 1_555
O12 Si1 1.627817 1_556
O13 Si0 1.627875 1_555
O14 Si5 1.631534 1_554
O15 Si4 1.631800 1_555
O23 Si0 1.631800 1_555
O24 Si1 1.629340 1_555
O26 Si4 1.662500 1_455
O26 Si3 1.665993 1_555
O27 Si2 1.652005 1_555
O27 Si5 1.652005 1_555
O28 Si2 1.635965 1_555
O29 Si3 1.627817 1_556
O30 Si2 1.649015 1_565
O30 Si3 1.649561 1_556
