# generated using pymatgen
data_CaH4NClO5
_symmetry_space_group_name_H-M   'P 1'
_cell_length_a   6.72120800
_cell_length_b   9.14581500
_cell_length_c   19.97831400
_cell_angle_alpha   90.00000000
_cell_angle_beta   90.00000000
_cell_angle_gamma   90.00000000
_symmetry_Int_Tables_number   1
_chemical_formula_structural   CaH4NClO5
_chemical_formula_sum   'Ca8 H32 N8 Cl8 O40'
_cell_volume   1228.08544041
_cell_formula_units_Z   8
loop_
 _symmetry_equiv_pos_site_id
 _symmetry_equiv_pos_as_xyz
  1  'x, y, z'
loop_
 _atom_site_type_symbol
 _atom_site_label
 _atom_site_symmetry_multiplicity
 _atom_site_fract_x
 _atom_site_fract_y
 _atom_site_fract_z
 _atom_site_occupancy
  Ca  Ca0  1  0.54745000  0.94585200  0.34424700  1
  Ca  Ca1  1  0.95255000  0.44585200  0.65575300  1
  Ca  Ca2  1  0.04745000  0.05414800  0.15575300  1
  Ca  Ca3  1  0.45255000  0.55414800  0.84424700  1
  Ca  Ca4  1  0.45255000  0.05414800  0.65575300  1
  Ca  Ca5  1  0.04745000  0.55414800  0.34424700  1
  Ca  Ca6  1  0.95255000  0.94585200  0.84424700  1
  Ca  Ca7  1  0.54745000  0.44585200  0.15575300  1
  H  H0  1  0.74106700  0.21137500  0.40190100  1
  H  H1  1  0.75893300  0.71137500  0.59809900  1
  H  H2  1  0.24106700  0.78862500  0.09809900  1
  H  H3  1  0.25893300  0.28862500  0.90190100  1
  H  H4  1  0.25893300  0.78862500  0.59809900  1
  H  H5  1  0.24106700  0.28862500  0.40190100  1
  H  H6  1  0.75893300  0.21137500  0.90190100  1
  H  H7  1  0.74106700  0.71137500  0.09809900  1
  H  H8  1  0.89543100  0.08294900  0.41165200  1
  H  H9  1  0.60456900  0.58294900  0.58834800  1
  H  H10  1  0.39543100  0.91705100  0.08834800  1
  H  H11  1  0.10456900  0.41705100  0.91165200  1
  H  H12  1  0.10456900  0.91705100  0.58834800  1
  H  H13  1  0.39543100  0.41705100  0.41165200  1
  H  H14  1  0.60456900  0.08294900  0.91165200  1
  H  H15  1  0.89543100  0.58294900  0.08834800  1
  H  H16  1  0.65151500  0.70397800  0.44519600  1
  H  H17  1  0.84848500  0.20397800  0.55480400  1
  H  H18  1  0.15151500  0.29602200  0.05480400  1
  H  H19  1  0.34848500  0.79602200  0.94519600  1
  H  H20  1  0.34848500  0.29602200  0.55480400  1
  H  H21  1  0.15151500  0.79602200  0.44519600  1
  H  H22  1  0.84848500  0.70397800  0.94519600  1
  H  H23  1  0.65151500  0.20397800  0.05480400  1
  H  H24  1  0.63205800  0.85471100  0.48365800  1
  H  H25  1  0.86794200  0.35471100  0.51634200  1
  H  H26  1  0.13205800  0.14528900  0.01634200  1
  H  H27  1  0.36794200  0.64528900  0.98365800  1
  H  H28  1  0.36794200  0.14528900  0.51634200  1
  H  H29  1  0.13205800  0.64528900  0.48365800  1
  H  H30  1  0.86794200  0.85471100  0.98365800  1
  H  H31  1  0.63205800  0.35471100  0.01634200  1
  N  N0  1  0.90198800  0.84757800  0.26341600  1
  N  N1  1  0.59801200  0.34757800  0.73658400  1
  N  N2  1  0.40198800  0.15242200  0.23658400  1
  N  N3  1  0.09801200  0.65242200  0.76341600  1
  N  N4  1  0.09801200  0.15242200  0.73658400  1
  N  N5  1  0.40198800  0.65242200  0.26341600  1
  N  N6  1  0.59801200  0.84757800  0.76341600  1
  N  N7  1  0.90198800  0.34757800  0.23658400  1
  Cl  Cl0  1  0.22629000  0.04579100  0.41850500  1
  Cl  Cl1  1  0.27371000  0.54579100  0.58149500  1
  Cl  Cl2  1  0.72629000  0.95420900  0.08149500  1
  Cl  Cl3  1  0.77371000  0.45420900  0.91850500  1
  Cl  Cl4  1  0.77371000  0.95420900  0.58149500  1
  Cl  Cl5  1  0.72629000  0.45420900  0.41850500  1
  Cl  Cl6  1  0.27371000  0.04579100  0.91850500  1
  Cl  Cl7  1  0.22629000  0.54579100  0.08149500  1
  O  O0  1  0.81978000  0.97124500  0.25283900  1
  O  O1  1  0.68022000  0.47124500  0.74716100  1
  O  O2  1  0.31978000  0.02875500  0.24716100  1
  O  O3  1  0.18022000  0.52875500  0.75283900  1
  O  O4  1  0.18022000  0.02875500  0.74716100  1
  O  O5  1  0.31978000  0.52875500  0.25283900  1
  O  O6  1  0.68022000  0.97124500  0.75283900  1
  O  O7  1  0.81978000  0.47124500  0.24716100  1
  O  O8  1  0.02615200  0.79799500  0.22286800  1
  O  O9  1  0.47384800  0.29799500  0.77713200  1
  O  O10  1  0.52615200  0.20200500  0.27713200  1
  O  O11  1  0.97384800  0.70200500  0.72286800  1
  O  O12  1  0.97384800  0.20200500  0.77713200  1
  O  O13  1  0.52615200  0.70200500  0.22286800  1
  O  O14  1  0.47384800  0.79799500  0.72286800  1
  O  O15  1  0.02615200  0.29799500  0.27713200  1
  O  O16  1  0.85285800  0.77825200  0.31630400  1
  O  O17  1  0.64714200  0.27825200  0.68369600  1
  O  O18  1  0.35285800  0.22174800  0.18369600  1
  O  O19  1  0.14714200  0.72174800  0.81630400  1
  O  O20  1  0.14714200  0.22174800  0.68369600  1
  O  O21  1  0.35285800  0.72174800  0.31630400  1
  O  O22  1  0.64714200  0.77825200  0.81630400  1
  O  O23  1  0.85285800  0.27825200  0.18369600  1
  O  O24  1  0.75462000  0.10433700  0.40277600  1
  O  O25  1  0.74538000  0.60433700  0.59722400  1
  O  O26  1  0.25462000  0.89566300  0.09722400  1
  O  O27  1  0.24538000  0.39566300  0.90277600  1
  O  O28  1  0.24538000  0.89566300  0.59722400  1
  O  O29  1  0.25462000  0.39566300  0.40277600  1
  O  O30  1  0.74538000  0.10433700  0.90277600  1
  O  O31  1  0.75462000  0.60433700  0.09722400  1
  O  O32  1  0.59676800  0.80383800  0.44182200  1
  O  O33  1  0.90323200  0.30383800  0.55817800  1
  O  O34  1  0.09676800  0.19616200  0.05817800  1
  O  O35  1  0.40323200  0.69616200  0.94182200  1
  O  O36  1  0.40323200  0.19616200  0.55817800  1
  O  O37  1  0.09676800  0.69616200  0.44182200  1
  O  O38  1  0.90323200  0.80383800  0.94182200  1
  O  O39  1  0.59676800  0.30383800  0.05817800  1
loop_
_geom_bond_atom_site_label_1
_geom_bond_atom_site_label_2
_geom_bond_distance
_geom_bond_site_symmetry_2
Ca0 O24 2.325324 1_565
Ca0 O32 2.365786 1_555
Ca0 O21 2.494624 1_555
Ca0 O2 2.584291 1_565
Ca0 O0 2.595992 1_555
Ca0 O16 2.621996 1_555
Ca0 O10 2.703096 1_565
Ca0 Cl0 2.774138 1_565
Ca1 O25 2.325324 1_555
Ca1 O33 2.365786 1_555
Ca1 O20 2.494624 1_655
Ca1 O3 2.584291 1_655
Ca1 O1 2.595992 1_555
Ca1 O17 2.621996 1_555
Ca1 O11 2.703096 1_555
Ca1 Cl1 2.774138 1_655
Ca2 O26 2.325324 1_545
Ca2 O34 2.365786 1_555
Ca2 O23 2.494624 1_455
Ca2 O0 2.584291 1_445
Ca2 O2 2.595992 1_555
Ca2 O18 2.621996 1_555
Ca2 O8 2.703096 1_545
Ca2 Cl2 2.774138 1_445
Ca3 O27 2.325324 1_555
Ca3 O35 2.365786 1_555
Ca3 O22 2.494624 1_555
Ca3 O1 2.584291 1_555
Ca3 O3 2.595992 1_555
Ca3 O19 2.621996 1_555
Ca3 O9 2.703096 1_555
Ca3 Cl3 2.774138 1_555
Ca4 O28 2.325324 1_545
Ca4 O36 2.365786 1_555
Ca4 O17 2.494624 1_555
Ca4 O6 2.584291 1_545
Ca4 O4 2.595992 1_555
Ca4 O20 2.621996 1_555
Ca4 O14 2.703096 1_545
Ca4 Cl4 2.774138 1_545
Ca5 O29 2.325324 1_555
Ca5 O37 2.365786 1_555
Ca5 O16 2.494624 1_455
Ca5 O7 2.584291 1_455
Ca5 O5 2.595992 1_555
Ca5 O21 2.621996 1_555
Ca5 O15 2.703096 1_555
Ca5 Cl5 2.774138 1_455
Ca6 O30 2.325324 1_565
Ca6 O38 2.365786 1_555
Ca6 O19 2.494624 1_655
Ca6 O4 2.584291 1_665
Ca6 O6 2.595992 1_555
Ca6 O22 2.621996 1_555
Ca6 O12 2.703096 1_565
Ca6 Cl6 2.774138 1_665
Ca7 O31 2.325324 1_555
Ca7 O39 2.365786 1_555
Ca7 O18 2.494624 1_555
Ca7 O5 2.584291 1_555
Ca7 O7 2.595992 1_555
Ca7 O23 2.621996 1_555
Ca7 O13 2.703096 1_555
Ca7 Cl7 2.774138 1_555
H0 O24 0.983334 1_555
H1 O25 0.983334 1_555
H2 O26 0.983334 1_555
H3 O27 0.983334 1_555
H4 O28 0.983334 1_555
H5 O29 0.983334 1_555
H6 O30 0.983334 1_555
H7 O31 0.983334 1_555
H8 O24 0.982558 1_555
H9 O25 0.982558 1_555
H10 O26 0.982558 1_555
H11 O27 0.982558 1_555
H12 O28 0.982558 1_555
H13 O29 0.982558 1_555
H14 O30 0.982558 1_555
H15 O31 0.982558 1_555
H16 O32 0.986946 1_555
H17 O33 0.986946 1_555
H18 O34 0.986946 1_555
H19 O35 0.986946 1_555
H20 O36 0.986946 1_555
H21 O37 0.986946 1_555
H22 O38 0.986946 1_555
H23 O39 0.986946 1_555
H24 O32 0.985558 1_555
H25 O33 0.985558 1_555
H26 O34 0.985558 1_555
H27 O35 0.985558 1_555
H28 O36 0.985558 1_555
H29 O37 0.985558 1_555
H30 O38 0.985558 1_555
H31 O39 0.985558 1_555
N0 O8 1.248325 1_655
N0 O16 1.275728 1_555
N0 O0 1.276398 1_555
N1 O9 1.248325 1_555
N1 O17 1.275728 1_555
N1 O1 1.276398 1_555
N2 O10 1.248325 1_555
N2 O18 1.275728 1_555
N2 O2 1.276398 1_555
N3 O11 1.248325 1_455
N3 O19 1.275728 1_555
N3 O3 1.276398 1_555
N4 O12 1.248325 1_455
N4 O20 1.275728 1_555
N4 O4 1.276398 1_555
N5 O13 1.248325 1_555
N5 O21 1.275728 1_555
N5 O5 1.276398 1_555
N6 O14 1.248325 1_555
N6 O22 1.275728 1_555
N6 O6 1.276398 1_555
N7 O15 1.248325 1_655
N7 O23 1.275728 1_555
N7 O7 1.276398 1_555
