# generated using pymatgen
data_Fe2CoO6
_symmetry_space_group_name_H-M   'P 1'
_cell_length_a   4.48355300
_cell_length_b   4.48355300
_cell_length_c   8.94743200
_cell_angle_alpha   90.00000000
_cell_angle_beta   90.00000000
_cell_angle_gamma   90.00000000
_symmetry_Int_Tables_number   1
_chemical_formula_structural   Fe2CoO6
_chemical_formula_sum   'Fe4 Co2 O12'
_cell_volume   179.86349259
_cell_formula_units_Z   2
loop_
 _symmetry_equiv_pos_site_id
 _symmetry_equiv_pos_as_xyz
  1  'x, y, z'
loop_
 _atom_site_type_symbol
 _atom_site_label
 _atom_site_symmetry_multiplicity
 _atom_site_fract_x
 _atom_site_fract_y
 _atom_site_fract_z
 _atom_site_occupancy
  Fe  Fe0  1  0.50000000  0.50000000  0.33359500  1
  Fe  Fe1  1  0.50000000  0.50000000  0.66640500  1
  Fe  Fe2  1  0.00000000  0.00000000  0.16640500  1
  Fe  Fe3  1  0.00000000  0.00000000  0.83359500  1
  Co  Co0  1  0.50000000  0.50000000  0.00000000  1
  Co  Co1  1  0.00000000  0.00000000  0.50000000  1
  O  O0  1  0.68954400  0.31045600  0.16311100  1
  O  O1  1  0.68954400  0.31045600  0.83688900  1
  O  O2  1  0.70293100  0.29706900  0.50000000  1
  O  O3  1  0.79706900  0.79706900  0.00000000  1
  O  O4  1  0.81045600  0.81045600  0.33688900  1
  O  O5  1  0.81045600  0.81045600  0.66311100  1
  O  O6  1  0.18954400  0.18954400  0.33688900  1
  O  O7  1  0.18954400  0.18954400  0.66311100  1
  O  O8  1  0.20293100  0.20293100  0.00000000  1
  O  O9  1  0.29706900  0.70293100  0.50000000  1
  O  O10  1  0.31045600  0.68954400  0.16311100  1
  O  O11  1  0.31045600  0.68954400  0.83688900  1
loop_
_geom_bond_atom_site_label_1
_geom_bond_atom_site_label_2
_geom_bond_distance
_geom_bond_site_symmetry_2
Fe0 O10 1.941971 1_555
Fe0 O0 1.941971 1_555
Fe0 O2 1.967861 1_555
Fe0 O9 1.967861 1_555
Fe0 O4 1.968729 1_555
Fe0 O6 1.968729 1_555
Fe1 O11 1.941971 1_555
Fe1 O1 1.941971 1_555
Fe1 O2 1.967861 1_555
Fe1 O9 1.967861 1_555
Fe1 O5 1.968729 1_555
Fe1 O7 1.968729 1_555
Fe2 O6 1.941971 1_555
Fe2 O4 1.941971 1_445
Fe2 O8 1.967861 1_555
Fe2 O3 1.967861 1_445
Fe2 O10 1.968729 1_545
Fe2 O0 1.968729 1_455
Fe3 O7 1.941971 1_555
Fe3 O5 1.941971 1_445
Fe3 O8 1.967861 1_556
Fe3 O3 1.967861 1_446
Fe3 O1 1.968729 1_455
Fe3 O11 1.968729 1_545
Co0 O3 1.883626 1_555
Co0 O8 1.883626 1_555
Co0 O10 1.890594 1_555
Co0 O1 1.890594 1_554
Co0 O0 1.890594 1_555
Co0 O11 1.890594 1_554
Co1 O9 1.883626 1_545
Co1 O2 1.883626 1_455
Co1 O6 1.890594 1_555
Co1 O7 1.890594 1_555
Co1 O5 1.890594 1_445
Co1 O4 1.890594 1_445
