# generated using pymatgen
data_Dy2Sb2O7
_symmetry_space_group_name_H-M   'P 1'
_cell_length_a   7.54491669
_cell_length_b   7.54491669
_cell_length_c   7.54491669
_cell_angle_alpha   121.17145876
_cell_angle_beta   118.62947412
_cell_angle_gamma   90.18653808
_symmetry_Int_Tables_number   1
_chemical_formula_structural   Dy2Sb2O7
_chemical_formula_sum   'Dy4 Sb4 O14'
_cell_volume   303.97128237
_cell_formula_units_Z   2
loop_
 _symmetry_equiv_pos_site_id
 _symmetry_equiv_pos_as_xyz
  1  'x, y, z'
loop_
 _atom_site_type_symbol
 _atom_site_label
 _atom_site_symmetry_multiplicity
 _atom_site_fract_x
 _atom_site_fract_y
 _atom_site_fract_z
 _atom_site_occupancy
  Dy  Dy0  1  0.50000000  0.50000000  0.00000000  1
  Dy  Dy1  1  0.00000000  0.00000000  0.00000000  1
  Dy  Dy2  1  0.00000000  0.50000000  0.00000000  1
  Dy  Dy3  1  0.50000000  0.50000000  0.50000000  1
  Sb  Sb0  1  0.50000000  0.00000000  0.00000000  1
  Sb  Sb1  1  0.50000000  0.00000000  0.50000000  1
  Sb  Sb2  1  0.00000000  0.00000000  0.50000000  1
  Sb  Sb3  1  0.00000000  0.50000000  0.50000000  1
  O  O0  1  0.62972200  0.32725100  0.20345200  1
  O  O1  1  0.75000000  0.96590700  0.21590700  1
  O  O2  1  0.11875700  0.36613500  0.24737800  1
  O  O3  1  0.61875700  0.37137800  0.75262200  1
  O  O4  1  0.87027800  0.07373000  0.69752900  1
  O  O5  1  0.62380000  0.92627000  0.79654800  1
  O  O6  1  0.12380000  0.32725100  0.69752900  1
  O  O7  1  0.37620000  0.07373000  0.20345200  1
  O  O8  1  0.12972200  0.92627000  0.30247100  1
  O  O9  1  0.87620000  0.67274900  0.30247100  1
  O  O10  1  0.88124300  0.63386500  0.75262200  1
  O  O11  1  0.25000000  0.03409300  0.78409300  1
  O  O12  1  0.38124300  0.62862200  0.24737800  1
  O  O13  1  0.37027800  0.67274900  0.79654800  1
loop_
_geom_bond_atom_site_label_1
_geom_bond_atom_site_label_2
_geom_bond_distance
_geom_bond_site_symmetry_2
Dy0 O12 2.227429 1_555
Dy0 O3 2.227429 1_554
Dy0 O9 2.377549 1_555
Dy0 O6 2.377549 1_554
Dy0 O13 2.377555 1_554
Dy0 O0 2.377555 1_555
Dy1 O10 2.227429 1_444
Dy1 O2 2.227429 1_555
Dy1 O5 2.377548 1_444
Dy1 O7 2.377548 1_555
Dy1 O8 2.377555 1_545
Dy1 O4 2.377555 1_454
Dy2 O3 2.379354 1_454
Dy2 O12 2.379354 1_555
Dy2 O10 2.379354 1_454
Dy2 O2 2.379354 1_555
Dy2 O8 2.598225 1_555
Dy2 O4 2.598225 1_454
Dy2 O9 2.598231 1_455
Dy2 O6 2.598231 1_554
Dy3 O10 2.379354 1_555
Dy3 O2 2.379354 1_555
Dy3 O12 2.379360 1_555
Dy3 O3 2.379360 1_555
Dy3 O7 2.598225 1_555
Dy3 O5 2.598225 1_555
Dy3 O13 2.598225 1_555
Dy3 O0 2.598225 1_555
O0 Sb0 2.007890 1_555
O0 Sb3 2.340331 1_655
O1 Sb2 1.941676 1_665
O1 Sb0 1.941676 1_565
O2 Sb3 2.259523 1_555
O3 Sb1 2.259517 1_555
O4 Sb2 2.007890 1_655
O4 Sb1 2.340331 1_555
O5 Sb0 2.007896 1_566
O5 Sb1 2.340331 1_565
O6 Sb2 2.007890 1_555
O6 Sb3 2.340332 1_555
O7 Sb0 2.007896 1_555
O7 Sb1 2.340331 1_555
O8 Sb2 2.007890 1_565
O8 Sb1 2.340331 1_565
O9 Sb2 2.007890 1_665
O9 Sb3 2.340332 1_655
O10 Sb3 2.259523 1_655
O11 Sb2 1.941676 1_555
O11 Sb0 1.941676 1_556
O12 Sb1 2.259517 1_565
O13 Sb0 2.007890 1_566
O13 Sb3 2.340331 1_555
