# generated using pymatgen
data_Co3OF5
_symmetry_space_group_name_H-M   'P 1'
_cell_length_a   5.67268700
_cell_length_b   5.70857747
_cell_length_c   7.52107598
_cell_angle_alpha   71.89066929
_cell_angle_beta   71.55612191
_cell_angle_gamma   70.37802197
_symmetry_Int_Tables_number   1
_chemical_formula_structural   Co3OF5
_chemical_formula_sum   'Co6 O2 F10'
_cell_volume   211.84611840
_cell_formula_units_Z   2
loop_
 _symmetry_equiv_pos_site_id
 _symmetry_equiv_pos_as_xyz
  1  'x, y, z'
loop_
 _atom_site_type_symbol
 _atom_site_label
 _atom_site_symmetry_multiplicity
 _atom_site_fract_x
 _atom_site_fract_y
 _atom_site_fract_z
 _atom_site_occupancy
  Co  Co0  1  0.00000000  0.00000000  0.00000000  1
  Co  Co1  1  0.00000000  0.00000000  0.50000000  1
  Co  Co2  1  0.36698500  0.30337100  0.16695800  1
  Co  Co3  1  0.33010500  0.32255800  0.67347600  1
  Co  Co4  1  0.66989500  0.67744200  0.32652400  1
  Co  Co5  1  0.63301500  0.69662900  0.83304200  1
  O  O0  1  0.65364000  0.03249700  0.15848100  1
  O  O1  1  0.34636000  0.96750300  0.84151900  1
  F  F0  1  0.69422300  0.30825000  0.49769900  1
  F  F1  1  0.05469300  0.62145500  0.16530000  1
  F  F2  1  0.10985500  0.10571400  0.20441500  1
  F  F3  1  0.76429400  0.76583800  0.53708900  1
  F  F4  1  0.43112100  0.43523100  0.86929300  1
  F  F5  1  0.23570600  0.23416200  0.46291100  1
  F  F6  1  0.89014500  0.89428600  0.79558500  1
  F  F7  1  0.56887900  0.56476900  0.13070700  1
  F  F8  1  0.30577700  0.69175000  0.50230100  1
  F  F9  1  0.94530700  0.37854500  0.83470000  1
loop_
_geom_bond_atom_site_label_1
_geom_bond_atom_site_label_2
_geom_bond_distance
_geom_bond_site_symmetry_2
Co0 O0 1.930379 1_455
Co0 O1 1.930379 1_544
Co0 F9 2.106002 1_454
Co0 F1 2.106002 1_545
Co0 F2 2.133488 1_555
Co0 F6 2.133488 1_444
Co1 F8 2.013843 1_545
Co1 F0 2.013843 1_455
Co1 F6 2.058332 1_445
Co1 F2 2.058332 1_555
Co1 F5 2.094056 1_555
Co1 F3 2.094056 1_445
Co2 O0 1.829277 1_555
Co2 F2 2.031708 1_555
Co2 F5 2.065741 1_555
Co2 F1 2.067628 1_555
Co2 F7 2.076055 1_555
Co2 F4 2.081335 1_554
Co3 O1 2.017358 1_545
Co3 F0 2.060780 1_555
Co3 F5 2.065021 1_555
Co3 F4 2.069182 1_555
Co3 F8 2.085334 1_555
Co3 F9 2.105905 1_455
Co4 O0 2.017358 1_565
Co4 F8 2.060780 1_555
Co4 F3 2.065021 1_555
Co4 F7 2.069182 1_555
Co4 F0 2.085334 1_555
Co4 F1 2.105905 1_655
Co5 O1 1.829277 1_555
Co5 F6 2.031708 1_555
Co5 F3 2.065741 1_555
Co5 F9 2.067628 1_555
Co5 F4 2.076055 1_555
Co5 F7 2.081335 1_556
