# generated using pymatgen
data_Na5Te2H36AuO28
_symmetry_space_group_name_H-M   'P 1'
_cell_length_a   9.01624500
_cell_length_b   12.79370386
_cell_length_c   5.99453892
_cell_angle_alpha   98.45870252
_cell_angle_beta   92.70622486
_cell_angle_gamma   98.14824836
_symmetry_Int_Tables_number   1
_chemical_formula_structural   Na5Te2H36AuO28
_chemical_formula_sum   'Na5 Te2 H36 Au1 O28'
_cell_volume   675.41271518
_cell_formula_units_Z   1
loop_
 _symmetry_equiv_pos_site_id
 _symmetry_equiv_pos_as_xyz
  1  'x, y, z'
loop_
 _atom_site_type_symbol
 _atom_site_label
 _atom_site_symmetry_multiplicity
 _atom_site_fract_x
 _atom_site_fract_y
 _atom_site_fract_z
 _atom_site_occupancy
  Na  Na0  1  0.50000000  0.00000000  0.00000000  1
  Na  Na1  1  0.04571800  0.65249800  0.66980600  1
  Na  Na2  1  0.95428200  0.34750200  0.33019400  1
  Na  Na3  1  0.31854900  0.67134500  0.77369100  1
  Na  Na4  1  0.68145100  0.32865500  0.22630900  1
  Te  Te0  1  0.80581200  0.81646700  0.75526200  1
  Te  Te1  1  0.19418800  0.18353300  0.24473800  1
  H  H0  1  0.70107100  0.14565300  0.71819600  1
  H  H1  1  0.29892900  0.85434700  0.28180400  1
  H  H2  1  0.83404700  0.39920600  0.76872600  1
  H  H3  1  0.16595300  0.60079400  0.23127400  1
  H  H4  1  0.79050300  0.11291000  0.48626100  1
  H  H5  1  0.20949600  0.88709000  0.51373900  1
  H  H6  1  0.81746100  0.37591800  0.52784300  1
  H  H7  1  0.18253900  0.62408200  0.47215700  1
  H  H8  1  0.52028700  0.00240100  0.68395100  1
  H  H9  1  0.47971300  0.99759900  0.31604900  1
  H  H10  1  0.56683900  0.79163600  0.75048400  1
  H  H11  1  0.43316100  0.20836400  0.24951600  1
  H  H12  1  0.61700900  0.43474700  0.65998800  1
  H  H13  1  0.38299100  0.56525300  0.34001200  1
  H  H14  1  0.57817300  0.28452500  0.50363700  1
  H  H15  1  0.42182700  0.71547500  0.49636300  1
  H  H16  1  0.66199500  0.83473900  0.19401500  1
  H  H17  1  0.33800500  0.16526100  0.80598500  1
  H  H18  1  0.73314000  0.90258800  0.06669600  1
  H  H19  1  0.26686000  0.09741200  0.93330400  1
  H  H20  1  0.85053400  0.55506700  0.05902900  1
  H  H21  1  0.14946600  0.44493300  0.94097100  1
  H  H22  1  0.81851400  0.29733900  0.01180700  1
  H  H23  1  0.18148600  0.70266100  0.98819300  1
  H  H24  1  0.68955100  0.73018200  0.42921800  1
  H  H25  1  0.31044900  0.26981800  0.57078200  1
  H  H26  1  0.56425200  0.67252600  0.36171700  1
  H  H27  1  0.43574800  0.32747400  0.63828300  1
  H  H28  1  0.89116800  0.78426700  0.45814100  1
  H  H29  1  0.10883200  0.21573300  0.54185900  1
  H  H30  1  0.98393000  0.83624400  0.35733200  1
  H  H31  1  0.01607000  0.16375600  0.64266800  1
  H  H32  1  0.62024100  0.51003400  0.92275200  1
  H  H33  1  0.37975900  0.48996600  0.07724800  1
  H  H34  1  0.63933700  0.26782200  0.91512700  1
  H  H35  1  0.36066300  0.73217800  0.08487300  1
  Au  Au0  1  0.00000000  0.00000000  0.00000000  1
  O  O0  1  0.75622300  0.12250600  0.80256600  1
  O  O1  1  0.24377700  0.87749400  0.19743400  1
  O  O2  1  0.66966400  0.65361600  0.76902200  1
  O  O3  1  0.33033600  0.34638400  0.23097800  1
  O  O4  1  0.78736600  0.85788400  0.54774600  1
  O  O5  1  0.21263400  0.14211600  0.45225400  1
  O  O6  1  0.86539400  0.53024000  0.71612100  1
  O  O7  1  0.13460600  0.46976000  0.28387900  1
  O  O8  1  0.95676900  0.97328100  0.77417400  1
  O  O9  1  0.04323100  0.02671900  0.22582600  1
  O  O10  1  0.84965300  0.82242300  0.97886600  1
  O  O11  1  0.15034700  0.17757700  0.02113400  1
  O  O12  1  0.79456600  0.26368600  0.44076200  1
  O  O13  1  0.20543400  0.73631400  0.55923800  1
  O  O14  1  0.50094100  0.86858000  0.73925200  1
  O  O15  1  0.49905900  0.13142000  0.26074800  1
  O  O16  1  0.57314200  0.28582600  0.61072900  1
  O  O17  1  0.42685800  0.71417400  0.38927100  1
  O  O18  1  0.67267400  0.94258600  0.11442000  1
  O  O19  1  0.32732600  0.05741400  0.88558000  1
  O  O20  1  0.84398600  0.40277400  0.10037500  1
  O  O21  1  0.15601400  0.59722600  0.89962500  1
  O  O22  1  0.63663300  0.66127100  0.33819600  1
  O  O23  1  0.36336700  0.33872900  0.66180400  1
  O  O24  1  0.95089000  0.72202500  0.41913600  1
  O  O25  1  0.04911000  0.27797500  0.58086400  1
  O  O26  1  0.60045400  0.36499400  0.96962600  1
  O  O27  1  0.39954600  0.63500600  0.03037400  1
loop_
_geom_bond_atom_site_label_1
_geom_bond_atom_site_label_2
_geom_bond_distance
_geom_bond_site_symmetry_2
Na0 O18 1.950743 1_545
Na0 O19 1.950743 1_554
Na0 O14 2.121866 1_544
Na0 O15 2.121866 1_555
Na1 O13 1.877333 1_555
Na1 O21 1.934811 1_555
Na1 O24 2.065838 1_455
Na1 O6 2.148598 1_455
Na2 O12 1.877333 1_555
Na2 O20 1.934811 1_555
Na2 O25 2.065838 1_655
Na2 O7 2.148598 1_655
Na3 O27 1.821438 1_556
Na3 O21 1.880903 1_555
Na3 O13 1.953076 1_555
Na4 O26 1.821438 1_554
Na4 O20 1.880903 1_555
Na4 O12 1.953076 1_555
H0 O0 0.807971 1_555
H1 O1 0.807971 1_555
H2 O6 1.737614 1_555
H3 O7 1.737614 1_555
H6 O12 1.436003 1_555
H6 Na2 1.787786 1_555
H6 Na4 2.096579 1_555
H7 O13 1.436003 1_555
H7 Na1 1.787786 1_555
H7 Na3 2.096579 1_555
H8 Na0 1.916257 1_556
H9 Na0 1.916257 1_565
H10 O14 1.228051 1_555
H11 O15 1.228051 1_555
H14 O16 0.643643 1_555
H14 Na4 2.054966 1_555
H15 O17 0.643643 1_555
H15 Na3 2.054966 1_555
H16 O18 1.516915 1_555
H17 O19 1.516915 1_555
H18 O18 0.831662 1_555
H18 O10 1.622167 1_554
H19 O19 0.831662 1_555
H19 O11 1.622167 1_556
H22 O20 1.357993 1_555
H22 Na4 1.865458 1_555
H23 O21 1.357993 1_555
H23 Na3 1.865458 1_555
H24 O22 1.008606 1_555
H25 O23 1.008606 1_555
H26 O22 0.704174 1_555
H26 O17 1.423482 1_555
H27 O23 0.704174 1_555
H27 O16 1.423482 1_555
H28 O24 1.028291 1_555
H28 H30 1.230925 1_555
H28 O4 1.483239 1_555
H29 O25 1.028291 1_555
H29 H31 1.230925 1_555
H29 O5 1.483239 1_555
H30 O24 1.551660 1_555
H31 O25 1.551660 1_555
H34 O26 1.337921 1_555
H34 Na4 1.910974 1_556
H35 O27 1.337921 1_555
H35 Na3 1.910974 1_554
Au0 O9 1.370260 1_555
Au0 O8 1.370260 1_444
O2 Te0 2.278077 1_555
O3 Te1 2.278077 1_555
O4 Te0 1.433609 1_555
O5 Te1 1.433609 1_555
O10 Te0 1.367521 1_555
O11 Te1 1.367521 1_555
