# generated using pymatgen
data_Li4Mn2Fe(BO3)4
_symmetry_space_group_name_H-M   'P 1'
_cell_length_a   9.18888100
_cell_length_b   5.26629500
_cell_length_c   9.62928645
_cell_angle_alpha   86.95689612
_cell_angle_beta   90.00000000
_cell_angle_gamma   90.00000000
_symmetry_Int_Tables_number   1
_chemical_formula_structural   Li4Mn2Fe(BO3)4
_chemical_formula_sum   'Li8 Mn4 Fe2 B8 O24'
_cell_volume   465.31716889
_cell_formula_units_Z   2
loop_
 _symmetry_equiv_pos_site_id
 _symmetry_equiv_pos_as_xyz
  1  'x, y, z'
loop_
 _atom_site_type_symbol
 _atom_site_label
 _atom_site_symmetry_multiplicity
 _atom_site_fract_x
 _atom_site_fract_y
 _atom_site_fract_z
 _atom_site_occupancy
  Li  Li0  1  0.24105700  0.83325900  0.66486900  1
  Li  Li1  1  0.91203100  0.82414000  0.62795400  1
  Li  Li2  1  0.24298500  0.81524900  0.11422400  1
  Li  Li3  1  0.71958000  0.65739000  0.84106000  1
  Li  Li4  1  0.75701500  0.31524900  0.61422400  1
  Li  Li5  1  0.75894300  0.33325900  0.16486900  1
  Li  Li6  1  0.08796900  0.32414000  0.12795400  1
  Li  Li7  1  0.28042000  0.15739000  0.34106000  1
  Mn  Mn0  1  0.55660600  0.85630800  0.11970800  1
  Mn  Mn1  1  0.07307500  0.64482500  0.37606200  1
  Mn  Mn2  1  0.44339400  0.35630800  0.61970800  1
  Mn  Mn3  1  0.92692500  0.14482500  0.87606200  1
  Fe  Fe0  1  0.73502300  0.68483300  0.38692300  1
  Fe  Fe1  1  0.26497700  0.18483300  0.88692300  1
  B  B0  1  0.57255200  0.83415700  0.61485900  1
  B  B1  1  0.90884000  0.83299300  0.13597000  1
  B  B2  1  0.06327900  0.67499400  0.88182300  1
  B  B3  1  0.40238000  0.66139700  0.36817700  1
  B  B4  1  0.09116000  0.33299300  0.63597000  1
  B  B5  1  0.42744800  0.33415700  0.11485900  1
  B  B6  1  0.59762000  0.16139700  0.86817700  1
  B  B7  1  0.93672100  0.17499400  0.38182300  1
  O  O0  1  0.59400100  0.91195300  0.92339400  1
  O  O1  1  0.92217500  0.91234200  0.41128100  1
  O  O2  1  0.18297000  0.82605200  0.88662200  1
  O  O3  1  0.27493600  0.79373500  0.34957600  1
  O  O4  1  0.92561400  0.77116600  0.84768600  1
  O  O5  1  0.53192800  0.78096700  0.32093000  1
  O  O6  1  0.43639200  0.72597500  0.63485600  1
  O  O7  1  0.04028300  0.71019300  0.17562700  1
  O  O8  1  0.77797800  0.71360900  0.15809400  1
  O  O9  1  0.69813300  0.68244000  0.60910000  1
  O  O10  1  0.08255400  0.58502900  0.57891000  1
  O  O11  1  0.41156600  0.59250000  0.09897900  1
  O  O12  1  0.07782500  0.41234200  0.91128100  1
  O  O13  1  0.40599900  0.41195300  0.42339400  1
  O  O14  1  0.72506400  0.29373500  0.84957600  1
  O  O15  1  0.46807200  0.28096700  0.82093000  1
  O  O16  1  0.81703000  0.32605200  0.38662200  1
  O  O17  1  0.07438600  0.27116600  0.34768600  1
  O  O18  1  0.95971700  0.21019300  0.67562700  1
  O  O19  1  0.22202200  0.21360900  0.65809400  1
  O  O20  1  0.56360800  0.22597500  0.13485600  1
  O  O21  1  0.30186700  0.18244000  0.10910000  1
  O  O22  1  0.58843400  0.09250000  0.59897900  1
  O  O23  1  0.91744600  0.08502900  0.07891000  1
loop_
_geom_bond_atom_site_label_1
_geom_bond_atom_site_label_2
_geom_bond_distance
_geom_bond_site_symmetry_2
Li0 O6 1.908343 1_555
Li0 O19 2.008264 1_565
Li0 O10 2.151793 1_555
Li0 O2 2.199394 1_555
Li1 O10 2.080156 1_655
Li1 O9 2.113607 1_555
Li1 O1 2.115335 1_555
Li1 O4 2.123113 1_555
Li1 O18 2.152951 1_565
Li2 O11 1.953338 1_555
Li2 O21 2.006087 1_565
Li2 O7 2.022437 1_555
Li2 O2 2.257748 1_554
Li2 O3 2.282052 1_555
Li3 O14 1.913179 1_555
Li3 O0 1.967278 1_555
Li3 O4 1.987821 1_555
Li3 O9 2.239189 1_555
Li4 O22 1.953338 1_555
Li4 O9 2.006087 1_555
Li4 O18 2.022437 1_555
Li4 O16 2.257748 1_555
Li4 O14 2.282052 1_555
Li5 O20 1.908343 1_555
Li5 O8 2.008264 1_555
Li5 O23 2.151793 1_555
Li5 O16 2.199394 1_555
Li6 O23 2.080156 1_455
Li6 O21 2.113607 1_555
Li6 O12 2.115335 1_554
Li6 O17 2.123113 1_555
Li6 O7 2.152951 1_555
Li7 O3 1.913179 1_545
Li7 O13 1.967278 1_555
Li7 O17 1.987821 1_555
Li7 O21 2.239189 1_555
Mn0 O0 1.928369 1_554
Mn0 O11 1.943103 1_555
Mn0 O20 1.960995 1_565
Mn0 O5 1.970180 1_555
Mn0 O8 2.193100 1_555
Mn1 O10 1.963862 1_555
Mn1 O7 1.965664 1_555
Mn1 O17 2.001031 1_555
Mn1 O1 2.018214 1_455
Mn1 O3 2.024686 1_555
Mn2 O13 1.928369 1_555
Mn2 O22 1.943103 1_555
Mn2 O6 1.960995 1_555
Mn2 O15 1.970180 1_555
Mn2 O19 2.193100 1_555
Mn3 O23 1.963862 1_556
Mn3 O18 1.965664 1_555
Mn3 O4 2.001031 1_545
Mn3 O12 2.018214 1_655
Mn3 O14 2.024686 1_555
Fe0 O5 2.027000 1_555
Fe0 O16 2.034316 1_555
Fe0 O1 2.116080 1_555
Fe0 O9 2.165470 1_555
Fe0 O8 2.235742 1_555
Fe1 O15 2.027000 1_555
Fe1 O2 2.034316 1_545
Fe1 O12 2.116080 1_555
Fe1 O21 2.165470 1_556
Fe1 O19 2.235742 1_555
B0 O22 1.368788 1_565
B0 O6 1.383982 1_555
B0 O9 1.406327 1_555
B1 O8 1.368353 1_555
B1 O23 1.411534 1_565
B1 O7 1.413025 1_655
B2 O2 1.359596 1_555
B2 O4 1.395379 1_455
B2 O12 1.403538 1_555
B3 O3 1.369650 1_555
B3 O13 1.391157 1_555
B3 O5 1.410721 1_555
B4 O19 1.368353 1_555
B4 O10 1.411534 1_555
B4 O18 1.413025 1_455
B5 O11 1.368788 1_555
B5 O20 1.383982 1_555
B5 O21 1.406327 1_555
B6 O14 1.369650 1_555
B6 O0 1.391157 1_545
B6 O15 1.410721 1_555
B7 O16 1.359596 1_555
B7 O17 1.395379 1_655
B7 O1 1.403538 1_545
