# generated using pymatgen
data_Li4V3Fe3(WO8)2
_symmetry_space_group_name_H-M   'P 1'
_cell_length_a   6.04838949
_cell_length_b   6.04838949
_cell_length_c   9.82020046
_cell_angle_alpha   89.18401976
_cell_angle_beta   89.18401976
_cell_angle_gamma   60.04673978
_symmetry_Int_Tables_number   1
_chemical_formula_structural   Li4V3Fe3(WO8)2
_chemical_formula_sum   'Li4 V3 Fe3 W2 O16'
_cell_volume   311.22615117
_cell_formula_units_Z   1
loop_
 _symmetry_equiv_pos_site_id
 _symmetry_equiv_pos_as_xyz
  1  'x, y, z'
loop_
 _atom_site_type_symbol
 _atom_site_label
 _atom_site_symmetry_multiplicity
 _atom_site_fract_x
 _atom_site_fract_y
 _atom_site_fract_z
 _atom_site_occupancy
  Li  Li0  1  0.67032900  0.67032900  0.90474200  1
  Li  Li1  1  0.99651200  0.99651200  0.98874600  1
  Li  Li2  1  0.99790600  0.99790600  0.48796500  1
  Li  Li3  1  0.33833000  0.33833000  0.40646100  1
  V  V0  1  0.82381200  0.82381200  0.22218800  1
  V  V1  1  0.65436700  0.16583400  0.71618700  1
  V  V2  1  0.16583400  0.65436700  0.71618700  1
  Fe  Fe0  1  0.82693100  0.33707400  0.21207900  1
  Fe  Fe1  1  0.33707400  0.82693100  0.21207900  1
  Fe  Fe2  1  0.16877000  0.16877000  0.71130200  1
  W  W0  1  0.66301700  0.66301700  0.48885800  1
  W  W1  1  0.32924900  0.32924900  0.98853200  1
  O  O0  1  0.81846000  0.34491100  0.58545100  1
  O  O1  1  0.52524900  0.52524900  0.35823700  1
  O  O2  1  0.68352100  0.68352100  0.11152600  1
  O  O3  1  0.98658600  0.98658600  0.29654600  1
  O  O4  1  0.99572200  0.99572200  0.80045200  1
  O  O5  1  0.34491100  0.81846000  0.58545100  1
  O  O6  1  0.96115400  0.53650900  0.35150800  1
  O  O7  1  0.53650900  0.96115400  0.35150800  1
  O  O8  1  0.17045400  0.17045400  0.08076300  1
  O  O9  1  0.82453400  0.82453400  0.59252000  1
  O  O10  1  0.49446000  0.04153800  0.85210500  1
  O  O11  1  0.04153800  0.49446000  0.85210500  1
  O  O12  1  0.33725900  0.33725900  0.60803800  1
  O  O13  1  0.64690200  0.16667900  0.08826900  1
  O  O14  1  0.47988400  0.47988400  0.84799600  1
  O  O15  1  0.16667900  0.64690200  0.08826900  1
loop_
_geom_bond_atom_site_label_1
_geom_bond_atom_site_label_2
_geom_bond_distance
_geom_bond_site_symmetry_2
Li0 O10 2.009325 1_565
Li0 O11 2.009325 1_655
Li0 O2 2.037622 1_556
Li0 O14 2.079843 1_555
Li1 O4 1.849239 1_555
Li1 O8 2.046870 1_666
Li1 O13 2.069399 1_566
Li1 O15 2.069399 1_656
Li2 O3 1.885453 1_555
Li2 O5 2.062139 1_655
Li2 O0 2.062139 1_565
Li2 O9 2.071268 1_555
Li3 O12 1.979374 1_555
Li3 O1 2.006602 1_555
Li3 O6 2.053866 1_455
Li3 O7 2.053866 1_545
Fe0 O3 2.010721 1_545
Fe0 O2 2.066102 1_555
Fe0 O1 2.140810 1_555
Fe0 O8 2.205761 1_655
Fe0 O13 2.218138 1_555
Fe0 O6 2.246220 1_555
Fe1 O3 2.010721 1_455
Fe1 O2 2.066102 1_555
Fe1 O1 2.140810 1_555
Fe1 O8 2.205761 1_565
Fe1 O15 2.218138 1_555
Fe1 O7 2.246220 1_555
Fe2 O4 1.999801 1_445
Fe2 O12 2.020798 1_555
Fe2 O10 2.217677 1_555
Fe2 O11 2.217677 1_555
Fe2 O0 2.221426 1_455
Fe2 O5 2.221426 1_545
O0 W0 1.911188 1_555
O0 V1 2.191822 1_555
O1 W0 1.946362 1_555
O2 V0 1.841877 1_555
O3 V0 1.865645 1_555
O4 V1 1.977185 1_565
O4 V2 1.977185 1_655
O5 W0 1.911188 1_555
O5 V2 2.191822 1_555
O6 V0 1.961686 1_555
O6 W0 2.058821 1_555
O7 V0 1.961686 1_555
O7 W0 2.058821 1_555
O8 W1 1.880665 1_554
O9 W0 1.988641 1_555
O9 V2 2.170188 1_655
O9 V1 2.170188 1_565
O10 V1 1.985674 1_555
O10 W1 2.028179 1_555
O11 V2 1.985674 1_555
O11 W1 2.028179 1_555
O12 V1 1.980527 1_555
O12 V2 1.980527 1_555
O13 W1 1.938340 1_554
O13 V0 2.218472 1_545
O14 W1 2.078980 1_555
O14 V2 2.103953 1_555
O14 V1 2.103953 1_555
O15 W1 1.938340 1_554
O15 V0 2.218472 1_455
