# generated using pymatgen
data_CuH4C3ClO2
_symmetry_space_group_name_H-M   'P 1'
_cell_length_a   6.36027000
_cell_length_b   8.80044600
_cell_length_c   20.73308600
_cell_angle_alpha   90.00000000
_cell_angle_beta   90.00000000
_cell_angle_gamma   90.00000000
_symmetry_Int_Tables_number   1
_chemical_formula_structural   CuH4C3ClO2
_chemical_formula_sum   'Cu8 H32 C24 Cl8 O16'
_cell_volume   1160.49743220
_cell_formula_units_Z   8
loop_
 _symmetry_equiv_pos_site_id
 _symmetry_equiv_pos_as_xyz
  1  'x, y, z'
loop_
 _atom_site_type_symbol
 _atom_site_label
 _atom_site_symmetry_multiplicity
 _atom_site_fract_x
 _atom_site_fract_y
 _atom_site_fract_z
 _atom_site_occupancy
  Cu  Cu0  1  0.87156100  0.34512700  0.32155900  1
  Cu  Cu1  1  0.62843900  0.84512700  0.67844100  1
  Cu  Cu2  1  0.37156100  0.65487300  0.17844100  1
  Cu  Cu3  1  0.12843900  0.15487300  0.82155900  1
  Cu  Cu4  1  0.12843900  0.65487300  0.67844100  1
  Cu  Cu5  1  0.37156100  0.15487300  0.32155900  1
  Cu  Cu6  1  0.62843900  0.34512700  0.82155900  1
  Cu  Cu7  1  0.87156100  0.84512700  0.17844100  1
  H  H0  1  0.60852300  0.39657400  0.50767400  1
  H  H1  1  0.89147700  0.89657400  0.49232600  1
  H  H2  1  0.10852300  0.60342600  0.99232600  1
  H  H3  1  0.39147700  0.10342600  0.00767400  1
  H  H4  1  0.39147700  0.60342600  0.49232600  1
  H  H5  1  0.10852300  0.10342600  0.50767400  1
  H  H6  1  0.89147700  0.39657400  0.00767400  1
  H  H7  1  0.60852300  0.89657400  0.99232600  1
  H  H8  1  0.84293300  0.62450300  0.35059300  1
  H  H9  1  0.65706700  0.12450300  0.64940700  1
  H  H10  1  0.34293300  0.37549700  0.14940700  1
  H  H11  1  0.15706700  0.87549700  0.85059300  1
  H  H12  1  0.15706700  0.37549700  0.64940700  1
  H  H13  1  0.34293300  0.87549700  0.35059300  1
  H  H14  1  0.65706700  0.62450300  0.85059300  1
  H  H15  1  0.84293300  0.12450300  0.14940700  1
  H  H16  1  0.09154600  0.37703100  0.42586800  1
  H  H17  1  0.40845400  0.87703100  0.57413200  1
  H  H18  1  0.59154600  0.62296900  0.07413200  1
  H  H19  1  0.90845400  0.12296900  0.92586800  1
  H  H20  1  0.90845400  0.62296900  0.57413200  1
  H  H21  1  0.59154600  0.12296900  0.42586800  1
  H  H22  1  0.40845400  0.37703100  0.92586800  1
  H  H23  1  0.09154600  0.87703100  0.07413200  1
  H  H24  1  0.19132300  0.49428500  0.35781200  1
  H  H25  1  0.30867700  0.99428500  0.64218800  1
  H  H26  1  0.69132300  0.50571500  0.14218800  1
  H  H27  1  0.80867700  0.00571500  0.85781200  1
  H  H28  1  0.80867700  0.50571500  0.64218800  1
  H  H29  1  0.69132300  0.00571500  0.35781200  1
  H  H30  1  0.30867700  0.49428500  0.85781200  1
  H  H31  1  0.19132300  0.99428500  0.14218800  1
  C  C0  1  0.69890700  0.51050900  0.43204700  1
  C  C1  1  0.80109300  0.01050900  0.56795300  1
  C  C2  1  0.19890700  0.48949100  0.06795300  1
  C  C3  1  0.30109300  0.98949100  0.93204700  1
  C  C4  1  0.30109300  0.48949100  0.56795300  1
  C  C5  1  0.19890700  0.98949100  0.43204700  1
  C  C6  1  0.80109300  0.51050900  0.93204700  1
  C  C7  1  0.69890700  0.01050900  0.06795300  1
  C  C8  1  0.86452300  0.52680600  0.38224900  1
  C  C9  1  0.63547700  0.02680600  0.61775100  1
  C  C10  1  0.36452300  0.47319400  0.11775100  1
  C  C11  1  0.13547700  0.97319400  0.88224900  1
  C  C12  1  0.13547700  0.47319400  0.61775100  1
  C  C13  1  0.36452300  0.97319400  0.38224900  1
  C  C14  1  0.63547700  0.52680600  0.88224900  1
  C  C15  1  0.86452300  0.02680600  0.11775100  1
  C  C16  1  0.05749700  0.45312800  0.38569800  1
  C  C17  1  0.44250300  0.95312800  0.61430200  1
  C  C18  1  0.55749700  0.54687200  0.11430200  1
  C  C19  1  0.94250300  0.04687200  0.88569800  1
  C  C20  1  0.94250300  0.54687200  0.61430200  1
  C  C21  1  0.55749700  0.04687200  0.38569800  1
  C  C22  1  0.44250300  0.45312800  0.88569800  1
  C  C23  1  0.05749700  0.95312800  0.11430200  1
  Cl  Cl0  1  0.04755500  0.15273400  0.27603400  1
  Cl  Cl1  1  0.45244500  0.65273400  0.72396600  1
  Cl  Cl2  1  0.54755500  0.84726600  0.22396600  1
  Cl  Cl3  1  0.95244500  0.34726600  0.77603400  1
  Cl  Cl4  1  0.95244500  0.84726600  0.72396600  1
  Cl  Cl5  1  0.54755500  0.34726600  0.27603400  1
  Cl  Cl6  1  0.45244500  0.15273400  0.77603400  1
  Cl  Cl7  1  0.04755500  0.65273400  0.22396600  1
  O  O0  1  0.72109200  0.39346600  0.47179100  1
  O  O1  1  0.77890800  0.89346600  0.52820900  1
  O  O2  1  0.22109200  0.60653400  0.02820900  1
  O  O3  1  0.27890800  0.10653400  0.97179100  1
  O  O4  1  0.27890800  0.60653400  0.52820900  1
  O  O5  1  0.22109200  0.10653400  0.47179100  1
  O  O6  1  0.77890800  0.39346600  0.97179100  1
  O  O7  1  0.72109200  0.89346600  0.02820900  1
  O  O8  1  0.55305700  0.60463600  0.43562800  1
  O  O9  1  0.94694300  0.10463600  0.56437200  1
  O  O10  1  0.05305700  0.39536400  0.06437200  1
  O  O11  1  0.44694300  0.89536400  0.93562800  1
  O  O12  1  0.44694300  0.39536400  0.56437200  1
  O  O13  1  0.05305700  0.89536400  0.43562800  1
  O  O14  1  0.94694300  0.60463600  0.93562800  1
  O  O15  1  0.55305700  0.10463600  0.06437200  1
loop_
_geom_bond_atom_site_label_1
_geom_bond_atom_site_label_2
_geom_bond_distance
_geom_bond_site_symmetry_2
H0 O0 1.032882 1_555
H0 O12 1.561449 1_555
H1 O1 1.032882 1_555
H1 O13 1.561449 1_655
H2 O2 1.032882 1_556
H2 O14 1.561449 1_455
H3 O3 1.032882 1_554
H3 O15 1.561449 1_555
H4 O4 1.032882 1_555
H4 O8 1.561449 1_555
H5 O5 1.032882 1_555
H5 O9 1.561449 1_455
H6 O6 1.032882 1_554
H6 O10 1.561449 1_655
H7 O7 1.032882 1_556
H7 O11 1.561449 1_555
C0 O8 1.245880 1_555
C0 O0 1.326603 1_555
C1 O9 1.245880 1_555
C1 O1 1.326603 1_545
C2 O10 1.245880 1_555
C2 O2 1.326603 1_555
C3 O11 1.245880 1_555
C3 O3 1.326603 1_565
C4 O12 1.245880 1_555
C4 O4 1.326603 1_555
C5 O13 1.245880 1_555
C5 O5 1.326603 1_565
C6 O14 1.245880 1_555
C6 O6 1.326603 1_555
C7 O15 1.245880 1_555
C7 O7 1.326603 1_545
C8 H8 1.090338 1_555
C8 Cu0 2.035102 1_555
C9 H9 1.090338 1_555
C9 Cu1 2.035102 1_545
C10 H10 1.090338 1_555
C10 Cu2 2.035102 1_555
C11 H11 1.090338 1_555
C11 Cu3 2.035102 1_565
C12 H12 1.090338 1_555
C12 Cu4 2.035102 1_555
C13 H13 1.090338 1_555
C13 Cu5 2.035102 1_565
C14 H14 1.090338 1_555
C14 Cu6 2.035102 1_555
C15 H15 1.090338 1_555
C15 Cu7 2.035102 1_545
C16 H16 1.090420 1_555
C16 H24 1.090849 1_555
C16 Cu0 2.017495 1_455
C17 H17 1.090420 1_555
C17 H25 1.090849 1_555
C17 Cu1 2.017495 1_555
C18 H18 1.090420 1_555
C18 H26 1.090849 1_555
C18 Cu2 2.017495 1_555
C19 H19 1.090420 1_555
C19 H27 1.090849 1_555
C19 Cu3 2.017495 1_655
C20 H20 1.090420 1_555
C20 H28 1.090849 1_555
C20 Cu4 2.017495 1_655
C21 H21 1.090420 1_555
C21 H29 1.090849 1_555
C21 Cu5 2.017495 1_555
C22 H22 1.090420 1_555
C22 H30 1.090849 1_555
C22 Cu6 2.017495 1_555
C23 H23 1.090420 1_555
C23 H31 1.090849 1_555
C23 Cu7 2.017495 1_455
Cl0 Cu0 2.238442 1_455
Cl0 Cu5 2.266717 1_555
Cl1 Cu1 2.238442 1_555
Cl1 Cu4 2.266717 1_555
Cl2 Cu2 2.238442 1_555
Cl2 Cu7 2.266717 1_555
Cl3 Cu3 2.238442 1_655
Cl3 Cu6 2.266717 1_555
Cl4 Cu4 2.238442 1_655
Cl4 Cu1 2.266717 1_555
Cl5 Cu5 2.238442 1_555
Cl5 Cu0 2.266717 1_555
Cl6 Cu6 2.238442 1_555
Cl6 Cu3 2.266717 1_555
Cl7 Cu7 2.238442 1_455
Cl7 Cu2 2.266717 1_555
