# generated using pymatgen
data_Eu2Pb2O7
_symmetry_space_group_name_H-M   'P 1'
_cell_length_a   7.64534602
_cell_length_b   7.64536217
_cell_length_c   7.64661977
_cell_angle_alpha   59.99481137
_cell_angle_beta   59.99477752
_cell_angle_gamma   60.01106517
_symmetry_Int_Tables_number   1
_chemical_formula_structural   Eu2Pb2O7
_chemical_formula_sum   'Eu4 Pb4 O14'
_cell_volume   316.04711534
_cell_formula_units_Z   2
loop_
 _symmetry_equiv_pos_site_id
 _symmetry_equiv_pos_as_xyz
  1  'x, y, z'
loop_
 _atom_site_type_symbol
 _atom_site_label
 _atom_site_symmetry_multiplicity
 _atom_site_fract_x
 _atom_site_fract_y
 _atom_site_fract_z
 _atom_site_occupancy
  Eu  Eu0  1  0.62500239  0.62500129  0.12499454  1
  Eu  Eu1  1  0.62500136  0.62500189  0.62500168  1
  Eu  Eu2  1  0.62500193  0.12499479  0.62500186  1
  Eu  Eu3  1  0.12499505  0.62500220  0.62500134  1
  Pb  Pb0  1  0.12499786  0.12499726  0.12499981  1
  Pb  Pb1  1  0.62500547  0.12499996  0.12499699  1
  Pb  Pb2  1  0.12500019  0.62500512  0.12499760  1
  Pb  Pb3  1  0.12499714  0.12499761  0.62500539  1
  O  O0  1  0.03100031  0.46900131  0.46900136  1
  O  O1  1  0.78088548  0.78088557  0.21911109  1
  O  O2  1  0.78099519  0.21900743  0.21900540  1
  O  O3  1  0.46899936  0.03099766  0.46900368  1
  O  O4  1  0.74999842  0.75000296  0.75000017  1
  O  O5  1  0.03087715  0.03087794  0.46912171  1
  O  O6  1  0.03099867  0.46900167  0.03099864  1
  O  O7  1  0.21900573  0.78099625  0.21900439  1
  O  O8  1  0.21911332  0.21911600  0.78088620  1
  O  O9  1  0.78099494  0.21900398  0.78099471  1
  O  O10  1  0.50000201  0.49999669  0.49999997  1
  O  O11  1  0.46900088  0.03099435  0.03099977  1
  O  O12  1  0.46912267  0.46912212  0.03087925  1
  O  O13  1  0.21900452  0.78099594  0.78099446  1
loop_
_geom_bond_atom_site_label_1
_geom_bond_atom_site_label_2
_geom_bond_distance
_geom_bond_site_symmetry_2
Eu0 O4 2.341005 1_554
Eu0 O10 2.341074 1_555
Eu0 O12 2.548306 1_555
Eu0 O1 2.548368 1_555
Eu0 O2 2.549295 1_555
Eu0 O11 2.549301 1_565
Eu0 O7 2.549307 1_555
Eu0 O6 2.549315 1_655
Eu1 O4 2.341006 1_555
Eu1 O10 2.341066 1_555
Eu1 O12 2.548340 1_556
Eu1 O1 2.548421 1_555
Eu1 O13 2.549310 1_555
Eu1 O3 2.549319 1_565
Eu1 O9 2.549322 1_555
Eu1 O0 2.549332 1_655
Eu2 O4 2.340988 1_545
Eu2 O10 2.341051 1_555
Eu2 O5 2.548318 1_655
Eu2 O8 2.548401 1_555
Eu2 O9 2.549291 1_555
Eu2 O2 2.549311 1_555
Eu2 O3 2.549318 1_555
Eu2 O11 2.549329 1_556
Eu3 O4 2.341013 1_455
Eu3 O10 2.341077 1_555
Eu3 O5 2.548327 1_565
Eu3 O8 2.548395 1_555
Eu3 O13 2.549300 1_555
Eu3 O0 2.549306 1_555
Eu3 O7 2.549316 1_555
Eu3 O6 2.549329 1_556
O0 Pb3 2.164869 1_555
O0 Pb2 2.164870 1_555
O1 Pb2 2.165537 1_655
O1 Pb1 2.165539 1_565
O2 Pb0 2.164841 1_655
O2 Pb1 2.164856 1_555
O3 Pb3 2.164853 1_555
O3 Pb1 2.164888 1_555
O5 Pb3 2.165585 1_555
O5 Pb0 2.165585 1_555
O6 Pb2 2.164858 1_555
O6 Pb0 2.164871 1_555
O7 Pb0 2.164838 1_565
O7 Pb2 2.164845 1_555
O8 Pb0 2.165534 1_556
O8 Pb3 2.165535 1_555
O9 Pb3 2.164842 1_655
O9 Pb1 2.164848 1_556
O11 Pb0 2.164854 1_555
O11 Pb1 2.164879 1_555
O12 Pb2 2.165585 1_555
O12 Pb1 2.165588 1_555
O13 Pb3 2.164844 1_565
O13 Pb2 2.164855 1_556
