# generated using pymatgen
data_V3O5F
_symmetry_space_group_name_H-M   'P 1'
_cell_length_a   10.52637044
_cell_length_b   10.52637044
_cell_length_c   2.99171100
_cell_angle_alpha   90.00000000
_cell_angle_beta   90.00000000
_cell_angle_gamma   144.46987479
_symmetry_Int_Tables_number   1
_chemical_formula_structural   V3O5F
_chemical_formula_sum   'V6 O10 F2'
_cell_volume   192.64197599
_cell_formula_units_Z   2
loop_
 _symmetry_equiv_pos_site_id
 _symmetry_equiv_pos_as_xyz
  1  'x, y, z'
loop_
 _atom_site_type_symbol
 _atom_site_label
 _atom_site_symmetry_multiplicity
 _atom_site_fract_x
 _atom_site_fract_y
 _atom_site_fract_z
 _atom_site_occupancy
  V  V0  1  0.67794000  0.32206000  0.00000000  1
  V  V1  1  0.83897200  0.16102800  0.50000000  1
  V  V2  1  0.16102800  0.83897200  0.50000000  1
  V  V3  1  0.32206000  0.67794000  0.00000000  1
  V  V4  1  0.00000000  0.00000000  0.00000000  1
  V  V5  1  0.50000000  0.50000000  0.50000000  1
  O  O0  1  0.73676900  0.26323100  0.50000000  1
  O  O1  1  0.95617000  0.62511400  0.00000000  1
  O  O2  1  0.37488600  0.04383000  0.00000000  1
  O  O3  1  0.04383000  0.37488600  0.00000000  1
  O  O4  1  0.69672900  0.69672900  0.00000000  1
  O  O5  1  0.26323100  0.73676900  0.50000000  1
  O  O6  1  0.93541000  0.06459000  0.50000000  1
  O  O7  1  0.06459000  0.93541000  0.50000000  1
  O  O8  1  0.62511400  0.95617000  0.00000000  1
  O  O9  1  0.30327100  0.30327100  0.00000000  1
  F  F0  1  0.39606100  0.60393900  0.50000000  1
  F  F1  1  0.60393900  0.39606100  0.50000000  1
loop_
_geom_bond_atom_site_label_1
_geom_bond_atom_site_label_2
_geom_bond_distance
_geom_bond_site_symmetry_2
O0 V0 1.904914 1_555
O0 V0 1.904914 1_556
O0 V1 2.049053 1_555
O1 V0 1.883450 1_555
O1 V2 2.013514 1_654
O1 V2 2.013514 1_655
O2 V0 1.883450 1_555
O2 V2 2.013514 1_544
O2 V2 2.013514 1_545
O3 V3 1.883450 1_555
O3 V1 2.013514 1_454
O3 V1 2.013514 1_455
O4 V4 1.948061 1_665
O4 V5 1.958186 1_555
O4 V5 1.958186 1_554
O5 V3 1.904914 1_555
O5 V3 1.904914 1_556
O5 V2 2.049053 1_555
O6 V1 1.933471 1_555
O6 V4 1.978508 1_656
O6 V4 1.978508 1_655
O7 V2 1.933471 1_555
O7 V4 1.978508 1_565
O7 V4 1.978508 1_566
O8 V3 1.883450 1_555
O8 V1 2.013514 1_565
O8 V1 2.013514 1_564
O9 V4 1.948061 1_555
O9 V5 1.958186 1_555
O9 V5 1.958186 1_554
F0 V5 2.083858 1_555
F0 V3 2.106836 1_555
F0 V3 2.106836 1_556
F1 V5 2.083858 1_555
F1 V0 2.106836 1_555
F1 V0 2.106836 1_556
