# generated using pymatgen
data_Li4Fe3P4(HO8)2
_symmetry_space_group_name_H-M   'P 1'
_cell_length_a   9.48040000
_cell_length_b   8.69009100
_cell_length_c   9.25512041
_cell_angle_alpha   64.01221657
_cell_angle_beta   90.00000000
_cell_angle_gamma   90.00000000
_symmetry_Int_Tables_number   1
_chemical_formula_structural   Li4Fe3P4(HO8)2
_chemical_formula_sum   'Li8 Fe6 P8 H4 O32'
_cell_volume   685.39100087
_cell_formula_units_Z   2
loop_
 _symmetry_equiv_pos_site_id
 _symmetry_equiv_pos_as_xyz
  1  'x, y, z'
loop_
 _atom_site_type_symbol
 _atom_site_label
 _atom_site_symmetry_multiplicity
 _atom_site_fract_x
 _atom_site_fract_y
 _atom_site_fract_z
 _atom_site_occupancy
  Li  Li0  1  0.34584600  0.41889900  0.03392000  1
  Li  Li1  1  0.97977400  0.28300800  0.31136400  1
  Li  Li2  1  0.15415400  0.91889900  0.03392000  1
  Li  Li3  1  0.52022600  0.78300800  0.31136400  1
  Li  Li4  1  0.47977400  0.21699200  0.68863600  1
  Li  Li5  1  0.84584600  0.08110100  0.96608000  1
  Li  Li6  1  0.02022600  0.71699200  0.68863600  1
  Li  Li7  1  0.65415400  0.58110100  0.96608000  1
  Fe  Fe0  1  0.63260500  0.39370900  0.37597800  1
  Fe  Fe1  1  0.13260500  0.10629100  0.62402200  1
  Fe  Fe2  1  0.00000000  0.50000000  0.50000000  1
  Fe  Fe3  1  0.86739500  0.89370900  0.37597800  1
  Fe  Fe4  1  0.36739500  0.60629100  0.62402200  1
  Fe  Fe5  1  0.50000000  0.00000000  0.50000000  1
  P  P0  1  0.68475600  0.19038700  0.16999100  1
  P  P1  1  0.81524400  0.69038700  0.16999100  1
  P  P2  1  0.31604400  0.43462100  0.38044100  1
  P  P3  1  0.81604400  0.06537900  0.61955900  1
  P  P4  1  0.18395600  0.93462100  0.38044100  1
  P  P5  1  0.68395600  0.56537900  0.61955900  1
  P  P6  1  0.18475600  0.30961300  0.83000900  1
  P  P7  1  0.31524400  0.80961300  0.83000900  1
  H  H0  1  0.19581400  0.13962800  0.11151700  1
  H  H1  1  0.30418600  0.63962800  0.11151700  1
  H  H2  1  0.69581400  0.36037200  0.88848300  1
  H  H3  1  0.80418600  0.86037200  0.88848300  1
  O  O0  1  0.18924000  0.29277000  0.00548300  1
  O  O1  1  0.20011800  0.99415400  0.19477600  1
  O  O2  1  0.83811500  0.15793000  0.23806200  1
  O  O3  1  0.58875900  0.03741500  0.27590000  1
  O  O4  1  0.62688300  0.36203900  0.16253400  1
  O  O5  1  0.31076000  0.79277000  0.00548300  1
  O  O6  1  0.29988200  0.49415400  0.19477600  1
  O  O7  1  0.13447800  0.08924200  0.40624500  1
  O  O8  1  0.66188500  0.65793000  0.23806200  1
  O  O9  1  0.91124100  0.53741500  0.27590000  1
  O  O10  1  0.67139900  0.13033500  0.53686000  1
  O  O11  1  0.87311700  0.86203900  0.16253400  1
  O  O12  1  0.42439200  0.28571700  0.44601200  1
  O  O13  1  0.92439200  0.21428300  0.55398800  1
  O  O14  1  0.17139900  0.36966500  0.46314000  1
  O  O15  1  0.36552200  0.58924200  0.40624500  1
  O  O16  1  0.63447800  0.41075800  0.59375500  1
  O  O17  1  0.82860100  0.63033500  0.53686000  1
  O  O18  1  0.07560800  0.78571700  0.44601200  1
  O  O19  1  0.57560800  0.71428300  0.55398800  1
  O  O20  1  0.12688300  0.13796100  0.83746600  1
  O  O21  1  0.32860100  0.86966500  0.46314000  1
  O  O22  1  0.08875900  0.46258500  0.72410000  1
  O  O23  1  0.33811500  0.34207000  0.76193800  1
  O  O24  1  0.86552200  0.91075800  0.59375500  1
  O  O25  1  0.70011800  0.50584600  0.80522400  1
  O  O26  1  0.68924000  0.20723000  0.99451700  1
  O  O27  1  0.37311700  0.63796100  0.83746600  1
  O  O28  1  0.41124100  0.96258500  0.72410000  1
  O  O29  1  0.16188500  0.84207000  0.76193800  1
  O  O30  1  0.79988200  0.00584600  0.80522400  1
  O  O31  1  0.81076000  0.70723000  0.99451700  1
loop_
_geom_bond_atom_site_label_1
_geom_bond_atom_site_label_2
_geom_bond_distance
_geom_bond_site_symmetry_2
Li0 O6 1.920192 1_555
Li0 O0 1.930737 1_555
Li0 O27 1.990819 1_554
Li1 O2 2.022751 1_555
Li1 O7 2.112276 1_655
Li1 O13 2.121183 1_555
Li1 O9 2.186703 1_555
Li2 O1 1.920192 1_555
Li2 O5 1.930737 1_555
Li2 O20 1.990819 1_564
Li3 O8 2.022751 1_555
Li3 O15 2.112276 1_555
Li3 O19 2.121183 1_555
Li3 O3 2.186703 1_565
Li4 O23 2.022751 1_555
Li4 O16 2.112276 1_555
Li4 O12 2.121183 1_555
Li4 O28 2.186703 1_545
Li5 O30 1.920192 1_555
Li5 O26 1.930737 1_555
Li5 O11 1.990819 1_546
Li6 O29 2.022751 1_555
Li6 O24 2.112276 1_455
Li6 O18 2.121183 1_555
Li6 O22 2.186703 1_555
Li7 O25 1.920192 1_555
Li7 O31 1.930737 1_555
Li7 O4 1.990819 1_556
Fe0 O16 2.084806 1_555
Fe0 O8 2.099994 1_555
Fe0 O4 2.111289 1_555
Fe0 O10 2.145726 1_555
Fe0 O12 2.159678 1_555
Fe1 O7 2.084806 1_555
Fe1 O29 2.099994 1_545
Fe1 O20 2.111289 1_555
Fe1 O14 2.145726 1_555
Fe1 O13 2.159678 1_455
Fe2 O14 2.092422 1_555
Fe2 O17 2.092422 1_455
Fe2 O22 2.127106 1_555
Fe2 O9 2.127106 1_455
Fe2 O18 2.416827 1_555
Fe2 O13 2.416827 1_455
Fe3 O24 2.084806 1_555
Fe3 O2 2.099994 1_565
Fe3 O11 2.111289 1_555
Fe3 O17 2.145726 1_555
Fe3 O18 2.159678 1_655
Fe4 O15 2.084806 1_555
Fe4 O23 2.099994 1_555
Fe4 O27 2.111289 1_555
Fe4 O21 2.145726 1_555
Fe4 O19 2.159678 1_555
Fe5 O10 2.092422 1_555
Fe5 O21 2.092422 1_545
Fe5 O3 2.127106 1_555
Fe5 O28 2.127106 1_545
Fe5 O12 2.416827 1_555
Fe5 O19 2.416827 1_545
H0 O1 1.157542 1_545
H0 O0 1.262336 1_555
H1 O6 1.157542 1_555
H1 O5 1.262336 1_555
H2 O25 1.157542 1_555
H2 O26 1.262336 1_555
H3 O30 1.157542 1_565
H3 O31 1.262336 1_555
O0 P6 1.566014 1_554
O1 P4 1.569965 1_555
O2 P0 1.560312 1_555
O3 P0 1.553798 1_555
O4 P0 1.562259 1_555
O5 P7 1.566014 1_554
O6 P2 1.569965 1_555
O7 P4 1.537443 1_545
O8 P1 1.560312 1_555
O9 P1 1.553798 1_555
O10 P3 1.551216 1_555
O11 P1 1.562259 1_555
O12 P2 1.552293 1_555
O13 P3 1.552293 1_555
O14 P2 1.551216 1_555
O15 P2 1.537443 1_555
O16 P5 1.537443 1_555
O17 P5 1.551216 1_555
O18 P4 1.552293 1_555
O19 P5 1.552293 1_555
O20 P6 1.562259 1_555
O21 P4 1.551216 1_555
O22 P6 1.553798 1_555
O23 P6 1.560312 1_555
O24 P3 1.537443 1_565
O25 P5 1.569965 1_555
O26 P0 1.566014 1_556
O27 P7 1.562259 1_555
O28 P7 1.553798 1_555
O29 P7 1.560312 1_555
O30 P3 1.569965 1_555
O31 P1 1.566014 1_556
