# generated using pymatgen
data_LiCoSiO4
_symmetry_space_group_name_H-M   'P 1'
_cell_length_a   8.91140800
_cell_length_b   4.86086900
_cell_length_c   7.84913908
_cell_angle_alpha   53.48014496
_cell_angle_beta   90.00000000
_cell_angle_gamma   90.00000000
_symmetry_Int_Tables_number   1
_chemical_formula_structural   LiCoSiO4
_chemical_formula_sum   'Li4 Co4 Si4 O16'
_cell_volume   273.24334214
_cell_formula_units_Z   4
loop_
 _symmetry_equiv_pos_site_id
 _symmetry_equiv_pos_as_xyz
  1  'x, y, z'
loop_
 _atom_site_type_symbol
 _atom_site_label
 _atom_site_symmetry_multiplicity
 _atom_site_fract_x
 _atom_site_fract_y
 _atom_site_fract_z
 _atom_site_occupancy
  Li  Li0  1  0.33707300  0.29054900  0.74021100  1
  Li  Li1  1  0.83707300  0.70945100  0.75978900  1
  Li  Li2  1  0.16292700  0.29054900  0.24021100  1
  Li  Li3  1  0.66292700  0.70945100  0.25978900  1
  Co  Co0  1  0.00000000  0.50000000  0.50000000  1
  Co  Co1  1  0.50000000  0.00000000  0.50000000  1
  Co  Co2  1  0.00000000  0.00000000  0.00000000  1
  Co  Co3  1  0.50000000  0.50000000  0.00000000  1
  Si  Si0  1  0.17828200  0.79309100  0.73950300  1
  Si  Si1  1  0.67828200  0.20690900  0.76049700  1
  Si  Si2  1  0.32171800  0.79309100  0.23950300  1
  Si  Si3  1  0.82171800  0.20690900  0.26049700  1
  O  O0  1  0.11487400  0.15401900  0.52940000  1
  O  O1  1  0.61613900  0.26962800  0.54277600  1
  O  O2  1  0.12973300  0.46510700  0.74216300  1
  O  O3  1  0.36349600  0.86108100  0.74024300  1
  O  O4  1  0.86349600  0.13891900  0.75975700  1
  O  O5  1  0.62973300  0.53489300  0.75783700  1
  O  O6  1  0.11613900  0.73037200  0.95722400  1
  O  O7  1  0.61487400  0.84598100  0.97060000  1
  O  O8  1  0.38512600  0.15401900  0.02940000  1
  O  O9  1  0.88386100  0.26962800  0.04277600  1
  O  O10  1  0.37026700  0.46510700  0.24216300  1
  O  O11  1  0.13650400  0.86108100  0.24024300  1
  O  O12  1  0.63650400  0.13891900  0.25975700  1
  O  O13  1  0.87026700  0.53489300  0.25783700  1
  O  O14  1  0.38386100  0.73037200  0.45722400  1
  O  O15  1  0.88512600  0.84598100  0.47060000  1
loop_
_geom_bond_atom_site_label_1
_geom_bond_atom_site_label_2
_geom_bond_distance
_geom_bond_site_symmetry_2
Li0 O8 1.995806 1_556
Li0 O14 2.006568 1_555
Li0 O2 2.037064 1_555
Li0 O3 2.100677 1_545
Li1 O15 1.995806 1_555
Li1 O9 2.006568 1_556
Li1 O5 2.037064 1_555
Li1 O4 2.100677 1_565
Li2 O0 1.995806 1_555
Li2 O6 2.006568 1_554
Li2 O10 2.037064 1_555
Li2 O11 2.100677 1_545
Li3 O7 1.995806 1_554
Li3 O1 2.006568 1_555
Li3 O13 2.037064 1_555
Li3 O12 2.100677 1_565
Co0 O15 1.862157 1_455
Co0 O0 1.862157 1_555
Co0 O11 2.111427 1_555
Co0 O4 2.111427 1_455
Co0 O2 2.143493 1_555
Co0 O13 2.143493 1_455
Co1 O14 1.850775 1_545
Co1 O1 1.850775 1_555
Co1 O12 1.994001 1_555
Co1 O3 1.994001 1_545
Co1 O10 2.257863 1_555
Co1 O5 2.257863 1_545
Co2 O9 1.850775 1_455
Co2 O6 1.850775 1_544
Co2 O4 1.994001 1_454
Co2 O11 1.994001 1_545
Co2 O13 2.257863 1_445
Co2 O2 2.257863 1_554
Co3 O8 1.862157 1_555
Co3 O7 1.862157 1_554
Co3 O12 2.111427 1_555
Co3 O3 2.111427 1_554
Co3 O10 2.143493 1_555
Co3 O5 2.143493 1_554
O0 Si0 1.635034 1_545
O1 Si1 1.643150 1_555
O2 Si0 1.640045 1_555
O3 Si0 1.683969 1_555
O4 Si1 1.683969 1_555
O5 Si1 1.640045 1_555
O6 Si0 1.643150 1_555
O7 Si1 1.635034 1_565
O8 Si2 1.635034 1_545
O9 Si3 1.643150 1_555
O10 Si2 1.640045 1_555
O11 Si2 1.683969 1_555
O12 Si3 1.683969 1_555
O13 Si3 1.640045 1_555
O14 Si2 1.643150 1_555
O15 Si3 1.635034 1_565
