# generated using pymatgen
data_CaSiBO5
_symmetry_space_group_name_H-M   'P 1'
_cell_length_a   7.64311930
_cell_length_b   4.89733042
_cell_length_c   9.52346102
_cell_angle_alpha   88.64009689
_cell_angle_beta   90.00000000
_cell_angle_gamma   90.00000000
_symmetry_Int_Tables_number   1
_chemical_formula_structural   CaSiBO5
_chemical_formula_sum   'Ca4 Si4 B4 O20'
_cell_volume   356.37112981
_cell_formula_units_Z   4
loop_
 _symmetry_equiv_pos_site_id
 _symmetry_equiv_pos_as_xyz
  1  'x, y, z'
loop_
 _atom_site_type_symbol
 _atom_site_label
 _atom_site_symmetry_multiplicity
 _atom_site_fract_x
 _atom_site_fract_y
 _atom_site_fract_z
 _atom_site_occupancy
  Ca  Ca0  1  0.61305707  0.00253197  0.83105072  1
  Ca  Ca1  1  0.11305707  0.99746803  0.66894928  1
  Ca  Ca2  1  0.38694293  0.99746803  0.16894928  1
  Ca  Ca3  1  0.88694293  0.00253197  0.33105072  1
  Si  Si0  1  0.75816259  0.52790952  0.58375748  1
  Si  Si1  1  0.25816259  0.47209048  0.91624252  1
  Si  Si2  1  0.24183741  0.47209048  0.41624252  1
  Si  Si3  1  0.74183741  0.52790952  0.08375748  1
  B  B0  1  0.90582422  0.43369879  0.82998762  1
  B  B1  1  0.40582422  0.56630121  0.67001238  1
  B  B2  1  0.09417578  0.56630121  0.17001238  1
  B  B3  1  0.59417578  0.43369879  0.32998762  1
  O  O0  1  0.89657816  0.76453268  0.54809918  1
  O  O1  1  0.39657816  0.23546732  0.95190082  1
  O  O2  1  0.10342184  0.23546732  0.45190082  1
  O  O3  1  0.60342184  0.76453268  0.04809918  1
  O  O4  1  0.79243027  0.35010795  0.94715103  1
  O  O5  1  0.29243027  0.64989205  0.55284897  1
  O  O6  1  0.20756973  0.64989205  0.05284897  1
  O  O7  1  0.70756973  0.35010795  0.44715103  1
  O  O8  1  0.83516113  0.30638951  0.70180104  1
  O  O9  1  0.33516113  0.69361049  0.79819896  1
  O  O10  1  0.16483887  0.69361049  0.29819896  1
  O  O11  1  0.66483887  0.30638951  0.20180104  1
  O  O12  1  0.58268847  0.66786224  0.64961421  1
  O  O13  1  0.08268847  0.33213776  0.85038579  1
  O  O14  1  0.41731153  0.33213776  0.35038579  1
  O  O15  1  0.91731153  0.66786224  0.14961421  1
  O  O16  1  0.89910309  0.73511954  0.80835276  1
  O  O17  1  0.39910309  0.26488046  0.69164724  1
  O  O18  1  0.10089691  0.26488046  0.19164724  1
  O  O19  1  0.60089691  0.73511954  0.30835276  1
loop_
_geom_bond_atom_site_label_1
_geom_bond_atom_site_label_2
_geom_bond_distance
_geom_bond_site_symmetry_2
Ca0 O1 2.329349 1_555
Ca0 O3 2.349959 1_546
Ca0 O12 2.420791 1_545
Ca0 O17 2.450801 1_555
Ca0 O4 2.467566 1_555
Ca0 O8 2.554278 1_555
Ca0 O16 2.560287 1_545
Ca0 O9 2.630690 1_545
Ca1 O0 2.329349 1_455
Ca1 O2 2.349959 1_565
Ca1 O13 2.420791 1_565
Ca1 O16 2.450801 1_455
Ca1 O5 2.467566 1_555
Ca1 O9 2.554278 1_555
Ca1 O17 2.560287 1_565
Ca1 O8 2.630690 1_465
Ca2 O3 2.329349 1_555
Ca2 O1 2.349959 1_564
Ca2 O14 2.420791 1_565
Ca2 O19 2.450801 1_555
Ca2 O6 2.467566 1_555
Ca2 O10 2.554278 1_555
Ca2 O18 2.560287 1_565
Ca2 O11 2.630690 1_565
Ca3 O2 2.329349 1_655
Ca3 O0 2.349959 1_545
Ca3 O15 2.420791 1_545
Ca3 O18 2.450801 1_655
Ca3 O7 2.467566 1_555
Ca3 O11 2.554278 1_555
Ca3 O19 2.560287 1_545
Ca3 O10 2.630690 1_645
B0 O13 1.451856 1_655
B0 O4 1.463577 1_555
B0 O8 1.485546 1_555
B0 O16 1.486504 1_555
B1 O12 1.451856 1_555
B1 O5 1.463577 1_555
B1 O9 1.485546 1_555
B1 O17 1.486504 1_555
B2 O15 1.451856 1_455
B2 O6 1.463577 1_555
B2 O10 1.485546 1_555
B2 O18 1.486504 1_555
B3 O14 1.451856 1_555
B3 O7 1.463577 1_555
B3 O11 1.485546 1_555
B3 O19 1.486504 1_555
O0 Si0 1.599600 1_555
O1 Si1 1.599600 1_555
O2 Si2 1.599600 1_555
O3 Si3 1.599600 1_555
O4 Si3 1.629116 1_556
O5 Si2 1.629116 1_555
O6 Si1 1.629116 1_554
O7 Si0 1.629116 1_555
O8 Si0 1.652016 1_555
O9 Si1 1.652016 1_555
O10 Si2 1.652016 1_555
O11 Si3 1.652016 1_555
O12 Si0 1.637762 1_555
O13 Si1 1.637762 1_555
O14 Si2 1.637762 1_555
O15 Si3 1.637762 1_555
