# generated using pymatgen
data_SmI3O10
_symmetry_space_group_name_H-M   'P 1'
_cell_length_a   6.68601500
_cell_length_b   7.46633400
_cell_length_c   10.14485786
_cell_angle_alpha   69.77163590
_cell_angle_beta   90.00000000
_cell_angle_gamma   90.00000000
_symmetry_Int_Tables_number   1
_chemical_formula_structural   SmI3O10
_chemical_formula_sum   'Sm2 I6 O20'
_cell_volume   475.19581959
_cell_formula_units_Z   2
loop_
 _symmetry_equiv_pos_site_id
 _symmetry_equiv_pos_as_xyz
  1  'x, y, z'
loop_
 _atom_site_type_symbol
 _atom_site_label
 _atom_site_symmetry_multiplicity
 _atom_site_fract_x
 _atom_site_fract_y
 _atom_site_fract_z
 _atom_site_occupancy
  Sm  Sm0  1  0.00049500  0.26529800  0.81117200  1
  Sm  Sm1  1  0.50049500  0.73470200  0.18882800  1
  I  I0  1  0.47442600  0.03153900  0.77579100  1
  I  I1  1  0.97442600  0.96846100  0.22420900  1
  I  I2  1  0.02633700  0.66796100  0.96109400  1
  I  I3  1  0.52633700  0.33203900  0.03890600  1
  I  I4  1  0.12859400  0.39386600  0.41830800  1
  I  I5  1  0.62859400  0.60613400  0.58169200  1
  O  O0  1  0.36060400  0.20491300  0.84872200  1
  O  O1  1  0.86060400  0.79508700  0.15127800  1
  O  O2  1  0.71258500  0.15508000  0.72280500  1
  O  O3  1  0.21258500  0.84492000  0.27719500  1
  O  O4  1  0.55202400  0.84833500  0.93935200  1
  O  O5  1  0.05202400  0.15166500  0.06064800  1
  O  O6  1  0.14061000  0.54506100  0.85071100  1
  O  O7  1  0.64061000  0.45493900  0.14928900  1
  O  O8  1  0.09814400  0.91428500  0.86004600  1
  O  O9  1  0.59814400  0.08571500  0.13995400  1
  O  O10  1  0.21782700  0.59777500  0.09943100  1
  O  O11  1  0.71782700  0.40222500  0.90056900  1
  O  O12  1  0.39443700  0.46377700  0.38987100  1
  O  O13  1  0.89443700  0.53622300  0.61012900  1
  O  O14  1  0.14066900  0.20249600  0.34000000  1
  O  O15  1  0.64066900  0.79750400  0.66000000  1
  O  O16  1  0.15809200  0.24685800  0.60367100  1
  O  O17  1  0.65809200  0.75314200  0.39632900  1
  O  O18  1  0.83592800  0.22330000  0.41238900  1
  O  O19  1  0.33592800  0.77670000  0.58761100  1
loop_
_geom_bond_atom_site_label_1
_geom_bond_atom_site_label_2
_geom_bond_distance
_geom_bond_site_symmetry_2
I0 O4 1.823172 1_545
I0 O2 1.825492 1_555
I0 O0 1.861320 1_555
I1 O5 1.823172 1_665
I1 O3 1.825492 1_655
I1 O1 1.861320 1_555
I2 O8 1.833040 1_555
I2 O10 1.837057 1_556
I2 O6 1.841287 1_555
I2 O1 2.667907 1_456
I3 O9 1.833040 1_555
I3 O11 1.837057 1_554
I3 O7 1.841287 1_555
I3 O0 2.667907 1_554
I4 O16 1.830990 1_555
I4 O12 1.846839 1_555
I4 O14 1.861219 1_555
I4 O18 2.346751 1_455
I5 O17 1.830990 1_555
I5 O13 1.846839 1_555
I5 O15 1.861219 1_555
I5 O19 2.346751 1_555
O0 Sm0 2.454915 1_555
O1 Sm1 2.454915 1_555
O2 Sm0 2.386741 1_655
O3 Sm1 2.386741 1_555
O4 Sm1 2.399807 1_556
O5 Sm0 2.399807 1_554
O6 Sm0 2.445611 1_555
O7 Sm1 2.445611 1_555
O8 Sm0 2.577206 1_565
O9 Sm1 2.577206 1_545
O10 Sm1 2.465901 1_555
O11 Sm0 2.465901 1_655
O12 Sm1 2.429281 1_555
O13 Sm0 2.429281 1_655
O16 Sm0 2.400201 1_555
O17 Sm1 2.400201 1_555
