# generated using pymatgen
data_LiZr2O4
_symmetry_space_group_name_H-M   'P 1'
_cell_length_a   5.16634200
_cell_length_b   6.10381800
_cell_length_c   10.86671300
_cell_angle_alpha   90.00000000
_cell_angle_beta   90.00000000
_cell_angle_gamma   90.00000000
_symmetry_Int_Tables_number   1
_chemical_formula_structural   LiZr2O4
_chemical_formula_sum   'Li4 Zr8 O16'
_cell_volume   342.67539715
_cell_formula_units_Z   4
loop_
 _symmetry_equiv_pos_site_id
 _symmetry_equiv_pos_as_xyz
  1  'x, y, z'
loop_
 _atom_site_type_symbol
 _atom_site_label
 _atom_site_symmetry_multiplicity
 _atom_site_fract_x
 _atom_site_fract_y
 _atom_site_fract_z
 _atom_site_occupancy
  Li  Li0  1  0.94130700  0.75000000  0.60234900  1
  Li  Li1  1  0.55869300  0.75000000  0.10234900  1
  Li  Li2  1  0.44130700  0.25000000  0.89765100  1
  Li  Li3  1  0.05869300  0.25000000  0.39765100  1
  Zr  Zr0  1  0.00000000  0.00000000  0.00000000  1
  Zr  Zr1  1  0.00000000  0.50000000  0.00000000  1
  Zr  Zr2  1  0.97808000  0.25000000  0.72073400  1
  Zr  Zr3  1  0.52192000  0.25000000  0.22073400  1
  Zr  Zr4  1  0.50000000  0.00000000  0.50000000  1
  Zr  Zr5  1  0.50000000  0.50000000  0.50000000  1
  Zr  Zr6  1  0.47808000  0.75000000  0.77926600  1
  Zr  Zr7  1  0.02192000  0.75000000  0.27926600  1
  O  O0  1  0.78483500  0.75000000  0.43590600  1
  O  O1  1  0.73003500  0.98732000  0.67081200  1
  O  O2  1  0.73003500  0.51268000  0.67081200  1
  O  O3  1  0.70333500  0.25000000  0.39504900  1
  O  O4  1  0.79666500  0.25000000  0.89504900  1
  O  O5  1  0.76996500  0.98732000  0.17081200  1
  O  O6  1  0.76996500  0.51268000  0.17081200  1
  O  O7  1  0.71516500  0.75000000  0.93590600  1
  O  O8  1  0.28483500  0.25000000  0.06409400  1
  O  O9  1  0.23003500  0.01268000  0.82918800  1
  O  O10  1  0.23003500  0.48732000  0.82918800  1
  O  O11  1  0.20333500  0.75000000  0.10495100  1
  O  O12  1  0.29666500  0.75000000  0.60495100  1
  O  O13  1  0.26996500  0.01268000  0.32918800  1
  O  O14  1  0.26996500  0.48732000  0.32918800  1
  O  O15  1  0.21516500  0.25000000  0.56409400  1
loop_
_geom_bond_atom_site_label_1
_geom_bond_atom_site_label_2
_geom_bond_distance
_geom_bond_site_symmetry_2
Li0 O12 1.836119 1_655
Li0 O2 1.960405 1_555
Li0 O1 1.960405 1_555
Li0 O0 1.981122 1_555
Li1 O11 1.836119 1_555
Li1 O6 1.960405 1_555
Li1 O5 1.960405 1_555
Li1 O7 1.981122 1_554
Li2 O4 1.836119 1_555
Li2 O9 1.960405 1_555
Li2 O10 1.960405 1_555
Li2 O8 1.981122 1_556
Li3 O3 1.836119 1_455
Li3 O13 1.960405 1_555
Li3 O14 1.960405 1_555
Li3 O15 1.981122 1_555
O0 Zr7 2.097056 1_655
O0 Zr4 2.231392 1_565
O0 Zr5 2.231392 1_555
O1 Zr2 2.123024 1_565
O1 Zr4 2.205386 1_565
O1 Zr6 2.276326 1_555
O2 Zr2 2.123024 1_555
O2 Zr5 2.205386 1_555
O2 Zr6 2.276326 1_555
O3 Zr3 2.113422 1_555
O3 Zr5 2.175491 1_555
O3 Zr4 2.175491 1_555
O4 Zr2 2.113422 1_555
O4 Zr0 2.175491 1_656
O4 Zr1 2.175491 1_656
O5 Zr3 2.123024 1_565
O5 Zr0 2.205386 1_665
O5 Zr7 2.276326 1_655
O6 Zr3 2.123024 1_555
O6 Zr1 2.205386 1_655
O6 Zr7 2.276326 1_655
O7 Zr6 2.097056 1_555
O7 Zr0 2.231392 1_666
O7 Zr1 2.231392 1_656
O8 Zr3 2.097056 1_555
O8 Zr0 2.231392 1_555
O8 Zr1 2.231392 1_555
O9 Zr6 2.123024 1_545
O9 Zr0 2.205386 1_556
O9 Zr2 2.276326 1_455
O10 Zr6 2.123024 1_555
O10 Zr1 2.205386 1_556
O10 Zr2 2.276326 1_455
O11 Zr7 2.113422 1_555
O11 Zr0 2.175491 1_565
O11 Zr1 2.175491 1_555
O12 Zr6 2.113422 1_555
O12 Zr5 2.175491 1_555
O12 Zr4 2.175491 1_565
O13 Zr7 2.123024 1_545
O13 Zr4 2.205386 1_555
O13 Zr3 2.276326 1_555
O14 Zr7 2.123024 1_555
O14 Zr5 2.205386 1_555
O14 Zr3 2.276326 1_555
O15 Zr2 2.097056 1_455
O15 Zr5 2.231392 1_555
O15 Zr4 2.231392 1_555
