# generated using pymatgen
data_Cs2TlCl5O
_symmetry_space_group_name_H-M   'P 1'
_cell_length_a   7.60648100
_cell_length_b   11.53687000
_cell_length_c   14.66119200
_cell_angle_alpha   90.00000000
_cell_angle_beta   90.00000000
_cell_angle_gamma   90.00000000
_symmetry_Int_Tables_number   1
_chemical_formula_structural   Cs2TlCl5O
_chemical_formula_sum   'Cs8 Tl4 Cl20 O4'
_cell_volume   1286.59264672
_cell_formula_units_Z   4
loop_
 _symmetry_equiv_pos_site_id
 _symmetry_equiv_pos_as_xyz
  1  'x, y, z'
loop_
 _atom_site_type_symbol
 _atom_site_label
 _atom_site_symmetry_multiplicity
 _atom_site_fract_x
 _atom_site_fract_y
 _atom_site_fract_z
 _atom_site_occupancy
  Cs  Cs0  1  0.71238000  0.49044900  0.36968800  1
  Cs  Cs1  1  0.78762000  0.00955100  0.86968800  1
  Cs  Cs2  1  0.28762000  0.99044900  0.63031200  1
  Cs  Cs3  1  0.21238000  0.50955100  0.13031200  1
  Cs  Cs4  1  0.28762000  0.50955100  0.63031200  1
  Cs  Cs5  1  0.21238000  0.99044900  0.13031200  1
  Cs  Cs6  1  0.71238000  0.00955100  0.36968800  1
  Cs  Cs7  1  0.78762000  0.49044900  0.86968800  1
  Tl  Tl0  1  0.74440400  0.75000000  0.11377700  1
  Tl  Tl1  1  0.75559600  0.75000000  0.61377700  1
  Tl  Tl2  1  0.25559600  0.25000000  0.88622300  1
  Tl  Tl3  1  0.24440400  0.25000000  0.38622300  1
  Cl  Cl0  1  0.96814200  0.75000000  0.98458100  1
  Cl  Cl1  1  0.53185800  0.75000000  0.48458100  1
  Cl  Cl2  1  0.03185800  0.25000000  0.01541900  1
  Cl  Cl3  1  0.46814200  0.25000000  0.51541900  1
  Cl  Cl4  1  0.90920700  0.75000000  0.26520000  1
  Cl  Cl5  1  0.59079300  0.75000000  0.76520000  1
  Cl  Cl6  1  0.09079300  0.25000000  0.73480000  1
  Cl  Cl7  1  0.40920700  0.25000000  0.23480000  1
  Cl  Cl8  1  0.39937200  0.75000000  0.23920200  1
  Cl  Cl9  1  0.10062800  0.75000000  0.73920200  1
  Cl  Cl10  1  0.60062800  0.25000000  0.76079800  1
  Cl  Cl11  1  0.89937200  0.25000000  0.26079800  1
  Cl  Cl12  1  0.72258800  0.52400000  0.11107500  1
  Cl  Cl13  1  0.77741200  0.97600000  0.61107500  1
  Cl  Cl14  1  0.27741200  0.02400000  0.88892500  1
  Cl  Cl15  1  0.22258800  0.47600000  0.38892500  1
  Cl  Cl16  1  0.27741200  0.47600000  0.88892500  1
  Cl  Cl17  1  0.22258800  0.02400000  0.38892500  1
  Cl  Cl18  1  0.72258800  0.97600000  0.11107500  1
  Cl  Cl19  1  0.77741200  0.52400000  0.61107500  1
  O  O0  1  0.44879300  0.75000000  0.12625000  1
  O  O1  1  0.05120700  0.75000000  0.62625000  1
  O  O2  1  0.55120700  0.25000000  0.87375000  1
  O  O3  1  0.94879300  0.25000000  0.37375000  1
loop_
_geom_bond_atom_site_label_1
_geom_bond_atom_site_label_2
_geom_bond_distance
_geom_bond_site_symmetry_2
Cs0 O3 3.306442 1_555
Cs1 O2 3.306442 1_555
Cs2 O1 3.306442 1_555
Cs3 O0 3.306442 1_555
Cs4 O1 3.306442 1_555
Cs5 O0 3.306442 1_555
Cs6 O3 3.306442 1_555
Cs7 O2 3.306442 1_555
Cl0 Tl0 2.546408 1_556
Cl0 Cs1 3.699920 1_565
Cl0 Cs7 3.699920 1_555
Cl0 Cs5 3.963792 1_656
Cl0 Cs3 3.963792 1_656
Cl1 Tl1 2.546408 1_555
Cl1 Cs6 3.699920 1_565
Cl1 Cs0 3.699920 1_555
Cl1 Cs2 3.963792 1_555
Cl1 Cs4 3.963792 1_555
Cl2 Tl2 2.546408 1_554
Cl2 Cs3 3.699920 1_555
Cl2 Cs5 3.699920 1_545
Cl2 Cs7 3.963792 1_454
Cl2 Cs1 3.963792 1_454
Cl3 Tl3 2.546408 1_555
Cl3 Cs4 3.699920 1_555
Cl3 Cs2 3.699920 1_545
Cl3 Cs0 3.963792 1_555
Cl3 Cs6 3.963792 1_555
Cl4 Tl0 2.549515 1_555
Cl4 Cs6 3.681675 1_565
Cl4 Cs0 3.681675 1_555
Cl4 Cs5 4.113905 1_655
Cl4 Cs3 4.113905 1_655
Cl5 Tl1 2.549515 1_555
Cl5 Cs1 3.681675 1_565
Cl5 Cs7 3.681675 1_555
Cl5 Cs2 4.113905 1_555
Cl5 Cs4 4.113905 1_555
Cl6 Tl2 2.549515 1_555
Cl6 Cs4 3.681675 1_555
Cl6 Cs2 3.681675 1_545
Cl6 Cs7 4.113905 1_455
Cl6 Cs1 4.113905 1_455
Cl7 Tl3 2.549515 1_555
Cl7 Cs3 3.681675 1_555
Cl7 Cs5 3.681675 1_545
Cl7 Cs0 4.113905 1_555
Cl7 Cs6 4.113905 1_555
Cl8 O0 1.698143 1_555
Cl8 Cs5 3.502427 1_555
Cl8 Cs3 3.502427 1_555
Cl9 O1 1.698143 1_555
Cl9 Cs2 3.502427 1_555
Cl9 Cs4 3.502427 1_555
Cl10 O2 1.698143 1_555
Cl10 Cs7 3.502427 1_555
Cl10 Cs1 3.502427 1_555
Cl11 O3 1.698143 1_555
Cl11 Cs0 3.502427 1_555
Cl11 Cs6 3.502427 1_555
Cl12 Tl0 2.612908 1_555
Cl12 Cs7 3.594327 1_554
Cl12 Cs3 3.739971 1_655
Cl12 Cs0 3.812072 1_555
Cl12 Cs3 3.894691 1_555
Cl13 Tl1 2.612908 1_555
Cl13 Cs6 3.594327 1_565
Cl13 Cs2 3.739971 1_555
Cl13 Cs1 3.812072 1_565
Cl13 Cs2 3.894691 1_655
Cl14 Tl2 2.612908 1_555
Cl14 Cs5 3.594327 1_546
Cl14 Cs1 3.739971 1_455
Cl14 Cs2 3.812072 1_545
Cl14 Cs1 3.894691 1_555
Cl15 Tl3 2.612908 1_555
Cl15 Cs4 3.594327 1_555
Cl15 Cs0 3.739971 1_555
Cl15 Cs3 3.812072 1_555
Cl15 Cs0 3.894691 1_455
Cl16 Tl2 2.612908 1_555
Cl16 Cs3 3.594327 1_556
Cl16 Cs7 3.739971 1_455
Cl16 Cs4 3.812072 1_555
Cl16 Cs7 3.894691 1_555
Cl17 Tl3 2.612908 1_555
Cl17 Cs2 3.594327 1_545
Cl17 Cs6 3.739971 1_555
Cl17 Cs5 3.812072 1_545
Cl17 Cs6 3.894691 1_455
Cl18 Tl0 2.612908 1_555
Cl18 Cs1 3.594327 1_564
Cl18 Cs5 3.739971 1_655
Cl18 Cs6 3.812072 1_565
Cl18 Cs5 3.894691 1_555
Cl19 Tl1 2.612908 1_555
Cl19 Cs0 3.594327 1_555
Cl19 Cs4 3.739971 1_555
Cl19 Cs7 3.812072 1_555
Cl19 Cs4 3.894691 1_655
O0 Tl0 2.255983 1_555
O1 Tl1 2.255983 1_455
O2 Tl2 2.255983 1_555
O3 Tl3 2.255983 1_655
