# generated using pymatgen
data_LiMnH4(SO5)2
_symmetry_space_group_name_H-M   'P 1'
_cell_length_a   5.76610800
_cell_length_b   7.07611632
_cell_length_c   10.51597542
_cell_angle_alpha   98.96307792
_cell_angle_beta   101.18290645
_cell_angle_gamma   110.34728289
_symmetry_Int_Tables_number   1
_chemical_formula_structural   LiMnH4(SO5)2
_chemical_formula_sum   'Li2 Mn2 H8 S4 O20'
_cell_volume   382.85837017
_cell_formula_units_Z   2
loop_
 _symmetry_equiv_pos_site_id
 _symmetry_equiv_pos_as_xyz
  1  'x, y, z'
loop_
 _atom_site_type_symbol
 _atom_site_label
 _atom_site_symmetry_multiplicity
 _atom_site_fract_x
 _atom_site_fract_y
 _atom_site_fract_z
 _atom_site_occupancy
  Li  Li0  1  0.77217700  0.70022700  0.06385500  1
  Li  Li1  1  0.82912200  0.73997600  0.60830500  1
  Mn  Mn0  1  0.49998700  0.02491100  0.75188700  1
  Mn  Mn1  1  0.50250200  0.98175000  0.25010200  1
  H  H0  1  0.63155500  0.40825200  0.79008500  1
  H  H1  1  0.32657500  0.30319800  0.70643500  1
  H  H2  1  0.38558800  0.64956900  0.62867700  1
  H  H3  1  0.46173800  0.68234500  0.78996700  1
  H  H4  1  0.55676300  0.32058500  0.20688300  1
  H  H5  1  0.58635300  0.34201000  0.36740200  1
  H  H6  1  0.66475800  0.69257800  0.29683800  1
  H  H7  1  0.37585500  0.58145700  0.19366500  1
  S  S0  1  0.84190700  0.24242600  0.08138900  1
  S  S1  1  0.15845900  0.77403500  0.43237800  1
  S  S2  1  0.84401000  0.23703100  0.57193600  1
  S  S3  1  0.16852500  0.76487800  0.91904200  1
  O  O0  1  0.76460100  0.11070900  0.94434100  1
  O  O1  1  0.46459200  0.29176300  0.77814100  1
  O  O2  1  0.11570100  0.36893200  0.12611200  1
  O  O3  1  0.52021800  0.73864900  0.71286900  1
  O  O4  1  0.30990400  0.64695300  0.45112500  1
  O  O5  1  0.19535100  0.86654900  0.31247700  1
  O  O6  1  0.78284700  0.08626100  0.17130000  1
  O  O7  1  0.12387200  0.35170400  0.61086600  1
  O  O8  1  0.22877400  0.94183400  0.55560000  1
  O  O9  1  0.35904000  0.66814600  0.92020900  1
  O  O10  1  0.68761200  0.37246900  0.09391200  1
  O  O11  1  0.75615000  0.06957500  0.44828100  1
  O  O12  1  0.87636300  0.65466200  0.40336100  1
  O  O13  1  0.19019200  0.89420100  0.81280000  1
  O  O14  1  0.79268400  0.12509100  0.68500300  1
  O  O15  1  0.70686400  0.37746700  0.56105900  1
  O  O16  1  0.48167500  0.25399700  0.27744900  1
  O  O17  1  0.89908900  0.61550100  0.87910300  1
  O  O18  1  0.54376900  0.70597900  0.21762300  1
  O  O19  1  0.21226900  0.89714100  0.05251500  1
loop_
_geom_bond_atom_site_label_1
_geom_bond_atom_site_label_2
_geom_bond_distance
_geom_bond_site_symmetry_2
Li0 O17 2.272276 1_554
Li0 O18 2.278990 1_555
Li0 O10 2.284374 1_555
Li0 O19 2.470928 1_655
Li0 O9 2.475784 1_554
Li1 O12 2.240565 1_555
Li1 O3 2.265624 1_555
Li1 O15 2.352301 1_555
Li1 O13 2.470246 1_655
Li1 O8 2.472027 1_655
Mn0 O14 1.905106 1_555
Mn0 O1 1.952147 1_555
Mn0 O13 1.983980 1_545
Mn0 O3 2.051591 1_545
Mn0 O0 2.137229 1_555
Mn0 O8 2.186868 1_545
Mn1 O6 1.930259 1_565
Mn1 O16 1.951920 1_565
Mn1 O5 1.960779 1_555
Mn1 O18 2.031734 1_555
Mn1 O11 2.156528 1_565
Mn1 O19 2.245722 1_555
H0 O1 0.995514 1_555
H0 O17 1.686874 1_555
H1 O1 1.019563 1_555
H1 O7 1.557173 1_555
H2 O3 1.001522 1_555
H3 O3 1.021293 1_555
H3 O9 1.597722 1_555
H4 O16 1.025595 1_555
H4 O10 1.551237 1_555
H5 O16 0.990225 1_555
H6 O18 1.017260 1_555
H6 O12 1.614527 1_555
H7 O18 1.010066 1_555
H7 O2 1.643603 1_555
O0 S0 1.479116 1_556
O2 S0 1.453591 1_455
O4 S1 1.464454 1_555
O5 S1 1.525780 1_555
O6 S0 1.555577 1_555
O7 S2 1.469607 1_455
O8 S1 1.495103 1_555
O9 S3 1.481801 1_555
O10 S0 1.494208 1_555
O11 S2 1.482749 1_555
O12 S1 1.491345 1_655
O13 S3 1.547402 1_555
O14 S2 1.547802 1_555
O15 S2 1.474040 1_555
O17 S3 1.474418 1_655
O19 S3 1.482842 1_554
