# generated using pymatgen
data_LiCo3Sb(PO4)6
_symmetry_space_group_name_H-M   'P 1'
_cell_length_a   8.51320010
_cell_length_b   8.51415751
_cell_length_c   8.52553161
_cell_angle_alpha   59.75011285
_cell_angle_beta   59.77158350
_cell_angle_gamma   59.82775945
_symmetry_Int_Tables_number   1
_chemical_formula_structural   LiCo3Sb(PO4)6
_chemical_formula_sum   'Li1 Co3 Sb1 P6 O24'
_cell_volume   434.80766027
_cell_formula_units_Z   1
loop_
 _symmetry_equiv_pos_site_id
 _symmetry_equiv_pos_as_xyz
  1  'x, y, z'
loop_
 _atom_site_type_symbol
 _atom_site_label
 _atom_site_symmetry_multiplicity
 _atom_site_fract_x
 _atom_site_fract_y
 _atom_site_fract_z
 _atom_site_occupancy
  Li  Li0  1  0.48938700  0.50033000  0.49564400  1
  Co  Co0  1  0.13664800  0.14053500  0.13854200  1
  Co  Co1  1  0.35795300  0.35582900  0.35387200  1
  Co  Co2  1  0.63709100  0.64112700  0.63813300  1
  Sb  Sb0  1  0.86112400  0.86033400  0.85897100  1
  P  P0  1  0.04332300  0.74743300  0.45276300  1
  P  P1  1  0.45135900  0.04398900  0.74746000  1
  P  P2  1  0.25379000  0.52523800  0.96282200  1
  P  P3  1  0.74689700  0.45354900  0.04276700  1
  P  P4  1  0.52495100  0.96690500  0.25266300  1
  P  P5  1  0.96489400  0.25396200  0.52227600  1
  O  O0  1  0.36365800  0.99908600  0.19546100  1
  O  O1  1  0.13114800  0.29947300  0.49517400  1
  O  O2  1  0.30548800  0.49929600  0.12543400  1
  O  O3  1  0.06586600  0.91859300  0.26027900  1
  O  O4  1  0.02102800  0.79129700  0.62127500  1
  O  O5  1  0.50759300  0.12795800  0.29865100  1
  O  O6  1  0.23597000  0.57683900  0.43563600  1
  O  O7  1  0.26093600  0.06657900  0.91587800  1
  O  O8  1  0.19193500  0.36875200  0.99067200  1
  O  O9  1  0.43658000  0.23862100  0.57498100  1
  O  O10  1  0.08681300  0.72376300  0.94395100  1
  O  O11  1  0.57533800  0.43966600  0.23658800  1
  O  O12  1  0.62166400  0.01641000  0.79198600  1
  O  O13  1  0.41918400  0.54276900  0.76996100  1
  O  O14  1  0.91542900  0.26019500  0.06439000  1
  O  O15  1  0.79524400  0.62007300  0.01800100  1
  O  O16  1  0.54172100  0.77384300  0.41765400  1
  O  O17  1  0.72285600  0.94485700  0.08371200  1
  O  O18  1  0.77224200  0.42169400  0.54382700  1
  O  O19  1  0.48660900  0.87467400  0.70338000  1
  O  O20  1  0.98474400  0.20118200  0.36435700  1
  O  O21  1  0.94538700  0.08581700  0.72005100  1
  O  O22  1  0.70300800  0.49109900  0.87412700  1
  O  O23  1  0.87184200  0.70799900  0.48922200  1
loop_
_geom_bond_atom_site_label_1
_geom_bond_atom_site_label_2
_geom_bond_distance
_geom_bond_site_symmetry_2
Li0 O6 2.168710 1_555
Li0 O9 2.192453 1_555
Li0 O11 2.195972 1_555
Li0 O13 2.276892 1_555
Li0 O16 2.290887 1_555
Li0 O18 2.348142 1_555
Co0 O0 1.853819 1_545
Co0 O8 1.854766 1_554
Co0 O20 1.862495 1_455
Co0 O3 1.884123 1_545
Co0 O14 1.898830 1_455
Co0 O7 1.905746 1_554
Co1 O2 1.847996 1_555
Co1 O1 1.848355 1_555
Co1 O5 1.854882 1_555
Co1 O11 1.918258 1_555
Co1 O9 1.923825 1_555
Co1 O6 1.932262 1_555
Co2 O19 1.934128 1_555
Co2 O23 1.946966 1_555
Co2 O22 1.954862 1_555
Co2 O18 1.970270 1_555
Co2 O13 1.979844 1_555
Co2 O16 1.985883 1_555
O0 P4 1.536166 1_555
O1 P5 1.529233 1_455
O2 P2 1.540322 1_554
O3 P0 1.551778 1_555
O4 P0 1.560209 1_555
O4 Sb0 1.980760 1_455
O5 P4 1.528230 1_545
O6 P0 1.548798 1_555
O7 P1 1.532241 1_555
O8 P2 1.539295 1_555
O9 P1 1.563892 1_555
O10 P2 1.563535 1_555
O10 Sb0 1.968652 1_455
O11 P3 1.557014 1_555
O12 P1 1.556735 1_555
O12 Sb0 1.983007 1_545
O13 P2 1.530110 1_555
O14 P3 1.545613 1_555
O15 P3 1.556163 1_555
O15 Sb0 1.982559 1_554
O16 P4 1.528937 1_555
O17 P4 1.568292 1_555
O17 Sb0 1.959971 1_554
O18 P5 1.539371 1_555
O19 P1 1.518833 1_565
O20 P5 1.532090 1_555
O21 P5 1.563676 1_555
O21 Sb0 1.959822 1_545
O22 P3 1.505532 1_556
O23 P0 1.507035 1_655
