# generated using pymatgen
data_Mn3OF6
_symmetry_space_group_name_H-M   'P 1'
_cell_length_a   4.83223684
_cell_length_b   10.23445471
_cell_length_c   11.63230511
_cell_angle_alpha   65.57027848
_cell_angle_beta   79.68233131
_cell_angle_gamma   89.62003598
_symmetry_Int_Tables_number   1
_chemical_formula_structural   Mn3OF6
_chemical_formula_sum   'Mn12 O4 F24'
_cell_volume   513.84188792
_cell_formula_units_Z   4
loop_
 _symmetry_equiv_pos_site_id
 _symmetry_equiv_pos_as_xyz
  1  'x, y, z'
loop_
 _atom_site_type_symbol
 _atom_site_label
 _atom_site_symmetry_multiplicity
 _atom_site_fract_x
 _atom_site_fract_y
 _atom_site_fract_z
 _atom_site_occupancy
  Mn  Mn0  1  0.98316400  0.01222900  0.98137000  1
  Mn  Mn1  1  0.96379100  0.16101200  0.20879700  1
  Mn  Mn2  1  0.83264100  0.81571100  0.35102900  1
  Mn  Mn3  1  0.51285500  0.51020500  0.97342800  1
  Mn  Mn4  1  0.57970300  0.87293000  0.78623000  1
  Mn  Mn5  1  0.67391100  0.68791700  0.64333900  1
  Mn  Mn6  1  0.68096900  0.46766400  0.51847100  1
  Mn  Mn7  1  0.27772900  0.98400500  0.49802300  1
  Mn  Mn8  1  0.37147700  0.66931400  0.19007200  1
  Mn  Mn9  1  0.11391000  0.36887000  0.79798100  1
  Mn  Mn10  1  0.15127600  0.18665800  0.65300900  1
  Mn  Mn11  1  0.31718900  0.32279300  0.33396800  1
  O  O0  1  0.58824100  0.67609000  0.49279600  1
  O  O1  1  0.47554200  0.85299000  0.64164800  1
  O  O2  1  0.34539600  0.34217700  0.65797100  1
  O  O3  1  0.13305900  0.15326400  0.34787700  1
  F  F0  1  0.86671800  0.20099500  0.79004900  1
  F  F1  1  0.89605400  0.51357700  0.65566300  1
  F  F2  1  0.94817700  0.02764300  0.64284300  1
  F  F3  1  0.74344400  0.90265000  0.91191600  1
  F  F4  1  0.84526100  0.40484000  0.91930800  1
  F  F5  1  0.98899700  0.33109000  0.49261900  1
  F  F6  1  0.82318100  0.70525500  0.78029000  1
  F  F7  1  0.67344400  0.29114000  0.23612200  1
  F  F8  1  0.77663000  0.11860800  0.09468000  1
  F  F9  1  0.62289100  0.97665100  0.36123900  1
  F  F10  1  0.64590900  0.60369500  0.09153400  1
  F  F11  1  0.51794900  0.47343700  0.36096800  1
  F  F12  1  0.62145500  0.79393300  0.21287200  1
  F  F13  1  0.25192200  0.19742200  0.92335800  1
  F  F14  1  0.38593000  0.52159200  0.79218700  1
  F  F15  1  0.32644000  0.02694500  0.78647300  1
  F  F16  1  0.32485100  0.70237800  0.91337000  1
  F  F17  1  0.43905900  0.17216900  0.50923200  1
  F  F18  1  0.23845100  0.33156600  0.09151600  1
  F  F19  1  0.14851400  0.50539700  0.21388800  1
  F  F20  1  0.07572200  0.66461800  0.34079100  1
  F  F21  1  0.02806900  0.82549700  0.50033800  1
  F  F22  1  0.18112500  0.83437600  0.07723900  1
  F  F23  1  0.11141200  0.96785000  0.23438300  1
loop_
_geom_bond_atom_site_label_1
_geom_bond_atom_site_label_2
_geom_bond_distance
_geom_bond_site_symmetry_2
Mn1 O3 1.913036 1_655
Mn2 O0 1.879283 1_555
Mn4 O1 1.926655 1_555
Mn5 O0 1.920488 1_555
Mn5 O1 1.931633 1_555
Mn6 O2 2.067197 1_555
Mn6 O0 2.085307 1_555
Mn7 O1 2.050591 1_555
Mn7 O3 2.111554 1_565
Mn9 O2 1.920868 1_555
Mn10 O2 1.879304 1_555
Mn11 O3 1.888098 1_555
F0 Mn10 1.964443 1_655
F0 Mn9 2.141271 1_655
F0 Mn0 2.424793 1_555
F1 Mn5 2.043189 1_555
F1 Mn9 2.148918 1_655
F1 Mn6 2.251375 1_555
F2 Mn10 1.961543 1_655
F2 Mn7 2.285869 1_645
F2 Mn4 2.290974 1_545
F3 Mn4 1.908264 1_555
F3 Mn0 2.086674 1_565
F4 Mn9 1.892011 1_655
F4 Mn3 2.077397 1_555
F5 Mn6 2.102246 1_555
F5 Mn10 2.123284 1_655
F5 Mn11 2.237749 1_655
F6 Mn5 1.933063 1_555
F6 Mn4 2.091907 1_555
F6 Mn3 2.530672 1_555
F7 Mn11 1.989897 1_555
F7 Mn1 2.002196 1_555
F8 Mn1 1.918376 1_555
F8 Mn0 2.149420 1_554
F9 Mn2 1.962399 1_555
F9 Mn7 2.113285 1_555
F9 Mn1 2.376033 1_565
F10 Mn8 1.898382 1_555
F10 Mn3 2.151329 1_554
F11 Mn11 1.986530 1_555
F11 Mn6 2.099417 1_555
F11 Mn8 2.379163 1_555
F12 Mn8 1.889746 1_555
F12 Mn2 2.135556 1_555
F13 Mn9 1.966419 1_555
F13 Mn0 2.096457 1_455
F14 Mn9 2.020839 1_555
F14 Mn5 2.135998 1_555
F14 Mn3 2.256876 1_555
F15 Mn4 1.989778 1_545
F15 Mn10 2.037609 1_555
F15 Mn0 2.507548 1_455
F16 Mn4 1.997861 1_555
F16 Mn3 2.061253 1_555
F17 Mn10 2.030333 1_555
F17 Mn7 2.144132 1_545
F17 Mn11 2.167498 1_555
F18 Mn1 2.020385 1_455
F18 Mn3 2.071255 1_554
F19 Mn8 1.893287 1_555
F19 Mn11 2.082410 1_555
F20 Mn2 1.965519 1_455
F20 Mn8 2.037700 1_555
F20 Mn6 2.676993 1_455
F21 Mn7 2.016438 1_555
F21 Mn2 2.156617 1_455
F21 Mn5 2.180204 1_455
F22 Mn8 2.000102 1_555
F22 Mn0 2.037631 1_464
F23 Mn2 1.925017 1_455
F23 Mn1 2.018977 1_465
