# generated using pymatgen
data_Li2VF5
_symmetry_space_group_name_H-M   'P 1'
_cell_length_a   5.51035900
_cell_length_b   7.42054500
_cell_length_c   19.25321100
_cell_angle_alpha   90.00000000
_cell_angle_beta   90.00000000
_cell_angle_gamma   90.00000000
_symmetry_Int_Tables_number   1
_chemical_formula_structural   Li2VF5
_chemical_formula_sum   'Li16 V8 F40'
_cell_volume   787.26123568
_cell_formula_units_Z   8
loop_
 _symmetry_equiv_pos_site_id
 _symmetry_equiv_pos_as_xyz
  1  'x, y, z'
loop_
 _atom_site_type_symbol
 _atom_site_label
 _atom_site_symmetry_multiplicity
 _atom_site_fract_x
 _atom_site_fract_y
 _atom_site_fract_z
 _atom_site_occupancy
  Li  Li0  1  0.50000000  0.10104100  0.65632700  1
  Li  Li1  1  0.00000000  0.23071800  0.08482400  1
  Li  Li2  1  0.00000000  0.27251000  0.73479600  1
  Li  Li3  1  0.50000000  0.18265400  0.51848200  1
  Li  Li4  1  0.50000000  0.31734600  0.01848200  1
  Li  Li5  1  0.00000000  0.22749000  0.23479600  1
  Li  Li6  1  0.00000000  0.26928200  0.58482400  1
  Li  Li7  1  0.50000000  0.39895900  0.15632700  1
  Li  Li8  1  0.50000000  0.60104100  0.84367300  1
  Li  Li9  1  0.00000000  0.73071800  0.41517600  1
  Li  Li10  1  0.00000000  0.77251000  0.76520400  1
  Li  Li11  1  0.50000000  0.68265400  0.98151800  1
  Li  Li12  1  0.50000000  0.81734600  0.48151800  1
  Li  Li13  1  0.00000000  0.72749000  0.26520400  1
  Li  Li14  1  0.00000000  0.76928200  0.91517600  1
  Li  Li15  1  0.50000000  0.89895900  0.34367300  1
  V  V0  1  0.50000000  0.99922300  0.84614700  1
  V  V1  1  0.00000000  0.14124000  0.39700200  1
  V  V2  1  0.00000000  0.35876000  0.89700200  1
  V  V3  1  0.50000000  0.50077700  0.34614700  1
  V  V4  1  0.50000000  0.49922300  0.65385300  1
  V  V5  1  0.00000000  0.64124000  0.10299800  1
  V  V6  1  0.00000000  0.85876000  0.60299800  1
  V  V7  1  0.50000000  0.00077700  0.15385300  1
  F  F0  1  0.00000000  0.03282000  0.30372700  1
  F  F1  1  0.26101000  0.03256800  0.57477800  1
  F  F2  1  0.73899000  0.03256800  0.57477800  1
  F  F3  1  0.50000000  0.09066800  0.05949600  1
  F  F4  1  0.75667300  0.18939000  0.16553300  1
  F  F5  1  0.24332700  0.18939000  0.16553300  1
  F  F6  1  0.50000000  0.03870800  0.74833500  1
  F  F7  1  0.25078900  0.18855000  0.86157500  1
  F  F8  1  0.74921100  0.18855000  0.86157500  1
  F  F9  1  0.00000000  0.23502400  0.98497100  1
  F  F10  1  0.00000000  0.26497600  0.48497100  1
  F  F11  1  0.25078900  0.31145000  0.36157500  1
  F  F12  1  0.74921100  0.31145000  0.36157500  1
  F  F13  1  0.50000000  0.46129200  0.24833500  1
  F  F14  1  0.24332700  0.31061000  0.66553300  1
  F  F15  1  0.75667300  0.31061000  0.66553300  1
  F  F16  1  0.50000000  0.40933200  0.55949600  1
  F  F17  1  0.26101000  0.46743200  0.07477800  1
  F  F18  1  0.73899000  0.46743200  0.07477800  1
  F  F19  1  0.00000000  0.46718000  0.80372700  1
  F  F20  1  0.00000000  0.53282000  0.19627300  1
  F  F21  1  0.26101000  0.53256800  0.92522200  1
  F  F22  1  0.73899000  0.53256800  0.92522200  1
  F  F23  1  0.50000000  0.59066800  0.44050400  1
  F  F24  1  0.24332700  0.68939000  0.33446700  1
  F  F25  1  0.75667300  0.68939000  0.33446700  1
  F  F26  1  0.50000000  0.53870800  0.75166500  1
  F  F27  1  0.25078900  0.68855000  0.63842500  1
  F  F28  1  0.74921100  0.68855000  0.63842500  1
  F  F29  1  0.00000000  0.73502400  0.51502900  1
  F  F30  1  0.00000000  0.76497600  0.01502900  1
  F  F31  1  0.25078900  0.81145000  0.13842500  1
  F  F32  1  0.74921100  0.81145000  0.13842500  1
  F  F33  1  0.50000000  0.96129200  0.25166500  1
  F  F34  1  0.24332700  0.81061000  0.83446700  1
  F  F35  1  0.75667300  0.81061000  0.83446700  1
  F  F36  1  0.50000000  0.90933200  0.94050400  1
  F  F37  1  0.26101000  0.96743200  0.42522200  1
  F  F38  1  0.73899000  0.96743200  0.42522200  1
  F  F39  1  0.00000000  0.96718000  0.69627300  1
loop_
_geom_bond_atom_site_label_1
_geom_bond_atom_site_label_2
_geom_bond_distance
_geom_bond_site_symmetry_2
F0 Li5 1.961646 1_555
F0 V1 1.967824 1_555
F0 Li13 2.384024 1_545
F1 V6 2.006800 1_545
F1 Li3 2.037019 1_555
F1 Li0 2.111304 1_555
F1 Li6 2.278477 1_555
F2 V6 2.006800 1_645
F2 Li3 2.037019 1_555
F2 Li0 2.111304 1_555
F2 Li6 2.278477 1_655
F3 Li4 1.858204 1_555
F3 V7 1.935265 1_555
F4 Li5 1.912078 1_655
F4 V7 2.002473 1_555
F4 Li1 2.075205 1_655
F4 Li7 2.109554 1_555
F5 Li5 1.912078 1_555
F5 V7 2.002473 1_555
F5 Li1 2.075205 1_555
F5 Li7 2.109554 1_555
F6 Li0 1.830842 1_555
F6 V0 1.905852 1_545
F7 V0 1.986906 1_545
F7 V2 1.992558 1_555
F8 V0 1.986906 1_545
F8 V2 1.992558 1_655
F9 Li1 1.922756 1_556
F9 V2 1.926562 1_555
F10 Li6 1.922756 1_555
F10 V1 1.926562 1_555
F11 V3 1.986906 1_555
F11 V1 1.992558 1_555
F12 V3 1.986906 1_555
F12 V1 1.992558 1_655
F13 Li7 1.830842 1_555
F13 V3 1.905852 1_555
F14 Li2 1.912078 1_555
F14 V4 2.002473 1_555
F14 Li6 2.075205 1_555
F14 Li0 2.109554 1_555
F15 Li2 1.912078 1_655
F15 V4 2.002473 1_555
F15 Li6 2.075205 1_655
F15 Li0 2.109554 1_555
F16 Li3 1.858204 1_555
F16 V4 1.935265 1_555
F17 V5 2.006800 1_555
F17 Li4 2.037019 1_555
F17 Li7 2.111304 1_555
F17 Li1 2.278477 1_555
F18 V5 2.006800 1_655
F18 Li4 2.037019 1_555
F18 Li7 2.111304 1_555
F18 Li1 2.278477 1_655
F19 Li2 1.961646 1_555
F19 V2 1.967824 1_555
F19 Li10 2.384024 1_555
F20 Li13 1.961646 1_555
F20 V5 1.967824 1_555
F20 Li5 2.384024 1_555
F21 V2 2.006800 1_555
F21 Li11 2.037019 1_555
F21 Li8 2.111304 1_555
F21 Li14 2.278477 1_555
F22 V2 2.006800 1_655
F22 Li11 2.037019 1_555
F22 Li8 2.111304 1_555
F22 Li14 2.278477 1_655
F23 Li12 1.858204 1_555
F23 V3 1.935265 1_555
F24 Li13 1.912078 1_555
F24 V3 2.002473 1_555
F24 Li9 2.075205 1_555
F24 Li15 2.109554 1_555
F25 Li13 1.912078 1_655
F25 V3 2.002473 1_555
F25 Li9 2.075205 1_655
F25 Li15 2.109554 1_555
F26 Li8 1.830842 1_555
F26 V4 1.905852 1_555
F27 V4 1.986906 1_555
F27 V6 1.992558 1_555
F28 V4 1.986906 1_555
F28 V6 1.992558 1_655
F29 Li9 1.922756 1_555
F29 V6 1.926562 1_555
F30 Li14 1.922756 1_554
F30 V5 1.926562 1_555
F31 V7 1.986906 1_565
F31 V5 1.992558 1_555
F32 V7 1.986906 1_565
F32 V5 1.992558 1_655
F33 Li15 1.830842 1_555
F33 V7 1.905852 1_565
F34 Li10 1.912078 1_555
F34 V0 2.002473 1_555
F34 Li14 2.075205 1_555
F34 Li8 2.109554 1_555
F35 Li10 1.912078 1_655
F35 V0 2.002473 1_555
F35 Li14 2.075205 1_655
F35 Li8 2.109554 1_555
F36 Li11 1.858204 1_555
F36 V0 1.935265 1_555
F37 V1 2.006800 1_565
F37 Li12 2.037019 1_555
F37 Li15 2.111304 1_555
F37 Li9 2.278477 1_555
F38 V1 2.006800 1_665
F38 Li12 2.037019 1_555
F38 Li15 2.111304 1_555
F38 Li9 2.278477 1_655
F39 Li10 1.961646 1_555
F39 V6 1.967824 1_555
F39 Li2 2.384024 1_565
