# generated using pymatgen
data_LiNiSnO4
_symmetry_space_group_name_H-M   'P 1'
_cell_length_a   5.18710700
_cell_length_b   3.04495972
_cell_length_c   5.32765485
_cell_angle_alpha   89.99893535
_cell_angle_beta   72.71592061
_cell_angle_gamma   90.00044898
_symmetry_Int_Tables_number   1
_chemical_formula_structural   LiNiSnO4
_chemical_formula_sum   'Li1 Ni1 Sn1 O4'
_cell_volume   80.34798441
_cell_formula_units_Z   1
loop_
 _symmetry_equiv_pos_site_id
 _symmetry_equiv_pos_as_xyz
  1  'x, y, z'
loop_
 _atom_site_type_symbol
 _atom_site_label
 _atom_site_symmetry_multiplicity
 _atom_site_fract_x
 _atom_site_fract_y
 _atom_site_fract_z
 _atom_site_occupancy
  Li  Li0  1  0.00000000  0.00000000  0.00000000  1
  Ni  Ni0  1  0.50000000  0.50000000  0.00000000  1
  Sn  Sn0  1  0.50000000  0.00000000  0.50000000  1
  O  O0  1  0.69911700  0.00000200  0.79793400  1
  O  O1  1  0.72851500  0.50001300  0.26791900  1
  O  O2  1  0.27148500  0.49998700  0.73208100  1
  O  O3  1  0.30088300  0.99999800  0.20206600  1
loop_
_geom_bond_atom_site_label_1
_geom_bond_atom_site_label_2
_geom_bond_distance
_geom_bond_site_symmetry_2
Li0 O3 2.143162 1_545
Li0 O0 2.143162 1_454
Li0 O1 2.267993 1_445
Li0 O2 2.267993 1_554
Li0 O2 2.268096 1_544
Li0 O1 2.268096 1_455
Ni0 O3 1.970499 1_545
Ni0 O0 1.970499 1_564
Ni0 O0 1.970533 1_554
Ni0 O3 1.970533 1_555
Ni0 O2 2.108980 1_554
Ni0 O1 2.108980 1_555
O0 Sn0 2.135515 1_555
O1 Sn0 2.093048 1_565
O1 Sn0 2.093058 1_555
O2 Sn0 2.093048 1_555
O2 Sn0 2.093058 1_565
O3 Sn0 2.135515 1_565
