# generated using pymatgen
data_Sr5Ir3O11
_symmetry_space_group_name_H-M   'P 1'
_cell_length_a   3.97842919
_cell_length_b   3.97842919
_cell_length_c   16.75586546
_cell_angle_alpha   89.78470658
_cell_angle_beta   89.78470658
_cell_angle_gamma   91.84534579
_symmetry_Int_Tables_number   1
_chemical_formula_structural   Sr5Ir3O11
_chemical_formula_sum   'Sr5 Ir3 O11'
_cell_volume   265.06873494
_cell_formula_units_Z   1
loop_
 _symmetry_equiv_pos_site_id
 _symmetry_equiv_pos_as_xyz
  1  'x, y, z'
loop_
 _atom_site_type_symbol
 _atom_site_label
 _atom_site_symmetry_multiplicity
 _atom_site_fract_x
 _atom_site_fract_y
 _atom_site_fract_z
 _atom_site_occupancy
  Sr  Sr0  1  0.01815800  0.01815800  0.72988000  1
  Sr  Sr1  1  0.99954000  0.99954000  0.49991500  1
  Sr  Sr2  1  0.98608700  0.98608700  0.26995600  1
  Sr  Sr3  1  0.50845900  0.50845900  0.11051400  1
  Sr  Sr4  1  0.51560400  0.51560400  0.88945000  1
  Ir  Ir0  1  0.00359300  0.00359300  0.00002700  1
  Ir  Ir1  1  0.50436800  0.50436800  0.62270600  1
  Ir  Ir2  1  0.49636400  0.49636400  0.37724200  1
  O  O0  1  0.01028100  0.56324700  0.62043400  1
  O  O1  1  0.00405800  0.00405800  0.87587200  1
  O  O2  1  0.99035900  0.43679800  0.37966400  1
  O  O3  1  0.99929600  0.99929600  0.12416200  1
  O  O4  1  0.56324700  0.01028100  0.62043400  1
  O  O5  1  0.50790800  0.04884100  0.00005000  1
  O  O6  1  0.50373000  0.50373000  0.74366500  1
  O  O7  1  0.50029600  0.50029600  0.49996900  1
  O  O8  1  0.49839100  0.49839100  0.25634300  1
  O  O9  1  0.43679800  0.99035900  0.37966400  1
  O  O10  1  0.04884100  0.50790800  0.00005000  1
loop_
_geom_bond_atom_site_label_1
_geom_bond_atom_site_label_2
_geom_bond_distance
_geom_bond_site_symmetry_2
Ir0 O5 1.986010 1_455
Ir0 O10 1.986010 1_545
Ir0 O5 2.008661 1_555
Ir0 O10 2.008661 1_555
Ir0 O3 2.079997 1_445
Ir0 O1 2.080312 1_554
Ir1 O0 1.987563 1_555
Ir1 O4 1.987563 1_555
Ir1 O0 2.019017 1_655
Ir1 O4 2.019017 1_565
Ir1 O6 2.026757 1_555
Ir1 O7 2.056810 1_555
Ir2 O9 1.987669 1_555
Ir2 O2 1.987669 1_555
Ir2 O2 2.019650 1_455
Ir2 O9 2.019650 1_545
Ir2 O8 2.025738 1_555
Ir2 O7 2.056630 1_555
O0 Sr0 2.580939 1_565
O0 Sr1 2.659277 1_455
O0 Sr0 2.835802 1_555
O0 Sr1 3.022892 1_445
O1 Sr0 2.447046 1_555
O1 Sr4 2.711933 1_445
O1 Sr4 2.841767 1_555
O1 Sr4 2.867890 1_545
O1 Sr4 2.867890 1_455
O2 Sr2 2.572507 1_545
O2 Sr1 2.658140 1_545
O2 Sr2 2.850871 1_555
O2 Sr1 3.017074 1_555
O3 Sr2 2.443604 1_555
O3 Sr3 2.727630 1_555
O3 Sr3 2.826258 1_665
O3 Sr3 2.867671 1_565
O3 Sr3 2.867671 1_655
O4 Sr0 2.580939 1_655
O4 Sr1 2.659277 1_545
O4 Sr0 2.835802 1_555
O4 Sr1 3.022892 1_445
O5 Sr3 2.606672 1_555
O5 Sr4 2.617961 1_554
O5 Sr4 2.822962 1_544
O5 Sr3 2.831658 1_545
O6 Sr4 2.443993 1_555
O6 Sr0 2.698800 1_555
O6 Sr0 2.855478 1_665
O6 Sr0 2.868505 1_655
O6 Sr0 2.868505 1_565
O7 Sr1 2.763320 1_555
O7 Sr1 2.771699 1_445
O7 Sr1 2.858113 1_455
O7 Sr1 2.858113 1_545
O8 Sr3 2.443826 1_555
O8 Sr2 2.710253 1_555
O8 Sr2 2.843543 1_445
O8 Sr2 2.867977 1_545
O8 Sr2 2.867977 1_455
O9 Sr2 2.572507 1_455
O9 Sr1 2.658140 1_455
O9 Sr2 2.850871 1_555
O9 Sr1 3.017074 1_555
O10 Sr3 2.606672 1_555
O10 Sr4 2.617961 1_554
O10 Sr4 2.822962 1_454
O10 Sr3 2.831658 1_455
