# generated using pymatgen
data_NaAlO2
_symmetry_space_group_name_H-M   'P 1'
_cell_length_a   2.89984380
_cell_length_b   2.89984380
_cell_length_c   5.61809322
_cell_angle_alpha   75.04378762
_cell_angle_beta   75.04378762
_cell_angle_gamma   60.00000456
_symmetry_Int_Tables_number   1
_chemical_formula_structural   NaAlO2
_chemical_formula_sum   'Na1 Al1 O2'
_cell_volume   39.05474907
_cell_formula_units_Z   1
loop_
 _symmetry_equiv_pos_site_id
 _symmetry_equiv_pos_as_xyz
  1  'x, y, z'
loop_
 _atom_site_type_symbol
 _atom_site_label
 _atom_site_symmetry_multiplicity
 _atom_site_fract_x
 _atom_site_fract_y
 _atom_site_fract_z
 _atom_site_occupancy
  Na  Na0  1  0.00000000  0.00000000  0.00000000  1
  Al  Al0  1  0.50000000  0.50000000  0.50000000  1
  O  O0  1  0.77049200  0.77049200  0.68852400  1
  O  O1  1  0.22950800  0.22950800  0.31147600  1
loop_
_geom_bond_atom_site_label_1
_geom_bond_atom_site_label_2
_geom_bond_distance
_geom_bond_site_symmetry_2
Na0 O1 2.365004 1_555
Na0 O0 2.365004 1_444
Na0 O1 2.365004 1_455
Na0 O1 2.365004 1_545
Na0 O0 2.365004 1_454
Na0 O0 2.365004 1_544
Al0 O0 1.955811 1_555
Al0 O1 1.955811 1_555
Al0 O0 1.955811 1_455
Al0 O0 1.955811 1_545
Al0 O1 1.955811 1_565
Al0 O1 1.955811 1_655
