# generated using pymatgen
data_CrH6SO7
_symmetry_space_group_name_H-M   'P 1'
_cell_length_a   5.78718700
_cell_length_b   7.54080562
_cell_length_c   7.29840144
_cell_angle_alpha   88.09065163
_cell_angle_beta   66.65869114
_cell_angle_gamma   85.16621494
_symmetry_Int_Tables_number   1
_chemical_formula_structural   CrH6SO7
_chemical_formula_sum   'Cr2 H12 S2 O14'
_cell_volume   291.39657580
_cell_formula_units_Z   2
loop_
 _symmetry_equiv_pos_site_id
 _symmetry_equiv_pos_as_xyz
  1  'x, y, z'
loop_
 _atom_site_type_symbol
 _atom_site_label
 _atom_site_symmetry_multiplicity
 _atom_site_fract_x
 _atom_site_fract_y
 _atom_site_fract_z
 _atom_site_occupancy
  Cr  Cr0  1  0.86781400  0.00767700  0.26914000  1
  Cr  Cr1  1  0.13665200  0.50699300  0.73080800  1
  H  H0  1  0.96806800  0.64857000  0.20822700  1
  H  H1  1  0.17629900  0.14796800  0.79165900  1
  H  H2  1  0.03238900  0.70768000  0.39113700  1
  H  H3  1  0.42343300  0.20708300  0.60885000  1
  H  H4  1  0.49588600  0.78193800  0.38084000  1
  H  H5  1  0.87604000  0.28149300  0.61927700  1
  H  H6  1  0.39166300  0.97209100  0.32665900  1
  H  H7  1  0.71778900  0.47172400  0.67331100  1
  H  H8  1  0.29702900  0.20733700  0.16155400  1
  H  H9  1  0.45788000  0.70707000  0.83828400  1
  H  H10  1  0.36741200  0.01781700  0.05342600  1
  H  H11  1  0.42033200  0.51771200  0.94666300  1
  S  S0  1  0.61803100  0.42665500  0.23073700  1
  S  S1  1  0.84880100  0.92622900  0.76929000  1
  O  O0  1  0.46560300  0.38773600  0.11496900  1
  O  O1  1  0.58067700  0.88735200  0.88513700  1
  O  O2  1  0.66923600  0.25675300  0.32714400  1
  O  O3  1  0.99638100  0.75634600  0.67281200  1
  O  O4  1  0.85952100  0.49859400  0.09575600  1
  O  O5  1  0.95543700  0.99819300  0.90427500  1
  O  O6  1  0.47385800  0.55541700  0.39407700  1
  O  O7  1  0.86787300  0.05498400  0.60599000  1
  O  O8  1  0.29012400  0.24648100  0.73680100  1
  O  O9  1  0.02715100  0.74701800  0.26308200  1
  O  O10  1  0.89092400  0.41223300  0.61968400  1
  O  O11  1  0.51108700  0.91269500  0.38044800  1
  O  O12  1  0.41484100  0.58344100  0.82571900  1
  O  O13  1  0.24116700  0.08372200  0.17424300  1
loop_
_geom_bond_atom_site_label_1
_geom_bond_atom_site_label_2
_geom_bond_distance
_geom_bond_site_symmetry_2
Cr0 O11 2.077583 1_545
Cr0 O2 2.081191 1_555
Cr0 O9 2.093746 1_645
Cr0 O13 2.115068 1_655
Cr0 O7 2.496086 1_555
Cr0 O5 2.507987 1_544
Cr1 O10 2.077129 1_455
Cr1 O3 2.082247 1_455
Cr1 O8 2.093063 1_555
Cr1 O12 2.114418 1_555
Cr1 O6 2.498259 1_555
Cr1 O4 2.508282 1_456
H0 O9 0.999689 1_655
H0 O4 1.713956 1_555
H1 O8 0.999867 1_555
H1 O5 1.712841 1_445
H2 O9 0.982265 1_555
H3 O8 0.982077 1_555
H4 O11 0.997096 1_555
H4 O6 1.720264 1_555
H5 O10 0.997049 1_555
H5 O7 1.719704 1_555
H6 O11 0.991712 1_555
H7 O10 0.991748 1_555
H8 O13 1.001656 1_555
H8 O0 1.687572 1_555
H9 O12 1.001245 1_555
H9 O1 1.690111 1_555
H10 O13 1.007870 1_555
H10 O1 1.635355 1_544
H11 O12 1.008094 1_555
H11 O0 1.633914 1_556
O0 S0 1.492964 1_555
O1 S1 1.493009 1_555
O2 S0 1.505166 1_555
O3 S1 1.505164 1_555
O4 S0 1.489666 1_555
O5 S1 1.489875 1_555
O6 S0 1.487449 1_555
O7 S1 1.487289 1_545
