# generated using pymatgen
data_Fe5O7F3
_symmetry_space_group_name_H-M   'P 1'
_cell_length_a   15.20929400
_cell_length_b   4.68123900
_cell_length_c   4.68667119
_cell_angle_alpha   88.33480726
_cell_angle_beta   90.00000000
_cell_angle_gamma   90.00000000
_symmetry_Int_Tables_number   1
_chemical_formula_structural   Fe5O7F3
_chemical_formula_sum   'Fe10 O14 F6'
_cell_volume   333.54229491
_cell_formula_units_Z   2
loop_
 _symmetry_equiv_pos_site_id
 _symmetry_equiv_pos_as_xyz
  1  'x, y, z'
loop_
 _atom_site_type_symbol
 _atom_site_label
 _atom_site_symmetry_multiplicity
 _atom_site_fract_x
 _atom_site_fract_y
 _atom_site_fract_z
 _atom_site_occupancy
  Fe  Fe0  1  0.20686900  0.01950500  0.03782800  1
  Fe  Fe1  1  0.40092500  0.97387600  0.97866500  1
  Fe  Fe2  1  0.59907500  0.97387600  0.97866500  1
  Fe  Fe3  1  0.79313100  0.01950500  0.03782800  1
  Fe  Fe4  1  0.00000000  0.97869400  0.01030600  1
  Fe  Fe5  1  0.29947100  0.49510100  0.50571700  1
  Fe  Fe6  1  0.70052900  0.49510100  0.50571700  1
  Fe  Fe7  1  0.50000000  0.51011700  0.51488200  1
  Fe  Fe8  1  0.90519100  0.51316200  0.47268100  1
  Fe  Fe9  1  0.09480900  0.51316200  0.47268100  1
  O  O0  1  0.30404300  0.79927500  0.19827200  1
  O  O1  1  0.50000000  0.79425600  0.18449600  1
  O  O2  1  0.69595700  0.79927500  0.19827200  1
  O  O3  1  0.89588700  0.82063800  0.18843600  1
  O  O4  1  0.10411300  0.82063800  0.18843600  1
  O  O5  1  0.20216300  0.32126200  0.32175400  1
  O  O6  1  0.79783700  0.32126200  0.32175400  1
  O  O7  1  0.00000000  0.30687500  0.29013000  1
  O  O8  1  0.39771700  0.67611300  0.68374700  1
  O  O9  1  0.60228300  0.67611300  0.68374700  1
  O  O10  1  0.00000000  0.70074100  0.69046300  1
  O  O11  1  0.30224000  0.19118200  0.81093200  1
  O  O12  1  0.69776000  0.19118200  0.81093200  1
  O  O13  1  0.50000000  0.18002600  0.79997200  1
  F  F0  1  0.40163500  0.29211700  0.30198300  1
  F  F1  1  0.59836500  0.29211700  0.30198300  1
  F  F2  1  0.19915600  0.70602500  0.70336600  1
  F  F3  1  0.80084400  0.70602500  0.70336600  1
  F  F4  1  0.10316800  0.20639000  0.80149600  1
  F  F5  1  0.89683200  0.20639000  0.80149600  1
loop_
_geom_bond_atom_site_label_1
_geom_bond_atom_site_label_2
_geom_bond_distance
_geom_bond_site_symmetry_2
Fe0 O0 1.941020 1_545
Fe0 O4 1.941438 1_545
Fe0 O11 1.957299 1_554
Fe0 O5 1.969892 1_555
Fe1 O0 1.962064 1_556
Fe1 O13 1.963752 1_565
Fe1 O11 1.964460 1_565
Fe1 O1 1.964963 1_556
Fe1 O8 1.991919 1_555
Fe2 O2 1.962064 1_556
Fe2 O13 1.963752 1_565
Fe2 O12 1.964460 1_565
Fe2 O1 1.964963 1_556
Fe2 O9 1.991919 1_555
Fe3 O2 1.941020 1_545
Fe3 O3 1.941438 1_545
Fe3 O12 1.957299 1_554
Fe3 O6 1.969892 1_555
Fe4 O4 1.927674 1_555
Fe4 O3 1.927674 1_455
Fe4 O10 2.013301 1_554
Fe4 O7 2.048701 1_565
Fe5 O5 1.907019 1_555
Fe5 O8 1.920435 1_555
Fe5 O11 1.988413 1_555
Fe5 O0 1.997321 1_555
Fe6 O6 1.907019 1_555
Fe6 O9 1.920435 1_555
Fe6 O12 1.988413 1_555
Fe6 O2 1.997321 1_555
Fe7 O8 1.919887 1_555
Fe7 O9 1.919887 1_555
Fe7 O1 2.011741 1_555
Fe7 O13 2.013202 1_555
Fe8 O3 1.937789 1_555
Fe8 O7 1.947262 1_655
Fe8 O10 1.986007 1_655
Fe8 O6 2.002556 1_555
Fe9 O4 1.937789 1_555
Fe9 O7 1.947262 1_555
Fe9 O10 1.986007 1_555
Fe9 O5 2.002556 1_555
F0 Fe5 2.069245 1_555
F0 Fe7 2.081923 1_555
F0 Fe1 2.155642 1_544
F1 Fe6 2.069245 1_555
F1 Fe7 2.081923 1_555
F1 Fe2 2.155642 1_544
F2 Fe5 2.052796 1_555
F2 Fe9 2.135282 1_555
F2 Fe0 2.181291 1_566
F3 Fe6 2.052796 1_555
F3 Fe8 2.135282 1_555
F3 Fe3 2.181291 1_566
F4 Fe9 2.079586 1_555
F4 Fe0 2.103205 1_556
F4 Fe4 2.120221 1_546
F5 Fe8 2.079586 1_555
F5 Fe3 2.103205 1_556
F5 Fe4 2.120221 1_646
