# generated using pymatgen
data_NaLi2MnPCO7
_symmetry_space_group_name_H-M   'P 1'
_cell_length_a   6.70204400
_cell_length_b   8.68565208
_cell_length_c   10.06552097
_cell_angle_alpha   91.35896534
_cell_angle_beta   90.13393951
_cell_angle_gamma   90.52388955
_symmetry_Int_Tables_number   1
_chemical_formula_structural   NaLi2MnPCO7
_chemical_formula_sum   'Na4 Li8 Mn4 P4 C4 O28'
_cell_volume   585.73910346
_cell_formula_units_Z   4
loop_
 _symmetry_equiv_pos_site_id
 _symmetry_equiv_pos_as_xyz
  1  'x, y, z'
loop_
 _atom_site_type_symbol
 _atom_site_label
 _atom_site_symmetry_multiplicity
 _atom_site_fract_x
 _atom_site_fract_y
 _atom_site_fract_z
 _atom_site_occupancy
  Na  Na0  1  0.25913400  0.08390700  0.12222200  1
  Na  Na1  1  0.99930000  0.25205900  0.37669900  1
  Na  Na2  1  0.99881200  0.25167600  0.87348300  1
  Na  Na3  1  0.49950800  0.74865900  0.62455900  1
  Li  Li0  1  0.25303300  0.08133700  0.62376400  1
  Li  Li1  1  0.47810000  0.26863400  0.38763000  1
  Li  Li2  1  0.48100500  0.26856700  0.88183600  1
  Li  Li3  1  0.52024000  0.73373400  0.11764500  1
  Li  Li4  1  0.97849700  0.73267900  0.11488600  1
  Li  Li5  1  0.98466200  0.73627000  0.61631200  1
  Li  Li6  1  0.74560100  0.91436200  0.37410900  1
  Li  Li7  1  0.74876000  0.91287400  0.87530000  1
  Mn  Mn0  1  0.74617800  0.35766600  0.11292200  1
  Mn  Mn1  1  0.74476800  0.35732500  0.61168900  1
  Mn  Mn2  1  0.24588100  0.64649100  0.38688800  1
  Mn  Mn3  1  0.24853600  0.64435300  0.88984600  1
  P  P0  1  0.25454900  0.41462700  0.14870300  1
  P  P1  1  0.24878600  0.40474900  0.64784000  1
  P  P2  1  0.74486000  0.59691800  0.35133700  1
  P  P3  1  0.74985400  0.59408400  0.85425500  1
  C  C0  1  0.74845200  0.04116100  0.13288300  1
  C  C1  1  0.75613600  0.04522600  0.63504000  1
  C  C2  1  0.25826400  0.95510700  0.37018400  1
  C  C3  1  0.25677900  0.94818300  0.86049000  1
  O  O0  1  0.27739800  0.10115100  0.35232300  1
  O  O1  1  0.27486900  0.09530100  0.84450700  1
  O  O2  1  0.75156200  0.08799000  0.01117000  1
  O  O3  1  0.75041700  0.08862200  0.51240100  1
  O  O4  1  0.74398500  0.14126600  0.23114100  1
  O  O5  1  0.73783300  0.14617700  0.73185700  1
  O  O6  1  0.06312200  0.32334300  0.10694600  1
  O  O7  1  0.43203400  0.32197600  0.08958100  1
  O  O8  1  0.06267000  0.30341000  0.61217900  1
  O  O9  1  0.42935600  0.31375400  0.59077700  1
  O  O10  1  0.27039100  0.42055600  0.30362400  1
  O  O11  1  0.73428200  0.42937400  0.40294800  1
  O  O12  1  0.26985900  0.41988700  0.80261600  1
  O  O13  1  0.73367200  0.42726200  0.90558600  1
  O  O14  1  0.25330700  0.58418600  0.10093000  1
  O  O15  1  0.75206900  0.58568900  0.19553500  1
  O  O16  1  0.23357300  0.57002000  0.59326400  1
  O  O17  1  0.76528600  0.58188000  0.69938000  1
  O  O18  1  0.56394000  0.69646300  0.39448300  1
  O  O19  1  0.93023800  0.68768300  0.40498500  1
  O  O20  1  0.56829000  0.69560300  0.89571100  1
  O  O21  1  0.93339700  0.68388200  0.91195600  1
  O  O22  1  0.24481000  0.85983200  0.26829800  1
  O  O23  1  0.24180100  0.85655300  0.75643500  1
  O  O24  1  0.25113100  0.90218400  0.49022800  1
  O  O25  1  0.25274400  0.88903100  0.97767800  1
  O  O26  1  0.74940200  0.89498300  0.15879000  1
  O  O27  1  0.77886800  0.90128900  0.66414300  1
loop_
_geom_bond_atom_site_label_1
_geom_bond_atom_site_label_2
_geom_bond_distance
_geom_bond_site_symmetry_2
Na0 O25 2.205709 1_544
Na0 O0 2.320249 1_555
Na0 O7 2.390950 1_555
Na0 O22 2.468179 1_545
Na0 O6 2.477612 1_555
Na0 O1 2.801640 1_554
Na1 O0 2.298614 1_655
Na1 O11 2.372630 1_555
Na1 O4 2.427318 1_555
Na1 O8 2.437002 1_655
Na1 O10 2.447967 1_655
Na1 O3 2.592775 1_555
Na1 O6 2.831778 1_655
Na2 O1 2.320032 1_655
Na2 O13 2.369980 1_555
Na2 O5 2.414170 1_555
Na2 O12 2.439320 1_655
Na2 O6 2.452830 1_656
Na2 O2 2.597886 1_556
Na2 O8 2.713047 1_655
Na3 O27 2.312514 1_555
Na3 O23 2.367406 1_555
Na3 O16 2.367893 1_555
Na3 O18 2.390304 1_555
Na3 O17 2.435386 1_555
Na3 O24 2.548122 1_555
Na3 O20 2.816296 1_555
Li0 O24 2.031863 1_545
Li0 O1 2.226726 1_555
Li0 O8 2.327391 1_555
Li0 O9 2.360475 1_555
Li0 O23 2.392126 1_545
Li1 O0 1.997308 1_555
Li1 O9 2.099735 1_555
Li1 O10 2.115432 1_555
Li1 O11 2.205803 1_555
Li1 O4 2.616652 1_555
Li2 O1 2.060910 1_555
Li2 O12 2.108135 1_555
Li2 O7 2.157646 1_556
Li2 O13 2.182750 1_555
Li2 O5 2.518186 1_555
Li3 O26 2.102876 1_555
Li3 O15 2.181936 1_555
Li3 O14 2.204937 1_555
Li3 O20 2.274608 1_554
Li4 O21 2.096880 1_554
Li4 O26 2.133837 1_555
Li4 O15 2.147402 1_555
Li4 O14 2.260852 1_655
Li5 O27 2.048160 1_555
Li5 O17 2.163766 1_555
Li5 O19 2.187862 1_555
Li5 O16 2.225271 1_655
Li5 O23 2.436496 1_655
Li6 O3 2.031868 1_565
Li6 O26 2.170068 1_555
Li6 O18 2.254710 1_555
Li6 O19 2.361361 1_555
Li6 O4 2.467773 1_565
Li7 O2 2.021092 1_566
Li7 O27 2.135514 1_555
Li7 O20 2.245941 1_555
Li7 O21 2.387674 1_555
Li7 O5 2.517390 1_565
Mn0 O15 2.129745 1_555
Mn0 O7 2.136897 1_555
Mn0 O6 2.148471 1_655
Mn0 O13 2.188085 1_554
Mn0 O4 2.248250 1_555
Mn0 O2 2.534683 1_555
Mn1 O17 2.124841 1_555
Mn1 O9 2.153052 1_555
Mn1 O8 2.185646 1_655
Mn1 O11 2.207624 1_555
Mn1 O5 2.220924 1_555
Mn1 O3 2.517592 1_555
Mn2 O10 2.123417 1_555
Mn2 O19 2.156126 1_455
Mn2 O18 2.172301 1_555
Mn2 O16 2.197342 1_555
Mn2 O22 2.227925 1_555
Mn2 O24 2.429865 1_555
Mn3 O12 2.125298 1_555
Mn3 O21 2.154090 1_455
Mn3 O20 2.185137 1_555
Mn3 O14 2.200227 1_556
Mn3 O25 2.282209 1_555
Mn3 O23 2.306712 1_555
C0 O2 1.300136 1_555
C0 O4 1.301871 1_555
C0 O26 1.302267 1_545
C1 O3 1.299792 1_555
C1 O27 1.301013 1_545
C1 O5 1.302130 1_555
C2 O0 1.290649 1_565
C2 O24 1.303763 1_555
C2 O22 1.304838 1_555
C3 O1 1.296303 1_565
C3 O25 1.297957 1_555
C3 O23 1.303445 1_555
O6 P0 1.553809 1_555
O7 P0 1.553954 1_555
O8 P1 1.556384 1_555
O9 P1 1.555094 1_555
O10 P0 1.562321 1_555
O11 P2 1.557797 1_555
O12 P1 1.566271 1_555
O13 P3 1.552769 1_555
O14 P0 1.560137 1_555
O15 P2 1.569832 1_555
O16 P1 1.553256 1_555
O17 P3 1.563717 1_555
O18 P2 1.552489 1_555
O19 P2 1.554169 1_555
O20 P3 1.561052 1_555
O21 P3 1.554495 1_555
