# generated using pymatgen
data_Li2Fe(BO3)2
_symmetry_space_group_name_H-M   'P 1'
_cell_length_a   8.99771100
_cell_length_b   5.24010700
_cell_length_c   11.09207978
_cell_angle_alpha   64.79500396
_cell_angle_beta   90.00000000
_cell_angle_gamma   90.00000000
_symmetry_Int_Tables_number   1
_chemical_formula_structural   Li2Fe(BO3)2
_chemical_formula_sum   'Li8 Fe4 B8 O24'
_cell_volume   473.18714111
_cell_formula_units_Z   4
loop_
 _symmetry_equiv_pos_site_id
 _symmetry_equiv_pos_as_xyz
  1  'x, y, z'
loop_
 _atom_site_type_symbol
 _atom_site_label
 _atom_site_symmetry_multiplicity
 _atom_site_fract_x
 _atom_site_fract_y
 _atom_site_fract_z
 _atom_site_occupancy
  Li  Li0  1  0.66482300  0.45079300  0.36996100  1
  Li  Li1  1  0.99039500  0.94445100  0.88675100  1
  Li  Li2  1  0.16482300  0.54920700  0.13003900  1
  Li  Li3  1  0.49039500  0.05554900  0.61324900  1
  Li  Li4  1  0.50960500  0.94445100  0.38675100  1
  Li  Li5  1  0.83517700  0.45079300  0.86996100  1
  Li  Li6  1  0.00960500  0.05554900  0.11324900  1
  Li  Li7  1  0.33517700  0.54920700  0.63003900  1
  Fe  Fe0  1  0.32663200  0.97778500  0.87293900  1
  Fe  Fe1  1  0.82663200  0.02221500  0.62706100  1
  Fe  Fe2  1  0.17336800  0.97778500  0.37293900  1
  Fe  Fe3  1  0.67336800  0.02221500  0.12706100  1
  B  B0  1  0.33075900  0.44928200  0.38087000  1
  B  B1  1  0.66173600  0.96604500  0.86949500  1
  B  B2  1  0.83075900  0.55071800  0.11913000  1
  B  B3  1  0.16173600  0.03395500  0.63050500  1
  B  B4  1  0.83826400  0.96604500  0.36949500  1
  B  B5  1  0.16924100  0.44928200  0.88087000  1
  B  B6  1  0.33826400  0.03395500  0.13050500  1
  B  B7  1  0.66924100  0.55071800  0.61913000  1
  O  O0  1  0.31499200  0.86513700  0.06514900  1
  O  O1  1  0.67268800  0.31038600  0.59648700  1
  O  O2  1  0.95562300  0.70997100  0.09477600  1
  O  O3  1  0.28863700  0.12434300  0.67288900  1
  O  O4  1  0.70184000  0.62567900  0.16448200  1
  O  O5  1  0.02405800  0.10432600  0.65758400  1
  O  O6  1  0.20184000  0.37432100  0.33551800  1
  O  O7  1  0.52405800  0.89567400  0.84241600  1
  O  O8  1  0.78863700  0.87565700  0.82711100  1
  O  O9  1  0.45562300  0.29002900  0.40522400  1
  O  O10  1  0.81499200  0.13486300  0.43485100  1
  O  O11  1  0.17268800  0.68961400  0.90351300  1
  O  O12  1  0.82731200  0.31038600  0.09648700  1
  O  O13  1  0.18500800  0.86513700  0.56514900  1
  O  O14  1  0.54437700  0.70997100  0.59477600  1
  O  O15  1  0.21136300  0.12434300  0.17288900  1
  O  O16  1  0.47594200  0.10432600  0.15758400  1
  O  O17  1  0.79816000  0.62567900  0.66448200  1
  O  O18  1  0.97594200  0.89567400  0.34241600  1
  O  O19  1  0.29816000  0.37432100  0.83551800  1
  O  O20  1  0.71136300  0.87565700  0.32711100  1
  O  O21  1  0.04437700  0.29002900  0.90522400  1
  O  O22  1  0.32731200  0.68961400  0.40351300  1
  O  O23  1  0.68500800  0.13486300  0.93485100  1
loop_
_geom_bond_atom_site_label_1
_geom_bond_atom_site_label_2
_geom_bond_distance
_geom_bond_site_symmetry_2
Li0 O10 2.017315 1_555
Li0 O9 2.031047 1_555
Li0 O4 2.089615 1_555
Li0 O20 2.111057 1_555
Li0 O1 2.298950 1_555
Li1 O21 1.968037 1_665
Li1 O8 2.016487 1_555
Li1 O11 2.072835 1_655
Li1 O2 2.125344 1_556
Li1 O5 2.332654 1_665
Li2 O0 2.017315 1_555
Li2 O2 2.031047 1_455
Li2 O6 2.089615 1_555
Li2 O15 2.111057 1_555
Li2 O11 2.298950 1_554
Li3 O14 1.968037 1_545
Li3 O3 2.016487 1_555
Li3 O1 2.072835 1_555
Li3 O9 2.125344 1_555
Li3 O7 2.332654 1_545
Li4 O9 1.968037 1_565
Li4 O20 2.016487 1_555
Li4 O22 2.072835 1_555
Li4 O14 2.125344 1_555
Li4 O16 2.332654 1_565
Li5 O23 2.017315 1_555
Li5 O21 2.031047 1_655
Li5 O17 2.089615 1_555
Li5 O8 2.111057 1_555
Li5 O12 2.298950 1_556
Li6 O2 1.968037 1_445
Li6 O15 2.016487 1_555
Li6 O12 2.072835 1_455
Li6 O21 2.125344 1_554
Li6 O18 2.332654 1_445
Li7 O13 2.017315 1_555
Li7 O14 2.031047 1_555
Li7 O19 2.089615 1_555
Li7 O3 2.111057 1_555
Li7 O22 2.298950 1_555
Fe0 O7 1.891921 1_555
Fe0 O19 1.954727 1_565
Fe0 O0 1.957801 1_556
Fe0 O11 1.969190 1_555
Fe0 O3 2.044276 1_565
Fe1 O5 1.891921 1_655
Fe1 O17 1.954727 1_545
Fe1 O10 1.957801 1_555
Fe1 O1 1.969190 1_555
Fe1 O8 2.044276 1_545
Fe2 O18 1.891921 1_455
Fe2 O6 1.954727 1_565
Fe2 O13 1.957801 1_555
Fe2 O22 1.969190 1_555
Fe2 O15 2.044276 1_565
Fe3 O16 1.891921 1_555
Fe3 O4 1.954727 1_545
Fe3 O23 1.957801 1_554
Fe3 O12 1.969190 1_555
Fe3 O20 2.044276 1_545
B0 O9 1.356317 1_555
B0 O22 1.385439 1_555
B0 O6 1.386072 1_555
B1 O7 1.362029 1_555
B1 O23 1.377729 1_565
B1 O8 1.392393 1_555
B2 O2 1.356317 1_555
B2 O12 1.385439 1_555
B2 O4 1.386072 1_555
B3 O5 1.362029 1_555
B3 O13 1.377729 1_545
B3 O3 1.392393 1_555
B4 O18 1.362029 1_555
B4 O10 1.377729 1_565
B4 O20 1.392393 1_555
B5 O21 1.356317 1_555
B5 O11 1.385439 1_555
B5 O19 1.386072 1_555
B6 O16 1.362029 1_555
B6 O0 1.377729 1_545
B6 O15 1.392393 1_555
B7 O14 1.356317 1_555
B7 O1 1.385439 1_555
B7 O17 1.386072 1_555
