# generated using pymatgen
data_LiMnBO4
_symmetry_space_group_name_H-M   'P 1'
_cell_length_a   4.48769700
_cell_length_b   5.54900000
_cell_length_c   9.52000700
_cell_angle_alpha   90.00000000
_cell_angle_beta   90.00000000
_cell_angle_gamma   90.00000000
_symmetry_Int_Tables_number   1
_chemical_formula_structural   LiMnBO4
_chemical_formula_sum   'Li4 Mn4 B4 O16'
_cell_volume   237.06941013
_cell_formula_units_Z   4
loop_
 _symmetry_equiv_pos_site_id
 _symmetry_equiv_pos_as_xyz
  1  'x, y, z'
loop_
 _atom_site_type_symbol
 _atom_site_label
 _atom_site_symmetry_multiplicity
 _atom_site_fract_x
 _atom_site_fract_y
 _atom_site_fract_z
 _atom_site_occupancy
  Li  Li0  1  0.00000000  0.50000000  0.50000000  1
  Li  Li1  1  0.50000000  0.50000000  0.00000000  1
  Li  Li2  1  0.00000000  0.00000000  0.50000000  1
  Li  Li3  1  0.50000000  0.00000000  0.00000000  1
  Mn  Mn0  1  0.98494100  0.75000000  0.22853000  1
  Mn  Mn1  1  0.51505900  0.75000000  0.72853000  1
  Mn  Mn2  1  0.48494100  0.25000000  0.27147000  1
  Mn  Mn3  1  0.01505900  0.25000000  0.77147000  1
  B  B0  1  0.43548900  0.75000000  0.40869400  1
  B  B1  1  0.06451100  0.75000000  0.90869400  1
  B  B2  1  0.93548900  0.25000000  0.09130600  1
  B  B3  1  0.56451100  0.25000000  0.59130600  1
  O  O0  1  0.27131100  0.54107900  0.33134000  1
  O  O1  1  0.22868900  0.54107900  0.83134000  1
  O  O2  1  0.18021400  0.75000000  0.05098400  1
  O  O3  1  0.75000300  0.75000000  0.39658000  1
  O  O4  1  0.31978600  0.75000000  0.55098400  1
  O  O5  1  0.74999700  0.75000000  0.89658000  1
  O  O6  1  0.27131100  0.95892100  0.33134000  1
  O  O7  1  0.22868900  0.95892100  0.83134000  1
  O  O8  1  0.72868900  0.04107900  0.66866000  1
  O  O9  1  0.77131100  0.04107900  0.16866000  1
  O  O10  1  0.81978600  0.25000000  0.94901600  1
  O  O11  1  0.68021400  0.25000000  0.44901600  1
  O  O12  1  0.25000300  0.25000000  0.10342000  1
  O  O13  1  0.24999700  0.25000000  0.60342000  1
  O  O14  1  0.77131100  0.45892100  0.16866000  1
  O  O15  1  0.72868900  0.45892100  0.66866000  1
loop_
_geom_bond_atom_site_label_1
_geom_bond_atom_site_label_2
_geom_bond_distance
_geom_bond_site_symmetry_2
Li0 O0 2.027932 1_555
Li0 O15 2.027932 1_455
Li0 O3 2.037769 1_455
Li0 O13 2.037769 1_555
Li0 O4 2.054158 1_555
Li0 O11 2.054158 1_455
Li1 O1 2.027932 1_554
Li1 O14 2.027932 1_555
Li1 O5 2.037769 1_554
Li1 O12 2.037769 1_555
Li1 O10 2.054158 1_554
Li1 O2 2.054158 1_555
Li2 O6 2.027932 1_545
Li2 O8 2.027932 1_455
Li2 O3 2.037769 1_445
Li2 O13 2.037769 1_555
Li2 O4 2.054158 1_545
Li2 O11 2.054158 1_455
Li3 O9 2.027932 1_555
Li3 O7 2.027932 1_544
Li3 O5 2.037769 1_544
Li3 O12 2.037769 1_555
Li3 O10 2.054158 1_554
Li3 O2 2.054158 1_545
Mn0 O2 1.903905 1_655
Mn0 O3 1.916009 1_555
Mn0 O9 1.962865 1_565
Mn0 O14 1.962865 1_555
Mn0 O6 1.988348 1_655
Mn0 O0 1.988348 1_655
Mn1 O4 1.903905 1_555
Mn1 O5 1.916009 1_555
Mn1 O8 1.962865 1_565
Mn1 O15 1.962865 1_555
Mn1 O7 1.988348 1_555
Mn1 O1 1.988348 1_555
Mn2 O11 1.903905 1_555
Mn2 O12 1.916009 1_555
Mn2 O0 1.962865 1_555
Mn2 O6 1.962865 1_545
Mn2 O14 1.988348 1_555
Mn2 O9 1.988348 1_555
Mn3 O10 1.903905 1_455
Mn3 O13 1.916009 1_555
Mn3 O1 1.962865 1_555
Mn3 O7 1.962865 1_545
Mn3 O15 1.988348 1_455
Mn3 O8 1.988348 1_455
B0 O3 1.416147 1_555
B0 O4 1.450709 1_555
B0 O6 1.558567 1_555
B0 O0 1.558567 1_555
B1 O5 1.416147 1_455
B1 O2 1.450709 1_556
B1 O7 1.558567 1_555
B1 O1 1.558567 1_555
B2 O12 1.416147 1_655
B2 O10 1.450709 1_554
B2 O14 1.558567 1_555
B2 O9 1.558567 1_555
B3 O13 1.416147 1_555
B3 O11 1.450709 1_555
B3 O15 1.558567 1_555
B3 O8 1.558567 1_555
