# generated using pymatgen
data_Li5Mn5O9F
_symmetry_space_group_name_H-M   'P 1'
_cell_length_a   5.22176400
_cell_length_b   5.36142362
_cell_length_c   7.89258725
_cell_angle_alpha   105.69453421
_cell_angle_beta   104.52692025
_cell_angle_gamma   101.63819767
_symmetry_Int_Tables_number   1
_chemical_formula_structural   Li5Mn5O9F
_chemical_formula_sum   'Li5 Mn5 O9 F1'
_cell_volume   197.11896503
_cell_formula_units_Z   1
loop_
 _symmetry_equiv_pos_site_id
 _symmetry_equiv_pos_as_xyz
  1  'x, y, z'
loop_
 _atom_site_type_symbol
 _atom_site_label
 _atom_site_symmetry_multiplicity
 _atom_site_fract_x
 _atom_site_fract_y
 _atom_site_fract_z
 _atom_site_occupancy
  Li  Li0  1  0.69468600  0.41993300  0.90860900  1
  Li  Li1  1  0.11073000  0.20070500  0.70051000  1
  Li  Li2  1  0.49796100  0.97532100  0.48404400  1
  Li  Li3  1  0.90035100  0.80005800  0.30795000  1
  Li  Li4  1  0.30072100  0.60937100  0.10331800  1
  Mn  Mn0  1  0.38507600  0.79723700  0.80319600  1
  Mn  Mn1  1  0.79604800  0.58645500  0.59827500  1
  Mn  Mn2  1  0.20292100  0.39946200  0.39837000  1
  Mn  Mn3  1  0.60763300  0.19297100  0.19773200  1
  Mn  Mn4  1  0.00358900  0.99069900  0.00687200  1
  O  O0  1  0.01870900  0.59356700  0.83528200  1
  O  O1  1  0.37102300  0.16669700  0.94959900  1
  O  O2  1  0.44892400  0.44877600  0.64948300  1
  O  O3  1  0.86682900  0.20602800  0.43340900  1
  O  O4  1  0.13417400  0.79699800  0.57078700  1
  O  O5  1  0.28888400  0.01587800  0.25530100  1
  O  O6  1  0.54455000  0.59486800  0.36751100  1
  O  O7  1  0.62848900  0.78882500  0.02833700  1
  O  O8  1  0.94878200  0.38993100  0.16377700  1
  F  F0  1  0.74991800  0.02621800  0.73763300  1
loop_
_geom_bond_atom_site_label_1
_geom_bond_atom_site_label_2
_geom_bond_distance
_geom_bond_site_symmetry_2
Li0 O0 2.052208 1_655
Li0 O7 2.086300 1_556
Li0 O1 2.095369 1_555
Li0 O8 2.182458 1_556
Li0 O2 2.188157 1_555
Li1 O1 2.167724 1_555
Li1 O4 2.172309 1_545
Li1 O2 2.179158 1_555
Li1 O3 2.183416 1_455
Li1 O0 2.291609 1_555
Li2 O5 1.953955 1_565
Li2 O6 2.088840 1_555
Li2 O3 2.256561 1_565
Li2 O4 2.294580 1_555
Li3 O4 2.133137 1_655
Li3 O6 2.185487 1_555
Li3 O3 2.196194 1_565
Li3 O8 2.282285 1_555
Li3 O7 2.282783 1_555
Li3 O5 2.315947 1_665
Li4 O7 2.087349 1_555
Li4 O6 2.184225 1_555
Li4 O8 2.204654 1_455
Li4 O5 2.206782 1_565
Li4 O0 2.222813 1_554
Li4 O1 2.501337 1_554
Mn0 O7 1.925759 1_556
Mn0 O4 1.968149 1_555
Mn0 O1 2.031535 1_565
Mn0 O2 2.073962 1_555
Mn0 O0 2.113341 1_555
Mn1 O0 1.924801 1_655
Mn1 O6 1.977961 1_555
Mn1 O4 1.989778 1_655
Mn1 O2 1.995704 1_555
Mn1 O3 2.258191 1_555
Mn2 O8 1.969950 1_455
Mn2 O3 1.973914 1_455
Mn2 O6 1.985245 1_555
Mn2 O2 1.987544 1_555
Mn2 O5 2.253073 1_555
Mn2 O4 2.346909 1_555
Mn3 O5 1.963026 1_555
Mn3 O3 1.981178 1_555
Mn3 O1 1.987056 1_554
Mn3 O8 1.998487 1_555
Mn3 O7 2.257279 1_545
Mn3 O6 2.343652 1_555
Mn4 O5 2.095797 1_565
Mn4 O7 2.108777 1_455
Mn4 O1 2.170567 1_564
Mn4 O0 2.221534 1_554
Mn4 O8 2.277698 1_465
F0 Li2 2.012451 1_545
F0 Li1 2.055444 1_655
F0 Mn4 2.283651 1_646
F0 Li0 2.293413 1_555
F0 Mn0 2.301960 1_545
F0 Mn1 2.405379 1_545
