# generated using pymatgen
data_Ti3VSn2(PO4)6
_symmetry_space_group_name_H-M   'P 1'
_cell_length_a   9.16174287
_cell_length_b   9.16174287
_cell_length_c   9.16174292
_cell_angle_alpha   56.11997847
_cell_angle_beta   56.11997847
_cell_angle_gamma   56.11997851
_symmetry_Int_Tables_number   1
_chemical_formula_structural   Ti3VSn2(PO4)6
_chemical_formula_sum   'Ti3 V1 Sn2 P6 O24'
_cell_volume   494.92246990
_cell_formula_units_Z   1
loop_
 _symmetry_equiv_pos_site_id
 _symmetry_equiv_pos_as_xyz
  1  'x, y, z'
loop_
 _atom_site_type_symbol
 _atom_site_label
 _atom_site_symmetry_multiplicity
 _atom_site_fract_x
 _atom_site_fract_y
 _atom_site_fract_z
 _atom_site_occupancy
  Ti  Ti0  1  0.64683000  0.64683000  0.64683000  1
  Ti  Ti1  1  0.85481700  0.85481700  0.85481700  1
  Ti  Ti2  1  0.34471300  0.34471300  0.34471300  1
  V  V0  1  0.14990300  0.14990300  0.14990300  1
  Sn  Sn0  1  0.01451800  0.01451800  0.01451800  1
  Sn  Sn1  1  0.48633900  0.48633900  0.48633900  1
  P  P0  1  0.95687500  0.25050800  0.53944800  1
  P  P1  1  0.53944800  0.95687500  0.25050800  1
  P  P2  1  0.25050800  0.53944800  0.95687500  1
  P  P3  1  0.74384600  0.46994300  0.03604600  1
  P  P4  1  0.46994300  0.03604600  0.74384600  1
  P  P5  1  0.03604600  0.74384600  0.46994300  1
  O  O0  1  0.50551700  0.13386100  0.27265900  1
  O  O1  1  0.27265900  0.50551700  0.13386100  1
  O  O2  1  0.13386100  0.27265900  0.50551700  1
  O  O3  1  0.94147300  0.06694300  0.71304900  1
  O  O4  1  0.97018100  0.24875100  0.36899700  1
  O  O5  1  0.78043400  0.41676500  0.59411200  1
  O  O6  1  0.71304900  0.94147300  0.06694300  1
  O  O7  1  0.59411200  0.78043400  0.41676500  1
  O  O8  1  0.78011300  0.63141800  0.00584500  1
  O  O9  1  0.41676500  0.59411200  0.78043400  1
  O  O10  1  0.91696500  0.28439900  0.05498900  1
  O  O11  1  0.63141800  0.00584500  0.78011300  1
  O  O12  1  0.36899700  0.97018100  0.24875100  1
  O  O13  1  0.06694300  0.71304900  0.94147300  1
  O  O14  1  0.56899200  0.44265000  0.22331000  1
  O  O15  1  0.24875100  0.36899700  0.97018100  1
  O  O16  1  0.44265000  0.22331000  0.56899200  1
  O  O17  1  0.28439900  0.05498900  0.91696500  1
  O  O18  1  0.22331000  0.56899200  0.44265000  1
  O  O19  1  0.00584500  0.78011300  0.63141800  1
  O  O20  1  0.05498900  0.91696500  0.28439900  1
  O  O21  1  0.87851700  0.69708800  0.50919600  1
  O  O22  1  0.69708800  0.50919600  0.87851700  1
  O  O23  1  0.50919600  0.87851700  0.69708800  1
loop_
_geom_bond_atom_site_label_1
_geom_bond_atom_site_label_2
_geom_bond_distance
_geom_bond_site_symmetry_2
O0 P1 1.581657 1_545
O0 Ti2 1.871482 1_555
O1 P2 1.581657 1_554
O1 Ti2 1.871482 1_555
O2 P0 1.581657 1_455
O2 Ti2 1.871482 1_555
O3 P0 1.552443 1_555
O3 Ti1 1.962283 1_545
O4 P0 1.505787 1_555
O4 V0 2.059078 1_655
O5 P0 1.544912 1_555
O5 Ti0 1.942614 1_555
O6 P1 1.552443 1_555
O6 Ti1 1.962283 1_554
O7 P1 1.544912 1_555
O7 Ti0 1.942614 1_555
O8 P3 1.537767 1_555
O8 Ti1 1.980047 1_554
O9 P2 1.544912 1_555
O9 Ti0 1.942614 1_555
O10 P3 1.551581 1_555
O10 V0 2.184376 1_655
O10 Sn0 2.288839 1_655
O11 P4 1.537767 1_555
O11 Ti1 1.980047 1_545
O12 P1 1.505787 1_555
O12 V0 2.059078 1_565
O13 P2 1.552443 1_555
O13 Ti1 1.962283 1_455
O14 P3 1.573648 1_555
O14 Ti2 2.158511 1_555
O14 Sn1 2.289926 1_555
O15 P2 1.505787 1_555
O15 V0 2.059078 1_556
O16 P4 1.573648 1_555
O16 Ti2 2.158511 1_555
O16 Sn1 2.289926 1_555
O17 P4 1.551581 1_555
O17 V0 2.184376 1_556
O17 Sn0 2.288839 1_556
O18 P5 1.573648 1_555
O18 Ti2 2.158511 1_555
O18 Sn1 2.289926 1_555
O19 P5 1.537767 1_555
O19 Ti1 1.980047 1_455
O20 P5 1.551581 1_555
O20 V0 2.184376 1_565
O20 Sn0 2.288839 1_565
O21 P5 1.527961 1_655
O21 Ti0 1.940596 1_555
O22 P3 1.527961 1_556
O22 Ti0 1.940596 1_555
O23 P4 1.527961 1_565
O23 Ti0 1.940596 1_555
