# generated using pymatgen
data_ZrBiO4
_symmetry_space_group_name_H-M   'P 1'
_cell_length_a   6.59814550
_cell_length_b   6.59814550
_cell_length_c   6.59814550
_cell_angle_alpha   132.39139335
_cell_angle_beta   132.39139335
_cell_angle_gamma   69.61156168
_symmetry_Int_Tables_number   1
_chemical_formula_structural   ZrBiO4
_chemical_formula_sum   'Zr2 Bi2 O8'
_cell_volume   153.69146663
_cell_formula_units_Z   2
loop_
 _symmetry_equiv_pos_site_id
 _symmetry_equiv_pos_as_xyz
  1  'x, y, z'
loop_
 _atom_site_type_symbol
 _atom_site_label
 _atom_site_symmetry_multiplicity
 _atom_site_fract_x
 _atom_site_fract_y
 _atom_site_fract_z
 _atom_site_occupancy
  Zr  Zr0  1  0.75000000  0.25000000  0.50000000  1
  Zr  Zr1  1  0.00000000  0.00000000  0.00000000  1
  Bi  Bi0  1  0.25000000  0.75000000  0.50000000  1
  Bi  Bi1  1  0.50000000  0.50000000  0.00000000  1
  O  O0  1  0.61590300  0.58682200  0.49419800  1
  O  O1  1  0.09262500  0.12170500  0.50580200  1
  O  O2  1  0.87829500  0.38409700  0.97092000  1
  O  O3  1  0.41317800  0.90737500  0.02908000  1
  O  O4  1  0.33682200  0.34262500  0.47092000  1
  O  O5  1  0.87170500  0.86590300  0.52908000  1
  O  O6  1  0.65737500  0.12829500  0.99419800  1
  O  O7  1  0.13409700  0.66317800  0.00580200  1
loop_
_geom_bond_atom_site_label_1
_geom_bond_atom_site_label_2
_geom_bond_distance
_geom_bond_site_symmetry_2
Bi0 O3 2.290700 1_556
Bi0 O2 2.290703 1_454
Bi0 O1 2.290703 1_565
Bi0 O0 2.290704 1_555
Bi0 O5 2.443318 1_455
Bi0 O6 2.443318 1_565
Bi0 O4 2.443318 1_555
Bi0 O7 2.443321 1_555
Bi1 O4 2.290700 1_554
Bi1 O5 2.290703 1_555
Bi1 O6 2.290703 1_554
Bi1 O7 2.290704 1_555
Bi1 O1 2.443318 1_554
Bi1 O2 2.443318 1_554
Bi1 O3 2.443318 1_555
Bi1 O0 2.443321 1_555
O0 Zr0 2.102936 1_555
O0 Zr1 2.476775 1_666
O1 Zr0 2.102942 1_455
O1 Zr1 2.476771 1_555
O2 Zr0 2.102942 1_555
O2 Zr1 2.476771 1_656
O3 Zr0 2.102939 1_565
O3 Zr1 2.476778 1_565
O4 Zr1 2.102939 1_555
O4 Zr0 2.476778 1_555
O5 Zr1 2.102942 1_666
O5 Zr0 2.476771 1_565
O6 Zr1 2.102942 1_656
O6 Zr0 2.476771 1_556
O7 Zr1 2.102936 1_565
O7 Zr0 2.476775 1_454
