# generated using pymatgen
data_Li2Mn3OF6
_symmetry_space_group_name_H-M   'P 1'
_cell_length_a   5.16104900
_cell_length_b   10.83290554
_cell_length_c   12.10151170
_cell_angle_alpha   116.20895854
_cell_angle_beta   101.02515755
_cell_angle_gamma   90.05245681
_symmetry_Int_Tables_number   1
_chemical_formula_structural   Li2Mn3OF6
_chemical_formula_sum   'Li8 Mn12 O4 F24'
_cell_volume   593.01475419
_cell_formula_units_Z   4
loop_
 _symmetry_equiv_pos_site_id
 _symmetry_equiv_pos_as_xyz
  1  'x, y, z'
loop_
 _atom_site_type_symbol
 _atom_site_label
 _atom_site_symmetry_multiplicity
 _atom_site_fract_x
 _atom_site_fract_y
 _atom_site_fract_z
 _atom_site_occupancy
  Li  Li0  1  0.01603800  0.24985000  0.99580300  1
  Li  Li1  1  0.17317200  0.52516400  0.20969200  1
  Li  Li2  1  0.47066200  0.81525900  0.79946500  1
  Li  Li3  1  0.17692400  0.84556900  0.49401200  1
  Li  Li4  1  0.47884100  0.74871000  0.00292300  1
  Li  Li5  1  0.54030100  0.01942300  0.20825200  1
  Li  Li6  1  0.83000600  0.29703800  0.77974800  1
  Li  Li7  1  0.79773600  0.35094600  0.50086600  1
  Mn  Mn0  1  0.61549400  0.32748300  0.19847500  1
  Mn  Mn1  1  0.32338700  0.53480500  0.52080300  1
  Mn  Mn2  1  0.48281200  0.47611500  0.97079800  1
  Mn  Mn3  1  0.82886000  0.81149300  0.65235200  1
  Mn  Mn4  1  0.68553200  0.68727100  0.33380300  1
  Mn  Mn5  1  0.05525600  0.83702600  0.21902600  1
  Mn  Mn6  1  0.40763700  0.11515900  0.77854900  1
  Mn  Mn7  1  0.72581800  0.02408500  0.49947900  1
  Mn  Mn8  1  0.01022800  0.98543600  0.99286800  1
  Mn  Mn9  1  0.17581100  0.19066500  0.34661900  1
  Mn  Mn10  1  0.34818900  0.30798900  0.63493800  1
  Mn  Mn11  1  0.88339800  0.61958900  0.78843800  1
  O  O0  1  0.60505800  0.66929100  0.66948600  1
  O  O1  1  0.90509400  0.86154200  0.37098700  1
  O  O2  1  0.56911500  0.15353000  0.65005700  1
  O  O3  1  0.43395600  0.34299800  0.49167800  1
  F  F0  1  0.83691300  0.17665200  0.07909600  1
  F  F1  1  0.30651700  0.38881200  0.07694400  1
  F  F2  1  0.43867900  0.51821800  0.34038200  1
  F  F3  1  0.82051000  0.50070000  0.20387000  1
  F  F4  1  0.02893600  0.67748500  0.49748800  1
  F  F5  1  0.31646300  0.68433900  0.21310700  1
  F  F6  1  0.65786200  0.96986400  0.80315500  1
  F  F7  1  0.53737700  0.82898100  0.50259800  1
  F  F8  1  0.73364600  0.66785800  0.07845700  1
  F  F9  1  0.20762000  0.09954900  0.92005900  1
  F  F10  1  0.07558300  0.96737300  0.64605400  1
  F  F11  1  0.27093800  0.88531000  0.08483100  1
  F  F12  1  0.71445000  0.30466400  0.92430500  1
  F  F13  1  0.40459900  0.01400400  0.34230300  1
  F  F14  1  0.89584500  0.01680500  0.20707800  1
  F  F15  1  0.19847800  0.30447500  0.80375900  1
  F  F16  1  0.97148300  0.18833900  0.49699500  1
  F  F17  1  0.37284200  0.17052000  0.19608600  1
  F  F18  1  0.65301700  0.46317900  0.80214300  1
  F  F19  1  0.21510600  0.59873300  0.91803200  1
  F  F20  1  0.90224200  0.34429700  0.35494000  1
  F  F21  1  0.06458300  0.47800800  0.64129900  1
  F  F22  1  0.71576600  0.81920700  0.94045800  1
  F  F23  1  0.12122500  0.81039600  0.81744800  1
loop_
_geom_bond_atom_site_label_1
_geom_bond_atom_site_label_2
_geom_bond_distance
_geom_bond_site_symmetry_2
Li2 O0 1.917810 1_555
Li3 O1 1.908863 1_455
Li6 O2 1.930220 1_555
Li7 O3 1.859068 1_555
Mn1 O0 2.038013 1_555
Mn1 O3 2.049259 1_555
Mn3 O0 2.029935 1_555
Mn4 O1 2.025160 1_555
Mn5 O1 2.041324 1_455
Mn6 O2 2.085933 1_555
Mn7 O2 2.061466 1_555
Mn7 O1 2.123500 1_545
Mn9 O3 2.030382 1_555
Mn10 O3 2.054098 1_555
Mn10 O2 2.080240 1_555
Mn11 O0 2.078641 1_555
F0 Li0 1.886923 1_654
F0 Mn0 2.147685 1_555
F0 Mn8 2.151959 1_644
F1 Li1 1.888087 1_555
F1 Li0 1.898686 1_554
F1 Mn2 2.211516 1_554
F1 Mn0 2.261693 1_555
F2 Li1 1.913389 1_555
F2 Mn4 2.268604 1_555
F2 Mn1 2.303042 1_555
F2 Mn0 2.349413 1_555
F3 Li1 1.822515 1_655
F3 Mn0 2.122876 1_555
F3 Mn4 2.158014 1_555
F4 Li3 1.994484 1_555
F4 Mn1 2.236857 1_555
F4 Mn3 2.241812 1_455
F4 Mn4 2.432929 1_455
F5 Li1 1.856058 1_555
F5 Mn5 2.120080 1_555
F5 Mn4 2.158095 1_555
F6 Li2 1.911789 1_555
F6 Mn6 2.122366 1_565
F6 Mn3 2.214927 1_555
F6 Mn8 2.582035 1_655
F7 Li3 1.856619 1_555
F7 Mn3 2.200969 1_555
F7 Mn4 2.223411 1_555
F7 Mn7 2.344161 1_565
F8 Li4 1.892502 1_555
F8 Mn2 2.155787 1_554
F8 Mn5 2.273339 1_655
F9 Li0 1.870884 1_555
F9 Mn8 2.155321 1_545
F9 Mn6 2.226758 1_555
F10 Li3 1.903912 1_555
F10 Mn3 2.150714 1_455
F10 Mn6 2.178867 1_565
F10 Mn7 2.553862 1_465
F11 Li4 1.854096 1_555
F11 Li5 1.886692 1_565
F11 Mn8 2.172932 1_554
F11 Mn5 2.364438 1_555
F12 Li0 1.861275 1_655
F12 Li6 1.922041 1_555
F12 Mn2 2.129243 1_555
F12 Mn6 2.358034 1_555
F13 Li5 1.908965 1_555
F13 Mn7 2.233449 1_555
F13 Mn9 2.235815 1_555
F13 Mn5 2.364418 1_545
F14 Li5 1.837898 1_555
F14 Mn5 2.167214 1_645
F14 Mn9 2.176949 1_655
F14 Mn8 2.644126 1_644
F15 Li6 1.864158 1_455
F15 Mn6 2.245366 1_555
F15 Mn2 2.288525 1_555
F15 Mn10 2.333382 1_555
F16 Li7 1.963485 1_555
F16 Mn7 2.198231 1_555
F16 Mn10 2.255976 1_655
F16 Mn9 2.280075 1_655
F17 Li5 1.901207 1_555
F17 Mn0 2.097442 1_555
F17 Mn9 2.181277 1_555
F17 Mn8 2.729062 1_544
F18 Li6 1.952930 1_555
F18 Mn11 2.152232 1_555
F18 Mn10 2.273439 1_555
F18 Mn2 2.321685 1_555
F19 Li4 1.880041 1_556
F19 Mn2 2.120426 1_555
F19 Mn11 2.174431 1_455
F20 Li7 1.914840 1_555
F20 Mn0 2.105146 1_555
F20 Mn9 2.164277 1_655
F21 Li7 1.927326 1_455
F21 Mn11 2.150474 1_455
F21 Mn10 2.337388 1_555
F21 Mn1 2.413480 1_555
F22 Li4 1.873918 1_556
F22 Li2 1.903462 1_555
F22 Mn8 2.138233 1_655
F22 Mn11 2.430500 1_555
F23 Li2 1.860826 1_555
F23 Mn11 2.256522 1_455
F23 Mn3 2.266397 1_455
F23 Mn8 2.311228 1_555
