# generated using pymatgen
data_HfNi3
_symmetry_space_group_name_H-M   'P 1'
_cell_length_a   7.03895901
_cell_length_b   7.03895904
_cell_length_c   7.03895916
_cell_angle_alpha   43.52198730
_cell_angle_beta   43.52198113
_cell_angle_gamma   43.52198687
_symmetry_Int_Tables_number   1
_chemical_formula_structural   HfNi3
_chemical_formula_sum   'Hf3 Ni9'
_cell_volume   150.06746235
_cell_formula_units_Z   3
loop_
 _symmetry_equiv_pos_site_id
 _symmetry_equiv_pos_as_xyz
  1  'x, y, z'
loop_
 _atom_site_type_symbol
 _atom_site_label
 _atom_site_symmetry_multiplicity
 _atom_site_fract_x
 _atom_site_fract_y
 _atom_site_fract_z
 _atom_site_occupancy
  Hf  Hf0  1  0.78119232  0.78119232  0.78119232  1
  Hf  Hf1  1  0.21880768  0.21880768  0.21880768  1
  Hf  Hf2  1  0.00000000  -0.00000000  0.00000000  1
  Ni  Ni0  1  0.71252959  0.24472062  0.71252959  1
  Ni  Ni1  1  0.24472062  0.71252959  0.71252959  1
  Ni  Ni2  1  0.71252959  0.71252959  0.24472062  1
  Ni  Ni3  1  0.50000000  0.50000000  0.00000000  1
  Ni  Ni4  1  0.00000000  0.50000000  0.50000000  1
  Ni  Ni5  1  0.50000000  -0.00000000  0.50000000  1
  Ni  Ni6  1  0.28747041  0.28747041  0.75527938  1
  Ni  Ni7  1  0.75527938  0.28747041  0.28747041  1
  Ni  Ni8  1  0.28747041  0.75527938  0.28747041  1
loop_
_geom_bond_atom_site_label_1
_geom_bond_atom_site_label_2
_geom_bond_distance
_geom_bond_site_symmetry_2
Hf0 Ni8 2.612777 1_556
Hf0 Ni8 2.612777 1_655
Hf0 Ni6 2.612777 1_655
Hf0 Ni6 2.612777 1_565
Hf0 Ni7 2.612777 1_556
Hf0 Ni7 2.612777 1_565
Hf0 Ni1 2.622540 1_655
Hf0 Ni0 2.622540 1_565
Hf0 Ni2 2.622540 1_556
Hf0 Ni3 2.654604 1_556
Hf0 Ni4 2.654604 1_655
Hf0 Ni5 2.654604 1_565
Hf1 Ni0 2.612777 1_554
Hf1 Ni0 2.612777 1_455
Hf1 Ni2 2.612777 1_455
Hf1 Ni2 2.612777 1_545
Hf1 Ni1 2.612777 1_554
Hf1 Ni1 2.612777 1_545
Hf1 Ni7 2.622540 1_455
Hf1 Ni8 2.622540 1_545
Hf1 Ni6 2.622540 1_554
Hf1 Ni3 2.654604 1_555
Hf1 Ni4 2.654604 1_555
Hf1 Ni5 2.654604 1_555
Hf2 Ni5 2.609593 1_554
Hf2 Ni5 2.609593 1_455
Hf2 Ni3 2.609593 1_455
Hf2 Ni3 2.609593 1_545
Hf2 Ni4 2.609593 1_545
Hf2 Ni4 2.609593 1_554
Hf2 Ni2 2.642807 1_445
Hf2 Ni6 2.642807 1_554
Hf2 Ni1 2.642807 1_544
Hf2 Ni7 2.642807 1_455
Hf2 Ni0 2.642808 1_454
Hf2 Ni8 2.642808 1_545
Ni0 Ni1 2.441582 1_555
Ni0 Ni2 2.441582 1_555
Ni0 Ni4 2.558513 1_655
Ni0 Ni3 2.558513 1_556
Ni0 Ni6 2.579337 1_555
Ni0 Ni7 2.579337 1_555
Ni0 Ni1 2.777604 1_645
Ni0 Ni2 2.777604 1_546
Ni1 Ni2 2.441582 1_555
Ni1 Ni5 2.558513 1_565
Ni1 Ni3 2.558514 1_556
Ni1 Ni6 2.579337 1_555
Ni1 Ni8 2.579337 1_555
Ni1 Ni2 2.777604 1_456
Ni2 Ni5 2.558513 1_565
Ni2 Ni4 2.558514 1_655
Ni2 Ni8 2.579337 1_555
Ni2 Ni7 2.579337 1_555
Ni3 Ni8 2.558513 1_555
Ni3 Ni7 2.558514 1_555
Ni3 Ni4 2.609593 1_555
Ni3 Ni4 2.609593 1_654
Ni3 Ni5 2.609593 1_564
Ni3 Ni5 2.609593 1_555
Ni4 Ni8 2.558513 1_555
Ni4 Ni6 2.558514 1_555
Ni4 Ni5 2.609593 1_555
Ni4 Ni5 2.609593 1_465
Ni5 Ni7 2.558513 1_555
Ni5 Ni6 2.558513 1_555
Ni6 Ni7 2.441582 1_555
Ni6 Ni8 2.441582 1_555
Ni6 Ni7 2.777604 1_456
Ni6 Ni8 2.777604 1_546
Ni7 Ni8 2.441582 1_555
Ni7 Ni8 2.777604 1_645
