# generated using pymatgen
data_CoH6C2S2N2O3
_symmetry_space_group_name_H-M   'P 1'
_cell_length_a   7.01356084
_cell_length_b   7.01356084
_cell_length_c   10.64672175
_cell_angle_alpha   88.79131069
_cell_angle_beta   88.79131069
_cell_angle_gamma   51.36104832
_symmetry_Int_Tables_number   1
_chemical_formula_structural   CoH6C2S2N2O3
_chemical_formula_sum   'Co2 H12 C4 S4 N4 O6'
_cell_volume   408.95784848
_cell_formula_units_Z   2
loop_
 _symmetry_equiv_pos_site_id
 _symmetry_equiv_pos_as_xyz
  1  'x, y, z'
loop_
 _atom_site_type_symbol
 _atom_site_label
 _atom_site_symmetry_multiplicity
 _atom_site_fract_x
 _atom_site_fract_y
 _atom_site_fract_z
 _atom_site_occupancy
  Co  Co0  1  0.00000000  0.50000000  0.50000000  1
  Co  Co1  1  0.50000000  0.00000000  0.00000000  1
  H  H0  1  0.25455500  0.00498000  0.49348000  1
  H  H1  1  0.99502000  0.74544500  0.00652000  1
  H  H2  1  0.74544500  0.99502000  0.50652000  1
  H  H3  1  0.00498000  0.25455500  0.99348000  1
  H  H4  1  0.06167600  0.10482600  0.60623000  1
  H  H5  1  0.89517400  0.93832400  0.89377000  1
  H  H6  1  0.93832400  0.89517400  0.39377000  1
  H  H7  1  0.10482600  0.06167600  0.10623000  1
  H  H8  1  0.21530100  0.88413900  0.79168100  1
  H  H9  1  0.11586100  0.78469900  0.70831900  1
  H  H10  1  0.78469900  0.11586100  0.20831900  1
  H  H11  1  0.88413900  0.21530100  0.29168100  1
  C  C0  1  0.74768200  0.59212400  0.76641300  1
  C  C1  1  0.40787600  0.25231800  0.73358700  1
  C  C2  1  0.25231800  0.40787600  0.23358700  1
  C  C3  1  0.59212400  0.74768200  0.26641300  1
  S  S0  1  0.63016000  0.59827000  0.90156200  1
  S  S1  1  0.40173000  0.36984000  0.59843800  1
  S  S2  1  0.36984000  0.40173000  0.09843800  1
  S  S3  1  0.59827000  0.63016000  0.40156200  1
  N  N0  1  0.83030800  0.58831600  0.66777800  1
  N  N1  1  0.41168400  0.16969200  0.83222200  1
  N  N2  1  0.16969200  0.41168400  0.33222200  1
  N  N3  1  0.58831600  0.83030800  0.16777800  1
  O  O0  1  0.09768200  0.15100800  0.52584600  1
  O  O1  1  0.84899200  0.90231800  0.97415400  1
  O  O2  1  0.90231800  0.84899200  0.47415400  1
  O  O3  1  0.15100800  0.09768200  0.02584600  1
  O  O4  1  0.06609600  0.93390400  0.75000000  1
  O  O5  1  0.93390400  0.06609600  0.25000000  1
loop_
_geom_bond_atom_site_label_1
_geom_bond_atom_site_label_2
_geom_bond_distance
_geom_bond_site_symmetry_2
Co0 N2 2.006814 1_555
Co0 N0 2.006814 1_455
Co0 O2 2.102758 1_455
Co0 O0 2.102758 1_555
Co0 S1 2.596632 1_555
Co0 S3 2.596632 1_455
Co1 N1 2.006814 1_554
Co1 N3 2.006814 1_545
Co1 O1 2.102758 1_544
Co1 O3 2.102758 1_555
Co1 S2 2.596632 1_555
Co1 S0 2.596632 1_544
H0 O0 0.984825 1_555
H1 O1 0.984825 1_554
H2 O2 0.984825 1_555
H3 O3 0.984825 1_556
H4 O0 0.991189 1_555
H5 O1 0.991189 1_555
H6 O2 0.991189 1_555
H7 O3 0.991189 1_555
H8 O4 0.985270 1_555
H9 O4 0.985270 1_555
H10 O5 0.985270 1_555
H11 O5 0.985270 1_555
C0 N0 1.181317 1_555
C0 S0 1.630911 1_555
C1 N1 1.181317 1_555
C1 S1 1.630911 1_555
C2 N2 1.181317 1_555
C2 S2 1.630911 1_555
C3 N3 1.181317 1_555
C3 S3 1.630911 1_555
