# generated using pymatgen
data_Bi12Cl5O16
_symmetry_space_group_name_H-M   'P 1'
_cell_length_a   15.50029839
_cell_length_b   15.50029839
_cell_length_c   10.06109938
_cell_angle_alpha   89.23595212
_cell_angle_beta   89.23595212
_cell_angle_gamma   14.67485378
_symmetry_Int_Tables_number   1
_chemical_formula_structural   Bi12Cl5O16
_chemical_formula_sum   'Bi12 Cl5 O16'
_cell_volume   612.32043669
_cell_formula_units_Z   1
loop_
 _symmetry_equiv_pos_site_id
 _symmetry_equiv_pos_as_xyz
  1  'x, y, z'
loop_
 _atom_site_type_symbol
 _atom_site_label
 _atom_site_symmetry_multiplicity
 _atom_site_fract_x
 _atom_site_fract_y
 _atom_site_fract_z
 _atom_site_occupancy
  Bi  Bi0  1  0.05896700  0.05896700  0.07648700  1
  Bi  Bi1  1  0.34827700  0.34827700  0.07099900  1
  Bi  Bi2  1  0.17429000  0.17429000  0.23798200  1
  Bi  Bi3  1  0.46653100  0.46653100  0.23585800  1
  Bi  Bi4  1  0.58537400  0.58537400  0.40029500  1
  Bi  Bi5  1  0.29632300  0.29632300  0.43731200  1
  Bi  Bi6  1  0.70367700  0.70367700  0.56268800  1
  Bi  Bi7  1  0.41462600  0.41462600  0.59970500  1
  Bi  Bi8  1  0.53346900  0.53346900  0.76414200  1
  Bi  Bi9  1  0.82571000  0.82571000  0.76201800  1
  Bi  Bi10  1  0.65172300  0.65172300  0.92900100  1
  Bi  Bi11  1  0.94103300  0.94103300  0.92351300  1
  Cl  Cl0  1  0.78011900  0.78011900  0.19581700  1
  Cl  Cl1  1  0.88745800  0.88745800  0.34634900  1
  Cl  Cl2  1  0.00000000  0.00000000  0.50000000  1
  Cl  Cl3  1  0.11254200  0.11254200  0.65365100  1
  Cl  Cl4  1  0.21988100  0.21988100  0.80418300  1
  O  O0  1  0.13453500  0.13453500  0.02784400  1
  O  O1  1  0.42500400  0.42500400  0.05401800  1
  O  O2  1  0.68054000  0.68054000  0.12145800  1
  O  O3  1  0.98049600  0.98049600  0.13418100  1
  O  O4  1  0.54128100  0.54128100  0.21938200  1
  O  O5  1  0.10254200  0.10254200  0.29746500  1
  O  O6  1  0.65835400  0.65835400  0.38736900  1
  O  O7  1  0.22275000  0.22275000  0.46265000  1
  O  O8  1  0.77725000  0.77725000  0.53735000  1
  O  O9  1  0.34164600  0.34164600  0.61263100  1
  O  O10  1  0.89745800  0.89745800  0.70253500  1
  O  O11  1  0.45871900  0.45871900  0.78061800  1
  O  O12  1  0.01950400  0.01950400  0.86581900  1
  O  O13  1  0.31946000  0.31946000  0.87854200  1
  O  O14  1  0.57499600  0.57499600  0.94598200  1
  O  O15  1  0.86546500  0.86546500  0.97215600  1
loop_
_geom_bond_atom_site_label_1
_geom_bond_atom_site_label_2
_geom_bond_distance
_geom_bond_site_symmetry_2
Bi0 O0 2.368005 1_555
Bi0 O14 2.422451 1_454
Bi0 O14 2.422451 1_544
Bi0 O12 2.456398 1_554
Bi0 O3 2.473971 1_445
Bi0 O4 2.502070 1_545
Bi0 O4 2.502070 1_455
Bi0 O5 2.611152 1_555
Bi1 O13 2.140222 1_554
Bi1 O15 2.274394 1_454
Bi1 O15 2.274394 1_544
Bi1 O1 2.362991 1_555
Bi1 Cl0 3.133165 1_545
Bi1 Cl0 3.133165 1_455
Bi2 O5 2.277975 1_555
Bi2 O2 2.307389 1_455
Bi2 O2 2.307389 1_545
Bi2 O0 2.456323 1_555
Bi2 O6 2.529432 1_545
Bi2 O6 2.529432 1_455
Bi2 O7 2.723980 1_555
Bi3 O1 2.245037 1_555
Bi3 O3 2.266670 1_545
Bi3 O3 2.266670 1_455
Bi3 O4 2.302065 1_555
Bi4 O6 2.245916 1_555
Bi4 O4 2.284160 1_555
Bi4 O5 2.291955 1_565
Bi4 O5 2.291955 1_655
Bi5 O9 2.262606 1_555
Bi5 O7 2.273041 1_555
Bi5 O8 2.293426 1_545
Bi5 O8 2.293426 1_455
Bi5 Cl0 3.178520 1_455
Bi5 Cl0 3.178520 1_545
Bi6 O6 2.262606 1_555
Bi6 O8 2.273041 1_555
Bi6 O7 2.293426 1_655
Bi6 O7 2.293426 1_565
Bi6 Cl4 3.178520 1_565
Bi6 Cl4 3.178520 1_655
Bi7 O9 2.245916 1_555
Bi7 O11 2.284160 1_555
Bi7 O10 2.291955 1_455
Bi7 O10 2.291955 1_545
Bi8 O14 2.245037 1_555
Bi8 O12 2.266670 1_655
Bi8 O12 2.266670 1_565
Bi8 O11 2.302065 1_555
Bi9 O10 2.277975 1_555
Bi9 O13 2.307389 1_655
Bi9 O13 2.307389 1_565
Bi9 O15 2.456323 1_555
Bi9 O9 2.529432 1_655
Bi9 O9 2.529432 1_565
Bi9 O8 2.723980 1_555
Bi10 O2 2.140222 1_556
Bi10 O0 2.274394 1_566
Bi10 O0 2.274394 1_656
Bi10 O14 2.362991 1_555
Bi10 Cl4 3.133165 1_565
Bi10 Cl4 3.133165 1_655
Bi11 O15 2.368005 1_555
Bi11 O1 2.422451 1_566
Bi11 O1 2.422451 1_656
Bi11 O3 2.456398 1_556
Bi11 O12 2.473971 1_665
Bi11 O11 2.502070 1_655
Bi11 O11 2.502070 1_565
Bi11 O10 2.611152 1_555
