# generated using pymatgen
data_Li12Mn3V5(PO4)12
_symmetry_space_group_name_H-M   'P 1'
_cell_length_a   8.69461100
_cell_length_b   8.70833437
_cell_length_c   12.32996051
_cell_angle_alpha   89.69409442
_cell_angle_beta   88.63208577
_cell_angle_gamma   89.84869293
_symmetry_Int_Tables_number   1
_chemical_formula_structural   Li12Mn3V5(PO4)12
_chemical_formula_sum   'Li12 Mn3 V5 P12 O48'
_cell_volume   933.28780364
_cell_formula_units_Z   1
loop_
 _symmetry_equiv_pos_site_id
 _symmetry_equiv_pos_as_xyz
  1  'x, y, z'
loop_
 _atom_site_type_symbol
 _atom_site_label
 _atom_site_symmetry_multiplicity
 _atom_site_fract_x
 _atom_site_fract_y
 _atom_site_fract_z
 _atom_site_occupancy
  Li  Li0  1  0.92470500  0.08555600  0.69562600  1
  Li  Li1  1  0.91985700  0.69680900  0.75956100  1
  Li  Li2  1  0.78927000  0.77905600  0.17778500  1
  Li  Li3  1  0.70923700  0.27929700  0.32462900  1
  Li  Li4  1  0.58043200  0.19594900  0.74069300  1
  Li  Li5  1  0.57622500  0.58289400  0.80358400  1
  Li  Li6  1  0.42096000  0.41891100  0.19809200  1
  Li  Li7  1  0.41877800  0.80387900  0.26311100  1
  Li  Li8  1  0.29442700  0.71625900  0.67448500  1
  Li  Li9  1  0.20629000  0.21705200  0.82544500  1
  Li  Li10  1  0.08535100  0.30415400  0.23823700  1
  Li  Li11  1  0.07748900  0.92032500  0.30100400  1
  Mn  Mn0  1  0.74774800  0.96006600  0.39182200  1
  Mn  Mn1  1  0.25307800  0.96437800  0.10435400  1
  Mn  Mn2  1  0.24764400  0.46599100  0.39553600  1
  V  V0  1  0.75256800  0.53114700  0.60802300  1
  V  V1  1  0.74820500  0.03050600  0.89190800  1
  V  V2  1  0.75203300  0.45949500  0.11033600  1
  V  V3  1  0.25414900  0.03836300  0.60979300  1
  V  V4  1  0.24628000  0.53822800  0.88991200  1
  P  P0  1  0.96538200  0.25294100  0.49341500  1
  P  P1  1  0.89523300  0.38402700  0.85209500  1
  P  P2  1  0.89650700  0.10146400  0.14920100  1
  P  P3  1  0.60091500  0.59933900  0.35047400  1
  P  P4  1  0.60543500  0.88434400  0.64673800  1
  P  P5  1  0.53604000  0.74700500  0.00739100  1
  P  P6  1  0.46040300  0.24963200  0.99442700  1
  P  P7  1  0.39625700  0.11700100  0.35572900  1
  P  P8  1  0.39704400  0.39523800  0.65234100  1
  P  P9  1  0.10410200  0.89645000  0.84745900  1
  P  P10  1  0.10298300  0.61813900  0.14364600  1
  P  P11  1  0.03943900  0.75253100  0.50622300  1
  O  O0  1  0.95424000  0.86847600  0.43273500  1
  O  O1  1  0.92470800  0.88504800  0.85088900  1
  O  O2  1  0.93253000  0.68409400  0.59620600  1
  O  O3  1  0.92863900  0.59704400  0.16736800  1
  O  O4  1  0.89841500  0.37061800  0.57426000  1
  O  O5  1  0.85656800  0.21513300  0.81911400  1
  O  O6  1  0.85161500  0.41204700  0.97139200  1
  O  O7  1  0.85406300  0.97997500  0.23977300  1
  O  O8  1  0.84295300  0.26467800  0.18607400  1
  O  O9  1  0.83438800  0.17880900  0.43132500  1
  O  O10  1  0.82884900  0.05067200  0.04338300  1
  O  O11  1  0.80438400  0.50185500  0.78152600  1
  O  O12  1  0.69615500  0.00180600  0.71629300  1
  O  O13  1  0.67098900  0.54991500  0.45640600  1
  O  O14  1  0.66800800  0.66691800  0.06885800  1
  O  O15  1  0.65021700  0.76043000  0.30926700  1
  O  O16  1  0.64057100  0.90962200  0.52542800  1
  O  O17  1  0.64409200  0.71557100  0.68086700  1
  O  O18  1  0.64175500  0.47643700  0.26115500  1
  O  O19  1  0.60767900  0.86571100  0.92906700  1
  O  O20  1  0.56725500  0.18054200  0.90446100  1
  O  O21  1  0.57651400  0.38428900  0.64938300  1
  O  O22  1  0.57149300  0.09745000  0.33300700  1
  O  O23  1  0.54555000  0.36417700  0.06701800  1
  O  O24  1  0.45113700  0.63288000  0.93504300  1
  O  O25  1  0.43028700  0.90472900  0.66825800  1
  O  O26  1  0.42009900  0.60833900  0.35339300  1
  O  O27  1  0.42990500  0.81709800  0.09797000  1
  O  O28  1  0.39416500  0.12954000  0.07537800  1
  O  O29  1  0.35976300  0.51586500  0.74379200  1
  O  O30  1  0.35650700  0.28600100  0.32105100  1
  O  O31  1  0.35834600  0.09469100  0.47722100  1
  O  O32  1  0.34313300  0.23196300  0.68985100  1
  O  O33  1  0.32630600  0.32893900  0.93487700  1
  O  O34  1  0.32646500  0.45192600  0.54954500  1
  O  O35  1  0.30416000  0.99793700  0.29095000  1
  O  O36  1  0.19648600  0.49947700  0.20925700  1
  O  O37  1  0.17447700  0.95341700  0.95001800  1
  O  O38  1  0.17302500  0.83258200  0.56625700  1
  O  O39  1  0.15891100  0.73431300  0.80972000  1
  O  O40  1  0.14022400  0.01788700  0.75544500  1
  O  O41  1  0.14100400  0.59705400  0.02273600  1
  O  O42  1  0.14140200  0.78796600  0.17785700  1
  O  O43  1  0.10780500  0.63403700  0.42664800  1
  O  O44  1  0.06989600  0.40401200  0.83081300  1
  O  O45  1  0.07332900  0.32447300  0.40304500  1
  O  O46  1  0.07653200  0.11170800  0.14810000  1
  O  O47  1  0.05054700  0.13543200  0.56444600  1
loop_
_geom_bond_atom_site_label_1
_geom_bond_atom_site_label_2
_geom_bond_distance
_geom_bond_site_symmetry_2
Li0 O47 1.977990 1_655
Li0 O5 1.978464 1_555
Li0 O40 2.111422 1_655
Li0 O12 2.127703 1_555
Li1 O11 1.988650 1_555
Li1 O1 1.994816 1_555
Li1 O2 2.018159 1_555
Li1 O39 2.208248 1_655
Li2 O14 1.988995 1_555
Li2 O3 1.995432 1_555
Li2 O7 2.000730 1_555
Li2 O15 2.005206 1_555
Li3 O9 1.931718 1_555
Li3 O18 1.976434 1_555
Li3 O22 1.988742 1_555
Li3 O8 2.047714 1_555
Li4 O21 1.985078 1_555
Li4 O12 1.985753 1_555
Li4 O20 2.023525 1_555
Li4 O32 2.191908 1_555
Li5 O17 1.978609 1_555
Li5 O24 1.980017 1_555
Li5 O11 2.115698 1_555
Li5 O29 2.122027 1_555
Li6 O30 1.973903 1_555
Li6 O23 1.983546 1_555
Li6 O36 2.073969 1_555
Li6 O18 2.149749 1_555
Li6 O26 2.533948 1_555
Li7 O35 1.986896 1_555
Li7 O26 2.029575 1_555
Li7 O27 2.038823 1_555
Li7 O15 2.136500 1_555
Li8 O38 1.992039 1_555
Li8 O25 2.024733 1_555
Li8 O29 2.024932 1_555
Li8 O39 2.025190 1_555
Li9 O33 1.986317 1_555
Li9 O44 2.012131 1_555
Li9 O40 2.031733 1_555
Li9 O32 2.032522 1_555
Li10 O36 1.985010 1_555
Li10 O46 2.018485 1_555
Li10 O45 2.040875 1_555
Li10 O8 2.246006 1_455
Li11 O0 1.975341 1_455
Li11 O42 1.979369 1_555
Li11 O35 2.085848 1_555
Li11 O7 2.161950 1_455
Li11 O46 2.509820 1_565
Mn0 O16 1.922567 1_555
Mn0 O0 2.036016 1_555
Mn0 O7 2.076985 1_555
Mn0 O22 2.083220 1_565
Mn0 O9 2.113835 1_565
Mn0 O15 2.201245 1_555
Mn1 O28 1.919375 1_565
Mn1 O27 1.999945 1_555
Mn1 O42 2.018721 1_555
Mn1 O37 2.040043 1_554
Mn1 O46 2.061723 1_565
Mn1 O35 2.373317 1_555
Mn2 O43 1.934246 1_555
Mn2 O45 1.956104 1_555
Mn2 O26 2.005162 1_555
Mn2 O34 2.037102 1_555
Mn2 O30 2.040140 1_555
Mn2 O36 2.366256 1_555
O0 P11 1.551633 1_655
O1 P9 1.562730 1_655
O1 V1 2.043259 1_565
O2 P11 1.548160 1_655
O2 V0 2.059504 1_555
O3 P10 1.548172 1_655
O3 V2 2.087429 1_555
O4 P0 1.537159 1_555
O4 V0 1.925415 1_555
O5 P1 1.567520 1_555
O5 V1 2.056818 1_555
O6 P1 1.530915 1_555
O6 V2 1.946843 1_556
O7 P2 1.572380 1_565
O8 P2 1.561079 1_555
O8 V2 2.094385 1_555
O9 P0 1.533241 1_555
O10 P2 1.512679 1_555
O10 V1 2.019254 1_554
O11 P1 1.566169 1_555
O11 V0 2.210013 1_555
O12 P4 1.565219 1_545
O12 V1 2.238095 1_555
O13 P3 1.514283 1_555
O13 V0 2.020897 1_555
O14 P5 1.552092 1_555
O14 V2 2.014704 1_555
O15 P3 1.547581 1_555
O16 P4 1.534297 1_555
O17 P4 1.564513 1_555
O17 V0 2.059738 1_555
O18 P3 1.573638 1_555
O18 V2 2.077558 1_555
O19 P5 1.534024 1_556
O19 V1 1.933328 1_565
O20 P6 1.552601 1_555
O20 V1 2.045967 1_555
O21 P8 1.562649 1_555
O21 V0 2.050569 1_555
O22 P7 1.551651 1_555
O23 P6 1.545719 1_554
O23 V2 2.062941 1_555
O24 P5 1.540514 1_556
O24 V4 2.054637 1_555
O25 P4 1.549437 1_555
O25 V3 2.062427 1_565
O26 P3 1.573433 1_555
O27 P5 1.557743 1_555
O28 P6 1.544738 1_554
O29 P8 1.572701 1_555
O29 V4 2.043354 1_555
O30 P7 1.570301 1_555
O31 P7 1.537540 1_555
O31 V3 1.912168 1_555
O32 P8 1.562508 1_555
O32 V3 2.115766 1_555
O33 P6 1.551345 1_555
O33 V4 2.028339 1_555
O34 P8 1.501869 1_555
O35 P7 1.548540 1_565
O36 P10 1.549587 1_555
O37 P9 1.504936 1_555
O38 P11 1.560048 1_555
O38 V3 2.007980 1_565
O39 P9 1.558870 1_555
O39 V4 2.116955 1_555
O40 P9 1.573550 1_545
O40 V3 2.037334 1_555
O41 P10 1.531209 1_555
O41 V4 1.928026 1_554
O42 P10 1.578825 1_555
O43 P11 1.536396 1_555
O44 P1 1.545074 1_455
O44 V4 2.078675 1_555
O45 P0 1.567240 1_455
O46 P2 1.567754 1_455
O47 P0 1.542692 1_455
O47 V3 2.048226 1_555
