# generated using pymatgen
data_ZnNi9O10
_symmetry_space_group_name_H-M   'P 1'
_cell_length_a   5.19494900
_cell_length_b   5.99848105
_cell_length_c   6.70847378
_cell_angle_alpha   77.09430951
_cell_angle_beta   75.01823849
_cell_angle_gamma   73.21405542
_symmetry_Int_Tables_number   1
_chemical_formula_structural   ZnNi9O10
_chemical_formula_sum   'Zn1 Ni9 O10'
_cell_volume   190.82250647
_cell_formula_units_Z   1
loop_
 _symmetry_equiv_pos_site_id
 _symmetry_equiv_pos_as_xyz
  1  'x, y, z'
loop_
 _atom_site_type_symbol
 _atom_site_label
 _atom_site_symmetry_multiplicity
 _atom_site_fract_x
 _atom_site_fract_y
 _atom_site_fract_z
 _atom_site_occupancy
  Zn  Zn0  1  0.00000000  0.50000000  0.00000000  1
  Ni  Ni0  1  0.39994800  0.09943100  0.20084600  1
  Ni  Ni1  1  0.40134700  0.59999300  0.20014200  1
  Ni  Ni2  1  0.80002800  0.19918400  0.40189300  1
  Ni  Ni3  1  0.20098200  0.29956600  0.59890200  1
  Ni  Ni4  1  0.79901800  0.70043400  0.40109800  1
  Ni  Ni5  1  0.19997200  0.80081600  0.59810700  1
  Ni  Ni6  1  0.59865300  0.40000700  0.79985800  1
  Ni  Ni7  1  0.60005200  0.90056900  0.79915400  1
  Ni  Ni8  1  0.00000000  0.00000000  0.00000000  1
  O  O0  1  0.69593400  0.29806100  0.10006500  1
  O  O1  1  0.10053500  0.39873700  0.30403900  1
  O  O2  1  0.69724400  0.80342400  0.10092700  1
  O  O3  1  0.09906200  0.90054000  0.29978500  1
  O  O4  1  0.90093800  0.09946000  0.70021500  1
  O  O5  1  0.50000000  0.50000000  0.50000000  1
  O  O6  1  0.30275600  0.19657600  0.89907300  1
  O  O7  1  0.89946500  0.60126300  0.69596100  1
  O  O8  1  0.50000000  0.00000000  0.50000000  1
  O  O9  1  0.30406600  0.70193900  0.89993500  1
loop_
_geom_bond_atom_site_label_1
_geom_bond_atom_site_label_2
_geom_bond_distance
_geom_bond_site_symmetry_2
Ni0 O2 2.097569 1_545
Ni0 O0 2.098070 1_555
Ni0 O8 2.116359 1_555
Ni0 O3 2.119938 1_545
Ni0 O1 2.123085 1_555
Ni0 O6 2.127068 1_554
Ni1 O9 2.117276 1_554
Ni1 O0 2.117541 1_555
Ni1 O5 2.117880 1_555
Ni1 O2 2.118166 1_555
Ni1 O3 2.126829 1_555
Ni1 O1 2.129765 1_555
Ni2 O4 2.112893 1_555
Ni2 O3 2.117121 1_645
Ni2 O8 2.117554 1_555
Ni2 O5 2.119942 1_555
Ni2 O1 2.121168 1_655
Ni2 O0 2.142066 1_555
Ni3 O1 2.089909 1_555
Ni3 O8 2.114153 1_555
Ni3 O5 2.118554 1_555
Ni3 O4 2.121516 1_455
Ni3 O7 2.124690 1_455
Ni3 O6 2.126554 1_555
Ni4 O7 2.089909 1_555
Ni4 O8 2.114153 1_565
Ni4 O5 2.118554 1_555
Ni4 O3 2.121516 1_655
Ni4 O1 2.124690 1_655
Ni4 O2 2.126554 1_555
Ni5 O3 2.112893 1_555
Ni5 O4 2.117121 1_465
Ni5 O8 2.117554 1_565
Ni5 O5 2.119942 1_555
Ni5 O7 2.121168 1_455
Ni5 O9 2.142066 1_555
Ni6 O0 2.117276 1_556
Ni6 O9 2.117541 1_555
Ni6 O5 2.117880 1_555
Ni6 O6 2.118166 1_555
Ni6 O4 2.126829 1_555
Ni6 O7 2.129765 1_555
Ni7 O6 2.097569 1_565
Ni7 O9 2.098070 1_555
Ni7 O8 2.116359 1_565
Ni7 O4 2.119938 1_565
Ni7 O7 2.123085 1_555
Ni7 O2 2.127068 1_556
Ni8 O6 2.118144 1_554
Ni8 O2 2.118144 1_445
Ni8 O4 2.118277 1_454
Ni8 O3 2.118277 1_545
Ni8 O0 2.121099 1_455
Ni8 O9 2.121099 1_544
O0 Zn0 2.146349 1_655
O1 Zn0 2.148478 1_555
O2 Zn0 2.142728 1_655
O6 Zn0 2.142728 1_556
O7 Zn0 2.148478 1_656
O9 Zn0 2.146349 1_556
