# generated using pymatgen
data_Li10FeNi9O20
_symmetry_space_group_name_H-M   'P 1'
_cell_length_a   6.48520500
_cell_length_b   7.67389399
_cell_length_c   7.69378250
_cell_angle_alpha   65.43439931
_cell_angle_beta   89.20309810
_cell_angle_gamma   89.61196470
_symmetry_Int_Tables_number   1
_chemical_formula_structural   Li10FeNi9O20
_chemical_formula_sum   'Li10 Fe1 Ni9 O20'
_cell_volume   348.20347490
_cell_formula_units_Z   1
loop_
 _symmetry_equiv_pos_site_id
 _symmetry_equiv_pos_as_xyz
  1  'x, y, z'
loop_
 _atom_site_type_symbol
 _atom_site_label
 _atom_site_symmetry_multiplicity
 _atom_site_fract_x
 _atom_site_fract_y
 _atom_site_fract_z
 _atom_site_occupancy
  Li  Li0  1  0.30089800  0.69992600  0.69988800  1
  Li  Li1  1  0.80184100  0.70540700  0.20378300  1
  Li  Li2  1  0.10247300  0.89967800  0.90289800  1
  Li  Li3  1  0.89752700  0.10032200  0.09710200  1
  Li  Li4  1  0.59581700  0.90364700  0.40125900  1
  Li  Li5  1  0.40418300  0.09635300  0.59874100  1
  Li  Li6  1  0.19815900  0.29459300  0.79621700  1
  Li  Li7  1  0.00000000  0.50000000  0.00000000  1
  Li  Li8  1  0.69910200  0.30007400  0.30011200  1
  Li  Li9  1  0.50000000  0.50000000  0.50000000  1
  Fe  Fe0  1  0.00000000  0.00000000  0.50000000  1
  Ni  Ni0  1  0.69762700  0.79865400  0.79976800  1
  Ni  Ni1  1  0.20033300  0.80046300  0.29805100  1
  Ni  Ni2  1  0.50000000  0.00000000  0.00000000  1
  Ni  Ni3  1  0.30237300  0.20134600  0.20023200  1
  Ni  Ni4  1  0.79966700  0.19953700  0.70194900  1
  Ni  Ni5  1  0.10091900  0.40312600  0.39901800  1
  Ni  Ni6  1  0.60068300  0.39906800  0.90154000  1
  Ni  Ni7  1  0.39931700  0.60093200  0.09846000  1
  Ni  Ni8  1  0.89908100  0.59687400  0.60098200  1
  O  O0  1  0.12292600  0.64534600  0.14830200  1
  O  O1  1  0.98796600  0.74142000  0.73647300  1
  O  O2  1  0.60951300  0.62642100  0.67124900  1
  O  O3  1  0.48584400  0.74704700  0.23348400  1
  O  O4  1  0.91016100  0.84981300  0.35323800  1
  O  O5  1  0.40542100  0.83257100  0.87356300  1
  O  O6  1  0.08983900  0.15018700  0.64676200  1
  O  O7  1  0.29516700  0.95182400  0.44496800  1
  O  O8  1  0.22380200  0.04720900  0.05251100  1
  O  O9  1  0.77619800  0.95279100  0.94748900  1
  O  O10  1  0.51415600  0.25295300  0.76651600  1
  O  O11  1  0.01203400  0.25858000  0.26352700  1
  O  O12  1  0.70483300  0.04817600  0.55503200  1
  O  O13  1  0.59457900  0.16742900  0.12643700  1
  O  O14  1  0.87707400  0.35465400  0.85169800  1
  O  O15  1  0.39048700  0.37357900  0.32875100  1
  O  O16  1  0.32647500  0.45425000  0.95719000  1
  O  O17  1  0.67352500  0.54575000  0.04281000  1
  O  O18  1  0.18256500  0.54590100  0.53635500  1
  O  O19  1  0.81743500  0.45409900  0.46364500  1
loop_
_geom_bond_atom_site_label_1
_geom_bond_atom_site_label_2
_geom_bond_distance
_geom_bond_site_symmetry_2
Li0 O1 2.085445 1_455
Li0 O16 2.098205 1_555
Li0 O7 2.105575 1_555
Li0 O5 2.108684 1_555
Li0 O2 2.109084 1_555
Li0 O18 2.201062 1_555
Li1 O4 2.033765 1_555
Li1 O3 2.095899 1_555
Li1 O9 2.100517 1_554
Li1 O19 2.126909 1_555
Li1 O0 2.203742 1_655
Li1 O17 2.243117 1_555
Li2 O5 2.060753 1_555
Li2 O0 2.081140 1_556
Li2 O8 2.084872 1_566
Li2 O6 2.106703 1_565
Li2 O9 2.201250 1_455
Li2 O1 2.235511 1_455
Li3 O13 2.060753 1_555
Li3 O14 2.081140 1_554
Li3 O9 2.084872 1_544
Li3 O4 2.106703 1_545
Li3 O8 2.201250 1_655
Li3 O11 2.235511 1_655
Li4 O7 2.031446 1_555
Li4 O12 2.062662 1_565
Li4 O4 2.134842 1_555
Li4 O3 2.223972 1_555
Li4 O13 2.238271 1_565
Li4 O2 2.275274 1_555
Li5 O12 2.031446 1_555
Li5 O7 2.062662 1_545
Li5 O6 2.134842 1_555
Li5 O10 2.223972 1_555
Li5 O5 2.238271 1_545
Li5 O15 2.275274 1_555
Li6 O6 2.033765 1_555
Li6 O10 2.095899 1_555
Li6 O8 2.100517 1_556
Li6 O18 2.126909 1_555
Li6 O14 2.203742 1_455
Li6 O16 2.243117 1_555
Li7 O0 2.068085 1_555
Li7 O14 2.068085 1_454
Li7 O11 2.104378 1_555
Li7 O1 2.104378 1_454
Li7 O16 2.186596 1_554
Li7 O17 2.186596 1_455
Li8 O11 2.085445 1_655
Li8 O17 2.098205 1_555
Li8 O12 2.105575 1_555
Li8 O13 2.108684 1_555
Li8 O15 2.109084 1_555
Li8 O19 2.201062 1_555
Li9 O2 2.068739 1_555
Li9 O15 2.068739 1_555
Li9 O19 2.120460 1_555
Li9 O18 2.120460 1_555
Li9 O3 2.139574 1_555
Li9 O10 2.139574 1_555
Fe0 O6 2.013005 1_555
Fe0 O4 2.013005 1_445
Fe0 O7 2.019456 1_545
Fe0 O12 2.019456 1_455
Fe0 O1 2.061573 1_445
Fe0 O11 2.061573 1_555
Ni0 O5 2.016791 1_555
Ni0 O9 2.022987 1_555
Ni0 O1 2.028922 1_555
Ni0 O2 2.040523 1_555
Ni0 O12 2.053063 1_565
Ni0 O17 2.065450 1_556
Ni1 O4 1.991679 1_455
Ni1 O3 1.994156 1_555
Ni1 O7 2.031196 1_555
Ni1 O0 2.039818 1_555
Ni1 O8 2.049149 1_565
Ni1 O18 2.051852 1_555
Ni2 O8 1.896218 1_555
Ni2 O9 1.896218 1_544
Ni2 O13 2.009925 1_555
Ni2 O5 2.009925 1_544
Ni2 O10 2.025310 1_554
Ni2 O3 2.025310 1_545
Ni3 O13 2.016791 1_555
Ni3 O8 2.022987 1_555
Ni3 O11 2.028922 1_555
Ni3 O15 2.040523 1_555
Ni3 O7 2.053063 1_545
Ni3 O16 2.065450 1_554
Ni4 O6 1.991679 1_655
Ni4 O10 1.994156 1_555
Ni4 O12 2.031196 1_555
Ni4 O14 2.039818 1_555
Ni4 O9 2.049149 1_545
Ni4 O19 2.051852 1_555
Ni5 O18 1.892958 1_555
Ni5 O11 1.906871 1_555
Ni5 O19 1.976536 1_455
Ni5 O15 1.984473 1_555
Ni5 O0 2.052066 1_555
Ni5 O6 2.080326 1_555
Ni6 O14 1.886101 1_555
Ni6 O13 1.896564 1_556
Ni6 O2 1.901252 1_555
Ni6 O16 1.909017 1_555
Ni6 O10 1.909081 1_555
Ni6 O17 1.926207 1_556
Ni7 O0 1.886101 1_555
Ni7 O5 1.896564 1_554
Ni7 O15 1.901252 1_555
Ni7 O17 1.909017 1_555
Ni7 O3 1.909081 1_555
Ni7 O16 1.926207 1_554
Ni8 O19 1.892958 1_555
Ni8 O1 1.906871 1_555
Ni8 O18 1.976536 1_655
Ni8 O2 1.984473 1_555
Ni8 O14 2.052066 1_555
Ni8 O4 2.080326 1_555
