# generated using pymatgen
data_Li2HfO3
_symmetry_space_group_name_H-M   'P 1'
_cell_length_a   5.20041164
_cell_length_b   5.20041164
_cell_length_c   5.32889506
_cell_angle_alpha   78.84351462
_cell_angle_beta   101.15648538
_cell_angle_gamma   61.69300740
_symmetry_Int_Tables_number   1
_chemical_formula_structural   Li2HfO3
_chemical_formula_sum   'Li4 Hf2 O6'
_cell_volume   117.50161647
_cell_formula_units_Z   2
loop_
 _symmetry_equiv_pos_site_id
 _symmetry_equiv_pos_as_xyz
  1  'x, y, z'
loop_
 _atom_site_type_symbol
 _atom_site_label
 _atom_site_symmetry_multiplicity
 _atom_site_fract_x
 _atom_site_fract_y
 _atom_site_fract_z
 _atom_site_occupancy
  Li  Li0  1  0.56502002  0.58554221  0.49372938  1
  Li  Li1  1  0.25169937  0.26482903  0.49166897  1
  Li  Li2  1  0.41445779  0.43497998  0.99372938  1
  Li  Li3  1  0.73517097  0.74830063  0.99166897  1
  Hf  Hf0  1  0.90006579  0.91736720  0.49046324  1
  Hf  Hf1  1  0.08263280  0.09993421  0.99046324  1
  O  O0  1  0.29715231  0.85445496  0.75320268  1
  O  O1  1  0.14554504  0.70284769  0.25320268  1
  O  O2  1  0.99118037  0.50887476  0.74100534  1
  O  O3  1  0.68611900  0.16256671  0.72773139  1
  O  O4  1  0.49112524  0.00881963  0.24100534  1
  O  O5  1  0.83743329  0.31388100  0.22773139  1
loop_
_geom_bond_atom_site_label_1
_geom_bond_atom_site_label_2
_geom_bond_distance
_geom_bond_site_symmetry_2
Li0 O3 2.027531 1_555
Li0 O1 2.031508 1_555
Li0 O2 2.153018 1_555
Li0 O4 2.158019 1_565
Li0 O0 2.335419 1_555
Li0 O5 2.380326 1_555
Li1 O3 2.114472 1_555
Li1 O1 2.126989 1_555
Li1 O0 2.189930 1_545
Li1 O5 2.202709 1_455
Li1 O4 2.206067 1_555
Li1 O2 2.220380 1_455
Li2 O5 2.027531 1_556
Li2 O0 2.031508 1_555
Li2 O4 2.153018 1_556
Li2 O2 2.158019 1_455
Li2 O1 2.335419 1_556
Li2 O3 2.380326 1_555
Li3 O5 2.114472 1_556
Li3 O0 2.126989 1_555
Li3 O1 2.189930 1_656
Li3 O3 2.202709 1_565
Li3 O2 2.206067 1_555
Li3 O4 2.220380 1_566
Hf0 O4 2.053805 1_565
Hf0 O2 2.054950 1_555
Hf0 O3 2.070099 1_565
Hf0 O1 2.071847 1_655
Hf0 O5 2.094666 1_565
Hf0 O0 2.096371 1_655
Hf1 O2 2.053805 1_455
Hf1 O4 2.054950 1_556
Hf1 O5 2.070099 1_456
Hf1 O0 2.071847 1_545
Hf1 O3 2.094666 1_455
Hf1 O1 2.096371 1_546
