# generated using pymatgen
data_Li8Mn3Fe5(BO3)8
_symmetry_space_group_name_H-M   'P 1'
_cell_length_a   6.00731200
_cell_length_b   9.72835133
_cell_length_c   9.76905267
_cell_angle_alpha   64.98357489
_cell_angle_beta   79.56472713
_cell_angle_gamma   78.59927332
_symmetry_Int_Tables_number   1
_chemical_formula_structural   Li8Mn3Fe5(BO3)8
_chemical_formula_sum   'Li8 Mn3 Fe5 B8 O24'
_cell_volume   504.08164611
_cell_formula_units_Z   1
loop_
 _symmetry_equiv_pos_site_id
 _symmetry_equiv_pos_as_xyz
  1  'x, y, z'
loop_
 _atom_site_type_symbol
 _atom_site_label
 _atom_site_symmetry_multiplicity
 _atom_site_fract_x
 _atom_site_fract_y
 _atom_site_fract_z
 _atom_site_occupancy
  Li  Li0  1  0.04694000  0.46576600  0.81531700  1
  Li  Li1  1  0.04291000  0.96468900  0.31140600  1
  Li  Li2  1  0.45609100  0.03432000  0.18770400  1
  Li  Li3  1  0.54262500  0.46676700  0.31225900  1
  Li  Li4  1  0.45508800  0.53396400  0.68714000  1
  Li  Li5  1  0.54434900  0.96628700  0.81406800  1
  Li  Li6  1  0.95431300  0.03547500  0.68548000  1
  Li  Li7  1  0.95595200  0.53449300  0.18851200  1
  Mn  Mn0  1  0.31488400  0.29460200  0.62326100  1
  Mn  Mn1  1  0.68589300  0.20533900  0.87786600  1
  Mn  Mn2  1  0.81414400  0.79424200  0.62293400  1
  Fe  Fe0  1  0.18216300  0.20274600  0.37227700  1
  Fe  Fe1  1  0.31683300  0.79112700  0.12239600  1
  Fe  Fe2  1  0.18220800  0.70710000  0.87175100  1
  Fe  Fe3  1  0.81729000  0.29594000  0.12942000  1
  Fe  Fe4  1  0.68107300  0.70796100  0.36895600  1
  B  B0  1  0.33320200  0.36825200  0.04165500  1
  B  B1  1  0.16939900  0.13072700  0.96486100  1
  B  B2  1  0.16483700  0.63446200  0.45977500  1
  B  B3  1  0.33392700  0.86701400  0.53918300  1
  B  B4  1  0.66568500  0.13281600  0.45964100  1
  B  B5  1  0.83083300  0.36844500  0.53709100  1
  B  B6  1  0.83784600  0.86607600  0.03756800  1
  B  B7  1  0.66781000  0.63136900  0.96220800  1
  O  O0  1  0.18086800  0.01165000  0.10662200  1
  O  O1  1  0.01080400  0.24741400  0.56117300  1
  O  O2  1  0.01613900  0.74375000  0.06373800  1
  O  O3  1  0.15901900  0.36531600  0.15849200  1
  O  O4  1  0.17545400  0.51825000  0.60324700  1
  O  O5  1  0.51281300  0.24728600  0.06842900  1
  O  O6  1  0.16594400  0.86456800  0.65887000  1
  O  O7  1  0.33954600  0.13416700  0.84650600  1
  O  O8  1  0.33833400  0.63866100  0.34262700  1
  O  O9  1  0.48582900  0.25332900  0.43163700  1
  O  O10  1  0.32396100  0.48634500  0.89917800  1
  O  O11  1  0.31877700  0.98633300  0.39823000  1
  O  O12  1  0.67544400  0.01652700  0.60334500  1
  O  O13  1  0.67856100  0.51267600  0.10397000  1
  O  O14  1  0.51193100  0.74566700  0.56119400  1
  O  O15  1  0.66006900  0.36531100  0.65513100  1
  O  O16  1  0.66727100  0.86518700  0.15571300  1
  O  O17  1  0.83914200  0.13368100  0.34298700  1
  O  O18  1  0.48666300  0.75241000  0.93843300  1
  O  O19  1  0.81907800  0.48693300  0.39541600  1
  O  O20  1  0.83891100  0.63519800  0.84498400  1
  O  O21  1  0.98984300  0.25229700  0.94012100  1
  O  O22  1  0.98321700  0.75436400  0.43217200  1
  O  O23  1  0.82609000  0.98270200  0.89505200  1
loop_
_geom_bond_atom_site_label_1
_geom_bond_atom_site_label_2
_geom_bond_distance
_geom_bond_site_symmetry_2
Li0 O20 1.954759 1_455
Li0 O4 1.957184 1_555
Li0 O21 1.976241 1_455
Li0 O10 2.060324 1_555
Li1 O0 1.916726 1_565
Li1 O17 1.947550 1_465
Li1 O22 1.949934 1_455
Li1 O11 2.075650 1_555
Li2 O11 1.963112 1_545
Li2 O5 1.964623 1_555
Li2 O16 1.969881 1_545
Li2 O0 2.043508 1_555
Li3 O13 1.944309 1_555
Li3 O8 1.966441 1_555
Li3 O9 1.968710 1_555
Li3 O19 2.051534 1_555
Li4 O15 1.949805 1_555
Li4 O14 1.963353 1_555
Li4 O10 1.966585 1_555
Li4 O4 2.055027 1_555
Li5 O7 1.945130 1_565
Li5 O12 1.952108 1_565
Li5 O18 1.979876 1_555
Li5 O23 2.052981 1_555
Li6 O23 1.935079 1_545
Li6 O1 1.962311 1_655
Li6 O6 1.964285 1_645
Li6 O12 2.053868 1_555
Li7 O19 1.932109 1_555
Li7 O3 1.941063 1_655
Li7 O2 1.947656 1_655
Li7 O13 2.071370 1_555
Mn0 O7 2.088307 1_555
Mn0 O4 2.110135 1_555
Mn0 O9 2.120476 1_555
Mn0 O1 2.209943 1_555
Mn0 O15 2.418469 1_555
Mn1 O15 2.084098 1_555
Mn1 O23 2.109765 1_545
Mn1 O5 2.118211 1_556
Mn1 O21 2.208973 1_555
Mn1 O7 2.425290 1_555
Mn2 O20 2.075785 1_555
Mn2 O12 2.098231 1_565
Mn2 O22 2.103566 1_555
Mn2 O14 2.204534 1_555
Mn2 O6 2.470053 1_655
Fe0 O3 2.026585 1_555
Fe0 O11 2.027589 1_545
Fe0 O1 2.113526 1_555
Fe0 O9 2.210345 1_555
Fe0 O17 2.388109 1_455
Fe1 O18 2.041774 1_554
Fe1 O8 2.042410 1_555
Fe1 O0 2.089631 1_565
Fe1 O2 2.175137 1_555
Fe1 O16 2.470430 1_555
Fe2 O6 2.000303 1_555
Fe2 O10 2.069310 1_555
Fe2 O2 2.094552 1_556
Fe2 O18 2.226406 1_555
Fe2 O20 2.393961 1_455
Fe3 O17 2.023295 1_555
Fe3 O13 2.034470 1_555
Fe3 O21 2.114290 1_554
Fe3 O5 2.213634 1_555
Fe3 O3 2.381495 1_655
Fe4 O16 2.000904 1_555
Fe4 O19 2.068924 1_555
Fe4 O14 2.106618 1_555
Fe4 O22 2.201231 1_555
Fe4 O8 2.376376 1_555
B0 O10 1.382245 1_554
B0 O3 1.396451 1_555
B0 O5 1.399069 1_555
B1 O0 1.382299 1_556
B1 O7 1.391183 1_555
B1 O21 1.403202 1_455
B2 O4 1.382164 1_555
B2 O8 1.393870 1_555
B2 O22 1.400402 1_455
B3 O11 1.379695 1_555
B3 O6 1.394468 1_555
B3 O14 1.397440 1_555
B4 O12 1.383640 1_555
B4 O17 1.396330 1_555
B4 O9 1.397051 1_555
B5 O19 1.379552 1_555
B5 O15 1.391800 1_555
B5 O1 1.401844 1_655
B6 O23 1.377889 1_554
B6 O16 1.396000 1_555
B6 O2 1.402387 1_655
B7 O13 1.380519 1_556
B7 O20 1.386345 1_555
B7 O18 1.406548 1_555
