# generated using pymatgen
data_Mn3(O2F)2
_symmetry_space_group_name_H-M   'P 1'
_cell_length_a   3.03833500
_cell_length_b   4.67607600
_cell_length_c   13.95335600
_cell_angle_alpha   90.00000000
_cell_angle_beta   90.00000000
_cell_angle_gamma   90.00000000
_symmetry_Int_Tables_number   1
_chemical_formula_structural   Mn3(O2F)2
_chemical_formula_sum   'Mn6 O8 F4'
_cell_volume   198.24210128
_cell_formula_units_Z   2
loop_
 _symmetry_equiv_pos_site_id
 _symmetry_equiv_pos_as_xyz
  1  'x, y, z'
loop_
 _atom_site_type_symbol
 _atom_site_label
 _atom_site_symmetry_multiplicity
 _atom_site_fract_x
 _atom_site_fract_y
 _atom_site_fract_z
 _atom_site_occupancy
  Mn  Mn0  1  0.50000000  0.92462200  0.67377600  1
  Mn  Mn1  1  0.50000000  0.00000000  0.00000000  1
  Mn  Mn2  1  0.50000000  0.07537800  0.32622400  1
  Mn  Mn3  1  0.00000000  0.42462200  0.82622400  1
  Mn  Mn4  1  0.00000000  0.57537800  0.17377600  1
  Mn  Mn5  1  0.00000000  0.50000000  0.50000000  1
  O  O0  1  0.00000000  0.17865800  0.93483500  1
  O  O1  1  0.00000000  0.26120900  0.26691100  1
  O  O2  1  0.50000000  0.23879100  0.76691100  1
  O  O3  1  0.50000000  0.32134200  0.43483500  1
  O  O4  1  0.50000000  0.76120900  0.23308900  1
  O  O5  1  0.50000000  0.67865800  0.56516500  1
  O  O6  1  0.00000000  0.73879100  0.73308900  1
  O  O7  1  0.00000000  0.82134200  0.06516500  1
  F  F0  1  0.00000000  0.14651700  0.60831000  1
  F  F1  1  0.50000000  0.35348300  0.10831000  1
  F  F2  1  0.50000000  0.64651700  0.89169000  1
  F  F3  1  0.00000000  0.85348300  0.39169000  1
loop_
_geom_bond_atom_site_label_1
_geom_bond_atom_site_label_2
_geom_bond_distance
_geom_bond_site_symmetry_2
Mn0 O5 1.902509 1_555
Mn0 O6 1.935952 1_555
Mn0 O6 1.935952 1_655
Mn0 O2 1.961380 1_565
Mn1 O7 1.957694 1_545
Mn1 O7 1.957694 1_645
Mn1 O0 1.957694 1_554
Mn1 O0 1.957694 1_654
Mn2 O3 1.902509 1_555
Mn2 O1 1.935952 1_655
Mn2 O1 1.935952 1_555
Mn2 O4 1.961380 1_545
Mn3 O0 1.902509 1_555
Mn3 O2 1.935952 1_455
Mn3 O2 1.935952 1_555
Mn3 O6 1.961380 1_555
Mn4 O7 1.902509 1_555
Mn4 O4 1.935952 1_555
Mn4 O4 1.935952 1_455
Mn4 O1 1.961380 1_555
Mn5 O3 1.957694 1_555
Mn5 O3 1.957694 1_455
Mn5 O5 1.957694 1_455
Mn5 O5 1.957694 1_555
F0 Mn0 2.053998 1_445
F0 Mn0 2.053998 1_545
F0 Mn5 2.239668 1_555
F1 Mn4 2.053998 1_655
F1 Mn4 2.053998 1_555
F1 Mn1 2.239668 1_555
F2 Mn3 2.053998 1_655
F2 Mn3 2.053998 1_555
F2 Mn1 2.239668 1_566
F3 Mn2 2.053998 1_465
F3 Mn2 2.053998 1_565
F3 Mn5 2.239668 1_555
