# generated using pymatgen
data_Li2Mn(SiO3)2
_symmetry_space_group_name_H-M   'P 1'
_cell_length_a   16.24260008
_cell_length_b   12.60922459
_cell_length_c   11.17297119
_cell_angle_alpha   85.92848086
_cell_angle_beta   50.74582659
_cell_angle_gamma   43.32569255
_symmetry_Int_Tables_number   1
_chemical_formula_structural   Li2Mn(SiO3)2
_chemical_formula_sum   'Li12 Mn6 Si12 O36'
_cell_volume   827.37604730
_cell_formula_units_Z   6
loop_
 _symmetry_equiv_pos_site_id
 _symmetry_equiv_pos_as_xyz
  1  'x, y, z'
loop_
 _atom_site_type_symbol
 _atom_site_label
 _atom_site_symmetry_multiplicity
 _atom_site_fract_x
 _atom_site_fract_y
 _atom_site_fract_z
 _atom_site_occupancy
  Li  Li0  1  0.98739500  0.98739500  0.51260500  1
  Li  Li1  1  0.65548800  0.65548800  0.84451200  1
  Li  Li2  1  0.08294500  0.45058700  0.54634900  1
  Li  Li3  1  0.79970400  0.06757500  0.92129200  1
  Li  Li4  1  0.32870800  0.03857100  0.45029600  1
  Li  Li5  1  0.70365100  0.32988200  0.16705500  1
  Li  Li6  1  0.73739500  0.73739500  0.26260500  1
  Li  Li7  1  0.40548800  0.40548800  0.59451200  1
  Li  Li8  1  0.32988200  0.70365100  0.79941300  1
  Li  Li9  1  0.03857100  0.32870800  0.18242500  1
  Li  Li10  1  0.06757500  0.79970400  0.21142900  1
  Li  Li11  1  0.45058700  0.08294500  0.92011800  1
  Mn  Mn0  1  0.86780300  0.86780300  0.63219700  1
  Mn  Mn1  1  0.92013800  0.22808100  0.74649400  1
  Mn  Mn2  1  0.50350600  0.14471300  0.32986200  1
  Mn  Mn3  1  0.61780300  0.61780300  0.38219700  1
  Mn  Mn4  1  0.14471300  0.50350600  0.02191900  1
  Mn  Mn5  1  0.22808100  0.92013800  0.10528700  1
  Si  Si0  1  0.48567900  0.48567900  0.01432100  1
  Si  Si1  1  0.16385000  0.16385000  0.33615000  1
  Si  Si2  1  0.55883900  0.95698400  0.05423400  1
  Si  Si3  1  0.28846400  0.57940300  0.42973000  1
  Si  Si4  1  0.82027000  0.54759700  0.96153600  1
  Si  Si5  1  0.19576600  0.82005700  0.69116100  1
  Si  Si6  1  0.91385000  0.91385000  0.08615000  1
  Si  Si7  1  0.23567900  0.23567900  0.76432100  1
  Si  Si8  1  0.82005700  0.19576600  0.29301600  1
  Si  Si9  1  0.54759700  0.82027000  0.67059700  1
  Si  Si10  1  0.57940300  0.28846400  0.70240300  1
  Si  Si11  1  0.95698400  0.55883900  0.42994300  1
  O  O0  1  0.42593100  0.98466300  0.08530400  1
  O  O1  1  0.74698400  0.29209700  0.77591400  1
  O  O2  1  0.59704000  0.02347400  0.92815100  1
  O  O3  1  0.02896100  0.82802200  0.60421700  1
  O  O4  1  0.46990200  0.42087800  0.15832500  1
  O  O5  1  0.18535800  0.07832300  0.44561700  1
  O  O6  1  0.80317200  0.68051800  0.89096400  1
  O  O7  1  0.76311300  0.50452400  0.92361200  1
  O  O8  1  0.39772700  0.12280700  0.30445500  1
  O  O9  1  0.94554500  0.07498900  0.85227300  1
  O  O10  1  0.32638800  0.44124800  0.48688700  1
  O  O11  1  0.35903600  0.62465300  0.44682800  1
  O  O12  1  0.80438300  0.95929800  0.06464200  1
  O  O13  1  0.09167500  0.29910500  0.78009800  1
  O  O14  1  0.64578300  0.71120000  0.22103900  1
  O  O15  1  0.32184900  0.79866500  0.65296000  1
  O  O16  1  0.47408600  0.06499500  0.50301600  1
  O  O17  1  0.16469600  0.74589700  0.82406900  1
  O  O18  1  0.74589700  0.16469600  0.26533700  1
  O  O19  1  0.06499500  0.47408600  0.95790300  1
  O  O20  1  0.79866500  0.32184900  0.22652600  1
  O  O21  1  0.71120000  0.64578300  0.42197800  1
  O  O22  1  0.29910500  0.09167500  0.82912200  1
  O  O23  1  0.95929800  0.80438300  0.17167700  1
  O  O24  1  0.62465300  0.35903600  0.56948200  1
  O  O25  1  0.44124800  0.32638800  0.74547600  1
  O  O26  1  0.07498900  0.94554500  0.12719300  1
  O  O27  1  0.12280700  0.39772700  0.17501100  1
  O  O28  1  0.50452400  0.76311300  0.80875200  1
  O  O29  1  0.68051800  0.80317200  0.62534700  1
  O  O30  1  0.07832300  0.18535800  0.29070200  1
  O  O31  1  0.42087800  0.46990200  0.95089500  1
  O  O32  1  0.82802200  0.02896100  0.53880000  1
  O  O33  1  0.02347400  0.59704000  0.45133500  1
  O  O34  1  0.29209700  0.74698400  0.18500500  1
  O  O35  1  0.98466300  0.42593100  0.50410300  1
loop_
_geom_bond_atom_site_label_1
_geom_bond_atom_site_label_2
_geom_bond_distance
_geom_bond_site_symmetry_2
Li0 O34 1.975684 1_655
Li0 O1 1.975684 1_565
Li0 O32 2.037251 1_565
Li0 O3 2.037251 1_655
Li1 O28 2.082122 1_555
Li1 O7 2.082132 1_555
Li1 O35 2.177746 1_555
Li1 O0 2.177749 1_556
Li2 O8 1.970142 1_555
Li2 O33 1.973385 1_555
Li2 O6 2.038362 1_455
Li2 O35 2.136419 1_455
Li3 O3 2.000156 1_645
Li3 O12 2.031654 1_546
Li3 O9 2.053045 1_555
Li3 O4 2.134600 1_556
Li4 O14 2.000156 1_545
Li4 O5 2.031654 1_555
Li4 O8 2.053045 1_555
Li4 O13 2.134600 1_555
Li5 O9 1.970146 1_554
Li5 O20 1.973378 1_555
Li5 O11 2.038363 1_555
Li5 O18 2.136437 1_555
Li6 O16 1.975684 1_565
Li6 O19 1.975684 1_654
Li6 O14 2.037251 1_555
Li6 O21 2.037251 1_555
Li7 O25 2.082125 1_555
Li7 O10 2.082136 1_555
Li7 O17 2.177740 1_555
Li7 O18 2.177742 1_555
Li8 O26 1.970138 1_556
Li8 O15 1.973388 1_555
Li8 O24 2.038362 1_555
Li8 O17 2.136452 1_555
Li9 O21 2.000156 1_455
Li9 O30 2.031654 1_555
Li9 O27 2.053045 1_555
Li9 O22 2.134600 1_554
Li10 O32 2.000156 1_465
Li10 O23 2.031654 1_455
Li10 O26 2.053045 1_555
Li10 O31 2.134600 1_554
Li11 O27 1.970140 1_556
Li11 O2 1.973394 1_555
Li11 O29 2.038349 1_545
Li11 O0 2.136435 1_546
Mn0 O2 2.021547 1_565
Mn0 O33 2.021547 1_655
Mn0 O3 2.068239 1_655
Mn0 O32 2.068239 1_565
Mn1 O5 2.040480 1_655
Mn1 O7 2.056410 1_555
Mn1 O1 2.057750 1_555
Mn1 O9 2.104205 1_555
Mn2 O12 2.040480 1_545
Mn2 O10 2.056399 1_555
Mn2 O16 2.057750 1_555
Mn2 O8 2.104205 1_555
Mn3 O15 2.021547 1_555
Mn3 O20 2.021547 1_555
Mn3 O14 2.068239 1_555
Mn3 O21 2.068239 1_555
Mn4 O23 2.040480 1_455
Mn4 O25 2.056400 1_554
Mn4 O19 2.057750 1_554
Mn4 O27 2.104205 1_555
Mn5 O30 2.040480 1_565
Mn5 O28 2.056407 1_554
Mn5 O34 2.057750 1_555
Mn5 O26 2.104205 1_555
O0 Si2 1.695651 1_555
O0 Si1 1.699436 1_565
O1 Si0 1.615617 1_556
O2 Si2 1.598549 1_546
O3 Si3 1.624294 1_555
O4 Si3 1.690152 1_555
O4 Si0 1.708275 1_555
O5 Si1 1.608180 1_555
O6 Si2 1.686019 1_556
O6 Si4 1.708854 1_555
O7 Si4 1.612610 1_555
O8 Si2 1.626822 1_545
O9 Si5 1.626822 1_645
O10 Si3 1.612620 1_555
O11 Si5 1.686024 1_555
O11 Si3 1.708843 1_555
O12 Si6 1.608180 1_555
O13 Si4 1.690152 1_455
O13 Si7 1.708275 1_555
O14 Si4 1.624294 1_554
O15 Si5 1.598549 1_555
O16 Si7 1.615617 1_555
O17 Si5 1.695660 1_555
O17 Si6 1.699431 1_456
O18 Si8 1.695667 1_555
O18 Si6 1.699428 1_545
O19 Si7 1.615617 1_555
O20 Si8 1.598549 1_555
O21 Si9 1.624294 1_555
O22 Si9 1.690152 1_545
O22 Si7 1.708275 1_555
O23 Si6 1.608180 1_555
O24 Si8 1.686016 1_555
O24 Si10 1.708850 1_555
O25 Si10 1.612626 1_555
O26 Si8 1.626822 1_465
O27 Si11 1.626822 1_455
O28 Si9 1.612618 1_555
O29 Si11 1.686016 1_555
O29 Si9 1.708859 1_555
O30 Si1 1.608180 1_555
O31 Si10 1.690152 1_555
O31 Si0 1.708275 1_556
O32 Si10 1.624294 1_555
O33 Si11 1.598549 1_455
O34 Si0 1.615617 1_555
O35 Si11 1.695658 1_555
O35 Si1 1.699438 1_655
