# generated using pymatgen
data_Li2Fe2SiO6
_symmetry_space_group_name_H-M   'P 1'
_cell_length_a   5.35303000
_cell_length_b   8.20448947
_cell_length_c   8.20449352
_cell_angle_alpha   84.65453515
_cell_angle_beta   70.95987240
_cell_angle_gamma   109.04010584
_symmetry_Int_Tables_number   1
_chemical_formula_structural   Li2Fe2SiO6
_chemical_formula_sum   'Li4 Fe4 Si2 O12'
_cell_volume   313.84899085
_cell_formula_units_Z   2
loop_
 _symmetry_equiv_pos_site_id
 _symmetry_equiv_pos_as_xyz
  1  'x, y, z'
loop_
 _atom_site_type_symbol
 _atom_site_label
 _atom_site_symmetry_multiplicity
 _atom_site_fract_x
 _atom_site_fract_y
 _atom_site_fract_z
 _atom_site_occupancy
  Li  Li0  1  0.99999900  0.14172500  0.14172700  1
  Li  Li1  1  0.00000100  0.64172700  0.64172500  1
  Li  Li2  1  0.00000100  0.35828700  0.35828500  1
  Li  Li3  1  0.99999900  0.85828500  0.85828700  1
  Fe  Fe0  1  0.00000000  0.08492200  0.58492200  1
  Fe  Fe1  1  0.49999900  0.41507300  0.91507300  1
  Fe  Fe2  1  0.00000000  0.58491200  0.08491200  1
  Fe  Fe3  1  0.50000000  0.91508300  0.41508300  1
  Si  Si0  1  0.49999500  0.99999300  0.00000400  1
  Si  Si1  1  0.50000500  0.50000400  0.49999300  1
  O  O0  1  0.16581800  0.41582000  0.08417500  1
  O  O1  1  0.16581800  0.91582700  0.58418100  1
  O  O2  1  0.83418200  0.58417500  0.91582000  1
  O  O3  1  0.83418200  0.08418100  0.41582700  1
  O  O4  1  0.21974100  0.83108100  0.01359800  1
  O  O5  1  0.21974000  0.33108800  0.51359700  1
  O  O6  1  0.59771100  0.48639400  0.66891400  1
  O  O7  1  0.59770200  0.98639300  0.16892000  1
  O  O8  1  0.40229000  0.16891400  0.98639400  1
  O  O9  1  0.40229800  0.66892000  0.48639400  1
  O  O10  1  0.78025900  0.51359700  0.33108100  1
  O  O11  1  0.78026000  0.01359700  0.83108800  1
loop_
_geom_bond_atom_site_label_1
_geom_bond_atom_site_label_2
_geom_bond_distance
_geom_bond_site_symmetry_2
Li0 O8 2.038221 1_654
Li0 O7 2.038235 1_545
Li0 O0 2.072269 1_655
Li0 O3 2.072309 1_555
Li1 O6 2.038216 1_455
Li1 O9 2.038233 1_555
Li1 O2 2.072270 1_455
Li1 O1 2.072308 1_555
Li2 O5 2.037982 1_555
Li2 O10 2.037991 1_455
Li2 O3 2.072354 1_455
Li2 O0 2.072386 1_555
Li3 O11 2.037982 1_565
Li3 O4 2.037999 1_656
Li3 O1 2.072354 1_655
Li3 O2 2.072385 1_555
Fe0 O1 1.874605 1_545
Fe0 O3 1.874606 1_455
Fe0 O5 1.893609 1_555
Fe0 O11 1.893610 1_455
Fe1 O0 1.874675 1_556
Fe1 O2 1.874683 1_555
Fe1 O6 1.893592 1_555
Fe1 O8 1.893594 1_555
Fe2 O0 1.874586 1_555
Fe2 O2 1.874587 1_454
Fe2 O4 1.893630 1_555
Fe2 O10 1.893631 1_455
Fe3 O1 1.874655 1_555
Fe3 O3 1.874655 1_565
Fe3 O7 1.893621 1_555
Fe3 O9 1.893621 1_555
O4 Si0 1.639861 1_555
O5 Si1 1.639890 1_555
O6 Si1 1.639813 1_555
O7 Si0 1.639770 1_555
O8 Si0 1.639809 1_546
O9 Si1 1.639769 1_555
O10 Si1 1.639864 1_555
O11 Si0 1.639890 1_546
