# generated using pymatgen
data_Li5InO4
_symmetry_space_group_name_H-M   'P 1'
_cell_length_a   9.18152576
_cell_length_b   9.29209946
_cell_length_c   9.45596144
_cell_angle_alpha   90.00000000
_cell_angle_beta   90.00000000
_cell_angle_gamma   90.00000000
_symmetry_Int_Tables_number   1
_chemical_formula_structural   Li5InO4
_chemical_formula_sum   'Li40 In8 O32'
_cell_volume   806.74150189
_cell_formula_units_Z   8
loop_
 _symmetry_equiv_pos_site_id
 _symmetry_equiv_pos_as_xyz
  1  'x, y, z'
loop_
 _atom_site_type_symbol
 _atom_site_label
 _atom_site_symmetry_multiplicity
 _atom_site_fract_x
 _atom_site_fract_y
 _atom_site_fract_z
 _atom_site_occupancy
  Li  Li0  1  0.11418292  0.59695147  0.13756228  1
  Li  Li1  1  0.11418292  0.90304853  0.63756228  1
  Li  Li2  1  0.12177082  0.11280367  0.83997305  1
  Li  Li3  1  0.12177082  0.38719633  0.33997305  1
  Li  Li4  1  0.12806431  0.85949660  0.38652283  1
  Li  Li5  1  0.12806431  0.64050340  0.88652283  1
  Li  Li6  1  0.14668669  0.86510110  0.12126620  1
  Li  Li7  1  0.14668669  0.63489890  0.62126620  1
  Li  Li8  1  0.15908775  0.11643974  0.39942944  1
  Li  Li9  1  0.15908775  0.38356026  0.89942944  1
  Li  Li10  1  0.34091225  0.88356026  0.89942944  1
  Li  Li11  1  0.34091225  0.61643974  0.39942944  1
  Li  Li12  1  0.35331331  0.36510110  0.12126620  1
  Li  Li13  1  0.35331331  0.13489890  0.62126620  1
  Li  Li14  1  0.37193569  0.35949660  0.38652283  1
  Li  Li15  1  0.37193569  0.14050340  0.88652283  1
  Li  Li16  1  0.37822918  0.88719633  0.33997305  1
  Li  Li17  1  0.37822918  0.61280367  0.83997305  1
  Li  Li18  1  0.38581708  0.09695147  0.13756228  1
  Li  Li19  1  0.38581708  0.40304853  0.63756228  1
  Li  Li20  1  0.61418292  0.59695147  0.36243772  1
  Li  Li21  1  0.61418292  0.90304853  0.86243772  1
  Li  Li22  1  0.62177082  0.11280367  0.66002695  1
  Li  Li23  1  0.62177082  0.38719633  0.16002695  1
  Li  Li24  1  0.62806431  0.64050340  0.61347717  1
  Li  Li25  1  0.62806431  0.85949660  0.11347717  1
  Li  Li26  1  0.64668669  0.63489890  0.87873380  1
  Li  Li27  1  0.64668669  0.86510110  0.37873380  1
  Li  Li28  1  0.65908775  0.11643974  0.10057056  1
  Li  Li29  1  0.65908775  0.38356026  0.60057056  1
  Li  Li30  1  0.84091225  0.61643974  0.10057056  1
  Li  Li31  1  0.84091225  0.88356026  0.60057056  1
  Li  Li32  1  0.85331331  0.36510110  0.37873380  1
  Li  Li33  1  0.85331331  0.13489890  0.87873380  1
  Li  Li34  1  0.87193569  0.14050340  0.61347717  1
  Li  Li35  1  0.87193569  0.35949660  0.11347717  1
  Li  Li36  1  0.87822918  0.61280367  0.66002695  1
  Li  Li37  1  0.87822918  0.88719633  0.16002695  1
  Li  Li38  1  0.88581708  0.09695147  0.36243772  1
  Li  Li39  1  0.88581708  0.40304853  0.86243772  1
  In  In0  1  0.09601281  0.14958861  0.12466556  1
  In  In1  1  0.09601281  0.35041139  0.62466556  1
  In  In2  1  0.40398719  0.64958861  0.12466556  1
  In  In3  1  0.40398719  0.85041139  0.62466556  1
  In  In4  1  0.59601281  0.14958861  0.37533444  1
  In  In5  1  0.59601281  0.35041139  0.87533444  1
  In  In6  1  0.90398719  0.64958861  0.37533444  1
  In  In7  1  0.90398719  0.85041139  0.87533444  1
  O  O0  1  0.99408291  0.23820632  0.46972969  1
  O  O1  1  0.99408291  0.26179368  0.96972969  1
  O  O2  1  0.02571606  0.98925697  0.25910161  1
  O  O3  1  0.02571606  0.51074303  0.75910161  1
  O  O4  1  0.23673888  0.02330473  0.00047302  1
  O  O5  1  0.23673888  0.47669527  0.50047302  1
  O  O6  1  0.25107651  0.24555564  0.25486730  1
  O  O7  1  0.25107651  0.25444436  0.75486730  1
  O  O8  1  0.24892349  0.74555564  0.25486730  1
  O  O9  1  0.24892349  0.75444436  0.75486730  1
  O  O10  1  0.26326112  0.52330473  0.00047302  1
  O  O11  1  0.26326112  0.97669527  0.50047302  1
  O  O12  1  0.47428394  0.48925697  0.25910161  1
  O  O13  1  0.47428394  0.01074303  0.75910161  1
  O  O14  1  0.50591709  0.73820632  0.46972969  1
  O  O15  1  0.50591709  0.76179368  0.96972969  1
  O  O16  1  0.49408291  0.23820632  0.03027031  1
  O  O17  1  0.49408291  0.26179368  0.53027031  1
  O  O18  1  0.52571606  0.98925697  0.24089839  1
  O  O19  1  0.52571606  0.51074303  0.74089839  1
  O  O20  1  0.73673888  0.02330473  0.49952698  1
  O  O21  1  0.73673888  0.47669527  0.99952698  1
  O  O22  1  0.75107651  0.24555564  0.24513270  1
  O  O23  1  0.75107651  0.25444436  0.74513270  1
  O  O24  1  0.74892349  0.74555564  0.24513270  1
  O  O25  1  0.74892349  0.75444436  0.74513270  1
  O  O26  1  0.76326112  0.52330473  0.49952698  1
  O  O27  1  0.76326112  0.97669527  0.99952698  1
  O  O28  1  0.97428394  0.48925697  0.24089839  1
  O  O29  1  0.97428394  0.01074303  0.74089839  1
  O  O30  1  0.00591709  0.73820632  0.03027031  1
  O  O31  1  0.00591709  0.76179368  0.53027031  1
loop_
_geom_bond_atom_site_label_1
_geom_bond_atom_site_label_2
_geom_bond_distance
_geom_bond_site_symmetry_2
Li0 O28 1.898981 1_455
Li0 O30 1.933968 1_555
Li0 O10 2.005555 1_555
Li0 O8 2.160464 1_555
Li1 O29 1.898981 1_465
Li1 O31 1.933968 1_555
Li1 O11 2.005555 1_555
Li1 O9 2.160464 1_555
Li2 O29 1.900210 1_455
Li2 O7 1.946627 1_555
Li2 O4 2.027122 1_556
Li2 O1 2.190105 1_455
Li3 O28 1.900210 1_455
Li3 O6 1.946627 1_555
Li3 O5 2.027122 1_555
Li3 O0 2.190105 1_455
Li4 O2 1.946444 1_555
Li4 O11 1.971763 1_555
Li4 O8 1.975392 1_555
Li4 O31 1.982320 1_555
Li5 O3 1.946444 1_555
Li5 O10 1.971763 1_556
Li5 O9 1.975392 1_555
Li5 O30 1.982320 1_556
Li6 O8 1.926414 1_555
Li6 O30 1.949668 1_555
Li6 O4 2.036986 1_565
Li6 O2 2.064790 1_555
Li7 O9 1.926414 1_555
Li7 O31 1.949668 1_555
Li7 O5 2.036986 1_555
Li7 O3 2.064790 1_555
Li8 O11 1.874540 1_545
Li8 O0 2.004328 1_455
Li8 O6 2.005338 1_555
Li8 O2 2.157992 1_545
Li9 O10 1.874540 1_556
Li9 O1 2.004328 1_455
Li9 O7 2.005338 1_555
Li9 O3 2.157992 1_555
Li10 O4 1.874540 1_566
Li10 O15 2.004328 1_555
Li10 O9 2.005338 1_555
Li10 O13 2.157992 1_565
Li11 O5 1.874540 1_555
Li11 O14 2.004328 1_555
Li11 O8 2.005338 1_555
Li11 O12 2.157992 1_555
Li12 O6 1.926414 1_555
Li12 O16 1.949668 1_555
Li12 O10 2.036986 1_555
Li12 O12 2.064790 1_555
Li13 O7 1.926414 1_555
Li13 O17 1.949668 1_555
Li13 O11 2.036986 1_545
Li13 O13 2.064790 1_555
Li14 O12 1.946444 1_555
Li14 O5 1.971763 1_555
Li14 O6 1.975392 1_555
Li14 O17 1.982320 1_555
Li15 O13 1.946444 1_555
Li15 O4 1.971763 1_556
Li15 O7 1.975392 1_555
Li15 O16 1.982320 1_556
Li16 O18 1.900210 1_555
Li16 O8 1.946627 1_555
Li16 O11 2.027122 1_555
Li16 O14 2.190105 1_555
Li17 O19 1.900210 1_555
Li17 O9 1.946627 1_555
Li17 O10 2.027122 1_556
Li17 O15 2.190105 1_555
Li18 O18 1.898981 1_545
Li18 O16 1.933968 1_555
Li18 O4 2.005555 1_555
Li18 O6 2.160464 1_555
Li19 O19 1.898981 1_555
Li19 O17 1.933968 1_555
Li19 O5 2.005555 1_555
Li19 O7 2.160464 1_555
Li20 O12 1.898981 1_555
Li20 O14 1.933968 1_555
Li20 O26 2.005555 1_555
Li20 O24 2.160464 1_555
Li21 O13 1.898981 1_565
Li21 O15 1.933968 1_555
Li21 O27 2.005555 1_555
Li21 O25 2.160464 1_555
Li22 O13 1.900210 1_555
Li22 O23 1.946627 1_555
Li22 O20 2.027122 1_555
Li22 O17 2.190105 1_555
Li23 O12 1.900210 1_555
Li23 O22 1.946627 1_555
Li23 O21 2.027122 1_554
Li23 O16 2.190105 1_555
Li24 O19 1.946444 1_555
Li24 O26 1.971763 1_555
Li24 O25 1.975392 1_555
Li24 O14 1.982320 1_555
Li25 O18 1.946444 1_555
Li25 O27 1.971763 1_554
Li25 O24 1.975392 1_555
Li25 O15 1.982320 1_554
Li26 O25 1.926414 1_555
Li26 O15 1.949668 1_555
Li26 O21 2.036986 1_555
Li26 O19 2.064790 1_555
Li27 O24 1.926414 1_555
Li27 O14 1.949668 1_555
Li27 O20 2.036986 1_565
Li27 O18 2.064790 1_555
Li28 O27 1.874540 1_544
Li28 O16 2.004328 1_555
Li28 O22 2.005338 1_555
Li28 O18 2.157992 1_545
Li29 O26 1.874540 1_555
Li29 O17 2.004328 1_555
Li29 O23 2.005338 1_555
Li29 O19 2.157992 1_555
Li30 O21 1.874540 1_554
Li30 O30 2.004328 1_655
Li30 O24 2.005338 1_555
Li30 O28 2.157992 1_555
Li31 O20 1.874540 1_565
Li31 O31 2.004328 1_655
Li31 O25 2.005338 1_555
Li31 O29 2.157992 1_565
Li32 O22 1.926414 1_555
Li32 O0 1.949668 1_555
Li32 O26 2.036986 1_555
Li32 O28 2.064790 1_555
Li33 O23 1.926414 1_555
Li33 O1 1.949668 1_555
Li33 O27 2.036986 1_545
Li33 O29 2.064790 1_555
Li34 O29 1.946444 1_555
Li34 O20 1.971763 1_555
Li34 O23 1.975392 1_555
Li34 O0 1.982320 1_555
Li35 O28 1.946444 1_555
Li35 O21 1.971763 1_554
Li35 O22 1.975392 1_555
Li35 O1 1.982320 1_554
Li36 O3 1.900210 1_655
Li36 O25 1.946627 1_555
Li36 O26 2.027122 1_555
Li36 O31 2.190105 1_655
Li37 O2 1.900210 1_655
Li37 O24 1.946627 1_555
Li37 O27 2.027122 1_554
Li37 O30 2.190105 1_655
Li38 O2 1.898981 1_645
Li38 O0 1.933968 1_555
Li38 O20 2.005555 1_555
Li38 O22 2.160464 1_555
Li39 O3 1.898981 1_655
Li39 O1 1.933968 1_555
Li39 O21 2.005555 1_555
Li39 O23 2.160464 1_555
In0 O1 2.027150 1_454
In0 O2 2.062073 1_545
In0 O6 2.082783 1_555
In0 O4 2.103701 1_555
In1 O0 2.027150 1_455
In1 O3 2.062073 1_555
In1 O7 2.082783 1_555
In1 O5 2.103701 1_555
In2 O15 2.027150 1_554
In2 O12 2.062073 1_555
In2 O8 2.082783 1_555
In2 O10 2.103701 1_555
In3 O14 2.027150 1_555
In3 O13 2.062073 1_565
In3 O9 2.082783 1_555
In3 O11 2.103701 1_555
In4 O17 2.027150 1_555
In4 O18 2.062073 1_545
In4 O22 2.082783 1_555
In4 O20 2.103701 1_555
In5 O16 2.027150 1_556
In5 O19 2.062073 1_555
In5 O23 2.082783 1_555
In5 O21 2.103701 1_555
In6 O31 2.027150 1_655
In6 O28 2.062073 1_555
In6 O24 2.082783 1_555
In6 O26 2.103701 1_555
In7 O30 2.027150 1_656
In7 O29 2.062073 1_565
In7 O25 2.082783 1_555
In7 O27 2.103701 1_555
