# generated using pymatgen
data_Li2VFeP2(O4F)2
_symmetry_space_group_name_H-M   'P 1'
_cell_length_a   5.22473300
_cell_length_b   7.41181284
_cell_length_c   15.01772246
_cell_angle_alpha   94.18560422
_cell_angle_beta   92.43768610
_cell_angle_gamma   108.71658853
_symmetry_Int_Tables_number   1
_chemical_formula_structural   Li2VFeP2(O4F)2
_chemical_formula_sum   'Li6 V3 Fe3 P6 O24 F6'
_cell_volume   547.99342318
_cell_formula_units_Z   3
loop_
 _symmetry_equiv_pos_site_id
 _symmetry_equiv_pos_as_xyz
  1  'x, y, z'
loop_
 _atom_site_type_symbol
 _atom_site_label
 _atom_site_symmetry_multiplicity
 _atom_site_fract_x
 _atom_site_fract_y
 _atom_site_fract_z
 _atom_site_occupancy
  Li  Li0  1  0.93570700  0.01653800  0.20478200  1
  Li  Li1  1  0.73107300  0.64922000  0.46154800  1
  Li  Li2  1  0.39687900  0.31573800  0.12819500  1
  Li  Li3  1  0.60312100  0.68426200  0.87180500  1
  Li  Li4  1  0.26892700  0.35078000  0.53845200  1
  Li  Li5  1  0.06429300  0.98346200  0.79521800  1
  V  V0  1  0.00000000  0.50000000  0.00000000  1
  V  V1  1  0.66650300  0.66675500  0.66668800  1
  V  V2  1  0.33349700  0.33324500  0.33331200  1
  Fe  Fe0  1  0.00000000  0.00000000  0.00000000  1
  Fe  Fe1  1  0.66686700  0.16680700  0.66665100  1
  Fe  Fe2  1  0.33313300  0.83319300  0.33334900  1
  P  P0  1  0.89104000  0.45172800  0.21373300  1
  P  P1  1  0.77575300  0.21489400  0.45321200  1
  P  P2  1  0.55719100  0.11739900  0.88003500  1
  P  P3  1  0.44280900  0.88260100  0.11996500  1
  P  P4  1  0.22424700  0.78510600  0.54678800  1
  P  P5  1  0.10896000  0.54827200  0.78626700  1
  O  O0  1  0.98760000  0.34772200  0.73734200  1
  O  O1  1  0.86131200  0.21080300  0.55326800  1
  O  O2  1  0.76157000  0.00178200  0.88795800  1
  O  O3  1  0.65404000  0.01423700  0.40399400  1
  O  O4  1  0.80548700  0.45759700  0.11385700  1
  O  O5  1  0.95224800  0.67026600  0.58396300  1
  O  O6  1  0.90758900  0.66567200  0.77853500  1
  O  O7  1  0.61853900  0.33667000  0.25034400  1
  O  O8  1  0.67722000  0.31826400  0.92880200  1
  O  O9  1  0.57440100  0.33219700  0.44517800  1
  O  O10  1  0.47220700  0.12319200  0.78035400  1
  O  O11  1  0.71404300  0.99635800  0.08154600  1
  O  O12  1  0.28595700  0.00364200  0.91845400  1
  O  O13  1  0.52779300  0.87680800  0.21964600  1
  O  O14  1  0.42559900  0.66780300  0.55482200  1
  O  O15  1  0.32278000  0.68173600  0.07119800  1
  O  O16  1  0.38146100  0.66333000  0.74965600  1
  O  O17  1  0.09241100  0.33432800  0.22146500  1
  O  O18  1  0.04775200  0.32973400  0.41603700  1
  O  O19  1  0.19451300  0.54240300  0.88614300  1
  O  O20  1  0.34596000  0.98576300  0.59600600  1
  O  O21  1  0.23843000  0.99821800  0.11204200  1
  O  O22  1  0.13868800  0.78919700  0.44673200  1
  O  O23  1  0.01240000  0.65227800  0.26265800  1
  F  F0  1  0.84629200  0.71407000  0.97579400  1
  F  F1  1  0.82070900  0.95518000  0.69073200  1
  F  F2  1  0.51283000  0.37827500  0.64247800  1
  F  F3  1  0.48717000  0.62172500  0.35752200  1
  F  F4  1  0.17929100  0.04482000  0.30926800  1
  F  F5  1  0.15370800  0.28593000  0.02420600  1
loop_
_geom_bond_atom_site_label_1
_geom_bond_atom_site_label_2
_geom_bond_distance
_geom_bond_site_symmetry_2
Li0 O13 2.079007 1_545
Li0 O11 2.110668 1_545
Li0 O21 2.181144 1_645
Li0 O17 2.222563 1_655
Li1 O22 2.077839 1_655
Li1 O5 2.097888 1_555
Li1 O14 2.198063 1_555
Li1 O9 2.217165 1_555
Li2 O4 2.083534 1_555
Li2 O7 2.095889 1_555
Li2 O17 2.193974 1_555
Li2 O21 2.220789 1_545
Li3 O19 2.083534 1_555
Li3 O16 2.095889 1_555
Li3 O6 2.193974 1_555
Li3 O2 2.220789 1_565
Li4 O1 2.077839 1_455
Li4 O18 2.097888 1_555
Li4 O9 2.198063 1_555
Li4 O14 2.217165 1_555
Li5 O10 2.079007 1_565
Li5 O12 2.110668 1_565
Li5 O2 2.181144 1_465
Li5 O6 2.222563 1_455
Fe0 O11 1.966527 1_445
Fe0 O12 1.966527 1_554
Fe0 O21 2.053952 1_545
Fe0 O2 2.053952 1_454
Fe1 O0 1.982921 1_555
Fe1 O20 1.983510 1_545
Fe1 O1 2.013307 1_555
Fe1 O10 2.017908 1_555
Fe2 O23 1.982921 1_555
Fe2 O3 1.983510 1_565
Fe2 O22 2.013307 1_555
Fe2 O13 2.017908 1_555
O0 P5 1.532142 1_655
O1 P1 1.554608 1_555
O2 P2 1.574825 1_555
O3 P1 1.534656 1_555
O4 P0 1.554476 1_555
O4 V0 2.019045 1_655
O5 P4 1.554451 1_655
O5 V1 1.977504 1_555
O6 P5 1.571454 1_655
O6 V1 2.058278 1_555
O7 P0 1.553195 1_555
O7 V2 1.977185 1_555
O8 P2 1.532539 1_555
O8 V0 1.995050 1_656
O9 P1 1.571210 1_555
O9 V2 2.057887 1_555
O10 P2 1.550815 1_555
O11 P3 1.557489 1_555
O12 P2 1.557489 1_555
O13 P3 1.550815 1_555
O14 P4 1.571210 1_555
O14 V1 2.057887 1_555
O15 P3 1.532539 1_555
O15 V0 1.995050 1_555
O16 P5 1.553195 1_555
O16 V1 1.977185 1_555
O17 P0 1.571454 1_455
O17 V2 2.058278 1_555
O18 P1 1.554451 1_455
O18 V2 1.977504 1_555
O19 P5 1.554476 1_555
O19 V0 2.019045 1_556
O20 P4 1.534656 1_555
O21 P3 1.574825 1_555
O22 P4 1.554608 1_555
O23 P0 1.532142 1_455
F0 Li3 1.924199 1_555
F0 Fe0 2.009676 1_666
F0 V0 2.042463 1_656
F1 Li5 1.933058 1_655
F1 Fe1 2.025926 1_565
F1 V1 2.026501 1_555
F2 Li4 1.929645 1_555
F2 Fe1 2.025799 1_555
F2 V1 2.026944 1_555
F3 Li1 1.929645 1_555
F3 Fe2 2.025799 1_555
F3 V2 2.026944 1_555
F4 Li0 1.933058 1_455
F4 Fe2 2.025926 1_545
F4 V2 2.026501 1_555
F5 Li2 1.924199 1_555
F5 Fe0 2.009676 1_555
F5 V0 2.042463 1_555
