# generated using pymatgen
data_BaSr3I8
_symmetry_space_group_name_H-M   'P 1'
_cell_length_a   9.98925294
_cell_length_b   9.98925294
_cell_length_c   9.98925334
_cell_angle_alpha   131.88950878
_cell_angle_beta   131.88951506
_cell_angle_gamma   70.40358355
_symmetry_Int_Tables_number   1
_chemical_formula_structural   BaSr3I8
_chemical_formula_sum   'Ba1 Sr3 I8'
_cell_volume   541.31955582
_cell_formula_units_Z   1
loop_
 _symmetry_equiv_pos_site_id
 _symmetry_equiv_pos_as_xyz
  1  'x, y, z'
loop_
 _atom_site_type_symbol
 _atom_site_label
 _atom_site_symmetry_multiplicity
 _atom_site_fract_x
 _atom_site_fract_y
 _atom_site_fract_z
 _atom_site_occupancy
  Ba  Ba0  1  0.00000000  0.00000000  0.00000000  1
  Sr  Sr0  1  0.50000000  0.50000000  0.00000000  1
  Sr  Sr1  1  0.25000000  0.75000000  0.50000000  1
  Sr  Sr2  1  0.75000000  0.25000000  0.50000000  1
  I  I0  1  0.87280600  0.38141900  0.00000000  1
  I  I1  1  0.38141900  0.38141900  0.50861300  1
  I  I2  1  0.61858100  0.12719400  0.00000000  1
  I  I3  1  0.12719400  0.12719400  0.50861300  1
  I  I4  1  0.87280600  0.87280600  0.49138700  1
  I  I5  1  0.38141900  0.87280600  0.00000000  1
  I  I6  1  0.12719400  0.61858100  0.00000000  1
  I  I7  1  0.61858100  0.61858100  0.49138700  1
loop_
_geom_bond_atom_site_label_1
_geom_bond_atom_site_label_2
_geom_bond_distance
_geom_bond_site_symmetry_2
Ba0 I2 3.589412 1_455
Ba0 I6 3.589412 1_545
Ba0 I0 3.589412 1_455
Ba0 I5 3.589412 1_545
Ba0 I7 3.589412 1_444
Ba0 I3 3.589412 1_555
Ba0 I4 3.589412 1_444
Ba0 I1 3.589412 1_555
I0 Sr0 3.508943 1_555
I0 Sr1 3.509528 1_655
I0 Sr2 3.509528 1_554
I1 Sr0 3.508943 1_556
I1 Sr1 3.509528 1_555
I1 Sr2 3.509528 1_555
I2 Sr0 3.508943 1_555
I2 Sr2 3.509528 1_555
I2 Sr1 3.509528 1_544
I3 Sr0 3.508943 1_556
I3 Sr2 3.509528 1_455
I3 Sr1 3.509528 1_545
I4 Sr0 3.508943 1_555
I4 Sr1 3.509528 1_655
I4 Sr2 3.509528 1_565
I5 Sr0 3.508943 1_555
I5 Sr1 3.509528 1_554
I5 Sr2 3.509528 1_565
I6 Sr0 3.508943 1_555
I6 Sr2 3.509528 1_454
I6 Sr1 3.509528 1_555
I7 Sr0 3.508943 1_555
I7 Sr2 3.509528 1_555
I7 Sr1 3.509528 1_555
