# generated using pymatgen
data_Ti4SnO10
_symmetry_space_group_name_H-M   'P 1'
_cell_length_a   4.69893200
_cell_length_b   5.58382761
_cell_length_c   12.98147432
_cell_angle_alpha   101.61849365
_cell_angle_beta   90.01391185
_cell_angle_gamma   90.02667866
_symmetry_Int_Tables_number   1
_chemical_formula_structural   Ti4SnO10
_chemical_formula_sum   'Ti8 Sn2 O20'
_cell_volume   333.62924510
_cell_formula_units_Z   2
loop_
 _symmetry_equiv_pos_site_id
 _symmetry_equiv_pos_as_xyz
  1  'x, y, z'
loop_
 _atom_site_type_symbol
 _atom_site_label
 _atom_site_symmetry_multiplicity
 _atom_site_fract_x
 _atom_site_fract_y
 _atom_site_fract_z
 _atom_site_occupancy
  Ti  Ti0  1  0.50168500  0.09030800  0.90338700  1
  Ti  Ti1  1  0.50000000  0.50000000  0.50000000  1
  Ti  Ti2  1  0.49831500  0.90969200  0.09661300  1
  Ti  Ti3  1  0.99523900  0.79925700  0.70012300  1
  Ti  Ti4  1  0.00000000  0.00000000  0.50000000  1
  Ti  Ti5  1  0.00476100  0.20074300  0.29987700  1
  Ti  Ti6  1  0.98242200  0.40300200  0.09828200  1
  Ti  Ti7  1  0.01757800  0.59699800  0.90171800  1
  Sn  Sn0  1  0.49856900  0.69989800  0.29860800  1
  Sn  Sn1  1  0.50143100  0.30010200  0.70139200  1
  O  O0  1  0.81750200  0.54695900  0.76317000  1
  O  O1  1  0.80204400  0.74978900  0.56304800  1
  O  O2  1  0.81811300  0.94399700  0.36065400  1
  O  O3  1  0.80165700  0.14786200  0.16023300  1
  O  O4  1  0.80623300  0.34434300  0.96108700  1
  O  O5  1  0.69889400  0.03342900  0.76631900  1
  O  O6  1  0.69984200  0.24511300  0.55520500  1
  O  O7  1  0.69873700  0.64492500  0.15328100  1
  O  O8  1  0.69423600  0.84601800  0.96179800  1
  O  O9  1  0.69976200  0.43475400  0.36449400  1
  O  O10  1  0.30126300  0.35507500  0.84671900  1
  O  O11  1  0.30110600  0.96657100  0.23368100  1
  O  O12  1  0.30023800  0.56524600  0.63550600  1
  O  O13  1  0.30015800  0.75488700  0.44479500  1
  O  O14  1  0.30576400  0.15398200  0.03820200  1
  O  O15  1  0.19795600  0.25021100  0.43695200  1
  O  O16  1  0.19834300  0.85213800  0.83976700  1
  O  O17  1  0.19376700  0.65565700  0.03891300  1
  O  O18  1  0.18188700  0.05600300  0.63934600  1
  O  O19  1  0.18249800  0.45304100  0.23683000  1
loop_
_geom_bond_atom_site_label_1
_geom_bond_atom_site_label_2
_geom_bond_distance
_geom_bond_site_symmetry_2
O0 Ti3 1.953383 1_555
O0 Ti7 1.998316 1_655
O0 Sn1 2.073940 1_555
O1 Ti3 1.966676 1_555
O1 Ti4 1.986666 1_665
O1 Ti1 2.041428 1_555
O2 Ti4 1.967636 1_665
O2 Ti5 1.975280 1_665
O2 Sn0 2.077594 1_555
O3 Ti6 1.964329 1_555
O3 Ti2 2.009402 1_545
O3 Ti5 2.016804 1_655
O4 Ti6 1.930985 1_556
O4 Ti7 2.001882 1_655
O4 Ti0 2.047117 1_555
O5 Ti0 1.974616 1_555
O5 Ti3 1.984175 1_545
O5 Sn1 2.072448 1_555
O6 Ti1 1.957741 1_555
O6 Ti4 1.995830 1_655
O6 Sn1 2.081171 1_555
O7 Ti6 1.930067 1_555
O7 Ti2 2.013160 1_555
O7 Sn0 2.075063 1_555
O8 Ti0 1.916173 1_565
O8 Ti2 1.946086 1_556
O8 Ti7 2.101410 1_655
O9 Ti1 1.962431 1_555
O9 Ti5 2.006452 1_655
O9 Sn0 2.080430 1_555
O10 Ti7 1.930067 1_555
O10 Ti0 2.013160 1_555
O10 Sn1 2.075063 1_555
O11 Ti2 1.974616 1_555
O11 Ti5 1.984175 1_565
O11 Sn0 2.072448 1_555
O12 Ti1 1.962431 1_555
O12 Ti3 2.006452 1_455
O12 Sn1 2.080430 1_555
O13 Ti1 1.957741 1_555
O13 Ti4 1.995830 1_565
O13 Sn0 2.081171 1_555
O14 Ti2 1.916173 1_545
O14 Ti0 1.946086 1_554
O14 Ti6 2.101410 1_455
O15 Ti5 1.966676 1_555
O15 Ti4 1.986666 1_555
O15 Ti1 2.041428 1_555
O16 Ti7 1.964329 1_555
O16 Ti0 2.009402 1_565
O16 Ti3 2.016804 1_455
O17 Ti7 1.930985 1_554
O17 Ti6 2.001882 1_455
O17 Ti2 2.047117 1_555
O18 Ti4 1.967636 1_555
O18 Ti3 1.975280 1_445
O18 Sn1 2.077594 1_555
O19 Ti5 1.953383 1_555
O19 Ti6 1.998316 1_455
O19 Sn0 2.073940 1_555
