# generated using pymatgen
data_Li3Sb2(PO4)3
_symmetry_space_group_name_H-M   'P 1'
_cell_length_a   5.14272786
_cell_length_b   5.14272786
_cell_length_c   20.09506558
_cell_angle_alpha   89.89607574
_cell_angle_beta   89.89607574
_cell_angle_gamma   67.07674070
_symmetry_Int_Tables_number   1
_chemical_formula_structural   Li3Sb2(PO4)3
_chemical_formula_sum   'Li6 Sb4 P6 O24'
_cell_volume   489.49472857
_cell_formula_units_Z   2
loop_
 _symmetry_equiv_pos_site_id
 _symmetry_equiv_pos_as_xyz
  1  'x, y, z'
loop_
 _atom_site_type_symbol
 _atom_site_label
 _atom_site_symmetry_multiplicity
 _atom_site_fract_x
 _atom_site_fract_y
 _atom_site_fract_z
 _atom_site_occupancy
  Li  Li0  1  0.00069300  0.00069300  0.16255800  1
  Li  Li1  1  0.33940200  0.33940200  0.90714000  1
  Li  Li2  1  0.33707000  0.33707000  0.23969500  1
  Li  Li3  1  0.66293000  0.66293000  0.76030500  1
  Li  Li4  1  0.99930700  0.99930700  0.83744200  1
  Li  Li5  1  0.66059800  0.66059800  0.09286000  1
  Sb  Sb0  1  0.00000000  0.00000000  0.50000000  1
  Sb  Sb1  1  0.99123400  0.99123400  0.32504100  1
  Sb  Sb2  1  0.00876600  0.00876600  0.67495900  1
  Sb  Sb3  1  0.00000000  0.00000000  0.00000000  1
  P  P0  1  0.35387600  0.35387600  0.75798300  1
  P  P1  1  0.35422900  0.35422900  0.08467900  1
  P  P2  1  0.35595400  0.35595400  0.41022600  1
  P  P3  1  0.64404600  0.64404600  0.58977400  1
  P  P4  1  0.64577100  0.64577100  0.91532100  1
  P  P5  1  0.64612400  0.64612400  0.24201700  1
  O  O0  1  0.68959600  0.23579700  0.41396400  1
  O  O1  1  0.68781200  0.24996300  0.75595200  1
  O  O2  1  0.68857700  0.24839300  0.08526100  1
  O  O3  1  0.75160700  0.31142300  0.91473900  1
  O  O4  1  0.76420300  0.31040400  0.58603600  1
  O  O5  1  0.75003700  0.31218800  0.24404800  1
  O  O6  1  0.75017100  0.75017100  0.52849100  1
  O  O7  1  0.75299500  0.75299500  0.85511500  1
  O  O8  1  0.74878100  0.74878100  0.18060000  1
  O  O9  1  0.27532600  0.27532600  0.34176000  1
  O  O10  1  0.74652900  0.74652900  0.30636800  1
  O  O11  1  0.73568600  0.73568600  0.98307400  1
  O  O12  1  0.72467400  0.72467400  0.65824000  1
  O  O13  1  0.24982900  0.24982900  0.47150900  1
  O  O14  1  0.25347100  0.25347100  0.69363200  1
  O  O15  1  0.25121900  0.25121900  0.81940000  1
  O  O16  1  0.26431400  0.26431400  0.01692600  1
  O  O17  1  0.24700500  0.24700500  0.14488500  1
  O  O18  1  0.31040400  0.76420300  0.58603600  1
  O  O19  1  0.31218800  0.75003700  0.24404800  1
  O  O20  1  0.31142300  0.75160700  0.91473900  1
  O  O21  1  0.23579700  0.68959600  0.41396400  1
  O  O22  1  0.24839300  0.68857700  0.08526100  1
  O  O23  1  0.24996300  0.68781200  0.75595200  1
loop_
_geom_bond_atom_site_label_1
_geom_bond_atom_site_label_2
_geom_bond_distance
_geom_bond_site_symmetry_2
Li0 O17 2.140549 1_555
Li0 O8 2.189107 1_445
Li0 O2 2.240736 1_455
Li0 O22 2.240736 1_545
Li0 O5 2.302751 1_455
Li0 O19 2.302751 1_545
Li1 O15 1.919897 1_555
Li1 O3 2.073958 1_555
Li1 O20 2.073958 1_555
Li1 O16 2.296812 1_556
Li2 O17 2.057288 1_555
Li2 O19 2.079275 1_555
Li2 O5 2.079275 1_555
Li2 O9 2.117094 1_555
Li3 O7 2.057288 1_555
Li3 O23 2.079275 1_555
Li3 O1 2.079275 1_555
Li3 O12 2.117094 1_555
Li4 O7 2.140549 1_555
Li4 O15 2.189107 1_665
Li4 O20 2.240736 1_655
Li4 O3 2.240736 1_565
Li4 O23 2.302751 1_655
Li4 O1 2.302751 1_565
Li5 O8 1.919897 1_555
Li5 O2 2.073958 1_555
Li5 O22 2.073958 1_555
Li5 O11 2.296812 1_554
O0 P2 1.583007 1_555
O0 Sb0 2.345696 1_655
O0 Sb1 2.378976 1_545
O1 P0 1.587897 1_555
O1 Sb2 2.305352 1_655
O2 P1 1.588689 1_555
O2 Sb3 2.352988 1_655
O3 P4 1.588689 1_555
O3 Sb3 2.352988 1_656
O4 P3 1.583007 1_555
O4 Sb0 2.345696 1_655
O4 Sb2 2.378976 1_655
O5 P5 1.587897 1_555
O5 Sb1 2.305352 1_545
O6 P3 1.529527 1_555
O6 Sb0 2.215804 1_665
O7 P4 1.517856 1_555
O8 P5 1.514274 1_555
O9 P2 1.541053 1_555
O9 Sb1 2.459334 1_445
O10 P5 1.554990 1_555
O10 Sb1 2.131976 1_555
O11 P4 1.566034 1_555
O11 Sb3 2.292105 1_666
O12 P3 1.541053 1_555
O12 Sb2 2.459334 1_665
O13 P2 1.529527 1_555
O13 Sb0 2.215804 1_555
O14 P0 1.554990 1_555
O14 Sb2 2.131976 1_555
O15 P0 1.514274 1_555
O16 P1 1.566034 1_555
O16 Sb3 2.292105 1_555
O17 P1 1.517856 1_555
O18 P3 1.583007 1_555
O18 Sb0 2.345696 1_565
O18 Sb2 2.378976 1_565
O19 P5 1.587897 1_555
O19 Sb1 2.305352 1_455
O20 P4 1.588689 1_555
O20 Sb3 2.352988 1_566
O21 P2 1.583007 1_555
O21 Sb0 2.345696 1_565
O21 Sb1 2.378976 1_455
O22 P1 1.588689 1_555
O22 Sb3 2.352988 1_565
O23 P0 1.587897 1_555
O23 Sb2 2.305352 1_565
