# generated using pymatgen
data_LiVF5
_symmetry_space_group_name_H-M   'P 1'
_cell_length_a   6.44310827
_cell_length_b   7.24411152
_cell_length_c   7.44511224
_cell_angle_alpha   90.00000000
_cell_angle_beta   90.00000000
_cell_angle_gamma   90.00000000
_symmetry_Int_Tables_number   1
_chemical_formula_structural   LiVF5
_chemical_formula_sum   'Li4 V4 F20'
_cell_volume   347.49759736
_cell_formula_units_Z   4
loop_
 _symmetry_equiv_pos_site_id
 _symmetry_equiv_pos_as_xyz
  1  'x, y, z'
loop_
 _atom_site_type_symbol
 _atom_site_label
 _atom_site_symmetry_multiplicity
 _atom_site_fract_x
 _atom_site_fract_y
 _atom_site_fract_z
 _atom_site_occupancy
  Li  Li0  1  0.79222970  0.25000000  0.12117469  1
  Li  Li1  1  0.29222970  0.75000000  0.37882531  1
  Li  Li2  1  0.70777030  0.25000000  0.62117469  1
  Li  Li3  1  0.20777030  0.75000000  0.87882531  1
  V  V0  1  0.73770287  0.75000000  0.11907329  1
  V  V1  1  0.23770287  0.25000000  0.38092671  1
  V  V2  1  0.76229713  0.75000000  0.61907329  1
  V  V3  1  0.26229713  0.25000000  0.88092671  1
  F  F0  1  0.01372338  0.75000000  0.07018247  1
  F  F1  1  0.72822637  0.00165088  0.12056676  1
  F  F2  1  0.72822637  0.49834912  0.12056676  1
  F  F3  1  0.31022651  0.25000000  0.13310820  1
  F  F4  1  0.46024681  0.75000000  0.16544402  1
  F  F5  1  0.96024681  0.25000000  0.33455598  1
  F  F6  1  0.81022651  0.75000000  0.36689180  1
  F  F7  1  0.22822637  0.50165088  0.37943324  1
  F  F8  1  0.22822637  0.99834912  0.37943324  1
  F  F9  1  0.51372338  0.25000000  0.42981753  1
  F  F10  1  0.48627662  0.75000000  0.57018247  1
  F  F11  1  0.77177363  0.00165088  0.62056676  1
  F  F12  1  0.77177363  0.49834912  0.62056676  1
  F  F13  1  0.18977349  0.25000000  0.63310820  1
  F  F14  1  0.03975319  0.75000000  0.66544402  1
  F  F15  1  0.53975319  0.25000000  0.83455598  1
  F  F16  1  0.68977349  0.75000000  0.86689180  1
  F  F17  1  0.27177363  0.50165088  0.87943324  1
  F  F18  1  0.27177363  0.99834912  0.87943324  1
  F  F19  1  0.98627662  0.25000000  0.92981753  1
loop_
_geom_bond_atom_site_label_1
_geom_bond_atom_site_label_2
_geom_bond_distance
_geom_bond_site_symmetry_2
F0 V0 1.815298 1_455
F0 Li3 1.895485 1_554
F1 V0 1.824043 1_545
F1 Li0 1.845732 1_555
F2 V0 1.824043 1_555
F2 Li0 1.845732 1_555
F3 V3 1.902747 1_554
F3 V1 1.903289 1_555
F4 V0 1.820710 1_555
F4 Li1 1.922426 1_555
F5 V1 1.820710 1_655
F5 Li0 1.922426 1_555
F6 V2 1.902747 1_555
F6 V0 1.903289 1_555
F7 V1 1.824043 1_555
F7 Li1 1.845732 1_555
F8 V1 1.824043 1_565
F8 Li1 1.845732 1_555
F9 V1 1.815298 1_555
F9 Li2 1.895485 1_555
F10 V2 1.815298 1_555
F10 Li1 1.895485 1_555
F11 V2 1.824043 1_545
F11 Li2 1.845732 1_555
F12 V2 1.824043 1_555
F12 Li2 1.845732 1_555
F13 V1 1.902747 1_555
F13 V3 1.903289 1_555
F14 V2 1.820710 1_455
F14 Li3 1.922426 1_555
F15 V3 1.820710 1_555
F15 Li2 1.922426 1_555
F16 V0 1.902747 1_556
F16 V2 1.903289 1_555
F17 V3 1.824043 1_555
F17 Li3 1.845732 1_555
F18 V3 1.824043 1_565
F18 Li3 1.845732 1_555
F19 V3 1.815298 1_655
F19 Li0 1.895485 1_556
