# generated using pymatgen
data_YZrO3
_symmetry_space_group_name_H-M   'P 1'
_cell_length_a   9.05140348
_cell_length_b   9.05140348
_cell_length_c   10.44788150
_cell_angle_alpha   54.78788823
_cell_angle_beta   54.78788823
_cell_angle_gamma   70.17659657
_symmetry_Int_Tables_number   1
_chemical_formula_structural   YZrO3
_chemical_formula_sum   'Y8 Zr8 O24'
_cell_volume   571.35645494
_cell_formula_units_Z   8
loop_
 _symmetry_equiv_pos_site_id
 _symmetry_equiv_pos_as_xyz
  1  'x, y, z'
loop_
 _atom_site_type_symbol
 _atom_site_label
 _atom_site_symmetry_multiplicity
 _atom_site_fract_x
 _atom_site_fract_y
 _atom_site_fract_z
 _atom_site_occupancy
  Y  Y0  1  0.71811800  0.23874200  0.75772400  1
  Y  Y1  1  0.76125800  0.28188200  0.24227600  1
  Y  Y2  1  0.21970100  0.73910900  0.28259200  1
  Y  Y3  1  0.52718500  0.47281500  0.00000000  1
  Y  Y4  1  0.02383400  0.97616600  0.00000000  1
  Y  Y5  1  0.74059000  0.72179700  0.53929100  1
  Y  Y6  1  0.27820300  0.25941000  0.46070900  1
  Y  Y7  1  0.26089100  0.78029900  0.71740800  1
  Zr  Zr0  1  0.50284600  0.01813000  0.71820700  1
  Zr  Zr1  1  0.77934600  0.76202100  0.99953700  1
  Zr  Zr2  1  0.23797900  0.22065400  0.00046300  1
  Zr  Zr3  1  0.49168000  0.50832000  0.50000000  1
  Zr  Zr4  1  0.99000600  0.00999400  0.50000000  1
  Zr  Zr5  1  0.47896200  0.99389000  0.23940600  1
  Zr  Zr6  1  0.00611000  0.52103800  0.76059400  1
  Zr  Zr7  1  0.98187000  0.49715400  0.28179300  1
  O  O0  1  0.98201500  0.25395500  0.51796300  1
  O  O1  1  0.45349600  0.24748800  0.00979600  1
  O  O2  1  0.74253600  0.51545400  0.27760300  1
  O  O3  1  0.48454600  0.25746400  0.72239700  1
  O  O4  1  0.24287300  0.00688000  0.46578800  1
  O  O5  1  0.99382300  0.23874400  0.99306700  1
  O  O6  1  0.22733800  0.47432500  0.54215000  1
  O  O7  1  0.04132600  0.28294700  0.21700900  1
  O  O8  1  0.71705300  0.95867400  0.78299100  1
  O  O9  1  0.23814100  0.50448200  0.78254500  1
  O  O10  1  0.49551800  0.76185900  0.21745500  1
  O  O11  1  0.74604500  0.01798500  0.48203700  1
  O  O12  1  0.79026400  0.45569500  0.75981200  1
  O  O13  1  0.54430500  0.20973600  0.24018800  1
  O  O14  1  0.28012900  0.97590800  0.00067700  1
  O  O15  1  0.75251200  0.54650400  0.99020400  1
  O  O16  1  0.25323000  0.03455800  0.72488200  1
  O  O17  1  0.96544200  0.74677000  0.27511800  1
  O  O18  1  0.99312000  0.75712700  0.53421200  1
  O  O19  1  0.76125600  0.00617700  0.00693300  1
  O  O20  1  0.26022100  0.51353500  0.21720900  1
  O  O21  1  0.48646500  0.73977900  0.78279100  1
  O  O22  1  0.52567500  0.77266200  0.45785000  1
  O  O23  1  0.02409200  0.71987100  0.99932300  1
loop_
_geom_bond_atom_site_label_1
_geom_bond_atom_site_label_2
_geom_bond_distance
_geom_bond_site_symmetry_2
O0 Zr7 2.161501 1_555
O0 Y0 2.219142 1_555
O0 Zr4 2.295754 1_555
O0 Y6 2.398733 1_655
O1 Zr2 2.107577 1_555
O1 Zr5 2.237314 1_545
O1 Y3 2.284341 1_555
O1 Y0 2.348728 1_554
O2 Zr3 2.097852 1_555
O2 Zr7 2.140064 1_555
O2 Y1 2.284589 1_555
O2 Zr1 2.333016 1_554
O3 Zr3 2.097852 1_555
O3 Zr0 2.140064 1_555
O3 Y0 2.284589 1_555
O3 Zr2 2.333016 1_556
O4 Zr4 2.095609 1_455
O4 Zr5 2.120416 1_545
O4 Y7 2.278987 1_545
O4 Y6 2.380348 1_555
O5 Zr2 2.203087 1_656
O5 Y4 2.261418 1_646
O5 Zr6 2.272621 1_655
O5 Y1 2.378494 1_556
O6 Zr6 2.159997 1_555
O6 Zr3 2.267472 1_555
O6 Y6 2.360021 1_555
O6 Y2 2.389876 1_555
O7 Zr2 2.179726 1_555
O7 Zr7 2.211927 1_455
O7 Y1 2.395402 1_455
O7 Zr4 2.414982 1_455
O8 Zr1 2.179726 1_555
O8 Zr0 2.211927 1_565
O8 Y0 2.395402 1_565
O8 Zr4 2.414982 1_565
O9 Zr6 2.188215 1_555
O9 Y7 2.228447 1_555
O9 Zr2 2.244353 1_556
O9 Zr3 2.470907 1_555
O10 Zr5 2.188215 1_555
O10 Y2 2.228447 1_555
O10 Zr1 2.244353 1_554
O10 Zr3 2.470907 1_555
O11 Zr0 2.161501 1_555
O11 Y1 2.219142 1_555
O11 Zr4 2.295754 1_555
O11 Y5 2.398733 1_545
O12 Zr6 2.230371 1_655
O12 Y0 2.284454 1_555
O12 Y3 2.301892 1_556
O12 Y5 2.317835 1_555
O13 Zr5 2.230371 1_545
O13 Y1 2.284454 1_555
O13 Y3 2.301892 1_555
O13 Y6 2.317835 1_555
O14 Zr2 2.115450 1_565
O14 Y2 2.285956 1_555
O14 Zr0 2.297952 1_564
O14 Y4 2.323121 1_555
O15 Zr1 2.107577 1_555
O15 Zr6 2.237314 1_655
O15 Y3 2.284341 1_556
O15 Y1 2.348728 1_556
O16 Zr0 2.175807 1_555
O16 Y6 2.219393 1_555
O16 Y4 2.227655 1_546
O16 Y7 2.323814 1_545
O17 Zr7 2.175807 1_555
O17 Y5 2.219393 1_555
O17 Y4 2.227655 1_655
O17 Y2 2.323814 1_655
O18 Zr4 2.095609 1_565
O18 Zr6 2.120416 1_655
O18 Y2 2.278987 1_655
O18 Y5 2.380348 1_555
O19 Zr1 2.203087 1_544
O19 Y4 2.261418 1_645
O19 Zr5 2.272621 1_545
O19 Y0 2.378494 1_554
O20 Zr7 2.236623 1_455
O20 Y3 2.271902 1_555
O20 Y6 2.294519 1_555
O20 Y2 2.362535 1_555
O21 Zr0 2.236623 1_565
O21 Y3 2.271902 1_556
O21 Y5 2.294519 1_555
O21 Y7 2.362535 1_555
O22 Zr5 2.159997 1_555
O22 Zr3 2.267472 1_555
O22 Y5 2.360021 1_555
O22 Y7 2.389876 1_555
O23 Zr1 2.115450 1_455
O23 Y7 2.285956 1_555
O23 Zr7 2.297952 1_456
O23 Y4 2.323121 1_556
