# generated using pymatgen
data_Li4Ti2Co3Sb3O16
_symmetry_space_group_name_H-M   'P 1'
_cell_length_a   6.16117543
_cell_length_b   11.44884562
_cell_length_c   10.63779233
_cell_angle_alpha   117.31285161
_cell_angle_beta   90.30429701
_cell_angle_gamma   74.97335699
_symmetry_Int_Tables_number   1
_chemical_formula_structural   Li4Ti2Co3Sb3O16
_chemical_formula_sum   'Li8 Ti4 Co6 Sb6 O32'
_cell_volume   638.24584203
_cell_formula_units_Z   2
loop_
 _symmetry_equiv_pos_site_id
 _symmetry_equiv_pos_as_xyz
  1  'x, y, z'
loop_
 _atom_site_type_symbol
 _atom_site_label
 _atom_site_symmetry_multiplicity
 _atom_site_fract_x
 _atom_site_fract_y
 _atom_site_fract_z
 _atom_site_occupancy
  Li  Li0  1  0.06413000  0.89233200  0.60935500  1
  Li  Li1  1  0.56363800  0.89204200  0.10945000  1
  Li  Li2  1  0.48279400  0.98388300  0.50067100  1
  Li  Li3  1  0.98244500  0.98404300  0.00032100  1
  Li  Li4  1  0.74037500  0.50479500  0.25615700  1
  Li  Li5  1  0.23890500  0.50431800  0.75375000  1
  Li  Li6  1  0.78425300  0.40200700  0.53915400  1
  Li  Li7  1  0.28445000  0.40208200  0.03928700  1
  Ti  Ti0  1  0.26820800  0.50320100  0.41186200  1
  Ti  Ti1  1  0.76853100  0.50267800  0.91120500  1
  Ti  Ti2  1  0.55396800  0.97227000  0.80625200  1
  Ti  Ti3  1  0.05329300  0.97205900  0.30595900  1
  Co  Co0  1  0.63174900  0.21382800  0.19439700  1
  Co  Co1  1  0.65784300  0.71257600  0.52466800  1
  Co  Co2  1  0.89911700  0.71247800  0.76501300  1
  Co  Co3  1  0.13120200  0.21407500  0.69424800  1
  Co  Co4  1  0.15508200  0.71074400  0.02297300  1
  Co  Co5  1  0.39783400  0.71101400  0.26590600  1
  Sb  Sb0  1  0.40816000  0.71623900  0.77022100  1
  Sb  Sb1  1  0.90675800  0.71558900  0.26887100  1
  Sb  Sb2  1  0.13747000  0.21631600  0.19524100  1
  Sb  Sb3  1  0.63719600  0.21647600  0.69521900  1
  Sb  Sb4  1  0.38364600  0.21583100  0.44146700  1
  Sb  Sb5  1  0.88365900  0.21685200  0.94225900  1
  O  O0  1  0.09294000  0.33787500  0.41470200  1
  O  O1  1  0.59272500  0.33900500  0.91558500  1
  O  O2  1  0.43403500  0.10211000  0.22240300  1
  O  O3  1  0.93546900  0.10262000  0.72271300  1
  O  O4  1  0.83670800  0.31774000  0.16129300  1
  O  O5  1  0.33485200  0.31706600  0.65956500  1
  O  O6  1  0.11300200  0.80033800  0.89578500  1
  O  O7  1  0.61257300  0.80002000  0.39584700  1
  O  O8  1  0.67408500  0.10307700  0.47539100  1
  O  O9  1  0.17472000  0.10352200  0.97693200  1
  O  O10  1  0.45113400  0.58602500  0.37858300  1
  O  O11  1  0.95057100  0.58650900  0.87824400  1
  O  O12  1  0.69688200  0.60583600  0.63647900  1
  O  O13  1  0.19556700  0.60592200  0.13657600  1
  O  O14  1  0.80525000  0.85281000  0.68278400  1
  O  O15  1  0.30466200  0.85311200  0.18242300  1
  O  O16  1  0.97251600  0.59334900  0.37227600  1
  O  O17  1  0.47139900  0.59364300  0.87200000  1
  O  O18  1  0.22572900  0.59338500  0.62445200  1
  O  O19  1  0.72347300  0.59367000  0.12486800  1
  O  O20  1  0.31339900  0.34295100  0.19648200  1
  O  O21  1  0.81291000  0.34411100  0.69701300  1
  O  O22  1  0.53280300  0.34302100  0.41686100  1
  O  O23  1  0.03318200  0.34399900  0.91692400  1
  O  O24  1  0.35877100  0.84837200  0.68742100  1
  O  O25  1  0.85912300  0.84752200  0.18626600  1
  O  O26  1  0.57373500  0.84842300  0.90176100  1
  O  O27  1  0.07307500  0.84740800  0.40047600  1
  O  O28  1  0.95622100  0.09427700  0.21400800  1
  O  O29  1  0.45666800  0.09296400  0.71393000  1
  O  O30  1  0.20442900  0.09354900  0.46151200  1
  O  O31  1  0.70454100  0.09371700  0.96207900  1
loop_
_geom_bond_atom_site_label_1
_geom_bond_atom_site_label_2
_geom_bond_distance
_geom_bond_site_symmetry_2
Li0 O14 2.017611 1_455
Li0 O24 2.032776 1_555
Li0 O27 2.035368 1_555
Li0 O3 2.057937 1_465
Li1 O15 2.011619 1_555
Li1 O26 2.026655 1_554
Li1 O25 2.031536 1_555
Li1 O2 2.056204 1_565
Li2 O7 1.815619 1_555
Li2 O29 2.007928 1_565
Li2 O30 2.011752 1_565
Li2 O8 2.120781 1_565
Li3 O6 1.814675 1_654
Li3 O31 2.005084 1_564
Li3 O28 2.012849 1_565
Li3 O9 2.119469 1_664
Li4 O4 1.822341 1_555
Li4 O10 1.946928 1_555
Li4 O16 2.045294 1_555
Li4 O19 2.060191 1_555
Li5 O5 1.824074 1_555
Li5 O11 1.951861 1_455
Li5 O18 2.044816 1_555
Li5 O17 2.059125 1_555
Li6 O12 1.986135 1_555
Li6 O21 2.061100 1_555
Li6 O22 2.064810 1_555
Li6 O0 2.078347 1_655
Li7 O13 1.985985 1_555
Li7 O23 2.061855 1_554
Li7 O20 2.063855 1_555
Li7 O1 2.074572 1_554
Co0 O4 2.074164 1_555
Co0 O2 2.090469 1_555
Co0 O22 2.120223 1_555
Co0 O20 2.121287 1_555
Co0 O28 2.179954 1_555
Co0 O31 2.184707 1_554
Co1 O7 2.016962 1_555
Co1 O12 2.035788 1_555
Co1 O14 2.119739 1_555
Co1 O16 2.209172 1_555
Co1 O24 2.210917 1_555
Co1 O10 2.237344 1_555
Co2 O6 2.016761 1_655
Co2 O12 2.037522 1_555
Co2 O14 2.117417 1_555
Co2 O18 2.209649 1_655
Co2 O26 2.211968 1_555
Co2 O11 2.232575 1_555
Co3 O5 2.066909 1_555
Co3 O3 2.081022 1_455
Co3 O23 2.122334 1_555
Co3 O21 2.123569 1_455
Co3 O30 2.188859 1_555
Co3 O29 2.192643 1_555
Co4 O6 2.020389 1_554
Co4 O13 2.033563 1_555
Co4 O15 2.146691 1_555
Co4 O25 2.202572 1_455
Co4 O17 2.208466 1_554
Co4 O11 2.209118 1_454
Co5 O7 2.021529 1_555
Co5 O13 2.033140 1_555
Co5 O15 2.145010 1_555
Co5 O27 2.202303 1_555
Co5 O19 2.205846 1_555
Co5 O10 2.217763 1_555
O0 Sb2 2.071124 1_555
O0 Sb4 2.074460 1_555
O0 Ti0 2.421229 1_555
O1 Sb5 2.075639 1_555
O1 Sb3 2.080372 1_555
O1 Ti1 2.412458 1_555
O2 Sb2 2.057669 1_555
O2 Sb4 2.058111 1_555
O3 Sb5 2.062817 1_555
O3 Sb3 2.064922 1_555
O4 Sb2 2.043166 1_655
O4 Sb5 2.052070 1_554
O5 Sb4 2.043406 1_555
O5 Sb3 2.054524 1_555
O6 Sb0 1.988936 1_555
O7 Sb1 1.990836 1_555
O8 Sb4 2.054657 1_555
O8 Sb3 2.066931 1_555
O8 Ti3 2.589136 1_645
O9 Sb2 2.052638 1_556
O9 Sb5 2.064228 1_455
O9 Ti2 2.595190 1_545
O10 Ti0 1.777966 1_555
O11 Ti1 1.781356 1_555
O12 Sb0 1.999209 1_555
O13 Sb1 1.992443 1_455
O14 Ti2 1.807669 1_555
O15 Ti3 1.807133 1_555
O16 Ti0 1.994304 1_655
O16 Sb1 2.108738 1_555
O17 Ti1 2.002949 1_555
O17 Sb0 2.097770 1_555
O18 Ti0 1.993047 1_555
O18 Sb0 2.108542 1_555
O19 Ti1 2.003052 1_554
O19 Sb1 2.099262 1_555
O20 Sb2 2.018474 1_555
O20 Ti0 2.139466 1_555
O21 Sb3 2.025394 1_555
O21 Ti1 2.124941 1_555
O22 Sb4 2.019839 1_555
O22 Ti0 2.135857 1_555
O23 Sb5 2.024445 1_455
O23 Ti1 2.127710 1_455
O24 Sb0 2.034244 1_555
O24 Ti2 2.068651 1_555
O25 Sb1 2.031089 1_555
O25 Ti3 2.070647 1_655
O26 Sb0 2.032479 1_555
O26 Ti2 2.070925 1_555
O27 Sb1 2.033550 1_455
O27 Ti3 2.070684 1_555
O28 Ti3 2.021951 1_645
O28 Sb2 2.075206 1_655
O29 Ti2 2.010693 1_545
O29 Sb3 2.086278 1_555
O30 Ti3 2.020635 1_545
O30 Sb4 2.074295 1_555
O31 Ti2 2.019684 1_545
O31 Sb5 2.081276 1_555
