# generated using pymatgen
data_Ga2WO6
_symmetry_space_group_name_H-M   'P 1'
_cell_length_a   4.56930400
_cell_length_b   5.00002700
_cell_length_c   16.88223300
_cell_angle_alpha   90.00000000
_cell_angle_beta   90.00000000
_cell_angle_gamma   90.00000000
_symmetry_Int_Tables_number   1
_chemical_formula_structural   Ga2WO6
_chemical_formula_sum   'Ga8 W4 O24'
_cell_volume   385.70235666
_cell_formula_units_Z   4
loop_
 _symmetry_equiv_pos_site_id
 _symmetry_equiv_pos_as_xyz
  1  'x, y, z'
loop_
 _atom_site_type_symbol
 _atom_site_label
 _atom_site_symmetry_multiplicity
 _atom_site_fract_x
 _atom_site_fract_y
 _atom_site_fract_z
 _atom_site_occupancy
  Ga  Ga0  1  0.00000000  0.25000000  0.05363100  1
  Ga  Ga1  1  0.00000000  0.75000000  0.27544400  1
  Ga  Ga2  1  0.00000000  0.25000000  0.72455600  1
  Ga  Ga3  1  0.00000000  0.75000000  0.94636900  1
  Ga  Ga4  1  0.50000000  0.25000000  0.22455600  1
  Ga  Ga5  1  0.50000000  0.25000000  0.55363100  1
  Ga  Ga6  1  0.50000000  0.75000000  0.77544400  1
  Ga  Ga7  1  0.50000000  0.75000000  0.44636900  1
  W  W0  1  0.00000000  0.25000000  0.38507700  1
  W  W1  1  0.00000000  0.75000000  0.61492300  1
  W  W2  1  0.50000000  0.25000000  0.88507700  1
  W  W3  1  0.50000000  0.75000000  0.11492300  1
  O  O0  1  0.23430600  0.59225000  0.03978700  1
  O  O1  1  0.23430600  0.09225000  0.96021300  1
  O  O2  1  0.27350400  0.57768300  0.20299000  1
  O  O3  1  0.27350400  0.07768300  0.79701000  1
  O  O4  1  0.22997600  0.57206000  0.37366600  1
  O  O5  1  0.22997600  0.07206000  0.62633400  1
  O  O6  1  0.27002400  0.07206000  0.12633400  1
  O  O7  1  0.27002400  0.57206000  0.87366600  1
  O  O8  1  0.22649600  0.07768300  0.29701000  1
  O  O9  1  0.22649600  0.57768300  0.70299000  1
  O  O10  1  0.26569400  0.09225000  0.46021300  1
  O  O11  1  0.26569400  0.59225000  0.53978700  1
  O  O12  1  0.73430600  0.40775000  0.46021300  1
  O  O13  1  0.73430600  0.90775000  0.53978700  1
  O  O14  1  0.77350400  0.42231700  0.29701000  1
  O  O15  1  0.77350400  0.92231700  0.70299000  1
  O  O16  1  0.72997600  0.42794000  0.12633400  1
  O  O17  1  0.72997600  0.92794000  0.87366600  1
  O  O18  1  0.77002400  0.42794000  0.62633400  1
  O  O19  1  0.77002400  0.92794000  0.37366600  1
  O  O20  1  0.72649600  0.92231700  0.20299000  1
  O  O21  1  0.72649600  0.42231700  0.79701000  1
  O  O22  1  0.76569400  0.90775000  0.03978700  1
  O  O23  1  0.76569400  0.40775000  0.96021300  1
loop_
_geom_bond_atom_site_label_1
_geom_bond_atom_site_label_2
_geom_bond_distance
_geom_bond_site_symmetry_2
Ga0 O6 1.954578 1_555
Ga0 O16 1.954578 1_455
Ga0 O22 2.032055 1_445
Ga0 O0 2.032055 1_555
Ga0 O23 2.062913 1_454
Ga0 O1 2.062913 1_554
Ga1 O2 1.949443 1_555
Ga1 O20 1.949443 1_455
Ga1 O8 1.971818 1_565
Ga1 O14 1.971818 1_455
Ga1 O4 2.155335 1_555
Ga1 O19 2.155335 1_455
Ga2 O3 1.949443 1_555
Ga2 O21 1.949443 1_455
Ga2 O9 1.971818 1_555
Ga2 O15 1.971818 1_445
Ga2 O5 2.155335 1_555
Ga2 O18 2.155335 1_455
Ga3 O7 1.954578 1_555
Ga3 O17 1.954578 1_455
Ga3 O23 2.032055 1_455
Ga3 O1 2.032055 1_565
Ga3 O0 2.062913 1_556
Ga3 O22 2.062913 1_456
Ga4 O14 1.949443 1_555
Ga4 O8 1.949443 1_555
Ga4 O20 1.971818 1_545
Ga4 O2 1.971818 1_555
Ga4 O6 2.155335 1_555
Ga4 O16 2.155335 1_555
Ga5 O18 1.954578 1_555
Ga5 O5 1.954578 1_555
Ga5 O13 2.032055 1_545
Ga5 O11 2.032055 1_555
Ga5 O12 2.062913 1_555
Ga5 O10 2.062913 1_555
Ga6 O15 1.949443 1_555
Ga6 O9 1.949443 1_555
Ga6 O21 1.971818 1_555
Ga6 O3 1.971818 1_565
Ga6 O17 2.155335 1_555
Ga6 O7 2.155335 1_555
Ga7 O19 1.954578 1_555
Ga7 O4 1.954578 1_555
Ga7 O12 2.032055 1_555
Ga7 O10 2.032055 1_565
Ga7 O11 2.062913 1_555
Ga7 O13 2.062913 1_555
O0 W3 1.924842 1_555
O1 W2 1.924842 1_555
O2 W3 2.005964 1_555
O3 W2 2.005964 1_555
O4 W0 1.932472 1_555
O5 W1 1.932472 1_545
O6 W3 1.932472 1_545
O7 W2 1.932472 1_555
O8 W0 2.005964 1_555
O9 W1 2.005964 1_555
O10 W0 1.924842 1_555
O11 W1 1.924842 1_555
O12 W0 1.924842 1_655
O13 W1 1.924842 1_655
O14 W0 2.005964 1_655
O15 W1 2.005964 1_655
O16 W3 1.932472 1_555
O17 W2 1.932472 1_565
O18 W1 1.932472 1_655
O19 W0 1.932472 1_665
O20 W3 2.005964 1_555
O21 W2 2.005964 1_555
O22 W3 1.924842 1_555
O23 W2 1.924842 1_555
