# generated using pymatgen
data_Li5Mn8Fe11O32
_symmetry_space_group_name_H-M   'P 1'
_cell_length_a   5.97968937
_cell_length_b   5.97968937
_cell_length_c   20.06146588
_cell_angle_alpha   79.97203698
_cell_angle_beta   79.97203698
_cell_angle_gamma   60.80862702
_symmetry_Int_Tables_number   1
_chemical_formula_structural   Li5Mn8Fe11O32
_chemical_formula_sum   'Li5 Mn8 Fe11 O32'
_cell_volume   613.33152110
_cell_formula_units_Z   1
loop_
 _symmetry_equiv_pos_site_id
 _symmetry_equiv_pos_as_xyz
  1  'x, y, z'
loop_
 _atom_site_type_symbol
 _atom_site_label
 _atom_site_symmetry_multiplicity
 _atom_site_fract_x
 _atom_site_fract_y
 _atom_site_fract_z
 _atom_site_occupancy
  Li  Li0  1  0.33830000  0.33830000  0.96540300  1
  Li  Li1  1  0.41256600  0.41256600  0.78169900  1
  Li  Li2  1  0.16365900  0.16365900  0.52669300  1
  Li  Li3  1  0.84259300  0.84259300  0.47309300  1
  Li  Li4  1  0.59203900  0.59203900  0.22610400  1
  Mn  Mn0  1  0.87578700  0.87578700  0.87369900  1
  Mn  Mn1  1  0.99790700  0.99790700  0.99700200  1
  Mn  Mn2  1  0.62167700  0.62167700  0.62247500  1
  Mn  Mn3  1  0.75036700  0.75036700  0.74995200  1
  Mn  Mn4  1  0.37750100  0.37750100  0.37810700  1
  Mn  Mn5  1  0.50361700  0.50361700  0.49984200  1
  Mn  Mn6  1  0.24934300  0.24934300  0.25111200  1
  Mn  Mn7  1  0.12752100  0.12752100  0.12562900  1
  Fe  Fe0  1  0.87518200  0.37361900  0.87343100  1
  Fe  Fe1  1  0.37361900  0.87518200  0.87343100  1
  Fe  Fe2  1  0.09048800  0.09048800  0.71463200  1
  Fe  Fe3  1  0.87415100  0.37772200  0.37847000  1
  Fe  Fe4  1  0.37772200  0.87415100  0.37847000  1
  Fe  Fe5  1  0.62051100  0.12502600  0.62173400  1
  Fe  Fe6  1  0.12502600  0.62051100  0.62173400  1
  Fe  Fe7  1  0.90745100  0.90745100  0.28045700  1
  Fe  Fe8  1  0.12989400  0.61570300  0.12770200  1
  Fe  Fe9  1  0.61570300  0.12989400  0.12770200  1
  Fe  Fe10  1  0.65921200  0.65921200  0.03061700  1
  O  O0  1  0.16071700  0.71649700  0.92984800  1
  O  O1  1  0.71649700  0.16071700  0.92984800  1
  O  O2  1  0.91629900  0.91629900  0.68339600  1
  O  O3  1  0.05649500  0.05649500  0.81936700  1
  O  O4  1  0.16438200  0.16438200  0.93544300  1
  O  O5  1  0.44112700  0.44112700  0.67651400  1
  O  O6  1  0.69211800  0.69211800  0.93195000  1
  O  O7  1  0.58411600  0.58411600  0.81412500  1
  O  O8  1  0.77438900  0.34372300  0.56357000  1
  O  O9  1  0.03162400  0.58794900  0.81882500  1
  O  O10  1  0.34372300  0.77438900  0.56357000  1
  O  O11  1  0.58794900  0.03162400  0.81882500  1
  O  O12  1  0.90674400  0.46472400  0.68049900  1
  O  O13  1  0.46472400  0.90674400  0.68049900  1
  O  O14  1  0.67477600  0.67477600  0.43712000  1
  O  O15  1  0.80315000  0.80315000  0.57215000  1
  O  O16  1  0.19709000  0.19709000  0.42728900  1
  O  O17  1  0.33200800  0.33200800  0.56192700  1
  O  O18  1  0.52617300  0.08388900  0.31077600  1
  O  O19  1  0.08388900  0.52617300  0.31077600  1
  O  O20  1  0.42019300  0.97453600  0.19081200  1
  O  O21  1  0.67284700  0.22674700  0.44256700  1
  O  O22  1  0.22674700  0.67284700  0.44256700  1
  O  O23  1  0.97453600  0.42019300  0.19081200  1
  O  O24  1  0.42049000  0.42049000  0.18770100  1
  O  O25  1  0.30571000  0.30571000  0.07296700  1
  O  O26  1  0.55605200  0.55605200  0.32575000  1
  O  O27  1  0.94483200  0.94483200  0.17507000  1
  O  O28  1  0.82451600  0.82451600  0.06368200  1
  O  O29  1  0.07893800  0.07893800  0.31563200  1
  O  O30  1  0.30132400  0.81396000  0.06346700  1
  O  O31  1  0.81396000  0.30132400  0.06346700  1
loop_
_geom_bond_atom_site_label_1
_geom_bond_atom_site_label_2
_geom_bond_distance
_geom_bond_site_symmetry_2
Li0 O4 2.003677 1_555
Li0 O1 2.027376 1_555
Li0 O0 2.027376 1_555
Li0 O25 2.115796 1_556
Li1 O7 2.004750 1_555
Li1 O11 2.048010 1_555
Li1 O9 2.048010 1_555
Li1 O5 2.070886 1_555
Li2 O16 1.953979 1_555
Li2 O17 2.002637 1_555
Li2 O10 2.087534 1_545
Li2 O8 2.087534 1_455
Li3 O15 1.946314 1_555
Li3 O14 2.005368 1_555
Li3 O21 2.033280 1_565
Li3 O22 2.033280 1_655
Li4 O26 1.958147 1_555
Li4 O23 2.045812 1_555
Li4 O20 2.045812 1_555
Li4 O24 2.067616 1_555
Mn0 O9 1.944424 1_655
Mn0 O11 1.944424 1_565
Mn0 O1 1.946973 1_565
Mn0 O0 1.946973 1_655
Mn0 O3 1.960097 1_665
Mn0 O6 2.015132 1_555
Mn1 O4 1.901950 1_665
Mn1 O28 2.005500 1_556
Mn1 O0 2.080650 1_655
Mn1 O1 2.080650 1_565
Mn1 O30 2.159784 1_656
Mn1 O31 2.159784 1_566
Mn2 O15 1.939063 1_555
Mn2 O10 1.954622 1_555
Mn2 O8 1.954622 1_555
Mn2 O5 1.956596 1_555
Mn2 O12 1.972699 1_555
Mn2 O13 1.972699 1_555
Mn3 O7 1.925253 1_555
Mn3 O2 1.946632 1_555
Mn3 O9 2.104637 1_655
Mn3 O11 2.104637 1_565
Mn3 O12 2.133144 1_555
Mn3 O13 2.133144 1_555
Mn4 O16 1.922238 1_555
Mn4 O26 1.927171 1_555
Mn4 O22 2.107211 1_555
Mn4 O21 2.107211 1_555
Mn4 O18 2.140694 1_555
Mn4 O19 2.140694 1_555
Mn5 O22 1.925769 1_555
Mn5 O21 1.925769 1_555
Mn5 O17 1.947898 1_555
Mn5 O14 1.950159 1_555
Mn5 O10 1.988811 1_555
Mn5 O8 1.988811 1_555
Mn6 O24 1.956494 1_555
Mn6 O23 1.957475 1_455
Mn6 O20 1.957475 1_545
Mn6 O18 1.957497 1_555
Mn6 O19 1.957497 1_555
Mn6 O29 1.961159 1_555
Mn7 O25 1.926184 1_555
Mn7 O27 1.944214 1_445
Mn7 O23 2.104368 1_455
Mn7 O20 2.104368 1_545
Mn7 O31 2.147791 1_455
Mn7 O30 2.147791 1_545
Fe0 O9 2.010326 1_655
Fe0 O7 2.022820 1_555
Fe0 O1 2.026001 1_555
Fe0 O4 2.049450 1_655
Fe0 O3 2.061324 1_655
Fe0 O6 2.121601 1_555
Fe1 O11 2.010326 1_565
Fe1 O7 2.022820 1_555
Fe1 O0 2.026001 1_555
Fe1 O4 2.049450 1_565
Fe1 O3 2.061324 1_565
Fe1 O6 2.121601 1_555
Fe2 O13 2.003464 1_545
Fe2 O12 2.003464 1_455
Fe2 O2 2.018771 1_445
Fe2 O3 2.059185 1_555
Fe3 O21 2.008529 1_555
Fe3 O16 2.027446 1_655
Fe3 O14 2.033364 1_555
Fe3 O26 2.050147 1_555
Fe3 O19 2.068383 1_655
Fe3 O29 2.096044 1_655
Fe4 O22 2.008529 1_555
Fe4 O16 2.027446 1_565
Fe4 O14 2.033364 1_555
Fe4 O26 2.050147 1_555
Fe4 O18 2.068383 1_565
Fe4 O29 2.096044 1_565
Fe5 O17 2.017049 1_555
Fe5 O15 2.030948 1_545
Fe5 O8 2.046176 1_555
Fe5 O13 2.056467 1_545
Fe5 O5 2.065491 1_555
Fe5 O2 2.070580 1_545
Fe6 O17 2.017049 1_555
Fe6 O15 2.030948 1_455
Fe6 O10 2.046176 1_555
Fe6 O12 2.056467 1_455
Fe6 O5 2.065491 1_555
Fe6 O2 2.070580 1_455
Fe7 O18 2.018734 1_565
Fe7 O19 2.018734 1_655
Fe7 O29 2.032421 1_665
Fe7 O27 2.071092 1_555
Fe8 O23 1.991754 1_455
Fe8 O24 2.022723 1_555
Fe8 O25 2.037877 1_555
Fe8 O27 2.040005 1_455
Fe8 O30 2.076113 1_555
Fe8 O28 2.139455 1_455
Fe9 O20 1.991754 1_545
Fe9 O24 2.022723 1_555
Fe9 O25 2.037877 1_555
Fe9 O27 2.040005 1_545
Fe9 O31 2.076113 1_555
Fe9 O28 2.139455 1_545
Fe10 O31 1.913098 1_555
Fe10 O30 1.913098 1_555
Fe10 O6 1.939578 1_554
Fe10 O28 1.950364 1_555
