# generated using pymatgen
data_Fe4O3F5
_symmetry_space_group_name_H-M   'P 1'
_cell_length_a   5.69814001
_cell_length_b   5.69814001
_cell_length_c   10.40445081
_cell_angle_alpha   70.64098034
_cell_angle_beta   70.64098034
_cell_angle_gamma   65.70009993
_symmetry_Int_Tables_number   1
_chemical_formula_structural   Fe4O3F5
_chemical_formula_sum   'Fe8 O6 F10'
_cell_volume   282.90838483
_cell_formula_units_Z   2
loop_
 _symmetry_equiv_pos_site_id
 _symmetry_equiv_pos_as_xyz
  1  'x, y, z'
loop_
 _atom_site_type_symbol
 _atom_site_label
 _atom_site_symmetry_multiplicity
 _atom_site_fract_x
 _atom_site_fract_y
 _atom_site_fract_z
 _atom_site_occupancy
  Fe  Fe0  1  0.11538800  0.64057900  0.75616800  1
  Fe  Fe1  1  0.37108400  0.88898500  0.25542600  1
  Fe  Fe2  1  0.24822700  0.24822700  0.49515700  1
  Fe  Fe3  1  0.75197700  0.75197700  0.50073300  1
  Fe  Fe4  1  0.49433600  0.49433600  0.98862400  1
  Fe  Fe5  1  0.88898500  0.37108400  0.25542600  1
  Fe  Fe6  1  0.64057900  0.11538800  0.75616800  1
  Fe  Fe7  1  0.00650500  0.00650500  0.00422700  1
  O  O0  1  0.93082000  0.93082000  0.85263200  1
  O  O1  1  0.82788800  0.82788800  0.65235000  1
  O  O2  1  0.67312100  0.67312100  0.34993300  1
  O  O3  1  0.17716400  0.17716400  0.34497200  1
  O  O4  1  0.41937600  0.41937600  0.83870200  1
  O  O5  1  0.08132600  0.08132600  0.14968600  1
  F  F0  1  0.36280000  0.83778700  0.60140600  1
  F  F1  1  0.57479200  0.57479200  0.15014200  1
  F  F2  1  0.32419700  0.32419700  0.64804200  1
  F  F3  1  0.39225600  0.91437500  0.90144100  1
  F  F4  1  0.13821500  0.66503300  0.39893700  1
  F  F5  1  0.91437500  0.39225600  0.90144100  1
  F  F6  1  0.61338400  0.09187000  0.10178600  1
  F  F7  1  0.83778700  0.36280000  0.60140600  1
  F  F8  1  0.09187000  0.61338400  0.10178600  1
  F  F9  1  0.66503300  0.13821500  0.39893700  1
loop_
_geom_bond_atom_site_label_1
_geom_bond_atom_site_label_2
_geom_bond_distance
_geom_bond_site_symmetry_2
Fe0 O4 1.948889 1_555
Fe0 O0 1.953894 1_455
Fe0 O1 1.989839 1_455
Fe1 O3 1.903640 1_565
Fe1 O2 2.004905 1_555
Fe1 O5 2.013252 1_565
Fe2 O3 1.934825 1_555
Fe3 O1 1.980259 1_555
Fe3 O2 1.991605 1_555
Fe4 O4 1.957453 1_555
Fe5 O3 1.903640 1_655
Fe5 O2 2.004905 1_555
Fe5 O5 2.013252 1_655
Fe6 O4 1.948889 1_555
Fe6 O0 1.953894 1_545
Fe6 O1 1.989839 1_545
Fe7 O5 1.912882 1_555
Fe7 O0 1.978570 1_444
F0 Fe3 2.039875 1_555
F0 Fe0 2.107673 1_555
F0 Fe2 2.150761 1_565
F1 Fe4 2.106888 1_554
F1 Fe1 2.121178 1_555
F1 Fe5 2.121178 1_555
F2 Fe2 1.993068 1_555
F2 Fe6 2.150144 1_555
F2 Fe0 2.150144 1_555
F3 Fe7 2.028503 1_566
F3 Fe6 2.089713 1_565
F3 Fe4 2.157394 1_555
F4 Fe3 2.028795 1_455
F4 Fe1 2.106066 1_555
F4 Fe2 2.156456 1_555
F5 Fe7 2.028503 1_656
F5 Fe0 2.089713 1_655
F5 Fe4 2.157394 1_555
F6 Fe7 2.051317 1_655
F6 Fe1 2.103166 1_545
F6 Fe4 2.136519 1_554
F7 Fe3 2.039875 1_555
F7 Fe6 2.107673 1_555
F7 Fe2 2.150761 1_655
F8 Fe7 2.051317 1_565
F8 Fe5 2.103166 1_455
F8 Fe4 2.136519 1_554
F9 Fe3 2.028795 1_545
F9 Fe5 2.106066 1_555
F9 Fe2 2.156456 1_555
