# generated using pymatgen
data_Li3MnBPO7
_symmetry_space_group_name_H-M   'P 1'
_cell_length_a   5.01120410
_cell_length_b   10.68031133
_cell_length_c   10.67930969
_cell_angle_alpha   102.25218112
_cell_angle_beta   94.68472508
_cell_angle_gamma   85.31468364
_symmetry_Int_Tables_number   1
_chemical_formula_structural   Li3MnBPO7
_chemical_formula_sum   'Li12 Mn4 B4 P4 O28'
_cell_volume   555.46862874
_cell_formula_units_Z   4
loop_
 _symmetry_equiv_pos_site_id
 _symmetry_equiv_pos_as_xyz
  1  'x, y, z'
loop_
 _atom_site_type_symbol
 _atom_site_label
 _atom_site_symmetry_multiplicity
 _atom_site_fract_x
 _atom_site_fract_y
 _atom_site_fract_z
 _atom_site_occupancy
  Li  Li0  1  0.77134900  0.17438100  0.07560300  1
  Li  Li1  1  0.77153500  0.67436000  0.57565900  1
  Li  Li2  1  0.22871000  0.82560700  0.92442100  1
  Li  Li3  1  0.22843600  0.32564500  0.42432000  1
  Li  Li4  1  0.25162300  0.12375700  0.88202200  1
  Li  Li5  1  0.25144100  0.62392800  0.38198800  1
  Li  Li6  1  0.25132700  0.36795100  0.12616100  1
  Li  Li7  1  0.25167600  0.86806100  0.62617700  1
  Li  Li8  1  0.74855500  0.63206500  0.87381200  1
  Li  Li9  1  0.74847600  0.13192500  0.37378600  1
  Li  Li10  1  0.74856800  0.87630100  0.11800200  1
  Li  Li11  1  0.74847200  0.37606200  0.61799200  1
  Mn  Mn0  1  0.78204200  0.03814200  0.71168300  1
  Mn  Mn1  1  0.21808800  0.96177200  0.28830400  1
  Mn  Mn2  1  0.78161600  0.53812600  0.21177600  1
  Mn  Mn3  1  0.21812600  0.46182500  0.78810400  1
  B  B0  1  0.69965300  0.39722100  0.35272200  1
  B  B1  1  0.70008200  0.89738400  0.85275100  1
  B  B2  1  0.30028400  0.60280400  0.64727700  1
  B  B3  1  0.29991800  0.10259700  0.14729000  1
  P  P0  1  0.74881800  0.33237800  0.91762000  1
  P  P1  1  0.74891900  0.83227500  0.41771700  1
  P  P2  1  0.25094700  0.66761300  0.08237800  1
  P  P3  1  0.25129100  0.16772700  0.58228700  1
  O  O0  1  0.37006300  0.17868800  0.07128900  1
  O  O1  1  0.37032200  0.67882000  0.57119200  1
  O  O2  1  0.62996800  0.82127500  0.92871700  1
  O  O3  1  0.62966200  0.32117200  0.42877800  1
  O  O4  1  0.95879900  0.42087800  0.32902900  1
  O  O5  1  0.95936600  0.92101700  0.82910200  1
  O  O6  1  0.04105400  0.57917000  0.67090100  1
  O  O7  1  0.04070500  0.07896400  0.17095800  1
  O  O8  1  0.50561900  0.46575200  0.28421900  1
  O  O9  1  0.50639500  0.96598300  0.78413900  1
  O  O10  1  0.49404100  0.53420200  0.71583000  1
  O  O11  1  0.49388800  0.03407500  0.21583500  1
  O  O12  1  0.43777900  0.35419100  0.89578300  1
  O  O13  1  0.43779700  0.85404400  0.39603700  1
  O  O14  1  0.56201300  0.64585700  0.10417000  1
  O  O15  1  0.56235500  0.14596000  0.60402000  1
  O  O16  1  0.12439500  0.58640800  0.16348700  1
  O  O17  1  0.12497400  0.08653000  0.66348000  1
  O  O18  1  0.87527800  0.41360200  0.83652200  1
  O  O19  1  0.87533600  0.91349700  0.33655500  1
  O  O20  1  0.83682500  0.18767900  0.88119200  1
  O  O21  1  0.83675400  0.68753000  0.38139000  1
  O  O22  1  0.83658400  0.36870500  0.06236400  1
  O  O23  1  0.83682400  0.86869400  0.56246100  1
  O  O24  1  0.16331100  0.63132300  0.93761900  1
  O  O25  1  0.16334900  0.13129500  0.43758200  1
  O  O26  1  0.16323700  0.81234600  0.11884300  1
  O  O27  1  0.16335200  0.31243500  0.61865300  1
loop_
_geom_bond_atom_site_label_1
_geom_bond_atom_site_label_2
_geom_bond_distance
_geom_bond_site_symmetry_2
Li0 O7 1.971975 1_655
Li0 O0 2.004674 1_555
Li0 O22 2.162693 1_555
Li0 O20 2.163879 1_554
Li1 O6 1.970396 1_655
Li1 O1 2.004133 1_555
Li1 O21 2.161697 1_555
Li1 O23 2.162739 1_555
Li2 O5 1.971677 1_455
Li2 O2 2.004529 1_555
Li2 O24 2.162342 1_555
Li2 O26 2.163880 1_556
Li3 O4 1.971311 1_455
Li3 O3 2.004196 1_555
Li3 O27 2.162332 1_555
Li3 O25 2.162862 1_555
Li4 O0 2.034579 1_556
Li4 O20 2.134157 1_455
Li4 O9 2.163586 1_545
Li4 O17 2.326648 1_555
Li5 O1 2.034444 1_555
Li5 O21 2.132829 1_455
Li5 O8 2.164161 1_555
Li5 O16 2.326584 1_555
Li6 O0 2.034983 1_555
Li6 O22 2.133572 1_455
Li6 O8 2.163767 1_555
Li6 O16 2.326261 1_555
Li7 O1 2.034786 1_555
Li7 O23 2.133893 1_455
Li7 O9 2.164803 1_555
Li7 O17 2.326150 1_565
Li8 O2 2.034329 1_555
Li8 O24 2.133660 1_655
Li8 O10 2.164126 1_555
Li8 O18 2.326114 1_555
Li9 O3 2.035049 1_555
Li9 O25 2.134198 1_655
Li9 O11 2.164077 1_555
Li9 O19 2.325914 1_545
Li10 O2 2.035044 1_554
Li10 O26 2.133629 1_655
Li10 O11 2.163130 1_565
Li10 O19 2.326888 1_555
Li11 O3 2.034455 1_555
Li11 O27 2.133804 1_655
Li11 O10 2.164903 1_555
Li11 O18 2.326625 1_555
Mn0 O9 1.924148 1_545
Mn0 O17 1.971758 1_655
Mn0 O15 2.002008 1_555
Mn0 O5 2.056456 1_545
Mn0 O23 2.157857 1_545
Mn0 O20 2.160193 1_555
Mn1 O11 1.925662 1_565
Mn1 O19 1.970663 1_455
Mn1 O13 2.001919 1_555
Mn1 O7 2.056508 1_565
Mn1 O25 2.158710 1_565
Mn1 O26 2.159212 1_555
Mn2 O8 1.926697 1_555
Mn2 O16 1.970973 1_655
Mn2 O14 2.000814 1_555
Mn2 O4 2.055897 1_555
Mn2 O22 2.158933 1_555
Mn2 O21 2.160346 1_555
Mn3 O10 1.925409 1_555
Mn3 O18 1.971580 1_455
Mn3 O12 2.000761 1_555
Mn3 O6 2.056065 1_555
Mn3 O27 2.158874 1_555
Mn3 O24 2.160022 1_555
B0 O3 1.347411 1_555
B0 O4 1.395966 1_555
B0 O8 1.418157 1_555
B1 O2 1.347392 1_555
B1 O5 1.396415 1_555
B1 O9 1.418190 1_555
B2 O1 1.347463 1_555
B2 O6 1.396080 1_555
B2 O10 1.418059 1_555
B3 O0 1.347584 1_555
B3 O7 1.396133 1_555
B3 O11 1.418165 1_555
O12 P0 1.562851 1_555
O13 P1 1.563044 1_555
O14 P2 1.562875 1_555
O15 P3 1.562815 1_555
O16 P2 1.550192 1_555
O17 P3 1.550180 1_555
O18 P0 1.550022 1_555
O19 P1 1.550385 1_555
O20 P0 1.547806 1_555
O21 P1 1.547999 1_555
O22 P0 1.547786 1_554
O23 P1 1.548003 1_555
O24 P2 1.547764 1_556
O25 P3 1.547669 1_555
O26 P2 1.547833 1_555
O27 P3 1.547777 1_555
