# generated using pymatgen
data_Li2CrPO4F
_symmetry_space_group_name_H-M   'P 1'
_cell_length_a   5.13729200
_cell_length_b   13.15328700
_cell_length_c   13.28388369
_cell_angle_alpha   60.10045354
_cell_angle_beta   90.00000000
_cell_angle_gamma   90.00000000
_symmetry_Int_Tables_number   1
_chemical_formula_structural   Li2CrPO4F
_chemical_formula_sum   'Li16 Cr8 P8 O32 F8'
_cell_volume   778.14935745
_cell_formula_units_Z   8
loop_
 _symmetry_equiv_pos_site_id
 _symmetry_equiv_pos_as_xyz
  1  'x, y, z'
loop_
 _atom_site_type_symbol
 _atom_site_label
 _atom_site_symmetry_multiplicity
 _atom_site_fract_x
 _atom_site_fract_y
 _atom_site_fract_z
 _atom_site_occupancy
  Li  Li0  1  0.74404100  0.34082400  0.83031000  1
  Li  Li1  1  0.74391100  0.58124400  0.59122100  1
  Li  Li2  1  0.24391100  0.41875600  0.90877900  1
  Li  Li3  1  0.71900800  0.84266300  0.32978200  1
  Li  Li4  1  0.24404100  0.65917600  0.66969000  1
  Li  Li5  1  0.26459200  0.91620900  0.16983400  1
  Li  Li6  1  0.76459200  0.08379100  0.33016600  1
  Li  Li7  1  0.78099200  0.84266300  0.82978200  1
  Li  Li8  1  0.21900800  0.15733700  0.17021800  1
  Li  Li9  1  0.23540800  0.91620900  0.66983400  1
  Li  Li10  1  0.73540800  0.08379100  0.83016600  1
  Li  Li11  1  0.75595900  0.34082400  0.33031000  1
  Li  Li12  1  0.28099200  0.15733700  0.67021800  1
  Li  Li13  1  0.75608900  0.58124400  0.09122100  1
  Li  Li14  1  0.25608900  0.41875600  0.40877900  1
  Li  Li15  1  0.25595900  0.65917600  0.16969000  1
  Cr  Cr0  1  0.29143500  0.42481700  0.67449100  1
  Cr  Cr1  1  0.79143500  0.57518300  0.82550900  1
  Cr  Cr2  1  0.22157800  0.92934100  0.39797000  1
  Cr  Cr3  1  0.72157800  0.07065900  0.10203000  1
  Cr  Cr4  1  0.27842200  0.92934100  0.89797000  1
  Cr  Cr5  1  0.77842200  0.07065900  0.60203000  1
  Cr  Cr6  1  0.20856500  0.42481700  0.17449100  1
  Cr  Cr7  1  0.70856500  0.57518300  0.32550900  1
  P  P0  1  0.22996100  0.16781900  0.91599400  1
  P  P1  1  0.22033700  0.66743700  0.42089800  1
  P  P2  1  0.27966300  0.66743700  0.92089800  1
  P  P3  1  0.72996100  0.83218100  0.58400600  1
  P  P4  1  0.27003900  0.16781900  0.41599400  1
  P  P5  1  0.72033700  0.33256300  0.07910200  1
  P  P6  1  0.77966300  0.33256300  0.57910200  1
  P  P7  1  0.77003900  0.83218100  0.08400600  1
  O  O0  1  0.92695800  0.16394000  0.91244000  1
  O  O1  1  0.66967400  0.39236400  0.64540600  1
  O  O2  1  0.32937300  0.29636200  0.85118900  1
  O  O3  1  0.91697200  0.66404600  0.42131700  1
  O  O4  1  0.32952900  0.60418400  0.54714800  1
  O  O5  1  0.82952900  0.39581600  0.95285200  1
  O  O6  1  0.31807300  0.79681300  0.35976500  1
  O  O7  1  0.64967300  0.89776100  0.14373600  1
  O  O8  1  0.82937300  0.70363800  0.64881100  1
  O  O9  1  0.16967400  0.60763600  0.85459400  1
  O  O10  1  0.58302800  0.66404600  0.92131700  1
  O  O11  1  0.82979200  0.89016300  0.45630800  1
  O  O12  1  0.42695800  0.83606000  0.58756000  1
  O  O13  1  0.32979200  0.10983700  0.04369200  1
  O  O14  1  0.18192700  0.79681300  0.85976500  1
  O  O15  1  0.85032700  0.89776100  0.64373600  1
  O  O16  1  0.14967300  0.10223900  0.35626400  1
  O  O17  1  0.81807300  0.20318700  0.14023500  1
  O  O18  1  0.67020800  0.89016300  0.95630800  1
  O  O19  1  0.57304200  0.16394000  0.41244000  1
  O  O20  1  0.17020800  0.10983700  0.54369200  1
  O  O21  1  0.41697200  0.33595400  0.07868300  1
  O  O22  1  0.83032600  0.39236400  0.14540600  1
  O  O23  1  0.17062700  0.29636200  0.35118900  1
  O  O24  1  0.35032700  0.10223900  0.85626400  1
  O  O25  1  0.68192700  0.20318700  0.64023500  1
  O  O26  1  0.17047100  0.60418400  0.04714800  1
  O  O27  1  0.67047100  0.39581600  0.45285200  1
  O  O28  1  0.08302800  0.33595400  0.57868300  1
  O  O29  1  0.67062700  0.70363800  0.14881100  1
  O  O30  1  0.33032600  0.60763600  0.35459400  1
  O  O31  1  0.07304200  0.83606000  0.08756000  1
  F  F0  1  0.99338200  0.48210800  0.73064700  1
  F  F1  1  0.49338200  0.51789200  0.76935300  1
  F  F2  1  0.00447900  0.98804900  0.22313800  1
  F  F3  1  0.50447900  0.01195100  0.27686200  1
  F  F4  1  0.49552100  0.98804900  0.72313800  1
  F  F5  1  0.99552100  0.01195100  0.77686200  1
  F  F6  1  0.50661800  0.48210800  0.23064700  1
  F  F7  1  0.00661800  0.51789200  0.26935300  1
loop_
_geom_bond_atom_site_label_1
_geom_bond_atom_site_label_2
_geom_bond_distance
_geom_bond_site_symmetry_2
Li0 O5 2.130679 1_555
Li0 O2 2.189814 1_555
Li0 O0 2.226161 1_555
Li0 O1 2.231275 1_555
Li1 O8 2.144198 1_555
Li1 O3 2.149405 1_555
Li1 O4 2.188489 1_555
Li1 O1 2.247877 1_555
Li2 O2 2.144198 1_555
Li2 O21 2.149405 1_556
Li2 O5 2.188489 1_455
Li2 O9 2.247877 1_555
Li3 O6 2.127279 1_555
Li3 O11 2.141522 1_555
Li3 O7 2.230322 1_555
Li3 O3 2.276934 1_555
Li4 O4 2.130679 1_555
Li4 O8 2.189814 1_455
Li4 O12 2.226161 1_555
Li4 O9 2.231275 1_555
Li5 O7 2.043649 1_555
Li5 O31 2.103066 1_555
Li5 O6 2.226476 1_555
Li5 O13 2.269750 1_565
Li6 O16 2.043649 1_655
Li6 O19 2.103066 1_555
Li6 O17 2.226476 1_555
Li6 O11 2.269750 1_545
Li7 O14 2.127279 1_655
Li7 O18 2.141522 1_555
Li7 O15 2.230322 1_555
Li7 O10 2.276934 1_555
Li8 O17 2.127279 1_455
Li8 O13 2.141522 1_555
Li8 O16 2.230322 1_555
Li8 O21 2.276934 1_555
Li9 O15 2.043649 1_455
Li9 O12 2.103066 1_555
Li9 O14 2.226476 1_555
Li9 O20 2.269750 1_565
Li10 O24 2.043649 1_555
Li10 O0 2.103066 1_555
Li10 O25 2.226476 1_555
Li10 O18 2.269750 1_545
Li11 O27 2.130679 1_555
Li11 O23 2.189814 1_655
Li11 O19 2.226161 1_555
Li11 O22 2.231275 1_555
Li12 O25 2.127279 1_555
Li12 O20 2.141522 1_555
Li12 O24 2.230322 1_555
Li12 O28 2.276934 1_555
Li13 O29 2.144198 1_555
Li13 O10 2.149405 1_554
Li13 O26 2.188489 1_655
Li13 O22 2.247877 1_555
Li14 O23 2.144198 1_555
Li14 O28 2.149405 1_555
Li14 O27 2.188489 1_555
Li14 O30 2.247877 1_555
Li15 O26 2.130679 1_555
Li15 O29 2.189814 1_555
Li15 O31 2.226161 1_555
Li15 O30 2.231275 1_555
Cr0 F0 2.007309 1_455
Cr0 O1 2.066795 1_555
Cr0 O2 2.109126 1_555
Cr0 O4 2.118288 1_555
Cr0 O28 2.369665 1_555
Cr0 F1 2.387689 1_555
Cr1 F1 2.007309 1_555
Cr1 O9 2.066795 1_655
Cr1 O8 2.109126 1_555
Cr1 O5 2.118288 1_555
Cr1 O10 2.369665 1_555
Cr1 F0 2.387689 1_555
Cr2 F3 2.034281 1_565
Cr2 O16 2.087861 1_565
Cr2 O6 2.103325 1_555
Cr2 O11 2.125797 1_455
Cr2 F2 2.333668 1_555
Cr2 O12 2.425028 1_555
Cr3 F2 2.034281 1_645
Cr3 O7 2.087861 1_545
Cr3 O17 2.103325 1_555
Cr3 O13 2.125797 1_555
Cr3 F3 2.333668 1_555
Cr3 O0 2.425028 1_554
Cr4 F5 2.034281 1_465
Cr4 O24 2.087861 1_565
Cr4 O14 2.103325 1_555
Cr4 O18 2.125797 1_555
Cr4 F4 2.333668 1_555
Cr4 O31 2.425028 1_556
Cr5 F4 2.034281 1_545
Cr5 O15 2.087861 1_545
Cr5 O25 2.103325 1_555
Cr5 O20 2.125797 1_655
Cr5 F5 2.333668 1_555
Cr5 O19 2.425028 1_555
Cr6 F6 2.007309 1_555
Cr6 O22 2.066795 1_455
Cr6 O23 2.109126 1_555
Cr6 O26 2.118288 1_555
Cr6 O21 2.369665 1_555
Cr6 F7 2.387689 1_555
Cr7 F7 2.007309 1_655
Cr7 O30 2.066795 1_555
Cr7 O29 2.109126 1_555
Cr7 O27 2.118288 1_555
Cr7 O3 2.369665 1_555
Cr7 F6 2.387689 1_555
O0 P0 1.558937 1_655
O1 P6 1.550627 1_555
O2 P0 1.552255 1_555
O3 P1 1.559043 1_655
O4 P1 1.558340 1_555
O5 P5 1.558340 1_556
O6 P1 1.558747 1_555
O7 P7 1.561515 1_555
O8 P3 1.552255 1_555
O9 P2 1.550627 1_555
O10 P2 1.559043 1_555
O11 P3 1.559618 1_555
O12 P3 1.558937 1_555
O13 P0 1.559618 1_554
O14 P2 1.558747 1_555
O15 P3 1.561515 1_555
O16 P4 1.561515 1_555
O17 P5 1.558747 1_555
O18 P7 1.559618 1_556
O19 P4 1.558937 1_555
O20 P4 1.559618 1_555
O21 P5 1.559043 1_555
O22 P5 1.550627 1_555
O23 P4 1.552255 1_555
O24 P0 1.561515 1_555
O25 P6 1.558747 1_555
O26 P2 1.558340 1_554
O27 P6 1.558340 1_555
O28 P6 1.559043 1_455
O29 P7 1.552255 1_555
O30 P1 1.550627 1_555
O31 P7 1.558937 1_455
F0 Li1 2.089359 1_555
F0 Li0 2.096232 1_555
F0 Li4 2.420342 1_655
F0 Li2 2.446291 1_655
F1 Li2 2.089359 1_555
F1 Li4 2.096232 1_555
F1 Li0 2.420342 1_555
F1 Li1 2.446291 1_555
F2 Li5 1.961370 1_555
F2 Li8 2.259734 1_565
F2 Li3 2.261355 1_455
F3 Li6 1.961370 1_555
F3 Li3 2.259734 1_545
F3 Li8 2.261355 1_555
F4 Li9 1.961370 1_555
F4 Li12 2.259734 1_565
F4 Li7 2.261355 1_555
F5 Li10 1.961370 1_555
F5 Li7 2.259734 1_545
F5 Li12 2.261355 1_655
F6 Li13 2.089359 1_555
F6 Li11 2.096232 1_555
F6 Li15 2.420342 1_555
F6 Li14 2.446291 1_555
F7 Li14 2.089359 1_555
F7 Li15 2.096232 1_555
F7 Li11 2.420342 1_455
F7 Li13 2.446291 1_455
