# generated using pymatgen
data_Li4MnFe3(BO3)4
_symmetry_space_group_name_H-M   'P 1'
_cell_length_a   5.18081300
_cell_length_b   6.00452982
_cell_length_c   9.12871761
_cell_angle_alpha   104.74440556
_cell_angle_beta   89.83055491
_cell_angle_gamma   113.33713930
_symmetry_Int_Tables_number   1
_chemical_formula_structural   Li4MnFe3(BO3)4
_chemical_formula_sum   'Li4 Mn1 Fe3 B4 O12'
_cell_volume   250.62457015
_cell_formula_units_Z   1
loop_
 _symmetry_equiv_pos_site_id
 _symmetry_equiv_pos_as_xyz
  1  'x, y, z'
loop_
 _atom_site_type_symbol
 _atom_site_label
 _atom_site_symmetry_multiplicity
 _atom_site_fract_x
 _atom_site_fract_y
 _atom_site_fract_z
 _atom_site_occupancy
  Li  Li0  1  0.25005700  0.67196400  0.18367100  1
  Li  Li1  1  0.75577500  0.67985600  0.68717100  1
  Li  Li2  1  0.24366900  0.32340300  0.31338900  1
  Li  Li3  1  0.74726000  0.32562400  0.81451800  1
  Mn  Mn0  1  0.78736000  0.76709500  0.37604500  1
  Fe  Fe0  1  0.29267400  0.76634900  0.87662100  1
  Fe  Fe1  1  0.71237100  0.23360600  0.12767800  1
  Fe  Fe2  1  0.21253600  0.24394300  0.62939200  1
  B  B0  1  0.77595900  0.73800800  0.03601100  1
  B  B1  1  0.27330000  0.74203400  0.53966000  1
  B  B2  1  0.72602300  0.26035900  0.46252300  1
  B  B3  1  0.22594900  0.25664300  0.96138000  1
  O  O0  1  0.55568800  0.82097300  0.06028400  1
  O  O1  1  0.05952100  0.82986100  0.56713900  1
  O  O2  1  0.36246300  0.70254700  0.39508300  1
  O  O3  1  0.88253700  0.67898600  0.15354100  1
  O  O4  1  0.38366400  0.68189600  0.65566100  1
  O  O5  1  0.12596100  0.29001600  0.10194600  1
  O  O6  1  0.87339100  0.70649300  0.89445100  1
  O  O7  1  0.61208700  0.30927100  0.34117600  1
  O  O8  1  0.11769600  0.31667600  0.84354900  1
  O  O9  1  0.63034300  0.29768300  0.60343400  1
  O  O10  1  0.94841900  0.18137500  0.43901100  1
  O  O11  1  0.44529700  0.17533800  0.93666900  1
loop_
_geom_bond_atom_site_label_1
_geom_bond_atom_site_label_2
_geom_bond_distance
_geom_bond_site_symmetry_2
Li0 O3 1.943052 1_455
Li0 O2 1.959330 1_555
Li0 O0 1.989078 1_555
Li0 O5 2.047781 1_555
Li1 O6 1.937230 1_555
Li1 O4 1.955308 1_555
Li1 O1 1.964048 1_655
Li1 O9 2.049672 1_555
Li2 O10 1.958584 1_455
Li2 O5 1.962370 1_555
Li2 O7 1.963884 1_555
Li2 O2 2.036221 1_555
Li3 O8 1.961694 1_655
Li3 O9 1.967213 1_555
Li3 O11 1.971931 1_555
Li3 O6 2.039348 1_555
Mn0 O3 2.074244 1_555
Mn0 O2 2.093384 1_555
Mn0 O1 2.105264 1_655
Mn0 O10 2.201159 1_565
Mn0 O7 2.462021 1_555
Fe0 O0 2.038344 1_556
Fe0 O4 2.052098 1_555
Fe0 O6 2.069632 1_455
Fe0 O11 2.176114 1_565
Fe0 O8 2.418836 1_555
Fe1 O7 2.001279 1_555
Fe1 O5 2.055167 1_655
Fe1 O11 2.097021 1_554
Fe1 O0 2.193138 1_545
Fe1 O3 2.407642 1_555
Fe2 O8 1.995954 1_555
Fe2 O10 2.075654 1_455
Fe2 O9 2.080428 1_555
Fe2 O1 2.203459 1_545
Fe2 O4 2.364735 1_555
B0 O6 1.381266 1_554
B0 O3 1.390567 1_555
B0 O0 1.411486 1_555
B1 O2 1.391174 1_555
B1 O4 1.393010 1_555
B1 O1 1.400526 1_555
B2 O9 1.374086 1_555
B2 O7 1.403069 1_555
B2 O10 1.406484 1_555
B3 O5 1.379309 1_556
B3 O8 1.400927 1_555
B3 O11 1.400931 1_555
