# generated using pymatgen
data_Li17Ni11O28
_symmetry_space_group_name_H-M   'P 1'
_cell_length_a   5.79632200
_cell_length_b   6.40416077
_cell_length_c   13.19099133
_cell_angle_alpha   84.35145396
_cell_angle_beta   82.89332050
_cell_angle_gamma   75.95543938
_symmetry_Int_Tables_number   1
_chemical_formula_structural   Li17Ni11O28
_chemical_formula_sum   'Li17 Ni11 O28'
_cell_volume   470.17921805
_cell_formula_units_Z   1
loop_
 _symmetry_equiv_pos_site_id
 _symmetry_equiv_pos_as_xyz
  1  'x, y, z'
loop_
 _atom_site_type_symbol
 _atom_site_label
 _atom_site_symmetry_multiplicity
 _atom_site_fract_x
 _atom_site_fract_y
 _atom_site_fract_z
 _atom_site_occupancy
  Li  Li0  1  0.07394400  0.93835000  0.78420900  1
  Li  Li1  1  0.36007000  0.64256800  0.92779800  1
  Li  Li2  1  0.71283900  0.27610400  0.85896400  1
  Li  Li3  1  0.50000000  0.00000000  0.00000000  1
  Li  Li4  1  0.00000000  0.00000000  0.00000000  1
  Li  Li5  1  0.28716100  0.72389600  0.14103600  1
  Li  Li6  1  0.63993000  0.35743200  0.07220200  1
  Li  Li7  1  0.92605600  0.06165000  0.21579100  1
  Li  Li8  1  0.71810800  0.78247600  0.35746700  1
  Li  Li9  1  0.57848000  0.42838600  0.28836100  1
  Li  Li10  1  0.21149700  0.78010200  0.35785100  1
  Li  Li11  1  0.86094600  0.14053500  0.43046500  1
  Li  Li12  1  0.50000000  0.50000000  0.50000000  1
  Li  Li13  1  0.13905400  0.85946500  0.56953500  1
  Li  Li14  1  0.28189200  0.21752400  0.64253300  1
  Li  Li15  1  0.78850300  0.21989800  0.64214900  1
  Li  Li16  1  0.42152000  0.57161400  0.71163900  1
  Ni  Ni0  1  0.56632100  0.92996800  0.78448800  1
  Ni  Ni1  1  0.85617600  0.64165600  0.92803300  1
  Ni  Ni2  1  0.21189500  0.28486300  0.85706800  1
  Ni  Ni3  1  0.14382400  0.35834400  0.07196700  1
  Ni  Ni4  1  0.78810500  0.71513700  0.14293200  1
  Ni  Ni5  1  0.43367900  0.07003200  0.21551200  1
  Ni  Ni6  1  0.07938700  0.42993700  0.28721600  1
  Ni  Ni7  1  0.36485100  0.14266200  0.42939600  1
  Ni  Ni8  1  0.00000000  0.50000000  0.50000000  1
  Ni  Ni9  1  0.63514900  0.85733800  0.57060400  1
  Ni  Ni10  1  0.92061300  0.57006300  0.71278400  1
  O  O0  1  0.64855800  0.62602700  0.81328700  1
  O  O1  1  0.48840500  0.23412200  0.76147800  1
  O  O2  1  0.12897800  0.58823200  0.82738400  1
  O  O3  1  0.00846700  0.26686200  0.75668900  1
  O  O4  1  0.29586800  0.97942600  0.88251200  1
  O  O5  1  0.77682400  0.94095900  0.88380300  1
  O  O6  1  0.60531200  0.67710000  0.03658700  1
  O  O7  1  0.39468800  0.32290000  0.96341300  1
  O  O8  1  0.94139800  0.32949700  0.95715200  1
  O  O9  1  0.05860200  0.67050300  0.04284800  1
  O  O10  1  0.70413200  0.02057400  0.11748800  1
  O  O11  1  0.22317600  0.05904100  0.11619700  1
  O  O12  1  0.99153300  0.73313800  0.24331100  1
  O  O13  1  0.51159500  0.76587800  0.23852200  1
  O  O14  1  0.87102200  0.41176800  0.17261600  1
  O  O15  1  0.35144200  0.37397300  0.18671300  1
  O  O16  1  0.61788700  0.10263600  0.32058500  1
  O  O17  1  0.17805500  0.11217100  0.32310100  1
  O  O18  1  0.91001200  0.80788000  0.47402900  1
  O  O19  1  0.82508900  0.46122100  0.39022500  1
  O  O20  1  0.43374500  0.84419800  0.47092400  1
  O  O21  1  0.29897900  0.44508700  0.39622700  1
  O  O22  1  0.56625500  0.15580200  0.52907600  1
  O  O23  1  0.08998800  0.19212000  0.52597100  1
  O  O24  1  0.38211300  0.89736400  0.67941500  1
  O  O25  1  0.82194500  0.88782900  0.67689900  1
  O  O26  1  0.17491100  0.53877900  0.60977500  1
  O  O27  1  0.70102100  0.55491300  0.60377300  1
loop_
_geom_bond_atom_site_label_1
_geom_bond_atom_site_label_2
_geom_bond_distance
_geom_bond_site_symmetry_2
Li0 O4 2.012325 1_555
Li0 O5 2.030446 1_455
Li0 O3 2.048949 1_565
Li0 O24 2.098411 1_555
Li0 O2 2.213606 1_555
Li0 O25 2.252347 1_455
Li1 O7 2.021545 1_555
Li1 O0 2.099898 1_555
Li1 O2 2.103741 1_555
Li1 O4 2.135632 1_555
Li1 O9 2.152710 1_556
Li1 O6 2.201974 1_556
Li2 O1 2.017418 1_555
Li2 O3 2.038222 1_655
Li2 O8 2.069099 1_555
Li2 O5 2.087315 1_545
Li2 O7 2.138505 1_555
Li2 O0 2.215463 1_555
Li3 O6 2.036059 1_545
Li3 O7 2.036059 1_554
Li3 O5 2.068332 1_544
Li3 O11 2.068332 1_555
Li3 O10 2.094940 1_555
Li3 O4 2.094940 1_544
Li4 O9 2.086245 1_545
Li4 O8 2.086245 1_454
Li4 O10 2.152470 1_455
Li4 O4 2.152470 1_544
Li4 O11 2.237808 1_555
Li4 O5 2.237808 1_444
Li5 O13 2.017418 1_555
Li5 O12 2.038222 1_455
Li5 O9 2.069099 1_555
Li5 O11 2.087315 1_565
Li5 O6 2.138505 1_555
Li5 O15 2.215463 1_555
Li6 O6 2.021545 1_555
Li6 O15 2.099898 1_555
Li6 O14 2.103741 1_555
Li6 O10 2.135632 1_555
Li6 O8 2.152710 1_554
Li6 O7 2.201974 1_554
Li7 O10 2.012325 1_555
Li7 O11 2.030446 1_655
Li7 O12 2.048949 1_545
Li7 O16 2.098411 1_555
Li7 O14 2.213606 1_555
Li7 O17 2.252347 1_655
Li8 O16 2.018312 1_565
Li8 O19 2.018936 1_555
Li8 O12 2.034514 1_555
Li8 O18 2.046495 1_555
Li8 O20 2.074298 1_555
Li8 O13 2.113105 1_555
Li9 O21 2.009006 1_555
Li9 O16 2.050143 1_555
Li9 O15 2.098154 1_555
Li9 O14 2.126386 1_555
Li9 O19 2.137692 1_555
Li9 O13 2.151887 1_555
Li10 O17 2.097674 1_565
Li10 O21 2.106703 1_555
Li10 O18 2.161972 1_455
Li10 O12 2.179694 1_455
Li10 O13 2.187593 1_555
Li10 O20 2.214795 1_555
Li11 O22 2.003366 1_555
Li11 O19 2.036730 1_555
Li11 O23 2.041432 1_655
Li11 O18 2.110685 1_545
Li11 O17 2.159096 1_655
Li11 O16 2.210221 1_555
Li12 O21 2.010826 1_555
Li12 O27 2.010826 1_555
Li12 O20 2.147714 1_555
Li12 O22 2.147714 1_555
Li12 O26 2.208548 1_555
Li12 O19 2.208548 1_555
Li13 O20 2.003366 1_555
Li13 O26 2.036730 1_555
Li13 O18 2.041432 1_455
Li13 O23 2.110685 1_565
Li13 O25 2.159096 1_455
Li13 O24 2.210221 1_555
Li14 O24 2.018312 1_545
Li14 O26 2.018936 1_555
Li14 O3 2.034514 1_555
Li14 O23 2.046495 1_555
Li14 O22 2.074298 1_555
Li14 O1 2.113105 1_555
Li15 O25 2.097674 1_545
Li15 O27 2.106703 1_555
Li15 O23 2.161972 1_655
Li15 O3 2.179694 1_655
Li15 O1 2.187593 1_555
Li15 O22 2.214795 1_555
Li16 O27 2.009006 1_555
Li16 O24 2.050143 1_555
Li16 O0 2.098154 1_555
Li16 O2 2.126386 1_555
Li16 O26 2.137692 1_555
Li16 O1 2.151887 1_555
Ni0 O4 1.888865 1_555
Ni0 O1 1.892297 1_565
Ni0 O0 1.899805 1_555
Ni0 O24 1.906840 1_555
Ni0 O25 1.908759 1_555
Ni0 O5 1.914503 1_555
Ni1 O6 1.898664 1_556
Ni1 O5 1.909024 1_555
Ni1 O2 1.920279 1_655
Ni1 O8 1.950516 1_555
Ni1 O0 2.070810 1_555
Ni1 O9 2.074750 1_656
Ni2 O1 1.895294 1_555
Ni2 O2 1.898023 1_555
Ni2 O4 1.903903 1_545
Ni2 O8 1.904604 1_455
Ni2 O3 1.907675 1_555
Ni2 O7 1.926154 1_555
Ni3 O7 1.898664 1_554
Ni3 O11 1.909024 1_555
Ni3 O14 1.920279 1_455
Ni3 O9 1.950516 1_555
Ni3 O15 2.070810 1_555
Ni3 O8 2.074750 1_454
Ni4 O13 1.895294 1_555
Ni4 O14 1.898023 1_555
Ni4 O10 1.903903 1_565
Ni4 O9 1.904604 1_655
Ni4 O12 1.907675 1_555
Ni4 O6 1.926154 1_555
Ni5 O10 1.888865 1_555
Ni5 O13 1.892297 1_545
Ni5 O15 1.899805 1_555
Ni5 O16 1.906840 1_555
Ni5 O17 1.908759 1_555
Ni5 O11 1.914503 1_555
Ni6 O19 1.863811 1_455
Ni6 O15 1.916935 1_555
Ni6 O12 1.933081 1_455
Ni6 O17 2.001238 1_555
Ni6 O21 2.058522 1_555
Ni6 O14 2.076532 1_455
Ni7 O22 1.883636 1_555
Ni7 O20 1.894884 1_545
Ni7 O23 1.895726 1_555
Ni7 O21 1.898403 1_555
Ni7 O16 1.909470 1_555
Ni7 O17 1.925765 1_555
Ni8 O23 1.920721 1_555
Ni8 O18 1.920721 1_455
Ni8 O26 1.934586 1_555
Ni8 O19 1.934586 1_455
Ni8 O27 2.052484 1_455
Ni8 O21 2.052484 1_555
Ni9 O20 1.883636 1_555
Ni9 O22 1.894884 1_565
Ni9 O18 1.895726 1_555
Ni9 O27 1.898403 1_555
Ni9 O24 1.909470 1_555
Ni9 O25 1.925765 1_555
Ni10 O26 1.863811 1_655
Ni10 O0 1.916935 1_555
Ni10 O3 1.933081 1_655
Ni10 O25 2.001238 1_555
Ni10 O27 2.058522 1_555
Ni10 O2 2.076532 1_655
