# generated using pymatgen
data_LiSbP2O7
_symmetry_space_group_name_H-M   'P 1'
_cell_length_a   9.04540600
_cell_length_b   7.46006200
_cell_length_c   9.27767197
_cell_angle_alpha   62.39773263
_cell_angle_beta   90.00000000
_cell_angle_gamma   90.00000000
_symmetry_Int_Tables_number   1
_chemical_formula_structural   LiSbP2O7
_chemical_formula_sum   'Li4 Sb4 P8 O28'
_cell_volume   554.79690435
_cell_formula_units_Z   4
loop_
 _symmetry_equiv_pos_site_id
 _symmetry_equiv_pos_as_xyz
  1  'x, y, z'
loop_
 _atom_site_type_symbol
 _atom_site_label
 _atom_site_symmetry_multiplicity
 _atom_site_fract_x
 _atom_site_fract_y
 _atom_site_fract_z
 _atom_site_occupancy
  Li  Li0  1  0.56774900  0.18299700  0.89055600  1
  Li  Li1  1  0.06774900  0.81700300  0.60944400  1
  Li  Li2  1  0.93225100  0.18299700  0.39055600  1
  Li  Li3  1  0.43225100  0.81700300  0.10944400  1
  Sb  Sb0  1  0.93771800  0.28284600  0.85333300  1
  Sb  Sb1  1  0.43771800  0.71715400  0.64666700  1
  Sb  Sb2  1  0.56228200  0.28284600  0.35333300  1
  Sb  Sb3  1  0.06228200  0.71715400  0.14666700  1
  P  P0  1  0.72454100  0.51846300  0.54230300  1
  P  P1  1  0.22454100  0.48153700  0.95769700  1
  P  P2  1  0.72531700  0.94250200  0.24445300  1
  P  P3  1  0.22531700  0.05749800  0.25554700  1
  P  P4  1  0.77468300  0.94250200  0.74445300  1
  P  P5  1  0.27468300  0.05749800  0.75554700  1
  P  P6  1  0.77545900  0.51846300  0.04230300  1
  P  P7  1  0.27545900  0.48153700  0.45769700  1
  O  O0  1  0.59273200  0.45562200  0.65995300  1
  O  O1  1  0.87562600  0.51837700  0.62471400  1
  O  O2  1  0.75725400  0.39933500  0.94526900  1
  O  O3  1  0.25725400  0.60066500  0.55473100  1
  O  O4  1  0.37562600  0.48162300  0.87528600  1
  O  O5  1  0.68524200  0.74722600  0.41902000  1
  O  O6  1  0.09273200  0.54437800  0.84004700  1
  O  O7  1  0.23212800  0.88622600  0.20353500  1
  O  O8  1  0.87865500  0.90594600  0.19422600  1
  O  O9  1  0.60262600  0.96824900  0.12699900  1
  O  O10  1  0.81475800  0.74722600  0.91902000  1
  O  O11  1  0.10262600  0.03175100  0.37300100  1
  O  O12  1  0.26787200  0.88622600  0.70353500  1
  O  O13  1  0.62134500  0.90594600  0.69422600  1
  O  O14  1  0.37865500  0.09405400  0.30577400  1
  O  O15  1  0.73212800  0.11377400  0.29646500  1
  O  O16  1  0.89737400  0.96824900  0.62699900  1
  O  O17  1  0.18524200  0.25277400  0.08098000  1
  O  O18  1  0.39737400  0.03175100  0.87300100  1
  O  O19  1  0.12134500  0.09405400  0.80577400  1
  O  O20  1  0.76787200  0.11377400  0.79646500  1
  O  O21  1  0.90726800  0.45562200  0.15995300  1
  O  O22  1  0.31475800  0.25277400  0.58098000  1
  O  O23  1  0.62437400  0.51837700  0.12471400  1
  O  O24  1  0.74274600  0.39933500  0.44526900  1
  O  O25  1  0.24274600  0.60066500  0.05473100  1
  O  O26  1  0.12437400  0.48162300  0.37528600  1
  O  O27  1  0.40726800  0.54437800  0.34004700  1
loop_
_geom_bond_atom_site_label_1
_geom_bond_atom_site_label_2
_geom_bond_distance
_geom_bond_site_symmetry_2
Li0 O18 1.960844 1_555
Li0 O9 2.054639 1_546
Li0 O20 2.173303 1_555
Li0 O0 2.175447 1_555
Li0 O2 2.561207 1_555
Li1 O16 1.960844 1_455
Li1 O11 2.054639 1_565
Li1 O12 2.173303 1_555
Li1 O6 2.175447 1_555
Li1 O3 2.561207 1_555
Li2 O11 1.960844 1_655
Li2 O16 2.054639 1_545
Li2 O15 2.173303 1_555
Li2 O21 2.175447 1_555
Li2 O24 2.561207 1_555
Li3 O9 1.960844 1_555
Li3 O18 2.054639 1_564
Li3 O7 2.173303 1_555
Li3 O27 2.175447 1_555
Li3 O25 2.561207 1_555
O0 P0 1.535743 1_555
O0 Sb1 2.359021 1_555
O1 P0 1.565821 1_555
O1 Sb0 2.109051 1_555
O2 P6 1.539070 1_556
O2 Sb0 2.198685 1_555
O3 P7 1.539070 1_555
O3 Sb1 2.198685 1_555
O4 P1 1.565821 1_555
O4 Sb1 2.109051 1_555
O5 P0 1.593181 1_555
O5 P2 1.640210 1_555
O6 P1 1.535743 1_555
O6 Sb0 2.359021 1_455
O7 P3 1.562211 1_565
O7 Sb3 2.201400 1_555
O8 P2 1.527435 1_555
O8 Sb3 2.347978 1_655
O9 P2 1.504001 1_555
O10 P6 1.593181 1_556
O10 P4 1.640210 1_555
O11 P3 1.504001 1_555
O12 P5 1.562211 1_565
O12 Sb1 2.201400 1_555
O13 P4 1.527435 1_555
O13 Sb1 2.347978 1_555
O14 P3 1.527435 1_555
O14 Sb2 2.347978 1_555
O15 P2 1.562211 1_545
O15 Sb2 2.201400 1_555
O16 P4 1.504001 1_555
O17 P1 1.593181 1_554
O17 P3 1.640210 1_555
O18 P5 1.504001 1_555
O19 P5 1.527435 1_555
O19 Sb0 2.347978 1_455
O20 P4 1.562211 1_545
O20 Sb0 2.201400 1_555
O21 P6 1.535743 1_555
O21 Sb3 2.359021 1_655
O22 P7 1.593181 1_555
O22 P5 1.640210 1_555
O23 P6 1.565821 1_555
O23 Sb2 2.109051 1_555
O24 P0 1.539070 1_555
O24 Sb2 2.198685 1_555
O25 P1 1.539070 1_554
O25 Sb3 2.198685 1_555
O26 P7 1.565821 1_555
O26 Sb3 2.109051 1_555
O27 P7 1.535743 1_555
O27 Sb2 2.359021 1_555
