# generated using pymatgen
data_Mn9Al2Si8(HO4)8
_symmetry_space_group_name_H-M   'P 1'
_cell_length_a   7.73835700
_cell_length_b   8.44427578
_cell_length_c   10.50133184
_cell_angle_alpha   103.90284086
_cell_angle_beta   104.50870987
_cell_angle_gamma   94.04804951
_symmetry_Int_Tables_number   1
_chemical_formula_structural   Mn9Al2Si8(HO4)8
_chemical_formula_sum   'Mn9 Al2 Si8 H8 O32'
_cell_volume   638.58666485
_cell_formula_units_Z   1
loop_
 _symmetry_equiv_pos_site_id
 _symmetry_equiv_pos_as_xyz
  1  'x, y, z'
loop_
 _atom_site_type_symbol
 _atom_site_label
 _atom_site_symmetry_multiplicity
 _atom_site_fract_x
 _atom_site_fract_y
 _atom_site_fract_z
 _atom_site_occupancy
  Mn  Mn0  1  0.50000000  0.00000000  0.50000000  1
  Mn  Mn1  1  0.63920400  0.39054300  0.56989800  1
  Mn  Mn2  1  0.36079600  0.60945700  0.43010200  1
  Mn  Mn3  1  0.92002300  0.16280600  0.70153400  1
  Mn  Mn4  1  0.07997700  0.83719400  0.29846600  1
  Mn  Mn5  1  0.94872900  0.43096600  0.22739400  1
  Mn  Mn6  1  0.05127100  0.56903400  0.77260600  1
  Mn  Mn7  1  0.62285200  0.16389300  0.05733000  1
  Mn  Mn8  1  0.37714800  0.83610700  0.94267000  1
  Al  Al0  1  0.76769200  0.77976900  0.63156700  1
  Al  Al1  1  0.23230800  0.22023100  0.36843300  1
  Si  Si0  1  0.18589300  0.88484700  0.64204200  1
  Si  Si1  1  0.81410700  0.11515300  0.35795800  1
  Si  Si2  1  0.70628100  0.43127700  0.89675800  1
  Si  Si3  1  0.29371900  0.56872300  0.10324200  1
  Si  Si4  1  0.32114100  0.25548900  0.70048700  1
  Si  Si5  1  0.67885900  0.74451100  0.29951300  1
  Si  Si6  1  0.80032000  0.80977100  0.95117000  1
  Si  Si7  1  0.19968000  0.19022900  0.04883000  1
  H  H0  1  0.63743500  0.98626000  0.76974200  1
  H  H1  1  0.36256500  0.01374000  0.23025800  1
  H  H2  1  0.48114300  0.67230400  0.69374000  1
  H  H3  1  0.51885700  0.32769600  0.30626000  1
  H  H4  1  0.99949400  0.01465700  0.12456300  1
  H  H5  1  0.00050600  0.98534300  0.87543700  1
  H  H6  1  0.88968000  0.57641400  0.49025900  1
  H  H7  1  0.11032000  0.42358600  0.50974100  1
  O  O0  1  0.25208700  0.83375400  0.50135200  1
  O  O1  1  0.74791300  0.16624600  0.49864800  1
  O  O2  1  0.97138100  0.90518200  0.61593900  1
  O  O3  1  0.02861900  0.09481800  0.38406100  1
  O  O4  1  0.37962700  0.23262600  0.55636500  1
  O  O5  1  0.62037300  0.76737400  0.44363500  1
  O  O6  1  0.13694300  0.33679000  0.69542200  1
  O  O7  1  0.86305700  0.66321000  0.30457800  1
  O  O8  1  0.24339100  0.75679500  0.73592000  1
  O  O9  1  0.75660900  0.24320500  0.26408000  1
  O  O10  1  0.81341100  0.39455200  0.77803800  1
  O  O11  1  0.18658900  0.60544800  0.22196200  1
  O  O12  1  0.77471800  0.34718000  0.02084800  1
  O  O13  1  0.22528200  0.65282000  0.97915200  1
  O  O14  1  0.49039600  0.36696700  0.82421700  1
  O  O15  1  0.50960400  0.63303300  0.17578300  1
  O  O16  1  0.30038700  0.07143300  0.72896000  1
  O  O17  1  0.69961300  0.92856700  0.27104000  1
  O  O18  1  0.63802100  0.92513800  0.94089300  1
  O  O19  1  0.36197900  0.07486200  0.05910700  1
  O  O20  1  0.72375300  0.63114800  0.96262800  1
  O  O21  1  0.27624700  0.36885200  0.03737200  1
  O  O22  1  0.88591600  0.79002400  0.82099600  1
  O  O23  1  0.11408400  0.20997600  0.17900400  1
  O  O24  1  0.67738000  0.98171700  0.68735800  1
  O  O25  1  0.32262000  0.01828300  0.31264200  1
  O  O26  1  0.55577200  0.63706500  0.63202000  1
  O  O27  1  0.44422800  0.36293500  0.36798000  1
  O  O28  1  0.96213000  0.89208400  0.09596100  1
  O  O29  1  0.03787000  0.10791600  0.90403900  1
  O  O30  1  0.85581900  0.57712000  0.57427500  1
  O  O31  1  0.14418100  0.42288000  0.42572500  1
loop_
_geom_bond_atom_site_label_1
_geom_bond_atom_site_label_2
_geom_bond_distance
_geom_bond_site_symmetry_2
Mn0 O24 2.145169 1_545
Mn0 O25 2.145169 1_555
Mn0 O5 2.247795 1_545
Mn0 O4 2.247795 1_555
Mn0 O1 2.300941 1_555
Mn0 O0 2.300941 1_545
Mn1 O1 2.171209 1_555
Mn1 O30 2.201786 1_555
Mn1 O26 2.219025 1_555
Mn1 O27 2.221874 1_555
Mn1 O10 2.253344 1_555
Mn1 O4 2.284950 1_555
Mn2 O0 2.171209 1_555
Mn2 O31 2.201786 1_555
Mn2 O27 2.219025 1_555
Mn2 O26 2.221874 1_555
Mn2 O11 2.253344 1_555
Mn2 O5 2.284950 1_555
Mn3 O6 2.175178 1_655
Mn3 O1 2.219779 1_555
Mn3 O10 2.227141 1_555
Mn3 O2 2.249411 1_545
Mn3 O29 2.265046 1_655
Mn3 O24 2.287199 1_545
Mn4 O7 2.175178 1_455
Mn4 O0 2.219779 1_555
Mn4 O11 2.227141 1_555
Mn4 O3 2.249411 1_565
Mn4 O28 2.265046 1_455
Mn4 O25 2.287199 1_565
Mn5 O7 2.152083 1_555
Mn5 O12 2.164024 1_555
Mn5 O9 2.262789 1_555
Mn5 O31 2.265967 1_655
Mn5 O11 2.296120 1_655
Mn5 O23 2.363282 1_655
Mn6 O6 2.152083 1_555
Mn6 O13 2.164024 1_555
Mn6 O8 2.262789 1_555
Mn6 O30 2.265967 1_455
Mn6 O10 2.296120 1_455
Mn6 O22 2.363282 1_455
Mn7 O12 2.043781 1_555
Mn7 O9 2.076329 1_555
Mn7 O19 2.110014 1_555
Mn7 O18 2.119969 1_544
Mn8 O13 2.043781 1_555
Mn8 O8 2.076329 1_555
Mn8 O18 2.110014 1_555
Mn8 O19 2.119969 1_566
Al0 O2 1.900101 1_555
Al0 O30 1.905497 1_555
Al0 O24 1.906051 1_555
Al0 O22 1.948276 1_555
Al0 O26 1.967002 1_555
Al0 O5 1.990480 1_555
Al1 O3 1.900101 1_555
Al1 O31 1.905497 1_555
Al1 O25 1.906051 1_555
Al1 O23 1.948276 1_555
Al1 O27 1.967002 1_555
Al1 O4 1.990480 1_555
H0 O24 0.982450 1_555
H1 O25 0.982450 1_555
H2 O26 0.980447 1_555
H3 O27 0.980447 1_555
H4 O28 1.004968 1_545
H4 O23 1.708744 1_655
H5 O29 1.004968 1_565
H5 O22 1.708744 1_455
H6 O30 0.980123 1_555
H7 O31 0.980123 1_555
O0 Si0 1.653907 1_555
O1 Si1 1.653907 1_555
O2 Si0 1.641645 1_655
O3 Si1 1.641645 1_455
O4 Si4 1.657661 1_555
O5 Si5 1.657661 1_555
O6 Si4 1.619755 1_555
O7 Si5 1.619755 1_555
O8 Si0 1.643014 1_555
O9 Si1 1.643014 1_555
O10 Si2 1.645023 1_555
O11 Si3 1.645023 1_555
O12 Si2 1.623228 1_554
O13 Si3 1.623228 1_556
O14 Si4 1.635638 1_555
O14 Si2 1.643643 1_555
O15 Si5 1.635638 1_555
O15 Si3 1.643643 1_555
O16 Si4 1.656181 1_555
O16 Si0 1.675467 1_545
O17 Si5 1.656181 1_555
O17 Si1 1.675467 1_565
O18 Si6 1.641159 1_555
O19 Si7 1.641159 1_555
O20 Si6 1.624005 1_555
O20 Si2 1.644751 1_555
O21 Si7 1.624005 1_555
O21 Si3 1.644751 1_555
O22 Si6 1.641637 1_555
O23 Si7 1.641637 1_555
O28 Si6 1.666794 1_554
O29 Si7 1.666794 1_556
