# generated using pymatgen
data_Fe(Bi5O8)5
_symmetry_space_group_name_H-M   'P 1'
_cell_length_a   10.36248500
_cell_length_b   10.36248500
_cell_length_c   10.36248500
_cell_angle_alpha   90.00000000
_cell_angle_beta   90.00000000
_cell_angle_gamma   90.00000000
_symmetry_Int_Tables_number   1
_chemical_formula_structural   Fe(Bi5O8)5
_chemical_formula_sum   'Fe1 Bi25 O40'
_cell_volume   1112.73499011
_cell_formula_units_Z   1
loop_
 _symmetry_equiv_pos_site_id
 _symmetry_equiv_pos_as_xyz
  1  'x, y, z'
loop_
 _atom_site_type_symbol
 _atom_site_label
 _atom_site_symmetry_multiplicity
 _atom_site_fract_x
 _atom_site_fract_y
 _atom_site_fract_z
 _atom_site_occupancy
  Fe  Fe0  1  0.00000000  0.00000000  0.00000000  1
  Bi  Bi0  1  0.98687200  0.31467700  0.17452000  1
  Bi  Bi1  1  0.98687200  0.68532300  0.82548000  1
  Bi  Bi2  1  0.82548000  0.01312800  0.31467700  1
  Bi  Bi3  1  0.82548000  0.98687200  0.68532300  1
  Bi  Bi4  1  0.82369000  0.68072200  0.48487100  1
  Bi  Bi5  1  0.82369000  0.31927800  0.51512900  1
  Bi  Bi6  1  0.68532300  0.17452000  0.01312800  1
  Bi  Bi7  1  0.68532300  0.82548000  0.98687200  1
  Bi  Bi8  1  0.68072200  0.51512900  0.17631000  1
  Bi  Bi9  1  0.68072200  0.48487100  0.82369000  1
  Bi  Bi10  1  0.51512900  0.17631000  0.68072200  1
  Bi  Bi11  1  0.51512900  0.82369000  0.31927800  1
  Bi  Bi12  1  0.50000000  0.50000000  0.50000000  1
  Bi  Bi13  1  0.48487100  0.82369000  0.68072200  1
  Bi  Bi14  1  0.48487100  0.17631000  0.31927800  1
  Bi  Bi15  1  0.31927800  0.51512900  0.82369000  1
  Bi  Bi16  1  0.31927800  0.48487100  0.17631000  1
  Bi  Bi17  1  0.31467700  0.82548000  0.01312800  1
  Bi  Bi18  1  0.31467700  0.17452000  0.98687200  1
  Bi  Bi19  1  0.17631000  0.31927800  0.48487100  1
  Bi  Bi20  1  0.17631000  0.68072200  0.51512900  1
  Bi  Bi21  1  0.17452000  0.98687200  0.31467700  1
  Bi  Bi22  1  0.17452000  0.01312800  0.68532300  1
  Bi  Bi23  1  0.01312800  0.68532300  0.17452000  1
  Bi  Bi24  1  0.01312800  0.31467700  0.82548000  1
  O  O0  1  0.98944800  0.24769000  0.63291200  1
  O  O1  1  0.98944800  0.75231000  0.36708800  1
  O  O2  1  0.89228900  0.89228900  0.10771100  1
  O  O3  1  0.89228900  0.10771100  0.89228900  1
  O  O4  1  0.86927200  0.48844400  0.24663500  1
  O  O5  1  0.86927200  0.51155600  0.75336500  1
  O  O6  1  0.80892800  0.80892800  0.80892800  1
  O  O7  1  0.80892800  0.19107200  0.19107200  1
  O  O8  1  0.75231000  0.63291200  0.01055200  1
  O  O9  1  0.75231000  0.36708800  0.98944800  1
  O  O10  1  0.75336500  0.13072800  0.48844400  1
  O  O11  1  0.75336500  0.86927200  0.51155600  1
  O  O12  1  0.68567600  0.68567600  0.31432400  1
  O  O13  1  0.68567600  0.31432400  0.68567600  1
  O  O14  1  0.63291200  0.98944800  0.24769000  1
  O  O15  1  0.63291200  0.01055200  0.75231000  1
  O  O16  1  0.61385800  0.38614200  0.38614200  1
  O  O17  1  0.61385800  0.61385800  0.61385800  1
  O  O18  1  0.51155600  0.24663500  0.13072800  1
  O  O19  1  0.51155600  0.75336500  0.86927200  1
  O  O20  1  0.48844400  0.75336500  0.13072800  1
  O  O21  1  0.48844400  0.24663500  0.86927200  1
  O  O22  1  0.38614200  0.61385800  0.38614200  1
  O  O23  1  0.38614200  0.38614200  0.61385800  1
  O  O24  1  0.36708800  0.98944800  0.75231000  1
  O  O25  1  0.36708800  0.01055200  0.24769000  1
  O  O26  1  0.31432400  0.31432400  0.31432400  1
  O  O27  1  0.31432400  0.68567600  0.68567600  1
  O  O28  1  0.24663500  0.13072800  0.51155600  1
  O  O29  1  0.24663500  0.86927200  0.48844400  1
  O  O30  1  0.24769000  0.36708800  0.01055200  1
  O  O31  1  0.24769000  0.63291200  0.98944800  1
  O  O32  1  0.19107200  0.80892800  0.19107200  1
  O  O33  1  0.19107200  0.19107200  0.80892800  1
  O  O34  1  0.13072800  0.51155600  0.24663500  1
  O  O35  1  0.13072800  0.48844400  0.75336500  1
  O  O36  1  0.10771100  0.10771100  0.10771100  1
  O  O37  1  0.10771100  0.89228900  0.89228900  1
  O  O38  1  0.01055200  0.75231000  0.63291200  1
  O  O39  1  0.01055200  0.24769000  0.36708800  1
loop_
_geom_bond_atom_site_label_1
_geom_bond_atom_site_label_2
_geom_bond_distance
_geom_bond_site_symmetry_2
Fe0 O3 1.933235 1_454
Fe0 O2 1.933235 1_445
Fe0 O36 1.933235 1_555
Fe0 O37 1.933235 1_544
Bi0 O39 2.126973 1_655
Bi0 O7 2.251695 1_555
Bi0 O4 2.299101 1_555
Bi0 O36 2.578165 1_655
Bi0 O34 2.634935 1_655
Bi1 O38 2.126973 1_655
Bi1 O6 2.251695 1_555
Bi1 O5 2.299101 1_555
Bi1 O37 2.578165 1_655
Bi1 O35 2.634935 1_655
Bi2 O14 2.126973 1_545
Bi2 O7 2.251695 1_555
Bi2 O10 2.299101 1_555
Bi2 O2 2.578165 1_545
Bi2 O11 2.634935 1_545
Bi3 O15 2.126973 1_565
Bi3 O6 2.251695 1_555
Bi3 O11 2.299101 1_555
Bi3 O3 2.578165 1_565
Bi3 O10 2.634935 1_565
Bi4 O11 2.103579 1_555
Bi4 O1 2.233912 1_555
Bi4 O12 2.274056 1_555
Bi4 O38 2.579372 1_655
Bi4 O17 2.644727 1_555
Bi5 O10 2.103579 1_555
Bi5 O0 2.233912 1_555
Bi5 O13 2.274056 1_555
Bi5 O39 2.579372 1_655
Bi5 O16 2.644727 1_555
Bi6 O9 2.126973 1_554
Bi6 O7 2.251695 1_555
Bi6 O18 2.299101 1_555
Bi6 O3 2.578165 1_554
Bi6 O21 2.634935 1_554
Bi7 O8 2.126973 1_556
Bi7 O6 2.251695 1_555
Bi7 O19 2.299101 1_555
Bi7 O2 2.578165 1_556
Bi7 O20 2.634935 1_556
Bi8 O4 2.103579 1_555
Bi8 O8 2.233912 1_555
Bi8 O12 2.274056 1_555
Bi8 O9 2.579372 1_554
Bi8 O16 2.644727 1_555
Bi9 O5 2.103579 1_555
Bi9 O9 2.233912 1_555
Bi9 O13 2.274056 1_555
Bi9 O8 2.579372 1_556
Bi9 O17 2.644727 1_555
Bi10 O21 2.103579 1_555
Bi10 O15 2.233912 1_555
Bi10 O13 2.274056 1_555
Bi10 O24 2.579372 1_545
Bi10 O23 2.644727 1_555
Bi11 O20 2.103579 1_555
Bi11 O14 2.233912 1_555
Bi11 O12 2.274056 1_555
Bi11 O25 2.579372 1_565
Bi11 O22 2.644727 1_555
Bi12 O17 2.043563 1_555
Bi12 O16 2.043563 1_555
Bi12 O22 2.043563 1_555
Bi12 O23 2.043563 1_555
Bi13 O19 2.103579 1_555
Bi13 O24 2.233912 1_555
Bi13 O27 2.274056 1_555
Bi13 O15 2.579372 1_565
Bi13 O17 2.644727 1_555
Bi14 O18 2.103579 1_555
Bi14 O25 2.233912 1_555
Bi14 O26 2.274056 1_555
Bi14 O14 2.579372 1_545
Bi14 O16 2.644727 1_555
Bi15 O35 2.103579 1_555
Bi15 O31 2.233912 1_555
Bi15 O27 2.274056 1_555
Bi15 O30 2.579372 1_556
Bi15 O23 2.644727 1_555
Bi16 O34 2.103579 1_555
Bi16 O30 2.233912 1_555
Bi16 O26 2.274056 1_555
Bi16 O31 2.579372 1_554
Bi16 O22 2.644727 1_555
Bi17 O31 2.126973 1_554
Bi17 O32 2.251695 1_555
Bi17 O20 2.299101 1_555
Bi17 O37 2.578165 1_554
Bi17 O19 2.634935 1_554
Bi18 O30 2.126973 1_556
Bi18 O33 2.251695 1_555
Bi18 O21 2.299101 1_555
Bi18 O36 2.578165 1_556
Bi18 O18 2.634935 1_556
Bi19 O28 2.103579 1_555
Bi19 O39 2.233912 1_555
Bi19 O26 2.274056 1_555
Bi19 O0 2.579372 1_455
Bi19 O23 2.644727 1_555
Bi20 O29 2.103579 1_555
Bi20 O38 2.233912 1_555
Bi20 O27 2.274056 1_555
Bi20 O1 2.579372 1_455
Bi20 O22 2.644727 1_555
Bi21 O25 2.126973 1_565
Bi21 O32 2.251695 1_555
Bi21 O29 2.299101 1_555
Bi21 O36 2.578165 1_565
Bi21 O28 2.634935 1_565
Bi22 O24 2.126973 1_545
Bi22 O33 2.251695 1_555
Bi22 O28 2.299101 1_555
Bi22 O37 2.578165 1_545
Bi22 O29 2.634935 1_545
Bi23 O1 2.126973 1_455
Bi23 O32 2.251695 1_555
Bi23 O34 2.299101 1_555
Bi23 O2 2.578165 1_455
Bi23 O4 2.634935 1_455
Bi24 O0 2.126973 1_455
Bi24 O33 2.251695 1_555
Bi24 O35 2.299101 1_555
Bi24 O3 2.578165 1_455
Bi24 O5 2.634935 1_455
