# generated using pymatgen
data_TaGe2
_symmetry_space_group_name_H-M   'P 1'
_cell_length_a   4.97481538
_cell_length_b   4.97481612
_cell_length_c   6.74161826
_cell_angle_alpha   90.00000000
_cell_angle_beta   90.00000000
_cell_angle_gamma   120.00000185
_symmetry_Int_Tables_number   1
_chemical_formula_structural   TaGe2
_chemical_formula_sum   'Ta3 Ge6'
_cell_volume   144.49365679
_cell_formula_units_Z   3
loop_
 _symmetry_equiv_pos_site_id
 _symmetry_equiv_pos_as_xyz
  1  'x, y, z'
loop_
 _atom_site_type_symbol
 _atom_site_label
 _atom_site_symmetry_multiplicity
 _atom_site_fract_x
 _atom_site_fract_y
 _atom_site_fract_z
 _atom_site_occupancy
  Ta  Ta0  1  0.50000000  -0.00000000  0.50000000  1
  Ta  Ta1  1  0.50000000  0.50000000  0.83333300  1
  Ta  Ta2  1  -0.00000000  0.50000000  0.16666700  1
  Ge  Ge0  1  0.16378735  0.32757471  0.50000000  1
  Ge  Ge1  1  0.83621265  0.16378735  0.83333300  1
  Ge  Ge2  1  0.32757471  0.16378735  0.16666700  1
  Ge  Ge3  1  0.67242529  0.83621265  0.16666700  1
  Ge  Ge4  1  0.16378735  0.83621265  0.83333300  1
  Ge  Ge5  1  0.83621265  0.67242529  0.50000000  1
loop_
_geom_bond_atom_site_label_1
_geom_bond_atom_site_label_2
_geom_bond_distance
_geom_bond_site_symmetry_2
Ge0 Ge1 2.653616 1_455
Ge0 Ge2 2.653617 1_555
Ge0 Ta1 2.673681 1_555
Ge0 Ta2 2.673681 1_555
Ge0 Ge5 2.822591 1_445
Ge0 Ta0 2.859887 1_455
Ge0 Ta0 2.859887 1_555
Ge0 Ta0 2.897021 1_565
Ge0 Ge5 2.897340 1_555
Ge0 Ge5 2.897340 1_455
Ge1 Ge3 2.653622 1_546
Ge1 Ta0 2.673681 1_555
Ge1 Ta2 2.673687 1_656
Ge1 Ge4 2.822591 1_645
Ge1 Ta1 2.859887 1_655
Ge1 Ta1 2.859887 1_545
Ge1 Ta1 2.897021 1_555
Ge1 Ge4 2.897340 1_545
Ge1 Ge4 2.897340 1_655
Ge2 Ge4 2.653622 1_544
Ge2 Ta0 2.673681 1_555
Ge2 Ta1 2.673687 1_554
Ge2 Ge3 2.822591 1_445
Ge2 Ta2 2.859887 1_555
Ge2 Ta2 2.859887 1_545
Ge2 Ta2 2.897021 1_655
Ge2 Ge3 2.897340 1_545
Ge2 Ge3 2.897340 1_555
Ge3 Ge5 2.653617 1_555
Ge3 Ta0 2.673681 1_565
Ge3 Ta1 2.673687 1_554
Ge3 Ta2 2.859887 1_655
Ge3 Ta2 2.859887 1_665
Ge3 Ta2 2.897021 1_555
Ge4 Ge5 2.653616 1_455
Ge4 Ta0 2.673681 1_565
Ge4 Ta2 2.673687 1_556
Ge4 Ta1 2.859887 1_455
Ge4 Ta1 2.859887 1_565
Ge4 Ta1 2.897021 1_555
Ge5 Ta1 2.673681 1_555
Ge5 Ta2 2.673681 1_655
Ge5 Ta0 2.859887 1_665
Ge5 Ta0 2.859887 1_565
Ge5 Ta0 2.897021 1_555
