# generated using pymatgen
data_Na2Cr4O13
_symmetry_space_group_name_H-M   'P 1'
_cell_length_a   20.01054300
_cell_length_b   7.69739600
_cell_length_c   9.68492253
_cell_angle_alpha   56.82441943
_cell_angle_beta   90.00000000
_cell_angle_gamma   90.00000000
_symmetry_Int_Tables_number   1
_chemical_formula_structural   Na2Cr4O13
_chemical_formula_sum   'Na8 Cr16 O52'
_cell_volume   1248.59925645
_cell_formula_units_Z   4
loop_
 _symmetry_equiv_pos_site_id
 _symmetry_equiv_pos_as_xyz
  1  'x, y, z'
loop_
 _atom_site_type_symbol
 _atom_site_label
 _atom_site_symmetry_multiplicity
 _atom_site_fract_x
 _atom_site_fract_y
 _atom_site_fract_z
 _atom_site_occupancy
  Na  Na0  1  0.89763000  0.60510700  0.59325100  1
  Na  Na1  1  0.39763000  0.39489300  0.90674900  1
  Na  Na2  1  0.76021500  0.11519200  0.98678400  1
  Na  Na3  1  0.26021500  0.88480800  0.51321600  1
  Na  Na4  1  0.73978500  0.11519200  0.48678400  1
  Na  Na5  1  0.23978500  0.88480800  0.01321600  1
  Na  Na6  1  0.60237000  0.60510700  0.09325100  1
  Na  Na7  1  0.10237000  0.39489300  0.40674900  1
  Cr  Cr0  1  0.72731100  0.61173700  0.45478100  1
  Cr  Cr1  1  0.10718000  0.44087000  0.80020300  1
  Cr  Cr2  1  0.44671500  0.78166100  0.36223800  1
  Cr  Cr3  1  0.60718000  0.55913000  0.69979700  1
  Cr  Cr4  1  0.07918400  0.93161300  0.30869100  1
  Cr  Cr5  1  0.57918400  0.06838700  0.19130900  1
  Cr  Cr6  1  0.77268900  0.61173700  0.95478100  1
  Cr  Cr7  1  0.94671500  0.21833900  0.13776200  1
  Cr  Cr8  1  0.05328500  0.78166100  0.86223800  1
  Cr  Cr9  1  0.22731100  0.38826300  0.04521900  1
  Cr  Cr10  1  0.42081600  0.93161300  0.80869100  1
  Cr  Cr11  1  0.92081600  0.06838700  0.69130900  1
  Cr  Cr12  1  0.39282000  0.44087000  0.30020300  1
  Cr  Cr13  1  0.55328500  0.21833900  0.63776200  1
  Cr  Cr14  1  0.89282000  0.55913000  0.19979700  1
  Cr  Cr15  1  0.27268900  0.38826300  0.54521900  1
  O  O0  1  0.07246300  0.28267800  0.76403300  1
  O  O1  1  0.75410000  0.38833900  0.60803300  1
  O  O2  1  0.29747600  0.41156300  0.69417800  1
  O  O3  1  0.54366200  0.42528500  0.66794500  1
  O  O4  1  0.91149500  0.30358900  0.96253000  1
  O  O5  1  0.15647200  0.30524400  0.97463800  1
  O  O6  1  0.65439600  0.39773100  0.85098400  1
  O  O7  1  0.13120400  0.84888600  0.22778100  1
  O  O8  1  0.15439600  0.60226900  0.64901600  1
  O  O9  1  0.61815300  0.95651400  0.11195000  1
  O  O10  1  0.65647200  0.69475600  0.52536200  1
  O  O11  1  0.03059100  0.74480600  0.44303000  1
  O  O12  1  0.41149500  0.69641100  0.53747000  1
  O  O13  1  0.78366100  0.79381500  0.39202100  1
  O  O14  1  0.40063900  0.95521800  0.21741800  1
  O  O15  1  0.52553500  0.87220000  0.35783800  1
  O  O16  1  0.04366200  0.57471500  0.83205500  1
  O  O17  1  0.79747600  0.58843700  0.80582200  1
  O  O18  1  0.25410000  0.61166100  0.89196700  1
  O  O19  1  0.57246300  0.71732200  0.73596700  1
  O  O20  1  0.02553500  0.12780000  0.14216200  1
  O  O21  1  0.90063900  0.04478200  0.28258200  1
  O  O22  1  0.28366100  0.20618500  0.10797900  1
  O  O23  1  0.53059100  0.25519400  0.05697000  1
  O  O24  1  0.11815300  0.04348600  0.38805000  1
  O  O25  1  0.63120400  0.15111400  0.27221900  1
  O  O26  1  0.36879600  0.84888600  0.72778100  1
  O  O27  1  0.88184700  0.95651400  0.61195000  1
  O  O28  1  0.46940900  0.74480600  0.94303000  1
  O  O29  1  0.71633900  0.79381500  0.89202100  1
  O  O30  1  0.09936100  0.95521800  0.71741800  1
  O  O31  1  0.97446500  0.87220000  0.85783800  1
  O  O32  1  0.42753700  0.28267800  0.26403300  1
  O  O33  1  0.74590000  0.38833900  0.10803300  1
  O  O34  1  0.20252400  0.41156300  0.19417800  1
  O  O35  1  0.95633800  0.42528500  0.16794500  1
  O  O36  1  0.47446500  0.12780000  0.64216200  1
  O  O37  1  0.59936100  0.04478200  0.78258200  1
  O  O38  1  0.21633900  0.20618500  0.60797900  1
  O  O39  1  0.58850500  0.30358900  0.46253000  1
  O  O40  1  0.96940900  0.25519400  0.55697000  1
  O  O41  1  0.34352800  0.30524400  0.47463800  1
  O  O42  1  0.38184700  0.04348600  0.88805000  1
  O  O43  1  0.84560400  0.39773100  0.35098400  1
  O  O44  1  0.86879600  0.15111400  0.77221900  1
  O  O45  1  0.34560400  0.60226900  0.14901600  1
  O  O46  1  0.84352800  0.69475600  0.02536200  1
  O  O47  1  0.08850500  0.69641100  0.03747000  1
  O  O48  1  0.45633800  0.57471500  0.33205500  1
  O  O49  1  0.70252400  0.58843700  0.30582200  1
  O  O50  1  0.24590000  0.61166100  0.39196700  1
  O  O51  1  0.92753700  0.71732200  0.23596700  1
loop_
_geom_bond_atom_site_label_1
_geom_bond_atom_site_label_2
_geom_bond_distance
_geom_bond_site_symmetry_2
Na0 O17 2.825297 1_555
Na0 O27 2.825816 1_555
Na0 O13 2.830374 1_555
Na0 O11 2.939341 1_655
Na1 O2 2.825297 1_555
Na1 O42 2.825816 1_555
Na1 O22 2.830374 1_556
Na1 O23 2.939341 1_556
Na2 O6 2.795173 1_555
Na2 O44 2.913210 1_555
Na2 O33 2.929789 1_556
Na3 O8 2.795173 1_555
Na3 O26 2.913210 1_555
Na3 O50 2.929789 1_555
Na4 O43 2.795173 1_555
Na4 O25 2.913210 1_555
Na4 O1 2.929789 1_555
Na5 O45 2.795173 1_555
Na5 O7 2.913210 1_555
Na5 O18 2.929789 1_554
Na6 O49 2.825297 1_555
Na6 O9 2.825816 1_555
Na6 O29 2.830374 1_554
Na6 O28 2.939341 1_554
Na7 O34 2.825297 1_555
Na7 O24 2.825816 1_555
Na7 O38 2.830374 1_555
Na7 O40 2.939341 1_455
Cr0 O49 1.625610 1_555
Cr0 O1 1.629125 1_555
Cr0 O13 1.634896 1_555
Cr0 O10 1.833869 1_555
Cr1 O0 1.598395 1_555
Cr1 O8 1.609118 1_555
Cr1 O5 1.728187 1_555
Cr1 O16 1.766334 1_555
Cr2 O14 1.597302 1_555
Cr2 O12 1.608941 1_555
Cr2 O15 1.715419 1_555
Cr2 O48 1.780342 1_555
Cr3 O19 1.598395 1_555
Cr3 O6 1.609118 1_555
Cr3 O10 1.728187 1_555
Cr3 O3 1.766334 1_555
Cr4 O7 1.627638 1_555
Cr4 O11 1.630473 1_555
Cr4 O24 1.632386 1_565
Cr4 O20 1.835392 1_565
Cr5 O25 1.627638 1_555
Cr5 O23 1.630473 1_555
Cr5 O9 1.632386 1_545
Cr5 O15 1.835392 1_545
Cr6 O17 1.625610 1_555
Cr6 O33 1.629125 1_556
Cr6 O29 1.634896 1_555
Cr6 O46 1.833869 1_556
Cr7 O21 1.597302 1_555
Cr7 O4 1.608941 1_554
Cr7 O20 1.715419 1_655
Cr7 O35 1.780342 1_555
Cr8 O30 1.597302 1_555
Cr8 O47 1.608941 1_556
Cr8 O31 1.715419 1_455
Cr8 O16 1.780342 1_555
Cr9 O34 1.625610 1_555
Cr9 O18 1.629125 1_554
Cr9 O22 1.634896 1_555
Cr9 O5 1.833869 1_554
Cr10 O26 1.627638 1_555
Cr10 O28 1.630473 1_555
Cr10 O42 1.632386 1_565
Cr10 O36 1.835392 1_565
Cr11 O44 1.627638 1_555
Cr11 O40 1.630473 1_555
Cr11 O27 1.632386 1_545
Cr11 O31 1.835392 1_545
Cr12 O32 1.598395 1_555
Cr12 O45 1.609118 1_555
Cr12 O41 1.728187 1_555
Cr12 O48 1.766334 1_555
Cr13 O37 1.597302 1_555
Cr13 O39 1.608941 1_555
Cr13 O36 1.715419 1_555
Cr13 O3 1.780342 1_555
Cr14 O51 1.598395 1_555
Cr14 O43 1.609118 1_555
Cr14 O46 1.728187 1_555
Cr14 O35 1.766334 1_555
Cr15 O2 1.625610 1_555
Cr15 O50 1.629125 1_555
Cr15 O38 1.634896 1_555
Cr15 O41 1.833869 1_555
