# generated using pymatgen
data_Sr2Li2NiO4
_symmetry_space_group_name_H-M   'P 1'
_cell_length_a   5.45966121
_cell_length_b   11.24878026
_cell_length_c   8.65219936
_cell_angle_alpha   67.69621441
_cell_angle_beta   101.23323422
_cell_angle_gamma   98.65005091
_symmetry_Int_Tables_number   1
_chemical_formula_structural   Sr2Li2NiO4
_chemical_formula_sum   'Sr8 Li8 Ni4 O16'
_cell_volume   480.48281538
_cell_formula_units_Z   4
loop_
 _symmetry_equiv_pos_site_id
 _symmetry_equiv_pos_as_xyz
  1  'x, y, z'
loop_
 _atom_site_type_symbol
 _atom_site_label
 _atom_site_symmetry_multiplicity
 _atom_site_fract_x
 _atom_site_fract_y
 _atom_site_fract_z
 _atom_site_occupancy
  Sr  Sr0  1  0.27781800  0.37304700  0.02675000  1
  Sr  Sr1  1  0.27779800  0.87312500  0.02667800  1
  Sr  Sr2  1  0.72216000  0.12692900  0.97325200  1
  Sr  Sr3  1  0.72220400  0.62689500  0.97329300  1
  Sr  Sr4  1  0.82679200  0.27576600  0.30512900  1
  Sr  Sr5  1  0.82677100  0.77580400  0.30513900  1
  Sr  Sr6  1  0.17320300  0.22424900  0.69484500  1
  Sr  Sr7  1  0.17321700  0.72419100  0.69486800  1
  Li  Li0  1  0.80067900  0.46283000  0.45476400  1
  Li  Li1  1  0.80069800  0.96281400  0.45485900  1
  Li  Li2  1  0.19929300  0.03716700  0.54520300  1
  Li  Li3  1  0.19922700  0.53717100  0.54516200  1
  Li  Li4  1  0.41370400  0.35088200  0.41240400  1
  Li  Li5  1  0.41377800  0.85087400  0.41249400  1
  Li  Li6  1  0.58624500  0.14911200  0.58753700  1
  Li  Li7  1  0.58621800  0.64911900  0.58752700  1
  Ni  Ni0  1  0.29147600  0.57005600  0.24527300  1
  Ni  Ni1  1  0.70870900  0.93017000  0.75466400  1
  Ni  Ni2  1  0.29144900  0.06983100  0.24546200  1
  Ni  Ni3  1  0.70861000  0.43000200  0.75470800  1
  O  O0  1  0.57901100  0.47924600  0.23800300  1
  O  O1  1  0.57904200  0.97924500  0.23803700  1
  O  O2  1  0.42100500  0.02075400  0.76197100  1
  O  O3  1  0.42093600  0.52072400  0.76196500  1
  O  O4  1  0.19936500  0.15564400  0.99592100  1
  O  O5  1  0.19939800  0.65572100  0.99590800  1
  O  O6  1  0.80061700  0.34430900  0.00407600  1
  O  O7  1  0.80064300  0.84431500  0.00411800  1
  O  O8  1  0.12367600  0.41920800  0.42449300  1
  O  O9  1  0.12368700  0.91916600  0.42458400  1
  O  O10  1  0.87634400  0.08081500  0.57547700  1
  O  O11  1  0.87625400  0.58080100  0.57543100  1
  O  O12  1  0.34603200  0.19907400  0.35631700  1
  O  O13  1  0.34605300  0.69909500  0.35642300  1
  O  O14  1  0.65393700  0.30089800  0.64362200  1
  O  O15  1  0.65395300  0.80095000  0.64364000  1
loop_
_geom_bond_atom_site_label_1
_geom_bond_atom_site_label_2
_geom_bond_distance
_geom_bond_site_symmetry_2
Li0 O11 1.933997 1_555
Li0 O0 1.983975 1_555
Li0 O8 1.989204 1_655
Li0 O14 2.107552 1_555
Li1 O10 1.933967 1_565
Li1 O1 1.984334 1_555
Li1 O9 1.989302 1_655
Li1 O15 2.106819 1_555
Li2 O9 1.933973 1_545
Li2 O2 1.984134 1_555
Li2 O10 1.989091 1_455
Li2 O12 2.107528 1_555
Li3 O8 1.933932 1_555
Li3 O3 1.984300 1_555
Li3 O11 1.989111 1_455
Li3 O13 2.107153 1_555
Li4 O8 1.897529 1_555
Li4 O12 1.912446 1_555
Li4 O0 1.913432 1_555
Li4 O14 2.093882 1_555
Li5 O9 1.897633 1_555
Li5 O13 1.912059 1_555
Li5 O1 1.913630 1_555
Li5 O15 2.093274 1_555
Li6 O10 1.897607 1_555
Li6 O14 1.912200 1_555
Li6 O2 1.913388 1_555
Li6 O12 2.093842 1_555
Li7 O11 1.897541 1_555
Li7 O15 1.912822 1_555
Li7 O3 1.913686 1_555
Li7 O13 2.092982 1_555
Ni0 O13 1.984539 1_555
Ni0 O5 1.995341 1_554
Ni0 O0 2.020256 1_555
Ni0 O8 2.052268 1_555
Ni1 O15 1.985505 1_555
Ni1 O7 1.996142 1_556
Ni1 O2 2.019557 1_565
Ni1 O10 2.050615 1_565
Ni2 O12 1.984717 1_555
Ni2 O4 1.996822 1_554
Ni2 O1 2.019433 1_545
Ni2 O9 2.050749 1_545
Ni3 O14 1.984757 1_555
Ni3 O6 1.995354 1_556
Ni3 O3 2.020238 1_555
Ni3 O11 2.051868 1_555
O0 Sr3 2.456621 1_554
O0 Sr4 2.650039 1_555
O0 Sr0 2.714311 1_555
O1 Sr2 2.457044 1_564
O1 Sr5 2.649537 1_555
O1 Sr1 2.714550 1_555
O2 Sr1 2.456570 1_546
O2 Sr6 2.650253 1_555
O2 Sr2 2.714238 1_555
O3 Sr0 2.457023 1_556
O3 Sr7 2.649764 1_555
O3 Sr3 2.714756 1_555
O4 Sr6 2.400858 1_555
O4 Sr0 2.524027 1_556
O4 Sr2 2.554731 1_455
O4 Sr2 2.972081 1_555
O4 Sr1 3.174407 1_546
O5 Sr7 2.400675 1_555
O5 Sr1 2.523812 1_556
O5 Sr3 2.554710 1_455
O5 Sr3 2.972350 1_555
O5 Sr0 3.175876 1_556
O6 Sr4 2.400718 1_555
O6 Sr2 2.523753 1_554
O6 Sr0 2.554707 1_655
O6 Sr0 2.972187 1_555
O6 Sr3 3.175051 1_554
O7 Sr5 2.400510 1_555
O7 Sr3 2.524199 1_554
O7 Sr1 2.554534 1_655
O7 Sr1 2.972371 1_555
O7 Sr2 3.175234 1_564
O8 Sr4 2.474544 1_455
O8 Sr6 2.528314 1_555
O9 Sr5 2.474363 1_455
O9 Sr7 2.528073 1_555
O10 Sr6 2.474434 1_655
O10 Sr4 2.528254 1_555
O11 Sr7 2.474672 1_655
O11 Sr5 2.528266 1_555
O12 Sr4 2.704011 1_555
O12 Sr0 2.769344 1_555
O12 Sr4 2.988874 1_455
O13 Sr5 2.704006 1_555
O13 Sr1 2.770701 1_555
O13 Sr5 2.989045 1_455
O14 Sr6 2.703892 1_555
O14 Sr2 2.769731 1_555
O14 Sr6 2.988785 1_655
O15 Sr7 2.704050 1_555
O15 Sr3 2.770209 1_555
O15 Sr7 2.989232 1_655
