# generated using pymatgen
data_K4Nb15O24
_symmetry_space_group_name_H-M   'P 1'
_cell_length_a   9.34231635
_cell_length_b   9.34231635
_cell_length_c   9.41493959
_cell_angle_alpha   66.47184729
_cell_angle_beta   66.47184729
_cell_angle_gamma   52.58490591
_symmetry_Int_Tables_number   1
_chemical_formula_structural   K4Nb15O24
_chemical_formula_sum   'K4 Nb15 O24'
_cell_volume   584.39035329
_cell_formula_units_Z   1
loop_
 _symmetry_equiv_pos_site_id
 _symmetry_equiv_pos_as_xyz
  1  'x, y, z'
loop_
 _atom_site_type_symbol
 _atom_site_label
 _atom_site_symmetry_multiplicity
 _atom_site_fract_x
 _atom_site_fract_y
 _atom_site_fract_z
 _atom_site_occupancy
  K  K0  1  0.00000000  0.00000000  0.00000000  1
  K  K1  1  0.50000000  0.50000000  0.00000000  1
  K  K2  1  0.74777000  0.74777000  0.00259700  1
  K  K3  1  0.25223000  0.25223000  0.99740300  1
  Nb  Nb0  1  0.82592000  0.30842100  0.23160300  1
  Nb  Nb1  1  0.88293800  0.36954100  0.50029200  1
  Nb  Nb2  1  0.93690600  0.43756800  0.75086500  1
  Nb  Nb3  1  0.50000000  0.50000000  0.50000000  1
  Nb  Nb4  1  0.74716800  0.74716800  0.50023200  1
  Nb  Nb5  1  0.30842100  0.82592000  0.23160300  1
  Nb  Nb6  1  0.56243200  0.06309400  0.24913500  1
  Nb  Nb7  1  0.36954100  0.88293800  0.50029200  1
  Nb  Nb8  1  0.63045900  0.11706200  0.49970800  1
  Nb  Nb9  1  0.43756800  0.93690600  0.75086500  1
  Nb  Nb10  1  0.69157900  0.17408000  0.76839600  1
  Nb  Nb11  1  0.25283200  0.25283200  0.49976800  1
  Nb  Nb12  1  0.06309400  0.56243200  0.24913500  1
  Nb  Nb13  1  0.11706200  0.63045900  0.49970800  1
  Nb  Nb14  1  0.17408000  0.69157900  0.76839600  1
  O  O0  1  0.94021900  0.43371600  0.24754700  1
  O  O1  1  0.81379100  0.30762600  0.75277000  1
  O  O2  1  0.87031100  0.37903300  0.00101400  1
  O  O3  1  0.56323700  0.56323700  0.24695400  1
  O  O4  1  0.62377800  0.62377800  0.49995800  1
  O  O5  1  0.81235600  0.81235600  0.24651600  1
  O  O6  1  0.87391700  0.87391700  0.49989400  1
  O  O7  1  0.68599400  0.68599400  0.75226700  1
  O  O8  1  0.93498500  0.93498500  0.76004000  1
  O  O9  1  0.37903300  0.87031100  0.00101400  1
  O  O10  1  0.62096700  0.12968900  0.99898600  1
  O  O11  1  0.43371600  0.94021900  0.24754700  1
  O  O12  1  0.69237400  0.18620900  0.24723000  1
  O  O13  1  0.30762600  0.81379100  0.75277000  1
  O  O14  1  0.56628400  0.05978100  0.75245300  1
  O  O15  1  0.18764400  0.18764400  0.75348400  1
  O  O16  1  0.43676300  0.43676300  0.75304600  1
  O  O17  1  0.06501500  0.06501500  0.23996000  1
  O  O18  1  0.12608300  0.12608300  0.50010600  1
  O  O19  1  0.31400600  0.31400600  0.24773300  1
  O  O20  1  0.37622200  0.37622200  0.50004200  1
  O  O21  1  0.05978100  0.56628400  0.75245300  1
  O  O22  1  0.18620900  0.69237400  0.24723000  1
  O  O23  1  0.12968900  0.62096700  0.99898600  1
loop_
_geom_bond_atom_site_label_1
_geom_bond_atom_site_label_2
_geom_bond_distance
_geom_bond_site_symmetry_2
K0 O17 2.912274 1_555
K0 O8 2.912274 1_444
K0 O13 2.918982 1_544
K0 O1 2.918982 1_454
K0 O12 2.918982 1_455
K0 O22 2.918982 1_545
K0 O15 2.961499 1_554
K0 O5 2.961499 1_445
K0 O10 2.968393 1_454
K0 O23 2.968393 1_544
K0 O9 2.968393 1_545
K0 O2 2.968393 1_455
K1 O9 2.917641 1_555
K1 O10 2.917641 1_554
K1 O23 2.917641 1_554
K1 O2 2.917641 1_555
K1 O19 2.945527 1_555
K1 O7 2.945527 1_554
K1 O16 2.953203 1_554
K1 O3 2.953203 1_555
K1 O12 2.954929 1_555
K1 O13 2.954929 1_554
K1 O22 2.954929 1_555
K1 O1 2.954929 1_554
K2 O9 2.900506 1_555
K2 O2 2.900506 1_555
K2 O3 2.918097 1_555
K2 O14 2.935873 1_564
K2 O21 2.935873 1_654
K2 O5 2.942278 1_555
K2 O11 2.942347 1_555
K2 O0 2.942347 1_555
K2 O8 2.944940 1_554
K2 O7 2.966073 1_554
K2 O23 2.989020 1_654
K2 O10 2.989020 1_564
K3 O23 2.900506 1_555
K3 O10 2.900506 1_555
K3 O16 2.918097 1_555
K3 O0 2.935873 1_456
K3 O11 2.935873 1_546
K3 O15 2.942278 1_555
K3 O21 2.942347 1_555
K3 O14 2.942347 1_555
K3 O17 2.944940 1_556
K3 O19 2.966073 1_556
K3 O9 2.989020 1_546
K3 O2 2.989020 1_456
Nb0 O2 1.946924 1_555
Nb0 O17 1.997932 1_655
Nb0 O0 2.078482 1_555
Nb0 O12 2.081371 1_555
Nb0 O3 2.145426 1_555
Nb1 O18 2.013668 1_655
Nb1 O4 2.124973 1_555
Nb1 O1 2.128996 1_555
Nb1 O0 2.131283 1_555
Nb2 O7 2.066452 1_555
Nb2 O15 2.072038 1_655
Nb2 O2 2.109052 1_556
Nb2 O1 2.111820 1_555
Nb2 O21 2.114115 1_655
Nb3 O20 2.073305 1_555
Nb3 O4 2.073305 1_555
Nb3 O3 2.133211 1_555
Nb3 O16 2.133211 1_555
Nb4 O4 2.068131 1_555
Nb4 O6 2.121835 1_555
Nb4 O7 2.124925 1_555
Nb4 O5 2.139047 1_555
Nb5 O9 1.946924 1_555
Nb5 O17 1.997932 1_565
Nb5 O11 2.078482 1_555
Nb5 O22 2.081371 1_555
Nb5 O3 2.145426 1_555
Nb6 O19 2.066452 1_555
Nb6 O5 2.072038 1_545
Nb6 O10 2.109052 1_554
Nb6 O12 2.111820 1_555
Nb6 O11 2.114115 1_545
Nb7 O18 2.013668 1_565
Nb7 O4 2.124973 1_555
Nb7 O13 2.128996 1_555
Nb7 O11 2.131283 1_555
Nb8 O6 2.013668 1_545
Nb8 O20 2.124973 1_555
Nb8 O12 2.128996 1_555
Nb8 O14 2.131283 1_555
Nb9 O7 2.066452 1_555
Nb9 O15 2.072038 1_565
Nb9 O9 2.109052 1_556
Nb9 O13 2.111820 1_555
Nb9 O14 2.114115 1_565
Nb10 O10 1.946932 1_555
Nb10 O8 1.997932 1_545
Nb10 O14 2.078477 1_555
Nb10 O1 2.081375 1_555
Nb10 O16 2.145425 1_555
Nb11 O20 2.068131 1_555
Nb11 O18 2.121835 1_555
Nb11 O19 2.124925 1_555
Nb11 O15 2.139047 1_555
Nb12 O19 2.066452 1_555
Nb12 O5 2.072038 1_455
Nb12 O23 2.109052 1_554
Nb12 O22 2.111820 1_555
Nb12 O0 2.114115 1_455
Nb13 O6 2.013668 1_455
Nb13 O20 2.124973 1_555
Nb13 O22 2.128996 1_555
Nb13 O21 2.131283 1_555
Nb14 O23 1.946932 1_555
Nb14 O8 1.997932 1_455
Nb14 O21 2.078477 1_555
Nb14 O13 2.081375 1_555
Nb14 O16 2.145425 1_555
