# generated using pymatgen
data_LiMnSiO4
_symmetry_space_group_name_H-M   'P 1'
_cell_length_a   4.79866600
_cell_length_b   6.30390700
_cell_length_c   10.20357100
_cell_angle_alpha   90.00014571
_cell_angle_beta   89.99954853
_cell_angle_gamma   89.99981359
_symmetry_Int_Tables_number   1
_chemical_formula_structural   LiMnSiO4
_chemical_formula_sum   'Li4 Mn4 Si4 O16'
_cell_volume   308.66153469
_cell_formula_units_Z   4
loop_
 _symmetry_equiv_pos_site_id
 _symmetry_equiv_pos_as_xyz
  1  'x, y, z'
loop_
 _atom_site_type_symbol
 _atom_site_label
 _atom_site_symmetry_multiplicity
 _atom_site_fract_x
 _atom_site_fract_y
 _atom_site_fract_z
 _atom_site_occupancy
  Li  Li0  1  0.04192400  0.00452000  0.21897000  1
  Li  Li1  1  0.45806600  0.00452200  0.71896800  1
  Li  Li2  1  0.54193500  0.50452100  0.28103100  1
  Li  Li3  1  0.95807300  0.50451900  0.78103100  1
  Mn  Mn0  1  0.50009600  0.25680700  0.00020800  1
  Mn  Mn1  1  0.49988400  0.75681100  0.99978700  1
  Mn  Mn2  1  0.99992800  0.25676800  0.50020100  1
  Mn  Mn3  1  0.00009000  0.75676500  0.49979500  1
  Si  Si0  1  0.09270800  0.50683000  0.09091800  1
  Si  Si1  1  0.40729700  0.50682200  0.59091200  1
  Si  Si2  1  0.59272000  0.00682400  0.40907600  1
  Si  Si3  1  0.90728200  0.00682900  0.90907200  1
  O  O0  1  0.25711500  0.50655800  0.94170500  1
  O  O1  1  0.24290000  0.50653500  0.44170100  1
  O  O2  1  0.75713100  0.00653300  0.55830300  1
  O  O3  1  0.74285300  0.00655400  0.05830100  1
  O  O4  1  0.25726100  0.00675600  0.40834100  1
  O  O5  1  0.24275000  0.00677300  0.90833500  1
  O  O6  1  0.75723600  0.50676900  0.09166800  1
  O  O7  1  0.74275200  0.50675700  0.59166500  1
  O  O8  1  0.24160400  0.28845100  0.14816000  1
  O  O9  1  0.24088000  0.72582200  0.14757200  1
  O  O10  1  0.25912000  0.72579600  0.64756300  1
  O  O11  1  0.25841200  0.28845100  0.64816200  1
  O  O12  1  0.74159900  0.78845500  0.35184400  1
  O  O13  1  0.74089000  0.22579100  0.35243900  1
  O  O14  1  0.75910600  0.22580600  0.85242900  1
  O  O15  1  0.75838900  0.78846000  0.85184100  1
loop_
_geom_bond_atom_site_label_1
_geom_bond_atom_site_label_2
_geom_bond_distance
_geom_bond_site_symmetry_2
Li0 O9 2.128110 1_545
Li0 O8 2.154954 1_555
Li0 O3 2.178866 1_455
Li0 O4 2.191263 1_555
Li0 O12 2.402142 1_445
Li0 O13 2.426321 1_455
Li1 O10 2.128269 1_545
Li1 O11 2.154875 1_555
Li1 O2 2.178799 1_555
Li1 O5 2.191165 1_555
Li1 O15 2.402127 1_545
Li1 O14 2.426358 1_555
Li2 O13 2.128317 1_555
Li2 O12 2.154948 1_555
Li2 O1 2.178742 1_555
Li2 O6 2.191095 1_555
Li2 O8 2.402169 1_555
Li2 O9 2.426450 1_555
Li3 O14 2.128220 1_555
Li3 O15 2.155007 1_555
Li3 O0 2.178813 1_655
Li3 O7 2.191182 1_555
Li3 O11 2.402155 1_655
Li3 O10 2.426384 1_655
Mn0 O14 1.963835 1_554
Mn0 O8 1.964027 1_555
Mn0 O0 2.048077 1_554
Mn0 O3 2.048685 1_555
Mn0 O6 2.208268 1_555
Mn0 O5 2.210928 1_554
Mn1 O9 1.963858 1_556
Mn1 O15 1.964024 1_555
Mn1 O3 2.048041 1_566
Mn1 O0 2.048689 1_555
Mn1 O5 2.208215 1_565
Mn1 O6 2.211012 1_556
Mn2 O13 1.963788 1_555
Mn2 O11 1.964114 1_655
Mn2 O1 2.048121 1_655
Mn2 O2 2.048734 1_555
Mn2 O7 2.208490 1_555
Mn2 O4 2.210724 1_655
Mn3 O10 1.963805 1_555
Mn3 O12 1.964062 1_455
Mn3 O2 2.048106 1_465
Mn3 O1 2.048713 1_555
Mn3 O4 2.208451 1_565
Mn3 O7 2.210772 1_455
O0 Si0 1.714766 1_556
O1 Si1 1.714737 1_555
O2 Si2 1.714913 1_555
O3 Si3 1.714960 1_554
O4 Si2 1.609773 1_555
O5 Si3 1.609816 1_455
O6 Si0 1.609836 1_655
O7 Si1 1.609755 1_555
O8 Si0 1.657347 1_555
O9 Si0 1.656965 1_555
O10 Si1 1.656862 1_555
O11 Si1 1.657311 1_555
O12 Si2 1.657217 1_565
O13 Si2 1.656768 1_555
O14 Si3 1.656854 1_555
O15 Si3 1.657250 1_565
