# generated using pymatgen
data_NiPH6NO5
_symmetry_space_group_name_H-M   'P 1'
_cell_length_a   4.69663327
_cell_length_b   5.54116161
_cell_length_c   8.79731682
_cell_angle_alpha   90.00000000
_cell_angle_beta   90.00000000
_cell_angle_gamma   90.00000000
_symmetry_Int_Tables_number   1
_chemical_formula_structural   NiPH6NO5
_chemical_formula_sum   'Ni2 P2 H12 N2 O10'
_cell_volume   228.94844572
_cell_formula_units_Z   2
loop_
 _symmetry_equiv_pos_site_id
 _symmetry_equiv_pos_as_xyz
  1  'x, y, z'
loop_
 _atom_site_type_symbol
 _atom_site_label
 _atom_site_symmetry_multiplicity
 _atom_site_fract_x
 _atom_site_fract_y
 _atom_site_fract_z
 _atom_site_occupancy
  Ni  Ni0  1  0.07155619  0.00000000  0.98057465  1
  Ni  Ni1  1  0.57155619  0.50000000  0.01942535  1
  P  P0  1  0.49785176  0.00000000  0.19005535  1
  P  P1  1  0.99785176  0.50000000  0.80994465  1
  H  H0  1  0.48863191  0.14064569  0.81594089  1
  H  H1  1  0.48863191  0.85935431  0.81594089  1
  H  H2  1  0.98863191  0.35935431  0.18405911  1
  H  H3  1  0.98863191  0.64064569  0.18405911  1
  H  H4  1  0.75106207  0.00000000  0.46044659  1
  H  H5  1  0.25106207  0.50000000  0.53955341  1
  H  H6  1  0.11463212  0.00000000  0.45495942  1
  H  H7  1  0.61463212  0.50000000  0.54504058  1
  H  H8  1  0.94126324  0.15296467  0.59235595  1
  H  H9  1  0.94126324  0.84703533  0.59235595  1
  H  H10  1  0.44126324  0.34703533  0.40764405  1
  H  H11  1  0.44126324  0.65296467  0.40764405  1
  N  N0  1  0.93663053  0.00000000  0.52612069  1
  N  N1  1  0.43663053  0.50000000  0.47387931  1
  O  O0  1  0.36512731  0.00000000  0.80164812  1
  O  O1  1  0.86512731  0.50000000  0.19835188  1
  O  O2  1  0.81689489  0.00000000  0.16469960  1
  O  O3  1  0.31689489  0.50000000  0.83530040  1
  O  O4  1  0.34960344  0.22152429  0.11420886  1
  O  O5  1  0.34960344  0.77847571  0.11420886  1
  O  O6  1  0.84960344  0.27847571  0.88579114  1
  O  O7  1  0.84960344  0.72152429  0.88579114  1
  O  O8  1  0.43824594  0.00000000  0.36181379  1
  O  O9  1  0.93824594  0.50000000  0.63818621  1
loop_
_geom_bond_atom_site_label_1
_geom_bond_atom_site_label_2
_geom_bond_distance
_geom_bond_site_symmetry_2
Ni0 O2 2.013531 1_456
Ni0 O6 2.040354 1_455
Ni0 O7 2.040354 1_445
Ni0 O0 2.092555 1_555
Ni0 O4 2.143406 1_556
Ni0 O5 2.143406 1_546
Ni1 O3 2.013531 1_554
Ni1 O4 2.040354 1_555
Ni1 O5 2.040354 1_555
Ni1 O1 2.092555 1_555
Ni1 O6 2.143406 1_554
Ni1 O7 2.143406 1_554
H0 O0 0.979615 1_555
H1 O0 0.979615 1_565
H2 O1 0.979615 1_555
H3 O1 0.979615 1_555
H4 N0 1.045656 1_555
H4 O8 1.706285 1_555
H5 N1 1.045656 1_555
H5 O9 1.706285 1_455
H6 N0 1.044424 1_455
H6 O8 1.726717 1_555
H7 N1 1.044424 1_555
H7 O9 1.726717 1_555
H8 N0 1.028802 1_555
H9 N0 1.028802 1_565
H10 N1 1.028802 1_555
H11 N1 1.028802 1_555
O2 P0 1.514941 1_555
O3 P1 1.514941 1_455
O4 P0 1.561015 1_555
O5 P0 1.561015 1_565
O6 P1 1.561015 1_555
O7 P1 1.561015 1_555
O8 P0 1.536728 1_555
O9 P1 1.536728 1_555
