# generated using pymatgen
data_Ti3Mn2V(PO4)6
_symmetry_space_group_name_H-M   'P 1'
_cell_length_a   8.68386400
_cell_length_b   8.68386400
_cell_length_c   8.68386412
_cell_angle_alpha   59.87411972
_cell_angle_beta   59.87411972
_cell_angle_gamma   59.87411856
_symmetry_Int_Tables_number   1
_chemical_formula_structural   Ti3Mn2V(PO4)6
_chemical_formula_sum   'Ti3 Mn2 V1 P6 O24'
_cell_volume   461.72331597
_cell_formula_units_Z   1
loop_
 _symmetry_equiv_pos_site_id
 _symmetry_equiv_pos_as_xyz
  1  'x, y, z'
loop_
 _atom_site_type_symbol
 _atom_site_label
 _atom_site_symmetry_multiplicity
 _atom_site_fract_x
 _atom_site_fract_y
 _atom_site_fract_z
 _atom_site_occupancy
  Ti  Ti0  1  0.64578500  0.64578500  0.64578500  1
  Ti  Ti1  1  0.85495100  0.85495100  0.85495100  1
  Ti  Ti2  1  0.35346300  0.35346300  0.35346300  1
  Mn  Mn0  1  0.00043100  0.00043100  0.00043100  1
  Mn  Mn1  1  0.50070700  0.50070700  0.50070700  1
  V  V0  1  0.14296700  0.14296700  0.14296700  1
  P  P0  1  0.95617400  0.24958500  0.54226600  1
  P  P1  1  0.54226600  0.95617400  0.24958500  1
  P  P2  1  0.24958500  0.54226600  0.95617400  1
  P  P3  1  0.74926600  0.45674500  0.04384600  1
  P  P4  1  0.45674500  0.04384600  0.74926600  1
  P  P5  1  0.04384600  0.74926600  0.45674500  1
  O  O0  1  0.50003500  0.11942400  0.30957000  1
  O  O1  1  0.30957000  0.50003500  0.11942400  1
  O  O2  1  0.11942400  0.30957000  0.50003500  1
  O  O3  1  0.94119500  0.08635900  0.73733600  1
  O  O4  1  0.99051300  0.19409600  0.38745700  1
  O  O5  1  0.76296000  0.41559100  0.56437800  1
  O  O6  1  0.73733600  0.94119500  0.08635900  1
  O  O7  1  0.56437800  0.76296000  0.41559100  1
  O  O8  1  0.80867800  0.61904500  0.00050600  1
  O  O9  1  0.41559100  0.56437800  0.76296000  1
  O  O10  1  0.90851100  0.26546300  0.05658200  1
  O  O11  1  0.61904500  0.00050600  0.80867800  1
  O  O12  1  0.38745700  0.99051300  0.19409600  1
  O  O13  1  0.08635900  0.73733600  0.94119500  1
  O  O14  1  0.58341400  0.44424300  0.23575800  1
  O  O15  1  0.19409600  0.38745700  0.99051300  1
  O  O16  1  0.44424300  0.23575800  0.58341400  1
  O  O17  1  0.26546300  0.05658200  0.90851100  1
  O  O18  1  0.23575800  0.58341400  0.44424300  1
  O  O19  1  0.00050600  0.80867800  0.61904500  1
  O  O20  1  0.05658200  0.90851100  0.26546300  1
  O  O21  1  0.88251200  0.68646700  0.50372100  1
  O  O22  1  0.68646700  0.50372100  0.88251200  1
  O  O23  1  0.50372100  0.88251200  0.68646700  1
loop_
_geom_bond_atom_site_label_1
_geom_bond_atom_site_label_2
_geom_bond_distance
_geom_bond_site_symmetry_2
Mn0 O10 2.250230 1_455
Mn0 O17 2.250230 1_554
Mn0 O20 2.250230 1_545
Mn0 O13 2.263690 1_544
Mn0 O6 2.263690 1_445
Mn0 O3 2.263690 1_454
Mn1 O18 2.273770 1_555
Mn1 O16 2.273770 1_555
Mn1 O14 2.273770 1_555
Mn1 O5 2.280898 1_555
Mn1 O7 2.280898 1_555
Mn1 O9 2.280898 1_555
O0 P1 1.563065 1_545
O0 Ti2 1.894674 1_555
O1 P2 1.563065 1_554
O1 Ti2 1.894674 1_555
O2 P0 1.563065 1_455
O2 Ti2 1.894674 1_555
O3 P0 1.565000 1_555
O3 Ti1 2.079631 1_545
O4 P0 1.493978 1_555
O4 V0 1.998046 1_655
O5 P0 1.567384 1_555
O5 Ti0 2.045899 1_555
O6 P1 1.565000 1_555
O6 Ti1 2.079631 1_554
O7 P1 1.567384 1_555
O7 Ti0 2.045899 1_555
O8 P3 1.548144 1_555
O8 Ti1 1.916518 1_554
O9 P2 1.567384 1_555
O9 Ti0 2.045899 1_555
O10 P3 1.532003 1_555
O10 V0 2.097051 1_655
O11 P4 1.548144 1_555
O11 Ti1 1.916518 1_545
O12 P1 1.493978 1_555
O12 V0 1.998046 1_565
O13 P2 1.565000 1_555
O13 Ti1 2.079631 1_455
O14 P3 1.558659 1_555
O14 Ti2 2.091929 1_555
O15 P2 1.493978 1_555
O15 V0 1.998046 1_556
O16 P4 1.558659 1_555
O16 Ti2 2.091929 1_555
O17 P4 1.532003 1_555
O17 V0 2.097051 1_556
O18 P5 1.558659 1_555
O18 Ti2 2.091929 1_555
O19 P5 1.548144 1_555
O19 Ti1 1.916518 1_455
O20 P5 1.532004 1_555
O20 V0 2.097051 1_565
O21 P5 1.548076 1_655
O21 Ti0 1.902229 1_555
O22 P3 1.548076 1_556
O22 Ti0 1.902229 1_555
O23 P4 1.548076 1_565
O23 Ti0 1.902229 1_555
