# generated using pymatgen
data_LiFePO4
_symmetry_space_group_name_H-M   'P 1'
_cell_length_a   7.54978000
_cell_length_b   8.48817400
_cell_length_c   17.18912363
_cell_angle_alpha   60.80766343
_cell_angle_beta   90.00000000
_cell_angle_gamma   90.00000000
_symmetry_Int_Tables_number   1
_chemical_formula_structural   LiFePO4
_chemical_formula_sum   'Li12 Fe12 P12 O48'
_cell_volume   961.63495613
_cell_formula_units_Z   12
loop_
 _symmetry_equiv_pos_site_id
 _symmetry_equiv_pos_as_xyz
  1  'x, y, z'
loop_
 _atom_site_type_symbol
 _atom_site_label
 _atom_site_symmetry_multiplicity
 _atom_site_fract_x
 _atom_site_fract_y
 _atom_site_fract_z
 _atom_site_occupancy
  Li  Li0  1  0.76103000  0.85691300  0.59289000  1
  Li  Li1  1  0.72809000  0.17972100  0.23110600  1
  Li  Li2  1  0.76878400  0.46628800  0.92328200  1
  Li  Li3  1  0.26878400  0.53371200  0.57671800  1
  Li  Li4  1  0.22809000  0.82027900  0.26889400  1
  Li  Li5  1  0.26103000  0.14308700  0.90711000  1
  Li  Li6  1  0.73897000  0.85691300  0.09289000  1
  Li  Li7  1  0.77191000  0.17972100  0.73110600  1
  Li  Li8  1  0.73121600  0.46628800  0.42328200  1
  Li  Li9  1  0.23121600  0.53371200  0.07671800  1
  Li  Li10  1  0.27191000  0.82027900  0.76889400  1
  Li  Li11  1  0.23897000  0.14308700  0.40711000  1
  Fe  Fe0  1  0.48363700  0.20606900  0.06558200  1
  Fe  Fe1  1  0.52623800  0.84782500  0.40909100  1
  Fe  Fe2  1  0.42266100  0.50708800  0.75281000  1
  Fe  Fe3  1  0.92266100  0.49291200  0.74719000  1
  Fe  Fe4  1  0.02623800  0.15217500  0.09090900  1
  Fe  Fe5  1  0.98363700  0.79393100  0.43441800  1
  Fe  Fe6  1  0.01636300  0.20606900  0.56558200  1
  Fe  Fe7  1  0.97376200  0.84782500  0.90909100  1
  Fe  Fe8  1  0.07733900  0.50708800  0.25281000  1
  Fe  Fe9  1  0.57733900  0.49291200  0.24719000  1
  Fe  Fe10  1  0.47376200  0.15217500  0.59090900  1
  Fe  Fe11  1  0.51636300  0.79393100  0.93441800  1
  P  P0  1  0.18003700  0.85745700  0.59076500  1
  P  P1  1  0.31885500  0.18591600  0.22949800  1
  P  P2  1  0.17647900  0.47076300  0.92533100  1
  P  P3  1  0.67647900  0.52923700  0.57466900  1
  P  P4  1  0.81885500  0.81408400  0.27050200  1
  P  P5  1  0.68003700  0.14254300  0.90923500  1
  P  P6  1  0.31996300  0.85745700  0.09076500  1
  P  P7  1  0.18114500  0.18591600  0.72949800  1
  P  P8  1  0.32352100  0.47076300  0.42533100  1
  P  P9  1  0.82352100  0.52923700  0.07466900  1
  P  P10  1  0.68114500  0.81408400  0.77050200  1
  P  P11  1  0.81996300  0.14254300  0.40923500  1
  O  O0  1  0.99429800  0.06846200  0.39023500  1
  O  O1  1  0.86155500  0.32513500  0.12346100  1
  O  O2  1  0.69329000  0.98392400  0.46554600  1
  O  O3  1  0.77668000  0.63540700  0.79153100  1
  O  O4  1  0.30332000  0.41636100  0.00626600  1
  O  O5  1  0.49592300  0.24432200  0.17543300  1
  O  O6  1  0.35972000  0.06961700  0.33002500  1
  O  O7  1  0.26276900  0.72506200  0.68350000  1
  O  O8  1  0.00278300  0.35975700  0.96122300  1
  O  O9  1  0.13375900  0.74864100  0.54224300  1
  O  O10  1  0.25750000  0.41263100  0.85916400  1
  O  O11  1  0.20863000  0.07951500  0.19439700  1
  O  O12  1  0.75750000  0.58736900  0.64083600  1
  O  O13  1  0.70863000  0.92048500  0.30560300  1
  O  O14  1  0.63375900  0.25135900  0.95775700  1
  O  O15  1  0.50278300  0.64024300  0.53877700  1
  O  O16  1  0.76276900  0.27493800  0.81650000  1
  O  O17  1  0.85972000  0.93038300  0.16997500  1
  O  O18  1  0.99592300  0.75567800  0.32456700  1
  O  O19  1  0.27668000  0.36459300  0.70846900  1
  O  O20  1  0.80332000  0.58363900  0.49373400  1
  O  O21  1  0.19329000  0.01607600  0.03445400  1
  O  O22  1  0.36155500  0.67486500  0.37653900  1
  O  O23  1  0.49429800  0.93153800  0.10976500  1
  O  O24  1  0.50570200  0.06846200  0.89023500  1
  O  O25  1  0.63844500  0.32513500  0.62346100  1
  O  O26  1  0.80671000  0.98392400  0.96554600  1
  O  O27  1  0.19668000  0.41636100  0.50626600  1
  O  O28  1  0.72332000  0.63540700  0.29153100  1
  O  O29  1  0.00407700  0.24432200  0.67543300  1
  O  O30  1  0.14028000  0.06961700  0.83002500  1
  O  O31  1  0.23723100  0.72506200  0.18350000  1
  O  O32  1  0.49721700  0.35975700  0.46122300  1
  O  O33  1  0.36624100  0.74864100  0.04224300  1
  O  O34  1  0.29137000  0.07951500  0.69439700  1
  O  O35  1  0.24250000  0.41263100  0.35916400  1
  O  O36  1  0.79137000  0.92048500  0.80560300  1
  O  O37  1  0.74250000  0.58736900  0.14083600  1
  O  O38  1  0.86624100  0.25135900  0.45775700  1
  O  O39  1  0.99721700  0.64024300  0.03877700  1
  O  O40  1  0.73723100  0.27493800  0.31650000  1
  O  O41  1  0.64028000  0.93038300  0.66997500  1
  O  O42  1  0.50407700  0.75567800  0.82456700  1
  O  O43  1  0.69668000  0.58363900  0.99373400  1
  O  O44  1  0.22332000  0.36459300  0.20846900  1
  O  O45  1  0.30671000  0.01607600  0.53445400  1
  O  O46  1  0.13844500  0.67486500  0.87653900  1
  O  O47  1  0.00570200  0.93153800  0.60976500  1
loop_
_geom_bond_atom_site_label_1
_geom_bond_atom_site_label_2
_geom_bond_distance
_geom_bond_site_symmetry_2
Li0 O41 1.944670 1_555
Li0 O2 1.978191 1_555
Li0 O12 2.018714 1_555
Li0 O47 2.019115 1_655
Li1 O1 1.932523 1_555
Li1 O13 1.937686 1_545
Li1 O5 1.943433 1_555
Li1 O40 1.992440 1_555
Li2 O14 1.914166 1_555
Li2 O8 1.946472 1_655
Li2 O43 1.982875 1_555
Li2 O3 2.005432 1_555
Li3 O9 1.914166 1_555
Li3 O15 1.946472 1_555
Li3 O27 1.982875 1_555
Li3 O19 2.005432 1_555
Li4 O22 1.932523 1_555
Li4 O11 1.937686 1_565
Li4 O18 1.943433 1_455
Li4 O31 1.992440 1_555
Li5 O30 1.944670 1_555
Li5 O21 1.978191 1_556
Li5 O10 2.018714 1_555
Li5 O24 2.019115 1_555
Li6 O17 1.944670 1_555
Li6 O26 1.978191 1_554
Li6 O37 2.018714 1_555
Li6 O23 2.019115 1_555
Li7 O25 1.932523 1_555
Li7 O36 1.937686 1_545
Li7 O29 1.943433 1_655
Li7 O16 1.992440 1_555
Li8 O38 1.914166 1_555
Li8 O32 1.946472 1_555
Li8 O20 1.982875 1_555
Li8 O28 2.005432 1_555
Li9 O33 1.914166 1_555
Li9 O39 1.946472 1_455
Li9 O4 1.982875 1_555
Li9 O44 2.005432 1_555
Li10 O46 1.932523 1_555
Li10 O34 1.937686 1_565
Li10 O42 1.943433 1_555
Li10 O7 1.992440 1_555
Li11 O6 1.944670 1_555
Li11 O45 1.978191 1_555
Li11 O35 2.018714 1_555
Li11 O0 2.019115 1_455
Fe0 O14 2.042662 1_554
Fe0 O5 2.068229 1_555
Fe0 O23 2.070516 1_545
Fe0 O4 2.074538 1_555
Fe1 O15 2.067300 1_555
Fe1 O13 2.090625 1_555
Fe1 O6 2.115633 1_565
Fe1 O22 2.194453 1_555
Fe1 O2 2.227211 1_555
Fe2 O10 2.027295 1_555
Fe2 O7 2.037053 1_555
Fe2 O19 2.039074 1_555
Fe3 O12 2.027295 1_555
Fe3 O16 2.037053 1_555
Fe3 O3 2.039074 1_555
Fe4 O8 2.067300 1_554
Fe4 O11 2.090625 1_555
Fe4 O17 2.115633 1_445
Fe4 O1 2.194453 1_455
Fe4 O21 2.227211 1_555
Fe5 O9 2.042662 1_655
Fe5 O18 2.068229 1_555
Fe5 O0 2.070516 1_565
Fe5 O20 2.074538 1_555
Fe6 O38 2.042662 1_455
Fe6 O29 2.068229 1_555
Fe6 O47 2.070516 1_545
Fe6 O27 2.074538 1_555
Fe7 O39 2.067300 1_556
Fe7 O36 2.090625 1_555
Fe7 O30 2.115633 1_665
Fe7 O46 2.194453 1_655
Fe7 O26 2.227211 1_555
Fe8 O35 2.027295 1_555
Fe8 O31 2.037053 1_555
Fe8 O44 2.039074 1_555
Fe9 O37 2.027295 1_555
Fe9 O40 2.037053 1_555
Fe9 O28 2.039074 1_555
Fe10 O32 2.067300 1_555
Fe10 O34 2.090625 1_555
Fe10 O41 2.115633 1_545
Fe10 O25 2.194453 1_555
Fe10 O45 2.227211 1_555
Fe11 O33 2.042662 1_556
Fe11 O42 2.068229 1_555
Fe11 O24 2.070516 1_565
Fe11 O43 2.074538 1_555
O0 P11 1.560371 1_555
O1 P9 1.539441 1_555
O2 P11 1.546932 1_565
O3 P10 1.554448 1_555
O4 P2 1.561744 1_554
O5 P1 1.564321 1_555
O6 P1 1.546476 1_555
O7 P0 1.564141 1_555
O8 P2 1.555975 1_555
O9 P0 1.556382 1_555
O10 P2 1.568013 1_555
O11 P1 1.550418 1_555
O12 P3 1.568013 1_555
O13 P4 1.550418 1_555
O14 P5 1.556382 1_555
O15 P3 1.555975 1_555
O16 P5 1.564141 1_555
O17 P4 1.546476 1_555
O18 P4 1.564321 1_555
O19 P7 1.554448 1_555
O20 P3 1.561744 1_555
O21 P6 1.546932 1_545
O22 P8 1.539441 1_555
O23 P6 1.560371 1_555
O24 P5 1.560371 1_555
O25 P3 1.539441 1_555
O26 P5 1.546932 1_565
O27 P8 1.561744 1_555
O28 P4 1.554448 1_555
O29 P7 1.564321 1_555
O30 P7 1.546476 1_555
O31 P6 1.564141 1_555
O32 P8 1.555975 1_555
O33 P6 1.556382 1_555
O34 P7 1.550418 1_555
O35 P8 1.568013 1_555
O36 P10 1.550418 1_555
O37 P9 1.568013 1_555
O38 P11 1.556382 1_555
O39 P9 1.555975 1_555
O40 P11 1.564141 1_555
O41 P10 1.546476 1_555
O42 P10 1.564321 1_555
O43 P9 1.561744 1_556
O44 P1 1.554448 1_555
O45 P0 1.546932 1_545
O46 P2 1.539441 1_555
O47 P0 1.560371 1_555
