# generated using pymatgen
data_LiMn3(BO3)3
_symmetry_space_group_name_H-M   'P 1'
_cell_length_a   5.23071400
_cell_length_b   6.19389478
_cell_length_c   11.80758943
_cell_angle_alpha   81.83779705
_cell_angle_beta   77.62453545
_cell_angle_gamma   88.02249018
_symmetry_Int_Tables_number   1
_chemical_formula_structural   LiMn3(BO3)3
_chemical_formula_sum   'Li2 Mn6 B6 O18'
_cell_volume   369.87083977
_cell_formula_units_Z   2
loop_
 _symmetry_equiv_pos_site_id
 _symmetry_equiv_pos_as_xyz
  1  'x, y, z'
loop_
 _atom_site_type_symbol
 _atom_site_label
 _atom_site_symmetry_multiplicity
 _atom_site_fract_x
 _atom_site_fract_y
 _atom_site_fract_z
 _atom_site_occupancy
  Li  Li0  1  0.85710400  0.13093000  0.46139200  1
  Li  Li1  1  0.19059600  0.46324500  0.79495900  1
  Mn  Mn0  1  0.00330000  0.03189900  0.78929800  1
  Mn  Mn1  1  0.64669400  0.61356500  0.88202300  1
  Mn  Mn2  1  0.31982100  0.29033000  0.54628600  1
  Mn  Mn3  1  0.68390400  0.70803900  0.45085200  1
  Mn  Mn4  1  0.33188800  0.37758700  0.12830500  1
  Mn  Mn5  1  0.00021800  0.95321200  0.20206400  1
  B  B0  1  0.74889500  0.41198800  0.66344600  1
  B  B1  1  0.07063600  0.72665200  0.99920500  1
  B  B2  1  0.41819900  0.09299500  0.33105000  1
  B  B3  1  0.58195300  0.92449700  0.67157300  1
  B  B4  1  0.91878400  0.26021000  0.00100100  1
  B  B5  1  0.25688200  0.58855500  0.33424700  1
  O  O0  1  0.67405200  0.35318000  0.99523800  1
  O  O1  1  0.09060100  0.20954000  0.90701100  1
  O  O2  1  0.00023800  0.35908200  0.67754900  1
  O  O3  1  0.56133700  0.47731300  0.75227400  1
  O  O4  1  0.68278800  0.38475800  0.55665000  1
  O  O5  1  0.01095000  0.70847100  0.89007200  1
  O  O6  1  0.66819400  0.02749700  0.34098400  1
  O  O7  1  0.63297900  0.89451100  0.78578200  1
  O  O8  1  0.22957200  0.14414900  0.42365700  1
  O  O9  1  0.76017800  0.87477500  0.57845500  1
  O  O10  1  0.33815100  0.09048000  0.22397400  1
  O  O11  1  0.34525200  0.02893200  0.65958400  1
  O  O12  1  0.99211400  0.24208200  0.11066900  1
  O  O13  1  0.31252600  0.57258000  0.44641100  1
  O  O14  1  0.43302500  0.50893300  0.24832200  1
  O  O15  1  0.02633600  0.69504300  0.31682300  1
  O  O16  1  0.89989500  0.81875500  0.08164600  1
  O  O17  1  0.31174200  0.64005800  0.01601300  1
loop_
_geom_bond_atom_site_label_1
_geom_bond_atom_site_label_2
_geom_bond_distance
_geom_bond_site_symmetry_2
Li0 O8 1.905141 1_655
Li0 O9 1.953795 1_545
Li0 O6 2.076692 1_555
Li0 O4 2.128812 1_555
Li1 O3 1.898030 1_555
Li1 O1 1.913944 1_555
Li1 O2 2.054162 1_555
Li1 O5 2.094001 1_555
Mn0 O1 2.022864 1_555
Mn0 O11 2.092109 1_555
Mn0 O7 2.153199 1_445
Mn0 O5 2.183714 1_545
Mn0 O2 2.257363 1_555
Mn1 O7 1.946648 1_555
Mn1 O0 1.965322 1_555
Mn1 O3 1.986197 1_555
Mn1 O5 2.038530 1_655
Mn1 O17 2.113137 1_556
Mn2 O8 1.958052 1_555
Mn2 O11 1.968532 1_555
Mn2 O13 1.969197 1_555
Mn2 O4 2.039166 1_555
Mn2 O2 2.098970 1_555
Mn3 O9 2.055180 1_555
Mn3 O15 2.128485 1_655
Mn3 O13 2.156137 1_555
Mn3 O4 2.203966 1_555
Mn3 O6 2.215961 1_565
Mn4 O14 1.904815 1_555
Mn4 O17 1.961649 1_555
Mn4 O10 1.970010 1_555
Mn4 O12 2.053694 1_455
Mn4 O0 2.130304 1_554
Mn5 O16 1.917501 1_455
Mn5 O12 1.958014 1_465
Mn5 O15 1.964892 1_555
Mn5 O10 2.067974 1_565
Mn5 O6 2.203771 1_465
B0 O3 1.370519 1_555
B0 O2 1.382812 1_655
B0 O4 1.410483 1_555
B1 O16 1.349264 1_456
B1 O17 1.395691 1_556
B1 O5 1.409505 1_555
B2 O8 1.372553 1_555
B2 O6 1.379825 1_555
B2 O10 1.416682 1_555
B3 O9 1.345292 1_555
B3 O11 1.401873 1_565
B3 O7 1.415631 1_555
B4 O1 1.337822 1_654
B4 O0 1.396525 1_554
B4 O12 1.416042 1_555
B5 O14 1.353328 1_555
B5 O15 1.394464 1_555
B5 O13 1.405181 1_555
