# generated using pymatgen
data_Na4V3O8
_symmetry_space_group_name_H-M   'P 1'
_cell_length_a   4.25998700
_cell_length_b   6.89386900
_cell_length_c   12.21486002
_cell_angle_alpha   76.62815942
_cell_angle_beta   90.00000000
_cell_angle_gamma   90.00000000
_symmetry_Int_Tables_number   1
_chemical_formula_structural   Na4V3O8
_chemical_formula_sum   'Na8 V6 O16'
_cell_volume   348.99835664
_cell_formula_units_Z   2
loop_
 _symmetry_equiv_pos_site_id
 _symmetry_equiv_pos_as_xyz
  1  'x, y, z'
loop_
 _atom_site_type_symbol
 _atom_site_label
 _atom_site_symmetry_multiplicity
 _atom_site_fract_x
 _atom_site_fract_y
 _atom_site_fract_z
 _atom_site_occupancy
  Na  Na0  1  0.75000000  0.17848900  0.40363700  1
  Na  Na1  1  0.75000000  0.03304300  0.66728300  1
  Na  Na2  1  0.25000000  0.58581100  0.04695100  1
  Na  Na3  1  0.25000000  0.46008300  0.29109000  1
  Na  Na4  1  0.75000000  0.53991700  0.70891000  1
  Na  Na5  1  0.75000000  0.41418900  0.95304900  1
  Na  Na6  1  0.25000000  0.96695700  0.33271700  1
  Na  Na7  1  0.25000000  0.82151100  0.59636300  1
  V  V0  1  0.25000000  0.09495100  0.07420500  1
  V  V1  1  0.25000000  0.35039900  0.55786000  1
  V  V2  1  0.25000000  0.21021300  0.81144000  1
  V  V3  1  0.75000000  0.78978700  0.18856000  1
  V  V4  1  0.75000000  0.64960100  0.44214000  1
  V  V5  1  0.75000000  0.90504900  0.92579500  1
  O  O0  1  0.75000000  0.04973200  0.06549100  1
  O  O1  1  0.25000000  0.24376700  0.16820400  1
  O  O2  1  0.25000000  0.19079100  0.46131400  1
  O  O3  1  0.25000000  0.09352900  0.69001200  1
  O  O4  1  0.75000000  0.17721700  0.82771700  1
  O  O5  1  0.75000000  0.54237000  0.30756200  1
  O  O6  1  0.75000000  0.38513700  0.54516000  1
  O  O7  1  0.75000000  0.67282700  0.06349000  1
  O  O8  1  0.25000000  0.32717300  0.93651000  1
  O  O9  1  0.25000000  0.61486300  0.45484000  1
  O  O10  1  0.25000000  0.45763000  0.69243800  1
  O  O11  1  0.25000000  0.82278300  0.17228300  1
  O  O12  1  0.75000000  0.90647100  0.30998800  1
  O  O13  1  0.75000000  0.80920900  0.53868600  1
  O  O14  1  0.75000000  0.75623300  0.83179600  1
  O  O15  1  0.25000000  0.95026800  0.93450900  1
loop_
_geom_bond_atom_site_label_1
_geom_bond_atom_site_label_2
_geom_bond_distance
_geom_bond_site_symmetry_2
Na0 O2 2.251232 1_555
Na0 O2 2.251232 1_655
Na0 O12 2.411912 1_545
Na0 O6 2.481317 1_555
Na0 O5 2.511643 1_555
Na0 O13 2.694381 1_545
Na1 O3 2.200312 1_655
Na1 O3 2.200312 1_555
Na1 O4 2.393559 1_555
Na1 O14 2.430221 1_545
Na1 O13 2.443283 1_545
Na1 O6 2.538144 1_555
Na2 O7 2.234635 1_455
Na2 O7 2.234635 1_555
Na2 O8 2.472158 1_554
Na2 O1 2.477587 1_555
Na2 O11 2.483812 1_555
Na2 O15 2.569630 1_554
Na3 O5 2.225298 1_455
Na3 O5 2.225298 1_555
Na3 O1 2.347830 1_555
Na3 O2 2.446294 1_555
Na3 O9 2.475171 1_555
Na3 O11 2.584505 1_555
Na4 O10 2.225298 1_555
Na4 O10 2.225298 1_655
Na4 O14 2.347830 1_555
Na4 O13 2.446294 1_555
Na4 O6 2.475171 1_555
Na4 O4 2.584505 1_555
Na5 O8 2.234635 1_655
Na5 O8 2.234635 1_555
Na5 O7 2.472158 1_556
Na5 O14 2.477587 1_555
Na5 O4 2.483812 1_555
Na5 O0 2.569630 1_556
Na6 O12 2.200312 1_555
Na6 O12 2.200312 1_455
Na6 O11 2.393559 1_555
Na6 O1 2.430221 1_565
Na6 O2 2.443283 1_565
Na6 O9 2.538144 1_555
Na7 O13 2.251232 1_455
Na7 O13 2.251232 1_555
Na7 O3 2.411912 1_565
Na7 O9 2.481317 1_555
Na7 O10 2.511643 1_555
Na7 O2 2.694381 1_565
O0 V3 2.055516 1_545
O0 V0 2.158872 1_655
O0 V0 2.158872 1_555
O0 V5 2.166513 1_544
O1 V0 1.707537 1_555
O2 V1 1.789309 1_555
O3 V2 1.843607 1_555
O3 V1 2.102228 1_555
O4 V5 1.978886 1_545
O4 V2 2.146445 1_655
O4 V2 2.146445 1_555
O5 V4 1.952125 1_555
O5 V3 1.968608 1_555
O6 V4 1.961202 1_555
O6 V1 2.145018 1_655
O6 V1 2.145018 1_555
O7 V3 1.885151 1_555
O7 V5 2.036257 1_554
O8 V2 1.885151 1_555
O8 V0 2.036257 1_556
O9 V1 1.961202 1_555
O9 V4 2.145018 1_455
O9 V4 2.145018 1_555
O10 V1 1.952125 1_555
O10 V2 1.968608 1_555
O11 V0 1.978886 1_565
O11 V3 2.146445 1_555
O11 V3 2.146445 1_455
O12 V3 1.843607 1_555
O12 V4 2.102228 1_555
O13 V4 1.789309 1_555
O14 V5 1.707537 1_555
O15 V2 2.055516 1_565
O15 V5 2.158872 1_455
O15 V5 2.158872 1_555
O15 V0 2.166513 1_566
