# generated using pymatgen
data_Li3FeBO4
_symmetry_space_group_name_H-M   'P 1'
_cell_length_a   9.65792364
_cell_length_b   9.65792364
_cell_length_c   9.65792364
_cell_angle_alpha   116.50313795
_cell_angle_beta   116.50313795
_cell_angle_gamma   96.17158733
_symmetry_Int_Tables_number   1
_chemical_formula_structural   Li3FeBO4
_chemical_formula_sum   'Li24 Fe8 B8 O32'
_cell_volume   666.47689307
_cell_formula_units_Z   8
loop_
 _symmetry_equiv_pos_site_id
 _symmetry_equiv_pos_as_xyz
  1  'x, y, z'
loop_
 _atom_site_type_symbol
 _atom_site_label
 _atom_site_symmetry_multiplicity
 _atom_site_fract_x
 _atom_site_fract_y
 _atom_site_fract_z
 _atom_site_occupancy
  Li  Li0  1  0.92256700  0.09393200  0.13995800  1
  Li  Li1  1  0.82743300  0.15606800  0.36004200  1
  Li  Li2  1  0.90606800  0.04602600  0.82863400  1
  Li  Li3  1  0.53260900  0.17256700  0.32863400  1
  Li  Li4  1  0.41350000  0.26714700  0.10223600  1
  Li  Li5  1  0.71475900  0.56086500  0.13262300  1
  Li  Li6  1  0.21739100  0.07743300  0.17136600  1
  Li  Li7  1  0.84393200  0.20397400  0.67136600  1
  Li  Li8  1  0.73285300  0.83508900  0.14635300  1
  Li  Li9  1  0.43913500  0.57175800  0.15389400  1
  Li  Li10  1  0.79602600  0.46739100  0.63995800  1
  Li  Li11  1  0.95397400  0.78260900  0.86004200  1
  Li  Li12  1  0.31086500  0.67824200  0.34610600  1
  Li  Li13  1  0.41786500  0.28524100  0.84610600  1
  Li  Li14  1  0.01714700  0.41491100  0.35364700  1
  Li  Li15  1  0.68873600  0.58650100  0.85364700  1
  Li  Li16  1  0.03524100  0.68913500  0.36737700  1
  Li  Li17  1  0.42824200  0.58213500  0.86737700  1
  Li  Li18  1  0.58508900  0.93873600  0.60223600  1
  Li  Li19  1  0.33650100  0.98285300  0.39776400  1
  Li  Li20  1  0.16491100  0.31126400  0.89776400  1
  Li  Li21  1  0.32175800  0.66786500  0.63262300  1
  Li  Li22  1  0.06126400  0.66350000  0.64635300  1
  Li  Li23  1  0.33213500  0.96475900  0.65389400  1
  Fe  Fe0  1  0.46138000  0.91921300  0.99411400  1
  Fe  Fe1  1  0.53273400  0.53862000  0.45783200  1
  Fe  Fe2  1  0.66921300  0.17509800  0.95783200  1
  Fe  Fe3  1  0.82490200  0.78273400  0.49411400  1
  Fe  Fe4  1  0.28862000  0.33078700  0.50588600  1
  Fe  Fe5  1  0.08078700  0.07490200  0.54216800  1
  Fe  Fe6  1  0.21726600  0.71138000  0.04216800  1
  Fe  Fe7  1  0.92509800  0.46726600  0.00588600  1
  B  B0  1  0.72652300  0.39677600  0.27669400  1
  B  B1  1  0.55017100  0.27347700  0.67025300  1
  B  B2  1  0.14677600  0.37008200  0.17025300  1
  B  B3  1  0.60322400  0.87991800  0.32974700  1
  B  B4  1  0.62991800  0.80017100  0.77669400  1
  B  B5  1  0.02347700  0.85322400  0.22330600  1
  B  B6  1  0.12008200  0.44982900  0.72330600  1
  B  B7  1  0.19982900  0.97652300  0.82974700  1
  O  O0  1  0.79854000  0.26326800  0.23006200  1
  O  O1  1  0.31847900  0.04854000  0.03527200  1
  O  O2  1  0.59427000  0.36007600  0.08986400  1
  O  O3  1  0.88542200  0.68072900  0.11301700  1
  O  O4  1  0.86457800  0.56927100  0.38698300  1
  O  O5  1  0.64841400  0.38537800  0.37559100  1
  O  O6  1  0.43152100  0.20146000  0.46472800  1
  O  O7  1  0.31927100  0.43228800  0.20469300  1
  O  O8  1  0.52240500  0.13542200  0.70469300  1
  O  O9  1  0.95146000  0.98673200  0.26993800  1
  O  O10  1  0.13537800  0.25978700  0.23696400  1
  O  O11  1  0.72717700  0.35158600  0.73696400  1
  O  O12  1  0.63992400  0.72978800  0.23419400  1
  O  O13  1  0.11007600  0.52021200  0.26580600  1
  O  O14  1  0.49559300  0.40573000  0.76580600  1
  O  O15  1  0.61462200  0.99021300  0.26303600  1
  O  O16  1  0.71679300  0.68152100  0.73006200  1
  O  O17  1  0.22759500  0.11457800  0.79530700  1
  O  O18  1  0.43072900  0.81771200  0.29530700  1
  O  O19  1  0.73673200  0.96679300  0.53527200  1
  O  O20  1  0.47978800  0.74559300  0.58986400  1
  O  O21  1  0.10158600  0.86462200  0.12440900  1
  O  O22  1  0.00978700  0.27282300  0.62440900  1
  O  O23  1  0.18228800  0.47759500  0.61301700  1
  O  O24  1  0.56771200  0.77240500  0.88698300  1
  O  O25  1  0.74021300  0.97717700  0.87559100  1
  O  O26  1  0.27021200  0.50440700  0.91013600  1
  O  O27  1  0.15573000  0.88992400  0.41013600  1
  O  O28  1  0.01326800  0.28320700  0.96472800  1
  O  O29  1  0.03320700  0.56847900  0.76993800  1
  O  O30  1  0.25440700  0.84427000  0.73419400  1
  O  O31  1  0.02282300  0.89841400  0.76303600  1
loop_
_geom_bond_atom_site_label_1
_geom_bond_atom_site_label_2
_geom_bond_distance
_geom_bond_site_symmetry_2
Li0 O9 1.906591 1_545
Li0 O25 1.970389 1_544
Li0 O10 1.975362 1_655
Li0 O0 2.224432 1_555
Li1 O0 1.906591 1_555
Li1 O22 1.970389 1_655
Li1 O15 1.975362 1_545
Li1 O9 2.224432 1_545
Li2 O28 1.906598 1_655
Li2 O31 1.970387 1_645
Li2 O25 1.975369 1_545
Li2 O19 2.224422 1_545
Li3 O6 1.906607 1_555
Li3 O15 1.970388 1_545
Li3 O5 1.975358 1_555
Li3 O1 2.224424 1_555
Li4 O1 1.884952 1_555
Li4 O2 1.952642 1_555
Li4 O7 2.014541 1_555
Li4 O5 2.197223 1_555
Li4 O17 2.228156 1_554
Li5 O12 1.898483 1_555
Li5 O2 1.912165 1_555
Li5 O3 2.038782 1_555
Li5 O4 2.181606 1_555
Li6 O1 1.906607 1_555
Li6 O10 1.970388 1_555
Li6 O21 1.975358 1_545
Li6 O6 2.224424 1_555
Li7 O19 1.906598 1_545
Li7 O11 1.970387 1_555
Li7 O22 1.975369 1_655
Li7 O28 2.224422 1_655
Li8 O9 1.884954 1_555
Li8 O12 1.952642 1_555
Li8 O24 2.014541 1_554
Li8 O15 2.197223 1_555
Li8 O3 2.228156 1_555
Li9 O26 1.898485 1_554
Li9 O12 1.912165 1_555
Li9 O7 2.038782 1_555
Li9 O18 2.181606 1_555
Li10 O29 1.906600 1_655
Li10 O5 1.970389 1_555
Li10 O11 1.975362 1_555
Li10 O16 2.224431 1_555
Li11 O16 1.906600 1_555
Li11 O21 1.970389 1_656
Li11 O31 1.975362 1_655
Li11 O29 2.224431 1_655
Li12 O20 1.898485 1_555
Li12 O13 1.912165 1_555
Li12 O18 2.038782 1_555
Li12 O7 2.181606 1_555
Li13 O2 1.898480 1_556
Li13 O14 1.912155 1_555
Li13 O17 2.038789 1_555
Li13 O8 2.181598 1_555
Li14 O0 1.884954 1_455
Li14 O13 1.952642 1_555
Li14 O23 2.014541 1_555
Li14 O10 2.197223 1_555
Li14 O4 2.228156 1_455
Li15 O16 1.884936 1_555
Li15 O14 1.952654 1_555
Li15 O3 2.014543 1_556
Li15 O11 2.197231 1_555
Li15 O24 2.228148 1_555
Li16 O13 1.898483 1_555
Li16 O27 1.912165 1_555
Li16 O4 2.038782 1_455
Li16 O3 2.181606 1_455
Li17 O14 1.898469 1_555
Li17 O26 1.912157 1_555
Li17 O24 2.038790 1_555
Li17 O23 2.181607 1_555
Li18 O19 1.884952 1_555
Li18 O20 1.952650 1_555
Li18 O8 2.014541 1_565
Li18 O25 2.197223 1_555
Li18 O18 2.228156 1_555
Li19 O6 1.884950 1_565
Li19 O27 1.952650 1_555
Li19 O18 2.014534 1_555
Li19 O21 2.197227 1_555
Li19 O8 2.228155 1_565
Li20 O28 1.884952 1_555
Li20 O26 1.952650 1_555
Li20 O17 2.014541 1_555
Li20 O22 2.197223 1_555
Li20 O7 2.228156 1_556
Li21 O30 1.898469 1_555
Li21 O20 1.912157 1_555
Li21 O23 2.038790 1_555
Li21 O24 2.181607 1_555
Li22 O29 1.884943 1_555
Li22 O30 1.952648 1_555
Li22 O4 2.014541 1_455
Li22 O31 2.197223 1_555
Li22 O23 2.228156 1_555
Li23 O27 1.898480 1_555
Li23 O30 1.912155 1_555
Li23 O8 2.038789 1_565
Li23 O17 2.181598 1_565
Fe0 O1 2.009972 1_566
Fe0 O24 2.021773 1_555
Fe0 O15 2.041530 1_556
Fe0 O30 2.100006 1_555
Fe1 O16 2.009983 1_555
Fe1 O7 2.021768 1_555
Fe1 O5 2.041527 1_555
Fe1 O20 2.100006 1_555
Fe2 O0 2.009986 1_556
Fe2 O8 2.021769 1_555
Fe2 O25 2.041521 1_545
Fe2 O2 2.100019 1_556
Fe3 O19 2.009978 1_555
Fe3 O4 2.021768 1_555
Fe3 O31 2.041527 1_655
Fe3 O12 2.100012 1_555
Fe4 O6 2.009972 1_555
Fe4 O23 2.021773 1_555
Fe4 O10 2.041530 1_555
Fe4 O14 2.100006 1_555
Fe5 O9 2.009986 1_445
Fe5 O17 2.021769 1_555
Fe5 O22 2.041521 1_555
Fe5 O27 2.100019 1_545
Fe6 O29 2.009983 1_554
Fe6 O18 2.021768 1_555
Fe6 O21 2.041527 1_555
Fe6 O26 2.100006 1_554
Fe7 O28 2.009978 1_654
Fe7 O3 2.021768 1_555
Fe7 O11 2.041527 1_554
Fe7 O13 2.100012 1_655
B0 O5 1.487460 1_555
B0 O2 1.512555 1_555
B0 O0 1.517662 1_555
B0 O4 1.535852 1_555
B1 O11 1.487460 1_555
B1 O14 1.512562 1_555
B1 O6 1.517664 1_555
B1 O8 1.535852 1_555
B2 O10 1.487460 1_555
B2 O13 1.512555 1_555
B2 O28 1.517664 1_554
B2 O7 1.535852 1_555
B3 O15 1.487460 1_555
B3 O12 1.512555 1_555
B3 O19 1.517664 1_555
B3 O18 1.535852 1_555
B4 O25 1.487460 1_555
B4 O20 1.512552 1_555
B4 O16 1.517662 1_555
B4 O24 1.535852 1_555
B5 O21 1.487460 1_555
B5 O27 1.512555 1_555
B5 O9 1.517662 1_455
B5 O3 1.535852 1_455
B6 O22 1.487460 1_555
B6 O26 1.512552 1_555
B6 O29 1.517662 1_555
B6 O23 1.535852 1_555
B7 O31 1.487460 1_555
B7 O30 1.512562 1_555
B7 O1 1.517664 1_566
B7 O17 1.535852 1_565
