# generated using pymatgen
data_Ni(PO3)3
_symmetry_space_group_name_H-M   'P 1'
_cell_length_a   6.38122200
_cell_length_b   9.67741200
_cell_length_c   10.65837300
_cell_angle_alpha   90.00000000
_cell_angle_beta   90.00000000
_cell_angle_gamma   90.00000000
_symmetry_Int_Tables_number   1
_chemical_formula_structural   Ni(PO3)3
_chemical_formula_sum   'Ni4 P12 O36'
_cell_volume   658.19412176
_cell_formula_units_Z   4
loop_
 _symmetry_equiv_pos_site_id
 _symmetry_equiv_pos_as_xyz
  1  'x, y, z'
loop_
 _atom_site_type_symbol
 _atom_site_label
 _atom_site_symmetry_multiplicity
 _atom_site_fract_x
 _atom_site_fract_y
 _atom_site_fract_z
 _atom_site_occupancy
  Ni  Ni0  1  0.00000000  0.00000000  0.00000000  1
  Ni  Ni1  1  0.50000000  0.00000000  0.50000000  1
  Ni  Ni2  1  0.00000000  0.50000000  0.50000000  1
  Ni  Ni3  1  0.50000000  0.50000000  0.00000000  1
  P  P0  1  0.75000000  0.91941800  0.75000000  1
  P  P1  1  0.36513400  0.78476400  0.86731800  1
  P  P2  1  0.13486600  0.78476400  0.63268200  1
  P  P3  1  0.86513400  0.71523600  0.13268200  1
  P  P4  1  0.63486600  0.71523600  0.36731800  1
  P  P5  1  0.25000000  0.58058200  0.25000000  1
  P  P6  1  0.75000000  0.41941800  0.75000000  1
  P  P7  1  0.36513400  0.28476400  0.63268200  1
  P  P8  1  0.13486600  0.28476400  0.86731800  1
  P  P9  1  0.63486600  0.21523600  0.13268200  1
  P  P10  1  0.86513400  0.21523600  0.36731800  1
  P  P11  1  0.25000000  0.08058200  0.25000000  1
  O  O0  1  0.14882000  0.98723800  0.15499100  1
  O  O1  1  0.35118000  0.98723800  0.34500900  1
  O  O2  1  0.23696600  0.91757400  0.59631500  1
  O  O3  1  0.26303400  0.91757400  0.90368500  1
  O  O4  1  0.61638800  0.81800100  0.47312300  1
  O  O5  1  0.88361200  0.81800100  0.02687700  1
  O  O6  1  0.59378100  0.81094900  0.81050800  1
  O  O7  1  0.90621900  0.81094900  0.68949200  1
  O  O8  1  0.75000000  0.78934100  0.25000000  1
  O  O9  1  0.25000000  0.71065900  0.75000000  1
  O  O10  1  0.09378100  0.68905100  0.18949200  1
  O  O11  1  0.40621900  0.68905100  0.31050800  1
  O  O12  1  0.11638800  0.68199900  0.52687700  1
  O  O13  1  0.38361200  0.68199900  0.97312300  1
  O  O14  1  0.76303400  0.58242600  0.09631500  1
  O  O15  1  0.73696600  0.58242600  0.40368500  1
  O  O16  1  0.85118000  0.51276200  0.65499100  1
  O  O17  1  0.64882000  0.51276200  0.84500900  1
  O  O18  1  0.35118000  0.48723800  0.15499100  1
  O  O19  1  0.14882000  0.48723800  0.34500900  1
  O  O20  1  0.26303400  0.41757400  0.59631500  1
  O  O21  1  0.23696600  0.41757400  0.90368500  1
  O  O22  1  0.61638800  0.31800100  0.02687700  1
  O  O23  1  0.88361200  0.31800100  0.47312300  1
  O  O24  1  0.59378100  0.31094900  0.68949200  1
  O  O25  1  0.90621900  0.31094900  0.81050800  1
  O  O26  1  0.75000000  0.28934100  0.25000000  1
  O  O27  1  0.25000000  0.21065900  0.75000000  1
  O  O28  1  0.40621900  0.18905100  0.18949200  1
  O  O29  1  0.09378100  0.18905100  0.31050800  1
  O  O30  1  0.38361200  0.18199900  0.52687700  1
  O  O31  1  0.11638800  0.18199900  0.97312300  1
  O  O32  1  0.73696600  0.08242600  0.09631500  1
  O  O33  1  0.76303400  0.08242600  0.40368500  1
  O  O34  1  0.64882000  0.01276200  0.65499100  1
  O  O35  1  0.85118000  0.01276200  0.84500900  1
loop_
_geom_bond_atom_site_label_1
_geom_bond_atom_site_label_2
_geom_bond_distance
_geom_bond_site_symmetry_2
Ni0 O35 1.909461 1_454
Ni0 O0 1.909461 1_545
Ni0 O31 1.932813 1_554
Ni0 O5 1.932813 1_445
Ni0 O32 2.123063 1_455
Ni0 O3 2.123063 1_544
Ni1 O34 1.909461 1_555
Ni1 O1 1.909461 1_545
Ni1 O30 1.932813 1_555
Ni1 O4 1.932813 1_545
Ni1 O33 2.123063 1_555
Ni1 O2 2.123063 1_545
Ni2 O16 1.909461 1_455
Ni2 O19 1.909461 1_555
Ni2 O23 1.932813 1_455
Ni2 O12 1.932813 1_555
Ni2 O15 2.123063 1_455
Ni2 O20 2.123063 1_555
Ni3 O17 1.909461 1_554
Ni3 O18 1.909461 1_555
Ni3 O13 1.932813 1_554
Ni3 O22 1.932813 1_555
Ni3 O14 2.123063 1_555
Ni3 O21 2.123063 1_554
O0 P11 1.502768 1_565
O1 P11 1.502768 1_565
O2 P2 1.492183 1_555
O3 P1 1.492183 1_555
O4 P4 1.508198 1_555
O5 P3 1.508198 1_555
O6 P0 1.584781 1_555
O6 P1 1.599895 1_555
O7 P0 1.584781 1_555
O7 P2 1.599895 1_655
O8 P4 1.617907 1_555
O8 P3 1.617907 1_555
O9 P1 1.617907 1_555
O9 P2 1.617907 1_555
O10 P5 1.584781 1_555
O10 P3 1.599895 1_455
O11 P5 1.584781 1_555
O11 P4 1.599895 1_555
O12 P2 1.508198 1_555
O13 P1 1.508198 1_555
O14 P3 1.492183 1_555
O15 P4 1.492183 1_555
O16 P6 1.502768 1_555
O17 P6 1.502768 1_555
O18 P5 1.502768 1_555
O19 P5 1.502768 1_555
O20 P7 1.492183 1_555
O21 P8 1.492183 1_555
O22 P9 1.508198 1_555
O23 P10 1.508198 1_555
O24 P6 1.584781 1_555
O24 P7 1.599895 1_555
O25 P6 1.584781 1_555
O25 P8 1.599895 1_655
O26 P10 1.617907 1_555
O26 P9 1.617907 1_555
O27 P7 1.617907 1_555
O27 P8 1.617907 1_555
O28 P11 1.584781 1_555
O28 P9 1.599895 1_555
O29 P11 1.584781 1_555
O29 P10 1.599895 1_455
O30 P7 1.508198 1_555
O31 P8 1.508198 1_555
O32 P9 1.492183 1_555
O33 P10 1.492183 1_555
O34 P0 1.502768 1_545
O35 P0 1.502768 1_545
