# generated using pymatgen
data_Li5Mn5V2O12
_symmetry_space_group_name_H-M   'P 1'
_cell_length_a   5.24712623
_cell_length_b   5.24712623
_cell_length_c   9.95928939
_cell_angle_alpha   85.53190191
_cell_angle_beta   85.53190191
_cell_angle_gamma   120.11700240
_symmetry_Int_Tables_number   1
_chemical_formula_structural   Li5Mn5V2O12
_chemical_formula_sum   'Li5 Mn5 V2 O12'
_cell_volume   234.27884038
_cell_formula_units_Z   1
loop_
 _symmetry_equiv_pos_site_id
 _symmetry_equiv_pos_as_xyz
  1  'x, y, z'
loop_
 _atom_site_type_symbol
 _atom_site_label
 _atom_site_symmetry_multiplicity
 _atom_site_fract_x
 _atom_site_fract_y
 _atom_site_fract_z
 _atom_site_occupancy
  Li  Li0  1  0.83444400  0.66175300  0.25431100  1
  Li  Li1  1  0.67607700  0.84678300  0.74587500  1
  Li  Li2  1  0.33824700  0.16555600  0.74568900  1
  Li  Li3  1  0.15321700  0.32392300  0.25412500  1
  Li  Li4  1  0.08538700  0.91461300  0.50000000  1
  Mn  Mn0  1  0.92105400  0.07894600  0.00000000  1
  Mn  Mn1  1  0.00126900  0.50605800  0.74709000  1
  Mn  Mn2  1  0.49394200  0.99873100  0.25291000  1
  Mn  Mn3  1  0.57608700  0.42391300  0.00000000  1
  Mn  Mn4  1  0.42420900  0.57579100  0.50000000  1
  V  V0  1  0.75167400  0.24832600  0.50000000  1
  V  V1  1  0.24860900  0.75139100  0.00000000  1
  O  O0  1  0.03411500  0.23163000  0.62535300  1
  O  O1  1  0.76837000  0.96588500  0.37464700  1
  O  O2  1  0.89338600  0.39698700  0.11684500  1
  O  O3  1  0.60301300  0.10661400  0.88315500  1
  O  O4  1  0.72480300  0.52785600  0.62280500  1
  O  O5  1  0.47214400  0.27519700  0.37719500  1
  O  O6  1  0.52899700  0.72248700  0.12874600  1
  O  O7  1  0.27751300  0.47100300  0.87125400  1
  O  O8  1  0.42099300  0.91281200  0.61111200  1
  O  O9  1  0.08718800  0.57900700  0.38888800  1
  O  O10  1  0.21755700  0.03229300  0.13008200  1
  O  O11  1  0.96770700  0.78244300  0.86991800  1
loop_
_geom_bond_atom_site_label_1
_geom_bond_atom_site_label_2
_geom_bond_distance
_geom_bond_site_symmetry_2
Li0 O9 2.123147 1_655
Li0 O2 2.135788 1_555
Li0 O5 2.146385 1_555
Li0 O10 2.160421 1_665
Li0 O1 2.211701 1_555
Li0 O6 2.235365 1_555
Li1 O8 2.094198 1_555
Li1 O0 2.124101 1_665
Li1 O3 2.146695 1_565
Li1 O11 2.174786 1_555
Li1 O7 2.211791 1_555
Li1 O4 2.251275 1_555
Li2 O8 2.123147 1_545
Li2 O3 2.135788 1_555
Li2 O4 2.146385 1_555
Li2 O11 2.160421 1_445
Li2 O0 2.211701 1_555
Li2 O7 2.235365 1_555
Li3 O9 2.094198 1_555
Li3 O1 2.124101 1_445
Li3 O2 2.146695 1_455
Li3 O10 2.174786 1_555
Li3 O6 2.211791 1_555
Li3 O5 2.251275 1_555
Li4 O4 2.143243 1_455
Li4 O5 2.143243 1_565
Li4 O8 2.155073 1_555
Li4 O9 2.155073 1_555
Li4 O0 2.262359 1_565
Li4 O1 2.262359 1_455
Mn0 O2 2.163224 1_555
Mn0 O3 2.163224 1_554
Mn0 O6 2.174496 1_545
Mn0 O7 2.174496 1_654
Mn0 O11 2.192170 1_544
Mn0 O10 2.192170 1_655
Mn1 O0 2.015351 1_555
Mn1 O4 2.018370 1_455
Mn1 O11 2.032172 1_455
Mn1 O7 2.043375 1_555
Mn1 O3 2.305864 1_455
Mn1 O8 2.367994 1_555
Mn2 O1 2.015351 1_555
Mn2 O5 2.018370 1_565
Mn2 O10 2.032172 1_565
Mn2 O6 2.043375 1_555
Mn2 O2 2.305864 1_565
Mn2 O9 2.367994 1_555
Mn3 O2 2.158326 1_555
Mn3 O3 2.158326 1_554
Mn3 O11 2.183138 1_554
Mn3 O10 2.183138 1_555
Mn3 O7 2.193545 1_554
Mn3 O6 2.193545 1_555
Mn4 O0 2.133199 1_555
Mn4 O1 2.133199 1_555
Mn4 O8 2.164252 1_555
Mn4 O9 2.164252 1_555
Mn4 O4 2.167394 1_555
Mn4 O5 2.167394 1_555
O0 V0 2.040613 1_455
O1 V0 2.040613 1_565
O2 V1 2.032964 1_655
O3 V1 2.032964 1_546
O4 V0 2.031550 1_555
O5 V0 2.031550 1_555
O6 V1 2.078257 1_555
O7 V1 2.078257 1_556
O8 V0 1.914774 1_565
O9 V0 1.914774 1_455
O10 V1 2.093568 1_545
O11 V1 2.093568 1_656
