# generated using pymatgen
data_Li3(NiO2)5
_symmetry_space_group_name_H-M   'P 1'
_cell_length_a   6.47079900
_cell_length_b   7.48248091
_cell_length_c   7.56894425
_cell_angle_alpha   66.49333521
_cell_angle_beta   87.50226335
_cell_angle_gamma   88.61565854
_symmetry_Int_Tables_number   1
_chemical_formula_structural   Li3(NiO2)5
_chemical_formula_sum   'Li6 Ni10 O20'
_cell_volume   335.72985917
_cell_formula_units_Z   2
loop_
 _symmetry_equiv_pos_site_id
 _symmetry_equiv_pos_as_xyz
  1  'x, y, z'
loop_
 _atom_site_type_symbol
 _atom_site_label
 _atom_site_symmetry_multiplicity
 _atom_site_fract_x
 _atom_site_fract_y
 _atom_site_fract_z
 _atom_site_occupancy
  Li  Li0  1  0.69547600  0.80550900  0.30837400  1
  Li  Li1  1  0.39776900  0.61136100  0.59919300  1
  Li  Li2  1  0.10436600  0.39634200  0.89561100  1
  Li  Li3  1  0.89987200  0.61516100  0.09763700  1
  Li  Li4  1  0.31086500  0.17273400  0.69019200  1
  Li  Li5  1  0.79372900  0.19789600  0.21202500  1
  Ni  Ni0  1  0.60021100  0.89661800  0.90347600  1
  Ni  Ni1  1  0.10228600  0.90011900  0.40041700  1
  Ni  Ni2  1  0.80162000  0.70044500  0.70173800  1
  Ni  Ni3  1  0.50059400  0.50116100  0.00076700  1
  Ni  Ni4  1  0.29569600  0.69936700  0.19778100  1
  Ni  Ni5  1  0.99543300  0.49930800  0.49809300  1
  Ni  Ni6  1  0.70065700  0.29777700  0.80204400  1
  Ni  Ni7  1  0.20371100  0.30402200  0.29838400  1
  Ni  Ni8  1  0.90033500  0.10053700  0.60082200  1
  Ni  Ni9  1  0.39713600  0.10198600  0.09864600  1
  O  O0  1  0.32803700  0.95503000  0.95823200  1
  O  O1  1  0.87217500  0.84060100  0.84523100  1
  O  O2  1  0.83147200  0.95536500  0.45703600  1
  O  O3  1  0.52305500  0.73520300  0.77797100  1
  O  O4  1  0.37127500  0.83941600  0.33997400  1
  O  O5  1  0.07936600  0.63771400  0.64062100  1
  O  O6  1  0.01117300  0.73096300  0.27792000  1
  O  O7  1  0.77463000  0.44072400  0.94913500  1
  O  O8  1  0.72374800  0.56047500  0.55706000  1
  O  O9  1  0.58153800  0.66181600  0.12478800  1
  O  O10  1  0.42367600  0.36269200  0.85404300  1
  O  O11  1  0.26893500  0.44380800  0.44689800  1
  O  O12  1  0.22433800  0.53795000  0.07223900  1
  O  O13  1  0.97857900  0.26657900  0.72232100  1
  O  O14  1  0.92977300  0.36062300  0.34792800  1
  O  O15  1  0.62312300  0.13137800  0.68386900  1
  O  O16  1  0.47880400  0.26536500  0.22239900  1
  O  O17  1  0.17797700  0.07415200  0.51911900  1
  O  O18  1  0.12255900  0.16384300  0.15705900  1
  O  O19  1  0.67064800  0.03948400  0.04834600  1
loop_
_geom_bond_atom_site_label_1
_geom_bond_atom_site_label_2
_geom_bond_distance
_geom_bond_site_symmetry_2
Li0 O8 2.049119 1_555
Li0 O19 2.056626 1_565
Li0 O2 2.106719 1_555
Li0 O4 2.121665 1_555
Li0 O6 2.131621 1_655
Li0 O9 2.224820 1_555
Li1 O4 2.033515 1_555
Li1 O5 2.086987 1_555
Li1 O10 2.088308 1_555
Li1 O3 2.116392 1_555
Li1 O8 2.166894 1_555
Li1 O11 2.209664 1_555
Li2 O18 2.054385 1_556
Li2 O5 2.060450 1_555
Li2 O10 2.100697 1_555
Li2 O13 2.114884 1_455
Li2 O12 2.184681 1_556
Li2 O7 2.196505 1_455
Li3 O1 1.992961 1_554
Li3 O6 2.047070 1_655
Li3 O14 2.095152 1_555
Li3 O9 2.095894 1_555
Li3 O12 2.184871 1_655
Li3 O7 2.219136 1_554
Li4 O17 1.962077 1_555
Li4 O15 2.038107 1_555
Li4 O0 2.038735 1_545
Li4 O11 2.148517 1_555
Li4 O13 2.278832 1_455
Li4 O10 2.371995 1_555
Li5 O2 2.031118 1_545
Li5 O16 2.093248 1_555
Li5 O7 2.098204 1_554
Li5 O14 2.108422 1_555
Li5 O18 2.178697 1_655
Li5 O19 2.208418 1_555
Ni0 O0 1.873031 1_555
Ni0 O1 1.873809 1_555
Ni0 O15 1.879474 1_565
Ni0 O9 1.884734 1_556
Ni0 O19 1.885464 1_566
Ni0 O3 1.896338 1_555
Ni1 O2 1.861783 1_455
Ni1 O4 1.871726 1_555
Ni1 O17 1.935272 1_565
Ni1 O6 1.956808 1_555
Ni1 O5 2.079787 1_555
Ni1 O18 2.096650 1_565
Ni2 O1 1.860853 1_555
Ni2 O8 1.881070 1_555
Ni2 O3 1.912099 1_555
Ni2 O5 1.929861 1_655
Ni2 O2 2.067479 1_555
Ni2 O7 2.097271 1_555
Ni3 O7 1.882395 1_554
Ni3 O10 1.882946 1_554
Ni3 O3 1.888592 1_554
Ni3 O9 1.890497 1_555
Ni3 O12 1.890675 1_555
Ni3 O16 1.891363 1_555
Ni4 O4 1.861700 1_555
Ni4 O12 1.885632 1_555
Ni4 O6 1.951784 1_555
Ni4 O9 1.953190 1_555
Ni4 O0 2.051875 1_554
Ni4 O11 2.086430 1_555
Ni5 O6 1.865880 1_655
Ni5 O11 1.867564 1_655
Ni5 O5 1.871021 1_655
Ni5 O14 1.885058 1_555
Ni5 O8 1.885467 1_555
Ni5 O13 1.886843 1_555
Ni6 O15 1.886709 1_555
Ni6 O7 1.906242 1_555
Ni6 O13 1.910567 1_555
Ni6 O10 1.911042 1_555
Ni6 O19 2.088250 1_556
Ni6 O8 2.099259 1_555
Ni7 O17 1.864057 1_555
Ni7 O18 1.868345 1_555
Ni7 O14 1.869377 1_455
Ni7 O11 1.880506 1_555
Ni7 O16 1.897810 1_555
Ni7 O12 1.900740 1_555
Ni8 O2 1.889866 1_545
Ni8 O13 1.904733 1_555
Ni8 O17 1.905904 1_655
Ni8 O15 1.914016 1_555
Ni8 O1 2.087067 1_545
Ni8 O14 2.121807 1_555
Ni9 O0 1.880413 1_544
Ni9 O19 1.881305 1_555
Ni9 O18 1.903028 1_555
Ni9 O16 1.907587 1_555
Ni9 O4 2.085889 1_545
Ni9 O10 2.090445 1_554
