# generated using pymatgen
data_Li3Ti2Co3O10
_symmetry_space_group_name_H-M   'P 1'
_cell_length_a   5.02551200
_cell_length_b   5.23650094
_cell_length_c   7.71185016
_cell_angle_alpha   73.87613106
_cell_angle_beta   74.70369277
_cell_angle_gamma   81.17194787
_symmetry_Int_Tables_number   1
_chemical_formula_structural   Li3Ti2Co3O10
_chemical_formula_sum   'Li3 Ti2 Co3 O10'
_cell_volume   187.35019889
_cell_formula_units_Z   1
loop_
 _symmetry_equiv_pos_site_id
 _symmetry_equiv_pos_as_xyz
  1  'x, y, z'
loop_
 _atom_site_type_symbol
 _atom_site_label
 _atom_site_symmetry_multiplicity
 _atom_site_fract_x
 _atom_site_fract_y
 _atom_site_fract_z
 _atom_site_occupancy
  Li  Li0  1  0.51170900  0.77540600  0.39814200  1
  Li  Li1  1  0.00000000  0.50000000  0.50000000  1
  Li  Li2  1  0.48829100  0.22459400  0.60185800  1
  Ti  Ti0  1  0.02659400  0.87495600  0.68838100  1
  Ti  Ti1  1  0.97340600  0.12504400  0.31161900  1
  Co  Co0  1  0.50000000  0.00000000  0.00000000  1
  Co  Co1  1  0.98549600  0.30989100  0.89290300  1
  Co  Co2  1  0.01450400  0.69010900  0.10709700  1
  O  O0  1  0.24382400  0.97446500  0.84899200  1
  O  O1  1  0.78390400  0.88007000  0.52845100  1
  O  O2  1  0.79720600  0.67975300  0.93540100  1
  O  O3  1  0.24527300  0.79474600  0.22547900  1
  O  O4  1  0.21662700  0.55394200  0.65941600  1
  O  O5  1  0.78337300  0.44605800  0.34058400  1
  O  O6  1  0.75472700  0.20525400  0.77452100  1
  O  O7  1  0.20279400  0.32024700  0.06459900  1
  O  O8  1  0.21609600  0.11993000  0.47154900  1
  O  O9  1  0.75617600  0.02553500  0.15100800  1
loop_
_geom_bond_atom_site_label_1
_geom_bond_atom_site_label_2
_geom_bond_distance
_geom_bond_site_symmetry_2
Li0 O3 2.097696 1_555
Li0 O5 2.101913 1_555
Li0 O1 2.107793 1_555
Li0 O9 2.174685 1_565
Li0 O8 2.254585 1_565
Li0 O4 2.292885 1_555
Li1 O4 1.941600 1_555
Li1 O5 1.941600 1_455
Li1 O8 2.154524 1_555
Li1 O1 2.154524 1_455
Li1 O6 2.403272 1_455
Li1 O3 2.403272 1_555
Li2 O6 2.097696 1_555
Li2 O4 2.101913 1_555
Li2 O8 2.107793 1_555
Li2 O0 2.174685 1_545
Li2 O1 2.254585 1_545
Li2 O5 2.292885 1_555
Co0 O9 1.990444 1_555
Co0 O0 1.990444 1_544
Co0 O3 2.006832 1_545
Co0 O6 2.006832 1_554
Co0 O7 2.143344 1_555
Co0 O2 2.143344 1_544
Co1 O6 1.873552 1_555
Co1 O7 1.941566 1_656
Co1 O0 2.069716 1_645
Co1 O4 2.073312 1_655
Co1 O2 2.092928 1_555
Co1 O9 2.275410 1_556
Co2 O3 1.873552 1_555
Co2 O2 1.941566 1_454
Co2 O9 2.069716 1_465
Co2 O5 2.073312 1_455
Co2 O7 2.092928 1_555
Co2 O0 2.275410 1_554
O0 Ti0 2.060094 1_555
O1 Ti1 1.921466 1_565
O1 Ti0 1.942863 1_655
O2 Ti0 2.030810 1_655
O3 Ti1 2.175659 1_465
O4 Ti0 1.841447 1_555
O5 Ti1 1.841447 1_555
O6 Ti0 2.175659 1_645
O7 Ti1 2.030810 1_455
O8 Ti0 1.921466 1_545
O8 Ti1 1.942863 1_455
O9 Ti1 2.060094 1_555
