# generated using pymatgen
data_V4(OF3)3
_symmetry_space_group_name_H-M   'P 1'
_cell_length_a   5.22456100
_cell_length_b   5.39703620
_cell_length_c   17.42900908
_cell_angle_alpha   89.76478967
_cell_angle_beta   97.99466450
_cell_angle_gamma   118.47874004
_symmetry_Int_Tables_number   1
_chemical_formula_structural   V4(OF3)3
_chemical_formula_sum   'V8 O6 F18'
_cell_volume   426.68773346
_cell_formula_units_Z   2
loop_
 _symmetry_equiv_pos_site_id
 _symmetry_equiv_pos_as_xyz
  1  'x, y, z'
loop_
 _atom_site_type_symbol
 _atom_site_label
 _atom_site_symmetry_multiplicity
 _atom_site_fract_x
 _atom_site_fract_y
 _atom_site_fract_z
 _atom_site_occupancy
  V  V0  1  0.75668100  0.35686500  0.11894900  1
  V  V1  1  0.73508500  0.88045100  0.62528800  1
  V  V2  1  0.52027300  0.72092500  0.24771400  1
  V  V3  1  0.50427900  0.23764200  0.74817700  1
  V  V4  1  0.26048600  0.09623300  0.37951700  1
  V  V5  1  0.24266500  0.63689900  0.88160400  1
  V  V6  1  0.99972700  0.99735400  0.99986700  1
  V  V7  1  0.03166300  0.52275100  0.50518400  1
  O  O0  1  0.32141900  0.67093200  0.57806100  1
  O  O1  1  0.83073500  0.20777400  0.04601100  1
  O  O2  1  0.17132900  0.78666300  0.95460200  1
  O  O3  1  0.65979800  0.54026700  0.20738000  1
  O  O4  1  0.64333100  0.05323600  0.70822900  1
  O  O5  1  0.20827800  0.82244300  0.43409500  1
  F  F0  1  0.32612600  0.15428900  0.08738500  1
  F  F1  1  0.76961700  0.67635700  0.06180800  1
  F  F2  1  0.77798400  0.19672700  0.56008100  1
  F  F3  1  0.72411700  0.06743700  0.19189000  1
  F  F4  1  0.34038700  0.95218200  0.28896300  1
  F  F5  1  0.33009300  0.46102800  0.79302600  1
  F  F6  1  0.17100000  0.59527800  0.16588800  1
  F  F7  1  0.16175400  0.10295900  0.66466400  1
  F  F8  1  0.17441600  0.29277600  0.45888700  1
  F  F9  1  0.29449900  0.42902900  0.31525400  1
  F  F10  1  0.71433000  0.57280800  0.69079000  1
  F  F11  1  0.83485500  0.92018200  0.33526900  1
  F  F12  1  0.82437500  0.71358900  0.53786900  1
  F  F13  1  0.82162800  0.40439800  0.83798300  1
  F  F14  1  0.68181500  0.33867300  0.41614200  1
  F  F15  1  0.26309500  0.93086000  0.81021800  1
  F  F16  1  0.23088000  0.31791100  0.93745400  1
  F  F17  1  0.67327600  0.84308200  0.91174800  1
loop_
_geom_bond_atom_site_label_1
_geom_bond_atom_site_label_2
_geom_bond_distance
_geom_bond_site_symmetry_2
O0 V7 1.692203 1_555
O0 V1 1.951730 1_555
O1 V0 1.689763 1_555
O1 V6 1.969074 1_544
O2 V5 1.684802 1_555
O2 V6 1.973714 1_455
O3 V2 1.673979 1_555
O3 V0 2.078173 1_555
O4 V3 1.684929 1_555
O4 V1 1.954290 1_545
O5 V4 1.684927 1_565
O5 V7 1.970017 1_555
F0 V6 1.965129 1_444
F0 V0 1.968084 1_555
F1 V0 1.965486 1_555
F1 V6 1.992871 1_554
F2 V7 1.970540 1_655
F2 V1 1.986357 1_545
F3 V0 1.968641 1_555
F3 V2 1.988005 1_545
F4 V4 1.942282 1_565
F4 V2 2.066846 1_555
F5 V5 2.028459 1_555
F5 V3 2.035845 1_555
F6 V0 1.967335 1_455
F6 V2 1.981811 1_555
F7 V3 1.973086 1_555
F7 V1 1.977512 1_445
F8 V7 1.950980 1_555
F8 V4 1.970027 1_555
F9 V2 1.964111 1_555
F9 V4 2.060716 1_555
F10 V3 1.968294 1_555
F10 V1 1.979661 1_555
F11 V2 1.953628 1_555
F11 V4 1.989103 1_665
F12 V7 1.948944 1_655
F12 V1 1.989897 1_555
F13 V3 1.968644 1_555
F13 V5 1.975266 1_655
F14 V4 1.958131 1_555
F14 V7 2.056254 1_655
F15 V3 1.968013 1_565
F15 V5 1.983853 1_555
F16 V5 1.953718 1_555
F16 V6 1.998077 1_445
F17 V5 1.965765 1_555
F17 V6 1.971940 1_555
