# generated using pymatgen
data_LiMn(PO3)3
_symmetry_space_group_name_H-M   'P 1'
_cell_length_a   7.40549100
_cell_length_b   9.19779300
_cell_length_c   12.10407200
_cell_angle_alpha   90.00000000
_cell_angle_beta   90.00000000
_cell_angle_gamma   90.00000000
_symmetry_Int_Tables_number   1
_chemical_formula_structural   LiMn(PO3)3
_chemical_formula_sum   'Li4 Mn4 P12 O36'
_cell_volume   824.45885762
_cell_formula_units_Z   4
loop_
 _symmetry_equiv_pos_site_id
 _symmetry_equiv_pos_as_xyz
  1  'x, y, z'
loop_
 _atom_site_type_symbol
 _atom_site_label
 _atom_site_symmetry_multiplicity
 _atom_site_fract_x
 _atom_site_fract_y
 _atom_site_fract_z
 _atom_site_occupancy
  Li  Li0  1  0.75000000  0.97335000  0.03124200  1
  Li  Li1  1  0.75000000  0.47335000  0.46875800  1
  Li  Li2  1  0.25000000  0.52665000  0.53124200  1
  Li  Li3  1  0.25000000  0.02665000  0.96875800  1
  Mn  Mn0  1  0.75000000  0.52303200  0.71434700  1
  Mn  Mn1  1  0.75000000  0.02303200  0.78565300  1
  Mn  Mn2  1  0.25000000  0.97696800  0.21434700  1
  Mn  Mn3  1  0.25000000  0.47696800  0.28565300  1
  P  P0  1  0.95257800  0.74841800  0.34898000  1
  P  P1  1  0.95257800  0.24841800  0.15102000  1
  P  P2  1  0.75000000  0.30720200  0.95964600  1
  P  P3  1  0.75000000  0.80720200  0.54035400  1
  P  P4  1  0.54742200  0.24841800  0.15102000  1
  P  P5  1  0.54742200  0.74841800  0.34898000  1
  P  P6  1  0.45257800  0.25158200  0.65102000  1
  P  P7  1  0.45257800  0.75158200  0.84898000  1
  P  P8  1  0.25000000  0.69279800  0.04035400  1
  P  P9  1  0.25000000  0.19279800  0.45964600  1
  P  P10  1  0.04742200  0.25158200  0.65102000  1
  P  P11  1  0.04742200  0.75158200  0.84898000  1
  O  O0  1  0.98209600  0.65429300  0.75868600  1
  O  O1  1  0.98209600  0.15429300  0.74131400  1
  O  O2  1  0.94147800  0.88447700  0.88284900  1
  O  O3  1  0.94147800  0.38447700  0.61715100  1
  O  O4  1  0.91743200  0.34614800  0.04096600  1
  O  O5  1  0.91743200  0.84614800  0.45903400  1
  O  O6  1  0.75000000  0.68917000  0.31891000  1
  O  O7  1  0.75000000  0.90696000  0.63627400  1
  O  O8  1  0.75000000  0.40696000  0.86372600  1
  O  O9  1  0.75000000  0.14449400  0.94177300  1
  O  O10  1  0.75000000  0.18917000  0.18109000  1
  O  O11  1  0.75000000  0.64449400  0.55822700  1
  O  O12  1  0.58256800  0.34614800  0.04096600  1
  O  O13  1  0.58256800  0.84614800  0.45903400  1
  O  O14  1  0.55852200  0.88447700  0.88284900  1
  O  O15  1  0.55852200  0.38447700  0.61715100  1
  O  O16  1  0.51790400  0.65429300  0.75868600  1
  O  O17  1  0.51790400  0.15429300  0.74131400  1
  O  O18  1  0.48209600  0.84570700  0.25868600  1
  O  O19  1  0.48209600  0.34570700  0.24131400  1
  O  O20  1  0.44147800  0.11552300  0.11715100  1
  O  O21  1  0.44147800  0.61552300  0.38284900  1
  O  O22  1  0.41743200  0.15385200  0.54096600  1
  O  O23  1  0.41743200  0.65385200  0.95903400  1
  O  O24  1  0.25000000  0.85550600  0.05822700  1
  O  O25  1  0.25000000  0.59304000  0.13627400  1
  O  O26  1  0.25000000  0.35550600  0.44177300  1
  O  O27  1  0.25000000  0.09304000  0.36372600  1
  O  O28  1  0.25000000  0.31083000  0.68109000  1
  O  O29  1  0.25000000  0.81083000  0.81891000  1
  O  O30  1  0.08256800  0.15385200  0.54096600  1
  O  O31  1  0.08256800  0.65385200  0.95903400  1
  O  O32  1  0.05852200  0.61552300  0.38284900  1
  O  O33  1  0.05852200  0.11552300  0.11715100  1
  O  O34  1  0.01790400  0.34570700  0.24131400  1
  O  O35  1  0.01790400  0.84570700  0.25868600  1
loop_
_geom_bond_atom_site_label_1
_geom_bond_atom_site_label_2
_geom_bond_distance
_geom_bond_site_symmetry_2
Li0 O9 1.910680 1_564
Li0 O2 2.430037 1_554
Li0 O14 2.430037 1_554
Li1 O11 1.910680 1_555
Li1 O15 2.430037 1_555
Li1 O3 2.430037 1_555
Li2 O26 1.910680 1_555
Li2 O21 2.430037 1_555
Li2 O32 2.430037 1_555
Li3 O24 1.910680 1_546
Li3 O33 2.430037 1_556
Li3 O20 2.430037 1_556
Mn0 O8 2.099759 1_555
Mn0 O0 2.167914 1_555
Mn0 O16 2.167914 1_555
Mn0 O11 2.195226 1_555
Mn0 O3 2.240282 1_555
Mn0 O15 2.240282 1_555
Mn1 O7 2.099759 1_545
Mn1 O17 2.167914 1_555
Mn1 O1 2.167914 1_555
Mn1 O9 2.195226 1_555
Mn1 O2 2.240282 1_545
Mn1 O14 2.240282 1_545
Mn2 O27 2.099759 1_565
Mn2 O35 2.167914 1_555
Mn2 O18 2.167914 1_555
Mn2 O24 2.195226 1_555
Mn2 O20 2.240282 1_565
Mn2 O33 2.240282 1_565
Mn3 O25 2.099759 1_555
Mn3 O34 2.167914 1_555
Mn3 O19 2.167914 1_555
Mn3 O26 2.195226 1_555
Mn3 O21 2.240282 1_555
Mn3 O32 2.240282 1_555
O0 P11 1.493073 1_655
O1 P10 1.493073 1_655
O2 P11 1.509213 1_655
O3 P10 1.509213 1_655
O4 P2 1.623134 1_554
O4 P1 1.627961 1_555
O5 P3 1.623134 1_555
O5 P0 1.627961 1_555
O6 P5 1.637075 1_555
O6 P0 1.637075 1_555
O7 P3 1.479824 1_555
O8 P2 1.479824 1_555
O9 P2 1.512110 1_555
O10 P4 1.637075 1_555
O10 P1 1.637075 1_555
O11 P3 1.512110 1_555
O12 P2 1.623134 1_554
O12 P4 1.627961 1_555
O13 P3 1.623134 1_555
O13 P5 1.627961 1_555
O14 P7 1.509213 1_555
O15 P6 1.509213 1_555
O16 P7 1.493073 1_555
O17 P6 1.493073 1_555
O18 P5 1.493073 1_555
O19 P4 1.493073 1_555
O20 P4 1.509213 1_555
O21 P5 1.509213 1_555
O22 P9 1.623134 1_555
O22 P6 1.627961 1_555
O23 P8 1.623134 1_556
O23 P7 1.627961 1_555
O24 P8 1.512110 1_555
O25 P8 1.479824 1_555
O26 P9 1.512110 1_555
O27 P9 1.479824 1_555
O28 P6 1.637075 1_555
O28 P10 1.637075 1_555
O29 P7 1.637075 1_555
O29 P11 1.637075 1_555
O30 P9 1.623134 1_555
O30 P10 1.627961 1_555
O31 P8 1.623134 1_556
O31 P11 1.627961 1_555
O32 P0 1.509213 1_455
O33 P1 1.509213 1_455
O34 P1 1.493073 1_455
O35 P0 1.493073 1_455
