# generated using pymatgen
data_Li3BiS3
_symmetry_space_group_name_H-M   'P 1'
_cell_length_a   16.14134400
_cell_length_b   5.87639500
_cell_length_c   8.34867215
_cell_angle_alpha   46.12116467
_cell_angle_beta   90.00000000
_cell_angle_gamma   90.00000000
_symmetry_Int_Tables_number   1
_chemical_formula_structural   Li3BiS3
_chemical_formula_sum   'Li12 Bi4 S12'
_cell_volume   570.80424840
_cell_formula_units_Z   4
loop_
 _symmetry_equiv_pos_site_id
 _symmetry_equiv_pos_as_xyz
  1  'x, y, z'
loop_
 _atom_site_type_symbol
 _atom_site_label
 _atom_site_symmetry_multiplicity
 _atom_site_fract_x
 _atom_site_fract_y
 _atom_site_fract_z
 _atom_site_occupancy
  Li  Li0  1  0.69171200  0.35895700  0.17617500  1
  Li  Li1  1  0.42929300  0.70776200  0.09250400  1
  Li  Li2  1  0.92929300  0.29223800  0.40749600  1
  Li  Li3  1  0.19171200  0.64104300  0.32382500  1
  Li  Li4  1  0.68860500  0.79404400  0.23204600  1
  Li  Li5  1  0.18860500  0.20595600  0.26795400  1
  Li  Li6  1  0.81139500  0.79404400  0.73204600  1
  Li  Li7  1  0.31139500  0.20595600  0.76795400  1
  Li  Li8  1  0.80828800  0.35895700  0.67617500  1
  Li  Li9  1  0.07070700  0.70776200  0.59250400  1
  Li  Li10  1  0.57070700  0.29223800  0.90749600  1
  Li  Li11  1  0.30828800  0.64104300  0.82382500  1
  Bi  Bi0  1  0.91185100  0.13718500  0.08717700  1
  Bi  Bi1  1  0.41185100  0.86281500  0.41282300  1
  Bi  Bi2  1  0.58814900  0.13718500  0.58717700  1
  Bi  Bi3  1  0.08814900  0.86281500  0.91282300  1
  S  S0  1  0.91048800  0.77587400  0.99316000  1
  S  S1  1  0.25383500  0.70682000  0.04167200  1
  S  S2  1  0.41808800  0.25100300  0.97782400  1
  S  S3  1  0.75383500  0.29318000  0.45832800  1
  S  S4  1  0.91808800  0.74899700  0.52217600  1
  S  S5  1  0.41048800  0.22412600  0.50684000  1
  S  S6  1  0.58951200  0.77587400  0.49316000  1
  S  S7  1  0.08191200  0.25100300  0.47782400  1
  S  S8  1  0.24616500  0.70682000  0.54167200  1
  S  S9  1  0.58191200  0.74899700  0.02217600  1
  S  S10  1  0.74616500  0.29318000  0.95832800  1
  S  S11  1  0.08951200  0.22412600  0.00684000  1
loop_
_geom_bond_atom_site_label_1
_geom_bond_atom_site_label_2
_geom_bond_distance
_geom_bond_site_symmetry_2
Li0 S10 2.281291 1_554
Li0 S3 2.332714 1_555
Li0 S9 2.441802 1_555
Li0 S6 2.982428 1_545
Li1 S9 2.504983 1_555
Li1 S5 2.550797 1_555
Li1 S2 2.627387 1_564
Li1 S1 2.864321 1_555
Li2 S7 2.504983 1_655
Li2 S0 2.550797 1_554
Li2 S4 2.627387 1_545
Li2 S3 2.864321 1_555
Li3 S8 2.281291 1_555
Li3 S1 2.332714 1_555
Li3 S7 2.441802 1_555
Li3 S11 2.982428 1_565
Li4 S10 2.323078 1_564
Li4 S3 2.373243 1_555
Li4 S9 2.597863 1_555
Li4 S6 2.645622 1_555
Li5 S8 2.323078 1_545
Li5 S1 2.373243 1_555
Li5 S7 2.597863 1_555
Li5 S11 2.645622 1_555
Li6 S3 2.323078 1_565
Li6 S10 2.373243 1_555
Li6 S4 2.597863 1_555
Li6 S0 2.645622 1_555
Li7 S1 2.323078 1_546
Li7 S8 2.373243 1_555
Li7 S2 2.597863 1_555
Li7 S5 2.645622 1_555
Li8 S3 2.281291 1_555
Li8 S10 2.332714 1_555
Li8 S4 2.441802 1_555
Li8 S0 2.982428 1_545
Li9 S4 2.504983 1_455
Li9 S11 2.550797 1_556
Li9 S7 2.627387 1_565
Li9 S8 2.864321 1_555
Li10 S2 2.504983 1_555
Li10 S6 2.550797 1_555
Li10 S9 2.627387 1_546
Li10 S10 2.864321 1_555
Li11 S1 2.281291 1_556
Li11 S8 2.332714 1_555
Li11 S2 2.441802 1_555
Li11 S5 2.982428 1_565
Bi0 S4 2.630282 1_545
Bi0 S0 2.726694 1_544
Bi0 S10 2.789780 1_554
Bi0 S11 2.908517 1_655
Bi1 S2 2.630282 1_564
Bi1 S5 2.726694 1_565
Bi1 S8 2.789780 1_555
Bi1 S6 2.908517 1_555
Bi2 S9 2.630282 1_546
Bi2 S6 2.726694 1_545
Bi2 S3 2.789780 1_555
Bi2 S5 2.908517 1_555
Bi3 S7 2.630282 1_565
Bi3 S11 2.726694 1_566
Bi3 S1 2.789780 1_556
Bi3 S0 2.908517 1_455
