# generated using pymatgen
data_Na3CdPCO7
_symmetry_space_group_name_H-M   'P 1'
_cell_length_a   7.00416400
_cell_length_b   5.25516800
_cell_length_c   9.17599352
_cell_angle_alpha   89.83614222
_cell_angle_beta   90.00000000
_cell_angle_gamma   90.00000000
_symmetry_Int_Tables_number   1
_chemical_formula_structural   Na3CdPCO7
_chemical_formula_sum   'Na6 Cd2 P2 C2 O14'
_cell_volume   337.74912542
_cell_formula_units_Z   2
loop_
 _symmetry_equiv_pos_site_id
 _symmetry_equiv_pos_as_xyz
  1  'x, y, z'
loop_
 _atom_site_type_symbol
 _atom_site_label
 _atom_site_symmetry_multiplicity
 _atom_site_fract_x
 _atom_site_fract_y
 _atom_site_fract_z
 _atom_site_occupancy
  Na  Na0  1  0.25000000  0.75960800  0.91663900  1
  Na  Na1  1  0.00284500  0.24639900  0.74109300  1
  Na  Na2  1  0.49715500  0.24639900  0.74109300  1
  Na  Na3  1  0.50284500  0.75360100  0.25890700  1
  Na  Na4  1  0.99715500  0.75360100  0.25890700  1
  Na  Na5  1  0.75000000  0.24039200  0.08336100  1
  Cd  Cd0  1  0.75000000  0.76988700  0.63557400  1
  Cd  Cd1  1  0.25000000  0.23011300  0.36442600  1
  P  P0  1  0.25000000  0.70243800  0.59260000  1
  P  P1  1  0.75000000  0.29756200  0.40740000  1
  C  C0  1  0.75000000  0.73584700  0.94340600  1
  C  C1  1  0.25000000  0.26415300  0.05659400  1
  O  O0  1  0.25000000  0.28709400  0.91568000  1
  O  O1  1  0.75000000  0.96017300  0.88275400  1
  O  O2  1  0.75000000  0.53201400  0.86169200  1
  O  O3  1  0.07325000  0.79219100  0.68190000  1
  O  O4  1  0.42675000  0.79219100  0.68190000  1
  O  O5  1  0.25000000  0.40443300  0.58570600  1
  O  O6  1  0.75000000  0.19610200  0.56691500  1
  O  O7  1  0.25000000  0.80389800  0.43308500  1
  O  O8  1  0.75000000  0.59556700  0.41429400  1
  O  O9  1  0.57325000  0.20780900  0.31810000  1
  O  O10  1  0.92675000  0.20780900  0.31810000  1
  O  O11  1  0.25000000  0.46798600  0.13830800  1
  O  O12  1  0.25000000  0.03982700  0.11724600  1
  O  O13  1  0.75000000  0.71290600  0.08432000  1
loop_
_geom_bond_atom_site_label_1
_geom_bond_atom_site_label_2
_geom_bond_distance
_geom_bond_site_symmetry_2
Na0 O12 2.360610 1_566
Na0 O0 2.483181 1_555
Na0 O4 2.489855 1_555
Na0 O3 2.489855 1_555
Na0 O11 2.543244 1_556
Na0 O0 2.772016 1_565
Na1 O0 2.368731 1_555
Na1 O5 2.390125 1_555
Na1 O6 2.400631 1_455
Na1 O3 2.498617 1_545
Na1 O2 2.573576 1_455
Na1 O1 2.660328 1_445
Na2 O0 2.368731 1_555
Na2 O5 2.390125 1_555
Na2 O6 2.400631 1_555
Na2 O4 2.498617 1_545
Na2 O2 2.573576 1_555
Na2 O1 2.660328 1_545
Na3 O13 2.368731 1_555
Na3 O8 2.390125 1_555
Na3 O7 2.400631 1_555
Na3 O9 2.498617 1_565
Na3 O11 2.573576 1_555
Na3 O12 2.660328 1_565
Na4 O13 2.368731 1_555
Na4 O8 2.390125 1_555
Na4 O7 2.400631 1_655
Na4 O10 2.498617 1_565
Na4 O11 2.573576 1_655
Na4 O12 2.660328 1_665
Na5 O1 2.360610 1_544
Na5 O13 2.483181 1_555
Na5 O9 2.489855 1_555
Na5 O10 2.489855 1_555
Na5 O2 2.543244 1_554
Na5 O13 2.772016 1_545
Cd0 O8 2.229939 1_555
Cd0 O4 2.306697 1_555
Cd0 O3 2.306697 1_655
Cd0 O6 2.325014 1_565
Cd0 O2 2.419267 1_555
Cd0 O1 2.481395 1_555
Cd1 O5 2.229939 1_555
Cd1 O10 2.306697 1_455
Cd1 O9 2.306697 1_555
Cd1 O7 2.325014 1_545
Cd1 O11 2.419267 1_555
Cd1 O12 2.481395 1_555
C0 O13 1.298291 1_556
C0 O1 1.302199 1_555
C0 O2 1.309284 1_555
C1 O0 1.298291 1_554
C1 O12 1.302199 1_555
C1 O11 1.309284 1_555
O3 P0 1.558439 1_555
O4 P0 1.558439 1_555
O5 P0 1.567524 1_555
O6 P1 1.556364 1_555
O7 P0 1.556364 1_555
O8 P1 1.567524 1_555
O9 P1 1.558439 1_555
O10 P1 1.558439 1_555
