# generated using pymatgen
data_Na2Ti2O5
_symmetry_space_group_name_H-M   'P 1'
_cell_length_a   5.66041300
_cell_length_b   9.05360100
_cell_length_c   10.65487500
_cell_angle_alpha   90.00000000
_cell_angle_beta   90.00000000
_cell_angle_gamma   90.00000000
_symmetry_Int_Tables_number   1
_chemical_formula_structural   Na2Ti2O5
_chemical_formula_sum   'Na8 Ti8 O20'
_cell_volume   546.03166620
_cell_formula_units_Z   4
loop_
 _symmetry_equiv_pos_site_id
 _symmetry_equiv_pos_as_xyz
  1  'x, y, z'
loop_
 _atom_site_type_symbol
 _atom_site_label
 _atom_site_symmetry_multiplicity
 _atom_site_fract_x
 _atom_site_fract_y
 _atom_site_fract_z
 _atom_site_occupancy
  Na  Na0  1  0.93217300  0.02281400  0.48917900  1
  Na  Na1  1  0.93217300  0.52281400  0.01082100  1
  Na  Na2  1  0.91240900  0.74779900  0.73361900  1
  Na  Na3  1  0.91240900  0.24779900  0.76638100  1
  Na  Na4  1  0.08759100  0.24779900  0.26638100  1
  Na  Na5  1  0.08759100  0.74779900  0.23361900  1
  Na  Na6  1  0.06782700  0.52281400  0.51082100  1
  Na  Na7  1  0.06782700  0.02281400  0.98917900  1
  Ti  Ti0  1  0.62597600  0.94647000  0.20257700  1
  Ti  Ti1  1  0.62597600  0.44647000  0.29742300  1
  Ti  Ti2  1  0.52960100  0.75056600  0.46674300  1
  Ti  Ti3  1  0.52960100  0.25056600  0.03325700  1
  Ti  Ti4  1  0.47039900  0.75056600  0.96674300  1
  Ti  Ti5  1  0.47039900  0.25056600  0.53325700  1
  Ti  Ti6  1  0.37402400  0.94647000  0.70257700  1
  Ti  Ti7  1  0.37402400  0.44647000  0.79742300  1
  O  O0  1  0.91154700  0.00680700  0.24119700  1
  O  O1  1  0.91154700  0.50680700  0.25880300  1
  O  O2  1  0.82955300  0.75269900  0.50847000  1
  O  O3  1  0.82955300  0.25269900  0.99153000  1
  O  O4  1  0.66792500  0.77927400  0.10426200  1
  O  O5  1  0.66792500  0.27927400  0.39573800  1
  O  O6  1  0.56106400  0.57159600  0.89607400  1
  O  O7  1  0.56106400  0.07159600  0.60392600  1
  O  O8  1  0.54421200  0.88636400  0.84166000  1
  O  O9  1  0.54421200  0.38636400  0.65834000  1
  O  O10  1  0.45578800  0.88636400  0.34166000  1
  O  O11  1  0.45578800  0.38636400  0.15834000  1
  O  O12  1  0.43893600  0.07159600  0.10392600  1
  O  O13  1  0.43893600  0.57159600  0.39607400  1
  O  O14  1  0.33207500  0.27927400  0.89573800  1
  O  O15  1  0.33207500  0.77927400  0.60426200  1
  O  O16  1  0.17044700  0.25269900  0.49153000  1
  O  O17  1  0.17044700  0.75269900  0.00847000  1
  O  O18  1  0.08845300  0.50680700  0.75880300  1
  O  O19  1  0.08845300  0.00680700  0.74119700  1
loop_
_geom_bond_atom_site_label_1
_geom_bond_atom_site_label_2
_geom_bond_distance
_geom_bond_site_symmetry_2
Na0 O7 2.470322 1_555
Na0 O16 2.480212 1_655
Na0 O2 2.521943 1_545
Na0 O0 2.648763 1_555
Na0 O19 2.830891 1_655
Na0 O5 2.935925 1_555
Na1 O6 2.470322 1_554
Na1 O17 2.480212 1_655
Na1 O3 2.521943 1_554
Na1 O1 2.648763 1_555
Na1 O18 2.830891 1_654
Na1 O4 2.935925 1_555
Na2 O18 2.413592 1_655
Na2 O2 2.444752 1_555
Na2 O19 2.549178 1_665
Na2 O8 2.691217 1_555
Na2 O15 2.761120 1_655
Na3 O19 2.413592 1_655
Na3 O3 2.444752 1_555
Na3 O18 2.549178 1_655
Na3 O9 2.691217 1_555
Na3 O14 2.761120 1_655
Na4 O0 2.413592 1_455
Na4 O16 2.444752 1_555
Na4 O1 2.549178 1_455
Na4 O11 2.691217 1_555
Na4 O5 2.761120 1_455
Na5 O1 2.413592 1_455
Na5 O17 2.444752 1_555
Na5 O0 2.549178 1_465
Na5 O10 2.691217 1_555
Na5 O4 2.761120 1_455
Na6 O13 2.470322 1_555
Na6 O2 2.480212 1_455
Na6 O16 2.521943 1_555
Na6 O18 2.648763 1_555
Na6 O1 2.830891 1_455
Na6 O15 2.935925 1_555
Na7 O12 2.470322 1_556
Na7 O3 2.480212 1_455
Na7 O17 2.521943 1_546
Na7 O19 2.648763 1_555
Na7 O0 2.830891 1_456
Na7 O14 2.935925 1_555
O0 Ti0 1.755176 1_545
O1 Ti1 1.755176 1_555
O2 Ti2 1.755204 1_555
O3 Ti3 1.755204 1_556
O4 Ti0 1.856091 1_555
O4 Ti4 1.861345 1_554
O5 Ti1 1.856091 1_555
O5 Ti5 1.861345 1_555
O6 Ti4 1.858974 1_555
O6 Ti7 1.873250 1_555
O7 Ti5 1.858974 1_555
O7 Ti6 1.873250 1_545
O8 Ti6 1.849379 1_555
O8 Ti4 1.860738 1_555
O9 Ti7 1.849379 1_555
O9 Ti5 1.860738 1_555
O10 Ti0 1.849379 1_555
O10 Ti2 1.860738 1_555
O11 Ti1 1.849379 1_555
O11 Ti3 1.860738 1_555
O12 Ti3 1.858974 1_555
O12 Ti0 1.873250 1_545
O13 Ti2 1.858974 1_555
O13 Ti1 1.873250 1_555
O14 Ti7 1.856091 1_555
O14 Ti3 1.861345 1_556
O15 Ti6 1.856091 1_555
O15 Ti2 1.861345 1_555
O16 Ti5 1.755204 1_555
O17 Ti4 1.755204 1_554
O18 Ti7 1.755176 1_555
O19 Ti6 1.755176 1_545
