# generated using pymatgen
data_Li5Fe2Ni5O12
_symmetry_space_group_name_H-M   'P 1'
_cell_length_a   5.09888232
_cell_length_b   5.09888232
_cell_length_c   9.78657891
_cell_angle_alpha   84.85796119
_cell_angle_beta   84.85796119
_cell_angle_gamma   120.58821324
_symmetry_Int_Tables_number   1
_chemical_formula_structural   Li5Fe2Ni5O12
_chemical_formula_sum   'Li5 Fe2 Ni5 O12'
_cell_volume   215.41946434
_cell_formula_units_Z   1
loop_
 _symmetry_equiv_pos_site_id
 _symmetry_equiv_pos_as_xyz
  1  'x, y, z'
loop_
 _atom_site_type_symbol
 _atom_site_label
 _atom_site_symmetry_multiplicity
 _atom_site_fract_x
 _atom_site_fract_y
 _atom_site_fract_z
 _atom_site_occupancy
  Li  Li0  1  0.82363500  0.67554000  0.75075800  1
  Li  Li1  1  0.67411500  0.82866600  0.24590400  1
  Li  Li2  1  0.32446000  0.17636500  0.24924200  1
  Li  Li3  1  0.17133400  0.32588500  0.75409600  1
  Li  Li4  1  0.08242500  0.91757500  0.00000000  1
  Fe  Fe0  1  0.74913100  0.25086900  0.00000000  1
  Fe  Fe1  1  0.24493700  0.75506300  0.50000000  1
  Ni  Ni0  1  0.91433100  0.08566900  0.50000000  1
  Ni  Ni1  1  0.99900400  0.50564900  0.24595500  1
  Ni  Ni2  1  0.49435100  0.00099600  0.75404500  1
  Ni  Ni3  1  0.58337100  0.41662900  0.50000000  1
  Ni  Ni4  1  0.42049700  0.57950300  0.00000000  1
  O  O0  1  0.06037100  0.24170800  0.11471300  1
  O  O1  1  0.75829200  0.93962900  0.88528700  1
  O  O2  1  0.87820200  0.37255300  0.62196500  1
  O  O3  1  0.62744700  0.12179800  0.37803500  1
  O  O4  1  0.69195500  0.52674000  0.11707700  1
  O  O5  1  0.47326000  0.30804500  0.88292300  1
  O  O6  1  0.55768500  0.73895000  0.61255400  1
  O  O7  1  0.26105000  0.44231500  0.38744600  1
  O  O8  1  0.38973200  0.85275500  0.11508900  1
  O  O9  1  0.14724500  0.61026800  0.88491100  1
  O  O10  1  0.20916100  0.03599000  0.62310300  1
  O  O11  1  0.96401000  0.79083900  0.37689700  1
loop_
_geom_bond_atom_site_label_1
_geom_bond_atom_site_label_2
_geom_bond_distance
_geom_bond_site_symmetry_2
Li0 O5 2.029834 1_555
Li0 O10 2.067395 1_665
Li0 O1 2.086470 1_555
Li0 O6 2.114088 1_555
Li0 O2 2.185514 1_555
Li0 O9 2.329382 1_655
Li1 O8 2.059736 1_555
Li1 O4 2.106590 1_555
Li1 O11 2.109752 1_555
Li1 O3 2.148482 1_565
Li1 O0 2.191669 1_665
Li1 O7 2.236241 1_555
Li2 O4 2.029834 1_555
Li2 O11 2.067395 1_445
Li2 O0 2.086470 1_555
Li2 O7 2.114088 1_555
Li2 O3 2.185514 1_555
Li2 O8 2.329382 1_545
Li3 O9 2.059736 1_555
Li3 O5 2.106590 1_555
Li3 O10 2.109752 1_555
Li3 O2 2.148482 1_455
Li3 O1 2.191669 1_445
Li3 O6 2.236241 1_555
Li4 O4 2.095690 1_455
Li4 O5 2.095690 1_564
Li4 O0 2.122158 1_565
Li4 O1 2.122158 1_454
Li4 O8 2.147041 1_555
Li4 O9 2.147041 1_554
Fe0 O5 2.005693 1_554
Fe0 O4 2.005693 1_555
Fe0 O0 2.041179 1_655
Fe0 O1 2.041179 1_544
Fe0 O9 2.044932 1_654
Fe0 O8 2.044932 1_545
Fe1 O11 2.018018 1_455
Fe1 O10 2.018018 1_565
Fe1 O6 2.048177 1_555
Fe1 O7 2.048177 1_555
Fe1 O3 2.048472 1_565
Fe1 O2 2.048472 1_455
Ni0 O6 1.914594 1_545
Ni0 O7 1.914594 1_655
Ni0 O3 2.036227 1_555
Ni0 O2 2.036227 1_555
Ni0 O10 2.105473 1_655
Ni0 O11 2.105473 1_545
Ni1 O0 2.055525 1_655
Ni1 O8 2.071132 1_655
Ni1 O11 2.084627 1_555
Ni1 O3 2.103467 1_555
Ni1 O7 2.120757 1_655
Ni1 O4 2.134127 1_555
Ni2 O1 2.055525 1_545
Ni2 O9 2.071132 1_545
Ni2 O10 2.084627 1_555
Ni2 O2 2.103467 1_555
Ni2 O6 2.120757 1_545
Ni2 O5 2.134127 1_555
Ni3 O10 2.063709 1_555
Ni3 O11 2.063709 1_555
Ni3 O2 2.086282 1_555
Ni3 O3 2.086282 1_555
Ni3 O6 2.109316 1_555
Ni3 O7 2.109316 1_555
Ni4 O0 1.914109 1_555
Ni4 O1 1.914109 1_554
Ni4 O9 1.925230 1_554
Ni4 O8 1.925230 1_555
Ni4 O5 1.977124 1_554
Ni4 O4 1.977124 1_555
