# generated using pymatgen
data_Li4B2O5
_symmetry_space_group_name_H-M   'P 1'
_cell_length_a   6.01748225
_cell_length_b   6.01748225
_cell_length_c   6.05708670
_cell_angle_alpha   74.98856594
_cell_angle_beta   74.98856594
_cell_angle_gamma   73.23473999
_symmetry_Int_Tables_number   1
_chemical_formula_structural   Li4B2O5
_chemical_formula_sum   'Li8 B4 O10'
_cell_volume   198.76997134
_cell_formula_units_Z   2
loop_
 _symmetry_equiv_pos_site_id
 _symmetry_equiv_pos_as_xyz
  1  'x, y, z'
loop_
 _atom_site_type_symbol
 _atom_site_label
 _atom_site_symmetry_multiplicity
 _atom_site_fract_x
 _atom_site_fract_y
 _atom_site_fract_z
 _atom_site_occupancy
  Li  Li0  1  0.32822400  0.93461300  0.23521900  1
  Li  Li1  1  0.65800100  0.60972800  0.03269000  1
  Li  Li2  1  0.93461300  0.32822400  0.73521900  1
  Li  Li3  1  0.60972800  0.65800100  0.53269000  1
  Li  Li4  1  0.39027200  0.34199900  0.46731000  1
  Li  Li5  1  0.06538700  0.67177600  0.26478100  1
  Li  Li6  1  0.34199900  0.39027200  0.96731000  1
  Li  Li7  1  0.67177600  0.06538700  0.76478100  1
  B  B0  1  0.94476100  0.24731000  0.34116400  1
  B  B1  1  0.24731000  0.94476100  0.84116400  1
  B  B2  1  0.75269000  0.05523900  0.15883600  1
  B  B3  1  0.05523900  0.75269000  0.65883600  1
  O  O0  1  0.67520500  0.85222400  0.21514100  1
  O  O1  1  0.85222400  0.67520500  0.71514100  1
  O  O2  1  0.73678800  0.33543300  0.48098700  1
  O  O3  1  0.95463300  0.04536700  0.25000000  1
  O  O4  1  0.33543300  0.73678800  0.98098700  1
  O  O5  1  0.66456700  0.26321200  0.01901300  1
  O  O6  1  0.04536700  0.95463300  0.75000000  1
  O  O7  1  0.26321200  0.66456700  0.51901300  1
  O  O8  1  0.14777600  0.32479500  0.28485900  1
  O  O9  1  0.32479500  0.14777600  0.78485900  1
loop_
_geom_bond_atom_site_label_1
_geom_bond_atom_site_label_2
_geom_bond_distance
_geom_bond_site_symmetry_2
Li0 O0 1.980565 1_555
Li0 O7 2.078433 1_555
Li0 O3 2.137367 1_465
Li0 O4 2.162282 1_554
Li0 O8 2.346900 1_565
Li1 O4 1.945509 1_554
Li1 O1 1.982248 1_554
Li1 O0 2.084012 1_555
Li1 O5 2.096795 1_555
Li2 O1 1.980565 1_555
Li2 O5 2.078433 1_556
Li2 O6 2.137367 1_645
Li2 O2 2.162282 1_555
Li2 O9 2.346900 1_655
Li3 O2 1.945509 1_555
Li3 O0 1.982248 1_555
Li3 O1 2.084012 1_555
Li3 O7 2.096795 1_555
Li4 O7 1.945509 1_555
Li4 O9 1.982248 1_555
Li4 O8 2.084012 1_555
Li4 O2 2.096795 1_555
Li5 O8 1.980565 1_555
Li5 O4 2.078433 1_554
Li5 O3 2.137367 1_465
Li5 O7 2.162282 1_555
Li5 O0 2.346900 1_455
Li6 O5 1.945509 1_556
Li6 O8 1.982248 1_556
Li6 O9 2.084012 1_555
Li6 O4 2.096795 1_555
Li7 O9 1.980565 1_555
Li7 O2 2.078433 1_555
Li7 O6 2.137367 1_645
Li7 O5 2.162282 1_556
Li7 O1 2.346900 1_545
B0 O8 1.362543 1_655
B0 O2 1.365796 1_555
B0 O3 1.440169 1_555
B1 O9 1.362543 1_565
B1 O4 1.365796 1_555
B1 O6 1.440169 1_555
B2 O0 1.362543 1_545
B2 O5 1.365796 1_555
B2 O3 1.440169 1_555
B3 O1 1.362543 1_455
B3 O7 1.365796 1_555
B3 O6 1.440169 1_555
