# generated using pymatgen
data_LiCrPO5
_symmetry_space_group_name_H-M   'P 1'
_cell_length_a   12.58169000
_cell_length_b   6.21980900
_cell_length_c   10.45583700
_cell_angle_alpha   90.00000000
_cell_angle_beta   90.00000000
_cell_angle_gamma   90.00000000
_symmetry_Int_Tables_number   1
_chemical_formula_structural   LiCrPO5
_chemical_formula_sum   'Li8 Cr8 P8 O40'
_cell_volume   818.22893446
_cell_formula_units_Z   8
loop_
 _symmetry_equiv_pos_site_id
 _symmetry_equiv_pos_as_xyz
  1  'x, y, z'
loop_
 _atom_site_type_symbol
 _atom_site_label
 _atom_site_symmetry_multiplicity
 _atom_site_fract_x
 _atom_site_fract_y
 _atom_site_fract_z
 _atom_site_occupancy
  Li  Li0  1  0.09830200  0.85822700  0.07262100  1
  Li  Li1  1  0.16286800  0.28198300  0.83110400  1
  Li  Li2  1  0.33713100  0.78198300  0.33110400  1
  Li  Li3  1  0.40169800  0.35822700  0.57262100  1
  Li  Li4  1  0.59830200  0.64177300  0.07262100  1
  Li  Li5  1  0.66286800  0.21801700  0.83110400  1
  Li  Li6  1  0.83713200  0.71801700  0.33110400  1
  Li  Li7  1  0.90169800  0.14177300  0.57262100  1
  Cr  Cr0  1  0.12984400  0.99896300  0.50852000  1
  Cr  Cr1  1  0.24706700  0.24910800  0.25814300  1
  Cr  Cr2  1  0.25293300  0.74910800  0.75814300  1
  Cr  Cr3  1  0.37015600  0.49896300  0.00852000  1
  Cr  Cr4  1  0.62984400  0.50103700  0.50852000  1
  Cr  Cr5  1  0.74706700  0.25089300  0.25814300  1
  Cr  Cr6  1  0.75293300  0.75089200  0.75814300  1
  Cr  Cr7  1  0.87015600  0.00103700  0.00852000  1
  P  P0  1  0.00365900  0.82923100  0.76735500  1
  P  P1  1  0.18770300  0.50203700  0.50725200  1
  P  P2  1  0.31229700  0.00203700  0.00725200  1
  P  P3  1  0.49634100  0.32923100  0.26735500  1
  P  P4  1  0.50365900  0.67076900  0.76735500  1
  P  P5  1  0.68770300  0.99796300  0.50725200  1
  P  P6  1  0.81229700  0.49796300  0.00725200  1
  P  P7  1  0.99634100  0.17076900  0.26735500  1
  O  O0  1  0.00133700  0.03190600  0.39224900  1
  O  O1  1  0.01598800  0.99089500  0.65381400  1
  O  O2  1  0.09475500  0.31214100  0.24804100  1
  O  O3  1  0.10009300  0.67495800  0.77616800  1
  O  O4  1  0.11270100  0.69238200  0.48705300  1
  O  O5  1  0.11656200  0.30731800  0.53243600  1
  O  O6  1  0.22585500  0.96009300  0.63491300  1
  O  O7  1  0.22645000  0.02002800  0.37809500  1
  O  O8  1  0.23266200  0.02490900  0.12160900  1
  O  O9  1  0.23554300  0.97748700  0.89078800  1
  O  O10  1  0.26445700  0.47748700  0.39078800  1
  O  O11  1  0.26733800  0.52490900  0.62160900  1
  O  O12  1  0.27355000  0.52002800  0.87809500  1
  O  O13  1  0.27414500  0.46009300  0.13491300  1
  O  O14  1  0.38343800  0.80731800  0.03243600  1
  O  O15  1  0.38729900  0.19238200  0.98705300  1
  O  O16  1  0.39990700  0.17495800  0.27616800  1
  O  O17  1  0.40524500  0.81214100  0.74804100  1
  O  O18  1  0.48401200  0.49089500  0.15381400  1
  O  O19  1  0.49866300  0.53190600  0.89224900  1
  O  O20  1  0.50133700  0.46809400  0.39224900  1
  O  O21  1  0.51598800  0.50910500  0.65381400  1
  O  O22  1  0.59475500  0.18785900  0.24804100  1
  O  O23  1  0.60009300  0.82504200  0.77616800  1
  O  O24  1  0.61270100  0.80761800  0.48705300  1
  O  O25  1  0.61656200  0.19268200  0.53243600  1
  O  O26  1  0.72585500  0.53990700  0.63491300  1
  O  O27  1  0.72645000  0.47997200  0.37809500  1
  O  O28  1  0.73266200  0.47509100  0.12160900  1
  O  O29  1  0.73554300  0.52251300  0.89078800  1
  O  O30  1  0.76445700  0.02251300  0.39078800  1
  O  O31  1  0.76733800  0.97509100  0.62160900  1
  O  O32  1  0.77355000  0.97997200  0.87809500  1
  O  O33  1  0.77414500  0.03990700  0.13491300  1
  O  O34  1  0.88343800  0.69268200  0.03243600  1
  O  O35  1  0.88729900  0.30761800  0.98705300  1
  O  O36  1  0.89990700  0.32504200  0.27616800  1
  O  O37  1  0.90524500  0.68785900  0.74804100  1
  O  O38  1  0.98401200  0.00910500  0.15381400  1
  O  O39  1  0.99866300  0.96809400  0.89224900  1
loop_
_geom_bond_atom_site_label_1
_geom_bond_atom_site_label_2
_geom_bond_distance
_geom_bond_site_symmetry_2
Li0 O38 1.915487 1_465
Li0 O8 2.048140 1_565
Li0 O39 2.365443 1_454
Li1 O12 2.091126 1_555
Li1 O9 2.193718 1_545
Li2 O7 2.091117 1_565
Li2 O10 2.193713 1_555
Li3 O21 1.915487 1_555
Li3 O11 2.048140 1_555
Li3 O20 2.365443 1_555
Li4 O18 1.915487 1_555
Li4 O28 2.048140 1_555
Li4 O19 2.365443 1_554
Li5 O32 2.091126 1_545
Li5 O29 2.193718 1_555
Li6 O27 2.091126 1_555
Li6 O30 2.193718 1_565
Li7 O1 1.915487 1_645
Li7 O31 2.048140 1_545
Li7 O0 2.365443 1_655
Cr0 O6 1.806695 1_555
Cr0 O7 1.831450 1_565
Cr0 O4 1.932117 1_555
Cr0 O5 1.941348 1_565
Cr0 O0 2.033247 1_565
Cr0 O1 2.088649 1_555
Cr1 O13 1.870381 1_555
Cr1 O7 1.915842 1_555
Cr1 O2 1.958885 1_555
Cr1 O16 1.986479 1_555
Cr1 O10 1.997285 1_555
Cr1 O8 2.003843 1_555
Cr2 O6 1.870381 1_555
Cr2 O12 1.915842 1_555
Cr2 O17 1.958885 1_555
Cr2 O3 1.986479 1_555
Cr2 O9 1.997285 1_555
Cr2 O11 2.003843 1_555
Cr3 O13 1.806695 1_555
Cr3 O12 1.831450 1_554
Cr3 O15 1.932117 1_554
Cr3 O14 1.941348 1_555
Cr3 O19 2.033247 1_554
Cr3 O18 2.088649 1_555
Cr4 O26 1.806695 1_555
Cr4 O27 1.831450 1_555
Cr4 O24 1.932117 1_555
Cr4 O25 1.941348 1_555
Cr4 O20 2.033247 1_555
Cr4 O21 2.088649 1_555
Cr5 O33 1.870385 1_555
Cr5 O27 1.915838 1_555
Cr5 O22 1.958886 1_555
Cr5 O36 1.986477 1_555
Cr5 O30 1.997290 1_555
Cr5 O28 2.003838 1_555
Cr6 O26 1.870381 1_555
Cr6 O32 1.915842 1_555
Cr6 O37 1.958885 1_555
Cr6 O23 1.986479 1_555
Cr6 O29 1.997285 1_555
Cr6 O31 2.003843 1_555
Cr7 O33 1.806695 1_555
Cr7 O32 1.831450 1_544
Cr7 O35 1.932117 1_554
Cr7 O34 1.941348 1_545
Cr7 O39 2.033247 1_544
Cr7 O38 2.088649 1_555
O0 P7 1.566918 1_455
O1 P0 1.563488 1_555
O2 P7 1.532037 1_455
O3 P0 1.549622 1_555
O4 P1 1.528635 1_555
O5 P1 1.528821 1_555
O8 P2 1.566468 1_555
O9 P2 1.561648 1_566
O10 P1 1.561648 1_555
O11 P1 1.566468 1_555
O14 P2 1.528821 1_565
O15 P2 1.528635 1_556
O16 P3 1.549622 1_555
O17 P4 1.532037 1_555
O18 P3 1.563488 1_555
O19 P4 1.566918 1_555
O20 P3 1.566918 1_555
O21 P4 1.563488 1_555
O22 P3 1.532037 1_555
O23 P4 1.549622 1_555
O24 P5 1.528635 1_555
O25 P5 1.528821 1_545
O28 P6 1.566468 1_555
O29 P6 1.561648 1_556
O30 P5 1.561648 1_545
O31 P5 1.566468 1_555
O34 P6 1.528821 1_555
O35 P6 1.528635 1_556
O36 P7 1.549622 1_555
O37 P0 1.532037 1_655
O38 P7 1.563488 1_555
O39 P0 1.566918 1_655
