# generated using pymatgen
data_Ti3Cr(PO4)6
_symmetry_space_group_name_H-M   'P 1'
_cell_length_a   8.79486444
_cell_length_b   8.79486444
_cell_length_c   8.79486427
_cell_angle_alpha   58.45588310
_cell_angle_beta   58.45588310
_cell_angle_gamma   58.45588270
_symmetry_Int_Tables_number   1
_chemical_formula_structural   Ti3Cr(PO4)6
_chemical_formula_sum   'Ti3 Cr1 P6 O24'
_cell_volume   464.03467525
_cell_formula_units_Z   1
loop_
 _symmetry_equiv_pos_site_id
 _symmetry_equiv_pos_as_xyz
  1  'x, y, z'
loop_
 _atom_site_type_symbol
 _atom_site_label
 _atom_site_symmetry_multiplicity
 _atom_site_fract_x
 _atom_site_fract_y
 _atom_site_fract_z
 _atom_site_occupancy
  Ti  Ti0  1  0.86052200  0.86052200  0.86052200  1
  Ti  Ti1  1  0.63950300  0.63950300  0.63950300  1
  Ti  Ti2  1  0.35972700  0.35972700  0.35972700  1
  Cr  Cr0  1  0.14117500  0.14117500  0.14117500  1
  P  P0  1  0.53060600  0.96816400  0.25089900  1
  P  P1  1  0.25089900  0.53060600  0.96816400  1
  P  P2  1  0.96816400  0.25089900  0.53060600  1
  P  P3  1  0.03271100  0.75353900  0.46499700  1
  P  P4  1  0.75353900  0.46499700  0.03271100  1
  P  P5  1  0.46499700  0.03271100  0.75353900  1
  O  O0  1  0.48852600  0.86014500  0.73023000  1
  O  O1  1  0.86014500  0.73023000  0.48852600  1
  O  O2  1  0.70958400  0.93937300  0.07710500  1
  O  O3  1  0.73023000  0.48852600  0.86014500  1
  O  O4  1  0.55292000  0.78787700  0.42592400  1
  O  O5  1  0.35486300  0.00083400  0.21799000  1
  O  O6  1  0.07710500  0.70958400  0.93937300  1
  O  O7  1  0.42592400  0.55292000  0.78787700  1
  O  O8  1  0.78787700  0.42592400  0.55292000  1
  O  O9  1  0.00358100  0.78542400  0.63408800  1
  O  O10  1  0.06510000  0.93347100  0.28042500  1
  O  O11  1  0.78542400  0.63408800  0.00358100  1
  O  O12  1  0.21799000  0.35486300  0.00083400  1
  O  O13  1  0.93937300  0.07710500  0.70958400  1
  O  O14  1  0.00083400  0.21799000  0.35486300  1
  O  O15  1  0.21521000  0.58474600  0.42996600  1
  O  O16  1  0.58474600  0.42996600  0.21521000  1
  O  O17  1  0.93347100  0.28042500  0.06510000  1
  O  O18  1  0.63408800  0.00358100  0.78542400  1
  O  O19  1  0.42996600  0.21521000  0.58474600  1
  O  O20  1  0.28070900  0.50102800  0.13904000  1
  O  O21  1  0.28042500  0.06510000  0.93347100  1
  O  O22  1  0.13904000  0.28070900  0.50102800  1
  O  O23  1  0.50102800  0.13904000  0.28070900  1
loop_
_geom_bond_atom_site_label_1
_geom_bond_atom_site_label_2
_geom_bond_distance
_geom_bond_site_symmetry_2
Cr0 O21 1.834431 1_554
Cr0 O17 1.834431 1_455
Cr0 O10 1.834431 1_545
Cr0 O14 1.881686 1_555
Cr0 O5 1.881686 1_555
Cr0 O12 1.881686 1_555
O0 P5 1.529962 1_565
O0 Ti1 1.995233 1_555
O1 P3 1.529962 1_655
O1 Ti1 1.995233 1_555
O2 P0 1.532540 1_555
O2 Ti0 1.909100 1_554
O3 P4 1.529962 1_556
O3 Ti1 1.995233 1_555
O4 P0 1.535861 1_555
O4 Ti1 1.924397 1_555
O5 P0 1.572165 1_545
O6 P1 1.532540 1_555
O6 Ti0 1.909100 1_455
O7 P1 1.535861 1_555
O7 Ti1 1.924397 1_555
O8 P2 1.535861 1_555
O8 Ti1 1.924397 1_555
O9 P3 1.522619 1_555
O9 Ti0 1.967292 1_455
O10 P3 1.587608 1_555
O11 P4 1.522619 1_555
O11 Ti0 1.967292 1_554
O12 P1 1.572165 1_554
O13 P2 1.532540 1_555
O13 Ti0 1.909100 1_545
O14 P2 1.572165 1_455
O15 P3 1.530677 1_555
O15 Ti2 1.933739 1_555
O16 P4 1.530677 1_555
O16 Ti2 1.933739 1_555
O17 P4 1.587608 1_555
O18 P5 1.522619 1_555
O18 Ti0 1.967292 1_545
O19 P5 1.530677 1_555
O19 Ti2 1.933739 1_555
O20 P1 1.525371 1_554
O20 Ti2 1.943816 1_555
O21 P5 1.587608 1_555
O22 P2 1.525371 1_455
O22 Ti2 1.943816 1_555
O23 P0 1.525371 1_545
O23 Ti2 1.943816 1_555
