# generated using pymatgen
data_LiV3OF11
_symmetry_space_group_name_H-M   'P 1'
_cell_length_a   5.29036100
_cell_length_b   5.46802874
_cell_length_c   15.50222963
_cell_angle_alpha   99.64151707
_cell_angle_beta   90.10714254
_cell_angle_gamma   90.12845389
_symmetry_Int_Tables_number   1
_chemical_formula_structural   LiV3OF11
_chemical_formula_sum   'Li2 V6 O2 F22'
_cell_volume   442.10952351
_cell_formula_units_Z   2
loop_
 _symmetry_equiv_pos_site_id
 _symmetry_equiv_pos_as_xyz
  1  'x, y, z'
loop_
 _atom_site_type_symbol
 _atom_site_label
 _atom_site_symmetry_multiplicity
 _atom_site_fract_x
 _atom_site_fract_y
 _atom_site_fract_z
 _atom_site_occupancy
  Li  Li0  1  0.70865600  0.31440000  0.17906600  1
  Li  Li1  1  0.17669000  0.63569300  0.82429600  1
  V  V0  1  0.50510900  0.16857400  0.33828500  1
  V  V1  1  0.00299300  0.00176600  0.00286500  1
  V  V2  1  0.99681100  0.32727600  0.65981200  1
  V  V3  1  0.49723600  0.49740000  0.99138500  1
  V  V4  1  0.98232000  0.64306000  0.33409000  1
  V  V5  1  0.50146200  0.83437300  0.66352100  1
  O  O0  1  0.41074800  0.46860900  0.88797400  1
  O  O1  1  0.78112100  0.37364800  0.31153700  1
  F  F0  1  0.79982900  0.01799300  0.64242800  1
  F  F1  1  0.70924100  0.18487500  0.97743700  1
  F  F2  1  0.29926300  0.13707800  0.68732600  1
  F  F3  1  0.91146700  0.04480400  0.11637400  1
  F  F4  1  0.58470800  0.20774800  0.45025800  1
  F  F5  1  0.93143500  0.38704800  0.77898300  1
  F  F6  1  0.43051000  0.13343100  0.22060600  1
  F  F7  1  0.08982300  0.29773800  0.54907700  1
  F  F8  1  0.69659500  0.52535900  0.64253200  1
  F  F9  1  0.81193400  0.69837400  0.97701300  1
  F  F10  1  0.19705700  0.30099800  0.02495300  1
  F  F11  1  0.28595100  0.46169300  0.35765900  1
  F  F12  1  0.20364700  0.64265500  0.69353300  1
  F  F13  1  0.59168800  0.53473200  0.11218800  1
  F  F14  1  0.57410900  0.86720800  0.77804600  1
  F  F15  1  0.92549600  0.72291400  0.44787000  1
  F  F16  1  0.40889400  0.78942100  0.55328800  1
  F  F17  1  0.07998200  0.62760900  0.22215700  1
  F  F18  1  0.08903400  0.95516700  0.88734200  1
  F  F19  1  0.70446100  0.86426700  0.31139900  1
  F  F20  1  0.29531400  0.81564900  0.02591000  1
  F  F21  1  0.21538000  0.96497200  0.35388000  1
loop_
_geom_bond_atom_site_label_1
_geom_bond_atom_site_label_2
_geom_bond_distance
_geom_bond_site_symmetry_2
Li0 O1 2.059812 1_555
Li1 O0 1.909198 1_555
O0 V3 1.648171 1_555
O1 V4 1.801235 1_555
O1 V0 1.926715 1_555
F0 V5 1.926494 1_545
F0 V2 1.963936 1_555
F1 V1 1.926098 1_656
F1 V3 2.027500 1_555
F2 V5 1.955748 1_545
F2 V2 1.994316 1_455
F3 V1 1.803099 1_655
F3 Li0 1.949350 1_555
F4 V0 1.763133 1_555
F5 V2 1.854732 1_555
F5 Li1 1.922028 1_655
F6 V0 1.843975 1_555
F6 Li0 1.941556 1_555
F7 V2 1.767968 1_455
F8 V5 1.962538 1_555
F8 V2 1.967427 1_555
F9 V1 1.924232 1_666
F9 V3 2.025899 1_555
F10 V1 1.911010 1_555
F10 V3 2.031916 1_554
F11 V4 1.955399 1_455
F11 V0 1.962593 1_555
F12 V5 1.989095 1_555
F12 V2 2.032723 1_455
F12 Li1 2.039093 1_555
F13 Li0 1.824451 1_555
F13 V3 1.914788 1_554
F14 V5 1.795085 1_555
F15 V4 1.771091 1_555
F16 V5 1.753872 1_555
F17 V4 1.799856 1_455
F18 V1 1.824838 1_566
F18 Li1 1.911892 1_555
F19 V0 1.957538 1_565
F19 V4 1.973872 1_555
F20 V1 1.918779 1_565
F20 V3 2.038225 1_554
F21 V0 1.931622 1_565
F21 V4 2.126192 1_455
