# generated using pymatgen
data_Li2MnV(P2O7)2
_symmetry_space_group_name_H-M   'P 1'
_cell_length_a   8.29630700
_cell_length_b   4.86305700
_cell_length_c   13.36461734
_cell_angle_alpha   88.52683313
_cell_angle_beta   90.00000000
_cell_angle_gamma   90.00000000
_symmetry_Int_Tables_number   1
_chemical_formula_structural   Li2MnV(P2O7)2
_chemical_formula_sum   'Li4 Mn2 V2 P8 O28'
_cell_volume   539.02279786
_cell_formula_units_Z   2
loop_
 _symmetry_equiv_pos_site_id
 _symmetry_equiv_pos_as_xyz
  1  'x, y, z'
loop_
 _atom_site_type_symbol
 _atom_site_label
 _atom_site_symmetry_multiplicity
 _atom_site_fract_x
 _atom_site_fract_y
 _atom_site_fract_z
 _atom_site_occupancy
  Li  Li0  1  0.35947100  0.41438600  0.41294000  1
  Li  Li1  1  0.85947100  0.58561400  0.58706000  1
  Li  Li2  1  0.36235000  0.91088900  0.91227300  1
  Li  Li3  1  0.86235000  0.08911100  0.08772700  1
  Mn  Mn0  1  0.99767600  0.40167300  0.38442700  1
  Mn  Mn1  1  0.49767600  0.59832700  0.61557300  1
  V  V0  1  0.00108400  0.89886100  0.88666900  1
  V  V1  1  0.50108400  0.10113900  0.11333100  1
  P  P0  1  0.18136400  0.38987900  0.01167400  1
  P  P1  1  0.78719700  0.41793100  0.79366700  1
  P  P2  1  0.28719700  0.58206900  0.20633300  1
  P  P3  1  0.68136400  0.61012100  0.98832600  1
  P  P4  1  0.17646100  0.89171500  0.50829800  1
  P  P5  1  0.78412100  0.91923100  0.29435200  1
  P  P6  1  0.28412100  0.08076900  0.70564800  1
  P  P7  1  0.67646100  0.10828500  0.49170200  1
  O  O0  1  0.83935900  0.24742300  0.50245100  1
  O  O1  1  0.53265800  0.30096800  0.50919600  1
  O  O2  1  0.67918800  0.34447500  0.05224700  1
  O  O3  1  0.43684400  0.39505500  0.20638100  1
  O  O4  1  0.32506300  0.38085700  0.67766300  1
  O  O5  1  0.15440100  0.46897100  0.12681300  1
  O  O6  1  0.70264400  0.43341000  0.69285100  1
  O  O7  1  0.65440100  0.53102900  0.87318700  1
  O  O8  1  0.20264400  0.56659000  0.30714900  1
  O  O9  1  0.93684400  0.60494500  0.79361900  1
  O  O10  1  0.82506300  0.61914300  0.32233700  1
  O  O11  1  0.17918800  0.65552500  0.94775300  1
  O  O12  1  0.03265800  0.69903200  0.49080400  1
  O  O13  1  0.84507600  0.75485000  0.99705700  1
  O  O14  1  0.33935900  0.75257700  0.49754900  1
  O  O15  1  0.53988700  0.80429400  0.00830700  1
  O  O16  1  0.67082200  0.83796500  0.55495900  1
  O  O17  1  0.32632100  0.87449800  0.17266800  1
  O  O18  1  0.43362000  0.89416600  0.70788800  1
  O  O19  1  0.69587400  0.93754100  0.19415000  1
  O  O20  1  0.15409700  0.97259000  0.62473700  1
  O  O21  1  0.19587400  0.06245900  0.80585000  1
  O  O22  1  0.65409700  0.02741000  0.37526300  1
  O  O23  1  0.82632100  0.12550200  0.82733200  1
  O  O24  1  0.93362000  0.10583400  0.29211200  1
  O  O25  1  0.17082200  0.16203500  0.44504100  1
  O  O26  1  0.03988700  0.19570600  0.99169300  1
  O  O27  1  0.34507600  0.24515000  0.00294300  1
loop_
_geom_bond_atom_site_label_1
_geom_bond_atom_site_label_2
_geom_bond_distance
_geom_bond_site_symmetry_2
Li0 O1 1.996760 1_555
Li0 O14 2.026560 1_555
Li0 O25 2.027931 1_555
Li0 O8 2.045939 1_555
Li1 O12 1.996760 1_655
Li1 O0 2.026560 1_555
Li1 O16 2.027931 1_555
Li1 O6 2.045939 1_555
Li2 O11 2.011428 1_555
Li2 O15 2.012761 1_556
Li2 O27 2.057317 1_566
Li2 O21 2.102352 1_565
Li3 O2 2.011428 1_555
Li3 O26 2.012761 1_654
Li3 O13 2.057317 1_544
Li3 O19 2.102352 1_545
Mn0 O10 1.952609 1_555
Mn0 O24 1.991391 1_555
Mn0 O25 2.007297 1_655
Mn0 O12 2.074189 1_655
Mn0 O8 2.135157 1_655
Mn0 O0 2.171408 1_555
Mn1 O4 1.952609 1_555
Mn1 O18 1.991391 1_555
Mn1 O16 2.007297 1_555
Mn1 O1 2.074189 1_555
Mn1 O6 2.135157 1_555
Mn1 O14 2.171408 1_555
O0 P7 1.519833 1_555
O1 P7 1.538596 1_555
O2 P3 1.530443 1_554
O2 V1 2.049495 1_555
O3 P2 1.538978 1_555
O3 V1 1.991207 1_555
O4 P6 1.535213 1_555
O5 P0 1.611298 1_555
O5 P2 1.635782 1_555
O6 P1 1.519184 1_555
O7 P3 1.611298 1_555
O7 P1 1.635782 1_555
O8 P2 1.519184 1_555
O9 P1 1.538978 1_555
O9 V0 1.991207 1_655
O10 P5 1.535213 1_555
O11 P0 1.530443 1_556
O11 V0 2.049495 1_555
O12 P4 1.538596 1_555
O13 P3 1.535555 1_555
O13 V0 2.070995 1_655
O14 P4 1.519833 1_555
O15 P3 1.534140 1_554
O15 V1 2.064420 1_565
O16 P7 1.545277 1_565
O17 P2 1.515668 1_555
O17 V1 1.975065 1_565
O18 P6 1.536653 1_565
O19 P5 1.526813 1_555
O19 V1 2.089737 1_565
O20 P6 1.624485 1_565
O20 P4 1.625491 1_555
O21 P6 1.526813 1_555
O21 V0 2.089737 1_545
O22 P5 1.624485 1_545
O22 P7 1.625491 1_555
O23 P1 1.515668 1_555
O23 V0 1.975065 1_645
O24 P5 1.536653 1_545
O25 P4 1.545277 1_545
O26 P0 1.534140 1_556
O26 V0 2.064420 1_545
O27 P0 1.535555 1_555
O27 V1 2.070995 1_555
