# generated using pymatgen
data_Li2MnSiO4
_symmetry_space_group_name_H-M   'P 1'
_cell_length_a   5.13992000
_cell_length_b   6.36519700
_cell_length_c   11.02011800
_cell_angle_alpha   90.00000000
_cell_angle_beta   90.00000000
_cell_angle_gamma   90.00000000
_symmetry_Int_Tables_number   1
_chemical_formula_structural   Li2MnSiO4
_chemical_formula_sum   'Li8 Mn4 Si4 O16'
_cell_volume   360.54082963
_cell_formula_units_Z   4
loop_
 _symmetry_equiv_pos_site_id
 _symmetry_equiv_pos_as_xyz
  1  'x, y, z'
loop_
 _atom_site_type_symbol
 _atom_site_label
 _atom_site_symmetry_multiplicity
 _atom_site_fract_x
 _atom_site_fract_y
 _atom_site_fract_z
 _atom_site_occupancy
  Li  Li0  1  0.29704400  0.86952700  0.07298200  1
  Li  Li1  1  0.68917500  0.11936000  0.15863200  1
  Li  Li2  1  0.18917500  0.61936000  0.34136800  1
  Li  Li3  1  0.79704400  0.36952700  0.42701800  1
  Li  Li4  1  0.20295600  0.86952700  0.57298200  1
  Li  Li5  1  0.81082500  0.11936000  0.65863200  1
  Li  Li6  1  0.31082500  0.61936000  0.84136800  1
  Li  Li7  1  0.70295600  0.36952700  0.92701800  1
  Mn  Mn0  1  0.69461700  0.61561400  0.16742600  1
  Mn  Mn1  1  0.19461700  0.11561400  0.33257400  1
  Mn  Mn2  1  0.80538300  0.61561400  0.66742600  1
  Mn  Mn3  1  0.30538300  0.11561400  0.83257400  1
  Si  Si0  1  0.18977600  0.36819700  0.08601200  1
  Si  Si1  1  0.68977600  0.86819700  0.41398800  1
  Si  Si2  1  0.31022400  0.36819700  0.58601200  1
  Si  Si3  1  0.81022400  0.86819700  0.91398800  1
  O  O0  1  0.69592800  0.87353600  0.05354100  1
  O  O1  1  0.86771200  0.36097300  0.08530200  1
  O  O2  1  0.28338700  0.58097700  0.16207300  1
  O  O3  1  0.29987300  0.15386100  0.15433200  1
  O  O4  1  0.79987300  0.65386100  0.34566800  1
  O  O5  1  0.78338700  0.08097700  0.33792700  1
  O  O6  1  0.36771200  0.86097300  0.41469800  1
  O  O7  1  0.19592800  0.37353600  0.44645900  1
  O  O8  1  0.80407200  0.87353600  0.55354100  1
  O  O9  1  0.63228800  0.36097300  0.58530200  1
  O  O10  1  0.21661300  0.58097700  0.66207300  1
  O  O11  1  0.20012700  0.15386100  0.65433200  1
  O  O12  1  0.70012700  0.65386100  0.84566800  1
  O  O13  1  0.71661300  0.08097700  0.83792700  1
  O  O14  1  0.13228800  0.86097300  0.91469800  1
  O  O15  1  0.30407200  0.37353600  0.94645900  1
loop_
_geom_bond_atom_site_label_1
_geom_bond_atom_site_label_2
_geom_bond_distance
_geom_bond_site_symmetry_2
Li0 O14 1.939768 1_554
Li0 O3 2.019759 1_565
Li0 O0 2.061553 1_555
Li0 O2 2.083802 1_555
Li1 O0 1.946992 1_545
Li1 O1 1.964771 1_555
Li1 O3 2.013553 1_555
Li1 O5 2.048944 1_555
Li2 O7 1.946992 1_555
Li2 O6 1.964771 1_555
Li2 O4 2.013553 1_455
Li2 O2 2.048944 1_555
Li3 O9 1.939768 1_555
Li3 O4 2.019759 1_555
Li3 O7 2.061553 1_655
Li3 O5 2.083802 1_555
Li4 O6 1.939768 1_555
Li4 O11 2.019759 1_565
Li4 O8 2.061553 1_455
Li4 O10 2.083802 1_555
Li5 O8 1.946992 1_545
Li5 O9 1.964771 1_555
Li5 O11 2.013553 1_655
Li5 O13 2.048944 1_555
Li6 O15 1.946992 1_555
Li6 O14 1.964771 1_555
Li6 O12 2.013553 1_555
Li6 O10 2.048944 1_555
Li7 O1 1.939768 1_556
Li7 O12 2.019759 1_555
Li7 O15 2.061553 1_555
Li7 O13 2.083802 1_555
Mn0 O4 2.051884 1_555
Mn0 O1 2.058576 1_555
Mn0 O0 2.066493 1_555
Mn0 O2 2.125975 1_555
Mn1 O3 2.051884 1_555
Mn1 O6 2.058576 1_545
Mn1 O7 2.066493 1_555
Mn1 O5 2.125975 1_455
Mn2 O12 2.051884 1_555
Mn2 O9 2.058576 1_555
Mn2 O8 2.066493 1_555
Mn2 O10 2.125975 1_655
Mn3 O11 2.051884 1_555
Mn3 O14 2.058576 1_545
Mn3 O15 2.066493 1_555
Mn3 O13 2.125975 1_555
O0 Si3 1.646629 1_554
O1 Si0 1.656040 1_655
O2 Si0 1.663867 1_555
O3 Si0 1.657821 1_555
O4 Si1 1.657821 1_555
O5 Si1 1.663867 1_545
O6 Si1 1.656040 1_555
O7 Si2 1.646629 1_555
O8 Si1 1.646629 1_555
O9 Si2 1.656040 1_555
O10 Si2 1.663867 1_555
O11 Si2 1.657821 1_555
O12 Si3 1.657821 1_555
O13 Si3 1.663867 1_545
O14 Si3 1.656040 1_455
O15 Si0 1.646629 1_556
