# generated using pymatgen
data_Sr2Bi2O5
_symmetry_space_group_name_H-M   'P 1'
_cell_length_a   7.40604796
_cell_length_b   7.67687435
_cell_length_c   6.20752690
_cell_angle_alpha   90.00000000
_cell_angle_beta   90.00000000
_cell_angle_gamma   75.40856524
_symmetry_Int_Tables_number   1
_chemical_formula_structural   Sr2Bi2O5
_chemical_formula_sum   'Sr4 Bi4 O10'
_cell_volume   341.54766880
_cell_formula_units_Z   2
loop_
 _symmetry_equiv_pos_site_id
 _symmetry_equiv_pos_as_xyz
  1  'x, y, z'
loop_
 _atom_site_type_symbol
 _atom_site_label
 _atom_site_symmetry_multiplicity
 _atom_site_fract_x
 _atom_site_fract_y
 _atom_site_fract_z
 _atom_site_occupancy
  Sr  Sr0  1  0.39510439  0.89927864  0.25000000  1
  Sr  Sr1  1  0.60489561  0.60072136  0.75000000  1
  Sr  Sr2  1  0.36867249  0.40758314  0.25000000  1
  Sr  Sr3  1  0.63132751  0.09241686  0.75000000  1
  Bi  Bi0  1  0.88704452  0.78625850  0.25000000  1
  Bi  Bi1  1  0.11295548  0.71374150  0.75000000  1
  Bi  Bi2  1  0.87080052  0.27404192  0.25000000  1
  Bi  Bi3  1  0.12919948  0.22595808  0.75000000  1
  O  O0  1  0.01032093  -0.00045207  0.75000000  1
  O  O1  1  0.68822542  0.82172478  0.49047220  1
  O  O2  1  0.68822542  0.82172478  0.00952780  1
  O  O3  1  0.98967907  0.50045207  0.25000000  1
  O  O4  1  0.31177458  0.67827522  0.99047220  1
  O  O5  1  0.31177458  0.67827522  0.50952780  1
  O  O6  1  0.67376448  0.34054079  0.00943870  1
  O  O7  1  0.67376448  0.34054079  0.49056130  1
  O  O8  1  0.32623552  0.15945921  0.99056130  1
  O  O9  1  0.32623552  0.15945921  0.50943870  1
loop_
_geom_bond_atom_site_label_1
_geom_bond_atom_site_label_2
_geom_bond_distance
_geom_bond_site_symmetry_2
Bi0 O1 2.066047 1_555
Bi0 O2 2.066047 1_555
Bi0 O3 2.133435 1_555
Bi1 O4 2.066047 1_555
Bi1 O5 2.066047 1_555
Bi1 O0 2.133435 1_565
Bi2 O7 2.060248 1_555
Bi2 O6 2.060248 1_555
Bi2 O3 2.137110 1_555
Bi3 O8 2.060248 1_555
Bi3 O9 2.060248 1_555
Bi3 O0 2.137110 1_555
O0 Sr3 2.716320 1_455
O1 Sr1 2.526328 1_555
O1 Sr0 2.577633 1_555
O1 Sr3 2.578786 1_565
O2 Sr1 2.526328 1_554
O2 Sr0 2.577633 1_555
O2 Sr3 2.578786 1_564
O3 Sr2 2.716320 1_655
O4 Sr0 2.526328 1_556
O4 Sr1 2.577633 1_555
O4 Sr2 2.578786 1_556
O5 Sr0 2.526328 1_555
O5 Sr1 2.577633 1_555
O5 Sr2 2.578786 1_555
O6 Sr1 2.515944 1_554
O6 Sr3 2.573395 1_554
O6 Sr2 2.648458 1_555
O7 Sr1 2.515944 1_555
O7 Sr3 2.573395 1_555
O7 Sr2 2.648458 1_555
O8 Sr0 2.515944 1_546
O8 Sr2 2.573395 1_556
O8 Sr3 2.648458 1_555
O9 Sr0 2.515944 1_545
O9 Sr2 2.573395 1_555
O9 Sr3 2.648458 1_555
