# generated using pymatgen
data_Li3V4O7F5
_symmetry_space_group_name_H-M   'P 1'
_cell_length_a   5.06156016
_cell_length_b   5.38341428
_cell_length_c   8.93655243
_cell_angle_alpha   106.74377441
_cell_angle_beta   89.06743876
_cell_angle_gamma   117.40143075
_symmetry_Int_Tables_number   1
_chemical_formula_structural   Li3V4O7F5
_chemical_formula_sum   'Li3 V4 O7 F5'
_cell_volume   205.07454269
_cell_formula_units_Z   1
loop_
 _symmetry_equiv_pos_site_id
 _symmetry_equiv_pos_as_xyz
  1  'x, y, z'
loop_
 _atom_site_type_symbol
 _atom_site_label
 _atom_site_symmetry_multiplicity
 _atom_site_fract_x
 _atom_site_fract_y
 _atom_site_fract_z
 _atom_site_occupancy
  Li  Li0  1  0.79625600  0.61170900  0.60073900  1
  Li  Li1  1  0.55597500  0.13526800  0.85475400  1
  Li  Li2  1  0.43730800  0.86753100  0.13808700  1
  V  V0  1  0.80136100  0.50978200  0.26080300  1
  V  V1  1  0.52805500  0.98410900  0.48123800  1
  V  V2  1  0.19875800  0.47196100  0.76104800  1
  V  V3  1  0.01547500  0.02212800  0.99792300  1
  O  O0  1  0.81746000  0.26087300  0.68068000  1
  O  O1  1  0.79824800  0.21091400  0.07018000  1
  O  O2  1  0.72418200  0.25083700  0.37654200  1
  O  O3  1  0.68279100  0.74466800  0.43750100  1
  O  O4  1  0.24670000  0.26446600  0.87893900  1
  O  O5  1  0.18118100  0.76741300  0.93302400  1
  O  O6  1  0.18842300  0.74884600  0.30820100  1
  F  F0  1  0.74276700  0.72890900  0.12291700  1
  F  F1  1  0.67754800  0.76709600  0.80770900  1
  F  F2  1  0.32372300  0.24403300  0.18097600  1
  F  F3  1  0.34307600  0.27220400  0.58016400  1
  F  F4  1  0.25009000  0.76988400  0.63131600  1
loop_
_geom_bond_atom_site_label_1
_geom_bond_atom_site_label_2
_geom_bond_distance
_geom_bond_site_symmetry_2
Li0 O3 1.994364 1_555
Li0 O2 2.247268 1_555
Li0 O0 2.248457 1_555
Li1 O4 1.971175 1_555
Li1 O0 2.084276 1_555
Li1 O1 2.131040 1_556
Li1 O5 2.303631 1_545
Li2 O6 2.015631 1_555
Li2 O5 2.048050 1_554
Li2 O1 2.150557 1_565
Li2 O2 2.390948 1_565
O0 V2 1.757303 1_655
O0 V1 2.021969 1_545
O1 V3 1.812755 1_654
O1 V0 1.972099 1_555
O2 V1 1.831530 1_545
O2 V0 1.866018 1_555
O3 V1 1.748346 1_555
O3 V0 1.992425 1_555
O4 V2 1.830978 1_555
O4 V3 1.885668 1_555
O5 V3 1.872075 1_565
O5 V2 1.901854 1_555
O6 V0 1.751025 1_455
O6 V1 1.975990 1_555
F0 Li2 1.990626 1_555
F0 V0 2.041905 1_555
F0 V3 2.145921 1_664
F1 Li0 2.004186 1_555
F1 V3 2.070873 1_665
F1 V2 2.162943 1_555
F1 Li1 2.262273 1_565
F2 V3 1.943948 1_554
F2 V0 2.164473 1_555
F2 Li2 2.281098 1_545
F3 V2 1.996507 1_555
F3 V1 2.140843 1_545
F3 Li0 2.144073 1_555
F4 Li0 2.040197 1_455
F4 V1 2.108209 1_555
F4 V2 2.159152 1_555
F4 Li1 2.299505 1_565
