# generated using pymatgen
data_Li2MnNi3O8
_symmetry_space_group_name_H-M   'P 1'
_cell_length_a   8.11757700
_cell_length_b   8.20226461
_cell_length_c   8.20818729
_cell_angle_alpha   89.87847473
_cell_angle_beta   89.97417281
_cell_angle_gamma   89.92724745
_symmetry_Int_Tables_number   1
_chemical_formula_structural   Li2MnNi3O8
_chemical_formula_sum   'Li8 Mn4 Ni12 O32'
_cell_volume   546.52002483
_cell_formula_units_Z   4
loop_
 _symmetry_equiv_pos_site_id
 _symmetry_equiv_pos_as_xyz
  1  'x, y, z'
loop_
 _atom_site_type_symbol
 _atom_site_label
 _atom_site_symmetry_multiplicity
 _atom_site_fract_x
 _atom_site_fract_y
 _atom_site_fract_z
 _atom_site_occupancy
  Li  Li0  1  0.00050300  0.00028300  0.00086200  1
  Li  Li1  1  0.25086500  0.25033000  0.75076400  1
  Li  Li2  1  0.75292000  0.74796900  0.74829200  1
  Li  Li3  1  0.49894600  0.00122300  0.49702000  1
  Li  Li4  1  0.00288500  0.50153200  0.50356700  1
  Li  Li5  1  0.74857500  0.24901800  0.24788300  1
  Li  Li6  1  0.24669400  0.75388300  0.25215300  1
  Li  Li7  1  0.50160300  0.49877300  0.00086400  1
  Mn  Mn0  1  0.37543600  0.87121800  0.87622500  1
  Mn  Mn1  1  0.87274400  0.12404400  0.62338500  1
  Mn  Mn2  1  0.62208700  0.62172600  0.36995600  1
  Mn  Mn3  1  0.12414100  0.37360100  0.12456600  1
  Ni  Ni0  1  0.62814100  0.12149000  0.87670800  1
  Ni  Ni1  1  0.87425400  0.37095600  0.87826500  1
  Ni  Ni2  1  0.12466400  0.62795900  0.87882100  1
  Ni  Ni3  1  0.62341200  0.37369000  0.62291900  1
  Ni  Ni4  1  0.37584300  0.62675900  0.62341600  1
  Ni  Ni5  1  0.12660900  0.87970100  0.62812300  1
  Ni  Ni6  1  0.37508700  0.37783000  0.36858900  1
  Ni  Ni7  1  0.12447600  0.12768600  0.37710300  1
  Ni  Ni8  1  0.87283000  0.87657500  0.37565100  1
  Ni  Ni9  1  0.37663500  0.12596500  0.12385000  1
  Ni  Ni10  1  0.62622400  0.87221000  0.12380700  1
  Ni  Ni11  1  0.87649400  0.62413600  0.12652200  1
  O  O0  1  0.39342400  0.11130400  0.89108900  1
  O  O1  1  0.61676100  0.88709300  0.89198000  1
  O  O2  1  0.89256900  0.62044700  0.89660500  1
  O  O3  1  0.85684500  0.12309200  0.85931100  1
  O  O4  1  0.10811600  0.38097000  0.89190700  1
  O  O5  1  0.64260200  0.35032800  0.87486100  1
  O  O6  1  0.35757300  0.63932700  0.87472000  1
  O  O7  1  0.14295800  0.87357400  0.86186500  1
  O  O8  1  0.63257500  0.13855400  0.64385400  1
  O  O9  1  0.85980100  0.35986000  0.63862800  1
  O  O10  1  0.14239300  0.64665900  0.63729200  1
  O  O11  1  0.61328000  0.61009300  0.60460800  1
  O  O12  1  0.38060900  0.85968500  0.64510400  1
  O  O13  1  0.38725000  0.38867300  0.60050100  1
  O  O14  1  0.10722200  0.11173300  0.62395500  1
  O  O15  1  0.87173000  0.89132400  0.60322000  1
  O  O16  1  0.60488000  0.39024100  0.36982400  1
  O  O17  1  0.38713000  0.60716900  0.37331200  1
  O  O18  1  0.11494000  0.89821900  0.39309300  1
  O  O19  1  0.14080600  0.36071500  0.36275100  1
  O  O20  1  0.88241400  0.12376900  0.39245700  1
  O  O21  1  0.36831300  0.14603900  0.35415100  1
  O  O22  1  0.62869800  0.85765300  0.35432600  1
  O  O23  1  0.85876300  0.62665600  0.35768300  1
  O  O24  1  0.35918600  0.37375900  0.13997200  1
  O  O25  1  0.13622700  0.14280700  0.13013200  1
  O  O26  1  0.86215700  0.85714300  0.14295600  1
  O  O27  1  0.39487000  0.87791600  0.11115800  1
  O  O28  1  0.64195300  0.64112200  0.13287800  1
  O  O29  1  0.61939900  0.10129100  0.10845400  1
  O  O30  1  0.88636200  0.39350600  0.11713600  1
  O  O31  1  0.10626800  0.61086200  0.12091000  1
loop_
_geom_bond_atom_site_label_1
_geom_bond_atom_site_label_2
_geom_bond_distance
_geom_bond_site_symmetry_2
Li0 O25 1.927672 1_555
Li0 O3 1.928167 1_454
Li0 O7 1.928692 1_544
Li0 O26 1.999086 1_445
Li1 O14 1.935165 1_555
Li1 O4 1.958075 1_555
Li1 O0 1.989596 1_555
Li1 O13 2.007629 1_555
Li2 O15 1.930443 1_555
Li2 O2 1.963154 1_555
Li2 O1 1.978936 1_555
Li2 O11 1.991206 1_555
Li3 O12 1.934883 1_545
Li3 O22 1.967119 1_545
Li3 O21 1.975510 1_555
Li3 O8 1.976904 1_555
Li4 O23 1.961856 1_455
Li4 O10 1.978475 1_555
Li4 O19 1.981092 1_555
Li4 O9 1.981211 1_455
Li5 O20 1.907134 1_555
Li5 O16 1.924748 1_555
Li5 O30 1.950437 1_555
Li5 O29 1.971735 1_555
Li6 O17 1.931120 1_555
Li6 O27 1.953980 1_555
Li6 O31 1.961106 1_555
Li6 O18 1.971108 1_555
Li7 O24 1.920568 1_555
Li7 O6 1.939264 1_554
Li7 O28 1.960943 1_555
Li7 O5 1.965446 1_554
Mn0 O7 1.890960 1_555
Mn0 O12 1.900084 1_555
Mn0 O6 1.907801 1_555
Mn0 O27 1.935789 1_556
Mn0 O1 1.967792 1_555
Mn0 O0 1.978867 1_565
Mn1 O20 1.897096 1_555
Mn1 O14 1.905949 1_655
Mn1 O15 1.916372 1_545
Mn1 O3 1.940763 1_555
Mn1 O9 1.941242 1_555
Mn1 O8 1.960229 1_555
Mn2 O16 1.904012 1_555
Mn2 O17 1.911349 1_555
Mn2 O23 1.924301 1_555
Mn2 O11 1.929525 1_555
Mn2 O22 1.939921 1_555
Mn2 O28 1.958731 1_555
Mn3 O25 1.895904 1_555
Mn3 O24 1.912241 1_555
Mn3 O4 1.915013 1_554
Mn3 O30 1.937852 1_455
Mn3 O31 1.951463 1_555
Mn3 O19 1.962418 1_555
Ni0 O3 1.862003 1_555
Ni0 O5 1.880834 1_555
Ni0 O29 1.910360 1_556
Ni0 O0 1.910856 1_555
Ni0 O8 1.916456 1_555
Ni0 O1 1.928731 1_545
Ni1 O5 1.888488 1_555
Ni1 O4 1.903630 1_655
Ni1 O30 1.972300 1_556
Ni1 O9 1.972834 1_555
Ni1 O3 2.044393 1_555
Ni1 O2 2.057810 1_555
Ni2 O2 1.890702 1_455
Ni2 O6 1.893353 1_555
Ni2 O10 1.993267 1_555
Ni2 O31 1.997294 1_556
Ni2 O7 2.024743 1_555
Ni2 O4 2.033097 1_555
Ni3 O9 1.926474 1_555
Ni3 O13 1.929694 1_555
Ni3 O8 1.937262 1_555
Ni3 O11 1.946176 1_555
Ni3 O5 2.082328 1_555
Ni3 O16 2.087079 1_555
Ni4 O10 1.905235 1_555
Ni4 O12 1.919613 1_555
Ni4 O11 1.938193 1_555
Ni4 O13 1.964341 1_555
Ni4 O17 2.061506 1_555
Ni4 O6 2.070784 1_555
Ni5 O14 1.909720 1_565
Ni5 O10 1.916920 1_555
Ni5 O7 1.923788 1_555
Ni5 O18 1.937170 1_555
Ni5 O12 2.072913 1_555
Ni5 O15 2.081209 1_455
Ni6 O16 1.868300 1_555
Ni6 O24 1.881393 1_555
Ni6 O17 1.884244 1_555
Ni6 O21 1.906017 1_555
Ni6 O19 1.907777 1_555
Ni6 O13 1.908448 1_555
Ni7 O18 1.888125 1_545
Ni7 O19 1.919490 1_555
Ni7 O20 1.969236 1_455
Ni7 O21 1.994077 1_555
Ni7 O25 2.032916 1_555
Ni7 O14 2.034925 1_555
Ni8 O15 1.872115 1_555
Ni8 O26 1.918985 1_555
Ni8 O18 1.978850 1_655
Ni8 O22 1.995823 1_555
Ni8 O20 2.034119 1_565
Ni8 O23 2.058830 1_555
Ni9 O21 1.899023 1_555
Ni9 O0 1.919354 1_554
Ni9 O25 1.956903 1_555
Ni9 O29 1.984763 1_555
Ni9 O24 2.041791 1_555
Ni9 O27 2.042629 1_545
Ni10 O27 1.881466 1_555
Ni10 O29 1.883684 1_565
Ni10 O22 1.895768 1_555
Ni10 O28 1.900882 1_555
Ni10 O1 1.908108 1_554
Ni10 O26 1.925506 1_555
Ni11 O31 1.868798 1_655
Ni11 O2 1.891952 1_554
Ni11 O30 1.895010 1_555
Ni11 O23 1.902953 1_555
Ni11 O28 1.909517 1_555
Ni11 O26 1.919605 1_555
