# generated using pymatgen
data_Na4Bi2C4SO16
_symmetry_space_group_name_H-M   'P 1'
_cell_length_a   10.61164822
_cell_length_b   10.52422481
_cell_length_c   10.19810692
_cell_angle_alpha   61.58215187
_cell_angle_beta   60.72171207
_cell_angle_gamma   57.69613606
_symmetry_Int_Tables_number   1
_chemical_formula_structural   Na4Bi2C4SO16
_chemical_formula_sum   'Na8 Bi4 C8 S2 O32'
_cell_volume   803.33015930
_cell_formula_units_Z   2
loop_
 _symmetry_equiv_pos_site_id
 _symmetry_equiv_pos_as_xyz
  1  'x, y, z'
loop_
 _atom_site_type_symbol
 _atom_site_label
 _atom_site_symmetry_multiplicity
 _atom_site_fract_x
 _atom_site_fract_y
 _atom_site_fract_z
 _atom_site_occupancy
  Na  Na0  1  0.95023800  0.54976200  0.95023800  1
  Na  Na1  1  0.95170800  0.54829200  0.54829200  1
  Na  Na2  1  0.70170800  0.29829200  0.29829200  1
  Na  Na3  1  0.70023800  0.29976200  0.70023800  1
  Na  Na4  1  0.54976200  0.95023800  0.54976200  1
  Na  Na5  1  0.54829200  0.95170800  0.95170800  1
  Na  Na6  1  0.29829200  0.70170800  0.70170800  1
  Na  Na7  1  0.29976200  0.70023800  0.29976200  1
  Bi  Bi0  1  0.12500000  0.62500000  0.12500000  1
  Bi  Bi1  1  0.62500000  0.12500000  0.12500000  1
  Bi  Bi2  1  0.12500000  0.12500000  0.12500000  1
  Bi  Bi3  1  0.12500000  0.12500000  0.62500000  1
  C  C0  1  0.89362300  0.28708400  0.91209600  1
  C  C1  1  0.96291600  0.35637700  0.34280200  1
  C  C2  1  0.91209600  0.90719800  0.89362300  1
  C  C3  1  0.90719800  0.91209600  0.28708400  1
  C  C4  1  0.34280200  0.33790400  0.96291600  1
  C  C5  1  0.33790400  0.34280200  0.35637700  1
  C  C6  1  0.28708400  0.89362300  0.90719800  1
  C  C7  1  0.35637700  0.96291600  0.33790400  1
  S  S0  1  0.50000000  0.50000000  0.50000000  1
  S  S1  1  0.75000000  0.75000000  0.75000000  1
  O  O0  1  0.00690200  0.29468300  0.92195100  1
  O  O1  1  0.55508300  0.55333700  0.32387100  1
  O  O2  1  0.77317500  0.27461500  0.03490200  1
  O  O3  1  0.97538500  0.47682500  0.33269200  1
  O  O4  1  0.03490200  0.91730800  0.77317500  1
  O  O5  1  0.95724800  0.34777500  0.22210000  1
  O  O6  1  0.32387100  0.56770900  0.55508300  1
  O  O7  1  0.55333700  0.55508300  0.56770900  1
  O  O8  1  0.47287600  0.22210000  0.34777500  1
  O  O9  1  0.91730800  0.03490200  0.27461500  1
  O  O10  1  0.95531700  0.24309800  0.47353700  1
  O  O11  1  0.56770900  0.32387100  0.55333700  1
  O  O12  1  0.92195100  0.77646300  0.00690200  1
  O  O13  1  0.77646300  0.92195100  0.29468300  1
  O  O14  1  0.90222500  0.29275200  0.77712400  1
  O  O15  1  0.22210000  0.47287600  0.95724800  1
  O  O16  1  0.02790000  0.77712400  0.29275200  1
  O  O17  1  0.34777500  0.95724800  0.47287600  1
  O  O18  1  0.47353700  0.32804900  0.95531700  1
  O  O19  1  0.32804900  0.47353700  0.24309800  1
  O  O20  1  0.68229100  0.92612900  0.69666300  1
  O  O21  1  0.29468300  0.00690200  0.77646300  1
  O  O22  1  0.33269200  0.21509800  0.97538500  1
  O  O23  1  0.77712400  0.02790000  0.90222500  1
  O  O24  1  0.69666300  0.69491700  0.68229100  1
  O  O25  1  0.92612900  0.68229100  0.69491700  1
  O  O26  1  0.29275200  0.90222500  0.02790000  1
  O  O27  1  0.21509800  0.33269200  0.47682500  1
  O  O28  1  0.27461500  0.77317500  0.91730800  1
  O  O29  1  0.47682500  0.97538500  0.21509800  1
  O  O30  1  0.69491700  0.69666300  0.92612900  1
  O  O31  1  0.24309800  0.95531700  0.32804900  1
loop_
_geom_bond_atom_site_label_1
_geom_bond_atom_site_label_2
_geom_bond_distance
_geom_bond_site_symmetry_2
Na0 O30 2.367298 1_555
Na0 O25 2.367298 1_555
Na0 O12 2.548226 1_556
Na0 O0 2.548236 1_655
Na0 O15 2.575691 1_655
Na0 O5 2.575694 1_556
Na1 O25 2.345061 1_555
Na1 O24 2.345061 1_555
Na1 O27 2.508957 1_655
Na1 O3 2.508957 1_555
Na1 O14 2.700298 1_555
Na1 O16 2.700302 1_655
Na2 O11 2.345061 1_555
Na2 O1 2.345061 1_555
Na2 O9 2.508957 1_555
Na2 O2 2.508957 1_555
Na2 O5 2.700295 1_555
Na2 O8 2.700306 1_555
Na3 O11 2.367298 1_555
Na3 O7 2.367298 1_555
Na3 O10 2.548231 1_555
Na3 O18 2.548232 1_555
Na3 O23 2.575695 1_555
Na3 O14 2.575701 1_555
Na4 O24 2.367298 1_555
Na4 O20 2.367298 1_555
Na4 O21 2.548231 1_565
Na4 O13 2.548232 1_555
Na4 O8 2.575695 1_565
Na4 O17 2.575701 1_555
Na5 O30 2.345061 1_555
Na5 O20 2.345061 1_555
Na5 O29 2.508957 1_556
Na5 O22 2.508957 1_565
Na5 O26 2.700295 1_556
Na5 O23 2.700306 1_565
Na6 O7 2.345061 1_555
Na6 O6 2.345061 1_555
Na6 O28 2.508957 1_555
Na6 O4 2.508957 1_555
Na6 O17 2.700298 1_555
Na6 O15 2.700302 1_555
Na7 O1 2.367298 1_555
Na7 O6 2.367298 1_555
Na7 O19 2.548226 1_555
Na7 O31 2.548236 1_555
Na7 O16 2.575691 1_555
Na7 O26 2.575694 1_555
Bi0 O28 2.377397 1_554
Bi0 O3 2.377397 1_455
Bi0 O16 2.381406 1_555
Bi0 O15 2.381406 1_554
Bi0 O19 2.382033 1_555
Bi0 O12 2.382033 1_455
Bi1 O2 2.377397 1_555
Bi1 O29 2.377397 1_545
Bi1 O8 2.381397 1_555
Bi1 O23 2.381397 1_554
Bi1 O13 2.382026 1_545
Bi1 O18 2.382026 1_554
Bi2 O22 2.377397 1_554
Bi2 O9 2.377397 1_455
Bi2 O5 2.381398 1_455
Bi2 O26 2.381398 1_545
Bi2 O31 2.382032 1_545
Bi2 O0 2.382032 1_554
Bi3 O27 2.377397 1_555
Bi3 O4 2.377397 1_545
Bi3 O14 2.381403 1_455
Bi3 O17 2.381403 1_545
Bi3 O21 2.382024 1_555
Bi3 O10 2.382024 1_455
C0 O2 1.294806 1_556
C0 O0 1.300020 1_655
C0 O14 1.308169 1_555
C1 O3 1.294811 1_555
C1 O10 1.300031 1_555
C1 O5 1.308169 1_555
C2 O4 1.294804 1_655
C2 O12 1.300032 1_556
C2 O23 1.308169 1_565
C3 O9 1.294800 1_565
C3 O13 1.300041 1_555
C3 O16 1.308169 1_655
C4 O22 1.294800 1_555
C4 O18 1.300041 1_555
C4 O15 1.308169 1_555
C5 O27 1.294804 1_555
C5 O19 1.300032 1_555
C5 O8 1.308169 1_555
C6 O28 1.294811 1_555
C6 O21 1.300031 1_565
C6 O26 1.308169 1_556
C7 O29 1.294806 1_555
C7 O31 1.300020 1_555
C7 O17 1.308169 1_555
O1 S0 1.499049 1_555
O6 S0 1.499049 1_555
O7 S0 1.499049 1_555
O11 S0 1.499049 1_555
O20 S1 1.499049 1_555
O24 S1 1.499049 1_555
O25 S1 1.499049 1_555
O30 S1 1.499049 1_555
