# generated using pymatgen
data_Li4VCr3O8
_symmetry_space_group_name_H-M   'P 1'
_cell_length_a   5.11719089
_cell_length_b   5.18136515
_cell_length_c   5.94303518
_cell_angle_alpha   73.32030700
_cell_angle_beta   89.99526692
_cell_angle_gamma   80.80447722
_symmetry_Int_Tables_number   1
_chemical_formula_structural   Li4VCr3O8
_chemical_formula_sum   'Li4 V1 Cr3 O8'
_cell_volume   148.82923586
_cell_formula_units_Z   1
loop_
 _symmetry_equiv_pos_site_id
 _symmetry_equiv_pos_as_xyz
  1  'x, y, z'
loop_
 _atom_site_type_symbol
 _atom_site_label
 _atom_site_symmetry_multiplicity
 _atom_site_fract_x
 _atom_site_fract_y
 _atom_site_fract_z
 _atom_site_occupancy
  Li  Li0  1  0.00251900  0.99831700  0.00092400  1
  Li  Li1  1  0.49747300  0.00170900  0.24904100  1
  Li  Li2  1  0.00658100  0.00086700  0.49927400  1
  Li  Li3  1  0.49343200  0.99912500  0.75068400  1
  V  V0  1  0.74998700  0.50002300  0.62501300  1
  Cr  Cr0  1  0.25005600  0.49979100  0.37566700  1
  Cr  Cr1  1  0.24995400  0.50015800  0.87435400  1
  Cr  Cr2  1  0.75005900  0.50001200  0.12495500  1
  O  O0  1  0.12093900  0.27512100  0.18102500  1
  O  O1  1  0.37898300  0.72490300  0.06894900  1
  O  O2  1  0.62124200  0.27320900  0.43052500  1
  O  O3  1  0.87876700  0.72679700  0.81951700  1
  O  O4  1  0.87906100  0.72641300  0.31711800  1
  O  O5  1  0.62094800  0.27361300  0.93293000  1
  O  O6  1  0.12886300  0.26973300  0.68289700  1
  O  O7  1  0.37113800  0.73021000  0.56712400  1
loop_
_geom_bond_atom_site_label_1
_geom_bond_atom_site_label_2
_geom_bond_distance
_geom_bond_site_symmetry_2
Li0 O4 2.163258 1_455
Li0 O1 2.163479 1_555
Li0 O3 2.167503 1_454
Li0 O0 2.174614 1_565
Li0 O6 2.175445 1_564
Li0 O5 2.188506 1_464
Li1 O5 2.162956 1_554
Li1 O0 2.163756 1_555
Li1 O2 2.167763 1_555
Li1 O1 2.174724 1_545
Li1 O7 2.175845 1_545
Li1 O4 2.188574 1_545
Li2 O7 2.109204 1_545
Li2 O0 2.159108 1_555
Li2 O6 2.162072 1_555
Li2 O4 2.190975 1_445
Li2 O3 2.193573 1_445
Li2 O2 2.196866 1_455
Li3 O6 2.109132 1_565
Li3 O1 2.159274 1_556
Li3 O7 2.162050 1_555
Li3 O5 2.191478 1_565
Li3 O2 2.193257 1_565
Li3 O3 2.196818 1_555
Cr0 O7 2.029847 1_555
Cr0 O6 2.031264 1_555
Cr0 O1 2.035610 1_555
Cr0 O0 2.036840 1_555
Cr0 O4 2.038890 1_455
Cr0 O2 2.039630 1_555
Cr1 O6 2.029891 1_555
Cr1 O7 2.031234 1_555
Cr1 O0 2.035450 1_556
Cr1 O1 2.036754 1_556
Cr1 O5 2.038736 1_555
Cr1 O3 2.039747 1_455
Cr2 O5 2.032543 1_554
Cr2 O3 2.032811 1_554
Cr2 O4 2.032915 1_555
Cr2 O2 2.033649 1_555
Cr2 O0 2.034975 1_655
Cr2 O1 2.035819 1_555
O2 V0 2.044130 1_555
O3 V0 2.044110 1_555
O4 V0 2.043473 1_555
O5 V0 2.043532 1_555
O6 V0 2.079923 1_455
O7 V0 2.079606 1_555
