# generated using pymatgen
data_Li4Mn2CrNi3(PO4)6
_symmetry_space_group_name_H-M   'P 1'
_cell_length_a   8.47354400
_cell_length_b   8.55289761
_cell_length_c   8.55419339
_cell_angle_alpha   62.11794274
_cell_angle_beta   62.43420907
_cell_angle_gamma   62.38150525
_symmetry_Int_Tables_number   1
_chemical_formula_structural   Li4Mn2CrNi3(PO4)6
_chemical_formula_sum   'Li4 Mn2 Cr1 Ni3 P6 O24'
_cell_volume   460.97469862
_cell_formula_units_Z   1
loop_
 _symmetry_equiv_pos_site_id
 _symmetry_equiv_pos_as_xyz
  1  'x, y, z'
loop_
 _atom_site_type_symbol
 _atom_site_label
 _atom_site_symmetry_multiplicity
 _atom_site_fract_x
 _atom_site_fract_y
 _atom_site_fract_z
 _atom_site_occupancy
  Li  Li0  1  0.25175300  0.64465200  0.85469600  1
  Li  Li1  1  0.73548400  0.35949400  0.14302400  1
  Li  Li2  1  0.35940500  0.14326500  0.73605200  1
  Li  Li3  1  0.14362300  0.73496300  0.35921300  1
  Mn  Mn0  1  0.98472900  0.00286600  0.99616500  1
  Mn  Mn1  1  0.51172400  0.50114600  0.49574100  1
  Cr  Cr0  1  0.14489600  0.14452600  0.14866200  1
  Ni  Ni0  1  0.85576200  0.85476900  0.85364000  1
  Ni  Ni1  1  0.64474100  0.64594300  0.64423300  1
  Ni  Ni2  1  0.35381300  0.34993400  0.35402900  1
  P  P0  1  0.95248300  0.54767300  0.25171000  1
  P  P1  1  0.54861800  0.25036600  0.95311700  1
  P  P2  1  0.25101700  0.95162800  0.54942300  1
  P  P3  1  0.75182300  0.04338500  0.45785400  1
  P  P4  1  0.45223800  0.75086400  0.04316700  1
  P  P5  1  0.04849100  0.45746000  0.75267400  1
  O  O0  1  0.88549300  0.49355400  0.69939100  1
  O  O1  1  0.69319400  0.88827700  0.48491300  1
  O  O2  1  0.95159700  0.73219000  0.08284000  1
  O  O3  1  0.46343700  0.69497100  0.89204200  1
  O  O4  1  0.98720600  0.38624300  0.19124700  1
  O  O5  1  0.75829800  0.56520000  0.40513000  1
  O  O6  1  0.73929600  0.09407100  0.93090700  1
  O  O7  1  0.54438700  0.41685700  0.76646400  1
  O  O8  1  0.81177400  0.01439500  0.61191000  1
  O  O9  1  0.40240000  0.75361200  0.56954800  1
  O  O10  1  0.90957900  0.06905200  0.25723200  1
  O  O11  1  0.61475100  0.80579000  0.00276300  1
  O  O12  1  0.38646000  0.18694200  0.99058500  1
  O  O13  1  0.09737000  0.92661200  0.74496900  1
  O  O14  1  0.59610000  0.24271000  0.43175300  1
  O  O15  1  0.18869600  0.98576300  0.38970900  1
  O  O16  1  0.43218900  0.59463300  0.24186300  1
  O  O17  1  0.25324500  0.91095200  0.07167600  1
  O  O18  1  0.24631700  0.42943600  0.59508600  1
  O  O19  1  0.03350300  0.60820800  0.81041900  1
  O  O20  1  0.52319100  0.31249400  0.10745000  1
  O  O21  1  0.06870800  0.25732200  0.91175700  1
  O  O22  1  0.31435500  0.10500100  0.52364500  1
  O  O23  1  0.10785800  0.51978400  0.31630300  1
loop_
_geom_bond_atom_site_label_1
_geom_bond_atom_site_label_2
_geom_bond_distance
_geom_bond_site_symmetry_2
Li0 O13 2.121879 1_555
Li0 O9 2.131377 1_555
Li0 O3 2.208932 1_555
Li0 O19 2.225732 1_555
Li0 O7 2.382891 1_555
Li0 O2 2.417671 1_456
Li1 O14 2.139931 1_555
Li1 O20 2.186700 1_555
Li1 O10 2.228871 1_555
Li1 O4 2.475310 1_555
Li1 O16 2.480216 1_555
Li1 O21 2.609451 1_654
Li2 O18 2.120713 1_555
Li2 O22 2.206389 1_555
Li2 O21 2.234968 1_555
Li2 O14 2.490121 1_555
Li2 O12 2.496996 1_555
Li2 O17 2.632713 1_546
Li3 O16 2.135702 1_555
Li3 O23 2.205805 1_555
Li3 O17 2.212990 1_555
Li3 O15 2.488055 1_555
Li3 O18 2.498429 1_555
Li3 O10 2.621955 1_465
Mn0 O6 2.099594 1_555
Mn0 O13 2.188378 1_645
Mn0 O2 2.189199 1_546
Mn0 O10 2.290241 1_556
Mn0 O21 2.292324 1_655
Mn0 O17 2.332179 1_646
Mn1 O5 2.105129 1_555
Mn1 O9 2.190567 1_555
Mn1 O7 2.192272 1_555
Mn1 O14 2.236229 1_555
Mn1 O16 2.245167 1_555
Mn1 O18 2.275652 1_555
Cr0 O12 1.953929 1_554
Cr0 O15 1.963555 1_545
Cr0 O4 1.971000 1_455
Cr0 O10 2.043003 1_455
Cr0 O17 2.058621 1_545
Cr0 O21 2.063771 1_554
Ni0 O11 1.963579 1_556
Ni0 O8 1.969712 1_565
Ni0 O19 2.030080 1_655
Ni0 O13 2.074546 1_655
Ni0 O2 2.089094 1_556
Ni0 O6 2.094921 1_565
Ni1 O0 1.983314 1_555
Ni1 O1 1.987705 1_555
Ni1 O3 2.061450 1_555
Ni1 O9 2.093719 1_555
Ni1 O7 2.112142 1_555
Ni1 O5 2.114156 1_555
Ni2 O23 1.983670 1_555
Ni2 O22 1.990743 1_555
Ni2 O20 2.003811 1_555
Ni2 O14 2.108415 1_555
Ni2 O18 2.131401 1_555
Ni2 O16 2.136021 1_555
O0 P5 1.505458 1_655
O1 P3 1.509216 1_565
O2 P0 1.563382 1_555
O3 P4 1.526813 1_556
O4 P0 1.552679 1_555
O5 P0 1.552081 1_555
O6 P1 1.544184 1_555
O7 P1 1.567630 1_555
O8 P3 1.501135 1_555
O9 P2 1.568708 1_555
O10 P3 1.605230 1_555
O11 P4 1.497955 1_555
O12 P1 1.551087 1_555
O13 P2 1.564215 1_555
O14 P3 1.590075 1_555
O15 P2 1.543506 1_555
O16 P4 1.588169 1_555
O17 P4 1.602672 1_555
O18 P5 1.588349 1_555
O19 P5 1.519309 1_555
O20 P1 1.535713 1_554
O21 P5 1.605144 1_555
O22 P2 1.526471 1_545
O23 P0 1.534412 1_455
