# generated using pymatgen
data_Li5Fe8(BO3)8
_symmetry_space_group_name_H-M   'P 1'
_cell_length_a   5.22006900
_cell_length_b   9.12267457
_cell_length_c   10.12646882
_cell_angle_alpha   91.05954123
_cell_angle_beta   90.54026986
_cell_angle_gamma   90.13297905
_symmetry_Int_Tables_number   1
_chemical_formula_structural   Li5Fe8(BO3)8
_chemical_formula_sum   'Li5 Fe8 B8 O24'
_cell_volume   482.12708828
_cell_formula_units_Z   1
loop_
 _symmetry_equiv_pos_site_id
 _symmetry_equiv_pos_as_xyz
  1  'x, y, z'
loop_
 _atom_site_type_symbol
 _atom_site_label
 _atom_site_symmetry_multiplicity
 _atom_site_fract_x
 _atom_site_fract_y
 _atom_site_fract_z
 _atom_site_occupancy
  Li  Li0  1  0.84580200  0.82767100  0.65278900  1
  Li  Li1  1  0.66001800  0.67617100  0.90549100  1
  Li  Li2  1  0.34626100  0.32232000  0.66764400  1
  Li  Li3  1  0.31649000  0.33095400  0.15743800  1
  Li  Li4  1  0.17053600  0.16515600  0.39861100  1
  Fe  Fe0  1  0.84676100  0.16505400  0.63046100  1
  Fe  Fe1  1  0.82770900  0.50408100  0.13548400  1
  Fe  Fe2  1  0.67129700  0.01567400  0.88338300  1
  Fe  Fe3  1  0.65986300  0.34854200  0.38837200  1
  Fe  Fe4  1  0.34773100  0.65604700  0.62571400  1
  Fe  Fe5  1  0.31466700  0.99542200  0.12747800  1
  Fe  Fe6  1  0.16870800  0.82817400  0.37515700  1
  Fe  Fe7  1  0.17137200  0.49468900  0.87781600  1
  B  B0  1  0.83817300  0.49792400  0.63277800  1
  B  B1  1  0.82935500  0.17552900  0.12833400  1
  B  B2  1  0.67382000  0.00256400  0.37942600  1
  B  B3  1  0.67001900  0.33579700  0.87960600  1
  B  B4  1  0.33941500  0.99806000  0.62369400  1
  B  B5  1  0.33510200  0.66124800  0.13121300  1
  B  B6  1  0.15850000  0.50278200  0.37200800  1
  B  B7  1  0.17255900  0.83489600  0.87548700  1
  O  O0  1  0.90436000  0.50916800  0.32794400  1
  O  O1  1  0.90671800  0.84861600  0.86195200  1
  O  O2  1  0.80831200  0.20950800  0.84394000  1
  O  O3  1  0.78459800  0.13690600  0.41593500  1
  O  O4  1  0.81892200  0.87786700  0.37813100  1
  O  O5  1  0.79857200  0.46159400  0.92895700  1
  O  O6  1  0.72232200  0.63241900  0.64220600  1
  O  O7  1  0.68898900  0.05710000  0.07814000  1
  O  O8  1  0.69476400  0.37260700  0.59613100  1
  O  O9  1  0.69022800  0.30436500  0.16177500  1
  O  O10  1  0.59452800  0.66018300  0.10841300  1
  O  O11  1  0.58989800  0.99039800  0.67597700  1
  O  O12  1  0.40851200  0.99661100  0.34897000  1
  O  O13  1  0.41193700  0.33496500  0.86038400  1
  O  O14  1  0.29354900  0.70431500  0.84361600  1
  O  O15  1  0.27660300  0.63005400  0.41827500  1
  O  O16  1  0.28435100  0.37015500  0.36741100  1
  O  O17  1  0.31944000  0.95268700  0.92039300  1
  O  O18  1  0.19536900  0.53243300  0.09959000  1
  O  O19  1  0.22355700  0.13231100  0.60717800  1
  O  O20  1  0.20962000  0.86884600  0.58540800  1
  O  O21  1  0.21022500  0.78467800  0.17824800  1
  O  O22  1  0.08846600  0.17027500  0.14704100  1
  O  O23  1  0.09795200  0.48282600  0.66156200  1
loop_
_geom_bond_atom_site_label_1
_geom_bond_atom_site_label_2
_geom_bond_distance
_geom_bond_site_symmetry_2
Li0 O6 1.893678 1_555
Li0 O11 2.011363 1_555
Li0 O20 2.060113 1_655
Li0 O1 2.143816 1_555
Li1 O14 2.025755 1_555
Li1 O1 2.086763 1_555
Li1 O10 2.093989 1_556
Li1 O5 2.105226 1_555
Li2 O19 1.933398 1_555
Li2 O23 1.959222 1_555
Li2 O13 1.979682 1_555
Li2 O8 2.019322 1_555
Li3 O22 1.886893 1_555
Li3 O9 1.966698 1_555
Li3 O18 2.039481 1_555
Li3 O16 2.157779 1_555
Li4 O16 1.992601 1_555
Li4 O12 2.037669 1_545
Li4 O3 2.040055 1_455
Li4 O19 2.154041 1_555
Li4 O22 2.580594 1_555
Fe0 O19 2.005588 1_655
Fe0 O8 2.088449 1_555
Fe0 O11 2.139603 1_545
Fe0 O2 2.203228 1_555
Fe0 O3 2.203680 1_555
Fe1 O10 1.897613 1_555
Fe1 O18 1.974009 1_655
Fe1 O9 1.980119 1_555
Fe1 O0 1.985569 1_555
Fe1 O5 2.123916 1_554
Fe2 O2 1.955391 1_555
Fe2 O17 1.964743 1_545
Fe2 O1 1.970138 1_545
Fe2 O7 2.002439 1_556
Fe2 O11 2.147031 1_545
Fe3 O16 1.980354 1_555
Fe3 O0 2.046899 1_555
Fe3 O3 2.061979 1_555
Fe3 O8 2.117343 1_555
Fe3 O9 2.329338 1_555
Fe4 O6 1.973584 1_555
Fe4 O23 2.085563 1_555
Fe4 O20 2.117839 1_555
Fe4 O15 2.138498 1_555
Fe4 O14 2.262584 1_555
Fe5 O22 1.994842 1_565
Fe5 O21 2.072372 1_555
Fe5 O7 2.099520 1_565
Fe5 O17 2.126260 1_554
Fe5 O12 2.291112 1_555
Fe6 O4 1.882745 1_455
Fe6 O15 1.950327 1_555
Fe6 O12 2.002707 1_555
Fe6 O21 2.039538 1_555
Fe6 O20 2.162912 1_555
Fe7 O13 1.932470 1_555
Fe7 O5 2.041688 1_455
Fe7 O14 2.051042 1_555
Fe7 O23 2.220232 1_555
Fe7 O18 2.267975 1_556
B0 O6 1.371297 1_555
B0 O23 1.392027 1_655
B0 O8 1.407193 1_555
B1 O22 1.365084 1_655
B1 O7 1.389773 1_555
B1 O9 1.420351 1_555
B2 O4 1.368061 1_545
B2 O3 1.396063 1_555
B2 O12 1.416709 1_545
B3 O13 1.359361 1_555
B3 O2 1.404383 1_555
B3 O5 1.409239 1_555
B4 O19 1.379422 1_565
B4 O20 1.404751 1_555
B4 O11 1.408400 1_555
B5 O10 1.375933 1_555
B5 O21 1.381709 1_555
B5 O18 1.411822 1_555
B6 O16 1.378341 1_555
B6 O15 1.385195 1_555
B6 O0 1.397354 1_455
B7 O14 1.383922 1_555
B7 O17 1.385961 1_555
B7 O1 1.399300 1_455
