# generated using pymatgen
data_Li2Fe3P9O28
_symmetry_space_group_name_H-M   'P 1'
_cell_length_a   7.10128200
_cell_length_b   9.03706868
_cell_length_c   9.25100591
_cell_angle_alpha   111.43961868
_cell_angle_beta   109.30381534
_cell_angle_gamma   98.43862567
_symmetry_Int_Tables_number   1
_chemical_formula_structural   Li2Fe3P9O28
_chemical_formula_sum   'Li2 Fe3 P9 O28'
_cell_volume   496.74960907
_cell_formula_units_Z   1
loop_
 _symmetry_equiv_pos_site_id
 _symmetry_equiv_pos_as_xyz
  1  'x, y, z'
loop_
 _atom_site_type_symbol
 _atom_site_label
 _atom_site_symmetry_multiplicity
 _atom_site_fract_x
 _atom_site_fract_y
 _atom_site_fract_z
 _atom_site_occupancy
  Li  Li0  1  0.70061700  0.92288200  0.23428800  1
  Li  Li1  1  0.29938300  0.07711800  0.76571200  1
  Fe  Fe0  1  0.50000000  0.50000000  0.00000000  1
  Fe  Fe1  1  0.23074000  0.97757500  0.23760800  1
  Fe  Fe2  1  0.76926000  0.02242500  0.76239200  1
  P  P0  1  0.31410900  0.75933600  0.46163900  1
  P  P1  1  0.78496200  0.75888800  0.93343700  1
  P  P2  1  0.68970400  0.70560900  0.42319400  1
  P  P3  1  0.14061200  0.66725400  0.88912900  1
  P  P4  1  0.00000000  0.50000000  0.50000000  1
  P  P5  1  0.31029600  0.29439100  0.57680600  1
  P  P6  1  0.85938800  0.33274600  0.11087100  1
  P  P7  1  0.68589100  0.24066400  0.53836100  1
  P  P8  1  0.21503800  0.24111200  0.06656300  1
  O  O0  1  0.42271100  0.91481400  0.63431400  1
  O  O1  1  0.91429100  0.89201800  0.12029500  1
  O  O2  1  0.26291500  0.84879200  0.01957000  1
  O  O3  1  0.81579600  0.88410900  0.55684400  1
  O  O4  1  0.74955500  0.82830400  0.80457000  1
  O  O5  1  0.24188600  0.79668400  0.30896200  1
  O  O6  1  0.63592100  0.69830300  0.24627200  1
  O  O7  1  0.10920100  0.65481200  0.70683900  1
  O  O8  1  0.58166100  0.65973000  0.91753100  1
  O  O9  1  0.12141500  0.63576100  0.44547400  1
  O  O10  1  0.47333800  0.65134200  0.44048100  1
  O  O11  1  0.91059600  0.62700200  0.88442800  1
  O  O12  1  0.22460200  0.53713300  0.92903900  1
  O  O13  1  0.78356800  0.56842000  0.45356800  1
  O  O14  1  0.77539800  0.46286700  0.07096100  1
  O  O15  1  0.21643200  0.43158000  0.54643200  1
  O  O16  1  0.52666200  0.34865800  0.55951900  1
  O  O17  1  0.08940400  0.37299800  0.11557200  1
  O  O18  1  0.41833900  0.34027000  0.08246900  1
  O  O19  1  0.87858500  0.36423900  0.55452600  1
  O  O20  1  0.36407900  0.30169700  0.75372800  1
  O  O21  1  0.89079900  0.34518800  0.29316100  1
  O  O22  1  0.25044500  0.17169600  0.19543000  1
  O  O23  1  0.75811400  0.20331600  0.69103800  1
  O  O24  1  0.73708500  0.15120800  0.98043000  1
  O  O25  1  0.18420400  0.11589100  0.44315600  1
  O  O26  1  0.57728900  0.08518600  0.36568600  1
  O  O27  1  0.08570900  0.10798200  0.87970500  1
loop_
_geom_bond_atom_site_label_1
_geom_bond_atom_site_label_2
_geom_bond_distance
_geom_bond_site_symmetry_2
Li0 O26 2.042898 1_565
Li0 O6 2.065641 1_555
Li0 O1 2.111723 1_555
Li1 O0 2.042898 1_545
Li1 O20 2.065641 1_555
Li1 O27 2.111723 1_555
Fe0 O8 1.963134 1_554
Fe0 O18 1.963134 1_555
Fe0 O14 1.968014 1_555
Fe0 O12 1.968014 1_554
Fe0 O6 2.094609 1_555
Fe0 O20 2.094609 1_554
Fe1 O22 1.927120 1_565
Fe1 O5 1.976511 1_555
Fe1 O25 2.021523 1_565
Fe1 O1 2.022298 1_455
Fe1 O2 2.035162 1_555
Fe1 O26 2.221093 1_565
Fe2 O4 1.927120 1_545
Fe2 O23 1.976511 1_555
Fe2 O3 2.021523 1_545
Fe2 O27 2.022298 1_655
Fe2 O24 2.035162 1_555
Fe2 O0 2.221093 1_545
O0 P0 1.532113 1_555
O1 P1 1.544273 1_554
O2 P3 1.530877 1_554
O3 P2 1.522719 1_555
O4 P1 1.507579 1_555
O5 P0 1.514016 1_555
O6 P2 1.526220 1_555
O7 P3 1.584788 1_555
O7 P4 1.721499 1_555
O8 P1 1.514055 1_555
O9 P0 1.560791 1_555
O9 P4 1.712472 1_555
O10 P0 1.612422 1_555
O10 P2 1.620332 1_555
O11 P3 1.602909 1_655
O11 P1 1.614476 1_555
O12 P3 1.500821 1_555
O13 P2 1.560034 1_555
O13 P4 1.722096 1_655
O14 P6 1.500821 1_555
O15 P5 1.560034 1_555
O15 P4 1.722096 1_555
O16 P7 1.612422 1_555
O16 P5 1.620332 1_555
O17 P6 1.602909 1_455
O17 P8 1.614476 1_555
O18 P8 1.514055 1_555
O19 P7 1.560791 1_555
O19 P4 1.712472 1_655
O20 P5 1.526220 1_555
O21 P6 1.584788 1_555
O21 P4 1.721499 1_655
O22 P8 1.507579 1_555
O23 P7 1.514016 1_555
O24 P6 1.530877 1_556
O25 P5 1.522719 1_555
O26 P7 1.532113 1_555
O27 P8 1.544273 1_556
