# generated using pymatgen
data_Li4Y3MnO8
_symmetry_space_group_name_H-M   'P 1'
_cell_length_a   8.64996833
_cell_length_b   8.64982552
_cell_length_c   10.45814289
_cell_angle_alpha   89.99834971
_cell_angle_beta   89.99858977
_cell_angle_gamma   89.99063710
_symmetry_Int_Tables_number   1
_chemical_formula_structural   Li4Y3MnO8
_chemical_formula_sum   'Li16 Y12 Mn4 O32'
_cell_volume   782.48573594
_cell_formula_units_Z   4
loop_
 _symmetry_equiv_pos_site_id
 _symmetry_equiv_pos_as_xyz
  1  'x, y, z'
loop_
 _atom_site_type_symbol
 _atom_site_label
 _atom_site_symmetry_multiplicity
 _atom_site_fract_x
 _atom_site_fract_y
 _atom_site_fract_z
 _atom_site_occupancy
  Li  Li0  1  0.24999100  0.25001000  0.00000000  1
  Li  Li1  1  0.74999100  0.75001000  0.00000000  1
  Li  Li2  1  0.99999100  0.50001000  0.50000000  1
  Li  Li3  1  0.49999100  0.00001000  0.50000000  1
  Li  Li4  1  0.00000400  0.99999600  0.50000000  1
  Li  Li5  1  0.50000400  0.49999600  0.50000000  1
  Li  Li6  1  0.75000400  0.24999600  0.00000000  1
  Li  Li7  1  0.25000400  0.74999600  0.00000000  1
  Li  Li8  1  0.50271100  0.25271300  0.74998900  1
  Li  Li9  1  0.00271100  0.75271300  0.74998900  1
  Li  Li10  1  0.25271100  0.50271300  0.24998900  1
  Li  Li11  1  0.75271100  0.00271300  0.24998900  1
  Li  Li12  1  0.24728900  0.99728800  0.25000900  1
  Li  Li13  1  0.74728900  0.49728800  0.25000900  1
  Li  Li14  1  0.99728900  0.24728800  0.75000900  1
  Li  Li15  1  0.49728900  0.74728800  0.75000900  1
  Y  Y0  1  0.49999200  0.00000800  0.99999900  1
  Y  Y1  1  0.99999200  0.50000800  0.99999900  1
  Y  Y2  1  0.24999200  0.25000800  0.49999900  1
  Y  Y3  1  0.74999200  0.75000800  0.49999900  1
  Y  Y4  1  0.25356700  0.50356500  0.74999800  1
  Y  Y5  1  0.75356700  0.00356500  0.74999800  1
  Y  Y6  1  0.00356700  0.75356500  0.24999800  1
  Y  Y7  1  0.50356700  0.25356500  0.24999800  1
  Y  Y8  1  0.99642800  0.24643600  0.25000500  1
  Y  Y9  1  0.49642800  0.74643600  0.25000500  1
  Y  Y10  1  0.74642800  0.49643600  0.75000500  1
  Y  Y11  1  0.24642800  0.99643600  0.75000500  1
  Mn  Mn0  1  0.50000800  0.50000600  0.00000700  1
  Mn  Mn1  1  0.25000800  0.75000600  0.50000700  1
  Mn  Mn2  1  0.00000800  0.00000600  0.00000700  1
  Mn  Mn3  1  0.75000800  0.25000600  0.50000700  1
  O  O0  1  0.24995800  0.24999300  0.71401000  1
  O  O1  1  0.74995800  0.74999300  0.71401000  1
  O  O2  1  0.99995800  0.49999300  0.21401000  1
  O  O3  1  0.49995800  0.99999300  0.21401000  1
  O  O4  1  0.25000400  0.25004200  0.28598400  1
  O  O5  1  0.75000400  0.75004200  0.28598400  1
  O  O6  1  0.00000400  0.50004200  0.78598400  1
  O  O7  1  0.50000400  0.00004200  0.78598400  1
  O  O8  1  0.00006200  0.00000200  0.22138400  1
  O  O9  1  0.50006200  0.50000200  0.22138400  1
  O  O10  1  0.75006200  0.25000200  0.72138400  1
  O  O11  1  0.25006200  0.75000200  0.72138400  1
  O  O12  1  0.49999500  0.49993800  0.77861000  1
  O  O13  1  0.99999500  0.99993800  0.77861000  1
  O  O14  1  0.24999500  0.74993800  0.27861000  1
  O  O15  1  0.74999500  0.24993800  0.27861000  1
  O  O16  1  0.24971500  0.51476000  0.51908400  1
  O  O17  1  0.74971500  0.01476000  0.51908400  1
  O  O18  1  0.99971500  0.76476000  0.01908400  1
  O  O19  1  0.49971500  0.26476000  0.01908400  1
  O  O20  1  0.26474900  0.49971400  0.98095300  1
  O  O21  1  0.76474900  0.99971400  0.98095300  1
  O  O22  1  0.01474900  0.74971400  0.48095300  1
  O  O23  1  0.51474900  0.24971400  0.48095300  1
  O  O24  1  0.00028400  0.23524700  0.01905000  1
  O  O25  1  0.50028400  0.73524700  0.01905000  1
  O  O26  1  0.75028400  0.48524700  0.51905000  1
  O  O27  1  0.25028400  0.98524700  0.51905000  1
  O  O28  1  0.98524300  0.25028300  0.48091600  1
  O  O29  1  0.48524300  0.75028300  0.48091600  1
  O  O30  1  0.73524300  0.50028300  0.98091600  1
  O  O31  1  0.23524300  0.00028300  0.98091600  1
loop_
_geom_bond_atom_site_label_1
_geom_bond_atom_site_label_2
_geom_bond_distance
_geom_bond_site_symmetry_2
Li0 O20 2.172830 1_554
Li0 O24 2.172897 1_555
Li0 O31 2.173070 1_554
Li0 O19 2.173080 1_555
Li1 O21 2.172830 1_554
Li1 O25 2.172897 1_555
Li1 O30 2.173070 1_554
Li1 O18 2.173080 1_555
Li2 O22 2.172830 1_655
Li2 O26 2.172897 1_555
Li2 O28 2.173070 1_555
Li2 O16 2.173080 1_655
Li3 O23 2.172830 1_555
Li3 O27 2.172897 1_545
Li3 O29 2.173070 1_545
Li3 O17 2.173080 1_555
Li4 O22 2.177763 1_555
Li4 O27 2.177786 1_555
Li4 O28 2.177839 1_465
Li4 O17 2.177894 1_465
Li5 O23 2.177763 1_555
Li5 O26 2.177786 1_555
Li5 O29 2.177839 1_555
Li5 O16 2.177894 1_555
Li6 O21 2.177763 1_544
Li6 O24 2.177786 1_655
Li6 O30 2.177839 1_554
Li6 O19 2.177894 1_555
Li7 O20 2.177763 1_554
Li7 O25 2.177786 1_555
Li7 O31 2.177839 1_564
Li7 O18 2.177894 1_455
Li8 O12 2.159432 1_555
Li8 O10 2.160507 1_555
Li8 O7 2.217859 1_555
Li8 O0 2.218586 1_555
Li9 O13 2.159432 1_455
Li9 O11 2.160507 1_555
Li9 O6 2.217859 1_555
Li9 O1 2.218586 1_455
Li10 O14 2.159432 1_555
Li10 O9 2.160507 1_555
Li10 O4 2.217859 1_555
Li10 O2 2.218586 1_455
Li11 O15 2.159432 1_555
Li11 O8 2.160507 1_655
Li11 O5 2.217859 1_545
Li11 O3 2.218586 1_545
Li12 O8 2.159489 1_565
Li12 O14 2.160456 1_555
Li12 O3 2.217886 1_555
Li12 O4 2.218553 1_565
Li13 O9 2.159489 1_555
Li13 O15 2.160456 1_555
Li13 O2 2.217886 1_555
Li13 O5 2.218553 1_555
Li14 O10 2.159489 1_555
Li14 O13 2.160456 1_545
Li14 O0 2.217886 1_655
Li14 O6 2.218553 1_655
Li15 O11 2.159489 1_555
Li15 O12 2.160456 1_555
Li15 O1 2.217886 1_555
Li15 O7 2.218553 1_565
Mn0 O25 2.044524 1_555
Mn0 O30 2.044544 1_554
Mn0 O19 2.044590 1_555
Mn0 O20 2.044723 1_554
Mn0 O9 2.315192 1_555
Mn0 O12 2.315402 1_554
Mn1 O27 2.044524 1_555
Mn1 O29 2.044544 1_555
Mn1 O16 2.044590 1_555
Mn1 O22 2.044723 1_555
Mn1 O11 2.315192 1_555
Mn1 O14 2.315402 1_555
Mn2 O24 2.044524 1_555
Mn2 O31 2.044544 1_554
Mn2 O18 2.044590 1_445
Mn2 O21 2.044723 1_444
Mn2 O8 2.315192 1_555
Mn2 O13 2.315402 1_444
Mn3 O26 2.044524 1_555
Mn3 O28 2.044544 1_555
Mn3 O17 2.044590 1_555
Mn3 O23 2.044723 1_555
Mn3 O10 2.315192 1_555
Mn3 O15 2.315402 1_555
O0 Y11 2.225499 1_545
O0 Y4 2.225645 1_555
O0 Y2 2.238158 1_555
O1 Y10 2.225499 1_555
O1 Y5 2.225645 1_565
O1 Y3 2.238158 1_555
O2 Y8 2.225499 1_555
O2 Y6 2.225645 1_655
O2 Y1 2.238158 1_554
O3 Y9 2.225499 1_555
O3 Y7 2.225645 1_565
O3 Y0 2.238158 1_564
O4 Y7 2.225570 1_555
O4 Y8 2.225697 1_455
O4 Y2 2.238199 1_555
O5 Y6 2.225570 1_655
O5 Y9 2.225697 1_555
O5 Y3 2.238199 1_555
O6 Y4 2.225570 1_555
O6 Y10 2.225697 1_455
O6 Y1 2.238199 1_455
O7 Y5 2.225570 1_555
O7 Y11 2.225697 1_545
O7 Y0 2.238199 1_555
O8 Y6 2.152740 1_545
O8 Y8 2.152757 1_455
O9 Y7 2.152740 1_555
O9 Y9 2.152757 1_555
O10 Y5 2.152740 1_555
O10 Y10 2.152757 1_555
O11 Y4 2.152740 1_555
O11 Y11 2.152757 1_555
O12 Y4 2.152725 1_555
O12 Y10 2.152728 1_555
O13 Y5 2.152725 1_565
O13 Y11 2.152728 1_655
O14 Y6 2.152725 1_555
O14 Y9 2.152728 1_555
O15 Y7 2.152725 1_555
O15 Y8 2.152728 1_555
O16 Y2 2.298747 1_555
O16 Y4 2.417100 1_555
O17 Y3 2.298747 1_545
O17 Y5 2.417100 1_555
O18 Y1 2.298747 1_554
O18 Y6 2.417100 1_655
O19 Y0 2.298747 1_554
O19 Y7 2.417100 1_555
O20 Y1 2.298782 1_455
O20 Y4 2.417527 1_555
O21 Y0 2.298782 1_565
O21 Y5 2.417527 1_565
O22 Y3 2.298782 1_455
O22 Y6 2.417527 1_555
O23 Y2 2.298782 1_555
O23 Y7 2.417527 1_555
O24 Y1 2.298782 1_454
O24 Y8 2.417530 1_455
O25 Y0 2.298782 1_564
O25 Y9 2.417530 1_555
O26 Y3 2.298782 1_555
O26 Y10 2.417530 1_555
O27 Y2 2.298782 1_565
O27 Y11 2.417530 1_555
O28 Y2 2.298756 1_655
O28 Y8 2.417065 1_555
O29 Y3 2.298756 1_555
O29 Y9 2.417065 1_555
O30 Y1 2.298756 1_555
O30 Y10 2.417065 1_555
O31 Y0 2.298756 1_555
O31 Y11 2.417065 1_545
