# generated using pymatgen
data_Bi4(B2O5)3
_symmetry_space_group_name_H-M   'P 1'
_cell_length_a   6.42430778
_cell_length_b   6.42430778
_cell_length_c   19.55404618
_cell_angle_alpha   82.76943033
_cell_angle_beta   82.76943033
_cell_angle_gamma   41.49453198
_symmetry_Int_Tables_number   1
_chemical_formula_structural   Bi4(B2O5)3
_chemical_formula_sum   'Bi8 B12 O30'
_cell_volume   529.83108849
_cell_formula_units_Z   2
loop_
 _symmetry_equiv_pos_site_id
 _symmetry_equiv_pos_as_xyz
  1  'x, y, z'
loop_
 _atom_site_type_symbol
 _atom_site_label
 _atom_site_symmetry_multiplicity
 _atom_site_fract_x
 _atom_site_fract_y
 _atom_site_fract_z
 _atom_site_occupancy
  Bi  Bi0  1  0.65413800  0.05753700  0.30001300  1
  Bi  Bi1  1  0.68200400  0.05699500  0.09486700  1
  Bi  Bi2  1  0.05753700  0.65413800  0.80001300  1
  Bi  Bi3  1  0.05699500  0.68200400  0.59486700  1
  Bi  Bi4  1  0.94300500  0.31799600  0.40513300  1
  Bi  Bi5  1  0.94246300  0.34586200  0.19998700  1
  Bi  Bi6  1  0.31799600  0.94300500  0.90513300  1
  Bi  Bi7  1  0.34586200  0.94246300  0.69998700  1
  B  B0  1  0.19308100  0.60652700  0.41197000  1
  B  B1  1  0.20901200  0.66217500  0.19521600  1
  B  B2  1  0.62540400  0.03425300  0.47217100  1
  B  B3  1  0.60652700  0.19308100  0.91197000  1
  B  B4  1  0.66217500  0.20901200  0.69521600  1
  B  B5  1  0.03425300  0.62540400  0.97217100  1
  B  B6  1  0.96574700  0.37459600  0.02782900  1
  B  B7  1  0.33782500  0.79098800  0.30478400  1
  B  B8  1  0.39347300  0.80691900  0.08803000  1
  B  B9  1  0.37459600  0.96574700  0.52782900  1
  B  B10  1  0.79098800  0.33782500  0.80478400  1
  B  B11  1  0.80691900  0.39347300  0.58803000  1
  O  O0  1  0.17612400  0.80288300  0.12529800  1
  O  O1  1  0.51413800  0.30985600  0.43458700  1
  O  O2  1  0.51643000  0.33864100  0.19878100  1
  O  O3  1  0.96895600  0.77237100  0.47181000  1
  O  O4  1  0.80288300  0.17612400  0.62529800  1
  O  O5  1  0.30985600  0.51413800  0.93458700  1
  O  O6  1  0.09537700  0.53978400  0.36200500  1
  O  O7  1  0.33864100  0.51643000  0.69878100  1
  O  O8  1  0.77237100  0.96895600  0.97181000  1
  O  O9  1  0.94238400  0.70873900  0.20607600  1
  O  O10  1  0.06695900  0.51299700  0.04813200  1
  O  O11  1  0.48700300  0.93304100  0.45186800  1
  O  O12  1  0.53978400  0.09537700  0.86200500  1
  O  O13  1  0.70873900  0.94238400  0.70607600  1
  O  O14  1  0.29126100  0.05761600  0.29392400  1
  O  O15  1  0.46021600  0.90462300  0.13799500  1
  O  O16  1  0.51299700  0.06695900  0.54813200  1
  O  O17  1  0.93304100  0.48700300  0.95186800  1
  O  O18  1  0.05761600  0.29126100  0.79392400  1
  O  O19  1  0.22762900  0.03104400  0.02819000  1
  O  O20  1  0.66135900  0.48357000  0.30121900  1
  O  O21  1  0.90462300  0.46021600  0.63799500  1
  O  O22  1  0.69014400  0.48586200  0.06541300  1
  O  O23  1  0.19711700  0.82387600  0.37470200  1
  O  O24  1  0.14534600  0.85465400  0.25000000  1
  O  O25  1  0.03104400  0.22762900  0.52819000  1
  O  O26  1  0.48357000  0.66135900  0.80121900  1
  O  O27  1  0.48586200  0.69014400  0.56541300  1
  O  O28  1  0.82387600  0.19711700  0.87470200  1
  O  O29  1  0.85465400  0.14534600  0.75000000  1
loop_
_geom_bond_atom_site_label_1
_geom_bond_atom_site_label_2
_geom_bond_distance
_geom_bond_site_symmetry_2
Bi0 O2 2.260524 1_555
Bi0 O14 2.348810 1_555
Bi0 O9 2.405841 1_545
Bi0 O24 2.448668 1_645
Bi0 O6 2.508758 1_645
Bi0 O6 2.672718 1_555
Bi0 O20 2.774963 1_555
Bi1 O15 2.297537 1_545
Bi1 O0 2.358749 1_645
Bi1 O8 2.438459 1_544
Bi1 O2 2.456079 1_555
Bi1 O10 2.540186 1_645
Bi1 O9 2.572369 1_545
Bi1 O22 2.781050 1_555
Bi1 O10 2.815034 1_555
Bi2 O7 2.260524 1_555
Bi2 O18 2.348810 1_555
Bi2 O13 2.405841 1_455
Bi2 O29 2.448668 1_465
Bi2 O12 2.508758 1_465
Bi2 O12 2.672718 1_555
Bi2 O26 2.774963 1_555
Bi3 O21 2.297537 1_455
Bi3 O4 2.358749 1_465
Bi3 O3 2.438459 1_455
Bi3 O7 2.456079 1_555
Bi3 O16 2.540186 1_465
Bi3 O13 2.572369 1_455
Bi3 O27 2.781050 1_555
Bi3 O16 2.815034 1_555
Bi4 O6 2.297537 1_655
Bi4 O23 2.358749 1_645
Bi4 O25 2.438459 1_655
Bi4 O20 2.456079 1_555
Bi4 O11 2.540186 1_645
Bi4 O14 2.572369 1_655
Bi4 O1 2.781050 1_555
Bi4 O11 2.815034 1_555
Bi5 O20 2.260524 1_555
Bi5 O9 2.348810 1_555
Bi5 O14 2.405841 1_655
Bi5 O24 2.448668 1_645
Bi5 O15 2.508758 1_645
Bi5 O15 2.672718 1_555
Bi5 O2 2.774963 1_555
Bi6 O12 2.297537 1_565
Bi6 O28 2.358749 1_465
Bi6 O19 2.438459 1_566
Bi6 O26 2.456079 1_555
Bi6 O17 2.540186 1_465
Bi6 O18 2.572369 1_565
Bi6 O5 2.781050 1_555
Bi6 O17 2.815034 1_555
Bi7 O26 2.260524 1_555
Bi7 O13 2.348810 1_555
Bi7 O18 2.405841 1_565
Bi7 O29 2.448668 1_465
Bi7 O21 2.508758 1_465
Bi7 O21 2.672718 1_555
Bi7 O7 2.774963 1_555
B0 O3 1.472790 1_455
B0 O6 1.481687 1_555
B0 O1 1.486882 1_555
B0 O23 1.508234 1_555
B1 O2 1.440230 1_555
B1 O0 1.485414 1_555
B1 O9 1.491791 1_455
B1 O24 1.519675 1_555
B2 O1 1.447305 1_555
B2 O3 1.462291 1_545
B2 O16 1.533993 1_555
B2 O11 1.546235 1_545
B3 O8 1.472790 1_545
B3 O12 1.481687 1_555
B3 O5 1.486882 1_555
B3 O28 1.508234 1_555
B4 O7 1.440230 1_555
B4 O4 1.485414 1_555
B4 O13 1.491791 1_545
B4 O29 1.519675 1_555
B5 O5 1.447305 1_555
B5 O8 1.462291 1_455
B5 O10 1.533993 1_556
B5 O17 1.546235 1_455
B6 O22 1.447305 1_555
B6 O19 1.462291 1_655
B6 O17 1.533993 1_554
B6 O10 1.546235 1_655
B7 O20 1.440230 1_555
B7 O23 1.485414 1_555
B7 O14 1.491791 1_565
B7 O24 1.519675 1_555
B8 O19 1.472790 1_565
B8 O15 1.481687 1_555
B8 O22 1.486882 1_555
B8 O0 1.508234 1_555
B9 O27 1.447305 1_555
B9 O25 1.462291 1_565
B9 O11 1.533993 1_555
B9 O16 1.546235 1_565
B10 O26 1.440230 1_555
B10 O28 1.485414 1_555
B10 O18 1.491791 1_655
B10 O29 1.519675 1_555
B11 O25 1.472790 1_655
B11 O21 1.481687 1_555
B11 O27 1.486882 1_555
B11 O4 1.508234 1_555
