# generated using pymatgen
data_Na10Zn7Sn7H24(S13O6)2
_symmetry_space_group_name_H-M   'P 1'
_cell_length_a   12.58142430
_cell_length_b   12.58142430
_cell_length_c   12.58142431
_cell_angle_alpha   59.96418079
_cell_angle_beta   59.96418077
_cell_angle_gamma   59.96418100
_symmetry_Int_Tables_number   1
_chemical_formula_structural   Na10Zn7Sn7H24(S13O6)2
_chemical_formula_sum   'Na10 Zn7 Sn7 H24 S26 O12'
_cell_volume   1407.08881792
_cell_formula_units_Z   1
loop_
 _symmetry_equiv_pos_site_id
 _symmetry_equiv_pos_as_xyz
  1  'x, y, z'
loop_
 _atom_site_type_symbol
 _atom_site_label
 _atom_site_symmetry_multiplicity
 _atom_site_fract_x
 _atom_site_fract_y
 _atom_site_fract_z
 _atom_site_occupancy
  Na  Na0  1  0.74912237  0.74912237  0.74912237  1
  Na  Na1  1  0.64573248  0.64573248  0.64573248  1
  Na  Na2  1  0.65226304  0.65297183  0.05233922  1
  Na  Na3  1  0.65297183  0.05233922  0.65226304  1
  Na  Na4  1  0.05233922  0.65226304  0.65297183  1
  Na  Na5  1  0.56189129  0.14266572  0.14346732  1
  Na  Na6  1  0.14266572  0.14346732  0.56189129  1
  Na  Na7  1  0.24917818  0.24917818  0.24917818  1
  Na  Na8  1  0.14346732  0.56189129  0.14266572  1
  Na  Na9  1  0.14757467  0.14757467  0.14757467  1
  Zn  Zn0  1  0.92372411  0.92372411  0.92372411  1
  Zn  Zn1  1  0.92215150  0.92384411  0.22513393  1
  Zn  Zn2  1  0.92384411  0.22513393  0.92215150  1
  Zn  Zn3  1  0.22513393  0.92215150  0.92384411  1
  Zn  Zn4  1  0.74197780  0.41931475  0.42130259  1
  Zn  Zn5  1  0.42130259  0.74197780  0.41931475  1
  Zn  Zn6  1  0.41931475  0.42130259  0.74197780  1
  Sn  Sn0  1  0.74930020  0.75163366  0.24912573  1
  Sn  Sn1  1  0.75163366  0.24912573  0.74930020  1
  Sn  Sn2  1  0.24912573  0.74930020  0.75163366  1
  Sn  Sn3  1  0.76325672  0.24969251  0.23870295  1
  Sn  Sn4  1  0.42864249  0.42864249  0.42864249  1
  Sn  Sn5  1  0.23870295  0.76325672  0.24969251  1
  Sn  Sn6  1  0.24969251  0.23870295  0.76325672  1
  H  H0  1  0.92769702  0.90217768  0.64774197  1
  H  H1  1  0.90217768  0.64774197  0.92769702  1
  H  H2  1  0.92702980  0.52624152  0.90320512  1
  H  H3  1  0.90320512  0.92702980  0.52624152  1
  H  H4  1  0.64774197  0.92769702  0.90217768  1
  H  H5  1  0.92791997  0.64416555  0.52507237  1
  H  H6  1  0.90070921  0.52316572  0.64655547  1
  H  H7  1  0.52624152  0.90320512  0.92702980  1
  H  H8  1  0.64416555  0.52507237  0.92791997  1
  H  H9  1  0.64655547  0.90070921  0.52316572  1
  H  H10  1  0.52507237  0.92791997  0.64416555  1
  H  H11  1  0.52316572  0.64655547  0.90070921  1
  H  H12  1  0.42346903  0.14151779  0.40654405  1
  H  H13  1  0.40654405  0.42346903  0.14151779  1
  H  H14  1  0.42923414  0.39922585  0.02158522  1
  H  H15  1  0.39922585  0.02158522  0.42923414  1
  H  H16  1  0.14151779  0.40654405  0.42346903  1
  H  H17  1  0.42815496  0.02300370  0.14518701  1
  H  H18  1  0.40523284  0.14384688  0.02341665  1
  H  H19  1  0.02158522  0.42923414  0.39922585  1
  H  H20  1  0.14518701  0.42815496  0.02300370  1
  H  H21  1  0.14384688  0.02341665  0.40523284  1
  H  H22  1  0.02300370  0.14518701  0.42815496  1
  H  H23  1  0.02341665  0.40523284  0.14384688  1
  S  S0  1  0.99932842  0.99932842  0.99932842  1
  S  S1  1  0.92732744  0.30605593  0.71059500  1
  S  S2  1  0.71059500  0.92732744  0.30605593  1
  S  S3  1  0.92471990  0.71261860  0.05605253  1
  S  S4  1  0.80513875  0.55807002  0.42664896  1
  S  S5  1  0.71261860  0.05605253  0.92471990  1
  S  S6  1  0.80546650  0.21047048  0.55592157  1
  S  S7  1  0.55807002  0.42664896  0.80513875  1
  S  S8  1  0.30605593  0.71059500  0.92732744  1
  S  S9  1  0.80068033  0.43162060  0.21105594  1
  S  S10  1  0.42664896  0.80513875  0.55807002  1
  S  S11  1  0.92825988  0.05289587  0.30497755  1
  S  S12  1  0.55592157  0.80546650  0.21047048  1
  S  S13  1  0.50615088  0.50615088  0.50615088  1
  S  S14  1  0.43162060  0.21105594  0.80068033  1
  S  S15  1  0.71161995  0.30403108  0.05573746  1
  S  S16  1  0.21047048  0.55592157  0.80546650  1
  S  S17  1  0.56309501  0.21142779  0.42457122  1
  S  S18  1  0.05605253  0.92471990  0.71261860  1
  S  S19  1  0.21105594  0.80068033  0.43162060  1
  S  S20  1  0.42457122  0.56309501  0.21142779  1
  S  S21  1  0.30497755  0.92825988  0.05289587  1
  S  S22  1  0.21142779  0.42457122  0.56309501  1
  S  S23  1  0.30403108  0.05573746  0.71161995  1
  S  S24  1  0.05289587  0.30497755  0.92825988  1
  S  S25  1  0.05573746  0.71161995  0.30403108  1
  O  O0  1  0.88118159  0.62057388  0.88133301  1
  O  O1  1  0.88133301  0.88118159  0.62057388  1
  O  O2  1  0.88437705  0.61663329  0.61985082  1
  O  O3  1  0.62057388  0.88133301  0.88118159  1
  O  O4  1  0.61985082  0.88437705  0.61663329  1
  O  O5  1  0.61663329  0.61985082  0.88437705  1
  O  O6  1  0.38289642  0.37864801  0.11611852  1
  O  O7  1  0.37864801  0.11611852  0.38289642  1
  O  O8  1  0.11611852  0.38289642  0.37864801  1
  O  O9  1  0.38137177  0.11736054  0.11800672  1
  O  O10  1  0.11736054  0.11800672  0.38137177  1
  O  O11  1  0.11800672  0.38137177  0.11736054  1
loop_
_geom_bond_atom_site_label_1
_geom_bond_atom_site_label_2
_geom_bond_distance
_geom_bond_site_symmetry_2
Na0 O5 2.328796 1_555
Na0 O2 2.328796 1_555
Na0 O4 2.328796 1_555
Na0 O1 2.350885 1_555
Na0 O3 2.350885 1_555
Na0 O0 2.350885 1_555
Na1 O4 2.700957 1_555
Na1 O2 2.700957 1_555
Na1 O5 2.700957 1_555
Na1 S7 2.851537 1_555
Na1 S4 2.851537 1_555
Na1 S10 2.851537 1_555
Na2 O3 2.563191 1_554
Na2 O0 2.567021 1_554
Na2 O5 2.618604 1_554
Na2 S12 2.861369 1_555
Na2 S9 2.861791 1_555
Na2 S20 2.954378 1_555
Na3 O1 2.563191 1_545
Na3 O3 2.567021 1_545
Na3 O4 2.618604 1_545
Na3 S6 2.861369 1_555
Na3 S14 2.861791 1_555
Na3 S17 2.954378 1_555
Na4 O0 2.563191 1_455
Na4 O1 2.567021 1_455
Na4 O2 2.618604 1_455
Na4 S16 2.861369 1_555
Na4 S19 2.861791 1_555
Na4 S22 2.954378 1_555
Na5 O9 2.629939 1_555
Na5 O6 2.657904 1_555
Na5 O7 2.704119 1_555
Na5 S5 2.840224 1_554
Na5 S2 2.869459 1_545
Na5 S15 2.896991 1_555
Na6 O10 2.629939 1_555
Na6 O7 2.657904 1_555
Na6 O8 2.704119 1_555
Na6 S18 2.840224 1_545
Na6 S1 2.869459 1_455
Na6 S23 2.896991 1_555
Na7 O10 2.339039 1_555
Na7 O9 2.339039 1_555
Na7 O11 2.339039 1_555
Na7 O6 2.341006 1_555
Na7 O8 2.341006 1_555
Na7 O7 2.341006 1_555
Na8 O11 2.629939 1_555
Na8 O8 2.657904 1_555
Na8 O6 2.704119 1_555
Na8 S3 2.840224 1_455
Na8 S8 2.869459 1_554
Na8 S25 2.896991 1_555
Na9 O11 2.619553 1_555
Na9 O9 2.619553 1_555
Na9 O10 2.619553 1_555
Na9 S11 2.900521 1_455
Na9 S24 2.900521 1_554
Na9 S21 2.900521 1_545
H0 O1 0.985464 1_555
H1 O0 0.985464 1_555
H2 O0 0.981657 1_555
H3 O1 0.981657 1_555
H4 O3 0.985464 1_555
H5 O2 0.982110 1_555
H6 O2 0.984715 1_555
H7 O3 0.981657 1_555
H8 O5 0.982110 1_555
H9 O4 0.984715 1_555
H10 O4 0.982110 1_555
H11 O5 0.984715 1_555
H12 O7 0.975791 1_555
H13 O6 0.975791 1_555
H14 O6 0.984985 1_555
H15 O7 0.984985 1_555
H16 O8 0.975791 1_555
H17 O9 0.984016 1_555
H18 O9 0.981296 1_555
H19 O8 0.984985 1_555
H20 O11 0.984016 1_555
H21 O10 0.981296 1_555
H22 O10 0.984016 1_555
H23 O11 0.981296 1_555
S0 Zn1 2.318712 1_556
S0 Zn2 2.318712 1_565
S0 Zn3 2.318712 1_655
S0 Zn0 2.330609 1_555
S1 Zn2 2.310431 1_555
S1 Sn1 2.407200 1_555
S2 Zn1 2.310431 1_555
S2 Sn0 2.407200 1_555
S3 Zn0 2.321036 1_554
S3 Sn0 2.398915 1_555
S4 Zn4 2.289854 1_555
S4 Sn0 2.413648 1_555
S5 Zn0 2.321036 1_545
S5 Sn1 2.398915 1_555
S6 Zn4 2.282293 1_555
S6 Sn1 2.412425 1_555
S7 Zn6 2.289854 1_555
S7 Sn1 2.413648 1_555
S8 Zn3 2.310431 1_555
S8 Sn2 2.407200 1_555
S9 Zn4 2.305486 1_555
S9 Sn3 2.387406 1_555
S10 Zn5 2.289854 1_555
S10 Sn2 2.413648 1_555
S11 Zn1 2.342281 1_545
S11 Sn3 2.378211 1_555
S12 Zn5 2.282293 1_555
S12 Sn0 2.412425 1_555
S13 Sn4 2.389305 1_555
S13 Zn6 2.426562 1_555
S13 Zn5 2.426562 1_555
S13 Zn4 2.426562 1_555
S14 Zn6 2.305486 1_555
S14 Sn6 2.387406 1_555
S15 Zn2 2.337477 1_554
S15 Sn3 2.380239 1_555
S16 Zn6 2.282293 1_555
S16 Sn2 2.412425 1_555
S17 Sn4 2.399621 1_555
S17 Sn3 2.496690 1_555
S18 Zn0 2.321036 1_455
S18 Sn2 2.398915 1_555
S19 Zn5 2.305486 1_555
S19 Sn5 2.387406 1_555
S20 Sn4 2.399621 1_555
S20 Sn5 2.496690 1_555
S21 Zn3 2.342281 1_554
S21 Sn5 2.378211 1_555
S22 Sn4 2.399621 1_555
S22 Sn6 2.496690 1_555
S23 Zn3 2.337477 1_545
S23 Sn6 2.380239 1_555
S24 Zn2 2.342281 1_455
S24 Sn6 2.378211 1_555
S25 Zn1 2.337477 1_455
S25 Sn5 2.380239 1_555
