# generated using pymatgen
data_Li3MnFeCo(PO4)3
_symmetry_space_group_name_H-M   'P 1'
_cell_length_a   6.07784800
_cell_length_b   10.43749900
_cell_length_c   14.27562807
_cell_angle_alpha   89.99426064
_cell_angle_beta   90.00000000
_cell_angle_gamma   90.00000000
_symmetry_Int_Tables_number   1
_chemical_formula_structural   Li3MnFeCo(PO4)3
_chemical_formula_sum   'Li12 Mn4 Fe4 Co4 P12 O48'
_cell_volume   905.61061410
_cell_formula_units_Z   4
loop_
 _symmetry_equiv_pos_site_id
 _symmetry_equiv_pos_as_xyz
  1  'x, y, z'
loop_
 _atom_site_type_symbol
 _atom_site_label
 _atom_site_symmetry_multiplicity
 _atom_site_fract_x
 _atom_site_fract_y
 _atom_site_fract_z
 _atom_site_occupancy
  Li  Li0  1  0.24929400  0.99617000  0.33281500  1
  Li  Li1  1  0.74925300  0.99693800  0.00025300  1
  Li  Li2  1  0.25074700  0.99693800  0.00025300  1
  Li  Li3  1  0.75067100  0.99992800  0.66653600  1
  Li  Li4  1  0.24932900  0.99992800  0.66653600  1
  Li  Li5  1  0.75070600  0.99617000  0.33281500  1
  Li  Li6  1  0.74912900  0.50107700  0.49961600  1
  Li  Li7  1  0.25087100  0.50107700  0.49961600  1
  Li  Li8  1  0.75120500  0.50253500  0.83311900  1
  Li  Li9  1  0.24879500  0.50253500  0.83311900  1
  Li  Li10  1  0.75148900  0.50436300  0.16737600  1
  Li  Li11  1  0.24851100  0.50436300  0.16737600  1
  Mn  Mn0  1  0.00000000  0.21801000  0.83968600  1
  Mn  Mn1  1  0.00000000  0.21845100  0.17355300  1
  Mn  Mn2  1  0.50000000  0.28131900  0.33989400  1
  Mn  Mn3  1  0.50000000  0.28165700  0.00650300  1
  Fe  Fe0  1  0.00000000  0.21847600  0.50796600  1
  Fe  Fe1  1  0.50000000  0.27975800  0.67218600  1
  Fe  Fe2  1  0.00000000  0.72421300  0.99571700  1
  Fe  Fe3  1  0.00000000  0.72000700  0.66067300  1
  Co  Co0  1  0.00000000  0.72293700  0.32763500  1
  Co  Co1  1  0.50000000  0.77702400  0.16062200  1
  Co  Co2  1  0.50000000  0.77988200  0.49446000  1
  Co  Co3  1  0.50000000  0.77709100  0.82560600  1
  P  P0  1  0.50000000  0.08936600  0.19415500  1
  P  P1  1  0.50000000  0.09057400  0.86019500  1
  P  P2  1  0.50000000  0.09217900  0.52685900  1
  P  P3  1  0.00000000  0.40665800  0.69277600  1
  P  P4  1  0.00000000  0.40857900  0.36254700  1
  P  P5  1  0.00000000  0.41064700  0.02758200  1
  P  P6  1  0.50000000  0.59719500  0.63847400  1
  P  P7  1  0.50000000  0.59873900  0.97166900  1
  P  P8  1  0.50000000  0.59823000  0.30635300  1
  P  P9  1  0.00000000  0.90171500  0.13914200  1
  P  P10  1  0.00000000  0.90167100  0.80589400  1
  P  P11  1  0.00000000  0.90357500  0.47330400  1
  O  O0  1  0.00000000  0.03917300  0.76395900  1
  O  O1  1  0.00000000  0.04214500  0.43254800  1
  O  O2  1  0.00000000  0.03942200  0.09823800  1
  O  O3  1  0.50000000  0.09622800  0.41944300  1
  O  O4  1  0.50000000  0.09457700  0.08660800  1
  O  O5  1  0.50000000  0.09712000  0.75263600  1
  O  O6  1  0.70212000  0.16067400  0.90584700  1
  O  O7  1  0.29788000  0.16067400  0.90584700  1
  O  O8  1  0.70188600  0.16423100  0.57217900  1
  O  O9  1  0.29811400  0.16423100  0.57217900  1
  O  O10  1  0.70235600  0.15969600  0.23951700  1
  O  O11  1  0.29764400  0.15969600  0.23951700  1
  O  O12  1  0.20248600  0.33829300  0.40814200  1
  O  O13  1  0.79751400  0.33829300  0.40814200  1
  O  O14  1  0.20304300  0.33648700  0.73774400  1
  O  O15  1  0.79695700  0.33648700  0.73774400  1
  O  O16  1  0.20194700  0.34015500  0.07285200  1
  O  O17  1  0.79805300  0.34015500  0.07285200  1
  O  O18  1  0.00000000  0.40190200  0.58512300  1
  O  O19  1  0.00000000  0.40511700  0.92019900  1
  O  O20  1  0.00000000  0.40265900  0.25489200  1
  O  O21  1  0.50000000  0.45884300  0.59899200  1
  O  O22  1  0.50000000  0.46051600  0.93096400  1
  O  O23  1  0.50000000  0.46026600  0.26479600  1
  O  O24  1  0.00000000  0.54569500  0.73306100  1
  O  O25  1  0.00000000  0.54957800  0.06784400  1
  O  O26  1  0.00000000  0.54782500  0.40136400  1
  O  O27  1  0.50000000  0.60137600  0.74645900  1
  O  O28  1  0.50000000  0.60143300  0.07968400  1
  O  O29  1  0.50000000  0.60155100  0.41406300  1
  O  O30  1  0.70386700  0.66847600  0.92693600  1
  O  O31  1  0.70304700  0.66760500  0.59278000  1
  O  O32  1  0.70435600  0.66863300  0.26182700  1
  O  O33  1  0.29564400  0.66863300  0.26182700  1
  O  O34  1  0.29613300  0.66847600  0.92693600  1
  O  O35  1  0.29695300  0.66760500  0.59278000  1
  O  O36  1  0.20362400  0.83127800  0.09426400  1
  O  O37  1  0.79637600  0.83127800  0.09426400  1
  O  O38  1  0.20334700  0.83088300  0.76134700  1
  O  O39  1  0.20377700  0.83322100  0.42805100  1
  O  O40  1  0.79665300  0.83088300  0.76134700  1
  O  O41  1  0.79622300  0.83322100  0.42805100  1
  O  O42  1  0.00000000  0.89904200  0.24731300  1
  O  O43  1  0.00000000  0.90035300  0.58126800  1
  O  O44  1  0.00000000  0.89981600  0.91383300  1
  O  O45  1  0.50000000  0.95050100  0.23378200  1
  O  O46  1  0.50000000  0.95166900  0.89943900  1
  O  O47  1  0.50000000  0.95394700  0.56763200  1
loop_
_geom_bond_atom_site_label_1
_geom_bond_atom_site_label_2
_geom_bond_distance
_geom_bond_site_symmetry_2
Li0 O45 2.132577 1_555
Li0 O1 2.133827 1_565
Li0 O11 2.184720 1_565
Li0 O42 2.193987 1_555
Li0 O39 2.194791 1_555
Li0 O3 2.223086 1_565
Li1 O2 2.115648 1_665
Li1 O46 2.142341 1_554
Li1 O6 2.195125 1_564
Li1 O4 2.203076 1_565
Li1 O37 2.207353 1_555
Li1 O44 2.207364 1_654
Li2 O2 2.115648 1_565
Li2 O46 2.142341 1_554
Li2 O7 2.195125 1_564
Li2 O4 2.203076 1_565
Li2 O36 2.207353 1_555
Li2 O44 2.207364 1_554
Li3 O0 2.097271 1_665
Li3 O47 2.131936 1_555
Li3 O8 2.200637 1_565
Li3 O43 2.204206 1_655
Li3 O5 2.204831 1_565
Li3 O40 2.241135 1_555
Li4 O0 2.097271 1_565
Li4 O47 2.131936 1_555
Li4 O9 2.200637 1_565
Li4 O43 2.204206 1_555
Li4 O5 2.204831 1_565
Li4 O38 2.241135 1_555
Li5 O45 2.132577 1_555
Li5 O1 2.133827 1_665
Li5 O10 2.184720 1_565
Li5 O42 2.193987 1_655
Li5 O41 2.194791 1_555
Li5 O3 2.223086 1_565
Li6 O21 2.121198 1_555
Li6 O26 2.128411 1_655
Li6 O13 2.163091 1_555
Li6 O31 2.206548 1_555
Li6 O29 2.209942 1_555
Li6 O18 2.210467 1_655
Li7 O21 2.121198 1_555
Li7 O26 2.128411 1_555
Li7 O12 2.163091 1_555
Li7 O35 2.206548 1_555
Li7 O29 2.209942 1_555
Li7 O18 2.210467 1_555
Li8 O22 2.115265 1_555
Li8 O24 2.128302 1_655
Li8 O19 2.205798 1_655
Li8 O30 2.208351 1_555
Li8 O27 2.219371 1_555
Li8 O15 2.221555 1_555
Li9 O22 2.115265 1_555
Li9 O24 2.128302 1_555
Li9 O19 2.205798 1_555
Li9 O34 2.208351 1_555
Li9 O27 2.219371 1_555
Li9 O14 2.221555 1_555
Li10 O23 2.117120 1_555
Li10 O25 2.126696 1_655
Li10 O17 2.199758 1_555
Li10 O32 2.200071 1_555
Li10 O28 2.220305 1_555
Li10 O20 2.229081 1_655
Li11 O23 2.117120 1_555
Li11 O25 2.126696 1_555
Li11 O16 2.199758 1_555
Li11 O33 2.200071 1_555
Li11 O28 2.220305 1_555
Li11 O20 2.229081 1_555
Mn0 O6 2.127882 1_455
Mn0 O7 2.127882 1_555
Mn0 O0 2.157153 1_555
Mn0 O19 2.266151 1_555
Mn0 O14 2.273676 1_555
Mn0 O15 2.273676 1_455
Mn1 O11 2.129632 1_555
Mn1 O10 2.129632 1_455
Mn1 O2 2.155948 1_555
Mn1 O20 2.246200 1_555
Mn1 O17 2.277364 1_455
Mn1 O16 2.277364 1_555
Mn2 O13 2.138392 1_555
Mn2 O12 2.138392 1_555
Mn2 O23 2.153476 1_555
Mn2 O3 2.240840 1_555
Mn2 O10 2.275478 1_555
Mn2 O11 2.275478 1_555
Mn3 O17 2.133462 1_555
Mn3 O16 2.133462 1_555
Mn3 O22 2.155821 1_554
Mn3 O4 2.262761 1_555
Mn3 O7 2.273497 1_554
Mn3 O6 2.273497 1_554
Fe0 O9 2.108012 1_555
Fe0 O8 2.108012 1_455
Fe0 O1 2.132328 1_555
Fe0 O18 2.208844 1_555
Fe0 O12 2.260300 1_555
Fe0 O13 2.260300 1_455
Fe1 O15 2.117568 1_555
Fe1 O14 2.117568 1_555
Fe1 O21 2.141334 1_555
Fe1 O5 2.225415 1_555
Fe1 O9 2.235656 1_555
Fe1 O8 2.235656 1_555
Fe2 O25 2.093382 1_556
Fe2 O30 2.131227 1_455
Fe2 O34 2.131227 1_555
Fe2 O44 2.173791 1_555
Fe2 O36 2.181717 1_556
Fe2 O37 2.181717 1_456
Fe3 O24 2.092285 1_555
Fe3 O35 2.120392 1_555
Fe3 O31 2.120392 1_455
Fe3 O43 2.197227 1_555
Fe3 O38 2.220941 1_555
Fe3 O40 2.220941 1_455
Co0 O33 2.105400 1_555
Co0 O32 2.105400 1_455
Co0 O26 2.109036 1_555
Co0 O42 2.166327 1_555
Co0 O39 2.216802 1_555
Co0 O41 2.216802 1_455
Co1 O45 2.090376 1_555
Co1 O36 2.112517 1_555
Co1 O37 2.112517 1_555
Co1 O28 2.166650 1_555
Co1 O32 2.215762 1_555
Co1 O33 2.215762 1_555
Co2 O47 2.095780 1_555
Co2 O41 2.109510 1_555
Co2 O39 2.109510 1_555
Co2 O29 2.186831 1_555
Co2 O31 2.205904 1_555
Co2 O35 2.205904 1_555
Co3 O38 2.099402 1_555
Co3 O40 2.099402 1_555
Co3 O46 2.105133 1_555
Co3 O27 2.154223 1_555
Co3 O34 2.216457 1_555
Co3 O30 2.216457 1_555
O0 P10 1.554973 1_545
O1 P11 1.558909 1_545
O2 P9 1.551350 1_545
O3 P2 1.534009 1_555
O4 P0 1.536259 1_555
O5 P1 1.536985 1_555
O6 P1 1.571389 1_555
O7 P1 1.571389 1_555
O8 P2 1.577925 1_555
O9 P2 1.577925 1_555
O10 P0 1.571919 1_555
O11 P0 1.571919 1_555
O12 P4 1.573635 1_555
O13 P4 1.573635 1_655
O14 P3 1.572050 1_555
O15 P3 1.572050 1_655
O16 P5 1.570164 1_555
O17 P5 1.570164 1_655
O18 P3 1.537621 1_555
O19 P5 1.534052 1_556
O20 P4 1.538091 1_555
O21 P6 1.550200 1_555
O22 P7 1.555385 1_555
O23 P8 1.557471 1_555
O24 P3 1.561050 1_555
O25 P5 1.559900 1_555
O26 P4 1.555488 1_555
O27 P6 1.542176 1_555
O28 P7 1.542241 1_554
O29 P8 1.538022 1_555
O30 P7 1.572519 1_555
O31 P6 1.577489 1_555
O32 P8 1.576893 1_555
O33 P8 1.576893 1_555
O34 P7 1.572519 1_555
O35 P6 1.577489 1_555
O36 P9 1.575653 1_555
O37 P9 1.575653 1_655
O38 P10 1.574131 1_555
O39 P11 1.578164 1_555
O40 P10 1.574131 1_655
O41 P11 1.578164 1_655
O42 P9 1.544458 1_555
O43 P11 1.541617 1_555
O44 P10 1.541017 1_555
O45 P0 1.555835 1_565
O46 P1 1.554245 1_565
O47 P2 1.555727 1_565
