# generated using pymatgen
data_Na3MnAsCO7
_symmetry_space_group_name_H-M   'P 1'
_cell_length_a   5.27860282
_cell_length_b   11.60382384
_cell_length_c   11.60407325
_cell_angle_alpha   105.35914166
_cell_angle_beta   90.20896054
_cell_angle_gamma   89.79798146
_symmetry_Int_Tables_number   1
_chemical_formula_structural   Na3MnAsCO7
_chemical_formula_sum   'Na12 Mn4 As4 C4 O28'
_cell_volume   685.37988652
_cell_formula_units_Z   4
loop_
 _symmetry_equiv_pos_site_id
 _symmetry_equiv_pos_as_xyz
  1  'x, y, z'
loop_
 _atom_site_type_symbol
 _atom_site_label
 _atom_site_symmetry_multiplicity
 _atom_site_fract_x
 _atom_site_fract_y
 _atom_site_fract_z
 _atom_site_occupancy
  Na  Na0  1  0.75937300  0.16490300  0.08511900  1
  Na  Na1  1  0.75937900  0.66491300  0.58511300  1
  Na  Na2  1  0.24062000  0.83509400  0.91487800  1
  Na  Na3  1  0.24061300  0.33509800  0.41488300  1
  Na  Na4  1  0.24639500  0.12857200  0.87460400  1
  Na  Na5  1  0.24638800  0.62855700  0.37460000  1
  Na  Na6  1  0.24637100  0.37534100  0.12143200  1
  Na  Na7  1  0.24638800  0.87534600  0.62143100  1
  Na  Na8  1  0.75361800  0.62465600  0.87857200  1
  Na  Na9  1  0.75362800  0.12465900  0.37856100  1
  Na  Na10  1  0.75360100  0.87143900  0.12539800  1
  Na  Na11  1  0.75360000  0.37143400  0.62539500  1
  Mn  Mn0  1  0.77817600  0.05126800  0.69874500  1
  Mn  Mn1  1  0.22182800  0.94872900  0.30125000  1
  Mn  Mn2  1  0.77821300  0.55127100  0.19876300  1
  Mn  Mn3  1  0.22180500  0.44871400  0.80123400  1
  As  As0  1  0.70138500  0.33133600  0.91872000  1
  As  As1  1  0.70139300  0.83134200  0.41871600  1
  As  As2  1  0.29860800  0.66866300  0.08127900  1
  As  As3  1  0.29861700  0.16866000  0.58128400  1
  C  C0  1  0.73380700  0.40400900  0.34598000  1
  C  C1  1  0.73381100  0.90400100  0.84597100  1
  C  C2  1  0.26618800  0.59599200  0.65402200  1
  C  C3  1  0.26618700  0.09599700  0.15402800  1
  O  O0  1  0.28911600  0.16595200  0.08407400  1
  O  O1  1  0.28909900  0.66595600  0.58407000  1
  O  O2  1  0.71089200  0.83404600  0.91592600  1
  O  O3  1  0.71089700  0.33404600  0.41593200  1
  O  O4  1  0.95732600  0.43373200  0.31621700  1
  O  O5  1  0.95732200  0.93372600  0.81621700  1
  O  O6  1  0.04267300  0.56627100  0.68378300  1
  O  O7  1  0.04267600  0.06626900  0.18378500  1
  O  O8  1  0.53294900  0.44553100  0.30441000  1
  O  O9  1  0.53294800  0.94552700  0.80441200  1
  O  O10  1  0.46704700  0.55446900  0.69559200  1
  O  O11  1  0.46704800  0.05447400  0.19559100  1
  O  O12  1  0.37481400  0.34115600  0.90890100  1
  O  O13  1  0.37482200  0.84116200  0.40889700  1
  O  O14  1  0.62518300  0.65884700  0.09109600  1
  O  O15  1  0.62518500  0.15883700  0.59110600  1
  O  O16  1  0.17321500  0.58295600  0.16700200  1
  O  O17  1  0.17320600  0.08295700  0.66700700  1
  O  O18  1  0.82678100  0.41704400  0.83299900  1
  O  O19  1  0.82680900  0.91704400  0.33299800  1
  O  O20  1  0.78710300  0.18259400  0.87403700  1
  O  O21  1  0.78710200  0.68259900  0.37402800  1
  O  O22  1  0.78719900  0.37595400  0.06747800  1
  O  O23  1  0.78719600  0.87594700  0.56747800  1
  O  O24  1  0.21279500  0.62404600  0.93252200  1
  O  O25  1  0.21280800  0.12405900  0.43252500  1
  O  O26  1  0.21290000  0.81740400  0.12596600  1
  O  O27  1  0.21289400  0.31740100  0.62597300  1
loop_
_geom_bond_atom_site_label_1
_geom_bond_atom_site_label_2
_geom_bond_distance
_geom_bond_site_symmetry_2
Na0 O7 2.350910 1_655
Na0 O0 2.482288 1_555
Na0 O22 2.515830 1_555
Na0 O20 2.516421 1_554
Na0 O11 2.562210 1_555
Na0 O0 2.796457 1_655
Na1 O6 2.350965 1_655
Na1 O1 2.482409 1_555
Na1 O23 2.515607 1_555
Na1 O21 2.516433 1_555
Na1 O10 2.562395 1_555
Na1 O1 2.796335 1_655
Na2 O5 2.350843 1_455
Na2 O2 2.482367 1_555
Na2 O24 2.515807 1_555
Na2 O26 2.516483 1_556
Na2 O9 2.562205 1_555
Na2 O2 2.796378 1_455
Na3 O4 2.350856 1_455
Na3 O3 2.482431 1_555
Na3 O25 2.515689 1_555
Na3 O27 2.516533 1_555
Na3 O8 2.562282 1_555
Na3 O3 2.796315 1_455
Na4 O17 2.356216 1_555
Na4 O0 2.363366 1_556
Na4 O12 2.488514 1_555
Na4 O20 2.502431 1_455
Na4 O9 2.555919 1_545
Na4 O5 2.665456 1_445
Na4 O20 2.924773 1_555
Na5 O16 2.356221 1_555
Na5 O1 2.363342 1_555
Na5 O13 2.488767 1_555
Na5 O21 2.502462 1_455
Na5 O8 2.555777 1_555
Na5 O4 2.665231 1_455
Na5 O21 2.924858 1_555
Na6 O16 2.356421 1_555
Na6 O0 2.362461 1_555
Na6 O12 2.488245 1_554
Na6 O22 2.501588 1_455
Na6 O8 2.555237 1_555
Na6 O4 2.665060 1_455
Na6 O22 2.925329 1_555
Na7 O17 2.356395 1_565
Na7 O1 2.362453 1_555
Na7 O13 2.488266 1_555
Na7 O23 2.501679 1_455
Na7 O9 2.555196 1_555
Na7 O5 2.665129 1_455
Na7 O23 2.925215 1_555
Na8 O18 2.356392 1_555
Na8 O2 2.362467 1_555
Na8 O14 2.488149 1_556
Na8 O24 2.501600 1_655
Na8 O10 2.555229 1_555
Na8 O6 2.665125 1_655
Na8 O24 2.925291 1_555
Na9 O19 2.356446 1_545
Na9 O3 2.362418 1_555
Na9 O15 2.488408 1_555
Na9 O25 2.501648 1_655
Na9 O11 2.555168 1_555
Na9 O7 2.664987 1_655
Na9 O25 2.925304 1_555
Na10 O19 2.356271 1_555
Na10 O2 2.363370 1_554
Na10 O14 2.488594 1_555
Na10 O26 2.502505 1_655
Na10 O11 2.555833 1_565
Na10 O7 2.665317 1_665
Na10 O26 2.924771 1_555
Na11 O18 2.356290 1_555
Na11 O3 2.363270 1_555
Na11 O15 2.488661 1_555
Na11 O27 2.502482 1_655
Na11 O10 2.555838 1_555
Na11 O6 2.665375 1_655
Na11 O27 2.924799 1_555
Mn0 O15 2.140509 1_555
Mn0 O17 2.168337 1_655
Mn0 O23 2.195343 1_545
Mn0 O20 2.195398 1_555
Mn0 O9 2.346149 1_545
Mn0 O5 2.362026 1_545
Mn1 O13 2.140567 1_555
Mn1 O19 2.168296 1_455
Mn1 O26 2.195324 1_555
Mn1 O25 2.195462 1_565
Mn1 O11 2.346095 1_565
Mn1 O7 2.361962 1_565
Mn2 O14 2.140885 1_555
Mn2 O16 2.168243 1_655
Mn2 O21 2.195172 1_555
Mn2 O22 2.195398 1_555
Mn2 O8 2.346093 1_555
Mn2 O4 2.361779 1_555
Mn3 O12 2.140690 1_555
Mn3 O18 2.168327 1_455
Mn3 O27 2.195062 1_555
Mn3 O24 2.195546 1_555
Mn3 O10 2.346106 1_555
Mn3 O6 2.361946 1_555
As0 O18 1.717615 1_555
As0 O20 1.724731 1_555
As0 O22 1.724969 1_556
As0 O12 1.732526 1_555
As1 O19 1.717579 1_555
As1 O21 1.724732 1_555
As1 O23 1.724991 1_555
As1 O13 1.732526 1_555
As2 O16 1.717617 1_555
As2 O26 1.724709 1_555
As2 O24 1.724957 1_554
As2 O14 1.732541 1_555
As3 O17 1.717620 1_555
As3 O27 1.724730 1_555
As3 O25 1.724966 1_555
As3 O15 1.732516 1_555
C0 O3 1.297347 1_555
C0 O4 1.303561 1_555
C0 O8 1.305662 1_555
C1 O2 1.297306 1_555
C1 O5 1.303495 1_555
C1 O9 1.305646 1_555
C2 O1 1.297357 1_555
C2 O6 1.303526 1_555
C2 O10 1.305672 1_555
C3 O0 1.297302 1_555
C3 O7 1.303518 1_555
C3 O11 1.305643 1_555
