# generated using pymatgen
data_LiCoO2
_symmetry_space_group_name_H-M   'P 1'
_cell_length_a   2.93855004
_cell_length_b   2.93855004
_cell_length_c   9.85992500
_cell_angle_alpha   90.00000000
_cell_angle_beta   90.00000000
_cell_angle_gamma   120.00000097
_symmetry_Int_Tables_number   1
_chemical_formula_structural   LiCoO2
_chemical_formula_sum   'Li2 Co2 O4'
_cell_volume   73.73444592
_cell_formula_units_Z   2
loop_
 _symmetry_equiv_pos_site_id
 _symmetry_equiv_pos_as_xyz
  1  'x, y, z'
loop_
 _atom_site_type_symbol
 _atom_site_label
 _atom_site_symmetry_multiplicity
 _atom_site_fract_x
 _atom_site_fract_y
 _atom_site_fract_z
 _atom_site_occupancy
  Li  Li0  1  0.66666700  0.33333300  0.25820800  1
  Li  Li1  1  0.33333300  0.66666700  0.75820800  1
  Co  Co0  1  0.66666700  0.33333300  0.00051300  1
  Co  Co1  1  0.33333300  0.66666700  0.50051300  1
  O  O0  1  0.00000000  0.00000000  0.88676700  1
  O  O1  1  0.00000000  0.00000000  0.38676700  1
  O  O2  1  0.66666700  0.33333300  0.61344300  1
  O  O3  1  0.33333300  0.66666700  0.11344300  1
loop_
_geom_bond_atom_site_label_1
_geom_bond_atom_site_label_2
_geom_bond_distance
_geom_bond_site_symmetry_2
Li0 O1 2.117810 1_655
Li0 O1 2.117812 1_665
Li0 O1 2.117812 1_555
Li0 O3 2.217148 1_655
Li0 O3 2.217148 1_545
Li0 O3 2.217152 1_555
Li1 O0 2.117810 1_565
Li1 O0 2.117812 1_665
Li1 O0 2.117812 1_555
Li1 O2 2.217148 1_455
Li1 O2 2.217148 1_565
Li1 O2 2.217152 1_555
Co0 O3 2.029333 1_545
Co0 O3 2.029333 1_655
Co0 O3 2.029338 1_555
Co0 O0 2.033759 1_654
Co0 O0 2.033761 1_554
Co0 O0 2.033761 1_664
Co1 O2 2.029333 1_565
Co1 O2 2.029333 1_455
Co1 O2 2.029338 1_555
Co1 O1 2.033759 1_565
Co1 O1 2.033761 1_555
Co1 O1 2.033761 1_665
