# generated using pymatgen
data_ZrCrO4
_symmetry_space_group_name_H-M   'P 1'
_cell_length_a   4.76026501
_cell_length_b   11.85372402
_cell_length_c   4.93879501
_cell_angle_alpha   90.00408164
_cell_angle_beta   90.00315417
_cell_angle_gamma   89.99485756
_symmetry_Int_Tables_number   1
_chemical_formula_structural   ZrCrO4
_chemical_formula_sum   'Zr4 Cr4 O16'
_cell_volume   278.68072983
_cell_formula_units_Z   4
loop_
 _symmetry_equiv_pos_site_id
 _symmetry_equiv_pos_as_xyz
  1  'x, y, z'
loop_
 _atom_site_type_symbol
 _atom_site_label
 _atom_site_symmetry_multiplicity
 _atom_site_fract_x
 _atom_site_fract_y
 _atom_site_fract_z
 _atom_site_occupancy
  Zr  Zr0  1  0.99993000  0.17133000  0.25001800  1
  Zr  Zr1  1  0.99998900  0.82866500  0.74989600  1
  Zr  Zr2  1  0.49998400  0.67133700  0.25011000  1
  Zr  Zr3  1  0.50005700  0.32866400  0.75008100  1
  Cr  Cr0  1  0.00002900  0.43349900  0.25002400  1
  Cr  Cr1  1  0.00001800  0.56650200  0.74998900  1
  Cr  Cr2  1  0.50000300  0.06649300  0.75003700  1
  Cr  Cr3  1  0.49997400  0.93352000  0.25001300  1
  O  O0  1  0.22144400  0.31568800  0.41009300  1
  O  O1  1  0.22146000  0.68431100  0.91010900  1
  O  O2  1  0.27618700  0.05481400  0.43187300  1
  O  O3  1  0.27615600  0.94518700  0.93196200  1
  O  O4  1  0.22386600  0.44513700  0.93195600  1
  O  O5  1  0.22384000  0.55486100  0.43194500  1
  O  O6  1  0.27854700  0.18427900  0.91009100  1
  O  O7  1  0.27850600  0.81568300  0.41016600  1
  O  O8  1  0.72148900  0.18430000  0.58984400  1
  O  O9  1  0.72143300  0.81572800  0.08991300  1
  O  O10  1  0.77617600  0.44517400  0.56800900  1
  O  O11  1  0.77623200  0.55483400  0.06802800  1
  O  O12  1  0.72385000  0.05481600  0.06805400  1
  O  O13  1  0.72384000  0.94518000  0.56812600  1
  O  O14  1  0.77849800  0.68435800  0.58984400  1
  O  O15  1  0.77849600  0.31563700  0.08981800  1
loop_
_geom_bond_atom_site_label_1
_geom_bond_atom_site_label_2
_geom_bond_distance
_geom_bond_site_symmetry_2
Cr0 O10 1.902928 1_455
Cr0 O4 1.903222 1_554
Cr0 O0 1.919865 1_555
Cr0 O15 1.920947 1_455
Cr0 O11 2.002818 1_455
Cr0 O5 2.002962 1_555
Cr1 O11 1.902994 1_456
Cr1 O5 1.903057 1_555
Cr1 O1 1.920077 1_555
Cr1 O14 1.920682 1_455
Cr1 O10 2.002882 1_455
Cr1 O4 2.003138 1_555
Cr2 O12 1.902964 1_556
Cr2 O2 1.903480 1_555
Cr2 O6 1.919692 1_555
Cr2 O8 1.920453 1_555
Cr2 O13 2.002504 1_545
Cr2 O3 2.002730 1_545
Cr3 O3 1.903016 1_554
Cr3 O13 1.903389 1_555
Cr3 O9 1.919845 1_555
Cr3 O7 1.920584 1_555
Cr3 O2 2.002103 1_565
Cr3 O12 2.002794 1_565
O0 Zr3 2.145202 1_555
O0 Zr0 2.159881 1_455
O1 Zr2 2.144989 1_556
O1 Zr1 2.159932 1_455
O2 Zr0 2.107921 1_455
O3 Zr1 2.108215 1_455
O4 Zr3 2.107411 1_555
O5 Zr2 2.107449 1_555
O6 Zr0 2.145086 1_456
O6 Zr3 2.160140 1_555
O7 Zr1 2.144024 1_455
O7 Zr2 2.159543 1_555
O8 Zr0 2.144162 1_555
O8 Zr3 2.159932 1_555
O9 Zr1 2.145245 1_554
O9 Zr2 2.160392 1_555
O10 Zr3 2.108138 1_555
O11 Zr2 2.108249 1_555
O12 Zr0 2.107680 1_555
O13 Zr1 2.107413 1_555
O14 Zr2 2.143967 1_555
O14 Zr1 2.159307 1_555
O15 Zr3 2.143763 1_554
O15 Zr0 2.159382 1_555
