# generated using pymatgen
data_Li2BiBO4
_symmetry_space_group_name_H-M   'P 1'
_cell_length_a   5.02522700
_cell_length_b   7.18828100
_cell_length_c   11.11981713
_cell_angle_alpha   88.69433585
_cell_angle_beta   90.00000000
_cell_angle_gamma   90.00000000
_symmetry_Int_Tables_number   1
_chemical_formula_structural   Li2BiBO4
_chemical_formula_sum   'Li8 Bi4 B4 O16'
_cell_volume   401.57401384
_cell_formula_units_Z   4
loop_
 _symmetry_equiv_pos_site_id
 _symmetry_equiv_pos_as_xyz
  1  'x, y, z'
loop_
 _atom_site_type_symbol
 _atom_site_label
 _atom_site_symmetry_multiplicity
 _atom_site_fract_x
 _atom_site_fract_y
 _atom_site_fract_z
 _atom_site_occupancy
  Li  Li0  1  0.34795800  0.08505100  0.79947200  1
  Li  Li1  1  0.15204200  0.08505100  0.29947200  1
  Li  Li2  1  0.21948400  0.18765800  0.57224700  1
  Li  Li3  1  0.28051600  0.18765800  0.07224700  1
  Li  Li4  1  0.71948400  0.81234200  0.92775300  1
  Li  Li5  1  0.78051600  0.81234200  0.42775300  1
  Li  Li6  1  0.84795800  0.91494900  0.70052800  1
  Li  Li7  1  0.65204200  0.91494900  0.20052800  1
  Bi  Bi0  1  0.23499300  0.50306900  0.86819300  1
  Bi  Bi1  1  0.73499300  0.49693100  0.63180700  1
  Bi  Bi2  1  0.26500700  0.50306900  0.36819300  1
  Bi  Bi3  1  0.76500700  0.49693100  0.13180700  1
  B  B0  1  0.79297800  0.17360200  0.91776700  1
  B  B1  1  0.70702200  0.17360200  0.41776700  1
  B  B2  1  0.29297800  0.82639800  0.58223300  1
  B  B3  1  0.20702200  0.82639800  0.08223300  1
  O  O0  1  0.71806700  0.04447000  0.83540700  1
  O  O1  1  0.78193300  0.04447000  0.33540700  1
  O  O2  1  0.06626400  0.22587100  0.92294000  1
  O  O3  1  0.43373600  0.22587100  0.42294000  1
  O  O4  1  0.88581400  0.24997500  0.49697900  1
  O  O5  1  0.35005400  0.38498000  0.68988400  1
  O  O6  1  0.61418600  0.24997500  0.99697900  1
  O  O7  1  0.14994600  0.38498000  0.18988400  1
  O  O8  1  0.85005400  0.61502000  0.81011600  1
  O  O9  1  0.38581400  0.75002500  0.00302100  1
  O  O10  1  0.64994600  0.61502000  0.31011600  1
  O  O11  1  0.11418600  0.75002500  0.50302100  1
  O  O12  1  0.56626400  0.77412900  0.57706000  1
  O  O13  1  0.93373600  0.77412900  0.07706000  1
  O  O14  1  0.21806700  0.95553000  0.66459300  1
  O  O15  1  0.28193300  0.95553000  0.16459300  1
loop_
_geom_bond_atom_site_label_1
_geom_bond_atom_site_label_2
_geom_bond_distance
_geom_bond_site_symmetry_2
Li0 O14 1.898949 1_545
Li0 O0 1.923178 1_555
Li0 O2 2.230878 1_555
Li0 O5 2.452261 1_555
Li1 O15 1.898949 1_545
Li1 O1 1.923178 1_455
Li1 O3 2.230878 1_555
Li1 O7 2.452261 1_555
Li2 O4 1.922404 1_455
Li2 O14 1.939242 1_545
Li2 O3 1.992577 1_555
Li2 O5 2.058661 1_555
Li3 O6 1.922404 1_554
Li3 O15 1.939242 1_545
Li3 O2 1.992577 1_554
Li3 O7 2.058661 1_555
Li4 O9 1.922404 1_556
Li4 O0 1.939242 1_565
Li4 O13 1.992577 1_556
Li4 O8 2.058661 1_555
Li5 O11 1.922404 1_655
Li5 O1 1.939242 1_565
Li5 O12 1.992577 1_555
Li5 O10 2.058661 1_555
Li6 O0 1.898949 1_565
Li6 O14 1.923178 1_655
Li6 O12 2.230878 1_555
Li6 O8 2.452261 1_555
Li7 O1 1.898949 1_565
Li7 O15 1.923178 1_555
Li7 O13 2.230878 1_555
Li7 O10 2.452261 1_555
Bi0 O8 2.186986 1_455
Bi0 O2 2.237103 1_555
Bi0 O5 2.250097 1_555
Bi0 O9 2.468765 1_556
Bi1 O5 2.186986 1_555
Bi1 O12 2.237103 1_555
Bi1 O8 2.250097 1_555
Bi1 O4 2.468765 1_555
Bi2 O10 2.186986 1_555
Bi2 O3 2.237103 1_555
Bi2 O7 2.250097 1_555
Bi2 O11 2.468765 1_555
Bi3 O7 2.186986 1_655
Bi3 O13 2.237103 1_555
Bi3 O10 2.250097 1_555
Bi3 O6 2.468765 1_554
B0 O0 1.371429 1_555
B0 O6 1.380770 1_555
B0 O2 1.425301 1_655
B1 O1 1.371429 1_555
B1 O4 1.380770 1_555
B1 O3 1.425301 1_555
B2 O14 1.371429 1_555
B2 O11 1.380770 1_555
B2 O12 1.425301 1_555
B3 O15 1.371429 1_555
B3 O9 1.380770 1_555
B3 O13 1.425301 1_455
