# generated using pymatgen
data_Sr2CaI6
_symmetry_space_group_name_H-M   'P 1'
_cell_length_a   8.05950600
_cell_length_b   8.05950600
_cell_length_c   23.95319200
_cell_angle_alpha   90.00000000
_cell_angle_beta   90.00000000
_cell_angle_gamma   90.00000000
_symmetry_Int_Tables_number   1
_chemical_formula_structural   Sr2CaI6
_chemical_formula_sum   'Sr8 Ca4 I24'
_cell_volume   1555.89484368
_cell_formula_units_Z   4
loop_
 _symmetry_equiv_pos_site_id
 _symmetry_equiv_pos_as_xyz
  1  'x, y, z'
loop_
 _atom_site_type_symbol
 _atom_site_label
 _atom_site_symmetry_multiplicity
 _atom_site_fract_x
 _atom_site_fract_y
 _atom_site_fract_z
 _atom_site_occupancy
  Sr  Sr0  1  0.00000000  0.50000000  0.16490300  1
  Sr  Sr1  1  0.00000000  0.00000000  0.33258600  1
  Sr  Sr2  1  0.00000000  0.00000000  0.66741400  1
  Sr  Sr3  1  0.00000000  0.50000000  0.83509700  1
  Sr  Sr4  1  0.50000000  0.50000000  0.33258600  1
  Sr  Sr5  1  0.50000000  0.00000000  0.16490300  1
  Sr  Sr6  1  0.50000000  0.00000000  0.83509700  1
  Sr  Sr7  1  0.50000000  0.50000000  0.66741400  1
  Ca  Ca0  1  0.00000000  0.00000000  0.00000000  1
  Ca  Ca1  1  0.00000000  0.50000000  0.50000000  1
  Ca  Ca2  1  0.50000000  0.00000000  0.50000000  1
  Ca  Ca3  1  0.50000000  0.50000000  0.00000000  1
  I  I0  1  0.19737400  0.71281700  0.58557700  1
  I  I1  1  0.19918400  0.78903400  0.08395600  1
  I  I2  1  0.21096600  0.19918400  0.91604400  1
  I  I3  1  0.21281700  0.69737400  0.41442300  1
  I  I4  1  0.22637600  0.26087200  0.24977500  1
  I  I5  1  0.23912800  0.27362400  0.75022500  1
  I  I6  1  0.26087200  0.77362400  0.75022500  1
  I  I7  1  0.27362400  0.76087200  0.24977500  1
  I  I8  1  0.28903400  0.69918400  0.91604400  1
  I  I9  1  0.28718300  0.19737400  0.41442300  1
  I  I10  1  0.30081600  0.28903400  0.08395600  1
  I  I11  1  0.30262600  0.21281700  0.58557700  1
  I  I12  1  0.69737400  0.78718300  0.58557700  1
  I  I13  1  0.69918400  0.71096600  0.08395600  1
  I  I14  1  0.71096600  0.30081600  0.91604400  1
  I  I15  1  0.71281700  0.80262600  0.41442300  1
  I  I16  1  0.72637600  0.23912800  0.24977500  1
  I  I17  1  0.73912800  0.22637600  0.75022500  1
  I  I18  1  0.76087200  0.72637600  0.75022500  1
  I  I19  1  0.77362400  0.73912800  0.24977500  1
  I  I20  1  0.78718300  0.30262600  0.41442300  1
  I  I21  1  0.78903400  0.80081600  0.91604400  1
  I  I22  1  0.80081600  0.21096600  0.08395600  1
  I  I23  1  0.80262600  0.28718300  0.58557700  1
loop_
_geom_bond_atom_site_label_1
_geom_bond_atom_site_label_2
_geom_bond_distance
_geom_bond_site_symmetry_2
Ca0 I1 3.084186 1_545
Ca0 I22 3.084186 1_455
Ca0 I2 3.084186 1_554
Ca0 I21 3.084186 1_444
Ca1 I20 3.110339 1_455
Ca1 I0 3.110339 1_555
Ca1 I3 3.110339 1_555
Ca1 I23 3.110339 1_455
Ca2 I9 3.110339 1_555
Ca2 I12 3.110339 1_545
Ca2 I15 3.110339 1_545
Ca2 I11 3.110339 1_555
Ca3 I13 3.084186 1_555
Ca3 I10 3.084186 1_555
Ca3 I14 3.084186 1_554
Ca3 I8 3.084186 1_554
I0 Sr2 3.424939 1_565
I0 Sr7 3.568378 1_555
I1 Sr0 3.429721 1_555
I1 Sr5 3.539533 1_565
I2 Sr6 3.429721 1_555
I2 Sr3 3.539533 1_555
I3 Sr4 3.424939 1_555
I3 Sr1 3.568378 1_565
I4 Sr0 3.343043 1_555
I4 Sr1 3.418164 1_555
I4 Sr4 3.537253 1_555
I4 Sr5 3.662874 1_555
I5 Sr3 3.343043 1_555
I5 Sr7 3.418164 1_555
I5 Sr2 3.537253 1_555
I5 Sr6 3.662874 1_555
I6 Sr6 3.343043 1_565
I6 Sr2 3.418164 1_565
I6 Sr7 3.537253 1_555
I6 Sr3 3.662874 1_555
I7 Sr5 3.343043 1_565
I7 Sr4 3.418164 1_555
I7 Sr1 3.537253 1_565
I7 Sr0 3.662874 1_555
I8 Sr3 3.429721 1_555
I8 Sr6 3.539533 1_565
I9 Sr1 3.424939 1_555
I9 Sr4 3.568378 1_555
I10 Sr5 3.429721 1_555
I10 Sr0 3.539533 1_555
I11 Sr7 3.424939 1_555
I11 Sr2 3.568378 1_555
I12 Sr7 3.424939 1_555
I12 Sr2 3.568378 1_665
I13 Sr5 3.429721 1_565
I13 Sr0 3.539533 1_655
I14 Sr3 3.429721 1_655
I14 Sr6 3.539533 1_555
I15 Sr1 3.424939 1_665
I15 Sr4 3.568378 1_555
I16 Sr5 3.343043 1_555
I16 Sr4 3.418164 1_555
I16 Sr1 3.537253 1_655
I16 Sr0 3.662874 1_655
I17 Sr6 3.343043 1_555
I17 Sr2 3.418164 1_655
I17 Sr7 3.537253 1_555
I17 Sr3 3.662874 1_655
I18 Sr3 3.343043 1_655
I18 Sr7 3.418164 1_555
I18 Sr2 3.537253 1_665
I18 Sr6 3.662874 1_565
I19 Sr0 3.343043 1_655
I19 Sr1 3.418164 1_665
I19 Sr4 3.537253 1_555
I19 Sr5 3.662874 1_565
I20 Sr4 3.424939 1_555
I20 Sr1 3.568378 1_655
I21 Sr6 3.429721 1_565
I21 Sr3 3.539533 1_655
I22 Sr0 3.429721 1_655
I22 Sr5 3.539533 1_555
I23 Sr2 3.424939 1_655
I23 Sr7 3.568378 1_555
