# generated using pymatgen
data_LiFe(SiO3)2
_symmetry_space_group_name_H-M   'P 1'
_cell_length_a   5.24296400
_cell_length_b   9.07204012
_cell_length_c   18.46535766
_cell_angle_alpha   90.00700533
_cell_angle_beta   90.20090876
_cell_angle_gamma   90.00912611
_symmetry_Int_Tables_number   1
_chemical_formula_structural   LiFe(SiO3)2
_chemical_formula_sum   'Li8 Fe8 Si16 O48'
_cell_volume   878.28786628
_cell_formula_units_Z   8
loop_
 _symmetry_equiv_pos_site_id
 _symmetry_equiv_pos_as_xyz
  1  'x, y, z'
loop_
 _atom_site_type_symbol
 _atom_site_label
 _atom_site_symmetry_multiplicity
 _atom_site_fract_x
 _atom_site_fract_y
 _atom_site_fract_z
 _atom_site_occupancy
  Li  Li0  1  0.61928500  0.00131700  0.87577400  1
  Li  Li1  1  0.11791400  0.50050000  0.87614200  1
  Li  Li2  1  0.11918100  0.34257700  0.62597700  1
  Li  Li3  1  0.11876100  0.01101700  0.62371900  1
  Li  Li4  1  0.38025600  0.51032900  0.37681100  1
  Li  Li5  1  0.38146500  0.84325100  0.37538800  1
  Li  Li6  1  0.38020700  0.35394300  0.12452400  1
  Li  Li7  1  0.88162200  0.14841000  0.12460400  1
  Fe  Fe0  1  0.61278600  0.64174900  0.87473500  1
  Fe  Fe1  1  0.11349900  0.85965700  0.87484400  1
  Fe  Fe2  1  0.61522200  0.13223500  0.62559300  1
  Fe  Fe3  1  0.62285400  0.48707100  0.62577900  1
  Fe  Fe4  1  0.87747400  0.98796200  0.37514600  1
  Fe  Fe5  1  0.88443700  0.63290800  0.37673200  1
  Fe  Fe6  1  0.37785400  0.01920400  0.12445800  1
  Fe  Fe7  1  0.87545500  0.48279400  0.12436900  1
  Si  Si0  1  0.70782500  0.33855800  0.97242000  1
  Si  Si1  1  0.20800700  0.16181300  0.97251300  1
  Si  Si2  1  0.43972700  0.33836000  0.77490500  1
  Si  Si3  1  0.93420300  0.15901200  0.77274800  1
  Si  Si4  1  0.42762900  0.84053000  0.72705900  1
  Si  Si5  1  0.92842000  0.66523100  0.72622400  1
  Si  Si6  1  0.71190300  0.83688500  0.52692700  1
  Si  Si7  1  0.21041900  0.66644300  0.52626500  1
  Si  Si8  1  0.78847900  0.33682400  0.47368200  1
  Si  Si9  1  0.29027800  0.16647400  0.47434900  1
  Si  Si10  1  0.07079800  0.34314800  0.27329300  1
  Si  Si11  1  0.56958700  0.16264000  0.27420400  1
  Si  Si12  1  0.07537600  0.83790100  0.22633800  1
  Si  Si13  1  0.58034200  0.65888300  0.22820000  1
  Si  Si14  1  0.78546200  0.83165300  0.02610700  1
  Si  Si15  1  0.28503400  0.66819300  0.02597500  1
  O  O0  1  0.41528800  0.29040200  0.94826800  1
  O  O1  1  0.91616200  0.21030800  0.94839600  1
  O  O2  1  0.79212800  0.83166500  0.93624500  1
  O  O3  1  0.29134200  0.66802100  0.93604400  1
  O  O4  1  0.78614000  0.49073100  0.93120200  1
  O  O5  1  0.28755600  0.00964600  0.93172100  1
  O  O6  1  0.43745600  0.83025500  0.81648500  1
  O  O7  1  0.93456500  0.67027000  0.81564800  1
  O  O8  1  0.94578600  0.99622300  0.81006000  1
  O  O9  1  0.44325100  0.50337900  0.80953200  1
  O  O10  1  0.66767500  0.23094900  0.80537900  1
  O  O11  1  0.16630700  0.26765700  0.80023300  1
  O  O12  1  0.16070900  0.76816400  0.69649500  1
  O  O13  1  0.65591200  0.73408500  0.69494700  1
  O  O14  1  0.92070000  0.50368500  0.68787600  1
  O  O15  1  0.43744900  0.00444000  0.69288500  1
  O  O16  1  0.45287100  0.33757400  0.68494800  1
  O  O17  1  0.92619700  0.15771100  0.68422100  1
  O  O18  1  0.79711900  0.98919900  0.56578700  1
  O  O19  1  0.32137700  0.52457000  0.57065400  1
  O  O20  1  0.77653300  0.33892500  0.56358300  1
  O  O21  1  0.30966600  0.15238300  0.56254900  1
  O  O22  1  0.41186800  0.80162800  0.54693400  1
  O  O23  1  0.91254500  0.70433200  0.55405800  1
  O  O24  1  0.08829000  0.30133200  0.45346900  1
  O  O25  1  0.58781300  0.20452200  0.44636600  1
  O  O26  1  0.72503600  0.83818000  0.43711800  1
  O  O27  1  0.19206600  0.65304900  0.43824200  1
  O  O28  1  0.70181900  0.48870600  0.43490100  1
  O  O29  1  0.17897700  0.02500300  0.42998400  1
  O  O30  1  0.05083400  0.83917300  0.31526200  1
  O  O31  1  0.57710100  0.65852400  0.31614800  1
  O  O32  1  0.57669600  0.00350100  0.31538900  1
  O  O33  1  0.06215500  0.50499300  0.31033300  1
  O  O34  1  0.33923000  0.26944000  0.30219000  1
  O  O35  1  0.84369200  0.23272100  0.30373300  1
  O  O36  1  0.34678000  0.76551800  0.19932700  1
  O  O37  1  0.84632100  0.73233500  0.19435200  1
  O  O38  1  0.58110500  0.50074800  0.18719000  1
  O  O39  1  0.08429700  0.99848900  0.18779100  1
  O  O40  1  0.06022700  0.34633400  0.18485400  1
  O  O41  1  0.56336300  0.15290900  0.18581600  1
  O  O42  1  0.67323500  0.97583000  0.06674100  1
  O  O43  1  0.17233000  0.52440900  0.06642200  1
  O  O44  1  0.70603300  0.34846200  0.06113600  1
  O  O45  1  0.20634100  0.15171100  0.06135100  1
  O  O46  1  0.08935000  0.80538500  0.05102300  1
  O  O47  1  0.58854200  0.69505500  0.05090800  1
loop_
_geom_bond_atom_site_label_1
_geom_bond_atom_site_label_2
_geom_bond_distance
_geom_bond_site_symmetry_2
Li0 O5 2.027451 1_555
Li0 O8 2.102262 1_545
Li0 O2 2.104903 1_545
Li0 O6 2.123093 1_545
Li0 O10 2.469146 1_555
Li1 O4 2.019827 1_455
Li1 O3 2.086151 1_555
Li1 O9 2.106597 1_555
Li1 O7 2.130099 1_455
Li1 O11 2.548158 1_555
Li2 O16 2.057990 1_555
Li2 O14 2.129309 1_455
Li2 O20 2.131040 1_455
Li2 O19 2.213779 1_555
Li2 O17 2.236221 1_455
Li2 O21 2.314001 1_555
Li3 O21 1.982491 1_555
Li3 O18 2.003622 1_445
Li3 O17 2.011582 1_455
Li3 O15 2.100387 1_555
Li4 O27 1.986094 1_555
Li4 O28 2.004730 1_555
Li4 O31 2.033575 1_555
Li4 O33 2.067929 1_555
Li5 O30 2.055594 1_555
Li5 O32 2.096801 1_565
Li5 O26 2.128813 1_555
Li5 O29 2.206765 1_565
Li5 O31 2.250582 1_555
Li5 O27 2.306201 1_555
Li6 O40 2.018259 1_555
Li6 O38 2.052514 1_555
Li6 O44 2.074802 1_555
Li6 O43 2.173303 1_555
Li6 O41 2.350044 1_555
Li6 O45 2.355667 1_555
Li7 O41 2.019103 1_555
Li7 O45 2.068213 1_655
Li7 O39 2.081467 1_645
Li7 O42 2.185735 1_545
Li7 O40 2.308761 1_655
Li7 O44 2.346973 1_555
Fe0 O4 1.945348 1_555
Fe0 O9 1.951213 1_555
Fe0 O7 2.028899 1_555
Fe0 O3 2.047482 1_555
Fe0 O6 2.218225 1_555
Fe0 O2 2.265871 1_555
Fe1 O8 1.931972 1_455
Fe1 O5 1.944192 1_565
Fe1 O6 2.032291 1_555
Fe1 O2 2.049955 1_455
Fe1 O7 2.240251 1_455
Fe1 O3 2.272133 1_555
Fe2 O15 1.940351 1_555
Fe2 O18 1.954569 1_545
Fe2 O17 1.967525 1_555
Fe2 O21 1.985482 1_555
Fe2 O16 2.324332 1_555
Fe2 O20 2.355676 1_555
Fe3 O19 1.907677 1_555
Fe3 O14 1.939952 1_555
Fe3 O20 1.944466 1_555
Fe3 O16 1.958108 1_555
Fe4 O29 1.904111 1_665
Fe4 O32 1.926700 1_565
Fe4 O26 1.949649 1_555
Fe4 O30 1.969257 1_655
Fe5 O33 1.930316 1_655
Fe5 O28 1.946537 1_555
Fe5 O31 1.972182 1_555
Fe5 O27 1.977840 1_655
Fe5 O26 2.327280 1_555
Fe5 O30 2.357537 1_655
Fe6 O45 1.898668 1_555
Fe6 O41 1.921598 1_555
Fe6 O42 1.923731 1_545
Fe6 O39 1.945356 1_545
Fe7 O44 1.905136 1_555
Fe7 O40 1.926551 1_655
Fe7 O43 1.929185 1_655
Fe7 O38 1.940726 1_555
O0 Si0 1.654423 1_555
O0 Si1 1.656955 1_555
O1 Si1 1.651866 1_655
O1 Si0 1.657499 1_555
O2 Si14 1.659825 1_556
O3 Si15 1.661054 1_556
O4 Si0 1.629717 1_555
O5 Si1 1.627616 1_555
O6 Si4 1.654546 1_555
O7 Si5 1.652074 1_555
O8 Si3 1.630763 1_565
O9 Si2 1.627892 1_555
O10 Si2 1.640208 1_555
O10 Si3 1.657643 1_555
O11 Si2 1.640015 1_555
O11 Si3 1.644715 1_455
O12 Si5 1.631272 1_455
O12 Si4 1.643796 1_555
O13 Si4 1.649804 1_555
O13 Si5 1.661219 1_555
O14 Si5 1.628013 1_555
O15 Si4 1.616308 1_545
O16 Si2 1.662773 1_555
O17 Si3 1.635116 1_555
O18 Si6 1.619010 1_555
O19 Si7 1.632174 1_555
O20 Si8 1.661562 1_555
O21 Si9 1.636475 1_555
O22 Si6 1.648421 1_555
O22 Si7 1.661901 1_555
O23 Si6 1.673477 1_555
O23 Si7 1.681167 1_655
O24 Si8 1.648664 1_455
O24 Si9 1.662718 1_555
O25 Si8 1.672611 1_555
O25 Si9 1.680820 1_555
O26 Si6 1.660068 1_555
O27 Si7 1.632398 1_555
O28 Si8 1.617392 1_555
O29 Si9 1.629413 1_555
O30 Si12 1.647536 1_555
O31 Si13 1.624143 1_555
O32 Si11 1.632221 1_555
O33 Si10 1.620384 1_555
O34 Si11 1.633739 1_555
O34 Si10 1.645507 1_555
O35 Si10 1.655832 1_655
O35 Si11 1.661618 1_555
O36 Si12 1.646204 1_555
O36 Si13 1.647899 1_555
O37 Si12 1.644014 1_655
O37 Si13 1.668915 1_555
O38 Si13 1.622134 1_555
O39 Si12 1.622262 1_555
O40 Si10 1.634063 1_555
O41 Si11 1.634702 1_555
O42 Si14 1.619602 1_555
O43 Si15 1.616033 1_555
O44 Si0 1.640684 1_554
O45 Si1 1.643048 1_554
O46 Si14 1.673916 1_455
O46 Si15 1.679041 1_555
O47 Si15 1.672794 1_555
O47 Si14 1.677614 1_555
