# generated using pymatgen
data_Mn3TeO8
_symmetry_space_group_name_H-M   'P 1'
_cell_length_a   5.98073376
_cell_length_b   5.98073376
_cell_length_c   5.87447983
_cell_angle_alpha   64.29079720
_cell_angle_beta   64.29079720
_cell_angle_gamma   59.39906507
_symmetry_Int_Tables_number   1
_chemical_formula_structural   Mn3TeO8
_chemical_formula_sum   'Mn3 Te1 O8'
_cell_volume   156.69276722
_cell_formula_units_Z   1
loop_
 _symmetry_equiv_pos_site_id
 _symmetry_equiv_pos_as_xyz
  1  'x, y, z'
loop_
 _atom_site_type_symbol
 _atom_site_label
 _atom_site_symmetry_multiplicity
 _atom_site_fract_x
 _atom_site_fract_y
 _atom_site_fract_z
 _atom_site_occupancy
  Mn  Mn0  1  0.00000000  0.50000000  0.00000000  1
  Mn  Mn1  1  0.50000000  0.50000000  0.50000000  1
  Mn  Mn2  1  0.50000000  0.00000000  0.00000000  1
  Te  Te0  1  0.00000000  0.00000000  0.50000000  1
  O  O0  1  0.71197000  0.71197000  0.24026400  1
  O  O1  1  0.76250700  0.25759400  0.70937700  1
  O  O2  1  0.21739100  0.21739100  0.24900500  1
  O  O3  1  0.28803000  0.28803000  0.75973600  1
  O  O4  1  0.25759400  0.76250700  0.70937700  1
  O  O5  1  0.23749300  0.74240600  0.29062300  1
  O  O6  1  0.78260900  0.78260900  0.75099500  1
  O  O7  1  0.74240600  0.23749300  0.29062300  1
loop_
_geom_bond_atom_site_label_1
_geom_bond_atom_site_label_2
_geom_bond_distance
_geom_bond_site_symmetry_2
Mn0 O0 1.945840 1_455
Mn0 O3 1.945840 1_554
Mn0 O2 1.988610 1_555
Mn0 O6 1.988610 1_454
Mn0 O4 2.368136 1_554
Mn0 O7 2.368136 1_455
Mn1 O3 1.955045 1_555
Mn1 O0 1.955045 1_555
Mn1 O4 1.972431 1_555
Mn1 O1 1.972431 1_555
Mn1 O5 1.972431 1_555
Mn1 O7 1.972431 1_555
Mn2 O0 1.945840 1_545
Mn2 O3 1.945840 1_554
Mn2 O2 1.988610 1_555
Mn2 O6 1.988610 1_544
Mn2 O1 2.368136 1_554
Mn2 O5 2.368136 1_545
O1 Te0 1.950438 1_655
O2 Te0 1.987315 1_555
O4 Te0 1.950438 1_565
O5 Te0 1.950438 1_565
O6 Te0 1.987315 1_665
O7 Te0 1.950438 1_655
