# generated using pymatgen
data_CdH2(SO4)2
_symmetry_space_group_name_H-M   'P 1'
_cell_length_a   13.69141400
_cell_length_b   5.44664100
_cell_length_c   8.70841404
_cell_angle_alpha   87.60199879
_cell_angle_beta   90.00000000
_cell_angle_gamma   90.00000000
_symmetry_Int_Tables_number   1
_chemical_formula_structural   CdH2(SO4)2
_chemical_formula_sum   'Cd4 H8 S8 O32'
_cell_volume   648.83704942
_cell_formula_units_Z   4
loop_
 _symmetry_equiv_pos_site_id
 _symmetry_equiv_pos_as_xyz
  1  'x, y, z'
loop_
 _atom_site_type_symbol
 _atom_site_label
 _atom_site_symmetry_multiplicity
 _atom_site_fract_x
 _atom_site_fract_y
 _atom_site_fract_z
 _atom_site_occupancy
  Cd  Cd0  1  0.04633500  0.72240300  0.74544500  1
  Cd  Cd1  1  0.45366500  0.72240300  0.24544500  1
  Cd  Cd2  1  0.54633500  0.27759700  0.75455500  1
  Cd  Cd3  1  0.95366500  0.27759700  0.25455500  1
  H  H0  1  0.74563600  0.92997100  0.57268500  1
  H  H1  1  0.75436400  0.92997100  0.07268500  1
  H  H2  1  0.27657900  0.59681900  0.69692500  1
  H  H3  1  0.22342100  0.59681900  0.19692500  1
  H  H4  1  0.77657900  0.40318100  0.80307500  1
  H  H5  1  0.72342100  0.40318100  0.30307500  1
  H  H6  1  0.24563600  0.07002900  0.92731500  1
  H  H7  1  0.25436400  0.07002900  0.42731500  1
  S  S0  1  0.40644000  0.79713800  0.62496000  1
  S  S1  1  0.64227500  0.75266500  0.94410400  1
  S  S2  1  0.09356000  0.79713800  0.12496000  1
  S  S3  1  0.85772500  0.75266500  0.44410400  1
  S  S4  1  0.14227500  0.24733500  0.55589600  1
  S  S5  1  0.90644000  0.20286200  0.87504000  1
  S  S6  1  0.35772500  0.24733500  0.05589600  1
  S  S7  1  0.59356000  0.20286200  0.37504000  1
  O  O0  1  0.65365400  0.97293400  0.84247800  1
  O  O1  1  0.92086100  0.94438100  0.83933400  1
  O  O2  1  0.84634600  0.97293400  0.34247800  1
  O  O3  1  0.57913900  0.94438100  0.33933400  1
  O  O4  1  0.13810800  0.77321600  0.97152800  1
  O  O5  1  0.77368900  0.76326000  0.56855100  1
  O  O6  1  0.36189200  0.77321600  0.47152800  1
  O  O7  1  0.72631100  0.76326000  0.06855100  1
  O  O8  1  0.95192300  0.73831300  0.52127500  1
  O  O9  1  0.54807700  0.73831300  0.02127500  1
  O  O10  1  0.32909200  0.69547400  0.74572600  1
  O  O11  1  0.17090800  0.69547400  0.24572600  1
  O  O12  1  0.49605000  0.65318700  0.64853100  1
  O  O13  1  0.00395000  0.65318700  0.14853100  1
  O  O14  1  0.66444400  0.52158100  0.86638900  1
  O  O15  1  0.83555600  0.52158100  0.36638900  1
  O  O16  1  0.16444400  0.47841900  0.63361100  1
  O  O17  1  0.33555600  0.47841900  0.13361100  1
  O  O18  1  0.99605000  0.34681300  0.85146900  1
  O  O19  1  0.50395000  0.34681300  0.35146900  1
  O  O20  1  0.82909200  0.30452600  0.75427400  1
  O  O21  1  0.67090800  0.30452600  0.25427400  1
  O  O22  1  0.45192300  0.26168700  0.97872500  1
  O  O23  1  0.04807700  0.26168700  0.47872500  1
  O  O24  1  0.27368900  0.23674000  0.93144900  1
  O  O25  1  0.63810800  0.22678400  0.52847200  1
  O  O26  1  0.22631100  0.23674000  0.43144900  1
  O  O27  1  0.86189200  0.22678400  0.02847200  1
  O  O28  1  0.42086100  0.05561900  0.66066600  1
  O  O29  1  0.15365400  0.02706600  0.65752200  1
  O  O30  1  0.07913900  0.05561900  0.16066600  1
  O  O31  1  0.34634600  0.02706600  0.15752200  1
loop_
_geom_bond_atom_site_label_1
_geom_bond_atom_site_label_2
_geom_bond_distance
_geom_bond_site_symmetry_2
Cd0 O1 2.272495 1_455
Cd0 O18 2.313726 1_455
Cd0 O29 2.322174 1_565
Cd0 O16 2.331883 1_555
Cd0 O8 2.339915 1_455
Cd0 O4 2.361622 1_555
Cd1 O3 2.272495 1_555
Cd1 O19 2.313726 1_555
Cd1 O31 2.322174 1_565
Cd1 O17 2.331883 1_555
Cd1 O9 2.339915 1_555
Cd1 O6 2.361622 1_555
Cd2 O28 2.272495 1_555
Cd2 O12 2.313726 1_555
Cd2 O0 2.322174 1_545
Cd2 O14 2.331883 1_555
Cd2 O22 2.339915 1_555
Cd2 O25 2.361622 1_555
Cd3 O30 2.272495 1_655
Cd3 O13 2.313726 1_655
Cd3 O2 2.322174 1_545
Cd3 O15 2.331883 1_555
Cd3 O23 2.339915 1_655
Cd3 O27 2.361622 1_555
H0 O5 0.987949 1_555
H1 O7 0.987949 1_555
H2 O10 1.002685 1_555
H2 O16 1.762593 1_555
H3 O11 1.002685 1_555
H3 O17 1.762593 1_555
H4 O20 1.002685 1_555
H4 O14 1.762593 1_555
H5 O21 1.002685 1_555
H5 O15 1.762593 1_555
H6 O24 0.987949 1_555
H7 O26 0.987949 1_555
O0 S1 1.469011 1_555
O1 S5 1.467771 1_565
O2 S3 1.469011 1_555
O3 S7 1.467771 1_565
O4 S2 1.479476 1_556
O5 S3 1.583307 1_555
O6 S0 1.479476 1_555
O7 S1 1.583307 1_554
O8 S3 1.454883 1_555
O9 S1 1.454883 1_554
O10 S0 1.576516 1_555
O11 S2 1.576516 1_555
O12 S0 1.465829 1_555
O13 S2 1.465829 1_555
O14 S1 1.485121 1_555
O15 S3 1.485121 1_555
O16 S4 1.485121 1_555
O17 S6 1.485121 1_555
O18 S5 1.465829 1_555
O19 S7 1.465829 1_555
O20 S5 1.576516 1_555
O21 S7 1.576516 1_555
O22 S6 1.454883 1_556
O23 S4 1.454883 1_555
O24 S6 1.583307 1_556
O25 S7 1.479476 1_555
O26 S4 1.583307 1_555
O27 S5 1.479476 1_554
O28 S0 1.467771 1_545
O29 S4 1.469011 1_555
O30 S2 1.467771 1_545
O31 S6 1.469011 1_555
