# generated using pymatgen
data_Li6Fe3Sn(PO4)6
_symmetry_space_group_name_H-M   'P 1'
_cell_length_a   8.58767500
_cell_length_b   8.64650529
_cell_length_c   8.65690846
_cell_angle_alpha   61.77204421
_cell_angle_beta   62.05397467
_cell_angle_gamma   62.04515788
_symmetry_Int_Tables_number   1
_chemical_formula_structural   Li6Fe3Sn(PO4)6
_chemical_formula_sum   'Li6 Fe3 Sn1 P6 O24'
_cell_volume   474.42770545
_cell_formula_units_Z   1
loop_
 _symmetry_equiv_pos_site_id
 _symmetry_equiv_pos_as_xyz
  1  'x, y, z'
loop_
 _atom_site_type_symbol
 _atom_site_label
 _atom_site_symmetry_multiplicity
 _atom_site_fract_x
 _atom_site_fract_y
 _atom_site_fract_z
 _atom_site_occupancy
  Li  Li0  1  0.97711100  0.99864300  0.99174600  1
  Li  Li1  1  0.25384700  0.64826700  0.85123700  1
  Li  Li2  1  0.51943800  0.50261200  0.49647000  1
  Li  Li3  1  0.70692200  0.35265500  0.16087800  1
  Li  Li4  1  0.35680200  0.16129800  0.70529500  1
  Li  Li5  1  0.16074900  0.70396000  0.35680300  1
  Fe  Fe0  1  0.85346600  0.86049100  0.85624100  1
  Fe  Fe1  1  0.64756500  0.64350400  0.63889700  1
  Fe  Fe2  1  0.35084100  0.34704600  0.35425400  1
  Sn  Sn0  1  0.14533400  0.14629700  0.15022700  1
  P  P0  1  0.25305700  0.94639700  0.55754700  1
  P  P1  1  0.94502200  0.55825800  0.25405100  1
  P  P2  1  0.55872800  0.25166600  0.94618700  1
  P  P3  1  0.75245400  0.04028400  0.46125800  1
  P  P4  1  0.45390200  0.74926700  0.03929600  1
  P  P5  1  0.04611100  0.46268400  0.75509600  1
  O  O0  1  0.87463800  0.50812300  0.70939600  1
  O  O1  1  0.69442000  0.88193900  0.49513200  1
  O  O2  1  0.94157600  0.73680400  0.08343400  1
  O  O3  1  0.46428300  0.69932900  0.88506500  1
  O  O4  1  0.98224700  0.39162500  0.19907800  1
  O  O5  1  0.75559600  0.57199700  0.40958400  1
  O  O6  1  0.74340500  0.09168600  0.92315400  1
  O  O7  1  0.55366800  0.41915300  0.76455100  1
  O  O8  1  0.82782200  0.99493500  0.61041100  1
  O  O9  1  0.40580400  0.75352000  0.57541100  1
  O  O10  1  0.90553500  0.06929500  0.26114700  1
  O  O11  1  0.61666300  0.81328800  0.98185800  1
  O  O12  1  0.39255600  0.19216300  0.98568400  1
  O  O13  1  0.09584600  0.92240300  0.74675700  1
  O  O14  1  0.59444700  0.23019600  0.44635700  1
  O  O15  1  0.19504500  0.98302100  0.39439800  1
  O  O16  1  0.44570200  0.58995300  0.22764000  1
  O  O17  1  0.25721900  0.90584400  0.07614700  1
  O  O18  1  0.23213200  0.44021300  0.59375700  1
  O  O19  1  0.02681600  0.60993400  0.81975000  1
  O  O20  1  0.53267000  0.30627200  0.10312600  1
  O  O21  1  0.06747900  0.26359500  0.91063100  1
  O  O22  1  0.31281200  0.10078200  0.52866200  1
  O  O23  1  0.10027100  0.52760500  0.31638700  1
loop_
_geom_bond_atom_site_label_1
_geom_bond_atom_site_label_2
_geom_bond_distance
_geom_bond_site_symmetry_2
Li0 O6 2.044294 1_565
Li0 O2 2.137666 1_556
Li0 O13 2.153530 1_655
Li0 O10 2.417051 1_566
Li0 O21 2.444979 1_665
Li0 O17 2.499430 1_656
Li1 O9 2.090453 1_555
Li1 O13 2.093906 1_555
Li1 O3 2.216502 1_555
Li1 O19 2.274817 1_555
Li1 O7 2.435200 1_555
Li1 O2 2.509294 1_456
Li2 O5 2.079125 1_555
Li2 O7 2.202126 1_555
Li2 O9 2.217763 1_555
Li2 O14 2.330977 1_555
Li2 O16 2.378584 1_555
Li2 O18 2.441005 1_555
Li3 O20 2.025739 1_555
Li3 O14 2.099494 1_555
Li3 O10 2.263494 1_555
Li3 O16 2.273201 1_555
Li4 O22 2.058701 1_555
Li4 O18 2.059127 1_555
Li4 O14 2.265715 1_555
Li4 O21 2.324382 1_555
Li5 O23 2.033429 1_555
Li5 O16 2.103969 1_555
Li5 O17 2.256938 1_555
Li5 O18 2.286259 1_555
Fe0 O11 1.941698 1_555
Fe0 O8 1.946231 1_555
Fe0 O6 2.008930 1_565
Fe0 O19 2.047514 1_655
Fe0 O2 2.056932 1_556
Fe0 O13 2.057447 1_655
Fe1 O1 1.960193 1_555
Fe1 O0 1.960839 1_555
Fe1 O5 2.020113 1_555
Fe1 O9 2.059295 1_555
Fe1 O7 2.060293 1_555
Fe1 O3 2.090139 1_555
Fe2 O22 2.017149 1_555
Fe2 O23 2.050004 1_555
Fe2 O20 2.077483 1_555
Fe2 O18 2.194526 1_555
Fe2 O14 2.202891 1_555
Fe2 O16 2.205856 1_555
O0 P5 1.528356 1_655
O1 P3 1.527040 1_565
O2 P1 1.551421 1_555
O3 P4 1.541024 1_556
O4 P1 1.574406 1_555
O4 Sn0 2.036684 1_655
O5 P1 1.546113 1_555
O6 P2 1.541474 1_555
O7 P2 1.556451 1_555
O8 P3 1.518649 1_565
O9 P0 1.555961 1_555
O10 P3 1.598662 1_555
O10 Sn0 2.105568 1_655
O11 P4 1.523471 1_556
O12 P2 1.575639 1_555
O12 Sn0 2.028351 1_556
O13 P0 1.554722 1_555
O14 P3 1.558505 1_555
O15 P0 1.559406 1_555
O15 Sn0 2.025136 1_565
O16 P4 1.555522 1_555
O17 P4 1.595985 1_555
O17 Sn0 2.113734 1_565
O18 P5 1.554002 1_555
O19 P5 1.533344 1_555
O20 P2 1.530230 1_554
O21 P5 1.597738 1_555
O21 Sn0 2.109944 1_556
O22 P0 1.521181 1_545
O23 P1 1.531893 1_455
