# generated using pymatgen
data_KCrP2S7
_symmetry_space_group_name_H-M   'P 1'
_cell_length_a   6.46925479
_cell_length_b   6.46925479
_cell_length_c   6.38413606
_cell_angle_alpha   84.97180222
_cell_angle_beta   84.97180222
_cell_angle_gamma   97.01375686
_symmetry_Int_Tables_number   1
_chemical_formula_structural   KCrP2S7
_chemical_formula_sum   'K1 Cr1 P2 S7'
_cell_volume   262.85405873
_cell_formula_units_Z   1
loop_
 _symmetry_equiv_pos_site_id
 _symmetry_equiv_pos_as_xyz
  1  'x, y, z'
loop_
 _atom_site_type_symbol
 _atom_site_label
 _atom_site_symmetry_multiplicity
 _atom_site_fract_x
 _atom_site_fract_y
 _atom_site_fract_z
 _atom_site_occupancy
  K  K0  1  0.90053543  0.09946457  0.50000000  1
  Cr  Cr0  1  0.49935422  0.50064578  0.00000000  1
  P  P0  1  0.35716074  0.04942714  0.92206482  1
  P  P1  1  0.95057286  0.64283926  0.07793518  1
  S  S0  1  0.02651049  0.97348951  0.00000000  1
  S  S1  1  0.17860613  0.52376082  0.22474621  1
  S  S2  1  0.36621640  0.31021245  0.72097137  1
  S  S3  1  0.68978755  0.63378360  0.27902863  1
  S  S4  1  0.85106253  0.51164554  0.82389158  1
  S  S5  1  0.48835446  0.14893747  0.17610842  1
  S  S6  1  0.47623918  0.82139387  0.77525379  1
loop_
_geom_bond_atom_site_label_1
_geom_bond_atom_site_label_2
_geom_bond_distance
_geom_bond_site_symmetry_2
K0 S1 3.354531 1_655
K0 S6 3.354531 1_545
K0 S0 3.417577 1_646
K0 S0 3.417577 1_645
K0 S5 3.542211 1_555
K0 S4 3.542211 1_555
K0 S2 3.606075 1_655
K0 S3 3.606075 1_545
Cr0 S2 2.413981 1_554
Cr0 S3 2.413981 1_555
Cr0 S4 2.438049 1_554
Cr0 S5 2.438049 1_555
Cr0 S6 2.445031 1_554
Cr0 S1 2.445031 1_555
P0 S6 2.010339 1_545
P0 S5 2.013959 1_556
P0 S2 2.020117 1_555
P0 S0 2.139728 1_546
P1 S1 2.010339 1_655
P1 S4 2.013959 1_554
P1 S3 2.020117 1_555
P1 S0 2.139728 1_655
