# generated using pymatgen
data_LiMn2OF5
_symmetry_space_group_name_H-M   'P 1'
_cell_length_a   4.55189305
_cell_length_b   17.04129944
_cell_length_c   4.90363417
_cell_angle_alpha   90.00000000
_cell_angle_beta   90.00000000
_cell_angle_gamma   90.00000000
_symmetry_Int_Tables_number   1
_chemical_formula_structural   LiMn2OF5
_chemical_formula_sum   'Li4 Mn8 O4 F20'
_cell_volume   380.37574836
_cell_formula_units_Z   4
loop_
 _symmetry_equiv_pos_site_id
 _symmetry_equiv_pos_as_xyz
  1  'x, y, z'
loop_
 _atom_site_type_symbol
 _atom_site_label
 _atom_site_symmetry_multiplicity
 _atom_site_fract_x
 _atom_site_fract_y
 _atom_site_fract_z
 _atom_site_occupancy
  Li  Li0  1  0.01652316  0.38326132  0.24406120  1
  Li  Li1  1  0.01652316  0.61673868  0.74406120  1
  Li  Li2  1  0.48347684  0.88326132  0.24406120  1
  Li  Li3  1  0.48347684  0.11673868  0.74406120  1
  Mn  Mn0  1  0.03063873  0.27882156  0.75705826  1
  Mn  Mn1  1  0.98488030  0.05562738  0.24804298  1
  Mn  Mn2  1  0.03063873  0.72117844  0.25705826  1
  Mn  Mn3  1  0.98488030  0.94437262  0.74804298  1
  Mn  Mn4  1  0.51511970  0.55562738  0.24804298  1
  Mn  Mn5  1  0.46936127  0.77882156  0.75705826  1
  Mn  Mn6  1  0.51511970  0.44437262  0.74804298  1
  Mn  Mn7  1  0.46936127  0.22117844  0.25705826  1
  O  O0  1  0.24908223  0.28984639  0.06939080  1
  O  O1  1  0.24908223  0.71015361  0.56939080  1
  O  O2  1  0.25091777  0.21015361  0.56939080  1
  O  O3  1  0.25091777  0.78984639  0.06939080  1
  F  F0  1  0.23481655  0.63100138  0.08403606  1
  F  F1  1  0.23481655  0.36899862  0.58403606  1
  F  F2  1  0.21745371  0.03992350  0.57300533  1
  F  F3  1  0.21745371  0.96007650  0.07300533  1
  F  F4  1  0.28254629  0.46007650  0.07300533  1
  F  F5  1  0.28254629  0.53992350  0.57300533  1
  F  F6  1  0.26518345  0.86899862  0.58403606  1
  F  F7  1  0.26518345  0.13100138  0.08403606  1
  F  F8  1  0.74251557  0.79116864  0.44168358  1
  F  F9  1  0.74251557  0.20883136  0.94168358  1
  F  F10  1  0.70739585  0.86586029  0.91529511  1
  F  F11  1  0.70739585  0.13413971  0.41529511  1
  F  F12  1  0.74042573  0.46110342  0.41742467  1
  F  F13  1  0.74042573  0.53889658  0.91742467  1
  F  F14  1  0.75957427  0.03889658  0.91742467  1
  F  F15  1  0.75957427  0.96110342  0.41742467  1
  F  F16  1  0.79260415  0.36586029  0.91529511  1
  F  F17  1  0.79260415  0.63413971  0.41529511  1
  F  F18  1  0.75748443  0.29116864  0.44168358  1
  F  F19  1  0.75748443  0.70883136  0.94168358  1
loop_
_geom_bond_atom_site_label_1
_geom_bond_atom_site_label_2
_geom_bond_distance
_geom_bond_site_symmetry_2
Li0 O0 2.094853 1_555
Li1 O1 2.094853 1_555
Li2 O3 2.094853 1_555
Li3 O2 2.094853 1_555
Mn0 O2 1.794880 1_555
Mn0 O0 1.835670 1_556
Mn2 O3 1.794880 1_555
Mn2 O1 1.835670 1_555
Mn5 O1 1.794880 1_555
Mn5 O3 1.835670 1_556
Mn7 O0 1.794880 1_555
Mn7 O2 1.835670 1_555
F0 Li1 1.955934 1_554
F0 Mn4 1.981060 1_555
F0 Mn2 1.986246 1_555
F1 Li0 1.955934 1_555
F1 Mn6 1.981060 1_555
F1 Mn0 1.986246 1_555
F2 Mn1 1.931732 1_455
F2 Li3 1.970644 1_555
F2 Mn3 2.123405 1_445
F3 Mn3 1.931732 1_454
F3 Li2 1.970644 1_555
F3 Mn1 2.123405 1_465
F4 Mn6 1.931732 1_554
F4 Li0 1.970644 1_555
F4 Mn4 2.123405 1_555
F5 Mn4 1.931732 1_555
F5 Li1 1.970644 1_555
F5 Mn6 2.123405 1_555
F6 Li2 1.955934 1_555
F6 Mn3 1.981060 1_455
F6 Mn5 1.986246 1_555
F7 Li3 1.955934 1_554
F7 Mn1 1.981060 1_455
F7 Mn7 1.986246 1_555
F8 Mn2 1.990545 1_655
F8 Mn5 1.995456 1_555
F8 Li2 2.189146 1_555
F9 Mn0 1.990545 1_655
F9 Mn7 1.995456 1_556
F9 Li3 2.189146 1_555
F10 Li2 1.930243 1_556
F10 Mn5 1.994017 1_555
F10 Mn3 2.014478 1_555
F11 Li3 1.930243 1_555
F11 Mn7 1.994017 1_555
F11 Mn1 2.014478 1_555
F12 Mn6 1.939452 1_555
F12 Li0 2.015399 1_655
F12 Mn4 2.082397 1_555
F13 Mn4 1.939452 1_556
F13 Li1 2.015399 1_655
F13 Mn6 2.082397 1_555
F14 Mn1 1.939452 1_556
F14 Li3 2.015399 1_555
F14 Mn3 2.082397 1_545
F15 Mn3 1.939452 1_555
F15 Li2 2.015399 1_555
F15 Mn1 2.082397 1_565
F16 Li0 1.930243 1_656
F16 Mn0 1.994017 1_655
F16 Mn6 2.014478 1_555
F17 Li1 1.930243 1_655
F17 Mn2 1.994017 1_655
F17 Mn4 2.014478 1_555
F18 Mn7 1.990545 1_555
F18 Mn0 1.995456 1_655
F18 Li0 2.189146 1_655
F19 Mn5 1.990545 1_555
F19 Mn2 1.995456 1_656
F19 Li1 2.189146 1_655
