# generated using pymatgen
data_Mn2Fe(PO4)3
_symmetry_space_group_name_H-M   'P 1'
_cell_length_a   8.45490129
_cell_length_b   8.45490129
_cell_length_c   8.45490113
_cell_angle_alpha   61.83910118
_cell_angle_beta   61.83910118
_cell_angle_gamma   61.83910345
_symmetry_Int_Tables_number   1
_chemical_formula_structural   Mn2Fe(PO4)3
_chemical_formula_sum   'Mn4 Fe2 P6 O24'
_cell_volume   444.97755019
_cell_formula_units_Z   2
loop_
 _symmetry_equiv_pos_site_id
 _symmetry_equiv_pos_as_xyz
  1  'x, y, z'
loop_
 _atom_site_type_symbol
 _atom_site_label
 _atom_site_symmetry_multiplicity
 _atom_site_fract_x
 _atom_site_fract_y
 _atom_site_fract_z
 _atom_site_occupancy
  Mn  Mn0  1  0.85491800  0.85491800  0.85491800  1
  Mn  Mn1  1  0.64508200  0.64508200  0.64508200  1
  Mn  Mn2  1  0.35491800  0.35491800  0.35491800  1
  Mn  Mn3  1  0.14508200  0.14508200  0.14508200  1
  Fe  Fe0  1  0.00000000  0.00000000  0.00000000  1
  Fe  Fe1  1  0.50000000  0.50000000  0.50000000  1
  P  P0  1  0.95203100  0.25000000  0.54796900  1
  P  P1  1  0.54796900  0.95203100  0.25000000  1
  P  P2  1  0.25000000  0.54796900  0.95203100  1
  P  P3  1  0.75000000  0.45203100  0.04796900  1
  P  P4  1  0.45203100  0.04796900  0.75000000  1
  P  P5  1  0.04796900  0.75000000  0.45203100  1
  O  O0  1  0.89512100  0.67896300  0.48891900  1
  O  O1  1  0.67896300  0.48891900  0.89512100  1
  O  O2  1  0.93759000  0.09622300  0.75114700  1
  O  O3  1  0.48891900  0.89512100  0.67896300  1
  O  O4  1  0.98891900  0.17896300  0.39512100  1
  O  O5  1  0.74885300  0.40377700  0.56241000  1
  O  O6  1  0.75114700  0.93759000  0.09622300  1
  O  O7  1  0.56241000  0.74885300  0.40377700  1
  O  O8  1  0.82103700  0.60487900  0.01108100  1
  O  O9  1  0.40377700  0.56241000  0.74885300  1
  O  O10  1  0.90377700  0.24885300  0.06241000  1
  O  O11  1  0.60487900  0.01108100  0.82103700  1
  O  O12  1  0.39512100  0.98891900  0.17896300  1
  O  O13  1  0.09622300  0.75114700  0.93759000  1
  O  O14  1  0.59622300  0.43759000  0.25114700  1
  O  O15  1  0.17896300  0.39512100  0.98891900  1
  O  O16  1  0.43759000  0.25114700  0.59622300  1
  O  O17  1  0.24885300  0.06241000  0.90377700  1
  O  O18  1  0.25114700  0.59622300  0.43759000  1
  O  O19  1  0.01108100  0.82103700  0.60487900  1
  O  O20  1  0.51108100  0.10487900  0.32103700  1
  O  O21  1  0.06241000  0.90377700  0.24885300  1
  O  O22  1  0.32103700  0.51108100  0.10487900  1
  O  O23  1  0.10487900  0.32103700  0.51108100  1
loop_
_geom_bond_atom_site_label_1
_geom_bond_atom_site_label_2
_geom_bond_distance
_geom_bond_site_symmetry_2
Mn0 O19 1.968381 1_655
Mn0 O8 1.968381 1_556
Mn0 O11 1.968381 1_565
Mn0 O6 2.120948 1_556
Mn0 O2 2.120948 1_565
Mn0 O13 2.120948 1_655
Mn1 O1 1.968381 1_555
Mn1 O0 1.968381 1_555
Mn1 O3 1.968381 1_555
Mn1 O7 2.120948 1_555
Mn1 O9 2.120948 1_555
Mn1 O5 2.120948 1_555
Mn2 O22 1.968381 1_555
Mn2 O23 1.968381 1_555
Mn2 O20 1.968381 1_555
Mn2 O16 2.120948 1_555
Mn2 O14 2.120948 1_555
Mn2 O18 2.120948 1_555
Mn3 O4 1.968381 1_455
Mn3 O15 1.968381 1_554
Mn3 O12 1.968381 1_545
Mn3 O17 2.120948 1_554
Mn3 O21 2.120948 1_545
Mn3 O10 2.120948 1_455
Fe0 O21 2.096251 1_545
Fe0 O2 2.096251 1_454
Fe0 O6 2.096251 1_445
Fe0 O17 2.096251 1_554
Fe0 O13 2.096252 1_544
Fe0 O10 2.096252 1_455
Fe1 O9 2.096251 1_555
Fe1 O14 2.096251 1_555
Fe1 O7 2.096251 1_555
Fe1 O16 2.096251 1_555
Fe1 O5 2.096252 1_555
Fe1 O18 2.096252 1_555
O0 P5 1.517716 1_655
O1 P3 1.517716 1_556
O2 P0 1.581147 1_555
O3 P4 1.517716 1_565
O4 P0 1.517716 1_555
O5 P0 1.581147 1_555
O6 P1 1.581147 1_555
O7 P1 1.581147 1_555
O8 P3 1.517716 1_555
O9 P2 1.581147 1_555
O10 P3 1.581147 1_555
O11 P4 1.517716 1_555
O12 P1 1.517716 1_555
O13 P2 1.581147 1_555
O14 P3 1.581147 1_555
O15 P2 1.517716 1_555
O16 P4 1.581147 1_555
O17 P4 1.581147 1_555
O18 P5 1.581147 1_555
O19 P5 1.517716 1_555
O20 P1 1.517716 1_545
O21 P5 1.581147 1_555
O22 P2 1.517716 1_554
O23 P0 1.517716 1_455
