# generated using pymatgen
data_K6Te2P6(H4O11)3
_symmetry_space_group_name_H-M   'P 1'
_cell_length_a   13.93864784
_cell_length_b   13.93864784
_cell_length_c   13.93864747
_cell_angle_alpha   56.67735559
_cell_angle_beta   56.67735559
_cell_angle_gamma   56.67735739
_symmetry_Int_Tables_number   1
_chemical_formula_structural   K6Te2P6(H4O11)3
_chemical_formula_sum   'K12 Te4 P12 H24 O66'
_cell_volume   1767.96694653
_cell_formula_units_Z   2
loop_
 _symmetry_equiv_pos_site_id
 _symmetry_equiv_pos_as_xyz
  1  'x, y, z'
loop_
 _atom_site_type_symbol
 _atom_site_label
 _atom_site_symmetry_multiplicity
 _atom_site_fract_x
 _atom_site_fract_y
 _atom_site_fract_z
 _atom_site_occupancy
  K  K0  1  0.81378100  0.68621900  0.25000000  1
  K  K1  1  0.25000000  0.81378100  0.68621900  1
  K  K2  1  0.68621900  0.25000000  0.81378100  1
  K  K3  1  0.75000000  0.18621900  0.31378100  1
  K  K4  1  0.31378100  0.75000000  0.18621900  1
  K  K5  1  0.18621900  0.31378100  0.75000000  1
  K  K6  1  0.50000000  0.50000000  0.00000000  1
  K  K7  1  0.00000000  0.50000000  0.50000000  1
  K  K8  1  0.50000000  0.00000000  0.50000000  1
  K  K9  1  0.50000000  0.00000000  0.00000000  1
  K  K10  1  0.00000000  0.50000000  0.00000000  1
  K  K11  1  0.00000000  0.00000000  0.50000000  1
  Te  Te0  1  0.36100900  0.36100900  0.36100900  1
  Te  Te1  1  0.86100900  0.86100900  0.86100900  1
  Te  Te2  1  0.63899100  0.63899100  0.63899100  1
  Te  Te3  1  0.13899100  0.13899100  0.13899100  1
  P  P0  1  0.17325300  0.75755200  0.02236000  1
  P  P1  1  0.02236000  0.17325300  0.75755200  1
  P  P2  1  0.75755200  0.02236000  0.17325300  1
  P  P3  1  0.52236000  0.25755200  0.67325300  1
  P  P4  1  0.67325300  0.52236000  0.25755200  1
  P  P5  1  0.25755200  0.67325300  0.52236000  1
  P  P6  1  0.82674700  0.24244800  0.97764000  1
  P  P7  1  0.97764000  0.82674700  0.24244800  1
  P  P8  1  0.24244800  0.97764000  0.82674700  1
  P  P9  1  0.47764000  0.74244800  0.32674700  1
  P  P10  1  0.32674700  0.47764000  0.74244800  1
  P  P11  1  0.74244800  0.32674700  0.47764000  1
  H  H0  1  0.21965800  0.24187500  0.53802700  1
  H  H1  1  0.53802700  0.21965800  0.24187500  1
  H  H2  1  0.24187500  0.53802700  0.21965800  1
  H  H3  1  0.03802700  0.74187500  0.71965800  1
  H  H4  1  0.71965800  0.03802700  0.74187500  1
  H  H5  1  0.74187500  0.71965800  0.03802700  1
  H  H6  1  0.78034200  0.75812500  0.46197300  1
  H  H7  1  0.46197300  0.78034200  0.75812500  1
  H  H8  1  0.75812500  0.46197300  0.78034200  1
  H  H9  1  0.96197300  0.25812500  0.28034200  1
  H  H10  1  0.28034200  0.96197300  0.25812500  1
  H  H11  1  0.25812500  0.28034200  0.96197300  1
  H  H12  1  0.48941600  0.53669100  0.73777700  1
  H  H13  1  0.73777700  0.48941600  0.53669100  1
  H  H14  1  0.53669100  0.73777700  0.48941600  1
  H  H15  1  0.23777700  0.03669100  0.98941600  1
  H  H16  1  0.98941600  0.23777700  0.03669100  1
  H  H17  1  0.03669100  0.98941600  0.23777700  1
  H  H18  1  0.51058400  0.46330900  0.26222300  1
  H  H19  1  0.26222300  0.51058400  0.46330900  1
  H  H20  1  0.46330900  0.26222300  0.51058400  1
  H  H21  1  0.76222300  0.96330900  0.01058400  1
  H  H22  1  0.01058400  0.76222300  0.96330900  1
  H  H23  1  0.96330900  0.01058400  0.76222300  1
  O  O0  1  0.03601600  0.27167500  0.20425800  1
  O  O1  1  0.20425800  0.03601600  0.27167500  1
  O  O2  1  0.27167500  0.20425800  0.03601600  1
  O  O3  1  0.70425800  0.77167500  0.53601600  1
  O  O4  1  0.53601600  0.70425800  0.77167500  1
  O  O5  1  0.77167500  0.53601600  0.70425800  1
  O  O6  1  0.96398400  0.72832500  0.79574200  1
  O  O7  1  0.79574200  0.96398400  0.72832500  1
  O  O8  1  0.72832500  0.79574200  0.96398400  1
  O  O9  1  0.29574200  0.22832500  0.46398400  1
  O  O10  1  0.46398400  0.29574200  0.22832500  1
  O  O11  1  0.22832500  0.46398400  0.29574200  1
  O  O12  1  0.25607900  0.42949400  0.49259700  1
  O  O13  1  0.49259700  0.25607900  0.42949400  1
  O  O14  1  0.42949400  0.49259700  0.25607900  1
  O  O15  1  0.99259700  0.92949400  0.75607900  1
  O  O16  1  0.75607900  0.99259700  0.92949400  1
  O  O17  1  0.92949400  0.75607900  0.99259700  1
  O  O18  1  0.74392100  0.57050600  0.50740300  1
  O  O19  1  0.50740300  0.74392100  0.57050600  1
  O  O20  1  0.57050600  0.50740300  0.74392100  1
  O  O21  1  0.00740300  0.07050600  0.24392100  1
  O  O22  1  0.24392100  0.00740300  0.07050600  1
  O  O23  1  0.07050600  0.24392100  0.00740300  1
  O  O24  1  0.08742700  0.26288800  0.65549700  1
  O  O25  1  0.65549700  0.08742700  0.26288800  1
  O  O26  1  0.26288800  0.65549700  0.08742700  1
  O  O27  1  0.15549700  0.76288800  0.58742700  1
  O  O28  1  0.58742700  0.15549700  0.76288800  1
  O  O29  1  0.76288800  0.58742700  0.15549700  1
  O  O30  1  0.91257300  0.73711200  0.34450300  1
  O  O31  1  0.34450300  0.91257300  0.73711200  1
  O  O32  1  0.73711200  0.34450300  0.91257300  1
  O  O33  1  0.84450300  0.23711200  0.41257300  1
  O  O34  1  0.41257300  0.84450300  0.23711200  1
  O  O35  1  0.23711200  0.41257300  0.84450300  1
  O  O36  1  0.75544400  0.34166700  0.56765600  1
  O  O37  1  0.56765600  0.75544400  0.34166700  1
  O  O38  1  0.34166700  0.56765600  0.75544400  1
  O  O39  1  0.06765600  0.84166700  0.25544400  1
  O  O40  1  0.25544400  0.06765600  0.84166700  1
  O  O41  1  0.84166700  0.25544400  0.06765600  1
  O  O42  1  0.24455600  0.65833300  0.43234400  1
  O  O43  1  0.43234400  0.24455600  0.65833300  1
  O  O44  1  0.65833300  0.43234400  0.24455600  1
  O  O45  1  0.93234400  0.15833300  0.74455600  1
  O  O46  1  0.74455600  0.93234400  0.15833300  1
  O  O47  1  0.15833300  0.74455600  0.93234400  1
  O  O48  1  0.70646900  0.46354400  0.37815900  1
  O  O49  1  0.37815900  0.70646900  0.46354400  1
  O  O50  1  0.46354400  0.37815900  0.70646900  1
  O  O51  1  0.87815900  0.96354400  0.20646900  1
  O  O52  1  0.20646900  0.87815900  0.96354400  1
  O  O53  1  0.96354400  0.20646900  0.87815900  1
  O  O54  1  0.29353100  0.53645600  0.62184100  1
  O  O55  1  0.62184100  0.29353100  0.53645600  1
  O  O56  1  0.53645600  0.62184100  0.29353100  1
  O  O57  1  0.12184100  0.03645600  0.79353100  1
  O  O58  1  0.79353100  0.12184100  0.03645600  1
  O  O59  1  0.03645600  0.79353100  0.12184100  1
  O  O60  1  0.03892700  0.46107300  0.25000000  1
  O  O61  1  0.25000000  0.03892700  0.46107300  1
  O  O62  1  0.46107300  0.25000000  0.03892700  1
  O  O63  1  0.75000000  0.96107300  0.53892700  1
  O  O64  1  0.53892700  0.75000000  0.96107300  1
  O  O65  1  0.96107300  0.53892700  0.75000000  1
loop_
_geom_bond_atom_site_label_1
_geom_bond_atom_site_label_2
_geom_bond_distance
_geom_bond_site_symmetry_2
K0 O46 2.689697 1_555
K0 O37 2.689697 1_555
K0 O18 2.819809 1_555
K0 O17 2.819809 1_554
K0 O30 2.868343 1_555
K0 O29 2.868343 1_555
K0 O60 2.979326 1_655
K1 O47 2.689696 1_555
K1 O38 2.689697 1_555
K1 O19 2.819809 1_555
K1 O15 2.819809 1_455
K1 O27 2.868343 1_555
K1 O31 2.868343 1_555
K1 O61 2.979326 1_565
K2 O36 2.689696 1_555
K2 O45 2.689697 1_555
K2 O16 2.819809 1_545
K2 O20 2.819809 1_555
K2 O32 2.868343 1_555
K2 O28 2.868343 1_555
K2 O62 2.979326 1_556
K3 O41 2.689696 1_555
K3 O44 2.689697 1_555
K3 O13 2.819809 1_555
K3 O21 2.819809 1_655
K3 O33 2.868343 1_555
K3 O25 2.868343 1_555
K3 O63 2.979326 1_545
K4 O42 2.689696 1_555
K4 O39 2.689697 1_555
K4 O22 2.819809 1_565
K4 O14 2.819809 1_555
K4 O26 2.868343 1_555
K4 O34 2.868343 1_555
K4 O64 2.979326 1_554
K5 O40 2.689697 1_555
K5 O43 2.689697 1_555
K5 O12 2.819809 1_555
K5 O23 2.819809 1_556
K5 O24 2.868343 1_555
K5 O35 2.868343 1_555
K5 O65 2.979326 1_455
K6 O32 2.777106 1_554
K6 O26 2.777106 1_555
K6 O10 2.888962 1_555
K6 O4 2.888962 1_554
K6 O20 3.093491 1_554
K6 O14 3.093491 1_555
K7 O24 2.777106 1_555
K7 O30 2.777106 1_455
K7 O11 2.888962 1_555
K7 O5 2.888962 1_455
K7 O18 3.093491 1_455
K7 O12 3.093491 1_555
K8 O31 2.777106 1_545
K8 O25 2.777106 1_555
K8 O9 2.888962 1_555
K8 O3 2.888962 1_545
K8 O19 3.093491 1_545
K8 O13 3.093491 1_555
K9 O28 2.777106 1_554
K9 O34 2.777106 1_545
K9 O2 2.888962 1_555
K9 O8 2.888962 1_544
K9 O16 3.093491 1_544
K9 O22 3.093491 1_555
K10 O35 2.777106 1_554
K10 O29 2.777106 1_455
K10 O0 2.888962 1_555
K10 O6 2.888962 1_454
K10 O17 3.093491 1_454
K10 O23 3.093491 1_555
K11 O33 2.777106 1_455
K11 O27 2.777106 1_545
K11 O1 2.888962 1_555
K11 O7 2.888962 1_445
K11 O15 3.093491 1_445
K11 O21 3.093491 1_555
H0 O9 1.008489 1_555
H0 O24 1.667903 1_555
H1 O10 1.008489 1_555
H1 O25 1.667904 1_555
H2 O11 1.008489 1_555
H2 O26 1.667903 1_555
H3 O6 1.008489 1_455
H3 O27 1.667903 1_555
H4 O7 1.008489 1_545
H4 O28 1.667904 1_555
H5 O8 1.008489 1_554
H5 O29 1.667903 1_555
H6 O3 1.008489 1_555
H6 O30 1.667903 1_555
H7 O4 1.008489 1_555
H7 O31 1.667904 1_555
H8 O5 1.008489 1_555
H8 O32 1.667903 1_555
H9 O0 1.008489 1_655
H9 O33 1.667903 1_555
H10 O1 1.008489 1_565
H10 O34 1.667904 1_555
H11 O2 1.008489 1_556
H11 O35 1.667903 1_555
H12 O20 1.006234 1_555
H13 O18 1.006234 1_555
H14 O19 1.006234 1_555
H15 O22 1.006234 1_556
H16 O23 1.006234 1_655
H17 O21 1.006234 1_565
H18 O14 1.006234 1_555
H19 O12 1.006234 1_555
H20 O13 1.006234 1_555
H21 O16 1.006234 1_554
H22 O17 1.006234 1_455
H23 O15 1.006234 1_545
O0 Te3 1.950779 1_555
O1 Te3 1.950779 1_555
O2 Te3 1.950779 1_555
O3 Te2 1.950779 1_555
O4 Te2 1.950779 1_555
O5 Te2 1.950779 1_555
O6 Te1 1.950779 1_555
O7 Te1 1.950779 1_555
O8 Te1 1.950779 1_555
O9 Te0 1.950779 1_555
O10 Te0 1.950779 1_555
O11 Te0 1.950779 1_555
O12 Te0 1.963884 1_555
O13 Te0 1.963884 1_555
O14 Te0 1.963884 1_555
O15 Te1 1.963884 1_555
O16 Te1 1.963884 1_555
O17 Te1 1.963884 1_555
O18 Te2 1.963884 1_555
O19 Te2 1.963884 1_555
O20 Te2 1.963884 1_555
O21 Te3 1.963884 1_555
O22 Te3 1.963884 1_555
O23 Te3 1.963884 1_555
O24 P1 1.510581 1_555
O25 P2 1.510581 1_555
O26 P0 1.510581 1_555
O27 P5 1.510581 1_555
O28 P3 1.510581 1_555
O29 P4 1.510581 1_555
O30 P7 1.510581 1_555
O31 P8 1.510581 1_555
O32 P6 1.510581 1_555
O33 P11 1.510581 1_555
O34 P9 1.510581 1_555
O35 P10 1.510581 1_555
O36 P11 1.492695 1_555
O37 P9 1.492695 1_555
O38 P10 1.492695 1_555
O39 P7 1.492695 1_455
O40 P8 1.492695 1_545
O41 P6 1.492695 1_554
O42 P5 1.492695 1_555
O43 P3 1.492695 1_555
O44 P4 1.492695 1_555
O45 P1 1.492695 1_655
O46 P2 1.492695 1_565
O47 P0 1.492695 1_556
O48 P11 1.618162 1_555
O48 P4 1.623712 1_555
O49 P9 1.618162 1_555
O49 P5 1.623712 1_555
O50 P10 1.618162 1_555
O50 P3 1.623712 1_555
O51 P7 1.618162 1_555
O51 P2 1.623712 1_565
O52 P8 1.618162 1_555
O52 P0 1.623712 1_556
O53 P6 1.618162 1_555
O53 P1 1.623712 1_655
O54 P5 1.618162 1_555
O54 P10 1.623712 1_555
O55 P3 1.618162 1_555
O55 P11 1.623712 1_555
O56 P4 1.618162 1_555
O56 P9 1.623712 1_555
O57 P1 1.618162 1_555
O57 P8 1.623712 1_545
O58 P2 1.618162 1_555
O58 P6 1.623712 1_554
O59 P0 1.618162 1_555
O59 P7 1.623712 1_455
