# generated using pymatgen
data_LiVOF2
_symmetry_space_group_name_H-M   'P 1'
_cell_length_a   5.39460200
_cell_length_b   8.95649125
_cell_length_c   9.81466134
_cell_angle_alpha   90.07649783
_cell_angle_beta   98.56395827
_cell_angle_gamma   90.01364506
_symmetry_Int_Tables_number   1
_chemical_formula_structural   LiVOF2
_chemical_formula_sum   'Li8 V8 O8 F16'
_cell_volume   468.92429285
_cell_formula_units_Z   8
loop_
 _symmetry_equiv_pos_site_id
 _symmetry_equiv_pos_as_xyz
  1  'x, y, z'
loop_
 _atom_site_type_symbol
 _atom_site_label
 _atom_site_symmetry_multiplicity
 _atom_site_fract_x
 _atom_site_fract_y
 _atom_site_fract_z
 _atom_site_occupancy
  Li  Li0  1  0.80964700  0.40787900  0.19494200  1
  Li  Li1  1  0.18658700  0.09520400  0.30441200  1
  Li  Li2  1  0.30829400  0.59005600  0.19539300  1
  Li  Li3  1  0.68738800  0.91648900  0.30388000  1
  Li  Li4  1  0.32245900  0.09208100  0.67880200  1
  Li  Li5  1  0.67177400  0.40817700  0.80960000  1
  Li  Li6  1  0.82384400  0.91572300  0.68036300  1
  Li  Li7  1  0.17526300  0.58691100  0.82192000  1
  V  V0  1  0.76560000  0.73690400  0.01278800  1
  V  V1  1  0.75279600  0.09502100  0.01348900  1
  V  V2  1  0.25240000  0.90379500  0.01478800  1
  V  V3  1  0.26613800  0.26125700  0.01259800  1
  V  V4  1  0.25308600  0.76258600  0.49032800  1
  V  V5  1  0.25910800  0.40130000  0.48734300  1
  V  V6  1  0.73709500  0.57445800  0.50115400  1
  V  V7  1  0.73224800  0.24370000  0.49110000  1
  O  O0  1  0.12286700  0.08514100  0.09676300  1
  O  O1  1  0.62337600  0.91331600  0.09744700  1
  O  O2  1  0.60326800  0.24766500  0.10181700  1
  O  O3  1  0.10132000  0.75158200  0.10374800  1
  O  O4  1  0.40368100  0.25033400  0.39161800  1
  O  O5  1  0.37826700  0.59093500  0.40277300  1
  O  O6  1  0.89181000  0.41649000  0.40321800  1
  O  O7  1  0.59943500  0.41952200  0.60701700  1
  F  F0  1  0.13124100  0.41381400  0.13053600  1
  F  F1  1  0.63312900  0.58786800  0.13505900  1
  F  F2  1  0.87220000  0.08419800  0.37360300  1
  F  F3  1  0.88911300  0.74866700  0.39846000  1
  F  F4  1  0.36380800  0.91214000  0.36957900  1
  F  F5  1  0.64902700  0.09053800  0.62867500  1
  F  F6  1  0.11267200  0.59478300  0.61572400  1
  F  F7  1  0.10375200  0.24729000  0.60924700  1
  F  F8  1  0.15112200  0.90676800  0.62697000  1
  F  F9  1  0.61102100  0.75477600  0.60353200  1
  F  F10  1  0.89570200  0.24676500  0.89060000  1
  F  F11  1  0.88887100  0.91225200  0.88334300  1
  F  F12  1  0.34498900  0.40829500  0.87204200  1
  F  F13  1  0.39405500  0.75085800  0.89099700  1
  F  F14  1  0.38829400  0.08447800  0.88353800  1
  F  F15  1  0.84325200  0.58998700  0.87079100  1
loop_
_geom_bond_atom_site_label_1
_geom_bond_atom_site_label_2
_geom_bond_distance
_geom_bond_site_symmetry_2
Li0 O2 1.956185 1_555
Li0 O6 2.027488 1_555
Li1 O4 1.931871 1_555
Li1 O0 2.017572 1_555
Li2 O3 1.963110 1_555
Li2 O5 2.014049 1_555
Li3 O1 2.004116 1_555
Li5 O7 1.971131 1_555
O0 V2 1.984489 1_545
O0 V3 1.990200 1_555
O0 V1 2.043453 1_455
O1 V0 1.990601 1_555
O1 V1 1.997345 1_565
O1 V2 2.046142 1_555
O2 V1 1.864657 1_555
O2 V3 1.901390 1_555
O3 V2 1.870757 1_555
O3 V0 1.900607 1_455
O4 V5 1.880033 1_555
O4 V7 1.892973 1_555
O5 V4 1.930760 1_555
O5 V6 2.035935 1_555
O5 V5 2.036931 1_555
O6 V6 1.964218 1_555
O6 V7 2.025829 1_555
O6 V5 2.034567 1_655
O7 V6 1.946754 1_555
O7 V5 2.033217 1_555
O7 V7 2.127443 1_555
F0 Li2 1.903861 1_555
F0 Li0 1.933609 1_455
F0 V3 1.995879 1_555
F1 Li0 1.920298 1_555
F1 Li2 1.931532 1_555
F1 V0 1.997960 1_555
F2 Li3 1.873998 1_545
F2 Li1 1.921036 1_655
F2 V7 2.048441 1_555
F3 Li3 2.002216 1_555
F3 V4 2.038658 1_655
F3 V6 2.091101 1_555
F4 V4 1.941685 1_555
F4 Li3 1.949264 1_555
F4 Li1 1.957765 1_565
F5 Li6 1.859725 1_545
F5 Li4 1.898411 1_555
F5 V7 2.022806 1_555
F6 Li7 2.002848 1_555
F6 V4 2.151574 1_555
F6 V6 2.173326 1_455
F6 V5 2.346485 1_555
F7 Li4 1.885188 1_555
F7 V5 2.083045 1_555
F7 V7 2.160988 1_455
F8 Li6 1.916680 1_455
F8 Li4 1.929992 1_565
F8 V4 1.996029 1_555
F9 Li6 1.924368 1_555
F9 V6 2.068863 1_555
F9 V4 2.080651 1_555
F10 Li5 1.974630 1_555
F10 V1 2.043763 1_556
F10 V3 2.175039 1_656
F11 Li6 1.971000 1_555
F11 V2 2.182382 1_656
F11 V0 2.186142 1_556
F11 V1 2.263707 1_566
F12 Li7 1.873033 1_555
F12 Li5 1.950660 1_555
F12 V3 1.999420 1_556
F13 Li7 1.940902 1_555
F13 V2 2.051577 1_556
F13 V0 2.179171 1_556
F14 Li4 1.989058 1_555
F14 V1 2.180549 1_556
F14 V3 2.188466 1_556
F14 V2 2.258744 1_546
F15 Li7 1.922133 1_655
F15 Li5 1.923341 1_555
F15 V0 2.004613 1_556
