# generated using pymatgen
data_Li10Mn3Cr2Ni3O16
_symmetry_space_group_name_H-M   'P 1'
_cell_length_a   5.96447348
_cell_length_b   5.96447348
_cell_length_c   9.78053432
_cell_angle_alpha   89.38106665
_cell_angle_beta   89.38106665
_cell_angle_gamma   59.66545640
_symmetry_Int_Tables_number   1
_chemical_formula_structural   Li10Mn3Cr2Ni3O16
_chemical_formula_sum   'Li10 Mn3 Cr2 Ni3 O16'
_cell_volume   300.28236460
_cell_formula_units_Z   1
loop_
 _symmetry_equiv_pos_site_id
 _symmetry_equiv_pos_as_xyz
  1  'x, y, z'
loop_
 _atom_site_type_symbol
 _atom_site_label
 _atom_site_symmetry_multiplicity
 _atom_site_fract_x
 _atom_site_fract_y
 _atom_site_fract_z
 _atom_site_occupancy
  Li  Li0  1  0.37797900  0.81433900  0.05670800  1
  Li  Li1  1  0.81433900  0.37797900  0.05670800  1
  Li  Li2  1  0.66469400  0.66469400  0.26663000  1
  Li  Li3  1  0.79821000  0.79821000  0.04082900  1
  Li  Li4  1  0.00206200  0.00206200  0.98059300  1
  Li  Li5  1  0.19949200  0.19949200  0.54835600  1
  Li  Li6  1  0.33518400  0.33518400  0.76644400  1
  Li  Li7  1  0.18696500  0.60722300  0.53967200  1
  Li  Li8  1  0.00952800  0.00952800  0.47889400  1
  Li  Li9  1  0.60722300  0.18696500  0.53967200  1
  Mn  Mn0  1  0.33995300  0.83214200  0.78038300  1
  Mn  Mn1  1  0.83214200  0.33995300  0.78038300  1
  Mn  Mn2  1  0.18008700  0.18008700  0.27997600  1
  Cr  Cr0  1  0.34105000  0.34105000  0.02531400  1
  Cr  Cr1  1  0.67565700  0.67565700  0.52200800  1
  Ni  Ni0  1  0.83405100  0.83405100  0.77862500  1
  Ni  Ni1  1  0.17369100  0.67262400  0.28008500  1
  Ni  Ni2  1  0.67262400  0.17369100  0.28008500  1
  O  O0  1  0.34118800  0.85847800  0.39762100  1
  O  O1  1  0.50816000  0.50816000  0.63871300  1
  O  O2  1  0.02066400  0.02066400  0.17173900  1
  O  O3  1  0.65911500  0.65911500  0.89131100  1
  O  O4  1  0.01394300  0.01394300  0.67550800  1
  O  O5  1  0.50725600  0.97976000  0.65470200  1
  O  O6  1  0.85847800  0.34118800  0.39762100  1
  O  O7  1  0.97976000  0.50725600  0.65470200  1
  O  O8  1  0.17432000  0.17432000  0.91152100  1
  O  O9  1  0.02569100  0.48864800  0.15683100  1
  O  O10  1  0.84417000  0.84417000  0.41502500  1
  O  O11  1  0.48864800  0.02569100  0.15683100  1
  O  O12  1  0.33127100  0.33127100  0.39491400  1
  O  O13  1  0.17141500  0.67126500  0.90375900  1
  O  O14  1  0.49551900  0.49551900  0.15242500  1
  O  O15  1  0.67126500  0.17141500  0.90375900  1
loop_
_geom_bond_atom_site_label_1
_geom_bond_atom_site_label_2
_geom_bond_distance
_geom_bond_site_symmetry_2
Li0 O14 1.900808 1_555
Li0 O11 1.965938 1_565
Li0 O2 2.156648 1_565
Li0 O3 2.165963 1_554
Li0 O8 2.332152 1_564
Li0 O13 2.369249 1_554
Li1 O14 1.900808 1_555
Li1 O9 1.965938 1_655
Li1 O2 2.156648 1_655
Li1 O3 2.165963 1_554
Li1 O8 2.332152 1_654
Li1 O15 2.369249 1_554
Li2 O14 2.088330 1_555
Li2 O0 2.103876 1_555
Li2 O6 2.103876 1_555
Li2 O11 2.140700 1_565
Li2 O9 2.140700 1_655
Li2 O10 2.371285 1_555
Li3 O9 1.998696 1_655
Li3 O11 1.998696 1_565
Li3 O3 2.064639 1_554
Li3 O13 2.362313 1_654
Li3 O15 2.362313 1_564
Li4 O15 1.865589 1_455
Li4 O13 1.865589 1_545
Li4 O2 1.881777 1_556
Li4 O8 1.898388 1_555
Li5 O7 1.936706 1_455
Li5 O5 1.936706 1_545
Li5 O12 2.015157 1_555
Li5 O4 2.274608 1_555
Li5 O0 2.307874 1_545
Li5 O6 2.307874 1_455
Li6 O5 2.137743 1_545
Li6 O7 2.137743 1_455
Li6 O1 2.170030 1_555
Li6 O8 2.173839 1_555
Li6 O15 2.197281 1_555
Li6 O13 2.197281 1_555
Li7 O1 1.960085 1_555
Li7 O7 1.961742 1_455
Li7 O12 2.011820 1_555
Li7 O10 2.182159 1_455
Li7 O4 2.495226 1_565
Li7 O0 2.518340 1_555
Li8 O10 1.828897 1_445
Li8 O0 1.880963 1_545
Li8 O6 1.880963 1_455
Li8 O4 1.924101 1_555
Li9 O1 1.960085 1_555
Li9 O5 1.961742 1_545
Li9 O12 2.011820 1_555
Li9 O10 2.182159 1_545
Li9 O4 2.495226 1_655
Li9 O6 2.518340 1_555
Mn0 O4 1.974390 1_565
Mn0 O3 1.975342 1_555
Mn0 O5 2.029667 1_555
Mn0 O13 2.076154 1_555
Mn0 O1 2.174879 1_555
Mn0 O8 2.186077 1_565
Mn1 O4 1.974390 1_655
Mn1 O3 1.975342 1_555
Mn1 O7 2.029667 1_555
Mn1 O15 2.076154 1_555
Mn1 O1 2.174879 1_555
Mn1 O8 2.186077 1_655
Mn2 O12 1.937808 1_555
Mn2 O2 1.971237 1_555
Mn2 O11 1.987439 1_555
Mn2 O9 1.987439 1_555
Mn2 O0 2.010285 1_545
Mn2 O6 2.010285 1_455
Cr0 O14 2.037196 1_555
Cr0 O8 2.064779 1_554
Cr0 O9 2.065710 1_555
Cr0 O11 2.065710 1_555
Cr0 O15 2.068526 1_554
Cr0 O13 2.068526 1_554
Cr1 O10 2.022433 1_555
Cr1 O5 2.040976 1_555
Cr1 O7 2.040976 1_555
Cr1 O1 2.063462 1_555
Cr1 O0 2.115494 1_555
Cr1 O6 2.115494 1_555
Ni0 O5 2.083448 1_555
Ni0 O7 2.083448 1_555
Ni0 O4 2.106123 1_665
Ni0 O3 2.107617 1_555
Ni0 O15 2.131579 1_565
Ni0 O13 2.131579 1_655
Ni1 O14 2.070746 1_555
Ni1 O2 2.079613 1_565
Ni1 O12 2.080976 1_555
Ni1 O9 2.113421 1_555
Ni1 O10 2.143235 1_455
Ni1 O0 2.172407 1_555
Ni2 O14 2.070746 1_555
Ni2 O2 2.079613 1_655
Ni2 O12 2.080976 1_555
Ni2 O11 2.113421 1_555
Ni2 O10 2.143235 1_545
Ni2 O6 2.172407 1_555
