# generated using pymatgen
data_Li5V3P8O29
_symmetry_space_group_name_H-M   'P 1'
_cell_length_a   9.78673603
_cell_length_b   9.78673603
_cell_length_c   14.24734154
_cell_angle_alpha   89.65290550
_cell_angle_beta   89.65290550
_cell_angle_gamma   60.27370305
_symmetry_Int_Tables_number   1
_chemical_formula_structural   Li5V3P8O29
_chemical_formula_sum   'Li10 V6 P16 O58'
_cell_volume   1185.00656517
_cell_formula_units_Z   2
loop_
 _symmetry_equiv_pos_site_id
 _symmetry_equiv_pos_as_xyz
  1  'x, y, z'
loop_
 _atom_site_type_symbol
 _atom_site_label
 _atom_site_symmetry_multiplicity
 _atom_site_fract_x
 _atom_site_fract_y
 _atom_site_fract_z
 _atom_site_occupancy
  Li  Li0  1  0.90648900  0.32586200  0.06065000  1
  Li  Li1  1  0.76539700  0.33067700  0.55919300  1
  Li  Li2  1  0.89901700  0.76402600  0.55728300  1
  Li  Li3  1  0.76402600  0.89901700  0.05728300  1
  Li  Li4  1  0.33067700  0.76539700  0.05919300  1
  Li  Li5  1  0.32586200  0.90648900  0.56065000  1
  Li  Li6  1  0.34090000  0.33152400  0.60138900  1
  Li  Li7  1  0.33152400  0.34090000  0.10138900  1
  Li  Li8  1  0.00193500  0.98932700  0.99432300  1
  Li  Li9  1  0.98932700  0.00193500  0.49432300  1
  V  V0  1  0.56668600  0.99711100  0.25405700  1
  V  V1  1  0.43338100  0.99954400  0.74966100  1
  V  V2  1  0.56080400  0.43868500  0.75090700  1
  V  V3  1  0.43868500  0.56080400  0.25090700  1
  V  V4  1  0.99954400  0.43338100  0.24966100  1
  V  V5  1  0.99711100  0.56668600  0.75405700  1
  P  P0  1  0.91410900  0.30797900  0.84429800  1
  P  P1  1  0.77294300  0.31115300  0.34331100  1
  P  P2  1  0.91552700  0.77313800  0.34342900  1
  P  P3  1  0.66608100  0.66831900  0.13046200  1
  P  P4  1  0.66831900  0.66608100  0.63046200  1
  P  P5  1  0.77313800  0.91552700  0.84342900  1
  P  P6  1  0.69375000  0.08721800  0.66235000  1
  P  P7  1  0.31115300  0.77294300  0.84331100  1
  P  P8  1  0.69302300  0.21703800  0.16227100  1
  P  P9  1  0.30797900  0.91410900  0.34429800  1
  P  P10  1  0.22240500  0.08652600  0.16240700  1
  P  P11  1  0.33515700  0.32930100  0.36584300  1
  P  P12  1  0.32930100  0.33515700  0.86584300  1
  P  P13  1  0.08652600  0.22240500  0.66240700  1
  P  P14  1  0.21703800  0.69302300  0.66227100  1
  P  P15  1  0.08721800  0.69375000  0.16235000  1
  O  O0  1  0.98698700  0.21760800  0.58532900  1
  O  O1  1  0.91408200  0.33846200  0.32269900  1
  O  O2  1  0.80268300  0.20479100  0.08539100  1
  O  O3  1  0.74680700  0.34170500  0.82968700  1
  O  O4  1  0.91896000  0.46492700  0.82617500  1
  O  O5  1  0.81541000  0.51622900  0.16458800  1
  O  O6  1  0.91449000  0.61941800  0.32958100  1
  O  O7  1  0.98628300  0.79899000  0.08527900  1
  O  O8  1  0.91480800  0.74519400  0.82555600  1
  O  O9  1  0.66230100  0.51810800  0.66902700  1
  O  O10  1  0.62106100  0.46932800  0.33077900  1
  O  O11  1  0.81482300  0.66400100  0.67855600  1
  O  O12  1  0.66044300  0.69004600  0.02670800  1
  O  O13  1  0.69004600  0.66044300  0.52670800  1
  O  O14  1  0.66400100  0.81482300  0.17855600  1
  O  O15  1  0.46932800  0.62106100  0.83077900  1
  O  O16  1  0.51810800  0.66230100  0.16902700  1
  O  O17  1  0.74519400  0.91480800  0.32555600  1
  O  O18  1  0.78479700  0.02204200  0.76137300  1
  O  O19  1  0.79898900  0.98628300  0.58527900  1
  O  O20  1  0.79799000  0.97230200  0.93554300  1
  O  O21  1  0.61941800  0.91449000  0.82958100  1
  O  O22  1  0.51622900  0.81541000  0.66458800  1
  O  O23  1  0.65779500  0.07767100  0.15843400  1
  O  O24  1  0.46492700  0.91896000  0.32617500  1
  O  O25  1  0.34170500  0.74680700  0.32968700  1
  O  O26  1  0.77994200  0.19437200  0.26199800  1
  O  O27  1  0.79272900  0.23022100  0.43572900  1
  O  O28  1  0.20479100  0.80268300  0.58539100  1
  O  O29  1  0.65792100  0.25899700  0.65613100  1
  O  O30  1  0.53165400  0.09291300  0.67079000  1
  O  O31  1  0.33846200  0.91408200  0.82269900  1
  O  O32  1  0.48452100  0.18197400  0.32107200  1
  O  O33  1  0.37787600  0.09379200  0.17109400  1
  O  O34  1  0.21760800  0.98698700  0.08532900  1
  O  O35  1  0.23337100  0.98311700  0.43650600  1
  O  O36  1  0.19508100  0.02181600  0.26137800  1
  O  O37  1  0.25885800  0.08516600  0.65572900  1
  O  O38  1  0.47417700  0.34122600  0.82228700  1
  O  O39  1  0.53128100  0.37070900  0.16646000  1
  O  O40  1  0.32945400  0.19135200  0.82355000  1
  O  O41  1  0.32447300  0.34434500  0.97029200  1
  O  O42  1  0.34434500  0.32447300  0.47029200  1
  O  O43  1  0.19135200  0.32945400  0.32355000  1
  O  O44  1  0.37070900  0.53128100  0.66646000  1
  O  O45  1  0.34122600  0.47417700  0.32228700  1
  O  O46  1  0.08516600  0.25885800  0.15572900  1
  O  O47  1  0.02181600  0.19508100  0.76137800  1
  O  O48  1  0.98311700  0.23337100  0.93650600  1
  O  O49  1  0.09379200  0.37787600  0.67109400  1
  O  O50  1  0.18197400  0.48452100  0.82107200  1
  O  O51  1  0.09291300  0.53165400  0.17079000  1
  O  O52  1  0.25899700  0.65792100  0.15613100  1
  O  O53  1  0.23022100  0.79272900  0.93572900  1
  O  O54  1  0.19437200  0.77994200  0.76199800  1
  O  O55  1  0.07767100  0.65779500  0.65843400  1
  O  O56  1  0.97230200  0.79799000  0.43554300  1
  O  O57  1  0.02204200  0.78479700  0.26137300  1
loop_
_geom_bond_atom_site_label_1
_geom_bond_atom_site_label_2
_geom_bond_distance
_geom_bond_site_symmetry_2
Li0 O2 1.935122 1_555
Li0 O48 1.959659 1_554
Li0 O46 2.050266 1_655
Li0 O5 2.197492 1_555
Li1 O0 1.921220 1_555
Li1 O27 1.971486 1_555
Li1 O29 2.051432 1_555
Li1 O9 2.238691 1_555
Li2 O19 1.934644 1_555
Li2 O56 1.961544 1_555
Li2 O55 2.103438 1_655
Li2 O11 2.320512 1_555
Li3 O7 1.934644 1_555
Li3 O20 1.961544 1_554
Li3 O23 2.103438 1_565
Li3 O14 2.320512 1_555
Li4 O34 1.921220 1_555
Li4 O53 1.971486 1_554
Li4 O52 2.051432 1_555
Li4 O16 2.238691 1_555
Li5 O28 1.935122 1_555
Li5 O35 1.959659 1_555
Li5 O37 2.050266 1_565
Li5 O22 2.197492 1_555
Li6 O42 1.868959 1_555
Li6 O44 2.314594 1_555
Li6 O30 2.363703 1_555
Li6 O49 2.434955 1_555
Li7 O41 1.868959 1_554
Li7 O39 2.314594 1_555
Li7 O51 2.363703 1_555
Li7 O33 2.434955 1_555
Li8 O20 2.250487 1_455
Li8 O53 2.263676 1_555
Li8 O7 2.328957 1_456
Li8 O2 2.420162 1_466
Li8 O48 2.441039 1_465
Li8 O34 2.474215 1_556
Li9 O56 2.250487 1_545
Li9 O27 2.263676 1_555
Li9 O19 2.328966 1_545
Li9 O28 2.420162 1_645
Li9 O35 2.441039 1_645
Li9 O0 2.474215 1_555
O0 P13 1.488652 1_655
O1 P1 1.557524 1_555
O1 V4 1.842176 1_555
O2 P8 1.491876 1_555
O3 P0 1.516741 1_555
O3 V2 1.942360 1_555
O4 P0 1.579750 1_555
O4 V5 1.834661 1_555
O5 P3 1.558941 1_555
O5 V4 1.984817 1_555
O6 P2 1.523503 1_555
O6 V4 1.953198 1_555
O7 P15 1.494252 1_655
O8 P5 1.573158 1_555
O8 V5 1.831565 1_555
O9 P4 1.573887 1_555
O9 V2 1.921574 1_555
O10 P1 1.534803 1_555
O10 V3 1.926080 1_555
O11 P4 1.583821 1_555
O11 V5 1.890152 1_555
O12 P3 1.489609 1_555
O13 P4 1.489609 1_555
O14 P3 1.583821 1_555
O14 V0 1.890152 1_555
O15 P7 1.534803 1_555
O15 V2 1.926080 1_555
O16 P3 1.573887 1_555
O16 V3 1.921574 1_555
O17 P2 1.573158 1_555
O17 V0 1.831565 1_555
O18 P5 1.602503 1_545
O18 P6 1.622316 1_555
O19 P6 1.494248 1_565
O20 P5 1.495647 1_555
O21 P5 1.523503 1_555
O21 V1 1.953198 1_555
O22 P4 1.558941 1_555
O22 V1 1.984817 1_555
O23 P8 1.565148 1_555
O23 V0 1.985490 1_545
O24 P9 1.579750 1_555
O24 V0 1.834661 1_555
O25 P9 1.516741 1_555
O25 V3 1.942360 1_555
O26 P1 1.609495 1_555
O26 P8 1.617192 1_555
O27 P1 1.495638 1_555
O28 P14 1.491876 1_555
O29 P6 1.539822 1_555
O29 V2 2.043247 1_555
O30 P6 1.563421 1_555
O30 V1 1.966909 1_545
O31 P7 1.557524 1_555
O31 V1 1.842176 1_555
O32 P11 1.591307 1_555
O32 V0 1.843993 1_545
O33 P10 1.563710 1_555
O33 V0 1.996470 1_545
O34 P10 1.488652 1_565
O35 P9 1.491712 1_555
O36 P9 1.604156 1_545
O36 P10 1.616616 1_555
O37 P13 1.552626 1_555
O37 V1 2.001298 1_545
O38 P12 1.572058 1_555
O38 V2 1.855391 1_555
O39 P8 1.552447 1_555
O39 V3 2.017884 1_555
O40 P12 1.533617 1_555
O40 V1 1.945254 1_545
O41 P12 1.490428 1_555
O42 P11 1.490428 1_555
O43 P11 1.533617 1_555
O43 V4 1.945254 1_455
O44 P14 1.552447 1_555
O44 V2 2.017884 1_555
O45 P11 1.572058 1_555
O45 V3 1.855391 1_555
O46 P10 1.552626 1_555
O46 V4 2.001298 1_455
O47 P0 1.604156 1_455
O47 P13 1.616616 1_555
O48 P0 1.491712 1_555
O49 P13 1.563710 1_555
O49 V5 1.996470 1_455
O50 P12 1.591307 1_555
O50 V5 1.843993 1_455
O51 P15 1.563421 1_555
O51 V4 1.966909 1_455
O52 P15 1.539822 1_555
O52 V3 2.043247 1_555
O53 P7 1.495638 1_555
O54 P7 1.609495 1_555
O54 P14 1.617192 1_555
O55 P14 1.565148 1_555
O55 V5 1.985490 1_455
O56 P2 1.495647 1_555
O57 P2 1.602503 1_455
O57 P15 1.622316 1_555
