# generated using pymatgen
data_NaCr2O4
_symmetry_space_group_name_H-M   'P 1'
_cell_length_a   6.13072186
_cell_length_b   6.13072186
_cell_length_c   6.13072186
_cell_angle_alpha   60.00000000
_cell_angle_beta   60.00000000
_cell_angle_gamma   60.00000000
_symmetry_Int_Tables_number   1
_chemical_formula_structural   NaCr2O4
_chemical_formula_sum   'Na2 Cr4 O8'
_cell_volume   162.93704740
_cell_formula_units_Z   2
loop_
 _symmetry_equiv_pos_site_id
 _symmetry_equiv_pos_as_xyz
  1  'x, y, z'
loop_
 _atom_site_type_symbol
 _atom_site_label
 _atom_site_symmetry_multiplicity
 _atom_site_fract_x
 _atom_site_fract_y
 _atom_site_fract_z
 _atom_site_occupancy
  Na  Na0  1  0.75000000  0.75000000  0.75000000  1
  Na  Na1  1  0.50000000  0.50000000  0.50000000  1
  Cr  Cr0  1  0.62500000  0.12500000  0.12500000  1
  Cr  Cr1  1  0.12500000  0.12500000  0.12500000  1
  Cr  Cr2  1  0.12500000  0.62500000  0.12500000  1
  Cr  Cr3  1  0.12500000  0.12500000  0.62500000  1
  O  O0  1  0.93695000  0.35435000  0.35435000  1
  O  O1  1  0.89565000  0.89565000  0.31305000  1
  O  O2  1  0.35435000  0.93695000  0.35435000  1
  O  O3  1  0.35435000  0.35435000  0.35435000  1
  O  O4  1  0.89565000  0.89565000  0.89565000  1
  O  O5  1  0.89565000  0.31305000  0.89565000  1
  O  O6  1  0.35435000  0.35435000  0.93695000  1
  O  O7  1  0.31305000  0.89565000  0.89565000  1
loop_
_geom_bond_atom_site_label_1
_geom_bond_atom_site_label_2
_geom_bond_distance
_geom_bond_site_symmetry_2
Na0 O4 2.187246 1_555
Na0 O1 2.187246 1_555
Na0 O7 2.187246 1_555
Na0 O5 2.187246 1_555
Na1 O2 2.187246 1_555
Na1 O0 2.187246 1_555
Na1 O6 2.187246 1_555
Na1 O3 2.187246 1_555
Cr0 O1 2.004554 1_545
Cr0 O5 2.004554 1_554
Cr0 O2 2.004554 1_545
Cr0 O6 2.004554 1_554
Cr0 O3 2.004554 1_555
Cr0 O4 2.004554 1_544
Cr1 O0 2.004554 1_455
Cr1 O6 2.004554 1_554
Cr1 O2 2.004554 1_545
Cr1 O5 2.004554 1_454
Cr1 O1 2.004554 1_445
Cr1 O7 2.004554 1_544
Cr2 O1 2.004554 1_455
Cr2 O7 2.004554 1_554
Cr2 O0 2.004554 1_455
Cr2 O6 2.004554 1_554
Cr2 O3 2.004554 1_555
Cr2 O4 2.004554 1_454
Cr3 O7 2.004554 1_545
Cr3 O5 2.004554 1_455
Cr3 O2 2.004554 1_545
Cr3 O0 2.004554 1_455
Cr3 O3 2.004554 1_555
Cr3 O4 2.004554 1_445
