# generated using pymatgen
data_Li7Mn(O2F)2
_symmetry_space_group_name_H-M   'P 1'
_cell_length_a   6.19705731
_cell_length_b   9.57925054
_cell_length_c   9.56852671
_cell_angle_alpha   83.85110860
_cell_angle_beta   75.27958221
_cell_angle_gamma   94.21395697
_symmetry_Int_Tables_number   1
_chemical_formula_structural   Li7Mn(O2F)2
_chemical_formula_sum   'Li28 Mn4 O16 F8'
_cell_volume   543.21038148
_cell_formula_units_Z   4
loop_
 _symmetry_equiv_pos_site_id
 _symmetry_equiv_pos_as_xyz
  1  'x, y, z'
loop_
 _atom_site_type_symbol
 _atom_site_label
 _atom_site_symmetry_multiplicity
 _atom_site_fract_x
 _atom_site_fract_y
 _atom_site_fract_z
 _atom_site_occupancy
  Li  Li0  1  0.04465400  0.07134600  0.36429600  1
  Li  Li1  1  0.54469700  0.57134800  0.36425900  1
  Li  Li2  1  0.79464300  0.32136700  0.86429400  1
  Li  Li3  1  0.29468100  0.82136400  0.86426800  1
  Li  Li4  1  0.44035400  0.32090400  0.23473800  1
  Li  Li5  1  0.94032700  0.82089400  0.23477200  1
  Li  Li6  1  0.19037500  0.57090100  0.73478100  1
  Li  Li7  1  0.69037100  0.07089700  0.73476500  1
  Li  Li8  1  0.35945100  0.14933300  0.47075400  1
  Li  Li9  1  0.85945200  0.64936600  0.47075100  1
  Li  Li10  1  0.10941500  0.39932500  0.97074300  1
  Li  Li11  1  0.60945200  0.89935700  0.97074400  1
  Li  Li12  1  0.10605100  0.36679900  0.56973200  1
  Li  Li13  1  0.60605800  0.86684200  0.56973300  1
  Li  Li14  1  0.85603300  0.61680000  0.06971100  1
  Li  Li15  1  0.35607500  0.11682500  0.06972400  1
  Li  Li16  1  0.04063100  0.16258700  0.75851700  1
  Li  Li17  1  0.54067500  0.66261200  0.75847700  1
  Li  Li18  1  0.79061700  0.41260800  0.25850200  1
  Li  Li19  1  0.29066100  0.91260100  0.25851300  1
  Li  Li20  1  0.49928300  0.44180500  0.61541200  1
  Li  Li21  1  0.99932200  0.94179300  0.61539100  1
  Li  Li22  1  0.24927100  0.69183200  0.11540800  1
  Li  Li23  1  0.74927800  0.19181200  0.11539100  1
  Li  Li24  1  0.38427400  0.26694300  0.84556300  1
  Li  Li25  1  0.88428300  0.76694400  0.84553700  1
  Li  Li26  1  0.13427400  0.51694700  0.34554000  1
  Li  Li27  1  0.63425700  0.01695200  0.34555400  1
  Mn  Mn0  1  0.26168400  0.74912900  0.49478600  1
  Mn  Mn1  1  0.01154300  0.99913800  0.99482900  1
  Mn  Mn2  1  0.76154200  0.24916000  0.49483100  1
  Mn  Mn3  1  0.51141900  0.49914600  0.99486700  1
  O  O0  1  0.07406700  0.01324400  0.17976800  1
  O  O1  1  0.57403500  0.51326200  0.17976300  1
  O  O2  1  0.82408400  0.26331200  0.67975300  1
  O  O3  1  0.32407700  0.76325000  0.67976000  1
  O  O4  1  0.27617800  0.95631100  0.45057600  1
  O  O5  1  0.77616400  0.45641200  0.45053700  1
  O  O6  1  0.02614400  0.20632700  0.95058400  1
  O  O7  1  0.52612300  0.70636100  0.95056700  1
  O  O8  1  0.27080200  0.54471400  0.52483400  1
  O  O9  1  0.77076500  0.04478500  0.52486100  1
  O  O10  1  0.02077600  0.79473800  0.02484000  1
  O  O11  1  0.52074400  0.29478700  0.02485400  1
  O  O12  1  0.40143600  0.47316200  0.82378100  1
  O  O13  1  0.90149800  0.97310900  0.82381900  1
  O  O14  1  0.15151600  0.72316100  0.32383400  1
  O  O15  1  0.65149600  0.22317900  0.32382000  1
  F  F0  1  0.16319100  0.26900600  0.38514200  1
  F  F1  1  0.66319800  0.76900000  0.38514000  1
  F  F2  1  0.91319600  0.51900800  0.88513400  1
  F  F3  1  0.41320200  0.01900400  0.88514400  1
  F  F4  1  0.33191500  0.24754800  0.63939400  1
  F  F5  1  0.83190200  0.74755700  0.63938500  1
  F  F6  1  0.08193200  0.49754700  0.13938400  1
  F  F7  1  0.58191500  0.99755600  0.13938600  1
loop_
_geom_bond_atom_site_label_1
_geom_bond_atom_site_label_2
_geom_bond_distance
_geom_bond_site_symmetry_2
Li0 O0 1.876814 1_555
Li0 O9 1.957950 1_455
Li0 O4 2.143328 1_545
Li1 O1 1.876518 1_555
Li1 O8 1.958015 1_555
Li1 O5 2.142539 1_555
Li2 O2 1.876729 1_555
Li2 O11 1.957961 1_556
Li2 O6 2.143286 1_655
Li3 O3 1.876692 1_555
Li3 O10 1.958041 1_556
Li3 O7 2.142850 1_555
Li4 O1 1.924811 1_555
Li4 O15 1.972523 1_555
Li4 O11 1.990343 1_555
Li5 O0 1.924865 1_665
Li5 O14 1.972689 1_655
Li5 O10 1.990878 1_655
Li6 O3 1.924798 1_555
Li6 O12 1.971750 1_555
Li6 O8 1.991091 1_555
Li7 O2 1.925379 1_555
Li7 O13 1.972588 1_545
Li7 O9 1.990514 1_555
Li8 O4 1.925952 1_545
Li8 O15 2.014494 1_555
Li9 O5 1.925447 1_555
Li9 O14 2.014403 1_655
Li10 O6 1.925681 1_555
Li10 O12 2.014488 1_555
Li11 O7 1.925790 1_555
Li11 O13 2.014272 1_555
Li12 O8 1.869781 1_555
Li12 O2 1.931654 1_455
Li13 O9 1.869895 1_565
Li13 O3 1.932123 1_555
Li14 O10 1.869948 1_655
Li14 O1 1.932061 1_555
Li15 O11 1.869950 1_555
Li15 O0 1.932246 1_555
Li16 O6 1.909911 1_555
Li16 O13 1.918732 1_445
Li16 O2 1.961709 1_455
Li17 O7 1.910080 1_555
Li17 O12 1.918694 1_555
Li17 O3 1.961323 1_555
Li18 O5 1.909851 1_555
Li18 O15 1.918315 1_555
Li18 O1 1.961425 1_555
Li19 O4 1.909784 1_555
Li19 O14 1.918454 1_555
Li19 O0 1.961462 1_565
Li20 O12 1.993425 1_555
Li20 O5 1.998578 1_555
Li20 O8 2.091292 1_555
Li21 O13 1.993837 1_555
Li21 O4 1.998219 1_655
Li21 O9 2.091810 1_565
Li22 O14 1.993827 1_555
Li22 O7 1.998335 1_554
Li22 O10 2.091298 1_555
Li23 O15 1.993967 1_555
Li23 O6 1.998219 1_654
Li23 O11 2.091651 1_555
Li24 O12 1.956197 1_555
Li24 O11 2.128778 1_556
Li24 O6 2.196521 1_555
Li25 O13 1.955677 1_555
Li25 O10 2.128881 1_656
Li25 O7 2.196654 1_555
Li26 O14 1.956138 1_555
Li26 O8 2.128883 1_555
Li26 O5 2.196264 1_455
Li27 O15 1.956258 1_555
Li27 O9 2.129039 1_555
Li27 O4 2.196280 1_545
Mn0 O3 1.921415 1_555
Mn0 O8 1.955528 1_555
Mn0 O14 1.957918 1_555
Mn0 O4 1.974965 1_555
Mn1 O0 1.921415 1_566
Mn1 O10 1.955469 1_556
Mn1 O13 1.958130 1_455
Mn1 O6 1.975007 1_565
Mn2 O2 1.921371 1_555
Mn2 O9 1.955232 1_555
Mn2 O15 1.958054 1_555
Mn2 O5 1.975632 1_555
Mn3 O1 1.921272 1_556
Mn3 O11 1.955150 1_556
Mn3 O12 1.958517 1_555
Mn3 O7 1.975248 1_555
F0 Li4 1.932213 1_555
F0 Li8 1.993621 1_555
F0 Li0 2.028658 1_555
F0 Li12 2.051332 1_555
F0 Li26 2.391863 1_555
F0 Mn2 2.427577 1_455
F1 Li5 1.931896 1_555
F1 Li9 1.993373 1_555
F1 Li1 2.028614 1_555
F1 Li13 2.051621 1_555
F1 Li27 2.391983 1_565
F1 Mn0 2.426738 1_555
F2 Li6 1.932035 1_655
F2 Li10 1.993470 1_655
F2 Li2 2.028506 1_555
F2 Li14 2.051217 1_556
F2 Li25 2.391808 1_555
F2 Mn3 2.428360 1_555
F3 Li7 1.932115 1_555
F3 Li11 1.993373 1_545
F3 Li3 2.028534 1_545
F3 Li15 2.051401 1_556
F3 Li24 2.391842 1_555
F3 Mn1 2.427618 1_545
F4 Li8 1.930538 1_555
F4 Li16 1.938999 1_555
F4 Li20 2.023624 1_555
F4 Li12 2.062615 1_555
F4 Li24 2.103909 1_555
F5 Li9 1.930347 1_555
F5 Li17 1.938598 1_555
F5 Li21 2.023570 1_555
F5 Li13 2.062660 1_555
F5 Li25 2.103788 1_555
F6 Li10 1.930615 1_554
F6 Li18 1.939067 1_455
F6 Li22 2.023790 1_555
F6 Li14 2.062846 1_455
F6 Li26 2.103755 1_555
F7 Li11 1.930465 1_554
F7 Li19 1.938854 1_555
F7 Li23 2.023589 1_565
F7 Li15 2.062594 1_565
F7 Li27 2.103861 1_565
