# generated using pymatgen
data_Fe7(SiO6)2
_symmetry_space_group_name_H-M   'P 1'
_cell_length_a   5.94035965
_cell_length_b   5.94035965
_cell_length_c   13.39883500
_cell_angle_alpha   77.34186773
_cell_angle_beta   77.34186773
_cell_angle_gamma   89.97581569
_symmetry_Int_Tables_number   1
_chemical_formula_structural   Fe7(SiO6)2
_chemical_formula_sum   'Fe14 Si4 O24'
_cell_volume   449.54907458
_cell_formula_units_Z   2
loop_
 _symmetry_equiv_pos_site_id
 _symmetry_equiv_pos_as_xyz
  1  'x, y, z'
loop_
 _atom_site_type_symbol
 _atom_site_label
 _atom_site_symmetry_multiplicity
 _atom_site_fract_x
 _atom_site_fract_y
 _atom_site_fract_z
 _atom_site_occupancy
  Fe  Fe0  1  0.00000000  0.50000000  0.00000000  1
  Fe  Fe1  1  0.50000000  0.50000000  0.00000000  1
  Fe  Fe2  1  0.16649700  0.16490000  0.16362000  1
  Fe  Fe3  1  0.16679000  0.67266600  0.16324000  1
  Fe  Fe4  1  0.62611400  0.37388600  0.25000000  1
  Fe  Fe5  1  0.83510000  0.83350300  0.33638000  1
  Fe  Fe6  1  0.32733400  0.83321000  0.33676000  1
  Fe  Fe7  1  0.50000000  0.50000000  0.50000000  1
  Fe  Fe8  1  0.50000000  0.00000000  0.50000000  1
  Fe  Fe9  1  0.67266600  0.16679000  0.66324000  1
  Fe  Fe10  1  0.16490000  0.16649700  0.66362000  1
  Fe  Fe11  1  0.37388600  0.62611400  0.75000000  1
  Fe  Fe12  1  0.83350300  0.83510000  0.83638000  1
  Fe  Fe13  1  0.83321000  0.32733400  0.83676000  1
  Si  Si0  1  0.29737300  0.04314200  0.91381600  1
  Si  Si1  1  0.70262700  0.95685800  0.08618400  1
  Si  Si2  1  0.04314200  0.29737300  0.41381600  1
  Si  Si3  1  0.95685800  0.70262700  0.58618400  1
  O  O0  1  0.26305700  0.23618500  0.99040100  1
  O  O1  1  0.26320000  0.77372600  0.99011700  1
  O  O2  1  0.73694300  0.76381500  0.00959900  1
  O  O3  1  0.73680000  0.22627400  0.00988300  1
  O  O4  1  0.43536000  0.91853700  0.16271900  1
  O  O5  1  0.89806300  0.91962700  0.16061400  1
  O  O6  1  0.41734400  0.42219600  0.15555100  1
  O  O7  1  0.92664400  0.41998000  0.16022700  1
  O  O8  1  0.58002000  0.07335600  0.33977300  1
  O  O9  1  0.57780400  0.58265600  0.34444900  1
  O  O10  1  0.08037300  0.10193700  0.33938600  1
  O  O11  1  0.08146300  0.56464000  0.33728100  1
  O  O12  1  0.23618500  0.26305700  0.49040100  1
  O  O13  1  0.77372600  0.26320000  0.49011700  1
  O  O14  1  0.22627400  0.73680000  0.50988300  1
  O  O15  1  0.76381500  0.73694300  0.50959900  1
  O  O16  1  0.91962700  0.89806300  0.66061400  1
  O  O17  1  0.91853700  0.43536000  0.66271900  1
  O  O18  1  0.41998000  0.92664400  0.66022700  1
  O  O19  1  0.42219600  0.41734400  0.65555100  1
  O  O20  1  0.58265600  0.57780400  0.84444900  1
  O  O21  1  0.07335600  0.58002000  0.83977300  1
  O  O22  1  0.56464000  0.08146300  0.83728100  1
  O  O23  1  0.10193700  0.08037300  0.83938600  1
loop_
_geom_bond_atom_site_label_1
_geom_bond_atom_site_label_2
_geom_bond_distance
_geom_bond_site_symmetry_2
Fe0 O21 2.041506 1_554
Fe0 O7 2.041506 1_455
Fe0 O2 2.216437 1_455
Fe0 O0 2.216437 1_554
Fe0 O3 2.218804 1_455
Fe0 O1 2.218804 1_554
Fe1 O6 1.981947 1_555
Fe1 O20 1.981947 1_554
Fe1 O2 2.150160 1_555
Fe1 O0 2.150160 1_554
Fe1 O3 2.150719 1_555
Fe1 O1 2.150719 1_554
Fe2 O7 2.079560 1_455
Fe2 O6 2.104078 1_555
Fe2 O4 2.165668 1_545
Fe2 O5 2.173260 1_445
Fe2 O0 2.209315 1_554
Fe2 O10 2.243659 1_555
Fe3 O7 2.084090 1_455
Fe3 O6 2.106607 1_555
Fe3 O4 2.161300 1_555
Fe3 O5 2.168349 1_455
Fe3 O1 2.208371 1_554
Fe3 O11 2.221057 1_555
Fe4 O8 1.903655 1_555
Fe4 O7 1.903655 1_555
Fe4 O9 1.936556 1_555
Fe4 O6 1.936556 1_555
Fe5 O8 2.079560 1_565
Fe5 O9 2.104078 1_555
Fe5 O11 2.165668 1_655
Fe5 O10 2.173260 1_665
Fe5 O15 2.209315 1_555
Fe5 O5 2.243659 1_555
Fe6 O8 2.084090 1_565
Fe6 O9 2.106607 1_555
Fe6 O11 2.161300 1_555
Fe6 O10 2.168349 1_565
Fe6 O14 2.208371 1_555
Fe6 O4 2.221057 1_555
Fe7 O19 1.981947 1_555
Fe7 O9 1.981947 1_555
Fe7 O15 2.150160 1_555
Fe7 O12 2.150160 1_555
Fe7 O13 2.150719 1_555
Fe7 O14 2.150719 1_555
Fe8 O18 2.041506 1_545
Fe8 O8 2.041506 1_555
Fe8 O12 2.216437 1_555
Fe8 O15 2.216437 1_545
Fe8 O14 2.218804 1_545
Fe8 O13 2.218804 1_555
Fe9 O18 2.084090 1_545
Fe9 O19 2.106607 1_555
Fe9 O17 2.161300 1_555
Fe9 O16 2.168349 1_545
Fe9 O13 2.208371 1_555
Fe9 O22 2.221057 1_555
Fe10 O18 2.079560 1_545
Fe10 O19 2.104078 1_555
Fe10 O17 2.165668 1_455
Fe10 O16 2.173260 1_445
Fe10 O12 2.209315 1_555
Fe10 O23 2.243659 1_555
Fe11 O21 1.903655 1_555
Fe11 O18 1.903655 1_555
Fe11 O19 1.936556 1_555
Fe11 O20 1.936556 1_555
Fe12 O21 2.079560 1_655
Fe12 O20 2.104078 1_555
Fe12 O22 2.165668 1_565
Fe12 O23 2.173260 1_665
Fe12 O2 2.209315 1_556
Fe12 O16 2.243659 1_555
Fe13 O21 2.084090 1_655
Fe13 O20 2.106607 1_555
Fe13 O22 2.161300 1_555
Fe13 O23 2.168349 1_655
Fe13 O3 2.208371 1_556
Fe13 O17 2.221057 1_555
O0 Si0 1.683274 1_555
O1 Si0 1.685229 1_565
O2 Si1 1.683274 1_555
O3 Si1 1.685229 1_545
O4 Si1 1.675872 1_555
O5 Si1 1.673870 1_555
O10 Si2 1.673870 1_555
O11 Si2 1.675872 1_555
O12 Si2 1.683274 1_555
O13 Si2 1.685229 1_655
O14 Si3 1.685229 1_455
O15 Si3 1.683274 1_555
O16 Si3 1.673870 1_555
O17 Si3 1.675872 1_555
O22 Si0 1.675872 1_555
O23 Si0 1.673870 1_555
