# generated using pymatgen
data_LiFe8(BO3)8
_symmetry_space_group_name_H-M   'P 1'
_cell_length_a   5.22044000
_cell_length_b   9.19267683
_cell_length_c   11.38401272
_cell_angle_alpha   113.28372584
_cell_angle_beta   102.34458976
_cell_angle_gamma   91.08816255
_symmetry_Int_Tables_number   1
_chemical_formula_structural   LiFe8(BO3)8
_chemical_formula_sum   'Li1 Fe8 B8 O24'
_cell_volume   486.94969397
_cell_formula_units_Z   1
loop_
 _symmetry_equiv_pos_site_id
 _symmetry_equiv_pos_as_xyz
  1  'x, y, z'
loop_
 _atom_site_type_symbol
 _atom_site_label
 _atom_site_symmetry_multiplicity
 _atom_site_fract_x
 _atom_site_fract_y
 _atom_site_fract_z
 _atom_site_occupancy
  Li  Li0  1  0.32962000  0.99657100  0.34729900  1
  Fe  Fe0  1  0.64630000  0.65145000  0.62361300  1
  Fe  Fe1  1  0.39361500  0.07255600  0.12247200  1
  Fe  Fe2  1  0.84353700  0.83750500  0.37673500  1
  Fe  Fe3  1  0.10573900  0.43244500  0.87051900  1
  Fe  Fe4  1  0.89088500  0.56573100  0.12432200  1
  Fe  Fe5  1  0.13767200  0.14497000  0.62032800  1
  Fe  Fe6  1  0.35684600  0.35880700  0.37482800  1
  Fe  Fe7  1  0.60739700  0.93270300  0.87187100  1
  B  B0  1  0.64703900  0.31203500  0.61831300  1
  B  B1  1  0.38880600  0.39413200  0.12092200  1
  B  B2  1  0.85679900  0.18179000  0.37301600  1
  B  B3  1  0.10808800  0.10680200  0.87155800  1
  B  B4  1  0.15397900  0.81561200  0.62704900  1
  B  B5  1  0.88638900  0.89695500  0.12700500  1
  B  B6  1  0.33176200  0.68770700  0.37267700  1
  B  B7  1  0.60943100  0.60487500  0.87262700  1
  O  O0  1  0.15126700  0.94341200  0.15254100  1
  O  O1  1  0.30829100  0.29412900  0.17753400  1
  O  O2  1  0.19602600  0.46617400  0.06494200  1
  O  O3  1  0.46280300  0.81754000  0.37502700  1
  O  O4  1  0.46024100  0.58704400  0.42857000  1
  O  O5  1  0.57614100  0.16319900  0.33004900  1
  O  O6  1  0.91970800  0.32699500  0.66894000  1
  O  O7  1  0.64252300  0.41452800  0.12069500  1
  O  O8  1  0.79658800  0.78377600  0.16391700  1
  O  O9  1  0.04874000  0.92224300  0.57699700  1
  O  O10  1  0.99717200  0.69762900  0.62854600  1
  O  O11  1  0.70053200  0.97192300  0.06804500  1
  O  O12  1  0.29718000  0.03236600  0.92976900  1
  O  O13  1  0.00638600  0.29829900  0.36574000  1
  O  O14  1  0.97541400  0.07435000  0.42069800  1
  O  O15  1  0.19869800  0.20880800  0.82100600  1
  O  O16  1  0.35084700  0.57983300  0.86704600  1
  O  O17  1  0.06293700  0.64694200  0.31574000  1
  O  O18  1  0.42922800  0.83229600  0.67558400  1
  O  O19  1  0.54671800  0.42222600  0.56812100  1
  O  O20  1  0.48319400  0.19245000  0.61248500  1
  O  O21  1  0.79564100  0.52549200  0.92449800  1
  O  O22  1  0.70152100  0.71054100  0.82475600  1
  O  O23  1  0.85096200  0.07934500  0.86675700  1
loop_
_geom_bond_atom_site_label_1
_geom_bond_atom_site_label_2
_geom_bond_distance
_geom_bond_site_symmetry_2
Li0 O3 1.911004 1_555
Li0 O0 2.065158 1_555
Li0 O5 2.076552 1_565
Li0 O14 2.206165 1_465
Fe0 O10 1.856380 1_555
Fe0 O19 1.968540 1_555
Fe0 O18 1.994647 1_555
Fe0 O4 2.059310 1_555
Fe0 O22 2.085639 1_555
Fe1 O0 1.891191 1_545
Fe1 O11 1.958188 1_545
Fe1 O1 1.970928 1_555
Fe1 O12 2.020490 1_554
Fe1 O5 2.153307 1_555
Fe2 O3 1.987816 1_555
Fe2 O17 2.077832 1_655
Fe2 O14 2.097407 1_565
Fe2 O9 2.114684 1_655
Fe2 O8 2.229149 1_555
Fe3 O16 1.863525 1_555
Fe3 O21 1.947386 1_455
Fe3 O15 2.004589 1_555
Fe3 O2 2.054971 1_556
Fe3 O6 2.097990 1_455
Fe4 O7 1.864953 1_555
Fe4 O2 1.964383 1_655
Fe4 O8 1.970096 1_555
Fe4 O17 1.991010 1_655
Fe4 O21 2.098315 1_554
Fe5 O20 1.876661 1_555
Fe5 O9 1.928334 1_545
Fe5 O6 2.002601 1_455
Fe5 O15 2.070444 1_555
Fe5 O14 2.072022 1_455
Fe6 O13 1.871440 1_555
Fe6 O4 1.966902 1_555
Fe6 O1 2.038969 1_555
Fe6 O19 2.048325 1_555
Fe6 O5 2.099262 1_555
Fe7 O23 1.861700 1_565
Fe7 O12 1.982888 1_565
Fe7 O22 1.996194 1_555
Fe7 O18 2.039210 1_555
Fe7 O11 2.060656 1_556
B0 O20 1.351610 1_555
B0 O6 1.398719 1_555
B0 O19 1.405916 1_555
B1 O7 1.334883 1_555
B1 O2 1.393657 1_555
B1 O1 1.416563 1_555
B2 O13 1.352705 1_655
B2 O14 1.398893 1_555
B2 O5 1.425876 1_555
B3 O23 1.346607 1_455
B3 O15 1.400143 1_555
B3 O12 1.409341 1_555
B4 O10 1.354093 1_455
B4 O9 1.384013 1_555
B4 O18 1.406667 1_555
B5 O0 1.373505 1_655
B5 O8 1.374828 1_555
B5 O11 1.406937 1_555
B6 O3 1.352439 1_555
B6 O17 1.388921 1_555
B6 O4 1.420421 1_555
B7 O16 1.348808 1_555
B7 O21 1.395836 1_555
B7 O22 1.408691 1_555
