# generated using pymatgen
data_MgO
_symmetry_space_group_name_H-M   'P 1'
_cell_length_a   3.25059722
_cell_length_b   3.25059116
_cell_length_c   10.38633773
_cell_angle_alpha   90.00300929
_cell_angle_beta   89.99786739
_cell_angle_gamma   119.99760949
_symmetry_Int_Tables_number   1
_chemical_formula_structural   MgO
_chemical_formula_sum   'Mg4 O4'
_cell_volume   95.04494899
_cell_formula_units_Z   4
loop_
 _symmetry_equiv_pos_site_id
 _symmetry_equiv_pos_as_xyz
  1  'x, y, z'
loop_
 _atom_site_type_symbol
 _atom_site_label
 _atom_site_symmetry_multiplicity
 _atom_site_fract_x
 _atom_site_fract_y
 _atom_site_fract_z
 _atom_site_occupancy
  Mg  Mg0  1  0.33333976  0.66668424  0.96966238  1
  Mg  Mg1  1  0.00000178  0.00001704  0.22100231  1
  Mg  Mg2  1  0.00001686  0.00000150  0.72100300  1
  Mg  Mg3  1  0.66664783  0.33338233  0.46966197  1
  O  O0  1  0.33335999  0.66666159  0.77984015  1
  O  O1  1  0.99999296  0.00003988  0.52949334  1
  O  O2  1  0.99998901  0.00004022  0.02949352  1
  O  O3  1  0.66665180  0.33337321  0.27983933  1
loop_
_geom_bond_atom_site_label_1
_geom_bond_atom_site_label_2
_geom_bond_distance
_geom_bond_site_symmetry_2
Mg0 O0 1.971558 1_555
Mg0 O2 1.976944 1_456
Mg0 O2 1.976945 1_566
Mg0 O2 1.976995 1_466
Mg1 O3 1.973722 1_445
Mg1 O3 1.973726 1_555
Mg1 O3 1.973773 1_455
Mg1 O2 1.989075 1_455
Mg2 O0 1.973720 1_555
Mg2 O0 1.973730 1_445
Mg2 O0 1.973772 1_545
Mg2 O1 1.989084 1_455
Mg3 O3 1.971562 1_555
Mg3 O1 1.976935 1_565
Mg3 O1 1.976946 1_455
Mg3 O1 1.977006 1_555
