# generated using pymatgen
data_Li4TiCr5O12
_symmetry_space_group_name_H-M   'P 1'
_cell_length_a   5.13871383
_cell_length_b   5.13871383
_cell_length_c   10.12606175
_cell_angle_alpha   89.97534073
_cell_angle_beta   89.97534073
_cell_angle_gamma   120.02111125
_symmetry_Int_Tables_number   1
_chemical_formula_structural   Li4TiCr5O12
_chemical_formula_sum   'Li4 Ti1 Cr5 O12'
_cell_volume   231.51944964
_cell_formula_units_Z   1
loop_
 _symmetry_equiv_pos_site_id
 _symmetry_equiv_pos_as_xyz
  1  'x, y, z'
loop_
 _atom_site_type_symbol
 _atom_site_label
 _atom_site_symmetry_multiplicity
 _atom_site_fract_x
 _atom_site_fract_y
 _atom_site_fract_z
 _atom_site_occupancy
  Li  Li0  1  0.84705000  0.34843600  0.25107800  1
  Li  Li1  1  0.65156400  0.15295000  0.74892200  1
  Li  Li2  1  0.34843600  0.84705000  0.25107800  1
  Li  Li3  1  0.15295000  0.65156400  0.74892200  1
  Ti  Ti0  1  0.00000000  0.00000000  0.00000000  1
  Cr  Cr0  1  0.83491700  0.16508300  0.50000000  1
  Cr  Cr1  1  0.33600400  0.66399600  0.00000000  1
  Cr  Cr2  1  0.66399600  0.33600400  0.00000000  1
  Cr  Cr3  1  0.16508300  0.83491700  0.50000000  1
  Cr  Cr4  1  0.50000000  0.50000000  0.50000000  1
  O  O0  1  0.99452300  0.33166000  0.89316800  1
  O  O1  1  0.66834000  0.00547700  0.10683200  1
  O  O2  1  0.83559800  0.49217100  0.60611300  1
  O  O3  1  0.49217100  0.83559800  0.60611300  1
  O  O4  1  0.50782900  0.16440200  0.39388700  1
  O  O5  1  0.83104700  0.83104700  0.40595400  1
  O  O6  1  0.16440200  0.50782900  0.39388700  1
  O  O7  1  0.33166000  0.99452300  0.89316800  1
  O  O8  1  0.67600200  0.67600200  0.90034700  1
  O  O9  1  0.00547700  0.66834000  0.10683200  1
  O  O10  1  0.32399800  0.32399800  0.09965300  1
  O  O11  1  0.16895300  0.16895300  0.59404600  1
loop_
_geom_bond_atom_site_label_1
_geom_bond_atom_site_label_2
_geom_bond_distance
_geom_bond_site_symmetry_2
Li0 O6 2.021875 1_655
Li0 O9 2.038723 1_655
Li0 O4 2.090749 1_555
Li0 O1 2.113446 1_555
Li1 O3 2.021875 1_545
Li1 O7 2.038723 1_545
Li1 O2 2.090749 1_555
Li1 O0 2.113446 1_555
Li2 O4 2.021875 1_565
Li2 O1 2.038723 1_565
Li2 O6 2.090749 1_555
Li2 O9 2.113446 1_555
Li3 O2 2.021875 1_455
Li3 O0 2.038723 1_455
Li3 O3 2.090749 1_555
Li3 O7 2.113446 1_555
Cr0 O5 1.954736 1_545
Cr0 O11 1.954736 1_655
Cr0 O4 1.993835 1_555
Cr0 O2 1.993835 1_555
Cr0 O3 2.033759 1_545
Cr0 O6 2.033759 1_655
Cr1 O10 1.991277 1_555
Cr1 O8 1.991277 1_554
Cr1 O7 2.022866 1_554
Cr1 O9 2.022866 1_555
Cr1 O0 2.042192 1_454
Cr1 O1 2.042192 1_565
Cr2 O10 1.991277 1_555
Cr2 O8 1.991277 1_554
Cr2 O0 2.022866 1_554
Cr2 O1 2.022866 1_555
Cr2 O7 2.042192 1_544
Cr2 O9 2.042192 1_655
Cr3 O5 1.954736 1_455
Cr3 O11 1.954736 1_565
Cr3 O6 1.993835 1_555
Cr3 O3 1.993835 1_555
Cr3 O2 2.033759 1_455
Cr3 O4 2.033759 1_565
Cr4 O11 1.948384 1_555
Cr4 O5 1.948384 1_555
Cr4 O6 2.049686 1_555
Cr4 O4 2.049686 1_555
Cr4 O2 2.049686 1_555
Cr4 O3 2.049686 1_555
O0 Ti0 2.030308 1_656
O1 Ti0 2.030308 1_655
O7 Ti0 2.030308 1_566
O8 Ti0 1.947150 1_666
O9 Ti0 2.030308 1_565
O10 Ti0 1.947150 1_555
