# generated using pymatgen
data_Li4Fe5NiO12
_symmetry_space_group_name_H-M   'P 1'
_cell_length_a   5.11067392
_cell_length_b   5.11067392
_cell_length_c   10.23636655
_cell_angle_alpha   89.62319645
_cell_angle_beta   89.62319645
_cell_angle_gamma   119.89060641
_symmetry_Int_Tables_number   1
_chemical_formula_structural   Li4Fe5NiO12
_chemical_formula_sum   'Li4 Fe5 Ni1 O12'
_cell_volume   231.77844077
_cell_formula_units_Z   1
loop_
 _symmetry_equiv_pos_site_id
 _symmetry_equiv_pos_as_xyz
  1  'x, y, z'
loop_
 _atom_site_type_symbol
 _atom_site_label
 _atom_site_symmetry_multiplicity
 _atom_site_fract_x
 _atom_site_fract_y
 _atom_site_fract_z
 _atom_site_occupancy
  Li  Li0  1  0.65753000  0.14665100  0.75244600  1
  Li  Li1  1  0.85334900  0.34247000  0.24755400  1
  Li  Li2  1  0.13957100  0.66454100  0.75009500  1
  Li  Li3  1  0.33545900  0.86042900  0.24990500  1
  Fe  Fe0  1  0.83739500  0.16260500  0.50000000  1
  Fe  Fe1  1  0.33791400  0.66208600  0.00000000  1
  Fe  Fe2  1  0.66691900  0.33308100  0.00000000  1
  Fe  Fe3  1  0.16480900  0.83519100  0.50000000  1
  Fe  Fe4  1  0.50110800  0.49889200  0.50000000  1
  Ni  Ni0  1  0.99814200  0.00185800  0.00000000  1
  O  O0  1  0.65686100  0.02658600  0.10840700  1
  O  O1  1  0.97341400  0.34313900  0.89159300  1
  O  O2  1  0.49630400  0.15360200  0.39379400  1
  O  O3  1  0.16716200  0.52230300  0.39369300  1
  O  O4  1  0.84639800  0.50369600  0.60620600  1
  O  O5  1  0.16767900  0.15059800  0.59865200  1
  O  O6  1  0.47769700  0.83283800  0.60630700  1
  O  O7  1  0.00691500  0.64432700  0.10158200  1
  O  O8  1  0.34866900  0.34943100  0.09581100  1
  O  O9  1  0.35567300  0.99308500  0.89841800  1
  O  O10  1  0.65056900  0.65133100  0.90418900  1
  O  O11  1  0.84940200  0.83232100  0.40134800  1
loop_
_geom_bond_atom_site_label_1
_geom_bond_atom_site_label_2
_geom_bond_distance
_geom_bond_site_symmetry_2
Li0 O9 1.994009 1_545
Li0 O1 2.019083 1_555
Li0 O6 2.057955 1_545
Li0 O4 2.166069 1_555
Li1 O7 1.994009 1_655
Li1 O0 2.019083 1_555
Li1 O3 2.057955 1_655
Li1 O2 2.166069 1_555
Li2 O4 1.976734 1_455
Li2 O1 2.019756 1_455
Li2 O6 2.088263 1_555
Li2 O9 2.133441 1_555
Li3 O2 1.976734 1_565
Li3 O0 2.019756 1_565
Li3 O3 2.088263 1_555
Li3 O7 2.133441 1_555
Fe0 O5 1.999409 1_655
Fe0 O11 1.999409 1_545
Fe0 O2 2.041678 1_555
Fe0 O4 2.041678 1_555
Fe0 O3 2.065317 1_655
Fe0 O6 2.065317 1_545
Fe1 O10 1.893608 1_554
Fe1 O8 1.893608 1_555
Fe1 O9 1.942598 1_554
Fe1 O7 1.942598 1_555
Fe1 O1 2.093595 1_454
Fe1 O0 2.093595 1_565
Fe2 O0 1.893091 1_555
Fe2 O1 1.893091 1_554
Fe2 O10 1.931277 1_554
Fe2 O8 1.931277 1_555
Fe2 O9 1.980272 1_544
Fe2 O7 1.980272 1_655
Fe3 O11 1.901680 1_455
Fe3 O5 1.901680 1_565
Fe3 O3 1.945050 1_555
Fe3 O6 1.945050 1_555
Fe3 O4 1.976089 1_455
Fe3 O2 1.976089 1_565
Fe4 O5 2.005626 1_555
Fe4 O11 2.005626 1_555
Fe4 O4 2.068567 1_555
Fe4 O2 2.068567 1_555
Fe4 O3 2.082670 1_555
Fe4 O6 2.082670 1_555
Ni0 O10 2.049594 1_544
Ni0 O8 2.049594 1_655
Ni0 O9 2.116432 1_644
Ni0 O7 2.116432 1_645
Ni0 O0 2.117929 1_555
Ni0 O1 2.117929 1_554
