# generated using pymatgen
data_Ca2I4O13
_symmetry_space_group_name_H-M   'P 1'
_cell_length_a   7.21114300
_cell_length_b   7.21114300
_cell_length_c   16.42172400
_cell_angle_alpha   82.31290476
_cell_angle_beta   82.31290476
_cell_angle_gamma   54.10031776
_symmetry_Int_Tables_number   1
_chemical_formula_structural   Ca2I4O13
_chemical_formula_sum   'Ca4 I8 O26'
_cell_volume   683.88264228
_cell_formula_units_Z   2
loop_
 _symmetry_equiv_pos_site_id
 _symmetry_equiv_pos_as_xyz
  1  'x, y, z'
loop_
 _atom_site_type_symbol
 _atom_site_label
 _atom_site_symmetry_multiplicity
 _atom_site_fract_x
 _atom_site_fract_y
 _atom_site_fract_z
 _atom_site_occupancy
  Ca  Ca0  1  0.37469800  0.83639800  0.12428000  1
  Ca  Ca1  1  0.16360200  0.62530200  0.37572000  1
  Ca  Ca2  1  0.62530200  0.16360200  0.87572000  1
  Ca  Ca3  1  0.83639800  0.37469800  0.62428000  1
  I  I0  1  0.98518100  0.58211600  0.85498800  1
  I  I1  1  0.41788400  0.01481900  0.64501200  1
  I  I2  1  0.01481900  0.41788400  0.14501200  1
  I  I3  1  0.58211600  0.98518100  0.35498800  1
  I  I4  1  0.66414300  0.17250300  0.10886700  1
  I  I5  1  0.82749700  0.33585700  0.39113300  1
  I  I6  1  0.33585700  0.82749700  0.89113300  1
  I  I7  1  0.17250300  0.66414300  0.60886700  1
  O  O0  1  0.37614100  0.42193200  0.14070300  1
  O  O1  1  0.57806800  0.62385900  0.35929700  1
  O  O2  1  0.62385900  0.57806800  0.85929700  1
  O  O3  1  0.42193200  0.37614100  0.64070300  1
  O  O4  1  0.14443300  0.85556700  0.25000000  1
  O  O5  1  0.85556700  0.14443300  0.75000000  1
  O  O6  1  0.72106200  0.49194900  0.15970000  1
  O  O7  1  0.50805100  0.27893800  0.34030000  1
  O  O8  1  0.27893800  0.50805100  0.84030000  1
  O  O9  1  0.49194900  0.72106200  0.65970000  1
  O  O10  1  0.15082000  0.17913400  0.22698500  1
  O  O11  1  0.82086600  0.84918000  0.27301500  1
  O  O12  1  0.84918000  0.82086600  0.77301500  1
  O  O13  1  0.17913400  0.15082000  0.72698500  1
  O  O14  1  0.11835200  0.23728600  0.05916100  1
  O  O15  1  0.76271400  0.88164800  0.44083900  1
  O  O16  1  0.88164800  0.76271400  0.94083900  1
  O  O17  1  0.23728600  0.11835200  0.55916100  1
  O  O18  1  0.61413900  0.95099700  0.11243400  1
  O  O19  1  0.04900300  0.38586100  0.38756600  1
  O  O20  1  0.38586100  0.04900300  0.88756600  1
  O  O21  1  0.95099700  0.61413900  0.61243400  1
  O  O22  1  0.31808600  0.76450500  0.00149300  1
  O  O23  1  0.23549500  0.68191400  0.49850700  1
  O  O24  1  0.68191400  0.23549500  0.99850700  1
  O  O25  1  0.76450500  0.31808600  0.50149300  1
loop_
_geom_bond_atom_site_label_1
_geom_bond_atom_site_label_2
_geom_bond_distance
_geom_bond_site_symmetry_2
Ca0 O18 2.289661 1_555
Ca0 O22 2.291128 1_555
Ca0 O6 2.339432 1_555
Ca0 O4 2.434885 1_555
Ca0 O14 2.520433 1_565
Ca0 O10 2.695697 1_565
Ca0 O0 2.958758 1_555
Ca1 O19 2.289661 1_555
Ca1 O23 2.291128 1_555
Ca1 O7 2.339432 1_555
Ca1 O4 2.434885 1_555
Ca1 O15 2.520433 1_455
Ca1 O11 2.695697 1_455
Ca1 O1 2.958758 1_555
Ca2 O20 2.289661 1_555
Ca2 O24 2.291128 1_555
Ca2 O8 2.339432 1_555
Ca2 O5 2.434885 1_555
Ca2 O16 2.520433 1_545
Ca2 O12 2.695697 1_545
Ca2 O2 2.958758 1_555
Ca3 O21 2.289661 1_555
Ca3 O25 2.291128 1_555
Ca3 O9 2.339432 1_555
Ca3 O5 2.434885 1_555
Ca3 O17 2.520433 1_655
Ca3 O13 2.695697 1_655
Ca3 O3 2.958758 1_555
I0 O16 1.819444 1_555
I0 O8 1.844367 1_655
I0 O12 1.868437 1_555
I0 O2 2.614200 1_555
I1 O17 1.819444 1_555
I1 O9 1.844367 1_545
I1 O13 1.868437 1_555
I1 O3 2.614200 1_555
I2 O14 1.819444 1_555
I2 O6 1.844367 1_455
I2 O10 1.868437 1_555
I2 O0 2.614200 1_555
I3 O15 1.819444 1_555
I3 O7 1.844367 1_565
I3 O11 1.868437 1_555
I3 O1 2.614200 1_555
I4 O24 1.814689 1_554
I4 O18 1.824729 1_545
I4 O0 1.844464 1_555
I5 O25 1.814689 1_555
I5 O19 1.824729 1_655
I5 O1 1.844464 1_555
I6 O22 1.814689 1_556
I6 O20 1.824729 1_565
I6 O2 1.844464 1_555
I7 O23 1.814689 1_555
I7 O21 1.824729 1_455
I7 O3 1.844464 1_555
