# generated using pymatgen
data_Li6MnV3(PO4)6
_symmetry_space_group_name_H-M   'P 1'
_cell_length_a   8.68009909
_cell_length_b   8.72944187
_cell_length_c   15.05001641
_cell_angle_alpha   106.09722876
_cell_angle_beta   89.99616006
_cell_angle_gamma   61.38040520
_symmetry_Int_Tables_number   1
_chemical_formula_structural   Li6MnV3(PO4)6
_chemical_formula_sum   'Li12 Mn2 V6 P12 O48'
_cell_volume   949.78420126
_cell_formula_units_Z   2
loop_
 _symmetry_equiv_pos_site_id
 _symmetry_equiv_pos_as_xyz
  1  'x, y, z'
loop_
 _atom_site_type_symbol
 _atom_site_label
 _atom_site_symmetry_multiplicity
 _atom_site_fract_x
 _atom_site_fract_y
 _atom_site_fract_z
 _atom_site_occupancy
  Li  Li0  1  0.30683600  0.74836700  0.32267100  1
  Li  Li1  1  0.18410200  0.71059600  0.55354200  1
  Li  Li2  1  0.68253600  0.71227100  0.05150400  1
  Li  Li3  1  0.16889300  0.25231900  0.19200300  1
  Li  Li4  1  0.21025200  0.67770700  0.82694900  1
  Li  Li5  1  0.71088100  0.67764200  0.32745900  1
  Li  Li6  1  0.26351800  0.21006700  0.63052400  1
  Li  Li7  1  0.76035900  0.21186700  0.13269700  1
  Li  Li8  1  0.79942900  0.74998300  0.81838400  1
  Li  Li9  1  0.67142200  0.24762100  0.68466400  1
  Li  Li10  1  0.36345600  0.17693500  0.98048700  1
  Li  Li11  1  0.86580100  0.17675300  0.48019200  1
  Mn  Mn0  1  0.78570000  0.85797900  0.57443800  1
  Mn  Mn1  1  0.53172500  0.35823900  0.32045200  1
  V  V0  1  0.28514600  0.85618400  0.07255700  1
  V  V1  1  0.03275800  0.35705000  0.82096300  1
  V  V2  1  0.47410000  0.64044900  0.67899500  1
  V  V3  1  0.21839200  0.14031700  0.42338000  1
  V  V4  1  0.97205700  0.63965200  0.17939500  1
  V  V5  1  0.71700600  0.14042100  0.92406200  1
  P  P0  1  0.01434000  0.95616000  0.73521300  1
  P  P1  1  0.51621300  0.95292600  0.23472400  1
  P  P2  1  0.02301900  0.25162800  0.02421500  1
  P  P3  1  0.09836500  0.54035100  0.37599100  1
  P  P4  1  0.40413000  0.45622000  0.12569800  1
  P  P5  1  0.47704900  0.75904100  0.47894900  1
  P  P6  1  0.52028400  0.25884200  0.52209900  1
  P  P7  1  0.59810400  0.53950300  0.87505300  1
  P  P8  1  0.90484300  0.45358100  0.62499000  1
  P  P9  1  0.97450200  0.75158300  0.97602600  1
  P  P10  1  0.48662100  0.04027200  0.76301500  1
  P  P11  1  0.98699500  0.03807600  0.26238100  1
  O  O0  1  0.02034400  0.84073100  0.23959900  1
  O  O1  1  0.46463200  0.90917400  0.13523600  1
  O  O2  1  0.40260900  0.94047000  0.30955700  1
  O  O3  1  0.00941600  0.68045700  0.47435600  1
  O  O4  1  0.29651100  0.92357400  0.47420000  1
  O  O5  1  0.35910600  0.64522300  0.12241600  1
  O  O6  1  0.23500300  0.44609100  0.14650900  1
  O  O7  1  0.26458300  0.55480400  0.35217700  1
  O  O8  1  0.20545200  0.79566100  0.72578300  1
  O  O9  1  0.70787200  0.79288200  0.22691100  1
  O  O10  1  0.20686300  0.09746700  0.03560000  1
  O  O11  1  0.15410900  0.34096300  0.36909700  1
  O  O12  1  0.10770300  0.04740600  0.19004000  1
  O  O13  1  0.01060400  0.29519400  0.53254200  1
  O  O14  1  0.12100200  0.80393200  0.99358600  1
  O  O15  1  0.43079900  0.69447300  0.55553700  1
  O  O16  1  0.51262700  0.29393700  0.03504700  1
  O  O17  1  0.02927000  0.40841500  0.70008400  1
  O  O18  1  0.04944500  0.59796300  0.87799800  1
  O  O19  1  0.62485700  0.81092900  0.49697100  1
  O  O20  1  0.92711800  0.68957000  0.05341800  1
  O  O21  1  0.03239600  0.08493100  0.36293100  1
  O  O22  1  0.52600400  0.41989800  0.20336800  1
  O  O23  1  0.54793800  0.61072900  0.38044200  1
  O  O24  1  0.52334600  0.84177500  0.73985000  1
  O  O25  1  0.49370600  0.14299400  0.25665600  1
  O  O26  1  0.43664700  0.42365400  0.61465200  1
  O  O27  1  0.94604400  0.41297200  0.11775600  1
  O  O28  1  0.95871700  0.92017500  0.63551200  1
  O  O29  1  0.46942500  0.58547600  0.80212800  1
  O  O30  1  0.07055800  0.30383700  0.94237800  1
  O  O31  1  0.38212500  0.19424200  0.50690500  1
  O  O32  1  0.96865400  0.58523300  0.30359000  1
  O  O33  1  0.56744900  0.31069900  0.43925400  1
  O  O34  1  0.88174400  0.19111000  0.00902300  1
  O  O35  1  0.90013600  0.94396100  0.80926700  1
  O  O36  1  0.50610100  0.68175600  0.97217200  1
  O  O37  1  0.79589400  0.91393600  0.96812200  1
  O  O38  1  0.86037400  0.64446300  0.62669600  1
  O  O39  1  0.29491500  0.18064800  0.75965900  1
  O  O40  1  0.79624600  0.18100000  0.25790900  1
  O  O41  1  0.73554900  0.44184600  0.64568800  1
  O  O42  1  0.76598700  0.55145700  0.85272500  1
  O  O43  1  0.70373300  0.11123900  0.53600000  1
  O  O44  1  0.65110300  0.34195100  0.87022200  1
  O  O45  1  0.60459500  0.05424300  0.69122900  1
  O  O46  1  0.53037300  0.08728700  0.86416600  1
  O  O47  1  0.99448200  0.14639900  0.76036700  1
loop_
_geom_bond_atom_site_label_1
_geom_bond_atom_site_label_2
_geom_bond_distance
_geom_bond_site_symmetry_2
Li0 O7 2.048542 1_555
Li0 O23 2.179455 1_555
Li0 O2 2.249719 1_555
Li0 O4 2.341470 1_555
Li1 O3 1.999292 1_555
Li1 O28 2.003910 1_455
Li1 O15 2.078398 1_555
Li1 O8 2.523860 1_555
Li2 O1 1.950390 1_555
Li2 O36 2.014093 1_554
Li2 O20 2.036505 1_555
Li3 O12 2.088913 1_555
Li3 O27 2.286397 1_455
Li3 O6 2.287226 1_555
Li3 O10 2.298961 1_555
Li3 O11 2.545593 1_555
Li3 O32 2.596394 1_455
Li4 O29 1.986616 1_555
Li4 O8 2.051437 1_555
Li4 O18 2.061658 1_555
Li4 O14 2.398622 1_555
Li5 O32 1.973893 1_555
Li5 O23 2.006743 1_555
Li5 O9 2.030174 1_555
Li5 O19 2.437448 1_555
Li6 O17 1.962168 1_555
Li6 O39 2.031539 1_555
Li6 O31 2.064295 1_555
Li7 O40 1.980406 1_555
Li7 O22 1.989183 1_555
Li7 O34 2.058450 1_555
Li7 O16 2.530909 1_555
Li8 O42 2.081666 1_555
Li8 O18 2.275349 1_655
Li8 O35 2.279722 1_555
Li8 O37 2.301567 1_555
Li8 O24 2.543211 1_555
Li9 O45 2.055820 1_555
Li9 O43 2.169079 1_555
Li9 O41 2.232516 1_555
Li9 O26 2.350048 1_555
Li10 O46 1.982440 1_555
Li10 O16 2.048408 1_556
Li10 O10 2.058883 1_556
Li10 O30 2.382078 1_555
Li11 O21 1.988181 1_655
Li11 O43 2.012076 1_555
Li11 O13 2.015663 1_655
Li11 O33 2.439737 1_555
Mn0 O19 1.939371 1_555
Mn0 O28 1.974748 1_555
Mn0 O38 2.041648 1_555
Mn0 O45 2.060488 1_565
Mn0 O3 2.064825 1_655
Mn0 O43 2.220582 1_565
Mn1 O33 1.937391 1_555
Mn1 O22 1.974232 1_555
Mn1 O25 2.038365 1_555
Mn1 O7 2.069554 1_555
Mn1 O40 2.083424 1_555
Mn1 O23 2.210575 1_555
O0 P11 1.537467 1_465
O0 V4 1.975004 1_455
O1 P1 1.560453 1_555
O1 V0 1.994910 1_555
O2 P1 1.556629 1_555
O2 V3 2.050578 1_565
O3 P3 1.541011 1_555
O4 P5 1.557083 1_555
O4 V3 2.048928 1_565
O5 P4 1.518157 1_555
O5 V0 2.000095 1_555
O6 P4 1.549420 1_555
O6 V4 2.037383 1_455
O7 P3 1.557369 1_555
O8 P0 1.548596 1_555
O8 V2 2.052632 1_555
O9 P1 1.554228 1_555
O9 V4 2.022378 1_555
O10 P2 1.567649 1_555
O10 V0 2.118032 1_545
O11 P3 1.538648 1_555
O11 V3 1.975834 1_555
O12 P11 1.555808 1_455
O12 V0 2.045704 1_545
O13 P8 1.551570 1_455
O13 V3 2.052284 1_555
O14 P9 1.544504 1_455
O14 V0 1.993195 1_556
O15 P5 1.544164 1_555
O15 V2 2.032783 1_555
O16 P4 1.550832 1_555
O16 V5 2.052773 1_554
O17 P8 1.561580 1_455
O17 V1 1.987692 1_555
O18 P9 1.570074 1_455
O18 V1 2.114553 1_555
O19 P5 1.553521 1_555
O20 P9 1.543289 1_554
O20 V4 2.057206 1_555
O21 P11 1.556879 1_455
O21 V3 2.042541 1_555
O22 P4 1.571756 1_555
O23 P5 1.557255 1_555
O24 P10 1.536711 1_565
O24 V2 1.984279 1_555
O25 P1 1.511883 1_545
O26 P6 1.557291 1_555
O26 V2 2.048938 1_555
O27 P2 1.552690 1_655
O27 V4 2.058465 1_555
O28 P0 1.570764 1_655
O29 P7 1.558261 1_555
O29 V2 2.043993 1_555
O30 P2 1.544771 1_556
O30 V1 1.996803 1_555
O31 P6 1.544295 1_555
O31 V3 2.033382 1_555
O32 P3 1.556530 1_655
O32 V4 2.055733 1_555
O33 P6 1.554845 1_555
O34 P2 1.545573 1_655
O34 V5 2.041605 1_554
O35 P0 1.550147 1_655
O35 V5 2.048853 1_565
O36 P7 1.536068 1_555
O36 V0 2.050779 1_556
O37 P9 1.553997 1_555
O37 V5 2.060970 1_565
O38 P8 1.512052 1_555
O39 P10 1.534293 1_555
O39 V1 2.062916 1_555
O40 P11 1.539540 1_555
O41 P8 1.558451 1_555
O41 V2 2.038613 1_555
O42 P7 1.553196 1_555
O42 V1 2.062986 1_655
O43 P6 1.556783 1_555
O44 P7 1.536666 1_555
O44 V5 1.976164 1_555
O45 P10 1.556691 1_555
O46 P10 1.559828 1_555
O46 V5 2.034765 1_555
O47 P0 1.519219 1_645
O47 V1 1.994709 1_655
