# generated using pymatgen
data_Li8VO5F
_symmetry_space_group_name_H-M   'P 1'
_cell_length_a   6.01394187
_cell_length_b   9.86988443
_cell_length_c   9.55077596
_cell_angle_alpha   101.71245681
_cell_angle_beta   105.91525108
_cell_angle_gamma   82.82210306
_symmetry_Int_Tables_number   1
_chemical_formula_structural   Li8VO5F
_chemical_formula_sum   'Li32 V4 O20 F4'
_cell_volume   532.37597760
_cell_formula_units_Z   4
loop_
 _symmetry_equiv_pos_site_id
 _symmetry_equiv_pos_as_xyz
  1  'x, y, z'
loop_
 _atom_site_type_symbol
 _atom_site_label
 _atom_site_symmetry_multiplicity
 _atom_site_fract_x
 _atom_site_fract_y
 _atom_site_fract_z
 _atom_site_occupancy
  Li  Li0  1  0.09227300  0.27088100  0.06021000  1
  Li  Li1  1  0.59217900  0.77091300  0.06018300  1
  Li  Li2  1  0.84207900  0.52089000  0.56014200  1
  Li  Li3  1  0.34229100  0.02087600  0.56011100  1
  Li  Li4  1  0.40546400  0.24798900  0.26120400  1
  Li  Li5  1  0.90520800  0.74789400  0.26099000  1
  Li  Li6  1  0.15534700  0.49783100  0.76099200  1
  Li  Li7  1  0.65525900  0.99794400  0.76087800  1
  Li  Li8  1  0.13555500  0.50605700  0.11740000  1
  Li  Li9  1  0.63563300  0.00605000  0.11738600  1
  Li  Li10  1  0.88558600  0.75604600  0.61740200  1
  Li  Li11  1  0.38501600  0.25612500  0.61730500  1
  Li  Li12  1  0.76404300  0.24674100  0.14682200  1
  Li  Li13  1  0.26402200  0.74671200  0.14681600  1
  Li  Li14  1  0.51393800  0.49668100  0.64663900  1
  Li  Li15  1  0.01428900  0.99677800  0.64675100  1
  Li  Li16  1  0.46021700  0.50281400  0.32709800  1
  Li  Li17  1  0.96044200  0.00292100  0.32713200  1
  Li  Li18  1  0.21021000  0.75284000  0.82701600  1
  Li  Li19  1  0.71034600  0.25295100  0.82721700  1
  Li  Li20  1  0.11984200  0.23775800  0.38496900  1
  Li  Li21  1  0.61982800  0.73776500  0.38494600  1
  Li  Li22  1  0.86988400  0.48775700  0.88484000  1
  Li  Li23  1  0.36976700  0.98780600  0.88496900  1
  Li  Li24  1  0.85206900  0.51029400  0.23720800  1
  Li  Li25  1  0.35209300  0.01036700  0.23717100  1
  Li  Li26  1  0.60213400  0.76031200  0.73720600  1
  Li  Li27  1  0.10202700  0.26016600  0.73700300  1
  Li  Li28  1  0.16975300  0.48353100  0.45045300  1
  Li  Li29  1  0.67019400  0.98338100  0.45025300  1
  Li  Li30  1  0.91994600  0.73350400  0.95041300  1
  Li  Li31  1  0.41990300  0.23341000  0.95037800  1
  V  V0  1  0.99208800  0.99241700  0.00693900  1
  V  V1  1  0.24215200  0.74251500  0.50694000  1
  V  V2  1  0.49189000  0.49243100  0.00693600  1
  V  V3  1  0.74170500  0.24233200  0.50705900  1
  O  O0  1  0.39559400  0.36368600  0.12364700  1
  O  O1  1  0.89554700  0.86361400  0.12363300  1
  O  O2  1  0.14552300  0.61376600  0.62365100  1
  O  O3  1  0.64604500  0.11372800  0.62368500  1
  O  O4  1  0.09632000  0.14199600  0.19005200  1
  O  O5  1  0.59640900  0.64196100  0.19003700  1
  O  O6  1  0.84672500  0.39202200  0.69001200  1
  O  O7  1  0.34659800  0.89202400  0.69004200  1
  O  O8  1  0.83027200  0.40318700  0.04061900  1
  O  O9  1  0.33028600  0.90317700  0.04067100  1
  O  O10  1  0.58011300  0.65327000  0.54063100  1
  O  O11  1  0.08105900  0.15299800  0.54068000  1
  O  O12  1  0.41745700  0.34485700  0.46135100  1
  O  O13  1  0.91804600  0.84479000  0.46134800  1
  O  O14  1  0.16793300  0.59481600  0.96130700  1
  O  O15  1  0.66782700  0.09489300  0.96117600  1
  O  O16  1  0.14768800  0.60705500  0.31252500  1
  O  O17  1  0.64801200  0.10694900  0.31240900  1
  O  O18  1  0.89769600  0.85698600  0.81244000  1
  O  O19  1  0.39786000  0.35699600  0.81256900  1
  F  F0  1  0.87027500  0.39085600  0.38005000  1
  F  F1  1  0.37081700  0.89092300  0.38005200  1
  F  F2  1  0.62065600  0.64088000  0.88002600  1
  F  F3  1  0.12057300  0.14089100  0.88001600  1
loop_
_geom_bond_atom_site_label_1
_geom_bond_atom_site_label_2
_geom_bond_distance
_geom_bond_site_symmetry_2
Li0 O8 1.909520 1_455
Li0 O4 1.942365 1_555
Li0 O0 2.029715 1_555
Li1 O9 1.908800 1_555
Li1 O5 1.942702 1_555
Li1 O1 2.029441 1_555
Li2 O10 1.909801 1_555
Li2 O6 1.941562 1_555
Li2 O2 2.030686 1_655
Li3 O11 1.905117 1_555
Li3 O7 1.942381 1_545
Li3 O3 2.032171 1_555
Li4 O0 1.892852 1_555
Li4 O17 1.918963 1_555
Li4 O12 1.942410 1_555
Li4 O4 2.125383 1_555
Li5 O1 1.891772 1_555
Li5 O16 1.917978 1_655
Li5 O13 1.943389 1_555
Li5 O5 2.123343 1_555
Li6 O2 1.892991 1_555
Li6 O19 1.918148 1_555
Li6 O14 1.943548 1_555
Li6 O6 2.121778 1_455
Li7 O3 1.891608 1_565
Li7 O18 1.918674 1_555
Li7 O15 1.943319 1_565
Li7 O7 2.122593 1_555
Li8 O16 1.913471 1_555
Li8 O14 1.939059 1_554
Li8 O0 1.964044 1_555
Li8 O8 2.089144 1_455
Li9 O17 1.912073 1_555
Li9 O15 1.940159 1_554
Li9 O1 1.963918 1_545
Li9 O9 2.089477 1_545
Li10 O18 1.912593 1_555
Li10 O13 1.938817 1_555
Li10 O2 1.963056 1_655
Li10 O10 2.089620 1_555
Li11 O19 1.913502 1_555
Li11 O12 1.937854 1_555
Li11 O3 1.968312 1_555
Li11 O11 2.083740 1_555
Li12 O15 2.073624 1_554
Li12 O4 2.106415 1_655
Li12 O8 2.140768 1_555
Li12 O0 2.342382 1_555
Li13 O14 2.072971 1_554
Li13 O5 2.106988 1_555
Li13 O9 2.140640 1_555
Li13 O1 2.342345 1_455
Li14 O12 2.071543 1_555
Li14 O6 2.108672 1_555
Li14 O10 2.140574 1_555
Li14 O2 2.342868 1_555
Li15 O13 2.072989 1_455
Li15 O7 2.106633 1_555
Li15 O11 2.139371 1_565
Li15 O3 2.341411 1_465
Li16 O16 2.010462 1_555
Li16 O0 2.109088 1_555
Li16 O10 2.261814 1_555
Li16 O12 2.287656 1_555
Li16 O5 2.422720 1_555
Li17 O17 2.008977 1_555
Li17 O1 2.110309 1_545
Li17 O11 2.260664 1_655
Li17 O13 2.288021 1_545
Li17 O4 2.421294 1_655
Li18 O18 2.010000 1_455
Li18 O2 2.108227 1_555
Li18 O9 2.262172 1_556
Li18 O14 2.287438 1_555
Li18 O7 2.423018 1_555
Li19 O19 2.009392 1_555
Li19 O3 2.110092 1_555
Li19 O8 2.259876 1_556
Li19 O15 2.285907 1_555
Li19 O6 2.423837 1_555
Li20 O4 1.885085 1_555
Li20 O11 1.926137 1_555
Li20 O12 2.072850 1_555
Li21 O5 1.885230 1_555
Li21 O10 1.926508 1_555
Li21 O13 2.075467 1_555
Li22 O6 1.884559 1_555
Li22 O8 1.927517 1_556
Li22 O14 2.074813 1_655
Li23 O7 1.885513 1_555
Li23 O9 1.926905 1_556
Li23 O15 2.074991 1_565
Li24 O5 1.901115 1_555
Li24 O8 1.937475 1_555
Li24 O16 2.008538 1_655
Li25 O4 1.901250 1_555
Li25 O9 1.937047 1_545
Li25 O17 2.009145 1_555
Li26 O7 1.900894 1_555
Li26 O10 1.936959 1_555
Li26 O18 2.007792 1_555
Li27 O6 1.900612 1_455
Li27 O11 1.936211 1_555
Li27 O19 2.010023 1_555
Li28 O12 1.888539 1_555
Li28 O2 1.905757 1_555
Li28 O16 1.937798 1_555
Li29 O13 1.888599 1_555
Li29 O3 1.907866 1_565
Li29 O17 1.937357 1_565
Li30 O14 1.889790 1_655
Li30 O1 1.905547 1_556
Li30 O18 1.937604 1_555
Li31 O15 1.888470 1_555
Li31 O0 1.906574 1_556
Li31 O19 1.937392 1_555
O0 V2 2.074985 1_555
O1 V0 2.076039 1_555
O2 V1 2.076022 1_555
O3 V3 2.071411 1_555
O4 V0 2.052513 1_445
O5 V2 2.052439 1_555
O6 V3 2.052976 1_555
O7 V1 2.052252 1_555
O8 V2 2.080547 1_555
O9 V0 2.079544 1_455
O10 V1 2.078313 1_555
O11 V3 2.086021 1_455
O12 V3 2.058262 1_555
O13 V1 2.056471 1_655
O14 V2 2.056199 1_556
O15 V0 2.058153 1_546
O16 V1 2.039948 1_555
O17 V3 2.040632 1_555
O18 V0 2.040318 1_556
O19 V2 2.039215 1_556
F0 Li24 1.949770 1_555
F0 Li2 1.960537 1_555
F0 Li20 1.990364 1_655
F0 Li28 2.007575 1_655
F0 Li12 2.356570 1_555
F0 V3 2.395373 1_555
F0 Li16 2.533813 1_555
F1 Li25 1.949458 1_565
F1 Li3 1.960411 1_565
F1 Li21 1.988587 1_555
F1 Li29 2.005989 1_555
F1 Li13 2.357347 1_555
F1 V1 2.393985 1_555
F1 Li17 2.535594 1_465
F2 Li26 1.949156 1_555
F2 Li1 1.961425 1_556
F2 Li22 1.989228 1_555
F2 Li30 2.006350 1_555
F2 Li14 2.358332 1_555
F2 V2 2.394769 1_556
F2 Li18 2.535848 1_555
F3 Li27 1.949468 1_555
F3 Li0 1.961237 1_556
F3 Li23 1.988805 1_545
F3 Li31 2.006040 1_555
F3 Li15 2.356853 1_545
F3 V0 2.394135 1_446
F3 Li19 2.535018 1_455
