# generated using pymatgen
data_VGaO3
_symmetry_space_group_name_H-M   'P 1'
_cell_length_a   5.13583100
_cell_length_b   7.87559300
_cell_length_c   5.13927600
_cell_angle_alpha   89.99956992
_cell_angle_beta   89.99982156
_cell_angle_gamma   90.00066546
_symmetry_Int_Tables_number   1
_chemical_formula_structural   VGaO3
_chemical_formula_sum   'V4 Ga4 O12'
_cell_volume   207.87196926
_cell_formula_units_Z   4
loop_
 _symmetry_equiv_pos_site_id
 _symmetry_equiv_pos_as_xyz
  1  'x, y, z'
loop_
 _atom_site_type_symbol
 _atom_site_label
 _atom_site_symmetry_multiplicity
 _atom_site_fract_x
 _atom_site_fract_y
 _atom_site_fract_z
 _atom_site_occupancy
  V  V0  1  0.00000000  0.00000100  0.49999400  1
  V  V1  1  0.99999900  0.50000100  0.50000000  1
  V  V2  1  0.50000000  0.99999800  0.00000500  1
  V  V3  1  0.49999900  0.50000100  0.99999700  1
  Ga  Ga0  1  0.01188700  0.25000200  0.01554700  1
  Ga  Ga1  1  0.48811500  0.74999100  0.51554400  1
  Ga  Ga2  1  0.51188500  0.25000800  0.48445200  1
  Ga  Ga3  1  0.98811200  0.74999600  0.98445700  1
  O  O0  1  0.12288500  0.75000300  0.62825800  1
  O  O1  1  0.16946500  0.57478100  0.15734700  1
  O  O2  1  0.16946100  0.92522200  0.15734100  1
  O  O3  1  0.33054300  0.07478400  0.65733900  1
  O  O4  1  0.33053200  0.42522300  0.65733900  1
  O  O5  1  0.37711400  0.25000200  0.12825400  1
  O  O6  1  0.62288400  0.74999700  0.87174500  1
  O  O7  1  0.66946900  0.57477900  0.34265800  1
  O  O8  1  0.66946300  0.92521500  0.34266300  1
  O  O9  1  0.83054000  0.07477800  0.84266000  1
  O  O10  1  0.83053200  0.42521600  0.84265600  1
  O  O11  1  0.87711400  0.25000000  0.37174400  1
loop_
_geom_bond_atom_site_label_1
_geom_bond_atom_site_label_2
_geom_bond_distance
_geom_bond_site_symmetry_2
Ga0 O10 1.887113 1_454
Ga0 O9 1.887135 1_454
Ga0 O11 1.957082 1_455
Ga0 O5 1.963144 1_555
Ga1 O7 1.887094 1_555
Ga1 O8 1.887110 1_555
Ga1 O6 1.957098 1_555
Ga1 O0 1.963166 1_555
Ga2 O3 1.887109 1_555
Ga2 O4 1.887111 1_555
Ga2 O5 1.957087 1_555
Ga2 O11 1.963152 1_555
Ga3 O1 1.887111 1_656
Ga3 O2 1.887144 1_656
Ga3 O0 1.957092 1_655
Ga3 O6 1.963156 1_555
O0 V0 2.170102 1_565
O0 V1 2.170118 1_455
O1 V3 1.970416 1_554
O1 V1 2.050706 1_455
O2 V2 1.970384 1_555
O2 V0 2.050707 1_565
O3 V0 1.970445 1_555
O3 V2 2.050768 1_546
O4 V1 1.970385 1_455
O4 V3 2.050738 1_555
O5 V3 2.170084 1_554
O5 V2 2.170131 1_545
O6 V3 2.170054 1_555
O6 V2 2.170123 1_556
O7 V1 1.970378 1_555
O7 V3 2.050758 1_554
O8 V0 1.970396 1_665
O8 V2 2.050739 1_555
O9 V2 1.970417 1_546
O9 V0 2.050757 1_655
O10 V3 1.970405 1_555
O10 V1 2.050733 1_555
O11 V0 2.170089 1_655
O11 V1 2.170106 1_555
