# generated using pymatgen
data_Na3BiBPO7
_symmetry_space_group_name_H-M   'P 1'
_cell_length_a   7.15139800
_cell_length_b   5.41038400
_cell_length_c   9.31541803
_cell_angle_alpha   88.92813317
_cell_angle_beta   90.00000000
_cell_angle_gamma   90.00000000
_symmetry_Int_Tables_number   1
_chemical_formula_structural   Na3BiBPO7
_chemical_formula_sum   'Na6 Bi2 B2 P2 O14'
_cell_volume   360.36730931
_cell_formula_units_Z   2
loop_
 _symmetry_equiv_pos_site_id
 _symmetry_equiv_pos_as_xyz
  1  'x, y, z'
loop_
 _atom_site_type_symbol
 _atom_site_label
 _atom_site_symmetry_multiplicity
 _atom_site_fract_x
 _atom_site_fract_y
 _atom_site_fract_z
 _atom_site_occupancy
  Na  Na0  1  0.25000000  0.75706800  0.92923100  1
  Na  Na1  1  0.00749400  0.24909100  0.75827000  1
  Na  Na2  1  0.49250600  0.24909100  0.75827000  1
  Na  Na3  1  0.50749400  0.75090900  0.24173000  1
  Na  Na4  1  0.99250600  0.75090900  0.24173000  1
  Na  Na5  1  0.75000000  0.24293200  0.07076900  1
  Bi  Bi0  1  0.75000000  0.77057900  0.65206700  1
  Bi  Bi1  1  0.25000000  0.22942100  0.34793300  1
  B  B0  1  0.75000000  0.73376500  0.94219700  1
  B  B1  1  0.25000000  0.26623500  0.05780300  1
  P  P0  1  0.25000000  0.70364500  0.59645400  1
  P  P1  1  0.75000000  0.29635500  0.40354600  1
  O  O0  1  0.25000000  0.28330500  0.91408800  1
  O  O1  1  0.75000000  0.96350600  0.86460300  1
  O  O2  1  0.75000000  0.52336000  0.85297600  1
  O  O3  1  0.07786100  0.80708000  0.68013100  1
  O  O4  1  0.42213900  0.80708000  0.68013100  1
  O  O5  1  0.25000000  0.41784600  0.60183100  1
  O  O6  1  0.75000000  0.21181700  0.56587800  1
  O  O7  1  0.25000000  0.78818300  0.43412200  1
  O  O8  1  0.75000000  0.58215400  0.39816900  1
  O  O9  1  0.57786100  0.19292000  0.31986900  1
  O  O10  1  0.92213900  0.19292000  0.31986900  1
  O  O11  1  0.25000000  0.47664000  0.14702400  1
  O  O12  1  0.25000000  0.03649400  0.13539700  1
  O  O13  1  0.75000000  0.71669500  0.08591200  1
loop_
_geom_bond_atom_site_label_1
_geom_bond_atom_site_label_2
_geom_bond_distance
_geom_bond_site_symmetry_2
Na0 O12 2.466288 1_566
Na0 O11 2.510571 1_556
Na0 O0 2.569752 1_555
Na0 O3 2.636239 1_555
Na0 O4 2.636239 1_555
Na0 O0 2.848000 1_565
Na1 O0 2.271309 1_555
Na1 O5 2.432118 1_555
Na1 O2 2.533806 1_455
Na1 O3 2.562659 1_545
Na1 O6 2.580140 1_455
Na1 O1 2.588865 1_445
Na2 O0 2.271309 1_555
Na2 O5 2.432118 1_555
Na2 O2 2.533806 1_555
Na2 O4 2.562659 1_545
Na2 O6 2.580140 1_555
Na2 O1 2.588865 1_545
Na3 O13 2.271309 1_555
Na3 O8 2.432118 1_555
Na3 O11 2.533806 1_555
Na3 O9 2.562659 1_565
Na3 O7 2.580140 1_555
Na3 O12 2.588865 1_565
Na4 O13 2.271309 1_555
Na4 O8 2.432118 1_555
Na4 O11 2.533806 1_655
Na4 O10 2.562659 1_565
Na4 O7 2.580140 1_655
Na4 O12 2.588865 1_665
Na5 O1 2.466288 1_544
Na5 O2 2.510571 1_554
Na5 O13 2.569752 1_555
Na5 O10 2.636239 1_555
Na5 O9 2.636239 1_555
Na5 O13 2.848000 1_545
Bi0 O1 2.255373 1_555
Bi0 O2 2.279932 1_555
Bi0 O3 2.367853 1_655
Bi0 O4 2.367853 1_555
Bi0 O6 2.504388 1_565
Bi0 O8 2.592971 1_555
Bi1 O12 2.255373 1_555
Bi1 O11 2.279932 1_555
Bi1 O9 2.367853 1_555
Bi1 O10 2.367853 1_455
Bi1 O7 2.504388 1_545
Bi1 O5 2.592971 1_555
B0 O13 1.340222 1_556
B0 O2 1.421994 1_555
B0 O1 1.426139 1_555
B1 O0 1.340222 1_554
B1 O11 1.421994 1_555
B1 O12 1.426139 1_555
O3 P0 1.566060 1_555
O4 P0 1.566060 1_555
O5 P0 1.546157 1_555
O6 P1 1.571637 1_555
O7 P0 1.571637 1_555
O8 P1 1.546157 1_555
O9 P1 1.566060 1_555
O10 P1 1.566060 1_555
