# generated using pymatgen
data_Li4Fe3Cu3(WO8)2
_symmetry_space_group_name_H-M   'P 1'
_cell_length_a   6.00945302
_cell_length_b   6.00945302
_cell_length_c   9.90764229
_cell_angle_alpha   86.91227191
_cell_angle_beta   86.91227191
_cell_angle_gamma   58.97907263
_symmetry_Int_Tables_number   1
_chemical_formula_structural   Li4Fe3Cu3(WO8)2
_chemical_formula_sum   'Li4 Fe3 Cu3 W2 O16'
_cell_volume   306.03937941
_cell_formula_units_Z   1
loop_
 _symmetry_equiv_pos_site_id
 _symmetry_equiv_pos_as_xyz
  1  'x, y, z'
loop_
 _atom_site_type_symbol
 _atom_site_label
 _atom_site_symmetry_multiplicity
 _atom_site_fract_x
 _atom_site_fract_y
 _atom_site_fract_z
 _atom_site_occupancy
  Li  Li0  1  0.66370600  0.66370600  0.91241900  1
  Li  Li1  1  0.00077000  0.00077000  0.98512100  1
  Li  Li2  1  0.00243200  0.00243200  0.48174700  1
  Li  Li3  1  0.34482800  0.34482800  0.41193200  1
  Fe  Fe0  1  0.83100200  0.83100200  0.21591700  1
  Fe  Fe1  1  0.65780800  0.16608100  0.71561900  1
  Fe  Fe2  1  0.16608100  0.65780800  0.71561900  1
  Cu  Cu0  1  0.83114300  0.34074800  0.21176500  1
  Cu  Cu1  1  0.34074800  0.83114300  0.21176500  1
  Cu  Cu2  1  0.16821800  0.16821800  0.70792600  1
  W  W0  1  0.67758500  0.67758500  0.48788400  1
  W  W1  1  0.32715100  0.32715100  0.98541800  1
  O  O0  1  0.81639100  0.34060700  0.58107200  1
  O  O1  1  0.53287300  0.53287300  0.34613200  1
  O  O2  1  0.66696800  0.66696800  0.11910500  1
  O  O3  1  0.00284200  0.00284200  0.29306300  1
  O  O4  1  0.00142500  0.00142500  0.79658700  1
  O  O5  1  0.34060700  0.81639100  0.58107200  1
  O  O6  1  0.97766800  0.54186100  0.36310100  1
  O  O7  1  0.54186100  0.97766800  0.36310100  1
  O  O8  1  0.16013800  0.16013800  0.08798800  1
  O  O9  1  0.82487900  0.82487900  0.60244800  1
  O  O10  1  0.48520500  0.03499800  0.85439400  1
  O  O11  1  0.03499800  0.48520500  0.85439400  1
  O  O12  1  0.33352700  0.33352700  0.61381200  1
  O  O13  1  0.64249400  0.15125500  0.08186500  1
  O  O14  1  0.47838900  0.47838900  0.84444500  1
  O  O15  1  0.15125500  0.64249400  0.08186500  1
loop_
_geom_bond_atom_site_label_1
_geom_bond_atom_site_label_2
_geom_bond_distance
_geom_bond_site_symmetry_2
Li0 O10 1.980152 1_565
Li0 O11 1.980152 1_655
Li0 O2 2.050166 1_556
Li0 O14 2.091387 1_555
Li1 O4 1.867516 1_555
Li1 O8 2.007193 1_556
Li1 O13 2.058241 1_456
Li1 O15 2.058241 1_546
Li2 O3 1.869153 1_555
Li2 O5 2.025703 1_545
Li2 O0 2.025703 1_455
Li2 O9 2.146057 1_445
Li3 O6 1.965941 1_455
Li3 O7 1.965941 1_545
Li3 O12 1.996329 1_555
Li3 O1 2.033839 1_555
Fe0 O3 1.996547 1_665
Fe0 O2 2.017105 1_555
Fe0 O7 2.051707 1_555
Fe0 O6 2.051707 1_555
Fe0 O15 2.095408 1_655
Fe0 O13 2.095408 1_565
Fe1 O4 1.968146 1_655
Fe1 O12 1.977084 1_555
Fe1 O10 2.039290 1_555
Fe1 O14 2.082813 1_555
Fe1 O9 2.115203 1_545
Fe1 O0 2.127891 1_555
Fe2 O4 1.968146 1_565
Fe2 O12 1.977084 1_555
Fe2 O11 2.039290 1_555
Fe2 O14 2.082813 1_555
Fe2 O9 2.115203 1_455
Fe2 O5 2.127891 1_555
Cu0 O2 1.889322 1_555
Cu0 O3 1.894902 1_655
Cu0 O1 2.023266 1_555
Cu0 O8 2.064274 1_655
Cu0 O13 2.425702 1_555
Cu0 O6 2.432792 1_555
Cu1 O2 1.889322 1_555
Cu1 O3 1.894902 1_565
Cu1 O1 2.023266 1_555
Cu1 O8 2.064274 1_565
Cu1 O15 2.425702 1_555
Cu1 O7 2.432792 1_555
Cu2 O4 1.904413 1_555
Cu2 O12 1.913323 1_555
Cu2 O11 2.230755 1_555
Cu2 O10 2.230755 1_555
Cu2 O5 2.238631 1_545
Cu2 O0 2.238631 1_455
O0 W0 1.946682 1_555
O1 W0 2.127818 1_555
O5 W0 1.946682 1_555
O6 W0 1.948886 1_555
O7 W0 1.948886 1_555
O8 W1 1.966181 1_554
O9 W0 1.969618 1_555
O10 W1 2.015851 1_555
O11 W1 2.015851 1_555
O13 W1 1.908727 1_554
O14 W1 2.044681 1_555
O15 W1 1.908727 1_554
