# generated using pymatgen
data_VOF
_symmetry_space_group_name_H-M   'P 1'
_cell_length_a   4.59786491
_cell_length_b   4.63315305
_cell_length_c   9.24552087
_cell_angle_alpha   90.00045777
_cell_angle_beta   90.00562923
_cell_angle_gamma   89.99997094
_symmetry_Int_Tables_number   1
_chemical_formula_structural   VOF
_chemical_formula_sum   'V6 O6 F6'
_cell_volume   196.95374115
_cell_formula_units_Z   6
loop_
 _symmetry_equiv_pos_site_id
 _symmetry_equiv_pos_as_xyz
  1  'x, y, z'
loop_
 _atom_site_type_symbol
 _atom_site_label
 _atom_site_symmetry_multiplicity
 _atom_site_fract_x
 _atom_site_fract_y
 _atom_site_fract_z
 _atom_site_occupancy
  V  V0  1  0.97714776  0.97222290  0.99958607  1
  V  V1  1  0.97712855  0.97230486  0.33375036  1
  V  V2  1  0.05018204  0.01841434  0.66669666  1
  V  V3  1  0.55015814  0.48157680  0.16670609  1
  V  V4  1  0.47712909  0.52769245  0.83376117  1
  V  V5  1  0.47715587  0.52776742  0.49956652  1
  O  O0  1  0.19487580  0.81753861  0.50038399  1
  O  O1  1  0.19487577  0.81742091  0.83296096  1
  O  O2  1  0.31201104  0.32181235  0.66664182  1
  O  O3  1  0.69486643  0.68246247  0.00042031  1
  O  O4  1  0.69488074  0.68258908  0.33295168  1
  O  O5  1  0.81199618  0.17820200  0.16666511  1
  F  F0  1  0.19998607  0.77179731  0.16676045  1
  F  F1  1  0.29693109  0.29398748  0.00037717  1
  F  F2  1  0.29688272  0.29417371  0.33285322  1
  F  F3  1  0.69997965  0.72819165  0.66672665  1
  F  F4  1  0.79689127  0.20581940  0.83286617  1
  F  F5  1  0.79692380  0.20602627  0.50032759  1
loop_
_geom_bond_atom_site_label_1
_geom_bond_atom_site_label_2
_geom_bond_distance
_geom_bond_site_symmetry_2
O0 V5 1.867355 1_555
O0 V2 1.916590 1_565
O0 V1 1.972238 1_455
O1 V4 1.867126 1_555
O1 V2 1.916403 1_565
O1 V0 1.972336 1_455
O2 V2 1.850738 1_555
O2 V4 1.968081 1_555
O2 V5 1.968106 1_555
O3 V0 1.867325 1_554
O3 V3 1.916448 1_555
O3 V4 1.972397 1_554
O4 V1 1.867067 1_555
O4 V3 1.916341 1_555
O4 V5 1.972297 1_555
O5 V3 1.850682 1_555
O5 V1 1.967909 1_545
O5 V0 1.968187 1_544
F0 V1 2.072895 1_455
F0 V0 2.073813 1_454
F0 V3 2.097686 1_555
F1 V4 2.057222 1_554
F1 V0 2.093880 1_444
F1 V3 2.115523 1_555
F2 V5 2.057629 1_555
F2 V1 2.094135 1_445
F2 V3 2.114246 1_555
F3 V4 2.073181 1_555
F3 V5 2.073669 1_555
F3 V2 2.097800 1_665
F4 V0 2.057663 1_545
F4 V4 2.094173 1_555
F4 V2 2.114429 1_655
F5 V1 2.056993 1_545
F5 V5 2.093751 1_555
F5 V2 2.115925 1_655
