# generated using pymatgen
data_V3Cr(PO4)6
_symmetry_space_group_name_H-M   'P 1'
_cell_length_a   8.74007759
_cell_length_b   8.74007759
_cell_length_c   8.74007773
_cell_angle_alpha   58.40327059
_cell_angle_beta   58.40327059
_cell_angle_gamma   58.40327020
_symmetry_Int_Tables_number   1
_chemical_formula_structural   V3Cr(PO4)6
_chemical_formula_sum   'V3 Cr1 P6 O24'
_cell_volume   454.84320888
_cell_formula_units_Z   1
loop_
 _symmetry_equiv_pos_site_id
 _symmetry_equiv_pos_as_xyz
  1  'x, y, z'
loop_
 _atom_site_type_symbol
 _atom_site_label
 _atom_site_symmetry_multiplicity
 _atom_site_fract_x
 _atom_site_fract_y
 _atom_site_fract_z
 _atom_site_occupancy
  V  V0  1  0.85993900  0.85993900  0.85993900  1
  V  V1  1  0.64119100  0.64119100  0.64119100  1
  V  V2  1  0.36078400  0.36078400  0.36078400  1
  Cr  Cr0  1  0.14172700  0.14172700  0.14172700  1
  P  P0  1  0.53122600  0.96781900  0.25016500  1
  P  P1  1  0.25016500  0.53122600  0.96781900  1
  P  P2  1  0.96781900  0.25016500  0.53122600  1
  P  P3  1  0.03209600  0.75167400  0.46673100  1
  P  P4  1  0.75167400  0.46673100  0.03209600  1
  P  P5  1  0.46673100  0.03209600  0.75167400  1
  O  O0  1  0.50330900  0.86098700  0.71209600  1
  O  O1  1  0.86098700  0.71209600  0.50330900  1
  O  O2  1  0.71671900  0.93780000  0.07328400  1
  O  O3  1  0.71209600  0.50330900  0.86098700  1
  O  O4  1  0.57082000  0.78374400  0.42408600  1
  O  O5  1  0.36318900  0.98444400  0.22865700  1
  O  O6  1  0.07328400  0.71671900  0.93780000  1
  O  O7  1  0.42408600  0.57082000  0.78374400  1
  O  O8  1  0.78374400  0.42408600  0.57082000  1
  O  O9  1  0.00469200  0.77558000  0.64418300  1
  O  O10  1  0.05656300  0.91970400  0.28610500  1
  O  O11  1  0.77558000  0.64418300  0.00469200  1
  O  O12  1  0.22865700  0.36318900  0.98444400  1
  O  O13  1  0.93780000  0.07328400  0.71671900  1
  O  O14  1  0.98444400  0.22865700  0.36318900  1
  O  O15  1  0.21395200  0.56881600  0.44371600  1
  O  O16  1  0.56881600  0.44371600  0.21395200  1
  O  O17  1  0.91970400  0.28610500  0.05656300  1
  O  O18  1  0.64418300  0.00469200  0.77558000  1
  O  O19  1  0.44371600  0.21395200  0.56881600  1
  O  O20  1  0.27714200  0.50487100  0.14218700  1
  O  O21  1  0.28610500  0.05656300  0.91970400  1
  O  O22  1  0.14218700  0.27714200  0.50487100  1
  O  O23  1  0.50487100  0.14218700  0.27714200  1
loop_
_geom_bond_atom_site_label_1
_geom_bond_atom_site_label_2
_geom_bond_distance
_geom_bond_site_symmetry_2
Cr0 O5 1.967713 1_545
Cr0 O12 1.967713 1_554
Cr0 O14 1.967713 1_455
Cr0 O17 1.968583 1_455
Cr0 O10 1.968583 1_545
Cr0 O21 1.968583 1_554
O0 P5 1.543894 1_565
O0 V1 1.888314 1_555
O1 P3 1.543894 1_655
O1 V1 1.888314 1_555
O2 P0 1.562100 1_555
O2 V0 1.870330 1_554
O3 P4 1.543894 1_556
O3 V1 1.888314 1_555
O4 P0 1.556895 1_555
O4 V1 1.863807 1_555
O5 P0 1.500153 1_555
O6 P1 1.562100 1_555
O6 V0 1.870330 1_455
O7 P1 1.556895 1_555
O7 V1 1.863807 1_555
O8 P2 1.556895 1_555
O8 V1 1.863807 1_555
O9 P3 1.550588 1_555
O9 V0 1.918253 1_455
O10 P3 1.496875 1_555
O11 P4 1.550588 1_555
O11 V0 1.918253 1_554
O12 P1 1.500153 1_555
O13 P2 1.562100 1_555
O13 V0 1.870330 1_545
O14 P2 1.500153 1_555
O15 P3 1.568757 1_555
O15 V2 1.854565 1_555
O16 P4 1.568757 1_555
O16 V2 1.854565 1_555
O17 P4 1.496875 1_555
O18 P5 1.550588 1_555
O18 V0 1.918253 1_545
O19 P5 1.568757 1_555
O19 V2 1.854565 1_555
O20 P1 1.543686 1_554
O20 V2 1.936027 1_555
O21 P5 1.496875 1_555
O22 P2 1.543686 1_455
O22 V2 1.936027 1_555
O23 P0 1.543686 1_545
O23 V2 1.936027 1_555
