# generated using pymatgen
data_Sn2N2O
_symmetry_space_group_name_H-M   'P 1'
_cell_length_a   8.83730500
_cell_length_b   8.84177540
_cell_length_c   8.85100553
_cell_angle_alpha   109.45514518
_cell_angle_beta   109.55653873
_cell_angle_gamma   109.27718575
_symmetry_Int_Tables_number   1
_chemical_formula_structural   Sn2N2O
_chemical_formula_sum   'Sn16 N16 O8'
_cell_volume   533.20611255
_cell_formula_units_Z   8
loop_
 _symmetry_equiv_pos_site_id
 _symmetry_equiv_pos_as_xyz
  1  'x, y, z'
loop_
 _atom_site_type_symbol
 _atom_site_label
 _atom_site_symmetry_multiplicity
 _atom_site_fract_x
 _atom_site_fract_y
 _atom_site_fract_z
 _atom_site_occupancy
  Sn  Sn0  1  0.03349400  0.78429800  0.75226900  1
  Sn  Sn1  1  0.49467100  0.00385500  0.99615400  1
  Sn  Sn2  1  0.20957700  0.23972600  0.97365500  1
  Sn  Sn3  1  0.28673500  0.75162700  0.53549700  1
  Sn  Sn4  1  0.24397800  0.46962200  0.70973700  1
  Sn  Sn5  1  0.25179500  0.97212800  0.22614000  1
  Sn  Sn6  1  0.98688500  0.00120500  0.49472900  1
  Sn  Sn7  1  0.99542700  0.49581700  0.00858000  1
  Sn  Sn8  1  0.49464900  0.48845800  0.48819800  1
  Sn  Sn9  1  0.54177600  0.28040800  0.74980200  1
  Sn  Sn10  1  0.46401900  0.71143900  0.24685300  1
  Sn  Sn11  1  0.73543100  0.52452700  0.27466400  1
  Sn  Sn12  1  0.75649800  0.04277800  0.78142500  1
  Sn  Sn13  1  0.72816900  0.26494000  0.47488200  1
  Sn  Sn14  1  0.78116000  0.74922200  0.04435900  1
  Sn  Sn15  1  0.97338700  0.22318400  0.25753300  1
  N  N0  1  0.26252000  0.72938200  0.77172800  1
  N  N1  1  0.23608600  0.73543400  0.27012500  1
  N  N2  1  0.96264700  0.99714400  0.72592300  1
  N  N3  1  0.23972900  0.47032800  0.46074300  1
  N  N4  1  0.77542400  0.54858000  0.54316800  1
  N  N5  1  0.49665300  0.03332000  0.76040300  1
  N  N6  1  0.72238900  0.77146100  0.26970600  1
  N  N7  1  0.00113900  0.26508200  0.04527700  1
  N  N8  1  0.03716500  0.00040900  0.26648400  1
  N  N9  1  0.46213800  0.22805800  0.46671000  1
  N  N10  1  0.45141100  0.45337600  0.22025300  1
  N  N11  1  0.78338500  0.27506500  0.73195400  1
  N  N12  1  0.96934700  0.24095300  0.51030600  1
  N  N13  1  0.26555800  0.03533900  0.01311100  1
  N  N14  1  0.72954700  0.26376300  0.22463400  1
  N  N15  1  0.76165800  0.49587700  0.03686600  1
  O  O0  1  0.23205000  0.50394000  0.95507700  1
  O  O1  1  0.04330500  0.77120200  0.48726200  1
  O  O2  1  0.71680300  0.93839000  0.98138500  1
  O  O3  1  0.53799400  0.54939900  0.77688300  1
  O  O4  1  0.55622000  0.77517000  0.54238300  1
  O  O5  1  0.98445300  0.71800000  0.95026500  1
  O  O6  1  0.28426600  0.23986100  0.74283400  1
  O  O7  1  0.51046300  0.95723400  0.23204400  1
loop_
_geom_bond_atom_site_label_1
_geom_bond_atom_site_label_2
_geom_bond_distance
_geom_bond_site_symmetry_2
N0 Sn4 2.110634 1_555
N0 Sn1 2.194849 1_565
N0 Sn0 2.198434 1_555
N0 Sn3 2.236508 1_555
N1 Sn10 2.162344 1_555
N1 Sn3 2.183480 1_555
N1 Sn7 2.198290 1_455
N1 Sn5 2.222097 1_555
N2 Sn6 2.138181 1_565
N2 Sn12 2.162302 1_565
N2 Sn2 2.177988 1_665
N2 Sn0 2.227249 1_655
N3 Sn8 2.128143 1_555
N3 Sn15 2.168363 1_455
N3 Sn4 2.193698 1_555
N3 Sn3 2.198635 1_555
N4 Sn0 2.106336 1_655
N4 Sn8 2.196519 1_555
N4 Sn11 2.206675 1_555
N4 Sn13 2.226874 1_555
N5 Sn9 2.127697 1_555
N5 Sn3 2.186716 1_545
N5 Sn1 2.192213 1_555
N5 Sn12 2.211682 1_555
N6 Sn10 2.086912 1_555
N6 Sn6 2.147074 1_565
N6 Sn14 2.187770 1_555
N6 Sn11 2.238024 1_555
N7 Sn15 2.106869 1_455
N7 Sn12 2.178916 1_454
N7 Sn7 2.183692 1_455
N7 Sn2 2.192021 1_554
N8 Sn5 2.120099 1_545
N8 Sn14 2.170759 1_445
N8 Sn6 2.207314 1_455
N8 Sn15 2.238496 1_455
N9 Sn5 2.114946 1_545
N9 Sn8 2.157476 1_555
N9 Sn9 2.195357 1_555
N9 Sn13 2.236737 1_555
N10 Sn2 2.089206 1_554
N10 Sn8 2.166023 1_555
N10 Sn10 2.175059 1_555
N10 Sn11 2.207712 1_555
N11 Sn13 2.124966 1_555
N11 Sn7 2.155433 1_556
N11 Sn12 2.193831 1_555
N11 Sn9 2.207621 1_555
N12 Sn6 2.138486 1_555
N12 Sn13 2.140415 1_555
N12 Sn4 2.146755 1_655
N12 Sn15 2.203288 1_555
N13 Sn2 2.127797 1_554
N13 Sn5 2.166329 1_545
N13 Sn1 2.178845 1_554
N13 Sn0 2.207663 1_544
N14 Sn1 2.150260 1_554
N14 Sn11 2.177150 1_555
N14 Sn13 2.215633 1_555
N14 Sn15 2.239883 1_555
N15 Sn11 2.134962 1_555
N15 Sn7 2.162746 1_555
N15 Sn14 2.165704 1_555
N15 Sn9 2.210646 1_554
O0 Sn4 2.134025 1_555
O0 Sn10 2.248112 1_556
O0 Sn7 2.277849 1_456
O0 Sn2 2.344217 1_555
O1 Sn3 2.126115 1_555
O1 Sn6 2.233982 1_465
O1 Sn0 2.341905 1_555
O1 Sn11 2.370830 1_455
O2 Sn14 2.113897 1_556
O2 Sn1 2.253293 1_565
O2 Sn12 2.323213 1_565
O2 Sn15 2.424075 1_566
O3 Sn14 2.155250 1_556
O3 Sn4 2.253613 1_555
O3 Sn8 2.292860 1_555
O3 Sn9 2.322338 1_555
O4 Sn12 2.144922 1_565
O4 Sn8 2.248815 1_555
O4 Sn10 2.260894 1_555
O4 Sn3 2.299073 1_555
O5 Sn0 2.151188 1_655
O5 Sn7 2.214219 1_556
O5 Sn14 2.274521 1_556
O5 Sn5 2.360246 1_656
O6 Sn9 2.159569 1_555
O6 Sn4 2.267977 1_555
O6 Sn2 2.348059 1_555
O6 Sn6 2.360013 1_455
O7 Sn10 2.132024 1_555
O7 Sn1 2.228181 1_564
O7 Sn5 2.317092 1_555
O7 Sn13 2.367142 1_565
