# generated using pymatgen
data_U3P4
_symmetry_space_group_name_H-M   'P 1'
_cell_length_a   7.17960132
_cell_length_b   7.17960072
_cell_length_c   7.17960105
_cell_angle_alpha   109.47121851
_cell_angle_beta   109.47121682
_cell_angle_gamma   109.47122623
_symmetry_Int_Tables_number   1
_chemical_formula_structural   U3P4
_chemical_formula_sum   'U6 P8'
_cell_volume   284.89120674
_cell_formula_units_Z   2
loop_
 _symmetry_equiv_pos_site_id
 _symmetry_equiv_pos_as_xyz
  1  'x, y, z'
loop_
 _atom_site_type_symbol
 _atom_site_label
 _atom_site_symmetry_multiplicity
 _atom_site_fract_x
 _atom_site_fract_y
 _atom_site_fract_z
 _atom_site_occupancy
  U  U0  1  0.75000000  0.87500000  0.12500000  1
  U  U1  1  0.62500000  0.37500000  0.25000000  1
  U  U2  1  0.87500000  0.12500000  0.75000000  1
  U  U3  1  0.12500000  0.75000000  0.87500000  1
  U  U4  1  0.37500000  0.25000000  0.62500000  1
  U  U5  1  0.25000000  0.62500000  0.37500000  1
  P  P0  1  0.66068510  0.66068510  0.66068510  1
  P  P1  1  0.33931490  0.50000000  1.00000000  1
  P  P2  1  0.50000000  1.00000000  0.33931490  1
  P  P3  1  0.00000000  0.33931490  0.50000000  1
  P  P4  1  0.50000000  1.00000000  0.83931490  1
  P  P5  1  0.00000000  0.83931490  0.50000000  1
  P  P6  1  0.16068510  0.16068510  0.16068510  1
  P  P7  1  0.83931490  0.50000000  1.00000000  1
loop_
_geom_bond_atom_site_label_1
_geom_bond_atom_site_label_2
_geom_bond_distance
_geom_bond_site_symmetry_2
P0 U4 2.842680 1_555
P0 U1 2.842680 1_555
P0 U5 2.842680 1_555
P0 U2 2.896404 1_565
P0 U0 2.896404 1_556
P0 U3 2.896405 1_655
P1 U0 2.842680 1_556
P1 U4 2.842680 1_555
P1 U1 2.842680 1_556
P1 U2 2.896404 1_455
P1 U5 2.896404 1_556
P1 U3 2.896404 1_555
P2 U5 2.842680 1_555
P2 U4 2.842680 1_565
P2 U2 2.842680 1_565
P2 U1 2.896404 1_565
P2 U0 2.896404 1_555
P2 U3 2.896404 1_554
P3 U5 2.842680 1_555
P3 U3 2.842680 1_555
P3 U1 2.842680 1_455
P3 U2 2.896404 1_455
P3 U0 2.896404 1_445
P3 U4 2.896405 1_555
P4 U3 2.842680 1_555
P4 U1 2.842680 1_566
P4 U0 2.842680 1_556
P4 U2 2.896404 1_565
P4 U4 2.896404 1_565
P4 U5 2.896404 1_555
P5 U4 2.842680 1_565
P5 U2 2.842680 1_465
P5 U0 2.842680 1_455
P5 U1 2.896404 1_455
P5 U3 2.896404 1_555
P5 U5 2.896404 1_555
P6 U0 2.842680 1_445
P6 U3 2.842680 1_544
P6 U2 2.842680 1_454
P6 U5 2.896404 1_555
P6 U1 2.896404 1_555
P6 U4 2.896404 1_555
P7 U3 2.842680 1_655
P7 U2 2.842680 1_555
P7 U5 2.842680 1_656
P7 U1 2.896404 1_556
P7 U0 2.896404 1_556
P7 U4 2.896404 1_555
