# generated using pymatgen
data_Fe3O4
_symmetry_space_group_name_H-M   'P 1'
_cell_length_a   6.00711300
_cell_length_b   6.12170444
_cell_length_c   8.50923212
_cell_angle_alpha   90.50376525
_cell_angle_beta   90.00000000
_cell_angle_gamma   90.00000000
_symmetry_Int_Tables_number   1
_chemical_formula_structural   Fe3O4
_chemical_formula_sum   'Fe12 O16'
_cell_volume   312.90445265
_cell_formula_units_Z   4
loop_
 _symmetry_equiv_pos_site_id
 _symmetry_equiv_pos_as_xyz
  1  'x, y, z'
loop_
 _atom_site_type_symbol
 _atom_site_label
 _atom_site_symmetry_multiplicity
 _atom_site_fract_x
 _atom_site_fract_y
 _atom_site_fract_z
 _atom_site_occupancy
  Fe  Fe0  1  0.00000000  0.74454500  0.12827800  1
  Fe  Fe1  1  0.00000000  0.25545500  0.87172200  1
  Fe  Fe2  1  0.00000000  0.50000000  0.50000000  1
  Fe  Fe3  1  0.50000000  0.50000000  0.00000000  1
  Fe  Fe4  1  0.50000000  0.00000000  0.00000000  1
  Fe  Fe5  1  0.00000000  0.00000000  0.50000000  1
  Fe  Fe6  1  0.25332100  0.74866100  0.75190700  1
  Fe  Fe7  1  0.25332100  0.25133900  0.24809300  1
  Fe  Fe8  1  0.74667900  0.25133900  0.24809300  1
  Fe  Fe9  1  0.74667900  0.74866100  0.75190700  1
  Fe  Fe10  1  0.50000000  0.75801000  0.37609600  1
  Fe  Fe11  1  0.50000000  0.24199000  0.62390400  1
  O  O0  1  0.25853900  0.73848100  0.99205400  1
  O  O1  1  0.25853900  0.26151900  0.00794600  1
  O  O2  1  0.74146100  0.26151900  0.00794600  1
  O  O3  1  0.74146100  0.73848100  0.99205400  1
  O  O4  1  0.23944700  0.76177500  0.50641900  1
  O  O5  1  0.23944700  0.23822500  0.49358100  1
  O  O6  1  0.76055300  0.23822500  0.49358100  1
  O  O7  1  0.76055300  0.76177500  0.50641900  1
  O  O8  1  0.50000000  0.00980800  0.24374800  1
  O  O9  1  0.50000000  0.99019200  0.75625200  1
  O  O10  1  0.50000000  0.50252300  0.75850800  1
  O  O11  1  0.50000000  0.49747700  0.24149200  1
  O  O12  1  0.00000000  0.48880100  0.25401800  1
  O  O13  1  0.00000000  0.51119900  0.74598200  1
  O  O14  1  0.00000000  0.99084300  0.74360300  1
  O  O15  1  0.00000000  0.00915700  0.25639700  1
loop_
_geom_bond_atom_site_label_1
_geom_bond_atom_site_label_2
_geom_bond_distance
_geom_bond_site_symmetry_2
Fe0 O12 1.904027 1_555
Fe0 O0 1.938121 1_554
Fe0 O3 1.938121 1_454
Fe0 O15 1.944600 1_565
Fe1 O13 1.904027 1_555
Fe1 O1 1.938121 1_556
Fe1 O2 1.938121 1_456
Fe1 O14 1.944600 1_545
Fe2 O13 2.093638 1_555
Fe2 O12 2.093638 1_555
Fe2 O5 2.153702 1_555
Fe2 O4 2.153702 1_555
Fe2 O7 2.153702 1_455
Fe2 O6 2.153702 1_455
Fe3 O11 2.055105 1_555
Fe3 O10 2.055105 1_554
Fe3 O3 2.059502 1_554
Fe3 O2 2.059502 1_555
Fe3 O0 2.059502 1_554
Fe3 O1 2.059502 1_555
Fe4 O8 2.074449 1_555
Fe4 O9 2.074449 1_544
Fe4 O2 2.160922 1_555
Fe4 O3 2.160922 1_544
Fe4 O1 2.160922 1_555
Fe4 O0 2.160922 1_544
Fe5 O4 2.049415 1_545
Fe5 O5 2.049415 1_555
Fe5 O6 2.049415 1_455
Fe5 O7 2.049415 1_445
Fe5 O15 2.074125 1_555
Fe5 O14 2.074125 1_545
Fe6 O0 2.045204 1_555
Fe6 O4 2.092822 1_555
Fe6 O9 2.093424 1_555
Fe6 O13 2.104774 1_555
Fe6 O10 2.114440 1_555
Fe6 O14 2.126145 1_555
Fe7 O1 2.045204 1_555
Fe7 O5 2.092822 1_555
Fe7 O8 2.093424 1_555
Fe7 O12 2.104774 1_555
Fe7 O11 2.114440 1_555
Fe7 O15 2.126145 1_555
Fe8 O2 2.045204 1_555
Fe8 O6 2.092822 1_555
Fe8 O8 2.093424 1_555
Fe8 O12 2.104774 1_655
Fe8 O11 2.114440 1_555
Fe8 O15 2.126145 1_655
Fe9 O3 2.045204 1_555
Fe9 O7 2.092822 1_555
Fe9 O9 2.093424 1_555
Fe9 O13 2.104774 1_655
Fe9 O10 2.114440 1_555
Fe9 O14 2.126145 1_655
Fe10 O8 1.916983 1_565
Fe10 O7 1.918231 1_555
Fe10 O4 1.918231 1_555
Fe10 O11 1.955375 1_555
Fe11 O9 1.916983 1_545
Fe11 O6 1.918231 1_555
Fe11 O5 1.918231 1_555
Fe11 O10 1.955375 1_555
