# generated using pymatgen
data_Li2MnP2O7
_symmetry_space_group_name_H-M   'P 1'
_cell_length_a   7.10441618
_cell_length_b   8.65984536
_cell_length_c   10.23112182
_cell_angle_alpha   92.84221015
_cell_angle_beta   108.92950650
_cell_angle_gamma   94.86558336
_symmetry_Int_Tables_number   1
_chemical_formula_structural   Li2MnP2O7
_chemical_formula_sum   'Li8 Mn4 P8 O28'
_cell_volume   591.27514132
_cell_formula_units_Z   4
loop_
 _symmetry_equiv_pos_site_id
 _symmetry_equiv_pos_as_xyz
  1  'x, y, z'
loop_
 _atom_site_type_symbol
 _atom_site_label
 _atom_site_symmetry_multiplicity
 _atom_site_fract_x
 _atom_site_fract_y
 _atom_site_fract_z
 _atom_site_occupancy
  Li  Li0  1  0.62529300  0.85181500  0.29194000  1
  Li  Li1  1  0.62548500  0.85179600  0.79198200  1
  Li  Li2  1  0.33553400  0.67593400  0.00712700  1
  Li  Li3  1  0.33553300  0.67598300  0.50722800  1
  Li  Li4  1  0.92978000  0.40117900  0.02837500  1
  Li  Li5  1  0.92984600  0.40117400  0.52843900  1
  Li  Li6  1  0.37731700  0.15535700  0.20990200  1
  Li  Li7  1  0.37709300  0.15520200  0.70993400  1
  Mn  Mn0  1  0.50754300  0.49497600  0.75476700  1
  Mn  Mn1  1  0.00432300  0.00475000  0.00090700  1
  Mn  Mn2  1  0.50743500  0.49511600  0.25460500  1
  Mn  Mn3  1  0.00412100  0.00490500  0.50070000  1
  P  P0  1  0.18271400  0.79767400  0.27384500  1
  P  P1  1  0.18271100  0.79770400  0.77383400  1
  P  P2  1  0.76896700  0.69157100  0.06281600  1
  P  P3  1  0.76896700  0.69156600  0.56280900  1
  P  P4  1  0.22819700  0.31644400  0.43600500  1
  P  P5  1  0.22809000  0.31646300  0.93592200  1
  P  P6  1  0.81719400  0.20445200  0.23135000  1
  P  P7  1  0.81705900  0.20428200  0.73136800  1
  O  O0  1  0.21210600  0.94489900  0.20300500  1
  O  O1  1  0.21202700  0.94492600  0.70296800  1
  O  O2  1  0.76131400  0.84215800  0.49117600  1
  O  O3  1  0.76133500  0.84216000  0.99119200  1
  O  O4  1  0.13812300  0.82009200  0.40923500  1
  O  O5  1  0.13818100  0.82004500  0.90927900  1
  O  O6  1  0.62671700  0.68711500  0.14978500  1
  O  O7  1  0.62672000  0.68709800  0.64979500  1
  O  O8  1  0.36257500  0.70155700  0.29898700  1
  O  O9  1  0.36256500  0.70157200  0.79897600  1
  O  O10  1  0.99573600  0.68171200  0.16559000  1
  O  O11  1  0.99572800  0.68173700  0.66558900  1
  O  O12  1  0.73128300  0.54525400  0.46369600  1
  O  O13  1  0.73128000  0.54525200  0.96369100  1
  O  O14  1  0.26860600  0.46112600  0.03901400  1
  O  O15  1  0.26869600  0.46113400  0.53905500  1
  O  O16  1  0.98635400  0.31990800  0.35633100  1
  O  O17  1  0.98623300  0.31993200  0.85628700  1
  O  O18  1  0.63058600  0.28858000  0.20969800  1
  O  O19  1  0.62999500  0.28784900  0.70971000  1
  O  O20  1  0.33195500  0.32639200  0.32781700  1
  O  O21  1  0.33191200  0.32641400  0.82779000  1
  O  O22  1  0.89420600  0.20113800  0.10816800  1
  O  O23  1  0.89410400  0.20110700  0.60816600  1
  O  O24  1  0.24922900  0.16562400  0.00779900  1
  O  O25  1  0.24915000  0.16558000  0.50786900  1
  O  O26  1  0.79764100  0.04697300  0.29105800  1
  O  O27  1  0.79778000  0.04682200  0.79113200  1
loop_
_geom_bond_atom_site_label_1
_geom_bond_atom_site_label_2
_geom_bond_distance
_geom_bond_site_symmetry_2
Li0 O2 1.961763 1_555
Li0 O6 1.988954 1_555
Li0 O26 2.003295 1_565
Li0 O8 2.206046 1_555
Li1 O3 1.961310 1_555
Li1 O7 1.988763 1_555
Li1 O27 2.002105 1_565
Li1 O9 2.206868 1_555
Li2 O14 1.950298 1_555
Li2 O5 2.008858 1_554
Li2 O6 2.100511 1_555
Li2 O9 2.219560 1_554
Li3 O15 1.950312 1_555
Li3 O4 2.009534 1_555
Li3 O7 2.100227 1_555
Li3 O8 2.220427 1_555
Li4 O13 1.938601 1_554
Li4 O22 1.982707 1_555
Li4 O17 2.034442 1_554
Li4 O14 2.384991 1_655
Li5 O12 1.939028 1_555
Li5 O23 1.982795 1_555
Li5 O16 2.034880 1_555
Li5 O15 2.385241 1_655
Li6 O20 1.977132 1_555
Li6 O24 1.980576 1_555
Li6 O18 2.054050 1_555
Li6 O0 2.067577 1_545
Li7 O21 1.977332 1_555
Li7 O25 1.980229 1_555
Li7 O19 2.049524 1_555
Li7 O1 2.065633 1_545
Mn0 O19 2.151635 1_555
Mn0 O21 2.156352 1_555
Mn0 O13 2.207044 1_555
Mn0 O9 2.236268 1_555
Mn0 O7 2.273011 1_555
Mn0 O15 2.292975 1_555
Mn1 O3 2.105920 1_444
Mn1 O24 2.114850 1_555
Mn1 O0 2.231322 1_545
Mn1 O27 2.239902 1_454
Mn1 O5 2.242632 1_544
Mn1 O22 2.303536 1_455
Mn2 O18 2.149494 1_555
Mn2 O20 2.157676 1_555
Mn2 O12 2.208485 1_555
Mn2 O8 2.235210 1_555
Mn2 O6 2.271607 1_555
Mn2 O14 2.292058 1_555
Mn3 O2 2.106263 1_445
Mn3 O25 2.113746 1_555
Mn3 O1 2.233284 1_545
Mn3 O26 2.238707 1_455
Mn3 O4 2.243081 1_545
Mn3 O23 2.303098 1_455
O0 P0 1.529397 1_555
O1 P1 1.529405 1_555
O2 P3 1.523720 1_555
O3 P2 1.523657 1_556
O4 P0 1.524886 1_555
O5 P1 1.525142 1_555
O6 P2 1.547498 1_555
O7 P3 1.547617 1_555
O8 P0 1.542783 1_555
O9 P1 1.542823 1_555
O10 P2 1.625296 1_555
O10 P0 1.645771 1_655
O11 P3 1.625227 1_555
O11 P1 1.645773 1_655
O12 P3 1.531090 1_555
O13 P2 1.531204 1_556
O14 P5 1.541285 1_554
O15 P4 1.541226 1_555
O16 P4 1.649212 1_655
O16 P6 1.658720 1_555
O17 P5 1.649243 1_655
O17 P7 1.659287 1_555
O18 P6 1.525362 1_555
O19 P7 1.525446 1_555
O20 P4 1.517912 1_555
O21 P5 1.517730 1_555
O22 P6 1.528056 1_555
O23 P7 1.528386 1_555
O24 P5 1.525286 1_554
O25 P4 1.525394 1_555
O26 P6 1.535515 1_555
O27 P7 1.535357 1_555
