# generated using pymatgen
data_Na5Li3Ti5O14
_symmetry_space_group_name_H-M   'P 1'
_cell_length_a   5.23424300
_cell_length_b   7.04232269
_cell_length_c   8.26604371
_cell_angle_alpha   90.36992241
_cell_angle_beta   101.44271032
_cell_angle_gamma   97.31546200
_symmetry_Int_Tables_number   1
_chemical_formula_structural   Na5Li3Ti5O14
_chemical_formula_sum   'Na5 Li3 Ti5 O14'
_cell_volume   296.05164950
_cell_formula_units_Z   1
loop_
 _symmetry_equiv_pos_site_id
 _symmetry_equiv_pos_as_xyz
  1  'x, y, z'
loop_
 _atom_site_type_symbol
 _atom_site_label
 _atom_site_symmetry_multiplicity
 _atom_site_fract_x
 _atom_site_fract_y
 _atom_site_fract_z
 _atom_site_occupancy
  Na  Na0  1  0.51317600  0.00059200  0.49747500  1
  Na  Na1  1  0.90996300  0.84675900  0.34669200  1
  Na  Na2  1  0.65730700  0.30935600  0.80940800  1
  Na  Na3  1  0.07360300  0.13636600  0.63994600  1
  Na  Na4  1  0.35157400  0.71233400  0.21098700  1
  Li  Li0  1  0.21861200  0.44217400  0.93863000  1
  Li  Li1  1  0.85839400  0.70684300  0.71671900  1
  Li  Li2  1  0.56795900  0.15184900  0.13983200  1
  Ti  Ti0  1  0.00851800  0.98801300  0.99365400  1
  Ti  Ti1  1  0.44673900  0.85836200  0.86667300  1
  Ti  Ti2  1  0.27400400  0.57697700  0.58464600  1
  Ti  Ti3  1  0.69803400  0.42978800  0.42293700  1
  Ti  Ti4  1  0.12422800  0.27977900  0.26674800  1
  O  O0  1  0.12627700  0.75274200  0.95206200  1
  O  O1  1  0.74971400  0.98138700  0.78229100  1
  O  O2  1  0.20778900  0.82722900  0.62093700  1
  O  O3  1  0.48430100  0.59302800  0.80324700  1
  O  O4  1  0.96817500  0.44829800  0.65074000  1
  O  O5  1  0.30771700  0.10371000  0.90123000  1
  O  O6  1  0.59718900  0.67322800  0.47730100  1
  O  O7  1  0.03698800  0.53667200  0.35024400  1
  O  O8  1  0.68032000  0.88175600  0.07208800  1
  O  O9  1  0.40462400  0.31316700  0.51850400  1
  O  O10  1  0.83198100  0.17988900  0.37373500  1
  O  O11  1  0.45685300  0.40476200  0.21259500  1
  O  O12  1  0.94517200  0.26742700  0.05149800  1
  O  O13  1  0.21524900  0.02582300  0.22809900  1
loop_
_geom_bond_atom_site_label_1
_geom_bond_atom_site_label_2
_geom_bond_distance
_geom_bond_site_symmetry_2
Na0 O2 2.292056 1_545
Na0 O9 2.356127 1_555
Na0 O10 2.362714 1_555
Na0 O6 2.412131 1_545
Na0 O1 2.446247 1_545
Na0 O13 2.473739 1_555
Na1 O13 2.286682 1_665
Na1 O6 2.355431 1_555
Na1 O7 2.361027 1_655
Na1 O8 2.378666 1_555
Na1 O10 2.448189 1_565
Na1 O2 2.498892 1_655
Na2 O3 2.292854 1_555
Na2 O12 2.299256 1_556
Na2 O4 2.404810 1_555
Na2 O5 2.431491 1_555
Na2 O1 2.437122 1_545
Na2 O9 2.506034 1_555
Na3 O5 2.290688 1_555
Na3 O4 2.337478 1_455
Na3 O10 2.353482 1_455
Na3 O2 2.384594 1_545
Na3 O9 2.390999 1_555
Na3 O1 2.405531 1_445
Na4 O0 2.268112 1_554
Na4 O11 2.301504 1_555
Na4 O6 2.355783 1_555
Na4 O7 2.412144 1_555
Na4 O13 2.416664 1_565
Na4 O8 2.445702 1_555
Li0 O12 2.128251 1_456
Li0 O3 2.138120 1_555
Li0 O0 2.305808 1_555
Li0 O11 2.392442 1_556
Li0 O4 2.482179 1_455
Li0 O5 2.515019 1_555
Li1 O4 2.078643 1_555
Li1 O0 2.156183 1_655
Li1 O6 2.163295 1_555
Li1 O1 2.178170 1_555
Li1 O2 2.208736 1_655
Li1 O3 2.269703 1_555
Li2 O11 2.064219 1_555
Li2 O10 2.133645 1_555
Li2 O5 2.160594 1_554
Li2 O8 2.163141 1_545
Li2 O13 2.203162 1_555
Li2 O12 2.294435 1_555
O0 Ti0 1.892113 1_555
O0 Ti1 2.005952 1_555
O1 Ti1 1.961844 1_555
O1 Ti0 1.983305 1_655
O2 Ti2 1.872427 1_555
O2 Ti1 2.157498 1_555
O3 Ti2 1.914687 1_555
O3 Ti1 1.981635 1_555
O4 Ti2 1.914723 1_655
O4 Ti3 2.110826 1_555
O5 Ti0 1.964165 1_545
O5 Ti1 1.998188 1_545
O6 Ti3 1.932432 1_555
O6 Ti2 2.102313 1_555
O7 Ti3 2.040600 1_455
O7 Ti4 2.068115 1_555
O7 Ti2 2.079261 1_555
O8 Ti1 1.877881 1_554
O8 Ti0 2.013001 1_654
O9 Ti3 1.955939 1_555
O9 Ti2 2.162541 1_555
O9 Ti4 2.287779 1_555
O10 Ti4 1.971713 1_655
O10 Ti3 2.042603 1_555
O11 Ti3 1.927762 1_555
O11 Ti4 1.982512 1_555
O12 Ti4 1.835028 1_655
O12 Ti0 2.104139 1_644
O13 Ti4 1.948735 1_555
O13 Ti0 2.021213 1_544
