# generated using pymatgen
data_Li2V3Si3O10
_symmetry_space_group_name_H-M   'P 1'
_cell_length_a   8.28099422
_cell_length_b   8.28099422
_cell_length_c   10.61678525
_cell_angle_alpha   87.38722609
_cell_angle_beta   87.38722609
_cell_angle_gamma   34.17261988
_symmetry_Int_Tables_number   1
_chemical_formula_structural   Li2V3Si3O10
_chemical_formula_sum   'Li4 V6 Si6 O20'
_cell_volume   408.46867581
_cell_formula_units_Z   2
loop_
 _symmetry_equiv_pos_site_id
 _symmetry_equiv_pos_as_xyz
  1  'x, y, z'
loop_
 _atom_site_type_symbol
 _atom_site_label
 _atom_site_symmetry_multiplicity
 _atom_site_fract_x
 _atom_site_fract_y
 _atom_site_fract_z
 _atom_site_occupancy
  Li  Li0  1  0.25071400  0.86535700  0.02407200  1
  Li  Li1  1  0.86535700  0.25071400  0.52407200  1
  Li  Li2  1  0.13464300  0.74928600  0.47592800  1
  Li  Li3  1  0.74928600  0.13464300  0.97592800  1
  V  V0  1  0.38866500  0.91258500  0.28672100  1
  V  V1  1  0.91258500  0.38866500  0.78672100  1
  V  V2  1  0.50000000  0.00000000  0.00000000  1
  V  V3  1  0.00000000  0.50000000  0.50000000  1
  V  V4  1  0.08741500  0.61133500  0.21327900  1
  V  V5  1  0.61133500  0.08741500  0.71327900  1
  Si  Si0  1  0.83878100  0.47191800  0.09959500  1
  Si  Si1  1  0.47191800  0.83878100  0.59959500  1
  Si  Si2  1  0.52808200  0.16121900  0.40040500  1
  Si  Si3  1  0.16121900  0.52808200  0.90040500  1
  Si  Si4  1  0.80065900  0.19934100  0.25000000  1
  Si  Si5  1  0.19934100  0.80065900  0.75000000  1
  O  O0  1  0.02105900  0.06014400  0.36131500  1
  O  O1  1  0.64224800  0.49870900  0.18752800  1
  O  O2  1  0.06014400  0.02105900  0.86131500  1
  O  O3  1  0.49870900  0.64224800  0.68752800  1
  O  O4  1  0.17071900  0.13659700  0.10455700  1
  O  O5  1  0.60765100  0.68763100  0.46144500  1
  O  O6  1  0.13659700  0.17071900  0.60455700  1
  O  O7  1  0.68763100  0.60765100  0.96144500  1
  O  O8  1  0.75999900  0.70976800  0.16449300  1
  O  O9  1  0.70976800  0.75999900  0.66449300  1
  O  O10  1  0.29023200  0.24000100  0.33550700  1
  O  O11  1  0.24000100  0.29023200  0.83550700  1
  O  O12  1  0.31236900  0.39234900  0.03855500  1
  O  O13  1  0.86340300  0.82928100  0.39544300  1
  O  O14  1  0.39234900  0.31236900  0.53855500  1
  O  O15  1  0.82928100  0.86340300  0.89544300  1
  O  O16  1  0.50129100  0.35775200  0.31247200  1
  O  O17  1  0.93985600  0.97894100  0.13868500  1
  O  O18  1  0.35775200  0.50129100  0.81247200  1
  O  O19  1  0.97894100  0.93985600  0.63868500  1
loop_
_geom_bond_atom_site_label_1
_geom_bond_atom_site_label_2
_geom_bond_distance
_geom_bond_site_symmetry_2
Li0 O2 1.953791 1_564
Li0 O4 1.968609 1_565
Li0 O17 2.191854 1_455
Li0 O7 2.284881 1_554
Li0 O1 2.546734 1_555
Li1 O0 1.953791 1_655
Li1 O6 1.968609 1_655
Li1 O19 2.191854 1_545
Li1 O5 2.284881 1_555
Li1 O3 2.546734 1_555
Li2 O19 1.953791 1_455
Li2 O13 1.968609 1_455
Li2 O0 2.191854 1_565
Li2 O14 2.284881 1_555
Li2 O16 2.546734 1_555
Li3 O17 1.953791 1_546
Li3 O15 1.968609 1_545
Li3 O2 2.191854 1_655
Li3 O12 2.284881 1_556
Li3 O18 2.546734 1_555
O0 Si4 1.627191 1_455
O0 V0 2.258426 1_545
O1 Si0 1.688901 1_555
O1 Si4 1.689603 1_555
O1 V0 2.341709 1_555
O2 Si5 1.627191 1_545
O2 V1 2.258426 1_455
O3 Si1 1.688901 1_555
O3 Si5 1.689603 1_555
O3 V1 2.341709 1_555
O4 Si0 1.624512 1_455
O4 V2 2.163744 1_555
O4 V0 2.211352 1_545
O5 Si1 1.634138 1_555
O5 V0 2.145136 1_555
O5 V3 2.201801 1_655
O6 Si1 1.624512 1_545
O6 V3 2.163744 1_555
O6 V1 2.211352 1_455
O7 Si0 1.634138 1_556
O7 V1 2.145136 1_555
O7 V2 2.201801 1_566
O8 Si0 1.654179 1_555
O8 V4 2.171764 1_655
O8 V2 2.204428 1_565
O8 V0 2.291193 1_555
O9 Si1 1.654179 1_555
O9 V5 2.171764 1_565
O9 V3 2.204428 1_655
O9 V1 2.291193 1_555
O10 Si2 1.654179 1_555
O10 V0 2.171764 1_545
O10 V3 2.204428 1_555
O10 V4 2.291193 1_555
O11 Si3 1.654179 1_555
O11 V1 2.171764 1_455
O11 V2 2.204428 1_556
O11 V5 2.291193 1_555
O12 Si3 1.634138 1_554
O12 V4 2.145136 1_555
O12 V2 2.201801 1_555
O13 Si2 1.624512 1_565
O13 V3 2.163744 1_655
O13 V4 2.211352 1_655
O14 Si2 1.634138 1_555
O14 V5 2.145136 1_555
O14 V3 2.201801 1_555
O15 Si3 1.624512 1_655
O15 V2 2.163744 1_566
O15 V5 2.211352 1_565
O16 Si2 1.688901 1_555
O16 Si4 1.689603 1_555
O16 V4 2.341709 1_555
O17 Si4 1.627191 1_565
O17 V4 2.258426 1_655
O18 Si3 1.688901 1_555
O18 Si5 1.689603 1_555
O18 V5 2.341709 1_555
O19 Si5 1.627191 1_655
O19 V5 2.258426 1_565
