# generated using pymatgen
data_VOF2
_symmetry_space_group_name_H-M   'P 1'
_cell_length_a   5.03578500
_cell_length_b   7.61361178
_cell_length_c   5.25584478
_cell_angle_alpha   92.56614508
_cell_angle_beta   89.99995159
_cell_angle_gamma   89.99964325
_symmetry_Int_Tables_number   1
_chemical_formula_structural   VOF2
_chemical_formula_sum   'V4 O4 F8'
_cell_volume   201.30970392
_cell_formula_units_Z   4
loop_
 _symmetry_equiv_pos_site_id
 _symmetry_equiv_pos_as_xyz
  1  'x, y, z'
loop_
 _atom_site_type_symbol
 _atom_site_label
 _atom_site_symmetry_multiplicity
 _atom_site_fract_x
 _atom_site_fract_y
 _atom_site_fract_z
 _atom_site_occupancy
  V  V0  1  0.49986000  0.49997000  0.50012200  1
  V  V1  1  0.49985200  0.00000900  0.49992600  1
  V  V2  1  0.99993700  0.49998900  0.00002400  1
  V  V3  1  0.99996500  0.99993600  0.99994100  1
  O  O0  1  0.78620900  0.53516700  0.28530900  1
  O  O1  1  0.78619900  0.96488300  0.71469700  1
  O  O2  1  0.21397200  0.03495800  0.28528300  1
  O  O3  1  0.21399800  0.46510100  0.71472700  1
  F  F0  1  0.88940200  0.25000300  0.99999700  1
  F  F1  1  0.70419100  0.92819000  0.20331500  1
  F  F2  1  0.70422900  0.57180500  0.79666700  1
  F  F3  1  0.60567100  0.25000200  0.49997300  1
  F  F4  1  0.39439000  0.75000700  0.49999000  1
  F  F5  1  0.29579000  0.42832600  0.20331800  1
  F  F6  1  0.29578300  0.07166200  0.79667700  1
  F  F7  1  0.11055400  0.74999100  0.00003500  1
loop_
_geom_bond_atom_site_label_1
_geom_bond_atom_site_label_2
_geom_bond_distance
_geom_bond_site_symmetry_2
O0 V2 1.855372 1_555
O0 V0 1.858209 1_555
O1 V3 1.855211 1_555
O1 V1 1.857972 1_565
O2 V1 1.855504 1_555
O2 V3 1.856303 1_444
O3 V0 1.855208 1_555
O3 V2 1.856158 1_456
F0 V2 1.983019 1_556
F0 V3 1.983637 1_545
F1 V3 1.926578 1_554
F1 V1 1.926605 1_565
F2 V2 1.926431 1_556
F2 V0 1.926444 1_555
F3 V0 1.976307 1_555
F3 V1 1.976531 1_555
F4 V1 1.976138 1_565
F4 V0 1.976415 1_555
F5 V0 1.926365 1_555
F5 V2 1.926448 1_455
F6 V1 1.926153 1_555
F6 V3 1.926374 1_445
F7 V3 1.982816 1_454
F7 V2 1.983255 1_455
