# generated using pymatgen
data_CsClO3
_symmetry_space_group_name_H-M   'P 1'
_cell_length_a   6.15097500
_cell_length_b   5.21269800
_cell_length_c   7.84300374
_cell_angle_alpha   69.89401204
_cell_angle_beta   90.00000000
_cell_angle_gamma   90.00000000
_symmetry_Int_Tables_number   1
_chemical_formula_structural   CsClO3
_chemical_formula_sum   'Cs2 Cl2 O6'
_cell_volume   236.14650287
_cell_formula_units_Z   2
loop_
 _symmetry_equiv_pos_site_id
 _symmetry_equiv_pos_as_xyz
  1  'x, y, z'
loop_
 _atom_site_type_symbol
 _atom_site_label
 _atom_site_symmetry_multiplicity
 _atom_site_fract_x
 _atom_site_fract_y
 _atom_site_fract_z
 _atom_site_occupancy
  Cs  Cs0  1  0.75000000  0.64152800  0.71254400  1
  Cs  Cs1  1  0.25000000  0.35847200  0.28745600  1
  Cl  Cl0  1  0.75000000  0.87070300  0.17760000  1
  Cl  Cl1  1  0.25000000  0.12929700  0.82240000  1
  O  O0  1  0.94713100  0.85579100  0.29498000  1
  O  O1  1  0.55286900  0.85579100  0.29498000  1
  O  O2  1  0.25000000  0.38385600  0.87243600  1
  O  O3  1  0.75000000  0.61614400  0.12756400  1
  O  O4  1  0.44713100  0.14420900  0.70502000  1
  O  O5  1  0.05286900  0.14420900  0.70502000  1
loop_
_geom_bond_atom_site_label_1
_geom_bond_atom_site_label_2
_geom_bond_distance
_geom_bond_site_symmetry_2
Cs0 O4 3.199034 1_565
Cs0 O5 3.199034 1_665
Cs0 O4 3.209299 1_555
Cs0 O5 3.209299 1_655
Cs0 O3 3.211922 1_556
Cs0 O1 3.305795 1_555
Cs0 O0 3.305795 1_555
Cs0 O2 3.417204 1_655
Cs0 O2 3.417204 1_555
Cs1 O1 3.199034 1_545
Cs1 O0 3.199034 1_445
Cs1 O1 3.209299 1_555
Cs1 O0 3.209299 1_455
Cs1 O2 3.211922 1_554
Cs1 O4 3.305795 1_555
Cs1 O5 3.305795 1_555
Cs1 O3 3.417204 1_455
Cs1 O3 3.417204 1_555
Cl0 O3 1.507575 1_555
Cl0 O0 1.508191 1_555
Cl0 O1 1.508191 1_555
Cl1 O2 1.507575 1_555
Cl1 O5 1.508191 1_555
Cl1 O4 1.508191 1_555
