# generated using pymatgen
data_MnCr3(PO4)6
_symmetry_space_group_name_H-M   'P 1'
_cell_length_a   8.74469218
_cell_length_b   8.74469218
_cell_length_c   8.74469277
_cell_angle_alpha   58.30199064
_cell_angle_beta   58.30199064
_cell_angle_gamma   58.30198818
_symmetry_Int_Tables_number   1
_chemical_formula_structural   MnCr3(PO4)6
_chemical_formula_sum   'Mn1 Cr3 P6 O24'
_cell_volume   454.45761419
_cell_formula_units_Z   1
loop_
 _symmetry_equiv_pos_site_id
 _symmetry_equiv_pos_as_xyz
  1  'x, y, z'
loop_
 _atom_site_type_symbol
 _atom_site_label
 _atom_site_symmetry_multiplicity
 _atom_site_fract_x
 _atom_site_fract_y
 _atom_site_fract_z
 _atom_site_occupancy
  Mn  Mn0  1  0.85567000  0.85567000  0.85567000  1
  Cr  Cr0  1  0.14282800  0.14282800  0.14282800  1
  Cr  Cr1  1  0.35708300  0.35708300  0.35708300  1
  Cr  Cr2  1  0.64213600  0.64213600  0.64213600  1
  P  P0  1  0.03287500  0.46784400  0.75019400  1
  P  P1  1  0.46784400  0.75019400  0.03287500  1
  P  P2  1  0.75019400  0.03287500  0.46784400  1
  P  P3  1  0.24713800  0.96569600  0.53603600  1
  P  P4  1  0.53603600  0.24713800  0.96569600  1
  P  P5  1  0.96569600  0.53603600  0.24713800  1
  O  O0  1  0.13631400  0.50888800  0.27899000  1
  O  O1  1  0.27899000  0.13631400  0.50888800  1
  O  O2  1  0.06174500  0.28223600  0.92346300  1
  O  O3  1  0.50888800  0.27899000  0.13631400  1
  O  O4  1  0.21771700  0.43754500  0.57743700  1
  O  O5  1  0.01139600  0.64055400  0.77479600  1
  O  O6  1  0.28223600  0.92346300  0.06174500  1
  O  O7  1  0.43754500  0.57743700  0.21771700  1
  O  O8  1  0.57743700  0.21771700  0.43754500  1
  O  O9  1  0.21950500  0.99100800  0.36371600  1
  O  O10  1  0.07303700  0.94080200  0.72053400  1
  O  O11  1  0.36371600  0.21950500  0.99100800  1
  O  O12  1  0.64055400  0.77479600  0.01139600  1
  O  O13  1  0.92346300  0.06174500  0.28223600  1
  O  O14  1  0.77479600  0.01139600  0.64055400  1
  O  O15  1  0.42231000  0.78180400  0.56304800  1
  O  O16  1  0.56304800  0.42231000  0.78180400  1
  O  O17  1  0.72053400  0.07303700  0.94080200  1
  O  O18  1  0.99100800  0.36371600  0.21950500  1
  O  O19  1  0.78180400  0.56304800  0.42231000  1
  O  O20  1  0.49224900  0.72168600  0.86172000  1
  O  O21  1  0.94080200  0.72053400  0.07303700  1
  O  O22  1  0.72168600  0.86172000  0.49224900  1
  O  O23  1  0.86172000  0.49224900  0.72168600  1
loop_
_geom_bond_atom_site_label_1
_geom_bond_atom_site_label_2
_geom_bond_distance
_geom_bond_site_symmetry_2
Mn0 O5 1.893985 1_655
Mn0 O12 1.893985 1_556
Mn0 O14 1.893985 1_565
Mn0 O17 1.940564 1_565
Mn0 O10 1.940564 1_655
Mn0 O21 1.940564 1_556
Cr0 O18 1.916743 1_455
Cr0 O11 1.916743 1_554
Cr0 O9 1.916743 1_545
Cr0 O6 1.931879 1_545
Cr0 O13 1.931880 1_455
Cr0 O2 1.931880 1_554
Cr1 O0 1.922296 1_555
Cr1 O1 1.922296 1_555
Cr1 O3 1.922296 1_555
Cr1 O8 1.936282 1_555
Cr1 O7 1.936282 1_555
Cr1 O4 1.936282 1_555
Cr2 O23 1.920858 1_555
Cr2 O22 1.920858 1_555
Cr2 O20 1.920858 1_555
Cr2 O15 1.925475 1_555
Cr2 O16 1.925475 1_555
Cr2 O19 1.925476 1_555
O0 P5 1.534607 1_455
O1 P3 1.534607 1_545
O2 P0 1.543012 1_555
O3 P4 1.534607 1_554
O4 P0 1.539343 1_555
O5 P0 1.537347 1_555
O6 P1 1.543012 1_555
O7 P1 1.539343 1_555
O8 P2 1.539343 1_555
O9 P3 1.534282 1_555
O10 P3 1.538237 1_555
O11 P4 1.534282 1_555
O12 P1 1.537347 1_555
O13 P2 1.543012 1_555
O14 P2 1.537347 1_555
O15 P3 1.542931 1_555
O16 P4 1.542931 1_555
O17 P4 1.538237 1_555
O18 P5 1.534282 1_555
O19 P5 1.542931 1_555
O20 P1 1.532423 1_556
O21 P5 1.538237 1_555
O22 P2 1.532423 1_565
O23 P0 1.532423 1_655
