# generated using pymatgen
data_Li4Mn5Cu3O16
_symmetry_space_group_name_H-M   'P 1'
_cell_length_a   5.85506703
_cell_length_b   5.85506703
_cell_length_c   9.43787723
_cell_angle_alpha   87.79840212
_cell_angle_beta   87.79840212
_cell_angle_gamma   59.03881672
_symmetry_Int_Tables_number   1
_chemical_formula_structural   Li4Mn5Cu3O16
_chemical_formula_sum   'Li4 Mn5 Cu3 O16'
_cell_volume   277.17668907
_cell_formula_units_Z   1
loop_
 _symmetry_equiv_pos_site_id
 _symmetry_equiv_pos_as_xyz
  1  'x, y, z'
loop_
 _atom_site_type_symbol
 _atom_site_label
 _atom_site_symmetry_multiplicity
 _atom_site_fract_x
 _atom_site_fract_y
 _atom_site_fract_z
 _atom_site_occupancy
  Li  Li0  1  0.66779800  0.66779800  0.89965600  1
  Li  Li1  1  0.00109200  0.00109200  0.99668200  1
  Li  Li2  1  0.00339400  0.00339400  0.48948800  1
  Li  Li3  1  0.33699700  0.33699700  0.39858000  1
  Mn  Mn0  1  0.66446800  0.66446800  0.48481100  1
  Mn  Mn1  1  0.82772300  0.82772300  0.21512400  1
  Mn  Mn2  1  0.32954200  0.32954200  0.98636400  1
  Mn  Mn3  1  0.66178700  0.16928400  0.71363800  1
  Mn  Mn4  1  0.16928400  0.66178700  0.71363800  1
  Cu  Cu0  1  0.82714900  0.33986400  0.21016100  1
  Cu  Cu1  1  0.33986400  0.82714900  0.21016100  1
  Cu  Cu2  1  0.17002700  0.17002700  0.71204500  1
  O  O0  1  0.82575700  0.33008100  0.59507800  1
  O  O1  1  0.52468900  0.52468900  0.35102000  1
  O  O2  1  0.66930100  0.66930100  0.11106600  1
  O  O3  1  0.99793000  0.99793000  0.29648400  1
  O  O4  1  0.99709800  0.99709800  0.80642400  1
  O  O5  1  0.33008100  0.82575700  0.59507800  1
  O  O6  1  0.96622400  0.53635800  0.35020700  1
  O  O7  1  0.53635800  0.96622400  0.35020700  1
  O  O8  1  0.16444700  0.16444700  0.09293800  1
  O  O9  1  0.83817600  0.83817600  0.60515400  1
  O  O10  1  0.49206400  0.04049000  0.84539700  1
  O  O11  1  0.04049000  0.49206400  0.84539700  1
  O  O12  1  0.34014700  0.34014700  0.60837800  1
  O  O13  1  0.65814600  0.15361100  0.09493100  1
  O  O14  1  0.48297900  0.48297900  0.83467200  1
  O  O15  1  0.15361100  0.65814600  0.09493100  1
loop_
_geom_bond_atom_site_label_1
_geom_bond_atom_site_label_2
_geom_bond_distance
_geom_bond_site_symmetry_2
Li0 O11 1.930568 1_655
Li0 O10 1.930568 1_565
Li0 O2 1.995996 1_556
Li0 O14 2.006238 1_555
Li1 O4 1.797888 1_445
Li1 O8 1.931235 1_556
Li1 O13 1.940313 1_456
Li1 O15 1.940313 1_546
Li2 O3 1.824854 1_445
Li2 O0 1.937377 1_455
Li2 O5 1.937377 1_545
Li2 O9 1.965665 1_445
Li3 O7 1.926568 1_545
Li3 O6 1.926568 1_455
Li3 O1 1.945166 1_555
Li3 O12 1.981724 1_555
Mn0 O1 1.944735 1_555
Mn0 O5 1.955667 1_555
Mn0 O0 1.955667 1_555
Mn0 O6 1.958383 1_555
Mn0 O7 1.958383 1_555
Mn0 O9 2.144930 1_555
Mn1 O6 1.918903 1_555
Mn1 O7 1.918903 1_555
Mn1 O2 1.926270 1_555
Mn1 O3 1.927537 1_555
Mn1 O13 1.970882 1_565
Mn1 O15 1.970882 1_655
Mn2 O8 1.921589 1_556
Mn2 O15 1.960592 1_556
Mn2 O13 1.960592 1_556
Mn2 O10 1.989602 1_555
Mn2 O11 1.989602 1_555
Mn2 O14 2.072825 1_555
Mn3 O12 1.913941 1_555
Mn3 O4 1.914525 1_545
Mn3 O10 1.925250 1_555
Mn3 O0 1.956189 1_555
Mn3 O14 1.966016 1_555
Mn3 O9 1.970909 1_545
Mn4 O12 1.913941 1_555
Mn4 O4 1.914525 1_455
Mn4 O11 1.925250 1_555
Mn4 O5 1.956189 1_555
Mn4 O14 1.966016 1_555
Mn4 O9 1.970909 1_455
Cu0 O2 1.882283 1_555
Cu0 O3 1.883953 1_545
Cu0 O8 2.002876 1_655
Cu0 O1 2.008080 1_555
Cu0 O13 2.152955 1_555
Cu0 O6 2.212945 1_555
Cu1 O2 1.882283 1_555
Cu1 O3 1.883953 1_455
Cu1 O8 2.002876 1_565
Cu1 O1 2.008080 1_555
Cu1 O15 2.152955 1_555
Cu1 O7 2.212945 1_555
Cu2 O4 1.939073 1_445
Cu2 O12 1.952595 1_555
Cu2 O0 2.075539 1_455
Cu2 O5 2.075539 1_545
Cu2 O11 2.086158 1_555
Cu2 O10 2.086158 1_555
