# generated using pymatgen
data_RbNa3Li12Ti4O16
_symmetry_space_group_name_H-M   'P 1'
_cell_length_a   8.54398242
_cell_length_b   8.54398242
_cell_length_c   8.54398242
_cell_angle_alpha   98.27210535
_cell_angle_beta   98.27210535
_cell_angle_gamma   135.41837070
_symmetry_Int_Tables_number   1
_chemical_formula_structural   RbNa3Li12Ti4O16
_chemical_formula_sum   'Rb1 Na3 Li12 Ti4 O16'
_cell_volume   405.07954147
_cell_formula_units_Z   1
loop_
 _symmetry_equiv_pos_site_id
 _symmetry_equiv_pos_as_xyz
  1  'x, y, z'
loop_
 _atom_site_type_symbol
 _atom_site_label
 _atom_site_symmetry_multiplicity
 _atom_site_fract_x
 _atom_site_fract_y
 _atom_site_fract_z
 _atom_site_occupancy
  Rb  Rb0  1  0.00000000  0.00000000  0.00000000  1
  Na  Na0  1  0.50000000  0.50000000  0.00000000  1
  Na  Na1  1  0.75000000  0.25000000  0.50000000  1
  Na  Na2  1  0.25000000  0.75000000  0.50000000  1
  Li  Li0  1  0.08159945  0.27888743  0.36048688  1
  Li  Li1  1  0.84896268  0.52506473  0.86658064  1
  Li  Li2  1  0.34151591  0.01761796  0.86658064  1
  Li  Li3  1  0.72111257  0.08159945  0.80271302  1
  Li  Li4  1  0.98238204  0.84896268  0.32389795  1
  Li  Li5  1  0.47493527  0.34151591  0.32389795  1
  Li  Li6  1  0.52506473  0.65848409  0.67610205  1
  Li  Li7  1  0.01761796  0.15103732  0.67610205  1
  Li  Li8  1  0.27888743  0.91840055  0.19728698  1
  Li  Li9  1  0.15103732  0.47493527  0.13341936  1
  Li  Li10  1  0.65848409  0.98238204  0.13341936  1
  Li  Li11  1  0.91840055  0.72111257  0.63951312  1
  Ti  Ti0  1  0.41861950  0.22239146  0.64101095  1
  Ti  Ti1  1  0.22239146  0.58138050  0.80377096  1
  Ti  Ti2  1  0.77760854  0.41861950  0.19622904  1
  Ti  Ti3  1  0.58138050  0.77760854  0.35898905  1
  O  O0  1  0.32199457  0.09087334  0.41286791  1
  O  O1  1  0.64725375  0.54624740  0.72640268  1
  O  O2  1  0.18015528  0.07914893  0.72640268  1
  O  O3  1  0.57230742  0.16822768  0.74053510  1
  O  O4  1  0.09087334  0.67800543  0.76887778  1
  O  O5  1  0.16822768  0.42769258  0.59592026  1
  O  O6  1  0.92085107  0.64725375  0.10100735  1
  O  O7  1  0.45375260  0.18015528  0.10100735  1
  O  O8  1  0.07914893  0.35274625  0.89899265  1
  O  O9  1  0.54624740  0.81984472  0.89899265  1
  O  O10  1  0.83177232  0.57230742  0.40407974  1
  O  O11  1  0.90912666  0.32199457  0.23112222  1
  O  O12  1  0.42769258  0.83177232  0.25946490  1
  O  O13  1  0.81984372  0.92085107  0.27359732  1
  O  O14  1  0.35274625  0.45375260  0.27359732  1
  O  O15  1  0.67800543  0.90912666  0.58713209  1
loop_
_geom_bond_atom_site_label_1
_geom_bond_atom_site_label_2
_geom_bond_distance
_geom_bond_site_symmetry_2
Na0 O14 2.758143 1_555
Na0 O2 2.758143 1_554
Na0 O1 2.758143 1_554
Na0 O13 2.758143 1_555
Na0 O8 2.758143 1_554
Na0 O6 2.758143 1_555
Na0 O9 2.758147 1_554
Na0 O7 2.758147 1_555
Na1 O3 2.610862 1_555
Na1 O5 2.610862 1_655
Na1 O12 2.610862 1_545
Na1 O10 2.610862 1_555
Na1 O11 2.760143 1_555
Na1 O4 2.760146 1_655
Na1 O0 2.760151 1_555
Na1 O15 2.760151 1_545
Na2 O12 2.610862 1_555
Na2 O5 2.610862 1_555
Na2 O10 2.610862 1_455
Na2 O3 2.610862 1_565
Na2 O4 2.760143 1_555
Na2 O11 2.760146 1_455
Na2 O0 2.760151 1_565
Na2 O15 2.760151 1_555
Li0 O5 1.925030 1_555
Li0 O11 1.987567 1_455
Li0 O13 2.008436 1_445
Li0 O14 2.008436 1_555
Li1 O6 1.899946 1_556
Li1 O4 1.907712 1_655
Li1 O3 2.024650 1_555
Li1 O1 2.085675 1_555
Li2 O7 1.899946 1_556
Li2 O4 1.907707 1_545
Li2 O3 2.024650 1_555
Li2 O2 2.085675 1_555
Li3 O3 1.925032 1_555
Li3 O15 1.987577 1_545
Li3 O9 2.008425 1_545
Li3 O8 2.008436 1_655
Li4 O13 1.899946 1_555
Li4 O0 1.907706 1_665
Li4 O10 2.024650 1_555
Li4 O6 2.085668 1_555
Li5 O14 1.899938 1_555
Li5 O0 1.907706 1_555
Li5 O10 2.024650 1_555
Li5 O7 2.085668 1_555
Li6 O1 1.899938 1_555
Li6 O15 1.907706 1_555
Li6 O5 2.024650 1_555
Li6 O9 2.085668 1_555
Li7 O2 1.899938 1_555
Li7 O15 1.907706 1_445
Li7 O5 2.024650 1_555
Li7 O8 2.085668 1_555
Li8 O12 1.925032 1_555
Li8 O0 1.987577 1_565
Li8 O7 2.008425 1_565
Li8 O6 2.008436 1_455
Li9 O8 1.899946 1_554
Li9 O11 1.907712 1_455
Li9 O12 2.024650 1_555
Li9 O14 2.085675 1_555
Li10 O9 1.899946 1_554
Li10 O11 1.907707 1_565
Li10 O12 2.024650 1_555
Li10 O13 2.085668 1_555
Li11 O10 1.925030 1_555
Li11 O4 1.987567 1_655
Li11 O1 2.008436 1_555
Li11 O2 2.008436 1_665
O0 Ti0 1.824556 1_555
O1 Ti0 1.820409 1_555
O1 Rb0 2.880706 1_666
O2 Ti0 1.820409 1_555
O2 Rb0 2.880706 1_556
O3 Ti0 1.821825 1_555
O4 Ti1 1.824557 1_555
O5 Ti1 1.821817 1_555
O6 Ti2 1.820409 1_555
O6 Rb0 2.880710 1_665
O7 Ti2 1.820409 1_555
O7 Rb0 2.880706 1_555
O8 Ti1 1.820409 1_555
O8 Rb0 2.880710 1_556
O9 Ti1 1.820409 1_555
O9 Rb0 2.880706 1_666
O10 Ti2 1.821817 1_555
O11 Ti2 1.824557 1_555
O12 Ti3 1.821825 1_555
O13 Ti3 1.820403 1_555
O13 Rb0 2.880710 1_665
O14 Ti3 1.820409 1_555
O14 Rb0 2.880706 1_555
O15 Ti3 1.824556 1_555
