# generated using pymatgen
data_Li2V2O5F2
_symmetry_space_group_name_H-M   'P 1'
_cell_length_a   5.63653300
_cell_length_b   5.98968602
_cell_length_c   10.13191932
_cell_angle_alpha   104.47070881
_cell_angle_beta   88.99836192
_cell_angle_gamma   111.86884013
_symmetry_Int_Tables_number   1
_chemical_formula_structural   Li2V2O5F2
_chemical_formula_sum   'Li4 V4 O10 F4'
_cell_volume   306.28848884
_cell_formula_units_Z   2
loop_
 _symmetry_equiv_pos_site_id
 _symmetry_equiv_pos_as_xyz
  1  'x, y, z'
loop_
 _atom_site_type_symbol
 _atom_site_label
 _atom_site_symmetry_multiplicity
 _atom_site_fract_x
 _atom_site_fract_y
 _atom_site_fract_z
 _atom_site_occupancy
  Li  Li0  1  0.92354300  0.18925400  0.39496700  1
  Li  Li1  1  0.11721300  0.26855000  0.08444400  1
  Li  Li2  1  0.88278700  0.73145000  0.91555600  1
  Li  Li3  1  0.07645700  0.81074600  0.60503300  1
  V  V0  1  0.60025300  0.24261200  0.09389700  1
  V  V1  1  0.53083700  0.39338000  0.60529500  1
  V  V2  1  0.46916300  0.60662000  0.39470500  1
  V  V3  1  0.39974700  0.75738800  0.90610300  1
  O  O0  1  0.70389900  0.97038300  0.00508500  1
  O  O1  1  0.76739400  0.29588200  0.56821800  1
  O  O2  1  0.43288100  0.38006300  0.22424600  1
  O  O3  1  0.30725300  0.30527600  0.46145600  1
  O  O4  1  0.74274500  0.45810500  0.01392700  1
  O  O5  1  0.25725500  0.54189500  0.98607300  1
  O  O6  1  0.69274700  0.69472400  0.53854400  1
  O  O7  1  0.56711900  0.61993700  0.77575400  1
  O  O8  1  0.23260600  0.70411800  0.43178200  1
  O  O9  1  0.29610100  0.02961700  0.99491500  1
  F  F0  1  0.87373400  0.29739100  0.22615100  1
  F  F1  1  0.31254000  0.14057100  0.67910100  1
  F  F2  1  0.68746000  0.85942900  0.32089900  1
  F  F3  1  0.12626600  0.70260900  0.77384900  1
loop_
_geom_bond_atom_site_label_1
_geom_bond_atom_site_label_2
_geom_bond_distance
_geom_bond_site_symmetry_2
Li0 O1 2.017003 1_555
Li0 O3 2.076468 1_655
Li1 O5 2.030348 1_554
Li1 O9 2.069274 1_554
Li1 O2 2.085247 1_555
Li1 O0 2.347695 1_445
Li2 O4 2.030348 1_556
Li2 O0 2.069274 1_556
Li2 O7 2.085247 1_555
Li2 O9 2.347695 1_665
Li3 O8 2.017003 1_555
Li3 O6 2.076468 1_455
O0 V3 1.834050 1_554
O0 V0 1.941063 1_565
O1 V1 1.647098 1_555
O2 V0 1.817597 1_555
O2 V2 1.870936 1_555
O3 V1 1.781856 1_555
O3 V2 1.977246 1_555
O4 V0 1.641707 1_555
O5 V3 1.641707 1_555
O6 V2 1.781856 1_555
O6 V1 1.977246 1_555
O7 V3 1.817597 1_555
O7 V1 1.870936 1_555
O8 V2 1.647098 1_555
O9 V0 1.834050 1_556
O9 V3 1.941063 1_545
F0 V0 1.937807 1_555
F0 Li1 1.989585 1_655
F0 Li0 2.032202 1_555
F1 V1 1.873994 1_555
F1 Li3 1.890048 1_545
F2 V2 1.873994 1_555
F2 Li0 1.890048 1_565
F3 V3 1.937807 1_555
F3 Li2 1.989585 1_455
F3 Li3 2.032202 1_555
