# generated using pymatgen
data_Li11Nb4(Ni3O8)3
_symmetry_space_group_name_H-M   'P 1'
_cell_length_a   5.26148300
_cell_length_b   9.33730718
_cell_length_c   9.86583086
_cell_angle_alpha   73.44166039
_cell_angle_beta   81.85287975
_cell_angle_gamma   79.74647395
_symmetry_Int_Tables_number   1
_chemical_formula_structural   Li11Nb4(Ni3O8)3
_chemical_formula_sum   'Li11 Nb4 Ni9 O24'
_cell_volume   455.03773897
_cell_formula_units_Z   1
loop_
 _symmetry_equiv_pos_site_id
 _symmetry_equiv_pos_as_xyz
  1  'x, y, z'
loop_
 _atom_site_type_symbol
 _atom_site_label
 _atom_site_symmetry_multiplicity
 _atom_site_fract_x
 _atom_site_fract_y
 _atom_site_fract_z
 _atom_site_occupancy
  Li  Li0  1  0.72825600  0.58632500  0.97851800  1
  Li  Li1  1  0.93456300  0.75536700  0.68780300  1
  Li  Li2  1  0.55699500  0.25033300  0.81424100  1
  Li  Li3  1  0.39391200  0.91703200  0.64628700  1
  Li  Li4  1  0.85733300  0.07290900  0.60714500  1
  Li  Li5  1  0.22884100  0.58579700  0.47847200  1
  Li  Li6  1  0.89798500  0.91510400  0.14575200  1
  Li  Li7  1  0.43781000  0.75547800  0.18463600  1
  Li  Li8  1  0.06796000  0.24973200  0.31078200  1
  Li  Li9  1  0.35647500  0.07369900  0.10621900  1
  Li  Li10  1  0.27269300  0.40940000  0.02273900  1
  Nb  Nb0  1  0.18878400  0.74566300  0.93838900  1
  Nb  Nb1  1  0.68895500  0.74439200  0.43952200  1
  Nb  Nb2  1  0.31381600  0.25393400  0.56133200  1
  Nb  Nb3  1  0.81281600  0.24882400  0.06277900  1
  Ni  Ni0  1  0.64401800  0.92392700  0.89386600  1
  Ni  Ni1  1  0.47686600  0.57794700  0.73255500  1
  Ni  Ni2  1  0.01316200  0.42384300  0.77372300  1
  Ni  Ni3  1  0.77121300  0.41040100  0.52139400  1
  Ni  Ni4  1  0.10425500  0.08352700  0.85471100  1
  Ni  Ni5  1  0.14418800  0.92269100  0.39446600  1
  Ni  Ni6  1  0.98398900  0.57764000  0.22914600  1
  Ni  Ni7  1  0.52465000  0.42375600  0.26403900  1
  Ni  Ni8  1  0.60339400  0.08264800  0.35345000  1
  O  O0  1  0.73627600  0.08891300  0.97986300  1
  O  O1  1  0.65389300  0.41239300  0.89938900  1
  O  O2  1  0.53655900  0.75070900  0.82029600  1
  O  O3  1  0.01434600  0.91165200  0.78172600  1
  O  O4  1  0.11462300  0.58913100  0.85250800  1
  O  O5  1  0.96194100  0.24863900  0.68358100  1
  O  O6  1  0.16074300  0.25059500  0.94487800  1
  O  O7  1  0.83741300  0.58958300  0.60881800  1
  O  O8  1  0.78234000  0.90997800  0.51132600  1
  O  O9  1  0.33933500  0.74844800  0.55456200  1
  O  O10  1  0.36108400  0.41532600  0.65350000  1
  O  O11  1  0.46862400  0.09150200  0.72459200  1
  O  O12  1  0.51189900  0.90966700  0.28377800  1
  O  O13  1  0.61777600  0.58899000  0.34696900  1
  O  O14  1  0.66437400  0.24748600  0.44104500  1
  O  O15  1  0.17998500  0.41496600  0.38971300  1
  O  O16  1  0.23666900  0.09115200  0.47984900  1
  O  O17  1  0.83948800  0.75039800  0.05406000  1
  O  O18  1  0.03595900  0.74858800  0.32172000  1
  O  O19  1  0.96849000  0.08854800  0.22565200  1
  O  O20  1  0.88949400  0.41206300  0.14469500  1
  O  O21  1  0.46383400  0.25038100  0.18013900  1
  O  O22  1  0.34094800  0.58904000  0.10307800  1
  O  O23  1  0.28097900  0.91148100  0.01229100  1
loop_
_geom_bond_atom_site_label_1
_geom_bond_atom_site_label_2
_geom_bond_distance
_geom_bond_site_symmetry_2
Li0 O17 2.082930 1_556
Li0 O2 2.083112 1_555
Li0 O1 2.106073 1_555
Li0 O20 2.106518 1_556
Li0 O22 2.225552 1_556
Li0 O4 2.227745 1_655
Li1 O3 2.064805 1_655
Li1 O8 2.075556 1_555
Li1 O7 2.084917 1_555
Li1 O4 2.102971 1_655
Li1 O2 2.306501 1_555
Li1 O9 2.339602 1_655
Li2 O11 2.075478 1_555
Li2 O0 2.087683 1_555
Li2 O1 2.091887 1_555
Li2 O10 2.110984 1_555
Li2 O6 2.290458 1_555
Li2 O5 2.328659 1_555
Li3 O2 2.086370 1_555
Li3 O16 2.099664 1_565
Li3 O9 2.103746 1_555
Li3 O11 2.106336 1_565
Li3 O3 2.239965 1_555
Li3 O8 2.277009 1_555
Li4 O3 2.097260 1_645
Li4 O8 2.122020 1_545
Li4 O5 2.169887 1_555
Li4 O14 2.175567 1_555
Li4 O11 2.207289 1_555
Li4 O16 2.208712 1_655
Li5 O18 2.070705 1_555
Li5 O9 2.072654 1_555
Li5 O10 2.092650 1_555
Li5 O15 2.093602 1_555
Li5 O13 2.262506 1_555
Li5 O7 2.268440 1_455
Li6 O17 2.078131 1_555
Li6 O18 2.091703 1_655
Li6 O19 2.099092 1_565
Li6 O0 2.103679 1_564
Li6 O23 2.246027 1_655
Li6 O12 2.279631 1_555
Li7 O23 2.062005 1_555
Li7 O12 2.071705 1_555
Li7 O13 2.089231 1_555
Li7 O22 2.105537 1_555
Li7 O17 2.314269 1_555
Li7 O18 2.343504 1_555
Li8 O16 2.075234 1_555
Li8 O19 2.090426 1_455
Li8 O20 2.092339 1_455
Li8 O15 2.114903 1_555
Li8 O21 2.288852 1_555
Li8 O14 2.321241 1_455
Li9 O23 2.104599 1_545
Li9 O12 2.124643 1_545
Li9 O6 2.164015 1_554
Li9 O21 2.169522 1_555
Li9 O0 2.204891 1_554
Li9 O19 2.210305 1_455
Li10 O6 2.055279 1_554
Li10 O21 2.055311 1_555
Li10 O4 2.149695 1_554
Li10 O22 2.150263 1_555
Li10 O1 2.193914 1_554
Li10 O20 2.196584 1_455
Nb0 O4 2.002245 1_555
Nb0 O22 2.004282 1_556
Nb0 O17 2.021689 1_456
Nb0 O2 2.025591 1_555
Nb0 O3 2.040507 1_555
Nb0 O23 2.043323 1_556
Nb1 O7 2.020148 1_555
Nb1 O9 2.020239 1_555
Nb1 O18 2.020831 1_655
Nb1 O13 2.031041 1_555
Nb1 O8 2.031543 1_555
Nb1 O12 2.037812 1_555
Nb2 O11 2.024284 1_555
Nb2 O16 2.032197 1_555
Nb2 O15 2.033066 1_555
Nb2 O10 2.034263 1_555
Nb2 O14 2.048113 1_555
Nb2 O5 2.061658 1_455
Nb3 O19 2.014588 1_555
Nb3 O0 2.016051 1_554
Nb3 O6 2.025023 1_654
Nb3 O21 2.027276 1_555
Nb3 O20 2.037787 1_555
Nb3 O1 2.038231 1_554
Ni0 O23 2.096722 1_556
Ni0 O3 2.101306 1_655
Ni0 O0 2.111069 1_565
Ni0 O11 2.126554 1_565
Ni0 O2 2.138562 1_555
Ni0 O17 2.142133 1_556
Ni1 O4 2.098644 1_555
Ni1 O10 2.103353 1_555
Ni1 O1 2.106656 1_555
Ni1 O7 2.107638 1_555
Ni1 O9 2.120945 1_555
Ni1 O2 2.122147 1_555
Ni2 O10 2.037336 1_555
Ni2 O4 2.089434 1_555
Ni2 O7 2.092550 1_455
Ni2 O6 2.106802 1_555
Ni2 O1 2.110421 1_455
Ni2 O5 2.143351 1_455
Ni3 O14 2.091993 1_555
Ni3 O5 2.094446 1_555
Ni3 O13 2.161627 1_555
Ni3 O7 2.186220 1_555
Ni3 O15 2.350411 1_655
Ni3 O10 2.357747 1_555
Ni4 O5 2.061972 1_455
Ni4 O23 2.077652 1_546
Ni4 O3 2.084056 1_545
Ni4 O6 2.084257 1_555
Ni4 O0 2.144479 1_455
Ni4 O11 2.151200 1_555
Ni5 O12 2.084110 1_555
Ni5 O8 2.085260 1_455
Ni5 O19 2.117390 1_465
Ni5 O16 2.136471 1_565
Ni5 O18 2.143018 1_555
Ni5 O9 2.143881 1_555
Ni6 O15 2.100939 1_655
Ni6 O22 2.102213 1_655
Ni6 O13 2.106609 1_555
Ni6 O20 2.111138 1_555
Ni6 O17 2.123988 1_555
Ni6 O18 2.124586 1_655
Ni7 O15 2.047031 1_555
Ni7 O22 2.084435 1_555
Ni7 O13 2.095733 1_555
Ni7 O21 2.105113 1_555
Ni7 O20 2.107426 1_555
Ni7 O14 2.143326 1_555
Ni8 O14 2.057008 1_555
Ni8 O12 2.077603 1_545
Ni8 O21 2.082249 1_555
Ni8 O8 2.087056 1_545
Ni8 O19 2.143452 1_555
Ni8 O16 2.145773 1_555
