# generated using pymatgen
data_LiMnAsCO7
_symmetry_space_group_name_H-M   'P 1'
_cell_length_a   6.41167100
_cell_length_b   5.21530700
_cell_length_c   8.90729907
_cell_angle_alpha   85.82154534
_cell_angle_beta   90.00000000
_cell_angle_gamma   90.00000000
_symmetry_Int_Tables_number   1
_chemical_formula_structural   LiMnAsCO7
_chemical_formula_sum   'Li2 Mn2 As2 C2 O14'
_cell_volume   297.05798280
_cell_formula_units_Z   2
loop_
 _symmetry_equiv_pos_site_id
 _symmetry_equiv_pos_as_xyz
  1  'x, y, z'
loop_
 _atom_site_type_symbol
 _atom_site_label
 _atom_site_symmetry_multiplicity
 _atom_site_fract_x
 _atom_site_fract_y
 _atom_site_fract_z
 _atom_site_occupancy
  Li  Li0  1  0.49853700  0.78014700  0.79034500  1
  Li  Li1  1  0.99853700  0.21985300  0.20965500  1
  Mn  Mn0  1  0.24943900  0.20486900  0.66768900  1
  Mn  Mn1  1  0.74943900  0.79513100  0.33231100  1
  As  As0  1  0.75432000  0.27917100  0.56957800  1
  As  As1  1  0.25432000  0.72082900  0.43042200  1
  C  C0  1  0.25004000  0.27541200  0.93271200  1
  C  C1  1  0.75004000  0.72458800  0.06728800  1
  O  O0  1  0.72265300  0.68806700  0.93383100  1
  O  O1  1  0.25577800  0.04711800  0.87659400  1
  O  O2  1  0.26995100  0.46031100  0.82297700  1
  O  O3  1  0.95452000  0.20025800  0.69103100  1
  O  O4  1  0.55038000  0.17191500  0.68217500  1
  O  O5  1  0.26310700  0.85635500  0.59958400  1
  O  O6  1  0.73342600  0.60749400  0.52825300  1
  O  O7  1  0.23342600  0.39250600  0.47174700  1
  O  O8  1  0.76310700  0.14364500  0.40041600  1
  O  O9  1  0.05038000  0.82808500  0.31782500  1
  O  O10  1  0.45452000  0.79974200  0.30896900  1
  O  O11  1  0.76995100  0.53968900  0.17702300  1
  O  O12  1  0.75577800  0.95288200  0.12340600  1
  O  O13  1  0.22265300  0.31193300  0.06616900  1
loop_
_geom_bond_atom_site_label_1
_geom_bond_atom_site_label_2
_geom_bond_distance
_geom_bond_site_symmetry_2
Li0 O0 1.959463 1_555
Li0 O4 2.219589 1_565
Li0 O2 2.223564 1_555
Li0 O1 2.259943 1_565
Li0 O5 2.285892 1_555
Li1 O13 1.959463 1_655
Li1 O9 2.219589 1_645
Li1 O11 2.223564 1_555
Li1 O12 2.259943 1_545
Li1 O8 2.285892 1_555
Mn0 O3 1.902280 1_455
Mn0 O7 1.940463 1_555
Mn0 O4 1.940634 1_555
Mn0 O5 1.959607 1_545
Mn0 O1 1.979375 1_555
Mn0 O2 1.993449 1_555
Mn1 O10 1.902280 1_555
Mn1 O6 1.940463 1_555
Mn1 O9 1.940634 1_655
Mn1 O8 1.959607 1_565
Mn1 O12 1.979375 1_555
Mn1 O11 1.993449 1_555
As0 O3 1.709532 1_555
As0 O8 1.711236 1_555
As0 O4 1.716633 1_555
As0 O6 1.730196 1_555
As1 O10 1.709532 1_555
As1 O5 1.711236 1_555
As1 O9 1.716633 1_555
As1 O7 1.730196 1_555
C0 O13 1.230127 1_556
C0 O1 1.324962 1_555
C0 O2 1.328240 1_555
C1 O0 1.230127 1_554
C1 O12 1.324962 1_555
C1 O11 1.328240 1_555
