# generated using pymatgen
data_Li10Cu4S9
_symmetry_space_group_name_H-M   'P 1'
_cell_length_a   11.59163000
_cell_length_b   11.59163000
_cell_length_c   5.65913900
_cell_angle_alpha   90.00000000
_cell_angle_beta   90.00000000
_cell_angle_gamma   90.00000000
_symmetry_Int_Tables_number   1
_chemical_formula_structural   Li10Cu4S9
_chemical_formula_sum   'Li20 Cu8 S18'
_cell_volume   760.39522605
_cell_formula_units_Z   2
loop_
 _symmetry_equiv_pos_site_id
 _symmetry_equiv_pos_as_xyz
  1  'x, y, z'
loop_
 _atom_site_type_symbol
 _atom_site_label
 _atom_site_symmetry_multiplicity
 _atom_site_fract_x
 _atom_site_fract_y
 _atom_site_fract_z
 _atom_site_occupancy
  Li  Li0  1  0.14861200  0.31502100  0.21539000  1
  Li  Li1  1  0.85138800  0.31502100  0.21539000  1
  Li  Li2  1  0.81502100  0.35138800  0.71539000  1
  Li  Li3  1  0.18497900  0.35138800  0.71539000  1
  Li  Li4  1  0.00000000  0.50000000  0.17353600  1
  Li  Li5  1  0.00000000  0.50000000  0.67353600  1
  Li  Li6  1  0.81502100  0.64861200  0.71539000  1
  Li  Li7  1  0.18497900  0.64861200  0.71539000  1
  Li  Li8  1  0.85138800  0.68497900  0.21539000  1
  Li  Li9  1  0.14861200  0.68497900  0.21539000  1
  Li  Li10  1  0.35138800  0.81502100  0.28461000  1
  Li  Li11  1  0.64861200  0.81502100  0.28461000  1
  Li  Li12  1  0.31502100  0.85138800  0.78461000  1
  Li  Li13  1  0.68497900  0.85138800  0.78461000  1
  Li  Li14  1  0.50000000  0.00000000  0.82646400  1
  Li  Li15  1  0.50000000  0.00000000  0.32646400  1
  Li  Li16  1  0.68497900  0.14861200  0.78461000  1
  Li  Li17  1  0.31502100  0.14861200  0.78461000  1
  Li  Li18  1  0.35138800  0.18497900  0.28461000  1
  Li  Li19  1  0.64861200  0.18497900  0.28461000  1
  Cu  Cu0  1  0.50000000  0.34555300  0.75641500  1
  Cu  Cu1  1  0.65444700  0.50000000  0.24358500  1
  Cu  Cu2  1  0.34555300  0.50000000  0.24358500  1
  Cu  Cu3  1  0.50000000  0.65444700  0.75641500  1
  Cu  Cu4  1  0.00000000  0.84555300  0.74358500  1
  Cu  Cu5  1  0.84555300  0.00000000  0.25641500  1
  Cu  Cu6  1  0.15444700  0.00000000  0.25641500  1
  Cu  Cu7  1  0.00000000  0.15444700  0.74358500  1
  S  S0  1  0.33970500  0.33970500  0.00000000  1
  S  S1  1  0.66029500  0.33970500  0.00000000  1
  S  S2  1  0.00000000  0.33324000  0.92422400  1
  S  S3  1  0.50000000  0.50000000  0.50000000  1
  S  S4  1  0.83324000  0.50000000  0.42422400  1
  S  S5  1  0.16676000  0.50000000  0.42422400  1
  S  S6  1  0.00000000  0.66676000  0.92422400  1
  S  S7  1  0.33970500  0.66029500  0.00000000  1
  S  S8  1  0.66029500  0.66029500  0.00000000  1
  S  S9  1  0.83970500  0.83970500  0.50000000  1
  S  S10  1  0.16029500  0.83970500  0.50000000  1
  S  S11  1  0.50000000  0.83324000  0.57577600  1
  S  S12  1  0.66676000  0.00000000  0.07577600  1
  S  S13  1  0.00000000  0.00000000  0.00000000  1
  S  S14  1  0.33324000  0.00000000  0.07577600  1
  S  S15  1  0.50000000  0.16676000  0.57577600  1
  S  S16  1  0.83970500  0.16029500  0.50000000  1
  S  S17  1  0.16029500  0.16029500  0.50000000  1
loop_
_geom_bond_atom_site_label_1
_geom_bond_atom_site_label_2
_geom_bond_distance
_geom_bond_site_symmetry_2
Li0 S2 2.393161 1_554
Li0 S17 2.414387 1_555
Li0 S5 2.457353 1_555
Li0 S0 2.544448 1_555
Li1 S2 2.393161 1_654
Li1 S16 2.414387 1_555
Li1 S4 2.457353 1_555
Li1 S1 2.544448 1_555
Li2 S4 2.393161 1_555
Li2 S1 2.414387 1_556
Li2 S2 2.457353 1_655
Li2 S16 2.544448 1_555
Li3 S5 2.393161 1_555
Li3 S0 2.414387 1_556
Li3 S2 2.457353 1_555
Li3 S17 2.544448 1_555
Li4 S2 2.393153 1_554
Li4 S6 2.393153 1_554
Li4 S4 2.397752 1_455
Li4 S5 2.397752 1_555
Li5 S4 2.393153 1_455
Li5 S5 2.393153 1_555
Li5 S2 2.397752 1_555
Li5 S6 2.397752 1_555
Li6 S4 2.393161 1_555
Li6 S8 2.414387 1_556
Li6 S6 2.457353 1_655
Li6 S9 2.544448 1_555
Li7 S5 2.393161 1_555
Li7 S7 2.414387 1_556
Li7 S6 2.457353 1_555
Li7 S10 2.544448 1_555
Li8 S6 2.393161 1_654
Li8 S9 2.414387 1_555
Li8 S4 2.457353 1_555
Li8 S8 2.544448 1_555
Li9 S6 2.393161 1_554
Li9 S10 2.414387 1_555
Li9 S5 2.457353 1_555
Li9 S7 2.544448 1_555
Li10 S11 2.393161 1_555
Li10 S7 2.414387 1_555
Li10 S14 2.457353 1_565
Li10 S10 2.544448 1_555
Li11 S11 2.393161 1_555
Li11 S8 2.414387 1_555
Li11 S12 2.457353 1_565
Li11 S9 2.544448 1_555
Li12 S14 2.393161 1_566
Li12 S10 2.414387 1_555
Li12 S11 2.457353 1_555
Li12 S7 2.544448 1_556
Li13 S12 2.393161 1_566
Li13 S9 2.414387 1_555
Li13 S11 2.457353 1_555
Li13 S8 2.544448 1_556
Li14 S14 2.393153 1_556
Li14 S12 2.393153 1_556
Li14 S11 2.397752 1_545
Li14 S15 2.397752 1_555
Li15 S11 2.393153 1_545
Li15 S15 2.393153 1_555
Li15 S14 2.397752 1_555
Li15 S12 2.397752 1_555
Li16 S12 2.393161 1_556
Li16 S16 2.414387 1_555
Li16 S15 2.457353 1_555
Li16 S1 2.544448 1_556
Li17 S14 2.393161 1_556
Li17 S17 2.414387 1_555
Li17 S15 2.457353 1_555
Li17 S0 2.544448 1_556
Li18 S15 2.393161 1_555
Li18 S0 2.414387 1_555
Li18 S14 2.457353 1_555
Li18 S17 2.544448 1_555
Li19 S15 2.393161 1_555
Li19 S1 2.414387 1_555
Li19 S12 2.457353 1_555
Li19 S16 2.544448 1_555
Cu0 S3 2.304518 1_555
Cu0 S15 2.310905 1_555
Cu0 S1 2.314577 1_556
Cu0 S0 2.314577 1_556
Cu1 S3 2.304518 1_555
Cu1 S4 2.310905 1_555
Cu1 S8 2.314577 1_555
Cu1 S1 2.314577 1_555
Cu2 S3 2.304518 1_555
Cu2 S5 2.310905 1_555
Cu2 S7 2.314577 1_555
Cu2 S0 2.314577 1_555
Cu3 S3 2.304518 1_555
Cu3 S11 2.310905 1_555
Cu3 S8 2.314577 1_556
Cu3 S7 2.314577 1_556
Cu4 S13 2.304518 1_566
Cu4 S6 2.310905 1_555
Cu4 S10 2.314577 1_555
Cu4 S9 2.314577 1_455
Cu5 S13 2.304518 1_655
Cu5 S12 2.310905 1_555
Cu5 S16 2.314577 1_555
Cu5 S9 2.314577 1_545
Cu6 S13 2.304518 1_555
Cu6 S14 2.310905 1_555
Cu6 S17 2.314577 1_555
Cu6 S10 2.314577 1_545
Cu7 S13 2.304518 1_556
Cu7 S2 2.310905 1_555
Cu7 S17 2.314577 1_555
Cu7 S16 2.314577 1_455
