# generated using pymatgen
data_Ti11Fe17O42
_symmetry_space_group_name_H-M   'P 1'
_cell_length_a   7.53910900
_cell_length_b   9.17138784
_cell_length_c   11.63012798
_cell_angle_alpha   99.47946892
_cell_angle_beta   93.04927513
_cell_angle_gamma   108.16923470
_symmetry_Int_Tables_number   1
_chemical_formula_structural   Ti11Fe17O42
_chemical_formula_sum   'Ti11 Fe17 O42'
_cell_volume   748.92133197
_cell_formula_units_Z   1
loop_
 _symmetry_equiv_pos_site_id
 _symmetry_equiv_pos_as_xyz
  1  'x, y, z'
loop_
 _atom_site_type_symbol
 _atom_site_label
 _atom_site_symmetry_multiplicity
 _atom_site_fract_x
 _atom_site_fract_y
 _atom_site_fract_z
 _atom_site_occupancy
  Ti  Ti0  1  0.48719200  0.26455000  0.18471300  1
  Ti  Ti1  1  0.77611600  0.83645800  0.04214700  1
  Ti  Ti2  1  0.65450500  0.02350600  0.24623600  1
  Ti  Ti3  1  0.94214100  0.59657600  0.10637800  1
  Ti  Ti4  1  0.91635300  0.11792000  0.46854500  1
  Ti  Ti5  1  0.37025000  0.45387100  0.38557100  1
  Ti  Ti6  1  0.79493100  0.31053300  0.67097200  1
  Ti  Ti7  1  0.08653800  0.87535900  0.52527000  1
  Ti  Ti8  1  0.34417200  0.98099800  0.75826800  1
  Ti  Ti9  1  0.05932400  0.40676500  0.90235400  1
  Ti  Ti10  1  0.51595800  0.73487000  0.81578200  1
  Fe  Fe0  1  0.16566300  0.02749100  0.24228400  1
  Fe  Fe1  1  0.45068600  0.60034600  0.10193400  1
  Fe  Fe2  1  0.98726700  0.25984800  0.18329600  1
  Fe  Fe3  1  0.27000000  0.83610300  0.04512100  1
  Fe  Fe4  1  0.20414600  0.69207100  0.32664500  1
  Fe  Fe5  1  0.69007800  0.68475400  0.32899600  1
  Fe  Fe6  1  0.87460000  0.45391700  0.38615700  1
  Fe  Fe7  1  0.40826500  0.11477200  0.47225000  1
  Fe  Fe8  1  0.62846700  0.54806700  0.60929100  1
  Fe  Fe9  1  0.12656600  0.54936900  0.61353900  1
  Fe  Fe10  1  0.30431800  0.31126800  0.67042900  1
  Fe  Fe11  1  0.58309800  0.87870700  0.52744000  1
  Fe  Fe12  1  0.55711400  0.40336000  0.90293600  1
  Fe  Fe13  1  0.73851300  0.17273300  0.95809600  1
  Fe  Fe14  1  0.01094800  0.73606800  0.81177500  1
  Fe  Fe15  1  0.84555800  0.97762500  0.75676900  1
  Fe  Fe16  1  0.22830100  0.16619600  0.95828900  1
  O  O0  1  0.02755800  0.24467000  0.00745800  1
  O  O1  1  0.27736000  0.05354200  0.08152500  1
  O  O2  1  0.43572900  0.36295900  0.06395000  1
  O  O3  1  0.89437500  0.00074800  0.16449900  1
  O  O4  1  0.18608300  0.58282100  0.02015300  1
  O  O5  1  0.68203200  0.18651600  0.13435300  1
  O  O6  1  0.46025300  0.09541300  0.29800600  1
  O  O7  1  0.74393200  0.66915300  0.15191400  1
  O  O8  1  0.24761500  0.27577100  0.26346400  1
  O  O9  1  0.52314300  0.85151500  0.11953400  1
  O  O10  1  0.98762200  0.49491500  0.22347600  1
  O  O11  1  0.86502300  0.21474000  0.34730100  1
  O  O12  1  0.15070800  0.79357000  0.19719900  1
  O  O13  1  0.61037300  0.43044000  0.30648300  1
  O  O14  1  0.40267100  0.61182500  0.27299500  1
  O  O15  1  0.11143200  0.04574300  0.41852900  1
  O  O16  1  0.17512000  0.52256800  0.43592900  1
  O  O17  1  0.95591900  0.71234400  0.40609900  1
  O  O18  1  0.67769100  0.14018100  0.55066800  1
  O  O19  1  0.41534600  0.34873100  0.51104700  1
  O  O20  1  0.70682400  0.92389100  0.36604200  1
  O  O21  1  0.29821100  0.08877300  0.63727100  1
  O  O22  1  0.57687200  0.64780300  0.48480400  1
  O  O23  1  0.04926100  0.28529600  0.59508500  1
  O  O24  1  0.32654800  0.87073200  0.45601500  1
  O  O25  1  0.83305500  0.46797800  0.56254600  1
  O  O26  1  0.88774400  0.95384000  0.58498200  1
  O  O27  1  0.59692300  0.37784700  0.72415800  1
  O  O28  1  0.38250500  0.56214400  0.69558800  1
  O  O29  1  0.84582600  0.19999700  0.79244900  1
  O  O30  1  0.13739600  0.78513600  0.65125600  1
  O  O31  1  0.00172900  0.49891900  0.77836700  1
  O  O32  1  0.47115500  0.14474400  0.87934100  1
  O  O33  1  0.75233400  0.72993500  0.73977200  1
  O  O34  1  0.25500300  0.33296100  0.83978800  1
  O  O35  1  0.53803000  0.90406400  0.70743900  1
  O  O36  1  0.31747400  0.81408900  0.87234400  1
  O  O37  1  0.09396400  0.99328600  0.82870800  1
  O  O38  1  0.82089000  0.42537300  0.97849000  1
  O  O39  1  0.56040500  0.64021600  0.93953400  1
  O  O40  1  0.72507800  0.93663900  0.91865500  1
  O  O41  1  0.97171500  0.76407100  0.99129900  1
loop_
_geom_bond_atom_site_label_1
_geom_bond_atom_site_label_2
_geom_bond_distance
_geom_bond_site_symmetry_2
Fe0 O12 2.088691 1_545
Fe0 O15 2.101306 1_555
Fe0 O1 2.109729 1_555
Fe0 O3 2.116340 1_455
Fe0 O8 2.132867 1_555
Fe0 O6 2.142826 1_555
Fe1 O14 2.032602 1_555
Fe1 O4 2.111351 1_555
Fe1 O2 2.114881 1_555
Fe1 O7 2.120420 1_555
Fe1 O39 2.142504 1_554
Fe1 O9 2.166737 1_555
Fe2 O0 2.071820 1_655
Fe2 O8 2.079633 1_655
Fe2 O10 2.128536 1_555
Fe2 O5 2.200270 1_555
Fe2 O11 2.206320 1_555
Fe2 O3 2.227063 1_555
Fe3 O1 1.951824 1_565
Fe3 O9 2.006732 1_555
Fe3 O36 2.048066 1_554
Fe3 O12 2.065661 1_555
Fe3 O41 2.161686 1_454
Fe3 O4 2.173108 1_555
Fe4 O14 1.950934 1_555
Fe4 O24 1.974203 1_555
Fe4 O12 1.981485 1_555
Fe4 O16 2.132665 1_555
Fe4 O10 2.147122 1_455
Fe4 O17 2.176011 1_455
Fe5 O17 2.074306 1_555
Fe5 O22 2.076844 1_555
Fe5 O14 2.090234 1_555
Fe5 O7 2.110670 1_555
Fe5 O20 2.126511 1_555
Fe5 O13 2.185821 1_555
Fe6 O25 2.080743 1_555
Fe6 O13 2.084130 1_555
Fe6 O11 2.143007 1_555
Fe6 O10 2.157112 1_555
Fe6 O16 2.171512 1_655
Fe6 O17 2.223688 1_555
Fe7 O6 2.073922 1_555
Fe7 O24 2.100751 1_545
Fe7 O19 2.101829 1_555
Fe7 O18 2.109426 1_555
Fe7 O21 2.150681 1_555
Fe7 O15 2.153266 1_555
Fe8 O22 1.918942 1_555
Fe8 O25 1.969354 1_555
Fe8 O33 2.000286 1_555
Fe8 O19 2.124645 1_555
Fe8 O28 2.183381 1_555
Fe8 O27 2.183497 1_555
Fe9 O28 2.067309 1_555
Fe9 O16 2.104886 1_555
Fe9 O30 2.109106 1_555
Fe9 O25 2.118935 1_455
Fe9 O31 2.233197 1_555
Fe9 O23 2.277409 1_555
Fe10 O23 1.997113 1_555
Fe10 O21 1.998787 1_555
Fe10 O34 2.013048 1_555
Fe10 O19 2.109540 1_555
Fe10 O27 2.125388 1_555
Fe10 O28 2.154340 1_555
Fe11 O24 2.038916 1_555
Fe11 O22 2.079044 1_555
Fe11 O35 2.125204 1_555
Fe11 O20 2.183270 1_555
Fe11 O26 2.212544 1_555
Fe11 O18 2.243190 1_565
Fe12 O38 2.067081 1_555
Fe12 O27 2.101875 1_555
Fe12 O39 2.135736 1_555
Fe12 O2 2.163526 1_556
Fe12 O34 2.211932 1_555
Fe12 O32 2.220161 1_555
Fe13 O0 2.087830 1_656
Fe13 O32 2.090715 1_555
Fe13 O40 2.107214 1_545
Fe13 O5 2.107234 1_556
Fe13 O29 2.150998 1_555
Fe13 O38 2.171772 1_555
Fe14 O33 2.061117 1_455
Fe14 O41 2.109306 1_455
Fe14 O31 2.123876 1_555
Fe14 O30 2.189744 1_555
Fe14 O37 2.215551 1_555
Fe14 O36 2.231179 1_555
Fe15 O37 1.963116 1_655
Fe15 O29 2.012504 1_565
Fe15 O26 2.026740 1_555
Fe15 O33 2.129573 1_555
Fe15 O40 2.170995 1_555
Fe15 O35 2.217021 1_555
Fe16 O0 1.941972 1_556
Fe16 O37 1.964820 1_545
Fe16 O1 1.981964 1_556
Fe16 O2 2.125392 1_556
Fe16 O32 2.139616 1_555
Fe16 O34 2.193396 1_555
O0 Ti9 2.041890 1_554
O1 Ti0 2.193553 1_555
O2 Ti0 1.875011 1_555
O3 Ti1 1.846909 1_545
O3 Ti2 2.137872 1_555
O4 Ti9 1.888683 1_554
O4 Ti3 2.168658 1_455
O5 Ti0 1.903168 1_555
O5 Ti2 2.108873 1_555
O6 Ti2 1.872834 1_555
O6 Ti0 2.165379 1_555
O7 Ti3 1.882797 1_555
O7 Ti1 2.118730 1_555
O8 Ti5 1.921987 1_555
O8 Ti0 2.091090 1_555
O9 Ti2 1.935257 1_565
O9 Ti1 2.184586 1_555
O10 Ti3 1.846486 1_555
O11 Ti4 1.869564 1_555
O11 Ti2 2.088803 1_555
O12 Ti3 2.067691 1_455
O13 Ti0 1.857964 1_555
O13 Ti5 2.126997 1_555
O14 Ti5 2.076178 1_555
O15 Ti4 1.873748 1_455
O15 Ti7 2.121106 1_545
O16 Ti5 1.858031 1_555
O17 Ti7 1.838472 1_655
O18 Ti6 1.861994 1_555
O18 Ti4 2.130511 1_555
O19 Ti5 1.946835 1_555
O20 Ti2 1.875443 1_565
O20 Ti4 2.104983 1_565
O21 Ti8 1.922816 1_545
O21 Ti7 2.250667 1_545
O22 Ti5 2.080072 1_555
O23 Ti4 1.914682 1_455
O23 Ti6 2.213266 1_455
O24 Ti7 2.028886 1_555
O25 Ti6 2.034050 1_555
O26 Ti7 1.966061 1_655
O26 Ti4 2.155169 1_565
O27 Ti6 1.881336 1_555
O28 Ti10 1.898100 1_555
O29 Ti6 1.956431 1_555
O29 Ti9 2.213557 1_655
O30 Ti7 1.875124 1_555
O30 Ti8 2.125253 1_555
O31 Ti9 1.883053 1_555
O31 Ti6 2.092364 1_455
O32 Ti8 1.848779 1_545
O33 Ti10 2.040586 1_555
O34 Ti9 1.933579 1_555
O35 Ti8 1.892353 1_555
O35 Ti10 2.128055 1_555
O36 Ti10 1.955793 1_555
O36 Ti8 2.156205 1_555
O37 Ti8 2.123372 1_555
O38 Ti3 1.924638 1_556
O38 Ti9 2.086951 1_655
O39 Ti10 1.865207 1_555
O39 Ti1 2.137498 1_556
O40 Ti1 1.910850 1_556
O40 Ti10 2.142890 1_555
O41 Ti1 1.881235 1_556
O41 Ti3 2.167056 1_556
