# generated using pymatgen
data_Sr2RhO4
_symmetry_space_group_name_H-M   'P 1'
_cell_length_a   5.45167477
_cell_length_b   5.45167523
_cell_length_c   13.50394788
_cell_angle_alpha   101.60005497
_cell_angle_beta   101.60005769
_cell_angle_gamma   90.00631832
_symmetry_Int_Tables_number   1
_chemical_formula_structural   Sr2RhO4
_chemical_formula_sum   'Sr8 Rh4 O16'
_cell_volume   384.77611762
_cell_formula_units_Z   4
loop_
 _symmetry_equiv_pos_site_id
 _symmetry_equiv_pos_as_xyz
  1  'x, y, z'
loop_
 _atom_site_type_symbol
 _atom_site_label
 _atom_site_symmetry_multiplicity
 _atom_site_fract_x
 _atom_site_fract_y
 _atom_site_fract_z
 _atom_site_occupancy
  Sr  Sr0  1  0.82448823  0.82461759  0.64849957  1
  Sr  Sr1  1  0.07461759  0.57448823  0.14849957  1
  Sr  Sr2  1  0.17563050  0.17530009  0.35149116  1
  Sr  Sr3  1  0.42530009  0.92563050  0.85149116  1
  Sr  Sr4  1  0.32469991  0.32436950  0.64850884  1
  Sr  Sr5  1  0.57436950  0.07469991  0.14850884  1
  Sr  Sr6  1  0.67538241  0.67551177  0.35150043  1
  Sr  Sr7  1  0.92551177  0.42538241  0.85150043  1
  Rh  Rh0  1  -0.00012997  0.00007789  0.00001286  1
  Rh  Rh1  1  0.25007789  0.74987003  0.50001286  1
  Rh  Rh2  1  0.49992211  0.50012997  -0.00001286  1
  Rh  Rh3  1  0.75012997  0.24992211  0.49998714  1
  O  O0  1  0.05009050  0.44990950  0.50000000  1
  O  O1  1  0.91994203  0.92097079  0.84059754  1
  O  O2  1  0.07982223  0.07908122  0.15943110  1
  O  O3  1  0.17097079  0.66994203  0.34059754  1
  O  O4  1  0.32908122  0.82982223  0.65943110  1
  O  O5  1  0.19972296  0.69988158  0.99930915  1
  O  O6  1  0.29976312  0.20023688  0.00000000  1
  O  O7  1  0.45023688  0.04976312  0.50000000  1
  O  O8  1  0.55027704  0.55011842  0.50069085  1
  O  O9  1  0.42091878  0.42017777  0.84056890  1
  O  O10  1  0.57902921  0.58005797  0.15940246  1
  O  O11  1  0.67017777  0.17091878  0.34056890  1
  O  O12  1  0.83005797  0.32902921  0.65940246  1
  O  O13  1  0.69990950  0.80009050  -0.00000000  1
  O  O14  1  0.80011842  0.30027704  0.00069085  1
  O  O15  1  0.94988158  0.94972296  0.49930915  1
loop_
_geom_bond_atom_site_label_1
_geom_bond_atom_site_label_2
_geom_bond_distance
_geom_bond_site_symmetry_2
O0 Rh3 1.965264 1_455
O0 Rh1 1.965264 1_555
O0 Sr4 2.465016 1_555
O0 Sr2 2.465016 1_555
O1 Rh0 2.063853 1_666
O1 Sr0 2.486975 1_555
O1 Sr7 2.723940 1_565
O1 Sr3 2.729115 1_655
O1 Sr3 2.729859 1_555
O1 Sr7 2.735040 1_555
O2 Rh0 2.063892 1_555
O2 Sr2 2.486484 1_555
O2 Sr1 2.724869 1_545
O2 Sr5 2.729443 1_555
O2 Sr5 2.729575 1_455
O2 Sr1 2.734150 1_555
O3 Rh1 2.063853 1_555
O3 Sr1 2.486975 1_555
O3 Sr6 2.723939 1_555
O3 Sr2 2.729115 1_565
O3 Sr2 2.729859 1_555
O3 Sr6 2.735040 1_455
O4 Rh1 2.063892 1_555
O4 Sr3 2.486484 1_555
O4 Sr0 2.724869 1_455
O4 Sr4 2.729443 1_565
O4 Sr4 2.729575 1_555
O4 Sr0 2.734150 1_555
O5 Rh2 1.965391 1_556
O5 Rh0 1.965667 1_566
O5 Sr7 2.461001 1_455
O5 Sr1 2.469350 1_556
O6 Rh0 1.965574 1_555
O6 Rh2 1.965574 1_555
O6 Sr5 2.465002 1_555
O6 Sr3 2.465002 1_544
O7 Rh3 1.965574 1_555
O7 Rh1 1.965574 1_545
O7 Sr2 2.465002 1_555
O7 Sr4 2.465002 1_555
O8 Rh1 1.965391 1_555
O8 Rh3 1.965667 1_555
O8 Sr0 2.461001 1_555
O8 Sr6 2.469350 1_555
O9 Rh2 2.063892 1_556
O9 Sr4 2.486484 1_555
O9 Sr7 2.724869 1_555
O9 Sr3 2.729443 1_545
O9 Sr3 2.729575 1_555
O9 Sr7 2.734150 1_455
O10 Rh2 2.063853 1_555
O10 Sr6 2.486975 1_555
O10 Sr1 2.723939 1_555
O10 Sr5 2.729115 1_555
O10 Sr5 2.729859 1_565
O10 Sr1 2.735040 1_655
O11 Rh3 2.063892 1_555
O11 Sr5 2.486484 1_555
O11 Sr6 2.724869 1_555
O11 Sr2 2.729443 1_555
O11 Sr2 2.729575 1_655
O11 Sr6 2.734150 1_545
O12 Rh3 2.063853 1_555
O12 Sr7 2.486975 1_555
O12 Sr0 2.723940 1_545
O12 Sr4 2.729115 1_555
O12 Sr4 2.729859 1_655
O12 Sr0 2.735040 1_555
O13 Rh0 1.965264 1_665
O13 Rh2 1.965264 1_555
O13 Sr3 2.465016 1_554
O13 Sr5 2.465016 1_565
O14 Rh0 1.965391 1_655
O14 Rh2 1.965667 1_555
O14 Sr1 2.461001 1_655
O14 Sr7 2.469350 1_554
O15 Rh3 1.965391 1_565
O15 Rh1 1.965667 1_655
O15 Sr6 2.461001 1_555
O15 Sr0 2.469350 1_555
