# generated using pymatgen
data_Sr2MnCO3F5
_symmetry_space_group_name_H-M   'P 1'
_cell_length_a   9.06411700
_cell_length_b   5.58556200
_cell_length_c   13.96356766
_cell_angle_alpha   73.05783031
_cell_angle_beta   90.00000000
_cell_angle_gamma   90.00000000
_symmetry_Int_Tables_number   1
_chemical_formula_structural   Sr2MnCO3F5
_chemical_formula_sum   'Sr8 Mn4 C4 O12 F20'
_cell_volume   676.26803937
_cell_formula_units_Z   4
loop_
 _symmetry_equiv_pos_site_id
 _symmetry_equiv_pos_as_xyz
  1  'x, y, z'
loop_
 _atom_site_type_symbol
 _atom_site_label
 _atom_site_symmetry_multiplicity
 _atom_site_fract_x
 _atom_site_fract_y
 _atom_site_fract_z
 _atom_site_occupancy
  Sr  Sr0  1  0.89159800  0.69383100  0.09801400  1
  Sr  Sr1  1  0.35486400  0.69164000  0.08590400  1
  Sr  Sr2  1  0.85486400  0.30836000  0.41409600  1
  Sr  Sr3  1  0.39159800  0.30616900  0.40198600  1
  Sr  Sr4  1  0.60840200  0.69383100  0.59801400  1
  Sr  Sr5  1  0.14513600  0.69164000  0.58590400  1
  Sr  Sr6  1  0.64513600  0.30836000  0.91409600  1
  Sr  Sr7  1  0.10840200  0.30616900  0.90198600  1
  Mn  Mn0  1  0.87349300  0.19108300  0.67205700  1
  Mn  Mn1  1  0.37349300  0.80891700  0.82794300  1
  Mn  Mn2  1  0.62650700  0.19108300  0.17205700  1
  Mn  Mn3  1  0.12650700  0.80891700  0.32794300  1
  C  C0  1  0.37687200  0.18096900  0.63642800  1
  C  C1  1  0.87687200  0.81903100  0.86357200  1
  C  C2  1  0.12312800  0.18096900  0.13642800  1
  C  C3  1  0.62312800  0.81903100  0.36357200  1
  O  O0  1  0.38060000  0.41376800  0.58366200  1
  O  O1  1  0.37241700  0.13643600  0.73365400  1
  O  O2  1  0.87745500  0.99491200  0.90598100  1
  O  O3  1  0.11940000  0.41376800  0.08366200  1
  O  O4  1  0.37745500  0.00508800  0.59401900  1
  O  O5  1  0.87241700  0.86356400  0.76634600  1
  O  O6  1  0.12758300  0.13643600  0.23365400  1
  O  O7  1  0.62254500  0.99491200  0.40598100  1
  O  O8  1  0.88060000  0.58623200  0.91633800  1
  O  O9  1  0.12254500  0.00508800  0.09401900  1
  O  O10  1  0.62758300  0.86356400  0.26634600  1
  O  O11  1  0.61940000  0.58623200  0.41633800  1
  F  F0  1  0.95153700  0.65538300  0.27194400  1
  F  F1  1  0.27745200  0.67881400  0.26315500  1
  F  F2  1  0.12790700  0.48165300  0.43193100  1
  F  F3  1  0.62790700  0.51834700  0.06806900  1
  F  F4  1  0.51013900  0.92633600  0.91068700  1
  F  F5  1  0.71114700  0.11027400  0.57629400  1
  F  F6  1  0.77745200  0.32118600  0.23684500  1
  F  F7  1  0.45153700  0.34461700  0.22805600  1
  F  F8  1  0.21114700  0.88972600  0.92370600  1
  F  F9  1  0.01013900  0.07366400  0.58931300  1
  F  F10  1  0.98986100  0.92633600  0.41068700  1
  F  F11  1  0.78885300  0.11027400  0.07629400  1
  F  F12  1  0.54846300  0.65538300  0.77194400  1
  F  F13  1  0.22254800  0.67881400  0.76315500  1
  F  F14  1  0.28885300  0.88972600  0.42370600  1
  F  F15  1  0.48986100  0.07366400  0.08931300  1
  F  F16  1  0.37209300  0.48165300  0.93193100  1
  F  F17  1  0.87209300  0.51834700  0.56806900  1
  F  F18  1  0.72254800  0.32118600  0.73684500  1
  F  F19  1  0.04846300  0.34461700  0.72805600  1
loop_
_geom_bond_atom_site_label_1
_geom_bond_atom_site_label_2
_geom_bond_distance
_geom_bond_site_symmetry_2
Mn0 O5 1.917402 1_545
Mn1 O1 1.917402 1_565
Mn2 O10 1.917402 1_545
Mn3 O6 1.917402 1_565
C0 O4 1.286413 1_555
C0 O0 1.294780 1_555
C0 O1 1.307603 1_555
C1 O2 1.286413 1_555
C1 O8 1.294780 1_555
C1 O5 1.307603 1_555
C2 O9 1.286413 1_555
C2 O3 1.294780 1_555
C2 O6 1.307603 1_555
C3 O7 1.286413 1_555
C3 O11 1.294780 1_555
C3 O10 1.307603 1_555
O0 Sr4 2.633141 1_555
O0 Sr5 2.644494 1_555
O0 Sr3 2.774041 1_555
O2 Sr7 2.711303 1_665
O2 Sr0 2.721520 1_556
O2 Sr6 2.761876 1_565
O3 Sr0 2.633141 1_455
O3 Sr1 2.644494 1_555
O3 Sr7 2.774041 1_554
O4 Sr4 2.711303 1_545
O4 Sr3 2.721520 1_555
O4 Sr5 2.761876 1_545
O7 Sr3 2.711303 1_565
O7 Sr4 2.721520 1_555
O7 Sr2 2.761876 1_565
O8 Sr7 2.633141 1_655
O8 Sr6 2.644494 1_555
O8 Sr0 2.774041 1_556
O9 Sr0 2.711303 1_445
O9 Sr7 2.721520 1_554
O9 Sr1 2.761876 1_545
O11 Sr3 2.633141 1_555
O11 Sr2 2.644494 1_555
O11 Sr4 2.774041 1_555
F0 Mn3 2.062262 1_655
F0 Sr0 2.436352 1_555
F0 Sr2 2.494509 1_555
F1 Mn3 1.897788 1_555
F1 Sr1 2.553437 1_555
F1 Sr3 2.609453 1_555
F2 Mn3 1.975617 1_555
F2 Sr3 2.662171 1_555
F2 Sr2 2.695277 1_455
F2 Sr5 2.737211 1_555
F3 Mn2 1.975617 1_555
F3 Sr0 2.662171 1_555
F3 Sr1 2.695277 1_555
F3 Sr6 2.737211 1_554
F4 Mn1 1.934115 1_555
F4 Sr6 2.472228 1_565
F4 Sr1 2.795744 1_556
F5 Mn0 2.123431 1_555
F5 Sr4 2.441050 1_545
F5 Sr2 2.567148 1_555
F6 Mn2 1.897788 1_555
F6 Sr2 2.553437 1_555
F6 Sr0 2.609453 1_555
F7 Mn2 2.062262 1_555
F7 Sr3 2.436352 1_555
F7 Sr1 2.494509 1_555
F8 Mn1 2.123431 1_555
F8 Sr7 2.441050 1_565
F8 Sr1 2.567148 1_556
F9 Mn0 1.934115 1_455
F9 Sr5 2.472228 1_545
F9 Sr2 2.795744 1_455
F10 Mn3 1.934115 1_655
F10 Sr2 2.472228 1_565
F10 Sr5 2.795744 1_655
F11 Mn2 2.123431 1_555
F11 Sr0 2.441050 1_545
F11 Sr6 2.567148 1_554
F12 Mn1 2.062262 1_555
F12 Sr4 2.436352 1_555
F12 Sr6 2.494509 1_555
F13 Mn1 1.897788 1_555
F13 Sr5 2.553437 1_555
F13 Sr7 2.609453 1_555
F14 Mn3 2.123431 1_555
F14 Sr3 2.441050 1_565
F14 Sr5 2.567148 1_555
F15 Mn2 1.934115 1_555
F15 Sr1 2.472228 1_545
F15 Sr6 2.795744 1_554
F16 Mn1 1.975617 1_555
F16 Sr7 2.662171 1_555
F16 Sr6 2.695277 1_555
F16 Sr1 2.737211 1_556
F17 Mn0 1.975617 1_555
F17 Sr4 2.662171 1_555
F17 Sr5 2.695277 1_655
F17 Sr2 2.737211 1_555
F18 Mn0 1.897788 1_555
F18 Sr6 2.553437 1_555
F18 Sr4 2.609453 1_555
F19 Mn0 2.062262 1_455
F19 Sr7 2.436352 1_555
F19 Sr5 2.494509 1_555
