# generated using pymatgen
data_Fe6O5F7
_symmetry_space_group_name_H-M   'P 1'
_cell_length_a   4.76625200
_cell_length_b   5.66126114
_cell_length_c   7.88720742
_cell_angle_alpha   85.09557435
_cell_angle_beta   87.86098917
_cell_angle_gamma   87.21633699
_symmetry_Int_Tables_number   1
_chemical_formula_structural   Fe6O5F7
_chemical_formula_sum   'Fe6 O5 F7'
_cell_volume   211.67339774
_cell_formula_units_Z   1
loop_
 _symmetry_equiv_pos_site_id
 _symmetry_equiv_pos_as_xyz
  1  'x, y, z'
loop_
 _atom_site_type_symbol
 _atom_site_label
 _atom_site_symmetry_multiplicity
 _atom_site_fract_x
 _atom_site_fract_y
 _atom_site_fract_z
 _atom_site_occupancy
  Fe  Fe0  1  0.52195900  0.82521500  0.64752400  1
  Fe  Fe1  1  0.52606500  0.51828100  0.01072000  1
  Fe  Fe2  1  0.47250200  0.17154500  0.35076200  1
  Fe  Fe3  1  0.99989700  0.33476700  0.67415800  1
  Fe  Fe4  1  0.98755700  0.66456500  0.31519400  1
  Fe  Fe5  1  0.99168000  0.98894300  0.00094400  1
  O  O0  1  0.80710300  0.69650300  0.09988400  1
  O  O1  1  0.69760000  0.53277800  0.76690700  1
  O  O2  1  0.70221300  0.87602400  0.42753400  1
  O  O3  1  0.29463200  0.12756100  0.57600300  1
  O  O4  1  0.30558700  0.46310500  0.23346100  1
  F  F0  1  0.80682400  0.37033600  0.43815100  1
  F  F1  1  0.79458400  0.04044100  0.76197900  1
  F  F2  1  0.68592000  0.20398300  0.10851000  1
  F  F3  1  0.31541100  0.79709200  0.88761800  1
  F  F4  1  0.20665900  0.96242600  0.23659600  1
  F  F5  1  0.19161000  0.62614600  0.56284100  1
  F  F6  1  0.19219900  0.30028800  0.90121300  1
loop_
_geom_bond_atom_site_label_1
_geom_bond_atom_site_label_2
_geom_bond_distance
_geom_bond_site_symmetry_2
Fe0 O2 1.912808 1_555
Fe0 O1 1.996494 1_555
Fe0 O3 2.030357 1_565
Fe1 O0 1.905188 1_555
Fe1 O4 2.021996 1_555
Fe1 O1 2.057980 1_554
Fe2 O3 1.941441 1_555
Fe2 O4 1.969676 1_555
Fe2 O2 2.015621 1_545
Fe3 O1 1.942264 1_555
Fe3 O3 1.965408 1_655
Fe4 O0 1.922950 1_555
Fe4 O4 1.974559 1_655
Fe4 O2 2.000281 1_555
Fe5 O0 1.998290 1_555
F0 Fe4 2.063470 1_555
F0 Fe3 2.097166 1_555
F0 Fe2 2.160912 1_555
F1 Fe3 2.030820 1_555
F1 Fe0 2.101762 1_545
F1 Fe5 2.128719 1_546
F2 Fe1 2.004723 1_555
F2 Fe5 2.058549 1_545
F2 Fe2 2.128905 1_555
F3 Fe1 2.024597 1_556
F3 Fe5 2.063890 1_456
F3 Fe0 2.098811 1_555
F4 Fe2 2.056940 1_565
F4 Fe4 2.064541 1_455
F4 Fe5 2.146270 1_455
F5 Fe3 2.041019 1_455
F5 Fe0 2.138900 1_555
F5 Fe4 2.203854 1_455
F6 Fe3 2.032396 1_455
F6 Fe5 2.123525 1_446
F6 Fe1 2.297135 1_556
