# generated using pymatgen
data_Li2CoNi3O8
_symmetry_space_group_name_H-M   'P 1'
_cell_length_a   5.68607381
_cell_length_b   5.68607381
_cell_length_c   5.68607352
_cell_angle_alpha   60.39760174
_cell_angle_beta   60.39760174
_cell_angle_gamma   60.39760887
_symmetry_Int_Tables_number   1
_chemical_formula_structural   Li2CoNi3O8
_chemical_formula_sum   'Li2 Co1 Ni3 O8'
_cell_volume   131.16262387
_cell_formula_units_Z   1
loop_
 _symmetry_equiv_pos_site_id
 _symmetry_equiv_pos_as_xyz
  1  'x, y, z'
loop_
 _atom_site_type_symbol
 _atom_site_label
 _atom_site_symmetry_multiplicity
 _atom_site_fract_x
 _atom_site_fract_y
 _atom_site_fract_z
 _atom_site_occupancy
  Li  Li0  1  0.87550000  0.87550000  0.87550000  1
  Li  Li1  1  0.12450000  0.12450000  0.12450000  1
  Co  Co0  1  0.50000000  0.50000000  0.50000000  1
  Ni  Ni0  1  0.50000000  0.00000000  0.50000000  1
  Ni  Ni1  1  0.00000000  0.50000000  0.50000000  1
  Ni  Ni2  1  0.50000000  0.50000000  0.00000000  1
  O  O0  1  0.28982500  0.73535300  0.73535300  1
  O  O1  1  0.73535300  0.28982500  0.73535300  1
  O  O2  1  0.26254400  0.26254400  0.26254400  1
  O  O3  1  0.73535300  0.73535300  0.28982500  1
  O  O4  1  0.26464700  0.26464700  0.71017500  1
  O  O5  1  0.73745600  0.73745600  0.73745600  1
  O  O6  1  0.26464700  0.71017500  0.26464700  1
  O  O7  1  0.71017500  0.26464700  0.26464700  1
loop_
_geom_bond_atom_site_label_1
_geom_bond_atom_site_label_2
_geom_bond_distance
_geom_bond_site_symmetry_2
Li0 O5 1.916876 1_555
Li0 O3 1.933416 1_556
Li0 O0 1.933416 1_655
Li0 O1 1.933416 1_565
Li1 O2 1.916876 1_555
Li1 O4 1.933416 1_554
Li1 O6 1.933416 1_545
Li1 O7 1.933416 1_455
Co0 O4 1.902418 1_555
Co0 O3 1.902418 1_555
Co0 O7 1.902418 1_555
Co0 O6 1.902418 1_555
Co0 O1 1.902418 1_555
Co0 O0 1.902418 1_555
Ni0 O0 1.921102 1_545
Ni0 O7 1.921102 1_555
Ni0 O3 1.921102 1_545
Ni0 O4 1.921102 1_555
Ni0 O5 1.921714 1_545
Ni0 O2 1.921714 1_555
Ni1 O1 1.921102 1_455
Ni1 O6 1.921102 1_555
Ni1 O3 1.921102 1_455
Ni1 O4 1.921102 1_555
Ni1 O5 1.921714 1_455
Ni1 O2 1.921714 1_555
Ni2 O0 1.921102 1_554
Ni2 O1 1.921102 1_554
Ni2 O7 1.921102 1_555
Ni2 O6 1.921102 1_555
Ni2 O2 1.921714 1_555
Ni2 O5 1.921714 1_554
