# generated using pymatgen
data_Sb
_symmetry_space_group_name_H-M   'P 1'
_cell_length_a   7.48248926
_cell_length_b   6.48241793
_cell_length_c   6.48079130
_cell_angle_alpha   70.55571466
_cell_angle_beta   54.77456367
_cell_angle_gamma   54.75054692
_symmetry_Int_Tables_number   1
_chemical_formula_structural   Sb
_chemical_formula_sum   Sb8
_cell_volume   209.70489692
_cell_formula_units_Z   8
loop_
 _symmetry_equiv_pos_site_id
 _symmetry_equiv_pos_as_xyz
  1  'x, y, z'
loop_
 _atom_site_type_symbol
 _atom_site_label
 _atom_site_symmetry_multiplicity
 _atom_site_fract_x
 _atom_site_fract_y
 _atom_site_fract_z
 _atom_site_occupancy
  Sb  Sb0_0  1  0.00878750  0.49912700  0.00101650  1
  Sb  Sb0_1  1  0.00878750  0.49912700  0.50101650  1
  Sb  Sb0_2  1  0.00878750  0.99912700  0.00101650  1
  Sb  Sb0_3  1  0.00878750  0.99912700  0.50101650  1
  Sb  Sb0_4  1  0.50878750  0.49912700  0.00101650  1
  Sb  Sb0_5  1  0.50878750  0.49912700  0.50101650  1
  Sb  Sb0_6  1  0.50878750  0.99912700  0.00101650  1
  Sb  Sb0_7  1  0.50878750  0.99912700  0.50101650  1
loop_
_geom_bond_atom_site_label_1
_geom_bond_atom_site_label_2
_geom_bond_distance
_geom_bond_site_symmetry_2
Sb0_0 Sb0_1 3.240396 1_554
Sb0_0 Sb0_1 3.240396 1_555
Sb0_0 Sb0_6 3.241208 1_455
Sb0_0 Sb0_6 3.241208 1_545
Sb0_0 Sb0_2 3.241209 1_545
Sb0_0 Sb0_2 3.241209 1_555
Sb0_0 Sb0_5 3.242217 1_455
Sb0_0 Sb0_5 3.242217 1_554
Sb0_1 Sb0_7 3.241208 1_545
Sb0_1 Sb0_7 3.241208 1_455
Sb0_1 Sb0_3 3.241209 1_555
Sb0_1 Sb0_3 3.241209 1_545
Sb0_1 Sb0_4 3.242217 1_456
Sb0_1 Sb0_4 3.242217 1_555
Sb0_2 Sb0_3 3.240396 1_554
Sb0_2 Sb0_3 3.240396 1_555
Sb0_2 Sb0_4 3.241208 1_465
Sb0_2 Sb0_4 3.241208 1_555
Sb0_2 Sb0_7 3.242217 1_554
Sb0_2 Sb0_7 3.242217 1_455
Sb0_3 Sb0_5 3.241208 1_465
Sb0_3 Sb0_5 3.241208 1_555
Sb0_3 Sb0_6 3.242217 1_456
Sb0_3 Sb0_6 3.242217 1_555
Sb0_4 Sb0_5 3.240396 1_555
Sb0_4 Sb0_5 3.240396 1_554
Sb0_4 Sb0_6 3.241209 1_545
Sb0_4 Sb0_6 3.241209 1_555
Sb0_5 Sb0_7 3.241209 1_555
Sb0_5 Sb0_7 3.241209 1_545
Sb0_6 Sb0_7 3.240396 1_555
Sb0_6 Sb0_7 3.240396 1_554
