# generated using pymatgen
data_Ti2N2O
_symmetry_space_group_name_H-M   'P 1'
_cell_length_a   8.20589300
_cell_length_b   8.22944747
_cell_length_c   8.23157654
_cell_angle_alpha   109.52269117
_cell_angle_beta   109.45229359
_cell_angle_gamma   109.34808331
_symmetry_Int_Tables_number   1
_chemical_formula_structural   Ti2N2O
_chemical_formula_sum   'Ti16 N16 O8'
_cell_volume   428.39215145
_cell_formula_units_Z   8
loop_
 _symmetry_equiv_pos_site_id
 _symmetry_equiv_pos_as_xyz
  1  'x, y, z'
loop_
 _atom_site_type_symbol
 _atom_site_label
 _atom_site_symmetry_multiplicity
 _atom_site_fract_x
 _atom_site_fract_y
 _atom_site_fract_z
 _atom_site_occupancy
  Ti  Ti0  1  0.30224200  0.05647400  0.26835000  1
  Ti  Ti1  1  0.49722800  0.50285200  0.50059800  1
  Ti  Ti2  1  0.25362800  0.21180100  0.96750300  1
  Ti  Ti3  1  0.76407700  0.29947200  0.55275400  1
  Ti  Ti4  1  0.53534100  0.23992200  0.78748300  1
  Ti  Ti5  1  0.03620800  0.24931500  0.29007300  1
  Ti  Ti6  1  0.50802200  0.00209100  0.98872600  1
  Ti  Ti7  1  0.98574700  0.98501100  0.49796600  1
  Ti  Ti8  1  0.01737300  0.51175700  0.01434300  1
  Ti  Ti9  1  0.79023400  0.54048400  0.24497900  1
  Ti  Ti10  1  0.20344700  0.46184900  0.75576900  1
  Ti  Ti11  1  0.45673400  0.74647900  0.20373700  1
  Ti  Ti12  1  0.96297000  0.75412100  0.71029200  1
  Ti  Ti13  1  0.24781900  0.71083600  0.45044900  1
  Ti  Ti14  1  0.73793900  0.79197400  0.03318900  1
  Ti  Ti15  1  0.70973700  0.94552400  0.74392500  1
  N  N0  1  0.49029500  0.26354500  0.53993800  1
  N  N1  1  0.73279600  0.72088500  0.77393000  1
  N  N2  1  0.94909300  0.22657400  0.49017100  1
  N  N3  1  0.00848500  0.54934800  0.77462700  1
  N  N4  1  0.53972400  0.27530800  0.05032900  1
  N  N5  1  0.22307800  0.77647700  0.23299300  1
  N  N6  1  0.45835500  0.72453200  0.94668700  1
  N  N7  1  0.95959900  0.01158500  0.73463800  1
  N  N8  1  0.77464200  0.04808800  0.04254900  1
  N  N9  1  0.99339400  0.45049200  0.22510500  1
  N  N10  1  0.04819300  0.77373200  0.51156200  1
  N  N11  1  0.23446300  0.45965700  0.00841500  1
  N  N12  1  0.45051600  0.96330300  0.72410900  1
  N  N13  1  0.26487500  0.27309200  0.22503800  1
  N  N14  1  0.50818300  0.73023500  0.45757700  1
  N  N15  1  0.72660200  0.76443300  0.27262100  1
  O  O0  1  0.27646200  0.23424100  0.72501400  1
  O  O1  1  0.54439600  0.04036300  0.27189000  1
  O  O2  1  0.76457800  0.53697700  0.99040600  1
  O  O3  1  0.22371300  0.94879400  0.95766700  1
  O  O4  1  0.04428700  0.99302000  0.26886800  1
  O  O5  1  0.77263900  0.22702900  0.76383200  1
  O  O6  1  0.27699400  0.50770100  0.55109000  1
  O  O7  1  0.72589500  0.49062400  0.45081300  1
loop_
_geom_bond_atom_site_label_1
_geom_bond_atom_site_label_2
_geom_bond_distance
_geom_bond_site_symmetry_2
N0 Ti0 1.922676 1_555
N0 Ti4 2.034034 1_555
N0 Ti1 2.085850 1_555
N0 Ti3 2.127683 1_555
N1 Ti14 1.996913 1_556
N1 Ti15 2.005033 1_555
N1 Ti1 2.031054 1_555
N1 Ti12 2.080666 1_555
N2 Ti3 1.961671 1_555
N2 Ti5 2.039772 1_655
N2 Ti10 2.082981 1_655
N2 Ti7 2.124863 1_545
N3 Ti3 1.975857 1_455
N3 Ti10 1.988995 1_555
N3 Ti12 2.035071 1_455
N3 Ti8 2.078889 1_556
N4 Ti9 2.012970 1_555
N4 Ti2 2.032809 1_554
N4 Ti6 2.035378 1_554
N4 Ti4 2.070637 1_554
N5 Ti8 1.937486 1_555
N5 Ti13 2.003504 1_555
N5 Ti0 2.061591 1_565
N5 Ti11 2.092041 1_555
N6 Ti14 1.970447 1_556
N6 Ti10 2.015439 1_555
N6 Ti6 2.064983 1_565
N6 Ti11 2.067574 1_556
N7 Ti15 1.974558 1_545
N7 Ti7 1.978394 1_545
N7 Ti12 2.070969 1_545
N7 Ti2 2.094063 1_655
N8 Ti6 1.954439 1_554
N8 Ti5 1.994398 1_655
N8 Ti14 1.998583 1_545
N8 Ti15 2.117071 1_544
N9 Ti5 2.000596 1_655
N9 Ti8 2.012226 1_655
N9 Ti13 2.047049 1_655
N9 Ti9 2.067182 1_555
N10 Ti7 1.995103 1_455
N10 Ti12 2.013648 1_455
N10 Ti13 2.034952 1_555
N10 Ti9 2.092674 1_455
N11 Ti8 1.977289 1_555
N11 Ti10 2.016364 1_554
N11 Ti2 2.021711 1_554
N11 Ti11 2.034914 1_555
N12 Ti6 1.954499 1_565
N12 Ti4 1.962970 1_565
N12 Ti13 2.060147 1_555
N12 Ti15 2.136308 1_555
N13 Ti2 1.970069 1_554
N13 Ti0 2.028084 1_555
N13 Ti1 2.054207 1_555
N13 Ti5 2.083650 1_555
N14 Ti1 1.996911 1_555
N14 Ti15 2.025095 1_555
N14 Ti11 2.049064 1_555
N14 Ti13 2.068304 1_555
N15 Ti7 1.955113 1_555
N15 Ti11 2.034270 1_555
N15 Ti9 2.038993 1_555
N15 Ti14 2.085950 1_555
O0 Ti4 1.992475 1_555
O0 Ti10 2.111695 1_555
O0 Ti2 2.127449 1_555
O0 Ti7 2.148722 1_445
O1 Ti0 2.026213 1_555
O1 Ti11 2.086373 1_545
O1 Ti3 2.126920 1_555
O1 Ti6 2.145922 1_554
O2 Ti9 2.024387 1_556
O2 Ti8 2.103674 1_656
O2 Ti4 2.106114 1_555
O2 Ti14 2.106357 1_556
O3 Ti12 1.984316 1_455
O3 Ti2 2.066164 1_565
O3 Ti6 2.133171 1_565
O3 Ti0 2.179491 1_566
O4 Ti0 2.007092 1_565
O4 Ti5 2.082725 1_565
O4 Ti7 2.111150 1_455
O4 Ti14 2.161265 1_455
O5 Ti3 2.004504 1_555
O5 Ti4 2.053412 1_555
O5 Ti15 2.134870 1_545
O5 Ti8 2.161034 1_656
O6 Ti1 1.994331 1_555
O6 Ti10 2.072809 1_555
O6 Ti5 2.092105 1_555
O6 Ti13 2.144027 1_555
O7 Ti9 2.057864 1_555
O7 Ti1 2.075749 1_555
O7 Ti3 2.076199 1_555
O7 Ti12 2.095354 1_555
