# generated using pymatgen
data_Li3Fe8(BO3)8
_symmetry_space_group_name_H-M   'P 1'
_cell_length_a   5.23599100
_cell_length_b   9.12560777
_cell_length_c   11.41365001
_cell_angle_alpha   113.25926687
_cell_angle_beta   103.00237196
_cell_angle_gamma   89.56189586
_symmetry_Int_Tables_number   1
_chemical_formula_structural   Li3Fe8(BO3)8
_chemical_formula_sum   'Li3 Fe8 B8 O24'
_cell_volume   486.18048326
_cell_formula_units_Z   1
loop_
 _symmetry_equiv_pos_site_id
 _symmetry_equiv_pos_as_xyz
  1  'x, y, z'
loop_
 _atom_site_type_symbol
 _atom_site_label
 _atom_site_symmetry_multiplicity
 _atom_site_fract_x
 _atom_site_fract_y
 _atom_site_fract_z
 _atom_site_occupancy
  Li  Li0  1  0.02967000  0.03110700  0.39555700  1
  Li  Li1  1  0.98456700  0.00657400  0.66141400  1
  Li  Li2  1  0.75346700  0.74085300  0.14717400  1
  Fe  Fe0  1  0.01804100  0.35625900  0.37233800  1
  Fe  Fe1  1  0.27346300  0.93465600  0.88614300  1
  Fe  Fe2  1  0.47081000  0.16302400  0.62946900  1
  Fe  Fe3  1  0.23426800  0.56031100  0.13094600  1
  Fe  Fe4  1  0.76483700  0.43676400  0.87311800  1
  Fe  Fe5  1  0.51771700  0.84673200  0.38649500  1
  Fe  Fe6  1  0.98060800  0.64653500  0.62857200  1
  Fe  Fe7  1  0.74570000  0.06825400  0.12763600  1
  B  B0  1  0.03190500  0.68829100  0.37750700  1
  B  B1  1  0.26906300  0.60703800  0.88136900  1
  B  B2  1  0.48968700  0.82050200  0.63436800  1
  B  B3  1  0.23526800  0.88542200  0.12896000  1
  B  B4  1  0.51511800  0.18438700  0.37539800  1
  B  B5  1  0.76369800  0.10372400  0.87394100  1
  B  B6  1  0.96491600  0.31064200  0.62028900  1
  B  B7  1  0.73036000  0.40297100  0.13037300  1
  O  O0  1  0.01083300  0.06875400  0.85289600  1
  O  O1  1  0.13394300  0.70701000  0.82597500  1
  O  O2  1  0.13105200  0.52388700  0.93117700  1
  O  O3  1  0.08081300  0.16950000  0.60218100  1
  O  O4  1  0.05013100  0.41942800  0.57494100  1
  O  O5  1  0.24175400  0.83714900  0.66893700  1
  O  O6  1  0.25397800  0.65246000  0.32565600  1
  O  O7  1  0.53029000  0.59578900  0.89028600  1
  O  O8  1  0.63864000  0.22346100  0.84300700  1
  O  O9  1  0.42933900  0.07261500  0.41741500  1
  O  O10  1  0.36201200  0.30193700  0.36596800  1
  O  O11  1  0.63430500  0.01649400  0.92236500  1
  O  O12  1  0.34699700  0.97382900  0.07423800  1
  O  O13  1  0.63550300  0.69738000  0.63807000  1
  O  O14  1  0.58179400  0.93353200  0.59652000  1
  O  O15  1  0.39314600  0.77573200  0.16449300  1
  O  O16  1  0.46921900  0.40641400  0.12382400  1
  O  O17  1  0.75803600  0.34721800  0.68142800  1
  O  O18  1  0.76417100  0.17177700  0.34421900  1
  O  O19  1  0.95300800  0.58673300  0.43193500  1
  O  O20  1  0.89875700  0.81438500  0.37111800  1
  O  O21  1  0.85245700  0.50455800  0.08743600  1
  O  O22  1  0.88071500  0.30557000  0.18005900  1
  O  O23  1  0.98550200  0.90115000  0.14619200  1
loop_
_geom_bond_atom_site_label_1
_geom_bond_atom_site_label_2
_geom_bond_distance
_geom_bond_site_symmetry_2
Li0 O20 1.989482 1_445
Li0 O18 2.030759 1_455
Li0 O9 2.070633 1_555
Li0 O3 2.144091 1_555
Li0 O23 2.569587 1_445
Li1 O3 1.969830 1_655
Li1 O0 2.000962 1_655
Li1 O5 2.057232 1_645
Li1 O14 2.090243 1_545
Li2 O23 1.913700 1_555
Li2 O15 1.951596 1_555
Li2 O21 2.089035 1_555
Li2 O20 2.310943 1_555
Fe0 O10 1.873909 1_555
Fe0 O19 1.991364 1_455
Fe0 O22 2.010108 1_455
Fe0 O18 2.029698 1_455
Fe0 O4 2.117016 1_555
Fe1 O0 1.907534 1_565
Fe1 O11 1.929924 1_565
Fe1 O12 1.977128 1_556
Fe1 O1 1.997906 1_555
Fe1 O5 2.245029 1_555
Fe2 O3 1.999212 1_555
Fe2 O17 2.070956 1_555
Fe2 O14 2.079116 1_545
Fe2 O9 2.185157 1_555
Fe2 O8 2.235755 1_555
Fe3 O16 1.849532 1_555
Fe3 O21 1.967581 1_455
Fe3 O15 1.997597 1_555
Fe3 O6 2.019605 1_555
Fe3 O2 2.109757 1_554
Fe4 O7 1.873237 1_555
Fe4 O8 1.932046 1_555
Fe4 O2 1.945114 1_655
Fe4 O17 2.002303 1_555
Fe4 O21 2.209301 1_556
Fe5 O9 2.017940 1_565
Fe5 O6 2.041038 1_555
Fe5 O20 2.050876 1_555
Fe5 O14 2.151477 1_555
Fe5 O15 2.287313 1_555
Fe6 O13 1.878235 1_555
Fe6 O4 1.972109 1_655
Fe6 O5 2.056125 1_655
Fe6 O1 2.058232 1_655
Fe6 O19 2.060029 1_555
Fe7 O23 2.013186 1_545
Fe7 O22 2.087462 1_555
Fe7 O12 2.124209 1_545
Fe7 O11 2.137225 1_554
Fe7 O18 2.249898 1_555
B0 O20 1.358879 1_455
B0 O6 1.400071 1_555
B0 O19 1.411216 1_455
B1 O7 1.354691 1_555
B1 O2 1.398243 1_555
B1 O1 1.406050 1_555
B2 O13 1.362702 1_555
B2 O14 1.391540 1_555
B2 O5 1.429735 1_555
B3 O23 1.363865 1_455
B3 O12 1.397430 1_555
B3 O15 1.416655 1_555
B4 O10 1.358003 1_555
B4 O9 1.400835 1_555
B4 O18 1.419361 1_555
B5 O0 1.380931 1_655
B5 O11 1.386490 1_555
B5 O8 1.391789 1_555
B6 O3 1.379916 1_655
B6 O17 1.386501 1_555
B6 O4 1.403215 1_655
B7 O16 1.353284 1_555
B7 O22 1.384890 1_555
B7 O21 1.420258 1_555
