# generated using pymatgen
data_Li2Cr5B3O13
_symmetry_space_group_name_H-M   'P 1'
_cell_length_a   3.10342000
_cell_length_b   9.51532500
_cell_length_c   15.83720182
_cell_angle_alpha   74.31168282
_cell_angle_beta   90.00000000
_cell_angle_gamma   90.00000000
_symmetry_Int_Tables_number   1
_chemical_formula_structural   Li2Cr5B3O13
_chemical_formula_sum   'Li4 Cr10 B6 O26'
_cell_volume   450.25107902
_cell_formula_units_Z   2
loop_
 _symmetry_equiv_pos_site_id
 _symmetry_equiv_pos_as_xyz
  1  'x, y, z'
loop_
 _atom_site_type_symbol
 _atom_site_label
 _atom_site_symmetry_multiplicity
 _atom_site_fract_x
 _atom_site_fract_y
 _atom_site_fract_z
 _atom_site_occupancy
  Li  Li0  1  0.25000000  0.51782700  0.76183900  1
  Li  Li1  1  0.75000000  0.43508800  0.94924200  1
  Li  Li2  1  0.25000000  0.56491200  0.05075800  1
  Li  Li3  1  0.75000000  0.48217300  0.23816100  1
  Cr  Cr0  1  0.25000000  0.14859400  0.98541800  1
  Cr  Cr1  1  0.25000000  0.66596300  0.37740500  1
  Cr  Cr2  1  0.75000000  0.02145500  0.18309200  1
  Cr  Cr3  1  0.75000000  0.89449300  0.45453800  1
  Cr  Cr4  1  0.75000000  0.80474600  0.68685300  1
  Cr  Cr5  1  0.25000000  0.19525400  0.31314700  1
  Cr  Cr6  1  0.25000000  0.10550700  0.54546200  1
  Cr  Cr7  1  0.25000000  0.97854500  0.81690800  1
  Cr  Cr8  1  0.75000000  0.33403700  0.62259500  1
  Cr  Cr9  1  0.75000000  0.85140600  0.01458200  1
  B  B0  1  0.75000000  0.25341200  0.81269200  1
  B  B1  1  0.25000000  0.63011700  0.57836500  1
  B  B2  1  0.75000000  0.69666200  0.88099500  1
  B  B3  1  0.25000000  0.30333800  0.11900500  1
  B  B4  1  0.75000000  0.36988300  0.42163500  1
  B  B5  1  0.25000000  0.74658800  0.18730800  1
  O  O0  1  0.75000000  0.25918000  0.90218500  1
  O  O1  1  0.25000000  0.48518000  0.58403800  1
  O  O2  1  0.75000000  0.37641900  0.74503000  1
  O  O3  1  0.25000000  0.88154800  0.20295300  1
  O  O4  1  0.75000000  0.79932400  0.35792600  1
  O  O5  1  0.25000000  0.73415800  0.49571300  1
  O  O6  1  0.25000000  0.68101800  0.65250500  1
  O  O7  1  0.75000000  0.03343200  0.05349000  1
  O  O8  1  0.75000000  0.61954800  0.82009400  1
  O  O9  1  0.75000000  0.64331300  0.97216700  1
  O  O10  1  0.25000000  0.15272000  0.14646300  1
  O  O11  1  0.75000000  0.09166200  0.28714400  1
  O  O12  1  0.75000000  0.96158800  0.56971600  1
  O  O13  1  0.25000000  0.03841200  0.43028400  1
  O  O14  1  0.25000000  0.90833800  0.71285600  1
  O  O15  1  0.75000000  0.84728000  0.85353700  1
  O  O16  1  0.25000000  0.35668700  0.02783300  1
  O  O17  1  0.25000000  0.38045200  0.17990600  1
  O  O18  1  0.25000000  0.96656800  0.94651000  1
  O  O19  1  0.75000000  0.31898200  0.34749500  1
  O  O20  1  0.75000000  0.26584200  0.50428700  1
  O  O21  1  0.25000000  0.20067600  0.64207400  1
  O  O22  1  0.75000000  0.11845200  0.79704700  1
  O  O23  1  0.25000000  0.62358100  0.25497000  1
  O  O24  1  0.75000000  0.51482000  0.41596200  1
  O  O25  1  0.25000000  0.74082000  0.09781500  1
loop_
_geom_bond_atom_site_label_1
_geom_bond_atom_site_label_2
_geom_bond_distance
_geom_bond_site_symmetry_2
Li0 O6 1.988812 1_555
Li0 O2 2.117279 1_455
Li0 O2 2.117279 1_555
Li0 O8 2.163046 1_455
Li0 O8 2.163046 1_555
Li1 O16 2.002838 1_656
Li1 O16 2.002838 1_556
Li1 O0 2.007908 1_555
Li1 O9 2.108676 1_555
Li1 O8 2.307088 1_555
Li2 O9 2.002838 1_554
Li2 O9 2.002838 1_454
Li2 O25 2.007908 1_555
Li2 O16 2.108676 1_555
Li2 O17 2.307088 1_555
Li3 O19 1.988812 1_555
Li3 O23 2.117279 1_555
Li3 O23 2.117279 1_655
Li3 O17 2.163046 1_555
Li3 O17 2.163046 1_655
Cr0 O18 1.989179 1_545
Cr0 O7 2.032717 1_456
Cr0 O7 2.032717 1_556
Cr0 O0 2.121913 1_555
Cr0 O0 2.121913 1_455
Cr0 O16 2.256377 1_556
Cr0 O10 2.561397 1_556
Cr1 O4 1.975235 1_555
Cr1 O4 1.975235 1_455
Cr1 O23 2.084552 1_555
Cr1 O24 2.091432 1_455
Cr1 O24 2.091432 1_555
Cr1 O5 2.142247 1_555
Cr2 O11 1.938346 1_555
Cr2 O10 1.978015 1_555
Cr2 O10 1.978015 1_655
Cr2 O3 2.013092 1_545
Cr2 O3 2.013092 1_645
Cr2 O7 2.024691 1_555
Cr3 O4 1.977491 1_555
Cr3 O13 2.036229 1_565
Cr3 O13 2.036229 1_665
Cr3 O12 2.089193 1_555
Cr3 O5 2.150018 1_655
Cr3 O5 2.150018 1_555
Cr4 O14 1.941276 1_555
Cr4 O14 1.941276 1_655
Cr4 O12 2.042417 1_555
Cr4 O6 2.106212 1_655
Cr4 O6 2.106212 1_555
Cr4 O8 2.355244 1_555
Cr5 O11 1.941276 1_455
Cr5 O11 1.941276 1_555
Cr5 O13 2.042417 1_555
Cr5 O19 2.106212 1_455
Cr5 O19 2.106212 1_555
Cr5 O17 2.355244 1_555
Cr6 O21 1.977491 1_555
Cr6 O12 2.036229 1_545
Cr6 O12 2.036229 1_445
Cr6 O13 2.089193 1_555
Cr6 O20 2.150018 1_455
Cr6 O20 2.150018 1_555
Cr7 O14 1.938346 1_555
Cr7 O15 1.978015 1_555
Cr7 O15 1.978015 1_455
Cr7 O22 2.013092 1_465
Cr7 O22 2.013092 1_565
Cr7 O18 2.024691 1_555
Cr8 O21 1.975235 1_555
Cr8 O21 1.975235 1_655
Cr8 O2 2.084552 1_555
Cr8 O1 2.091432 1_555
Cr8 O1 2.091432 1_655
Cr8 O20 2.142247 1_555
Cr9 O7 1.989179 1_565
Cr9 O18 2.032717 1_654
Cr9 O18 2.032717 1_554
Cr9 O25 2.121913 1_555
Cr9 O25 2.121913 1_655
Cr9 O9 2.256377 1_554
Cr9 O15 2.561397 1_554
B0 O2 1.356443 1_555
B0 O22 1.372082 1_555
B0 O0 1.433134 1_555
B1 O1 1.357587 1_555
B1 O6 1.385935 1_555
B1 O5 1.411621 1_555
B2 O8 1.360666 1_555
B2 O15 1.380600 1_555
B2 O9 1.395051 1_555
B3 O17 1.360666 1_555
B3 O10 1.380600 1_555
B3 O16 1.395051 1_555
B4 O24 1.357587 1_555
B4 O19 1.385935 1_555
B4 O20 1.411621 1_555
B5 O23 1.356443 1_555
B5 O3 1.372082 1_555
B5 O25 1.433134 1_555
