# generated using pymatgen
data_Li2MnVO4
_symmetry_space_group_name_H-M   'P 1'
_cell_length_a   5.85647408
_cell_length_b   6.04219108
_cell_length_c   5.85629654
_cell_angle_alpha   61.54245044
_cell_angle_beta   90.31458798
_cell_angle_gamma   61.53070974
_symmetry_Int_Tables_number   1
_chemical_formula_structural   Li2MnVO4
_chemical_formula_sum   'Li4 Mn2 V2 O8'
_cell_volume   152.73115195
_cell_formula_units_Z   2
loop_
 _symmetry_equiv_pos_site_id
 _symmetry_equiv_pos_as_xyz
  1  'x, y, z'
loop_
 _atom_site_type_symbol
 _atom_site_label
 _atom_site_symmetry_multiplicity
 _atom_site_fract_x
 _atom_site_fract_y
 _atom_site_fract_z
 _atom_site_occupancy
  Li  Li0  1  0.50001700  0.00001800  0.99997100  1
  Li  Li1  1  0.00000500  0.49996100  0.50001900  1
  Li  Li2  1  0.50006200  0.49996500  0.50006800  1
  Li  Li3  1  0.50001500  0.99996800  0.50005200  1
  Mn  Mn0  1  0.00011900  0.99983700  0.50020500  1
  Mn  Mn1  1  0.50004200  0.50009900  0.99989400  1
  V  V0  1  0.99993900  0.00011400  0.99975700  1
  V  V1  1  0.99988200  0.50006000  0.99991000  1
  O  O0  1  0.77481300  0.98843200  0.26175700  1
  O  O1  1  0.73820900  0.51156700  0.22519800  1
  O  O2  1  0.26181800  0.48845000  0.77494100  1
  O  O3  1  0.22510500  0.01154200  0.73810300  1
  O  O4  1  0.22451400  0.02027300  0.24679300  1
  O  O5  1  0.75314300  0.47964900  0.77571200  1
  O  O6  1  0.24671300  0.52036900  0.22453700  1
  O  O7  1  0.77560400  0.97969500  0.75308400  1
loop_
_geom_bond_atom_site_label_1
_geom_bond_atom_site_label_2
_geom_bond_distance
_geom_bond_site_symmetry_2
Li0 O0 2.169899 1_546
Li0 O3 2.170967 1_555
Li0 O4 2.171080 1_556
Li0 O7 2.171708 1_545
Li0 O2 2.177308 1_555
Li0 O1 2.177345 1_546
Li1 O1 2.169963 1_455
Li1 O6 2.170571 1_555
Li1 O2 2.170836 1_555
Li1 O5 2.172078 1_455
Li1 O3 2.177253 1_555
Li1 O0 2.177460 1_455
Li2 O5 2.104545 1_555
Li2 O6 2.104773 1_555
Li2 O1 2.133455 1_555
Li2 O2 2.133859 1_555
Li2 O7 2.319482 1_545
Li2 O4 2.319633 1_565
Li3 O7 2.104287 1_555
Li3 O4 2.104678 1_565
Li3 O3 2.133243 1_565
Li3 O0 2.133722 1_555
Li3 O5 2.319750 1_555
Li3 O6 2.320056 1_565
Mn0 O3 1.960799 1_565
Mn0 O0 1.963157 1_455
Mn0 O7 1.984699 1_455
Mn0 O4 1.986499 1_565
Mn0 O2 2.281509 1_555
Mn0 O1 2.283073 1_465
Mn1 O2 1.961818 1_555
Mn1 O1 1.962225 1_556
Mn1 O5 1.984293 1_555
Mn1 O6 1.987110 1_556
Mn1 O3 2.281807 1_565
Mn1 O0 2.282707 1_546
O0 V0 2.026137 1_564
O1 V1 2.025356 1_554
O2 V1 2.025238 1_455
O3 V0 2.024811 1_455
O4 V0 2.034059 1_454
O4 V1 2.138646 1_454
O5 V1 2.032380 1_555
O5 V0 2.137597 1_555
O6 V1 2.034027 1_454
O6 V0 2.138383 1_464
O7 V0 2.032661 1_565
O7 V1 2.138030 1_555
