# generated using pymatgen
data_Li2MnV(P2O7)2
_symmetry_space_group_name_H-M   'P 1'
_cell_length_a   4.86700300
_cell_length_b   8.34328137
_cell_length_c   20.10676132
_cell_angle_alpha   89.58161762
_cell_angle_beta   84.41791525
_cell_angle_gamma   89.77318637
_symmetry_Int_Tables_number   1
_chemical_formula_structural   Li2MnV(P2O7)2
_chemical_formula_sum   'Li6 Mn3 V3 P12 O42'
_cell_volume   812.57293400
_cell_formula_units_Z   3
loop_
 _symmetry_equiv_pos_site_id
 _symmetry_equiv_pos_as_xyz
  1  'x, y, z'
loop_
 _atom_site_type_symbol
 _atom_site_label
 _atom_site_symmetry_multiplicity
 _atom_site_fract_x
 _atom_site_fract_y
 _atom_site_fract_z
 _atom_site_occupancy
  Li  Li0  1  0.95329700  0.64147400  0.77564900  1
  Li  Li1  1  0.71512800  0.14048500  0.89089100  1
  Li  Li2  1  0.61938700  0.64033200  0.44201200  1
  Li  Li3  1  0.38265200  0.14027000  0.55779300  1
  Li  Li4  1  0.28555400  0.64163600  0.10935500  1
  Li  Li5  1  0.04745600  0.13976900  0.22447500  1
  Mn  Mn0  1  0.97116500  0.00161900  0.75589900  1
  Mn  Mn1  1  0.63860000  0.99892100  0.42417300  1
  Mn  Mn2  1  0.02834300  0.49918900  0.24280600  1
  V  V0  1  0.69459800  0.50258500  0.90949000  1
  V  V1  1  0.36189600  0.50033800  0.57531500  1
  V  V2  1  0.30454800  0.00194600  0.09053100  1
  P  P0  1  0.84976300  0.71224600  0.63769500  1
  P  P1  1  0.89267500  0.31887700  0.49380200  1
  P  P2  1  0.77466300  0.82048900  0.17278400  1
  P  P3  1  0.81335300  0.21726700  0.02883200  1
  P  P4  1  0.44022100  0.82316900  0.84006800  1
  P  P5  1  0.48100300  0.21634200  0.69626000  1
  P  P6  1  0.51615200  0.71063100  0.30348900  1
  P  P7  1  0.55932900  0.32123800  0.15978100  1
  P  P8  1  0.18528900  0.71759300  0.97125900  1
  P  P9  1  0.22429700  0.32032200  0.82794900  1
  P  P10  1  0.10597800  0.82166800  0.50746800  1
  P  P11  1  0.15054400  0.20964600  0.36346000  1
  O  O0  1  0.90206500  0.67595400  0.95052900  1
  O  O1  1  0.98579100  0.84655600  0.58434500  1
  O  O2  1  0.82601200  0.30502900  0.96193600  1
  O  O3  1  0.83146600  0.79465300  0.70508600  1
  O  O4  1  0.96353800  0.06132400  0.36403400  1
  O  O5  1  0.77229900  0.17457800  0.71432200  1
  O  O6  1  0.86141400  0.82481700  0.46401700  1
  O  O7  1  0.97163700  0.96341900  0.16148600  1
  O  O8  1  0.92050200  0.65859000  0.16470700  1
  O  O9  1  0.64013500  0.96456000  0.82651000  1
  O  O10  1  0.74807200  0.15818400  0.50247300  1
  O  O11  1  0.58695300  0.66052200  0.83507500  1
  O  O12  1  0.69502300  0.46268700  0.50481500  1
  O  O13  1  0.80487300  0.32367800  0.20285400  1
  O  O14  1  0.70545100  0.56131900  0.30304400  1
  O  O15  1  0.47452000  0.32701100  0.86885400  1
  O  O16  1  0.56885900  0.67273800  0.61491200  1
  O  O17  1  0.65439700  0.84185200  0.25042800  1
  O  O18  1  0.37285800  0.56897200  0.97168400  1
  O  O19  1  0.49394500  0.30532200  0.62955800  1
  O  O20  1  0.67784000  0.34868900  0.08273100  1
  O  O21  1  0.32007100  0.84894000  0.91692700  1
  O  O22  1  0.49879400  0.79342900  0.37068100  1
  O  O23  1  0.62771800  0.06910200  0.02837100  1
  O  O24  1  0.34367600  0.34368600  0.75019000  1
  O  O25  1  0.43909900  0.16928100  0.38344400  1
  O  O26  1  0.52503300  0.82658200  0.13153700  1
  O  O27  1  0.29712300  0.06688700  0.69490300  1
  O  O28  1  0.19540000  0.82612100  0.79663100  1
  O  O29  1  0.30707100  0.96241600  0.49404200  1
  O  O30  1  0.41280200  0.15927100  0.16500300  1
  O  O31  1  0.25281700  0.65883000  0.50150100  1
  O  O32  1  0.35731500  0.46267000  0.17341800  1
  O  O33  1  0.07993700  0.15924900  0.83544200  1
  O  O34  1  0.02658700  0.46421600  0.83906500  1
  O  O35  1  0.14320000  0.32518100  0.53484800  1
  O  O36  1  0.22831400  0.67014100  0.28326500  1
  O  O37  1  0.03928400  0.56438100  0.63697000  1
  O  O38  1  0.16821300  0.29274500  0.29562100  1
  O  O39  1  0.17398200  0.80481100  0.03778800  1
  O  O40  1  0.01248500  0.34064700  0.41607400  1
  O  O41  1  0.09753400  0.17617200  0.04964300  1
loop_
_geom_bond_atom_site_label_1
_geom_bond_atom_site_label_2
_geom_bond_distance
_geom_bond_site_symmetry_2
Li0 O34 1.999261 1_655
Li0 O28 2.015022 1_655
Li0 O3 2.032012 1_555
Li0 O11 2.053802 1_555
Li1 O33 2.008619 1_655
Li1 O15 2.016430 1_555
Li1 O9 2.021695 1_545
Li1 O2 2.097851 1_555
Li2 O12 1.996400 1_555
Li2 O6 2.019450 1_555
Li2 O22 2.040628 1_555
Li2 O31 2.054972 1_555
Li3 O35 2.007766 1_555
Li3 O10 2.009341 1_555
Li3 O29 2.025869 1_545
Li3 O19 2.111600 1_555
Li4 O8 2.007731 1_455
Li4 O26 2.015903 1_555
Li4 O32 2.016439 1_555
Li4 O39 2.082436 1_555
Li5 O13 2.003271 1_455
Li5 O7 2.006856 1_445
Li5 O30 2.050357 1_555
Li5 O38 2.053523 1_555
Mn0 O5 1.961319 1_555
Mn0 O27 1.983942 1_655
Mn0 O28 2.037027 1_645
Mn0 O9 2.063872 1_545
Mn0 O3 2.158259 1_545
Mn0 O33 2.183748 1_655
Mn1 O25 1.939192 1_565
Mn1 O4 1.964585 1_565
Mn1 O6 2.016782 1_555
Mn1 O29 2.055856 1_555
Mn1 O10 2.174275 1_565
Mn1 O22 2.176644 1_555
Mn2 O36 1.955841 1_555
Mn2 O14 1.959025 1_455
Mn2 O32 2.042216 1_555
Mn2 O13 2.042617 1_455
Mn2 O8 2.152766 1_455
Mn2 O38 2.159283 1_555
O0 P8 1.520604 1_655
O0 V0 1.995952 1_555
O1 P10 1.613209 1_655
O1 P0 1.641602 1_555
O2 P3 1.522823 1_556
O2 V0 2.082150 1_555
O3 P0 1.518670 1_555
O4 P11 1.538367 1_655
O5 P5 1.535479 1_555
O6 P10 1.543533 1_655
O7 P2 1.534749 1_555
O7 V2 2.076475 1_665
O8 P2 1.525763 1_555
O9 P4 1.537988 1_555
O10 P1 1.517692 1_555
O11 P4 1.530335 1_555
O11 V0 2.089937 1_555
O12 P1 1.538623 1_555
O12 V1 2.071745 1_555
O13 P7 1.542871 1_555
O14 P6 1.546053 1_555
O15 P9 1.535826 1_555
O15 V0 2.039820 1_555
O16 P0 1.521592 1_555
O16 V1 1.975265 1_555
O17 P2 1.623914 1_555
O17 P6 1.624406 1_555
O18 P8 1.537344 1_555
O18 V0 1.986191 1_555
O19 P5 1.524208 1_555
O19 V1 2.086168 1_555
O20 P7 1.614704 1_555
O20 P3 1.638396 1_555
O21 P4 1.613832 1_555
O21 P8 1.635070 1_555
O22 P6 1.516757 1_555
O23 P3 1.534653 1_555
O23 V2 1.991044 1_555
O24 P5 1.619134 1_555
O24 P9 1.624739 1_555
O25 P11 1.533384 1_555
O26 P2 1.536691 1_555
O26 V2 2.028328 1_565
O27 P5 1.539683 1_555
O28 P4 1.544371 1_555
O29 P10 1.537146 1_555
O30 P7 1.528628 1_555
O30 V2 2.104845 1_555
O31 P10 1.532631 1_555
O31 V1 2.086200 1_555
O32 P7 1.541876 1_555
O33 P9 1.518643 1_555
O34 P9 1.539525 1_555
O34 V0 2.067796 1_455
O35 P1 1.538670 1_455
O35 V1 2.031942 1_555
O36 P6 1.535773 1_555
O37 P0 1.536761 1_455
O37 V1 1.977892 1_555
O38 P11 1.520685 1_555
O39 P8 1.523655 1_554
O39 V2 2.097265 1_565
O40 P1 1.623250 1_455
O40 P11 1.624200 1_555
O41 P3 1.520653 1_455
O41 V2 1.983966 1_555
