# generated using pymatgen
data_Co3OF5
_symmetry_space_group_name_H-M   'P 1'
_cell_length_a   5.64159616
_cell_length_b   5.64159616
_cell_length_c   7.26380136
_cell_angle_alpha   74.24865695
_cell_angle_beta   74.24865695
_cell_angle_gamma   73.91720359
_symmetry_Int_Tables_number   1
_chemical_formula_structural   Co3OF5
_chemical_formula_sum   'Co6 O2 F10'
_cell_volume   208.92943204
_cell_formula_units_Z   2
loop_
 _symmetry_equiv_pos_site_id
 _symmetry_equiv_pos_as_xyz
  1  'x, y, z'
loop_
 _atom_site_type_symbol
 _atom_site_label
 _atom_site_symmetry_multiplicity
 _atom_site_fract_x
 _atom_site_fract_y
 _atom_site_fract_z
 _atom_site_occupancy
  Co  Co0  1  0.32693100  0.32693100  0.15481200  1
  Co  Co1  1  0.34792200  0.34792200  0.68737400  1
  Co  Co2  1  0.66055000  0.66055000  0.33624500  1
  Co  Co3  1  0.66171100  0.66171100  0.82236600  1
  Co  Co4  1  0.00163100  0.00163100  0.50318000  1
  Co  Co5  1  0.00869400  0.00869400  0.00413100  1
  O  O0  1  0.55885600  0.55885600  0.63044500  1
  O  O1  1  0.23716000  0.23716000  0.97257300  1
  F  F0  1  0.63921200  0.02956400  0.66893100  1
  F  F1  1  0.96998600  0.36016700  0.32791300  1
  F  F2  1  0.42191700  0.42191700  0.35930200  1
  F  F3  1  0.11531200  0.11531200  0.70058800  1
  F  F4  1  0.76809400  0.76809400  0.03225400  1
  F  F5  1  0.89561000  0.89561000  0.29984400  1
  F  F6  1  0.02956400  0.63921200  0.66893100  1
  F  F7  1  0.36016700  0.96998600  0.32791300  1
  F  F8  1  0.69371800  0.30296700  0.00160100  1
  F  F9  1  0.30296700  0.69371800  0.00160100  1
loop_
_geom_bond_atom_site_label_1
_geom_bond_atom_site_label_2
_geom_bond_distance
_geom_bond_site_symmetry_2
Co0 O1 1.770700 1_554
Co0 F2 1.950401 1_555
Co0 F9 2.053062 1_555
Co0 F8 2.053062 1_555
Co0 F1 2.053141 1_455
Co0 F7 2.053141 1_545
Co1 O0 1.803741 1_555
Co1 O1 1.970603 1_555
Co1 F3 2.066591 1_555
Co1 F0 2.078488 1_555
Co1 F6 2.078488 1_555
Co1 F2 2.245840 1_555
Co2 O0 2.018956 1_555
Co2 F5 2.044669 1_555
Co2 F7 2.069352 1_555
Co2 F1 2.069352 1_555
Co2 F4 2.088367 1_555
Co2 F2 2.100547 1_555
Co3 O0 1.918803 1_555
Co3 F4 2.058617 1_556
Co3 F6 2.059163 1_655
Co3 F0 2.059163 1_565
Co3 F8 2.078056 1_556
Co3 F9 2.078056 1_556
Co4 F5 2.013581 1_445
Co4 F3 2.026151 1_555
Co4 F6 2.059821 1_545
Co4 F0 2.059821 1_455
Co4 F1 2.066220 1_455
Co4 F7 2.066220 1_545
Co5 O1 1.993680 1_554
Co5 F5 2.040935 1_445
Co5 F9 2.069006 1_545
Co5 F8 2.069006 1_455
Co5 F3 2.084573 1_554
Co5 F4 2.108637 1_445
