# generated using pymatgen
data_NiSn(PO4)2
_symmetry_space_group_name_H-M   'P 1'
_cell_length_a   5.94676201
_cell_length_b   9.87568535
_cell_length_c   11.14538556
_cell_angle_alpha   115.96304829
_cell_angle_beta   90.00117505
_cell_angle_gamma   90.00586817
_symmetry_Int_Tables_number   1
_chemical_formula_structural   NiSn(PO4)2
_chemical_formula_sum   'Ni4 Sn4 P8 O32'
_cell_volume   588.49066793
_cell_formula_units_Z   4
loop_
 _symmetry_equiv_pos_site_id
 _symmetry_equiv_pos_as_xyz
  1  'x, y, z'
loop_
 _atom_site_type_symbol
 _atom_site_label
 _atom_site_symmetry_multiplicity
 _atom_site_fract_x
 _atom_site_fract_y
 _atom_site_fract_z
 _atom_site_occupancy
  Ni  Ni0  1  0.75041300  0.83132400  0.22446900  1
  Ni  Ni1  1  0.25002200  0.66893100  0.77561200  1
  Ni  Ni2  1  0.74977800  0.33093800  0.22425600  1
  Ni  Ni3  1  0.24958600  0.16871100  0.77541200  1
  Sn  Sn0  1  0.25004100  0.61281800  0.27538800  1
  Sn  Sn1  1  0.24999200  0.11281300  0.27537500  1
  Sn  Sn2  1  0.74997600  0.38721800  0.72466300  1
  Sn  Sn3  1  0.74998000  0.88718800  0.72463700  1
  P  P0  1  0.24991600  0.23888300  0.08978700  1
  P  P1  1  0.25016200  0.73889500  0.08984600  1
  P  P2  1  0.75002300  0.76112600  0.91018400  1
  P  P3  1  0.74990500  0.26109400  0.91015600  1
  P  P4  1  0.75004300  0.65301000  0.40570700  1
  P  P5  1  0.74997400  0.15304000  0.40568800  1
  P  P6  1  0.25000000  0.34699600  0.59431800  1
  P  P7  1  0.25002100  0.84696500  0.59430000  1
  O  O0  1  0.74998900  0.35894600  0.05805900  1
  O  O1  1  0.75001900  0.85898700  0.05809100  1
  O  O2  1  0.25001800  0.64105500  0.94192700  1
  O  O3  1  0.24999900  0.14106000  0.94191000  1
  O  O4  1  0.25001000  0.40666000  0.11859400  1
  O  O5  1  0.24999800  0.90667900  0.11860000  1
  O  O6  1  0.75001000  0.59335500  0.88143000  1
  O  O7  1  0.75000700  0.09333300  0.88140200  1
  O  O8  1  0.75001600  0.29485300  0.38660500  1
  O  O9  1  0.75002200  0.79485300  0.38664500  1
  O  O10  1  0.24999400  0.70514300  0.61337100  1
  O  O11  1  0.24998500  0.20513500  0.61334300  1
  O  O12  1  0.25009900  0.31140700  0.44430100  1
  O  O13  1  0.25000100  0.81144800  0.44430500  1
  O  O14  1  0.75000500  0.68844400  0.55579800  1
  O  O15  1  0.75001100  0.18859800  0.55569900  1
  O  O16  1  0.04872500  0.20228800  0.16585300  1
  O  O17  1  0.04897800  0.70232700  0.16596000  1
  O  O18  1  0.45106000  0.20229900  0.16595600  1
  O  O19  1  0.45132900  0.70234900  0.16589600  1
  O  O20  1  0.54878600  0.79771200  0.83412000  1
  O  O21  1  0.54874000  0.29765700  0.83408700  1
  O  O22  1  0.95122000  0.79771900  0.83411700  1
  O  O23  1  0.95111900  0.29771400  0.83408400  1
  O  O24  1  0.95449500  0.54347200  0.33552900  1
  O  O25  1  0.95447600  0.04347100  0.33552900  1
  O  O26  1  0.54550500  0.54346200  0.33552400  1
  O  O27  1  0.54551800  0.04347000  0.33552400  1
  O  O28  1  0.04551800  0.45653000  0.66447800  1
  O  O29  1  0.04552600  0.95653900  0.66448700  1
  O  O30  1  0.45450200  0.45654300  0.66448700  1
  O  O31  1  0.45448700  0.95654100  0.66449000  1
loop_
_geom_bond_atom_site_label_1
_geom_bond_atom_site_label_2
_geom_bond_distance
_geom_bond_site_symmetry_2
Ni0 O1 1.989172 1_555
Ni0 O9 1.991699 1_555
Ni0 O17 2.115103 1_655
Ni0 O19 2.117384 1_555
Ni0 O25 2.263396 1_565
Ni0 O27 2.266295 1_565
Ni1 O2 1.989622 1_555
Ni1 O10 1.990935 1_555
Ni1 O20 2.114859 1_555
Ni1 O22 2.115321 1_455
Ni1 O28 2.266640 1_555
Ni1 O30 2.266719 1_555
Ni2 O0 1.989030 1_555
Ni2 O8 1.991400 1_555
Ni2 O18 2.113872 1_555
Ni2 O16 2.115359 1_655
Ni2 O26 2.267206 1_555
Ni2 O24 2.268440 1_555
Ni3 O11 1.990254 1_555
Ni3 O3 1.990434 1_555
Ni3 O23 2.114723 1_455
Ni3 O21 2.117651 1_555
Ni3 O29 2.263343 1_545
Ni3 O31 2.266268 1_545
O0 P3 1.502133 1_554
O1 P2 1.502183 1_554
O2 P1 1.502259 1_556
O3 P0 1.501850 1_556
O4 P0 1.543585 1_555
O4 Sn0 2.020825 1_555
O5 P1 1.543808 1_555
O5 Sn1 2.020587 1_565
O6 P2 1.543681 1_555
O6 Sn2 2.020567 1_555
O7 P3 1.543584 1_555
O7 Sn3 2.020608 1_545
O8 P5 1.505804 1_555
O9 P4 1.505970 1_555
O10 P7 1.505819 1_555
O11 P6 1.505920 1_555
O12 P6 1.550667 1_555
O12 Sn1 2.039146 1_555
O13 P7 1.550601 1_555
O13 Sn0 2.039294 1_555
O14 P4 1.551851 1_555
O14 Sn3 2.039486 1_555
O15 P5 1.550676 1_555
O15 Sn2 2.039502 1_555
O16 P0 1.596568 1_555
O16 Sn1 2.155906 1_555
O17 P1 1.596752 1_555
O17 Sn0 2.154672 1_555
O18 P0 1.597062 1_555
O18 Sn1 2.154392 1_555
O19 P1 1.596156 1_555
O19 Sn0 2.156017 1_555
O20 P2 1.596748 1_555
O20 Sn3 2.155274 1_555
O21 P3 1.596358 1_555
O21 Sn2 2.155475 1_555
O22 P2 1.596593 1_555
O22 Sn3 2.155428 1_555
O23 P3 1.596826 1_555
O23 Sn2 2.154845 1_555
O24 P4 1.587353 1_555
O24 Sn0 2.099758 1_655
O25 P5 1.587682 1_555
O25 Sn1 2.099658 1_655
O26 P4 1.587607 1_555
O26 Sn0 2.099465 1_555
O27 P5 1.587294 1_555
O27 Sn1 2.099781 1_555
O28 P6 1.587432 1_555
O28 Sn2 2.099809 1_455
O29 P7 1.587734 1_555
O29 Sn3 2.099828 1_455
O30 P6 1.587408 1_555
O30 Sn2 2.099578 1_555
O31 P7 1.587423 1_555
O31 Sn3 2.099652 1_555
