# generated using pymatgen
data_Li2CoCO4
_symmetry_space_group_name_H-M   'P 1'
_cell_length_a   5.09353800
_cell_length_b   6.69865000
_cell_length_c   10.81565204
_cell_angle_alpha   83.17849471
_cell_angle_beta   90.00000000
_cell_angle_gamma   90.00000000
_symmetry_Int_Tables_number   1
_chemical_formula_structural   Li2CoCO4
_chemical_formula_sum   'Li8 Co4 C4 O16'
_cell_volume   366.41583891
_cell_formula_units_Z   4
loop_
 _symmetry_equiv_pos_site_id
 _symmetry_equiv_pos_as_xyz
  1  'x, y, z'
loop_
 _atom_site_type_symbol
 _atom_site_label
 _atom_site_symmetry_multiplicity
 _atom_site_fract_x
 _atom_site_fract_y
 _atom_site_fract_z
 _atom_site_occupancy
  Li  Li0  1  0.65273900  0.88304700  0.78889500  1
  Li  Li1  1  0.84726100  0.88304700  0.28889500  1
  Li  Li2  1  0.82063200  0.77150800  0.57114400  1
  Li  Li3  1  0.67936800  0.77150800  0.07114400  1
  Li  Li4  1  0.32063200  0.22849200  0.92885600  1
  Li  Li5  1  0.17936800  0.22849200  0.42885600  1
  Li  Li6  1  0.15273900  0.11695300  0.71110500  1
  Li  Li7  1  0.34726100  0.11695300  0.21110500  1
  Co  Co0  1  0.86607100  0.48836600  0.83959500  1
  Co  Co1  1  0.36607100  0.51163400  0.66040500  1
  Co  Co2  1  0.63392900  0.48836600  0.33959500  1
  Co  Co3  1  0.13392900  0.51163400  0.16040500  1
  C  C0  1  0.18020100  0.80801100  0.93803600  1
  C  C1  1  0.31979900  0.80801100  0.43803600  1
  C  C2  1  0.68020100  0.19198900  0.56196400  1
  C  C3  1  0.81979900  0.19198900  0.06196400  1
  O  O0  1  0.29876500  0.93996600  0.85941300  1
  O  O1  1  0.20123500  0.93996600  0.35941300  1
  O  O2  1  0.92931400  0.77154000  0.92606800  1
  O  O3  1  0.57068600  0.77154000  0.42606800  1
  O  O4  1  0.18753100  0.71332600  0.52985400  1
  O  O5  1  0.66240200  0.64020900  0.71483400  1
  O  O6  1  0.31246900  0.71332600  0.02985400  1
  O  O7  1  0.83759800  0.64020900  0.21483400  1
  O  O8  1  0.16240200  0.35979100  0.78516600  1
  O  O9  1  0.68753100  0.28667400  0.97014600  1
  O  O10  1  0.33759800  0.35979100  0.28516600  1
  O  O11  1  0.81246900  0.28667400  0.47014600  1
  O  O12  1  0.42931400  0.22846000  0.57393200  1
  O  O13  1  0.07068600  0.22846000  0.07393200  1
  O  O14  1  0.79876500  0.06003400  0.64058700  1
  O  O15  1  0.70123500  0.06003400  0.14058700  1
loop_
_geom_bond_atom_site_label_1
_geom_bond_atom_site_label_2
_geom_bond_distance
_geom_bond_site_symmetry_2
Li0 O5 1.897286 1_555
Li0 O0 2.011691 1_555
Li0 O14 2.019905 1_565
Li0 O2 2.116685 1_555
Li1 O7 1.897286 1_555
Li1 O1 2.011691 1_655
Li1 O15 2.019905 1_565
Li1 O3 2.116685 1_555
Li2 O5 1.874473 1_555
Li2 O4 1.971076 1_655
Li2 O3 2.020588 1_555
Li2 O14 2.157965 1_565
Li3 O7 1.874473 1_555
Li3 O6 1.971076 1_555
Li3 O2 2.020588 1_554
Li3 O15 2.157965 1_565
Li4 O8 1.874473 1_555
Li4 O9 1.971076 1_555
Li4 O13 2.020588 1_556
Li4 O0 2.157965 1_545
Li5 O10 1.874473 1_555
Li5 O11 1.971076 1_455
Li5 O12 2.020588 1_555
Li5 O1 2.157965 1_545
Li6 O8 1.897286 1_555
Li6 O14 2.011691 1_455
Li6 O0 2.019905 1_545
Li6 O12 2.116685 1_555
Li7 O10 1.897286 1_555
Li7 O15 2.011691 1_555
Li7 O1 2.019905 1_545
Li7 O13 2.116685 1_555
Co0 O8 1.867352 1_655
Co0 O5 1.898824 1_555
Co0 O9 2.047665 1_555
Co0 O2 2.235641 1_555
Co1 O5 1.867352 1_555
Co1 O8 1.898824 1_555
Co1 O4 2.047665 1_555
Co1 O12 2.235641 1_555
Co2 O10 1.867352 1_555
Co2 O7 1.898824 1_555
Co2 O11 2.047665 1_555
Co2 O3 2.235641 1_555
Co3 O7 1.867352 1_455
Co3 O10 1.898824 1_555
Co3 O6 2.047665 1_555
Co3 O13 2.235641 1_555
C0 O0 1.300222 1_555
C0 O6 1.301053 1_556
C0 O2 1.310339 1_455
C1 O1 1.300222 1_555
C1 O4 1.301053 1_555
C1 O3 1.310339 1_555
C2 O14 1.300222 1_555
C2 O11 1.301053 1_555
C2 O12 1.310339 1_555
C3 O15 1.300222 1_555
C3 O9 1.301053 1_554
C3 O13 1.310339 1_655
