# generated using pymatgen
data_Li3Cu2F8
_symmetry_space_group_name_H-M   'P 1'
_cell_length_a   5.17528800
_cell_length_b   5.91305300
_cell_length_c   9.64099972
_cell_angle_alpha   85.38410362
_cell_angle_beta   90.00000000
_cell_angle_gamma   90.00000000
_symmetry_Int_Tables_number   1
_chemical_formula_structural   Li3Cu2F8
_chemical_formula_sum   'Li6 Cu4 F16'
_cell_volume   294.07457650
_cell_formula_units_Z   2
loop_
 _symmetry_equiv_pos_site_id
 _symmetry_equiv_pos_as_xyz
  1  'x, y, z'
loop_
 _atom_site_type_symbol
 _atom_site_label
 _atom_site_symmetry_multiplicity
 _atom_site_fract_x
 _atom_site_fract_y
 _atom_site_fract_z
 _atom_site_occupancy
  Li  Li0  1  0.50342100  0.84491100  0.74730300  1
  Li  Li1  1  0.99657900  0.84491100  0.24730300  1
  Li  Li2  1  0.50000000  0.50000000  0.50000000  1
  Li  Li3  1  0.00000000  0.50000000  0.00000000  1
  Li  Li4  1  0.00342100  0.15508900  0.75269700  1
  Li  Li5  1  0.49657900  0.15508900  0.25269700  1
  Cu  Cu0  1  0.00618900  0.63778700  0.63104900  1
  Cu  Cu1  1  0.49381100  0.63778700  0.13104900  1
  Cu  Cu2  1  0.50618900  0.36221300  0.86895100  1
  Cu  Cu3  1  0.99381100  0.36221300  0.36895100  1
  F  F0  1  0.84587100  0.90253400  0.68681200  1
  F  F1  1  0.65412900  0.90253400  0.18681200  1
  F  F2  1  0.32438100  0.77821700  0.58027300  1
  F  F3  1  0.17561900  0.77821700  0.08027300  1
  F  F4  1  0.64870800  0.64638500  0.93151000  1
  F  F5  1  0.85129200  0.64638500  0.43151000  1
  F  F6  1  0.19110100  0.54086900  0.81740300  1
  F  F7  1  0.30889900  0.54086900  0.31740300  1
  F  F8  1  0.69110100  0.45913100  0.68259700  1
  F  F9  1  0.80889900  0.45913100  0.18259700  1
  F  F10  1  0.14870800  0.35361500  0.56849000  1
  F  F11  1  0.35129200  0.35361500  0.06849000  1
  F  F12  1  0.82438100  0.22178300  0.91972700  1
  F  F13  1  0.67561900  0.22178300  0.41972700  1
  F  F14  1  0.34587100  0.09746600  0.81318800  1
  F  F15  1  0.15412900  0.09746600  0.31318800  1
loop_
_geom_bond_atom_site_label_1
_geom_bond_atom_site_label_2
_geom_bond_distance
_geom_bond_site_symmetry_2
Cu0 F0 1.887736 1_455
Cu0 F2 1.890891 1_555
Cu0 F10 1.973422 1_555
Cu0 F8 1.984328 1_455
Cu0 F6 2.075190 1_555
Cu0 F5 2.080937 1_455
Cu1 F1 1.887736 1_555
Cu1 F3 1.890891 1_555
Cu1 F11 1.973422 1_555
Cu1 F9 1.984328 1_555
Cu1 F7 2.075190 1_555
Cu1 F4 2.080937 1_554
Cu2 F14 1.887736 1_555
Cu2 F12 1.890891 1_555
Cu2 F4 1.973422 1_555
Cu2 F6 1.984328 1_555
Cu2 F8 2.075190 1_555
Cu2 F11 2.080937 1_556
Cu3 F15 1.887736 1_655
Cu3 F13 1.890891 1_555
Cu3 F5 1.973422 1_555
Cu3 F7 1.984328 1_655
Cu3 F9 2.075190 1_555
Cu3 F10 2.080937 1_655
F0 Li4 1.857722 1_665
F0 Li0 1.888172 1_555
F1 Li5 1.857722 1_565
F1 Li1 1.888172 1_555
F2 Li0 1.926000 1_555
F2 Li2 2.082381 1_555
F3 Li1 1.926000 1_455
F3 Li3 2.082381 1_555
F4 Li3 2.097263 1_656
F4 Li0 2.182155 1_555
F5 Li2 2.097263 1_555
F5 Li1 2.182155 1_555
F6 Li3 2.016711 1_556
F7 Li2 2.016711 1_555
F8 Li2 2.016711 1_555
F9 Li3 2.016711 1_655
F10 Li2 2.097263 1_555
F10 Li4 2.182155 1_555
F11 Li3 2.097263 1_555
F11 Li5 2.182155 1_555
F12 Li4 1.926000 1_655
F12 Li3 2.082381 1_656
F13 Li5 1.926000 1_555
F13 Li2 2.082381 1_555
F14 Li0 1.857722 1_545
F14 Li4 1.888172 1_555
F15 Li1 1.857722 1_445
F15 Li5 1.888172 1_555
