# generated using pymatgen
data_KVO2
_symmetry_space_group_name_H-M   'P 1'
_cell_length_a   3.08992400
_cell_length_b   6.90569867
_cell_length_c   5.47250492
_cell_angle_alpha   67.94490264
_cell_angle_beta   89.99564225
_cell_angle_gamma   77.06775658
_symmetry_Int_Tables_number   1
_chemical_formula_structural   KVO2
_chemical_formula_sum   'K2 V2 O4'
_cell_volume   105.02593717
_cell_formula_units_Z   2
loop_
 _symmetry_equiv_pos_site_id
 _symmetry_equiv_pos_as_xyz
  1  'x, y, z'
loop_
 _atom_site_type_symbol
 _atom_site_label
 _atom_site_symmetry_multiplicity
 _atom_site_fract_x
 _atom_site_fract_y
 _atom_site_fract_z
 _atom_site_occupancy
  K  K0  1  0.25000800  0.49999900  0.25000800  1
  K  K1  1  0.75000500  0.50000100  0.74999200  1
  V  V0  1  0.49999500  0.00000000  0.50000000  1
  V  V1  1  0.99999700  0.00000000  0.00000000  1
  O  O0  1  0.41323900  0.17352100  0.07974600  1
  O  O1  1  0.91321500  0.17354600  0.57974100  1
  O  O2  1  0.58674800  0.82647900  0.92025400  1
  O  O3  1  0.08677200  0.82645400  0.42025900  1
loop_
_geom_bond_atom_site_label_1
_geom_bond_atom_site_label_2
_geom_bond_distance
_geom_bond_site_symmetry_2
K0 O3 2.696881 1_555
K0 O0 2.697068 1_555
K0 O1 2.723148 1_555
K0 O1 2.723255 1_455
K0 O2 2.723326 1_554
K0 O2 2.723358 1_454
K1 O1 2.696881 1_555
K1 O2 2.697068 1_555
K1 O3 2.723194 1_555
K1 O3 2.723209 1_655
K1 O0 2.723312 1_656
K1 O0 2.723372 1_556
O0 V1 2.081738 1_555
O0 V1 2.081933 1_455
O0 V0 2.140956 1_555
O1 V0 2.081856 1_655
O1 V0 2.082008 1_555
O1 V1 2.141002 1_556
O2 V1 2.081722 1_466
O2 V1 2.081949 1_566
O2 V0 2.140956 1_565
O3 V0 2.081849 1_465
O3 V0 2.082015 1_565
O3 V1 2.141002 1_465
