# generated using pymatgen
data_Li2MnPHO5
_symmetry_space_group_name_H-M   'P 1'
_cell_length_a   9.61201900
_cell_length_b   5.55731900
_cell_length_c   8.48066474
_cell_angle_alpha   75.20891517
_cell_angle_beta   90.00000000
_cell_angle_gamma   90.00000000
_symmetry_Int_Tables_number   1
_chemical_formula_structural   Li2MnPHO5
_chemical_formula_sum   'Li8 Mn4 P4 H4 O20'
_cell_volume   438.00073439
_cell_formula_units_Z   4
loop_
 _symmetry_equiv_pos_site_id
 _symmetry_equiv_pos_as_xyz
  1  'x, y, z'
loop_
 _atom_site_type_symbol
 _atom_site_label
 _atom_site_symmetry_multiplicity
 _atom_site_fract_x
 _atom_site_fract_y
 _atom_site_fract_z
 _atom_site_occupancy
  Li  Li0  1  0.84259500  0.27038000  0.31423900  1
  Li  Li1  1  0.17003500  0.33610200  0.41371500  1
  Li  Li2  1  0.65740500  0.77038000  0.31423900  1
  Li  Li3  1  0.32996500  0.83610200  0.41371500  1
  Li  Li4  1  0.67003500  0.16389800  0.58628500  1
  Li  Li5  1  0.34259500  0.22962000  0.68576100  1
  Li  Li6  1  0.82996500  0.66389800  0.58628500  1
  Li  Li7  1  0.15740500  0.72962000  0.68576100  1
  Mn  Mn0  1  0.13114900  0.20287900  0.01730700  1
  Mn  Mn1  1  0.36885100  0.70287900  0.01730700  1
  Mn  Mn2  1  0.63114900  0.29712100  0.98269300  1
  Mn  Mn3  1  0.86885100  0.79712100  0.98269300  1
  P  P0  1  0.47826900  0.37267400  0.31433200  1
  P  P1  1  0.02173100  0.87267400  0.31433200  1
  P  P2  1  0.97826900  0.12732600  0.68566800  1
  P  P3  1  0.52173100  0.62732600  0.68566800  1
  H  H0  1  0.37827000  0.15100100  0.02722400  1
  H  H1  1  0.12173000  0.65100100  0.02722400  1
  H  H2  1  0.87827000  0.34899900  0.97277600  1
  H  H3  1  0.62173000  0.84899900  0.97277600  1
  O  O0  1  0.82169400  0.41687300  0.04923100  1
  O  O1  1  0.67830600  0.91687300  0.04923100  1
  O  O2  1  0.46929700  0.29369000  0.14890200  1
  O  O3  1  0.07357900  0.15144000  0.26987100  1
  O  O4  1  0.03070300  0.79369000  0.14890200  1
  O  O5  1  0.42642100  0.65144000  0.26987100  1
  O  O6  1  0.63283600  0.36982500  0.36691300  1
  O  O7  1  0.38003300  0.20558500  0.43932200  1
  O  O8  1  0.86716400  0.86982500  0.36691300  1
  O  O9  1  0.11996700  0.70558500  0.43932200  1
  O  O10  1  0.88003300  0.29441500  0.56067800  1
  O  O11  1  0.13283600  0.13017500  0.63308700  1
  O  O12  1  0.61996700  0.79441500  0.56067800  1
  O  O13  1  0.36716400  0.63017500  0.63308700  1
  O  O14  1  0.57357900  0.34856000  0.73012900  1
  O  O15  1  0.96929700  0.20631000  0.85109800  1
  O  O16  1  0.92642100  0.84856000  0.73012900  1
  O  O17  1  0.53070300  0.70631000  0.85109800  1
  O  O18  1  0.32169400  0.08312700  0.95076900  1
  O  O19  1  0.17830600  0.58312700  0.95076900  1
loop_
_geom_bond_atom_site_label_1
_geom_bond_atom_site_label_2
_geom_bond_distance
_geom_bond_site_symmetry_2
Li0 O10 2.158201 1_555
Li0 O6 2.167052 1_555
Li0 O8 2.168577 1_545
Li0 O0 2.195434 1_555
Li0 O3 2.373786 1_655
Li1 O11 1.952328 1_555
Li1 O3 2.009990 1_555
Li1 O7 2.137099 1_555
Li1 O9 2.173161 1_555
Li2 O12 2.158201 1_555
Li2 O8 2.167052 1_555
Li2 O6 2.168577 1_555
Li2 O1 2.195434 1_555
Li2 O5 2.373786 1_555
Li3 O13 1.952328 1_555
Li3 O5 2.009990 1_555
Li3 O9 2.137099 1_555
Li3 O7 2.173161 1_565
Li4 O6 1.952328 1_555
Li4 O14 2.009990 1_555
Li4 O10 2.137099 1_555
Li4 O12 2.173161 1_545
Li5 O7 2.158201 1_555
Li5 O11 2.167052 1_555
Li5 O13 2.168577 1_555
Li5 O18 2.195434 1_555
Li5 O14 2.373786 1_555
Li6 O8 1.952328 1_555
Li6 O16 2.009990 1_555
Li6 O12 2.137099 1_555
Li6 O10 2.173161 1_555
Li7 O9 2.158201 1_555
Li7 O13 2.167052 1_555
Li7 O11 2.168577 1_565
Li7 O19 2.195434 1_555
Li7 O16 2.373786 1_455
Mn0 O18 2.075458 1_554
Mn0 O19 2.092959 1_554
Mn0 O15 2.096136 1_454
Mn0 O3 2.159416 1_555
Mn0 O4 2.460269 1_545
Mn1 O19 2.075458 1_554
Mn1 O18 2.092959 1_564
Mn1 O17 2.096136 1_554
Mn1 O5 2.159416 1_555
Mn1 O2 2.460269 1_555
Mn2 O0 2.075458 1_556
Mn2 O1 2.092959 1_546
Mn2 O2 2.096136 1_556
Mn2 O14 2.159416 1_555
Mn2 O17 2.460269 1_555
Mn3 O1 2.075458 1_556
Mn3 O0 2.092959 1_556
Mn3 O4 2.096136 1_656
Mn3 O16 2.159416 1_555
Mn3 O15 2.460269 1_565
H0 O18 0.991610 1_554
H0 O2 1.696167 1_555
H1 O19 0.991610 1_554
H1 O4 1.696167 1_555
H2 O0 0.991610 1_556
H2 O15 1.696167 1_555
H3 O1 0.991610 1_556
H3 O17 1.696167 1_555
O2 P0 1.575697 1_555
O3 P1 1.578696 1_545
O4 P1 1.575697 1_555
O5 P0 1.578696 1_555
O6 P0 1.550097 1_555
O7 P0 1.541061 1_555
O8 P1 1.550097 1_655
O9 P1 1.541061 1_555
O10 P2 1.541061 1_555
O11 P2 1.550097 1_455
O12 P3 1.541061 1_555
O13 P3 1.550097 1_555
O14 P3 1.578696 1_555
O15 P2 1.575697 1_555
O16 P2 1.578696 1_565
O17 P3 1.575697 1_555
