# generated using pymatgen
data_LiFeSiO4
_symmetry_space_group_name_H-M   'P 1'
_cell_length_a   8.60423469
_cell_length_b   8.60423469
_cell_length_c   8.60423453
_cell_angle_alpha   107.33759128
_cell_angle_beta   107.33759128
_cell_angle_gamma   107.33759424
_symmetry_Int_Tables_number   1
_chemical_formula_structural   LiFeSiO4
_chemical_formula_sum   'Li6 Fe6 Si6 O24'
_cell_volume   525.53445504
_cell_formula_units_Z   6
loop_
 _symmetry_equiv_pos_site_id
 _symmetry_equiv_pos_as_xyz
  1  'x, y, z'
loop_
 _atom_site_type_symbol
 _atom_site_label
 _atom_site_symmetry_multiplicity
 _atom_site_fract_x
 _atom_site_fract_y
 _atom_site_fract_z
 _atom_site_occupancy
  Li  Li0  1  0.77299300  0.94411600  0.54201700  1
  Li  Li1  1  0.05588400  0.45798300  0.22700700  1
  Li  Li2  1  0.45798300  0.22700700  0.05588400  1
  Li  Li3  1  0.54201700  0.77299300  0.94411600  1
  Li  Li4  1  0.94411600  0.54201700  0.77299300  1
  Li  Li5  1  0.22700700  0.05588400  0.45798300  1
  Fe  Fe0  1  0.42314800  0.60720900  0.19900400  1
  Fe  Fe1  1  0.39279100  0.80099600  0.57685200  1
  Fe  Fe2  1  0.80099600  0.57685200  0.39279100  1
  Fe  Fe3  1  0.19900400  0.42314800  0.60720900  1
  Fe  Fe4  1  0.60720900  0.19900400  0.42314800  1
  Fe  Fe5  1  0.57685200  0.39279100  0.80099600  1
  Si  Si0  1  0.26608900  0.86845000  0.09511600  1
  Si  Si1  1  0.90488400  0.73391100  0.13155000  1
  Si  Si2  1  0.13155000  0.90488400  0.73391100  1
  Si  Si3  1  0.86845000  0.09511600  0.26608900  1
  Si  Si4  1  0.09511600  0.26608900  0.86845000  1
  Si  Si5  1  0.73391100  0.13155000  0.90488400  1
  O  O0  1  0.05058600  0.73862300  0.03680600  1
  O  O1  1  0.96319400  0.94941400  0.26137700  1
  O  O2  1  0.38081400  0.75087700  0.06987200  1
  O  O3  1  0.93012800  0.61918600  0.24912300  1
  O  O4  1  0.29985000  0.35538200  0.02547100  1
  O  O5  1  0.66303200  0.70489400  0.36254400  1
  O  O6  1  0.24912300  0.93012800  0.61918600  1
  O  O7  1  0.29510600  0.63745600  0.33696800  1
  O  O8  1  0.64461800  0.97452900  0.70015000  1
  O  O9  1  0.97452900  0.70015000  0.64461800  1
  O  O10  1  0.63745600  0.33696800  0.29510600  1
  O  O11  1  0.26137700  0.96319400  0.94941400  1
  O  O12  1  0.73862300  0.03680600  0.05058600  1
  O  O13  1  0.36254400  0.66303200  0.70489400  1
  O  O14  1  0.02547100  0.29985000  0.35538200  1
  O  O15  1  0.35538200  0.02547100  0.29985000  1
  O  O16  1  0.70489400  0.36254400  0.66303200  1
  O  O17  1  0.75087700  0.06987200  0.38081400  1
  O  O18  1  0.33696800  0.29510600  0.63745600  1
  O  O19  1  0.70015000  0.64461800  0.97452900  1
  O  O20  1  0.06987200  0.38081400  0.75087700  1
  O  O21  1  0.61918600  0.24912300  0.93012800  1
  O  O22  1  0.03680600  0.05058600  0.73862300  1
  O  O23  1  0.94941400  0.26137700  0.96319400  1
loop_
_geom_bond_atom_site_label_1
_geom_bond_atom_site_label_2
_geom_bond_distance
_geom_bond_site_symmetry_2
Li0 O5 1.894894 1_555
Li0 O17 1.997687 1_565
Li0 O8 1.998902 1_555
Li0 O22 2.098050 1_665
Li1 O7 1.894894 1_555
Li1 O3 1.997687 1_455
Li1 O14 1.998902 1_555
Li1 O23 2.098050 1_454
Li2 O10 1.894894 1_555
Li2 O21 1.997687 1_554
Li2 O4 1.998902 1_555
Li2 O11 2.098050 1_544
Li3 O13 1.894894 1_555
Li3 O2 1.997687 1_556
Li3 O19 1.998902 1_555
Li3 O12 2.098050 1_566
Li4 O16 1.894894 1_555
Li4 O20 1.997687 1_655
Li4 O9 1.998902 1_555
Li4 O0 2.098050 1_656
Li5 O18 1.894894 1_555
Li5 O6 1.997687 1_545
Li5 O15 1.998902 1_555
Li5 O1 2.098050 1_445
Fe0 O7 1.859258 1_555
Fe0 O5 1.864618 1_555
Fe0 O2 1.934166 1_555
Fe0 O4 1.951274 1_555
Fe1 O13 1.859258 1_555
Fe1 O7 1.864618 1_555
Fe1 O6 1.934166 1_555
Fe1 O8 1.951274 1_555
Fe2 O5 1.859258 1_555
Fe2 O10 1.864618 1_555
Fe2 O3 1.934166 1_555
Fe2 O9 1.951274 1_555
Fe3 O18 1.859258 1_555
Fe3 O13 1.864618 1_555
Fe3 O20 1.934166 1_555
Fe3 O14 1.951274 1_555
Fe4 O10 1.859258 1_555
Fe4 O16 1.864618 1_555
Fe4 O17 1.934166 1_555
Fe4 O15 1.951274 1_555
Fe5 O16 1.859258 1_555
Fe5 O18 1.864618 1_555
Fe5 O21 1.934166 1_555
Fe5 O19 1.951274 1_555
O0 Si0 1.677724 1_555
O0 Si1 1.684147 1_455
O1 Si1 1.677724 1_555
O1 Si3 1.684147 1_565
O2 Si0 1.623874 1_555
O3 Si1 1.623874 1_555
O4 Si4 1.635544 1_554
O6 Si2 1.623874 1_555
O8 Si5 1.635544 1_565
O9 Si2 1.635544 1_655
O11 Si2 1.677724 1_555
O11 Si0 1.684147 1_556
O12 Si3 1.677724 1_555
O12 Si5 1.684147 1_554
O14 Si3 1.635544 1_455
O15 Si0 1.635544 1_545
O17 Si3 1.623874 1_555
O19 Si1 1.635544 1_556
O20 Si4 1.623874 1_555
O21 Si5 1.623874 1_555
O22 Si4 1.677724 1_555
O22 Si2 1.684147 1_545
O23 Si5 1.677724 1_555
O23 Si4 1.684147 1_655
