# generated using pymatgen
data_Li2AlCoO4
_symmetry_space_group_name_H-M   'P 1'
_cell_length_a   5.00330700
_cell_length_b   5.50301700
_cell_length_c   6.24076200
_cell_angle_alpha   90.00000000
_cell_angle_beta   90.00000000
_cell_angle_gamma   90.00000000
_symmetry_Int_Tables_number   1
_chemical_formula_structural   Li2AlCoO4
_chemical_formula_sum   'Li4 Al2 Co2 O8'
_cell_volume   171.82866926
_cell_formula_units_Z   2
loop_
 _symmetry_equiv_pos_site_id
 _symmetry_equiv_pos_as_xyz
  1  'x, y, z'
loop_
 _atom_site_type_symbol
 _atom_site_label
 _atom_site_symmetry_multiplicity
 _atom_site_fract_x
 _atom_site_fract_y
 _atom_site_fract_z
 _atom_site_occupancy
  Li  Li0  1  0.99273900  0.33529000  0.24931500  1
  Li  Li1  1  0.49273900  0.66471000  0.25068500  1
  Li  Li2  1  0.99273900  0.33529000  0.75068500  1
  Li  Li3  1  0.49273900  0.66471000  0.74931500  1
  Al  Al0  1  0.49888400  0.15754000  0.00000000  1
  Al  Al1  1  0.99888400  0.84246000  0.50000000  1
  Co  Co0  1  0.99449100  0.82896100  0.00000000  1
  Co  Co1  1  0.49449100  0.17103900  0.50000000  1
  O  O0  1  0.85517800  0.14843700  0.00000000  1
  O  O1  1  0.37191300  0.85473900  0.00000000  1
  O  O2  1  0.89702800  0.68715100  0.26150100  1
  O  O3  1  0.39702800  0.31284900  0.23849900  1
  O  O4  1  0.87191300  0.14526100  0.50000000  1
  O  O5  1  0.35517800  0.85156300  0.50000000  1
  O  O6  1  0.39702800  0.31284900  0.76150100  1
  O  O7  1  0.89702800  0.68715100  0.73849900  1
loop_
_geom_bond_atom_site_label_1
_geom_bond_atom_site_label_2
_geom_bond_distance
_geom_bond_site_symmetry_2
Li0 O4 1.976503 1_555
Li0 O0 1.987935 1_555
Li0 O2 1.996083 1_555
Li0 O3 2.027672 1_655
Li1 O1 1.976503 1_555
Li1 O5 1.987935 1_555
Li1 O3 1.996083 1_555
Li1 O2 2.027672 1_555
Li2 O4 1.976503 1_555
Li2 O0 1.987935 1_556
Li2 O7 1.996083 1_555
Li2 O6 2.027672 1_655
Li3 O1 1.976503 1_556
Li3 O5 1.987935 1_555
Li3 O6 1.996083 1_555
Li3 O7 2.027672 1_555
Al0 O1 1.783310 1_545
Al0 O0 1.783352 1_555
Al0 O3 1.790404 1_555
Al0 O6 1.790404 1_554
Al1 O4 1.783310 1_565
Al1 O5 1.783352 1_655
Al1 O7 1.790404 1_555
Al1 O2 1.790404 1_555
Co0 O2 1.873526 1_555
Co0 O7 1.873526 1_554
Co0 O0 1.891216 1_565
Co0 O1 1.893679 1_655
Co1 O3 1.873526 1_555
Co1 O6 1.873526 1_555
Co1 O5 1.891216 1_545
Co1 O4 1.893679 1_555
