# generated using pymatgen
data_LiV(CO3)2
_symmetry_space_group_name_H-M   'P 1'
_cell_length_a   7.38997268
_cell_length_b   7.38817749
_cell_length_c   7.66993371
_cell_angle_alpha   90.84942474
_cell_angle_beta   89.16052075
_cell_angle_gamma   73.29160149
_symmetry_Int_Tables_number   1
_chemical_formula_structural   LiV(CO3)2
_chemical_formula_sum   'Li4 V4 C8 O24'
_cell_volume   400.96388197
_cell_formula_units_Z   4
loop_
 _symmetry_equiv_pos_site_id
 _symmetry_equiv_pos_as_xyz
  1  'x, y, z'
loop_
 _atom_site_type_symbol
 _atom_site_label
 _atom_site_symmetry_multiplicity
 _atom_site_fract_x
 _atom_site_fract_y
 _atom_site_fract_z
 _atom_site_occupancy
  Li  Li0  1  0.25006300  0.25003700  0.00001900  1
  Li  Li1  1  0.74997900  0.75012600  0.00000600  1
  Li  Li2  1  0.24988600  0.75006700  0.49990100  1
  Li  Li3  1  0.74988000  0.24983700  0.49996800  1
  V  V0  1  0.74981800  0.75003300  0.50012000  1
  V  V1  1  0.75009700  0.25004100  0.99992900  1
  V  V2  1  0.25007200  0.24972500  0.49989800  1
  V  V3  1  0.25018400  0.75006100  0.99990600  1
  C  C0  1  0.07029300  0.06666900  0.75443500  1
  C  C1  1  0.57028100  0.56605600  0.75435300  1
  C  C2  1  0.56651800  0.06995300  0.74606800  1
  C  C3  1  0.06640700  0.57016600  0.74575600  1
  C  C4  1  0.43360100  0.92989400  0.25439600  1
  C  C5  1  0.93344500  0.42999200  0.25391500  1
  C  C6  1  0.92978300  0.93374500  0.24562800  1
  C  C7  1  0.42970300  0.43349900  0.24554600  1
  O  O0  1  0.34106000  0.10613500  0.26157400  1
  O  O1  1  0.84076500  0.60618500  0.26131800  1
  O  O2  1  0.60581400  0.34089900  0.23798100  1
  O  O3  1  0.10605200  0.84130000  0.23849700  1
  O  O4  1  0.39406300  0.65871400  0.76147400  1
  O  O5  1  0.89416000  0.15914100  0.76197600  1
  O  O6  1  0.65902700  0.89377900  0.73864000  1
  O  O7  1  0.15891500  0.39389100  0.73866400  1
  O  O8  1  0.16211900  0.03498500  0.60593700  1
  O  O9  1  0.66266500  0.53435400  0.60622600  1
  O  O10  1  0.53505400  0.16199300  0.89446700  1
  O  O11  1  0.03476900  0.66269800  0.89387600  1
  O  O12  1  0.46533800  0.83772200  0.10615300  1
  O  O13  1  0.96518600  0.33791400  0.10552900  1
  O  O14  1  0.83740300  0.96516200  0.39378000  1
  O  O15  1  0.33775700  0.46508900  0.39399900  1
  O  O16  1  0.16140900  0.00931800  0.89704100  1
  O  O17  1  0.66069700  0.50893000  0.89738100  1
  O  O18  1  0.50912400  0.16072000  0.60327200  1
  O  O19  1  0.00916900  0.66061600  0.60279100  1
  O  O20  1  0.49060000  0.83933500  0.39735200  1
  O  O21  1  0.99080500  0.33919800  0.39670600  1
  O  O22  1  0.83931300  0.99114500  0.10266700  1
  O  O23  1  0.33872700  0.49087700  0.10285500  1
loop_
_geom_bond_atom_site_label_1
_geom_bond_atom_site_label_2
_geom_bond_distance
_geom_bond_site_symmetry_2
Li0 O13 2.158009 1_455
Li0 O10 2.158886 1_554
Li0 O16 2.204432 1_554
Li0 O23 2.204883 1_555
Li0 O7 2.300589 1_554
Li0 O0 2.301889 1_555
Li1 O12 2.158184 1_555
Li1 O11 2.159093 1_654
Li1 O22 2.208237 1_555
Li1 O17 2.209095 1_554
Li1 O6 2.299834 1_554
Li1 O1 2.300089 1_555
Li2 O8 2.159160 1_565
Li2 O15 2.159195 1_555
Li2 O20 2.206125 1_555
Li2 O19 2.207784 1_555
Li2 O3 2.300986 1_555
Li2 O4 2.303273 1_555
Li3 O9 2.157098 1_555
Li3 O14 2.157967 1_545
Li3 O18 2.207832 1_555
Li3 O21 2.209791 1_555
Li3 O2 2.305384 1_555
Li3 O5 2.305681 1_555
C0 O5 1.284371 1_455
C0 O8 1.300248 1_555
C0 O16 1.304052 1_555
C1 O4 1.285174 1_555
C1 O9 1.299682 1_555
C1 O17 1.304255 1_555
C2 O6 1.284442 1_545
C2 O10 1.300146 1_555
C2 O18 1.304218 1_555
C3 O7 1.285029 1_555
C3 O11 1.299988 1_555
C3 O19 1.304092 1_555
C4 O0 1.284884 1_565
C4 O12 1.299592 1_555
C4 O20 1.304048 1_555
C5 O1 1.284862 1_555
C5 O13 1.300222 1_555
C5 O21 1.304224 1_555
C6 O3 1.285122 1_655
C6 O14 1.299802 1_555
C6 O22 1.304372 1_555
C7 O2 1.284463 1_555
C7 O15 1.300343 1_555
C7 O23 1.304195 1_555
O0 V2 2.101241 1_555
O1 V0 2.105099 1_555
O2 V1 2.101489 1_554
O3 V3 2.105037 1_554
O4 V3 2.103372 1_555
O5 V1 2.100234 1_555
O6 V0 2.102756 1_555
O7 V2 2.106054 1_555
O8 V2 2.053473 1_555
O9 V0 2.056574 1_555
O10 V1 2.054115 1_555
O11 V3 2.055564 1_555
O12 V3 2.055725 1_554
O13 V1 2.054146 1_554
O14 V0 2.055456 1_555
O15 V2 2.055997 1_555
O16 V3 2.014741 1_545
O17 V1 2.011673 1_555
O18 V2 2.015446 1_555
O19 V0 2.015317 1_455
O20 V0 2.014724 1_555
O21 V2 2.016447 1_655
O22 V1 2.012233 1_564
O23 V3 2.014441 1_554
