# generated using pymatgen
data_Mn6O5F7
_symmetry_space_group_name_H-M   'P 1'
_cell_length_a   4.70650239
_cell_length_b   5.73417800
_cell_length_c   15.59472069
_cell_angle_alpha   90.00000000
_cell_angle_beta   88.80810813
_cell_angle_gamma   90.00000000
_symmetry_Int_Tables_number   1
_chemical_formula_structural   Mn6O5F7
_chemical_formula_sum   'Mn12 O10 F14'
_cell_volume   420.77805200
_cell_formula_units_Z   2
loop_
 _symmetry_equiv_pos_site_id
 _symmetry_equiv_pos_as_xyz
  1  'x, y, z'
loop_
 _atom_site_type_symbol
 _atom_site_label
 _atom_site_symmetry_multiplicity
 _atom_site_fract_x
 _atom_site_fract_y
 _atom_site_fract_z
 _atom_site_occupancy
  Mn  Mn0  1  0.05634900  0.16011000  0.41369100  1
  Mn  Mn1  1  0.99247800  0.84290100  0.24523300  1
  Mn  Mn2  1  0.02267300  0.13776800  0.07891600  1
  Mn  Mn3  1  0.99247800  0.15709900  0.74523300  1
  Mn  Mn4  1  0.02267300  0.86223200  0.57891600  1
  Mn  Mn5  1  0.05634900  0.83989000  0.91369100  1
  Mn  Mn6  1  0.49246400  0.33426200  0.58820300  1
  Mn  Mn7  1  0.48597300  0.34735800  0.92474300  1
  Mn  Mn8  1  0.49508100  0.34856300  0.25105800  1
  Mn  Mn9  1  0.49246400  0.66573800  0.08820300  1
  Mn  Mn10  1  0.48597300  0.65264200  0.42474300  1
  Mn  Mn11  1  0.49508100  0.65143700  0.75105800  1
  O  O0  1  0.22557000  0.10922400  0.30192100  1
  O  O1  1  0.21332000  0.11074900  0.63661200  1
  O  O2  1  0.23271600  0.10903200  0.97224700  1
  O  O3  1  0.21332000  0.88925100  0.13661200  1
  O  O4  1  0.23271600  0.89096800  0.47224700  1
  O  O5  1  0.22557000  0.89077600  0.80192100  1
  O  O6  1  0.29638100  0.39080100  0.47995200  1
  O  O7  1  0.29638100  0.60919900  0.97995200  1
  O  O8  1  0.70200600  0.62315100  0.19552100  1
  O  O9  1  0.70200600  0.37684900  0.69552100  1
  F  F0  1  0.25264100  0.38915300  0.14305600  1
  F  F1  1  0.24888800  0.59989800  0.31189900  1
  F  F2  1  0.25264100  0.61084700  0.64305600  1
  F  F3  1  0.24888800  0.40010200  0.81189900  1
  F  F4  1  0.75071200  0.37688000  0.03426800  1
  F  F5  1  0.74500400  0.38952200  0.36365100  1
  F  F6  1  0.75071200  0.62312000  0.53426800  1
  F  F7  1  0.74500400  0.61047800  0.86365100  1
  F  F8  1  0.75566800  0.12346400  0.18322400  1
  F  F9  1  0.77558700  0.12993800  0.51671800  1
  F  F10  1  0.75648700  0.87705200  0.35908900  1
  F  F11  1  0.77558700  0.87006200  0.01671800  1
  F  F12  1  0.75648700  0.12294800  0.85908900  1
  F  F13  1  0.75566800  0.87653600  0.68322400  1
loop_
_geom_bond_atom_site_label_1
_geom_bond_atom_site_label_2
_geom_bond_distance
_geom_bond_site_symmetry_2
Mn0 O0 1.923494 1_555
Mn0 O4 1.983991 1_545
Mn0 O6 2.035295 1_555
Mn1 O3 1.986725 1_655
Mn1 O8 2.025313 1_555
Mn1 O0 2.087473 1_665
Mn2 O3 1.918071 1_545
Mn2 O2 1.924357 1_554
Mn3 O1 1.986725 1_655
Mn3 O9 2.025313 1_555
Mn3 O5 2.087473 1_645
Mn4 O1 1.918071 1_565
Mn4 O4 1.924357 1_555
Mn5 O5 1.923494 1_555
Mn5 O2 1.983991 1_565
Mn5 O7 2.035295 1_555
Mn6 O6 1.967595 1_555
Mn6 O1 1.974173 1_555
Mn6 O9 1.975304 1_555
Mn7 O7 1.939037 1_555
Mn7 O2 1.949469 1_555
Mn8 O0 2.019850 1_555
Mn8 O8 2.035349 1_555
Mn9 O7 1.967595 1_554
Mn9 O3 1.974173 1_555
Mn9 O8 1.975304 1_555
Mn10 O6 1.939037 1_555
Mn10 O4 1.949469 1_555
Mn11 O5 2.019850 1_555
Mn11 O9 2.035349 1_555
F0 Mn8 2.067085 1_555
F0 Mn2 2.072410 1_555
F0 Mn9 2.116826 1_555
F1 Mn8 2.067400 1_555
F1 Mn10 2.124866 1_555
F1 Mn1 2.128619 1_455
F2 Mn11 2.067085 1_555
F2 Mn4 2.072410 1_555
F2 Mn6 2.116826 1_555
F3 Mn11 2.067400 1_555
F3 Mn7 2.124866 1_555
F3 Mn3 2.128619 1_455
F4 Mn2 2.010020 1_655
F4 Mn7 2.141728 1_554
F4 Mn9 2.210377 1_555
F5 Mn0 2.129386 1_655
F5 Mn8 2.146558 1_555
F5 Mn10 2.149890 1_555
F6 Mn4 2.010020 1_655
F6 Mn10 2.141728 1_555
F6 Mn6 2.210377 1_555
F7 Mn5 2.129386 1_655
F7 Mn11 2.146558 1_555
F7 Mn7 2.149890 1_555
F8 Mn2 2.036390 1_655
F8 Mn8 2.057989 1_555
F8 Mn1 2.193262 1_545
F9 Mn0 2.066189 1_655
F9 Mn6 2.080692 1_555
F9 Mn4 2.167155 1_645
F10 Mn10 2.066615 1_555
F10 Mn1 2.083874 1_555
F10 Mn0 2.324068 1_665
F11 Mn5 2.066189 1_654
F11 Mn9 2.080692 1_555
F11 Mn2 2.167155 1_665
F12 Mn7 2.066615 1_555
F12 Mn3 2.083874 1_555
F12 Mn5 2.324068 1_645
F13 Mn4 2.036390 1_655
F13 Mn11 2.057989 1_555
F13 Mn3 2.193262 1_565
