# generated using pymatgen
data_Li7Cr3(SiO6)2
_symmetry_space_group_name_H-M   'P 1'
_cell_length_a   4.94515197
_cell_length_b   10.62136856
_cell_length_c   8.56482990
_cell_angle_alpha   66.22056364
_cell_angle_beta   90.00025761
_cell_angle_gamma   94.45159232
_symmetry_Int_Tables_number   1
_chemical_formula_structural   Li7Cr3(SiO6)2
_chemical_formula_sum   'Li14 Cr6 Si4 O24'
_cell_volume   410.18691187
_cell_formula_units_Z   2
loop_
 _symmetry_equiv_pos_site_id
 _symmetry_equiv_pos_as_xyz
  1  'x, y, z'
loop_
 _atom_site_type_symbol
 _atom_site_label
 _atom_site_symmetry_multiplicity
 _atom_site_fract_x
 _atom_site_fract_y
 _atom_site_fract_z
 _atom_site_occupancy
  Li  Li0  1  0.37498600  0.24999400  0.20833200  1
  Li  Li1  1  0.87500900  0.25000700  0.70832500  1
  Li  Li2  1  0.24324700  0.49438000  0.58613200  1
  Li  Li3  1  0.74324100  0.49419300  0.08630700  1
  Li  Li4  1  0.00675700  0.00562000  0.33051900  1
  Li  Li5  1  0.50675700  0.00580700  0.83050600  1
  Li  Li6  1  0.99802800  0.00574800  0.66660200  1
  Li  Li7  1  0.49816300  0.00555800  0.16678100  1
  Li  Li8  1  0.25195200  0.49431600  0.24986900  1
  Li  Li9  1  0.75197600  0.49436400  0.75001600  1
  Li  Li10  1  0.25194700  0.49425600  0.92235600  1
  Li  Li11  1  0.75181000  0.49444800  0.42234400  1
  Li  Li12  1  0.49799500  0.00564500  0.49438300  1
  Li  Li13  1  0.99802600  0.00569300  0.99418800  1
  Cr  Cr0  1  0.12499900  0.74998000  0.95593700  1
  Cr  Cr1  1  0.62500600  0.74998900  0.46068000  1
  Cr  Cr2  1  0.62500900  0.74998500  0.12561600  1
  Cr  Cr3  1  0.12499200  0.75000700  0.28914200  1
  Cr  Cr4  1  0.62501600  0.75000800  0.79397500  1
  Cr  Cr5  1  0.12501300  0.75000900  0.62466900  1
  Si  Si0  1  0.87499700  0.24999800  0.37502000  1
  Si  Si1  1  0.37501200  0.24998700  0.87502500  1
  Si  Si2  1  0.37504800  0.25003500  0.54166300  1
  Si  Si3  1  0.87497400  0.24996500  0.04169500  1
  O  O0  1  0.30996200  0.86914200  0.39799800  1
  O  O1  1  0.81299800  0.86998000  0.89952300  1
  O  O2  1  0.43700000  0.63002600  0.01949100  1
  O  O3  1  0.94002700  0.63087300  0.51713200  1
  O  O4  1  0.23170800  0.14697200  0.75980500  1
  O  O5  1  0.73160200  0.14683400  0.25997800  1
  O  O6  1  0.01830100  0.35302200  0.15676600  1
  O  O7  1  0.51840000  0.35316900  0.65679200  1
  O  O8  1  0.07914700  0.35317100  0.46980300  1
  O  O9  1  0.57906000  0.35302900  0.96993800  1
  O  O10  1  0.17090200  0.14697900  0.44676800  1
  O  O11  1  0.67088800  0.14691800  0.94680400  1
  O  O12  1  0.17086600  0.14682200  0.07301300  1
  O  O13  1  0.67094700  0.14696600  0.57299600  1
  O  O14  1  0.57913200  0.35307000  0.34371500  1
  O  O15  1  0.07911900  0.35301200  0.84375000  1
  O  O16  1  0.93828000  0.63256100  0.18175100  1
  O  O17  1  0.43833700  0.63253400  0.68575600  1
  O  O18  1  0.31170700  0.86743400  0.06429400  1
  O  O19  1  0.81166700  0.86748100  0.56826700  1
  O  O20  1  0.44052500  0.63294800  0.35094600  1
  O  O21  1  0.93740000  0.63209200  0.84932000  1
  O  O22  1  0.31258100  0.86790800  0.73142100  1
  O  O23  1  0.80948100  0.86705900  0.23389400  1
loop_
_geom_bond_atom_site_label_1
_geom_bond_atom_site_label_2
_geom_bond_distance
_geom_bond_site_symmetry_2
Li0 O9 2.100395 1_554
Li0 O10 2.100671 1_555
Li0 O6 2.100864 1_555
Li0 O14 2.101056 1_555
Li0 O5 2.101267 1_555
Li0 O12 2.101302 1_555
Li1 O13 2.100258 1_555
Li1 O15 2.100719 1_655
Li1 O4 2.100962 1_655
Li1 O11 2.101104 1_555
Li1 O7 2.101247 1_555
Li1 O8 2.101495 1_655
Li2 O7 2.012970 1_555
Li2 O3 2.084691 1_455
Li2 O20 2.135821 1_555
Li2 O17 2.145218 1_555
Li2 O8 2.217400 1_555
Li2 O15 2.218299 1_555
Li3 O6 2.012345 1_655
Li3 O2 2.091828 1_555
Li3 O16 2.123013 1_555
Li3 O21 2.138059 1_554
Li3 O14 2.216328 1_555
Li3 O9 2.217377 1_554
Li4 O5 2.012999 1_455
Li4 O0 2.084532 1_545
Li4 O23 2.135846 1_445
Li4 O19 2.144952 1_445
Li4 O12 2.217142 1_555
Li4 O10 2.218296 1_555
Li5 O4 2.012262 1_555
Li5 O1 2.091787 1_545
Li5 O18 2.122864 1_546
Li5 O22 2.138125 1_545
Li5 O11 2.216393 1_555
Li5 O13 2.217179 1_555
Li6 O10 2.012309 1_655
Li6 O1 2.090865 1_545
Li6 O19 2.121968 1_545
Li6 O22 2.137597 1_645
Li6 O13 2.217110 1_555
Li6 O4 2.217908 1_655
Li7 O11 2.013276 1_554
Li7 O0 2.089023 1_545
Li7 O23 2.129354 1_545
Li7 O18 2.145105 1_545
Li7 O5 2.217749 1_555
Li7 O12 2.218356 1_555
Li8 O8 2.012422 1_555
Li8 O2 2.076067 1_555
Li8 O16 2.136640 1_455
Li8 O20 2.145229 1_555
Li8 O14 2.217851 1_555
Li8 O6 2.217880 1_555
Li9 O9 2.013234 1_555
Li9 O3 2.098572 1_555
Li9 O21 2.121149 1_555
Li9 O17 2.136393 1_555
Li9 O7 2.217540 1_555
Li9 O15 2.218283 1_655
Li10 O15 2.012408 1_555
Li10 O2 2.090872 1_556
Li10 O17 2.121993 1_555
Li10 O21 2.137548 1_455
Li10 O9 2.217328 1_555
Li10 O6 2.217719 1_556
Li11 O14 2.013467 1_555
Li11 O3 2.089107 1_555
Li11 O20 2.129234 1_555
Li11 O16 2.144943 1_555
Li11 O7 2.217508 1_555
Li11 O8 2.218639 1_655
Li12 O13 2.013364 1_555
Li12 O0 2.098593 1_545
Li12 O22 2.121140 1_545
Li12 O19 2.136474 1_545
Li12 O5 2.217472 1_555
Li12 O10 2.217975 1_555
Li13 O12 2.012586 1_656
Li13 O1 2.076087 1_545
Li13 O18 2.136768 1_646
Li13 O23 2.145114 1_546
Li13 O11 2.217563 1_555
Li13 O4 2.217785 1_655
Cr0 O21 2.001017 1_455
Cr0 O22 2.001090 1_555
Cr0 O16 2.006149 1_456
Cr0 O18 2.006226 1_556
Cr0 O2 2.011455 1_556
Cr0 O1 2.011745 1_455
Cr1 O17 2.001619 1_555
Cr1 O19 2.001744 1_555
Cr1 O20 2.006771 1_555
Cr1 O23 2.006841 1_555
Cr1 O3 2.018392 1_555
Cr1 O0 2.018714 1_555
Cr2 O20 1.997855 1_555
Cr2 O23 1.998087 1_555
Cr2 O16 2.000741 1_555
Cr2 O18 2.001023 1_555
Cr2 O2 2.015943 1_555
Cr2 O1 2.015992 1_554
Cr3 O18 2.000264 1_555
Cr3 O16 2.000276 1_455
Cr3 O23 2.007650 1_455
Cr3 O20 2.007781 1_555
Cr3 O3 2.019545 1_455
Cr3 O0 2.019608 1_555
Cr4 O21 2.000302 1_555
Cr4 O22 2.000407 1_555
Cr4 O19 2.005477 1_555
Cr4 O17 2.005489 1_555
Cr4 O1 2.012511 1_555
Cr4 O2 2.012534 1_556
Cr5 O17 2.001251 1_555
Cr5 O19 2.001321 1_455
Cr5 O22 2.001863 1_555
Cr5 O21 2.001950 1_455
Cr5 O0 2.011457 1_555
Cr5 O3 2.011595 1_455
O4 Si2 1.849784 1_555
O4 Si1 1.850303 1_555
O5 Si0 1.850508 1_555
O5 Si3 1.850881 1_555
O6 Si3 1.849703 1_455
O6 Si0 1.850401 1_455
O7 Si1 1.850662 1_555
O7 Si2 1.850764 1_555
O8 Si0 1.850605 1_455
O8 Si2 1.850700 1_555
O9 Si1 1.850097 1_555
O9 Si3 1.850274 1_556
O10 Si0 1.849982 1_455
O10 Si2 1.850343 1_555
O11 Si3 1.850102 1_556
O11 Si1 1.850162 1_555
O12 Si3 1.850681 1_455
O12 Si1 1.850730 1_554
O13 Si0 1.850169 1_555
O13 Si2 1.850230 1_555
O14 Si2 1.850096 1_555
O14 Si0 1.850131 1_555
O15 Si1 1.849974 1_555
O15 Si3 1.850252 1_456
