# generated using pymatgen
data_Li4V3Co3(SnO8)2
_symmetry_space_group_name_H-M   'P 1'
_cell_length_a   5.96032600
_cell_length_b   5.96987808
_cell_length_c   9.72144470
_cell_angle_alpha   89.13666511
_cell_angle_beta   89.21491005
_cell_angle_gamma   60.18824204
_symmetry_Int_Tables_number   1
_chemical_formula_structural   Li4V3Co3(SnO8)2
_chemical_formula_sum   'Li4 V3 Co3 Sn2 O16'
_cell_volume   300.09389051
_cell_formula_units_Z   1
loop_
 _symmetry_equiv_pos_site_id
 _symmetry_equiv_pos_as_xyz
  1  'x, y, z'
loop_
 _atom_site_type_symbol
 _atom_site_label
 _atom_site_symmetry_multiplicity
 _atom_site_fract_x
 _atom_site_fract_y
 _atom_site_fract_z
 _atom_site_occupancy
  Li  Li0  1  0.33682700  0.32910100  0.89735700  1
  Li  Li1  1  0.99536600  0.00230900  0.99554800  1
  Li  Li2  1  0.99698300  0.99797400  0.49296700  1
  Li  Li3  1  0.67757100  0.66748200  0.39231600  1
  V  V0  1  0.82707900  0.82409600  0.72029800  1
  V  V1  1  0.65731600  0.16624600  0.21830500  1
  V  V2  1  0.81816800  0.34035400  0.71268200  1
  Co  Co0  1  0.17287100  0.65613400  0.21488000  1
  Co  Co1  1  0.17710800  0.16487300  0.21027000  1
  Co  Co2  1  0.33941800  0.83072300  0.71038900  1
  Sn  Sn0  1  0.31956500  0.34711300  0.49301700  1
  Sn  Sn1  1  0.66035000  0.66615100  0.99529900  1
  O  O0  1  0.15579600  0.68339600  0.59885700  1
  O  O1  1  0.04142200  0.49105000  0.33417300  1
  O  O2  1  0.38074600  0.30779000  0.09991800  1
  O  O3  1  0.97002700  0.01913600  0.30594100  1
  O  O4  1  0.97588200  0.99949400  0.80681300  1
  O  O5  1  0.13779300  0.18029100  0.60152400  1
  O  O6  1  0.48305300  0.48474100  0.33128700  1
  O  O7  1  0.50488700  0.03911400  0.34452700  1
  O  O8  1  0.31263400  0.83296700  0.09855900  1
  O  O9  1  0.66878200  0.17065000  0.60150200  1
  O  O10  1  0.52446600  0.96149500  0.84275500  1
  O  O11  1  0.53949400  0.49388700  0.83374900  1
  O  O12  1  0.69769400  0.66650300  0.60283900  1
  O  O13  1  0.83814400  0.83765900  0.10865900  1
  O  O14  1  0.96697100  0.51588800  0.84066700  1
  O  O15  1  0.82358500  0.32367800  0.10274000  1
loop_
_geom_bond_atom_site_label_1
_geom_bond_atom_site_label_2
_geom_bond_distance
_geom_bond_site_symmetry_2
Li0 O10 1.981691 1_545
Li0 O2 1.983901 1_556
Li0 O11 1.987983 1_555
Li0 O14 1.994343 1_455
Li1 O4 1.840892 1_545
Li1 O8 1.929083 1_646
Li1 O15 1.973028 1_556
Li1 O13 1.976991 1_546
Li2 O3 1.824388 1_565
Li2 O0 1.919230 1_655
Li2 O5 1.992460 1_665
Li2 O9 1.993427 1_565
Li3 O1 1.960909 1_655
Li3 O7 1.977099 1_565
Li3 O6 2.045070 1_555
Li3 O12 2.051490 1_555
Co0 O1 1.907464 1_555
Co0 O6 1.971574 1_555
Co0 O8 1.974772 1_555
Co0 O13 2.023374 1_455
Co0 O3 2.089253 1_465
Co0 O2 2.139846 1_555
Co1 O3 2.038942 1_455
Co1 O8 2.051181 1_545
Co1 O2 2.078075 1_555
Co1 O1 2.091602 1_555
Co1 O15 2.115585 1_455
Co1 O7 2.160070 1_555
Co2 O0 2.040918 1_555
Co2 O4 2.095451 1_455
Co2 O5 2.096185 1_565
Co2 O10 2.099315 1_555
Co2 O11 2.118029 1_555
Co2 O12 2.121909 1_555
O0 Sn0 2.031766 1_555
O0 V0 2.065957 1_455
O1 Sn0 2.117787 1_555
O2 V1 1.842183 1_555
O3 V1 1.834249 1_555
O4 V0 1.887007 1_555
O4 V2 1.981749 1_565
O5 V2 1.968446 1_455
O5 Sn0 2.070795 1_555
O6 V1 1.992097 1_555
O6 Sn0 2.193563 1_555
O7 V1 1.879925 1_555
O7 Sn0 2.168323 1_555
O8 Sn1 2.053200 1_554
O9 V2 1.985870 1_555
O9 Sn0 2.097830 1_555
O9 V0 2.126307 1_545
O10 V0 1.960302 1_555
O10 Sn1 2.120872 1_555
O11 V2 1.857251 1_555
O11 Sn1 2.204360 1_555
O12 V0 1.887224 1_555
O12 V2 2.003787 1_555
O13 V1 2.018696 1_565
O13 Sn1 2.128525 1_554
O14 V0 1.971395 1_555
O14 V2 2.103907 1_555
O14 Sn1 2.177086 1_555
O15 V1 1.997840 1_555
O15 Sn1 2.050184 1_554
