# generated using pymatgen
data_Li2CuF4
_symmetry_space_group_name_H-M   'P 1'
_cell_length_a   5.20422583
_cell_length_b   5.59289382
_cell_length_c   5.46939140
_cell_angle_alpha   60.90808359
_cell_angle_beta   89.99983565
_cell_angle_gamma   90.00001915
_symmetry_Int_Tables_number   1
_chemical_formula_structural   Li2CuF4
_chemical_formula_sum   'Li4 Cu2 F8'
_cell_volume   139.11182365
_cell_formula_units_Z   2
loop_
 _symmetry_equiv_pos_site_id
 _symmetry_equiv_pos_as_xyz
  1  'x, y, z'
loop_
 _atom_site_type_symbol
 _atom_site_label
 _atom_site_symmetry_multiplicity
 _atom_site_fract_x
 _atom_site_fract_y
 _atom_site_fract_z
 _atom_site_occupancy
  Li  Li0  1  0.20250364  0.44575988  0.07617660  1
  Li  Li1  1  0.79749019  0.44578112  0.57615665  1
  Li  Li2  1  0.73391664  0.71819810  0.01669410  1
  Li  Li3  1  0.26608267  0.71819751  0.51670261  1
  Cu  Cu0  1  0.74325717  0.00762461  0.45903161  1
  Cu  Cu1  1  0.25673879  0.00763560  0.95901564  1
  F  F0  1  0.11744783  0.36578028  0.75697355  1
  F  F1  1  0.08971687  0.83113227  0.77630247  1
  F  F2  1  0.91029099  0.83112289  0.27630902  1
  F  F3  1  0.88254628  0.36578359  0.25696272  1
  F  F4  1  0.59694862  0.65242729  0.70483763  1
  F  F5  1  0.62784415  0.10486767  0.73339760  1
  F  F6  1  0.37216251  0.10486353  0.23339413  1
  F  F7  1  0.40305365  0.65242167  0.20483569  1
loop_
_geom_bond_atom_site_label_1
_geom_bond_atom_site_label_2
_geom_bond_distance
_geom_bond_site_symmetry_2
Cu0 F3 1.899129 1_555
Cu0 F2 1.920475 1_545
Cu0 F5 1.924067 1_555
Cu0 F4 1.933021 1_545
Cu0 F6 2.212668 1_555
Cu0 F1 2.360281 1_645
Cu1 F0 1.899064 1_555
Cu1 F1 1.920417 1_545
Cu1 F6 1.924093 1_556
Cu1 F7 1.933116 1_546
Cu1 F5 2.212664 1_555
Cu1 F2 2.360298 1_446
F0 Li1 1.876331 1_455
F0 Li3 1.921324 1_555
F0 Li0 2.050226 1_556
F1 Li3 2.032111 1_555
F1 Li0 2.059737 1_556
F1 Li2 2.179158 1_456
F2 Li2 2.032168 1_555
F2 Li1 2.059600 1_555
F2 Li3 2.179132 1_655
F3 Li0 1.876258 1_655
F3 Li2 1.921303 1_555
F3 Li1 2.050240 1_555
F4 Li1 1.926480 1_555
F4 Li3 1.947050 1_555
F4 Li2 2.040304 1_556
F5 Li1 1.886797 1_555
F5 Li2 2.030751 1_546
F6 Li0 1.886760 1_555
F6 Li3 2.030760 1_545
F7 Li0 1.926495 1_555
F7 Li2 1.947044 1_555
F7 Li3 2.040375 1_555
