# generated using pymatgen
data_Er3TaO7
_symmetry_space_group_name_H-M   'P 1'
_cell_length_a   7.42858300
_cell_length_b   7.50776400
_cell_length_c   10.52580500
_cell_angle_alpha   90.00000000
_cell_angle_beta   90.00000000
_cell_angle_gamma   90.00000000
_symmetry_Int_Tables_number   1
_chemical_formula_structural   Er3TaO7
_chemical_formula_sum   'Er12 Ta4 O28'
_cell_volume   587.04570189
_cell_formula_units_Z   4
loop_
 _symmetry_equiv_pos_site_id
 _symmetry_equiv_pos_as_xyz
  1  'x, y, z'
loop_
 _atom_site_type_symbol
 _atom_site_label
 _atom_site_symmetry_multiplicity
 _atom_site_fract_x
 _atom_site_fract_y
 _atom_site_fract_z
 _atom_site_occupancy
  Er  Er0  1  0.01245400  0.79529400  0.25000000  1
  Er  Er1  1  0.25185200  0.96784100  0.51969500  1
  Er  Er2  1  0.25185200  0.96784100  0.98030500  1
  Er  Er3  1  0.24814800  0.46784100  0.01969500  1
  Er  Er4  1  0.24814800  0.46784100  0.48030500  1
  Er  Er5  1  0.48754600  0.29529400  0.75000000  1
  Er  Er6  1  0.51245400  0.70470600  0.25000000  1
  Er  Er7  1  0.75185200  0.53215900  0.51969500  1
  Er  Er8  1  0.75185200  0.53215900  0.98030500  1
  Er  Er9  1  0.74814800  0.03215900  0.01969500  1
  Er  Er10  1  0.74814800  0.03215900  0.48030500  1
  Er  Er11  1  0.98754600  0.20470600  0.75000000  1
  Ta  Ta0  1  0.99939300  0.74763400  0.75000000  1
  Ta  Ta1  1  0.50060700  0.24763400  0.25000000  1
  Ta  Ta2  1  0.49939300  0.75236600  0.75000000  1
  Ta  Ta3  1  0.00060700  0.25236600  0.25000000  1
  O  O0  1  0.03617400  0.04570000  0.12403000  1
  O  O1  1  0.03617400  0.04570000  0.37597000  1
  O  O2  1  0.04011000  0.58220000  0.61171100  1
  O  O3  1  0.04011000  0.58220000  0.88828900  1
  O  O4  1  0.24849500  0.33606300  0.25000000  1
  O  O5  1  0.25496400  0.73117600  0.11600500  1
  O  O6  1  0.25496400  0.73117600  0.38399500  1
  O  O7  1  0.24503600  0.23117600  0.61600500  1
  O  O8  1  0.24503600  0.23117600  0.88399500  1
  O  O9  1  0.25150500  0.83606300  0.75000000  1
  O  O10  1  0.45989000  0.08220000  0.11171100  1
  O  O11  1  0.45989000  0.08220000  0.38828900  1
  O  O12  1  0.46382600  0.54570000  0.62403000  1
  O  O13  1  0.46382600  0.54570000  0.87597000  1
  O  O14  1  0.53617400  0.45430000  0.12403000  1
  O  O15  1  0.53617400  0.45430000  0.37597000  1
  O  O16  1  0.54011000  0.91780000  0.61171100  1
  O  O17  1  0.54011000  0.91780000  0.88828900  1
  O  O18  1  0.74849500  0.16393700  0.25000000  1
  O  O19  1  0.75496400  0.76882400  0.11600500  1
  O  O20  1  0.75496400  0.76882400  0.38399500  1
  O  O21  1  0.74503600  0.26882400  0.61600500  1
  O  O22  1  0.74503600  0.26882400  0.88399500  1
  O  O23  1  0.75150500  0.66393700  0.75000000  1
  O  O24  1  0.95989000  0.41780000  0.11171100  1
  O  O25  1  0.95989000  0.41780000  0.38828900  1
  O  O26  1  0.96382600  0.95430000  0.62403000  1
  O  O27  1  0.96382600  0.95430000  0.87597000  1
loop_
_geom_bond_atom_site_label_1
_geom_bond_atom_site_label_2
_geom_bond_distance
_geom_bond_site_symmetry_2
Er0 O0 2.307274 1_565
Er0 O1 2.307274 1_565
Er0 O6 2.338032 1_555
Er0 O5 2.338032 1_555
Er0 O20 2.384845 1_455
Er0 O19 2.384845 1_455
Er1 O7 2.222383 1_565
Er1 O11 2.244687 1_565
Er1 O1 2.279761 1_565
Er1 O6 2.279875 1_555
Er1 O16 2.380041 1_555
Er1 O26 2.407155 1_455
Er1 O9 2.618266 1_555
Er2 O8 2.222383 1_565
Er2 O10 2.244687 1_566
Er2 O0 2.279761 1_566
Er2 O5 2.279875 1_556
Er2 O17 2.380041 1_555
Er2 O27 2.407155 1_455
Er2 O9 2.618266 1_555
Er3 O5 2.222383 1_555
Er3 O3 2.244687 1_554
Er3 O13 2.279761 1_554
Er3 O8 2.279875 1_554
Er3 O24 2.380041 1_455
Er3 O14 2.407155 1_555
Er3 O4 2.618266 1_555
Er4 O6 2.222383 1_555
Er4 O2 2.244687 1_555
Er4 O12 2.279761 1_555
Er4 O7 2.279875 1_555
Er4 O25 2.380041 1_455
Er4 O15 2.407155 1_555
Er4 O4 2.618266 1_555
Er5 O12 2.307274 1_555
Er5 O13 2.307274 1_555
Er5 O7 2.338032 1_555
Er5 O8 2.338032 1_555
Er5 O22 2.384845 1_555
Er5 O21 2.384845 1_555
Er6 O14 2.307274 1_555
Er6 O15 2.307274 1_555
Er6 O20 2.338032 1_555
Er6 O19 2.338032 1_555
Er6 O6 2.384845 1_555
Er6 O5 2.384845 1_555
Er7 O21 2.222383 1_555
Er7 O25 2.244687 1_555
Er7 O15 2.279761 1_555
Er7 O20 2.279875 1_555
Er7 O2 2.380041 1_655
Er7 O12 2.407155 1_555
Er7 O23 2.618266 1_555
Er8 O22 2.222383 1_555
Er8 O24 2.244687 1_556
Er8 O14 2.279761 1_556
Er8 O19 2.279875 1_556
Er8 O3 2.380041 1_655
Er8 O13 2.407155 1_555
Er8 O23 2.618266 1_555
Er9 O19 2.222383 1_545
Er9 O17 2.244687 1_544
Er9 O27 2.279761 1_544
Er9 O22 2.279875 1_554
Er9 O10 2.380041 1_555
Er9 O0 2.407155 1_655
Er9 O18 2.618266 1_555
Er10 O20 2.222383 1_545
Er10 O16 2.244687 1_545
Er10 O26 2.279761 1_545
Er10 O21 2.279875 1_555
Er10 O11 2.380041 1_555
Er10 O1 2.407155 1_655
Er10 O18 2.618266 1_555
Er11 O26 2.307274 1_545
Er11 O27 2.307274 1_545
Er11 O21 2.338032 1_555
Er11 O22 2.338032 1_555
Er11 O8 2.384845 1_655
Er11 O7 2.384845 1_655
O0 Ta3 2.058003 1_555
O1 Ta3 2.058003 1_555
O2 Ta0 1.937248 1_455
O3 Ta0 1.937248 1_455
O4 Ta3 1.945718 1_555
O4 Ta1 1.987028 1_555
O9 Ta2 1.945718 1_555
O9 Ta0 1.987028 1_455
O10 Ta1 1.937248 1_555
O11 Ta1 1.937248 1_555
O12 Ta2 2.058003 1_555
O13 Ta2 2.058003 1_555
O14 Ta1 2.058003 1_555
O15 Ta1 2.058003 1_555
O16 Ta2 1.937248 1_555
O17 Ta2 1.937248 1_555
O18 Ta1 1.945718 1_555
O18 Ta3 1.987028 1_655
O23 Ta0 1.945718 1_555
O23 Ta2 1.987028 1_555
O24 Ta3 1.937248 1_655
O25 Ta3 1.937248 1_655
O26 Ta0 2.058003 1_555
O27 Ta0 2.058003 1_555
