# generated using pymatgen
data_Bi24B2O39
_symmetry_space_group_name_H-M   'P 1'
_cell_length_a   8.73859600
_cell_length_b   8.88414573
_cell_length_c   14.25180532
_cell_angle_alpha   90.03399485
_cell_angle_beta   90.17125474
_cell_angle_gamma   109.73363505
_symmetry_Int_Tables_number   1
_chemical_formula_structural   Bi24B2O39
_chemical_formula_sum   'Bi24 B2 O39'
_cell_volume   1041.45381371
_cell_formula_units_Z   1
loop_
 _symmetry_equiv_pos_site_id
 _symmetry_equiv_pos_as_xyz
  1  'x, y, z'
loop_
 _atom_site_type_symbol
 _atom_site_label
 _atom_site_symmetry_multiplicity
 _atom_site_fract_x
 _atom_site_fract_y
 _atom_site_fract_z
 _atom_site_occupancy
  Bi  Bi0  1  0.61482400  0.79096400  0.91785800  1
  Bi  Bi1  1  0.24292700  0.40838800  0.91081000  1
  Bi  Bi2  1  0.18835100  0.47851500  0.63860100  1
  Bi  Bi3  1  0.52440800  0.82665600  0.66458400  1
  Bi  Bi4  1  0.32903900  0.03143500  0.83591700  1
  Bi  Bi5  1  0.99225100  0.65776700  0.82426200  1
  Bi  Bi6  1  0.24182300  0.73853900  0.42767800  1
  Bi  Bi7  1  0.75665200  0.23136800  0.92687400  1
  Bi  Bi8  1  0.58083100  0.44182000  0.74904300  1
  Bi  Bi9  1  0.07269400  0.94065700  0.24019500  1
  Bi  Bi10  1  0.08440400  0.27508300  0.41559500  1
  Bi  Bi11  1  0.88715300  0.72772300  0.59206200  1
  Bi  Bi12  1  0.73086100  0.89184000  0.40966900  1
  Bi  Bi13  1  0.27680000  0.08445300  0.57967900  1
  Bi  Bi14  1  0.94857600  0.08188100  0.75747000  1
  Bi  Bi15  1  0.44390800  0.56693000  0.27597000  1
  Bi  Bi16  1  0.73462900  0.23842100  0.57211100  1
  Bi  Bi17  1  0.27257200  0.74372500  0.08244300  1
  Bi  Bi18  1  0.01079500  0.32345700  0.16137400  1
  Bi  Bi19  1  0.67181000  0.98829900  0.14788700  1
  Bi  Bi20  1  0.82808000  0.52081300  0.34200100  1
  Bi  Bi21  1  0.48802600  0.14956700  0.34541400  1
  Bi  Bi22  1  0.36073700  0.20150100  0.08528000  1
  Bi  Bi23  1  0.73512300  0.56490200  0.09667700  1
  B  B0  1  0.98867100  0.01166200  0.00335400  1
  B  B1  1  0.50826700  0.50915900  0.49771500  1
  O  O0  1  0.31897400  0.70514600  0.94166200  1
  O  O1  1  0.04656900  0.91278700  0.70183100  1
  O  O2  1  0.99168800  0.18311500  0.00344300  1
  O  O3  1  0.03773000  0.43228700  0.84211700  1
  O  O4  1  0.58724700  0.93776100  0.80696600  1
  O  O5  1  0.90597700  0.92829800  0.91460300  1
  O  O6  1  0.16356800  0.00981200  0.00752800  1
  O  O7  1  0.41833900  0.54995700  0.80277600  1
  O  O8  1  0.21299600  0.82123300  0.56316700  1
  O  O9  1  0.20266300  0.20442500  0.80087400  1
  O  O10  1  0.50074000  0.24591600  0.88771900  1
  O  O11  1  0.75395900  0.52805100  0.87033300  1
  O  O12  1  0.02448500  0.24130300  0.62464100  1
  O  O13  1  0.73946900  0.99422700  0.60924700  1
  O  O14  1  0.10310300  0.50049000  0.49762500  1
  O  O15  1  0.60517200  0.00320400  0.99870800  1
  O  O16  1  0.69732000  0.69838400  0.70031700  1
  O  O17  1  0.50618100  0.67750200  0.49522400  1
  O  O18  1  0.40592300  0.41675700  0.57970700  1
  O  O19  1  0.43645000  0.08260500  0.69181900  1
  O  O20  1  0.54481100  0.92550000  0.32562900  1
  O  O21  1  0.08212300  0.43827500  0.30784600  1
  O  O22  1  0.93870100  0.55676700  0.68190900  1
  O  O23  1  0.68083900  0.50683000  0.50556500  1
  O  O24  1  0.43178000  0.42041800  0.40581600  1
  O  O25  1  0.70098500  0.69778500  0.30273800  1
  O  O26  1  0.50103100  0.10582300  0.49884500  1
  O  O27  1  0.99446300  0.73956700  0.38876700  1
  O  O28  1  0.24249300  0.01272400  0.37008500  1
  O  O29  1  0.22090000  0.48706400  0.10027400  1
  O  O30  1  0.51727800  0.74393200  0.12624200  1
  O  O31  1  0.19373200  0.19710200  0.19877400  1
  O  O32  1  0.81890000  0.21338600  0.43567300  1
  O  O33  1  0.55145200  0.42223800  0.19588200  1
  O  O34  1  0.89732100  0.92446000  0.09026200  1
  O  O35  1  0.92655800  0.57772400  0.18941100  1
  O  O36  1  0.41749400  0.03003400  0.16876600  1
  O  O37  1  0.91914200  0.04861400  0.30591400  1
  O  O38  1  0.74722800  0.33226500  0.06077900  1
loop_
_geom_bond_atom_site_label_1
_geom_bond_atom_site_label_2
_geom_bond_distance
_geom_bond_site_symmetry_2
Bi0 O4 2.114007 1_555
Bi0 O15 2.235082 1_565
Bi0 O5 2.422514 1_555
Bi0 O0 2.460630 1_555
Bi0 O7 2.778305 1_555
Bi1 O3 2.113221 1_555
Bi1 O7 2.239781 1_555
Bi1 O9 2.329139 1_555
Bi1 O0 2.529726 1_555
Bi1 O2 2.760743 1_456
Bi1 O29 2.812194 1_556
Bi2 O12 2.119260 1_555
Bi2 O14 2.172447 1_555
Bi2 O18 2.309506 1_555
Bi2 O22 2.579792 1_455
Bi3 O13 2.119214 1_555
Bi3 O16 2.236079 1_555
Bi3 O4 2.240187 1_555
Bi3 O19 2.663273 1_565
Bi3 O17 2.731031 1_555
Bi4 O10 2.118536 1_555
Bi4 O9 2.230410 1_555
Bi4 O19 2.242691 1_555
Bi4 O4 2.688358 1_545
Bi4 O6 2.818451 1_556
Bi5 O11 2.117513 1_555
Bi5 O3 2.184745 1_655
Bi5 O22 2.201980 1_555
Bi5 O1 2.772431 1_655
Bi6 O8 2.111400 1_555
Bi6 O27 2.232982 1_455
Bi6 O14 2.283496 1_555
Bi6 O28 2.569072 1_565
Bi6 O17 2.718575 1_555
Bi7 O38 2.121554 1_556
Bi7 O15 2.260048 1_555
Bi7 O10 2.348830 1_555
Bi7 O2 2.484908 1_556
Bi7 O11 2.764324 1_555
Bi7 O3 2.781715 1_655
Bi8 O7 2.110092 1_555
Bi8 O11 2.250317 1_555
Bi8 O16 2.270054 1_555
Bi8 O10 2.571931 1_555
Bi8 O18 2.820896 1_555
Bi9 O37 2.114984 1_465
Bi9 O31 2.244075 1_565
Bi9 O28 2.319279 1_565
Bi9 O34 2.601236 1_455
Bi9 O27 2.707552 1_455
Bi10 O21 2.117186 1_555
Bi10 O32 2.216010 1_455
Bi10 O14 2.275686 1_555
Bi10 O37 2.568605 1_455
Bi11 O22 2.147128 1_555
Bi11 O16 2.218989 1_555
Bi11 O1 2.351260 1_655
Bi11 O23 2.493162 1_555
Bi11 O8 2.716153 1_655
Bi12 O20 2.117627 1_555
Bi12 O25 2.247975 1_555
Bi12 O37 2.302819 1_565
Bi12 O17 2.541647 1_555
Bi12 O32 2.720783 1_565
Bi13 O19 2.122033 1_555
Bi13 O8 2.225499 1_545
Bi13 O26 2.228285 1_555
Bi13 O1 2.712268 1_545
Bi13 O18 2.781970 1_555
Bi14 O1 2.119008 1_645
Bi14 O9 2.203751 1_655
Bi14 O12 2.325059 1_655
Bi14 O5 2.584755 1_545
Bi14 O13 2.724320 1_545
Bi15 O33 2.158442 1_555
Bi15 O25 2.185059 1_555
Bi15 O24 2.245185 1_555
Bi15 O30 2.601670 1_555
Bi16 O32 2.119305 1_555
Bi16 O26 2.237614 1_555
Bi16 O13 2.247582 1_545
Bi16 O12 2.630918 1_655
Bi16 O23 2.750199 1_555
Bi17 O0 2.098896 1_554
Bi17 O29 2.184931 1_555
Bi17 O30 2.225244 1_555
Bi17 O36 2.720104 1_565
Bi18 O29 2.109703 1_555
Bi18 O31 2.303749 1_555
Bi18 O21 2.312355 1_555
Bi18 O2 2.549977 1_455
Bi18 O35 2.632101 1_455
Bi18 O38 2.732831 1_455
Bi19 O30 2.156127 1_555
Bi19 O15 2.218516 1_564
Bi19 O34 2.375599 1_555
Bi19 O36 2.392739 1_565
Bi19 O20 2.749562 1_555
Bi20 O27 2.102302 1_555
Bi20 O25 2.279275 1_555
Bi20 O35 2.333263 1_555
Bi20 O21 2.609268 1_655
Bi20 O23 2.648633 1_555
Bi21 O28 2.109219 1_555
Bi21 O20 2.226125 1_545
Bi21 O26 2.230429 1_555
Bi21 O36 2.718684 1_555
Bi21 O24 2.751647 1_555
Bi22 O36 2.119215 1_555
Bi22 O31 2.173316 1_555
Bi22 O6 2.258678 1_555
Bi22 O33 2.623258 1_555
Bi23 O35 2.101451 1_555
Bi23 O38 2.165924 1_555
Bi23 O33 2.196236 1_555
B0 O2 1.514515 1_555
B0 O5 1.517431 1_544
B0 O6 1.534958 1_655
B0 O34 1.536543 1_545
B1 O17 1.502276 1_555
B1 O23 1.518942 1_555
B1 O18 1.533238 1_555
B1 O24 1.556078 1_555
