# generated using pymatgen
data_LiMn2(BO3)2
_symmetry_space_group_name_H-M   'P 1'
_cell_length_a   5.34945300
_cell_length_b   10.27205304
_cell_length_c   13.93197611
_cell_angle_alpha   90.57046513
_cell_angle_beta   100.86590585
_cell_angle_gamma   91.95809954
_symmetry_Int_Tables_number   1
_chemical_formula_structural   LiMn2(BO3)2
_chemical_formula_sum   'Li6 Mn12 B12 O36'
_cell_volume   751.29064476
_cell_formula_units_Z   6
loop_
 _symmetry_equiv_pos_site_id
 _symmetry_equiv_pos_as_xyz
  1  'x, y, z'
loop_
 _atom_site_type_symbol
 _atom_site_label
 _atom_site_symmetry_multiplicity
 _atom_site_fract_x
 _atom_site_fract_y
 _atom_site_fract_z
 _atom_site_occupancy
  Li  Li0  1  0.14811700  0.08031900  0.00200300  1
  Li  Li1  1  0.44678400  0.66965500  0.66998500  1
  Li  Li2  1  0.47972900  0.18466400  0.65876900  1
  Li  Li3  1  0.80391500  0.67854400  0.34144200  1
  Li  Li4  1  0.79160100  0.15792600  0.32334600  1
  Li  Li5  1  0.86897300  0.41311500  0.00886300  1
  Mn  Mn0  1  0.05760000  0.13370500  0.76971300  1
  Mn  Mn1  1  0.29684300  0.87675400  0.87451000  1
  Mn  Mn2  1  0.05536700  0.38598600  0.43222200  1
  Mn  Mn3  1  0.25652000  0.63086500  0.21250700  1
  Mn  Mn4  1  0.62101300  0.63200500  0.90755600  1
  Mn  Mn5  1  0.36562200  0.13023200  0.45334600  1
  Mn  Mn6  1  0.62404600  0.88838900  0.56908400  1
  Mn  Mn7  1  0.39954200  0.36739700  0.11715000  1
  Mn  Mn8  1  0.75177500  0.38298800  0.78601000  1
  Mn  Mn9  1  0.90241400  0.63287000  0.54433800  1
  Mn  Mn10  1  0.71031800  0.11635900  0.09940200  1
  Mn  Mn11  1  0.95753400  0.87750900  0.21937700  1
  B  B0  1  0.05037800  0.62920500  0.77286900  1
  B  B1  1  0.06229100  0.87691500  0.45129200  1
  B  B2  1  0.28451400  0.37860800  0.89116100  1
  B  B3  1  0.37300900  0.63853900  0.44243000  1
  B  B4  1  0.27368200  0.11669100  0.22501000  1
  B  B5  1  0.62463900  0.13090100  0.87991500  1
  B  B6  1  0.39551800  0.87345700  0.10445500  1
  B  B7  1  0.73269800  0.87040700  0.79507300  1
  B  B8  1  0.60867000  0.37889000  0.55128800  1
  B  B9  1  0.74047700  0.62204700  0.12621900  1
  B  B10  1  0.94047100  0.13469300  0.54926700  1
  B  B11  1  0.93380900  0.36890100  0.21007400  1
  O  O0  1  0.12569200  0.34078500  0.80317100  1
  O  O1  1  0.19784900  0.37735000  0.97653100  1
  O  O2  1  0.22065600  0.68689700  0.85233200  1
  O  O3  1  0.10390400  0.62857400  0.68199100  1
  O  O4  1  0.99495200  0.16659800  0.45752200  1
  O  O5  1  0.12625900  0.13559100  0.62985800  1
  O  O6  1  0.11801600  0.59695800  0.44208200  1
  O  O7  1  0.01681600  0.06711300  0.21740900  1
  O  O8  1  0.37957600  0.07321900  0.87209700  1
  O  O9  1  0.29514600  0.94627800  0.47381200  1
  O  O10  1  0.15327600  0.44417600  0.20279500  1
  O  O11  1  0.53939300  0.41983900  0.88938800  1
  O  O12  1  0.30217100  0.81793500  0.18403100  1
  O  O13  1  0.65390300  0.83508900  0.88236200  1
  O  O14  1  0.24318400  0.89912900  0.01856500  1
  O  O15  1  0.57773300  0.84621700  0.70757200  1
  O  O16  1  0.43335200  0.31881400  0.47317600  1
  O  O17  1  0.57785700  0.36557300  0.64428500  1
  O  O18  1  0.52586100  0.67297200  0.53437400  1
  O  O19  1  0.46294600  0.64199500  0.35844000  1
  O  O20  1  0.34235800  0.15767600  0.13747700  1
  O  O21  1  0.67871300  0.19003600  0.79346700  1
  O  O22  1  0.43230700  0.12273400  0.31265400  1
  O  O23  1  0.80067700  0.13102700  0.96285900  1
  O  O24  1  0.81927400  0.57278700  0.79248300  1
  O  O25  1  0.50666000  0.57287800  0.13858700  1
  O  O26  1  0.68670100  0.09835100  0.55505600  1
  O  O27  1  0.97003400  0.93284200  0.80204700  1
  O  O28  1  0.65202400  0.91301000  0.12025600  1
  O  O29  1  0.81124800  0.44947100  0.52416300  1
  O  O30  1  0.96833900  0.82123000  0.53062100  1
  O  O31  1  0.92973700  0.86039900  0.35951100  1
  O  O32  1  0.78539300  0.32232600  0.12180500  1
  O  O33  1  0.87014200  0.33815900  0.29608700  1
  O  O34  1  0.89360300  0.68268900  0.21178800  1
  O  O35  1  0.83129500  0.60461400  0.04374800  1
loop_
_geom_bond_atom_site_label_1
_geom_bond_atom_site_label_2
_geom_bond_distance
_geom_bond_site_symmetry_2
Li0 O23 1.926871 1_454
Li0 O14 1.950616 1_545
Li0 O20 2.108972 1_555
Li0 O8 2.379574 1_554
Li1 O3 1.906462 1_555
Li1 O15 1.951983 1_555
Li1 O18 2.012782 1_555
Li1 O24 2.600079 1_555
Li2 O5 1.906673 1_555
Li2 O17 1.936574 1_555
Li2 O21 1.974480 1_555
Li2 O26 2.178186 1_555
Li3 O19 1.908357 1_555
Li3 O34 1.954926 1_555
Li3 O31 1.961314 1_555
Li3 O6 2.173236 1_655
Li4 O22 1.921082 1_555
Li4 O33 1.941469 1_555
Li4 O4 1.977142 1_555
Li4 O7 2.284682 1_655
Li5 O1 1.942341 1_654
Li5 O32 1.952311 1_555
Li5 O35 2.047257 1_555
Li5 O11 2.188151 1_554
Mn0 O5 2.049839 1_555
Mn0 O8 2.133500 1_555
Mn0 O27 2.170594 1_445
Mn0 O0 2.176687 1_555
Mn0 O21 2.209443 1_455
Mn1 O13 1.954877 1_555
Mn1 O27 1.955121 1_455
Mn1 O2 1.987748 1_555
Mn1 O8 2.053205 1_565
Mn1 O14 2.091812 1_556
Mn2 O33 2.014944 1_455
Mn2 O29 2.107992 1_455
Mn2 O16 2.135039 1_555
Mn2 O6 2.180518 1_555
Mn2 O4 2.305698 1_455
Mn3 O25 1.941067 1_555
Mn3 O10 1.973605 1_555
Mn3 O12 1.982218 1_555
Mn3 O34 2.028780 1_455
Mn3 O19 2.122827 1_555
Mn4 O35 2.042623 1_556
Mn4 O13 2.125726 1_555
Mn4 O24 2.175046 1_555
Mn4 O11 2.210594 1_555
Mn4 O2 2.228594 1_555
Mn5 O9 1.948472 1_545
Mn5 O16 1.965628 1_555
Mn5 O4 2.041673 1_455
Mn5 O26 2.048265 1_555
Mn5 O22 2.058578 1_555
Mn6 O15 2.039901 1_555
Mn6 O9 2.101842 1_555
Mn6 O30 2.146340 1_555
Mn6 O26 2.187637 1_565
Mn6 O18 2.282455 1_555
Mn7 O1 2.056026 1_554
Mn7 O10 2.103847 1_555
Mn7 O32 2.120013 1_555
Mn7 O25 2.170928 1_555
Mn7 O20 2.194177 1_555
Mn8 O24 1.968671 1_555
Mn8 O21 2.014547 1_555
Mn8 O17 2.021204 1_555
Mn8 O0 2.031531 1_655
Mn8 O11 2.035653 1_555
Mn9 O29 1.934129 1_555
Mn9 O30 1.972475 1_555
Mn9 O3 2.016730 1_655
Mn9 O6 2.033215 1_655
Mn9 O18 2.049144 1_555
Mn10 O23 2.054886 1_554
Mn10 O28 2.132257 1_545
Mn10 O32 2.148590 1_555
Mn10 O7 2.168887 1_655
Mn10 O20 2.186853 1_555
Mn11 O7 1.963845 1_665
Mn11 O28 1.977583 1_555
Mn11 O31 1.994780 1_555
Mn11 O34 2.017010 1_555
Mn11 O12 2.104589 1_655
B0 O3 1.349707 1_555
B0 O2 1.405840 1_555
B0 O24 1.421434 1_455
B1 O31 1.346199 1_455
B1 O9 1.394733 1_555
B1 O30 1.415499 1_455
B2 O1 1.355543 1_555
B2 O0 1.396724 1_555
B2 O11 1.418612 1_555
B3 O19 1.346806 1_555
B3 O6 1.414497 1_555
B3 O18 1.418053 1_555
B4 O22 1.348748 1_555
B4 O20 1.402845 1_555
B4 O7 1.433507 1_555
B5 O23 1.346021 1_555
B5 O8 1.404753 1_555
B5 O21 1.427279 1_555
B6 O14 1.348638 1_555
B6 O28 1.393775 1_555
B6 O12 1.416187 1_555
B7 O15 1.354231 1_555
B7 O27 1.388988 1_555
B7 O13 1.407055 1_555
B8 O17 1.344266 1_555
B8 O29 1.396061 1_555
B8 O16 1.416674 1_555
B9 O35 1.341851 1_555
B9 O25 1.374440 1_555
B9 O34 1.436104 1_555
B10 O5 1.351651 1_655
B10 O4 1.402988 1_555
B10 O26 1.412799 1_555
B11 O33 1.343791 1_555
B11 O32 1.402057 1_555
B11 O10 1.403896 1_655
