# generated using pymatgen
data_K3GePCO7
_symmetry_space_group_name_H-M   'P 1'
_cell_length_a   7.34457200
_cell_length_b   5.59845100
_cell_length_c   10.00529640
_cell_angle_alpha   88.62680913
_cell_angle_beta   90.00000000
_cell_angle_gamma   90.00000000
_symmetry_Int_Tables_number   1
_chemical_formula_structural   K3GePCO7
_chemical_formula_sum   'K6 Ge2 P2 C2 O14'
_cell_volume   411.28189404
_cell_formula_units_Z   2
loop_
 _symmetry_equiv_pos_site_id
 _symmetry_equiv_pos_as_xyz
  1  'x, y, z'
loop_
 _atom_site_type_symbol
 _atom_site_label
 _atom_site_symmetry_multiplicity
 _atom_site_fract_x
 _atom_site_fract_y
 _atom_site_fract_z
 _atom_site_occupancy
  K  K0  1  0.25000000  0.76287500  0.91702200  1
  K  K1  1  0.00187200  0.25575800  0.73966300  1
  K  K2  1  0.49812800  0.25575800  0.73966300  1
  K  K3  1  0.50187200  0.74424200  0.26033700  1
  K  K4  1  0.99812800  0.74424200  0.26033700  1
  K  K5  1  0.75000000  0.23712500  0.08297800  1
  Ge  Ge0  1  0.75000000  0.77803500  0.62840400  1
  Ge  Ge1  1  0.25000000  0.22196500  0.37159600  1
  P  P0  1  0.25000000  0.70944400  0.58245000  1
  P  P1  1  0.75000000  0.29055600  0.41755000  1
  C  C0  1  0.75000000  0.73795100  0.92682500  1
  C  C1  1  0.25000000  0.26204900  0.07317500  1
  O  O0  1  0.25000000  0.26822000  0.94232500  1
  O  O1  1  0.75000000  0.94339600  0.86247200  1
  O  O2  1  0.75000000  0.54026000  0.86119300  1
  O  O3  1  0.07767500  0.76997100  0.66600800  1
  O  O4  1  0.42232500  0.76997100  0.66600800  1
  O  O5  1  0.25000000  0.43426800  0.55424500  1
  O  O6  1  0.75000000  0.14831200  0.55495900  1
  O  O7  1  0.25000000  0.85168800  0.44504100  1
  O  O8  1  0.75000000  0.56573200  0.44575500  1
  O  O9  1  0.57767500  0.23002900  0.33399200  1
  O  O10  1  0.92232500  0.23002900  0.33399200  1
  O  O11  1  0.25000000  0.45974000  0.13880700  1
  O  O12  1  0.25000000  0.05660400  0.13752800  1
  O  O13  1  0.75000000  0.73178000  0.05767500  1
loop_
_geom_bond_atom_site_label_1
_geom_bond_atom_site_label_2
_geom_bond_distance
_geom_bond_site_symmetry_2
K0 O11 2.761101 1_556
K0 O0 2.774801 1_555
K0 O12 2.783068 1_566
K0 O3 2.811788 1_555
K0 O4 2.811788 1_555
K0 O0 2.846490 1_565
K1 O6 2.693026 1_455
K1 O0 2.728426 1_555
K1 O2 2.744151 1_455
K1 O5 2.769954 1_555
K1 O1 2.808384 1_445
K1 O3 2.888879 1_545
K1 O3 3.006464 1_555
K2 O6 2.693026 1_555
K2 O0 2.728426 1_555
K2 O2 2.744151 1_555
K2 O5 2.769954 1_555
K2 O1 2.808384 1_545
K2 O4 2.888879 1_545
K2 O4 3.006464 1_555
K3 O7 2.693026 1_555
K3 O13 2.728426 1_555
K3 O11 2.744151 1_555
K3 O8 2.769954 1_555
K3 O12 2.808384 1_565
K3 O9 2.888879 1_565
K3 O9 3.006464 1_555
K4 O7 2.693026 1_655
K4 O13 2.728426 1_555
K4 O11 2.744151 1_655
K4 O8 2.769954 1_555
K4 O12 2.808384 1_665
K4 O10 2.888879 1_565
K4 O10 3.006464 1_555
K5 O2 2.761101 1_554
K5 O13 2.774801 1_555
K5 O1 2.783068 1_544
K5 O9 2.811788 1_555
K5 O10 2.811788 1_555
K5 O13 2.846490 1_545
Ge0 O6 2.182708 1_565
Ge0 O8 2.203724 1_555
Ge0 O3 2.436116 1_655
Ge0 O4 2.436116 1_555
Ge0 O1 2.538807 1_555
Ge1 O7 2.182708 1_545
Ge1 O5 2.203724 1_555
Ge1 O9 2.436116 1_555
Ge1 O10 2.436116 1_455
Ge1 O12 2.538807 1_555
C0 O2 1.300373 1_555
C0 O1 1.304598 1_555
C0 O13 1.308821 1_556
C1 O11 1.300373 1_555
C1 O12 1.304598 1_555
C1 O0 1.308821 1_554
O3 P0 1.558594 1_555
O4 P0 1.558594 1_555
O5 P0 1.572831 1_555
O6 P1 1.572201 1_555
O7 P0 1.572201 1_555
O8 P1 1.572831 1_555
O9 P1 1.558594 1_555
O10 P1 1.558594 1_555
