# generated using pymatgen
data_Li3V4(PO4)6
_symmetry_space_group_name_H-M   'P 1'
_cell_length_a   8.42668700
_cell_length_b   8.72000734
_cell_length_c   11.95872549
_cell_angle_alpha   90.20115822
_cell_angle_beta   90.64404651
_cell_angle_gamma   90.15360137
_symmetry_Int_Tables_number   1
_chemical_formula_structural   Li3V4(PO4)6
_chemical_formula_sum   'Li6 V8 P12 O48'
_cell_volume   878.67220399
_cell_formula_units_Z   2
loop_
 _symmetry_equiv_pos_site_id
 _symmetry_equiv_pos_as_xyz
  1  'x, y, z'
loop_
 _atom_site_type_symbol
 _atom_site_label
 _atom_site_symmetry_multiplicity
 _atom_site_fract_x
 _atom_site_fract_y
 _atom_site_fract_z
 _atom_site_occupancy
  Li  Li0  1  0.80980300  0.21419900  0.82049700  1
  Li  Li1  1  0.68313700  0.71255400  0.68018300  1
  Li  Li2  1  0.57001300  0.40792400  0.19552100  1
  Li  Li3  1  0.18491500  0.78662400  0.17996100  1
  Li  Li4  1  0.08344900  0.08770600  0.69041300  1
  Li  Li5  1  0.07631300  0.50434200  0.34376700  1
  V  V0  1  0.74749800  0.97438600  0.11139200  1
  V  V1  1  0.75100100  0.53366400  0.89002100  1
  V  V2  1  0.74479500  0.47495700  0.39429100  1
  V  V3  1  0.74200400  0.03246300  0.60611300  1
  V  V4  1  0.25235300  0.96978600  0.38727000  1
  V  V5  1  0.24518200  0.52745200  0.61498900  1
  V  V6  1  0.24629400  0.46501400  0.11215600  1
  V  V7  1  0.25736600  0.02610200  0.89176800  1
  P  P0  1  0.96885200  0.75159200  0.50775300  1
  P  P1  1  0.88359200  0.61847800  0.14920700  1
  P  P2  1  0.88519600  0.89280000  0.85445400  1
  P  P3  1  0.60860700  0.11448300  0.34563500  1
  P  P4  1  0.61328100  0.39115300  0.64741100  1
  P  P5  1  0.53725600  0.24983600  0.99121000  1
  P  P6  1  0.46390100  0.75132000  0.00763600  1
  P  P7  1  0.38596100  0.61290400  0.35863400  1
  P  P8  1  0.39124400  0.88110700  0.64719000  1
  P  P9  1  0.11294600  0.10962700  0.14527700  1
  P  P10  1  0.10844100  0.38227600  0.84854500  1
  P  P11  1  0.03859800  0.24776800  0.49181700  1
  O  O0  1  0.93516000  0.09914300  0.10857800  1
  O  O1  1  0.94161500  0.12995700  0.55964200  1
  O  O2  1  0.94562500  0.33304200  0.40098100  1
  O  O3  1  0.93013800  0.41475800  0.82243700  1
  O  O4  1  0.91186600  0.63750900  0.41790600  1
  O  O5  1  0.87171200  0.79363100  0.15666100  1
  O  O6  1  0.85815000  0.56922400  0.02321500  1
  O  O7  1  0.86597200  0.00655700  0.75190700  1
  O  O8  1  0.83043100  0.73104300  0.81699500  1
  O  O9  1  0.82181100  0.82389600  0.56670100  1
  O  O10  1  0.76539400  0.52817300  0.22049400  1
  O  O11  1  0.77766200  0.95527400  0.94666400  1
  O  O12  1  0.72201500  0.02152900  0.27286300  1
  O  O13  1  0.72401000  0.44946000  0.55606900  1
  O  O14  1  0.68027300  0.32333300  0.92935300  1
  O  O15  1  0.66362500  0.22730000  0.68297300  1
  O  O16  1  0.65080500  0.07583700  0.47277600  1
  O  O17  1  0.62452000  0.28940700  0.33239100  1
  O  O18  1  0.63973600  0.50435000  0.74840500  1
  O  O19  1  0.60677300  0.14186600  0.08091700  1
  O  O20  1  0.56874700  0.83698400  0.09615400  1
  O  O21  1  0.56908700  0.91729700  0.67540400  1
  O  O22  1  0.55697700  0.61963000  0.39964500  1
  O  O23  1  0.56293900  0.62975500  0.94757300  1
  O  O24  1  0.45043600  0.37237900  0.05802400  1
  O  O25  1  0.43658300  0.39907600  0.61174100  1
  O  O26  1  0.43606000  0.06704600  0.32394700  1
  O  O27  1  0.43063200  0.16972800  0.90174600  1
  O  O28  1  0.39723100  0.86051800  0.91668400  1
  O  O29  1  0.37246300  0.50647600  0.25461900  1
  O  O30  1  0.37772900  0.70594900  0.66136700  1
  O  O31  1  0.36082700  0.92933400  0.52601000  1
  O  O32  1  0.32073000  0.77383600  0.32206100  1
  O  O33  1  0.32070800  0.67998000  0.06790900  1
  O  O34  1  0.26704200  0.55083200  0.44684700  1
  O  O35  1  0.27883600  0.97411700  0.72432500  1
  O  O36  1  0.22084400  0.05218600  0.04891800  1
  O  O37  1  0.21714500  0.47583100  0.77096300  1
  O  O38  1  0.17817900  0.16149900  0.43686500  1
  O  O39  1  0.15675400  0.27339800  0.17902600  1
  O  O40  1  0.13781300  0.99328800  0.24163300  1
  O  O41  1  0.14434800  0.42340600  0.96947000  1
  O  O42  1  0.12611800  0.20425300  0.82991600  1
  O  O43  1  0.11020500  0.35365300  0.58324600  1
  O  O44  1  0.05699100  0.58152800  0.18560100  1
  O  O45  1  0.06949800  0.66806700  0.60030600  1
  O  O46  1  0.06480300  0.87595900  0.44963800  1
  O  O47  1  0.06274900  0.89785200  0.88792200  1
loop_
_geom_bond_atom_site_label_1
_geom_bond_atom_site_label_2
_geom_bond_distance
_geom_bond_site_symmetry_2
Li0 O14 1.954602 1_555
Li0 O3 2.019166 1_555
Li0 O7 2.044052 1_555
Li0 O15 2.047352 1_555
Li1 O18 2.027091 1_555
Li1 O21 2.030543 1_555
Li1 O9 2.046639 1_555
Li1 O8 2.048123 1_555
Li2 O24 1.942316 1_555
Li2 O10 1.968975 1_555
Li2 O17 1.988877 1_555
Li2 O29 2.009740 1_555
Li3 O40 1.987502 1_555
Li3 O33 2.000299 1_555
Li3 O32 2.041636 1_555
Li3 O44 2.087400 1_555
Li4 O35 1.962894 1_545
Li4 O42 1.979377 1_555
Li4 O1 1.993552 1_455
Li4 O7 2.104040 1_455
Li5 O2 1.981786 1_455
Li5 O44 2.014885 1_555
Li5 O4 2.020842 1_455
Li5 O34 2.053168 1_555
O0 P9 1.558722 1_655
O0 V0 1.917701 1_545
O1 P11 1.548353 1_655
O1 V3 1.969158 1_555
O2 P11 1.528529 1_655
O2 V2 2.100160 1_555
O3 P10 1.558070 1_655
O3 V1 2.009208 1_555
O4 P0 1.533956 1_555
O4 V2 2.012098 1_555
O5 P1 1.533227 1_555
O5 V0 1.968536 1_555
O6 P1 1.577430 1_555
O6 V1 1.846946 1_554
O7 P2 1.587154 1_545
O7 V3 2.035981 1_555
O8 P2 1.546169 1_555
O8 V1 2.047075 1_555
O9 P0 1.565394 1_555
O9 V3 1.997439 1_565
O10 P1 1.535741 1_555
O10 V2 2.140006 1_555
O11 P2 1.534525 1_555
O11 V0 1.995548 1_556
O12 P3 1.531513 1_555
O12 V0 1.986967 1_545
O13 P4 1.531864 1_555
O13 V2 1.957918 1_555
O14 P5 1.558713 1_555
O14 V1 1.986664 1_555
O15 P4 1.551052 1_555
O15 V3 2.043598 1_555
O16 P3 1.594944 1_555
O16 V3 1.804011 1_555
O17 P3 1.539740 1_555
O17 V2 2.039370 1_555
O18 P4 1.570701 1_555
O18 V1 1.942294 1_555
O19 P5 1.541545 1_554
O19 V0 1.917081 1_545
O20 P6 1.558529 1_555
O20 V0 1.928797 1_555
O21 P8 1.563542 1_555
O21 V3 1.960479 1_565
O22 P7 1.517956 1_555
O22 V2 2.028031 1_555
O23 P6 1.532642 1_556
O23 V1 1.927375 1_555
O24 P5 1.525403 1_554
O24 V6 2.014847 1_555
O25 P4 1.546050 1_555
O25 V5 1.966420 1_555
O26 P3 1.529717 1_555
O26 V4 1.926912 1_545
O27 P5 1.552305 1_555
O27 V7 1.923485 1_555
O28 P6 1.549760 1_556
O28 V7 1.888639 1_565
O29 P7 1.552296 1_555
O29 V6 2.028913 1_555
O30 P8 1.541402 1_555
O30 V5 1.987086 1_555
O31 P8 1.529417 1_555
O31 V4 1.919504 1_555
O32 P7 1.570290 1_555
O32 V4 1.966149 1_555
O33 P6 1.543110 1_555
O33 V6 2.048191 1_555
O34 P7 1.560408 1_555
O34 V5 2.032160 1_555
O35 P8 1.557060 1_555
O35 V7 2.061567 1_565
O36 P9 1.558006 1_555
O36 V7 1.920585 1_554
O37 P10 1.544605 1_555
O37 V5 1.937223 1_555
O38 P11 1.549150 1_555
O38 V4 1.882583 1_545
O39 P9 1.525899 1_555
O39 V6 2.004212 1_555
O40 P9 1.550734 1_565
O40 V4 1.993153 1_555
O41 P10 1.515703 1_555
O41 V6 1.934495 1_556
O42 P10 1.575184 1_555
O42 V7 2.045116 1_555
O43 P11 1.545050 1_555
O43 V5 1.926561 1_555
O44 P1 1.554829 1_455
O44 V6 2.093386 1_555
O45 P0 1.569294 1_455
O45 V5 1.931682 1_555
O46 P0 1.525147 1_455
O46 V4 1.935789 1_555
O47 P2 1.544912 1_455
O47 V7 1.982532 1_565
