# generated using pymatgen
data_Li2Mn3F8
_symmetry_space_group_name_H-M   'P 1'
_cell_length_a   5.44954500
_cell_length_b   6.55077900
_cell_length_c   9.50924900
_cell_angle_alpha   90.00000000
_cell_angle_beta   90.00000000
_cell_angle_gamma   90.00000000
_symmetry_Int_Tables_number   1
_chemical_formula_structural   Li2Mn3F8
_chemical_formula_sum   'Li4 Mn6 F16'
_cell_volume   339.46844486
_cell_formula_units_Z   2
loop_
 _symmetry_equiv_pos_site_id
 _symmetry_equiv_pos_as_xyz
  1  'x, y, z'
loop_
 _atom_site_type_symbol
 _atom_site_label
 _atom_site_symmetry_multiplicity
 _atom_site_fract_x
 _atom_site_fract_y
 _atom_site_fract_z
 _atom_site_occupancy
  Li  Li0  1  0.48448100  0.50000000  0.68160100  1
  Li  Li1  1  0.01551900  0.00000000  0.18160100  1
  Li  Li2  1  0.98448100  0.00000000  0.81839900  1
  Li  Li3  1  0.51551900  0.50000000  0.31839900  1
  Mn  Mn0  1  0.50000000  0.76466800  0.00000000  1
  Mn  Mn1  1  0.50000000  0.23533200  0.00000000  1
  Mn  Mn2  1  0.50000000  0.00000000  0.50000000  1
  Mn  Mn3  1  0.00000000  0.50000000  0.00000000  1
  Mn  Mn4  1  0.00000000  0.73533200  0.50000000  1
  Mn  Mn5  1  0.00000000  0.26466800  0.50000000  1
  F  F0  1  0.64779600  0.50000000  0.11864700  1
  F  F1  1  0.66805000  0.75551600  0.38608900  1
  F  F2  1  0.66805000  0.24448400  0.38608900  1
  F  F3  1  0.67571200  0.00000000  0.11545500  1
  F  F4  1  0.82428800  0.50000000  0.61545500  1
  F  F5  1  0.83195000  0.74448400  0.88608900  1
  F  F6  1  0.83195000  0.25551600  0.88608900  1
  F  F7  1  0.85220400  0.00000000  0.61864700  1
  F  F8  1  0.14779600  0.00000000  0.38135300  1
  F  F9  1  0.16805000  0.74448400  0.11391100  1
  F  F10  1  0.16805000  0.25551600  0.11391100  1
  F  F11  1  0.17571200  0.50000000  0.38454500  1
  F  F12  1  0.32428800  0.00000000  0.88454500  1
  F  F13  1  0.33195000  0.75551600  0.61391100  1
  F  F14  1  0.33195000  0.24448400  0.61391100  1
  F  F15  1  0.35220400  0.50000000  0.88135300  1
loop_
_geom_bond_atom_site_label_1
_geom_bond_atom_site_label_2
_geom_bond_distance
_geom_bond_site_symmetry_2
F0 Li3 2.031672 1_555
F0 Mn0 2.219828 1_555
F0 Mn1 2.219828 1_555
F0 Mn3 2.226397 1_655
F1 Li3 1.976604 1_555
F1 Mn4 2.112633 1_655
F1 Mn2 2.139397 1_565
F2 Li3 1.976604 1_555
F2 Mn5 2.112633 1_655
F2 Mn2 2.139397 1_555
F3 Li1 1.955704 1_655
F3 Mn0 2.121042 1_545
F3 Mn1 2.121042 1_555
F4 Li0 1.955704 1_555
F4 Mn5 2.121042 1_655
F4 Mn4 2.121042 1_655
F5 Li2 1.976604 1_565
F5 Mn0 2.112633 1_556
F5 Mn3 2.139397 1_656
F6 Li2 1.976604 1_555
F6 Mn1 2.112633 1_556
F6 Mn3 2.139397 1_656
F7 Li2 2.031672 1_555
F7 Mn5 2.219828 1_655
F7 Mn4 2.219828 1_645
F7 Mn2 2.226397 1_555
F8 Li1 2.031672 1_555
F8 Mn5 2.219828 1_555
F8 Mn4 2.219828 1_545
F8 Mn2 2.226397 1_555
F9 Li1 1.976604 1_565
F9 Mn0 2.112633 1_555
F9 Mn3 2.139397 1_555
F10 Li1 1.976604 1_555
F10 Mn1 2.112633 1_555
F10 Mn3 2.139397 1_555
F11 Li3 1.955704 1_555
F11 Mn5 2.121042 1_555
F11 Mn4 2.121042 1_555
F12 Li2 1.955704 1_455
F12 Mn0 2.121042 1_546
F12 Mn1 2.121042 1_556
F13 Li0 1.976604 1_555
F13 Mn4 2.112633 1_555
F13 Mn2 2.139397 1_565
F14 Li0 1.976604 1_555
F14 Mn5 2.112633 1_555
F14 Mn2 2.139397 1_555
F15 Li0 2.031672 1_555
F15 Mn1 2.219828 1_556
F15 Mn0 2.219828 1_556
F15 Mn3 2.226397 1_556
