# generated using pymatgen
data_Li5Fe5O12
_symmetry_space_group_name_H-M   'P 1'
_cell_length_a   5.09635800
_cell_length_b   5.10046960
_cell_length_c   19.71101770
_cell_angle_alpha   92.35133637
_cell_angle_beta   93.26650079
_cell_angle_gamma   119.51760116
_symmetry_Int_Tables_number   1
_chemical_formula_structural   Li5Fe5O12
_chemical_formula_sum   'Li10 Fe10 O24'
_cell_volume   443.72733043
_cell_formula_units_Z   2
loop_
 _symmetry_equiv_pos_site_id
 _symmetry_equiv_pos_as_xyz
  1  'x, y, z'
loop_
 _atom_site_type_symbol
 _atom_site_label
 _atom_site_symmetry_multiplicity
 _atom_site_fract_x
 _atom_site_fract_y
 _atom_site_fract_z
 _atom_site_occupancy
  Li  Li0  1  0.00854300  0.51188600  0.50225800  1
  Li  Li1  1  0.35076300  0.16353400  0.50218700  1
  Li  Li2  1  0.37774300  0.87368100  0.62506400  1
  Li  Li3  1  0.09504900  0.90605600  0.74736500  1
  Li  Li4  1  0.50345200  0.01620400  0.00246800  1
  Li  Li5  1  0.74582600  0.24440400  0.74770300  1
  Li  Li6  1  0.87287500  0.37579800  0.12506700  1
  Li  Li7  1  0.58728200  0.40130800  0.24755800  1
  Li  Li8  1  0.23992600  0.73765200  0.24810500  1
  Li  Li9  1  0.15520400  0.34351400  0.00261200  1
  Fe  Fe0  1  0.46104400  0.28887000  0.87518200  1
  Fe  Fe1  1  0.12733800  0.62418300  0.87493500  1
  Fe  Fe2  1  0.79276200  0.95913200  0.87498100  1
  Fe  Fe3  1  0.70876800  0.54181000  0.62497100  1
  Fe  Fe4  1  0.04517100  0.20560900  0.62510400  1
  Fe  Fe5  1  0.95983100  0.79170100  0.37483300  1
  Fe  Fe6  1  0.62830600  0.12286600  0.37497700  1
  Fe  Fe7  1  0.29012000  0.46153200  0.37499800  1
  Fe  Fe8  1  0.20720600  0.04599400  0.12493200  1
  Fe  Fe9  1  0.55439100  0.71784700  0.12478800  1
  O  O0  1  0.79648900  0.60557100  0.82223300  1
  O  O1  1  0.45720900  0.64213900  0.92810500  1
  O  O2  1  0.81176900  0.29868000  0.93216000  1
  O  O3  1  0.34051200  0.48289900  0.57284600  1
  O  O4  1  0.29752800  0.10760500  0.32038000  1
  O  O5  1  0.41170500  0.25916100  0.67818300  1
  O  O6  1  0.01673300  0.54166100  0.67944900  1
  O  O7  1  0.97466100  0.14923400  0.42819700  1
  O  O8  1  0.29822600  0.80919700  0.43258000  1
  O  O9  1  0.44290000  0.94959600  0.81787800  1
  O  O10  1  0.09858200  0.26832600  0.82003000  1
  O  O11  1  0.85777700  0.01059800  0.07353900  1
  O  O12  1  0.70888500  0.23602100  0.57066800  1
  O  O13  1  0.89403300  0.74650400  0.17565100  1
  O  O14  1  0.99033600  0.84177000  0.57225200  1
  O  O15  1  0.15532400  0.97869200  0.92955300  1
  O  O16  1  0.50902000  0.04105500  0.18041100  1
  O  O17  1  0.76928600  0.90908600  0.67716000  1
  O  O18  1  0.94100300  0.45480700  0.31735400  1
  O  O19  1  0.60134100  0.77800400  0.32176100  1
  O  O20  1  0.23320600  0.72239700  0.07147800  1
  O  O21  1  0.46969700  0.32609400  0.06954500  1
  O  O22  1  0.64485600  0.45274500  0.42940200  1
  O  O23  1  0.26956600  0.40651700  0.17862600  1
loop_
_geom_bond_atom_site_label_1
_geom_bond_atom_site_label_2
_geom_bond_distance
_geom_bond_site_symmetry_2
Li0 O12 2.098391 1_455
Li0 O8 2.135728 1_555
Li0 O22 2.167686 1_455
Li0 O14 2.172792 1_455
Li0 O3 2.194343 1_555
Li0 O7 2.239920 1_455
Li1 O12 2.074409 1_555
Li1 O8 2.120912 1_545
Li1 O3 2.121758 1_555
Li1 O22 2.172728 1_555
Li1 O7 2.311100 1_455
Li1 O14 2.340794 1_445
Li2 O14 2.107954 1_455
Li2 O17 2.113068 1_555
Li2 O5 2.113527 1_565
Li2 O3 2.122470 1_555
Li2 O6 2.169222 1_555
Li2 O12 2.169944 1_565
Li3 O6 2.099935 1_555
Li3 O9 2.104701 1_555
Li3 O17 2.106342 1_455
Li3 O0 2.232806 1_455
Li3 O10 2.283221 1_565
Li3 O5 2.301264 1_565
Li4 O20 2.083231 1_545
Li4 O21 2.097215 1_555
Li4 O15 2.145302 1_544
Li4 O2 2.155583 1_554
Li4 O11 2.233823 1_555
Li4 O1 2.265443 1_544
Li5 O6 2.081165 1_655
Li5 O5 2.156800 1_555
Li5 O9 2.164312 1_545
Li5 O10 2.181013 1_655
Li5 O0 2.210037 1_555
Li5 O17 2.213159 1_545
Li6 O11 2.049818 1_555
Li6 O13 2.052547 1_555
Li6 O23 2.158082 1_655
Li6 O21 2.166011 1_555
Li6 O20 2.188280 1_655
Li6 O16 2.192548 1_555
Li7 O23 2.064764 1_555
Li7 O16 2.074902 1_555
Li7 O18 2.102069 1_555
Li7 O4 2.173307 1_555
Li7 O13 2.301702 1_555
Li7 O19 2.336172 1_555
Li8 O16 2.083900 1_565
Li8 O18 2.120870 1_455
Li8 O23 2.199105 1_555
Li8 O19 2.199993 1_555
Li8 O4 2.205030 1_565
Li8 O13 2.223936 1_455
Li9 O21 2.055803 1_555
Li9 O2 2.084881 1_454
Li9 O20 2.168266 1_555
Li9 O1 2.230865 1_554
Li9 O11 2.243994 1_455
Li9 O15 2.305988 1_544
Fe0 O9 1.987181 1_545
Fe0 O15 1.994871 1_545
Fe0 O2 2.034013 1_555
Fe0 O10 2.043557 1_555
Fe0 O1 2.053775 1_555
Fe0 O0 2.059526 1_555
Fe1 O0 1.888314 1_455
Fe1 O1 1.890138 1_555
Fe1 O15 2.004360 1_555
Fe1 O10 2.011395 1_555
Fe1 O9 2.082079 1_555
Fe1 O2 2.084340 1_455
Fe2 O2 1.985208 1_565
Fe2 O10 1.999981 1_665
Fe2 O9 2.032181 1_555
Fe2 O15 2.040644 1_655
Fe2 O0 2.053172 1_555
Fe2 O1 2.062400 1_555
Fe3 O6 1.850835 1_655
Fe3 O12 1.855332 1_555
Fe3 O14 1.901771 1_555
Fe3 O5 1.903900 1_555
Fe3 O3 1.966572 1_555
Fe3 O17 1.974571 1_555
Fe4 O17 1.874417 1_445
Fe4 O3 1.877600 1_555
Fe4 O14 1.975942 1_445
Fe4 O5 1.977289 1_555
Fe4 O12 2.044172 1_455
Fe4 O6 2.053815 1_555
Fe5 O8 1.973341 1_655
Fe5 O18 1.977585 1_555
Fe5 O19 2.021768 1_555
Fe5 O7 2.033549 1_565
Fe5 O4 2.080875 1_665
Fe5 O22 2.082619 1_555
Fe6 O4 1.913914 1_555
Fe6 O22 1.921102 1_555
Fe6 O7 1.943647 1_555
Fe6 O19 1.951176 1_545
Fe6 O8 2.096019 1_545
Fe6 O18 2.097982 1_555
Fe7 O7 2.006799 1_455
Fe7 O19 2.007043 1_555
Fe7 O18 2.040613 1_455
Fe7 O8 2.047362 1_555
Fe7 O22 2.069583 1_555
Fe7 O4 2.081223 1_555
Fe8 O16 1.846929 1_555
Fe8 O21 1.853014 1_555
Fe8 O11 1.921638 1_455
Fe8 O13 1.945491 1_445
Fe8 O23 1.956675 1_555
Fe8 O20 1.985084 1_545
Fe9 O13 1.887736 1_555
Fe9 O20 1.904595 1_555
Fe9 O11 1.915057 1_565
Fe9 O23 1.948652 1_555
Fe9 O16 2.056530 1_565
Fe9 O21 2.069436 1_555
