# generated using pymatgen
data_Na5Bi2As(CO4)4
_symmetry_space_group_name_H-M   'P 1'
_cell_length_a   10.53316054
_cell_length_b   10.50969624
_cell_length_c   10.41584421
_cell_angle_alpha   60.44362348
_cell_angle_beta   60.21931915
_cell_angle_gamma   59.33705736
_symmetry_Int_Tables_number   1
_chemical_formula_structural   Na5Bi2As(CO4)4
_chemical_formula_sum   'Na10 Bi4 As2 C8 O32'
_cell_volume   815.15144693
_cell_formula_units_Z   2
loop_
 _symmetry_equiv_pos_site_id
 _symmetry_equiv_pos_as_xyz
  1  'x, y, z'
loop_
 _atom_site_type_symbol
 _atom_site_label
 _atom_site_symmetry_multiplicity
 _atom_site_fract_x
 _atom_site_fract_y
 _atom_site_fract_z
 _atom_site_occupancy
  Na  Na0  1  0.82149000  0.42255800  0.56809400  1
  Na  Na1  1  0.06339300  0.68208800  0.42736100  1
  Na  Na2  1  0.68208800  0.06339300  0.82715800  1
  Na  Na3  1  0.06214200  0.68190600  0.82744200  1
  Na  Na4  1  0.82263900  0.42284200  0.18660700  1
  Na  Na5  1  0.42255800  0.82149000  0.18785800  1
  Na  Na6  1  0.42284200  0.82263900  0.56791200  1
  Na  Na7  1  0.68128300  0.68128300  0.81871700  1
  Na  Na8  1  0.68190600  0.06214200  0.42851000  1
  Na  Na9  1  0.43128300  0.43128300  0.56871700  1
  Bi  Bi0  1  0.75323900  0.24187100  0.00364700  1
  Bi  Bi1  1  0.24635300  0.24875700  0.49676100  1
  Bi  Bi2  1  0.24187100  0.75323900  0.00124300  1
  Bi  Bi3  1  0.24875700  0.24635300  0.00812900  1
  As  As0  1  0.87465200  0.87465200  0.62534800  1
  As  As1  1  0.62465200  0.62465200  0.37534800  1
  C  C0  1  0.47537100  0.08708100  0.21733000  1
  C  C1  1  0.08708100  0.47537100  0.22021800  1
  C  C2  1  0.46989900  0.47112200  0.22158200  1
  C  C3  1  0.47112200  0.46989900  0.83739700  1
  C  C4  1  0.03267000  0.02978200  0.77462900  1
  C  C5  1  0.02978200  0.03267000  0.16291900  1
  C  C6  1  0.02841800  0.41260300  0.78010100  1
  C  C7  1  0.41260300  0.02841800  0.77887800  1
  O  O0  1  0.90163300  0.14813900  0.78393600  1
  O  O1  1  0.36170600  0.07804000  0.20847800  1
  O  O2  1  0.07804000  0.36170600  0.35177600  1
  O  O3  1  0.04095100  0.41448300  0.64789500  1
  O  O4  1  0.08370800  0.46606400  0.10186100  1
  O  O5  1  0.80657500  0.80567100  0.55888900  1
  O  O6  1  0.80567100  0.80657500  0.82886500  1
  O  O7  1  0.09947300  0.59819100  0.20840100  1
  O  O8  1  0.59819100  0.09947300  0.09393500  1
  O  O9  1  0.35407200  0.45853500  0.35224600  1
  O  O10  1  0.45853500  0.35407200  0.83514700  1
  O  O11  1  0.79062100  0.07482000  0.56713000  1
  O  O12  1  0.07482000  0.79062100  0.56742800  1
  O  O13  1  0.04152200  0.89822400  0.88829400  1
  O  O14  1  0.89822400  0.04152200  0.17196000  1
  O  O15  1  0.35333000  0.60210500  0.83551700  1
  O  O16  1  0.14813900  0.90163300  0.16629200  1
  O  O17  1  0.60058000  0.45569100  0.83886900  1
  O  O18  1  0.45569100  0.60058000  0.10486100  1
  O  O19  1  0.69111100  0.42113500  0.44342500  1
  O  O20  1  0.42113500  0.69111100  0.44432900  1
  O  O21  1  0.04159900  0.15606500  0.15052700  1
  O  O22  1  0.15606500  0.04159900  0.65180900  1
  O  O23  1  0.89775400  0.41485300  0.89592800  1
  O  O24  1  0.41485300  0.89775400  0.79146500  1
  O  O25  1  0.68257200  0.68287000  0.17517900  1
  O  O26  1  0.68287000  0.68257200  0.45937900  1
  O  O27  1  0.41448300  0.04095100  0.89667000  1
  O  O28  1  0.46606400  0.08370800  0.34836700  1
  O  O29  1  0.41113100  0.14513900  0.64942000  1
  O  O30  1  0.14513900  0.41113100  0.79430900  1
  O  O31  1  0.60210500  0.35333000  0.20904900  1
loop_
_geom_bond_atom_site_label_1
_geom_bond_atom_site_label_2
_geom_bond_distance
_geom_bond_site_symmetry_2
Na0 O19 2.320328 1_555
Na0 O26 2.324126 1_555
Na0 O2 2.529551 1_655
Na0 O0 2.662699 1_555
Na0 O17 2.667095 1_555
Na0 O3 2.771395 1_655
Na1 O5 2.317724 1_455
Na1 O12 2.323836 1_555
Na1 O7 2.627621 1_555
Na1 O3 2.647147 1_555
Na1 O16 2.648518 1_555
Na1 O9 2.757401 1_555
Na2 O6 2.317724 1_545
Na2 O11 2.323845 1_555
Na2 O8 2.627621 1_556
Na2 O27 2.647150 1_555
Na2 O0 2.648518 1_555
Na2 O10 2.757401 1_555
Na3 O6 2.320328 1_455
Na3 O12 2.324129 1_555
Na3 O13 2.529551 1_555
Na3 O4 2.662699 1_556
Na3 O30 2.667098 1_555
Na3 O15 2.771405 1_555
Na4 O19 2.317724 1_555
Na4 O25 2.323842 1_555
Na4 O21 2.627621 1_655
Na4 O31 2.647140 1_555
Na4 O4 2.648518 1_655
Na4 O23 2.757401 1_554
Na5 O20 2.320328 1_555
Na5 O25 2.324126 1_555
Na5 O1 2.529551 1_565
Na5 O16 2.662699 1_555
Na5 O18 2.667088 1_555
Na5 O27 2.771402 1_564
Na6 O20 2.317724 1_555
Na6 O26 2.323842 1_555
Na6 O22 2.627621 1_565
Na6 O15 2.647145 1_555
Na6 O28 2.648518 1_565
Na6 O24 2.757401 1_555
Na7 O5 2.344417 1_555
Na7 O6 2.344417 1_555
Na7 O23 2.602712 1_555
Na7 O24 2.602712 1_555
Na7 O17 2.788421 1_555
Na7 O18 2.788426 1_556
Na8 O5 2.320328 1_545
Na8 O11 2.324120 1_555
Na8 O14 2.529551 1_555
Na8 O28 2.662699 1_555
Na8 O29 2.667093 1_555
Na8 O31 2.771400 1_555
Na9 O20 2.344417 1_555
Na9 O19 2.344417 1_555
Na9 O10 2.602712 1_555
Na9 O9 2.602712 1_555
Na9 O30 2.788428 1_555
Na9 O29 2.788431 1_555
Bi0 O8 2.317332 1_555
Bi0 O14 2.361597 1_555
Bi0 O31 2.381343 1_555
Bi0 O0 2.398115 1_554
Bi0 O17 2.414951 1_554
Bi0 O23 2.448418 1_554
Bi1 O22 2.317332 1_555
Bi1 O2 2.361597 1_555
Bi1 O3 2.381337 1_555
Bi1 O28 2.398115 1_555
Bi1 O29 2.414948 1_555
Bi1 O9 2.448418 1_555
Bi2 O7 2.317332 1_555
Bi2 O13 2.361597 1_554
Bi2 O15 2.381335 1_554
Bi2 O16 2.398115 1_555
Bi2 O18 2.414957 1_555
Bi2 O24 2.448418 1_554
Bi3 O21 2.317332 1_555
Bi3 O1 2.361597 1_555
Bi3 O27 2.381343 1_554
Bi3 O4 2.398115 1_555
Bi3 O30 2.414956 1_554
Bi3 O10 2.448418 1_554
As0 O12 1.718180 1_655
As0 O11 1.718180 1_565
As0 O6 1.742800 1_555
As0 O5 1.742800 1_555
As1 O26 1.718188 1_555
As1 O25 1.718188 1_555
As1 O20 1.742800 1_555
As1 O19 1.742800 1_555
C0 O1 1.298180 1_555
C0 O28 1.302541 1_555
C0 O8 1.302882 1_555
C1 O2 1.298180 1_555
C1 O4 1.302541 1_555
C1 O7 1.302882 1_555
C2 O18 1.301060 1_555
C2 O9 1.302232 1_555
C2 O31 1.307393 1_555
C3 O17 1.301065 1_555
C3 O10 1.302232 1_555
C3 O15 1.307393 1_555
C4 O13 1.298180 1_545
C4 O0 1.302541 1_455
C4 O22 1.302882 1_555
C5 O14 1.298180 1_455
C5 O16 1.302541 1_545
C5 O21 1.302882 1_555
C6 O30 1.301054 1_555
C6 O23 1.302232 1_455
C6 O3 1.307397 1_555
C7 O29 1.301060 1_555
C7 O24 1.302232 1_545
C7 O27 1.307387 1_555
