# generated using pymatgen
data_BaYF5
_symmetry_space_group_name_H-M   'P 1'
_cell_length_a   6.41871025
_cell_length_b   6.41871025
_cell_length_c   8.70208277
_cell_angle_alpha   69.59631461
_cell_angle_beta   69.59631461
_cell_angle_gamma   71.50294070
_symmetry_Int_Tables_number   1
_chemical_formula_structural   BaYF5
_chemical_formula_sum   'Ba2 Y2 F10'
_cell_volume   307.03197205
_cell_formula_units_Z   2
loop_
 _symmetry_equiv_pos_site_id
 _symmetry_equiv_pos_as_xyz
  1  'x, y, z'
loop_
 _atom_site_type_symbol
 _atom_site_label
 _atom_site_symmetry_multiplicity
 _atom_site_fract_x
 _atom_site_fract_y
 _atom_site_fract_z
 _atom_site_occupancy
  Ba  Ba0  1  0.54224900  0.45775100  0.25000000  1
  Ba  Ba1  1  0.45775100  0.54224900  0.75000000  1
  Y  Y0  1  0.00000000  0.00000000  0.00000000  1
  Y  Y1  1  0.00000000  0.00000000  0.50000000  1
  F  F0  1  0.79479600  0.74951200  0.11877200  1
  F  F1  1  0.28028900  0.69691200  0.47271700  1
  F  F2  1  0.74951200  0.79479500  0.61877200  1
  F  F3  1  0.92552100  0.07447900  0.25000000  1
  F  F4  1  0.30308800  0.71971100  0.02728300  1
  F  F5  1  0.69691200  0.28028900  0.97271700  1
  F  F6  1  0.07447900  0.92552100  0.75000000  1
  F  F7  1  0.25048800  0.20520500  0.38122800  1
  F  F8  1  0.71971100  0.30308800  0.52728300  1
  F  F9  1  0.20520400  0.25048800  0.88122800  1
loop_
_geom_bond_atom_site_label_1
_geom_bond_atom_site_label_2
_geom_bond_distance
_geom_bond_site_symmetry_2
Ba0 F7 2.565776 1_555
Ba0 F0 2.565781 1_555
Ba0 F1 2.665424 1_555
Ba0 F4 2.665424 1_555
Ba0 F5 2.762970 1_554
Ba0 F8 2.762970 1_555
Ba0 F3 2.874742 1_555
Ba1 F2 2.565776 1_555
Ba1 F9 2.565781 1_555
Ba1 F8 2.665424 1_555
Ba1 F5 2.665424 1_555
Ba1 F4 2.762970 1_556
Ba1 F1 2.762970 1_555
Ba1 F6 2.874742 1_555
F0 Y0 2.150343 1_665
F1 Y1 2.209353 1_565
F2 Y1 2.150348 1_665
F3 Y0 2.246099 1_655
F3 Y1 2.246099 1_655
F4 Y0 2.209353 1_565
F5 Y0 2.209353 1_656
F6 Y1 2.246099 1_565
F6 Y0 2.246099 1_566
F7 Y1 2.150348 1_555
F8 Y1 2.209353 1_655
F9 Y0 2.150343 1_556
