# generated using pymatgen
data_LiMnO2
_symmetry_space_group_name_H-M   'P 1'
_cell_length_a   5.94467900
_cell_length_b   5.99346004
_cell_length_c   14.60724654
_cell_angle_alpha   91.11519273
_cell_angle_beta   89.90918413
_cell_angle_gamma   119.56442963
_symmetry_Int_Tables_number   1
_chemical_formula_structural   LiMnO2
_chemical_formula_sum   'Li12 Mn12 O24'
_cell_volume   452.57833650
_cell_formula_units_Z   12
loop_
 _symmetry_equiv_pos_site_id
 _symmetry_equiv_pos_as_xyz
  1  'x, y, z'
loop_
 _atom_site_type_symbol
 _atom_site_label
 _atom_site_symmetry_multiplicity
 _atom_site_fract_x
 _atom_site_fract_y
 _atom_site_fract_z
 _atom_site_occupancy
  Li  Li0  1  0.69070200  0.83237200  0.17215800  1
  Li  Li1  1  0.17630900  0.33942100  0.16612300  1
  Li  Li2  1  0.49248600  0.99417500  0.50076900  1
  Li  Li3  1  0.16059400  0.33201700  0.66633600  1
  Li  Li4  1  0.19923700  0.85099800  0.15886700  1
  Li  Li5  1  0.97719400  0.48416800  0.50087700  1
  Li  Li6  1  0.83155100  0.17958600  0.83090900  1
  Li  Li7  1  0.83460500  0.66576200  0.33376100  1
  Li  Li8  1  0.50787200  0.00782400  0.99830200  1
  Li  Li9  1  0.83329400  0.67174100  0.83168400  1
  Li  Li10  1  0.47573400  0.48341900  0.50884600  1
  Li  Li11  1  0.32820300  0.18061600  0.82461500  1
  Mn  Mn0  1  0.33377700  0.66754200  0.33339200  1
  Mn  Mn1  1  0.33688400  0.67737200  0.83175300  1
  Mn  Mn2  1  0.00436700  0.00601500  0.99867200  1
  Mn  Mn3  1  0.67607200  0.33864600  0.16644500  1
  Mn  Mn4  1  0.99078700  0.98994300  0.50038000  1
  Mn  Mn5  1  0.66345300  0.33195800  0.66647900  1
  Mn  Mn6  1  0.66351500  0.83248600  0.66660700  1
  Mn  Mn7  1  0.00611900  0.50695500  0.99962800  1
  Mn  Mn8  1  0.16264800  0.83170000  0.66557400  1
  Mn  Mn9  1  0.33416300  0.16755200  0.33261500  1
  Mn  Mn10  1  0.50519800  0.50593300  0.99978800  1
  Mn  Mn11  1  0.83447400  0.16678300  0.33275800  1
  O  O0  1  0.98647400  0.97796800  0.73842400  1
  O  O1  1  0.68737000  0.86451700  0.41034300  1
  O  O2  1  0.64655800  0.80920300  0.91981900  1
  O  O3  1  0.50207900  0.51914000  0.74814700  1
  O  O4  1  0.32554000  0.65010900  0.07199100  1
  O  O5  1  0.01281300  0.02466700  0.25996200  1
  O  O6  1  0.13841900  0.33690000  0.41339900  1
  O  O7  1  0.51023100  0.02731200  0.75379300  1
  O  O8  1  0.14085100  0.33563300  0.91874300  1
  O  O9  1  0.34240900  0.68681000  0.59404100  1
  O  O10  1  0.85305900  0.20302000  0.07734400  1
  O  O11  1  0.98240200  0.46965400  0.25464500  1
  O  O12  1  0.17296900  0.86058400  0.41132500  1
  O  O13  1  0.15946600  0.81042900  0.92229800  1
  O  O14  1  0.82126900  0.14225400  0.58555300  1
  O  O15  1  0.01954800  0.52778000  0.74784300  1
  O  O16  1  0.87248600  0.67956300  0.08171700  1
  O  O17  1  0.52992700  0.99587900  0.25054300  1
  O  O18  1  0.65560300  0.30801300  0.40334700  1
  O  O19  1  0.68740500  0.36452000  0.92938900  1
  O  O20  1  0.81192400  0.63685900  0.57894700  1
  O  O21  1  0.36309700  0.19891300  0.08087800  1
  O  O22  1  0.49861500  0.47789800  0.25245200  1
  O  O23  1  0.30703400  0.14017000  0.58352300  1
loop_
_geom_bond_atom_site_label_1
_geom_bond_atom_site_label_2
_geom_bond_distance
_geom_bond_site_symmetry_2
Li0 O17 2.015422 1_555
Li0 O5 2.100572 1_665
Li0 O16 2.162617 1_555
Li0 O22 2.211774 1_555
Li0 O4 2.377862 1_555
Li0 O10 2.405063 1_565
Li1 O22 2.085139 1_555
Li1 O21 2.090508 1_555
Li1 O11 2.110421 1_455
Li1 O10 2.111656 1_455
Li1 O4 2.147260 1_555
Li1 O5 2.160882 1_555
Li2 O23 2.085379 1_565
Li2 O14 2.096354 1_565
Li2 O12 2.102930 1_555
Li2 O9 2.125524 1_555
Li2 O1 2.129407 1_555
Li2 O18 2.191669 1_565
Li3 O15 2.100103 1_555
Li3 O14 2.108638 1_455
Li3 O23 2.115070 1_555
Li3 O3 2.125028 1_555
Li3 O0 2.144550 1_445
Li3 O9 2.149636 1_555
Li4 O16 2.022662 1_455
Li4 O4 2.110311 1_555
Li4 O21 2.163174 1_565
Li4 O17 2.165740 1_555
Li4 O5 2.359152 1_565
Li4 O11 2.460535 1_455
Li5 O20 1.986533 1_555
Li5 O6 2.029153 1_655
Li5 O18 2.181151 1_555
Li5 O14 2.192962 1_555
Li5 O9 2.320267 1_655
Li5 O12 2.382098 1_655
Li6 O7 1.999248 1_555
Li6 O8 2.040936 1_655
Li6 O15 2.206608 1_655
Li6 O19 2.214372 1_555
Li6 O0 2.272481 1_545
Li6 O2 2.350021 1_545
Li7 O12 2.081134 1_655
Li7 O22 2.098580 1_555
Li7 O1 2.100097 1_555
Li7 O11 2.109967 1_555
Li7 O18 2.143086 1_555
Li7 O5 2.179318 1_665
Li8 O2 2.079297 1_545
Li8 O21 2.103075 1_556
Li8 O13 2.111895 1_545
Li8 O10 2.120965 1_556
Li8 O19 2.133438 1_555
Li8 O4 2.173236 1_546
Li9 O15 2.089870 1_655
Li9 O3 2.095100 1_555
Li9 O2 2.103607 1_555
Li9 O0 2.120775 1_555
Li9 O13 2.139492 1_655
Li9 O19 2.168417 1_555
Li10 O20 2.011118 1_555
Li10 O23 2.115627 1_555
Li10 O9 2.134034 1_555
Li10 O6 2.226990 1_555
Li10 O18 2.379990 1_555
Li10 O1 2.481272 1_555
Li11 O7 2.006483 1_555
Li11 O3 2.108951 1_555
Li11 O0 2.168166 1_445
Li11 O8 2.227255 1_555
Li11 O19 2.395624 1_555
Li11 O13 2.426379 1_545
Mn0 O6 2.111024 1_555
Mn0 O17 2.126181 1_555
Mn0 O1 2.140709 1_555
Mn0 O12 2.141286 1_555
Mn0 O11 2.145402 1_455
Mn0 O22 2.166357 1_555
Mn1 O15 2.039712 1_555
Mn1 O2 2.049554 1_555
Mn1 O3 2.055570 1_555
Mn1 O13 2.069337 1_555
Mn1 O7 2.171194 1_565
Mn1 O8 2.215636 1_555
Mn2 O8 2.104594 1_555
Mn2 O13 2.116892 1_545
Mn2 O16 2.118967 1_446
Mn2 O10 2.125034 1_456
Mn2 O2 2.172889 1_445
Mn2 O21 2.201680 1_556
Mn3 O11 2.037063 1_555
Mn3 O21 2.038195 1_555
Mn3 O22 2.052215 1_555
Mn3 O10 2.064007 1_555
Mn3 O16 2.193087 1_555
Mn3 O17 2.194961 1_545
Mn4 O23 2.028381 1_665
Mn4 O1 2.044320 1_555
Mn4 O12 2.061818 1_655
Mn4 O14 2.063092 1_565
Mn4 O20 2.190021 1_555
Mn4 O6 2.237662 1_665
Mn5 O7 2.058153 1_555
Mn5 O20 2.061315 1_555
Mn5 O14 2.137061 1_555
Mn5 O3 2.146694 1_555
Mn5 O15 2.184751 1_655
Mn5 O23 2.197614 1_555
Mn6 O9 1.963522 1_555
Mn6 O0 1.966111 1_555
Mn6 O14 2.022889 1_565
Mn6 O3 2.042439 1_555
Mn6 O20 2.179775 1_555
Mn6 O7 2.191837 1_565
Mn7 O19 1.935752 1_455
Mn7 O4 1.955111 1_556
Mn7 O8 1.962942 1_555
Mn7 O13 1.963601 1_555
Mn7 O10 1.968893 1_456
Mn7 O16 1.974541 1_456
Mn8 O0 1.965679 1_455
Mn8 O9 1.965897 1_555
Mn8 O15 2.009639 1_555
Mn8 O23 2.026906 1_565
Mn8 O20 2.204564 1_455
Mn8 O7 2.205375 1_565
Mn9 O18 1.952579 1_555
Mn9 O5 1.966131 1_555
Mn9 O12 1.991011 1_545
Mn9 O22 2.018264 1_555
Mn9 O6 2.211609 1_555
Mn9 O17 2.231454 1_545
Mn10 O19 1.953849 1_555
Mn10 O4 1.967576 1_556
Mn10 O2 1.986644 1_555
Mn10 O21 2.012562 1_556
Mn10 O8 2.216768 1_555
Mn10 O16 2.236086 1_556
Mn11 O18 1.939352 1_555
Mn11 O5 1.957663 1_655
Mn11 O6 1.958034 1_655
Mn11 O1 1.960743 1_545
Mn11 O11 1.967882 1_555
Mn11 O17 1.974376 1_545
