# generated using pymatgen
data_LiV4O5F7
_symmetry_space_group_name_H-M   'P 1'
_cell_length_a   5.37839200
_cell_length_b   9.05466981
_cell_length_c   9.14750037
_cell_angle_alpha   69.11177065
_cell_angle_beta   88.13608500
_cell_angle_gamma   87.46474027
_symmetry_Int_Tables_number   1
_chemical_formula_structural   LiV4O5F7
_chemical_formula_sum   'Li2 V8 O10 F14'
_cell_volume   415.72699706
_cell_formula_units_Z   2
loop_
 _symmetry_equiv_pos_site_id
 _symmetry_equiv_pos_as_xyz
  1  'x, y, z'
loop_
 _atom_site_type_symbol
 _atom_site_label
 _atom_site_symmetry_multiplicity
 _atom_site_fract_x
 _atom_site_fract_y
 _atom_site_fract_z
 _atom_site_occupancy
  Li  Li0  1  0.06314900  0.13573400  0.62619700  1
  Li  Li1  1  0.45406100  0.11319100  0.10504000  1
  V  V0  1  0.02480000  0.98056800  0.99935400  1
  V  V1  1  0.00643800  0.75537400  0.76792600  1
  V  V2  1  0.53067700  0.98252200  0.49805800  1
  V  V3  1  0.50151300  0.26825800  0.72638900  1
  V  V4  1  0.96738700  0.49611200  0.50828700  1
  V  V5  1  0.50631500  0.75365400  0.26853500  1
  V  V6  1  0.99250600  0.26859300  0.22669800  1
  V  V7  1  0.46710600  0.49481200  0.00822200  1
  O  O0  1  0.20691700  0.62563200  0.91706700  1
  O  O1  1  0.99585800  0.93267900  0.81328100  1
  O  O2  1  0.78313900  0.87583300  0.58159000  1
  O  O3  1  0.29794600  0.36977600  0.58872000  1
  O  O4  1  0.49755000  0.92954600  0.31321300  1
  O  O5  1  0.81944900  0.31780400  0.62541000  1
  O  O6  1  0.70593100  0.62422300  0.41943300  1
  O  O7  1  0.28478600  0.87966000  0.08030500  1
  O  O8  1  0.31355300  0.32033900  0.12266700  1
  O  O9  1  0.79819400  0.37518200  0.08620000  1
  F  F0  1  0.21079300  0.17350800  0.87943900  1
  F  F1  1  0.70613200  0.66538400  0.88634000  1
  F  F2  1  0.28938100  0.82451200  0.61787500  1
  F  F3  1  0.51675600  0.42770200  0.82464500  1
  F  F4  1  0.69330200  0.12355600  0.93048000  1
  F  F5  1  0.48040000  0.07608900  0.67090200  1
  F  F6  1  0.98593200  0.58514400  0.67264000  1
  F  F7  1  0.20585500  0.66424300  0.38689400  1
  F  F8  1  0.19861300  0.12614000  0.42738900  1
  F  F9  1  0.70825800  0.17460000  0.37716200  1
  F  F10  1  0.48266200  0.58564800  0.17225200  1
  F  F11  1  0.79223500  0.82001800  0.11943500  1
  F  F12  1  0.01425900  0.42735800  0.32610700  1
  F  F13  1  0.00274300  0.07660300  0.17123700  1
loop_
_geom_bond_atom_site_label_1
_geom_bond_atom_site_label_2
_geom_bond_distance
_geom_bond_site_symmetry_2
Li0 O1 2.053043 1_445
Li0 O5 2.058358 1_455
Li0 O3 2.427693 1_555
Li1 O4 2.045127 1_545
Li1 O8 2.048785 1_555
Li1 O7 2.424101 1_545
O0 V1 1.801305 1_555
O0 V7 1.811533 1_556
O1 V1 1.793921 1_655
O1 V0 1.912832 1_655
O2 V2 1.669098 1_555
O2 V1 2.056437 1_655
O3 V3 1.674745 1_555
O3 V4 2.077439 1_455
O4 V5 1.778208 1_555
O4 V2 1.930391 1_555
O5 V4 1.792299 1_555
O5 V3 1.910015 1_555
O6 V4 1.800383 1_555
O6 V5 1.806373 1_555
O7 V0 1.676391 1_554
O7 V5 2.073252 1_555
O8 V7 1.775839 1_555
O8 V6 1.937370 1_455
O9 V6 1.670048 1_555
O9 V7 2.052832 1_555
F0 V0 1.993155 1_545
F0 V3 2.064156 1_555
F0 Li1 2.361711 1_556
F1 V1 1.954288 1_655
F1 V7 2.033628 1_556
F2 V2 1.971301 1_555
F2 V1 1.981763 1_555
F3 V3 1.959449 1_555
F3 V7 1.986111 1_556
F4 Li1 1.996091 1_556
F4 V3 2.127802 1_555
F4 V0 2.130543 1_645
F5 V3 1.987267 1_555
F5 V2 2.048872 1_545
F5 Li0 2.300011 1_555
F6 V4 1.949675 1_555
F6 V1 2.031521 1_655
F7 V5 1.953447 1_555
F7 V4 2.017498 1_455
F8 Li0 1.966349 1_555
F8 V2 2.137483 1_545
F8 V6 2.140123 1_455
F9 V2 1.966405 1_545
F9 V6 2.024564 1_555
F10 V7 1.956828 1_555
F10 V5 2.021361 1_555
F11 V0 1.953781 1_654
F11 V5 1.986698 1_555
F12 V6 1.964986 1_455
F12 V4 1.981642 1_455
F13 V6 1.975119 1_455
F13 V0 2.048423 1_544
F13 Li1 2.490182 1_555
