# generated using pymatgen
data_Li4CoO4
_symmetry_space_group_name_H-M   'P 1'
_cell_length_a   6.31184900
_cell_length_b   6.71208000
_cell_length_c   9.21639200
_cell_angle_alpha   90.00000000
_cell_angle_beta   90.00000000
_cell_angle_gamma   90.00000000
_symmetry_Int_Tables_number   1
_chemical_formula_structural   Li4CoO4
_chemical_formula_sum   'Li16 Co4 O16'
_cell_volume   390.45830351
_cell_formula_units_Z   4
loop_
 _symmetry_equiv_pos_site_id
 _symmetry_equiv_pos_as_xyz
  1  'x, y, z'
loop_
 _atom_site_type_symbol
 _atom_site_label
 _atom_site_symmetry_multiplicity
 _atom_site_fract_x
 _atom_site_fract_y
 _atom_site_fract_z
 _atom_site_occupancy
  Li  Li0  1  0.00000000  0.68096400  0.08769700  1
  Li  Li1  1  0.25331300  0.96196900  0.13045400  1
  Li  Li2  1  0.74668700  0.96196900  0.13045400  1
  Li  Li3  1  0.00000000  0.24931800  0.18035400  1
  Li  Li4  1  0.50000000  0.74931800  0.31964600  1
  Li  Li5  1  0.24668700  0.46196900  0.36954600  1
  Li  Li6  1  0.75331300  0.46196900  0.36954600  1
  Li  Li7  1  0.50000000  0.18096400  0.41230300  1
  Li  Li8  1  0.50000000  0.81903600  0.58769700  1
  Li  Li9  1  0.24668700  0.53803100  0.63045400  1
  Li  Li10  1  0.75331300  0.53803100  0.63045400  1
  Li  Li11  1  0.50000000  0.25068200  0.68035400  1
  Li  Li12  1  0.00000000  0.75068200  0.81964600  1
  Li  Li13  1  0.25331300  0.03803100  0.86954600  1
  Li  Li14  1  0.74668700  0.03803100  0.86954600  1
  Li  Li15  1  0.00000000  0.31903600  0.91230300  1
  Co  Co0  1  0.50000000  0.25834300  0.12553200  1
  Co  Co1  1  0.00000000  0.75834300  0.37446800  1
  Co  Co2  1  0.00000000  0.24165700  0.62553200  1
  Co  Co3  1  0.50000000  0.74165700  0.87446800  1
  O  O0  1  0.24973100  0.22976000  0.03143500  1
  O  O1  1  0.75026900  0.22976000  0.03143500  1
  O  O2  1  0.50000000  0.45042000  0.26117200  1
  O  O3  1  0.00000000  0.52540100  0.26328700  1
  O  O4  1  0.50000000  0.02540100  0.23671300  1
  O  O5  1  0.00000000  0.95042000  0.23882800  1
  O  O6  1  0.25026900  0.72976000  0.46856500  1
  O  O7  1  0.74973100  0.72976000  0.46856500  1
  O  O8  1  0.74973100  0.27024000  0.53143500  1
  O  O9  1  0.25026900  0.27024000  0.53143500  1
  O  O10  1  0.00000000  0.04958000  0.76117200  1
  O  O11  1  0.50000000  0.97459900  0.76328700  1
  O  O12  1  0.00000000  0.47459900  0.73671300  1
  O  O13  1  0.50000000  0.54958000  0.73882800  1
  O  O14  1  0.24973100  0.77024000  0.96856500  1
  O  O15  1  0.75026900  0.77024000  0.96856500  1
loop_
_geom_bond_atom_site_label_1
_geom_bond_atom_site_label_2
_geom_bond_distance
_geom_bond_site_symmetry_2
Li0 O3 1.925920 1_555
Li0 O14 2.012266 1_554
Li0 O15 2.012266 1_454
Li0 O5 2.282804 1_555
Li1 O5 1.886807 1_555
Li1 O4 1.888056 1_565
Li1 O14 1.970478 1_554
Li1 O0 2.015966 1_565
Li2 O5 1.886807 1_655
Li2 O4 1.888056 1_565
Li2 O15 1.970478 1_554
Li2 O1 2.015966 1_565
Li3 O3 2.004537 1_555
Li3 O5 2.077350 1_545
Li3 O1 2.094179 1_455
Li3 O0 2.094179 1_555
Li4 O4 2.004537 1_565
Li4 O2 2.077350 1_555
Li4 O7 2.094179 1_555
Li4 O6 2.094179 1_555
Li5 O2 1.886807 1_555
Li5 O3 1.888056 1_555
Li5 O9 1.970478 1_555
Li5 O6 2.015966 1_555
Li6 O2 1.886807 1_555
Li6 O3 1.888056 1_655
Li6 O8 1.970478 1_555
Li6 O7 2.015966 1_555
Li7 O4 1.925920 1_555
Li7 O8 2.012266 1_555
Li7 O9 2.012266 1_555
Li7 O2 2.282804 1_555
Li8 O11 1.925920 1_555
Li8 O7 2.012266 1_555
Li8 O6 2.012266 1_555
Li8 O13 2.282804 1_555
Li9 O13 1.886807 1_555
Li9 O12 1.888056 1_555
Li9 O6 1.970478 1_555
Li9 O9 2.015966 1_555
Li10 O13 1.886807 1_555
Li10 O12 1.888056 1_655
Li10 O7 1.970478 1_555
Li10 O8 2.015966 1_555
Li11 O11 2.004537 1_545
Li11 O13 2.077350 1_555
Li11 O8 2.094179 1_555
Li11 O9 2.094179 1_555
Li12 O12 2.004537 1_555
Li12 O10 2.077350 1_565
Li12 O15 2.094179 1_455
Li12 O14 2.094179 1_555
Li13 O10 1.886807 1_555
Li13 O11 1.888056 1_545
Li13 O0 1.970478 1_556
Li13 O14 2.015966 1_545
Li14 O10 1.886807 1_655
Li14 O11 1.888056 1_545
Li14 O1 1.970478 1_556
Li14 O15 2.015966 1_545
Li15 O12 1.925920 1_555
Li15 O0 2.012266 1_556
Li15 O1 2.012266 1_456
Li15 O10 2.282804 1_555
Co0 O2 1.795803 1_555
Co0 O0 1.812244 1_555
Co0 O1 1.812244 1_555
Co0 O4 1.869384 1_555
Co1 O5 1.795803 1_555
Co1 O7 1.812244 1_455
Co1 O6 1.812244 1_555
Co1 O3 1.869384 1_555
Co2 O10 1.795803 1_555
Co2 O8 1.812244 1_455
Co2 O9 1.812244 1_555
Co2 O12 1.869384 1_555
Co3 O13 1.795803 1_555
Co3 O15 1.812244 1_555
Co3 O14 1.812244 1_555
Co3 O11 1.869384 1_555
