# generated using pymatgen
data_LiV2F9
_symmetry_space_group_name_H-M   'P 1'
_cell_length_a   5.09533143
_cell_length_b   5.09533143
_cell_length_c   14.43927460
_cell_angle_alpha   89.92491462
_cell_angle_beta   89.92491462
_cell_angle_gamma   60.41750412
_symmetry_Int_Tables_number   1
_chemical_formula_structural   LiV2F9
_chemical_formula_sum   'Li2 V4 F18'
_cell_volume   326.01092370
_cell_formula_units_Z   2
loop_
 _symmetry_equiv_pos_site_id
 _symmetry_equiv_pos_as_xyz
  1  'x, y, z'
loop_
 _atom_site_type_symbol
 _atom_site_label
 _atom_site_symmetry_multiplicity
 _atom_site_fract_x
 _atom_site_fract_y
 _atom_site_fract_z
 _atom_site_occupancy
  Li  Li0  1  0.66999700  0.66413000  0.50243500  1
  Li  Li1  1  0.66413000  0.66999700  0.00243500  1
  V  V0  1  0.99810500  0.99876900  0.65235200  1
  V  V1  1  0.00006200  0.00505200  0.85084500  1
  V  V2  1  0.00505200  0.00006200  0.35084500  1
  V  V3  1  0.99876900  0.99810500  0.15235200  1
  F  F0  1  0.32187800  0.71488400  0.41271500  1
  F  F1  1  0.31538400  0.97594900  0.91701300  1
  F  F2  1  0.71488400  0.32187800  0.91271500  1
  F  F3  1  0.97594900  0.31538400  0.41701300  1
  F  F4  1  0.01439400  0.26622700  0.74979700  1
  F  F5  1  0.70130200  0.97994300  0.41272900  1
  F  F6  1  0.96821200  0.32094800  0.09053100  1
  F  F7  1  0.97994300  0.70130200  0.91272900  1
  F  F8  1  0.26622700  0.01439400  0.24979700  1
  F  F9  1  0.32094800  0.96821200  0.59053100  1
  F  F10  1  0.01129200  0.72134000  0.25317500  1
  F  F11  1  0.97100900  0.71146800  0.58476600  1
  F  F12  1  0.31522100  0.70135100  0.08935700  1
  F  F13  1  0.26386200  0.72452100  0.75129800  1
  F  F14  1  0.71146800  0.97100900  0.08476600  1
  F  F15  1  0.72134000  0.01129200  0.75317500  1
  F  F16  1  0.70135100  0.31522100  0.58935700  1
  F  F17  1  0.72452100  0.26386200  0.25129800  1
loop_
_geom_bond_atom_site_label_1
_geom_bond_atom_site_label_2
_geom_bond_distance
_geom_bond_site_symmetry_2
F0 V2 1.788823 1_565
F0 Li0 2.108011 1_555
F1 V1 1.812351 1_565
F1 Li1 2.091606 1_556
F2 V1 1.788823 1_655
F2 Li1 2.108011 1_556
F3 V2 1.812351 1_655
F3 Li0 2.091606 1_555
F4 V0 1.990185 1_445
F4 V1 1.998932 1_555
F5 V2 1.832251 1_665
F5 Li0 2.130746 1_555
F6 V3 1.808507 1_545
F6 Li1 2.111945 1_555
F7 V1 1.832251 1_665
F7 Li1 2.130746 1_556
F8 V3 1.990185 1_445
F8 V2 1.998932 1_555
F9 V0 1.808507 1_455
F9 Li0 2.111945 1_555
F10 V2 1.991827 1_565
F10 V3 2.004536 1_455
F11 V0 1.821555 1_555
F11 Li0 2.048079 1_555
F12 V3 1.818278 1_455
F12 Li1 2.115567 1_555
F13 V0 1.989743 1_455
F13 V1 2.004817 1_565
F14 V3 1.821555 1_555
F14 Li1 2.048079 1_555
F15 V1 1.991827 1_655
F15 V0 2.004536 1_545
F16 V0 1.818278 1_545
F16 Li0 2.115567 1_555
F17 V3 1.989743 1_545
F17 V2 2.004817 1_655
