# generated using pymatgen
data_K3Be3B3P6O25
_symmetry_space_group_name_H-M   'P 1'
_cell_length_a   12.71849600
_cell_length_b   12.71849600
_cell_length_c   12.71849600
_cell_angle_alpha   90.00000000
_cell_angle_beta   90.00000000
_cell_angle_gamma   90.00000000
_symmetry_Int_Tables_number   1
_chemical_formula_structural   K3Be3B3P6O25
_chemical_formula_sum   'K12 Be12 B12 P24 O100'
_cell_volume   2057.34569993
_cell_formula_units_Z   4
loop_
 _symmetry_equiv_pos_site_id
 _symmetry_equiv_pos_as_xyz
  1  'x, y, z'
loop_
 _atom_site_type_symbol
 _atom_site_label
 _atom_site_symmetry_multiplicity
 _atom_site_fract_x
 _atom_site_fract_y
 _atom_site_fract_z
 _atom_site_occupancy
  K  K0  1  0.90040100  0.90040100  0.90040100  1
  K  K1  1  0.09959900  0.40040100  0.59959900  1
  K  K2  1  0.40040100  0.59959900  0.09959900  1
  K  K3  1  0.59959900  0.09959900  0.40040100  1
  K  K4  1  0.65040100  0.84959900  0.15040100  1
  K  K5  1  0.84959900  0.15040100  0.65040100  1
  K  K6  1  0.34959900  0.34959900  0.34959900  1
  K  K7  1  0.15040100  0.65040100  0.84959900  1
  K  K8  1  0.87500000  0.37500000  0.12500000  1
  K  K9  1  0.37500000  0.12500000  0.87500000  1
  K  K10  1  0.12500000  0.87500000  0.37500000  1
  K  K11  1  0.62500000  0.62500000  0.62500000  1
  Be  Be0  1  0.93368800  0.87500000  0.18368800  1
  Be  Be1  1  0.81631200  0.43368800  0.62500000  1
  Be  Be2  1  0.37500000  0.31631200  0.06631200  1
  Be  Be3  1  0.43368800  0.62500000  0.81631200  1
  Be  Be4  1  0.31631200  0.06631200  0.37500000  1
  Be  Be5  1  0.87500000  0.18368800  0.93368800  1
  Be  Be6  1  0.06631200  0.37500000  0.31631200  1
  Be  Be7  1  0.18368800  0.93368800  0.87500000  1
  Be  Be8  1  0.62500000  0.81631200  0.43368800  1
  Be  Be9  1  0.56631200  0.12500000  0.68368800  1
  Be  Be10  1  0.68368800  0.56631200  0.12500000  1
  Be  Be11  1  0.12500000  0.68368800  0.56631200  1
  B  B0  1  0.10920600  0.62500000  0.14079400  1
  B  B1  1  0.85920600  0.60920600  0.87500000  1
  B  B2  1  0.12500000  0.35920600  0.89079400  1
  B  B3  1  0.60920600  0.87500000  0.85920600  1
  B  B4  1  0.35920600  0.89079400  0.12500000  1
  B  B5  1  0.62500000  0.14079400  0.10920600  1
  B  B6  1  0.89079400  0.12500000  0.35920600  1
  B  B7  1  0.14079400  0.10920600  0.62500000  1
  B  B8  1  0.87500000  0.85920600  0.60920600  1
  B  B9  1  0.39079400  0.37500000  0.64079400  1
  B  B10  1  0.64079400  0.39079400  0.37500000  1
  B  B11  1  0.37500000  0.64079400  0.39079400  1
  P  P0  1  0.83855900  0.08961400  0.14370900  1
  P  P1  1  0.85629100  0.33855900  0.41038600  1
  P  P2  1  0.58961400  0.35629100  0.16144100  1
  P  P3  1  0.33855900  0.41038600  0.85629100  1
  P  P4  1  0.35629100  0.16144100  0.58961400  1
  P  P5  1  0.08961400  0.14370900  0.83855900  1
  P  P6  1  0.16144100  0.58961400  0.35629100  1
  P  P7  1  0.14370900  0.83855900  0.08961400  1
  P  P8  1  0.41038600  0.85629100  0.33855900  1
  P  P9  1  0.66144100  0.91038600  0.64370900  1
  P  P10  1  0.64370900  0.66144100  0.91038600  1
  P  P11  1  0.91038600  0.64370900  0.66144100  1
  P  P12  1  0.89370900  0.66038600  0.08855900  1
  P  P13  1  0.91144100  0.39370900  0.83961400  1
  P  P14  1  0.16038600  0.41144100  0.10629100  1
  P  P15  1  0.39370900  0.83961400  0.91144100  1
  P  P16  1  0.41144100  0.10629100  0.16038600  1
  P  P17  1  0.66038600  0.08855900  0.89370900  1
  P  P18  1  0.10629100  0.16038600  0.41144100  1
  P  P19  1  0.08855900  0.89370900  0.66038600  1
  P  P20  1  0.83961400  0.91144100  0.39370900  1
  P  P21  1  0.60629100  0.33961400  0.58855900  1
  P  P22  1  0.58855900  0.60629100  0.33961400  1
  P  P23  1  0.33961400  0.58855900  0.60629100  1
  O  O0  1  0.87861700  0.77249600  0.12858000  1
  O  O1  1  0.87142000  0.37861700  0.72750400  1
  O  O2  1  0.27249600  0.37142000  0.12138300  1
  O  O3  1  0.37861700  0.72750400  0.87142000  1
  O  O4  1  0.37142000  0.12138300  0.27249600  1
  O  O5  1  0.77249600  0.12858000  0.87861700  1
  O  O6  1  0.12138300  0.27249600  0.37142000  1
  O  O7  1  0.12858000  0.87861700  0.77249600  1
  O  O8  1  0.72750400  0.87142000  0.37861700  1
  O  O9  1  0.62138300  0.22750400  0.62858000  1
  O  O10  1  0.62858000  0.62138300  0.22750400  1
  O  O11  1  0.22750400  0.62858000  0.62138300  1
  O  O12  1  0.87858000  0.97750400  0.12861700  1
  O  O13  1  0.87138300  0.37858000  0.52249600  1
  O  O14  1  0.47750400  0.37138300  0.12142000  1
  O  O15  1  0.37858000  0.52249600  0.87138300  1
  O  O16  1  0.37138300  0.12142000  0.47750400  1
  O  O17  1  0.97750400  0.12861700  0.87858000  1
  O  O18  1  0.12142000  0.47750400  0.37138300  1
  O  O19  1  0.12861700  0.87858000  0.97750400  1
  O  O20  1  0.52249600  0.87138300  0.37858000  1
  O  O21  1  0.62142000  0.02249600  0.62861700  1
  O  O22  1  0.62861700  0.62142000  0.02249600  1
  O  O23  1  0.02249600  0.62861700  0.62142000  1
  O  O24  1  0.80794900  0.58528100  0.12173400  1
  O  O25  1  0.87826600  0.30794900  0.91471900  1
  O  O26  1  0.08528100  0.37826600  0.19205100  1
  O  O27  1  0.30794900  0.91471900  0.87826600  1
  O  O28  1  0.37826600  0.19205100  0.08528100  1
  O  O29  1  0.58528100  0.12173400  0.80794900  1
  O  O30  1  0.19205100  0.08528100  0.37826600  1
  O  O31  1  0.12173400  0.80794900  0.58528100  1
  O  O32  1  0.91471900  0.87826600  0.30794900  1
  O  O33  1  0.69205100  0.41471900  0.62173400  1
  O  O34  1  0.62173400  0.69205100  0.41471900  1
  O  O35  1  0.41471900  0.62173400  0.69205100  1
  O  O36  1  0.87173400  0.16471900  0.05794900  1
  O  O37  1  0.94205100  0.37173400  0.33528100  1
  O  O38  1  0.66471900  0.44205100  0.12826600  1
  O  O39  1  0.37173400  0.33528100  0.94205100  1
  O  O40  1  0.44205100  0.12826600  0.66471900  1
  O  O41  1  0.16471900  0.05794900  0.87173400  1
  O  O42  1  0.12826600  0.66471900  0.44205100  1
  O  O43  1  0.05794900  0.87173400  0.16471900  1
  O  O44  1  0.33528100  0.94205100  0.37173400  1
  O  O45  1  0.62826600  0.83528100  0.55794900  1
  O  O46  1  0.55794900  0.62826600  0.83528100  1
  O  O47  1  0.83528100  0.55794900  0.62826600  1
  O  O48  1  0.89936500  0.67262100  0.96455400  1
  O  O49  1  0.03544600  0.39936400  0.82737900  1
  O  O50  1  0.17262100  0.53544600  0.10063500  1
  O  O51  1  0.39936400  0.82737900  0.03544600  1
  O  O52  1  0.53544600  0.10063500  0.17262100  1
  O  O53  1  0.67262100  0.96455400  0.89936500  1
  O  O54  1  0.10063500  0.17262100  0.53544600  1
  O  O55  1  0.96455400  0.89936500  0.67262100  1
  O  O56  1  0.82737900  0.03544600  0.39936400  1
  O  O57  1  0.60063500  0.32737900  0.46455400  1
  O  O58  1  0.46455400  0.60063500  0.32737900  1
  O  O59  1  0.32737900  0.46455400  0.60063500  1
  O  O60  1  0.71455400  0.07737900  0.14936400  1
  O  O61  1  0.85063500  0.21455400  0.42262100  1
  O  O62  1  0.57737900  0.35063500  0.28544600  1
  O  O63  1  0.21455400  0.42262100  0.85063500  1
  O  O64  1  0.35063500  0.28544600  0.57737900  1
  O  O65  1  0.07737900  0.14936400  0.71455400  1
  O  O66  1  0.28544600  0.57737900  0.35063500  1
  O  O67  1  0.14936400  0.71455400  0.07737900  1
  O  O68  1  0.42262100  0.85063500  0.21455400  1
  O  O69  1  0.78544600  0.92262100  0.64936400  1
  O  O70  1  0.64936400  0.78544600  0.92262100  1
  O  O71  1  0.92262100  0.64936400  0.78544600  1
  O  O72  1  0.87285400  0.14470100  0.24765900  1
  O  O73  1  0.75234100  0.37285400  0.35529900  1
  O  O74  1  0.64470100  0.25234100  0.12714600  1
  O  O75  1  0.37285400  0.35529900  0.75234100  1
  O  O76  1  0.25234100  0.12714600  0.64470100  1
  O  O77  1  0.14470100  0.24765900  0.87285400  1
  O  O78  1  0.12714600  0.64470100  0.25234100  1
  O  O79  1  0.24765900  0.87285400  0.14470100  1
  O  O80  1  0.35529900  0.75234100  0.37285400  1
  O  O81  1  0.62714600  0.85529900  0.74765900  1
  O  O82  1  0.74765900  0.62714600  0.85529900  1
  O  O83  1  0.85529900  0.74765900  0.62714600  1
  O  O84  1  0.99765900  0.60529900  0.12285400  1
  O  O85  1  0.87714600  0.49765900  0.89470100  1
  O  O86  1  0.10529900  0.37714600  0.00234100  1
  O  O87  1  0.49765900  0.89470100  0.87714600  1
  O  O88  1  0.37714600  0.00234100  0.10529900  1
  O  O89  1  0.60529900  0.12285400  0.99765900  1
  O  O90  1  0.00234100  0.10529900  0.37714600  1
  O  O91  1  0.12285400  0.99765900  0.60529900  1
  O  O92  1  0.89470100  0.87714600  0.49765900  1
  O  O93  1  0.50234100  0.39470100  0.62285400  1
  O  O94  1  0.62285400  0.50234100  0.39470100  1
  O  O95  1  0.39470100  0.62285400  0.50234100  1
  O  O96  1  0.62500000  0.37500000  0.87500000  1
  O  O97  1  0.12500000  0.12500000  0.12500000  1
  O  O98  1  0.87500000  0.62500000  0.37500000  1
  O  O99  1  0.37500000  0.87500000  0.62500000  1
loop_
_geom_bond_atom_site_label_1
_geom_bond_atom_site_label_2
_geom_bond_distance
_geom_bond_site_symmetry_2
K0 O55 3.009756 1_555
K0 O53 3.009756 1_555
K0 O48 3.009756 1_555
K0 O17 3.076288 1_565
K0 O12 3.076288 1_556
K0 O19 3.076288 1_655
K1 O59 3.009756 1_555
K1 O54 3.009756 1_555
K1 O49 3.009757 1_555
K1 O23 3.076288 1_555
K1 O13 3.076288 1_455
K1 O18 3.076288 1_555
K2 O58 3.009756 1_555
K2 O50 3.009756 1_555
K2 O51 3.009757 1_555
K2 O22 3.076288 1_555
K2 O14 3.076288 1_555
K2 O15 3.076288 1_554
K3 O57 3.009756 1_555
K3 O52 3.009756 1_555
K3 O56 3.009757 1_555
K3 O21 3.076288 1_555
K3 O16 3.076288 1_555
K3 O20 3.076288 1_545
K4 O68 3.009756 1_555
K4 O60 3.009757 1_565
K4 O70 3.009757 1_554
K4 O10 3.076288 1_555
K4 O8 3.076288 1_555
K4 O0 3.076288 1_555
K5 O61 3.009756 1_555
K5 O65 3.009757 1_655
K5 O69 3.009757 1_545
K5 O1 3.076288 1_555
K5 O9 3.076288 1_555
K5 O5 3.076288 1_555
K6 O64 3.009756 1_555
K6 O62 3.009756 1_555
K6 O66 3.009756 1_555
K6 O4 3.076288 1_555
K6 O2 3.076288 1_555
K6 O6 3.076288 1_555
K7 O63 3.009756 1_555
K7 O67 3.009757 1_556
K7 O71 3.009757 1_455
K7 O11 3.076288 1_555
K7 O3 3.076288 1_555
K7 O7 3.076288 1_555
K8 O24 2.807436 1_555
K8 O38 2.807436 1_555
K8 O26 2.807436 1_655
K8 O37 2.807436 1_555
K8 O36 2.807436 1_555
K8 O25 2.807436 1_554
K9 O29 2.807436 1_555
K9 O40 2.807436 1_555
K9 O28 2.807436 1_556
K9 O39 2.807436 1_555
K9 O41 2.807436 1_555
K9 O27 2.807436 1_545
K10 O31 2.807436 1_555
K10 O42 2.807436 1_555
K10 O30 2.807436 1_565
K10 O44 2.807436 1_555
K10 O43 2.807436 1_555
K10 O32 2.807436 1_455
K11 O46 2.807436 1_555
K11 O47 2.807436 1_555
K11 O45 2.807436 1_555
K11 O35 2.807436 1_555
K11 O33 2.807436 1_555
K11 O34 2.807436 1_555
Be0 O32 1.599261 1_555
Be0 O43 1.599261 1_655
Be0 O12 1.637517 1_555
Be0 O0 1.637517 1_555
Be1 O33 1.599261 1_555
Be1 O47 1.599261 1_555
Be1 O1 1.637517 1_555
Be1 O13 1.637517 1_555
Be2 O28 1.599261 1_555
Be2 O39 1.599261 1_554
Be2 O14 1.637517 1_555
Be2 O2 1.637517 1_555
Be3 O35 1.599261 1_555
Be3 O46 1.599261 1_555
Be3 O3 1.637517 1_555
Be3 O15 1.637517 1_555
Be4 O30 1.599261 1_555
Be4 O44 1.599261 1_545
Be4 O16 1.637517 1_555
Be4 O4 1.637517 1_555
Be5 O25 1.599261 1_555
Be5 O36 1.599261 1_556
Be5 O17 1.637517 1_555
Be5 O5 1.637517 1_555
Be6 O26 1.599261 1_555
Be6 O37 1.599261 1_455
Be6 O18 1.637517 1_555
Be6 O6 1.637517 1_555
Be7 O27 1.599261 1_555
Be7 O41 1.599261 1_565
Be7 O19 1.637517 1_555
Be7 O7 1.637517 1_555
Be8 O34 1.599261 1_555
Be8 O45 1.599261 1_555
Be8 O8 1.637517 1_555
Be8 O20 1.637517 1_555
Be9 O29 1.599261 1_555
Be9 O40 1.599261 1_555
Be9 O9 1.637517 1_555
Be9 O21 1.637517 1_555
Be10 O24 1.599261 1_555
Be10 O38 1.599261 1_555
Be10 O10 1.637517 1_555
Be10 O22 1.637517 1_555
Be11 O31 1.599261 1_555
Be11 O42 1.599261 1_555
Be11 O11 1.637517 1_555
Be11 O23 1.637517 1_555
B0 O78 1.458624 1_555
B0 O84 1.458624 1_455
B0 O67 1.486163 1_555
B0 O50 1.486167 1_555
B1 O82 1.458624 1_555
B1 O85 1.458624 1_555
B1 O71 1.486163 1_555
B1 O48 1.486167 1_555
B2 O77 1.458624 1_555
B2 O86 1.458624 1_556
B2 O49 1.486163 1_555
B2 O63 1.486167 1_555
B3 O81 1.458624 1_555
B3 O87 1.458624 1_555
B3 O70 1.486163 1_555
B3 O53 1.486167 1_555
B4 O79 1.458624 1_555
B4 O88 1.458624 1_565
B4 O51 1.486163 1_555
B4 O68 1.486167 1_555
B5 O74 1.458624 1_555
B5 O89 1.458624 1_554
B5 O60 1.486163 1_555
B5 O52 1.486167 1_555
B6 O72 1.458624 1_555
B6 O90 1.458624 1_655
B6 O56 1.486163 1_555
B6 O61 1.486167 1_555
B7 O76 1.458624 1_555
B7 O91 1.458624 1_545
B7 O65 1.486163 1_555
B7 O54 1.486167 1_555
B8 O83 1.458624 1_555
B8 O92 1.458624 1_555
B8 O69 1.486163 1_555
B8 O55 1.486167 1_555
B9 O93 1.458624 1_555
B9 O75 1.458624 1_555
B9 O59 1.486167 1_555
B9 O64 1.486167 1_555
B10 O94 1.458624 1_555
B10 O73 1.458624 1_555
B10 O57 1.486167 1_555
B10 O62 1.486167 1_555
B11 O95 1.458624 1_555
B11 O80 1.458624 1_555
B11 O58 1.486167 1_555
B11 O66 1.486167 1_555
O0 P12 1.526119 1_555
O1 P13 1.526119 1_555
O2 P14 1.526119 1_555
O3 P15 1.526119 1_555
O4 P16 1.526119 1_555
O5 P17 1.526119 1_555
O6 P18 1.526119 1_555
O7 P19 1.526119 1_555
O8 P20 1.526119 1_555
O9 P21 1.526119 1_555
O10 P22 1.526119 1_555
O11 P23 1.526119 1_555
O12 P0 1.526119 1_565
O13 P1 1.526119 1_555
O14 P2 1.526119 1_555
O15 P3 1.526119 1_555
O16 P4 1.526119 1_555
O17 P5 1.526119 1_655
O18 P6 1.526119 1_555
O19 P7 1.526119 1_556
O20 P8 1.526119 1_555
O21 P9 1.526119 1_545
O22 P10 1.526119 1_554
O23 P11 1.526119 1_455
O24 P12 1.510030 1_555
O25 P13 1.510030 1_555
O26 P14 1.510030 1_555
O27 P15 1.510030 1_555
O28 P16 1.510030 1_555
O29 P17 1.510030 1_555
O30 P18 1.510030 1_555
O31 P19 1.510030 1_555
O32 P20 1.510030 1_555
O33 P21 1.510030 1_555
O34 P22 1.510030 1_555
O35 P23 1.510030 1_555
O36 P0 1.510030 1_555
O37 P1 1.510030 1_555
O38 P2 1.510030 1_555
O39 P3 1.510030 1_555
O40 P4 1.510030 1_555
O41 P5 1.510030 1_555
O42 P6 1.510030 1_555
O43 P7 1.510030 1_555
O44 P8 1.510030 1_555
O45 P9 1.510030 1_555
O46 P10 1.510030 1_555
O47 P11 1.510030 1_555
O48 P12 1.586447 1_556
O49 P13 1.586446 1_455
O50 P14 1.586447 1_555
O51 P15 1.586446 1_554
O52 P16 1.586447 1_555
O53 P17 1.586447 1_565
O54 P18 1.586447 1_555
O55 P19 1.586447 1_655
O56 P20 1.586446 1_545
O57 P21 1.586447 1_555
O58 P22 1.586447 1_555
O59 P23 1.586447 1_555
O60 P0 1.586446 1_555
O61 P1 1.586447 1_555
O62 P2 1.586447 1_555
O63 P3 1.586447 1_555
O64 P4 1.586447 1_555
O65 P5 1.586446 1_555
O66 P6 1.586447 1_555
O67 P7 1.586446 1_555
O68 P8 1.586447 1_555
O69 P9 1.586446 1_555
O70 P10 1.586446 1_555
O71 P11 1.586446 1_555
O72 P0 1.558539 1_555
O73 P1 1.558539 1_555
O74 P2 1.558539 1_555
O75 P3 1.558539 1_555
O76 P4 1.558539 1_555
O77 P5 1.558539 1_555
O78 P6 1.558539 1_555
O79 P7 1.558539 1_555
O80 P8 1.558539 1_555
O81 P9 1.558539 1_555
O82 P10 1.558539 1_555
O83 P11 1.558539 1_555
O84 P12 1.558539 1_555
O85 P13 1.558539 1_555
O86 P14 1.558539 1_555
O87 P15 1.558539 1_555
O88 P16 1.558539 1_555
O89 P17 1.558539 1_555
O90 P18 1.558539 1_555
O91 P19 1.558539 1_555
O92 P20 1.558539 1_555
O93 P21 1.558539 1_555
O94 P22 1.558539 1_555
O95 P23 1.558539 1_555
