# generated using pymatgen
data_LiMnPO4
_symmetry_space_group_name_H-M   'P 1'
_cell_length_a   5.28762900
_cell_length_b   7.10460900
_cell_length_c   8.24660300
_cell_angle_alpha   90.00134330
_cell_angle_beta   89.99973797
_cell_angle_gamma   89.99883422
_symmetry_Int_Tables_number   1
_chemical_formula_structural   LiMnPO4
_chemical_formula_sum   'Li4 Mn4 P4 O16'
_cell_volume   309.79631320
_cell_formula_units_Z   4
loop_
 _symmetry_equiv_pos_site_id
 _symmetry_equiv_pos_as_xyz
  1  'x, y, z'
loop_
 _atom_site_type_symbol
 _atom_site_label
 _atom_site_symmetry_multiplicity
 _atom_site_fract_x
 _atom_site_fract_y
 _atom_site_fract_z
 _atom_site_occupancy
  Li  Li0  1  0.21758600  0.24726700  0.55395000  1
  Li  Li1  1  0.71758700  0.25273100  0.05395600  1
  Li  Li2  1  0.21758000  0.74727600  0.94604200  1
  Li  Li3  1  0.71758700  0.75274200  0.44604800  1
  Mn  Mn0  1  0.23635500  0.52333500  0.25664600  1
  Mn  Mn1  1  0.73637200  0.47664200  0.74333800  1
  Mn  Mn2  1  0.73620900  0.97668400  0.75664300  1
  Mn  Mn3  1  0.23634000  0.02328300  0.24339700  1
  P  P0  1  0.72312600  0.21369300  0.40674300  1
  P  P1  1  0.22312100  0.28628900  0.90675300  1
  P  P2  1  0.72312600  0.71371300  0.09324400  1
  P  P3  1  0.22310900  0.78630700  0.59325500  1
  O  O0  1  0.68738200  0.02979200  0.50289900  1
  O  O1  1  0.18737800  0.47021600  0.00288900  1
  O  O2  1  0.68737400  0.52979500  0.99710200  1
  O  O3  1  0.18738300  0.97021600  0.49710800  1
  O  O4  1  0.45176500  0.27744400  0.34718800  1
  O  O5  1  0.95176500  0.22253100  0.84718900  1
  O  O6  1  0.45176700  0.77747400  0.15280900  1
  O  O7  1  0.95175500  0.72256400  0.65281400  1
  O  O8  1  0.89040000  0.18498300  0.25291300  1
  O  O9  1  0.39039900  0.31497800  0.75291400  1
  O  O10  1  0.89039800  0.68502800  0.24708300  1
  O  O11  1  0.39037500  0.81500700  0.74708800  1
  O  O12  1  0.85445200  0.36361800  0.51410500  1
  O  O13  1  0.35443400  0.13638000  0.01413100  1
  O  O14  1  0.85442700  0.86362400  0.98586700  1
  O  O15  1  0.35444600  0.63638900  0.48588700  1
loop_
_geom_bond_atom_site_label_1
_geom_bond_atom_site_label_2
_geom_bond_distance
_geom_bond_site_symmetry_2
Li0 O9 1.938696 1_555
Li0 O3 2.029671 1_545
Li0 O12 2.116150 1_455
Li0 O4 2.118149 1_555
Li1 O8 1.938722 1_555
Li1 O2 2.029802 1_554
Li1 O13 2.116240 1_555
Li1 O5 2.118182 1_554
Li2 O11 1.938628 1_555
Li2 O1 2.029763 1_556
Li2 O14 2.116198 1_455
Li2 O6 2.118223 1_556
Li3 O10 1.938687 1_555
Li3 O0 2.029675 1_565
Li3 O15 2.116209 1_555
Li3 O7 2.118146 1_555
Mn0 O1 2.142096 1_555
Mn0 O15 2.146820 1_555
Mn0 O10 2.161507 1_455
Mn0 O4 2.215108 1_555
Mn0 O6 2.300175 1_555
Mn1 O2 2.142204 1_555
Mn1 O12 2.146651 1_555
Mn1 O9 2.161512 1_555
Mn1 O7 2.215191 1_555
Mn1 O5 2.299980 1_555
Mn2 O0 2.141897 1_565
Mn2 O14 2.146932 1_555
Mn2 O11 2.160931 1_555
Mn2 O5 2.215278 1_565
Mn2 O7 2.300328 1_555
Mn3 O3 2.141663 1_545
Mn3 O13 2.147149 1_555
Mn3 O8 2.161441 1_455
Mn3 O6 2.214791 1_545
Mn3 O4 2.300163 1_555
O0 P0 1.540008 1_555
O1 P1 1.540041 1_554
O2 P2 1.540025 1_556
O3 P3 1.540000 1_555
O4 P0 1.582767 1_555
O5 P1 1.582790 1_655
O6 P2 1.582792 1_555
O7 P3 1.582740 1_655
O8 P0 1.559861 1_555
O9 P1 1.559927 1_555
O10 P2 1.559907 1_555
O11 P3 1.559860 1_555
O12 P0 1.549398 1_555
O13 P1 1.549373 1_554
O14 P2 1.549366 1_556
O15 P3 1.549395 1_555
