# generated using pymatgen
data_Li2Nb4ZnO12
_symmetry_space_group_name_H-M   'P 1'
_cell_length_a   7.69029200
_cell_length_b   7.71807040
_cell_length_c   11.89757088
_cell_angle_alpha   104.99620294
_cell_angle_beta   92.51589396
_cell_angle_gamma   93.72579248
_symmetry_Int_Tables_number   1
_chemical_formula_structural   Li2Nb4ZnO12
_chemical_formula_sum   'Li6 Nb12 Zn3 O36'
_cell_volume   679.32772985
_cell_formula_units_Z   3
loop_
 _symmetry_equiv_pos_site_id
 _symmetry_equiv_pos_as_xyz
  1  'x, y, z'
loop_
 _atom_site_type_symbol
 _atom_site_label
 _atom_site_symmetry_multiplicity
 _atom_site_fract_x
 _atom_site_fract_y
 _atom_site_fract_z
 _atom_site_occupancy
  Li  Li0  1  0.21912900  0.04368400  0.52359900  1
  Li  Li1  1  0.21831000  0.38054800  0.18686500  1
  Li  Li2  1  0.71816700  0.86771200  0.18329800  1
  Li  Li3  1  0.21580800  0.20287300  0.85073600  1
  Li  Li4  1  0.21721000  0.53693900  0.51922400  1
  Li  Li5  1  0.21839600  0.70726100  0.85423100  1
  Nb  Nb0  1  0.48812000  0.15653200  0.32992400  1
  Nb  Nb1  1  0.00473500  0.17067000  0.33106200  1
  Nb  Nb2  1  0.50326500  0.33361800  0.66924000  1
  Nb  Nb3  1  0.49944200  0.65941400  0.33649500  1
  Nb  Nb4  1  0.00429500  0.33772800  0.66504900  1
  Nb  Nb5  1  0.00539200  0.67736000  0.33095200  1
  Nb  Nb6  1  0.49391300  0.49627200  0.99781300  1
  Nb  Nb7  1  0.49518700  0.82922400  0.66542700  1
  Nb  Nb8  1  0.00013600  0.50092700  0.99509100  1
  Nb  Nb9  1  0.99736300  0.83496000  0.66316000  1
  Nb  Nb10  1  0.50311000  0.00221700  0.00004000  1
  Nb  Nb11  1  0.00950800  0.00642900  0.00420400  1
  Zn  Zn0  1  0.72390100  0.04320500  0.51681300  1
  Zn  Zn1  1  0.72711700  0.37394000  0.18855500  1
  Zn  Zn2  1  0.72572800  0.71022300  0.85423300  1
  O  O0  1  0.58484400  0.25236300  0.03616900  1
  O  O1  1  0.08110800  0.12948200  0.15946500  1
  O  O2  1  0.76762900  0.18480200  0.27713600  1
  O  O3  1  0.26033700  0.10015300  0.36511700  1
  O  O4  1  0.26452000  0.43175000  0.02831400  1
  O  O5  1  0.95944000  0.15633100  0.48902800  1
  O  O6  1  0.95884300  0.49086400  0.15390900  1
  O  O7  1  0.45753200  0.03926800  0.61578900  1
  O  O8  1  0.45891700  0.37025400  0.27898000  1
  O  O9  1  0.57483400  0.25957800  0.48671100  1
  O  O10  1  0.57983100  0.61351000  0.15470000  1
  O  O11  1  0.08617600  0.07842600  0.69233400  1
  O  O12  1  0.08098300  0.41431800  0.36325500  1
  O  O13  1  0.07878300  0.74164600  0.01669100  1
  O  O14  1  0.76624600  0.26725800  0.68160500  1
  O  O15  1  0.76718300  0.59317000  0.34573500  1
  O  O16  1  0.76947100  0.92793600  0.02379700  1
  O  O17  1  0.26766500  0.01116500  0.94469800  1
  O  O18  1  0.26891200  0.34341100  0.60908100  1
  O  O19  1  0.26535700  0.66420700  0.28144700  1
  O  O20  1  0.97530000  0.20687100  0.94867900  1
  O  O21  1  0.97744400  0.54618100  0.61654700  1
  O  O22  1  0.95049400  0.87780200  0.28066800  1
  O  O23  1  0.45146900  0.33030800  0.82289600  1
  O  O24  1  0.45376500  0.66368000  0.49191000  1
  O  O25  1  0.47763500  0.99669500  0.15646100  1
  O  O26  1  0.58455600  0.58223100  0.70140000  1
  O  O27  1  0.58612600  0.91025400  0.36226700  1
  O  O28  1  0.08373200  0.44765800  0.82337900  1
  O  O29  1  0.08070500  0.78794600  0.48936300  1
  O  O30  1  0.76445300  0.52418900  0.94426800  1
  O  O31  1  0.76502500  0.86096600  0.61004800  1
  O  O32  1  0.26435600  0.76782800  0.69511400  1
  O  O33  1  0.95542300  0.82567500  0.82006000  1
  O  O34  1  0.45758700  0.70652100  0.94766900  1
  O  O35  1  0.57870500  0.93191900  0.82440900  1
loop_
_geom_bond_atom_site_label_1
_geom_bond_atom_site_label_2
_geom_bond_distance
_geom_bond_site_symmetry_2
Li0 O3 2.074962 1_555
Li0 O7 2.101535 1_555
Li0 O29 2.113720 1_545
Li0 O11 2.254941 1_555
Li0 O18 2.272775 1_555
Li0 O5 2.291727 1_455
Li1 O4 2.065729 1_555
Li1 O1 2.086047 1_555
Li1 O8 2.125392 1_555
Li1 O19 2.185543 1_555
Li1 O6 2.277075 1_455
Li1 O12 2.352595 1_555
Li2 O22 2.072146 1_555
Li2 O10 2.109094 1_555
Li2 O16 2.114535 1_555
Li2 O25 2.206025 1_555
Li2 O27 2.354604 1_555
Li2 O2 2.410034 1_565
Li3 O11 2.059595 1_555
Li3 O23 2.085944 1_555
Li3 O17 2.119340 1_555
Li3 O20 2.226612 1_455
Li3 O28 2.290310 1_555
Li3 O4 2.374364 1_556
Li4 O12 2.056274 1_555
Li4 O24 2.087347 1_555
Li4 O18 2.097212 1_555
Li4 O21 2.215285 1_455
Li4 O29 2.359886 1_555
Li4 O32 2.367662 1_555
Li5 O32 2.102982 1_555
Li5 O34 2.108215 1_555
Li5 O28 2.130285 1_555
Li5 O13 2.216522 1_556
Li5 O17 2.312113 1_565
Li5 O33 2.334676 1_455
Nb0 O3 1.868903 1_555
Nb0 O9 1.900259 1_555
Nb0 O8 1.921542 1_555
Nb0 O25 2.107719 1_545
Nb0 O27 2.206441 1_545
Nb0 O2 2.278357 1_555
Nb1 O12 1.868426 1_555
Nb1 O2 1.925546 1_455
Nb1 O5 1.955984 1_455
Nb1 O1 2.099467 1_555
Nb1 O3 2.123066 1_555
Nb1 O22 2.190189 1_445
Nb2 O23 1.894245 1_555
Nb2 O26 1.913691 1_555
Nb2 O18 1.923158 1_555
Nb2 O14 2.126395 1_555
Nb2 O7 2.195019 1_555
Nb2 O9 2.202075 1_555
Nb3 O24 1.889582 1_555
Nb3 O19 1.894374 1_555
Nb3 O27 1.947723 1_555
Nb3 O8 2.155615 1_555
Nb3 O15 2.158478 1_555
Nb3 O10 2.221535 1_555
Nb4 O21 1.864730 1_455
Nb4 O14 1.908836 1_455
Nb4 O28 1.909459 1_555
Nb4 O18 2.170013 1_555
Nb4 O5 2.195754 1_455
Nb4 O11 2.233648 1_555
Nb5 O22 1.863092 1_455
Nb5 O29 1.903547 1_555
Nb5 O15 1.934355 1_455
Nb5 O19 2.110178 1_555
Nb5 O6 2.221402 1_455
Nb5 O12 2.268217 1_555
Nb6 O4 1.878104 1_556
Nb6 O34 1.900646 1_555
Nb6 O10 1.918173 1_556
Nb6 O23 2.141196 1_555
Nb6 O0 2.197437 1_556
Nb6 O30 2.215855 1_555
Nb7 O32 1.879579 1_555
Nb7 O7 1.897937 1_565
Nb7 O35 1.915683 1_555
Nb7 O24 2.126066 1_555
Nb7 O26 2.203682 1_555
Nb7 O31 2.222119 1_555
Nb8 O13 1.864623 1_556
Nb8 O30 1.919679 1_455
Nb8 O6 1.950048 1_456
Nb8 O28 2.114468 1_555
Nb8 O4 2.180575 1_556
Nb8 O20 2.185882 1_455
Nb9 O11 1.895466 1_665
Nb9 O31 1.909235 1_555
Nb9 O33 1.926894 1_555
Nb9 O29 2.139246 1_655
Nb9 O21 2.146426 1_555
Nb9 O32 2.191007 1_655
Nb10 O25 1.890926 1_545
Nb10 O17 1.910980 1_554
Nb10 O0 1.922586 1_555
Nb10 O35 2.135326 1_544
Nb10 O16 2.188639 1_545
Nb10 O34 2.204621 1_544
Nb11 O20 1.861565 1_454
Nb11 O1 1.884746 1_555
Nb11 O16 1.947928 1_445
Nb11 O17 2.138072 1_554
Nb11 O13 2.184929 1_545
Nb11 O33 2.276396 1_444
O0 Zn1 2.043686 1_555
O2 Zn1 2.040876 1_555
O5 Zn0 2.036920 1_555
O6 Zn1 2.051329 1_555
O7 Zn0 2.409559 1_555
O8 Zn1 2.369665 1_555
O9 Zn0 2.180262 1_555
O10 Zn1 2.341285 1_555
O14 Zn0 2.248690 1_555
O15 Zn1 2.167761 1_555
O16 Zn2 2.262567 1_554
O26 Zn2 2.053921 1_555
O27 Zn0 2.065837 1_565
O30 Zn2 2.030090 1_555
O31 Zn0 2.035504 1_565
O33 Zn2 2.031139 1_555
O34 Zn2 2.387221 1_555
O35 Zn2 2.205092 1_555
