# generated using pymatgen
data_LiCoSiO4
_symmetry_space_group_name_H-M   'P 1'
_cell_length_a   10.67555043
_cell_length_b   10.67555043
_cell_length_c   12.00870600
_cell_angle_alpha   90.00000000
_cell_angle_beta   90.00000000
_cell_angle_gamma   120.00000269
_symmetry_Int_Tables_number   1
_chemical_formula_structural   LiCoSiO4
_chemical_formula_sum   'Li12 Co12 Si12 O48'
_cell_volume   1185.24296314
_cell_formula_units_Z   12
loop_
 _symmetry_equiv_pos_site_id
 _symmetry_equiv_pos_as_xyz
  1  'x, y, z'
loop_
 _atom_site_type_symbol
 _atom_site_label
 _atom_site_symmetry_multiplicity
 _atom_site_fract_x
 _atom_site_fract_y
 _atom_site_fract_z
 _atom_site_occupancy
  Li  Li0  1  0.00000000  0.50000000  0.00894500  1
  Li  Li1  1  0.00000000  0.50000000  0.65772200  1
  Li  Li2  1  0.00000000  0.50000000  0.33333300  1
  Li  Li3  1  0.00000000  0.00000000  0.16666700  1
  Li  Li4  1  0.00000000  0.00000000  0.50000000  1
  Li  Li5  1  0.00000000  0.00000000  0.83333300  1
  Li  Li6  1  0.50000000  0.50000000  0.34227800  1
  Li  Li7  1  0.50000000  0.50000000  0.66666700  1
  Li  Li8  1  0.50000000  0.50000000  0.99105500  1
  Li  Li9  1  0.50000000  0.00000000  0.32438800  1
  Li  Li10  1  0.50000000  0.00000000  0.00000000  1
  Li  Li11  1  0.50000000  0.00000000  0.67561200  1
  Co  Co0  1  0.00000000  0.74741900  0.83333300  1
  Co  Co1  1  0.00000000  0.25258100  0.83333300  1
  Co  Co2  1  0.25032300  0.74967700  0.16666700  1
  Co  Co3  1  0.25032300  0.50064700  0.50000000  1
  Co  Co4  1  0.49935300  0.74967700  0.83333300  1
  Co  Co5  1  0.25258100  0.25258100  0.16666700  1
  Co  Co6  1  0.25258100  0.00000000  0.50000000  1
  Co  Co7  1  0.74741900  0.74741900  0.16666700  1
  Co  Co8  1  0.50064700  0.25032300  0.83333300  1
  Co  Co9  1  0.74967700  0.49935300  0.50000000  1
  Co  Co10  1  0.74967700  0.25032300  0.16666700  1
  Co  Co11  1  0.74741900  0.00000000  0.50000000  1
  Si  Si0  1  0.00000000  0.75431900  0.33333300  1
  Si  Si1  1  0.24798500  0.75201500  0.66666700  1
  Si  Si2  1  0.00000000  0.24568100  0.33333300  1
  Si  Si3  1  0.24798500  0.49597100  0.00000000  1
  Si  Si4  1  0.24568100  0.24568100  0.66666700  1
  Si  Si5  1  0.50402900  0.75201500  0.33333300  1
  Si  Si6  1  0.24568100  0.00000000  0.00000000  1
  Si  Si7  1  0.49597100  0.24798500  0.33333300  1
  Si  Si8  1  0.75431900  0.75431900  0.66666700  1
  Si  Si9  1  0.75201500  0.50402900  0.00000000  1
  Si  Si10  1  0.75201500  0.24798500  0.66666700  1
  Si  Si11  1  0.75431900  0.00000000  0.00000000  1
  O  O0  1  0.07915400  0.88723700  0.42300400  1
  O  O1  1  0.11276300  0.92084600  0.91032900  1
  O  O2  1  0.09513000  0.69430800  0.73458000  1
  O  O3  1  0.10551400  0.70534700  0.26894000  1
  O  O4  1  0.29465300  0.89448600  0.06439300  1
  O  O5  1  0.30569200  0.90487000  0.59875400  1
  O  O6  1  0.19715400  0.61040300  0.58641900  1
  O  O7  1  0.09513000  0.40082200  0.93208700  1
  O  O8  1  0.19715400  0.58675100  0.08024800  1
  O  O9  1  0.10551400  0.40016700  0.39772700  1
  O  O10  1  0.07915400  0.19191800  0.24366300  1
  O  O11  1  0.38959700  0.80284600  0.74691500  1
  O  O12  1  0.41324900  0.80284600  0.25308500  1
  O  O13  1  0.11276300  0.19191800  0.75633700  1
  O  O14  1  0.29465300  0.40016700  0.60227300  1
  O  O15  1  0.38959700  0.58675100  0.91975200  1
  O  O16  1  0.30569200  0.40082200  0.06791300  1
  O  O17  1  0.41324900  0.61040300  0.41358100  1
  O  O18  1  0.19191800  0.11276300  0.57699600  1
  O  O19  1  0.19191800  0.07915400  0.08967100  1
  O  O20  1  0.59917800  0.90487000  0.40124600  1
  O  O21  1  0.59983300  0.89448600  0.93560700  1
  O  O22  1  0.59983300  0.70534700  0.73106000  1
  O  O23  1  0.40082200  0.30569200  0.26542000  1
  O  O24  1  0.59917800  0.69430800  0.26542000  1
  O  O25  1  0.40016700  0.29465300  0.73106000  1
  O  O26  1  0.40016700  0.10551400  0.93560700  1
  O  O27  1  0.40082200  0.09513000  0.40124600  1
  O  O28  1  0.80808200  0.92084600  0.08967100  1
  O  O29  1  0.80808200  0.88723700  0.57699600  1
  O  O30  1  0.58675100  0.38959700  0.41358100  1
  O  O31  1  0.69430800  0.59917800  0.06791300  1
  O  O32  1  0.61040300  0.41324900  0.91975200  1
  O  O33  1  0.70534700  0.59983300  0.60227300  1
  O  O34  1  0.88723700  0.80808200  0.75633700  1
  O  O35  1  0.58675100  0.19715400  0.25308500  1
  O  O36  1  0.61040300  0.19715400  0.74691500  1
  O  O37  1  0.92084600  0.80808200  0.24366300  1
  O  O38  1  0.89448600  0.59983300  0.39772700  1
  O  O39  1  0.80284600  0.41324900  0.08024800  1
  O  O40  1  0.90487000  0.59917800  0.93208700  1
  O  O41  1  0.80284600  0.38959700  0.58641900  1
  O  O42  1  0.69430800  0.09513000  0.59875400  1
  O  O43  1  0.70534700  0.10551400  0.06439300  1
  O  O44  1  0.89448600  0.29465300  0.26894000  1
  O  O45  1  0.90487000  0.30569200  0.73458000  1
  O  O46  1  0.88723700  0.07915400  0.91032900  1
  O  O47  1  0.92084600  0.11276300  0.42300400  1
loop_
_geom_bond_atom_site_label_1
_geom_bond_atom_site_label_2
_geom_bond_distance
_geom_bond_site_symmetry_2
Li0 O8 2.017801 1_555
Li0 O39 2.017801 1_455
Li0 O40 2.019780 1_454
Li0 O7 2.019780 1_554
Li1 O6 2.017801 1_555
Li1 O41 2.017801 1_455
Li1 O2 2.019780 1_555
Li1 O45 2.019780 1_455
Li2 O3 2.050160 1_555
Li2 O44 2.050160 1_455
Li2 O38 2.050165 1_455
Li2 O9 2.050165 1_555
Li3 O19 2.008828 1_555
Li3 O28 2.008828 1_445
Li3 O10 2.008828 1_555
Li3 O37 2.008828 1_445
Li4 O47 2.008820 1_455
Li4 O0 2.008820 1_545
Li4 O18 2.008827 1_555
Li4 O29 2.008827 1_445
Li5 O1 2.008820 1_545
Li5 O46 2.008820 1_455
Li5 O13 2.008827 1_555
Li5 O34 2.008827 1_445
Li6 O17 2.017801 1_555
Li6 O30 2.017801 1_555
Li6 O24 2.019780 1_555
Li6 O23 2.019780 1_555
Li7 O22 2.050160 1_555
Li7 O25 2.050160 1_555
Li7 O33 2.050165 1_555
Li7 O14 2.050165 1_555
Li8 O32 2.017801 1_555
Li8 O15 2.017801 1_555
Li8 O31 2.019780 1_556
Li8 O16 2.019780 1_556
Li9 O35 2.017801 1_555
Li9 O12 2.017801 1_545
Li9 O20 2.019780 1_545
Li9 O27 2.019780 1_555
Li10 O43 2.050160 1_555
Li10 O4 2.050160 1_545
Li10 O21 2.050160 1_544
Li10 O26 2.050160 1_554
Li11 O36 2.017801 1_555
Li11 O11 2.017801 1_545
Li11 O42 2.019780 1_555
Li11 O5 2.019780 1_545
Co0 O2 1.826202 1_555
Co0 O40 1.826209 1_455
Co0 O34 1.871651 1_455
Co0 O1 1.871658 1_555
Co1 O45 1.826202 1_455
Co1 O7 1.826209 1_555
Co1 O13 1.871651 1_555
Co1 O46 1.871658 1_455
Co2 O3 1.841361 1_555
Co2 O4 1.841369 1_555
Co2 O12 1.853952 1_555
Co2 O8 1.853959 1_555
Co3 O9 1.841363 1_555
Co3 O14 1.841369 1_555
Co3 O6 1.853950 1_555
Co3 O17 1.853957 1_555
Co4 O22 1.841369 1_555
Co4 O21 1.841371 1_555
Co4 O11 1.853944 1_555
Co4 O15 1.853957 1_555
Co5 O23 1.826202 1_555
Co5 O16 1.826209 1_555
Co5 O19 1.871659 1_555
Co5 O10 1.871659 1_555
Co6 O27 1.826209 1_555
Co6 O5 1.826209 1_545
Co6 O18 1.871651 1_555
Co6 O0 1.871658 1_545
Co7 O24 1.826202 1_555
Co7 O31 1.826209 1_555
Co7 O28 1.871659 1_555
Co7 O37 1.871659 1_555
Co8 O25 1.841369 1_555
Co8 O26 1.841371 1_555
Co8 O36 1.853944 1_555
Co8 O32 1.853957 1_555
Co9 O38 1.841363 1_555
Co9 O33 1.841369 1_555
Co9 O41 1.853950 1_555
Co9 O30 1.853957 1_555
Co10 O44 1.841361 1_555
Co10 O43 1.841369 1_555
Co10 O35 1.853952 1_555
Co10 O39 1.853959 1_555
Co11 O20 1.826209 1_545
Co11 O42 1.826209 1_555
Co11 O29 1.871651 1_545
Co11 O47 1.871658 1_555
O0 Si0 1.639527 1_555
O1 Si6 1.639527 1_566
O2 Si1 1.643826 1_555
O3 Si0 1.651968 1_555
O4 Si6 1.651968 1_565
O5 Si1 1.643826 1_555
O6 Si1 1.639593 1_555
O7 Si3 1.643827 1_556
O8 Si3 1.639585 1_555
O9 Si2 1.651973 1_555
O10 Si2 1.639513 1_555
O11 Si1 1.639593 1_555
O12 Si5 1.639585 1_555
O13 Si4 1.639520 1_555
O14 Si4 1.651973 1_555
O15 Si3 1.639591 1_556
O16 Si3 1.643835 1_555
O17 Si5 1.639591 1_555
O18 Si4 1.639528 1_555
O19 Si6 1.639521 1_555
O20 Si5 1.643827 1_555
O21 Si11 1.651968 1_566
O22 Si8 1.651968 1_555
O23 Si7 1.643835 1_555
O24 Si5 1.643835 1_555
O25 Si4 1.651968 1_555
O26 Si6 1.651968 1_556
O27 Si7 1.643827 1_555
O28 Si11 1.639521 1_565
O29 Si8 1.639528 1_555
O30 Si7 1.639591 1_555
O31 Si9 1.643835 1_555
O32 Si9 1.639591 1_556
O33 Si8 1.651973 1_555
O34 Si8 1.639520 1_555
O35 Si7 1.639585 1_555
O36 Si10 1.639593 1_555
O37 Si0 1.639513 1_655
O38 Si0 1.651973 1_655
O39 Si9 1.639585 1_555
O40 Si9 1.643827 1_556
O41 Si10 1.639593 1_555
O42 Si10 1.643826 1_555
O43 Si11 1.651968 1_555
O44 Si2 1.651968 1_655
O45 Si10 1.643826 1_555
O46 Si11 1.639527 1_556
O47 Si2 1.639527 1_655
