# generated using pymatgen
data_Zr2N2O
_symmetry_space_group_name_H-M   'P 1'
_cell_length_a   8.85519100
_cell_length_b   8.87788563
_cell_length_c   8.87822387
_cell_angle_alpha   109.59402381
_cell_angle_beta   109.27203738
_cell_angle_gamma   109.42277575
_symmetry_Int_Tables_number   1
_chemical_formula_structural   Zr2N2O
_chemical_formula_sum   'Zr16 N16 O8'
_cell_volume   538.11653600
_cell_formula_units_Z   8
loop_
 _symmetry_equiv_pos_site_id
 _symmetry_equiv_pos_as_xyz
  1  'x, y, z'
loop_
 _atom_site_type_symbol
 _atom_site_label
 _atom_site_symmetry_multiplicity
 _atom_site_fract_x
 _atom_site_fract_y
 _atom_site_fract_z
 _atom_site_occupancy
  Zr  Zr0  1  0.97726000  0.72982900  0.24059900  1
  Zr  Zr1  1  0.47832100  0.97146400  0.51011300  1
  Zr  Zr2  1  0.81062800  0.03132200  0.22077900  1
  Zr  Zr3  1  0.28396600  0.82053300  0.95974700  1
  Zr  Zr4  1  0.18197100  0.47341800  0.28375000  1
  Zr  Zr5  1  0.78491000  0.82518900  0.46725400  1
  Zr  Zr6  1  0.52681100  0.52907600  0.98140400  1
  Zr  Zr7  1  0.98498300  0.97735300  0.01280900  1
  Zr  Zr8  1  0.53193800  0.78408300  0.75107400  1
  Zr  Zr9  1  0.46511500  0.20784500  0.25164300  1
  Zr  Zr10  1  0.00251300  0.51669800  0.49390700  1
  Zr  Zr11  1  0.22336000  0.18415600  0.53217700  1
  Zr  Zr12  1  0.70449900  0.17227000  0.03831700  1
  Zr  Zr13  1  0.82384400  0.54575900  0.71267800  1
  Zr  Zr14  1  0.16362900  0.94421300  0.79584500  1
  Zr  Zr15  1  0.03146100  0.27937000  0.75359500  1
  N  N0  1  0.23903200  0.51265800  0.01863800  1
  N  N1  1  0.50507900  0.03708800  0.72494200  1
  N  N2  1  0.68815700  0.94622900  0.54333600  1
  N  N3  1  0.69140700  0.91466300  0.03548000  1
  N  N4  1  0.19884000  0.74336100  0.26467600  1
  N  N5  1  0.93941900  0.71233000  0.51245300  1
  N  N6  1  0.30435100  0.07339300  0.96944200  1
  N  N7  1  0.71538800  0.68541700  0.77169000  1
  N  N8  1  0.68287900  0.69648400  0.27213100  1
  N  N9  1  0.97000500  0.01477900  0.75921800  1
  N  N10  1  0.92537700  0.68895900  0.04195200  1
  N  N11  1  0.32669400  0.06476600  0.45139900  1
  N  N12  1  0.50100200  0.96573900  0.27222200  1
  N  N13  1  0.75063200  0.47943400  0.98795800  1
  N  N14  1  0.98973700  0.50164100  0.77129800  1
  N  N15  1  0.52253000  0.79040500  0.46829000  1
  O  O0  1  0.48323100  0.20913600  0.53102600  1
  O  O1  1  0.01258700  0.50136600  0.22874100  1
  O  O2  1  0.08440200  0.32319600  0.95061900  1
  O  O3  1  0.31998300  0.31093000  0.72656800  1
  O  O4  1  0.03619500  0.98581600  0.24006100  1
  O  O5  1  0.27832200  0.31339700  0.22843800  1
  O  O6  1  0.06079100  0.28579900  0.48649200  1
  O  O7  1  0.79875100  0.25043600  0.73724100  1
loop_
_geom_bond_atom_site_label_1
_geom_bond_atom_site_label_2
_geom_bond_distance
_geom_bond_site_symmetry_2
N0 O2 1.519845 1_554
N0 Zr15 2.132954 1_554
N0 Zr6 2.639302 1_554
N0 Zr4 2.671075 1_555
N0 Zr3 2.876634 1_554
N1 Zr1 1.702334 1_545
N1 Zr12 2.325350 1_556
N1 Zr8 2.413291 1_545
N2 Zr5 1.688943 1_555
N2 Zr1 1.883948 1_555
N3 Zr2 1.370110 1_565
N3 Zr8 2.075572 1_554
N3 Zr12 2.242224 1_565
N4 Zr0 1.859900 1_455
N4 O1 2.067359 1_555
N4 Zr1 2.263051 1_555
N4 Zr4 2.417668 1_555
N5 Zr5 1.963643 1_555
N5 Zr10 1.967237 1_655
N5 Zr14 2.240638 1_655
N5 Zr0 2.590855 1_555
N5 Zr13 2.889948 1_555
N6 Zr14 1.356363 1_545
N6 Zr9 2.058706 1_556
N6 Zr3 2.161028 1_545
N7 Zr13 1.850011 1_555
N7 Zr8 2.073008 1_555
N7 Zr7 2.406117 1_556
N8 Zr5 1.440673 1_555
N8 Zr6 2.118351 1_554
N9 Zr14 1.980143 1_645
N9 Zr5 2.161715 1_545
N9 Zr15 2.250087 1_655
N9 Zr7 2.351784 1_546
N10 Zr0 1.542142 1_555
N11 O0 1.275849 1_555
N11 Zr11 1.744556 1_555
N11 Zr1 1.824259 1_545
N12 Zr1 2.172206 1_555
N12 Zr9 2.331004 1_565
N12 Zr3 2.342196 1_554
N12 Zr2 2.829896 1_565
N13 Zr6 2.155889 1_555
N13 Zr12 2.828523 1_556
N14 Zr13 1.611515 1_555
N14 Zr10 2.547629 1_655
N14 Zr3 2.577305 1_655
N15 N2 1.376994 1_555
N15 Zr1 1.728896 1_555
N15 Zr8 2.504567 1_555
O0 Zr1 2.039476 1_545
O0 Zr9 2.428048 1_555
O1 Zr4 1.547610 1_555
O1 Zr10 2.345323 1_555
O1 Zr12 2.679293 1_455
O2 Zr15 1.520473 1_555
O3 Zr11 1.435041 1_555
O3 Zr6 2.047140 1_555
O3 Zr15 2.576309 1_555
O4 Zr7 1.885121 1_455
O4 Zr2 2.130642 1_465
O4 Zr0 2.158083 1_455
O4 Zr11 2.175393 1_565
O5 Zr4 1.897935 1_555
O5 Zr9 2.142889 1_555
O5 Zr7 2.654348 1_445
O6 Zr11 1.942984 1_555
O6 Zr10 2.260133 1_555
O6 Zr2 2.285555 1_455
O6 Zr15 2.486310 1_555
O7 Zr15 1.938801 1_655
O7 Zr1 2.539885 1_545
