# generated using pymatgen
data_Li5Mn2P2(CO7)2
_symmetry_space_group_name_H-M   'P 1'
_cell_length_a   6.63206800
_cell_length_b   5.02636300
_cell_length_c   8.46242836
_cell_angle_alpha   85.50202711
_cell_angle_beta   90.00000000
_cell_angle_gamma   90.00000000
_symmetry_Int_Tables_number   1
_chemical_formula_structural   Li5Mn2P2(CO7)2
_chemical_formula_sum   'Li5 Mn2 P2 C2 O14'
_cell_volume   281.22775602
_cell_formula_units_Z   1
loop_
 _symmetry_equiv_pos_site_id
 _symmetry_equiv_pos_as_xyz
  1  'x, y, z'
loop_
 _atom_site_type_symbol
 _atom_site_label
 _atom_site_symmetry_multiplicity
 _atom_site_fract_x
 _atom_site_fract_y
 _atom_site_fract_z
 _atom_site_occupancy
  Li  Li0  1  0.27705100  0.24606000  0.26320000  1
  Li  Li1  1  0.72294900  0.24606000  0.26320000  1
  Li  Li2  1  0.77601600  0.75226200  0.73396800  1
  Li  Li3  1  0.22398400  0.75226200  0.73396800  1
  Li  Li4  1  0.00000000  0.23438700  0.90304000  1
  Mn  Mn0  1  0.00000000  0.78450300  0.34215900  1
  Mn  Mn1  1  0.50000000  0.21283500  0.66475700  1
  P  P0  1  0.50000000  0.73468100  0.41901600  1
  P  P1  1  0.00000000  0.27707200  0.58814700  1
  C  C0  1  0.00000000  0.70413700  0.03675400  1
  C  C1  1  0.50000000  0.28998500  0.95344200  1
  O  O0  1  0.00000000  0.95038200  0.06935600  1
  O  O1  1  0.50000000  0.32655200  0.09908800  1
  O  O2  1  0.00000000  0.51621000  0.15217800  1
  O  O3  1  0.31233300  0.83762800  0.32720500  1
  O  O4  1  0.68766700  0.83762800  0.32720500  1
  O  O5  1  0.00000000  0.18743900  0.41761300  1
  O  O6  1  0.50000000  0.41820900  0.44247200  1
  O  O7  1  0.00000000  0.58896200  0.57665300  1
  O  O8  1  0.50000000  0.83169300  0.59076100  1
  O  O9  1  0.18245500  0.16928500  0.68887900  1
  O  O10  1  0.81754500  0.16928500  0.68887900  1
  O  O11  1  0.50000000  0.48582400  0.83997300  1
  O  O12  1  0.00000000  0.63651700  0.89143900  1
  O  O13  1  0.50000000  0.05457400  0.89748900  1
loop_
_geom_bond_atom_site_label_1
_geom_bond_atom_site_label_2
_geom_bond_distance
_geom_bond_site_symmetry_2
Li0 O1 2.047091 1_555
Li0 O3 2.094810 1_545
Li0 O5 2.260538 1_555
Li0 O6 2.332901 1_555
Li0 O2 2.429511 1_555
Li1 O1 2.047091 1_555
Li1 O4 2.094810 1_545
Li1 O5 2.260538 1_655
Li1 O6 2.332901 1_555
Li1 O2 2.429511 1_655
Li2 O12 2.049218 1_655
Li2 O10 2.118885 1_565
Li2 O7 2.196366 1_655
Li2 O8 2.214294 1_555
Li2 O11 2.400150 1_555
Li3 O12 2.049218 1_555
Li3 O9 2.118885 1_565
Li3 O7 2.196366 1_555
Li3 O8 2.214294 1_555
Li3 O11 2.400150 1_555
Li4 O0 1.924459 1_546
Li4 O12 2.015929 1_555
Li4 O9 2.224598 1_555
Li4 O10 2.224598 1_455
Mn0 O4 2.091117 1_455
Mn0 O3 2.091117 1_555
Mn0 O7 2.144272 1_555
Mn0 O5 2.170806 1_565
Mn0 O2 2.177914 1_555
Mn0 O0 2.392235 1_555
Mn1 O8 2.061649 1_545
Mn1 O13 2.065405 1_555
Mn1 O6 2.073517 1_555
Mn1 O11 2.097723 1_555
Mn1 O9 2.125495 1_555
Mn1 O10 2.125495 1_555
C0 O0 1.289038 1_555
C0 O12 1.301262 1_554
C0 O2 1.304457 1_555
C1 O1 1.260324 1_556
C1 O13 1.308505 1_555
C1 O11 1.320127 1_555
O3 P0 1.535389 1_555
O4 P0 1.535389 1_555
O5 P1 1.545180 1_555
O6 P0 1.587518 1_555
O7 P1 1.563055 1_555
O8 P0 1.568834 1_555
O9 P1 1.553050 1_555
O10 P1 1.553050 1_655
