# generated using pymatgen
data_La2Pt2O7
_symmetry_space_group_name_H-M   'P 1'
_cell_length_a   5.65797600
_cell_length_b   7.96667500
_cell_length_c   13.50603590
_cell_angle_alpha   81.59182494
_cell_angle_beta   90.00000000
_cell_angle_gamma   90.00000000
_symmetry_Int_Tables_number   1
_chemical_formula_structural   La2Pt2O7
_chemical_formula_sum   'La8 Pt8 O28'
_cell_volume   602.24445466
_cell_formula_units_Z   4
loop_
 _symmetry_equiv_pos_site_id
 _symmetry_equiv_pos_as_xyz
  1  'x, y, z'
loop_
 _atom_site_type_symbol
 _atom_site_label
 _atom_site_symmetry_multiplicity
 _atom_site_fract_x
 _atom_site_fract_y
 _atom_site_fract_z
 _atom_site_occupancy
  La  La0  1  0.76226700  0.77339800  0.90557800  1
  La  La1  1  0.33189800  0.85432200  0.57314300  1
  La  La2  1  0.24821600  0.71715600  0.12933700  1
  La  La3  1  0.79120000  0.64555900  0.39608600  1
  La  La4  1  0.29120000  0.35444100  0.60391400  1
  La  La5  1  0.74821600  0.28284400  0.87066300  1
  La  La6  1  0.83189800  0.14567800  0.42685700  1
  La  La7  1  0.26226700  0.22660200  0.09442200  1
  Pt  Pt0  1  0.27401300  0.92439400  0.31272800  1
  Pt  Pt1  1  0.76501200  0.97161400  0.11038900  1
  Pt  Pt2  1  0.77576200  0.58160900  0.68532200  1
  Pt  Pt3  1  0.26374800  0.52648900  0.88849100  1
  Pt  Pt4  1  0.76374800  0.47351100  0.11150900  1
  Pt  Pt5  1  0.27576200  0.41839100  0.31467800  1
  Pt  Pt6  1  0.26501200  0.02838600  0.88961100  1
  Pt  Pt7  1  0.77401300  0.07560600  0.68727200  1
  O  O0  1  0.45002000  0.98184100  0.17992500  1
  O  O1  1  0.54891700  0.92076700  0.40777800  1
  O  O2  1  0.66594400  0.82324800  0.70610500  1
  O  O3  1  0.34468200  0.77309900  0.90666300  1
  O  O4  1  0.06247000  0.87599700  0.43158600  1
  O  O5  1  0.06456900  0.94740000  0.02130100  1
  O  O6  1  0.96728100  0.87346600  0.23271000  1
  O  O7  1  0.06336500  0.62582100  0.60247900  1
  O  O8  1  0.94571800  0.57038900  0.81994500  1
  O  O9  1  0.38744000  0.67279800  0.30861300  1
  O  O10  1  0.67702700  0.72835700  0.08756000  1
  O  O11  1  0.57748600  0.59553900  0.55975700  1
  O  O12  1  0.56523400  0.46123200  0.97773000  1
  O  O13  1  0.46607500  0.48875500  0.76517000  1
  O  O14  1  0.96607500  0.51124500  0.23483000  1
  O  O15  1  0.06523400  0.53876800  0.02227000  1
  O  O16  1  0.07748600  0.40446100  0.44024300  1
  O  O17  1  0.17702700  0.27164300  0.91244000  1
  O  O18  1  0.88744000  0.32720200  0.69138700  1
  O  O19  1  0.44571800  0.42961100  0.18005500  1
  O  O20  1  0.56336500  0.37417900  0.39752100  1
  O  O21  1  0.46728100  0.12653400  0.76729000  1
  O  O22  1  0.56456900  0.05260000  0.97869900  1
  O  O23  1  0.56247000  0.12400300  0.56841400  1
  O  O24  1  0.84468200  0.22690100  0.09333700  1
  O  O25  1  0.16594400  0.17675200  0.29389500  1
  O  O26  1  0.04891700  0.07923300  0.59222200  1
  O  O27  1  0.95002000  0.01815900  0.82007500  1
loop_
_geom_bond_atom_site_label_1
_geom_bond_atom_site_label_2
_geom_bond_distance
_geom_bond_site_symmetry_2
La0 O8 2.361718 1_555
La0 O3 2.362730 1_555
La0 O27 2.367649 1_565
La0 O10 2.478807 1_556
La0 O2 2.720286 1_555
La0 O12 2.769202 1_555
La0 O22 2.795797 1_565
La0 O5 2.814887 1_656
La0 O15 2.838094 1_656
La1 O7 2.359728 1_555
La1 O4 2.431538 1_555
La1 O26 2.444477 1_565
La1 O23 2.506340 1_565
La1 O11 2.514527 1_555
La1 O1 2.535815 1_555
La1 O2 2.593902 1_555
La2 O15 2.404916 1_555
La2 O5 2.406367 1_555
La2 O10 2.489591 1_555
La2 O9 2.521486 1_555
La2 O19 2.550824 1_555
La2 O6 2.556364 1_455
La2 O14 2.566286 1_455
La2 O0 2.576493 1_555
La3 O4 2.492646 1_655
La3 O11 2.499967 1_555
La3 O20 2.514774 1_555
La3 O16 2.516685 1_655
La3 O9 2.566443 1_555
La3 O1 2.610056 1_555
La3 O14 2.747523 1_555
La3 O6 2.826026 1_555
La4 O23 2.492646 1_555
La4 O16 2.499967 1_555
La4 O7 2.514774 1_555
La4 O11 2.516685 1_555
La4 O18 2.566443 1_455
La4 O26 2.610056 1_555
La4 O13 2.747523 1_555
La4 O21 2.826026 1_555
La5 O12 2.404916 1_555
La5 O22 2.406367 1_555
La5 O17 2.489591 1_655
La5 O18 2.521486 1_555
La5 O8 2.550824 1_555
La5 O21 2.556364 1_555
La5 O13 2.566286 1_555
La5 O27 2.576493 1_555
La6 O20 2.359728 1_555
La6 O23 2.431538 1_555
La6 O1 2.444477 1_545
La6 O4 2.506340 1_645
La6 O16 2.514527 1_655
La6 O26 2.535815 1_655
La6 O25 2.593902 1_655
La7 O19 2.361718 1_555
La7 O24 2.362730 1_455
La7 O0 2.367649 1_545
La7 O17 2.478807 1_554
La7 O25 2.720286 1_555
La7 O15 2.769202 1_555
La7 O5 2.795797 1_545
La7 O22 2.814887 1_554
La7 O12 2.838094 1_554
O0 Pt1 2.021714 1_555
O0 Pt0 2.044076 1_555
O1 Pt0 2.014266 1_555
O2 Pt2 2.080563 1_555
O2 Pt7 2.081093 1_565
O3 Pt6 2.062899 1_565
O3 Pt3 2.066601 1_555
O4 Pt0 1.994297 1_555
O5 Pt1 2.103683 1_455
O5 Pt6 2.128453 1_564
O6 Pt1 2.067046 1_555
O6 Pt0 2.114879 1_655
O7 Pt2 1.977030 1_455
O8 Pt3 2.030410 1_655
O8 Pt2 2.047214 1_555
O9 Pt0 2.113075 1_555
O9 Pt5 2.113113 1_555
O10 Pt1 2.067192 1_555
O10 Pt4 2.067690 1_555
O11 Pt2 2.022827 1_555
O12 Pt3 2.109372 1_555
O12 Pt4 2.141827 1_556
O13 Pt3 2.078804 1_555
O13 Pt2 2.132400 1_555
O14 Pt4 2.078804 1_555
O14 Pt5 2.132400 1_655
O15 Pt4 2.109372 1_455
O15 Pt3 2.141827 1_554
O16 Pt5 2.022827 1_555
O17 Pt6 2.067192 1_555
O17 Pt3 2.067690 1_555
O18 Pt7 2.113075 1_555
O18 Pt2 2.113113 1_555
O19 Pt4 2.030410 1_555
O19 Pt5 2.047214 1_555
O20 Pt5 1.977030 1_555
O21 Pt6 2.067046 1_555
O21 Pt7 2.114879 1_555
O22 Pt6 2.103683 1_555
O22 Pt1 2.128453 1_546
O23 Pt7 1.994297 1_555
O24 Pt1 2.062899 1_545
O24 Pt4 2.066601 1_555
O25 Pt5 2.080563 1_555
O25 Pt0 2.081093 1_545
O26 Pt7 2.014266 1_455
O27 Pt6 2.021714 1_655
O27 Pt7 2.044076 1_555
