# generated using pymatgen
data_Li2V3FeO8
_symmetry_space_group_name_H-M   'P 1'
_cell_length_a   5.87221487
_cell_length_b   5.87221487
_cell_length_c   5.87221444
_cell_angle_alpha   60.73489760
_cell_angle_beta   60.73489760
_cell_angle_gamma   60.73489685
_symmetry_Int_Tables_number   1
_chemical_formula_structural   Li2V3FeO8
_chemical_formula_sum   'Li2 V3 Fe1 O8'
_cell_volume   145.55716717
_cell_formula_units_Z   1
loop_
 _symmetry_equiv_pos_site_id
 _symmetry_equiv_pos_as_xyz
  1  'x, y, z'
loop_
 _atom_site_type_symbol
 _atom_site_label
 _atom_site_symmetry_multiplicity
 _atom_site_fract_x
 _atom_site_fract_y
 _atom_site_fract_z
 _atom_site_occupancy
  Li  Li0  1  0.87474400  0.87474400  0.87474400  1
  Li  Li1  1  0.12525600  0.12525600  0.12525600  1
  V  V0  1  0.00000000  0.50000000  0.50000000  1
  V  V1  1  0.50000000  0.00000000  0.50000000  1
  V  V2  1  0.50000000  0.50000000  0.00000000  1
  Fe  Fe0  1  0.50000000  0.50000000  0.50000000  1
  O  O0  1  0.73931000  0.73931000  0.73931000  1
  O  O1  1  0.74015500  0.74015500  0.28789500  1
  O  O2  1  0.74015500  0.28789500  0.74015500  1
  O  O3  1  0.28789500  0.74015500  0.74015500  1
  O  O4  1  0.71210500  0.25984500  0.25984500  1
  O  O5  1  0.25984500  0.71210500  0.25984500  1
  O  O6  1  0.25984500  0.25984500  0.71210500  1
  O  O7  1  0.26069000  0.26069000  0.26069000  1
loop_
_geom_bond_atom_site_label_1
_geom_bond_atom_site_label_2
_geom_bond_distance
_geom_bond_site_symmetry_2
Li0 O0 1.937183 1_555
Li0 O1 1.999151 1_556
Li0 O3 1.999151 1_655
Li0 O2 1.999151 1_565
Li1 O7 1.937183 1_555
Li1 O6 1.999151 1_554
Li1 O5 1.999151 1_545
Li1 O4 1.999151 1_455
Fe0 O3 2.009647 1_555
Fe0 O4 2.009647 1_555
Fe0 O5 2.009647 1_555
Fe0 O2 2.009647 1_555
Fe0 O6 2.009647 1_555
Fe0 O1 2.009647 1_555
O0 V0 2.004317 1_655
O0 V1 2.004317 1_565
O0 V2 2.004317 1_556
O1 V0 1.976190 1_655
O1 V1 1.976190 1_565
O2 V2 1.976190 1_556
O2 V0 1.976190 1_655
O3 V2 1.976190 1_556
O3 V1 1.976190 1_565
O4 V2 1.976190 1_555
O4 V1 1.976190 1_555
O5 V2 1.976190 1_555
O5 V0 1.976190 1_555
O6 V0 1.976190 1_555
O6 V1 1.976190 1_555
O7 V0 2.004317 1_555
O7 V1 2.004317 1_555
O7 V2 2.004317 1_555
