# generated using pymatgen
data_Li5SbS
_symmetry_space_group_name_H-M   'P 1'
_cell_length_a   8.14613300
_cell_length_b   8.39263400
_cell_length_c   16.47263566
_cell_angle_alpha   85.18954462
_cell_angle_beta   90.00000000
_cell_angle_gamma   90.00000000
_symmetry_Int_Tables_number   1
_chemical_formula_structural   Li5SbS
_chemical_formula_sum   'Li40 Sb8 S8'
_cell_volume   1122.22619576
_cell_formula_units_Z   8
loop_
 _symmetry_equiv_pos_site_id
 _symmetry_equiv_pos_as_xyz
  1  'x, y, z'
loop_
 _atom_site_type_symbol
 _atom_site_label
 _atom_site_symmetry_multiplicity
 _atom_site_fract_x
 _atom_site_fract_y
 _atom_site_fract_z
 _atom_site_occupancy
  Li  Li0  1  0.48745000  0.99900300  0.60837200  1
  Li  Li1  1  0.81186300  0.99363900  0.69906900  1
  Li  Li2  1  0.82531200  0.98594300  0.53281400  1
  Li  Li3  1  0.01255000  0.99900300  0.10837200  1
  Li  Li4  1  0.68813700  0.99363900  0.19906900  1
  Li  Li5  1  0.67468800  0.98594300  0.03281400  1
  Li  Li6  1  0.49771000  0.70287800  0.91221500  1
  Li  Li7  1  0.12182000  0.72408200  0.74424400  1
  Li  Li8  1  0.56977000  0.73892700  0.74847700  1
  Li  Li9  1  0.82958200  0.69186300  0.86517800  1
  Li  Li10  1  0.21207200  0.71552500  0.57740400  1
  Li  Li11  1  0.00229000  0.70287800  0.41221500  1
  Li  Li12  1  0.56788100  0.61833900  0.54234000  1
  Li  Li13  1  0.83009700  0.55086800  0.65272100  1
  Li  Li14  1  0.37818000  0.72408200  0.24424400  1
  Li  Li15  1  0.93023000  0.73892700  0.24847700  1
  Li  Li16  1  0.67041800  0.69186300  0.36517800  1
  Li  Li17  1  0.28792800  0.71552500  0.07740400  1
  Li  Li18  1  0.93211900  0.61833900  0.04234000  1
  Li  Li19  1  0.66990300  0.55086800  0.15272100  1
  Li  Li20  1  0.33009700  0.44913200  0.84727900  1
  Li  Li21  1  0.06788100  0.38166100  0.95766000  1
  Li  Li22  1  0.71207200  0.28447500  0.92259600  1
  Li  Li23  1  0.32958200  0.30813700  0.63482200  1
  Li  Li24  1  0.06977000  0.26107300  0.75152300  1
  Li  Li25  1  0.62182000  0.27591800  0.75575600  1
  Li  Li26  1  0.16990300  0.44913200  0.34727900  1
  Li  Li27  1  0.43211900  0.38166100  0.45766000  1
  Li  Li28  1  0.99771000  0.29712200  0.58778500  1
  Li  Li29  1  0.78792800  0.28447500  0.42259600  1
  Li  Li30  1  0.17041800  0.30813700  0.13482200  1
  Li  Li31  1  0.43023000  0.26107300  0.25152300  1
  Li  Li32  1  0.87818000  0.27591800  0.25575600  1
  Li  Li33  1  0.50229000  0.29712200  0.08778500  1
  Li  Li34  1  0.32531200  0.01405700  0.96718600  1
  Li  Li35  1  0.31186300  0.00636100  0.80093100  1
  Li  Li36  1  0.98745000  0.00099700  0.89162800  1
  Li  Li37  1  0.17468800  0.01405700  0.46718600  1
  Li  Li38  1  0.18813700  0.00636100  0.30093100  1
  Li  Li39  1  0.51255000  0.00099700  0.39162800  1
  Sb  Sb0  1  0.15015600  0.01165700  0.64282000  1
  Sb  Sb1  1  0.34984400  0.01165700  0.14282000  1
  Sb  Sb2  1  0.16032200  0.70754400  0.91692200  1
  Sb  Sb3  1  0.33967800  0.70754400  0.41692200  1
  Sb  Sb4  1  0.66032200  0.29245600  0.58307800  1
  Sb  Sb5  1  0.83967800  0.29245600  0.08307800  1
  Sb  Sb6  1  0.65015600  0.98834300  0.85718000  1
  Sb  Sb7  1  0.84984400  0.98834300  0.35718000  1
  S  S0  1  0.68890700  0.79439900  0.62267000  1
  S  S1  1  0.81109300  0.79439900  0.12267000  1
  S  S2  1  0.62244100  0.50282600  0.83365900  1
  S  S3  1  0.12244100  0.49717400  0.66634100  1
  S  S4  1  0.87755900  0.50282600  0.33365900  1
  S  S5  1  0.37755900  0.49717400  0.16634100  1
  S  S6  1  0.18890700  0.20560100  0.87733000  1
  S  S7  1  0.31109300  0.20560100  0.37733000  1
loop_
_geom_bond_atom_site_label_1
_geom_bond_atom_site_label_2
_geom_bond_distance
_geom_bond_site_symmetry_2
Li0 S0 2.372656 1_555
Li0 Sb0 2.809434 1_565
Li0 Sb4 2.837293 1_565
Li1 S0 2.395008 1_555
Li1 Sb0 2.907270 1_665
Li1 Sb6 2.915690 1_555
Li1 Sb4 3.265014 1_565
Li2 S0 2.368704 1_555
Li2 Sb7 2.898433 1_555
Li2 Sb4 3.076802 1_565
Li2 Sb0 3.224643 1_665
Li3 S1 2.372656 1_455
Li3 Sb1 2.809434 1_565
Li3 Sb5 2.837293 1_465
Li4 S1 2.395008 1_555
Li4 Sb1 2.907270 1_565
Li4 Sb7 2.915690 1_555
Li4 Sb5 3.265014 1_565
Li5 S1 2.368704 1_555
Li5 Sb6 2.898433 1_554
Li5 Sb5 3.076802 1_565
Li5 Sb1 3.224643 1_565
Li6 S2 2.426977 1_555
Li6 Sb2 2.749872 1_555
Li6 Sb6 2.782022 1_555
Li7 S3 2.383956 1_555
Li7 Sb0 2.827248 1_565
Li7 Sb2 2.853486 1_555
Li8 S0 2.300334 1_555
Li8 S2 2.369186 1_555
Li8 Sb6 2.940327 1_555
Li9 S2 2.402515 1_555
Li9 Sb2 2.832251 1_655
Li9 Sb6 2.879255 1_555
Li10 S3 2.363756 1_555
Li10 Sb0 2.835769 1_565
Li10 Sb3 2.846604 1_555
Li11 S4 2.426977 1_455
Li11 Sb3 2.749872 1_555
Li11 Sb7 2.782022 1_455
Li12 S0 2.287842 1_555
Li12 Sb3 2.832856 1_555
Li12 Sb4 2.861796 1_555
Li13 S0 2.361270 1_555
Li13 S3 2.430610 1_655
Li13 Sb4 2.889565 1_555
Li14 S5 2.383956 1_555
Li14 Sb1 2.827248 1_565
Li14 Sb3 2.853486 1_555
Li15 S1 2.300334 1_555
Li15 S4 2.369186 1_555
Li15 Sb7 2.940327 1_555
Li16 S4 2.402515 1_555
Li16 Sb3 2.832251 1_555
Li16 Sb7 2.879255 1_555
Li17 S5 2.363756 1_555
Li17 Sb1 2.835769 1_565
Li17 Sb2 2.846604 1_554
Li18 S1 2.287842 1_555
Li18 Sb2 2.832856 1_654
Li18 Sb5 2.861796 1_555
Li19 S1 2.361270 1_555
Li19 S5 2.430610 1_555
Li19 Sb5 2.889565 1_555
Li20 S6 2.361270 1_555
Li20 S2 2.430610 1_555
Li20 Sb2 2.889565 1_555
Li21 S6 2.287842 1_555
Li21 Sb5 2.832856 1_456
Li21 Sb2 2.861796 1_555
Li22 S2 2.363756 1_555
Li22 Sb6 2.835769 1_545
Li22 Sb5 2.846604 1_556
Li23 S3 2.402515 1_555
Li23 Sb4 2.832251 1_555
Li23 Sb0 2.879255 1_555
Li24 S6 2.300334 1_555
Li24 S3 2.369186 1_555
Li24 Sb0 2.940327 1_555
Li25 S2 2.383956 1_555
Li25 Sb6 2.827248 1_545
Li25 Sb4 2.853486 1_555
Li26 S7 2.361270 1_555
Li26 S4 2.430610 1_455
Li26 Sb3 2.889565 1_555
Li27 S7 2.287842 1_555
Li27 Sb4 2.832856 1_555
Li27 Sb3 2.861796 1_555
Li28 S3 2.426977 1_655
Li28 Sb4 2.749872 1_555
Li28 Sb0 2.782022 1_655
Li29 S4 2.363756 1_555
Li29 Sb7 2.835769 1_545
Li29 Sb4 2.846604 1_555
Li30 S5 2.402515 1_555
Li30 Sb5 2.832251 1_455
Li30 Sb1 2.879255 1_555
Li31 S7 2.300334 1_555
Li31 S5 2.369186 1_555
Li31 Sb1 2.940327 1_555
Li32 S4 2.383956 1_555
Li32 Sb7 2.827248 1_545
Li32 Sb5 2.853486 1_555
Li33 S5 2.426977 1_555
Li33 Sb5 2.749872 1_555
Li33 Sb1 2.782022 1_555
Li34 S6 2.368704 1_555
Li34 Sb1 2.898433 1_556
Li34 Sb2 3.076802 1_545
Li34 Sb6 3.224643 1_545
Li35 S6 2.395008 1_555
Li35 Sb6 2.907270 1_545
Li35 Sb0 2.915690 1_555
Li35 Sb2 3.265014 1_545
Li36 S6 2.372656 1_655
Li36 Sb6 2.809434 1_545
Li36 Sb2 2.837293 1_645
Li37 S7 2.368704 1_555
Li37 Sb0 2.898433 1_555
Li37 Sb3 3.076802 1_545
Li37 Sb7 3.224643 1_445
Li38 S7 2.395008 1_555
Li38 Sb7 2.907270 1_445
Li38 Sb1 2.915690 1_555
Li38 Sb3 3.265014 1_545
Li39 S7 2.372656 1_555
Li39 Sb7 2.809434 1_545
Li39 Sb3 2.837293 1_545
