# generated using pymatgen
data_LiMn2OF3
_symmetry_space_group_name_H-M   'P 1'
_cell_length_a   6.18877179
_cell_length_b   6.18869618
_cell_length_c   6.37543697
_cell_angle_alpha   60.71610418
_cell_angle_beta   60.72095179
_cell_angle_gamma   61.93065244
_symmetry_Int_Tables_number   1
_chemical_formula_structural   LiMn2OF3
_chemical_formula_sum   'Li2 Mn4 O2 F6'
_cell_volume   176.97350451
_cell_formula_units_Z   2
loop_
 _symmetry_equiv_pos_site_id
 _symmetry_equiv_pos_as_xyz
  1  'x, y, z'
loop_
 _atom_site_type_symbol
 _atom_site_label
 _atom_site_symmetry_multiplicity
 _atom_site_fract_x
 _atom_site_fract_y
 _atom_site_fract_z
 _atom_site_occupancy
  Li  Li0  1  0.37491200  0.37504600  0.87502400  1
  Li  Li1  1  0.37498600  0.37501700  0.37507900  1
  Mn  Mn0  1  0.37533200  0.87491600  0.37492000  1
  Mn  Mn1  1  0.87516900  0.37490800  0.37495000  1
  Mn  Mn2  1  0.01940200  0.01992900  0.93236500  1
  Mn  Mn3  1  0.73006100  0.73032200  0.81764200  1
  O  O0  1  0.14135100  0.14114500  0.55788800  1
  O  O1  1  0.60889600  0.60873800  0.19210600  1
  F  F0  1  0.61134300  0.61113400  0.64461200  1
  F  F1  1  0.13873000  0.13870400  0.10541500  1
  F  F2  1  0.13339600  0.60289500  0.64370700  1
  F  F3  1  0.61650700  0.14713300  0.10635400  1
  F  F4  1  0.14700000  0.61670600  0.10620200  1
  F  F5  1  0.60291400  0.13340700  0.64373700  1
loop_
_geom_bond_atom_site_label_1
_geom_bond_atom_site_label_2
_geom_bond_distance
_geom_bond_site_symmetry_2
Li1 O0 2.052991 1_555
Li1 O1 2.053446 1_555
Mn0 O1 2.037388 1_555
Mn0 O0 2.038363 1_565
Mn1 O0 2.037842 1_655
Mn1 O1 2.037915 1_555
Mn2 O0 1.962288 1_555
Mn3 O1 1.962298 1_556
F0 Li0 2.059970 1_555
F0 Mn3 2.097526 1_555
F0 Mn0 2.285029 1_555
F0 Mn1 2.285958 1_555
F1 Li0 2.059989 1_554
F1 Mn2 2.098580 1_554
F1 Mn1 2.285213 1_455
F1 Mn0 2.286633 1_545
F2 Mn3 2.092338 1_455
F2 Li0 2.129692 1_555
F2 Li1 2.243042 1_555
F2 Mn0 2.247821 1_555
F3 Mn2 2.090221 1_654
F3 Li0 2.130104 1_554
F3 Li1 2.243530 1_555
F3 Mn0 2.245520 1_545
F4 Mn2 2.091661 1_564
F4 Li0 2.129843 1_554
F4 Li1 2.244532 1_555
F4 Mn1 2.246454 1_455
F5 Mn3 2.090863 1_545
F5 Li0 2.130239 1_555
F5 Li1 2.243246 1_555
F5 Mn1 2.247095 1_555
