# generated using pymatgen
data_FeBP2H5NO9
_symmetry_space_group_name_H-M   'P 1'
_cell_length_a   8.39051600
_cell_length_b   9.47341100
_cell_length_c   9.80092077
_cell_angle_alpha   77.74485860
_cell_angle_beta   90.00000000
_cell_angle_gamma   90.00000000
_symmetry_Int_Tables_number   1
_chemical_formula_structural   FeBP2H5NO9
_chemical_formula_sum   'Fe4 B4 P8 H20 N4 O36'
_cell_volume   761.29108990
_cell_formula_units_Z   4
loop_
 _symmetry_equiv_pos_site_id
 _symmetry_equiv_pos_as_xyz
  1  'x, y, z'
loop_
 _atom_site_type_symbol
 _atom_site_label
 _atom_site_symmetry_multiplicity
 _atom_site_fract_x
 _atom_site_fract_y
 _atom_site_fract_z
 _atom_site_occupancy
  Fe  Fe0  1  0.34649400  0.78813700  0.93061900  1
  Fe  Fe1  1  0.15350600  0.78813700  0.43061900  1
  Fe  Fe2  1  0.84649400  0.21186300  0.56938100  1
  Fe  Fe3  1  0.65350600  0.21186300  0.06938100  1
  B  B0  1  0.93755000  0.66761100  0.69156400  1
  B  B1  1  0.56245000  0.66761100  0.19156400  1
  B  B2  1  0.43755000  0.33238900  0.80843600  1
  B  B3  1  0.06245000  0.33238900  0.30843600  1
  P  P0  1  0.06241100  0.92449100  0.70511800  1
  P  P1  1  0.43758900  0.92449100  0.20511800  1
  P  P2  1  0.25712300  0.57814200  0.71634100  1
  P  P3  1  0.24287700  0.57814200  0.21634100  1
  P  P4  1  0.75712300  0.42185800  0.78365900  1
  P  P5  1  0.74287700  0.42185800  0.28365900  1
  P  P6  1  0.56241100  0.07550900  0.79488200  1
  P  P7  1  0.93758900  0.07550900  0.29488200  1
  H  H0  1  0.68636600  0.88784500  0.52154500  1
  H  H1  1  0.55419300  0.84519100  0.65392100  1
  H  H2  1  0.50131000  0.82954100  0.48912900  1
  H  H3  1  0.81363400  0.88784500  0.02154500  1
  H  H4  1  0.94580700  0.84519100  0.15392100  1
  H  H5  1  0.63505000  0.71481600  0.58438900  1
  H  H6  1  0.99869000  0.82954100  0.98912900  1
  H  H7  1  0.86495000  0.71481600  0.08438900  1
  H  H8  1  0.91746200  0.60020900  0.50346400  1
  H  H9  1  0.58253800  0.60020900  0.00346400  1
  H  H10  1  0.41746200  0.39979100  0.99653600  1
  H  H11  1  0.08253800  0.39979100  0.49653600  1
  H  H12  1  0.13505000  0.28518400  0.91561100  1
  H  H13  1  0.00131000  0.17045900  0.01087100  1
  H  H14  1  0.36495000  0.28518400  0.41561100  1
  H  H15  1  0.05419300  0.15480900  0.84607900  1
  H  H16  1  0.18636600  0.11215500  0.97845500  1
  H  H17  1  0.49869000  0.17045900  0.51087100  1
  H  H18  1  0.44580700  0.15480900  0.34607900  1
  H  H19  1  0.31363400  0.11215500  0.47845500  1
  N  N0  1  0.59389900  0.81921000  0.56122800  1
  N  N1  1  0.90610100  0.81921000  0.06122800  1
  N  N2  1  0.09389900  0.18079000  0.93877200  1
  N  N3  1  0.40610100  0.18079000  0.43877200  1
  O  O0  1  0.49417400  0.92318800  0.80572900  1
  O  O1  1  0.15312800  0.88750600  0.84596400  1
  O  O2  1  0.16575700  0.91143400  0.57843800  1
  O  O3  1  0.00582600  0.92318800  0.30572900  1
  O  O4  1  0.91883400  0.81393600  0.71878600  1
  O  O5  1  0.34687200  0.88750600  0.34596400  1
  O  O6  1  0.33424300  0.91143400  0.07843800  1
  O  O7  1  0.58116600  0.81393600  0.21878600  1
  O  O8  1  0.37049600  0.65519100  0.79907400  1
  O  O9  1  0.94745700  0.68681000  0.53641500  1
  O  O10  1  0.07951000  0.59160500  0.76220400  1
  O  O11  1  0.79024000  0.58924400  0.74247700  1
  O  O12  1  0.27639600  0.62917800  0.55825700  1
  O  O13  1  0.12950400  0.65519100  0.29907400  1
  O  O14  1  0.55254300  0.68681000  0.03641500  1
  O  O15  1  0.42049000  0.59160500  0.26220400  1
  O  O16  1  0.70976000  0.58924400  0.24247700  1
  O  O17  1  0.22360400  0.62917800  0.05825700  1
  O  O18  1  0.77639600  0.37082200  0.94174300  1
  O  O19  1  0.29024000  0.41075600  0.75752300  1
  O  O20  1  0.57951000  0.40839500  0.73779600  1
  O  O21  1  0.44745700  0.31319000  0.96358500  1
  O  O22  1  0.87049600  0.34480900  0.70092600  1
  O  O23  1  0.72360400  0.37082200  0.44174300  1
  O  O24  1  0.20976000  0.41075600  0.25752300  1
  O  O25  1  0.92049000  0.40839500  0.23779600  1
  O  O26  1  0.05254300  0.31319000  0.46358500  1
  O  O27  1  0.62950400  0.34480900  0.20092600  1
  O  O28  1  0.41883400  0.18606400  0.78121400  1
  O  O29  1  0.66575700  0.08856600  0.92156200  1
  O  O30  1  0.65312800  0.11249400  0.65403600  1
  O  O31  1  0.08116600  0.18606400  0.28121400  1
  O  O32  1  0.99417400  0.07681200  0.69427100  1
  O  O33  1  0.83424300  0.08856600  0.42156200  1
  O  O34  1  0.84687200  0.11249400  0.15403600  1
  O  O35  1  0.50582600  0.07681200  0.19427100  1
loop_
_geom_bond_atom_site_label_1
_geom_bond_atom_site_label_2
_geom_bond_distance
_geom_bond_site_symmetry_2
Fe0 O1 1.968577 1_555
Fe0 O8 1.994571 1_555
Fe0 O0 2.001421 1_555
Fe0 O17 2.023873 1_556
Fe0 O6 2.047487 1_556
Fe0 O14 2.136115 1_556
Fe1 O5 1.968577 1_555
Fe1 O13 1.994571 1_555
Fe1 O3 2.001421 1_555
Fe1 O12 2.023873 1_555
Fe1 O2 2.047487 1_555
Fe1 O9 2.136115 1_455
Fe2 O30 1.968577 1_555
Fe2 O22 1.994571 1_555
Fe2 O32 2.001421 1_555
Fe2 O23 2.023873 1_555
Fe2 O33 2.047487 1_555
Fe2 O26 2.136115 1_655
Fe3 O34 1.968577 1_555
Fe3 O27 1.994571 1_555
Fe3 O35 2.001421 1_555
Fe3 O18 2.023873 1_554
Fe3 O29 2.047487 1_554
Fe3 O21 2.136115 1_554
B0 O11 1.473296 1_555
B0 O4 1.474582 1_555
B0 O10 1.484895 1_655
B0 O9 1.494929 1_555
B1 O16 1.473296 1_555
B1 O7 1.474582 1_555
B1 O15 1.484895 1_555
B1 O14 1.494929 1_555
B2 O19 1.473296 1_555
B2 O28 1.474582 1_555
B2 O20 1.484895 1_555
B2 O21 1.494929 1_555
B3 O24 1.473296 1_555
B3 O31 1.474582 1_555
B3 O25 1.484895 1_455
B3 O26 1.494929 1_555
H0 N0 1.033739 1_555
H1 N0 1.044905 1_555
H2 N0 1.040711 1_555
H3 N1 1.033739 1_555
H4 N1 1.044905 1_555
H5 N0 1.026400 1_555
H6 N1 1.040711 1_556
H7 N1 1.026400 1_555
H8 O9 0.976311 1_555
H9 O14 0.976311 1_555
H10 O21 0.976311 1_555
H11 O26 0.976311 1_555
H12 N2 1.026400 1_555
H13 N2 1.040711 1_554
H14 N3 1.026400 1_555
H15 N2 1.044905 1_555
H16 N2 1.033739 1_555
H17 N3 1.040711 1_555
H18 N3 1.044905 1_555
H19 N3 1.033739 1_555
O0 P6 1.535002 1_565
O1 P0 1.549955 1_555
O2 P0 1.540756 1_555
O3 P7 1.535002 1_465
O4 P0 1.583211 1_655
O5 P1 1.549955 1_555
O6 P1 1.540756 1_555
O7 P1 1.583211 1_555
O8 P2 1.531805 1_555
O10 P2 1.569568 1_555
O11 P4 1.575724 1_555
O12 P2 1.530502 1_555
O13 P3 1.531805 1_555
O15 P3 1.569568 1_555
O16 P5 1.575724 1_555
O17 P3 1.530502 1_555
O18 P4 1.530502 1_555
O19 P2 1.575724 1_555
O20 P4 1.569568 1_555
O22 P4 1.531805 1_555
O23 P5 1.530502 1_555
O24 P3 1.575724 1_555
O25 P5 1.569568 1_555
O27 P5 1.531805 1_555
O28 P6 1.583211 1_555
O29 P6 1.540756 1_555
O30 P6 1.549955 1_555
O31 P7 1.583211 1_455
O32 P0 1.535002 1_645
O33 P7 1.540756 1_555
O34 P7 1.549955 1_555
O35 P1 1.535002 1_545
