# generated using pymatgen
data_Li2MnF4
_symmetry_space_group_name_H-M   'P 1'
_cell_length_a   8.99139972
_cell_length_b   8.99139972
_cell_length_c   8.99139890
_cell_angle_alpha   107.56057124
_cell_angle_beta   107.56057124
_cell_angle_gamma   107.56056915
_symmetry_Int_Tables_number   1
_chemical_formula_structural   Li2MnF4
_chemical_formula_sum   'Li12 Mn6 F24'
_cell_volume   595.87968963
_cell_formula_units_Z   6
loop_
 _symmetry_equiv_pos_site_id
 _symmetry_equiv_pos_as_xyz
  1  'x, y, z'
loop_
 _atom_site_type_symbol
 _atom_site_label
 _atom_site_symmetry_multiplicity
 _atom_site_fract_x
 _atom_site_fract_y
 _atom_site_fract_z
 _atom_site_occupancy
  Li  Li0  1  0.94340200  0.08176300  0.70695100  1
  Li  Li1  1  0.91823700  0.29304900  0.05659800  1
  Li  Li2  1  0.77488700  0.35485200  0.63575400  1
  Li  Li3  1  0.29304900  0.05659800  0.91823700  1
  Li  Li4  1  0.64514800  0.36424600  0.22511300  1
  Li  Li5  1  0.36424600  0.22511300  0.64514800  1
  Li  Li6  1  0.63575400  0.77488700  0.35485200  1
  Li  Li7  1  0.35485200  0.63575400  0.77488700  1
  Li  Li8  1  0.70695100  0.94340200  0.08176300  1
  Li  Li9  1  0.22511300  0.64514800  0.36424600  1
  Li  Li10  1  0.08176300  0.70695100  0.94340200  1
  Li  Li11  1  0.05659800  0.91823700  0.29304900  1
  Mn  Mn0  1  0.00956000  0.29378900  0.44685600  1
  Mn  Mn1  1  0.55314400  0.99044000  0.70621100  1
  Mn  Mn2  1  0.70621100  0.55314400  0.99044000  1
  Mn  Mn3  1  0.29378900  0.44685600  0.00956000  1
  Mn  Mn4  1  0.44685600  0.00956000  0.29378900  1
  Mn  Mn5  1  0.99044000  0.70621100  0.55314400  1
  F  F0  1  0.87864200  0.17243600  0.18976000  1
  F  F1  1  0.91538100  0.24035000  0.61088100  1
  F  F2  1  0.81024000  0.12135800  0.82756400  1
  F  F3  1  0.38911900  0.08461900  0.75965000  1
  F  F4  1  0.53869400  0.18305800  0.55505800  1
  F  F5  1  0.84578900  0.53721500  0.84551800  1
  F  F6  1  0.46278500  0.15448200  0.15421100  1
  F  F7  1  0.75965000  0.38911900  0.08461900  1
  F  F8  1  0.81694200  0.44494200  0.46130600  1
  F  F9  1  0.44494200  0.46130600  0.81694200  1
  F  F10  1  0.82756400  0.81024000  0.12135800  1
  F  F11  1  0.15448200  0.15421100  0.46278500  1
  F  F12  1  0.84551800  0.84578900  0.53721500  1
  F  F13  1  0.17243600  0.18976000  0.87864200  1
  F  F14  1  0.55505800  0.53869400  0.18305800  1
  F  F15  1  0.18305800  0.55505800  0.53869400  1
  F  F16  1  0.24035000  0.61088100  0.91538100  1
  F  F17  1  0.53721500  0.84551800  0.84578900  1
  F  F18  1  0.15421100  0.46278500  0.15448200  1
  F  F19  1  0.46130600  0.81694200  0.44494200  1
  F  F20  1  0.61088100  0.91538100  0.24035000  1
  F  F21  1  0.18976000  0.87864200  0.17243600  1
  F  F22  1  0.08461900  0.75965000  0.38911900  1
  F  F23  1  0.12135800  0.82756400  0.81024000  1
loop_
_geom_bond_atom_site_label_1
_geom_bond_atom_site_label_2
_geom_bond_distance
_geom_bond_site_symmetry_2
F0 Li8 1.880783 1_545
F0 Li1 1.882596 1_555
F0 Mn0 1.995211 1_655
F1 Li2 1.876712 1_555
F1 Li0 1.916139 1_555
F1 Mn0 2.014625 1_655
F2 Li1 1.880783 1_556
F2 Li0 1.882596 1_555
F2 Mn1 1.995211 1_545
F3 Li5 1.876712 1_555
F3 Li3 1.916139 1_555
F3 Mn1 2.014625 1_545
F4 Li2 1.958816 1_555
F4 Li5 2.049195 1_555
F4 Mn4 2.115376 1_555
F4 Mn1 2.512577 1_545
F5 Li2 1.851975 1_555
F5 Li10 1.927233 1_655
F5 Mn2 2.067882 1_555
F6 Li4 1.851975 1_555
F6 Li3 1.927233 1_554
F6 Mn4 2.067882 1_555
F7 Li4 1.876712 1_555
F7 Li1 1.916139 1_555
F7 Mn2 2.014625 1_554
F8 Li4 1.958816 1_555
F8 Li2 2.049195 1_555
F8 Mn5 2.115376 1_555
F8 Mn0 2.512577 1_655
F9 Li5 1.958816 1_555
F9 Li7 2.049195 1_555
F9 Mn2 2.115376 1_555
F9 Mn3 2.512577 1_556
F10 Li11 1.880783 1_655
F10 Li8 1.882596 1_555
F10 Mn2 1.995211 1_554
F11 Li5 1.851975 1_555
F11 Li11 1.927233 1_545
F11 Mn0 2.067882 1_555
F12 Li6 1.851975 1_555
F12 Li0 1.927233 1_565
F12 Mn5 2.067882 1_555
F13 Li0 1.880783 1_455
F13 Li3 1.882596 1_555
F13 Mn3 1.995211 1_556
F14 Li6 1.958816 1_555
F14 Li4 2.049195 1_555
F14 Mn3 2.115376 1_555
F14 Mn2 2.512577 1_554
F15 Li7 1.958816 1_555
F15 Li9 2.049195 1_555
F15 Mn0 2.115376 1_555
F15 Mn5 2.512577 1_455
F16 Li7 1.876712 1_555
F16 Li10 1.916139 1_555
F16 Mn3 2.014625 1_556
F17 Li7 1.851975 1_555
F17 Li8 1.927233 1_556
F17 Mn1 2.067882 1_555
F18 Li9 1.851975 1_555
F18 Li1 1.927233 1_455
F18 Mn3 2.067882 1_555
F19 Li9 1.958816 1_555
F19 Li6 2.049195 1_555
F19 Mn1 2.115376 1_555
F19 Mn4 2.512577 1_565
F20 Li6 1.876712 1_555
F20 Li8 1.916139 1_555
F20 Mn4 2.014625 1_565
F21 Li10 1.880783 1_554
F21 Li11 1.882596 1_555
F21 Mn4 1.995211 1_565
F22 Li9 1.876712 1_555
F22 Li11 1.916139 1_555
F22 Mn5 2.014625 1_455
F23 Li3 1.880783 1_565
F23 Li10 1.882596 1_555
F23 Mn5 1.995211 1_455
