# generated using pymatgen
data_V4P9O32
_symmetry_space_group_name_H-M   'P 1'
_cell_length_a   13.86168100
_cell_length_b   13.86168100
_cell_length_c   6.34712800
_cell_angle_alpha   90.00000000
_cell_angle_beta   90.00000000
_cell_angle_gamma   90.00000000
_symmetry_Int_Tables_number   1
_chemical_formula_structural   V4P9O32
_chemical_formula_sum   'V8 P18 O64'
_cell_volume   1219.57652704
_cell_formula_units_Z   2
loop_
 _symmetry_equiv_pos_site_id
 _symmetry_equiv_pos_as_xyz
  1  'x, y, z'
loop_
 _atom_site_type_symbol
 _atom_site_label
 _atom_site_symmetry_multiplicity
 _atom_site_fract_x
 _atom_site_fract_y
 _atom_site_fract_z
 _atom_site_occupancy
  V  V0  1  0.19690600  0.11547700  0.62263800  1
  V  V1  1  0.11547700  0.80309400  0.37736200  1
  V  V2  1  0.69690600  0.38452300  0.87736200  1
  V  V3  1  0.80309400  0.88452300  0.62263800  1
  V  V4  1  0.38452300  0.30309400  0.12263800  1
  V  V5  1  0.30309400  0.61547700  0.87736200  1
  V  V6  1  0.61547700  0.69690600  0.12263800  1
  V  V7  1  0.88452300  0.19690600  0.37736200  1
  P  P0  1  0.06179100  0.30574300  0.61396300  1
  P  P1  1  0.80574300  0.56179100  0.11396300  1
  P  P2  1  0.60576500  0.74902500  0.63351400  1
  P  P3  1  0.74902500  0.39423500  0.36648600  1
  P  P4  1  0.93820900  0.69425700  0.61396300  1
  P  P5  1  0.30574300  0.93820900  0.38603700  1
  P  P6  1  0.25097500  0.60576500  0.36648600  1
  P  P7  1  0.50000000  0.50000000  0.00000000  1
  P  P8  1  0.39423500  0.25097500  0.63351400  1
  P  P9  1  0.56179100  0.19425700  0.88603700  1
  P  P10  1  0.89423500  0.24902500  0.86648600  1
  P  P11  1  0.24902500  0.10576500  0.13351400  1
  P  P12  1  0.75097500  0.89423500  0.13351400  1
  P  P13  1  0.19425700  0.43820900  0.11396300  1
  P  P14  1  0.10576500  0.75097500  0.86648600  1
  P  P15  1  0.00000000  0.00000000  0.50000000  1
  P  P16  1  0.69425700  0.06179100  0.38603700  1
  P  P17  1  0.43820900  0.80574300  0.88603700  1
  O  O0  1  0.75509800  0.15564200  0.35680900  1
  O  O1  1  0.83856500  0.32923300  0.37759200  1
  O  O2  1  0.07327500  0.40910200  0.58002900  1
  O  O3  1  0.74884300  0.50273900  0.93786100  1
  O  O4  1  0.68282900  0.36521000  0.18264900  1
  O  O5  1  0.40910200  0.92672500  0.41997100  1
  O  O6  1  0.89572100  0.19584500  0.07789500  1
  O  O7  1  0.06362600  0.93259400  0.36238000  1
  O  O8  1  0.66143500  0.82923300  0.12240800  1
  O  O9  1  0.10427900  0.80415500  0.07789500  1
  O  O10  1  0.13479000  0.81717100  0.68264900  1
  O  O11  1  0.78041500  0.50251500  0.32858900  1
  O  O12  1  0.43259400  0.56362600  0.86238000  1
  O  O13  1  0.43637400  0.43259400  0.13762000  1
  O  O14  1  0.75115700  0.00273900  0.56213900  1
  O  O15  1  0.31717100  0.63479000  0.18264900  1
  O  O16  1  0.19584500  0.10427900  0.92210500  1
  O  O17  1  0.17076700  0.66143500  0.87759200  1
  O  O18  1  0.16143500  0.67076700  0.37759200  1
  O  O19  1  0.93259400  0.93637400  0.63762000  1
  O  O20  1  0.56362600  0.56740600  0.13762000  1
  O  O21  1  0.25115700  0.49726100  0.93786100  1
  O  O22  1  0.49726100  0.74884300  0.06213900  1
  O  O23  1  0.63479000  0.68282900  0.81735100  1
  O  O24  1  0.24490200  0.84435800  0.35680900  1
  O  O25  1  0.99748500  0.71958500  0.82858900  1
  O  O26  1  0.50251500  0.21958500  0.67141100  1
  O  O27  1  0.18282900  0.13479000  0.31735100  1
  O  O28  1  0.81717100  0.86521000  0.31735100  1
  O  O29  1  0.39572100  0.30415500  0.42210500  1
  O  O30  1  0.33856500  0.17076700  0.12240800  1
  O  O31  1  0.60427900  0.69584500  0.42210500  1
  O  O32  1  0.59089800  0.07327500  0.41997100  1
  O  O33  1  0.67076700  0.83856500  0.62240800  1
  O  O34  1  0.90910200  0.57327500  0.08002900  1
  O  O35  1  0.84435800  0.75509800  0.64319100  1
  O  O36  1  0.65564200  0.25509800  0.85680900  1
  O  O37  1  0.09089800  0.42672500  0.08002900  1
  O  O38  1  0.49748500  0.78041500  0.67141100  1
  O  O39  1  0.42672500  0.90910200  0.91997100  1
  O  O40  1  0.30415500  0.60427900  0.57789500  1
  O  O41  1  0.92672500  0.59089800  0.58002900  1
  O  O42  1  0.56740600  0.43637400  0.86238000  1
  O  O43  1  0.25509800  0.34435800  0.14319100  1
  O  O44  1  0.50273900  0.25115700  0.06213900  1
  O  O45  1  0.93637400  0.06740600  0.36238000  1
  O  O46  1  0.57327500  0.09089800  0.91997100  1
  O  O47  1  0.74490200  0.65564200  0.14319100  1
  O  O48  1  0.24884300  0.99726100  0.56213900  1
  O  O49  1  0.06740600  0.06362600  0.63762000  1
  O  O50  1  0.71958500  0.00251500  0.17141100  1
  O  O51  1  0.28041500  0.99748500  0.17141100  1
  O  O52  1  0.34435800  0.74490200  0.85680900  1
  O  O53  1  0.15564200  0.24490200  0.64319100  1
  O  O54  1  0.21958500  0.49748500  0.32858900  1
  O  O55  1  0.00251500  0.28041500  0.82858900  1
  O  O56  1  0.82923300  0.33856500  0.87759200  1
  O  O57  1  0.80415500  0.89572100  0.92210500  1
  O  O58  1  0.99726100  0.75115700  0.43786100  1
  O  O59  1  0.86521000  0.18282900  0.68264900  1
  O  O60  1  0.00273900  0.24884300  0.43786100  1
  O  O61  1  0.32923300  0.16143500  0.62240800  1
  O  O62  1  0.36521000  0.31717100  0.81735100  1
  O  O63  1  0.69584500  0.39572100  0.57789500  1
loop_
_geom_bond_atom_site_label_1
_geom_bond_atom_site_label_2
_geom_bond_distance
_geom_bond_site_symmetry_2
O0 P16 1.561440 1_555
O0 V7 1.887537 1_555
O1 P3 1.535367 1_555
O1 V7 1.941753 1_555
O2 P0 1.457547 1_555
O3 P1 1.594203 1_556
O3 V2 1.830575 1_555
O4 P3 1.537969 1_555
O4 V2 1.965810 1_554
O5 P5 1.457547 1_555
O6 P10 1.531134 1_554
O6 V7 1.907140 1_555
O7 P15 1.553666 1_565
O7 V1 1.935968 1_555
O8 P12 1.535367 1_555
O8 V6 1.941753 1_555
O9 P14 1.531134 1_554
O9 V1 1.907140 1_555
O10 P14 1.537969 1_555
O10 V1 1.965810 1_555
O11 P3 1.581144 1_555
O11 P1 1.629155 1_555
O12 P7 1.553666 1_556
O12 V5 1.935968 1_555
O13 P7 1.553666 1_555
O13 V4 1.935968 1_555
O14 P16 1.594203 1_555
O14 V3 1.830575 1_545
O15 P6 1.537969 1_555
O15 V5 1.965810 1_554
O16 P11 1.531134 1_556
O16 V0 1.907140 1_555
O17 P14 1.535367 1_555
O17 V5 1.941753 1_555
O18 P6 1.535367 1_555
O18 V1 1.941753 1_555
O19 P15 1.553666 1_665
O19 V3 1.935968 1_555
O20 P7 1.553666 1_555
O20 V6 1.935968 1_555
O21 P13 1.594203 1_556
O21 V5 1.830575 1_555
O22 P17 1.594203 1_554
O22 V6 1.830575 1_555
O23 P2 1.537969 1_555
O23 V6 1.965810 1_556
O24 P5 1.561440 1_555
O24 V1 1.887537 1_555
O25 P14 1.581144 1_655
O25 P4 1.629155 1_555
O26 P8 1.581144 1_555
O26 P9 1.629155 1_555
O27 P11 1.537969 1_555
O27 V0 1.965810 1_555
O28 P12 1.537969 1_555
O28 V3 1.965810 1_555
O29 P8 1.531134 1_555
O29 V4 1.907140 1_555
O30 P11 1.535367 1_555
O30 V4 1.941753 1_555
O31 P2 1.531134 1_555
O31 V6 1.907140 1_555
O32 P16 1.457547 1_555
O33 P2 1.535367 1_555
O33 V3 1.941753 1_555
O34 P1 1.457547 1_555
O35 P4 1.561440 1_555
O35 V3 1.887537 1_555
O36 P9 1.561440 1_555
O36 V2 1.887537 1_555
O37 P13 1.457547 1_555
O38 P2 1.581144 1_555
O38 P17 1.629155 1_555
O39 P17 1.457547 1_555
O40 P6 1.531134 1_555
O40 V5 1.907140 1_555
O41 P4 1.457547 1_555
O42 P7 1.553666 1_556
O42 V2 1.935968 1_555
O43 P13 1.561440 1_555
O43 V4 1.887537 1_555
O44 P9 1.594203 1_554
O44 V4 1.830575 1_555
O45 P15 1.553666 1_655
O45 V7 1.935968 1_555
O46 P9 1.457547 1_555
O47 P1 1.561440 1_555
O47 V6 1.887537 1_555
O48 P5 1.594203 1_555
O48 V0 1.830575 1_565
O49 P15 1.553666 1_555
O49 V0 1.935968 1_555
O50 P12 1.581144 1_545
O50 P16 1.629155 1_555
O51 P11 1.581144 1_565
O51 P5 1.629155 1_555
O52 P17 1.561440 1_555
O52 V5 1.887537 1_555
O53 P0 1.561440 1_555
O53 V0 1.887537 1_555
O54 P6 1.581144 1_555
O54 P13 1.629155 1_555
O55 P10 1.581144 1_455
O55 P0 1.629155 1_555
O56 P10 1.535367 1_555
O56 V2 1.941753 1_555
O57 P12 1.531134 1_556
O57 V3 1.907140 1_555
O58 P4 1.594203 1_555
O58 V1 1.830575 1_655
O59 P10 1.537969 1_555
O59 V7 1.965810 1_555
O60 P0 1.594203 1_555
O60 V7 1.830575 1_455
O61 P8 1.535367 1_555
O61 V0 1.941753 1_555
O62 P8 1.537969 1_555
O62 V4 1.965810 1_556
O63 P3 1.531134 1_555
O63 V2 1.907140 1_555
