# generated using pymatgen
data_Mn3V2Cr3O16
_symmetry_space_group_name_H-M   'P 1'
_cell_length_a   5.87299500
_cell_length_b   5.87517166
_cell_length_c   8.83445846
_cell_angle_alpha   89.99095058
_cell_angle_beta   90.48432260
_cell_angle_gamma   119.66747228
_symmetry_Int_Tables_number   1
_chemical_formula_structural   Mn3V2Cr3O16
_chemical_formula_sum   'Mn3 V2 Cr3 O16'
_cell_volume   264.85981295
_cell_formula_units_Z   1
loop_
 _symmetry_equiv_pos_site_id
 _symmetry_equiv_pos_as_xyz
  1  'x, y, z'
loop_
 _atom_site_type_symbol
 _atom_site_label
 _atom_site_symmetry_multiplicity
 _atom_site_fract_x
 _atom_site_fract_y
 _atom_site_fract_z
 _atom_site_occupancy
  Mn  Mn0  1  0.34377400  0.17210000  0.20951900  1
  Mn  Mn1  1  0.17166800  0.34016600  0.71302000  1
  Mn  Mn2  1  0.17179500  0.83188100  0.71275600  1
  V  V0  1  0.66736800  0.33503400  0.50212600  1
  V  V1  1  0.33737500  0.66978000  0.00113700  1
  Cr  Cr0  1  0.83613100  0.17697800  0.21965000  1
  Cr  Cr1  1  0.83070400  0.66061600  0.20890800  1
  Cr  Cr2  1  0.66207200  0.83124800  0.71251000  1
  O  O0  1  0.82608400  0.17614700  0.59639200  1
  O  O1  1  0.94881800  0.46769900  0.34358500  1
  O  O2  1  0.66310100  0.32180000  0.10040400  1
  O  O3  1  0.00444000  0.01039200  0.30367200  1
  O  O4  1  0.01064900  0.00551800  0.81225600  1
  O  O5  1  0.82663400  0.65006600  0.59501900  1
  O  O6  1  0.52133600  0.04689600  0.33932500  1
  O  O7  1  0.51874500  0.46888800  0.33912000  1
  O  O8  1  0.64916200  0.82772100  0.09435100  1
  O  O9  1  0.34744200  0.17302300  0.59692600  1
  O  O10  1  0.47009500  0.51825600  0.84129900  1
  O  O11  1  0.46923500  0.95123900  0.84111400  1
  O  O12  1  0.32367700  0.66149500  0.60185800  1
  O  O13  1  0.17641100  0.35287600  0.09712200  1
  O  O14  1  0.04577800  0.52366600  0.83705800  1
  O  O15  1  0.17750300  0.82631600  0.09659500  1
loop_
_geom_bond_atom_site_label_1
_geom_bond_atom_site_label_2
_geom_bond_distance
_geom_bond_site_symmetry_2
Mn0 O7 1.901126 1_555
Mn0 O2 1.901944 1_555
Mn0 O6 1.918993 1_555
Mn0 O3 1.928633 1_555
Mn0 O15 2.023933 1_545
Mn0 O13 2.024046 1_555
Mn1 O10 1.897981 1_555
Mn1 O12 1.916059 1_555
Mn1 O4 1.923900 1_555
Mn1 O14 1.926878 1_555
Mn1 O9 2.025747 1_555
Mn1 O0 2.034301 1_455
Mn2 O11 1.892958 1_555
Mn2 O12 1.912237 1_555
Mn2 O4 1.918120 1_565
Mn2 O14 1.928507 1_555
Mn2 O9 2.024558 1_565
Mn2 O5 2.037971 1_455
Cr0 O1 1.850273 1_555
Cr0 O3 1.852308 1_655
Cr0 O2 1.924574 1_555
Cr0 O6 1.937520 1_555
Cr0 O13 2.055556 1_655
Cr0 O8 2.095530 1_545
Cr1 O3 1.968604 1_665
Cr1 O2 1.973636 1_555
Cr1 O7 1.985221 1_555
Cr1 O1 1.986302 1_555
Cr1 O8 2.035326 1_555
Cr1 O15 2.037549 1_655
Cr2 O11 1.970482 1_555
Cr2 O12 1.976192 1_555
Cr2 O4 1.977537 1_665
Cr2 O10 1.978849 1_555
Cr2 O0 2.042079 1_565
Cr2 O5 2.044576 1_555
O0 V0 1.811582 1_555
O1 V0 2.016165 1_555
O5 V0 1.802164 1_555
O6 V0 2.052457 1_555
O7 V0 2.027819 1_555
O8 V1 1.784633 1_555
O9 V0 1.842199 1_555
O10 V1 2.024838 1_556
O11 V1 2.020606 1_556
O13 V1 1.830288 1_555
O14 V1 2.067375 1_556
O15 V1 1.818522 1_555
