# generated using pymatgen
data_Na3MnO3
_symmetry_space_group_name_H-M   'P 1'
_cell_length_a   6.04827189
_cell_length_b   10.88299200
_cell_length_c   6.07800373
_cell_angle_alpha   89.99979137
_cell_angle_beta   91.74208466
_cell_angle_gamma   90.00028617
_symmetry_Int_Tables_number   1
_chemical_formula_structural   Na3MnO3
_chemical_formula_sum   'Na12 Mn4 O12'
_cell_volume   399.88931607
_cell_formula_units_Z   4
loop_
 _symmetry_equiv_pos_site_id
 _symmetry_equiv_pos_as_xyz
  1  'x, y, z'
loop_
 _atom_site_type_symbol
 _atom_site_label
 _atom_site_symmetry_multiplicity
 _atom_site_fract_x
 _atom_site_fract_y
 _atom_site_fract_z
 _atom_site_occupancy
  Na  Na0  1  0.90793100  0.77586900  0.04573900  1
  Na  Na1  1  0.40792200  0.72412600  0.04574000  1
  Na  Na2  1  0.59207800  0.27586800  0.95425900  1
  Na  Na3  1  0.09207700  0.22413500  0.95425600  1
  Na  Na4  1  0.85754400  0.00271000  0.35368800  1
  Na  Na5  1  0.35753600  0.49729000  0.35368100  1
  Na  Na6  1  0.64248200  0.50271800  0.64631400  1
  Na  Na7  1  0.14246100  0.99729400  0.64630700  1
  Na  Na8  1  0.98313900  0.27813400  0.50610400  1
  Na  Na9  1  0.51685700  0.77813700  0.49389500  1
  Na  Na10  1  0.48315300  0.22185900  0.50609900  1
  Na  Na11  1  0.01685400  0.72187000  0.49389900  1
  Mn  Mn0  1  0.66752200  0.99724900  0.83549700  1
  Mn  Mn1  1  0.16751900  0.50275000  0.83551100  1
  Mn  Mn2  1  0.83246200  0.49724800  0.16450800  1
  Mn  Mn3  1  0.33245500  0.00274600  0.16449600  1
  O  O0  1  0.60621000  0.91227500  0.11129700  1
  O  O1  1  0.89379900  0.41228000  0.88869900  1
  O  O2  1  0.10621400  0.58772200  0.11130800  1
  O  O3  1  0.39378800  0.08772100  0.88869600  1
  O  O4  1  0.68099000  0.36838800  0.30003800  1
  O  O5  1  0.81901400  0.86839300  0.69996000  1
  O  O6  1  0.18098500  0.13160800  0.30003800  1
  O  O7  1  0.31901800  0.63161300  0.69995900  1
  O  O8  1  0.69150300  0.62730100  0.30527300  1
  O  O9  1  0.80849000  0.12730000  0.69473500  1
  O  O10  1  0.19150200  0.87269300  0.30526600  1
  O  O11  1  0.30849400  0.37270100  0.69473700  1
loop_
_geom_bond_atom_site_label_1
_geom_bond_atom_site_label_2
_geom_bond_distance
_geom_bond_site_symmetry_2
Na0 O5 2.377253 1_554
Na0 O0 2.395203 1_555
Na0 O2 2.400147 1_655
Na0 O10 2.525012 1_655
Na0 O8 2.634696 1_555
Na1 O7 2.377202 1_554
Na1 O2 2.395127 1_555
Na1 O0 2.400162 1_555
Na1 O8 2.525081 1_555
Na1 O10 2.634650 1_555
Na2 O4 2.377233 1_556
Na2 O1 2.395233 1_555
Na2 O3 2.400155 1_555
Na2 O11 2.525089 1_555
Na2 O9 2.634624 1_555
Na3 O6 2.377272 1_556
Na3 O3 2.395213 1_555
Na3 O1 2.400103 1_455
Na3 O9 2.525104 1_455
Na3 O11 2.634593 1_555
Na4 O0 2.305163 1_545
Na4 O6 2.437185 1_655
Na4 O10 2.490947 1_645
Na4 O9 2.502158 1_555
Na4 O5 2.578836 1_545
Na5 O2 2.305037 1_555
Na5 O4 2.437280 1_555
Na5 O8 2.490929 1_555
Na5 O11 2.502177 1_555
Na5 O7 2.578905 1_555
Na6 O1 2.305090 1_555
Na6 O7 2.437286 1_555
Na6 O11 2.491083 1_555
Na6 O8 2.502048 1_555
Na6 O4 2.578931 1_555
Na7 O3 2.305091 1_565
Na7 O5 2.437236 1_455
Na7 O9 2.490948 1_465
Na7 O10 2.502181 1_555
Na7 O6 2.578799 1_565
Na8 O9 2.280020 1_555
Na8 O6 2.373739 1_655
Na8 O4 2.394575 1_555
Na8 O11 2.471614 1_655
Na8 O1 2.811992 1_555
Na9 O8 2.280013 1_555
Na9 O7 2.373681 1_555
Na9 O5 2.394613 1_555
Na9 O10 2.471558 1_555
Na9 O0 2.811967 1_555
Na10 O11 2.280147 1_555
Na10 O4 2.373702 1_555
Na10 O6 2.394628 1_555
Na10 O9 2.471505 1_555
Na10 O3 2.811978 1_555
Na11 O10 2.279937 1_555
Na11 O5 2.373681 1_455
Na11 O7 2.394638 1_555
Na11 O8 2.471585 1_455
Na11 O2 2.812009 1_555
Mn0 O9 1.872551 1_565
Mn0 O5 1.879002 1_555
Mn0 O0 1.959726 1_556
Mn0 O3 1.961540 1_565
Mn1 O11 1.872600 1_555
Mn1 O7 1.879110 1_555
Mn1 O2 1.959698 1_556
Mn1 O1 1.961435 1_455
Mn2 O8 1.872562 1_555
Mn2 O4 1.878943 1_555
Mn2 O1 1.959782 1_554
Mn2 O2 1.961635 1_655
Mn3 O10 1.872548 1_545
Mn3 O6 1.878997 1_555
Mn3 O3 1.959758 1_554
Mn3 O0 1.961642 1_545
