# generated using pymatgen
data_V2OF5
_symmetry_space_group_name_H-M   'P 1'
_cell_length_a   4.89132772
_cell_length_b   4.89132772
_cell_length_c   17.62887323
_cell_angle_alpha   89.90924411
_cell_angle_beta   89.90924411
_cell_angle_gamma   90.00463841
_symmetry_Int_Tables_number   1
_chemical_formula_structural   V2OF5
_chemical_formula_sum   'V8 O4 F20'
_cell_volume   421.77126450
_cell_formula_units_Z   4
loop_
 _symmetry_equiv_pos_site_id
 _symmetry_equiv_pos_as_xyz
  1  'x, y, z'
loop_
 _atom_site_type_symbol
 _atom_site_label
 _atom_site_symmetry_multiplicity
 _atom_site_fract_x
 _atom_site_fract_y
 _atom_site_fract_z
 _atom_site_occupancy
  V  V0  1  0.00913100  0.00900100  0.15531200  1
  V  V1  1  0.98672600  0.01455500  0.33607100  1
  V  V2  1  0.00900100  0.00913100  0.65531200  1
  V  V3  1  0.48688700  0.48585000  0.08606300  1
  V  V4  1  0.50984700  0.49176600  0.40537500  1
  V  V5  1  0.48585000  0.48688700  0.58606300  1
  V  V6  1  0.49176600  0.50984700  0.90537500  1
  V  V7  1  0.01455500  0.98672600  0.83607100  1
  O  O0  1  0.20337000  0.20345400  0.09668100  1
  O  O1  1  0.20345400  0.20337000  0.59668100  1
  O  O2  1  0.70496800  0.29816900  0.34668600  1
  O  O3  1  0.29816900  0.70496700  0.84668600  1
  F  F0  1  0.17718400  0.17843200  0.24837000  1
  F  F1  1  0.21373000  0.21762200  0.41010000  1
  F  F2  1  0.17843200  0.17718400  0.74837000  1
  F  F3  1  0.21762200  0.21373000  0.91010000  1
  F  F4  1  0.71209100  0.28340700  0.16013300  1
  F  F5  1  0.67814300  0.32311900  0.49836800  1
  F  F6  1  0.72062900  0.28235200  0.84270500  1
  F  F7  1  0.71247700  0.28399100  0.66016300  1
  F  F8  1  0.67118600  0.32700600  0.99664000  1
  F  F9  1  0.32311900  0.67814300  0.99836800  1
  F  F10  1  0.32700600  0.67118600  0.49664000  1
  F  F11  1  0.28399100  0.71247700  0.16016300  1
  F  F12  1  0.28235200  0.72062900  0.34270500  1
  F  F13  1  0.28340700  0.71209100  0.66013300  1
  F  F14  1  0.78148300  0.78108500  0.09273300  1
  F  F15  1  0.78483000  0.78895900  0.41027100  1
  F  F16  1  0.78108500  0.78148300  0.59273300  1
  F  F17  1  0.82767900  0.82919300  0.24665900  1
  F  F18  1  0.82919300  0.82767900  0.74665900  1
  F  F19  1  0.78895900  0.78483000  0.91027100  1
loop_
_geom_bond_atom_site_label_1
_geom_bond_atom_site_label_2
_geom_bond_distance
_geom_bond_site_symmetry_2
O0 V0 1.693893 1_555
O0 V3 1.965756 1_555
O1 V2 1.693893 1_555
O1 V5 1.965756 1_555
O2 V4 1.696511 1_555
O2 V1 1.964471 1_555
O3 V6 1.696509 1_555
O3 V7 1.964475 1_555
F0 V1 1.972843 1_455
F0 V0 2.015499 1_555
F1 V4 1.975311 1_555
F1 V1 1.982707 1_455
F2 V7 1.972843 1_545
F2 V2 2.015499 1_555
F3 V6 1.975311 1_555
F3 V7 1.982707 1_545
F4 V3 1.974742 1_555
F4 V0 1.979902 1_655
F5 V5 1.978833 1_555
F5 V4 2.011399 1_555
F6 V6 1.926691 1_555
F6 V7 2.042521 1_645
F7 V2 1.979581 1_655
F7 V5 1.980097 1_555
F8 V3 1.975074 1_556
F8 V6 2.039269 1_555
F9 V3 1.978833 1_556
F9 V6 2.011399 1_555
F10 V5 1.975074 1_555
F10 V4 2.039269 1_555
F11 V0 1.979581 1_565
F11 V3 1.980097 1_555
F12 V4 1.926691 1_555
F12 V1 2.042521 1_465
F13 V5 1.974742 1_555
F13 V2 1.979902 1_565
F14 V0 1.925440 1_665
F14 V3 2.043611 1_555
F15 V1 1.973589 1_565
F15 V4 1.982463 1_555
F16 V2 1.925440 1_665
F16 V5 2.043611 1_555
F17 V1 1.979914 1_565
F17 V0 2.036005 1_665
F18 V7 1.979914 1_655
F18 V2 2.036005 1_665
F19 V7 1.973589 1_655
F19 V6 1.982463 1_555
