# generated using pymatgen
data_H7C3N6Cl
_symmetry_space_group_name_H-M   'P 1'
_cell_length_a   10.67261437
_cell_length_b   10.67261437
_cell_length_c   8.66513080
_cell_angle_alpha   67.20357597
_cell_angle_beta   67.20357597
_cell_angle_gamma   108.46106490
_symmetry_Int_Tables_number   1
_chemical_formula_structural   H7C3N6Cl
_chemical_formula_sum   'H28 C12 N24 Cl4'
_cell_volume   700.97955697
_cell_formula_units_Z   4
loop_
 _symmetry_equiv_pos_site_id
 _symmetry_equiv_pos_as_xyz
  1  'x, y, z'
loop_
 _atom_site_type_symbol
 _atom_site_label
 _atom_site_symmetry_multiplicity
 _atom_site_fract_x
 _atom_site_fract_y
 _atom_site_fract_z
 _atom_site_occupancy
  H  H0  1  0.15953400  0.98212200  0.69317400  1
  H  H1  1  0.98212200  0.15953400  0.69317400  1
  H  H2  1  0.65714100  0.46616800  0.19803200  1
  H  H3  1  0.46616800  0.65714100  0.19803200  1
  H  H4  1  0.99467300  0.82245700  0.74411100  1
  H  H5  1  0.82245700  0.99467300  0.74411100  1
  H  H6  1  0.44592600  0.26451900  0.24971400  1
  H  H7  1  0.26451900  0.44592600  0.24971400  1
  H  H8  1  0.17669900  0.37173600  0.75986700  1
  H  H9  1  0.37173600  0.17669900  0.75986700  1
  H  H10  1  0.44568500  0.09548100  0.26245200  1
  H  H11  1  0.09548100  0.44568500  0.26245200  1
  H  H12  1  0.61458600  0.98413500  0.23450900  1
  H  H13  1  0.98413500  0.61458600  0.23450900  1
  H  H14  1  0.01586500  0.38541400  0.76549100  1
  H  H15  1  0.38541400  0.01586500  0.76549100  1
  H  H16  1  0.90451900  0.55431500  0.73754800  1
  H  H17  1  0.55431500  0.90451900  0.73754800  1
  H  H18  1  0.82330100  0.62826400  0.24013300  1
  H  H19  1  0.62826400  0.82330100  0.24013300  1
  H  H20  1  0.73548100  0.55407400  0.75028600  1
  H  H21  1  0.55407400  0.73548100  0.75028600  1
  H  H22  1  0.00532700  0.17754300  0.25588900  1
  H  H23  1  0.17754300  0.00532700  0.25588900  1
  H  H24  1  0.53383200  0.34285900  0.80196800  1
  H  H25  1  0.34285900  0.53383200  0.80196800  1
  H  H26  1  0.01787800  0.84046600  0.30682600  1
  H  H27  1  0.84046600  0.01787800  0.30682600  1
  C  C0  1  0.17278500  0.78499000  0.73100300  1
  C  C1  1  0.78499000  0.17278500  0.73100300  1
  C  C2  1  0.62797000  0.24495900  0.25590800  1
  C  C3  1  0.24495900  0.62797000  0.25590800  1
  C  C4  1  0.17011100  0.56105300  0.76249500  1
  C  C5  1  0.56105300  0.17011100  0.76249500  1
  C  C6  1  0.43894700  0.82988900  0.23750500  1
  C  C7  1  0.82988900  0.43894700  0.23750500  1
  C  C8  1  0.75504100  0.37203000  0.74409200  1
  C  C9  1  0.37203000  0.75504100  0.74409200  1
  C  C10  1  0.82721500  0.21501000  0.26899700  1
  C  C11  1  0.21501000  0.82721500  0.26899700  1
  N  N0  1  0.69292000  0.38624300  0.24071800  1
  N  N1  1  0.38624300  0.69292000  0.24071800  1
  N  N2  1  0.10778600  0.87327400  0.71221200  1
  N  N3  1  0.87327400  0.10778600  0.71221200  1
  N  N4  1  0.69259200  0.15647200  0.27208200  1
  N  N5  1  0.15647200  0.69259200  0.27208200  1
  N  N6  1  0.09992300  0.64467500  0.74937100  1
  N  N7  1  0.64467500  0.09992300  0.74937100  1
  N  N8  1  0.49898600  0.20064300  0.25143100  1
  N  N9  1  0.20064300  0.49898600  0.25143100  1
  N  N10  1  0.11114500  0.42374200  0.77778000  1
  N  N11  1  0.42374200  0.11114500  0.77778000  1
  N  N12  1  0.57625800  0.88885500  0.22222000  1
  N  N13  1  0.88885500  0.57625800  0.22222000  1
  N  N14  1  0.79935800  0.50101400  0.74856900  1
  N  N15  1  0.50101400  0.79935700  0.74856900  1
  N  N16  1  0.35532500  0.90007700  0.25062900  1
  N  N17  1  0.90007700  0.35532500  0.25062900  1
  N  N18  1  0.84352800  0.30740800  0.72791800  1
  N  N19  1  0.30740800  0.84352800  0.72791800  1
  N  N20  1  0.12672600  0.89221400  0.28778800  1
  N  N21  1  0.89221400  0.12672600  0.28778800  1
  N  N22  1  0.61375700  0.30708000  0.75928200  1
  N  N23  1  0.30708000  0.61375700  0.75928200  1
  Cl  Cl0  1  0.25457600  0.25457600  0.58443400  1
  Cl  Cl1  1  0.69034800  0.69034800  0.96779200  1
  Cl  Cl2  1  0.30965200  0.30965200  0.03220800  1
  Cl  Cl3  1  0.74542400  0.74542400  0.41556600  1
loop_
_geom_bond_atom_site_label_1
_geom_bond_atom_site_label_2
_geom_bond_distance
_geom_bond_site_symmetry_2
H0 N2 1.027778 1_555
H1 N3 1.027778 1_555
H2 N0 1.039948 1_555
H3 N1 1.039948 1_555
H4 N2 1.019071 1_655
H5 N3 1.019071 1_565
H6 N8 1.014306 1_555
H7 N9 1.014306 1_555
H8 N10 1.024788 1_555
H9 N11 1.024788 1_555
H10 N8 1.030967 1_555
H11 N9 1.030967 1_555
H12 N12 1.032934 1_555
H13 N13 1.032934 1_555
H14 N10 1.032934 1_555
H15 N11 1.032934 1_555
H16 N14 1.030958 1_555
H17 N15 1.030967 1_555
H18 N13 1.024788 1_555
H19 N12 1.024788 1_555
H20 N14 1.014315 1_555
H21 N15 1.014306 1_555
H22 N21 1.019071 1_455
H23 N20 1.019071 1_545
H24 N22 1.039948 1_555
H25 N23 1.039948 1_555
H26 N20 1.027778 1_555
H27 N21 1.027778 1_555
C0 N2 1.333463 1_555
C0 N19 1.358003 1_555
C0 N6 1.361802 1_555
C1 N3 1.333463 1_555
C1 N18 1.358003 1_555
C1 N7 1.361802 1_555
C2 N8 1.327960 1_555
C2 N4 1.331171 1_555
C2 N0 1.372965 1_555
C3 N9 1.327960 1_555
C3 N5 1.331171 1_555
C3 N1 1.372965 1_555
C4 N10 1.327443 1_555
C4 N6 1.334663 1_555
C4 N23 1.374647 1_555
C5 N11 1.327443 1_555
C5 N7 1.334663 1_555
C5 N22 1.374647 1_555
C6 N12 1.327443 1_555
C6 N16 1.334663 1_555
C6 N1 1.374647 1_555
C7 N13 1.327443 1_555
C7 N17 1.334663 1_555
C7 N0 1.374647 1_555
C8 N14 1.327960 1_555
C8 N18 1.331171 1_555
C8 N22 1.372965 1_555
C9 N15 1.327960 1_555
C9 N19 1.331171 1_555
C9 N23 1.372965 1_555
C10 N21 1.333463 1_555
C10 N4 1.358003 1_555
C10 N17 1.361802 1_555
C11 N20 1.333463 1_555
C11 N5 1.358003 1_555
C11 N16 1.361802 1_555
