# generated using pymatgen
data_Li3Fe2(PO4)3
_symmetry_space_group_name_H-M   'P 1'
_cell_length_a   10.19567031
_cell_length_b   10.19567031
_cell_length_c   10.19567031
_cell_angle_alpha   109.47122063
_cell_angle_beta   109.47122063
_cell_angle_gamma   109.47122063
_symmetry_Int_Tables_number   1
_chemical_formula_structural   Li3Fe2(PO4)3
_chemical_formula_sum   'Li12 Fe8 P12 O48'
_cell_volume   815.87844662
_cell_formula_units_Z   4
loop_
 _symmetry_equiv_pos_site_id
 _symmetry_equiv_pos_as_xyz
  1  'x, y, z'
loop_
 _atom_site_type_symbol
 _atom_site_label
 _atom_site_symmetry_multiplicity
 _atom_site_fract_x
 _atom_site_fract_y
 _atom_site_fract_z
 _atom_site_occupancy
  Li  Li0  1  0.75000000  0.12500000  0.37500000  1
  Li  Li1  1  0.37500000  0.12500000  0.25000000  1
  Li  Li2  1  0.87500000  0.62500000  0.25000000  1
  Li  Li3  1  0.25000000  0.37500000  0.12500000  1
  Li  Li4  1  0.37500000  0.75000000  0.12500000  1
  Li  Li5  1  0.62500000  0.25000000  0.87500000  1
  Li  Li6  1  0.12500000  0.25000000  0.37500000  1
  Li  Li7  1  0.87500000  0.75000000  0.62500000  1
  Li  Li8  1  0.75000000  0.62500000  0.87500000  1
  Li  Li9  1  0.62500000  0.87500000  0.75000000  1
  Li  Li10  1  0.12500000  0.37500000  0.75000000  1
  Li  Li11  1  0.25000000  0.87500000  0.62500000  1
  Fe  Fe0  1  0.50000000  0.00000000  0.00000000  1
  Fe  Fe1  1  0.00000000  0.00000000  0.00000000  1
  Fe  Fe2  1  0.50000000  0.50000000  0.00000000  1
  Fe  Fe3  1  0.50000000  0.00000000  0.50000000  1
  Fe  Fe4  1  0.00000000  0.50000000  0.00000000  1
  Fe  Fe5  1  0.00000000  0.00000000  0.50000000  1
  Fe  Fe6  1  0.50000000  0.50000000  0.50000000  1
  Fe  Fe7  1  0.00000000  0.50000000  0.50000000  1
  P  P0  1  0.87500000  0.25000000  0.12500000  1
  P  P1  1  0.62500000  0.37500000  0.25000000  1
  P  P2  1  0.87500000  0.12500000  0.75000000  1
  P  P3  1  0.75000000  0.87500000  0.12500000  1
  P  P4  1  0.75000000  0.37500000  0.62500000  1
  P  P5  1  0.62500000  0.75000000  0.37500000  1
  P  P6  1  0.37500000  0.25000000  0.62500000  1
  P  P7  1  0.25000000  0.62500000  0.37500000  1
  P  P8  1  0.25000000  0.12500000  0.87500000  1
  P  P9  1  0.12500000  0.87500000  0.25000000  1
  P  P10  1  0.37500000  0.62500000  0.75000000  1
  P  P11  1  0.12500000  0.75000000  0.87500000  1
  O  O0  1  0.89015000  0.00682300  0.29905100  1
  O  O1  1  0.88332700  0.39015000  0.09109900  1
  O  O2  1  0.90890100  0.29222800  0.29905100  1
  O  O3  1  0.90890100  0.11667300  0.60985000  1
  O  O4  1  0.99317700  0.70094900  0.10985000  1
  O  O5  1  0.59109900  0.20094900  0.20777200  1
  O  O6  1  0.61667300  0.40890100  0.10985000  1
  O  O7  1  0.20777200  0.11667300  0.00682300  1
  O  O8  1  0.89015000  0.38332700  0.59109900  1
  O  O9  1  0.60985000  0.20094900  0.49317700  1
  O  O10  1  0.70777200  0.70094900  0.09109900  1
  O  O11  1  0.79905100  0.50682300  0.39015000  1
  O  O12  1  0.11667300  0.00682300  0.20777200  1
  O  O13  1  0.70094900  0.09109900  0.70777200  1
  O  O14  1  0.49317700  0.38332700  0.29222800  1
  O  O15  1  0.00682300  0.20777200  0.11667300  1
  O  O16  1  0.49317700  0.60985000  0.20094900  1
  O  O17  1  0.40890100  0.10985000  0.61667300  1
  O  O18  1  0.38332700  0.29222800  0.49317700  1
  O  O19  1  0.79905100  0.79222800  0.40890100  1
  O  O20  1  0.70094900  0.10985000  0.99317700  1
  O  O21  1  0.70777200  0.50682300  0.61667300  1
  O  O22  1  0.79222800  0.40890100  0.79905100  1
  O  O23  1  0.60985000  0.90890100  0.11667300  1
  O  O24  1  0.29222800  0.49317700  0.38332700  1
  O  O25  1  0.20777200  0.59109900  0.20094900  1
  O  O26  1  0.39015000  0.09109900  0.88332700  1
  O  O27  1  0.61667300  0.70777200  0.50682300  1
  O  O28  1  0.29905100  0.89015000  0.00682300  1
  O  O29  1  0.20094900  0.20777200  0.59109900  1
  O  O30  1  0.59109900  0.89015000  0.38332700  1
  O  O31  1  0.50682300  0.39015000  0.79905100  1
  O  O32  1  0.99317700  0.79222800  0.88332700  1
  O  O33  1  0.50682300  0.61667300  0.70777200  1
  O  O34  1  0.88332700  0.99317700  0.79222800  1
  O  O35  1  0.20094900  0.49317700  0.60985000  1
  O  O36  1  0.29905100  0.90890100  0.29222800  1
  O  O37  1  0.10985000  0.61667300  0.40890100  1
  O  O38  1  0.29222800  0.29905100  0.90890100  1
  O  O39  1  0.39015000  0.79905100  0.50682300  1
  O  O40  1  0.79222800  0.88332700  0.99317700  1
  O  O41  1  0.38332700  0.59109900  0.89015000  1
  O  O42  1  0.00682300  0.29905100  0.89015000  1
  O  O43  1  0.09109900  0.88332700  0.39015000  1
  O  O44  1  0.40890100  0.79905100  0.79222800  1
  O  O45  1  0.09109900  0.70777200  0.70094900  1
  O  O46  1  0.11667300  0.60985000  0.90890100  1
  O  O47  1  0.10985000  0.99317700  0.70094900  1
loop_
_geom_bond_atom_site_label_1
_geom_bond_atom_site_label_2
_geom_bond_distance
_geom_bond_site_symmetry_2
Li0 O8 2.314446 1_555
Li0 O23 2.314446 1_545
Li0 O9 2.314446 1_555
Li0 O0 2.314446 1_555
Li0 O2 2.450795 1_555
Li0 O3 2.450795 1_555
Li0 O30 2.450795 1_545
Li0 O5 2.450795 1_555
Li1 O12 2.314446 1_555
Li1 O5 2.314446 1_555
Li1 O36 2.314446 1_545
Li1 O14 2.314446 1_555
Li1 O28 2.450795 1_545
Li1 O9 2.450795 1_555
Li1 O18 2.450795 1_555
Li1 O7 2.450795 1_555
Li2 O4 2.314446 1_555
Li2 O43 2.314446 1_655
Li2 O11 2.314446 1_555
Li2 O6 2.314446 1_555
Li2 O19 2.450795 1_555
Li2 O10 2.450795 1_555
Li2 O37 2.450795 1_655
Li2 O1 2.450795 1_555
Li3 O7 2.314446 1_555
Li3 O25 2.314446 1_555
Li3 O24 2.314446 1_555
Li3 O38 2.314446 1_554
Li3 O42 2.450795 1_554
Li3 O16 2.450795 1_555
Li3 O14 2.450795 1_555
Li3 O15 2.450795 1_555
Li4 O30 2.314446 1_555
Li4 O46 2.314446 1_554
Li4 O16 2.314446 1_555
Li4 O28 2.314446 1_555
Li4 O36 2.450795 1_555
Li4 O23 2.450795 1_555
Li4 O41 2.450795 1_554
Li4 O25 2.450795 1_555
Li5 O20 2.314446 1_555
Li5 O1 2.314446 1_556
Li5 O31 2.314446 1_555
Li5 O17 2.314446 1_555
Li5 O22 2.450795 1_555
Li5 O13 2.450795 1_555
Li5 O6 2.450795 1_556
Li5 O26 2.450795 1_555
Li6 O15 2.314446 1_555
Li6 O29 2.314446 1_555
Li6 O18 2.314446 1_555
Li6 O2 2.314446 1_455
Li6 O0 2.450795 1_455
Li6 O24 2.450795 1_555
Li6 O35 2.450795 1_555
Li6 O12 2.450795 1_555
Li7 O27 2.314446 1_555
Li7 O45 2.314446 1_655
Li7 O19 2.314446 1_555
Li7 O32 2.314446 1_555
Li7 O34 2.450795 1_555
Li7 O11 2.450795 1_555
Li7 O21 2.450795 1_555
Li7 O47 2.450795 1_655
Li8 O21 2.314446 1_555
Li8 O10 2.314446 1_556
Li8 O22 2.314446 1_555
Li8 O40 2.314446 1_555
Li8 O32 2.450795 1_555
Li8 O31 2.450795 1_555
Li8 O33 2.450795 1_555
Li8 O4 2.450795 1_556
Li9 O13 2.314446 1_565
Li9 O33 2.314446 1_555
Li9 O44 2.314446 1_555
Li9 O34 2.314446 1_555
Li9 O40 2.450795 1_555
Li9 O39 2.450795 1_555
Li9 O27 2.450795 1_555
Li9 O20 2.450795 1_565
Li10 O41 2.314446 1_555
Li10 O3 2.314446 1_455
Li10 O35 2.314446 1_555
Li10 O42 2.314446 1_555
Li10 O38 2.450795 1_555
Li10 O46 2.450795 1_555
Li10 O8 2.450795 1_455
Li10 O29 2.450795 1_555
Li11 O47 2.314446 1_555
Li11 O26 2.314446 1_565
Li11 O39 2.314446 1_555
Li11 O37 2.314446 1_555
Li11 O44 2.450795 1_555
Li11 O45 2.450795 1_555
Li11 O17 2.450795 1_565
Li11 O43 2.450795 1_555
Fe0 O20 2.018424 1_554
Fe0 O5 2.018424 1_555
Fe0 O28 2.018424 1_545
Fe0 O26 2.018424 1_554
Fe0 O23 2.018424 1_545
Fe0 O44 2.018424 1_544
Fe1 O7 2.018424 1_555
Fe1 O12 2.018424 1_555
Fe1 O15 2.018424 1_555
Fe1 O34 2.018424 1_444
Fe1 O32 2.018424 1_444
Fe1 O40 2.018424 1_444
Fe2 O41 2.018424 1_554
Fe2 O10 2.018424 1_555
Fe2 O16 2.018424 1_555
Fe2 O38 2.018424 1_554
Fe2 O31 2.018424 1_554
Fe2 O6 2.018424 1_555
Fe3 O30 2.018424 1_545
Fe3 O13 2.018424 1_555
Fe3 O36 2.018424 1_545
Fe3 O9 2.018424 1_555
Fe3 O39 2.018424 1_545
Fe3 O17 2.018424 1_555
Fe4 O4 2.018424 1_455
Fe4 O25 2.018424 1_555
Fe4 O42 2.018424 1_554
Fe4 O1 2.018424 1_455
Fe4 O46 2.018424 1_554
Fe4 O22 2.018424 1_454
Fe5 O47 2.018424 1_545
Fe5 O29 2.018424 1_555
Fe5 O0 2.018424 1_455
Fe5 O43 2.018424 1_545
Fe5 O3 2.018424 1_455
Fe5 O19 2.018424 1_445
Fe6 O33 2.018424 1_555
Fe6 O27 2.018424 1_555
Fe6 O21 2.018424 1_555
Fe6 O14 2.018424 1_555
Fe6 O18 2.018424 1_555
Fe6 O24 2.018424 1_555
Fe7 O8 2.018424 1_455
Fe7 O45 2.018424 1_555
Fe7 O35 2.018424 1_555
Fe7 O2 2.018424 1_455
Fe7 O11 2.018424 1_455
Fe7 O37 2.018424 1_555
O0 P3 1.560913 1_545
O1 P0 1.560913 1_555
O2 P0 1.560913 1_555
O3 P2 1.560913 1_555
O4 P9 1.560913 1_655
O5 P1 1.560913 1_555
O6 P1 1.560913 1_555
O7 P8 1.560913 1_554
O8 P4 1.560913 1_555
O9 P4 1.560913 1_555
O10 P3 1.560913 1_555
O11 P1 1.560913 1_555
O12 P9 1.560913 1_545
O13 P2 1.560913 1_555
O14 P1 1.560913 1_555
O15 P0 1.560913 1_455
O16 P5 1.560913 1_555
O17 P6 1.560913 1_555
O18 P6 1.560913 1_555
O19 P5 1.560913 1_555
O20 P0 1.560913 1_556
O21 P4 1.560913 1_555
O22 P4 1.560913 1_555
O23 P3 1.560913 1_555
O24 P7 1.560913 1_555
O25 P7 1.560913 1_555
O26 P8 1.560913 1_555
O27 P5 1.560913 1_555
O28 P11 1.560913 1_554
O29 P6 1.560913 1_555
O30 P5 1.560913 1_555
O31 P6 1.560913 1_555
O32 P11 1.560913 1_655
O33 P10 1.560913 1_555
O34 P2 1.560913 1_565
O35 P10 1.560913 1_555
O36 P9 1.560913 1_555
O37 P7 1.560913 1_555
O38 P8 1.560913 1_555
O39 P7 1.560913 1_555
O40 P3 1.560913 1_556
O41 P10 1.560913 1_555
O42 P2 1.560913 1_455
O43 P9 1.560913 1_555
O44 P10 1.560913 1_555
O45 P11 1.560913 1_555
O46 P11 1.560913 1_555
O47 P8 1.560913 1_565
