# generated using pymatgen
data_Na3Co(BO3)2
_symmetry_space_group_name_H-M   'P 1'
_cell_length_a   9.53043500
_cell_length_b   5.54073100
_cell_length_c   11.50666340
_cell_angle_alpha   65.36121523
_cell_angle_beta   90.00000000
_cell_angle_gamma   90.00000000
_symmetry_Int_Tables_number   1
_chemical_formula_structural   Na3Co(BO3)2
_chemical_formula_sum   'Na12 Co4 B8 O24'
_cell_volume   552.29505752
_cell_formula_units_Z   4
loop_
 _symmetry_equiv_pos_site_id
 _symmetry_equiv_pos_as_xyz
  1  'x, y, z'
loop_
 _atom_site_type_symbol
 _atom_site_label
 _atom_site_symmetry_multiplicity
 _atom_site_fract_x
 _atom_site_fract_y
 _atom_site_fract_z
 _atom_site_occupancy
  Na  Na0  1  0.97150500  0.49529900  0.34455400  1
  Na  Na1  1  0.66401000  0.45963500  0.37714400  1
  Na  Na2  1  0.99109200  0.92408400  0.88755700  1
  Na  Na3  1  0.16401000  0.54036500  0.12285600  1
  Na  Na4  1  0.49109200  0.07591600  0.61244300  1
  Na  Na5  1  0.47150500  0.50470100  0.15544600  1
  Na  Na6  1  0.52849500  0.49529900  0.84455400  1
  Na  Na7  1  0.50890800  0.92408400  0.38755700  1
  Na  Na8  1  0.83599000  0.45963500  0.87714400  1
  Na  Na9  1  0.00890800  0.07591600  0.11244300  1
  Na  Na10  1  0.33599000  0.54036500  0.62285600  1
  Na  Na11  1  0.02849500  0.50470100  0.65544600  1
  Co  Co0  1  0.32690800  0.97811600  0.87455400  1
  Co  Co1  1  0.82690800  0.02188400  0.62544600  1
  Co  Co2  1  0.17309200  0.97811600  0.37455400  1
  Co  Co3  1  0.67309200  0.02188400  0.12544600  1
  B  B0  1  0.31274800  0.44976200  0.38096000  1
  B  B1  1  0.65226200  0.97372100  0.86969700  1
  B  B2  1  0.81274800  0.55023800  0.11904000  1
  B  B3  1  0.15226200  0.02627900  0.63030300  1
  B  B4  1  0.84773800  0.97372100  0.36969700  1
  B  B5  1  0.18725200  0.44976200  0.88096000  1
  B  B6  1  0.34773800  0.02627900  0.13030300  1
  B  B7  1  0.68725200  0.55023800  0.61904000  1
  O  O0  1  0.32675400  0.87054300  0.06403500  1
  O  O1  1  0.70119700  0.32401500  0.59510600  1
  O  O2  1  0.94004300  0.66897800  0.11306800  1
  O  O3  1  0.26158800  0.11224000  0.68130700  1
  O  O4  1  0.69257300  0.65340200  0.15172800  1
  O  O5  1  0.01391500  0.09753800  0.64910500  1
  O  O6  1  0.19257300  0.34659800  0.34827200  1
  O  O7  1  0.51391500  0.90246200  0.85089500  1
  O  O8  1  0.44004300  0.33102200  0.38693200  1
  O  O9  1  0.76158800  0.88776000  0.81869300  1
  O  O10  1  0.82675400  0.12945700  0.43596500  1
  O  O11  1  0.20119700  0.67598500  0.90489400  1
  O  O12  1  0.79880300  0.32401500  0.09510600  1
  O  O13  1  0.17324600  0.87054300  0.56403500  1
  O  O14  1  0.23841200  0.11224000  0.18130700  1
  O  O15  1  0.55995700  0.66897800  0.61306800  1
  O  O16  1  0.48608500  0.09753800  0.14910500  1
  O  O17  1  0.80742700  0.65340200  0.65172800  1
  O  O18  1  0.98608500  0.90246200  0.35089500  1
  O  O19  1  0.30742700  0.34659800  0.84827200  1
  O  O20  1  0.73841200  0.88776000  0.31869300  1
  O  O21  1  0.05995700  0.33102200  0.88693200  1
  O  O22  1  0.29880300  0.67598500  0.40489400  1
  O  O23  1  0.67324600  0.12945700  0.93596500  1
loop_
_geom_bond_atom_site_label_1
_geom_bond_atom_site_label_2
_geom_bond_distance
_geom_bond_site_symmetry_2
Na0 O6 2.256145 1_655
Na0 O18 2.291577 1_555
Na0 O10 2.310977 1_555
Na0 O2 2.444110 1_555
Na1 O8 2.238232 1_555
Na1 O10 2.275557 1_555
Na1 O20 2.291697 1_555
Na1 O1 2.325732 1_555
Na1 O4 2.373308 1_555
Na2 O21 2.345443 1_665
Na2 O9 2.363373 1_555
Na2 O11 2.389640 1_655
Na2 O2 2.431014 1_556
Na2 O5 2.510110 1_665
Na3 O2 2.238232 1_455
Na3 O0 2.275557 1_555
Na3 O14 2.291697 1_555
Na3 O11 2.325732 1_554
Na3 O6 2.373308 1_555
Na4 O15 2.345443 1_545
Na4 O3 2.363373 1_555
Na4 O1 2.389640 1_555
Na4 O8 2.431014 1_555
Na4 O7 2.510110 1_545
Na5 O4 2.256145 1_555
Na5 O16 2.291577 1_555
Na5 O0 2.310977 1_555
Na5 O8 2.444110 1_555
Na6 O19 2.256145 1_555
Na6 O7 2.291577 1_555
Na6 O23 2.310977 1_555
Na6 O15 2.444110 1_555
Na7 O8 2.345443 1_565
Na7 O20 2.363373 1_555
Na7 O22 2.389640 1_555
Na7 O15 2.431014 1_555
Na7 O16 2.510110 1_565
Na8 O21 2.238232 1_655
Na8 O23 2.275557 1_555
Na8 O9 2.291697 1_555
Na8 O12 2.325732 1_556
Na8 O17 2.373308 1_555
Na9 O2 2.345443 1_445
Na9 O14 2.363373 1_555
Na9 O12 2.389640 1_455
Na9 O21 2.431014 1_554
Na9 O18 2.510110 1_445
Na10 O15 2.238232 1_555
Na10 O13 2.275557 1_555
Na10 O3 2.291697 1_555
Na10 O22 2.325732 1_555
Na10 O19 2.373308 1_555
Na11 O17 2.256145 1_455
Na11 O5 2.291577 1_555
Na11 O13 2.310977 1_555
Na11 O21 2.444110 1_555
Co0 O7 1.876544 1_555
Co0 O19 1.944091 1_565
Co0 O11 1.967830 1_555
Co0 O0 2.006341 1_556
Co0 O3 2.122853 1_565
Co1 O5 1.876544 1_655
Co1 O17 1.944091 1_545
Co1 O1 1.967830 1_555
Co1 O10 2.006341 1_555
Co1 O9 2.122853 1_545
Co2 O18 1.876544 1_455
Co2 O6 1.944091 1_565
Co2 O22 1.967830 1_555
Co2 O13 2.006341 1_555
Co2 O14 2.122853 1_565
Co3 O16 1.876544 1_555
Co3 O4 1.944091 1_545
Co3 O12 1.967830 1_555
Co3 O23 2.006341 1_554
Co3 O20 2.122853 1_545
B0 O8 1.368088 1_555
B0 O22 1.397299 1_555
B0 O6 1.399723 1_555
B1 O9 1.374757 1_555
B1 O23 1.383703 1_565
B1 O7 1.418583 1_555
B2 O2 1.368088 1_555
B2 O12 1.397299 1_555
B2 O4 1.399723 1_555
B3 O3 1.374757 1_555
B3 O13 1.383703 1_545
B3 O5 1.418583 1_555
B4 O20 1.374757 1_555
B4 O10 1.383703 1_565
B4 O18 1.418583 1_555
B5 O21 1.368088 1_555
B5 O11 1.397299 1_555
B5 O19 1.399723 1_555
B6 O14 1.374757 1_555
B6 O0 1.383703 1_545
B6 O16 1.418583 1_555
B7 O15 1.368088 1_555
B7 O1 1.397299 1_555
B7 O17 1.399723 1_555
