# generated using pymatgen
data_LiV3O5F3
_symmetry_space_group_name_H-M   'P 1'
_cell_length_a   7.17138824
_cell_length_b   7.17138824
_cell_length_c   5.10848554
_cell_angle_alpha   89.10520883
_cell_angle_beta   89.10520883
_cell_angle_gamma   101.23576802
_symmetry_Int_Tables_number   1
_chemical_formula_structural   LiV3O5F3
_chemical_formula_sum   'Li2 V6 O10 F6'
_cell_volume   257.60983444
_cell_formula_units_Z   2
loop_
 _symmetry_equiv_pos_site_id
 _symmetry_equiv_pos_as_xyz
  1  'x, y, z'
loop_
 _atom_site_type_symbol
 _atom_site_label
 _atom_site_symmetry_multiplicity
 _atom_site_fract_x
 _atom_site_fract_y
 _atom_site_fract_z
 _atom_site_occupancy
  Li  Li0  1  0.83026900  0.16344900  0.74583600  1
  Li  Li1  1  0.16344900  0.83026900  0.24583600  1
  V  V0  1  0.82480100  0.66222100  0.71683400  1
  V  V1  1  0.66222100  0.82480100  0.21683400  1
  V  V2  1  0.33076000  0.68988700  0.72050000  1
  V  V3  1  0.68988700  0.33076000  0.22050000  1
  V  V4  1  0.33294400  0.17606900  0.78968300  1
  V  V5  1  0.17606900  0.33294400  0.28968300  1
  O  O0  1  0.57621300  0.70011000  0.90360600  1
  O  O1  1  0.70011000  0.57621300  0.40360600  1
  O  O2  1  0.31490500  0.93809300  0.88178800  1
  O  O3  1  0.78930900  0.42787100  0.92706800  1
  O  O4  1  0.93809300  0.31490500  0.38178800  1
  O  O5  1  0.42787100  0.78930900  0.42706800  1
  O  O6  1  0.06289000  0.67902200  0.62420200  1
  O  O7  1  0.67902200  0.06289000  0.12420200  1
  O  O8  1  0.30349200  0.41885000  0.60215100  1
  O  O9  1  0.41885000  0.30349200  0.10215100  1
  F  F0  1  0.80831300  0.91536900  0.56005000  1
  F  F1  1  0.91536900  0.80831300  0.06005000  1
  F  F2  1  0.57711000  0.20340500  0.58606400  1
  F  F3  1  0.20340500  0.57711000  0.08606400  1
  F  F4  1  0.08143100  0.19321700  0.94221900  1
  F  F5  1  0.19321700  0.08143100  0.44221900  1
loop_
_geom_bond_atom_site_label_1
_geom_bond_atom_site_label_2
_geom_bond_distance
_geom_bond_site_symmetry_2
Li0 O4 2.191108 1_555
Li0 O3 2.191502 1_555
Li0 O7 2.240247 1_556
Li1 O2 2.191108 1_554
Li1 O5 2.191502 1_555
Li1 O6 2.240247 1_555
O0 V1 1.897634 1_556
O0 V2 1.995509 1_555
O0 V0 2.075093 1_555
O1 V0 1.897634 1_555
O1 V3 1.995509 1_555
O1 V1 2.075093 1_555
O2 V4 1.742886 1_565
O2 V2 1.995466 1_555
O3 V3 1.726516 1_556
O3 V0 1.952196 1_555
O4 V5 1.742886 1_655
O4 V3 1.995466 1_555
O5 V2 1.726516 1_555
O5 V1 1.952196 1_555
O6 V0 1.745443 1_455
O6 V2 1.977548 1_555
O7 V1 1.745443 1_545
O7 V3 1.977548 1_555
O8 V5 1.902481 1_555
O8 V2 2.018428 1_555
O8 V4 2.022686 1_555
O9 V4 1.902481 1_554
O9 V3 2.018428 1_555
O9 V5 2.022686 1_555
F0 V0 1.998105 1_555
F0 Li0 2.009705 1_565
F0 V1 2.102703 1_555
F1 V1 1.998105 1_555
F1 Li1 2.009705 1_655
F1 V0 2.102703 1_554
F2 V4 1.997355 1_555
F2 Li0 2.070271 1_555
F2 V3 2.141828 1_555
F3 V5 1.997355 1_555
F3 Li1 2.070271 1_555
F3 V2 2.141828 1_554
F4 V4 1.980196 1_555
F4 Li0 2.051720 1_455
F4 V5 2.107968 1_556
F5 V5 1.980196 1_555
F5 Li1 2.051720 1_545
F5 V4 2.107968 1_555
