# generated using pymatgen
data_LiMn3Al2(HO2)6
_symmetry_space_group_name_H-M   'P 1'
_cell_length_a   5.87796700
_cell_length_b   7.95150028
_cell_length_c   9.69124456
_cell_angle_alpha   100.93401398
_cell_angle_beta   89.77266665
_cell_angle_gamma   100.93891277
_symmetry_Int_Tables_number   1
_chemical_formula_structural   LiMn3Al2(HO2)6
_chemical_formula_sum   'Li2 Mn6 Al4 H12 O24'
_cell_volume   436.41111554
_cell_formula_units_Z   2
loop_
 _symmetry_equiv_pos_site_id
 _symmetry_equiv_pos_as_xyz
  1  'x, y, z'
loop_
 _atom_site_type_symbol
 _atom_site_label
 _atom_site_symmetry_multiplicity
 _atom_site_fract_x
 _atom_site_fract_y
 _atom_site_fract_z
 _atom_site_occupancy
  Li  Li0  1  0.65831900  0.65525300  0.50035800  1
  Li  Li1  1  0.34168100  0.34474700  0.49964200  1
  Mn  Mn0  1  0.91798700  0.66453800  0.00686000  1
  Mn  Mn1  1  0.08201300  0.33546200  0.99314000  1
  Mn  Mn2  1  0.41855100  0.66431900  0.00605400  1
  Mn  Mn3  1  0.58144900  0.33568100  0.99394600  1
  Mn  Mn4  1  0.24995000  0.00022100  0.00033500  1
  Mn  Mn5  1  0.75005000  0.99977900  0.99966500  1
  Al  Al0  1  0.16926900  0.65977900  0.49927100  1
  Al  Al1  1  0.83073100  0.34022100  0.50072900  1
  Al  Al2  1  0.00000000  0.00000000  0.50000000  1
  Al  Al3  1  0.50000000  0.00000000  0.50000000  1
  H  H0  1  0.21111600  0.83644400  0.28821300  1
  H  H1  1  0.71060800  0.84676600  0.29592100  1
  H  H2  1  0.96966400  0.82452200  0.69964100  1
  H  H3  1  0.88785800  0.50177800  0.29139500  1
  H  H4  1  0.44625900  0.82970200  0.70468700  1
  H  H5  1  0.11214200  0.49822200  0.70860500  1
  H  H6  1  0.35924700  0.51674900  0.29094500  1
  H  H7  1  0.03033600  0.17547800  0.30035900  1
  H  H8  1  0.64075300  0.48325100  0.70905500  1
  H  H9  1  0.55374100  0.17029800  0.29531300  1
  H  H10  1  0.78888400  0.16355600  0.71178700  1
  H  H11  1  0.28939200  0.15323400  0.70407900  1
  O  O0  1  0.19818800  0.78083900  0.11425700  1
  O  O1  1  0.21586600  0.86907500  0.39361600  1
  O  O2  1  0.72092700  0.88341900  0.39949900  1
  O  O3  1  0.69760200  0.78079800  0.11343800  1
  O  O4  1  0.96889100  0.80861400  0.59682500  1
  O  O5  1  0.96830100  0.85463200  0.90400500  1
  O  O6  1  0.89756700  0.52089100  0.39470500  1
  O  O7  1  0.86512500  0.46477000  0.10156700  1
  O  O8  1  0.46730500  0.85496300  0.90394000  1
  O  O9  1  0.13487500  0.53523000  0.89843300  1
  O  O10  1  0.43605200  0.81165600  0.60170900  1
  O  O11  1  0.10243300  0.47910900  0.60529500  1
  O  O12  1  0.03110900  0.19138600  0.40317500  1
  O  O13  1  0.36382000  0.46453800  0.09995900  1
  O  O14  1  0.36884400  0.54584200  0.39348700  1
  O  O15  1  0.03169900  0.14536800  0.09599500  1
  O  O16  1  0.63618000  0.53546200  0.90004100  1
  O  O17  1  0.63115600  0.45415800  0.60651300  1
  O  O18  1  0.56394800  0.18834400  0.39829100  1
  O  O19  1  0.53269500  0.14503700  0.09606000  1
  O  O20  1  0.80181200  0.21916100  0.88574300  1
  O  O21  1  0.78413400  0.13092500  0.60638400  1
  O  O22  1  0.27907300  0.11658100  0.60050100  1
  O  O23  1  0.30239800  0.21920200  0.88656200  1
loop_
_geom_bond_atom_site_label_1
_geom_bond_atom_site_label_2
_geom_bond_distance
_geom_bond_site_symmetry_2
Li0 O14 1.958344 1_555
Li0 O17 2.041211 1_555
Li0 O6 2.076364 1_555
Li0 O10 2.088383 1_555
Li0 O4 2.104713 1_555
Li0 O2 2.190632 1_555
Li1 O17 1.958344 1_555
Li1 O14 2.041211 1_555
Li1 O11 2.076364 1_555
Li1 O18 2.088383 1_555
Li1 O12 2.104713 1_555
Li1 O22 2.190632 1_555
Mn0 O3 1.918639 1_555
Mn0 O0 1.929131 1_655
Mn0 O5 1.940455 1_554
Mn0 O7 1.955924 1_555
Mn0 O16 1.958111 1_554
Mn0 O9 1.965605 1_654
Mn1 O23 1.918639 1_555
Mn1 O20 1.929131 1_455
Mn1 O15 1.940455 1_556
Mn1 O9 1.955924 1_555
Mn1 O13 1.958111 1_556
Mn1 O7 1.965605 1_456
Mn2 O3 1.924214 1_555
Mn2 O0 1.926633 1_555
Mn2 O8 1.939432 1_554
Mn2 O13 1.951247 1_555
Mn2 O16 1.956893 1_554
Mn2 O9 1.969737 1_554
Mn3 O23 1.924214 1_555
Mn3 O20 1.926633 1_555
Mn3 O19 1.939432 1_556
Mn3 O16 1.951247 1_555
Mn3 O13 1.956893 1_556
Mn3 O7 1.969737 1_556
Mn4 O5 1.956364 1_444
Mn4 O19 1.956880 1_555
Mn4 O8 1.995069 1_544
Mn4 O15 1.995955 1_555
Mn4 O23 2.205570 1_554
Mn4 O0 2.209296 1_545
Mn5 O15 1.956364 1_666
Mn5 O8 1.956880 1_555
Mn5 O19 1.995069 1_566
Mn5 O5 1.995955 1_555
Mn5 O3 2.205570 1_556
Mn5 O20 2.209296 1_565
Al0 O14 1.813670 1_555
Al0 O11 1.901707 1_555
Al0 O6 1.927706 1_455
Al0 O10 1.934388 1_555
Al0 O4 1.943549 1_455
Al0 O1 2.089087 1_555
Al1 O17 1.813670 1_555
Al1 O6 1.901707 1_555
Al1 O11 1.927706 1_655
Al1 O18 1.934388 1_555
Al1 O12 1.943549 1_655
Al1 O21 2.089087 1_555
Al2 O22 1.895220 1_555
Al2 O2 1.895220 1_445
Al2 O12 1.914311 1_555
Al2 O4 1.914311 1_445
Al2 O1 1.959719 1_545
Al2 O21 1.959719 1_455
Al3 O22 1.897009 1_555
Al3 O2 1.897009 1_545
Al3 O10 1.923314 1_545
Al3 O18 1.923314 1_555
Al3 O1 1.970453 1_545
Al3 O21 1.970453 1_555
H0 O1 1.004225 1_555
H0 O0 1.657967 1_555
H1 O2 0.989457 1_555
H1 O3 1.744271 1_555
H2 O4 0.980239 1_555
H3 O6 0.983971 1_555
H4 O10 0.981349 1_555
H5 O11 0.983971 1_555
H6 O14 0.975980 1_555
H7 O12 0.980239 1_555
H8 O17 0.975980 1_555
H9 O18 0.981349 1_555
H10 O21 1.004225 1_555
H10 O20 1.657967 1_555
H11 O22 0.989457 1_555
H11 O23 1.744271 1_555
