# generated using pymatgen
data_Cs3Mg3In(PO3)12
_symmetry_space_group_name_H-M   'P 1'
_cell_length_a   9.66446041
_cell_length_b   9.66446041
_cell_length_c   12.64823564
_cell_angle_alpha   58.42281199
_cell_angle_beta   58.42281199
_cell_angle_gamma   62.88367315
_symmetry_Int_Tables_number   1
_chemical_formula_structural   Cs3Mg3In(PO3)12
_chemical_formula_sum   'Cs3 Mg3 In1 P12 O36'
_cell_volume   830.15888766
_cell_formula_units_Z   1
loop_
 _symmetry_equiv_pos_site_id
 _symmetry_equiv_pos_as_xyz
  1  'x, y, z'
loop_
 _atom_site_type_symbol
 _atom_site_label
 _atom_site_symmetry_multiplicity
 _atom_site_fract_x
 _atom_site_fract_y
 _atom_site_fract_z
 _atom_site_occupancy
  Cs  Cs0  1  0.21155300  0.79045300  0.99491700  1
  Cs  Cs1  1  0.00410800  0.00410800  0.50157300  1
  Cs  Cs2  1  0.79045300  0.21155300  0.99491700  1
  Mg  Mg0  1  0.75120300  0.75120300  0.92321800  1
  Mg  Mg1  1  0.20382200  0.20382200  0.59410800  1
  Mg  Mg2  1  0.24811000  0.24811000  0.07563400  1
  In  In0  1  0.79430300  0.79430300  0.40807200  1
  P  P0  1  0.76244500  0.76244500  0.16807400  1
  P  P1  1  0.57929700  0.16179600  0.80455500  1
  P  P2  1  0.20048100  0.60175400  0.36737200  1
  P  P3  1  0.83818200  0.41795200  0.19634500  1
  P  P4  1  0.60175400  0.20048100  0.36737200  1
  P  P5  1  0.32934700  0.32934700  0.27160200  1
  P  P6  1  0.66704800  0.66704800  0.73250500  1
  P  P7  1  0.39060300  0.80270700  0.63422900  1
  P  P8  1  0.16179600  0.57929700  0.80455500  1
  P  P9  1  0.80270700  0.39060300  0.63422900  1
  P  P10  1  0.41795200  0.83818200  0.19634500  1
  P  P11  1  0.23640100  0.23640100  0.82875200  1
  O  O0  1  0.82048200  0.82048200  0.01969400  1
  O  O1  1  0.94755600  0.24440700  0.66137900  1
  O  O2  1  0.81816700  0.56220000  0.23731100  1
  O  O3  1  0.49697200  0.80330800  0.07008500  1
  O  O4  1  0.35008200  0.67387900  0.32424200  1
  O  O5  1  0.43647000  0.18923300  0.75984800  1
  O  O6  1  0.17317500  0.46769600  0.50332400  1
  O  O7  1  0.80330800  0.49697200  0.07008500  1
  O  O8  1  0.70641100  0.00203200  0.79123500  1
  O  O9  1  0.99726900  0.28985900  0.20886900  1
  O  O10  1  0.67387900  0.35008200  0.32424200  1
  O  O11  1  0.27202100  0.52480800  0.25523200  1
  O  O12  1  0.17297400  0.17297400  0.78025600  1
  O  O13  1  0.46769600  0.17317500  0.50332400  1
  O  O14  1  0.52480800  0.27202100  0.25523200  1
  O  O15  1  0.75431700  0.05921700  0.33569300  1
  O  O16  1  0.22788100  0.22788100  0.40868200  1
  O  O17  1  0.33545300  0.33545300  0.14841300  1
  O  O18  1  0.65985000  0.65985000  0.85603100  1
  O  O19  1  0.77215000  0.77215000  0.59714900  1
  O  O20  1  0.24440700  0.94755600  0.66137900  1
  O  O21  1  0.47780600  0.72307100  0.74255300  1
  O  O22  1  0.52464700  0.82760900  0.49574500  1
  O  O23  1  0.82906200  0.82906200  0.21380600  1
  O  O24  1  0.72307100  0.47780600  0.74255300  1
  O  O25  1  0.32227500  0.65201600  0.67504100  1
  O  O26  1  0.00203200  0.70641100  0.79123500  1
  O  O27  1  0.28985900  0.99726900  0.20886900  1
  O  O28  1  0.19506100  0.50223900  0.92908000  1
  O  O29  1  0.82760900  0.52464700  0.49574500  1
  O  O30  1  0.56220000  0.81816700  0.23731100  1
  O  O31  1  0.65201600  0.32227500  0.67504100  1
  O  O32  1  0.50223900  0.19506100  0.92908000  1
  O  O33  1  0.18923300  0.43647000  0.75984800  1
  O  O34  1  0.05921700  0.75431700  0.33569300  1
  O  O35  1  0.17973100  0.17973100  0.97781000  1
loop_
_geom_bond_atom_site_label_1
_geom_bond_atom_site_label_2
_geom_bond_distance
_geom_bond_site_symmetry_2
Cs0 O21 3.046542 1_555
Cs0 O11 3.093228 1_556
Cs0 O12 3.235607 1_565
Cs0 O23 3.251940 1_456
Cs0 O28 3.383839 1_555
Cs0 O3 3.422121 1_556
Cs0 O0 3.510254 1_456
Cs0 O35 3.529544 1_565
Cs0 O20 3.540012 1_555
Cs0 O18 3.579977 1_555
Cs0 O34 3.621306 1_556
Cs0 O17 3.637762 1_556
Cs1 O16 3.110610 1_555
Cs1 O19 3.227558 1_445
Cs1 O8 3.261460 1_455
Cs1 O26 3.261460 1_545
Cs1 O27 3.274055 1_545
Cs1 O9 3.274055 1_455
Cs1 O20 3.518474 1_545
Cs1 O1 3.518474 1_455
Cs1 O34 3.670920 1_545
Cs1 O15 3.670920 1_455
Cs2 O24 3.046542 1_555
Cs2 O14 3.093228 1_556
Cs2 O12 3.235607 1_655
Cs2 O23 3.251940 1_546
Cs2 O32 3.383839 1_555
Cs2 O7 3.422121 1_556
Cs2 O0 3.510254 1_546
Cs2 O35 3.529544 1_655
Cs2 O1 3.540012 1_555
Cs2 O18 3.579977 1_555
Cs2 O15 3.621306 1_556
Cs2 O17 3.637762 1_556
Mg0 O8 2.100625 1_565
Mg0 O26 2.100625 1_655
Mg0 O0 2.122629 1_556
Mg0 O18 2.136156 1_555
Mg0 O3 2.193841 1_556
Mg0 O7 2.193841 1_556
Mg1 O1 2.066088 1_455
Mg1 O20 2.066088 1_545
Mg1 O12 2.081331 1_555
Mg1 O13 2.123814 1_555
Mg1 O6 2.123814 1_555
Mg1 O16 2.125010 1_555
Mg2 O27 2.102743 1_545
Mg2 O9 2.102743 1_455
Mg2 O35 2.124884 1_554
Mg2 O17 2.132974 1_555
Mg2 O32 2.193268 1_554
Mg2 O28 2.193268 1_554
In0 O15 2.134528 1_565
In0 O34 2.134528 1_655
In0 O23 2.153396 1_555
In0 O22 2.169674 1_555
In0 O29 2.169674 1_555
In0 O19 2.186375 1_555
O0 P0 1.494419 1_555
O1 P9 1.505381 1_555
O2 P0 1.603458 1_555
O2 P3 1.629435 1_555
O3 P10 1.516216 1_555
O4 P2 1.602591 1_555
O4 P10 1.648198 1_555
O5 P11 1.598043 1_555
O5 P1 1.619313 1_555
O6 P2 1.486035 1_555
O7 P3 1.516216 1_555
O8 P1 1.499379 1_555
O9 P3 1.495361 1_555
O10 P4 1.602591 1_555
O10 P3 1.648198 1_555
O11 P2 1.628411 1_555
O11 P5 1.635450 1_555
O12 P11 1.502616 1_555
O13 P4 1.486035 1_555
O14 P4 1.628411 1_555
O14 P5 1.635450 1_555
O15 P4 1.522355 1_555
O16 P5 1.498233 1_555
O17 P5 1.498432 1_555
O18 P6 1.492476 1_555
O19 P6 1.514132 1_555
O20 P7 1.505381 1_555
O21 P6 1.606298 1_555
O21 P7 1.641173 1_555
O22 P7 1.506812 1_555
O23 P0 1.523637 1_555
O24 P6 1.606298 1_555
O24 P9 1.641173 1_555
O25 P7 1.598702 1_555
O25 P8 1.646183 1_555
O26 P8 1.499379 1_555
O27 P10 1.495361 1_555
O28 P8 1.490730 1_555
O29 P9 1.506812 1_555
O30 P0 1.603458 1_555
O30 P10 1.629435 1_555
O31 P9 1.598702 1_555
O31 P1 1.646183 1_555
O32 P1 1.490730 1_555
O33 P11 1.598043 1_555
O33 P8 1.619313 1_555
O34 P2 1.522355 1_555
O35 P11 1.504993 1_555
