# generated using pymatgen
data_LiNb(PO3)4
_symmetry_space_group_name_H-M   'P 1'
_cell_length_a   10.51927578
_cell_length_b   10.51927578
_cell_length_c   5.41934531
_cell_angle_alpha   80.99043713
_cell_angle_beta   80.99043713
_cell_angle_gamma   70.17424030
_symmetry_Int_Tables_number   1
_chemical_formula_structural   LiNb(PO3)4
_chemical_formula_sum   'Li2 Nb2 P8 O24'
_cell_volume   553.70755857
_cell_formula_units_Z   2
loop_
 _symmetry_equiv_pos_site_id
 _symmetry_equiv_pos_as_xyz
  1  'x, y, z'
loop_
 _atom_site_type_symbol
 _atom_site_label
 _atom_site_symmetry_multiplicity
 _atom_site_fract_x
 _atom_site_fract_y
 _atom_site_fract_z
 _atom_site_occupancy
  Li  Li0  1  0.43760000  0.43760000  0.60835600  1
  Li  Li1  1  0.56240000  0.56240000  0.39164400  1
  Nb  Nb0  1  0.50000000  0.00000000  0.00000000  1
  Nb  Nb1  1  0.00000000  0.50000000  0.00000000  1
  P  P0  1  0.36789200  0.77989700  0.82188200  1
  P  P1  1  0.77989700  0.36789200  0.82188200  1
  P  P2  1  0.93920200  0.70045300  0.46302900  1
  P  P3  1  0.70045300  0.93920200  0.46302900  1
  P  P4  1  0.06079800  0.29954700  0.53697100  1
  P  P5  1  0.29954700  0.06079800  0.53697100  1
  P  P6  1  0.22010300  0.63210800  0.17811800  1
  P  P7  1  0.63210800  0.22010300  0.17811800  1
  O  O0  1  0.23309300  0.76690700  0.00000000  1
  O  O1  1  0.76690700  0.23309300  0.00000000  1
  O  O2  1  0.67755500  0.92371700  0.74659100  1
  O  O3  1  0.92371700  0.67755500  0.74659100  1
  O  O4  1  0.17991300  0.54950300  0.01538800  1
  O  O5  1  0.54950300  0.17991300  0.01538800  1
  O  O6  1  0.43434900  0.65960300  0.68147500  1
  O  O7  1  0.65960300  0.43434900  0.68147500  1
  O  O8  1  0.90995100  0.29672500  0.63118400  1
  O  O9  1  0.29672500  0.90995100  0.63118400  1
  O  O10  1  0.85721800  0.85721800  0.38043900  1
  O  O11  1  0.10253600  0.39038800  0.67281800  1
  O  O12  1  0.39038800  0.10253600  0.67281800  1
  O  O13  1  0.60961200  0.89746400  0.32718200  1
  O  O14  1  0.89746400  0.60961200  0.32718200  1
  O  O15  1  0.14278200  0.14278200  0.61956100  1
  O  O16  1  0.09004900  0.70327500  0.36881600  1
  O  O17  1  0.70327500  0.09004900  0.36881600  1
  O  O18  1  0.34039700  0.56565100  0.31852500  1
  O  O19  1  0.56565100  0.34039700  0.31852500  1
  O  O20  1  0.45049700  0.82008700  0.98461200  1
  O  O21  1  0.82008700  0.45049700  0.98461200  1
  O  O22  1  0.07628300  0.32244500  0.25340900  1
  O  O23  1  0.32244500  0.07628300  0.25340900  1
loop_
_geom_bond_atom_site_label_1
_geom_bond_atom_site_label_2
_geom_bond_distance
_geom_bond_site_symmetry_2
Li0 O19 2.057454 1_555
Li0 O18 2.057454 1_555
Li0 O6 2.417287 1_555
Li0 O7 2.417287 1_555
Li1 O6 2.057454 1_555
Li1 O7 2.057454 1_555
Li1 O19 2.417287 1_555
Li1 O18 2.417287 1_555
Nb0 O23 2.131557 1_555
Nb0 O2 2.131557 1_544
Nb0 O5 2.142759 1_555
Nb0 O20 2.142759 1_544
Nb0 O13 2.198758 1_545
Nb0 O12 2.198758 1_554
Nb1 O22 2.131557 1_555
Nb1 O3 2.131557 1_454
Nb1 O4 2.142759 1_555
Nb1 O21 2.142759 1_454
Nb1 O14 2.198758 1_455
Nb1 O11 2.198758 1_554
O0 P0 1.619432 1_554
O0 P6 1.619432 1_555
O1 P1 1.619432 1_554
O1 P7 1.619432 1_555
O2 P3 1.509419 1_555
O3 P2 1.509419 1_555
O4 P6 1.522334 1_555
O5 P7 1.522334 1_555
O6 P0 1.484541 1_555
O7 P1 1.484541 1_555
O8 P4 1.597799 1_655
O8 P1 1.613964 1_555
O9 P5 1.597799 1_565
O9 P0 1.613964 1_555
O10 P3 1.608884 1_555
O10 P2 1.608884 1_555
O11 P4 1.501353 1_555
O12 P5 1.501353 1_555
O13 P3 1.501353 1_555
O14 P2 1.501353 1_555
O15 P5 1.608884 1_555
O15 P4 1.608884 1_555
O16 P2 1.597799 1_455
O16 P6 1.613964 1_555
O17 P3 1.597799 1_545
O17 P7 1.613964 1_555
O18 P6 1.484541 1_555
O19 P7 1.484541 1_555
O20 P0 1.522334 1_555
O21 P1 1.522334 1_555
O22 P4 1.509419 1_555
O23 P5 1.509419 1_555
