# generated using pymatgen
data_Li2Mn3NiO8
_symmetry_space_group_name_H-M   'P 1'
_cell_length_a   5.81422906
_cell_length_b   5.81422906
_cell_length_c   5.93003487
_cell_angle_alpha   61.08891700
_cell_angle_beta   61.08891700
_cell_angle_gamma   60.16810259
_symmetry_Int_Tables_number   1
_chemical_formula_structural   Li2Mn3NiO8
_chemical_formula_sum   'Li2 Mn3 Ni1 O8'
_cell_volume   144.22747172
_cell_formula_units_Z   1
loop_
 _symmetry_equiv_pos_site_id
 _symmetry_equiv_pos_as_xyz
  1  'x, y, z'
loop_
 _atom_site_type_symbol
 _atom_site_label
 _atom_site_symmetry_multiplicity
 _atom_site_fract_x
 _atom_site_fract_y
 _atom_site_fract_z
 _atom_site_occupancy
  Li  Li0  1  0.00000000  0.00000000  0.50000000  1
  Li  Li1  1  0.50000000  0.50000000  0.50000000  1
  Mn  Mn0  1  0.50000000  0.00000000  0.00000000  1
  Mn  Mn1  1  0.50000000  0.50000000  0.00000000  1
  Mn  Mn2  1  0.00000000  0.50000000  0.00000000  1
  Ni  Ni0  1  0.00000000  0.00000000  0.00000000  1
  O  O0  1  0.71694400  0.24440400  0.78691500  1
  O  O1  1  0.24440400  0.71694400  0.78691500  1
  O  O2  1  0.24553900  0.24553900  0.79413800  1
  O  O3  1  0.73616500  0.73616500  0.79389600  1
  O  O4  1  0.26383500  0.26383500  0.20610400  1
  O  O5  1  0.75446100  0.75446100  0.20586200  1
  O  O6  1  0.75559600  0.28305600  0.21308500  1
  O  O7  1  0.28305600  0.75559600  0.21308500  1
loop_
_geom_bond_atom_site_label_1
_geom_bond_atom_site_label_2
_geom_bond_distance
_geom_bond_site_symmetry_2
Li0 O4 2.216956 1_555
Li0 O3 2.216956 1_445
Li0 O7 2.219495 1_545
Li0 O6 2.219495 1_455
Li0 O1 2.219495 1_545
Li0 O0 2.219495 1_455
Li1 O1 2.111788 1_555
Li1 O7 2.111788 1_555
Li1 O0 2.111788 1_555
Li1 O6 2.111788 1_555
Li1 O2 2.146529 1_555
Li1 O5 2.146529 1_555
Mn0 O2 1.917576 1_554
Mn0 O5 1.917576 1_545
Mn0 O7 1.926926 1_545
Mn0 O0 1.926926 1_554
Mn0 O4 1.956235 1_555
Mn0 O3 1.956235 1_544
Mn1 O1 1.950846 1_554
Mn1 O0 1.950846 1_554
Mn1 O6 1.950846 1_555
Mn1 O7 1.950846 1_555
Mn1 O3 1.973620 1_554
Mn1 O4 1.973620 1_555
Mn2 O2 1.917576 1_554
Mn2 O5 1.917576 1_455
Mn2 O6 1.926926 1_455
Mn2 O1 1.926926 1_554
Mn2 O4 1.956235 1_555
Mn2 O3 1.956235 1_454
Ni0 O5 2.055232 1_445
Ni0 O2 2.055232 1_554
Ni0 O7 2.066956 1_545
Ni0 O0 2.066956 1_454
Ni0 O1 2.066956 1_544
Ni0 O6 2.066956 1_455
