# generated using pymatgen
data_Sr9La5Cl33
_symmetry_space_group_name_H-M   'P 1'
_cell_length_a   11.28138100
_cell_length_b   11.31749674
_cell_length_c   21.58775704
_cell_angle_alpha   99.82201927
_cell_angle_beta   99.91292532
_cell_angle_gamma   108.88029672
_symmetry_Int_Tables_number   1
_chemical_formula_structural   Sr9La5Cl33
_chemical_formula_sum   'Sr18 La10 Cl66'
_cell_volume   2492.16186909
_cell_formula_units_Z   2
loop_
 _symmetry_equiv_pos_site_id
 _symmetry_equiv_pos_as_xyz
  1  'x, y, z'
loop_
 _atom_site_type_symbol
 _atom_site_label
 _atom_site_symmetry_multiplicity
 _atom_site_fract_x
 _atom_site_fract_y
 _atom_site_fract_z
 _atom_site_occupancy
  Sr  Sr0  1  0.92494600  0.24896300  0.93093300  1
  Sr  Sr1  1  0.31948300  0.08833100  0.96989600  1
  Sr  Sr2  1  0.47229900  0.02243400  0.19340000  1
  Sr  Sr3  1  0.87004200  0.26931400  0.33839400  1
  Sr  Sr4  1  0.24459600  0.13201900  0.37811000  1
  Sr  Sr5  1  0.68134900  0.40300000  0.53801900  1
  Sr  Sr6  1  0.06884400  0.24461200  0.56202200  1
  Sr  Sr7  1  0.76039700  0.35442500  0.12083200  1
  Sr  Sr8  1  0.13109600  0.21769400  0.15794900  1
  Sr  Sr9  1  0.86890400  0.78230600  0.84205100  1
  Sr  Sr10  1  0.23960300  0.64557500  0.87916800  1
  Sr  Sr11  1  0.93115600  0.75538800  0.43797800  1
  Sr  Sr12  1  0.31865100  0.59700000  0.46198100  1
  Sr  Sr13  1  0.75540400  0.86798100  0.62189000  1
  Sr  Sr14  1  0.12995800  0.73068600  0.66160600  1
  Sr  Sr15  1  0.52770100  0.97756600  0.80660000  1
  Sr  Sr16  1  0.68051700  0.91166900  0.03010400  1
  Sr  Sr17  1  0.07505400  0.75103700  0.06906700  1
  La  La0  1  0.38066000  0.04308500  0.58601900  1
  La  La1  1  0.17721000  0.14090000  0.76612400  1
  La  La2  1  0.85666300  0.35193200  0.73340700  1
  La  La3  1  0.62738700  0.45702300  0.92683000  1
  La  La4  1  0.46254400  0.54047400  0.68658000  1
  La  La5  1  0.53745600  0.45952600  0.31342000  1
  La  La6  1  0.37261300  0.54297700  0.07317000  1
  La  La7  1  0.14333700  0.64806800  0.26659300  1
  La  La8  1  0.82279000  0.85910000  0.23387600  1
  La  La9  1  0.61934000  0.95691500  0.41398100  1
  Cl  Cl0  1  0.77237300  0.13987300  0.78744200  1
  Cl  Cl1  1  0.94447300  0.14893500  0.67212600  1
  Cl  Cl2  1  0.62530900  0.20550100  0.91811800  1
  Cl  Cl3  1  0.73751100  0.04603700  0.19373000  1
  Cl  Cl4  1  0.15644700  0.00849100  0.63607600  1
  Cl  Cl5  1  0.05946300  0.07209800  0.87636200  1
  Cl  Cl6  1  0.65517300  0.18702700  0.62407800  1
  Cl  Cl7  1  0.44476700  0.18399000  0.73896400  1
  Cl  Cl8  1  0.81277700  0.22646700  0.47593000  1
  Cl  Cl9  1  0.58824700  0.11987800  0.33529000  1
  Cl  Cl10  1  0.47742700  0.12169300  0.47143700  1
  Cl  Cl11  1  0.15495400  0.04033200  0.48621700  1
  Cl  Cl12  1  0.35603400  0.29302500  0.88431500  1
  Cl  Cl13  1  0.88615100  0.18399000  0.06040100  1
  Cl  Cl14  1  0.82391000  0.45828600  0.85724400  1
  Cl  Cl15  1  0.55450300  0.10571400  0.07264400  1
  Cl  Cl16  1  0.94768800  0.43341500  0.62473800  1
  Cl  Cl17  1  0.24359600  0.03823400  0.09343400  1
  Cl  Cl18  1  0.39399600  0.30369200  0.58807500  1
  Cl  Cl19  1  0.97717000  0.37447600  0.22401000  1
  Cl  Cl20  1  0.34503200  0.20232600  0.26299000  1
  Cl  Cl21  1  0.65986300  0.31487200  0.23806600  1
  Cl  Cl22  1  0.03585800  0.12350000  0.27562100  1
  Cl  Cl23  1  0.24383000  0.35665700  0.70734700  1
  Cl  Cl24  1  0.70614900  0.50231300  0.68977900  1
  Cl  Cl25  1  0.07986900  0.35697300  0.82500600  1
  Cl  Cl26  1  0.75677300  0.46591900  0.40868900  1
  Cl  Cl27  1  0.57524400  0.56680000  0.82100400  1
  Cl  Cl28  1  0.44763800  0.39092600  0.42624300  1
  Cl  Cl29  1  0.80443400  0.72038300  0.97050900  1
  Cl  Cl30  1  0.46905800  0.61423700  0.96195300  1
  Cl  Cl31  1  0.12327300  0.31816700  0.43687200  1
  Cl  Cl32  1  0.14471000  0.53071700  0.98108400  1
  Cl  Cl33  1  0.85529000  0.46928300  0.01891600  1
  Cl  Cl34  1  0.87672700  0.68183300  0.56312800  1
  Cl  Cl35  1  0.53094200  0.38576300  0.03804700  1
  Cl  Cl36  1  0.19556600  0.27961700  0.02949100  1
  Cl  Cl37  1  0.55236200  0.60907400  0.57375700  1
  Cl  Cl38  1  0.42475600  0.43320000  0.17899600  1
  Cl  Cl39  1  0.24322700  0.53408100  0.59131100  1
  Cl  Cl40  1  0.92013100  0.64302700  0.17499400  1
  Cl  Cl41  1  0.29385100  0.49768700  0.31022100  1
  Cl  Cl42  1  0.75617000  0.64334300  0.29265300  1
  Cl  Cl43  1  0.96414200  0.87650000  0.72437900  1
  Cl  Cl44  1  0.34013700  0.68512800  0.76193400  1
  Cl  Cl45  1  0.65496800  0.79767400  0.73701000  1
  Cl  Cl46  1  0.02283000  0.62552400  0.77599000  1
  Cl  Cl47  1  0.60600400  0.69630800  0.41192500  1
  Cl  Cl48  1  0.75640400  0.96176600  0.90656600  1
  Cl  Cl49  1  0.05231200  0.56658500  0.37526200  1
  Cl  Cl50  1  0.44549700  0.89428600  0.92735600  1
  Cl  Cl51  1  0.17609000  0.54171400  0.14275600  1
  Cl  Cl52  1  0.11384900  0.81601000  0.93959900  1
  Cl  Cl53  1  0.64396600  0.70697500  0.11568500  1
  Cl  Cl54  1  0.84504600  0.95966800  0.51378300  1
  Cl  Cl55  1  0.52257300  0.87830600  0.52856300  1
  Cl  Cl56  1  0.41175300  0.88012200  0.66471000  1
  Cl  Cl57  1  0.18722300  0.77353300  0.52407000  1
  Cl  Cl58  1  0.55523300  0.81601000  0.26103600  1
  Cl  Cl59  1  0.34482700  0.81297300  0.37592200  1
  Cl  Cl60  1  0.94053700  0.92790200  0.12363800  1
  Cl  Cl61  1  0.84355300  0.99150900  0.36392400  1
  Cl  Cl62  1  0.26248900  0.95396300  0.80627000  1
  Cl  Cl63  1  0.37469100  0.79449900  0.08188200  1
  Cl  Cl64  1  0.05552700  0.85106500  0.32787400  1
  Cl  Cl65  1  0.22762700  0.86012700  0.21255800  1
loop_
_geom_bond_atom_site_label_1
_geom_bond_atom_site_label_2
_geom_bond_distance
_geom_bond_site_symmetry_2
Cl0 La2 2.808007 1_555
Cl0 Sr15 2.921475 1_545
Cl0 Sr0 3.092977 1_555
Cl1 La2 2.982741 1_555
Cl1 La1 3.066394 1_655
Cl1 Sr13 3.077964 1_545
Cl1 Sr6 3.135900 1_655
Cl2 La3 2.812772 1_555
Cl2 Sr15 2.965284 1_545
Cl2 Sr0 3.209447 1_555
Cl3 La8 2.794362 1_545
Cl3 Sr2 2.915129 1_555
Cl3 Sr3 3.410074 1_555
Cl3 Sr16 3.457716 1_545
Cl4 La0 2.857197 1_555
Cl4 La1 2.879808 1_555
Cl4 Sr14 3.212162 1_545
Cl4 Sr6 3.646418 1_555
Cl5 La1 3.014209 1_555
Cl5 Sr0 3.078040 1_455
Cl5 Sr9 3.160156 1_445
Cl5 Sr1 3.193894 1_555
Cl6 La2 2.850427 1_555
Cl6 La0 2.884758 1_555
Cl6 Sr5 3.283933 1_555
Cl7 La1 3.073540 1_555
Cl7 Sr15 3.251641 1_545
Cl7 La0 3.256169 1_555
Cl8 La9 3.025216 1_545
Cl8 Sr6 3.078757 1_655
Cl8 Sr5 3.110359 1_555
Cl8 Sr3 3.227523 1_555
Cl9 La9 2.773601 1_545
Cl9 Sr2 2.973904 1_555
Cl9 Sr3 3.062590 1_555
Cl10 La0 3.025511 1_555
Cl10 La9 3.066938 1_545
Cl10 Sr4 3.070672 1_555
Cl10 Sr5 3.170876 1_555
Cl11 Sr4 2.916453 1_555
Cl11 La0 3.027093 1_555
Cl11 Sr6 3.110757 1_555
Cl11 Sr11 3.246252 1_445
Cl12 La1 2.832884 1_555
Cl12 La3 2.903916 1_555
Cl12 Sr1 3.170857 1_555
Cl13 Sr7 2.997483 1_555
Cl13 Sr8 3.042407 1_655
Cl13 Sr0 3.075374 1_554
Cl13 Sr16 3.077462 1_545
Cl14 La2 2.874421 1_555
Cl14 La3 2.881952 1_555
Cl14 Sr0 3.442532 1_555
Cl14 Sr9 3.616050 1_555
Cl15 Sr7 2.887582 1_555
Cl15 Sr16 3.077197 1_545
Cl15 Sr1 3.078480 1_554
Cl15 Sr2 3.106283 1_555
Cl16 La2 2.891869 1_555
Cl16 Sr6 3.131658 1_655
Cl16 Sr5 3.134529 1_555
Cl16 Sr14 3.197864 1_655
Cl17 Sr8 2.997888 1_555
Cl17 Sr1 3.025661 1_554
Cl17 Sr17 3.086964 1_545
Cl17 Sr2 3.139929 1_555
Cl18 La0 2.896470 1_555
Cl18 La4 2.906832 1_555
Cl18 Sr6 3.434075 1_555
Cl18 Sr5 3.493168 1_555
Cl19 Sr7 2.930213 1_555
Cl19 La7 2.936956 1_655
Cl19 Sr3 3.173923 1_555
Cl19 Sr8 3.190776 1_655
Cl20 La5 2.895919 1_555
Cl20 Sr4 3.025520 1_555
Cl20 Sr8 3.085308 1_555
Cl20 Sr2 3.170827 1_555
Cl21 La5 2.925966 1_555
Cl21 Sr7 2.989644 1_555
Cl21 Sr3 3.159588 1_555
Cl21 Sr2 3.168183 1_555
Cl22 Sr4 2.904521 1_555
Cl22 La8 3.036970 1_445
Cl22 Sr8 3.141046 1_555
Cl22 Sr3 3.188518 1_455
Cl23 La4 2.827350 1_555
Cl23 La1 2.887059 1_555
Cl23 Sr6 3.199625 1_555
Cl24 La4 2.908072 1_555
Cl24 La2 2.921201 1_555
Cl24 Sr5 3.209265 1_555
Cl25 La2 2.899703 1_455
Cl25 Sr10 3.073298 1_555
Cl25 La1 3.155903 1_555
Cl25 Sr0 3.274914 1_455
Cl26 La5 2.904833 1_555
Cl26 Sr11 3.113925 1_555
Cl26 Sr5 3.182786 1_555
Cl26 Sr3 3.200377 1_555
Cl27 La3 2.843835 1_555
Cl27 La4 2.883730 1_555
Cl27 Sr9 3.317333 1_555
Cl28 La5 2.923583 1_555
Cl28 Sr4 2.951339 1_555
Cl28 Sr12 3.181363 1_555
Cl28 Sr5 3.202599 1_555
Cl29 La3 2.881348 1_555
Cl29 Sr9 3.120565 1_555
Cl29 Sr16 3.150199 1_556
Cl29 Sr17 3.285434 1_656
Cl30 La6 2.931011 1_556
Cl30 La3 2.998988 1_555
Cl30 Sr10 3.039405 1_555
Cl30 Sr16 3.330390 1_556
Cl31 Sr6 3.062179 1_555
Cl31 Sr3 3.077693 1_455
Cl31 Sr4 3.077817 1_555
Cl31 Sr12 3.100634 1_555
Cl32 La6 2.914914 1_556
Cl32 Sr10 2.926169 1_555
Cl32 Sr0 3.204444 1_455
Cl32 Sr17 3.257090 1_556
Cl33 La3 2.914914 1_554
Cl33 Sr7 2.926169 1_555
Cl33 Sr17 3.204444 1_655
Cl33 Sr0 3.257090 1_554
Cl34 Sr11 3.062179 1_555
Cl34 Sr14 3.077693 1_655
Cl34 Sr13 3.077817 1_555
Cl34 Sr5 3.100634 1_555
Cl35 La3 2.931011 1_554
Cl35 La6 2.998988 1_555
Cl35 Sr7 3.039405 1_555
Cl35 Sr1 3.330390 1_554
Cl36 La6 2.881348 1_555
Cl36 Sr8 3.120565 1_555
Cl36 Sr1 3.150199 1_554
Cl36 Sr0 3.285434 1_454
Cl37 La4 2.923583 1_555
Cl37 Sr13 2.951339 1_555
Cl37 Sr5 3.181363 1_555
Cl37 Sr12 3.202599 1_555
Cl38 La6 2.843835 1_555
Cl38 La5 2.883730 1_555
Cl38 Sr8 3.317333 1_555
Cl39 La4 2.904833 1_555
Cl39 Sr6 3.113925 1_555
Cl39 Sr12 3.182786 1_555
Cl39 Sr14 3.200377 1_555
Cl40 La7 2.899703 1_655
Cl40 Sr7 3.073298 1_555
Cl40 La8 3.155903 1_555
Cl40 Sr17 3.274914 1_655
Cl41 La5 2.908072 1_555
Cl41 La7 2.921201 1_555
Cl41 Sr12 3.209265 1_555
Cl42 La5 2.827350 1_555
Cl42 La8 2.887059 1_555
Cl42 Sr11 3.199625 1_555
Cl43 Sr13 2.904521 1_555
Cl43 La1 3.036970 1_665
Cl43 Sr9 3.141046 1_555
Cl43 Sr14 3.188518 1_655
Cl44 La4 2.925966 1_555
Cl44 Sr10 2.989644 1_555
Cl44 Sr14 3.159588 1_555
Cl44 Sr15 3.168183 1_555
Cl45 La4 2.895919 1_555
Cl45 Sr13 3.025520 1_555
Cl45 Sr9 3.085308 1_555
Cl45 Sr15 3.170827 1_555
Cl46 Sr10 2.930213 1_555
Cl46 La2 2.936956 1_455
Cl46 Sr14 3.173923 1_555
Cl46 Sr9 3.190776 1_455
Cl47 La9 2.896470 1_555
Cl47 La5 2.906832 1_555
Cl47 Sr11 3.434075 1_555
Cl47 Sr12 3.493168 1_555
Cl48 Sr9 2.997888 1_555
Cl48 Sr16 3.025661 1_556
Cl48 Sr0 3.086964 1_565
Cl48 Sr15 3.139929 1_555
Cl49 La7 2.891869 1_555
Cl49 Sr11 3.131658 1_455
Cl49 Sr12 3.134529 1_555
Cl49 Sr3 3.197864 1_455
Cl50 Sr10 2.887582 1_555
Cl50 Sr1 3.077197 1_565
Cl50 Sr16 3.078480 1_556
Cl50 Sr15 3.106283 1_555
Cl51 La7 2.874421 1_555
Cl51 La6 2.881952 1_555
Cl51 Sr17 3.442532 1_555
Cl51 Sr8 3.616050 1_555
Cl52 Sr10 2.997483 1_555
Cl52 Sr9 3.042407 1_455
Cl52 Sr17 3.075374 1_556
Cl52 Sr1 3.077462 1_565
Cl53 La8 2.832884 1_555
Cl53 La6 2.903916 1_555
Cl53 Sr16 3.170857 1_555
Cl54 Sr13 2.916453 1_555
Cl54 La9 3.027093 1_555
Cl54 Sr11 3.110757 1_555
Cl54 Sr6 3.246252 1_665
Cl55 La9 3.025515 1_555
Cl55 La0 3.066946 1_565
Cl55 Sr13 3.070667 1_555
Cl55 Sr12 3.170868 1_555
Cl56 La0 2.773601 1_565
Cl56 Sr15 2.973904 1_555
Cl56 Sr14 3.062590 1_555
Cl57 La0 3.025216 1_565
Cl57 Sr11 3.078757 1_455
Cl57 Sr12 3.110359 1_555
Cl57 Sr14 3.227523 1_555
Cl58 La8 3.073540 1_555
Cl58 Sr2 3.251641 1_565
Cl58 La9 3.256169 1_555
Cl59 La7 2.850427 1_555
Cl59 La9 2.884758 1_555
Cl59 Sr12 3.283933 1_555
Cl60 La8 3.014209 1_555
Cl60 Sr17 3.078040 1_655
Cl60 Sr8 3.160156 1_665
Cl60 Sr16 3.193894 1_555
Cl61 La9 2.857197 1_555
Cl61 La8 2.879808 1_555
Cl61 Sr3 3.212162 1_565
Cl61 Sr11 3.646418 1_555
Cl62 La1 2.794362 1_565
Cl62 Sr15 2.915129 1_555
Cl62 Sr14 3.410074 1_555
Cl62 Sr1 3.457716 1_565
Cl63 La6 2.812772 1_555
Cl63 Sr2 2.965284 1_565
Cl63 Sr17 3.209447 1_555
Cl64 La7 2.982741 1_555
Cl64 La8 3.066394 1_455
Cl64 Sr4 3.077964 1_565
Cl64 Sr11 3.135900 1_455
Cl65 La7 2.808007 1_555
Cl65 Sr2 2.921475 1_565
Cl65 Sr17 3.092977 1_555
