# generated using pymatgen
data_MnP4
_symmetry_space_group_name_H-M   'P 1'
_cell_length_a   5.88903339
_cell_length_b   5.88903339
_cell_length_c   11.08526824
_cell_angle_alpha   88.73074475
_cell_angle_beta   88.73074475
_cell_angle_gamma   128.43294604
_symmetry_Int_Tables_number   1
_chemical_formula_structural   MnP4
_chemical_formula_sum   'Mn4 P16'
_cell_volume   300.75894073
_cell_formula_units_Z   4
loop_
 _symmetry_equiv_pos_site_id
 _symmetry_equiv_pos_as_xyz
  1  'x, y, z'
loop_
 _atom_site_type_symbol
 _atom_site_label
 _atom_site_symmetry_multiplicity
 _atom_site_fract_x
 _atom_site_fract_y
 _atom_site_fract_z
 _atom_site_occupancy
  Mn  Mn0  1  0.00000000  0.50000000  0.00000000  1
  Mn  Mn1  1  0.90596900  0.09403100  0.25000000  1
  Mn  Mn2  1  0.50000000  0.00000000  0.50000000  1
  Mn  Mn3  1  0.09403100  0.90596900  0.75000000  1
  P  P0  1  0.94783300  0.44278500  0.78952000  1
  P  P1  1  0.75738900  0.63939000  0.28303100  1
  P  P2  1  0.65973300  0.45458200  0.47448100  1
  P  P3  1  0.95650800  0.13780600  0.45452200  1
  P  P4  1  0.86219400  0.04349200  0.04547800  1
  P  P5  1  0.54541800  0.34026700  0.02551900  1
  P  P6  1  0.55721500  0.05216700  0.71048000  1
  P  P7  1  0.36061000  0.24261100  0.21696900  1
  P  P8  1  0.63939000  0.75738900  0.78303100  1
  P  P9  1  0.44278500  0.94783300  0.28952000  1
  P  P10  1  0.45458200  0.65973300  0.97448100  1
  P  P11  1  0.13780600  0.95650800  0.95452200  1
  P  P12  1  0.04349200  0.86219400  0.54547800  1
  P  P13  1  0.34026700  0.54541800  0.52551900  1
  P  P14  1  0.24261100  0.36061000  0.71696900  1
  P  P15  1  0.05216700  0.55721500  0.21048000  1
loop_
_geom_bond_atom_site_label_1
_geom_bond_atom_site_label_2
_geom_bond_distance
_geom_bond_site_symmetry_2
Mn0 P10 2.226093 1_554
Mn0 P5 2.226093 1_455
Mn0 P4 2.312940 1_455
Mn0 P11 2.312940 1_554
Mn0 P15 2.364266 1_555
Mn0 P0 2.364266 1_454
Mn1 P7 2.257890 1_655
Mn1 P1 2.257890 1_545
Mn1 P3 2.292499 1_555
Mn1 P4 2.292499 1_555
Mn1 P15 2.320413 1_655
Mn1 P9 2.320413 1_545
Mn2 P2 2.226093 1_555
Mn2 P13 2.226093 1_545
Mn2 P3 2.312940 1_555
Mn2 P12 2.312940 1_545
Mn2 P9 2.364266 1_545
Mn2 P6 2.364266 1_555
Mn3 P14 2.257890 1_565
Mn3 P8 2.257890 1_455
Mn3 P11 2.292499 1_555
Mn3 P12 2.292499 1_555
Mn3 P0 2.320413 1_455
Mn3 P6 2.320413 1_565
P0 P14 2.212314 1_655
P0 P6 2.225090 1_555
P1 P7 2.195445 1_555
P1 P15 2.212314 1_655
P1 P2 2.254940 1_555
P5 P7 2.254940 1_555
P6 P8 2.212314 1_545
P7 P9 2.212314 1_545
P10 P4 2.215226 1_566
P10 P8 2.254940 1_555
P10 P5 2.315841 1_556
P11 P4 2.213016 1_466
P11 P5 2.215226 1_566
P12 P3 2.213016 1_465
P12 P2 2.215226 1_455
P13 P3 2.215226 1_455
P13 P14 2.254940 1_555
P13 P2 2.315841 1_555
P14 P8 2.195445 1_555
P15 P9 2.225090 1_555
