# generated using pymatgen
data_FeOF
_symmetry_space_group_name_H-M   'P 1'
_cell_length_a   3.09707500
_cell_length_b   9.52444900
_cell_length_c   14.22877448
_cell_angle_alpha   89.38883582
_cell_angle_beta   90.00000000
_cell_angle_gamma   90.00000000
_symmetry_Int_Tables_number   1
_chemical_formula_structural   FeOF
_chemical_formula_sum   'Fe12 O12 F12'
_cell_volume   419.69555668
_cell_formula_units_Z   12
loop_
 _symmetry_equiv_pos_site_id
 _symmetry_equiv_pos_as_xyz
  1  'x, y, z'
loop_
 _atom_site_type_symbol
 _atom_site_label
 _atom_site_symmetry_multiplicity
 _atom_site_fract_x
 _atom_site_fract_y
 _atom_site_fract_z
 _atom_site_occupancy
  Fe  Fe0  1  0.00000000  0.99057900  0.99166900  1
  Fe  Fe1  1  0.00000000  0.50344500  0.99567300  1
  Fe  Fe2  1  0.50000000  0.24595200  0.80836700  1
  Fe  Fe3  1  0.50000000  0.74522700  0.84403700  1
  Fe  Fe4  1  0.00000000  0.00525100  0.65798100  1
  Fe  Fe5  1  0.00000000  0.48437500  0.66190600  1
  Fe  Fe6  1  0.50000000  0.77962800  0.50012100  1
  Fe  Fe7  1  0.50000000  0.24893900  0.51187500  1
  Fe  Fe8  1  0.00000000  0.99123600  0.32908800  1
  Fe  Fe9  1  0.00000000  0.49681800  0.32388100  1
  Fe  Fe10  1  0.50000000  0.24660600  0.18679900  1
  Fe  Fe11  1  0.50000000  0.75038300  0.18800300  1
  O  O0  1  0.50000000  0.90302200  0.93444400  1
  O  O1  1  0.00000000  0.64489200  0.90216000  1
  O  O2  1  0.00000000  0.35653000  0.77194800  1
  O  O3  1  0.50000000  0.08827800  0.73318700  1
  O  O4  1  0.50000000  0.40848400  0.59948700  1
  O  O5  1  0.50000000  0.89867800  0.60631300  1
  O  O6  1  0.00000000  0.15592100  0.56102000  1
  O  O7  1  0.00000000  0.85079300  0.43196200  1
  O  O8  1  0.50000000  0.40545700  0.26769300  1
  O  O9  1  0.50000000  0.90830500  0.26619800  1
  O  O10  1  0.00000000  0.15172300  0.23206500  1
  O  O11  1  0.00000000  0.64973100  0.22995900  1
  F  F0  1  0.50000000  0.39836900  0.94120800  1
  F  F1  1  0.00000000  0.15964400  0.90364500  1
  F  F2  1  0.00000000  0.83652300  0.77329500  1
  F  F3  1  0.50000000  0.60541000  0.73194900  1
  F  F4  1  0.00000000  0.65214500  0.56456200  1
  F  F5  1  0.00000000  0.35082500  0.43199500  1
  F  F6  1  0.50000000  0.10679800  0.39660500  1
  F  F7  1  0.50000000  0.59366600  0.39880100  1
  F  F8  1  0.00000000  0.35090000  0.09630900  1
  F  F9  1  0.00000000  0.84493800  0.09928700  1
  F  F10  1  0.50000000  0.09645000  0.06184100  1
  F  F11  1  0.50000000  0.59407700  0.06466600  1
loop_
_geom_bond_atom_site_label_1
_geom_bond_atom_site_label_2
_geom_bond_distance
_geom_bond_site_symmetry_2
Fe0 O0 1.941877 1_555
Fe0 O0 1.941877 1_455
Fe1 O1 1.883388 1_555
Fe2 O3 1.853064 1_555
Fe2 O2 1.940122 1_555
Fe2 O2 1.940122 1_655
Fe3 O0 1.988658 1_555
Fe3 O1 1.994570 1_655
Fe3 O1 1.994570 1_555
Fe4 O6 1.980031 1_555
Fe4 O5 1.996169 1_445
Fe4 O5 1.996169 1_545
Fe4 O3 2.046083 1_455
Fe4 O3 2.046083 1_555
Fe5 O4 1.929491 1_455
Fe5 O4 1.929491 1_555
Fe5 O2 1.973226 1_555
Fe6 O5 1.898766 1_555
Fe6 O7 1.945229 1_655
Fe6 O7 1.945229 1_555
Fe7 O6 1.912756 1_655
Fe7 O6 1.912756 1_555
Fe7 O4 1.975745 1_555
Fe8 O9 1.959004 1_555
Fe8 O9 1.959004 1_455
Fe8 O7 1.972344 1_555
Fe8 O10 2.048726 1_565
Fe9 O8 1.951710 1_555
Fe9 O8 1.951710 1_455
Fe9 O11 1.966104 1_555
Fe10 O10 1.901862 1_655
Fe10 O10 1.901862 1_555
Fe10 O8 1.910779 1_555
Fe11 O9 1.880425 1_555
Fe11 O11 1.913418 1_555
Fe11 O11 1.913418 1_655
F0 Fe1 2.004165 1_555
F0 Fe1 2.004165 1_655
F0 Fe2 2.395549 1_555
F1 Fe0 2.029427 1_545
F1 Fe2 2.210844 1_455
F1 Fe2 2.210844 1_555
F2 Fe3 2.036809 1_455
F2 Fe3 2.036809 1_555
F2 Fe4 2.284399 1_565
F3 Fe3 2.088613 1_555
F3 Fe5 2.178226 1_555
F3 Fe5 2.178226 1_655
F4 Fe5 2.103470 1_555
F4 Fe6 2.165467 1_555
F4 Fe6 2.165467 1_455
F5 Fe9 2.062601 1_555
F5 Fe7 2.146620 1_555
F5 Fe7 2.146620 1_455
F6 Fe8 2.134222 1_545
F6 Fe8 2.134222 1_645
F6 Fe7 2.137821 1_555
F7 Fe9 2.099097 1_555
F7 Fe9 2.099097 1_655
F7 Fe6 2.295638 1_555
F8 Fe1 2.029032 1_554
F8 Fe10 2.239471 1_555
F8 Fe10 2.239471 1_455
F9 Fe0 2.055156 1_554
F9 Fe11 2.185914 1_455
F9 Fe11 2.185914 1_555
F10 Fe0 2.105509 1_544
F10 Fe0 2.105509 1_644
F10 Fe10 2.293658 1_555
F11 Fe1 2.030985 1_654
F11 Fe1 2.030985 1_554
F11 Fe11 2.313405 1_555
