# generated using pymatgen
data_Li4Ti2Mn3O10
_symmetry_space_group_name_H-M   'P 1'
_cell_length_a   5.26261566
_cell_length_b   7.97895216
_cell_length_c   10.39361709
_cell_angle_alpha   106.21796437
_cell_angle_beta   101.93129426
_cell_angle_gamma   72.26295025
_symmetry_Int_Tables_number   1
_chemical_formula_structural   Li4Ti2Mn3O10
_chemical_formula_sum   'Li8 Ti4 Mn6 O20'
_cell_volume   395.59527174
_cell_formula_units_Z   2
loop_
 _symmetry_equiv_pos_site_id
 _symmetry_equiv_pos_as_xyz
  1  'x, y, z'
loop_
 _atom_site_type_symbol
 _atom_site_label
 _atom_site_symmetry_multiplicity
 _atom_site_fract_x
 _atom_site_fract_y
 _atom_site_fract_z
 _atom_site_occupancy
  Li  Li0  1  0.48052800  0.39777400  0.12051700  1
  Li  Li1  1  0.48054900  0.39763100  0.62047000  1
  Li  Li2  1  0.51951100  0.60218700  0.37948800  1
  Li  Li3  1  0.51943500  0.60234500  0.87952700  1
  Li  Li4  1  0.57517000  0.75094500  0.19096400  1
  Li  Li5  1  0.57517700  0.75085700  0.69101400  1
  Li  Li6  1  0.42491600  0.24905100  0.30906200  1
  Li  Li7  1  0.42484000  0.24914200  0.80898600  1
  Ti  Ti0  1  0.05153300  0.67578000  0.04308400  1
  Ti  Ti1  1  0.05165800  0.67565600  0.54306900  1
  Ti  Ti2  1  0.94850000  0.32423300  0.45692700  1
  Ti  Ti3  1  0.94835400  0.32435800  0.95696100  1
  Mn  Mn0  1  0.50007700  0.99989900  0.49991500  1
  Mn  Mn1  1  0.98564400  0.11781700  0.16197400  1
  Mn  Mn2  1  0.01425500  0.88217700  0.83802800  1
  Mn  Mn3  1  0.49992400  0.00013400  0.00001200  1
  Mn  Mn4  1  0.98566300  0.11786100  0.66196700  1
  Mn  Mn5  1  0.01433700  0.88216500  0.33801000  1
  O  O0  1  0.24648100  0.82577600  0.99916500  1
  O  O1  1  0.24662200  0.82566000  0.49917100  1
  O  O2  1  0.75347600  0.17424400  0.50082700  1
  O  O3  1  0.75340400  0.17428800  0.00081300  1
  O  O4  1  0.78055000  0.55263900  0.05422900  1
  O  O5  1  0.78069000  0.55256000  0.55423900  1
  O  O6  1  0.21945000  0.44736800  0.44580400  1
  O  O7  1  0.21931500  0.44743400  0.94578400  1
  O  O8  1  0.80060000  0.92648800  0.16788800  1
  O  O9  1  0.80064300  0.92643000  0.66784800  1
  O  O10  1  0.19939300  0.07348500  0.33209600  1
  O  O11  1  0.19930300  0.07360200  0.83214300  1
  O  O12  1  0.22870600  0.22432000  0.11488700  1
  O  O13  1  0.22897400  0.22413600  0.61479300  1
  O  O14  1  0.77129200  0.77565600  0.38511200  1
  O  O15  1  0.77101100  0.77586400  0.88519100  1
  O  O16  1  0.27090100  0.66329000  0.20611100  1
  O  O17  1  0.27088400  0.66325700  0.70614000  1
  O  O18  1  0.72913700  0.33671600  0.29388800  1
  O  O19  1  0.72909400  0.33677800  0.79388700  1
loop_
_geom_bond_atom_site_label_1
_geom_bond_atom_site_label_2
_geom_bond_distance
_geom_bond_site_symmetry_2
Li0 O18 2.079259 1_555
Li0 O7 2.093507 1_554
Li0 O16 2.103730 1_555
Li0 O12 2.171477 1_555
Li0 O3 2.174657 1_555
Li0 O4 2.570706 1_555
Li1 O19 2.079050 1_555
Li1 O6 2.092851 1_555
Li1 O17 2.104629 1_555
Li1 O13 2.170571 1_555
Li1 O2 2.174132 1_555
Li1 O5 2.571283 1_555
Li2 O16 2.079414 1_555
Li2 O5 2.093518 1_555
Li2 O18 2.103482 1_555
Li2 O14 2.171420 1_555
Li2 O1 2.174541 1_555
Li2 O6 2.570755 1_555
Li3 O17 2.078946 1_555
Li3 O4 2.093123 1_556
Li3 O19 2.104198 1_555
Li3 O15 2.170769 1_555
Li3 O0 2.174344 1_555
Li3 O7 2.571229 1_555
Li4 O16 1.981423 1_555
Li4 O4 2.007128 1_555
Li4 O14 2.053450 1_555
Li4 O8 2.178192 1_555
Li4 O0 2.435645 1_554
Li5 O17 1.981193 1_555
Li5 O5 2.007657 1_555
Li5 O15 2.053150 1_555
Li5 O9 2.178914 1_555
Li5 O1 2.435597 1_555
Li6 O18 1.981334 1_555
Li6 O6 2.007410 1_555
Li6 O12 2.053837 1_555
Li6 O10 2.178544 1_555
Li6 O2 2.435017 1_555
Li7 O19 1.981083 1_555
Li7 O7 2.007812 1_555
Li7 O13 2.053347 1_555
Li7 O11 2.178940 1_555
Li7 O3 2.435601 1_556
Mn0 O14 2.148935 1_555
Mn0 O13 2.148962 1_565
Mn0 O10 2.180782 1_565
Mn0 O9 2.181091 1_555
Mn0 O2 2.198012 1_565
Mn0 O1 2.198078 1_555
Mn1 O3 1.934455 1_555
Mn1 O12 1.936829 1_655
Mn1 O10 1.949735 1_655
Mn1 O8 2.065329 1_545
Mn1 O18 2.177999 1_555
Mn1 O0 2.643190 1_644
Mn2 O0 1.934070 1_555
Mn2 O15 1.936967 1_455
Mn2 O9 1.949837 1_455
Mn2 O11 2.065926 1_565
Mn2 O17 2.178253 1_555
Mn2 O3 2.643398 1_466
Mn3 O15 2.148770 1_544
Mn3 O12 2.149072 1_555
Mn3 O11 2.180745 1_554
Mn3 O8 2.181322 1_545
Mn3 O3 2.197453 1_555
Mn3 O0 2.198483 1_544
Mn4 O2 1.933976 1_555
Mn4 O13 1.937109 1_655
Mn4 O11 1.949864 1_655
Mn4 O9 2.065851 1_545
Mn4 O19 2.178260 1_555
Mn4 O1 2.644064 1_645
Mn5 O1 1.934622 1_555
Mn5 O14 1.936867 1_455
Mn5 O8 1.949696 1_455
Mn5 O10 2.065310 1_565
Mn5 O16 2.177984 1_555
Mn5 O2 2.643445 1_465
O0 Ti0 1.984995 1_556
O1 Ti1 1.985000 1_555
O2 Ti2 1.985148 1_555
O3 Ti3 1.985138 1_554
O4 Ti3 1.865490 1_554
O4 Ti0 1.999527 1_655
O5 Ti2 1.865917 1_555
O5 Ti1 1.999287 1_655
O6 Ti1 1.865499 1_555
O6 Ti2 1.999262 1_455
O7 Ti0 1.865932 1_556
O7 Ti3 1.999164 1_455
O8 Ti0 2.253304 1_655
O9 Ti1 2.253664 1_655
O10 Ti2 2.253513 1_455
O11 Ti3 2.253616 1_455
O12 Ti3 2.126294 1_454
O13 Ti2 2.126285 1_455
O14 Ti1 2.126446 1_655
O15 Ti0 2.126557 1_656
O16 Ti0 1.851814 1_555
O17 Ti1 1.851782 1_555
O18 Ti2 1.851897 1_555
O19 Ti3 1.851902 1_555
