# generated using pymatgen
data_CuO2
_symmetry_space_group_name_H-M   'P 1'
_cell_length_a   4.84258200
_cell_length_b   12.89190400
_cell_length_c   14.13408600
_cell_angle_alpha   90.00000000
_cell_angle_beta   90.00000000
_cell_angle_gamma   90.00000000
_symmetry_Int_Tables_number   1
_chemical_formula_structural   CuO2
_chemical_formula_sum   'Cu8 O16'
_cell_volume   882.39243428
_cell_formula_units_Z   8
loop_
 _symmetry_equiv_pos_site_id
 _symmetry_equiv_pos_as_xyz
  1  'x, y, z'
loop_
 _atom_site_type_symbol
 _atom_site_label
 _atom_site_symmetry_multiplicity
 _atom_site_fract_x
 _atom_site_fract_y
 _atom_site_fract_z
 _atom_site_occupancy
  Cu  Cu0_0  1  0.00000000  0.25000000  0.00000000  1
  Cu  Cu0_1  1  0.00000000  0.25000000  0.50000000  1
  Cu  Cu0_2  1  0.00000000  0.75000000  0.00000000  1
  Cu  Cu0_3  1  0.00000000  0.75000000  0.50000000  1
  Cu  Cu0_4  1  0.50000000  0.25000000  0.00000000  1
  Cu  Cu0_5  1  0.50000000  0.25000000  0.50000000  1
  Cu  Cu0_6  1  0.50000000  0.75000000  0.00000000  1
  Cu  Cu0_7  1  0.50000000  0.75000000  0.50000000  1
  O  O0_0  1  0.00000000  0.25000000  0.20621750  1
  O  O0_1  1  0.00000000  0.25000000  0.70621750  1
  O  O0_2  1  0.00000000  0.75000000  0.20621750  1
  O  O0_3  1  0.00000000  0.75000000  0.70621750  1
  O  O0_4  1  0.50000000  0.25000000  0.20621750  1
  O  O0_5  1  0.50000000  0.25000000  0.70621750  1
  O  O0_6  1  0.50000000  0.75000000  0.20621750  1
  O  O0_7  1  0.50000000  0.75000000  0.70621750  1
  O  O1_0  1  0.00000000  0.25000000  0.29378250  1
  O  O1_1  1  0.00000000  0.25000000  0.79378250  1
  O  O1_2  1  0.00000000  0.75000000  0.29378250  1
  O  O1_3  1  0.00000000  0.75000000  0.79378250  1
  O  O1_4  1  0.50000000  0.25000000  0.29378250  1
  O  O1_5  1  0.50000000  0.25000000  0.79378250  1
  O  O1_6  1  0.50000000  0.75000000  0.29378250  1
  O  O1_7  1  0.50000000  0.75000000  0.79378250  1
loop_
_geom_bond_atom_site_label_1
_geom_bond_atom_site_label_2
_geom_bond_distance
_geom_bond_site_symmetry_2
Cu0_0 Cu0_4 2.421291 1_555
Cu0_0 Cu0_4 2.421291 1_455
Cu0_1 Cu0_5 2.421291 1_455
Cu0_1 Cu0_5 2.421291 1_555
Cu0_2 Cu0_6 2.421291 1_455
Cu0_2 Cu0_6 2.421291 1_555
Cu0_3 Cu0_7 2.421291 1_555
Cu0_3 Cu0_7 2.421291 1_455
O0_0 O1_0 1.237651 1_555
O0_1 O1_1 1.237651 1_555
O0_2 O1_2 1.237651 1_555
O0_3 O1_3 1.237651 1_555
O0_4 O1_4 1.237651 1_555
O0_5 O1_5 1.237651 1_555
O0_6 O1_6 1.237651 1_555
O0_7 O1_7 1.237651 1_555
