# generated using pymatgen
data_LiVSiO4
_symmetry_space_group_name_H-M   'P 1'
_cell_length_a   10.66757200
_cell_length_b   5.60561400
_cell_length_c   10.42850213
_cell_angle_alpha   89.45537296
_cell_angle_beta   90.00000000
_cell_angle_gamma   90.00000000
_symmetry_Int_Tables_number   1
_chemical_formula_structural   LiVSiO4
_chemical_formula_sum   'Li8 V8 Si8 O32'
_cell_volume   623.57843177
_cell_formula_units_Z   8
loop_
 _symmetry_equiv_pos_site_id
 _symmetry_equiv_pos_as_xyz
  1  'x, y, z'
loop_
 _atom_site_type_symbol
 _atom_site_label
 _atom_site_symmetry_multiplicity
 _atom_site_fract_x
 _atom_site_fract_y
 _atom_site_fract_z
 _atom_site_occupancy
  Li  Li0  1  0.15844200  0.89256700  0.82584800  1
  Li  Li1  1  0.34155800  0.89256700  0.32584800  1
  Li  Li2  1  0.61941300  0.62677500  0.58834200  1
  Li  Li3  1  0.88058700  0.62677500  0.08834200  1
  Li  Li4  1  0.11941300  0.37322500  0.91165800  1
  Li  Li5  1  0.38058700  0.37322500  0.41165800  1
  Li  Li6  1  0.65844200  0.10743300  0.67415200  1
  Li  Li7  1  0.84155800  0.10743300  0.17415200  1
  V  V0  1  0.87225700  0.84471800  0.51660200  1
  V  V1  1  0.62774300  0.84471800  0.01660200  1
  V  V2  1  0.40799600  0.66192400  0.76984700  1
  V  V3  1  0.09200400  0.66192400  0.26984700  1
  V  V4  1  0.90799600  0.33807600  0.73015300  1
  V  V5  1  0.59200400  0.33807600  0.23015300  1
  V  V6  1  0.37225700  0.15528200  0.98339800  1
  V  V7  1  0.12774300  0.15528200  0.48339800  1
  Si  Si0  1  0.90043100  0.88253800  0.83698500  1
  Si  Si1  1  0.59956900  0.88253800  0.33698500  1
  Si  Si2  1  0.14524600  0.60993700  0.57983100  1
  Si  Si3  1  0.35475400  0.60993700  0.07983100  1
  Si  Si4  1  0.64524600  0.39006300  0.92016900  1
  Si  Si5  1  0.85475400  0.39006300  0.42016900  1
  Si  Si6  1  0.40043100  0.11746200  0.66301500  1
  Si  Si7  1  0.09956900  0.11746200  0.16301500  1
  O  O0  1  0.80390200  0.88420200  0.95894300  1
  O  O1  1  0.50049700  0.88752600  0.65474600  1
  O  O2  1  0.69609800  0.88420200  0.45894300  1
  O  O3  1  0.99950300  0.88752600  0.15474600  1
  O  O4  1  0.83048800  0.95209100  0.69639600  1
  O  O5  1  0.06215700  0.85395900  0.57086900  1
  O  O6  1  0.66951200  0.95209100  0.19639600  1
  O  O7  1  0.43784300  0.85395900  0.07086900  1
  O  O8  1  0.24705700  0.64666400  0.69124700  1
  O  O9  1  0.97987100  0.63188700  0.83171300  1
  O  O10  1  0.25294300  0.64666400  0.19124700  1
  O  O11  1  0.52012900  0.63188700  0.33171300  1
  O  O12  1  0.56062600  0.62859300  0.88187600  1
  O  O13  1  0.30595900  0.52489500  0.93536500  1
  O  O14  1  0.93937400  0.62859300  0.38187600  1
  O  O15  1  0.19404100  0.52489500  0.43536500  1
  O  O16  1  0.80595900  0.47510500  0.56463500  1
  O  O17  1  0.06062600  0.37140700  0.61812400  1
  O  O18  1  0.69404100  0.47510500  0.06463500  1
  O  O19  1  0.43937400  0.37140700  0.11812400  1
  O  O20  1  0.47987100  0.36811300  0.66828700  1
  O  O21  1  0.74705700  0.35333600  0.80875300  1
  O  O22  1  0.02012900  0.36811300  0.16828700  1
  O  O23  1  0.75294300  0.35333600  0.30875300  1
  O  O24  1  0.56215700  0.14604100  0.92913100  1
  O  O25  1  0.33048800  0.04790900  0.80360400  1
  O  O26  1  0.93784300  0.14604100  0.42913100  1
  O  O27  1  0.16951200  0.04790900  0.30360400  1
  O  O28  1  0.00049700  0.11247400  0.84525400  1
  O  O29  1  0.30390200  0.11579800  0.54105700  1
  O  O30  1  0.49950300  0.11247400  0.34525400  1
  O  O31  1  0.19609800  0.11579800  0.04105700  1
loop_
_geom_bond_atom_site_label_1
_geom_bond_atom_site_label_2
_geom_bond_distance
_geom_bond_site_symmetry_2
Li0 O25 2.043677 1_565
Li0 O28 2.098603 1_565
Li0 O8 2.191076 1_555
Li0 O9 2.401265 1_455
Li0 O31 2.611041 1_566
Li1 O27 2.043677 1_565
Li1 O30 2.098603 1_565
Li1 O10 2.191076 1_555
Li1 O11 2.401265 1_555
Li1 O29 2.611041 1_565
Li2 O1 2.060212 1_555
Li2 O2 2.129674 1_555
Li2 O16 2.178999 1_555
Li2 O20 2.233903 1_555
Li3 O3 2.060212 1_555
Li3 O0 2.129674 1_554
Li3 O18 2.178999 1_555
Li3 O22 2.233903 1_655
Li4 O28 2.060212 1_555
Li4 O31 2.129674 1_556
Li4 O13 2.178999 1_555
Li4 O9 2.233903 1_455
Li5 O30 2.060212 1_555
Li5 O29 2.129674 1_555
Li5 O15 2.178999 1_555
Li5 O11 2.233903 1_555
Li6 O4 2.043677 1_545
Li6 O1 2.098603 1_545
Li6 O21 2.191076 1_555
Li6 O20 2.401265 1_555
Li6 O2 2.611041 1_545
Li7 O6 2.043677 1_545
Li7 O3 2.098603 1_545
Li7 O23 2.191076 1_555
Li7 O22 2.401265 1_655
Li7 O0 2.611041 1_544
O0 Si0 1.636530 1_555
O0 V1 1.984784 1_556
O1 Si6 1.676416 1_565
O1 V2 1.996232 1_555
O2 Si1 1.636530 1_555
O2 V0 1.984784 1_555
O3 Si7 1.676416 1_665
O3 V3 1.996232 1_655
O4 Si0 1.687421 1_555
O4 V0 2.024308 1_555
O4 V4 2.345968 1_565
O5 Si2 1.631890 1_555
O5 V7 2.036016 1_565
O5 V0 2.104106 1_455
O6 Si1 1.687421 1_555
O6 V1 2.024308 1_555
O6 V5 2.345968 1_565
O7 Si3 1.631890 1_555
O7 V6 2.036016 1_564
O7 V1 2.104106 1_555
O8 Si2 1.605151 1_555
O8 V2 1.904738 1_555
O9 Si0 1.642195 1_555
O9 V4 2.110770 1_555
O10 Si3 1.605151 1_555
O10 V3 1.904738 1_555
O11 Si1 1.642195 1_555
O11 V5 2.110770 1_555
O12 Si4 1.658923 1_555
O12 V1 1.996683 1_556
O12 V2 2.011636 1_555
O13 Si3 1.667810 1_556
O13 V2 2.174641 1_555
O13 V6 2.241466 1_555
O14 Si5 1.658923 1_555
O14 V0 1.996683 1_555
O14 V3 2.011636 1_655
O15 Si2 1.667810 1_555
O15 V3 2.174641 1_555
O15 V7 2.241466 1_555
O16 Si5 1.667810 1_555
O16 V4 2.174641 1_555
O16 V0 2.241466 1_555
O17 Si2 1.658923 1_555
O17 V7 1.996683 1_555
O17 V4 2.011636 1_455
O18 Si4 1.667810 1_554
O18 V5 2.174641 1_555
O18 V1 2.241466 1_555
O19 Si3 1.658923 1_555
O19 V6 1.996683 1_554
O19 V5 2.011636 1_555
O20 Si6 1.642195 1_555
O20 V2 2.110770 1_555
O21 Si4 1.605151 1_555
O21 V4 1.904738 1_555
O22 Si7 1.642195 1_555
O22 V3 2.110770 1_555
O23 Si5 1.605151 1_555
O23 V5 1.904738 1_555
O24 Si4 1.631890 1_555
O24 V1 2.036016 1_546
O24 V6 2.104106 1_555
O25 Si6 1.687421 1_555
O25 V6 2.024308 1_555
O25 V2 2.345968 1_545
O26 Si5 1.631890 1_555
O26 V0 2.036016 1_545
O26 V7 2.104106 1_655
O27 Si7 1.687421 1_555
O27 V7 2.024308 1_555
O27 V3 2.345968 1_545
O28 Si0 1.676416 1_445
O28 V4 1.996232 1_455
O29 Si6 1.636530 1_555
O29 V7 1.984784 1_555
O30 Si1 1.676416 1_545
O30 V5 1.996232 1_555
O31 Si7 1.636530 1_555
O31 V6 1.984784 1_554
