# generated using pymatgen
data_LiCrPO4
_symmetry_space_group_name_H-M   'P 1'
_cell_length_a   10.17492129
_cell_length_b   10.17492129
_cell_length_c   16.85277106
_cell_angle_alpha   81.44243916
_cell_angle_beta   81.44243916
_cell_angle_gamma   59.51521828
_symmetry_Int_Tables_number   1
_chemical_formula_structural   LiCrPO4
_chemical_formula_sum   'Li16 Cr16 P16 O64'
_cell_volume   1481.31148814
_cell_formula_units_Z   16
loop_
 _symmetry_equiv_pos_site_id
 _symmetry_equiv_pos_as_xyz
  1  'x, y, z'
loop_
 _atom_site_type_symbol
 _atom_site_label
 _atom_site_symmetry_multiplicity
 _atom_site_fract_x
 _atom_site_fract_y
 _atom_site_fract_z
 _atom_site_occupancy
  Li  Li0  1  0.81528600  0.19827000  0.00347000  1
  Li  Li1  1  0.19827000  0.81528600  0.50347000  1
  Li  Li2  1  0.57478500  0.69972800  0.25219300  1
  Li  Li3  1  0.08175500  0.25232300  0.25149800  1
  Li  Li4  1  0.31321800  0.14257800  0.00326300  1
  Li  Li5  1  0.69972800  0.57478500  0.75219300  1
  Li  Li6  1  0.81281300  0.70115700  0.00379700  1
  Li  Li7  1  0.25232300  0.08175500  0.75149800  1
  Li  Li8  1  0.14257800  0.31321800  0.50326300  1
  Li  Li9  1  0.70115700  0.81281300  0.50379700  1
  Li  Li10  1  0.57569300  0.19814500  0.25194200  1
  Li  Li11  1  0.08046200  0.75512200  0.25357100  1
  Li  Li12  1  0.31337600  0.64120500  0.00456900  1
  Li  Li13  1  0.19814500  0.57569300  0.75194200  1
  Li  Li14  1  0.75512200  0.08046200  0.75357100  1
  Li  Li15  1  0.64120500  0.31337600  0.50456900  1
  Cr  Cr0  1  0.26606100  0.88946800  0.12811400  1
  Cr  Cr1  1  0.76617900  0.43937100  0.13041200  1
  Cr  Cr2  1  0.88946800  0.26606100  0.62811400  1
  Cr  Cr3  1  0.43937100  0.76617900  0.63041200  1
  Cr  Cr4  1  0.33931200  0.99595900  0.38221100  1
  Cr  Cr5  1  0.88376400  0.50938100  0.37740200  1
  Cr  Cr6  1  0.99595900  0.33931200  0.88221100  1
  Cr  Cr7  1  0.50938100  0.88376400  0.87740200  1
  Cr  Cr8  1  0.26519000  0.38800800  0.12839700  1
  Cr  Cr9  1  0.77112500  0.93583700  0.12996400  1
  Cr  Cr10  1  0.38800800  0.26519000  0.62839700  1
  Cr  Cr11  1  0.93583700  0.77112500  0.62996400  1
  Cr  Cr12  1  0.83861500  0.00213900  0.38270500  1
  Cr  Cr13  1  0.38392700  0.50191900  0.37901700  1
  Cr  Cr14  1  0.00213900  0.83861500  0.88270500  1
  Cr  Cr15  1  0.50191900  0.38392700  0.87901700  1
  P  P0  1  0.91872800  0.09861400  0.19079000  1
  P  P1  1  0.09861400  0.91872800  0.69079000  1
  P  P2  1  0.98484600  0.17018600  0.43753500  1
  P  P3  1  0.53627800  0.66657500  0.43902800  1
  P  P4  1  0.17018600  0.98484600  0.93753500  1
  P  P5  1  0.66657500  0.53627800  0.93902800  1
  P  P6  1  0.42038700  0.03968600  0.18997200  1
  P  P7  1  0.91549500  0.60002900  0.19174100  1
  P  P8  1  0.03968600  0.42038700  0.68997200  1
  P  P9  1  0.60002900  0.91549500  0.69174100  1
  P  P10  1  0.48511600  0.16665600  0.43779300  1
  P  P11  1  0.03871200  0.66725500  0.43967700  1
  P  P12  1  0.16665600  0.48511600  0.93779300  1
  P  P13  1  0.66725500  0.03871200  0.93967700  1
  P  P14  1  0.41618300  0.53987000  0.19044800  1
  P  P15  1  0.53987000  0.41618300  0.69044800  1
  O  O0  1  0.34097400  0.65311700  0.11703600  1
  O  O1  1  0.07678600  0.95077800  0.20352300  1
  O  O2  1  0.56934200  0.53130900  0.20361800  1
  O  O3  1  0.75266900  0.41950900  0.00960500  1
  O  O4  1  0.65311700  0.34097400  0.61703600  1
  O  O5  1  0.55316100  0.50717500  0.43604700  1
  O  O6  1  0.24253700  0.98956200  0.01157300  1
  O  O7  1  0.93878400  0.24138100  0.18488500  1
  O  O8  1  0.95077800  0.07678600  0.70352300  1
  O  O9  1  0.12311100  0.00697500  0.43070600  1
  O  O10  1  0.53130900  0.56934200  0.70361800  1
  O  O11  1  0.41950900  0.75266900  0.50960500  1
  O  O12  1  0.50717500  0.55316100  0.93604700  1
  O  O13  1  0.47059300  0.76627400  0.35947800  1
  O  O14  1  0.99070400  0.27647600  0.36181400  1
  O  O15  1  0.45060100  0.87815600  0.17795200  1
  O  O16  1  0.98956200  0.24253700  0.51157300  1
  O  O17  1  0.24138100  0.93878400  0.68488500  1
  O  O18  1  0.00697500  0.12311100  0.93070600  1
  O  O19  1  0.69234500  0.65171200  0.45018600  1
  O  O20  1  0.85056500  0.60228200  0.11381100  1
  O  O21  1  0.30838700  0.10391100  0.26580600  1
  O  O22  1  0.80159100  0.59901300  0.26445000  1
  O  O23  1  0.76627400  0.47059300  0.85947800  1
  O  O24  1  0.27647600  0.99070400  0.86181400  1
  O  O25  1  0.87815600  0.45060100  0.67795200  1
  O  O26  1  0.34542000  0.15130000  0.11577000  1
  O  O27  1  0.07336700  0.45132300  0.20338600  1
  O  O28  1  0.33684000  0.15426900  0.44778200  1
  O  O29  1  0.65171200  0.69234500  0.95018600  1
  O  O30  1  0.60228200  0.85056500  0.61381100  1
  O  O31  1  0.10391100  0.30838700  0.76580600  1
  O  O32  1  0.59901300  0.80159100  0.76445000  1
  O  O33  1  0.57443300  0.02855900  0.20231400  1
  O  O34  1  0.74763800  0.92344700  0.01175000  1
  O  O35  1  0.15130000  0.34542000  0.61577000  1
  O  O36  1  0.05480300  0.50886700  0.43409800  1
  O  O37  1  0.24596500  0.48480100  0.01032500  1
  O  O38  1  0.93867400  0.74052800  0.18786500  1
  O  O39  1  0.45132300  0.07336700  0.70338600  1
  O  O40  1  0.15426900  0.33683900  0.94778200  1
  O  O41  1  0.62790100  0.00575700  0.43300100  1
  O  O42  1  0.02855900  0.57443300  0.70231400  1
  O  O43  1  0.92344700  0.74763800  0.51175000  1
  O  O44  1  0.50886700  0.05480300  0.93409800  1
  O  O45  1  0.48901400  0.27002300  0.36009900  1
  O  O46  1  0.97166400  0.77262100  0.36187500  1
  O  O47  1  0.48480100  0.24596500  0.51032500  1
  O  O48  1  0.45082200  0.37771400  0.17688200  1
  O  O49  1  0.74052800  0.93867400  0.68786500  1
  O  O50  1  0.00575700  0.62790100  0.93300100  1
  O  O51  1  0.19563300  0.65011800  0.45079500  1
  O  O52  1  0.85639100  0.09664500  0.11265800  1
  O  O53  1  0.80590600  0.09916500  0.26363500  1
  O  O54  1  0.30213900  0.59888700  0.26658400  1
  O  O55  1  0.27002300  0.48901400  0.86009900  1
  O  O56  1  0.77262100  0.97166400  0.86187500  1
  O  O57  1  0.37771400  0.45082200  0.67688200  1
  O  O58  1  0.65011800  0.19563300  0.95079500  1
  O  O59  1  0.83369400  0.16298400  0.44669600  1
  O  O60  1  0.09664500  0.85639100  0.61265800  1
  O  O61  1  0.09916500  0.80590600  0.76363500  1
  O  O62  1  0.59888700  0.30213900  0.76658400  1
  O  O63  1  0.16298400  0.83369400  0.94669600  1
loop_
_geom_bond_atom_site_label_1
_geom_bond_atom_site_label_2
_geom_bond_distance
_geom_bond_site_symmetry_2
Li0 O52 1.963202 1_555
Li0 O18 1.986615 1_654
Li0 O3 2.019528 1_555
Li0 O58 2.027293 1_554
Li1 O60 1.963202 1_555
Li1 O9 1.986615 1_565
Li1 O11 2.019528 1_555
Li1 O51 2.027293 1_555
Li2 O13 1.979138 1_555
Li2 O15 1.981156 1_555
Li2 O22 2.024317 1_555
Li2 O2 2.033983 1_555
Li3 O14 1.940986 1_455
Li3 O7 2.019010 1_455
Li3 O27 2.030081 1_555
Li3 O21 2.044497 1_555
Li4 O44 1.983579 1_554
Li4 O26 1.993671 1_555
Li4 O6 2.000511 1_545
Li4 O40 2.013293 1_554
Li5 O23 1.979138 1_555
Li5 O25 1.981156 1_555
Li5 O32 2.024317 1_555
Li5 O10 2.033983 1_555
Li6 O20 1.965169 1_555
Li6 O50 1.978910 1_654
Li6 O34 2.028628 1_555
Li6 O29 2.031075 1_554
Li7 O24 1.940986 1_545
Li7 O17 2.019010 1_545
Li7 O39 2.030081 1_555
Li7 O31 2.044497 1_555
Li8 O36 1.983579 1_555
Li8 O35 1.993671 1_555
Li8 O16 2.000511 1_455
Li8 O28 2.013298 1_555
Li9 O30 1.965169 1_555
Li9 O41 1.978910 1_565
Li9 O43 2.028628 1_555
Li9 O19 2.031075 1_555
Li10 O45 1.974582 1_555
Li10 O48 1.996963 1_555
Li10 O33 2.032793 1_555
Li10 O53 2.055408 1_555
Li11 O46 1.970791 1_455
Li11 O54 2.016955 1_555
Li11 O38 2.017742 1_455
Li11 O1 2.027350 1_555
Li12 O12 1.965268 1_554
Li12 O0 1.986783 1_555
Li12 O63 1.990884 1_554
Li12 O37 2.013498 1_555
Li13 O55 1.974582 1_555
Li13 O57 1.996963 1_555
Li13 O42 2.032793 1_555
Li13 O61 2.055408 1_555
Li14 O56 1.970791 1_545
Li14 O62 2.016955 1_555
Li14 O49 2.017742 1_545
Li14 O8 2.027350 1_555
Li15 O5 1.965268 1_555
Li15 O4 1.986783 1_555
Li15 O59 1.990884 1_555
Li15 O47 2.013498 1_555
Cr0 O1 2.000435 1_555
Cr0 O6 2.061372 1_555
Cr0 O15 2.113215 1_555
Cr0 O0 2.151879 1_555
Cr1 O2 2.028683 1_555
Cr1 O7 2.079710 1_555
Cr1 O3 2.106819 1_555
Cr1 O20 2.190369 1_555
Cr2 O8 2.000435 1_555
Cr2 O16 2.061372 1_555
Cr2 O25 2.113215 1_555
Cr2 O4 2.151879 1_555
Cr3 O10 2.028683 1_555
Cr3 O17 2.079710 1_555
Cr3 O11 2.106819 1_555
Cr3 O30 2.190369 1_555
Cr4 O28 2.072869 1_565
Cr4 O13 2.083158 1_555
Cr4 O21 2.084635 1_565
Cr4 O9 2.182150 1_565
Cr5 O22 2.082705 1_555
Cr5 O19 2.085932 1_555
Cr5 O14 2.086340 1_555
Cr5 O36 2.103759 1_655
Cr6 O40 2.072865 1_655
Cr6 O23 2.083158 1_555
Cr6 O31 2.084635 1_655
Cr6 O18 2.182150 1_655
Cr7 O32 2.082705 1_555
Cr7 O29 2.085932 1_555
Cr7 O24 2.086340 1_555
Cr7 O44 2.103759 1_565
Cr8 O27 2.013469 1_555
Cr8 O37 2.074808 1_555
Cr8 O48 2.116430 1_555
Cr8 O26 2.149057 1_555
Cr9 O33 2.020510 1_565
Cr9 O38 2.070813 1_555
Cr9 O34 2.070990 1_555
Cr9 O52 2.176669 1_565
Cr10 O39 2.013469 1_555
Cr10 O47 2.074808 1_555
Cr10 O57 2.116430 1_555
Cr10 O35 2.149057 1_555
Cr11 O42 2.020510 1_655
Cr11 O49 2.070813 1_555
Cr11 O43 2.070990 1_555
Cr11 O60 2.176669 1_655
Cr12 O59 2.066389 1_555
Cr12 O46 2.074731 1_545
Cr12 O53 2.094729 1_555
Cr12 O41 2.169083 1_555
Cr13 O51 2.080765 1_555
Cr13 O54 2.082335 1_555
Cr13 O45 2.091630 1_555
Cr13 O5 2.119658 1_555
Cr14 O63 2.066389 1_555
Cr14 O56 2.074731 1_455
Cr14 O61 2.094729 1_555
Cr14 O50 2.169083 1_555
Cr15 O58 2.080765 1_555
Cr15 O62 2.082335 1_555
Cr15 O55 2.091630 1_555
Cr15 O12 2.119658 1_555
O0 P14 1.551396 1_555
O1 P0 1.564375 1_465
O2 P14 1.563603 1_555
O3 P5 1.557955 1_554
O4 P15 1.551396 1_555
O5 P3 1.549688 1_555
O6 P4 1.558248 1_554
O7 P0 1.553520 1_555
O8 P1 1.564375 1_645
O9 P2 1.545473 1_455
O10 P15 1.563603 1_555
O11 P3 1.557955 1_555
O12 P5 1.549688 1_555
O13 P3 1.564314 1_555
O14 P2 1.560024 1_555
O15 P6 1.550713 1_565
O16 P2 1.558248 1_555
O17 P1 1.553520 1_555
O18 P4 1.545473 1_545
O19 P3 1.554549 1_555
O20 P7 1.547819 1_555
O21 P6 1.555168 1_555
O22 P7 1.559015 1_555
O23 P5 1.564314 1_555
O24 P4 1.560024 1_555
O25 P8 1.550713 1_655
O26 P6 1.554877 1_555
O27 P7 1.564490 1_455
O28 P10 1.559302 1_555
O29 P5 1.554549 1_555
O30 P9 1.547819 1_555
O31 P8 1.555168 1_555
O32 P9 1.559015 1_555
O33 P6 1.556537 1_555
O34 P13 1.555058 1_564
O35 P8 1.554877 1_555
O36 P11 1.551017 1_555
O37 P12 1.560495 1_554
O38 P7 1.553466 1_555
O39 P9 1.564490 1_545
O40 P12 1.559312 1_555
O41 P10 1.545517 1_555
O42 P8 1.556537 1_555
O43 P11 1.555058 1_655
O44 P13 1.551017 1_555
O45 P10 1.561795 1_555
O46 P11 1.561973 1_655
O47 P10 1.560495 1_555
O48 P14 1.548227 1_555
O49 P9 1.553466 1_555
O50 P12 1.545517 1_555
O51 P11 1.552954 1_555
O52 P0 1.551067 1_555
O53 P0 1.549530 1_555
O54 P14 1.559697 1_555
O55 P12 1.561795 1_555
O56 P13 1.561973 1_565
O57 P15 1.548227 1_555
O58 P13 1.552954 1_555
O59 P2 1.560398 1_555
O60 P1 1.551067 1_555
O61 P1 1.549530 1_555
O62 P15 1.559697 1_555
O63 P4 1.560398 1_555
