# generated using pymatgen
data_Li2Mn3(SiO3)4
_symmetry_space_group_name_H-M   'P 1'
_cell_length_a   7.67262800
_cell_length_b   10.38862000
_cell_length_c   14.09274200
_cell_angle_alpha   90.00000000
_cell_angle_beta   90.00000000
_cell_angle_gamma   90.00000000
_symmetry_Int_Tables_number   1
_chemical_formula_structural   Li2Mn3(SiO3)4
_chemical_formula_sum   'Li8 Mn12 Si16 O48'
_cell_volume   1123.30451459
_cell_formula_units_Z   4
loop_
 _symmetry_equiv_pos_site_id
 _symmetry_equiv_pos_as_xyz
  1  'x, y, z'
loop_
 _atom_site_type_symbol
 _atom_site_label
 _atom_site_symmetry_multiplicity
 _atom_site_fract_x
 _atom_site_fract_y
 _atom_site_fract_z
 _atom_site_occupancy
  Li  Li0  1  0.03227600  0.75000000  0.14037700  1
  Li  Li1  1  0.23638300  0.75000000  0.49515000  1
  Li  Li2  1  0.26361700  0.25000000  0.99515000  1
  Li  Li3  1  0.46772400  0.25000000  0.64037700  1
  Li  Li4  1  0.53227600  0.75000000  0.35962300  1
  Li  Li5  1  0.73638300  0.75000000  0.00485000  1
  Li  Li6  1  0.76361700  0.25000000  0.50485000  1
  Li  Li7  1  0.96772400  0.25000000  0.85962300  1
  Mn  Mn0  1  0.00000000  0.00000000  0.00000000  1
  Mn  Mn1  1  0.00000000  0.50000000  0.00000000  1
  Mn  Mn2  1  0.22977400  0.75000000  0.71531700  1
  Mn  Mn3  1  0.29210600  0.75000000  0.93945500  1
  Mn  Mn4  1  0.20789400  0.25000000  0.43945500  1
  Mn  Mn5  1  0.27022600  0.25000000  0.21531700  1
  Mn  Mn6  1  0.50000000  0.00000000  0.50000000  1
  Mn  Mn7  1  0.50000000  0.50000000  0.50000000  1
  Mn  Mn8  1  0.72977400  0.75000000  0.78468300  1
  Mn  Mn9  1  0.70789400  0.25000000  0.06054500  1
  Mn  Mn10  1  0.79210600  0.75000000  0.56054500  1
  Mn  Mn11  1  0.77022600  0.25000000  0.28468300  1
  Si  Si0  1  0.18022000  0.03730200  0.62292400  1
  Si  Si1  1  0.18022000  0.46269800  0.62292400  1
  Si  Si2  1  0.22044900  0.53870100  0.33353900  1
  Si  Si3  1  0.22044900  0.96129900  0.33353900  1
  Si  Si4  1  0.27955100  0.03870100  0.83353900  1
  Si  Si5  1  0.27955100  0.46129900  0.83353900  1
  Si  Si6  1  0.31978000  0.53730200  0.12292400  1
  Si  Si7  1  0.31978000  0.96269800  0.12292400  1
  Si  Si8  1  0.68022000  0.03730200  0.87707600  1
  Si  Si9  1  0.68022000  0.46269800  0.87707600  1
  Si  Si10  1  0.72044900  0.53870100  0.16646100  1
  Si  Si11  1  0.72044900  0.96129900  0.16646100  1
  Si  Si12  1  0.77955100  0.03870100  0.66646100  1
  Si  Si13  1  0.77955100  0.46129900  0.66646100  1
  Si  Si14  1  0.81978000  0.53730200  0.37707600  1
  Si  Si15  1  0.81978000  0.96269800  0.37707600  1
  O  O0  1  0.02719900  0.57849300  0.37651900  1
  O  O1  1  0.02719900  0.92150700  0.37651900  1
  O  O2  1  0.13685400  0.39006800  0.90048400  1
  O  O3  1  0.13685400  0.10993200  0.90048400  1
  O  O4  1  0.21116500  0.88373700  0.60812500  1
  O  O5  1  0.21116500  0.61626300  0.60812500  1
  O  O6  1  0.22013500  0.61409400  0.03803600  1
  O  O7  1  0.22013500  0.88590600  0.03803600  1
  O  O8  1  0.24226000  0.11829200  0.32820900  1
  O  O9  1  0.24226000  0.38170800  0.32820900  1
  O  O10  1  0.22987300  0.59242000  0.22270000  1
  O  O11  1  0.22987300  0.90758000  0.22270000  1
  O  O12  1  0.27012700  0.40758000  0.72270000  1
  O  O13  1  0.27012700  0.09242000  0.72270000  1
  O  O14  1  0.25774000  0.61829200  0.82820900  1
  O  O15  1  0.25774000  0.88170800  0.82820900  1
  O  O16  1  0.27986500  0.11409400  0.53803600  1
  O  O17  1  0.27986500  0.38590600  0.53803600  1
  O  O18  1  0.28883500  0.11626300  0.10812500  1
  O  O19  1  0.28883500  0.38373700  0.10812500  1
  O  O20  1  0.36314600  0.60993200  0.40048400  1
  O  O21  1  0.36314600  0.89006800  0.40048400  1
  O  O22  1  0.47280100  0.07849300  0.87651900  1
  O  O23  1  0.47280100  0.42150700  0.87651900  1
  O  O24  1  0.52719900  0.92150700  0.12348100  1
  O  O25  1  0.52719900  0.57849300  0.12348100  1
  O  O26  1  0.63685400  0.10993200  0.59951600  1
  O  O27  1  0.63685400  0.39006800  0.59951600  1
  O  O28  1  0.71116500  0.61626300  0.89187500  1
  O  O29  1  0.71116500  0.88373700  0.89187500  1
  O  O30  1  0.72013500  0.61409400  0.46196400  1
  O  O31  1  0.72013500  0.88590600  0.46196400  1
  O  O32  1  0.74226000  0.11829200  0.17179100  1
  O  O33  1  0.74226000  0.38170800  0.17179100  1
  O  O34  1  0.72987300  0.59242000  0.27730000  1
  O  O35  1  0.72987300  0.90758000  0.27730000  1
  O  O36  1  0.77012700  0.09242000  0.77730000  1
  O  O37  1  0.77012700  0.40758000  0.77730000  1
  O  O38  1  0.75774000  0.61829200  0.67179100  1
  O  O39  1  0.75774000  0.88170800  0.67179100  1
  O  O40  1  0.77986500  0.11409400  0.96196400  1
  O  O41  1  0.77986500  0.38590600  0.96196400  1
  O  O42  1  0.78883500  0.11626300  0.39187500  1
  O  O43  1  0.78883500  0.38373700  0.39187500  1
  O  O44  1  0.86314600  0.60993200  0.09951600  1
  O  O45  1  0.86314600  0.89006800  0.09951600  1
  O  O46  1  0.97280100  0.07849300  0.62348100  1
  O  O47  1  0.97280100  0.42150700  0.62348100  1
loop_
_geom_bond_atom_site_label_1
_geom_bond_atom_site_label_2
_geom_bond_distance
_geom_bond_site_symmetry_2
Li0 O45 2.032954 1_455
Li0 O44 2.032954 1_455
Li0 O7 2.480136 1_555
Li0 O6 2.480136 1_555
Li0 O10 2.514833 1_555
Li0 O11 2.514833 1_555
Li1 O5 2.121929 1_555
Li1 O4 2.121929 1_555
Li1 O21 2.200715 1_555
Li1 O20 2.200715 1_555
Li2 O19 2.121929 1_556
Li2 O18 2.121929 1_556
Li2 O2 2.200715 1_555
Li2 O3 2.200715 1_555
Li3 O27 2.032954 1_555
Li3 O26 2.032954 1_555
Li3 O17 2.480136 1_555
Li3 O16 2.480136 1_555
Li3 O13 2.514833 1_555
Li3 O12 2.514833 1_555
Li4 O21 2.032954 1_555
Li4 O20 2.032954 1_555
Li4 O31 2.480136 1_555
Li4 O30 2.480136 1_555
Li4 O34 2.514833 1_555
Li4 O35 2.514833 1_555
Li5 O29 2.121929 1_554
Li5 O28 2.121929 1_554
Li5 O45 2.200715 1_555
Li5 O44 2.200715 1_555
Li6 O43 2.121929 1_555
Li6 O42 2.121929 1_555
Li6 O27 2.200715 1_555
Li6 O26 2.200715 1_555
Li7 O2 2.032954 1_655
Li7 O3 2.032954 1_655
Li7 O41 2.480136 1_555
Li7 O40 2.480136 1_555
Li7 O36 2.514833 1_555
Li7 O37 2.514833 1_555
Mn0 O3 2.091339 1_554
Mn0 O45 2.091339 1_445
Mn0 O7 2.131897 1_545
Mn0 O40 2.131897 1_454
Mn1 O44 2.091339 1_455
Mn1 O2 2.091339 1_554
Mn1 O6 2.131897 1_555
Mn1 O41 2.131897 1_454
Mn2 O5 2.057343 1_555
Mn2 O4 2.057343 1_555
Mn2 O15 2.109345 1_555
Mn2 O14 2.109345 1_555
Mn3 O7 2.056311 1_556
Mn3 O6 2.056311 1_556
Mn3 O15 2.097510 1_555
Mn3 O14 2.097510 1_555
Mn4 O17 2.056311 1_555
Mn4 O16 2.056311 1_555
Mn4 O9 2.097510 1_555
Mn4 O8 2.097510 1_555
Mn5 O19 2.057343 1_555
Mn5 O18 2.057343 1_555
Mn5 O8 2.109345 1_555
Mn5 O9 2.109345 1_555
Mn6 O26 2.091339 1_555
Mn6 O21 2.091339 1_545
Mn6 O16 2.131897 1_555
Mn6 O31 2.131897 1_545
Mn7 O27 2.091339 1_555
Mn7 O20 2.091339 1_555
Mn7 O30 2.131897 1_555
Mn7 O17 2.131897 1_555
Mn8 O28 2.057343 1_555
Mn8 O29 2.057343 1_555
Mn8 O39 2.109345 1_555
Mn8 O38 2.109345 1_555
Mn9 O41 2.056311 1_554
Mn9 O40 2.056311 1_554
Mn9 O33 2.097510 1_555
Mn9 O32 2.097510 1_555
Mn10 O31 2.056311 1_555
Mn10 O30 2.056311 1_555
Mn10 O39 2.097510 1_555
Mn10 O38 2.097510 1_555
Mn11 O43 2.057343 1_555
Mn11 O42 2.057343 1_555
Mn11 O32 2.109345 1_555
Mn11 O33 2.109345 1_555
O0 Si14 1.647994 1_455
O0 Si2 1.654168 1_555
O1 Si15 1.647994 1_455
O1 Si3 1.654168 1_555
O2 Si5 1.623695 1_555
O3 Si4 1.623695 1_555
O4 Si0 1.626328 1_565
O5 Si1 1.626328 1_555
O6 Si6 1.628524 1_555
O7 Si7 1.628524 1_555
O8 Si3 1.641224 1_545
O9 Si2 1.641224 1_555
O10 Si2 1.660298 1_555
O10 Si6 1.667601 1_555
O11 Si3 1.660298 1_555
O11 Si7 1.667601 1_555
O12 Si5 1.660298 1_555
O12 Si1 1.667601 1_555
O13 Si4 1.660298 1_555
O13 Si0 1.667601 1_555
O14 Si5 1.641224 1_555
O15 Si4 1.641224 1_565
O16 Si0 1.628524 1_555
O17 Si1 1.628524 1_555
O18 Si7 1.626328 1_545
O19 Si6 1.626328 1_555
O20 Si2 1.623695 1_555
O21 Si3 1.623695 1_555
O22 Si8 1.647994 1_555
O22 Si4 1.654168 1_555
O23 Si9 1.647994 1_555
O23 Si5 1.654168 1_555
O24 Si7 1.647994 1_555
O24 Si11 1.654168 1_555
O25 Si6 1.647994 1_555
O25 Si10 1.654168 1_555
O26 Si12 1.623695 1_555
O27 Si13 1.623695 1_555
O28 Si9 1.626328 1_555
O29 Si8 1.626328 1_565
O30 Si14 1.628524 1_555
O31 Si15 1.628524 1_555
O32 Si11 1.641224 1_545
O33 Si10 1.641224 1_555
O34 Si10 1.660298 1_555
O34 Si14 1.667601 1_555
O35 Si11 1.660298 1_555
O35 Si15 1.667601 1_555
O36 Si12 1.660298 1_555
O36 Si8 1.667601 1_555
O37 Si13 1.660298 1_555
O37 Si9 1.667601 1_555
O38 Si13 1.641224 1_555
O39 Si12 1.641224 1_565
O40 Si8 1.628524 1_555
O41 Si9 1.628524 1_555
O42 Si15 1.626328 1_545
O43 Si14 1.626328 1_555
O44 Si10 1.623695 1_555
O45 Si11 1.623695 1_555
O46 Si0 1.647994 1_655
O46 Si12 1.654168 1_555
O47 Si1 1.647994 1_655
O47 Si13 1.654168 1_555
