# generated using pymatgen
data_VZnHPbO5
_symmetry_space_group_name_H-M   'P 1'
_cell_length_a   6.07115658
_cell_length_b   7.57827178
_cell_length_c   9.41225566
_cell_angle_alpha   90.00000000
_cell_angle_beta   90.00000000
_cell_angle_gamma   90.00000000
_symmetry_Int_Tables_number   1
_chemical_formula_structural   VZnHPbO5
_chemical_formula_sum   'V4 Zn4 H4 Pb4 O20'
_cell_volume   433.04729020
_cell_formula_units_Z   4
loop_
 _symmetry_equiv_pos_site_id
 _symmetry_equiv_pos_as_xyz
  1  'x, y, z'
loop_
 _atom_site_type_symbol
 _atom_site_label
 _atom_site_symmetry_multiplicity
 _atom_site_fract_x
 _atom_site_fract_y
 _atom_site_fract_z
 _atom_site_occupancy
  V  V0  1  0.75000000  0.86778262  0.18778042  1
  V  V1  1  0.75000000  0.36778262  0.31221958  1
  V  V2  1  0.25000000  0.13221738  0.81221958  1
  V  V3  1  0.25000000  0.63221738  0.68778042  1
  Zn  Zn0  1  0.00000000  0.50000000  -0.00000000  1
  Zn  Zn1  1  0.50000000  0.00000000  0.50000000  1
  Zn  Zn2  1  0.50000000  0.50000000  -0.00000000  1
  Zn  Zn3  1  0.00000000  0.00000000  0.50000000  1
  H  H0  1  0.25000000  0.76022772  0.01583428  1
  H  H1  1  0.25000000  0.26022772  0.48416572  1
  H  H2  1  0.75000000  0.23977228  0.98416572  1
  H  H3  1  0.75000000  0.73977228  0.51583428  1
  Pb  Pb0  1  0.25000000  0.62872763  0.32418563  1
  Pb  Pb1  1  0.25000000  0.12872763  0.17581437  1
  Pb  Pb2  1  0.75000000  0.37127237  0.67581437  1
  Pb  Pb3  1  0.75000000  0.87127237  0.82418563  1
  O  O0  1  0.75000000  0.68774821  0.07243529  1
  O  O1  1  0.75000000  0.18774821  0.42756471  1
  O  O2  1  0.25000000  0.31225179  0.92756471  1
  O  O3  1  0.25000000  0.81225179  0.57243529  1
  O  O4  1  0.75000000  0.04687417  0.08167377  1
  O  O5  1  0.75000000  0.54687417  0.41832623  1
  O  O6  1  0.25000000  0.95312583  0.91832623  1
  O  O7  1  0.25000000  0.45312583  0.58167377  1
  O  O8  1  0.98947110  0.87664151  0.29093292  1
  O  O9  1  0.51052890  0.37664151  0.20906708  1
  O  O10  1  0.48947110  0.12335849  0.70906708  1
  O  O11  1  0.01052890  0.62335849  0.79093292  1
  O  O12  1  0.01052890  0.12335849  0.70906708  1
  O  O13  1  0.48947110  0.62335849  0.79093292  1
  O  O14  1  0.51052890  0.87664151  0.29093292  1
  O  O15  1  0.98947110  0.37664151  0.20906708  1
  O  O16  1  0.25000000  0.64672377  0.06727655  1
  O  O17  1  0.25000000  0.14672377  0.43272345  1
  O  O18  1  0.75000000  0.35327623  0.93272345  1
  O  O19  1  0.75000000  0.85327623  0.56727655  1
loop_
_geom_bond_atom_site_label_1
_geom_bond_atom_site_label_2
_geom_bond_distance
_geom_bond_site_symmetry_2
H0 O16 0.987076 1_555
H1 O17 0.987076 1_555
H2 O18 0.987076 1_555
H3 O19 0.987076 1_555
O0 V0 1.743589 1_555
O0 Zn2 2.189266 1_555
O0 Zn0 2.189266 1_655
O0 Pb3 2.719184 1_554
O1 V1 1.743589 1_555
O1 Zn3 2.189266 1_655
O1 Zn1 2.189266 1_555
O1 Pb2 2.719184 1_555
O2 V2 1.743589 1_555
O2 Zn0 2.189266 1_556
O2 Zn2 2.189266 1_556
O2 Pb1 2.719184 1_556
O3 V3 1.743589 1_555
O3 Zn3 2.189266 1_565
O3 Zn1 2.189266 1_565
O3 Pb0 2.719184 1_555
O4 V0 1.685055 1_545
O4 Pb3 2.764866 1_544
O5 V1 1.685055 1_555
O5 Pb2 2.764866 1_555
O6 V2 1.685055 1_565
O6 Pb1 2.764866 1_566
O7 V3 1.685055 1_555
O7 Pb0 2.764866 1_555
O8 V0 1.749536 1_555
O8 Zn3 2.179502 1_665
O8 Pb0 2.475784 1_655
O8 Pb1 2.706544 1_665
O9 V1 1.749536 1_555
O9 Zn2 2.179502 1_555
O9 Pb1 2.475784 1_555
O9 Pb0 2.706544 1_555
O10 V2 1.749536 1_555
O10 Zn1 2.179502 1_555
O10 Pb2 2.475784 1_555
O10 Pb3 2.706544 1_545
O11 V3 1.749536 1_555
O11 Zn0 2.179502 1_556
O11 Pb3 2.475784 1_455
O11 Pb2 2.706544 1_455
O12 V2 1.749536 1_555
O12 Zn3 2.179502 1_555
O12 Pb2 2.475784 1_455
O12 Pb3 2.706544 1_445
O13 V3 1.749536 1_555
O13 Zn2 2.179502 1_556
O13 Pb3 2.475784 1_555
O13 Pb2 2.706544 1_555
O14 V0 1.749536 1_555
O14 Zn1 2.179502 1_565
O14 Pb0 2.475784 1_555
O14 Pb1 2.706544 1_565
O15 V1 1.749536 1_555
O15 Zn0 2.179502 1_655
O15 Pb1 2.475784 1_655
O15 Pb0 2.706544 1_655
O16 Zn2 1.985197 1_555
O16 Zn0 1.985197 1_555
O16 Pb0 2.421937 1_555
O17 Zn3 1.985197 1_555
O17 Zn1 1.985197 1_555
O17 Pb1 2.421937 1_555
O18 Zn2 1.985197 1_556
O18 Zn0 1.985197 1_656
O18 Pb2 2.421937 1_555
O19 Zn1 1.985197 1_565
O19 Zn3 1.985197 1_665
O19 Pb3 2.421937 1_555
