# generated using pymatgen
data_V9Sb7O32
_symmetry_space_group_name_H-M   'P 1'
_cell_length_a   4.66774000
_cell_length_b   7.80794226
_cell_length_c   15.34063200
_cell_angle_alpha   102.43390901
_cell_angle_beta   90.12029386
_cell_angle_gamma   89.98519163
_symmetry_Int_Tables_number   1
_chemical_formula_structural   V9Sb7O32
_chemical_formula_sum   'V9 Sb7 O32'
_cell_volume   545.98134868
_cell_formula_units_Z   1
loop_
 _symmetry_equiv_pos_site_id
 _symmetry_equiv_pos_as_xyz
  1  'x, y, z'
loop_
 _atom_site_type_symbol
 _atom_site_label
 _atom_site_symmetry_multiplicity
 _atom_site_fract_x
 _atom_site_fract_y
 _atom_site_fract_z
 _atom_site_occupancy
  V  V0  1  0.50546500  0.81293300  0.43821400  1
  V  V1  1  0.49453500  0.18706700  0.56178600  1
  V  V2  1  0.49608000  0.06233300  0.18896800  1
  V  V3  1  0.50392000  0.93766700  0.81103200  1
  V  V4  1  0.00000000  0.50000000  0.50000000  1
  V  V5  1  0.99204200  0.37450100  0.12891900  1
  V  V6  1  0.99561300  0.75072700  0.25326000  1
  V  V7  1  0.00795800  0.62549900  0.87108100  1
  V  V8  1  0.00438700  0.24927300  0.74674000  1
  Sb  Sb0  1  0.50459100  0.55860800  0.68738800  1
  Sb  Sb1  1  0.49540900  0.44139200  0.31261200  1
  Sb  Sb2  1  0.50001300  0.31338900  0.93279500  1
  Sb  Sb3  1  0.49998700  0.68661100  0.06720500  1
  Sb  Sb4  1  0.00272300  0.87898700  0.62265300  1
  Sb  Sb5  1  0.99727700  0.12101300  0.37734700  1
  Sb  Sb6  1  0.00000000  0.00000000  0.00000000  1
  O  O0  1  0.19653500  0.64145600  0.61312500  1
  O  O1  1  0.19727600  0.88581500  0.35845100  1
  O  O2  1  0.18988300  0.01491600  0.73632900  1
  O  O3  1  0.19146100  0.26160900  0.48547900  1
  O  O4  1  0.18877300  0.13477800  0.11038700  1
  O  O5  1  0.19521500  0.52154900  0.23707200  1
  O  O6  1  0.19110100  0.38477200  0.85915200  1
  O  O7  1  0.20066100  0.76516000  0.98780000  1
  O  O8  1  0.30022200  0.20443400  0.30030800  1
  O  O9  1  0.29126100  0.32740600  0.67687800  1
  O  O10  1  0.31263000  0.69754000  0.79704800  1
  O  O11  1  0.29851700  0.82185500  0.17486900  1
  O  O12  1  0.30496300  0.44870100  0.04757100  1
  O  O13  1  0.30639800  0.07950800  0.92421400  1
  O  O14  1  0.30979300  0.57529700  0.42340000  1
  O  O15  1  0.30560300  0.95365500  0.54914000  1
  O  O16  1  0.69020700  0.42470300  0.57660000  1
  O  O17  1  0.70873900  0.67259400  0.32312200  1
  O  O18  1  0.70148300  0.17814500  0.82513100  1
  O  O19  1  0.68737000  0.30246000  0.20295200  1
  O  O20  1  0.69503700  0.55129900  0.95242900  1
  O  O21  1  0.69439700  0.04634500  0.45086000  1
  O  O22  1  0.69360200  0.92049200  0.07578600  1
  O  O23  1  0.69977800  0.79556600  0.69969200  1
  O  O24  1  0.80272400  0.11418500  0.64154900  1
  O  O25  1  0.80889900  0.61522800  0.14084800  1
  O  O26  1  0.80346500  0.35854400  0.38687500  1
  O  O27  1  0.81122700  0.86522200  0.88961300  1
  O  O28  1  0.80853900  0.73839100  0.51452100  1
  O  O29  1  0.79933900  0.23484000  0.01220000  1
  O  O30  1  0.80478500  0.47845100  0.76292800  1
  O  O31  1  0.81011700  0.98508400  0.26367100  1
loop_
_geom_bond_atom_site_label_1
_geom_bond_atom_site_label_2
_geom_bond_distance
_geom_bond_site_symmetry_2
O0 Sb0 2.023347 1_555
O0 Sb4 2.040191 1_555
O0 V4 2.059501 1_555
O1 V6 1.965650 1_455
O1 Sb5 2.024588 1_465
O1 V0 2.045119 1_555
O2 V8 1.999362 1_555
O2 V3 2.028776 1_545
O2 Sb4 2.031685 1_545
O3 Sb5 1.997085 1_455
O3 V1 1.999087 1_555
O3 V4 2.033304 1_555
O4 Sb6 1.994562 1_555
O4 V2 2.028961 1_555
O4 V5 2.049039 1_455
O5 V6 1.985057 1_455
O5 Sb1 2.000770 1_555
O5 V5 2.035679 1_455
O6 Sb2 1.982413 1_555
O6 V8 2.015237 1_555
O6 V7 2.036865 1_555
O7 Sb3 2.031303 1_556
O7 Sb6 2.031386 1_566
O7 V7 2.087384 1_555
O8 Sb1 2.034339 1_555
O8 Sb5 2.039494 1_455
O8 V2 2.043068 1_555
O9 V8 1.897849 1_555
O9 Sb0 2.037464 1_555
O9 V1 2.095623 1_555
O10 V7 1.977621 1_555
O10 Sb0 2.007377 1_555
O10 V3 2.045819 1_555
O11 Sb3 1.995573 1_555
O11 V6 2.012161 1_455
O11 V2 2.061040 1_565
O12 Sb3 2.031951 1_555
O12 Sb2 2.061668 1_554
O12 V5 2.084671 1_455
O13 Sb2 2.016350 1_555
O13 Sb6 2.025021 1_556
O13 V3 2.066251 1_545
O14 Sb1 1.993188 1_555
O14 V4 2.030412 1_555
O14 V0 2.036409 1_555
O15 Sb4 1.975009 1_555
O15 V1 1.996148 1_565
O15 V0 2.043097 1_555
O16 Sb0 1.993188 1_555
O16 V4 2.030412 1_655
O16 V1 2.036409 1_555
O17 V6 1.897849 1_555
O17 Sb1 2.037464 1_555
O17 V0 2.095623 1_555
O18 Sb2 1.995573 1_555
O18 V8 2.012161 1_655
O18 V3 2.061040 1_545
O19 V5 1.977621 1_555
O19 Sb1 2.007377 1_555
O19 V2 2.045819 1_555
O20 Sb2 2.031951 1_555
O20 Sb3 2.061668 1_556
O20 V7 2.084671 1_655
O21 Sb5 1.975009 1_555
O21 V0 1.996148 1_545
O21 V1 2.043097 1_555
O22 Sb3 2.016350 1_555
O22 Sb6 2.025021 1_665
O22 V2 2.066251 1_565
O23 Sb0 2.034339 1_555
O23 Sb4 2.039494 1_655
O23 V3 2.043068 1_555
O24 V8 1.965650 1_655
O24 Sb4 2.024588 1_645
O24 V1 2.045119 1_555
O25 Sb3 1.982413 1_555
O25 V6 2.015237 1_555
O25 V5 2.036865 1_555
O26 Sb1 2.023347 1_555
O26 Sb5 2.040191 1_555
O26 V4 2.059501 1_655
O27 Sb6 1.994562 1_666
O27 V3 2.028961 1_555
O27 V7 2.049039 1_655
O28 Sb4 1.997085 1_655
O28 V0 1.999087 1_555
O28 V4 2.033304 1_655
O29 Sb2 2.031303 1_554
O29 Sb6 2.031386 1_655
O29 V5 2.087384 1_555
O30 V8 1.985057 1_655
O30 Sb0 2.000770 1_555
O30 V7 2.035679 1_655
O31 V6 1.999362 1_555
O31 V2 2.028776 1_565
O31 Sb5 2.031685 1_565
