# generated using pymatgen
data_Sr3Li4La5O12
_symmetry_space_group_name_H-M   'P 1'
_cell_length_a   3.59119400
_cell_length_b   6.98671400
_cell_length_c   13.61394379
_cell_angle_alpha   89.94276289
_cell_angle_beta   90.00000000
_cell_angle_gamma   90.00000000
_symmetry_Int_Tables_number   1
_chemical_formula_structural   Sr3Li4La5O12
_chemical_formula_sum   'Sr3 Li4 La5 O12'
_cell_volume   341.58246572
_cell_formula_units_Z   1
loop_
 _symmetry_equiv_pos_site_id
 _symmetry_equiv_pos_as_xyz
  1  'x, y, z'
loop_
 _atom_site_type_symbol
 _atom_site_label
 _atom_site_symmetry_multiplicity
 _atom_site_fract_x
 _atom_site_fract_y
 _atom_site_fract_z
 _atom_site_occupancy
  Sr  Sr0  1  0.50000000  0.91302500  0.78249200  1
  Sr  Sr1  1  0.50000000  0.41168300  0.72092500  1
  Sr  Sr2  1  0.00000000  0.58916500  0.27957600  1
  Li  Li0  1  0.00000000  0.62343000  0.86562600  1
  Li  Li1  1  0.00000000  0.12370400  0.63531800  1
  Li  Li2  1  0.50000000  0.87526200  0.36854900  1
  Li  Li3  1  0.50000000  0.38281600  0.13136900  1
  La  La0  1  0.00000000  0.24160100  0.95712200  1
  La  La1  1  0.00000000  0.74263700  0.54423200  1
  La  La2  1  0.50000000  0.25747300  0.45843600  1
  La  La3  1  0.00000000  0.08592800  0.21699200  1
  La  La4  1  0.50000000  0.76022000  0.04260700  1
  O  O0  1  0.00000000  0.86844400  0.93150900  1
  O  O1  1  0.50000000  0.48657800  0.90356000  1
  O  O2  1  0.00000000  0.18087100  0.77727100  1
  O  O3  1  0.00000000  0.68027300  0.71921400  1
  O  O4  1  0.50000000  0.98985700  0.59339400  1
  O  O5  1  0.00000000  0.36634100  0.56308700  1
  O  O6  1  0.50000000  0.62992600  0.43634300  1
  O  O7  1  0.00000000  0.01047900  0.39700400  1
  O  O8  1  0.50000000  0.31290600  0.27655500  1
  O  O9  1  0.50000000  0.83163700  0.22771800  1
  O  O10  1  0.00000000  0.50192000  0.10018600  1
  O  O11  1  0.50000000  0.13382400  0.07091300  1
loop_
_geom_bond_atom_site_label_1
_geom_bond_atom_site_label_2
_geom_bond_distance
_geom_bond_site_symmetry_2
Li0 O0 1.933378 1_555
Li0 O3 2.032035 1_555
Li0 O1 2.098594 1_555
Li0 O1 2.098594 1_455
Li1 O5 1.958945 1_555
Li1 O2 1.973773 1_555
Li1 O4 2.103687 1_445
Li1 O4 2.103687 1_545
Li2 O9 1.941642 1_555
Li2 O6 1.945964 1_555
Li2 O7 2.065785 1_565
Li2 O7 2.065785 1_665
Li3 O11 1.925252 1_555
Li3 O10 2.023895 1_655
Li3 O10 2.023895 1_555
Li3 O8 2.035537 1_555
La0 O2 2.485391 1_555
La0 O11 2.487711 1_456
La0 O11 2.487711 1_556
La0 O1 2.585133 1_455
La0 O1 2.585133 1_555
La0 O0 2.630701 1_545
La0 O10 2.666162 1_556
La1 O3 2.421287 1_555
La1 O6 2.450298 1_455
La1 O6 2.450298 1_555
La1 O4 2.580278 1_455
La1 O4 2.580278 1_555
La1 O5 2.641319 1_555
La1 O7 2.740773 1_565
La2 O5 2.415512 1_555
La2 O5 2.415512 1_655
La2 O8 2.505841 1_555
La2 O6 2.619249 1_555
La2 O4 2.620083 1_545
La2 O7 2.627634 1_655
La2 O7 2.627634 1_555
La3 O7 2.506211 1_555
La3 O8 2.529651 1_555
La3 O8 2.529651 1_455
La3 O9 2.530116 1_545
La3 O9 2.530116 1_445
La3 O11 2.699962 1_555
La3 O11 2.699962 1_455
La4 O0 2.466013 1_654
La4 O0 2.466013 1_554
La4 O9 2.569502 1_555
La4 O11 2.638937 1_565
La4 O10 2.663200 1_555
La4 O10 2.663200 1_655
La4 O1 2.691802 1_554
O0 Sr0 2.726827 1_555
O0 Sr0 2.726827 1_455
O1 Sr1 2.541360 1_555
O2 Sr1 2.531928 1_555
O2 Sr1 2.531928 1_455
O2 Sr0 2.594409 1_445
O2 Sr0 2.594409 1_545
O3 Sr0 2.571677 1_455
O3 Sr0 2.571677 1_555
O3 Sr1 2.597327 1_455
O3 Sr1 2.597327 1_555
O4 Sr0 2.629216 1_555
O5 Sr1 2.818371 1_455
O5 Sr1 2.818371 1_555
O6 Sr2 2.803813 1_555
O6 Sr2 2.803813 1_655
O8 Sr2 2.636564 1_555
O8 Sr2 2.636564 1_655
O9 Sr2 2.567123 1_555
O9 Sr2 2.567123 1_655
O10 Sr2 2.517717 1_555
