# generated using pymatgen
data_CdPNO5
_symmetry_space_group_name_H-M   'P 1'
_cell_length_a   5.52975587
_cell_length_b   6.03469975
_cell_length_c   7.06386165
_cell_angle_alpha   90.00000000
_cell_angle_beta   90.00000000
_cell_angle_gamma   90.00000000
_symmetry_Int_Tables_number   1
_chemical_formula_structural   CdPNO5
_chemical_formula_sum   'Cd2 P2 N2 O10'
_cell_volume   235.72400441
_cell_formula_units_Z   2
loop_
 _symmetry_equiv_pos_site_id
 _symmetry_equiv_pos_as_xyz
  1  'x, y, z'
loop_
 _atom_site_type_symbol
 _atom_site_label
 _atom_site_symmetry_multiplicity
 _atom_site_fract_x
 _atom_site_fract_y
 _atom_site_fract_z
 _atom_site_occupancy
  Cd  Cd0  1  0.44832467  0.50000000  0.01780783  1
  Cd  Cd1  1  0.94832467  0.00000000  0.98219217  1
  P  P0  1  0.89960527  0.50000000  0.78150455  1
  P  P1  1  0.39960527  0.00000000  0.21849545  1
  N  N0  1  0.18073965  0.00000000  0.55210981  1
  N  N1  1  0.68073965  0.50000000  0.44789019  1
  O  O0  1  0.76267696  0.70335195  0.85109930  1
  O  O1  1  0.76267696  0.29664805  0.85109930  1
  O  O2  1  0.26267696  0.79664805  0.14890070  1
  O  O3  1  0.26267696  0.20335195  0.14890070  1
  O  O4  1  0.16670945  0.50000000  0.80528185  1
  O  O5  1  0.66670945  0.00000000  0.19471815  1
  O  O6  1  0.22391545  0.00000000  0.71882447  1
  O  O7  1  0.72391545  0.50000000  0.28117553  1
  O  O8  1  0.89734960  0.50000000  0.54471156  1
  O  O9  1  0.39734960  0.00000000  0.45528844  1
loop_
_geom_bond_atom_site_label_1
_geom_bond_atom_site_label_2
_geom_bond_distance
_geom_bond_site_symmetry_2
Cd0 O4 2.163061 1_554
Cd0 O3 2.261890 1_555
Cd0 O2 2.261890 1_555
Cd0 O7 2.404888 1_555
Cd0 O0 2.431945 1_554
Cd0 O1 2.431945 1_554
Cd1 O5 2.163061 1_556
Cd1 O0 2.261890 1_545
Cd1 O1 2.261890 1_555
Cd1 O6 2.404888 1_655
Cd1 O3 2.431945 1_656
Cd1 O2 2.431945 1_646
N0 O6 1.201607 1_555
N0 O9 1.379308 1_555
N1 O7 1.201607 1_555
N1 O8 1.379308 1_555
O0 P0 1.523464 1_555
O1 P0 1.523464 1_555
O2 P1 1.523464 1_565
O3 P1 1.523464 1_555
O4 P0 1.486540 1_455
O5 P1 1.486540 1_555
O8 P0 1.672719 1_555
O9 P1 1.672719 1_555
