# generated using pymatgen
data_Li3Mn4(BO3)4
_symmetry_space_group_name_H-M   'P 1'
_cell_length_a   9.09559700
_cell_length_b   9.10433994
_cell_length_c   11.66253497
_cell_angle_alpha   67.43437010
_cell_angle_beta   68.60268184
_cell_angle_gamma   60.04614055
_symmetry_Int_Tables_number   1
_chemical_formula_structural   Li3Mn4(BO3)4
_chemical_formula_sum   'Li9 Mn12 B12 O36'
_cell_volume   754.37678699
_cell_formula_units_Z   3
loop_
 _symmetry_equiv_pos_site_id
 _symmetry_equiv_pos_as_xyz
  1  'x, y, z'
loop_
 _atom_site_type_symbol
 _atom_site_label
 _atom_site_symmetry_multiplicity
 _atom_site_fract_x
 _atom_site_fract_y
 _atom_site_fract_z
 _atom_site_occupancy
  Li  Li0  1  0.22360500  0.05801300  0.66636200  1
  Li  Li1  1  0.36905800  0.25239600  0.16669800  1
  Li  Li2  1  0.04852700  0.88484900  0.17654800  1
  Li  Li3  1  0.41674600  0.59330500  0.41795600  1
  Li  Li4  1  0.52952800  0.38959400  0.67567900  1
  Li  Li5  1  0.71991000  0.57663100  0.17036100  1
  Li  Li6  1  0.93467900  0.08314400  0.90649300  1
  Li  Li7  1  0.76153600  0.91040800  0.41220900  1
  Li  Li8  1  0.88986700  0.70001600  0.65744100  1
  Mn  Mn0  1  0.05374300  0.21847800  0.13156800  1
  Mn  Mn1  1  0.11482300  0.54805000  0.38029200  1
  Mn  Mn2  1  0.29397200  0.08407300  0.88364900  1
  Mn  Mn3  1  0.40124600  0.58872700  0.12196200  1
  Mn  Mn4  1  0.21050800  0.76524100  0.62626200  1
  Mn  Mn5  1  0.57739600  0.05844200  0.63347600  1
  Mn  Mn6  1  0.41159100  0.95742300  0.37909800  1
  Mn  Mn7  1  0.77299700  0.27438300  0.38665700  1
  Mn  Mn8  1  0.58926700  0.43027800  0.88246600  1
  Mn  Mn9  1  0.72249900  0.92262600  0.12845500  1
  Mn  Mn10  1  0.88971000  0.38758500  0.62790100  1
  Mn  Mn11  1  0.92492100  0.73959700  0.89250800  1
  B  B0  1  0.05787500  0.55556300  0.14171000  1
  B  B1  1  0.09434100  0.92202800  0.37325300  1
  B  B2  1  0.24283400  0.40263300  0.61752700  1
  B  B3  1  0.44157600  0.27685800  0.37331900  1
  B  B4  1  0.40044700  0.90846600  0.13570500  1
  B  B5  1  0.73552000  0.24595700  0.12739200  1
  B  B6  1  0.25449000  0.77119700  0.86600800  1
  B  B7  1  0.61893100  0.08546400  0.86893200  1
  B  B8  1  0.56761300  0.73311300  0.62140100  1
  B  B9  1  0.90439000  0.06535400  0.62207800  1
  B  B10  1  0.74968000  0.62519000  0.37433200  1
  B  B11  1  0.94021600  0.40343400  0.87357800  1
  O  O0  1  0.03280500  0.10423100  0.32003100  1
  O  O1  1  0.01198600  0.12507400  0.62647400  1
  O  O2  1  0.13899600  0.38614500  0.13890700  1
  O  O3  1  0.12685000  0.62555300  0.19121400  1
  O  O4  1  0.44914300  0.00647500  0.16912400  1
  O  O5  1  0.08901900  0.48382000  0.56959700  1
  O  O6  1  0.02259200  0.82783700  0.36387600  1
  O  O7  1  0.34658000  0.21384300  0.35471500  1
  O  O8  1  0.06520600  0.28705500  0.94902000  1
  O  O9  1  0.30530300  0.22267100  0.67055500  1
  O  O10  1  0.37128200  0.46330600  0.34738900  1
  O  O11  1  0.23976100  0.98803500  0.09955000  1
  O  O12  1  0.57418400  0.33418100  0.09474500  1
  O  O13  1  0.32349500  0.50164000  0.60748300  1
  O  O14  1  0.23674800  0.84130200  0.43253700  1
  O  O15  1  0.59511000  0.17222900  0.41606300  1
  O  O16  1  0.18878300  0.70970100  0.80896700  1
  O  O17  1  0.50046100  0.73702700  0.13666300  1
  O  O18  1  0.84227300  0.07508400  0.11951800  1
  O  O19  1  0.79154800  0.33629300  0.16553900  1
  O  O20  1  0.18668500  0.94746000  0.85458900  1
  O  O21  1  0.53136700  0.26235800  0.85106700  1
  O  O22  1  0.40231800  0.83964700  0.58982200  1
  O  O23  1  0.66543600  0.54232200  0.36356300  1
  O  O24  1  0.74308300  0.18245700  0.58983800  1
  O  O25  1  0.38005300  0.65005600  0.93386300  1
  O  O26  1  0.61896800  0.55420300  0.66773000  1
  O  O27  1  0.68795200  0.80630700  0.33814300  1
  O  O28  1  0.90513400  0.67003600  0.09710800  1
  O  O29  1  0.90041900  0.52245000  0.42274300  1
  O  O30  1  0.67269400  0.81287300  0.60150900  1
  O  O31  1  0.86725300  0.33071700  0.83531600  1
  O  O32  1  0.56199700  0.99375800  0.83511700  1
  O  O33  1  0.89749600  0.57706600  0.83316700  1
  O  O34  1  0.76848800  0.99144700  0.92024800  1
  O  O35  1  0.95346300  0.88492200  0.64591400  1
loop_
_geom_bond_atom_site_label_1
_geom_bond_atom_site_label_2
_geom_bond_distance
_geom_bond_site_symmetry_2
Li0 O1 1.885698 1_555
Li0 O9 1.999270 1_555
Li0 O20 2.012123 1_545
Li0 O22 2.113691 1_545
Li1 O2 1.901063 1_555
Li1 O4 1.970301 1_555
Li1 O7 2.031507 1_555
Li1 O12 2.122486 1_555
Li2 O18 1.934727 1_465
Li2 O6 1.993483 1_555
Li2 O3 2.051670 1_555
Li2 O11 2.135185 1_555
Li3 O10 1.932292 1_555
Li3 O23 1.965945 1_555
Li3 O14 2.051183 1_555
Li3 O13 2.055417 1_555
Li4 O21 1.926966 1_555
Li4 O13 1.934136 1_555
Li4 O26 1.993032 1_555
Li4 O24 2.168806 1_555
Li5 O17 1.868749 1_555
Li5 O19 1.964569 1_555
Li5 O28 2.028351 1_555
Li5 O23 2.054229 1_555
Li6 O31 1.923726 1_555
Li6 O20 1.969841 1_645
Li6 O34 1.997027 1_545
Li6 O18 2.298292 1_556
Li7 O27 1.943188 1_555
Li7 O6 2.021638 1_655
Li7 O30 2.055667 1_555
Li7 O15 2.098761 1_565
Li8 O33 1.929624 1_555
Li8 O30 1.944769 1_555
Li8 O35 1.982083 1_555
Li8 O5 2.199580 1_655
Mn0 O8 1.953482 1_554
Mn0 O11 1.999830 1_545
Mn0 O19 2.019193 1_455
Mn0 O0 2.021621 1_555
Mn0 O2 2.066288 1_555
Mn1 O29 1.939921 1_455
Mn1 O10 1.990136 1_555
Mn1 O5 2.009833 1_555
Mn1 O3 2.019737 1_555
Mn1 O6 2.199545 1_555
Mn2 O32 2.070796 1_545
Mn2 O20 2.095461 1_545
Mn2 O8 2.099969 1_555
Mn2 O11 2.276542 1_546
Mn2 O9 2.305505 1_555
Mn3 O17 2.043039 1_555
Mn3 O25 2.102924 1_554
Mn3 O12 2.122663 1_555
Mn3 O3 2.212488 1_555
Mn3 O10 2.402914 1_555
Mn4 O16 1.949534 1_555
Mn4 O35 1.990644 1_455
Mn4 O22 2.025208 1_555
Mn4 O14 2.052284 1_555
Mn4 O13 2.154051 1_555
Mn5 O30 2.087479 1_545
Mn5 O24 2.122136 1_555
Mn5 O9 2.137195 1_555
Mn5 O32 2.162362 1_545
Mn5 O15 2.319690 1_555
Mn6 O7 2.028606 1_565
Mn6 O14 2.117832 1_555
Mn6 O27 2.148093 1_555
Mn6 O4 2.239543 1_565
Mn6 O22 2.261231 1_555
Mn7 O23 2.070068 1_555
Mn7 O15 2.110334 1_555
Mn7 O0 2.125138 1_655
Mn7 O24 2.150442 1_555
Mn7 O19 2.378713 1_555
Mn8 O21 2.030529 1_555
Mn8 O25 2.066416 1_555
Mn8 O31 2.143926 1_555
Mn8 O12 2.263423 1_556
Mn8 O26 2.293454 1_555
Mn9 O18 2.107241 1_565
Mn9 O4 2.124055 1_565
Mn9 O28 2.137501 1_555
Mn9 O34 2.194704 1_554
Mn9 O27 2.232633 1_555
Mn10 O1 2.076512 1_655
Mn10 O26 2.134685 1_555
Mn10 O5 2.178488 1_655
Mn10 O29 2.221843 1_555
Mn10 O31 2.223767 1_555
Mn11 O33 2.002830 1_555
Mn11 O34 2.088585 1_555
Mn11 O16 2.151344 1_655
Mn11 O28 2.183546 1_556
Mn11 O35 2.639454 1_555
B0 O2 1.345068 1_555
B0 O28 1.397206 1_455
B0 O3 1.441806 1_555
B1 O6 1.362401 1_555
B1 O0 1.409390 1_565
B1 O14 1.417306 1_555
B2 O13 1.371546 1_555
B2 O9 1.392430 1_555
B2 O5 1.427230 1_555
B3 O7 1.360198 1_555
B3 O15 1.386067 1_555
B3 O10 1.430036 1_555
B4 O17 1.356470 1_555
B4 O4 1.389905 1_565
B4 O11 1.413016 1_555
B5 O18 1.381138 1_555
B5 O12 1.392646 1_555
B5 O19 1.413805 1_555
B6 O25 1.370675 1_555
B6 O20 1.371469 1_555
B6 O16 1.422424 1_555
B7 O21 1.361661 1_555
B7 O32 1.397953 1_545
B7 O34 1.406914 1_545
B8 O30 1.377183 1_555
B8 O26 1.382829 1_555
B8 O22 1.417898 1_555
B9 O1 1.358444 1_655
B9 O24 1.401245 1_555
B9 O35 1.408146 1_545
B10 O23 1.375631 1_555
B10 O27 1.388041 1_555
B10 O29 1.397266 1_555
B11 O33 1.349254 1_555
B11 O31 1.399786 1_555
B11 O8 1.414469 1_655
