# generated using pymatgen
data_Li3Zn3(Ge3O8)2
_symmetry_space_group_name_H-M   'P 1'
_cell_length_a   8.40035100
_cell_length_b   8.39986500
_cell_length_c   8.40130868
_cell_angle_alpha   89.93953508
_cell_angle_beta   90.00000000
_cell_angle_gamma   90.00000000
_symmetry_Int_Tables_number   1
_chemical_formula_structural   Li3Zn3(Ge3O8)2
_chemical_formula_sum   'Li6 Zn6 Ge12 O32'
_cell_volume   592.81125317
_cell_formula_units_Z   2
loop_
 _symmetry_equiv_pos_site_id
 _symmetry_equiv_pos_as_xyz
  1  'x, y, z'
loop_
 _atom_site_type_symbol
 _atom_site_label
 _atom_site_symmetry_multiplicity
 _atom_site_fract_x
 _atom_site_fract_y
 _atom_site_fract_z
 _atom_site_occupancy
  Li  Li0  1  0.37456200  0.12583300  0.62723800  1
  Li  Li1  1  0.87456200  0.87416700  0.37276200  1
  Li  Li2  1  0.62405500  0.37638400  0.12330800  1
  Li  Li3  1  0.74941500  0.75027200  0.99917000  1
  Li  Li4  1  0.24941500  0.24972800  0.00083000  1
  Li  Li5  1  0.12405500  0.62361600  0.87669200  1
  Zn  Zn0  1  0.00047000  0.00039300  0.75133900  1
  Zn  Zn1  1  0.50074400  0.49987500  0.75116400  1
  Zn  Zn2  1  0.24948400  0.74993800  0.50079400  1
  Zn  Zn3  1  0.74948400  0.25006200  0.49920600  1
  Zn  Zn4  1  0.50047000  0.99960700  0.24866100  1
  Zn  Zn5  1  0.00074400  0.50012500  0.24883600  1
  Ge  Ge0  1  0.62494800  0.87941600  0.62393800  1
  Ge  Ge1  1  0.12996400  0.37375400  0.63367100  1
  Ge  Ge2  1  0.87883000  0.62875100  0.62932300  1
  Ge  Ge3  1  0.62996400  0.62624600  0.36632900  1
  Ge  Ge4  1  0.37883000  0.37124900  0.37067700  1
  Ge  Ge5  1  0.12494800  0.12058400  0.37606200  1
  Ge  Ge6  1  0.11768300  0.87256200  0.12385500  1
  Ge  Ge7  1  0.37803700  0.61833200  0.11989100  1
  Ge  Ge8  1  0.87363700  0.12075000  0.12766500  1
  Ge  Ge9  1  0.37363700  0.87925000  0.87233500  1
  Ge  Ge10  1  0.87803700  0.38166800  0.88010900  1
  Ge  Ge11  1  0.61768300  0.12743800  0.87614500  1
  O  O0  1  0.10441300  0.60630000  0.62251600  1
  O  O1  1  0.63870000  0.63919300  0.61087300  1
  O  O2  1  0.12254500  0.14248000  0.60294900  1
  O  O3  1  0.62758800  0.10523300  0.64285800  1
  O  O4  1  0.39233500  0.87259400  0.64589500  1
  O  O5  1  0.85717500  0.85465000  0.62752400  1
  O  O6  1  0.35484400  0.37742500  0.60604600  1
  O  O7  1  0.88811500  0.38764000  0.63675300  1
  O  O8  1  0.12758800  0.89476700  0.35714200  1
  O  O9  1  0.38811500  0.61236000  0.36324700  1
  O  O10  1  0.62254500  0.85752000  0.39705100  1
  O  O11  1  0.85484400  0.62257500  0.39395400  1
  O  O12  1  0.13870000  0.36080700  0.38912700  1
  O  O13  1  0.35717500  0.14535000  0.37247600  1
  O  O14  1  0.60441300  0.39370000  0.37748400  1
  O  O15  1  0.89233500  0.12740600  0.35410500  1
  O  O16  1  0.36067200  0.86119400  0.11122500  1
  O  O17  1  0.89609200  0.89387600  0.12133100  1
  O  O18  1  0.14417300  0.64713400  0.12749300  1
  O  O19  1  0.60461400  0.62902900  0.14565600  1
  O  O20  1  0.37125400  0.39707200  0.14471800  1
  O  O21  1  0.87750600  0.35552900  0.10461500  1
  O  O22  1  0.11092800  0.11040000  0.14030700  1
  O  O23  1  0.64721500  0.12246300  0.10699900  1
  O  O24  1  0.14721500  0.87753700  0.89300100  1
  O  O25  1  0.61092800  0.88960000  0.85969300  1
  O  O26  1  0.37750600  0.64447100  0.89538500  1
  O  O27  1  0.87125400  0.60292800  0.85528200  1
  O  O28  1  0.10461400  0.37097100  0.85434400  1
  O  O29  1  0.64417300  0.35286600  0.87250700  1
  O  O30  1  0.39609200  0.10612400  0.87866900  1
  O  O31  1  0.86067200  0.13880600  0.88877500  1
loop_
_geom_bond_atom_site_label_1
_geom_bond_atom_site_label_2
_geom_bond_distance
_geom_bond_site_symmetry_2
Li0 O30 2.126358 1_555
Li0 O6 2.127097 1_555
Li0 O2 2.131421 1_555
Li0 O3 2.136562 1_555
Li0 O4 2.137995 1_545
Li0 O13 2.151395 1_555
Li1 O17 2.126358 1_555
Li1 O11 2.127097 1_555
Li1 O10 2.131421 1_555
Li1 O8 2.136562 1_655
Li1 O15 2.137995 1_565
Li1 O5 2.151395 1_555
Li2 O29 2.123241 1_554
Li2 O19 2.136920 1_555
Li2 O20 2.138310 1_555
Li2 O21 2.142050 1_555
Li2 O23 2.146279 1_555
Li2 O14 2.146862 1_555
Li3 O19 2.007157 1_556
Li3 O17 2.007273 1_556
Li3 O27 2.010927 1_555
Li3 O25 2.023176 1_555
Li4 O28 2.007157 1_554
Li4 O30 2.007273 1_554
Li4 O20 2.010927 1_555
Li4 O22 2.023176 1_555
Li5 O18 2.123241 1_556
Li5 O28 2.136920 1_555
Li5 O27 2.138310 1_455
Li5 O26 2.142050 1_555
Li5 O24 2.146279 1_555
Li5 O0 2.146862 1_555
Ge0 O3 1.903777 1_565
Ge0 O10 1.915300 1_555
Ge0 O5 1.962077 1_555
Ge0 O4 1.963549 1_555
Ge0 O25 1.986082 1_555
Ge0 O1 2.024239 1_555
Ge1 O28 1.866254 1_555
Ge1 O6 1.903520 1_555
Ge1 O2 1.961002 1_555
Ge1 O0 1.967247 1_555
Ge1 O7 2.035128 1_455
Ge1 O12 2.058789 1_555
Ge2 O0 1.905202 1_655
Ge2 O5 1.906265 1_555
Ge2 O27 1.911536 1_555
Ge2 O11 1.988378 1_555
Ge2 O1 2.025016 1_555
Ge2 O7 2.027696 1_555
Ge3 O19 1.866254 1_555
Ge3 O11 1.903520 1_555
Ge3 O10 1.961002 1_555
Ge3 O14 1.967247 1_555
Ge3 O9 2.035128 1_555
Ge3 O1 2.058789 1_555
Ge4 O14 1.905202 1_555
Ge4 O13 1.906265 1_555
Ge4 O20 1.911536 1_555
Ge4 O6 1.988378 1_555
Ge4 O12 2.025016 1_555
Ge4 O9 2.027696 1_555
Ge5 O8 1.903777 1_545
Ge5 O2 1.915300 1_555
Ge5 O13 1.962077 1_555
Ge5 O15 1.963549 1_455
Ge5 O22 1.986082 1_555
Ge5 O12 2.024239 1_555
Ge6 O17 1.870150 1_455
Ge6 O18 1.906808 1_555
Ge6 O24 1.955680 1_554
Ge6 O8 1.970725 1_555
Ge6 O22 2.003532 1_565
Ge6 O16 2.046184 1_555
Ge7 O20 1.870871 1_555
Ge7 O26 1.898656 1_554
Ge7 O19 1.917712 1_555
Ge7 O18 1.980419 1_555
Ge7 O16 2.046436 1_555
Ge7 O9 2.046823 1_555
Ge8 O15 1.909743 1_555
Ge8 O23 1.909985 1_555
Ge8 O17 1.915819 1_545
Ge8 O21 1.981660 1_555
Ge8 O22 1.998043 1_655
Ge8 O31 2.015496 1_554
Ge9 O4 1.909743 1_555
Ge9 O24 1.909985 1_555
Ge9 O30 1.915819 1_565
Ge9 O26 1.981660 1_555
Ge9 O25 1.998043 1_555
Ge9 O16 2.015496 1_556
Ge10 O27 1.870871 1_555
Ge10 O21 1.898656 1_556
Ge10 O28 1.917712 1_655
Ge10 O29 1.980419 1_555
Ge10 O31 2.046436 1_555
Ge10 O7 2.046823 1_555
Ge11 O30 1.870150 1_555
Ge11 O29 1.906808 1_555
Ge11 O23 1.955680 1_556
Ge11 O3 1.970725 1_555
Ge11 O25 2.003532 1_545
Ge11 O31 2.046184 1_555
O0 Zn2 1.995995 1_555
O1 Zn1 2.024535 1_555
O2 Zn0 2.006766 1_555
O3 Zn3 1.995474 1_555
O4 Zn2 1.997550 1_555
O5 Zn0 2.008084 1_665
O6 Zn1 2.012241 1_555
O7 Zn3 2.007447 1_555
O8 Zn2 1.995474 1_555
O9 Zn2 2.007447 1_555
O10 Zn4 2.006766 1_555
O11 Zn5 2.012241 1_655
O12 Zn5 2.024535 1_555
O13 Zn4 2.008084 1_545
O14 Zn3 1.995995 1_555
O15 Zn3 1.997550 1_555
O16 Zn4 2.016654 1_555
O18 Zn5 2.003283 1_555
O21 Zn5 2.004529 1_655
O23 Zn4 1.999600 1_545
O24 Zn0 1.999600 1_565
O26 Zn1 2.004529 1_555
O29 Zn1 2.003283 1_555
O31 Zn0 2.016654 1_655
