# generated using pymatgen
data_Ti2N2O
_symmetry_space_group_name_H-M   'P 1'
_cell_length_a   8.23576602
_cell_length_b   8.23181707
_cell_length_c   8.22768973
_cell_angle_alpha   109.55984507
_cell_angle_beta   109.50919679
_cell_angle_gamma   109.47548265
_symmetry_Int_Tables_number   1
_chemical_formula_structural   Ti2N2O
_chemical_formula_sum   'Ti16 N16 O8'
_cell_volume   428.69869880
_cell_formula_units_Z   8
loop_
 _symmetry_equiv_pos_site_id
 _symmetry_equiv_pos_as_xyz
  1  'x, y, z'
loop_
 _atom_site_type_symbol
 _atom_site_label
 _atom_site_symmetry_multiplicity
 _atom_site_fract_x
 _atom_site_fract_y
 _atom_site_fract_z
 _atom_site_occupancy
  Ti  Ti0  1  0.49352800  0.01210900  0.00327800  1
  Ti  Ti1  1  0.94964400  0.23665000  0.20558300  1
  Ti  Ti2  1  0.79329700  0.04413300  0.75019400  1
  Ti  Ti3  1  0.69646400  0.45301700  0.24013700  1
  Ti  Ti4  1  0.75275800  0.78570800  0.05331600  1
  Ti  Ti5  1  0.76254800  0.29802300  0.55055100  1
  Ti  Ti6  1  0.99878700  0.48520200  0.98925400  1
  Ti  Ti7  1  0.50223800  0.51112800  0.50454000  1
  Ti  Ti8  1  0.53297200  0.73729500  0.29218200  1
  Ti  Ti9  1  0.01304000  0.00177400  0.50427500  1
  Ti  Ti10  1  0.45768600  0.25660700  0.71228700  1
  Ti  Ti11  1  0.25366300  0.71835400  0.45508900  1
  Ti  Ti12  1  0.24124700  0.20496600  0.95089600  1
  Ti  Ti13  1  0.20814800  0.95477500  0.24826700  1
  Ti  Ti14  1  0.29785100  0.54597500  0.75202200  1
  Ti  Ti15  1  0.05689800  0.76039400  0.79231300  1
  N  N0  1  0.00722600  0.05014700  0.27232000  1
  N  N1  1  0.73673400  0.22676500  0.27626800  1
  N  N2  1  0.45095700  0.46039700  0.22872800  1
  N  N3  1  0.77134600  0.72053600  0.25953600  1
  N  N4  1  0.72592000  0.26535800  0.77269200  1
  N  N5  1  0.27654400  0.73547500  0.22376500  1
  N  N6  1  0.51051600  0.23554800  0.95875800  1
  N  N7  1  0.54201500  0.77417300  0.55133100  1
  N  N8  1  0.22202000  0.27630700  0.73194800  1
  N  N9  1  0.27576300  0.00600600  0.05097400  1
  N  N10  1  0.54942300  0.54286600  0.77410600  1
  N  N11  1  0.23471500  0.95935000  0.50930700  1
  N  N12  1  0.04823700  0.27437400  0.01048700  1
  N  N13  1  0.26541200  0.77386000  0.72572100  1
  N  N14  1  0.03757400  0.48892800  0.76335800  1
  N  N15  1  0.98838900  0.94527000  0.72077100  1
  O  O0  1  0.96394600  0.51156300  0.23945500  1
  O  O1  1  0.94958500  0.72490800  0.99625400  1
  O  O2  1  0.76603200  0.04192600  0.49298500  1
  O  O3  1  0.72340800  0.99229300  0.94851200  1
  O  O4  1  0.45545800  0.22530400  0.44939900  1
  O  O5  1  0.49384500  0.76658900  0.03905200  1
  O  O6  1  0.76840200  0.54502800  0.54302700  1
  O  O7  1  0.22576200  0.45092000  0.45706100  1
loop_
_geom_bond_atom_site_label_1
_geom_bond_atom_site_label_2
_geom_bond_distance
_geom_bond_site_symmetry_2
N0 Ti1 1.938925 1_455
N0 Ti4 2.046180 1_445
N0 Ti9 2.064842 1_555
N0 Ti13 2.091569 1_545
N1 Ti1 2.009279 1_555
N1 Ti0 2.038819 1_555
N1 Ti5 2.047457 1_555
N1 Ti3 2.093776 1_555
N2 Ti8 1.966056 1_555
N2 Ti3 2.014868 1_555
N2 Ti7 2.027357 1_555
N2 Ti12 2.086307 1_554
N3 Ti4 1.918557 1_555
N3 Ti3 2.012129 1_555
N3 Ti8 2.110282 1_555
N3 Ti9 2.122550 1_665
N4 Ti6 1.988641 1_555
N4 Ti5 2.036431 1_555
N4 Ti2 2.043341 1_555
N4 Ti10 2.066148 1_555
N5 Ti8 1.989062 1_555
N5 Ti11 2.019711 1_555
N5 Ti13 2.031515 1_555
N5 Ti6 2.109017 1_454
N6 Ti0 1.962285 1_556
N6 Ti3 1.984573 1_556
N6 Ti10 2.006999 1_555
N6 Ti12 2.122850 1_555
N7 Ti7 1.956734 1_555
N7 Ti8 2.022233 1_555
N7 Ti2 2.033595 1_565
N7 Ti11 2.061693 1_555
N8 Ti9 1.999214 1_555
N8 Ti14 2.026390 1_555
N8 Ti12 2.048164 1_555
N8 Ti10 2.054637 1_555
N9 Ti0 1.948392 1_555
N9 Ti15 1.998163 1_544
N9 Ti13 2.007105 1_545
N9 Ti12 2.120921 1_554
N10 Ti7 2.026577 1_555
N10 Ti14 2.028156 1_555
N10 Ti10 2.033704 1_555
N10 Ti4 2.049691 1_556
N11 Ti11 1.954307 1_555
N11 Ti9 1.959860 1_565
N11 Ti13 2.070899 1_555
N11 Ti10 2.089962 1_565
N12 Ti6 1.958345 1_454
N12 Ti12 2.008034 1_554
N12 Ti2 2.052416 1_454
N12 Ti1 2.090115 1_455
N13 Ti15 1.950301 1_555
N13 Ti14 2.050514 1_555
N13 Ti0 2.066313 1_566
N13 Ti11 2.078845 1_555
N14 Ti5 1.949602 1_455
N14 Ti6 1.996390 1_455
N14 Ti14 2.077450 1_555
N14 Ti15 2.111125 1_555
N15 Ti15 1.982792 1_655
N15 Ti9 2.040537 1_665
N15 Ti12 2.044358 1_665
N15 Ti2 2.074196 1_565
O0 Ti11 2.044642 1_655
O0 Ti3 2.094585 1_555
O0 Ti6 2.122288 1_554
O0 Ti1 2.142639 1_555
O1 Ti4 1.997647 1_556
O1 Ti13 2.037496 1_656
O1 Ti6 2.129262 1_555
O1 Ti15 2.197400 1_655
O2 Ti5 2.012527 1_555
O2 Ti2 2.045324 1_555
O2 Ti9 2.144515 1_655
O2 Ti8 2.144870 1_545
O3 Ti1 2.002831 1_566
O3 Ti2 2.026228 1_565
O3 Ti0 2.130845 1_566
O3 Ti4 2.193324 1_556
O4 Ti13 2.025575 1_545
O4 Ti10 2.083814 1_555
O4 Ti7 2.110505 1_555
O4 Ti5 2.167593 1_555
O5 Ti14 2.026876 1_554
O5 Ti4 2.045031 1_555
O5 Ti8 2.106980 1_555
O5 Ti0 2.138390 1_565
O6 Ti7 2.013108 1_555
O6 Ti5 2.039944 1_555
O6 Ti15 2.120535 1_655
O6 Ti3 2.141478 1_555
O7 Ti7 2.026495 1_555
O7 Ti1 2.074265 1_455
O7 Ti14 2.076225 1_555
O7 Ti11 2.142106 1_555
