# generated using pymatgen
data_Mn3OF5
_symmetry_space_group_name_H-M   'P 1'
_cell_length_a   5.91220281
_cell_length_b   5.91220281
_cell_length_c   7.53947703
_cell_angle_alpha   73.06038395
_cell_angle_beta   73.06038395
_cell_angle_gamma   74.27467259
_symmetry_Int_Tables_number   1
_chemical_formula_structural   Mn3OF5
_chemical_formula_sum   'Mn6 O2 F10'
_cell_volume   236.12227437
_cell_formula_units_Z   2
loop_
 _symmetry_equiv_pos_site_id
 _symmetry_equiv_pos_as_xyz
  1  'x, y, z'
loop_
 _atom_site_type_symbol
 _atom_site_label
 _atom_site_symmetry_multiplicity
 _atom_site_fract_x
 _atom_site_fract_y
 _atom_site_fract_z
 _atom_site_occupancy
  Mn  Mn0  1  0.50000000  0.50000000  0.00000000  1
  Mn  Mn1  1  0.15091200  0.15091200  0.84425000  1
  Mn  Mn2  1  0.50000000  0.50000000  0.50000000  1
  Mn  Mn3  1  0.15780500  0.15780500  0.32078000  1
  Mn  Mn4  1  0.84219500  0.84219500  0.67922000  1
  Mn  Mn5  1  0.84908800  0.84908800  0.15575000  1
  O  O0  1  0.06187600  0.06187600  0.12040800  1
  O  O1  1  0.93812400  0.93812400  0.87959200  1
  F  F0  1  0.47566500  0.85714300  0.82545600  1
  F  F1  1  0.79811700  0.20188300  0.50000000  1
  F  F2  1  0.74872500  0.74872500  0.44837600  1
  F  F3  1  0.37762800  0.37762800  0.80642100  1
  F  F4  1  0.62237200  0.62237200  0.19357900  1
  F  F5  1  0.25127500  0.25127500  0.55162400  1
  F  F6  1  0.20188300  0.79811700  0.50000000  1
  F  F7  1  0.85714300  0.47566500  0.82545600  1
  F  F8  1  0.52433500  0.14285700  0.17454400  1
  F  F9  1  0.14285700  0.52433500  0.17454400  1
loop_
_geom_bond_atom_site_label_1
_geom_bond_atom_site_label_2
_geom_bond_distance
_geom_bond_site_symmetry_2
Mn1 O1 1.924466 1_445
Mn1 O0 1.939621 1_556
Mn3 O0 2.024463 1_555
Mn4 O1 2.024463 1_555
Mn5 O0 1.924466 1_665
Mn5 O1 1.939621 1_554
F0 Mn4 2.116604 1_555
F0 Mn0 2.130110 1_556
F0 Mn1 2.213671 1_565
F1 Mn2 2.128174 1_555
F1 Mn3 2.155527 1_655
F1 Mn4 2.155527 1_545
F2 Mn5 2.058356 1_555
F2 Mn4 2.219541 1_555
F2 Mn2 2.231904 1_555
F3 Mn1 2.050115 1_555
F3 Mn0 2.165946 1_556
F3 Mn2 2.172529 1_555
F4 Mn5 2.050115 1_555
F4 Mn0 2.165946 1_555
F4 Mn2 2.172529 1_555
F5 Mn1 2.058356 1_555
F5 Mn3 2.219541 1_555
F5 Mn2 2.231904 1_555
F6 Mn2 2.128174 1_555
F6 Mn3 2.155527 1_565
F6 Mn4 2.155527 1_455
F7 Mn4 2.116604 1_555
F7 Mn0 2.130110 1_556
F7 Mn1 2.213671 1_655
F8 Mn3 2.116604 1_555
F8 Mn0 2.130110 1_555
F8 Mn5 2.213671 1_545
F9 Mn3 2.116604 1_555
F9 Mn0 2.130110 1_555
F9 Mn5 2.213671 1_455
