# generated using pymatgen
data_Li3Ti3(PO4)4
_symmetry_space_group_name_H-M   'P 1'
_cell_length_a   10.17459550
_cell_length_b   10.17459550
_cell_length_c   10.71357675
_cell_angle_alpha   88.74783526
_cell_angle_beta   88.74783526
_cell_angle_gamma   36.99462569
_symmetry_Int_Tables_number   1
_chemical_formula_structural   Li3Ti3(PO4)4
_chemical_formula_sum   'Li6 Ti6 P8 O32'
_cell_volume   667.20980245
_cell_formula_units_Z   2
loop_
 _symmetry_equiv_pos_site_id
 _symmetry_equiv_pos_as_xyz
  1  'x, y, z'
loop_
 _atom_site_type_symbol
 _atom_site_label
 _atom_site_symmetry_multiplicity
 _atom_site_fract_x
 _atom_site_fract_y
 _atom_site_fract_z
 _atom_site_occupancy
  Li  Li0  1  0.79173000  0.07059100  0.47113500  1
  Li  Li1  1  0.07059100  0.79173000  0.97113500  1
  Li  Li2  1  0.92940900  0.20827000  0.02886500  1
  Li  Li3  1  0.20827000  0.92940900  0.52886500  1
  Li  Li4  1  0.40937200  0.59062800  0.25000000  1
  Li  Li5  1  0.59062800  0.40937200  0.75000000  1
  Ti  Ti0  1  0.36583700  0.32499100  0.24848100  1
  Ti  Ti1  1  0.32499100  0.36583700  0.74848100  1
  Ti  Ti2  1  0.50000000  0.00000000  0.00000000  1
  Ti  Ti3  1  0.00000000  0.50000000  0.50000000  1
  Ti  Ti4  1  0.67500900  0.63416300  0.25151900  1
  Ti  Ti5  1  0.63416300  0.67500900  0.75151900  1
  P  P0  1  0.25597900  0.58361600  0.49172300  1
  P  P1  1  0.58361600  0.25597900  0.99172300  1
  P  P2  1  0.81909800  0.78329000  0.24358500  1
  P  P3  1  0.78329000  0.81909800  0.74358500  1
  P  P4  1  0.21671000  0.18090200  0.25641500  1
  P  P5  1  0.18090200  0.21671000  0.75641500  1
  P  P6  1  0.41638400  0.74402100  0.00827700  1
  P  P7  1  0.74402100  0.41638400  0.50827700  1
  O  O0  1  0.18442200  0.78045500  0.46157300  1
  O  O1  1  0.78045500  0.18442200  0.96157300  1
  O  O2  1  0.47046200  0.37557300  0.12007900  1
  O  O3  1  0.42129500  0.40707100  0.38666200  1
  O  O4  1  0.37557300  0.47046200  0.62007900  1
  O  O5  1  0.40707100  0.42129500  0.88666200  1
  O  O6  1  0.05157300  0.65585600  0.49261000  1
  O  O7  1  0.05371700  0.63709200  0.21190000  1
  O  O8  1  0.65585600  0.05157300  0.99261000  1
  O  O9  1  0.67930800  0.01324600  0.27747300  1
  O  O10  1  0.63709200  0.05371700  0.71190000  1
  O  O11  1  0.01324600  0.67930800  0.77747300  1
  O  O12  1  0.22872100  0.27724700  0.36249200  1
  O  O13  1  0.30873800  0.19982400  0.14665000  1
  O  O14  1  0.27724700  0.22872100  0.86249200  1
  O  O15  1  0.19982400  0.30873800  0.64665000  1
  O  O16  1  0.80017600  0.69126200  0.35335000  1
  O  O17  1  0.72275300  0.77127900  0.13750800  1
  O  O18  1  0.69126200  0.80017600  0.85335000  1
  O  O19  1  0.77127900  0.72275300  0.63750800  1
  O  O20  1  0.98675400  0.32069200  0.22252700  1
  O  O21  1  0.36290800  0.94628300  0.28810000  1
  O  O22  1  0.32069200  0.98675400  0.72252700  1
  O  O23  1  0.34414400  0.94842700  0.00739000  1
  O  O24  1  0.94628300  0.36290800  0.78810000  1
  O  O25  1  0.94842700  0.34414400  0.50739000  1
  O  O26  1  0.59292900  0.57870500  0.11333800  1
  O  O27  1  0.62442700  0.52953800  0.37992100  1
  O  O28  1  0.57870500  0.59292900  0.61333800  1
  O  O29  1  0.52953800  0.62442700  0.87992100  1
  O  O30  1  0.21954500  0.81557800  0.03842700  1
  O  O31  1  0.81557800  0.21954500  0.53842700  1
loop_
_geom_bond_atom_site_label_1
_geom_bond_atom_site_label_2
_geom_bond_distance
_geom_bond_site_symmetry_2
Li0 O31 1.875720 1_555
Li0 O3 2.479353 1_555
Li1 O30 1.875720 1_556
Li1 O5 2.479353 1_555
Li2 O1 1.875720 1_554
Li2 O26 2.479353 1_555
Li3 O0 1.875720 1_555
Li3 O28 2.479353 1_555
Li4 O2 2.243732 1_555
Li4 O27 2.243732 1_555
Li4 O3 2.274370 1_555
Li4 O26 2.274370 1_555
Li5 O4 2.243732 1_555
Li5 O29 2.243732 1_555
Li5 O5 2.274370 1_555
Li5 O28 2.274370 1_555
O0 P0 1.516000 1_555
O1 P1 1.516000 1_555
O2 P1 1.569493 1_554
O2 Ti0 2.017586 1_555
O3 P0 1.581789 1_555
O3 Ti0 2.012645 1_555
O4 P0 1.569493 1_555
O4 Ti1 2.017586 1_555
O5 P1 1.581789 1_555
O5 Ti1 2.012645 1_555
O6 P0 1.556696 1_555
O6 Ti3 2.029330 1_555
O7 P2 1.530001 1_455
O7 Ti0 2.052742 1_555
O8 P1 1.556696 1_555
O8 Ti2 2.029330 1_556
O9 P2 1.525719 1_545
O9 Ti0 2.042082 1_555
O10 P3 1.530001 1_545
O10 Ti1 2.052742 1_555
O11 P3 1.525719 1_455
O11 Ti1 2.042082 1_555
O12 P4 1.585414 1_555
O12 Ti3 2.072104 1_555
O12 Ti0 2.157871 1_555
O13 P4 1.589550 1_555
O13 Ti2 2.018668 1_555
O13 Ti0 2.102350 1_555
O14 P5 1.585414 1_555
O14 Ti2 2.072104 1_556
O14 Ti1 2.157871 1_555
O15 P5 1.589550 1_555
O15 Ti3 2.018668 1_555
O15 Ti1 2.102350 1_555
O16 P2 1.589550 1_555
O16 Ti3 2.018668 1_655
O16 Ti4 2.102350 1_555
O17 P2 1.585414 1_555
O17 Ti2 2.072104 1_565
O17 Ti4 2.157871 1_555
O18 P3 1.589550 1_555
O18 Ti2 2.018668 1_566
O18 Ti5 2.102350 1_555
O19 P3 1.585414 1_555
O19 Ti3 2.072104 1_655
O19 Ti5 2.157871 1_555
O20 P4 1.525719 1_655
O20 Ti4 2.042082 1_555
O21 P4 1.530001 1_565
O21 Ti4 2.052742 1_555
O22 P5 1.525719 1_565
O22 Ti5 2.042082 1_555
O23 P6 1.556696 1_555
O23 Ti2 2.029330 1_565
O24 P5 1.530001 1_655
O24 Ti5 2.052742 1_555
O25 P7 1.556696 1_555
O25 Ti3 2.029330 1_655
O26 P6 1.581789 1_555
O26 Ti4 2.012645 1_555
O27 P7 1.569493 1_555
O27 Ti4 2.017586 1_555
O28 P7 1.581789 1_555
O28 Ti5 2.012645 1_555
O29 P6 1.569493 1_556
O29 Ti5 2.017586 1_555
O30 P6 1.516000 1_555
O31 P7 1.516000 1_555
