# generated using pymatgen
data_Li5Fe3(CoO5)2
_symmetry_space_group_name_H-M   'P 1'
_cell_length_a   5.06787000
_cell_length_b   5.18634902
_cell_length_c   7.91874959
_cell_angle_alpha   107.83241005
_cell_angle_beta   100.98262989
_cell_angle_gamma   101.44069854
_symmetry_Int_Tables_number   1
_chemical_formula_structural   Li5Fe3(CoO5)2
_chemical_formula_sum   'Li5 Fe3 Co2 O10'
_cell_volume   187.02443458
_cell_formula_units_Z   1
loop_
 _symmetry_equiv_pos_site_id
 _symmetry_equiv_pos_as_xyz
  1  'x, y, z'
loop_
 _atom_site_type_symbol
 _atom_site_label
 _atom_site_symmetry_multiplicity
 _atom_site_fract_x
 _atom_site_fract_y
 _atom_site_fract_z
 _atom_site_occupancy
  Li  Li0  1  0.38720600  0.08645500  0.41311500  1
  Li  Li1  1  0.83334600  0.74086000  0.77244500  1
  Li  Li2  1  0.50000000  0.50000000  0.50000000  1
  Li  Li3  1  0.16665400  0.25914000  0.22755500  1
  Li  Li4  1  0.61279400  0.91354500  0.58688500  1
  Fe  Fe0  1  0.00000000  0.50000000  0.00000000  1
  Fe  Fe1  1  0.90635100  0.10839700  0.89256100  1
  Fe  Fe2  1  0.09364900  0.89160300  0.10743900  1
  Co  Co0  1  0.73385700  0.32625900  0.68267800  1
  Co  Co1  1  0.26614300  0.67374100  0.31732200  1
  O  O0  1  0.32092600  0.38483000  0.86372000  1
  O  O1  1  0.44390500  0.81713200  0.94877300  1
  O  O2  1  0.04332700  0.22221400  0.54581900  1
  O  O3  1  0.75731500  0.00390500  0.23495900  1
  O  O4  1  0.11544500  0.56984000  0.66382600  1
  O  O5  1  0.88455500  0.43016000  0.33617400  1
  O  O6  1  0.24268500  0.99609500  0.76504100  1
  O  O7  1  0.95667300  0.77778600  0.45418100  1
  O  O8  1  0.55609500  0.18286800  0.05122700  1
  O  O9  1  0.67907400  0.61517000  0.13628000  1
loop_
_geom_bond_atom_site_label_1
_geom_bond_atom_site_label_2
_geom_bond_distance
_geom_bond_site_symmetry_2
Li0 Li2 1.964747 1_555
Li0 Li4 2.137241 1_545
Li0 Li3 2.188130 1_555
Li0 O2 2.317015 1_555
Li0 O7 2.575397 1_445
Li0 O3 2.578483 1_555
Li1 O4 2.018596 1_655
Li1 Li4 2.188130 1_555
Li1 O6 2.250259 1_655
Li1 Li2 2.278677 1_555
Li1 O1 2.650058 1_555
Li2 Li4 1.964747 1_555
Li2 Li3 2.278677 1_555
Li2 O5 2.562784 1_555
Li2 O4 2.562784 1_555
Li2 O7 2.623142 1_555
Li2 O2 2.623142 1_555
Li3 O5 2.018596 1_455
Li3 O3 2.250259 1_455
Li3 O8 2.650058 1_555
Li4 O7 2.317015 1_555
Li4 O2 2.575397 1_665
Li4 O6 2.578483 1_555
Fe0 O0 2.196805 1_554
Fe0 O9 2.196805 1_455
Fe1 Li1 1.775045 1_545
Fe1 O6 2.225684 1_645
Fe1 Li4 2.372125 1_545
Fe1 O8 2.388127 1_556
Fe2 Li3 1.775045 1_565
Fe2 O3 2.225684 1_465
Fe2 Li0 2.372125 1_565
Fe2 O1 2.388127 1_554
Co0 Li4 1.959777 1_545
Co0 Li1 1.969859 1_555
Co0 O2 2.133219 1_655
Co0 O4 2.148087 1_655
Co0 Li2 2.208598 1_555
Co0 Li0 2.295213 1_555
Co0 Fe0 2.405204 1_656
Co0 Fe1 2.406571 1_555
Co0 O0 2.766848 1_555
Co1 Li0 1.959777 1_565
Co1 Li3 1.969859 1_555
Co1 O7 2.133219 1_455
Co1 O5 2.148087 1_455
Co1 Li2 2.208598 1_555
Co1 Li4 2.295213 1_555
Co1 Fe0 2.405204 1_555
Co1 Fe2 2.406571 1_555
Co1 O9 2.766848 1_555
O0 O6 1.852692 1_545
O1 O8 1.741647 1_566
O2 O4 1.683417 1_555
O3 O9 1.852692 1_545
O5 O7 1.683417 1_555
