# generated using pymatgen
data_H2RhN2Cl5O
_symmetry_space_group_name_H-M   'P 1'
_cell_length_a   7.08386700
_cell_length_b   9.60083500
_cell_length_c   13.73250300
_cell_angle_alpha   90.00000000
_cell_angle_beta   90.00000000
_cell_angle_gamma   90.00000000
_symmetry_Int_Tables_number   1
_chemical_formula_structural   H2RhN2Cl5O
_chemical_formula_sum   'H8 Rh4 N8 Cl20 O4'
_cell_volume   933.96178651
_cell_formula_units_Z   4
loop_
 _symmetry_equiv_pos_site_id
 _symmetry_equiv_pos_as_xyz
  1  'x, y, z'
loop_
 _atom_site_type_symbol
 _atom_site_label
 _atom_site_symmetry_multiplicity
 _atom_site_fract_x
 _atom_site_fract_y
 _atom_site_fract_z
 _atom_site_occupancy
  H  H0  1  0.54494800  0.16536200  0.46982300  1
  H  H1  1  0.95505200  0.33463800  0.96982300  1
  H  H2  1  0.45505200  0.66536200  0.53017700  1
  H  H3  1  0.04494800  0.83463800  0.03017700  1
  H  H4  1  0.45505200  0.83463800  0.53017700  1
  H  H5  1  0.04494800  0.66536200  0.03017700  1
  H  H6  1  0.54494800  0.33463800  0.46982300  1
  H  H7  1  0.95505200  0.16536200  0.96982300  1
  Rh  Rh0  1  0.30092500  0.25000000  0.61266400  1
  Rh  Rh1  1  0.19907500  0.25000000  0.11266400  1
  Rh  Rh2  1  0.69907500  0.75000000  0.38733600  1
  Rh  Rh3  1  0.80092500  0.75000000  0.88733600  1
  N  N0  1  0.34045900  0.00260700  0.85640600  1
  N  N1  1  0.15954100  0.49739300  0.35640600  1
  N  N2  1  0.65954100  0.50260700  0.14359400  1
  N  N3  1  0.84045900  0.99739300  0.64359400  1
  N  N4  1  0.65954100  0.99739300  0.14359400  1
  N  N5  1  0.84045900  0.50260700  0.64359400  1
  N  N6  1  0.34045900  0.49739300  0.85640600  1
  N  N7  1  0.15954100  0.00260700  0.35640600  1
  Cl  Cl0  1  0.04849200  0.25000000  0.50722000  1
  Cl  Cl1  1  0.45150800  0.25000000  0.00722000  1
  Cl  Cl2  1  0.95150800  0.75000000  0.49278000  1
  Cl  Cl3  1  0.54849200  0.75000000  0.99278000  1
  Cl  Cl4  1  0.10750000  0.25000000  0.74291200  1
  Cl  Cl5  1  0.39250000  0.25000000  0.24291200  1
  Cl  Cl6  1  0.89250000  0.75000000  0.25708800  1
  Cl  Cl7  1  0.60750000  0.75000000  0.75708800  1
  Cl  Cl8  1  0.56623400  0.25000000  0.70907100  1
  Cl  Cl9  1  0.93376600  0.25000000  0.20907100  1
  Cl  Cl10  1  0.43376600  0.75000000  0.29092900  1
  Cl  Cl11  1  0.06623400  0.75000000  0.79092900  1
  Cl  Cl12  1  0.30798400  0.00712200  0.60829400  1
  Cl  Cl13  1  0.19201600  0.49287800  0.10829400  1
  Cl  Cl14  1  0.69201600  0.50712200  0.39170600  1
  Cl  Cl15  1  0.80798400  0.99287800  0.89170600  1
  Cl  Cl16  1  0.69201600  0.99287800  0.39170600  1
  Cl  Cl17  1  0.80798400  0.50712200  0.89170600  1
  Cl  Cl18  1  0.30798400  0.49287800  0.60829400  1
  Cl  Cl19  1  0.19201600  0.00712200  0.10829400  1
  O  O0  1  0.47042400  0.25000000  0.48319900  1
  O  O1  1  0.02957600  0.25000000  0.98319900  1
  O  O2  1  0.52957600  0.75000000  0.51680100  1
  O  O3  1  0.97042400  0.75000000  0.01680100  1
loop_
_geom_bond_atom_site_label_1
_geom_bond_atom_site_label_2
_geom_bond_distance
_geom_bond_site_symmetry_2
H0 O0 0.986281 1_555
H1 O1 0.986281 1_655
H2 O2 0.986281 1_555
H3 O3 0.986281 1_455
H4 O2 0.986281 1_555
H5 O3 0.986281 1_455
H6 O0 0.986281 1_555
H7 O1 0.986281 1_655
Cl0 Rh0 2.300956 1_555
Cl1 Rh1 2.300956 1_555
Cl2 Rh2 2.300956 1_555
Cl3 Rh3 2.300956 1_555
Cl4 Rh0 2.253140 1_555
Cl5 Rh1 2.253140 1_555
Cl6 Rh2 2.253140 1_555
Cl7 Rh3 2.253140 1_555
Cl8 Rh0 2.298898 1_555
Cl9 Rh1 2.298898 1_655
Cl10 Rh2 2.298898 1_555
Cl11 Rh3 2.298898 1_455
Cl12 Rh0 2.333140 1_555
Cl13 Rh1 2.333140 1_555
Cl14 Rh2 2.333140 1_555
Cl15 Rh3 2.333140 1_555
Cl16 Rh2 2.333140 1_555
Cl17 Rh3 2.333140 1_555
Cl18 Rh0 2.333140 1_555
Cl19 Rh1 2.333140 1_555
O0 Rh0 2.145356 1_555
O1 Rh1 2.145356 1_556
O2 Rh2 2.145356 1_555
O3 Rh3 2.145356 1_554
