# generated using pymatgen
data_Li6MnV3(PO4)6
_symmetry_space_group_name_H-M   'P 1'
_cell_length_a   6.36385700
_cell_length_b   8.62813054
_cell_length_c   16.66494707
_cell_angle_alpha   79.29611488
_cell_angle_beta   84.43753242
_cell_angle_gamma   74.02484782
_symmetry_Int_Tables_number   1
_chemical_formula_structural   Li6MnV3(PO4)6
_chemical_formula_sum   'Li12 Mn2 V6 P12 O48'
_cell_volume   863.38037638
_cell_formula_units_Z   2
loop_
 _symmetry_equiv_pos_site_id
 _symmetry_equiv_pos_as_xyz
  1  'x, y, z'
loop_
 _atom_site_type_symbol
 _atom_site_label
 _atom_site_symmetry_multiplicity
 _atom_site_fract_x
 _atom_site_fract_y
 _atom_site_fract_z
 _atom_site_occupancy
  Li  Li0  1  0.75373900  0.99306800  0.99724400  1
  Li  Li1  1  0.25307200  0.99610700  0.49647100  1
  Li  Li2  1  0.39386700  0.71201300  0.85602400  1
  Li  Li3  1  0.89533900  0.71316600  0.35587000  1
  Li  Li4  1  0.75094000  0.50046500  0.74971800  1
  Li  Li5  1  0.24883700  0.50084900  0.74970800  1
  Li  Li6  1  0.75037400  0.49951200  0.25028800  1
  Li  Li7  1  0.24876200  0.49979000  0.25052000  1
  Li  Li8  1  0.10618100  0.28930900  0.64278100  1
  Li  Li9  1  0.60711300  0.28689300  0.14443600  1
  Li  Li10  1  0.74886800  0.00627800  0.50185600  1
  Li  Li11  1  0.24607800  0.00619600  0.00372200  1
  Mn  Mn0  1  0.39589200  0.37605700  0.47149600  1
  Mn  Mn1  1  0.05631400  0.05692500  0.31199900  1
  V  V0  1  0.95018300  0.94336100  0.68982800  1
  V  V1  1  0.45264500  0.94105600  0.18871400  1
  V  V2  1  0.61138300  0.62334800  0.52895500  1
  V  V3  1  0.88791400  0.37950400  0.97161500  1
  V  V4  1  0.11245700  0.61995400  0.02871300  1
  V  V5  1  0.54806400  0.05718300  0.81011000  1
  P  P0  1  0.89316300  0.71363300  0.85688000  1
  P  P1  1  0.46707900  0.86276600  0.66948200  1
  P  P2  1  0.96891400  0.86132900  0.16786500  1
  P  P3  1  0.39305300  0.71405000  0.35727500  1
  P  P4  1  0.06724300  0.66432300  0.56942500  1
  P  P5  1  0.56821700  0.66118400  0.06852500  1
  P  P6  1  0.43201100  0.33857400  0.93133100  1
  P  P7  1  0.93235900  0.34016600  0.43300300  1
  P  P8  1  0.60697700  0.28786400  0.64239300  1
  P  P9  1  0.03233500  0.13733800  0.83075000  1
  P  P10  1  0.53567900  0.13410100  0.32990300  1
  P  P11  1  0.10741700  0.28342200  0.14372900  1
  O  O0  1  0.62602000  0.95054900  0.69972200  1
  O  O1  1  0.23855600  0.98824900  0.67006300  1
  O  O2  1  0.66216300  0.82833800  0.87046200  1
  O  O3  1  0.99915500  0.73679800  0.76893400  1
  O  O4  1  0.74057300  0.98732600  0.16956400  1
  O  O5  1  0.53011900  0.84348900  0.57792300  1
  O  O6  1  0.05385900  0.74033100  0.91404000  1
  O  O7  1  0.01992700  0.84852200  0.57991600  1
  O  O8  1  0.47633200  0.70416300  0.72823300  1
  O  O9  1  0.13425300  0.94574000  0.19376300  1
  O  O10  1  0.90402200  0.66063100  0.50629200  1
  O  O11  1  0.86283300  0.53780700  0.86850900  1
  O  O12  1  0.55163100  0.74411300  0.41396000  1
  O  O13  1  0.15847700  0.82975700  0.36890700  1
  O  O14  1  0.52960400  0.84465400  0.07799400  1
  O  O15  1  0.97644500  0.70344800  0.22734000  1
  O  O16  1  0.49925600  0.73452300  0.26935800  1
  O  O17  1  0.02435700  0.84077300  0.07553800  1
  O  O18  1  0.30069000  0.61282600  0.52705300  1
  O  O19  1  0.44361500  0.45549500  0.85187100  1
  O  O20  1  0.63745800  0.46289400  0.63189500  1
  O  O21  1  0.59697400  0.33984400  0.99411100  1
  O  O22  1  0.05594900  0.54484100  0.64825700  1
  O  O23  1  0.80140200  0.60078500  0.02487900  1
  O  O24  1  0.19887000  0.39892300  0.97505400  1
  O  O25  1  0.94334100  0.45443600  0.35266300  1
  O  O26  1  0.40290000  0.66023100  0.00572700  1
  O  O27  1  0.35864500  0.53863400  0.37033100  1
  O  O28  1  0.55599000  0.54407900  0.14785700  1
  O  O29  1  0.69689700  0.40499400  0.47633600  1
  O  O30  1  0.96991600  0.15693600  0.92253300  1
  O  O31  1  0.49985600  0.26269500  0.73020800  1
  O  O32  1  0.02374100  0.29573500  0.77209300  1
  O  O33  1  0.47073900  0.15509900  0.92135500  1
  O  O34  1  0.83655000  0.17229800  0.62855900  1
  O  O35  1  0.44182600  0.26284300  0.58528400  1
  O  O36  1  0.13416700  0.46029200  0.13224700  1
  O  O37  1  0.10137100  0.34126600  0.49476700  1
  O  O38  1  0.87271200  0.05012200  0.80063800  1
  O  O39  1  0.52278400  0.29515000  0.27284500  1
  O  O40  1  0.96385800  0.15668700  0.42687700  1
  O  O41  1  0.94713600  0.25733100  0.08593000  1
  O  O42  1  0.46901800  0.14641300  0.42165500  1
  O  O43  1  0.26083100  0.01144000  0.83018800  1
  O  O44  1  0.99985600  0.25913200  0.23182100  1
  O  O45  1  0.33926400  0.17136200  0.12900400  1
  O  O46  1  0.76723300  0.01121200  0.32916000  1
  O  O47  1  0.37635500  0.04701700  0.29765100  1
loop_
_geom_bond_atom_site_label_1
_geom_bond_atom_site_label_2
_geom_bond_distance
_geom_bond_site_symmetry_2
Li0 O17 2.224422 1_656
Li0 O33 2.279534 1_565
Li0 O14 2.340585 1_556
Li0 O30 2.350851 1_565
Li1 O40 2.250662 1_465
Li1 O42 2.274451 1_565
Li1 O5 2.281892 1_555
Li1 O7 2.395590 1_555
Li2 O8 2.152365 1_555
Li2 O19 2.161145 1_555
Li2 O6 2.251115 1_555
Li2 O2 2.256781 1_555
Li2 O26 2.454899 1_556
Li2 O43 2.455629 1_565
Li3 O15 2.165626 1_555
Li3 O25 2.178388 1_555
Li3 O13 2.223133 1_655
Li3 O12 2.270862 1_555
Li3 O46 2.442733 1_565
Li3 O10 2.466458 1_555
Li4 O32 2.113309 1_655
Li4 O8 2.113770 1_555
Li4 O20 2.263233 1_555
Li4 O11 2.272959 1_555
Li4 O22 2.511076 1_655
Li4 O19 2.529932 1_555
Li5 O22 2.101600 1_555
Li5 O19 2.117280 1_555
Li5 O3 2.266036 1_455
Li5 O31 2.284808 1_555
Li5 O8 2.523017 1_555
Li5 O32 2.523842 1_555
Li6 O25 2.113470 1_555
Li6 O28 2.120304 1_555
Li6 O16 2.263558 1_555
Li6 O44 2.290600 1_555
Li6 O15 2.519725 1_555
Li6 O39 2.530233 1_555
Li7 O15 2.107513 1_455
Li7 O39 2.117517 1_555
Li7 O36 2.279877 1_555
Li7 O27 2.288265 1_555
Li7 O25 2.521561 1_455
Li7 O28 2.532916 1_555
Li8 O22 2.156997 1_555
Li8 O32 2.175188 1_555
Li8 O35 2.224582 1_555
Li8 O34 2.267378 1_455
Li8 O37 2.425400 1_555
Li8 O1 2.468779 1_545
Li9 O28 2.163151 1_555
Li9 O39 2.164562 1_555
Li9 O41 2.253339 1_555
Li9 O45 2.254054 1_555
Li9 O4 2.456813 1_545
Li9 O21 2.465495 1_554
Li10 O7 2.237272 1_645
Li10 O42 2.257399 1_555
Li10 O40 2.271758 1_555
Li10 O5 2.364406 1_545
Li11 O14 2.266733 1_545
Li11 O30 2.271559 1_454
Li11 O33 2.356765 1_554
Li11 O17 2.367924 1_545
Mn0 O37 1.969519 1_555
Mn0 O27 1.970309 1_555
Mn0 O35 1.974257 1_555
Mn0 O29 2.009694 1_555
Mn0 O42 2.204826 1_555
Mn0 O18 2.304382 1_555
Mn1 O44 1.959685 1_455
Mn1 O46 1.969072 1_455
Mn1 O13 1.972672 1_545
Mn1 O47 2.007474 1_555
Mn1 O40 2.206161 1_455
Mn1 O9 2.302076 1_545
O0 P1 1.585246 1_555
O0 V0 2.038169 1_555
O0 V5 2.162714 1_565
O1 P1 1.556190 1_555
O1 V0 1.962901 1_455
O2 P0 1.552302 1_555
O2 V5 2.013002 1_565
O3 P0 1.554573 1_555
O3 V0 1.978028 1_555
O4 P2 1.558245 1_555
O4 V1 1.964849 1_555
O5 P1 1.567044 1_555
O5 V2 2.119999 1_555
O6 P0 1.551219 1_455
O6 V4 2.014315 1_556
O7 P4 1.573747 1_555
O7 V0 2.102587 1_455
O8 P1 1.517841 1_555
O9 P2 1.565384 1_455
O9 V1 2.009314 1_555
O10 P4 1.558653 1_655
O10 V2 1.965350 1_555
O11 P0 1.555946 1_555
O11 V3 1.976063 1_555
O12 P3 1.548544 1_555
O12 V2 2.020956 1_555
O13 P3 1.567858 1_555
O14 P5 1.569185 1_555
O14 V1 2.122955 1_555
O15 P2 1.520540 1_555
O16 P3 1.553130 1_555
O16 V1 1.991568 1_555
O17 P2 1.576386 1_455
O17 V4 2.105407 1_555
O18 P4 1.566189 1_555
O18 V2 2.007639 1_555
O19 P6 1.517388 1_555
O20 P8 1.550937 1_555
O20 V2 1.983323 1_555
O21 P6 1.555733 1_555
O21 V3 1.962707 1_555
O22 P4 1.520925 1_555
O23 P5 1.583866 1_555
O23 V4 2.039253 1_655
O23 V3 2.166200 1_554
O24 P6 1.584126 1_555
O24 V3 2.038475 1_455
O24 V4 2.167926 1_556
O25 P7 1.516228 1_555
O26 P5 1.556760 1_555
O26 V4 1.962322 1_555
O27 P3 1.561046 1_555
O28 P5 1.517212 1_555
O29 P7 1.599567 1_555
O29 V2 2.138065 1_555
O30 P9 1.570748 1_655
O30 V3 2.139675 1_555
O31 P8 1.556774 1_555
O31 V5 1.978395 1_555
O32 P9 1.516337 1_555
O33 P6 1.571457 1_555
O33 V5 2.137502 1_555
O34 P8 1.549214 1_555
O34 V0 2.018651 1_545
O35 P8 1.565916 1_555
O36 P11 1.556488 1_555
O36 V4 1.988043 1_555
O37 P7 1.562130 1_455
O38 P9 1.584247 1_655
O38 V5 2.041594 1_555
O38 V0 2.169578 1_545
O39 P10 1.517659 1_555
O40 P7 1.561455 1_555
O41 P11 1.554440 1_655
O41 V3 2.014197 1_554
O42 P10 1.561730 1_555
O43 P9 1.557626 1_555
O43 V5 1.959199 1_555
O44 P11 1.561249 1_655
O45 P11 1.550705 1_555
O45 V1 2.018627 1_545
O46 P10 1.561132 1_555
O47 P10 1.598896 1_555
O47 V1 2.137449 1_545
