# generated using pymatgen
data_CaFe3Si2HO9
_symmetry_space_group_name_H-M   'P 1'
_cell_length_a   8.89644700
_cell_length_b   5.97948500
_cell_length_c   13.10407830
_cell_angle_alpha   89.59877563
_cell_angle_beta   90.00000000
_cell_angle_gamma   90.00000000
_symmetry_Int_Tables_number   1
_chemical_formula_structural   CaFe3Si2HO9
_chemical_formula_sum   'Ca4 Fe12 Si8 H4 O36'
_cell_volume   697.06970322
_cell_formula_units_Z   4
loop_
 _symmetry_equiv_pos_site_id
 _symmetry_equiv_pos_as_xyz
  1  'x, y, z'
loop_
 _atom_site_type_symbol
 _atom_site_label
 _atom_site_symmetry_multiplicity
 _atom_site_fract_x
 _atom_site_fract_y
 _atom_site_fract_z
 _atom_site_occupancy
  Ca  Ca0  1  0.36859400  0.24647600  0.81195800  1
  Ca  Ca1  1  0.86859400  0.75352400  0.68804200  1
  Ca  Ca2  1  0.63140600  0.75352400  0.18804200  1
  Ca  Ca3  1  0.13140600  0.24647600  0.31195800  1
  Fe  Fe0  1  0.04862600  0.99668000  0.88948400  1
  Fe  Fe1  1  0.54862600  0.00332000  0.61051600  1
  Fe  Fe2  1  0.95137400  0.00332000  0.11051600  1
  Fe  Fe3  1  0.45137400  0.99668000  0.38948400  1
  Fe  Fe4  1  0.05182000  0.50260600  0.88936900  1
  Fe  Fe5  1  0.55182000  0.49739400  0.61063100  1
  Fe  Fe6  1  0.94818000  0.49739400  0.11063100  1
  Fe  Fe7  1  0.44818000  0.50260600  0.38936900  1
  Fe  Fe8  1  0.24064400  0.24950000  0.55836400  1
  Fe  Fe9  1  0.74064400  0.75050000  0.94163600  1
  Fe  Fe10  1  0.75935600  0.75050000  0.44163600  1
  Fe  Fe11  1  0.25935600  0.24950000  0.05836400  1
  Si  Si0  1  0.36874100  0.75174500  0.95837100  1
  Si  Si1  1  0.86874100  0.24825500  0.54162900  1
  Si  Si2  1  0.63125900  0.24825500  0.04162900  1
  Si  Si3  1  0.13125900  0.75174500  0.45837100  1
  Si  Si4  1  0.22571600  0.74742800  0.67925500  1
  Si  Si5  1  0.72571600  0.25257200  0.82074500  1
  Si  Si6  1  0.77428400  0.25257200  0.32074500  1
  Si  Si7  1  0.27428400  0.74742800  0.17925500  1
  H  H0  1  0.06537900  0.25945300  0.72565000  1
  H  H1  1  0.56537900  0.74054700  0.77435000  1
  H  H2  1  0.93462100  0.74054700  0.27435000  1
  H  H3  1  0.43462100  0.25945300  0.22565000  1
  O  O0  1  0.46890100  0.27188700  0.51072700  1
  O  O1  1  0.96890100  0.72811300  0.98927300  1
  O  O2  1  0.53109900  0.72811300  0.48927300  1
  O  O3  1  0.03109900  0.27188700  0.01072700  1
  O  O4  1  0.27377800  0.98398100  0.93608800  1
  O  O5  1  0.77377800  0.01601900  0.56391200  1
  O  O6  1  0.72622200  0.01601900  0.06391200  1
  O  O7  1  0.22622200  0.98398100  0.43608800  1
  O  O8  1  0.27275800  0.52016600  0.93379100  1
  O  O9  1  0.77275800  0.47983400  0.56620900  1
  O  O10  1  0.72724200  0.47983400  0.06620900  1
  O  O11  1  0.22724200  0.52016600  0.43379100  1
  O  O12  1  0.10660100  0.73897800  0.77723000  1
  O  O13  1  0.60660100  0.26102200  0.72277000  1
  O  O14  1  0.89339900  0.26102200  0.22277000  1
  O  O15  1  0.39339900  0.73897800  0.27723000  1
  O  O16  1  0.32517000  0.97938400  0.67166100  1
  O  O17  1  0.82517000  0.02061600  0.82833900  1
  O  O18  1  0.67483000  0.02061600  0.32833900  1
  O  O19  1  0.17483000  0.97938400  0.17166100  1
  O  O20  1  0.33151700  0.52069400  0.67005000  1
  O  O21  1  0.83151700  0.47930600  0.82995000  1
  O  O22  1  0.66848300  0.47930600  0.32995000  1
  O  O23  1  0.16848300  0.52069400  0.17005000  1
  O  O24  1  0.09952900  0.74620300  0.58422600  1
  O  O25  1  0.59952900  0.25379700  0.91577400  1
  O  O26  1  0.90047100  0.25379700  0.41577400  1
  O  O27  1  0.40047100  0.74620300  0.08422600  1
  O  O28  1  0.02648800  0.24901700  0.60277400  1
  O  O29  1  0.52648800  0.75098300  0.89722600  1
  O  O30  1  0.97351200  0.75098300  0.39722600  1
  O  O31  1  0.47351200  0.24901700  0.10277400  1
  O  O32  1  0.10922100  0.26098500  0.79624700  1
  O  O33  1  0.60922100  0.73901500  0.70375300  1
  O  O34  1  0.89077900  0.73901500  0.20375300  1
  O  O35  1  0.39077900  0.26098500  0.29624700  1
loop_
_geom_bond_atom_site_label_1
_geom_bond_atom_site_label_2
_geom_bond_distance
_geom_bond_site_symmetry_2
Ca0 O32 2.318234 1_555
Ca0 O4 2.405251 1_545
Ca0 O13 2.419817 1_555
Ca0 O8 2.447565 1_555
Ca0 O25 2.464640 1_555
Ca0 O16 2.474056 1_545
Ca0 O20 2.492523 1_555
Ca1 O33 2.318234 1_555
Ca1 O5 2.405251 1_565
Ca1 O12 2.419817 1_655
Ca1 O9 2.447565 1_555
Ca1 O24 2.464640 1_655
Ca1 O17 2.474056 1_565
Ca1 O21 2.492523 1_555
Ca2 O34 2.318234 1_555
Ca2 O6 2.405251 1_565
Ca2 O15 2.419817 1_555
Ca2 O10 2.447565 1_555
Ca2 O27 2.464640 1_555
Ca2 O18 2.474056 1_565
Ca2 O22 2.492523 1_555
Ca3 O35 2.318234 1_555
Ca3 O7 2.405251 1_545
Ca3 O14 2.419817 1_455
Ca3 O11 2.447565 1_555
Ca3 O26 2.464640 1_455
Ca3 O19 2.474056 1_545
Ca3 O23 2.492523 1_555
Fe0 O32 2.062526 1_565
Fe0 O4 2.095303 1_555
Fe0 O17 2.147762 1_465
Fe0 O1 2.182309 1_455
Fe0 O12 2.199094 1_555
Fe0 O3 2.300681 1_566
Fe1 O33 2.062526 1_545
Fe1 O5 2.095303 1_555
Fe1 O16 2.147762 1_545
Fe1 O0 2.182309 1_555
Fe1 O13 2.199094 1_555
Fe1 O2 2.300681 1_545
Fe2 O34 2.062526 1_545
Fe2 O6 2.095303 1_555
Fe2 O19 2.147762 1_645
Fe2 O3 2.182309 1_655
Fe2 O14 2.199094 1_555
Fe2 O1 2.300681 1_544
Fe3 O35 2.062526 1_565
Fe3 O7 2.095303 1_555
Fe3 O18 2.147762 1_565
Fe3 O2 2.182309 1_555
Fe3 O15 2.199094 1_555
Fe3 O0 2.300681 1_565
Fe4 O32 1.965173 1_555
Fe4 O1 2.025093 1_455
Fe4 O8 2.052845 1_555
Fe4 O12 2.089365 1_555
Fe4 O3 2.106064 1_556
Fe4 O21 2.113873 1_455
Fe5 O33 1.965173 1_555
Fe5 O0 2.025093 1_555
Fe5 O9 2.052845 1_555
Fe5 O13 2.089365 1_555
Fe5 O2 2.106064 1_555
Fe5 O20 2.113873 1_555
Fe6 O34 1.965173 1_555
Fe6 O3 2.025093 1_655
Fe6 O10 2.052845 1_555
Fe6 O14 2.089365 1_555
Fe6 O1 2.106064 1_554
Fe6 O23 2.113873 1_655
Fe7 O35 1.965173 1_555
Fe7 O2 2.025093 1_555
Fe7 O11 2.052845 1_555
Fe7 O15 2.089365 1_555
Fe7 O0 2.106064 1_555
Fe7 O22 2.113873 1_555
Fe8 O28 1.992121 1_555
Fe8 O0 2.128396 1_555
Fe8 O7 2.267198 1_545
Fe8 O11 2.293763 1_555
Fe8 O16 2.311884 1_545
Fe8 O20 2.336315 1_555
Fe9 O29 1.992121 1_555
Fe9 O1 2.128396 1_555
Fe9 O6 2.267198 1_566
Fe9 O10 2.293763 1_556
Fe9 O17 2.311884 1_565
Fe9 O21 2.336315 1_555
Fe10 O30 1.992121 1_555
Fe10 O2 2.128396 1_555
Fe10 O5 2.267198 1_565
Fe10 O9 2.293763 1_555
Fe10 O18 2.311884 1_565
Fe10 O22 2.336315 1_555
Fe11 O31 1.992121 1_555
Fe11 O3 2.128396 1_555
Fe11 O4 2.267198 1_544
Fe11 O8 2.293763 1_554
Fe11 O19 2.311884 1_545
Fe11 O23 2.336315 1_555
H0 O32 1.004071 1_555
H0 O28 1.648539 1_555
H1 O33 1.004071 1_555
H1 O29 1.648539 1_555
H2 O34 1.004071 1_555
H2 O30 1.648539 1_555
H3 O35 1.004071 1_555
H3 O31 1.648539 1_555
O4 Si0 1.649752 1_555
O5 Si1 1.649752 1_555
O6 Si2 1.649752 1_555
O7 Si3 1.649752 1_555
O8 Si0 1.660304 1_555
O9 Si1 1.660304 1_555
O10 Si2 1.660304 1_555
O11 Si3 1.660304 1_555
O12 Si4 1.665214 1_555
O13 Si5 1.665214 1_555
O14 Si6 1.665214 1_555
O15 Si7 1.665214 1_555
O16 Si4 1.647581 1_555
O17 Si5 1.647581 1_555
O18 Si6 1.647581 1_555
O19 Si7 1.647581 1_555
O20 Si4 1.655555 1_555
O21 Si5 1.655555 1_555
O22 Si6 1.655555 1_555
O23 Si7 1.655555 1_555
O24 Si3 1.673297 1_555
O24 Si4 1.676645 1_555
O25 Si2 1.673297 1_556
O25 Si5 1.676645 1_555
O26 Si1 1.673297 1_555
O26 Si6 1.676645 1_555
O27 Si0 1.673297 1_554
O27 Si7 1.676645 1_555
O28 Si1 1.616035 1_455
O29 Si0 1.616035 1_555
O30 Si3 1.616035 1_655
O31 Si2 1.616035 1_555
