# generated using pymatgen
data_VFe2Ni3(PO4)6
_symmetry_space_group_name_H-M   'P 1'
_cell_length_a   8.38459120
_cell_length_b   8.38459120
_cell_length_c   8.38459142
_cell_angle_alpha   62.07583943
_cell_angle_beta   62.07583943
_cell_angle_gamma   62.07583478
_symmetry_Int_Tables_number   1
_chemical_formula_structural   VFe2Ni3(PO4)6
_chemical_formula_sum   'V1 Fe2 Ni3 P6 O24'
_cell_volume   436.14495608
_cell_formula_units_Z   1
loop_
 _symmetry_equiv_pos_site_id
 _symmetry_equiv_pos_as_xyz
  1  'x, y, z'
loop_
 _atom_site_type_symbol
 _atom_site_label
 _atom_site_symmetry_multiplicity
 _atom_site_fract_x
 _atom_site_fract_y
 _atom_site_fract_z
 _atom_site_occupancy
  V  V0  1  0.85455900  0.85455900  0.85455900  1
  Fe  Fe0  1  0.00419500  0.00419500  0.00419500  1
  Fe  Fe1  1  0.50214900  0.50214900  0.50214900  1
  Ni  Ni0  1  0.35735600  0.35735600  0.35735600  1
  Ni  Ni1  1  0.14493800  0.14493800  0.14493800  1
  Ni  Ni2  1  0.64194800  0.64194800  0.64194800  1
  P  P0  1  0.45252300  0.74599100  0.04622800  1
  P  P1  1  0.74599100  0.04622800  0.45252300  1
  P  P2  1  0.04622800  0.45252300  0.74599100  1
  P  P3  1  0.95338500  0.54694700  0.24898500  1
  P  P4  1  0.24898500  0.95338500  0.54694700  1
  P  P5  1  0.54694700  0.24898500  0.95338500  1
  O  O0  1  0.67073900  0.89489300  0.49713300  1
  O  O1  1  0.89489300  0.49713300  0.67073900  1
  O  O2  1  0.49713300  0.67073900  0.89489300  1
  O  O3  1  0.25421500  0.90325000  0.06026600  1
  O  O4  1  0.62052600  0.82614100  0.98403500  1
  O  O5  1  0.45262400  0.60028600  0.24638600  1
  O  O6  1  0.90325000  0.06026600  0.25421500  1
  O  O7  1  0.60028600  0.24638600  0.45262400  1
  O  O8  1  0.99179800  0.39753600  0.17210000  1
  O  O9  1  0.24638600  0.45262400  0.60028600  1
  O  O10  1  0.93192800  0.75489600  0.08747900  1
  O  O11  1  0.17210000  0.99179800  0.39753600  1
  O  O12  1  0.82614100  0.98403500  0.62052600  1
  O  O13  1  0.06026600  0.25421500  0.90325000  1
  O  O14  1  0.74932200  0.56616600  0.39931900  1
  O  O15  1  0.98403500  0.62052600  0.82614100  1
  O  O16  1  0.39931900  0.74932200  0.56616600  1
  O  O17  1  0.08747900  0.93192800  0.75489600  1
  O  O18  1  0.56616600  0.39931900  0.74932200  1
  O  O19  1  0.39753600  0.17210000  0.99179800  1
  O  O20  1  0.75489600  0.08747900  0.93192800  1
  O  O21  1  0.51893500  0.31319800  0.10762900  1
  O  O22  1  0.10762900  0.51893500  0.31319800  1
  O  O23  1  0.31319800  0.10762900  0.51893500  1
loop_
_geom_bond_atom_site_label_1
_geom_bond_atom_site_label_2
_geom_bond_distance
_geom_bond_site_symmetry_2
Fe0 O3 2.054386 1_545
Fe0 O13 2.054386 1_554
Fe0 O6 2.054386 1_455
Fe0 O20 2.155659 1_454
Fe0 O10 2.155659 1_445
Fe0 O17 2.155659 1_544
Fe1 O16 2.064309 1_555
Fe1 O18 2.064309 1_555
Fe1 O14 2.064309 1_555
Fe1 O7 2.075948 1_555
Fe1 O9 2.075948 1_555
Fe1 O5 2.075948 1_555
Ni0 O22 1.989011 1_555
Ni0 O21 1.989011 1_555
Ni0 O23 1.989011 1_555
Ni0 O7 2.169179 1_555
Ni0 O9 2.169179 1_555
Ni0 O5 2.169179 1_555
Ni1 O8 1.953718 1_455
Ni1 O19 1.953719 1_554
Ni1 O11 1.953719 1_545
Ni1 O3 2.109321 1_545
Ni1 O13 2.109321 1_554
Ni1 O6 2.109321 1_455
Ni2 O1 1.955412 1_555
Ni2 O0 1.955412 1_555
Ni2 O2 1.955412 1_555
Ni2 O16 2.076614 1_555
Ni2 O14 2.076614 1_555
Ni2 O18 2.076614 1_555
O0 P1 1.494111 1_565
O1 P2 1.494111 1_655
O2 P0 1.494111 1_556
O3 P0 1.557484 1_555
O4 P0 1.605684 1_556
O4 V0 1.812804 1_555
O5 P0 1.545660 1_555
O6 P1 1.557484 1_555
O7 P1 1.545659 1_555
O8 P3 1.507551 1_555
O9 P2 1.545660 1_555
O10 P3 1.621462 1_555
O10 V0 2.020754 1_554
O11 P4 1.507551 1_555
O12 P1 1.605684 1_565
O12 V0 1.812804 1_555
O13 P2 1.557484 1_555
O14 P3 1.566628 1_555
O15 P2 1.605684 1_655
O15 V0 1.812804 1_555
O16 P4 1.566627 1_555
O17 P4 1.621462 1_555
O17 V0 2.020754 1_455
O18 P5 1.566628 1_555
O19 P5 1.507551 1_555
O20 P5 1.621462 1_555
O20 V0 2.020754 1_545
O21 P5 1.505596 1_554
O22 P3 1.505596 1_455
O23 P4 1.505596 1_545
