# generated using pymatgen
data_LiVBO4
_symmetry_space_group_name_H-M   'P 1'
_cell_length_a   8.20472656
_cell_length_b   8.20472656
_cell_length_c   8.20472686
_cell_angle_alpha   107.61398311
_cell_angle_beta   107.61398311
_cell_angle_gamma   107.61398401
_symmetry_Int_Tables_number   1
_chemical_formula_structural   LiVBO4
_chemical_formula_sum   'Li6 V6 B6 O24'
_cell_volume   452.05374283
_cell_formula_units_Z   6
loop_
 _symmetry_equiv_pos_site_id
 _symmetry_equiv_pos_as_xyz
  1  'x, y, z'
loop_
 _atom_site_type_symbol
 _atom_site_label
 _atom_site_symmetry_multiplicity
 _atom_site_fract_x
 _atom_site_fract_y
 _atom_site_fract_z
 _atom_site_occupancy
  Li  Li0  1  0.24199500  0.45343000  0.05751900  1
  Li  Li1  1  0.94480400  0.77845500  0.54546900  1
  Li  Li2  1  0.54546900  0.94480400  0.77845500  1
  Li  Li3  1  0.45343000  0.05751900  0.24199500  1
  Li  Li4  1  0.05751900  0.24199500  0.45343000  1
  Li  Li5  1  0.77845500  0.54546900  0.94480400  1
  V  V0  1  0.72073900  0.89550600  0.13178200  1
  V  V1  1  0.61450400  0.42648700  0.21123900  1
  V  V2  1  0.21123900  0.61450400  0.42648700  1
  V  V3  1  0.13178200  0.72073900  0.89550600  1
  V  V4  1  0.42648700  0.21123900  0.61450400  1
  V  V5  1  0.89550600  0.13178200  0.72073900  1
  B  B0  1  0.09594100  0.87138500  0.27908500  1
  B  B1  1  0.57364300  0.78634700  0.38336300  1
  B  B2  1  0.87138500  0.27908500  0.09594100  1
  B  B3  1  0.78634700  0.38336300  0.57364300  1
  B  B4  1  0.38336300  0.57364300  0.78634700  1
  B  B5  1  0.27908500  0.09594100  0.87138500  1
  O  O0  1  0.96273300  0.96025400  0.29040500  1
  O  O1  1  0.04090200  0.74983300  0.07691200  1
  O  O2  1  0.57613900  0.89098300  0.26356400  1
  O  O3  1  0.65983500  0.92583100  0.58723800  1
  O  O4  1  0.38020400  0.64598300  0.32333300  1
  O  O5  1  0.08296300  0.75556900  0.38863100  1
  O  O6  1  0.75556900  0.38863100  0.08296300  1
  O  O7  1  0.68814600  0.67787800  0.35258000  1
  O  O8  1  0.37018500  0.29036600  0.02523500  1
  O  O9  1  0.02523500  0.37018500  0.29036600  1
  O  O10  1  0.35258000  0.68814600  0.67787800  1
  O  O11  1  0.74983300  0.07691200  0.04090200  1
  O  O12  1  0.64598300  0.32333300  0.38020400  1
  O  O13  1  0.29040500  0.96273300  0.96025400  1
  O  O14  1  0.92583100  0.58723800  0.65983500  1
  O  O15  1  0.58723800  0.65983500  0.92583100  1
  O  O16  1  0.26356400  0.57613900  0.89098300  1
  O  O17  1  0.32333300  0.38020400  0.64598300  1
  O  O18  1  0.67787800  0.35258000  0.68814600  1
  O  O19  1  0.29036600  0.02523500  0.37018500  1
  O  O20  1  0.89098300  0.26356400  0.57613900  1
  O  O21  1  0.38863100  0.08296300  0.75556900  1
  O  O22  1  0.96025400  0.29040500  0.96273300  1
  O  O23  1  0.07691200  0.04090200  0.74983300  1
loop_
_geom_bond_atom_site_label_1
_geom_bond_atom_site_label_2
_geom_bond_distance
_geom_bond_site_symmetry_2
Li0 O8 1.942184 1_555
Li0 O16 1.945000 1_554
Li0 O4 1.967751 1_555
Li0 O22 2.036822 1_454
Li1 O7 1.939335 1_555
Li1 O5 1.959969 1_655
Li1 O23 1.981283 1_665
Li1 O14 2.048819 1_555
Li2 O10 1.939335 1_555
Li2 O21 1.959969 1_565
Li2 O11 1.981283 1_566
Li2 O3 2.048819 1_555
Li3 O19 1.942184 1_555
Li3 O2 1.945000 1_545
Li3 O12 1.967751 1_555
Li3 O13 2.036822 1_544
Li4 O9 1.942184 1_555
Li4 O20 1.945000 1_455
Li4 O17 1.967751 1_555
Li4 O0 2.036822 1_445
Li5 O18 1.939335 1_555
Li5 O6 1.959969 1_556
Li5 O1 1.981283 1_656
Li5 O15 2.048819 1_555
B0 O19 1.478336 1_565
B0 O1 1.490965 1_555
B0 O5 1.495224 1_555
B0 O0 1.495837 1_455
B1 O4 1.471477 1_555
B1 O2 1.488566 1_555
B1 O3 1.497864 1_555
B1 O7 1.500661 1_555
B2 O9 1.478336 1_655
B2 O11 1.490965 1_555
B2 O6 1.495224 1_555
B2 O22 1.495837 1_554
B3 O12 1.471477 1_555
B3 O20 1.488566 1_555
B3 O14 1.497864 1_555
B3 O18 1.500661 1_555
B4 O17 1.471477 1_555
B4 O16 1.488566 1_555
B4 O15 1.497864 1_555
B4 O10 1.500661 1_555
B5 O8 1.478336 1_556
B5 O23 1.490965 1_555
B5 O21 1.495224 1_555
B5 O13 1.495837 1_545
O0 V0 1.815913 1_555
O1 V3 1.841908 1_554
O2 V0 1.830842 1_555
O3 V5 1.847858 1_565
O4 V2 1.824983 1_555
O5 V2 1.816777 1_555
O6 V1 1.816777 1_555
O7 V1 1.827101 1_555
O8 V1 1.832146 1_555
O9 V2 1.832146 1_555
O10 V2 1.827101 1_555
O11 V0 1.841908 1_545
O12 V1 1.824983 1_555
O13 V3 1.815913 1_555
O14 V3 1.847858 1_655
O15 V0 1.847858 1_556
O16 V3 1.830842 1_555
O17 V4 1.824983 1_555
O18 V4 1.827101 1_555
O19 V4 1.832146 1_555
O20 V5 1.830842 1_555
O21 V4 1.816777 1_555
O22 V5 1.815913 1_555
O23 V5 1.841908 1_455
