# generated using pymatgen
data_K3CoPCO7
_symmetry_space_group_name_H-M   'P 1'
_cell_length_a   6.97049502
_cell_length_b   11.11957877
_cell_length_c   11.12066922
_cell_angle_alpha   118.88419189
_cell_angle_beta   89.98736101
_cell_angle_gamma   89.99899078
_symmetry_Int_Tables_number   1
_chemical_formula_structural   K3CoPCO7
_chemical_formula_sum   'K12 Co4 P4 C4 O28'
_cell_volume   754.72292690
_cell_formula_units_Z   4
loop_
 _symmetry_equiv_pos_site_id
 _symmetry_equiv_pos_as_xyz
  1  'x, y, z'
loop_
 _atom_site_type_symbol
 _atom_site_label
 _atom_site_symmetry_multiplicity
 _atom_site_fract_x
 _atom_site_fract_y
 _atom_site_fract_z
 _atom_site_occupancy
  K  K0  1  0.24910900  0.34365900  0.41400100  1
  K  K1  1  0.25228900  0.84319800  0.91327600  1
  K  K2  1  0.74926200  0.65664000  0.58599500  1
  K  K3  1  0.75090700  0.15672400  0.08639500  1
  K  K4  1  0.01032500  0.98373100  0.27419200  1
  K  K5  1  0.01085500  0.48364900  0.77382300  1
  K  K6  1  0.49031200  0.98313200  0.27347600  1
  K  K7  1  0.48987000  0.48181600  0.77230000  1
  K  K8  1  0.51014600  0.01652900  0.72568700  1
  K  K9  1  0.51073600  0.51599300  0.22623900  1
  K  K10  1  0.99017500  0.01654400  0.72653200  1
  K  K11  1  0.98957800  0.51829400  0.22770100  1
  Co  Co0  1  0.75010500  0.70423400  0.05393500  1
  Co  Co1  1  0.24985000  0.29585400  0.94615600  1
  Co  Co2  1  0.75080800  0.20399000  0.55518600  1
  Co  Co3  1  0.25119800  0.79589000  0.44486700  1
  P  P0  1  0.24903500  0.15862100  0.57856300  1
  P  P1  1  0.25090000  0.65795100  0.07784200  1
  P  P2  1  0.74942800  0.84160400  0.42152300  1
  P  P3  1  0.75069000  0.34206700  0.92229300  1
  C  C0  1  0.74881900  0.33033000  0.41335400  1
  C  C1  1  0.75091000  0.83057700  0.91314100  1
  C  C2  1  0.24924600  0.66951600  0.58652300  1
  C  C3  1  0.25047300  0.16935900  0.08680900  1
  O  O0  1  0.25105000  0.10430900  0.15627600  1
  O  O1  1  0.24942000  0.60449800  0.65605700  1
  O  O2  1  0.75157100  0.89554500  0.84358900  1
  O  O3  1  0.74834200  0.39549900  0.34393900  1
  O  O4  1  0.74383300  0.39502300  0.54782700  1
  O  O5  1  0.74916100  0.89534500  0.04768000  1
  O  O6  1  0.24291200  0.60476700  0.45208700  1
  O  O7  1  0.25043000  0.10467100  0.95225700  1
  O  O8  1  0.75435400  0.19582700  0.35331100  1
  O  O9  1  0.75183700  0.69593000  0.85321000  1
  O  O10  1  0.25556800  0.80402400  0.64640500  1
  O  O11  1  0.24989200  0.30402300  0.14682200  1
  O  O12  1  0.24682000  0.99852400  0.48998600  1
  O  O13  1  0.25098100  0.49821100  0.98789700  1
  O  O14  1  0.74688000  0.00162500  0.51070400  1
  O  O15  1  0.75005500  0.50181800  0.01197700  1
  O  O16  1  0.75026000  0.80050900  0.26693100  1
  O  O17  1  0.75095300  0.30098600  0.76753800  1
  O  O18  1  0.24953900  0.20043200  0.73332700  1
  O  O19  1  0.25085000  0.69874300  0.23256300  1
  O  O20  1  0.06775200  0.21765900  0.54266300  1
  O  O21  1  0.06937700  0.71693000  0.04219300  1
  O  O22  1  0.43068600  0.21571000  0.54109500  1
  O  O23  1  0.43235200  0.71692200  0.04201700  1
  O  O24  1  0.56798200  0.78211000  0.45675400  1
  O  O25  1  0.56916300  0.28291400  0.95776600  1
  O  O26  1  0.93085900  0.78409700  0.45873300  1
  O  O27  1  0.93209500  0.28344700  0.95858800  1
loop_
_geom_bond_atom_site_label_1
_geom_bond_atom_site_label_2
_geom_bond_distance
_geom_bond_site_symmetry_2
K0 O6 2.724524 1_555
K0 O20 2.746670 1_555
K0 O22 2.750842 1_555
K0 O11 2.785185 1_555
K0 O0 2.815800 1_555
K0 O1 2.848817 1_555
K1 O7 2.724672 1_565
K1 O23 2.745814 1_556
K1 O21 2.756113 1_556
K1 O10 2.783715 1_555
K1 O1 2.809411 1_555
K1 O0 2.855290 1_566
K2 O4 2.729728 1_555
K2 O24 2.747150 1_555
K2 O26 2.747884 1_555
K2 O9 2.787015 1_555
K2 O2 2.812761 1_555
K2 O3 2.850712 1_555
K3 O5 2.724690 1_545
K3 O27 2.744971 1_554
K3 O25 2.749508 1_554
K3 O8 2.784514 1_555
K3 O3 2.811797 1_555
K3 O2 2.854724 1_544
K4 O16 2.699030 1_455
K4 O8 2.741220 1_465
K4 O0 2.833802 1_565
K4 O12 2.850242 1_555
K4 O21 2.869176 1_555
K4 O5 2.869756 1_455
K4 O20 2.887559 1_565
K4 O14 3.133978 1_465
K5 O17 2.697312 1_455
K5 O9 2.756253 1_455
K5 O1 2.825865 1_555
K5 O13 2.850378 1_555
K5 O20 2.857920 1_555
K5 O21 2.885076 1_556
K5 O4 2.891578 1_455
K6 O16 2.696154 1_555
K6 O8 2.782374 1_565
K6 O0 2.827233 1_565
K6 O5 2.853679 1_555
K6 O23 2.861928 1_555
K6 O22 2.877841 1_565
K6 O12 2.882230 1_555
K6 O14 3.111019 1_565
K7 O17 2.693482 1_555
K7 O9 2.782769 1_555
K7 O4 2.822622 1_555
K7 O1 2.836499 1_555
K7 O13 2.851387 1_555
K7 O22 2.861325 1_555
K7 O23 2.901007 1_556
K8 O18 2.705693 1_555
K8 O10 2.738260 1_545
K8 O2 2.840045 1_545
K8 O14 2.842826 1_555
K8 O7 2.863321 1_555
K8 O25 2.866905 1_555
K8 O24 2.893027 1_545
K8 O12 3.126466 1_545
K9 O19 2.697739 1_555
K9 O11 2.762468 1_555
K9 O3 2.818976 1_555
K9 O15 2.849646 1_555
K9 O24 2.856423 1_555
K9 O25 2.884575 1_554
K9 O6 2.893157 1_555
K9 O13 3.136644 1_554
K10 O18 2.702989 1_655
K10 O10 2.786653 1_645
K10 O2 2.821734 1_545
K10 O7 2.859735 1_655
K10 O27 2.869147 1_555
K10 O14 2.877746 1_555
K10 O26 2.878354 1_545
K10 O12 3.106276 1_645
K11 O19 2.690938 1_655
K11 O11 2.776162 1_655
K11 O6 2.820195 1_655
K11 O3 2.840273 1_555
K11 O15 2.855427 1_555
K11 O26 2.857891 1_555
K11 O27 2.895993 1_554
Co0 O15 2.066189 1_555
Co0 O16 2.075299 1_555
Co0 O5 2.159543 1_555
Co0 O9 2.189118 1_554
Co0 O23 2.227424 1_555
Co0 O21 2.237734 1_655
Co1 O13 2.066287 1_555
Co1 O18 2.073997 1_555
Co1 O7 2.159468 1_555
Co1 O11 2.189108 1_556
Co1 O27 2.227616 1_455
Co1 O25 2.238188 1_555
Co2 O14 2.057562 1_555
Co2 O17 2.068655 1_555
Co2 O4 2.165469 1_555
Co2 O8 2.202707 1_555
Co2 O20 2.223429 1_655
Co2 O22 2.245127 1_555
Co3 O12 2.058495 1_555
Co3 O19 2.068132 1_555
Co3 O6 2.165904 1_555
Co3 O10 2.199192 1_555
Co3 O24 2.221830 1_555
Co3 O26 2.246398 1_455
C0 O3 1.288969 1_555
C0 O4 1.309851 1_555
C0 O8 1.311264 1_555
C1 O2 1.288396 1_555
C1 O5 1.310094 1_556
C1 O9 1.312203 1_555
C2 O1 1.288688 1_555
C2 O6 1.309792 1_555
C2 O10 1.311574 1_555
C3 O0 1.288348 1_555
C3 O7 1.310169 1_554
C3 O11 1.312324 1_555
O12 P0 1.563841 1_565
O13 P1 1.561765 1_556
O14 P2 1.563710 1_545
O15 P3 1.561610 1_554
O16 P2 1.550945 1_555
O17 P3 1.552725 1_555
O18 P0 1.550888 1_555
O19 P1 1.553137 1_555
O20 P0 1.562212 1_555
O21 P1 1.561932 1_555
O22 P0 1.560505 1_555
O23 P1 1.562255 1_555
O24 P2 1.562369 1_555
O25 P3 1.561989 1_555
O26 P2 1.560557 1_555
O27 P3 1.562395 1_555
