# generated using pymatgen
data_Cr4OF6
_symmetry_space_group_name_H-M   'P 1'
_cell_length_a   7.22125900
_cell_length_b   7.22125900
_cell_length_c   5.32049000
_cell_angle_alpha   90.00000000
_cell_angle_beta   90.00000000
_cell_angle_gamma   90.00000000
_symmetry_Int_Tables_number   1
_chemical_formula_structural   Cr4OF6
_chemical_formula_sum   'Cr8 O2 F12'
_cell_volume   277.44536564
_cell_formula_units_Z   2
loop_
 _symmetry_equiv_pos_site_id
 _symmetry_equiv_pos_as_xyz
  1  'x, y, z'
loop_
 _atom_site_type_symbol
 _atom_site_label
 _atom_site_symmetry_multiplicity
 _atom_site_fract_x
 _atom_site_fract_y
 _atom_site_fract_z
 _atom_site_occupancy
  Cr  Cr0  1  0.00000000  0.24796300  0.31314500  1
  Cr  Cr1  1  0.74796300  0.50000000  0.81314500  1
  Cr  Cr2  1  0.25203700  0.50000000  0.81314500  1
  Cr  Cr3  1  0.00000000  0.75203700  0.31314500  1
  Cr  Cr4  1  0.50000000  0.74796300  0.18685500  1
  Cr  Cr5  1  0.24796300  0.00000000  0.68685500  1
  Cr  Cr6  1  0.75203700  0.00000000  0.68685500  1
  Cr  Cr7  1  0.50000000  0.25203700  0.18685500  1
  O  O0  1  0.50000000  0.50000000  0.00000000  1
  O  O1  1  0.00000000  0.00000000  0.50000000  1
  F  F0  1  0.71606400  0.28393600  0.50000000  1
  F  F1  1  0.28393600  0.28393600  0.50000000  1
  F  F2  1  0.00000000  0.50000000  0.65164200  1
  F  F3  1  0.00000000  0.50000000  0.15164200  1
  F  F4  1  0.28393600  0.71606400  0.50000000  1
  F  F5  1  0.71606400  0.71606400  0.50000000  1
  F  F6  1  0.78393600  0.78393600  0.00000000  1
  F  F7  1  0.21606400  0.78393600  0.00000000  1
  F  F8  1  0.50000000  0.00000000  0.84835800  1
  F  F9  1  0.50000000  0.00000000  0.34835800  1
  F  F10  1  0.78393600  0.21606400  0.00000000  1
  F  F11  1  0.21606400  0.21606400  0.00000000  1
loop_
_geom_bond_atom_site_label_1
_geom_bond_atom_site_label_2
_geom_bond_distance
_geom_bond_site_symmetry_2
Cr0 F3 2.012671 1_555
Cr0 O1 2.048077 1_555
Cr0 F0 2.293442 1_455
Cr0 F1 2.293442 1_555
Cr0 F10 2.294187 1_455
Cr0 F11 2.294187 1_555
Cr0 F2 2.560465 1_555
Cr1 F2 2.012671 1_655
Cr1 O0 2.048077 1_556
Cr1 F6 2.293442 1_556
Cr1 F10 2.293442 1_556
Cr1 F5 2.294187 1_555
Cr1 F0 2.294187 1_555
Cr1 F3 2.560465 1_656
Cr2 F2 2.012671 1_555
Cr2 O0 2.048077 1_556
Cr2 F7 2.293442 1_556
Cr2 F11 2.293442 1_556
Cr2 F4 2.294187 1_555
Cr2 F1 2.294187 1_555
Cr2 F3 2.560465 1_556
Cr3 F3 2.012671 1_555
Cr3 O1 2.048077 1_565
Cr3 F5 2.293442 1_455
Cr3 F4 2.293442 1_555
Cr3 F6 2.294187 1_455
Cr3 F7 2.294187 1_555
Cr3 F2 2.560465 1_555
Cr4 F9 2.012671 1_565
Cr4 O0 2.048077 1_555
Cr4 F6 2.293442 1_555
Cr4 F7 2.293442 1_555
Cr4 F5 2.294187 1_555
Cr4 F4 2.294187 1_555
Cr4 F8 2.560465 1_564
Cr5 F8 2.012671 1_555
Cr5 O1 2.048077 1_555
Cr5 F4 2.293442 1_545
Cr5 F1 2.293442 1_555
Cr5 F11 2.294187 1_556
Cr5 F7 2.294187 1_546
Cr5 F9 2.560465 1_555
Cr6 F8 2.012671 1_555
Cr6 O1 2.048077 1_655
Cr6 F5 2.293442 1_545
Cr6 F0 2.293442 1_555
Cr6 F10 2.294187 1_556
Cr6 F6 2.294187 1_546
Cr6 F9 2.560465 1_555
Cr7 F9 2.012671 1_555
Cr7 O0 2.048077 1_555
Cr7 F10 2.293442 1_555
Cr7 F11 2.293442 1_555
Cr7 F0 2.294187 1_555
Cr7 F1 2.294187 1_555
Cr7 F8 2.560465 1_554
