# generated using pymatgen
data_Li4Ni3TeO8
_symmetry_space_group_name_H-M   'P 1'
_cell_length_a   10.32617152
_cell_length_b   10.32612966
_cell_length_c   14.58154469
_cell_angle_alpha   19.71269727
_cell_angle_beta   19.71260370
_cell_angle_gamma   33.96877639
_symmetry_Int_Tables_number   1
_chemical_formula_structural   Li4Ni3TeO8
_chemical_formula_sum   'Li4 Ni3 Te1 O8'
_cell_volume   153.19958271
_cell_formula_units_Z   1
loop_
 _symmetry_equiv_pos_site_id
 _symmetry_equiv_pos_as_xyz
  1  'x, y, z'
loop_
 _atom_site_type_symbol
 _atom_site_label
 _atom_site_symmetry_multiplicity
 _atom_site_fract_x
 _atom_site_fract_y
 _atom_site_fract_z
 _atom_site_occupancy
  Li  Li0  1  0.00000000  0.00000000  0.50000000  1
  Li  Li1  1  0.00000000  0.50000000  0.50000000  1
  Li  Li2  1  0.50000000  0.00000000  0.50000000  1
  Li  Li3  1  0.50000000  0.50000000  0.50000000  1
  Ni  Ni0  1  0.00000100  0.50000200  0.99999900  1
  Ni  Ni1  1  0.50000100  0.99999900  0.00000100  1
  Ni  Ni2  1  0.50000000  0.50000200  0.99999900  1
  Te  Te0  1  0.99999900  0.99999900  0.00000100  1
  O  O0  1  0.99998700  0.99998400  0.25943000  1
  O  O1  1  0.99998900  0.53791600  0.23076600  1
  O  O2  1  0.53791900  0.99998900  0.23076500  1
  O  O3  1  0.00001300  0.00001600  0.74057000  1
  O  O4  1  0.46206300  0.46206100  0.30662600  1
  O  O5  1  0.00001000  0.46208400  0.76923400  1
  O  O6  1  0.46208000  0.00001000  0.76923500  1
  O  O7  1  0.53793600  0.53793900  0.69337400  1
loop_
_geom_bond_atom_site_label_1
_geom_bond_atom_site_label_2
_geom_bond_distance
_geom_bond_site_symmetry_2
Li0 O1 2.282213 1_455
Li0 O5 2.282217 1_545
Li0 O2 2.282243 1_545
Li0 O6 2.282256 1_455
Li0 O4 2.282377 1_446
Li0 O7 2.282381 1_554
Li1 O4 2.125711 1_555
Li1 O7 2.125719 1_455
Li1 O2 2.125751 1_446
Li1 O6 2.125760 1_564
Li1 O0 2.204895 1_455
Li1 O3 2.204895 1_555
Li2 O4 2.125689 1_555
Li2 O7 2.125693 1_545
Li2 O1 2.125745 1_446
Li2 O5 2.125749 1_654
Li2 O0 2.204921 1_545
Li2 O3 2.204921 1_555
Li3 O2 2.125644 1_555
Li3 O1 2.125650 1_555
Li3 O6 2.125657 1_555
Li3 O5 2.125659 1_555
Li3 O0 2.205025 1_446
Li3 O3 2.205025 1_664
Ni0 O3 2.048118 1_565
Ni0 O0 2.048142 1_446
Ni0 O7 2.133208 1_555
Ni0 O4 2.133232 1_456
Ni0 O6 2.133260 1_456
Ni0 O2 2.133274 1_555
Ni1 O3 2.048116 1_664
Ni1 O0 2.048140 1_455
Ni1 O7 2.133214 1_564
Ni1 O4 2.133225 1_555
Ni1 O5 2.133263 1_555
Ni1 O1 2.133283 1_564
Ni2 O0 2.048119 1_555
Ni2 O3 2.048120 1_556
Ni2 O6 2.133234 1_565
Ni2 O5 2.133262 1_655
Ni2 O2 2.133263 1_546
Ni2 O1 2.133268 1_456
O1 Te0 1.964843 1_555
O2 Te0 1.964838 1_555
O4 Te0 1.964808 1_446
O5 Te0 1.964848 1_446
O6 Te0 1.964834 1_446
O7 Te0 1.964804 1_555
