# generated using pymatgen
data_LiFe2(BO3)2
_symmetry_space_group_name_H-M   'P 1'
_cell_length_a   5.24006500
_cell_length_b   9.15870672
_cell_length_c   11.28207374
_cell_angle_alpha   111.67511023
_cell_angle_beta   103.25633026
_cell_angle_gamma   90.91416063
_symmetry_Int_Tables_number   1
_chemical_formula_structural   LiFe2(BO3)2
_chemical_formula_sum   'Li4 Fe8 B8 O24'
_cell_volume   486.71860385
_cell_formula_units_Z   4
loop_
 _symmetry_equiv_pos_site_id
 _symmetry_equiv_pos_as_xyz
  1  'x, y, z'
loop_
 _atom_site_type_symbol
 _atom_site_label
 _atom_site_symmetry_multiplicity
 _atom_site_fract_x
 _atom_site_fract_y
 _atom_site_fract_z
 _atom_site_occupancy
  Li  Li0  1  0.61864600  0.96596500  0.58901300  1
  Li  Li1  1  0.37885200  0.72146700  0.09702300  1
  Li  Li2  1  0.10116200  0.75773300  0.84944400  1
  Li  Li3  1  0.11612000  0.46551400  0.58241600  1
  Fe  Fe0  1  0.64550800  0.64967800  0.61743700  1
  Fe  Fe1  1  0.37489300  0.06589200  0.12508800  1
  Fe  Fe2  1  0.85493200  0.84325300  0.36818200  1
  Fe  Fe3  1  0.11549800  0.42778200  0.86957300  1
  Fe  Fe4  1  0.89277600  0.55848200  0.12237500  1
  Fe  Fe5  1  0.14412000  0.14676800  0.62036800  1
  Fe  Fe6  1  0.35264300  0.34648600  0.36080500  1
  Fe  Fe7  1  0.60843600  0.94056600  0.87632600  1
  B  B0  1  0.64103400  0.31036500  0.61948200  1
  B  B1  1  0.39590400  0.40212500  0.12595600  1
  B  B2  1  0.85616600  0.19205900  0.38043100  1
  B  B3  1  0.09843300  0.09186600  0.85976600  1
  B  B4  1  0.15622700  0.81968300  0.63074900  1
  B  B5  1  0.88040300  0.88047500  0.11212400  1
  B  B6  1  0.34855500  0.68303500  0.37174500  1
  B  B7  1  0.61208600  0.61586300  0.88052600  1
  O  O0  1  0.13916100  0.88139000  0.10938400  1
  O  O1  1  0.28229200  0.29562600  0.16596600  1
  O  O2  1  0.23581100  0.50413800  0.08349000  1
  O  O3  1  0.49846100  0.81633700  0.39288400  1
  O  O4  1  0.46371600  0.56760500  0.41412800  1
  O  O5  1  0.58429200  0.17984700  0.33405900  1
  O  O6  1  0.92090700  0.33116800  0.65195700  1
  O  O7  1  0.65306500  0.40910100  0.12591200  1
  O  O8  1  0.76366000  0.77401800  0.15328200  1
  O  O9  1  0.01060100  0.92575900  0.58830100  1
  O  O10  1  0.03428100  0.69205100  0.64033200  1
  O  O11  1  0.71503000  0.97879500  0.06946700  1
  O  O12  1  0.26029800  0.99272000  0.90443600  1
  O  O13  1  0.01362400  0.31876400  0.38864600  1
  O  O14  1  0.96837900  0.08083700  0.42673600  1
  O  O15  1  0.20151700  0.19866100  0.81698500  1
  O  O16  1  0.35175200  0.61542600  0.88510200  1
  O  O17  1  0.07852300  0.66078500  0.31610400  1
  O  O18  1  0.43051600  0.84801700  0.66651500  1
  O  O19  1  0.50182000  0.42070700  0.58320000  1
  O  O20  1  0.51047600  0.18092200  0.62280400  1
  O  O21  1  0.78045200  0.52155400  0.92350800  1
  O  O22  1  0.71594700  0.72214500  0.83425600  1
  O  O23  1  0.83846900  0.08008500  0.85562100  1
loop_
_geom_bond_atom_site_label_1
_geom_bond_atom_site_label_2
_geom_bond_distance
_geom_bond_site_symmetry_2
Li0 O20 1.980607 1_565
Li0 O18 1.990573 1_555
Li0 O3 2.065008 1_555
Li0 O9 2.093694 1_655
Li1 O0 1.931433 1_555
Li1 O8 1.963892 1_555
Li1 O2 2.054860 1_555
Li1 O16 2.191908 1_554
Li2 O16 1.945371 1_555
Li2 O22 1.997316 1_455
Li2 O12 2.105060 1_555
Li2 O10 2.148565 1_555
Li3 O10 2.017687 1_555
Li3 O13 2.035217 1_555
Li3 O6 2.053509 1_455
Li3 O19 2.067426 1_555
Fe0 O10 2.006711 1_655
Fe0 O19 2.081281 1_555
Fe0 O4 2.105990 1_555
Fe0 O18 2.117527 1_555
Fe0 O22 2.222454 1_555
Fe1 O0 2.006123 1_545
Fe1 O1 2.072113 1_555
Fe1 O11 2.096516 1_545
Fe1 O5 2.193419 1_555
Fe1 O12 2.253023 1_544
Fe2 O3 1.975450 1_555
Fe2 O17 2.040494 1_655
Fe2 O14 2.059465 1_565
Fe2 O8 2.198178 1_555
Fe2 O9 2.251390 1_655
Fe3 O16 2.031511 1_555
Fe3 O15 2.047396 1_555
Fe3 O21 2.083804 1_455
Fe3 O2 2.180034 1_556
Fe3 O6 2.251405 1_455
Fe4 O7 1.860016 1_555
Fe4 O2 1.974891 1_655
Fe4 O17 2.021115 1_655
Fe4 O8 2.029407 1_555
Fe4 O21 2.078987 1_554
Fe5 O20 1.932422 1_555
Fe5 O9 2.003843 1_545
Fe5 O14 2.017480 1_455
Fe5 O15 2.036579 1_555
Fe5 O6 2.038862 1_455
Fe6 O13 1.902482 1_555
Fe6 O4 1.924528 1_555
Fe6 O5 1.944399 1_555
Fe6 O1 2.012814 1_555
Fe6 O19 2.278651 1_555
Fe7 O23 1.854942 1_565
Fe7 O12 1.959061 1_555
Fe7 O22 2.000423 1_555
Fe7 O11 2.013641 1_556
Fe7 O18 2.161345 1_555
B0 O20 1.376091 1_555
B0 O19 1.383169 1_555
B0 O6 1.419299 1_555
B1 O7 1.348158 1_555
B1 O1 1.392668 1_555
B1 O2 1.406258 1_555
B2 O13 1.375117 1_655
B2 O5 1.387689 1_555
B2 O14 1.388397 1_555
B3 O23 1.353463 1_455
B3 O15 1.390275 1_555
B3 O12 1.401619 1_545
B4 O10 1.373919 1_555
B4 O18 1.393105 1_555
B4 O9 1.398299 1_555
B5 O0 1.363292 1_655
B5 O11 1.395413 1_555
B5 O8 1.409313 1_555
B6 O3 1.353827 1_555
B6 O17 1.388061 1_555
B6 O4 1.404239 1_555
B7 O16 1.376921 1_555
B7 O21 1.377348 1_555
B7 O22 1.415968 1_555
