# generated using pymatgen
data_Fe3Ni2Sn(PO4)6
_symmetry_space_group_name_H-M   'P 1'
_cell_length_a   8.53907311
_cell_length_b   8.53907420
_cell_length_c   8.53907368
_cell_angle_alpha   60.90475892
_cell_angle_beta   60.90476020
_cell_angle_gamma   60.90476604
_symmetry_Int_Tables_number   1
_chemical_formula_structural   Fe3Ni2Sn(PO4)6
_chemical_formula_sum   'Fe3 Ni2 Sn1 P6 O24'
_cell_volume   449.24643870
_cell_formula_units_Z   1
loop_
 _symmetry_equiv_pos_site_id
 _symmetry_equiv_pos_as_xyz
  1  'x, y, z'
loop_
 _atom_site_type_symbol
 _atom_site_label
 _atom_site_symmetry_multiplicity
 _atom_site_fract_x
 _atom_site_fract_y
 _atom_site_fract_z
 _atom_site_occupancy
  Fe  Fe0  1  0.14547200  0.14547200  0.14547200  1
  Fe  Fe1  1  0.35443000  0.35443000  0.35443000  1
  Fe  Fe2  1  0.64388400  0.64388400  0.64388400  1
  Ni  Ni0  1  0.00347700  0.00347700  0.00347700  1
  Ni  Ni1  1  0.49931400  0.49931400  0.49931400  1
  Sn  Sn0  1  0.85611600  0.85611600  0.85611600  1
  P  P0  1  0.74801500  0.44922500  0.04919300  1
  P  P1  1  0.04919300  0.74801500  0.44922500  1
  P  P2  1  0.44922500  0.04919300  0.74801500  1
  P  P3  1  0.25458900  0.54217900  0.95283900  1
  P  P4  1  0.54217900  0.95283900  0.25458900  1
  P  P5  1  0.95283900  0.25458900  0.54217900  1
  O  O0  1  0.10686000  0.32272300  0.50263700  1
  O  O1  1  0.32272300  0.50263700  0.10686000  1
  O  O2  1  0.06278300  0.90796000  0.25301000  1
  O  O3  1  0.50263700  0.10686000  0.32272300  1
  O  O4  1  0.01514200  0.81747700  0.60265800  1
  O  O5  1  0.24718600  0.59141700  0.43372000  1
  O  O6  1  0.25301000  0.06278300  0.90796000  1
  O  O7  1  0.43372000  0.24718600  0.59141700  1
  O  O8  1  0.18139700  0.39065300  0.99447100  1
  O  O9  1  0.59141700  0.43372000  0.24718600  1
  O  O10  1  0.09458900  0.74424400  0.94021300  1
  O  O11  1  0.39065300  0.99447100  0.18139700  1
  O  O12  1  0.60265800  0.01514200  0.81747700  1
  O  O13  1  0.90796000  0.25301000  0.06278300  1
  O  O14  1  0.40932100  0.55995500  0.75335900  1
  O  O15  1  0.81747700  0.60265800  0.01514200  1
  O  O16  1  0.55995500  0.75335900  0.40932100  1
  O  O17  1  0.74424400  0.94021300  0.09458900  1
  O  O18  1  0.75335900  0.40932100  0.55995500  1
  O  O19  1  0.99447100  0.18139700  0.39065300  1
  O  O20  1  0.49674700  0.88977700  0.68296900  1
  O  O21  1  0.94021300  0.09458900  0.74424400  1
  O  O22  1  0.68296900  0.49674700  0.88977700  1
  O  O23  1  0.88977700  0.68296900  0.49674700  1
loop_
_geom_bond_atom_site_label_1
_geom_bond_atom_site_label_2
_geom_bond_distance
_geom_bond_site_symmetry_2
Fe0 O11 1.937649 1_545
Fe0 O19 1.937649 1_455
Fe0 O8 1.937649 1_554
Fe0 O13 2.099052 1_455
Fe0 O2 2.099052 1_545
Fe0 O6 2.099052 1_554
Fe1 O0 1.940493 1_555
Fe1 O1 1.940493 1_555
Fe1 O3 1.940494 1_555
Fe1 O9 2.078322 1_555
Fe1 O7 2.078322 1_555
Fe1 O5 2.078323 1_555
Fe2 O23 1.951102 1_555
Fe2 O22 1.951103 1_555
Fe2 O20 1.951103 1_555
Fe2 O14 2.079145 1_555
Fe2 O16 2.079145 1_555
Fe2 O18 2.079145 1_555
Ni0 O6 2.102256 1_554
Ni0 O2 2.102256 1_545
Ni0 O13 2.102256 1_455
Ni0 O17 2.208287 1_445
Ni0 O21 2.208287 1_454
Ni0 O10 2.208287 1_544
Ni1 O18 2.156107 1_555
Ni1 O16 2.156108 1_555
Ni1 O14 2.156108 1_555
Ni1 O5 2.159873 1_555
Ni1 O7 2.159873 1_555
Ni1 O9 2.159873 1_555
O0 P5 1.517721 1_455
O1 P3 1.517721 1_554
O2 P1 1.557455 1_555
O3 P4 1.517721 1_545
O4 P1 1.539636 1_555
O4 Sn0 2.009364 1_455
O5 P1 1.555587 1_555
O6 P2 1.557455 1_555
O7 P2 1.555587 1_555
O8 P3 1.521245 1_555
O9 P0 1.555587 1_555
O10 P3 1.589072 1_555
O10 Sn0 2.106674 1_455
O11 P4 1.521245 1_555
O12 P2 1.539635 1_555
O12 Sn0 2.009364 1_545
O13 P0 1.557455 1_555
O14 P3 1.557269 1_555
O15 P0 1.539635 1_555
O15 Sn0 2.009364 1_554
O16 P4 1.557269 1_555
O17 P4 1.589071 1_555
O17 Sn0 2.106674 1_554
O18 P5 1.557269 1_555
O19 P5 1.521245 1_555
O20 P2 1.518262 1_565
O21 P5 1.589071 1_555
O21 Sn0 2.106674 1_545
O22 P0 1.518262 1_556
O23 P1 1.518262 1_655
