# generated using pymatgen
data_Li3FeS3
_symmetry_space_group_name_H-M   'P 1'
_cell_length_a   11.83746500
_cell_length_b   6.38562200
_cell_length_c   8.03789894
_cell_angle_alpha   51.73006085
_cell_angle_beta   90.00000000
_cell_angle_gamma   90.00000000
_symmetry_Int_Tables_number   1
_chemical_formula_structural   Li3FeS3
_chemical_formula_sum   'Li12 Fe4 S12'
_cell_volume   477.01301412
_cell_formula_units_Z   4
loop_
 _symmetry_equiv_pos_site_id
 _symmetry_equiv_pos_as_xyz
  1  'x, y, z'
loop_
 _atom_site_type_symbol
 _atom_site_label
 _atom_site_symmetry_multiplicity
 _atom_site_fract_x
 _atom_site_fract_y
 _atom_site_fract_z
 _atom_site_occupancy
  Li  Li0  1  0.64051900  0.70753600  0.81870500  1
  Li  Li1  1  0.21123400  0.72408000  0.78113800  1
  Li  Li2  1  0.07386500  0.25082800  0.32413400  1
  Li  Li3  1  0.71123400  0.27592000  0.71886200  1
  Li  Li4  1  0.57386500  0.74917200  0.17586600  1
  Li  Li5  1  0.14051900  0.29246400  0.68129500  1
  Li  Li6  1  0.85948100  0.70753600  0.31870500  1
  Li  Li7  1  0.42613500  0.25082800  0.82413400  1
  Li  Li8  1  0.28876600  0.72408000  0.28113800  1
  Li  Li9  1  0.92613500  0.74917200  0.67586600  1
  Li  Li10  1  0.78876600  0.27592000  0.21886200  1
  Li  Li11  1  0.35948100  0.29246400  0.18129500  1
  Fe  Fe0  1  0.58199900  0.00158300  0.38423600  1
  Fe  Fe1  1  0.08199900  0.99841700  0.11576400  1
  Fe  Fe2  1  0.91800100  0.00158300  0.88423600  1
  Fe  Fe3  1  0.41800100  0.99841700  0.61576400  1
  S  S0  1  0.92665800  0.25319400  0.99374200  1
  S  S1  1  0.08372300  0.76720400  0.46163900  1
  S  S2  1  0.58372300  0.23279600  0.03836100  1
  S  S3  1  0.42665800  0.74680600  0.50625800  1
  S  S4  1  0.74017100  0.76404300  0.52736500  1
  S  S5  1  0.24017100  0.23595700  0.97263500  1
  S  S6  1  0.75982900  0.76404300  0.02736500  1
  S  S7  1  0.25982900  0.23595700  0.47263500  1
  S  S8  1  0.57334200  0.25319400  0.49374200  1
  S  S9  1  0.41627700  0.76720400  0.96163900  1
  S  S10  1  0.91627700  0.23279600  0.53836100  1
  S  S11  1  0.07334200  0.74680600  0.00625800  1
loop_
_geom_bond_atom_site_label_1
_geom_bond_atom_site_label_2
_geom_bond_distance
_geom_bond_site_symmetry_2
Li0 S6 2.384846 1_556
Li0 S4 2.441077 1_555
Li0 S2 2.475717 1_556
Li0 S8 2.884752 1_565
Li0 S9 3.008906 1_555
Li1 S5 2.501787 1_555
Li1 S11 2.506986 1_556
Li1 S7 2.669014 1_565
Li1 S1 2.841349 1_555
Li1 S9 2.926935 1_555
Li2 S7 2.477758 1_555
Li2 S10 2.492506 1_455
Li2 S11 2.556360 1_555
Li2 S1 2.558178 1_545
Li3 S4 2.501787 1_555
Li3 S8 2.506986 1_555
Li3 S6 2.669014 1_546
Li3 S2 2.841349 1_556
Li3 S10 2.926935 1_555
Li4 S6 2.477758 1_555
Li4 S9 2.492506 1_554
Li4 S8 2.556360 1_555
Li4 S2 2.558178 1_565
Li5 S7 2.384846 1_555
Li5 S5 2.441077 1_555
Li5 S1 2.475717 1_555
Li5 S11 2.884752 1_546
Li5 S10 3.008906 1_455
Li6 S4 2.384846 1_555
Li6 S6 2.441077 1_555
Li6 S10 2.475717 1_555
Li6 S0 2.884752 1_564
Li6 S1 3.008906 1_655
Li7 S5 2.477758 1_555
Li7 S2 2.492506 1_556
Li7 S3 2.556360 1_555
Li7 S9 2.558178 1_545
Li8 S7 2.501787 1_555
Li8 S3 2.506986 1_555
Li8 S5 2.669014 1_564
Li8 S9 2.841349 1_554
Li8 S1 2.926935 1_555
Li9 S4 2.477758 1_555
Li9 S1 2.492506 1_655
Li9 S0 2.556360 1_555
Li9 S10 2.558178 1_565
Li10 S6 2.501787 1_555
Li10 S0 2.506986 1_554
Li10 S4 2.669014 1_545
Li10 S10 2.841349 1_555
Li10 S2 2.926935 1_555
Li11 S5 2.384846 1_554
Li11 S7 2.441077 1_555
Li11 S9 2.475717 1_554
Li11 S3 2.884752 1_545
Li11 S2 3.008906 1_555
Fe0 S2 2.196522 1_555
Fe0 S4 2.228992 1_545
Fe0 S3 2.239092 1_545
Fe0 S8 2.262419 1_555
Fe0 Li10 2.818151 1_555
Fe1 S1 2.196522 1_555
Fe1 S5 2.228992 1_564
Fe1 S0 2.239092 1_464
Fe1 S11 2.262419 1_555
Fe1 Li8 2.818151 1_555
Fe2 S10 2.196522 1_555
Fe2 S6 2.228992 1_546
Fe2 S11 2.239092 1_646
Fe2 S0 2.262419 1_555
Fe2 Li3 2.818151 1_555
Fe3 S9 2.196522 1_555
Fe3 S7 2.228992 1_565
Fe3 S8 2.239092 1_565
Fe3 S3 2.262419 1_555
Fe3 Li1 2.818151 1_555
