# generated using pymatgen
data_Li5Fe8(BO3)8
_symmetry_space_group_name_H-M   'P 1'
_cell_length_a   5.21850900
_cell_length_b   9.11761383
_cell_length_c   11.33062937
_cell_angle_alpha   112.35037791
_cell_angle_beta   102.55130254
_cell_angle_gamma   90.02449533
_symmetry_Int_Tables_number   1
_chemical_formula_structural   Li5Fe8(BO3)8
_chemical_formula_sum   'Li5 Fe8 B8 O24'
_cell_volume   484.63408163
_cell_formula_units_Z   1
loop_
 _symmetry_equiv_pos_site_id
 _symmetry_equiv_pos_as_xyz
  1  'x, y, z'
loop_
 _atom_site_type_symbol
 _atom_site_label
 _atom_site_symmetry_multiplicity
 _atom_site_fract_x
 _atom_site_fract_y
 _atom_site_fract_z
 _atom_site_occupancy
  Li  Li0  1  0.02869600  0.03373800  0.39716600  1
  Li  Li1  1  0.30039100  0.27765800  0.91590500  1
  Li  Li2  1  0.48710800  0.50775600  0.66061900  1
  Li  Li3  1  0.97881000  0.00332700  0.66085200  1
  Li  Li4  1  0.76280100  0.74925900  0.15878300  1
  Fe  Fe0  1  0.02100000  0.35984600  0.37541700  1
  Fe  Fe1  1  0.26668200  0.92277600  0.88117200  1
  Fe  Fe2  1  0.48501900  0.15686400  0.62943100  1
  Fe  Fe3  1  0.23972100  0.56536800  0.13614700  1
  Fe  Fe4  1  0.77270600  0.44689400  0.87862100  1
  Fe  Fe5  1  0.52910200  0.84498500  0.38870300  1
  Fe  Fe6  1  0.96380700  0.65127300  0.62884600  1
  Fe  Fe7  1  0.74811000  0.06945800  0.12702200  1
  B  B0  1  0.02763900  0.68468100  0.37549100  1
  B  B1  1  0.26715600  0.59967200  0.87598100  1
  B  B2  1  0.47922800  0.82044600  0.63764700  1
  B  B3  1  0.23588200  0.88775500  0.12739100  1
  B  B4  1  0.51460200  0.18598400  0.37695200  1
  B  B5  1  0.76301600  0.10464200  0.87586800  1
  B  B6  1  0.97183800  0.31063600  0.61855300  1
  B  B7  1  0.73313500  0.40705800  0.13245500  1
  O  O0  1  0.02350700  0.08676100  0.86340100  1
  O  O1  1  0.11230300  0.70843300  0.84086300  1
  O  O2  1  0.16768800  0.50032000  0.92887000  1
  O  O3  1  0.08307300  0.17091600  0.61112100  1
  O  O4  1  0.09050700  0.42021500  0.58215500  1
  O  O5  1  0.24107200  0.85296400  0.67979400  1
  O  O6  1  0.25575700  0.65491300  0.32775000  1
  O  O7  1  0.51316400  0.58804500  0.85455000  1
  O  O8  1  0.62280800  0.22011400  0.84474600  1
  O  O9  1  0.42020900  0.06953200  0.41282000  1
  O  O10  1  0.36812800  0.30734100  0.37129300  1
  O  O11  1  0.63805200  0.00843000  0.91985000  1
  O  O12  1  0.35021100  0.97776300  0.07404200  1
  O  O13  1  0.59452300  0.68630400  0.63318200  1
  O  O14  1  0.58888100  0.92922600  0.59799800  1
  O  O15  1  0.39134000  0.77520500  0.16084400  1
  O  O16  1  0.46294100  0.39782700  0.11193500  1
  O  O17  1  0.73864100  0.34413100  0.66162200  1
  O  O18  1  0.76767300  0.17654700  0.34821200  1
  O  O19  1  0.93898700  0.58155800  0.42390800  1
  O  O20  1  0.89786500  0.81521400  0.37138600  1
  O  O21  1  0.85572900  0.52013500  0.09988700  1
  O  O22  1  0.88008600  0.30716800  0.17906300  1
  O  O23  1  0.98744100  0.90420200  0.14764700  1
loop_
_geom_bond_atom_site_label_1
_geom_bond_atom_site_label_2
_geom_bond_distance
_geom_bond_site_symmetry_2
Li0 O20 1.997679 1_445
Li0 O18 2.020136 1_455
Li0 O9 2.027359 1_555
Li0 O3 2.217321 1_555
Li0 O23 2.574893 1_445
Li1 O8 2.006220 1_555
Li1 O16 2.045228 1_556
Li1 O0 2.075546 1_555
Li1 O2 2.107426 1_555
Li2 O13 1.876400 1_555
Li2 O17 1.989191 1_555
Li2 O7 2.007349 1_555
Li2 O4 2.090494 1_555
Li3 O3 1.932808 1_655
Li3 O5 1.973931 1_645
Li3 O14 2.026648 1_545
Li3 O0 2.083160 1_655
Li4 O23 1.893242 1_555
Li4 O15 1.957051 1_555
Li4 O21 2.031243 1_555
Li4 O20 2.195746 1_555
Fe0 O10 1.879727 1_555
Fe0 O19 1.956957 1_455
Fe0 O18 2.016171 1_455
Fe0 O22 2.048702 1_455
Fe0 O4 2.138141 1_555
Fe1 O1 1.958776 1_555
Fe1 O11 1.981682 1_565
Fe1 O12 1.992384 1_556
Fe1 O0 2.001485 1_565
Fe1 O5 2.095748 1_555
Fe2 O17 2.028469 1_555
Fe2 O14 2.061807 1_545
Fe2 O3 2.071357 1_555
Fe2 O9 2.219206 1_555
Fe2 O8 2.229060 1_555
Fe3 O16 1.894036 1_555
Fe3 O15 1.964694 1_555
Fe3 O21 1.966460 1_455
Fe3 O6 1.989896 1_555
Fe3 O2 2.136731 1_554
Fe4 O7 1.916508 1_555
Fe4 O2 2.021933 1_655
Fe4 O8 2.073430 1_555
Fe4 O17 2.238902 1_555
Fe4 O21 2.274529 1_556
Fe5 O20 1.984822 1_555
Fe5 O6 2.043156 1_555
Fe5 O9 2.057221 1_565
Fe5 O14 2.145690 1_555
Fe5 O15 2.351783 1_555
Fe6 O13 1.961614 1_555
Fe6 O4 2.112061 1_655
Fe6 O19 2.135300 1_555
Fe6 O5 2.153097 1_655
Fe6 O1 2.209406 1_655
Fe7 O23 2.006816 1_545
Fe7 O22 2.090378 1_555
Fe7 O12 2.108551 1_545
Fe7 O11 2.137778 1_554
Fe7 O18 2.296202 1_555
B0 O19 1.378860 1_455
B0 O20 1.380708 1_455
B0 O6 1.397107 1_555
B1 O7 1.354386 1_555
B1 O1 1.398477 1_555
B1 O2 1.413074 1_555
B2 O13 1.351750 1_555
B2 O14 1.401099 1_555
B2 O5 1.418149 1_555
B3 O23 1.363588 1_455
B3 O12 1.388685 1_555
B3 O15 1.420481 1_555
B4 O10 1.358703 1_555
B4 O9 1.396387 1_555
B4 O18 1.422419 1_555
B5 O11 1.384330 1_555
B5 O8 1.392490 1_555
B5 O0 1.400202 1_655
B6 O3 1.381012 1_655
B6 O17 1.399084 1_555
B6 O4 1.405571 1_655
B7 O22 1.373619 1_555
B7 O16 1.375427 1_555
B7 O21 1.414143 1_555
