# generated using pymatgen
data_Li2V(OF)2
_symmetry_space_group_name_H-M   'P 1'
_cell_length_a   11.23899700
_cell_length_b   5.04606300
_cell_length_c   5.16359612
_cell_angle_alpha   88.76518587
_cell_angle_beta   90.00000000
_cell_angle_gamma   90.00000000
_symmetry_Int_Tables_number   1
_chemical_formula_structural   Li2V(OF)2
_chemical_formula_sum   'Li8 V4 O8 F8'
_cell_volume   292.77340481
_cell_formula_units_Z   4
loop_
 _symmetry_equiv_pos_site_id
 _symmetry_equiv_pos_as_xyz
  1  'x, y, z'
loop_
 _atom_site_type_symbol
 _atom_site_label
 _atom_site_symmetry_multiplicity
 _atom_site_fract_x
 _atom_site_fract_y
 _atom_site_fract_z
 _atom_site_occupancy
  Li  Li0  1  0.36057900  0.00172300  0.24847800  1
  Li  Li1  1  0.63942100  0.00172300  0.74847800  1
  Li  Li2  1  0.21578000  0.99848500  0.74491600  1
  Li  Li3  1  0.78422000  0.99848500  0.24491600  1
  Li  Li4  1  0.85933600  0.49656400  0.22569900  1
  Li  Li5  1  0.28651500  0.50923700  0.24848900  1
  Li  Li6  1  0.71348500  0.50923700  0.74848900  1
  Li  Li7  1  0.14066400  0.49656400  0.72569900  1
  V  V0  1  0.07341400  0.00570200  0.28632100  1
  V  V1  1  0.92658600  0.00570200  0.78632100  1
  V  V2  1  0.55191800  0.50136600  0.24796500  1
  V  V3  1  0.44808200  0.50136600  0.74796500  1
  O  O0  1  0.05205400  0.19044900  0.59176800  1
  O  O1  1  0.94794600  0.19044900  0.09176800  1
  O  O2  1  0.55246100  0.29059000  0.57473600  1
  O  O3  1  0.44753900  0.29059000  0.07473600  1
  O  O4  1  0.44606300  0.70985100  0.41914200  1
  O  O5  1  0.55393700  0.70985100  0.91914200  1
  O  O6  1  0.18103000  0.78065300  0.40052800  1
  O  O7  1  0.81897000  0.78065300  0.90052800  1
  F  F0  1  0.19318400  0.22468100  0.08968000  1
  F  F1  1  0.80681600  0.22468100  0.58968000  1
  F  F2  1  0.30629500  0.28917500  0.59018000  1
  F  F3  1  0.69370500  0.28917500  0.09018000  1
  F  F4  1  0.30921000  0.71800600  0.90650300  1
  F  F5  1  0.69079000  0.71800600  0.40650300  1
  F  F6  1  0.06534900  0.78351900  0.92559400  1
  F  F7  1  0.93465100  0.78351900  0.42559400  1
loop_
_geom_bond_atom_site_label_1
_geom_bond_atom_site_label_2
_geom_bond_distance
_geom_bond_site_symmetry_2
Li0 O4 1.952651 1_545
Li0 O3 1.956631 1_555
Li0 O6 2.428006 1_545
Li1 O5 1.952651 1_545
Li1 O2 1.956631 1_555
Li1 O7 2.428006 1_545
Li2 O6 2.146460 1_555
Li2 O0 2.217358 1_565
Li3 O7 2.146460 1_554
Li3 O1 2.217358 1_565
Li4 O1 1.975378 1_555
Li4 O7 2.230763 1_554
Li5 O6 1.985937 1_555
Li5 O4 2.248360 1_555
Li5 O3 2.310863 1_555
Li6 O7 1.985937 1_555
Li6 O5 2.248360 1_555
Li6 O2 2.310863 1_555
Li7 O0 1.975378 1_555
Li7 O6 2.230763 1_555
O0 V0 1.864848 1_555
O0 V1 1.956119 1_455
O1 V1 1.864848 1_554
O1 V0 1.956119 1_655
O2 V3 1.829898 1_555
O2 V2 1.975079 1_555
O3 V2 1.829898 1_555
O3 V3 1.975079 1_554
O4 V2 1.828523 1_555
O4 V3 1.978178 1_555
O5 V3 1.828523 1_555
O5 V2 1.978178 1_556
O6 V0 1.752541 1_565
O7 V1 1.752541 1_565
F0 Li5 1.971104 1_555
F0 V0 2.003892 1_555
F0 Li2 2.150361 1_544
F0 Li0 2.331916 1_555
F0 Li7 2.377360 1_554
F1 Li6 1.971104 1_555
F1 V1 2.003892 1_555
F1 Li3 2.150361 1_545
F1 Li1 2.331916 1_555
F1 Li4 2.377360 1_555
F2 Li2 1.942780 1_545
F2 Li5 2.076299 1_555
F2 V3 2.094574 1_555
F2 Li7 2.254256 1_555
F2 Li0 2.387388 1_555
F3 Li3 1.942780 1_545
F3 Li6 2.076299 1_554
F3 V2 2.094574 1_555
F3 Li4 2.254256 1_555
F3 Li1 2.387388 1_554
F4 Li2 1.936754 1_555
F4 Li5 2.052556 1_556
F4 V3 2.083219 1_555
F4 Li0 2.368550 1_566
F4 Li7 2.398646 1_555
F5 Li3 1.936754 1_555
F5 Li6 2.052556 1_555
F5 V2 2.083219 1_555
F5 Li1 2.368550 1_565
F5 Li4 2.398646 1_555
F6 Li7 1.985697 1_555
F6 V1 2.042454 1_465
F6 V0 2.196510 1_566
F6 Li2 2.204963 1_555
F7 Li4 1.985697 1_555
F7 V0 2.042454 1_665
F7 V1 2.196510 1_565
F7 Li3 2.204963 1_555
