# generated using pymatgen
data_LiNbFeO4
_symmetry_space_group_name_H-M   'P 1'
_cell_length_a   6.14204691
_cell_length_b   6.14339572
_cell_length_c   8.78482320
_cell_angle_alpha   89.93315571
_cell_angle_beta   90.07215678
_cell_angle_gamma   90.33135971
_symmetry_Int_Tables_number   1
_chemical_formula_structural   LiNbFeO4
_chemical_formula_sum   'Li4 Nb4 Fe4 O16'
_cell_volume   331.47192185
_cell_formula_units_Z   4
loop_
 _symmetry_equiv_pos_site_id
 _symmetry_equiv_pos_as_xyz
  1  'x, y, z'
loop_
 _atom_site_type_symbol
 _atom_site_label
 _atom_site_symmetry_multiplicity
 _atom_site_fract_x
 _atom_site_fract_y
 _atom_site_fract_z
 _atom_site_occupancy
  Li  Li0  1  0.99997600  0.23515800  0.99996100  1
  Li  Li1  1  0.00011500  0.76521600  0.49966100  1
  Li  Li2  1  0.23514200  0.99999000  0.25009500  1
  Li  Li3  1  0.76519000  0.00019000  0.75038000  1
  Nb  Nb0  1  0.25203000  0.25207900  0.62496500  1
  Nb  Nb1  1  0.25037400  0.74837200  0.87474600  1
  Nb  Nb2  1  0.74824500  0.25029400  0.37527800  1
  Nb  Nb3  1  0.74890400  0.74874500  0.12502300  1
  Fe  Fe0  1  0.50039300  0.75761100  0.49994700  1
  Fe  Fe1  1  0.75766300  0.50040100  0.75001100  1
  Fe  Fe2  1  0.24213300  0.50051600  0.24990300  1
  Fe  Fe3  1  0.50043900  0.24212400  0.00011900  1
  O  O0  1  0.99898500  0.25203200  0.25411700  1
  O  O1  1  0.00196900  0.74484300  0.24596600  1
  O  O2  1  0.25263700  0.99938200  0.99586500  1
  O  O3  1  0.25111300  0.00157100  0.50392700  1
  O  O4  1  0.74520500  0.00141400  0.00400700  1
  O  O5  1  0.74388800  0.99681200  0.49649100  1
  O  O6  1  0.00154900  0.25114300  0.74605500  1
  O  O7  1  0.99687100  0.74389900  0.75351900  1
  O  O8  1  0.25701300  0.49770600  0.00177400  1
  O  O9  1  0.25779300  0.50384200  0.49773600  1
  O  O10  1  0.49724200  0.25752600  0.24826800  1
  O  O11  1  0.49933600  0.74588400  0.25146100  1
  O  O12  1  0.50383700  0.25775000  0.75216300  1
  O  O13  1  0.49967200  0.74690400  0.74829800  1
  O  O14  1  0.74704800  0.49965000  0.50167800  1
  O  O15  1  0.74523900  0.49894500  0.99858300  1
loop_
_geom_bond_atom_site_label_1
_geom_bond_atom_site_label_2
_geom_bond_distance
_geom_bond_site_symmetry_2
Li0 O4 2.118014 1_556
Li0 O2 2.129287 1_645
Li0 O6 2.232596 1_655
Li0 O0 2.235259 1_556
Li0 O8 2.250502 1_656
Li0 O15 2.259104 1_555
Li1 O3 2.111995 1_565
Li1 O5 2.127794 1_455
Li1 O1 2.232370 1_555
Li1 O7 2.233894 1_455
Li1 O14 2.246932 1_455
Li1 O9 2.261196 1_555
Li2 O1 2.117402 1_555
Li2 O0 2.128126 1_465
Li2 O3 2.231932 1_565
Li2 O2 2.236093 1_554
Li2 O10 2.250676 1_565
Li2 O11 2.258192 1_555
Li3 O6 2.111853 1_655
Li3 O7 2.128481 1_545
Li3 O4 2.231625 1_556
Li3 O5 2.234153 1_545
Li3 O13 2.247623 1_545
Li3 O12 2.260575 1_555
Nb0 O6 1.871494 1_555
Nb0 O3 1.871567 1_555
Nb0 O12 1.907077 1_555
Nb0 O9 1.907386 1_555
Nb1 O2 1.874508 1_555
Nb1 O7 1.885370 1_455
Nb1 O13 1.892895 1_555
Nb1 O8 1.901304 1_556
Nb2 O0 1.873153 1_555
Nb2 O5 1.885552 1_545
Nb2 O14 1.893109 1_555
Nb2 O10 1.902628 1_555
Nb3 O4 1.880604 1_565
Nb3 O1 1.881908 1_655
Nb3 O11 1.894104 1_555
Nb3 O15 1.895482 1_554
Fe0 O5 2.090850 1_555
Fe0 O3 2.149066 1_565
Fe0 O9 2.150413 1_555
Fe0 O13 2.182644 1_555
Fe0 O11 2.184178 1_555
Fe0 O14 2.198741 1_555
Fe1 O7 2.090904 1_555
Fe1 O6 2.148657 1_655
Fe1 O12 2.150858 1_555
Fe1 O14 2.182463 1_555
Fe1 O15 2.185096 1_555
Fe1 O13 2.198205 1_555
Fe2 O1 2.110797 1_555
Fe2 O0 2.129705 1_455
Fe2 O10 2.170465 1_555
Fe2 O11 2.177267 1_555
Fe2 O9 2.179286 1_555
Fe2 O8 2.181892 1_555
Fe3 O4 2.115069 1_555
Fe3 O2 2.124972 1_544
Fe3 O15 2.173196 1_554
Fe3 O8 2.174452 1_555
Fe3 O12 2.180373 1_554
Fe3 O10 2.182226 1_555
