# generated using pymatgen
data_Na5Fe2P2(CO7)2
_symmetry_space_group_name_H-M   'P 1'
_cell_length_a   6.67101300
_cell_length_b   8.98107500
_cell_length_c   10.45419801
_cell_angle_alpha   89.68102464
_cell_angle_beta   90.00000000
_cell_angle_gamma   90.00000000
_symmetry_Int_Tables_number   1
_chemical_formula_structural   Na5Fe2P2(CO7)2
_chemical_formula_sum   'Na10 Fe4 P4 C4 O28'
_cell_volume   626.33127976
_cell_formula_units_Z   2
loop_
 _symmetry_equiv_pos_site_id
 _symmetry_equiv_pos_as_xyz
  1  'x, y, z'
loop_
 _atom_site_type_symbol
 _atom_site_label
 _atom_site_symmetry_multiplicity
 _atom_site_fract_x
 _atom_site_fract_y
 _atom_site_fract_z
 _atom_site_occupancy
  Na  Na0  1  0.75028900  0.92501400  0.61374900  1
  Na  Na1  1  0.75832000  0.91100600  0.12359200  1
  Na  Na2  1  0.99527300  0.73493500  0.87879100  1
  Na  Na3  1  0.50289800  0.73542300  0.88087600  1
  Na  Na4  1  0.51130700  0.73969700  0.36855400  1
  Na  Na5  1  0.01130700  0.26030300  0.63144600  1
  Na  Na6  1  0.49527300  0.26506500  0.12120900  1
  Na  Na7  1  0.00289800  0.26457700  0.11912400  1
  Na  Na8  1  0.25832000  0.08899400  0.87640800  1
  Na  Na9  1  0.25028900  0.07498600  0.38625100  1
  Fe  Fe0  1  0.24180800  0.64737600  0.60111600  1
  Fe  Fe1  1  0.24541500  0.65178200  0.11680300  1
  Fe  Fe2  1  0.74541500  0.34821800  0.88319700  1
  Fe  Fe3  1  0.74180800  0.35262400  0.39888400  1
  P  P0  1  0.74890900  0.58528600  0.64432200  1
  P  P1  1  0.74849000  0.57709400  0.14807800  1
  P  P2  1  0.24849000  0.42290600  0.85192200  1
  P  P3  1  0.24890900  0.41471400  0.35567800  1
  C  C0  1  0.24947900  0.92786300  0.63669000  1
  C  C1  1  0.25525600  0.94587100  0.13351800  1
  C  C2  1  0.75525600  0.05412900  0.86648200  1
  C  C3  1  0.74947900  0.07213700  0.36331000  1
  O  O0  1  0.74971100  0.91030900  0.85778500  1
  O  O1  1  0.73258900  0.93176200  0.35111000  1
  O  O2  1  0.26294600  0.86492600  0.52481100  1
  O  O3  1  0.24730400  0.88251700  0.02077800  1
  O  O4  1  0.25224900  0.83521300  0.73478900  1
  O  O5  1  0.26618300  0.86352100  0.23489800  1
  O  O6  1  0.93838700  0.68232900  0.61568700  1
  O  O7  1  0.56172800  0.67749400  0.60250500  1
  O  O8  1  0.93009600  0.67703900  0.11571600  1
  O  O9  1  0.56298300  0.67638400  0.11904200  1
  O  O10  1  0.24866000  0.57033600  0.92711000  1
  O  O11  1  0.25994800  0.56529700  0.42753800  1
  O  O12  1  0.74021900  0.55531300  0.79011100  1
  O  O13  1  0.74201900  0.53373700  0.29455000  1
  O  O14  1  0.24201900  0.46626300  0.70545000  1
  O  O15  1  0.24021900  0.44468700  0.20988900  1
  O  O16  1  0.75994800  0.43470300  0.57246200  1
  O  O17  1  0.74866000  0.42966400  0.07289000  1
  O  O18  1  0.43009600  0.32296100  0.88428400  1
  O  O19  1  0.06298300  0.32361600  0.88095800  1
  O  O20  1  0.43838700  0.31767100  0.38431300  1
  O  O21  1  0.06172800  0.32250600  0.39749500  1
  O  O22  1  0.76618300  0.13647900  0.76510200  1
  O  O23  1  0.75224900  0.16478700  0.26521100  1
  O  O24  1  0.74730400  0.11748300  0.97922200  1
  O  O25  1  0.76294600  0.13507400  0.47518900  1
  O  O26  1  0.23258900  0.06823800  0.64889000  1
  O  O27  1  0.24971100  0.08969100  0.14221500  1
loop_
_geom_bond_atom_site_label_1
_geom_bond_atom_site_label_2
_geom_bond_distance
_geom_bond_site_symmetry_2
Na0 O25 2.373621 1_565
Na0 O22 2.480965 1_565
Na0 O6 2.514953 1_555
Na0 O0 2.553885 1_555
Na0 O7 2.557485 1_555
Na0 O1 2.748549 1_555
Na1 O24 2.385558 1_564
Na1 O1 2.393010 1_555
Na1 O8 2.395244 1_555
Na1 O9 2.478215 1_555
Na1 O23 2.725069 1_565
Na1 O0 2.779434 1_554
Na2 O0 2.282252 1_555
Na2 O10 2.299875 1_655
Na2 O4 2.449712 1_655
Na2 O12 2.524585 1_555
Na2 O8 2.565135 1_556
Na2 O3 2.609370 1_656
Na2 O6 2.819073 1_555
Na3 O0 2.287351 1_555
Na3 O10 2.302263 1_555
Na3 O4 2.432333 1_555
Na3 O12 2.457734 1_555
Na3 O9 2.574177 1_556
Na3 O3 2.610187 1_556
Na4 O1 2.276906 1_555
Na4 O11 2.373709 1_555
Na4 O5 2.417792 1_555
Na4 O7 2.528202 1_555
Na4 O13 2.530769 1_555
Na4 O2 2.588222 1_555
Na4 O9 2.694936 1_555
Na5 O26 2.276906 1_555
Na5 O16 2.373709 1_455
Na5 O22 2.417792 1_455
Na5 O21 2.528202 1_555
Na5 O14 2.530769 1_555
Na5 O25 2.588222 1_455
Na5 O19 2.694936 1_555
Na6 O27 2.282252 1_555
Na6 O17 2.299875 1_555
Na6 O23 2.449712 1_555
Na6 O15 2.524585 1_555
Na6 O18 2.565135 1_554
Na6 O24 2.609370 1_554
Na6 O20 2.819073 1_555
Na7 O27 2.287351 1_555
Na7 O17 2.302263 1_455
Na7 O23 2.432333 1_455
Na7 O15 2.457734 1_555
Na7 O19 2.574177 1_554
Na7 O24 2.610187 1_454
Na8 O3 2.385558 1_546
Na8 O26 2.393010 1_555
Na8 O18 2.395244 1_555
Na8 O19 2.478215 1_555
Na8 O4 2.725069 1_545
Na8 O27 2.779434 1_556
Na9 O2 2.373621 1_545
Na9 O5 2.480965 1_545
Na9 O20 2.514953 1_555
Na9 O27 2.553885 1_555
Na9 O21 2.557485 1_555
Na9 O26 2.748549 1_555
Fe0 O14 1.953389 1_555
Fe0 O11 1.966159 1_555
Fe0 O6 2.054109 1_455
Fe0 O2 2.111002 1_555
Fe0 O7 2.151323 1_555
Fe0 O4 2.197691 1_555
Fe1 O15 2.094615 1_555
Fe1 O8 2.115716 1_455
Fe1 O10 2.117619 1_554
Fe1 O9 2.130134 1_555
Fe1 O5 2.277234 1_555
Fe1 O3 2.297597 1_555
Fe2 O12 2.094615 1_555
Fe2 O18 2.115716 1_555
Fe2 O17 2.117619 1_556
Fe2 O19 2.130134 1_655
Fe2 O22 2.277234 1_555
Fe2 O24 2.297597 1_555
Fe3 O13 1.953389 1_555
Fe3 O16 1.966159 1_555
Fe3 O20 2.054109 1_555
Fe3 O25 2.111002 1_555
Fe3 O21 2.151323 1_655
Fe3 O23 2.197691 1_555
C0 O26 1.272856 1_565
C0 O2 1.304955 1_555
C0 O4 1.317183 1_555
C1 O5 1.291068 1_555
C1 O27 1.295887 1_565
C1 O3 1.312684 1_555
C2 O22 1.291068 1_555
C2 O0 1.295887 1_545
C2 O24 1.312684 1_555
C3 O1 1.272856 1_545
C3 O25 1.304955 1_555
C3 O23 1.317183 1_555
O6 P0 1.563340 1_555
O7 P0 1.559517 1_555
O8 P1 1.544186 1_555
O9 P1 1.554274 1_555
O10 P2 1.543574 1_555
O11 P3 1.552441 1_555
O12 P0 1.547307 1_555
O13 P1 1.578471 1_555
O14 P2 1.578471 1_555
O15 P3 1.547307 1_555
O16 P0 1.552441 1_555
O17 P1 1.543574 1_555
O18 P2 1.544186 1_555
O19 P2 1.554274 1_555
O20 P3 1.563340 1_555
O21 P3 1.559517 1_555
