# generated using pymatgen
data_Bi19(O9F)3
_symmetry_space_group_name_H-M   'P 1'
_cell_length_a   13.08401219
_cell_length_b   13.08401219
_cell_length_c   10.46398400
_cell_angle_alpha   90.00000000
_cell_angle_beta   90.00000000
_cell_angle_gamma   120.00000098
_symmetry_Int_Tables_number   1
_chemical_formula_structural   Bi19(O9F)3
_chemical_formula_sum   'Bi38 O54 F6'
_cell_volume   1551.34923104
_cell_formula_units_Z   2
loop_
 _symmetry_equiv_pos_site_id
 _symmetry_equiv_pos_as_xyz
  1  'x, y, z'
loop_
 _atom_site_type_symbol
 _atom_site_label
 _atom_site_symmetry_multiplicity
 _atom_site_fract_x
 _atom_site_fract_y
 _atom_site_fract_z
 _atom_site_occupancy
  Bi  Bi0  1  0.23705200  0.93753800  0.24597100  1
  Bi  Bi1  1  0.22144800  0.93703900  0.58371500  1
  Bi  Bi2  1  0.24088400  0.93838300  0.91710000  1
  Bi  Bi3  1  0.13428800  0.61175600  0.24870100  1
  Bi  Bi4  1  0.13376500  0.60619300  0.58292600  1
  Bi  Bi5  1  0.13302300  0.61390500  0.91663900  1
  Bi  Bi6  1  0.06246200  0.29951300  0.24597100  1
  Bi  Bi7  1  0.06296100  0.28440900  0.58371500  1
  Bi  Bi8  1  0.06161700  0.30250100  0.91710000  1
  Bi  Bi9  1  0.00000000  0.00000000  0.34801400  1
  Bi  Bi10  1  0.00000000  0.00000000  0.84801400  1
  Bi  Bi11  1  0.48088200  0.86697700  0.91663900  1
  Bi  Bi12  1  0.47242900  0.86623500  0.58292600  1
  Bi  Bi13  1  0.47746800  0.86571200  0.24870100  1
  Bi  Bi14  1  0.39380700  0.52757100  0.58292600  1
  Bi  Bi15  1  0.38609500  0.51911800  0.91663900  1
  Bi  Bi16  1  0.38824400  0.52253200  0.24870100  1
  Bi  Bi17  1  0.30250100  0.24088400  0.41710000  1
  Bi  Bi18  1  0.28440900  0.22144800  0.08371500  1
  Bi  Bi19  1  0.29951300  0.23705200  0.74597100  1
  Bi  Bi20  1  0.69749900  0.75911600  0.91710000  1
  Bi  Bi21  1  0.70048700  0.76294800  0.24597100  1
  Bi  Bi22  1  0.71559100  0.77855200  0.58371500  1
  Bi  Bi23  1  0.61175600  0.47746800  0.74870100  1
  Bi  Bi24  1  0.61390500  0.48088200  0.41663900  1
  Bi  Bi25  1  0.60619300  0.47242900  0.08292600  1
  Bi  Bi26  1  0.51911800  0.13302300  0.41663900  1
  Bi  Bi27  1  0.52757100  0.13376500  0.08292600  1
  Bi  Bi28  1  0.52253200  0.13428800  0.74870100  1
  Bi  Bi29  1  0.93753800  0.70048700  0.74597100  1
  Bi  Bi30  1  0.93703900  0.71559100  0.08371500  1
  Bi  Bi31  1  0.93838300  0.69749900  0.41710000  1
  Bi  Bi32  1  0.86571200  0.38824400  0.74870100  1
  Bi  Bi33  1  0.86697700  0.38609500  0.41663900  1
  Bi  Bi34  1  0.86623500  0.39380700  0.08292600  1
  Bi  Bi35  1  0.76294800  0.06246200  0.74597100  1
  Bi  Bi36  1  0.75911600  0.06161700  0.41710000  1
  Bi  Bi37  1  0.77855200  0.06296100  0.08371500  1
  O  O0  1  0.01422900  0.83589700  0.25406700  1
  O  O1  1  0.01343700  0.82096300  0.57910100  1
  O  O2  1  0.01573900  0.82941800  0.91284000  1
  O  O3  1  0.12273900  0.72325800  0.74761400  1
  O  O4  1  0.12475700  0.72849500  0.08434700  1
  O  O5  1  0.12352900  0.72289400  0.41268600  1
  O  O6  1  0.05630600  0.45522200  0.07964900  1
  O  O7  1  0.05732500  0.45887500  0.74810900  1
  O  O8  1  0.05819700  0.45653500  0.41612600  1
  O  O9  1  0.39833800  0.94180300  0.41612600  1
  O  O10  1  0.39891600  0.94369400  0.07964900  1
  O  O11  1  0.40154900  0.94267500  0.74810900  1
  O  O12  1  0.27710600  0.40063500  0.41268600  1
  O  O13  1  0.27150500  0.39626200  0.08434700  1
  O  O14  1  0.27674200  0.39948100  0.74761400  1
  O  O15  1  0.17903700  0.19247300  0.57910100  1
  O  O16  1  0.16410300  0.17833200  0.25406700  1
  O  O17  1  0.17058200  0.18632100  0.91284000  1
  O  O18  1  0.60051900  0.87726100  0.74761400  1
  O  O19  1  0.60373800  0.87524300  0.08434700  1
  O  O20  1  0.59936500  0.87647100  0.41268600  1
  O  O21  1  0.17833200  0.01422900  0.75406700  1
  O  O22  1  0.19247300  0.01343700  0.07910100  1
  O  O23  1  0.18632100  0.01573900  0.41284000  1
  O  O24  1  0.54112500  0.59845100  0.74810900  1
  O  O25  1  0.54346500  0.60166200  0.41612600  1
  O  O26  1  0.54477800  0.60108400  0.07964900  1
  O  O27  1  0.45522200  0.39891600  0.57964900  1
  O  O28  1  0.45653500  0.39833800  0.91612600  1
  O  O29  1  0.45887500  0.40154900  0.24810900  1
  O  O30  1  0.82166800  0.98577100  0.25406700  1
  O  O31  1  0.80752700  0.98656300  0.57910100  1
  O  O32  1  0.81367900  0.98426100  0.91284000  1
  O  O33  1  0.39626200  0.12475700  0.58434700  1
  O  O34  1  0.39948100  0.12273900  0.24761400  1
  O  O35  1  0.40063500  0.12352900  0.91268600  1
  O  O36  1  0.83589700  0.82166800  0.75406700  1
  O  O37  1  0.82096300  0.80752700  0.07910100  1
  O  O38  1  0.82941800  0.81367900  0.41284000  1
  O  O39  1  0.72325800  0.60051900  0.24761400  1
  O  O40  1  0.72289400  0.59936500  0.91268600  1
  O  O41  1  0.72849500  0.60373800  0.58434700  1
  O  O42  1  0.60166200  0.05819700  0.91612600  1
  O  O43  1  0.59845100  0.05732500  0.24810900  1
  O  O44  1  0.60108400  0.05630600  0.57964900  1
  O  O45  1  0.94180300  0.54346500  0.91612600  1
  O  O46  1  0.94369400  0.54477800  0.57964900  1
  O  O47  1  0.94267500  0.54112500  0.24810900  1
  O  O48  1  0.87647100  0.27710600  0.91268600  1
  O  O49  1  0.87726100  0.27674200  0.24761400  1
  O  O50  1  0.87524300  0.27150500  0.58434700  1
  O  O51  1  0.98577100  0.16410300  0.75406700  1
  O  O52  1  0.98656300  0.17903700  0.07910100  1
  O  O53  1  0.98426100  0.17058200  0.41284000  1
  F  F0  1  0.33333300  0.66666700  0.41308300  1
  F  F1  1  0.33333300  0.66666700  0.07944000  1
  F  F2  1  0.33333300  0.66666700  0.74809200  1
  F  F3  1  0.66666700  0.33333300  0.24809200  1
  F  F4  1  0.66666700  0.33333300  0.91308300  1
  F  F5  1  0.66666700  0.33333300  0.57944000  1
loop_
_geom_bond_atom_site_label_1
_geom_bond_atom_site_label_2
_geom_bond_distance
_geom_bond_site_symmetry_2
Bi0 O22 2.225884 1_565
Bi0 O23 2.283759 1_565
Bi0 O34 2.288853 1_565
Bi0 O0 2.529480 1_555
Bi0 O10 2.711102 1_555
Bi0 O9 2.740212 1_555
Bi1 O23 2.223030 1_565
Bi1 O21 2.255110 1_565
Bi1 O1 2.362769 1_555
Bi1 O33 2.376199 1_565
Bi1 O9 2.879496 1_555
Bi2 O22 2.204809 1_566
Bi2 O35 2.275062 1_565
Bi2 O21 2.318871 1_565
Bi2 O2 2.551964 1_555
Bi2 O10 2.651338 1_556
Bi2 O11 2.725997 1_555
Bi3 O47 2.196037 1_455
Bi3 O5 2.298576 1_555
Bi3 O4 2.344509 1_555
Bi3 O8 2.482563 1_555
Bi3 O6 2.505042 1_555
Bi4 O46 2.198443 1_455
Bi4 O3 2.357448 1_555
Bi4 O5 2.393169 1_555
Bi4 O7 2.403209 1_555
Bi4 O8 2.433554 1_555
Bi5 O45 2.191621 1_455
Bi5 O3 2.320766 1_555
Bi5 O4 2.345505 1_556
Bi5 O6 2.478648 1_556
Bi5 O7 2.489243 1_555
Bi6 O52 2.225871 1_455
Bi6 O53 2.283752 1_455
Bi6 O49 2.288859 1_455
Bi6 O16 2.529468 1_555
Bi6 O6 2.711112 1_555
Bi6 O8 2.740222 1_555
Bi7 O53 2.223030 1_455
Bi7 O51 2.255110 1_455
Bi7 O15 2.362780 1_555
Bi7 O50 2.376199 1_455
Bi7 O8 2.879496 1_555
Bi8 O52 2.204802 1_456
Bi8 O48 2.275062 1_455
Bi8 O51 2.318871 1_455
Bi8 O17 2.551964 1_555
Bi8 O6 2.651338 1_556
Bi8 O7 2.726007 1_555
Bi9 O38 2.437935 1_445
Bi9 O23 2.437935 1_555
Bi9 O53 2.437935 1_455
Bi9 O16 2.451724 1_555
Bi9 O30 2.451724 1_445
Bi9 O0 2.451724 1_545
Bi10 O17 2.437935 1_555
Bi10 O32 2.437935 1_445
Bi10 O2 2.437935 1_545
Bi10 O36 2.451724 1_445
Bi10 O21 2.451724 1_555
Bi10 O51 2.451724 1_455
Bi11 O42 2.191621 1_565
Bi11 O18 2.320766 1_555
Bi11 O19 2.345505 1_556
Bi11 O10 2.478648 1_556
Bi11 O11 2.489251 1_555
Bi12 O44 2.198440 1_565
Bi12 O18 2.357439 1_555
Bi12 O20 2.393160 1_555
Bi12 O11 2.403224 1_555
Bi12 O9 2.433562 1_555
Bi13 O43 2.196039 1_565
Bi13 O20 2.298576 1_555
Bi13 O19 2.344509 1_555
Bi13 O9 2.482563 1_555
Bi13 O10 2.505042 1_555
Bi14 O27 2.198430 1_555
Bi14 O14 2.357443 1_555
Bi14 O12 2.393164 1_555
Bi14 O24 2.403208 1_555
Bi14 O25 2.433554 1_555
Bi15 O28 2.191621 1_555
Bi15 O14 2.320766 1_555
Bi15 O13 2.345505 1_556
Bi15 O26 2.478648 1_556
Bi15 O24 2.489243 1_555
Bi16 O29 2.196049 1_555
Bi16 O12 2.298576 1_555
Bi16 O13 2.344509 1_555
Bi16 O25 2.482563 1_555
Bi16 O26 2.505042 1_555
Bi17 O15 2.204801 1_555
Bi17 O12 2.275062 1_555
Bi17 O16 2.318871 1_555
Bi17 O23 2.551964 1_555
Bi17 O27 2.651338 1_555
Bi17 O29 2.726002 1_555
Bi18 O17 2.223030 1_554
Bi18 O16 2.255110 1_555
Bi18 O22 2.362768 1_555
Bi18 O13 2.376199 1_555
Bi18 O28 2.879496 1_554
Bi19 O15 2.225869 1_555
Bi19 O17 2.283751 1_555
Bi19 O14 2.288846 1_555
Bi19 O21 2.529479 1_555
Bi19 O27 2.711106 1_555
Bi19 O28 2.740217 1_555
Bi20 O37 2.204801 1_556
Bi20 O40 2.275062 1_555
Bi20 O36 2.318871 1_555
Bi20 O32 2.551964 1_555
Bi20 O26 2.651338 1_556
Bi20 O24 2.726002 1_555
Bi21 O37 2.225869 1_555
Bi21 O38 2.283751 1_555
Bi21 O39 2.288846 1_555
Bi21 O30 2.529479 1_555
Bi21 O26 2.711106 1_555
Bi21 O25 2.740217 1_555
Bi22 O38 2.223030 1_555
Bi22 O36 2.255110 1_555
Bi22 O31 2.362768 1_555
Bi22 O41 2.376199 1_555
Bi22 O25 2.879496 1_555
Bi23 O24 2.196049 1_555
Bi23 O40 2.298576 1_555
Bi23 O41 2.344509 1_555
Bi23 O28 2.482563 1_555
Bi23 O27 2.505042 1_555
Bi24 O25 2.191621 1_555
Bi24 O39 2.320766 1_555
Bi24 O41 2.345505 1_555
Bi24 O27 2.478648 1_555
Bi24 O29 2.489243 1_555
Bi25 O26 2.198430 1_555
Bi25 O39 2.357443 1_555
Bi25 O40 2.393164 1_554
Bi25 O29 2.403208 1_555
Bi25 O28 2.433554 1_554
Bi26 O9 2.191621 1_545
Bi26 O34 2.320766 1_555
Bi26 O33 2.345505 1_555
Bi26 O44 2.478648 1_555
Bi26 O43 2.489251 1_555
Bi27 O10 2.198440 1_545
Bi27 O34 2.357439 1_555
Bi27 O35 2.393160 1_554
Bi27 O43 2.403224 1_555
Bi27 O42 2.433562 1_554
Bi28 O11 2.196039 1_545
Bi28 O35 2.298576 1_555
Bi28 O33 2.344509 1_555
Bi28 O42 2.482563 1_555
Bi28 O44 2.505042 1_555
Bi29 O1 2.225871 1_655
Bi29 O2 2.283752 1_655
Bi29 O3 2.288859 1_655
Bi29 O36 2.529468 1_555
Bi29 O46 2.711112 1_555
Bi29 O45 2.740222 1_555
Bi30 O2 2.223030 1_654
Bi30 O0 2.255110 1_655
Bi30 O37 2.362780 1_555
Bi30 O4 2.376199 1_655
Bi30 O45 2.879496 1_554
Bi31 O1 2.204802 1_655
Bi31 O5 2.275062 1_655
Bi31 O0 2.318871 1_655
Bi31 O38 2.551964 1_555
Bi31 O46 2.651338 1_555
Bi31 O47 2.726007 1_555
Bi32 O7 2.196037 1_655
Bi32 O48 2.298576 1_555
Bi32 O50 2.344509 1_555
Bi32 O45 2.482563 1_555
Bi32 O46 2.505042 1_555
Bi33 O8 2.191621 1_655
Bi33 O49 2.320766 1_555
Bi33 O50 2.345505 1_555
Bi33 O46 2.478648 1_555
Bi33 O47 2.489243 1_555
Bi34 O6 2.198443 1_655
Bi34 O49 2.357448 1_555
Bi34 O48 2.393169 1_554
Bi34 O47 2.403209 1_555
Bi34 O45 2.433554 1_554
Bi35 O31 2.225884 1_545
Bi35 O32 2.283759 1_545
Bi35 O18 2.288853 1_545
Bi35 O51 2.529480 1_555
Bi35 O44 2.711102 1_555
Bi35 O42 2.740212 1_555
Bi36 O31 2.204809 1_545
Bi36 O20 2.275062 1_545
Bi36 O30 2.318871 1_545
Bi36 O53 2.551964 1_555
Bi36 O44 2.651338 1_555
Bi36 O43 2.725997 1_555
Bi37 O32 2.223030 1_544
Bi37 O30 2.255110 1_545
Bi37 O52 2.362769 1_555
Bi37 O19 2.376199 1_545
Bi37 O42 2.879496 1_554
