# generated using pymatgen
data_Li4Mn3VO8
_symmetry_space_group_name_H-M   'P 1'
_cell_length_a   6.01049609
_cell_length_b   6.01049609
_cell_length_c   6.01049586
_cell_angle_alpha   60.05267964
_cell_angle_beta   60.05267964
_cell_angle_gamma   60.05268702
_symmetry_Int_Tables_number   1
_chemical_formula_structural   Li4Mn3VO8
_chemical_formula_sum   'Li4 Mn3 V1 O8'
_cell_volume   153.72135262
_cell_formula_units_Z   1
loop_
 _symmetry_equiv_pos_site_id
 _symmetry_equiv_pos_as_xyz
  1  'x, y, z'
loop_
 _atom_site_type_symbol
 _atom_site_label
 _atom_site_symmetry_multiplicity
 _atom_site_fract_x
 _atom_site_fract_y
 _atom_site_fract_z
 _atom_site_occupancy
  Li  Li0  1  0.50000000  0.50000000  0.50000000  1
  Li  Li1  1  0.50000000  0.00000000  0.00000000  1
  Li  Li2  1  0.00000000  0.50000000  0.00000000  1
  Li  Li3  1  0.00000000  0.00000000  0.50000000  1
  Mn  Mn0  1  0.00000000  0.50000000  0.50000000  1
  Mn  Mn1  1  0.50000000  0.00000000  0.50000000  1
  Mn  Mn2  1  0.50000000  0.50000000  0.00000000  1
  V  V0  1  0.00000000  0.00000000  0.00000000  1
  O  O0  1  0.26094900  0.26094900  0.26094900  1
  O  O1  1  0.25816100  0.73327300  0.78215100  1
  O  O2  1  0.78215100  0.25816100  0.73327300  1
  O  O3  1  0.73905100  0.73905100  0.73905100  1
  O  O4  1  0.73327300  0.78215100  0.25816100  1
  O  O5  1  0.74183900  0.26672700  0.21784900  1
  O  O6  1  0.21784900  0.74183900  0.26672700  1
  O  O7  1  0.26672700  0.21784900  0.74183900  1
loop_
_geom_bond_atom_site_label_1
_geom_bond_atom_site_label_2
_geom_bond_distance
_geom_bond_site_symmetry_2
Li0 O4 2.198346 1_555
Li0 O7 2.198346 1_555
Li0 O1 2.198346 1_555
Li0 O5 2.198346 1_555
Li0 O6 2.198346 1_555
Li0 O2 2.198346 1_555
Li1 O7 2.097308 1_554
Li1 O4 2.097308 1_545
Li1 O3 2.222734 1_544
Li1 O0 2.222734 1_555
Li1 O6 2.298476 1_545
Li1 O2 2.298476 1_554
Li2 O1 2.097308 1_554
Li2 O5 2.097308 1_455
Li2 O3 2.222734 1_454
Li2 O0 2.222734 1_555
Li2 O4 2.298476 1_455
Li2 O7 2.298476 1_554
Li3 O2 2.097308 1_455
Li3 O6 2.097308 1_545
Li3 O3 2.222734 1_445
Li3 O0 2.222734 1_555
Li3 O1 2.298476 1_545
Li3 O5 2.298476 1_455
Mn0 O6 1.955944 1_555
Mn0 O2 1.955944 1_455
Mn0 O3 2.037177 1_455
Mn0 O0 2.037177 1_555
Mn0 O7 2.170255 1_555
Mn0 O4 2.170255 1_455
Mn1 O7 1.955944 1_555
Mn1 O4 1.955944 1_545
Mn1 O0 2.037177 1_555
Mn1 O3 2.037177 1_545
Mn1 O5 2.170255 1_555
Mn1 O1 2.170255 1_545
Mn2 O1 1.955944 1_554
Mn2 O5 1.955944 1_555
Mn2 O0 2.037177 1_555
Mn2 O3 2.037177 1_554
Mn2 O6 2.170255 1_555
Mn2 O2 2.170255 1_554
O1 V0 2.067846 1_566
O2 V0 2.067846 1_656
O4 V0 2.067845 1_665
O5 V0 2.067846 1_655
O6 V0 2.067846 1_565
O7 V0 2.067845 1_556
