# generated using pymatgen
data_Mn12O5F19
_symmetry_space_group_name_H-M   'P 1'
_cell_length_a   4.87351300
_cell_length_b   5.86320009
_cell_length_c   15.90478142
_cell_angle_alpha   89.25831614
_cell_angle_beta   89.50600057
_cell_angle_gamma   89.36853364
_symmetry_Int_Tables_number   1
_chemical_formula_structural   Mn12O5F19
_chemical_formula_sum   'Mn12 O5 F19'
_cell_volume   454.38728207
_cell_formula_units_Z   1
loop_
 _symmetry_equiv_pos_site_id
 _symmetry_equiv_pos_as_xyz
  1  'x, y, z'
loop_
 _atom_site_type_symbol
 _atom_site_label
 _atom_site_symmetry_multiplicity
 _atom_site_fract_x
 _atom_site_fract_y
 _atom_site_fract_z
 _atom_site_occupancy
  Mn  Mn0  1  0.01639000  0.82487100  0.57863300  1
  Mn  Mn1  1  0.99439400  0.14444000  0.75323100  1
  Mn  Mn2  1  0.96108200  0.83019900  0.91718500  1
  Mn  Mn3  1  0.04215500  0.82079800  0.25197500  1
  Mn  Mn4  1  0.00127700  0.14155100  0.41163800  1
  Mn  Mn5  1  0.00268900  0.16106800  0.08457700  1
  Mn  Mn6  1  0.46972900  0.66408300  0.41834500  1
  Mn  Mn7  1  0.50275600  0.66788700  0.08246600  1
  Mn  Mn8  1  0.52292800  0.68217700  0.75426600  1
  Mn  Mn9  1  0.50514200  0.35591600  0.91900000  1
  Mn  Mn10  1  0.48890000  0.35126700  0.58143900  1
  Mn  Mn11  1  0.49641300  0.35692800  0.24724400  1
  O  O0  1  0.21736000  0.86936400  0.36055300  1
  O  O1  1  0.28226900  0.61378100  0.52260800  1
  O  O2  1  0.29996000  0.61984300  0.19226700  1
  O  O3  1  0.70418900  0.62622300  0.97367100  1
  O  O4  1  0.78485700  0.89306300  0.81105900  1
  F  F0  1  0.23891400  0.89243000  0.69130100  1
  F  F1  1  0.20746000  0.87378100  0.02282700  1
  F  F2  1  0.22643000  0.11031500  0.86933400  1
  F  F3  1  0.22682300  0.11481800  0.52651100  1
  F  F4  1  0.24816700  0.11176500  0.19144000  1
  F  F5  1  0.26006600  0.61052600  0.85825400  1
  F  F6  1  0.26623200  0.38346700  0.69838800  1
  F  F7  1  0.26459100  0.37632800  0.35578800  1
  F  F8  1  0.27068000  0.39325500  0.03053900  1
  F  F9  1  0.73471100  0.38921900  0.80531900  1
  F  F10  1  0.73913600  0.60505500  0.64012600  1
  F  F11  1  0.72470800  0.39168900  0.46462900  1
  F  F12  1  0.73472200  0.39457800  0.13960200  1
  F  F13  1  0.71636400  0.62387200  0.31451900  1
  F  F14  1  0.75855900  0.89267100  0.47414100  1
  F  F15  1  0.76822400  0.10764900  0.63637700  1
  F  F16  1  0.75373500  0.11631600  0.97923100  1
  F  F17  1  0.79381000  0.87183200  0.14526300  1
  F  F18  1  0.77417800  0.11697400  0.29625200  1
loop_
_geom_bond_atom_site_label_1
_geom_bond_atom_site_label_2
_geom_bond_distance
_geom_bond_site_symmetry_2
Mn0 O1 1.994519 1_555
Mn1 O4 2.010702 1_545
Mn2 O4 1.929872 1_555
Mn2 O3 1.946958 1_555
Mn3 O0 1.958545 1_555
Mn3 O2 1.960718 1_555
Mn4 O0 2.073104 1_545
Mn6 O1 1.907531 1_555
Mn6 O0 1.940224 1_555
Mn7 O3 1.998474 1_554
Mn7 O2 2.017315 1_555
Mn8 O4 2.014409 1_555
Mn9 O3 2.071955 1_555
Mn10 O1 2.050234 1_555
Mn11 O2 2.001129 1_555
F0 Mn8 2.095893 1_555
F0 Mn1 2.133579 1_465
F0 Mn0 2.146034 1_555
F1 Mn2 2.093519 1_454
F1 Mn7 2.093742 1_555
F1 Mn5 2.187835 1_565
F2 Mn9 2.152596 1_555
F2 Mn1 2.179489 1_455
F2 Mn2 2.224051 1_445
F3 Mn10 2.099077 1_555
F3 Mn4 2.143424 1_555
F3 Mn0 2.148561 1_545
F4 Mn11 2.099415 1_555
F4 Mn5 2.101967 1_555
F4 Mn3 2.196358 1_545
F5 Mn8 2.123759 1_555
F5 Mn9 2.128801 1_555
F5 Mn2 2.151022 1_455
F6 Mn1 2.114097 1_455
F6 Mn10 2.154715 1_555
F6 Mn8 2.351599 1_555
F7 Mn11 2.058719 1_555
F7 Mn4 2.078055 1_555
F7 Mn6 2.221202 1_555
F8 Mn5 2.070581 1_555
F8 Mn9 2.114299 1_554
F8 Mn7 2.155181 1_555
F9 Mn1 2.078563 1_555
F9 Mn9 2.125976 1_555
F9 Mn8 2.148085 1_555
F10 Mn0 2.103884 1_655
F10 Mn8 2.141979 1_555
F10 Mn10 2.160613 1_555
F11 Mn6 2.139715 1_555
F11 Mn4 2.155654 1_655
F11 Mn10 2.187741 1_555
F12 Mn11 2.071277 1_555
F12 Mn5 2.077924 1_655
F12 Mn7 2.147507 1_555
F13 Mn6 2.048618 1_555
F13 Mn3 2.197053 1_655
F13 Mn11 2.200847 1_555
F14 Mn4 2.120621 1_665
F14 Mn0 2.122924 1_655
F14 Mn6 2.158497 1_555
F15 Mn10 2.145275 1_555
F15 Mn1 2.183249 1_555
F15 Mn0 2.243032 1_645
F16 Mn9 2.075249 1_555
F16 Mn5 2.098015 1_656
F16 Mn2 2.190312 1_545
F17 Mn3 2.109331 1_655
F17 Mn7 2.128888 1_555
F17 Mn5 2.196022 1_665
F18 Mn11 2.089792 1_555
F18 Mn4 2.158474 1_655
F18 Mn3 2.276600 1_645
