# generated using pymatgen
data_Li4Ni3BiO8
_symmetry_space_group_name_H-M   'P 1'
_cell_length_a   6.04781005
_cell_length_b   6.04781005
_cell_length_c   6.04781067
_cell_angle_alpha   60.20186907
_cell_angle_beta   60.20186907
_cell_angle_gamma   60.20186863
_symmetry_Int_Tables_number   1
_chemical_formula_structural   Li4Ni3BiO8
_chemical_formula_sum   'Li4 Ni3 Bi1 O8'
_cell_volume   157.13036405
_cell_formula_units_Z   1
loop_
 _symmetry_equiv_pos_site_id
 _symmetry_equiv_pos_as_xyz
  1  'x, y, z'
loop_
 _atom_site_type_symbol
 _atom_site_label
 _atom_site_symmetry_multiplicity
 _atom_site_fract_x
 _atom_site_fract_y
 _atom_site_fract_z
 _atom_site_occupancy
  Li  Li0  1  0.00000000  0.50000000  0.00000000  1
  Li  Li1  1  0.00000000  0.00000000  0.50000000  1
  Li  Li2  1  0.50000000  0.00000000  0.00000000  1
  Li  Li3  1  0.50000000  0.50000000  0.50000000  1
  Ni  Ni0  1  0.00000000  0.50000000  0.50000000  1
  Ni  Ni1  1  0.50000000  0.50000000  0.00000000  1
  Ni  Ni2  1  0.50000000  0.00000000  0.50000000  1
  Bi  Bi0  1  0.00000000  0.00000000  0.00000000  1
  O  O0  1  0.24846500  0.74498800  0.24846500  1
  O  O1  1  0.24846500  0.24846500  0.74498800  1
  O  O2  1  0.74498800  0.24846500  0.24846500  1
  O  O3  1  0.73807000  0.73807000  0.73807000  1
  O  O4  1  0.26193000  0.26193000  0.26193000  1
  O  O5  1  0.25501200  0.75153500  0.75153500  1
  O  O6  1  0.75153500  0.75153500  0.25501200  1
  O  O7  1  0.75153500  0.25501200  0.75153500  1
loop_
_geom_bond_atom_site_label_1
_geom_bond_atom_site_label_2
_geom_bond_distance
_geom_bond_site_symmetry_2
Li0 O5 2.169622 1_554
Li0 O2 2.169622 1_455
Li0 O6 2.169623 1_455
Li0 O1 2.169623 1_554
Li0 O3 2.247693 1_454
Li0 O4 2.247693 1_555
Li1 O7 2.169623 1_455
Li1 O5 2.169623 1_545
Li1 O2 2.169623 1_455
Li1 O0 2.169623 1_545
Li1 O3 2.247693 1_445
Li1 O4 2.247693 1_555
Li2 O7 2.169622 1_554
Li2 O0 2.169622 1_545
Li2 O6 2.169623 1_545
Li2 O1 2.169623 1_554
Li2 O3 2.247693 1_544
Li2 O4 2.247693 1_555
Li3 O6 2.154828 1_555
Li3 O1 2.154828 1_555
Li3 O5 2.154829 1_555
Li3 O7 2.154829 1_555
Li3 O2 2.154829 1_555
Li3 O0 2.154829 1_555
Ni0 O3 2.045015 1_455
Ni0 O4 2.045015 1_555
Ni0 O0 2.113798 1_555
Ni0 O7 2.113798 1_455
Ni0 O1 2.113798 1_555
Ni0 O6 2.113798 1_455
Ni1 O3 2.045015 1_554
Ni1 O4 2.045015 1_555
Ni1 O2 2.113798 1_555
Ni1 O0 2.113798 1_555
Ni1 O5 2.113798 1_554
Ni1 O7 2.113798 1_554
Ni2 O4 2.045015 1_555
Ni2 O3 2.045015 1_545
Ni2 O2 2.113798 1_555
Ni2 O5 2.113798 1_545
Ni2 O1 2.113798 1_555
Ni2 O6 2.113798 1_545
Bi0 O1 2.128877 1_554
Bi0 O6 2.128877 1_445
Bi0 O7 2.128877 1_454
Bi0 O5 2.128877 1_544
Bi0 O2 2.128877 1_455
Bi0 O0 2.128877 1_545
