# generated using pymatgen
data_LiMn2OF3
_symmetry_space_group_name_H-M   'P 1'
_cell_length_a   6.34617189
_cell_length_b   6.32061091
_cell_length_c   6.34617046
_cell_angle_alpha   59.53944760
_cell_angle_beta   59.70021912
_cell_angle_gamma   59.53934430
_symmetry_Int_Tables_number   1
_chemical_formula_structural   LiMn2OF3
_chemical_formula_sum   'Li2 Mn4 O2 F6'
_cell_volume   178.33187497
_cell_formula_units_Z   2
loop_
 _symmetry_equiv_pos_site_id
 _symmetry_equiv_pos_as_xyz
  1  'x, y, z'
loop_
 _atom_site_type_symbol
 _atom_site_label
 _atom_site_symmetry_multiplicity
 _atom_site_fract_x
 _atom_site_fract_y
 _atom_site_fract_z
 _atom_site_occupancy
  Li  Li0  1  0.50223400  0.50197400  0.50223200  1
  Li  Li1  1  0.85776500  0.85764500  0.85776300  1
  Mn  Mn0  1  0.99164300  0.50290100  0.50240100  1
  Mn  Mn1  1  0.50239700  0.50290200  0.99164500  1
  Mn  Mn2  1  0.14518800  0.14713700  0.14518700  1
  Mn  Mn3  1  0.50439100  0.98925700  0.50438800  1
  O  O0  1  0.73110900  0.72993200  0.73110900  1
  O  O1  1  0.27373700  0.27269400  0.27373500  1
  F  F0  1  0.73672600  0.25516400  0.73672700  1
  F  F1  1  0.25282600  0.73703000  0.73608200  1
  F  F2  1  0.73608400  0.73703000  0.25282500  1
  F  F3  1  0.26209300  0.26252400  0.74181100  1
  F  F4  1  0.74181200  0.26252500  0.26209200  1
  F  F5  1  0.26199900  0.74128700  0.26200400  1
loop_
_geom_bond_atom_site_label_1
_geom_bond_atom_site_label_2
_geom_bond_distance
_geom_bond_site_symmetry_2
Li1 O0 1.977699 1_555
Mn0 O0 2.045517 1_555
Mn0 O1 2.075160 1_655
Mn1 O0 2.045534 1_555
Mn1 O1 2.075140 1_556
Mn2 O1 1.986244 1_555
Mn3 O0 2.033131 1_555
Mn3 O1 2.083066 1_565
F0 Li1 2.043236 1_545
F0 Li0 2.095185 1_555
F0 Mn0 2.249526 1_555
F0 Mn1 2.249530 1_555
F1 Li1 2.041721 1_455
F1 Li0 2.096663 1_555
F1 Mn3 2.255543 1_555
F1 Mn1 2.260749 1_555
F2 Li1 2.041728 1_554
F2 Li0 2.096666 1_555
F2 Mn3 2.255531 1_555
F2 Mn0 2.260753 1_555
F3 Mn2 2.091577 1_556
F3 Li0 2.142939 1_555
F3 Mn0 2.282422 1_455
F3 Mn3 2.286026 1_545
F4 Mn2 2.091575 1_655
F4 Li0 2.142926 1_555
F4 Mn1 2.282431 1_554
F4 Mn3 2.286026 1_545
F5 Mn2 2.092333 1_565
F5 Li0 2.146069 1_555
F5 Mn0 2.278314 1_455
F5 Mn1 2.278319 1_554
