# generated using pymatgen
data_Li2MnCr3O8
_symmetry_space_group_name_H-M   'P 1'
_cell_length_a   8.30674200
_cell_length_b   8.30674200
_cell_length_c   8.30674200
_cell_angle_alpha   90.00000000
_cell_angle_beta   90.00000000
_cell_angle_gamma   90.00000000
_symmetry_Int_Tables_number   1
_chemical_formula_structural   Li2MnCr3O8
_chemical_formula_sum   'Li8 Mn4 Cr12 O32'
_cell_volume   573.18150127
_cell_formula_units_Z   4
loop_
 _symmetry_equiv_pos_site_id
 _symmetry_equiv_pos_as_xyz
  1  'x, y, z'
loop_
 _atom_site_type_symbol
 _atom_site_label
 _atom_site_symmetry_multiplicity
 _atom_site_fract_x
 _atom_site_fract_y
 _atom_site_fract_z
 _atom_site_occupancy
  Li  Li0  1  0.00053400  0.00053400  0.00053400  1
  Li  Li1  1  0.24946600  0.24946600  0.24946600  1
  Li  Li2  1  0.25053400  0.75053400  0.74946600  1
  Li  Li3  1  0.49946600  0.99946600  0.50053400  1
  Li  Li4  1  0.50053400  0.49946600  0.99946600  1
  Li  Li5  1  0.74946600  0.25053400  0.75053400  1
  Li  Li6  1  0.75053400  0.74946600  0.25053400  1
  Li  Li7  1  0.99946600  0.50053400  0.49946600  1
  Mn  Mn0  1  0.12500000  0.87500000  0.37500000  1
  Mn  Mn1  1  0.37500000  0.12500000  0.87500000  1
  Mn  Mn2  1  0.62500000  0.62500000  0.62500000  1
  Mn  Mn3  1  0.87500000  0.37500000  0.12500000  1
  Cr  Cr0  1  0.12553000  0.12447000  0.62500000  1
  Cr  Cr1  1  0.12500000  0.37447000  0.87553000  1
  Cr  Cr2  1  0.12447000  0.62500000  0.12553000  1
  Cr  Cr3  1  0.37553000  0.37500000  0.62553000  1
  Cr  Cr4  1  0.37500000  0.62553000  0.37553000  1
  Cr  Cr5  1  0.37447000  0.87553000  0.12500000  1
  Cr  Cr6  1  0.62553000  0.37553000  0.37500000  1
  Cr  Cr7  1  0.62500000  0.12553000  0.12447000  1
  Cr  Cr8  1  0.62447000  0.87500000  0.87447000  1
  Cr  Cr9  1  0.87553000  0.12500000  0.37447000  1
  Cr  Cr10  1  0.87500000  0.87447000  0.62447000  1
  Cr  Cr11  1  0.87447000  0.62447000  0.87500000  1
  O  O0  1  0.11377200  0.10779000  0.38981800  1
  O  O1  1  0.11018200  0.88622800  0.60779000  1
  O  O2  1  0.11226300  0.61226300  0.88773700  1
  O  O3  1  0.14221000  0.13622800  0.86018200  1
  O  O4  1  0.10779000  0.38981800  0.11377200  1
  O  O5  1  0.13773700  0.36226300  0.63773700  1
  O  O6  1  0.13981800  0.64221000  0.36377200  1
  O  O7  1  0.13622800  0.86018200  0.14221000  1
  O  O8  1  0.36377200  0.13981800  0.64221000  1
  O  O9  1  0.36018200  0.35779000  0.86377200  1
  O  O10  1  0.36226300  0.63773700  0.13773700  1
  O  O11  1  0.39221000  0.61018200  0.61377200  1
  O  O12  1  0.35779000  0.86377200  0.36018200  1
  O  O13  1  0.38773700  0.38773700  0.38773700  1
  O  O14  1  0.38981800  0.11377200  0.10779000  1
  O  O15  1  0.38622800  0.89221000  0.88981800  1
  O  O16  1  0.61377200  0.39221000  0.61018200  1
  O  O17  1  0.61018200  0.61377200  0.39221000  1
  O  O18  1  0.61226300  0.88773700  0.11226300  1
  O  O19  1  0.64221000  0.36377200  0.13981800  1
  O  O20  1  0.60779000  0.11018200  0.88622800  1
  O  O21  1  0.63773700  0.13773700  0.36226300  1
  O  O22  1  0.63981800  0.85779000  0.63622800  1
  O  O23  1  0.63622800  0.63981800  0.85779000  1
  O  O24  1  0.86377200  0.36018200  0.35779000  1
  O  O25  1  0.86018200  0.14221000  0.13622800  1
  O  O26  1  0.86226300  0.86226300  0.86226300  1
  O  O27  1  0.89221000  0.88981800  0.38622800  1
  O  O28  1  0.85779000  0.63622800  0.63981800  1
  O  O29  1  0.88773700  0.11226300  0.61226300  1
  O  O30  1  0.88981800  0.38622800  0.89221000  1
  O  O31  1  0.88622800  0.60779000  0.11018200  1
loop_
_geom_bond_atom_site_label_1
_geom_bond_atom_site_label_2
_geom_bond_distance
_geom_bond_site_symmetry_2
Li0 O26 1.989402 1_444
Li0 O25 2.003693 1_455
Li0 O7 2.003693 1_545
Li0 O3 2.003693 1_554
Li1 O13 1.989402 1_555
Li1 O14 2.003693 1_555
Li1 O4 2.003693 1_555
Li1 O0 2.003693 1_555
Li2 O2 1.989402 1_555
Li2 O11 2.003693 1_555
Li2 O15 2.003693 1_555
Li2 O1 2.003693 1_555
Li3 O21 1.989402 1_565
Li3 O12 2.003693 1_555
Li3 O8 2.003693 1_565
Li3 O22 2.003693 1_555
Li4 O10 1.989402 1_556
Li4 O9 2.003693 1_555
Li4 O19 2.003693 1_556
Li4 O23 2.003693 1_555
Li5 O29 1.989402 1_555
Li5 O16 2.003693 1_555
Li5 O30 2.003693 1_555
Li5 O20 2.003693 1_555
Li6 O18 1.989402 1_555
Li6 O17 2.003693 1_555
Li6 O27 2.003693 1_555
Li6 O31 2.003693 1_555
Li7 O5 1.989402 1_655
Li7 O24 2.003693 1_555
Li7 O6 2.003693 1_655
Li7 O28 2.003693 1_555
Mn0 O27 1.939883 1_455
Mn0 O6 1.939883 1_555
Mn0 O7 1.939883 1_555
Mn0 O0 1.939883 1_565
Mn0 O1 1.939883 1_555
Mn0 O12 1.939883 1_555
Mn1 O15 1.939883 1_545
Mn1 O8 1.939883 1_555
Mn1 O3 1.939883 1_555
Mn1 O14 1.939883 1_556
Mn1 O9 1.939883 1_555
Mn1 O20 1.939883 1_555
Mn2 O16 1.939883 1_555
Mn2 O17 1.939883 1_555
Mn2 O11 1.939883 1_555
Mn2 O22 1.939883 1_555
Mn2 O28 1.939883 1_555
Mn2 O23 1.939883 1_555
Mn3 O30 1.939883 1_554
Mn3 O19 1.939883 1_555
Mn3 O25 1.939883 1_555
Mn3 O24 1.939883 1_555
Mn3 O4 1.939883 1_655
Mn3 O31 1.939883 1_555
Cr0 O3 1.960937 1_555
Cr0 O0 1.960937 1_555
Cr0 O5 1.980714 1_555
Cr0 O29 1.980714 1_455
Cr0 O8 1.988263 1_555
Cr0 O1 1.988263 1_545
Cr1 O30 1.960937 1_455
Cr1 O9 1.960937 1_555
Cr1 O2 1.980714 1_555
Cr1 O5 1.980714 1_555
Cr1 O4 1.988263 1_556
Cr1 O3 1.988263 1_555
Cr2 O4 1.960937 1_555
Cr2 O7 1.960937 1_555
Cr2 O2 1.980714 1_554
Cr2 O10 1.980714 1_555
Cr2 O6 1.988263 1_555
Cr2 O31 1.988263 1_455
Cr3 O11 1.960937 1_555
Cr3 O8 1.960937 1_555
Cr3 O13 1.980714 1_555
Cr3 O5 1.980714 1_555
Cr3 O9 1.988263 1_555
Cr3 O16 1.988263 1_555
Cr4 O17 1.960937 1_555
Cr4 O6 1.960937 1_555
Cr4 O13 1.980714 1_555
Cr4 O10 1.980714 1_555
Cr4 O11 1.988263 1_555
Cr4 O12 1.988263 1_555
Cr5 O15 1.960937 1_554
Cr5 O12 1.960937 1_555
Cr5 O18 1.980714 1_555
Cr5 O10 1.980714 1_555
Cr5 O14 1.988263 1_565
Cr5 O7 1.988263 1_555
Cr6 O19 1.960937 1_555
Cr6 O16 1.960937 1_555
Cr6 O13 1.980714 1_555
Cr6 O21 1.980714 1_555
Cr6 O24 1.988263 1_555
Cr6 O17 1.988263 1_555
Cr7 O14 1.960937 1_555
Cr7 O25 1.960937 1_555
Cr7 O21 1.980714 1_555
Cr7 O18 1.980714 1_545
Cr7 O19 1.988263 1_555
Cr7 O20 1.988263 1_554
Cr8 O20 1.960937 1_565
Cr8 O23 1.960937 1_555
Cr8 O18 1.980714 1_556
Cr8 O26 1.980714 1_555
Cr8 O22 1.988263 1_555
Cr8 O15 1.988263 1_555
Cr9 O27 1.960937 1_545
Cr9 O24 1.960937 1_555
Cr9 O29 1.980714 1_555
Cr9 O21 1.980714 1_555
Cr9 O0 1.988263 1_655
Cr9 O25 1.988263 1_555
Cr10 O1 1.960937 1_655
Cr10 O22 1.960937 1_555
Cr10 O26 1.980714 1_555
Cr10 O29 1.980714 1_565
Cr10 O28 1.988263 1_555
Cr10 O27 1.988263 1_555
Cr11 O31 1.960937 1_556
Cr11 O28 1.960937 1_555
Cr11 O26 1.980714 1_555
Cr11 O2 1.980714 1_655
Cr11 O23 1.988263 1_555
Cr11 O30 1.988263 1_555
