# generated using pymatgen
data_AgB10H26C6N
_symmetry_space_group_name_H-M   'P 1'
_cell_length_a   7.43340400
_cell_length_b   9.61145200
_cell_length_c   22.95809615
_cell_angle_alpha   80.58762264
_cell_angle_beta   90.00000000
_cell_angle_gamma   90.00000000
_symmetry_Int_Tables_number   1
_chemical_formula_structural   AgB10H26C6N
_chemical_formula_sum   'Ag4 B40 H104 C24 N4'
_cell_volume   1618.17662583
_cell_formula_units_Z   4
loop_
 _symmetry_equiv_pos_site_id
 _symmetry_equiv_pos_as_xyz
  1  'x, y, z'
loop_
 _atom_site_type_symbol
 _atom_site_label
 _atom_site_symmetry_multiplicity
 _atom_site_fract_x
 _atom_site_fract_y
 _atom_site_fract_z
 _atom_site_occupancy
  Ag  Ag0  1  0.96147500  0.59864400  0.69836000  1
  Ag  Ag1  1  0.46147500  0.40135600  0.80164000  1
  Ag  Ag2  1  0.03852500  0.40135600  0.30164000  1
  Ag  Ag3  1  0.53852500  0.59864400  0.19836000  1
  B  B0  1  0.24801700  0.76250600  0.67749100  1
  B  B1  1  0.74801700  0.23749400  0.82250900  1
  B  B2  1  0.75198300  0.23749400  0.32250900  1
  B  B3  1  0.25198300  0.76250600  0.17749100  1
  B  B4  1  0.28446200  0.60669500  0.65321800  1
  B  B5  1  0.78446200  0.39330500  0.84678200  1
  B  B6  1  0.71553800  0.39330500  0.34678200  1
  B  B7  1  0.21553800  0.60669500  0.15321800  1
  B  B8  1  0.40696900  0.65630900  0.71635500  1
  B  B9  1  0.90696900  0.34369100  0.78364500  1
  B  B10  1  0.59303100  0.34369100  0.28364500  1
  B  B11  1  0.09303100  0.65630900  0.21635500  1
  B  B12  1  0.46313200  0.82686800  0.67171700  1
  B  B13  1  0.96313200  0.17313200  0.82828300  1
  B  B14  1  0.53686800  0.17313200  0.32828300  1
  B  B15  1  0.03686800  0.82686800  0.17171700  1
  B  B16  1  0.34233700  0.77647100  0.60862700  1
  B  B17  1  0.84233700  0.22352900  0.89137300  1
  B  B18  1  0.65766300  0.22352900  0.39137300  1
  B  B19  1  0.15766300  0.77647100  0.10862700  1
  B  B20  1  0.50311700  0.53330800  0.67438100  1
  B  B21  1  0.00311700  0.46669200  0.82561900  1
  B  B22  1  0.49688300  0.46669200  0.32561900  1
  B  B23  1  0.99688300  0.53330800  0.17438100  1
  B  B24  1  0.63043900  0.68867900  0.68711700  1
  B  B25  1  0.13043900  0.31132100  0.81288300  1
  B  B26  1  0.36956100  0.31132100  0.31288300  1
  B  B27  1  0.86956100  0.68867900  0.18711700  1
  B  B28  1  0.58464100  0.77416400  0.61121200  1
  B  B29  1  0.08464100  0.22583600  0.88878800  1
  B  B30  1  0.41535900  0.22583600  0.38878800  1
  B  B31  1  0.91535900  0.77416400  0.11121200  1
  B  B32  1  0.45922000  0.61794700  0.59820400  1
  B  B33  1  0.95922000  0.38205300  0.90179600  1
  B  B34  1  0.54078000  0.38205300  0.40179600  1
  B  B35  1  0.04078000  0.61794700  0.09820400  1
  B  B36  1  0.66968700  0.60712400  0.62795600  1
  B  B37  1  0.16968700  0.39287600  0.87204400  1
  B  B38  1  0.33031300  0.39287600  0.37204400  1
  B  B39  1  0.83031300  0.60712400  0.12795600  1
  H  H0  1  0.71113200  0.97478400  0.88372800  1
  H  H1  1  0.21113200  0.02521600  0.61627200  1
  H  H2  1  0.28886800  0.02521600  0.11627200  1
  H  H3  1  0.78886800  0.97478400  0.38372800  1
  H  H4  1  0.01465100  0.91452300  0.93628400  1
  H  H5  1  0.51465100  0.08547700  0.56371600  1
  H  H6  1  0.98534900  0.08547700  0.06371600  1
  H  H7  1  0.48534900  0.91452300  0.43628400  1
  H  H8  1  0.38491700  0.02915500  0.83555300  1
  H  H9  1  0.88491700  0.97084500  0.66444700  1
  H  H10  1  0.61508300  0.97084500  0.16444700  1
  H  H11  1  0.11508300  0.02915500  0.33555300  1
  H  H12  1  0.42791700  0.65147400  0.93707500  1
  H  H13  1  0.92791700  0.34852600  0.56292500  1
  H  H14  1  0.57208300  0.34852600  0.06292500  1
  H  H15  1  0.07208300  0.65147400  0.43707500  1
  H  H16  1  0.11760400  0.81813100  0.69476100  1
  H  H17  1  0.61760400  0.18186900  0.80523900  1
  H  H18  1  0.88239600  0.18186900  0.30523900  1
  H  H19  1  0.38239600  0.81813100  0.19476100  1
  H  H20  1  0.16934500  0.51837600  0.64821200  1
  H  H21  1  0.66934500  0.48162400  0.85178800  1
  H  H22  1  0.83065500  0.48162400  0.35178800  1
  H  H23  1  0.33065500  0.51837600  0.14821200  1
  H  H24  1  0.38266000  0.62606200  0.76915600  1
  H  H25  1  0.88266000  0.37393800  0.73084400  1
  H  H26  1  0.61734000  0.37393800  0.23084400  1
  H  H27  1  0.11734000  0.62606200  0.26915600  1
  H  H28  1  0.49274100  0.93946300  0.68613900  1
  H  H29  1  0.99274100  0.06053700  0.81386100  1
  H  H30  1  0.50725900  0.06053700  0.31386100  1
  H  H31  1  0.00725900  0.93946300  0.18613900  1
  H  H32  1  0.27158500  0.84512900  0.56603000  1
  H  H33  1  0.77158500  0.15487100  0.93397000  1
  H  H34  1  0.72841500  0.15487100  0.43397000  1
  H  H35  1  0.22841500  0.84512900  0.06603000  1
  H  H36  1  0.51352600  0.40964900  0.69485600  1
  H  H37  1  0.01352600  0.59035100  0.80514400  1
  H  H38  1  0.48647400  0.59035100  0.30514400  1
  H  H39  1  0.98647400  0.40964900  0.19485600  1
  H  H40  1  0.74116900  0.70956800  0.72425500  1
  H  H41  1  0.24116900  0.29043200  0.77574500  1
  H  H42  1  0.25883100  0.29043200  0.27574500  1
  H  H43  1  0.75883100  0.70956800  0.22425500  1
  H  H44  1  0.66740100  0.86159600  0.57830200  1
  H  H45  1  0.16740100  0.13840400  0.92169800  1
  H  H46  1  0.33259900  0.13840400  0.42169800  1
  H  H47  1  0.83259900  0.86159600  0.07830200  1
  H  H48  1  0.43670600  0.56483400  0.55499000  1
  H  H49  1  0.93670600  0.43516600  0.94501000  1
  H  H50  1  0.56329400  0.43516600  0.44501000  1
  H  H51  1  0.06329400  0.56483400  0.05499000  1
  H  H52  1  0.79839300  0.55679800  0.60759800  1
  H  H53  1  0.29839300  0.44320200  0.89240200  1
  H  H54  1  0.20160700  0.44320200  0.39240200  1
  H  H55  1  0.70160700  0.55679800  0.10759800  1
  H  H56  1  0.79892200  0.67155700  0.89617400  1
  H  H57  1  0.29892200  0.32844300  0.60382600  1
  H  H58  1  0.20107800  0.32844300  0.10382600  1
  H  H59  1  0.70107800  0.67155700  0.39617400  1
  H  H60  1  0.90097500  0.81196200  0.84800500  1
  H  H61  1  0.40097500  0.18803800  0.65199500  1
  H  H62  1  0.09902500  0.18803800  0.15199500  1
  H  H63  1  0.59902500  0.81196200  0.34800500  1
  H  H64  1  0.91998900  0.76870900  0.98515300  1
  H  H65  1  0.41998900  0.23129100  0.51484700  1
  H  H66  1  0.08001100  0.23129100  0.01484700  1
  H  H67  1  0.58001100  0.76870900  0.48515300  1
  H  H68  1  0.09079500  0.73909200  0.93571800  1
  H  H69  1  0.59079500  0.26090800  0.56428200  1
  H  H70  1  0.90920500  0.26090800  0.06428200  1
  H  H71  1  0.40920500  0.73909200  0.43571800  1
  H  H72  1  0.54732900  0.73125200  0.84007800  1
  H  H73  1  0.04732900  0.26874800  0.65992200  1
  H  H74  1  0.45267100  0.26874800  0.15992200  1
  H  H75  1  0.95267100  0.73125200  0.34007800  1
  H  H76  1  0.64402800  0.88428800  0.79852800  1
  H  H77  1  0.14402800  0.11571200  0.70147200  1
  H  H78  1  0.35597200  0.11571200  0.20147200  1
  H  H79  1  0.85597200  0.88428800  0.29852800  1
  H  H80  1  0.31440200  0.90318700  0.79193100  1
  H  H81  1  0.81440200  0.09681300  0.70806900  1
  H  H82  1  0.68559800  0.09681300  0.20806900  1
  H  H83  1  0.18559800  0.90318700  0.29193100  1
  H  H84  1  0.28910000  0.86487300  0.86924900  1
  H  H85  1  0.78910000  0.13512700  0.63075100  1
  H  H86  1  0.71090000  0.13512700  0.13075100  1
  H  H87  1  0.21090000  0.86487300  0.36924900  1
  H  H88  1  0.66017900  0.88231300  0.98026800  1
  H  H89  1  0.16017900  0.11768700  0.51973200  1
  H  H90  1  0.33982100  0.11768700  0.01973200  1
  H  H91  1  0.83982100  0.88231300  0.48026800  1
  H  H92  1  0.45391100  0.91654900  0.94210500  1
  H  H93  1  0.95391100  0.08345100  0.55789500  1
  H  H94  1  0.54608900  0.08345100  0.05789500  1
  H  H95  1  0.04608900  0.91654900  0.44210500  1
  H  H96  1  0.63108600  0.62427500  0.97871500  1
  H  H97  1  0.13108600  0.37572500  0.52128500  1
  H  H98  1  0.36891400  0.37572500  0.02128500  1
  H  H99  1  0.86891400  0.62427500  0.47871500  1
  H  H100  1  0.43756000  0.69006600  0.01022000  1
  H  H101  1  0.93756000  0.30993400  0.48978000  1
  H  H102  1  0.56244000  0.30993400  0.98978000  1
  H  H103  1  0.06244000  0.69006600  0.51022000  1
  C  C0  1  0.84131100  0.78196600  0.89198300  1
  C  C1  1  0.34131100  0.21803400  0.60801700  1
  C  C2  1  0.15868900  0.21803400  0.10801700  1
  C  C3  1  0.65868900  0.78196600  0.39198300  1
  C  C4  1  0.97171700  0.80402000  0.94040400  1
  C  C5  1  0.47171700  0.19598000  0.55959600  1
  C  C6  1  0.02828300  0.19598000  0.05959600  1
  C  C7  1  0.52828300  0.80402000  0.44040400  1
  C  C8  1  0.56070000  0.84567600  0.83735100  1
  C  C9  1  0.06070000  0.15432400  0.66264900  1
  C  C10  1  0.43930000  0.15432400  0.16264900  1
  C  C11  1  0.93930000  0.84567600  0.33735100  1
  C  C12  1  0.37776700  0.91589800  0.83395100  1
  C  C13  1  0.87776700  0.08410200  0.66604900  1
  C  C14  1  0.62223300  0.08410200  0.16604900  1
  C  C15  1  0.12223300  0.91589800  0.33395100  1
  C  C16  1  0.57009700  0.84541900  0.94816800  1
  C  C17  1  0.07009700  0.15458100  0.55183200  1
  C  C18  1  0.42990300  0.15458100  0.05183200  1
  C  C19  1  0.92990300  0.84541900  0.44816800  1
  C  C20  1  0.51398700  0.69379500  0.96900600  1
  C  C21  1  0.01398700  0.30620500  0.53099400  1
  C  C22  1  0.48601300  0.30620500  0.03099400  1
  C  C23  1  0.98601300  0.69379500  0.46900600  1
  N  N0  1  0.67186200  0.86983200  0.89033100  1
  N  N1  1  0.17186200  0.13016800  0.60966900  1
  N  N2  1  0.32813800  0.13016800  0.10966900  1
  N  N3  1  0.82813800  0.86983200  0.39033100  1
loop_
_geom_bond_atom_site_label_1
_geom_bond_atom_site_label_2
_geom_bond_distance
_geom_bond_site_symmetry_2
Ag0 H40 2.092655 1_555
Ag0 H20 2.144482 1_655
Ag0 H25 2.244352 1_555
Ag1 H41 2.092655 1_555
Ag1 H21 2.144482 1_555
Ag1 H24 2.244352 1_555
Ag2 H42 2.092655 1_555
Ag2 H22 2.144482 1_455
Ag2 H27 2.244352 1_555
Ag3 H43 2.092655 1_555
Ag3 H23 2.144482 1_555
Ag3 H26 2.244352 1_555
B0 H16 1.205044 1_555
B1 H17 1.205044 1_555
B2 H18 1.205044 1_555
B3 H19 1.205044 1_555
B4 H20 1.223906 1_555
B5 H21 1.223906 1_555
B6 H22 1.223906 1_555
B7 H23 1.223906 1_555
B8 H24 1.212995 1_555
B9 H25 1.212995 1_555
B10 H26 1.212995 1_555
B11 H27 1.212995 1_555
B12 H28 1.202676 1_555
B13 H29 1.202676 1_555
B14 H30 1.202676 1_555
B15 H31 1.202676 1_555
B16 H32 1.207216 1_555
B17 H33 1.207216 1_555
B18 H34 1.207216 1_555
B19 H35 1.207216 1_555
B20 H36 1.206999 1_555
B21 H37 1.206999 1_555
B22 H38 1.206999 1_555
B23 H39 1.206999 1_555
B24 H40 1.225052 1_555
B25 H41 1.225052 1_555
B26 H42 1.225052 1_555
B27 H43 1.225052 1_555
B28 H44 1.203258 1_555
B29 H45 1.203258 1_555
B30 H46 1.203258 1_555
B31 H47 1.203258 1_555
B32 H48 1.199395 1_555
B33 H49 1.199395 1_555
B34 H50 1.199395 1_555
B35 H51 1.199395 1_555
B36 H52 1.200700 1_555
B37 H53 1.200700 1_555
B38 H54 1.200700 1_555
B39 H55 1.200700 1_555
H0 N0 1.037176 1_555
H1 N1 1.037176 1_555
H2 N2 1.037176 1_555
H3 N3 1.037176 1_555
C0 H56 1.096026 1_555
C0 H60 1.097272 1_555
C0 N0 1.513514 1_555
C0 C4 1.515730 1_555
C1 H57 1.096026 1_555
C1 H61 1.097272 1_555
C1 N1 1.513514 1_555
C1 C5 1.515730 1_555
C2 H58 1.096026 1_555
C2 H62 1.097272 1_555
C2 N2 1.513514 1_555
C2 C6 1.515730 1_555
C3 H59 1.096026 1_555
C3 H63 1.097272 1_555
C3 N3 1.513514 1_555
C3 C7 1.515730 1_555
C4 H64 1.097473 1_555
C4 H4 1.098174 1_655
C4 H68 1.098396 1_655
C5 H65 1.097473 1_555
C5 H5 1.098174 1_555
C5 H69 1.098396 1_555
C6 H66 1.097473 1_555
C6 H6 1.098174 1_455
C6 H70 1.098396 1_455
C7 H67 1.097473 1_555
C7 H7 1.098174 1_555
C7 H71 1.098396 1_555
C8 H72 1.095808 1_555
C8 H76 1.098921 1_555
C8 N0 1.519374 1_555
C9 H73 1.095808 1_555
C9 H77 1.098921 1_555
C9 N1 1.519374 1_555
C10 H74 1.095808 1_555
C10 H78 1.098921 1_555
C10 C14 1.514429 1_555
C10 N2 1.519374 1_555
C11 H75 1.095808 1_555
C11 H79 1.098921 1_555
C11 C15 1.514429 1_655
C11 N3 1.519374 1_555
C12 H84 1.096195 1_555
C12 H8 1.096469 1_565
C12 H80 1.098170 1_555
C12 C8 1.514429 1_555
C13 H85 1.096195 1_555
C13 H9 1.096469 1_545
C13 H81 1.098170 1_555
C13 C9 1.514429 1_655
C14 H86 1.096195 1_555
C14 H10 1.096469 1_545
C14 H82 1.098170 1_555
C15 H87 1.096195 1_555
C15 H11 1.096469 1_565
C15 H83 1.098170 1_555
C16 H92 1.096152 1_555
C16 H88 1.096680 1_555
C16 N0 1.512782 1_555
C16 C20 1.516112 1_555
C17 H93 1.096152 1_455
C17 H89 1.096680 1_555
C17 N1 1.512782 1_555
C17 C21 1.516112 1_555
C18 H94 1.096152 1_555
C18 H90 1.096680 1_555
C18 N2 1.512782 1_555
C18 C22 1.516112 1_555
C19 H95 1.096152 1_655
C19 H91 1.096680 1_555
C19 N3 1.512782 1_555
C19 C23 1.516112 1_555
C20 H96 1.097779 1_555
C20 H100 1.099195 1_556
C20 H12 1.099875 1_555
C21 H97 1.097779 1_555
C21 H101 1.099195 1_455
C21 H13 1.099875 1_455
C22 H98 1.097779 1_555
C22 H102 1.099195 1_554
C22 H14 1.099875 1_555
C23 H99 1.097779 1_555
C23 H103 1.099195 1_655
C23 H15 1.099875 1_655
