# generated using pymatgen
data_Li4Cr3Sn3(TeO8)2
_symmetry_space_group_name_H-M   'P 1'
_cell_length_a   6.27617317
_cell_length_b   6.27617317
_cell_length_c   10.14648085
_cell_angle_alpha   88.60007351
_cell_angle_beta   88.60007351
_cell_angle_gamma   59.71959525
_symmetry_Int_Tables_number   1
_chemical_formula_structural   Li4Cr3Sn3(TeO8)2
_chemical_formula_sum   'Li4 Cr3 Sn3 Te2 O16'
_cell_volume   345.00822478
_cell_formula_units_Z   1
loop_
 _symmetry_equiv_pos_site_id
 _symmetry_equiv_pos_as_xyz
  1  'x, y, z'
loop_
 _atom_site_type_symbol
 _atom_site_label
 _atom_site_symmetry_multiplicity
 _atom_site_fract_x
 _atom_site_fract_y
 _atom_site_fract_z
 _atom_site_occupancy
  Li  Li0  1  0.67292400  0.67292400  0.10449500  1
  Li  Li1  1  0.99529100  0.99529100  0.01086000  1
  Li  Li2  1  0.99373100  0.99373100  0.50365900  1
  Li  Li3  1  0.33362700  0.33362700  0.59132700  1
  Cr  Cr0  1  0.83250200  0.83250200  0.79065100  1
  Cr  Cr1  1  0.16663800  0.66430100  0.28672900  1
  Cr  Cr2  1  0.66430100  0.16663800  0.28672900  1
  Sn  Sn0  1  0.33591800  0.83295900  0.78465400  1
  Sn  Sn1  1  0.83295900  0.33591800  0.78465400  1
  Sn  Sn2  1  0.16661500  0.16661500  0.28723500  1
  Te  Te0  1  0.67550800  0.67550800  0.50802100  1
  Te  Te1  1  0.34821100  0.34821100  0.01973500  1
  O  O0  1  0.30286900  0.83776900  0.39567100  1
  O  O1  1  0.51193100  0.51193100  0.66851000  1
  O  O2  1  0.66570500  0.66570500  0.89207800  1
  O  O3  1  0.99701100  0.99701100  0.68728800  1
  O  O4  1  0.99633400  0.99633400  0.19118500  1
  O  O5  1  0.83776900  0.30286900  0.39567100  1
  O  O6  1  0.51052000  0.96018700  0.64778500  1
  O  O7  1  0.96018700  0.51052000  0.64778500  1
  O  O8  1  0.15206000  0.15206000  0.89269300  1
  O  O9  1  0.84408000  0.84408000  0.40115600  1
  O  O10  1  0.03530100  0.49354900  0.16932900  1
  O  O11  1  0.49354900  0.03530100  0.16932900  1
  O  O12  1  0.33497700  0.33497700  0.38805600  1
  O  O13  1  0.17587000  0.68402100  0.91287700  1
  O  O14  1  0.47989400  0.47989400  0.16109400  1
  O  O15  1  0.68402100  0.17587000  0.91287700  1
loop_
_geom_bond_atom_site_label_1
_geom_bond_atom_site_label_2
_geom_bond_distance
_geom_bond_site_symmetry_2
Li0 O11 2.080287 1_565
Li0 O10 2.080287 1_655
Li0 O2 2.158928 1_554
Li0 O14 2.162719 1_555
Li1 O4 1.830019 1_555
Li1 O15 1.973925 1_564
Li1 O13 1.973925 1_654
Li1 O8 2.057838 1_664
Li2 O3 1.864536 1_555
Li2 O9 1.957323 1_555
Li2 O5 1.989065 1_565
Li2 O0 1.989065 1_655
Li3 O12 2.062124 1_555
Li3 O7 2.096513 1_455
Li3 O6 2.096513 1_545
Li3 O1 2.113404 1_555
Cr0 O3 2.049686 1_555
Cr0 O2 2.061738 1_555
Cr0 O13 2.258201 1_655
Cr0 O15 2.258201 1_565
Cr0 O6 2.297919 1_555
Cr0 O7 2.297919 1_555
Cr1 O4 2.032379 1_455
Cr1 O0 2.044976 1_555
Cr1 O12 2.047522 1_555
Cr1 O10 2.061088 1_555
Cr1 O9 2.089268 1_455
Cr1 O14 2.117728 1_555
Cr2 O4 2.032379 1_545
Cr2 O5 2.044976 1_555
Cr2 O12 2.047522 1_555
Cr2 O11 2.061088 1_555
Cr2 O9 2.089268 1_545
Cr2 O14 2.117728 1_555
O0 Sn2 2.087251 1_565
O0 Te0 2.340510 1_555
O1 Sn1 2.115757 1_555
O1 Sn0 2.115757 1_555
O1 Te0 2.378904 1_555
O2 Sn0 2.106480 1_555
O2 Sn1 2.106480 1_555
O3 Sn1 2.098761 1_565
O3 Sn0 2.098761 1_655
O4 Sn2 2.118414 1_665
O5 Sn2 2.087251 1_655
O5 Te0 2.340510 1_555
O6 Te0 2.112309 1_555
O6 Sn0 2.126252 1_555
O7 Te0 2.112309 1_555
O7 Sn1 2.126252 1_555
O8 Sn1 2.063752 1_455
O8 Sn0 2.063752 1_545
O8 Te1 2.525106 1_556
O9 Te0 2.105016 1_555
O10 Sn2 2.131561 1_555
O10 Te1 2.260131 1_555
O11 Sn2 2.131561 1_555
O11 Te1 2.260131 1_555
O12 Sn2 2.123963 1_555
O13 Sn0 2.097388 1_555
O13 Te1 2.105748 1_556
O14 Te1 2.056201 1_555
O15 Sn1 2.097388 1_555
O15 Te1 2.105748 1_556
