# generated using pymatgen
data_Mn6O5F7
_symmetry_space_group_name_H-M   'P 1'
_cell_length_a   4.72227500
_cell_length_b   5.72789118
_cell_length_c   15.59270751
_cell_angle_alpha   89.69659166
_cell_angle_beta   88.96354395
_cell_angle_gamma   88.32646944
_symmetry_Int_Tables_number   1
_chemical_formula_structural   Mn6O5F7
_chemical_formula_sum   'Mn12 O10 F14'
_cell_volume   421.50844411
_cell_formula_units_Z   2
loop_
 _symmetry_equiv_pos_site_id
 _symmetry_equiv_pos_as_xyz
  1  'x, y, z'
loop_
 _atom_site_type_symbol
 _atom_site_label
 _atom_site_symmetry_multiplicity
 _atom_site_fract_x
 _atom_site_fract_y
 _atom_site_fract_z
 _atom_site_occupancy
  Mn  Mn0  1  0.95093800  0.16232900  0.58593700  1
  Mn  Mn1  1  0.02142100  0.84545800  0.75050000  1
  Mn  Mn2  1  0.95880000  0.15975300  0.92057200  1
  Mn  Mn3  1  0.01364300  0.15611000  0.25481800  1
  Mn  Mn4  1  0.97763500  0.85988300  0.42166000  1
  Mn  Mn5  1  0.93533300  0.83357600  0.08425800  1
  Mn  Mn6  1  0.50618100  0.33485600  0.41151000  1
  Mn  Mn7  1  0.51034600  0.34850800  0.07780300  1
  Mn  Mn8  1  0.52279200  0.35029700  0.75336500  1
  Mn  Mn9  1  0.48813100  0.63629000  0.91246800  1
  Mn  Mn10  1  0.52725700  0.65174500  0.57545300  1
  Mn  Mn11  1  0.51334400  0.65519100  0.24966600  1
  O  O0  1  0.78412100  0.11398400  0.69911600  1
  O  O1  1  0.78691200  0.11375500  0.36329900  1
  O  O2  1  0.75517900  0.11547800  0.02577000  1
  O  O3  1  0.76681000  0.88418700  0.52629900  1
  O  O4  1  0.78034400  0.89304200  0.19987500  1
  O  O5  1  0.71596300  0.37963000  0.86144200  1
  O  O6  1  0.70992500  0.39069300  0.51923200  1
  O  O7  1  0.69042000  0.60216700  0.02063700  1
  O  O8  1  0.29200600  0.61519000  0.80370100  1
  O  O9  1  0.30388100  0.37867200  0.30371700  1
  F  F0  1  0.76317400  0.88055500  0.85928600  1
  F  F1  1  0.76991800  0.61191500  0.68817300  1
  F  F2  1  0.74801100  0.61262800  0.35792900  1
  F  F3  1  0.76057300  0.40331300  0.18839500  1
  F  F4  1  0.23142200  0.38051000  0.97484800  1
  F  F5  1  0.29323300  0.39165100  0.64250600  1
  F  F6  1  0.25080100  0.61843100  0.46623200  1
  F  F7  1  0.26545200  0.61326500  0.13710600  1
  F  F8  1  0.21944200  0.11610000  0.81680500  1
  F  F9  1  0.22240300  0.13267200  0.48248700  1
  F  F10  1  0.25942000  0.88223400  0.63534500  1
  F  F11  1  0.20711000  0.87428700  0.97083700  1
  F  F12  1  0.25096700  0.12487200  0.14026000  1
  F  F13  1  0.24669200  0.87677100  0.31869500  1
loop_
_geom_bond_atom_site_label_1
_geom_bond_atom_site_label_2
_geom_bond_distance
_geom_bond_site_symmetry_2
Mn0 O0 1.941370 1_555
Mn0 O6 2.007390 1_555
Mn0 O3 2.069980 1_545
Mn1 O8 1.997201 1_555
Mn1 O0 2.045031 1_465
Mn2 O2 1.905868 1_556
Mn2 O5 1.921682 1_555
Mn3 O1 2.002934 1_455
Mn3 O9 2.057949 1_555
Mn3 O4 2.088780 1_445
Mn4 O3 1.899533 1_555
Mn4 O1 1.921710 1_565
Mn5 O4 1.961104 1_555
Mn5 O2 2.023605 1_565
Mn5 O7 2.055139 1_555
Mn6 O1 1.949976 1_555
Mn6 O9 1.959661 1_555
Mn6 O6 1.982786 1_555
Mn7 O7 1.913032 1_555
Mn7 O2 1.914158 1_555
Mn8 O5 1.941097 1_555
Mn8 O0 1.986809 1_555
Mn8 O8 1.997745 1_555
Mn9 O8 1.953005 1_555
Mn9 O7 1.959440 1_556
Mn9 O5 1.959809 1_555
Mn10 O6 1.913016 1_555
Mn10 O3 1.919781 1_555
Mn11 O4 2.025415 1_555
Mn11 O9 2.060236 1_555
F0 Mn1 2.078318 1_655
F0 Mn9 2.094528 1_555
F0 Mn2 2.111518 1_565
F1 Mn1 2.071913 1_655
F1 Mn10 2.123135 1_555
F1 Mn8 2.164220 1_555
F2 Mn11 2.045660 1_555
F2 Mn4 2.076699 1_555
F2 Mn6 2.142689 1_555
F3 Mn11 2.057451 1_555
F3 Mn3 2.106233 1_655
F3 Mn7 2.137660 1_555
F4 Mn2 2.029372 1_455
F4 Mn7 2.098789 1_556
F4 Mn9 2.146646 1_555
F5 Mn8 2.065851 1_555
F5 Mn10 2.138175 1_555
F5 Mn0 2.303053 1_455
F6 Mn4 1.994443 1_455
F6 Mn6 2.164204 1_555
F6 Mn10 2.177052 1_555
F7 Mn7 2.089486 1_555
F7 Mn11 2.145612 1_555
F7 Mn5 2.149942 1_455
F8 Mn2 2.027230 1_455
F8 Mn1 2.117331 1_545
F8 Mn8 2.208394 1_555
F9 Mn0 2.046842 1_455
F9 Mn6 2.094094 1_555
F9 Mn4 2.199513 1_445
F10 Mn10 2.021785 1_555
F10 Mn1 2.113867 1_555
F10 Mn0 2.276084 1_465
F11 Mn9 2.076433 1_555
F11 Mn2 2.137885 1_465
F11 Mn5 2.181798 1_456
F12 Mn7 2.030973 1_555
F12 Mn3 2.097144 1_555
F12 Mn5 2.444555 1_445
F13 Mn4 2.032993 1_455
F13 Mn11 2.055978 1_555
F13 Mn3 2.164069 1_565
