# generated using pymatgen
data_CrTe(WO6)2
_symmetry_space_group_name_H-M   'P 1'
_cell_length_a   5.13172600
_cell_length_b   5.33330386
_cell_length_c   7.41493921
_cell_angle_alpha   92.68806925
_cell_angle_beta   90.03786266
_cell_angle_gamma   90.14826456
_symmetry_Int_Tables_number   1
_chemical_formula_structural   CrTe(WO6)2
_chemical_formula_sum   'Cr1 Te1 W2 O12'
_cell_volume   202.71582882
_cell_formula_units_Z   1
loop_
 _symmetry_equiv_pos_site_id
 _symmetry_equiv_pos_as_xyz
  1  'x, y, z'
loop_
 _atom_site_type_symbol
 _atom_site_label
 _atom_site_symmetry_multiplicity
 _atom_site_fract_x
 _atom_site_fract_y
 _atom_site_fract_z
 _atom_site_occupancy
  Cr  Cr0  1  0.00158200  0.05627300  0.96825300  1
  Te  Te0  1  0.49976700  0.49717500  0.50384400  1
  W  W0  1  0.98797200  0.99784000  0.46919900  1
  W  W1  1  0.51030000  0.55418300  0.00283600  1
  O  O0  1  0.30056200  0.19718100  0.44761400  1
  O  O1  1  0.10199800  0.00992700  0.75756100  1
  O  O2  1  0.29463800  0.81139400  0.04927300  1
  O  O3  1  0.19893900  0.69875600  0.45195400  1
  O  O4  1  0.80834100  0.71417800  0.95158500  1
  O  O5  1  0.39349200  0.49086100  0.75370400  1
  O  O6  1  0.59890700  0.49145400  0.25096400  1
  O  O7  1  0.19244800  0.29248300  0.04391500  1
  O  O8  1  0.80361200  0.29820600  0.55564800  1
  O  O9  1  0.71667200  0.19987300  0.94416100  1
  O  O10  1  0.89371200  0.99947100  0.23925100  1
  O  O11  1  0.69705700  0.80034100  0.55544100  1
loop_
_geom_bond_atom_site_label_1
_geom_bond_atom_site_label_2
_geom_bond_distance
_geom_bond_site_symmetry_2
Cr0 O1 1.653125 1_555
Cr0 O9 1.665659 1_455
Cr0 O7 1.669658 1_556
Cr0 O4 2.072867 1_445
Cr0 O2 2.100193 1_546
Cr0 O10 2.119841 1_446
O0 Te0 1.925393 1_555
O0 W0 1.933026 1_445
O1 W0 2.214412 1_445
O2 W1 1.785843 1_555
O3 W0 1.929450 1_455
O3 Te0 1.932275 1_555
O4 W1 1.798954 1_556
O5 Te0 1.933428 1_555
O5 W1 1.955722 1_556
O6 W1 1.939372 1_555
O6 Te0 1.942087 1_555
O7 W1 2.174894 1_555
O8 Te0 1.936719 1_555
O8 W0 1.945386 1_545
O9 W1 2.194417 1_556
O10 W0 1.772449 1_555
O11 Te0 1.928390 1_555
O11 W0 1.950247 1_555
