# generated using pymatgen
data_Na3CoO3
_symmetry_space_group_name_H-M   'P 1'
_cell_length_a   10.89488555
_cell_length_b   3.91182276
_cell_length_c   10.04517674
_cell_angle_alpha   78.52608808
_cell_angle_beta   90.00000000
_cell_angle_gamma   90.00000000
_symmetry_Int_Tables_number   1
_chemical_formula_structural   Na3CoO3
_chemical_formula_sum   'Na12 Co4 O12'
_cell_volume   419.55829820
_cell_formula_units_Z   4
loop_
 _symmetry_equiv_pos_site_id
 _symmetry_equiv_pos_as_xyz
  1  'x, y, z'
loop_
 _atom_site_type_symbol
 _atom_site_label
 _atom_site_symmetry_multiplicity
 _atom_site_fract_x
 _atom_site_fract_y
 _atom_site_fract_z
 _atom_site_occupancy
  Na  Na0  1  0.43056590  0.90138462  0.63502000  1
  Na  Na1  1  0.98465456  0.72221733  0.61583373  1
  Na  Na2  1  0.23052235  0.50360117  0.98084146  1
  Na  Na3  1  0.06943410  0.90138462  0.13502000  1
  Na  Na4  1  0.51534544  0.72221733  0.11583373  1
  Na  Na5  1  0.73052235  0.49639883  0.51915854  1
  Na  Na6  1  0.26947765  0.50360117  0.48084146  1
  Na  Na7  1  0.48465456  0.27778267  0.88416627  1
  Na  Na8  1  0.93056590  0.09861538  0.86498000  1
  Na  Na9  1  0.76947765  0.49639883  0.01915854  1
  Na  Na10  1  0.01534544  0.27778267  0.38416627  1
  Na  Na11  1  0.56943410  0.09861538  0.36498000  1
  Co  Co0  1  0.69081088  0.81153739  0.75456029  1
  Co  Co1  1  0.80918912  0.81153739  0.25456029  1
  Co  Co2  1  0.19081088  0.18846261  0.74543971  1
  Co  Co3  1  0.30918912  0.18846261  0.24543971  1
  O  O0  1  0.63759784  0.96793864  0.58824515  1
  O  O1  1  0.59283755  0.77088651  0.89745074  1
  O  O2  1  0.86240216  0.96793864  0.08824515  1
  O  O3  1  0.84065301  0.63813034  0.78475069  1
  O  O4  1  0.90716245  0.77088651  0.39745074  1
  O  O5  1  0.65934699  0.63813034  0.28475069  1
  O  O6  1  0.34065301  0.36186966  0.71524931  1
  O  O7  1  0.09283755  0.22911349  0.60254926  1
  O  O8  1  0.15934699  0.36186966  0.21524931  1
  O  O9  1  0.13759784  0.03206136  0.91175485  1
  O  O10  1  0.40716245  0.22911349  0.10254926  1
  O  O11  1  0.36240216  0.03206136  0.41175485  1
loop_
_geom_bond_atom_site_label_1
_geom_bond_atom_site_label_2
_geom_bond_distance
_geom_bond_site_symmetry_2
Na0 O0 2.308152 1_555
Na0 O6 2.320899 1_555
Na0 O11 2.320901 1_565
Na0 O6 2.330552 1_565
Na1 O3 2.286190 1_555
Na1 O7 2.286963 1_655
Na1 O7 2.287701 1_665
Na1 O4 2.322752 1_555
Na2 O9 2.282390 1_565
Na2 O9 2.327732 1_555
Na2 O10 2.414324 1_556
Na2 O8 2.435937 1_556
Na3 O2 2.308152 1_455
Na3 O8 2.320899 1_555
Na3 O9 2.320901 1_564
Na3 O8 2.330552 1_565
Na4 O5 2.286190 1_555
Na4 O10 2.286963 1_555
Na4 O10 2.287701 1_565
Na4 O1 2.322752 1_554
Na5 O0 2.282390 1_545
Na5 O0 2.327732 1_555
Na5 O4 2.414324 1_555
Na5 O5 2.435937 1_555
Na6 O11 2.282390 1_565
Na6 O11 2.327732 1_555
Na6 O7 2.414324 1_555
Na6 O6 2.435937 1_555
Na7 O6 2.286190 1_555
Na7 O1 2.286963 1_555
Na7 O1 2.287701 1_545
Na7 O10 2.322752 1_556
Na8 O9 2.308152 1_655
Na8 O3 2.320899 1_555
Na8 O2 2.320901 1_546
Na8 O3 2.330552 1_545
Na9 O2 2.282390 1_545
Na9 O2 2.327732 1_555
Na9 O1 2.414324 1_554
Na9 O3 2.435937 1_554
Na10 O8 2.286190 1_555
Na10 O4 2.286963 1_455
Na10 O4 2.287701 1_445
Na10 O7 2.322752 1_555
Na11 O11 2.308152 1_555
Na11 O5 2.320899 1_555
Na11 O0 2.320901 1_545
Na11 O5 2.330552 1_545
Co0 O0 1.759232 1_555
Co0 O1 1.770338 1_555
Co0 O3 1.770697 1_555
Co1 O2 1.759232 1_555
Co1 O4 1.770338 1_555
Co1 O5 1.770697 1_555
Co2 O9 1.759232 1_555
Co2 O7 1.770338 1_555
Co2 O6 1.770697 1_555
Co3 O11 1.759232 1_555
Co3 O10 1.770338 1_555
Co3 O8 1.770697 1_555
