# generated using pymatgen
data_Na6ZnO4
_symmetry_space_group_name_H-M   'P 1'
_cell_length_a   7.51009814
_cell_length_b   7.51009913
_cell_length_c   5.80729433
_cell_angle_alpha   89.99999467
_cell_angle_beta   90.00001515
_cell_angle_gamma   120.00307290
_symmetry_Int_Tables_number   1
_chemical_formula_structural   Na6ZnO4
_chemical_formula_sum   'Na12 Zn2 O8'
_cell_volume   283.64968304
_cell_formula_units_Z   2
loop_
 _symmetry_equiv_pos_site_id
 _symmetry_equiv_pos_as_xyz
  1  'x, y, z'
loop_
 _atom_site_type_symbol
 _atom_site_label
 _atom_site_symmetry_multiplicity
 _atom_site_fract_x
 _atom_site_fract_y
 _atom_site_fract_z
 _atom_site_occupancy
  Na  Na0  1  0.92646741  0.46321662  0.13473430  1
  Na  Na1  1  0.46324938  0.53674992  0.63473218  1
  Na  Na2  1  0.14231565  0.85768439  0.96715706  1
  Na  Na3  1  0.28463091  0.14230681  0.46715800  1
  Na  Na4  1  0.85769315  0.71536871  0.46715818  1
  Na  Na5  1  0.14230676  0.28463119  0.96715834  1
  Na  Na6  1  0.71536927  0.85769331  0.96715816  1
  Na  Na7  1  0.85768420  0.14231558  0.46715663  1
  Na  Na8  1  0.53675035  0.46325009  0.13473197  1
  Na  Na9  1  0.07353330  0.53678394  0.63473407  1
  Na  Na10  1  0.46321600  0.92646669  0.63473409  1
  Na  Na11  1  0.53678338  0.07353308  0.13473410  1
  Zn  Zn0  1  0.66666922  0.33333094  0.74413806  1
  Zn  Zn1  1  0.33333116  0.66666900  0.24413801  1
  O  O0  1  0.18832296  0.81167712  0.35706768  1
  O  O1  1  0.37663987  0.18832014  0.85707244  1
  O  O2  1  0.33333686  0.66666304  0.90497859  1
  O  O3  1  0.66666314  0.33333695  0.40497838  1
  O  O4  1  0.81167709  0.18832272  0.85706795  1
  O  O5  1  0.62336017  0.81167983  0.35707259  1
  O  O6  1  0.18831962  0.37663984  0.35707252  1
  O  O7  1  0.81168016  0.62336011  0.85707270  1
loop_
_geom_bond_atom_site_label_1
_geom_bond_atom_site_label_2
_geom_bond_distance
_geom_bond_site_symmetry_2
Na0 O3 2.306091 1_555
Na0 O4 2.413601 1_554
Na0 O7 2.413826 1_554
Na0 O6 2.689970 1_655
Na0 O0 2.689995 1_655
Na1 O2 2.306260 1_555
Na1 O6 2.413728 1_555
Na1 O5 2.413729 1_555
Na1 O1 2.689869 1_555
Na1 O7 2.689875 1_555
Na2 O7 2.302439 1_455
Na2 O1 2.302441 1_565
Na2 O0 2.342079 1_556
Na2 O2 2.510918 1_555
Na3 O0 2.302466 1_545
Na3 O6 2.302616 1_555
Na3 O1 2.342084 1_555
Na3 O3 2.510738 1_555
Na4 O0 2.302466 1_655
Na4 O5 2.302614 1_555
Na4 O7 2.342084 1_555
Na4 O3 2.510736 1_555
Na5 O4 2.302465 1_455
Na5 O1 2.302616 1_555
Na5 O6 2.342082 1_556
Na5 O2 2.510736 1_555
Na6 O4 2.302464 1_565
Na6 O7 2.302615 1_555
Na6 O5 2.342084 1_556
Na6 O2 2.510739 1_555
Na7 O6 2.302438 1_655
Na7 O5 2.302440 1_545
Na7 O4 2.342082 1_555
Na7 O3 2.510917 1_555
Na8 O3 2.306261 1_555
Na8 O7 2.413727 1_554
Na8 O1 2.413729 1_554
Na8 O5 2.689870 1_555
Na8 O6 2.689875 1_555
Na9 O2 2.306089 1_555
Na9 O0 2.413598 1_555
Na9 O6 2.413825 1_555
Na9 O7 2.689975 1_455
Na9 O4 2.690002 1_455
Na10 O2 2.306090 1_555
Na10 O0 2.413597 1_555
Na10 O5 2.413827 1_555
Na10 O1 2.689976 1_565
Na10 O4 2.690000 1_565
Na11 O3 2.306090 1_555
Na11 O4 2.413600 1_554
Na11 O1 2.413825 1_554
Na11 O5 2.689977 1_545
Na11 O0 2.689997 1_545
O0 Zn1 1.997032 1_555
O1 Zn0 1.997038 1_555
O2 Zn1 1.969599 1_556
O3 Zn0 1.969600 1_555
O4 Zn0 1.997030 1_555
O5 Zn1 1.997036 1_555
O6 Zn1 1.997037 1_555
O7 Zn0 1.997037 1_555
