# generated using pymatgen
data_Li2FeNi3O8
_symmetry_space_group_name_H-M   'P 1'
_cell_length_a   5.83713811
_cell_length_b   5.83713811
_cell_length_c   5.83713828
_cell_angle_alpha   59.24095978
_cell_angle_beta   59.24095978
_cell_angle_gamma   59.24096311
_symmetry_Int_Tables_number   1
_chemical_formula_structural   Li2FeNi3O8
_chemical_formula_sum   'Li2 Fe1 Ni3 O8'
_cell_volume   138.20079178
_cell_formula_units_Z   1
loop_
 _symmetry_equiv_pos_site_id
 _symmetry_equiv_pos_as_xyz
  1  'x, y, z'
loop_
 _atom_site_type_symbol
 _atom_site_label
 _atom_site_symmetry_multiplicity
 _atom_site_fract_x
 _atom_site_fract_y
 _atom_site_fract_z
 _atom_site_occupancy
  Li  Li0  1  0.87863800  0.87863800  0.87863800  1
  Li  Li1  1  0.12136200  0.12136200  0.12136200  1
  Fe  Fe0  1  0.50000000  0.50000000  0.50000000  1
  Ni  Ni0  1  0.50000000  0.00000000  0.50000000  1
  Ni  Ni1  1  0.50000000  0.50000000  0.00000000  1
  Ni  Ni2  1  0.00000000  0.50000000  0.50000000  1
  O  O0  1  0.73802100  0.73802100  0.73802100  1
  O  O1  1  0.29199100  0.74416500  0.74416500  1
  O  O2  1  0.74416500  0.74416500  0.29199100  1
  O  O3  1  0.74416500  0.29199100  0.74416500  1
  O  O4  1  0.25583500  0.70800900  0.25583500  1
  O  O5  1  0.25583500  0.25583500  0.70800900  1
  O  O6  1  0.70800900  0.25583500  0.25583500  1
  O  O7  1  0.26197900  0.26197900  0.26197900  1
loop_
_geom_bond_atom_site_label_1
_geom_bond_atom_site_label_2
_geom_bond_distance
_geom_bond_site_symmetry_2
Li0 O2 1.951843 1_556
Li0 O3 1.951843 1_565
Li0 O1 1.951843 1_655
Li0 O0 2.022000 1_555
Li1 O5 1.951843 1_554
Li1 O4 1.951843 1_545
Li1 O6 1.951843 1_455
Li1 O7 2.022000 1_555
Fe0 O2 2.018513 1_555
Fe0 O5 2.018513 1_555
Fe0 O1 2.018513 1_555
Fe0 O3 2.018513 1_555
Fe0 O4 2.018513 1_555
Fe0 O6 2.018513 1_555
Ni0 O1 1.908709 1_545
Ni0 O6 1.908709 1_555
Ni0 O5 1.908709 1_555
Ni0 O2 1.908709 1_545
Ni0 O0 1.956324 1_545
Ni0 O7 1.956324 1_555
Ni1 O4 1.908709 1_555
Ni1 O6 1.908709 1_555
Ni1 O1 1.908709 1_554
Ni1 O3 1.908709 1_554
Ni1 O0 1.956324 1_554
Ni1 O7 1.956324 1_555
Ni2 O4 1.908709 1_555
Ni2 O3 1.908709 1_455
Ni2 O5 1.908709 1_555
Ni2 O2 1.908709 1_455
Ni2 O0 1.956324 1_455
Ni2 O7 1.956324 1_555
