# generated using pymatgen
data_Sr(BrO3)2
_symmetry_space_group_name_H-M   'P 1'
_cell_length_a   5.69624347
_cell_length_b   5.69624347
_cell_length_c   4.45958152
_cell_angle_alpha   85.40098539
_cell_angle_beta   85.40098539
_cell_angle_gamma   73.39048246
_symmetry_Int_Tables_number   1
_chemical_formula_structural   Sr(BrO3)2
_chemical_formula_sum   'Sr1 Br2 O6'
_cell_volume   137.96821240
_cell_formula_units_Z   1
loop_
 _symmetry_equiv_pos_site_id
 _symmetry_equiv_pos_as_xyz
  1  'x, y, z'
loop_
 _atom_site_type_symbol
 _atom_site_label
 _atom_site_symmetry_multiplicity
 _atom_site_fract_x
 _atom_site_fract_y
 _atom_site_fract_z
 _atom_site_occupancy
  Sr  Sr0  1  0.05408800  0.94591200  0.00000000  1
  Br  Br0  1  0.42085400  0.28047200  0.31154300  1
  Br  Br1  1  0.71952800  0.57914600  0.68845700  1
  O  O0  1  0.91491900  0.74195100  0.51235900  1
  O  O1  1  0.25804900  0.08508100  0.48764100  1
  O  O2  1  0.73223400  0.26776600  0.50000000  1
  O  O3  1  0.91421000  0.43405200  0.94931000  1
  O  O4  1  0.56594800  0.08579000  0.05069000  1
  O  O5  1  0.42016900  0.57983100  0.00000000  1
loop_
_geom_bond_atom_site_label_1
_geom_bond_atom_site_label_2
_geom_bond_distance
_geom_bond_site_symmetry_2
Br0 O4 1.671777 1_555
Br0 O1 1.746036 1_555
Br0 O2 2.003367 1_555
Br0 O5 2.110742 1_555
Br1 O3 1.671777 1_555
Br1 O0 1.746036 1_555
Br1 O2 2.003367 1_555
Br1 O5 2.110742 1_556
O0 Sr0 2.647528 1_655
O0 Sr0 2.813471 1_656
O1 Sr0 2.647528 1_546
O1 Sr0 2.813471 1_545
O3 Sr0 2.660638 1_646
O4 Sr0 2.660638 1_645
O5 Sr0 2.492162 1_555
