# generated using pymatgen
data_Cs3ErO3
_symmetry_space_group_name_H-M   'P 1'
_cell_length_a   7.48436242
_cell_length_b   7.48436204
_cell_length_c   7.56669233
_cell_angle_alpha   83.92575461
_cell_angle_beta   96.07424925
_cell_angle_gamma   64.01794376
_symmetry_Int_Tables_number   1
_chemical_formula_structural   Cs3ErO3
_chemical_formula_sum   'Cs6 Er2 O6'
_cell_volume   373.34534937
_cell_formula_units_Z   2
loop_
 _symmetry_equiv_pos_site_id
 _symmetry_equiv_pos_as_xyz
  1  'x, y, z'
loop_
 _atom_site_type_symbol
 _atom_site_label
 _atom_site_symmetry_multiplicity
 _atom_site_fract_x
 _atom_site_fract_y
 _atom_site_fract_z
 _atom_site_occupancy
  Cs  Cs0  1  0.20912125  0.20912125  0.50000000  1
  Cs  Cs1  1  0.26205433  0.26205433  0.00000000  1
  Cs  Cs2  1  0.35767020  0.64232980  0.64882659  1
  Cs  Cs3  1  0.64232980  0.35767020  0.35117341  1
  Cs  Cs4  1  0.73794567  0.73794567  -0.00000000  1
  Cs  Cs5  1  0.79087875  0.79087875  0.50000000  1
  Er  Er0  1  0.17149836  0.82850164  0.14999398  1
  Er  Er1  1  0.82850164  0.17149836  0.85000602  1
  O  O0  1  0.16370567  0.56643072  0.26578298  1
  O  O1  1  0.10077244  0.89922756  0.85880616  1
  O  O2  1  0.56643072  0.16370567  0.73421702  1
  O  O3  1  0.43356928  0.83629433  0.26578298  1
  O  O4  1  0.89922756  0.10077244  0.14119384  1
  O  O5  1  0.83629433  0.43356928  0.73421702  1
loop_
_geom_bond_atom_site_label_1
_geom_bond_atom_site_label_2
_geom_bond_distance
_geom_bond_site_symmetry_2
Cs0 O0 2.912212 1_555
Cs0 O2 2.912212 1_555
Cs0 O3 3.364308 1_545
Cs0 O5 3.364308 1_455
Cs1 O0 3.096702 1_555
Cs1 O2 3.096702 1_554
Cs1 O3 3.218662 1_545
Cs1 O5 3.218662 1_454
Cs2 O1 2.823486 1_555
Cs2 O2 3.175436 1_555
Cs2 O5 3.175436 1_555
Cs2 O0 3.318314 1_555
Cs2 O3 3.318314 1_555
Cs3 O4 2.823486 1_555
Cs3 O3 3.175436 1_555
Cs3 O0 3.175436 1_555
Cs3 O5 3.318314 1_555
Cs3 O2 3.318314 1_555
Cs4 O5 3.096702 1_554
Cs4 O3 3.096702 1_555
Cs4 O2 3.218662 1_564
Cs4 O0 3.218662 1_655
Cs5 O5 2.912212 1_555
Cs5 O3 2.912212 1_555
Cs5 O2 3.364308 1_565
Cs5 O0 3.364308 1_655
Er0 O0 2.089402 1_555
Er0 O3 2.089402 1_555
Er0 O4 2.147950 1_465
Er0 O1 2.162381 1_554
Er1 O5 2.089402 1_555
Er1 O2 2.089402 1_555
Er1 O1 2.147950 1_645
Er1 O4 2.162381 1_556
