# generated using pymatgen
data_Co3C7S2O7
_symmetry_space_group_name_H-M   'P 1'
_cell_length_a   9.50478400
_cell_length_b   11.82372530
_cell_length_c   13.60462665
_cell_angle_alpha   72.62801813
_cell_angle_beta   78.89730680
_cell_angle_gamma   70.13016761
_symmetry_Int_Tables_number   1
_chemical_formula_structural   Co3C7S2O7
_chemical_formula_sum   'Co12 C28 S8 O28'
_cell_volume   1365.22179902
_cell_formula_units_Z   4
loop_
 _symmetry_equiv_pos_site_id
 _symmetry_equiv_pos_as_xyz
  1  'x, y, z'
loop_
 _atom_site_type_symbol
 _atom_site_label
 _atom_site_symmetry_multiplicity
 _atom_site_fract_x
 _atom_site_fract_y
 _atom_site_fract_z
 _atom_site_occupancy
  Co  Co0  1  0.47112600  0.30740600  0.73129700  1
  Co  Co1  1  0.52887400  0.69259400  0.26870300  1
  Co  Co2  1  0.25488800  0.28620000  0.67137000  1
  Co  Co3  1  0.74511200  0.71380000  0.32863000  1
  Co  Co4  1  0.43189900  0.09610500  0.77993200  1
  Co  Co5  1  0.56810100  0.90389500  0.22006800  1
  Co  Co6  1  0.23150700  0.63871900  0.75860900  1
  Co  Co7  1  0.76849300  0.36128100  0.24139100  1
  Co  Co8  1  0.01366100  0.61712700  0.70148500  1
  Co  Co9  1  0.98633900  0.38287300  0.29851500  1
  Co  Co10  1  0.96989000  0.72700900  0.84408100  1
  Co  Co11  1  0.03011000  0.27299100  0.15591900  1
  C  C0  1  0.57685200  0.31177500  0.82342400  1
  C  C1  1  0.42314800  0.68822500  0.17657600  1
  C  C2  1  0.61237200  0.27654500  0.62930900  1
  C  C3  1  0.38762800  0.72345500  0.37069100  1
  C  C4  1  0.07861100  0.25944200  0.68922100  1
  C  C5  1  0.92138900  0.74055800  0.31077900  1
  C  C6  1  0.33076400  0.25986500  0.54806000  1
  C  C7  1  0.66923600  0.74013500  0.45194000  1
  C  C8  1  0.57074300  0.04275800  0.86622100  1
  C  C9  1  0.42925700  0.95724200  0.13377900  1
  C  C10  1  0.53602300  0.03469000  0.67427300  1
  C  C11  1  0.46397700  0.96531000  0.32572700  1
  C  C12  1  0.31077700  0.00205100  0.82739000  1
  C  C13  1  0.68922300  0.99794900  0.17261000  1
  C  C14  1  0.36137100  0.61201300  0.84609200  1
  C  C15  1  0.63862900  0.38798700  0.15390800  1
  C  C16  1  0.25105100  0.78013600  0.67315300  1
  C  C17  1  0.74894900  0.21986400  0.32684700  1
  C  C18  1  0.85650800  0.56466500  0.71224000  1
  C  C19  1  0.14349200  0.43533500  0.28776000  1
  C  C20  1  0.97445300  0.75052600  0.59569300  1
  C  C21  1  0.02554700  0.24947400  0.40430700  1
  C  C22  1  0.02385800  0.74459400  0.95522100  1
  C  C23  1  0.97614200  0.25540600  0.04477900  1
  C  C24  1  0.93786800  0.88017600  0.76365500  1
  C  C25  1  0.06213200  0.11982400  0.23634500  1
  C  C26  1  0.78303600  0.72260100  0.88325000  1
  C  C27  1  0.21696400  0.27739900  0.11675000  1
  S  S0  1  0.28524800  0.25852000  0.82962200  1
  S  S1  1  0.71475200  0.74148000  0.17037800  1
  S  S2  1  0.08815800  0.53378600  0.85287200  1
  S  S3  1  0.91184200  0.46621400  0.14712800  1
  S  S4  1  0.37123700  0.51058900  0.65939100  1
  S  S5  1  0.62876300  0.48941100  0.34060900  1
  S  S6  1  0.18960900  0.49413000  0.61168400  1
  S  S7  1  0.81039100  0.50587000  0.38831600  1
  O  O0  1  0.64535800  0.30955300  0.88583000  1
  O  O1  1  0.35464200  0.69044700  0.11417000  1
  O  O2  1  0.70682500  0.25234400  0.56433500  1
  O  O3  1  0.29317500  0.74765600  0.43566500  1
  O  O4  1  0.96357000  0.24083300  0.70404900  1
  O  O5  1  0.03643000  0.75916700  0.29595100  1
  O  O6  1  0.37889000  0.24493500  0.46635500  1
  O  O7  1  0.62111000  0.75506500  0.53364500  1
  O  O8  1  0.66188100  0.00704300  0.92305600  1
  O  O9  1  0.33811900  0.99295700  0.07694400  1
  O  O10  1  0.60594100  0.99022200  0.60846400  1
  O  O11  1  0.39405900  0.00977800  0.39153600  1
  O  O12  1  0.23091900  0.94151300  0.85998700  1
  O  O13  1  0.76908100  0.05848700  0.14001300  1
  O  O14  1  0.44453500  0.59578800  0.90415400  1
  O  O15  1  0.55546500  0.40421200  0.09584600  1
  O  O16  1  0.26385300  0.87445200  0.62207500  1
  O  O17  1  0.73614700  0.12554800  0.37792500  1
  O  O18  1  0.75126100  0.53265800  0.72122800  1
  O  O19  1  0.24873900  0.46734200  0.27877200  1
  O  O20  1  0.94645000  0.83692700  0.52652200  1
  O  O21  1  0.05355000  0.16307300  0.47347800  1
  O  O22  1  0.05326300  0.75691300  0.02907100  1
  O  O23  1  0.94673700  0.24308700  0.97092900  1
  O  O24  1  0.91380900  0.98120800  0.71315200  1
  O  O25  1  0.08619100  0.01879200  0.28684800  1
  O  O26  1  0.65960600  0.72392700  0.91023800  1
  O  O27  1  0.34039400  0.27607300  0.08976200  1
loop_
_geom_bond_atom_site_label_1
_geom_bond_atom_site_label_2
_geom_bond_distance
_geom_bond_site_symmetry_2
Co0 S0 2.137073 1_555
Co0 S4 2.243585 1_555
Co1 S1 2.137073 1_555
Co1 S5 2.243585 1_555
Co2 S0 2.140077 1_555
Co2 S6 2.248021 1_555
Co3 S1 2.140077 1_555
Co3 S7 2.248021 1_555
Co4 S0 2.163420 1_555
Co5 S1 2.163420 1_555
Co6 S2 2.136910 1_555
Co6 S4 2.245887 1_555
Co7 S3 2.136910 1_555
Co7 S5 2.245887 1_555
Co8 S2 2.142343 1_555
Co8 S6 2.241672 1_555
Co9 S3 2.142343 1_555
Co9 S7 2.241672 1_555
Co10 S2 2.154126 1_655
Co11 S3 2.154126 1_455
C0 O0 1.154750 1_555
C0 Co0 1.772688 1_555
C1 O1 1.154750 1_555
C1 Co1 1.772688 1_555
C2 O2 1.157580 1_555
C2 Co0 1.764252 1_555
C3 O3 1.157580 1_555
C3 Co1 1.764252 1_555
C4 O4 1.156202 1_455
C4 Co2 1.767493 1_555
C5 O5 1.156202 1_655
C5 Co3 1.767493 1_555
C6 O6 1.158636 1_555
C6 Co2 1.767677 1_555
C7 O7 1.158636 1_555
C7 Co3 1.767677 1_555
C8 O8 1.157972 1_555
C8 Co4 1.762435 1_555
C9 O9 1.157972 1_555
C9 Co5 1.762435 1_555
C10 O10 1.155024 1_545
C10 Co4 1.777615 1_555
C11 O11 1.155024 1_565
C11 Co5 1.777615 1_555
C12 O12 1.155540 1_545
C12 Co4 1.770356 1_555
C13 O13 1.155540 1_565
C13 Co5 1.770356 1_555
C14 O14 1.154335 1_555
C14 Co6 1.765281 1_555
C15 O15 1.154335 1_555
C15 Co7 1.765281 1_555
C16 O16 1.156812 1_555
C16 Co6 1.774575 1_555
C17 O17 1.156812 1_555
C17 Co7 1.774575 1_555
C18 O18 1.158218 1_555
C18 Co8 1.768840 1_655
C19 O19 1.158218 1_555
C19 Co9 1.768840 1_455
C20 O20 1.156546 1_555
C20 Co8 1.774699 1_655
C21 O21 1.156546 1_555
C21 Co9 1.774699 1_455
C22 O22 1.154107 1_556
C22 Co10 1.775244 1_455
C23 O23 1.154107 1_554
C23 Co11 1.775244 1_655
C24 O24 1.155887 1_555
C24 Co10 1.771968 1_555
C25 O25 1.155887 1_555
C25 Co11 1.771968 1_555
C26 O26 1.156042 1_555
C26 Co10 1.767123 1_555
C27 O27 1.156042 1_555
C27 Co11 1.767123 1_555
S4 S6 2.043202 1_555
S5 S7 2.043202 1_555
