# generated using pymatgen
data_Nd2Zr3(MoO4)9
_symmetry_space_group_name_H-M   'P 1'
_cell_length_a   20.41980133
_cell_length_b   20.41980133
_cell_length_c   20.41980165
_cell_angle_alpha   27.91417293
_cell_angle_beta   27.91417293
_cell_angle_gamma   27.91417052
_symmetry_Int_Tables_number   1
_chemical_formula_structural   Nd2Zr3(MoO4)9
_chemical_formula_sum   'Nd4 Zr6 Mo18 O72'
_cell_volume   1647.97095104
_cell_formula_units_Z   2
loop_
 _symmetry_equiv_pos_site_id
 _symmetry_equiv_pos_as_xyz
  1  'x, y, z'
loop_
 _atom_site_type_symbol
 _atom_site_label
 _atom_site_symmetry_multiplicity
 _atom_site_fract_x
 _atom_site_fract_y
 _atom_site_fract_z
 _atom_site_occupancy
  Nd  Nd0  1  0.30402450  0.30402450  0.30402450  1
  Nd  Nd1  1  0.19597550  0.19597550  0.19597550  1
  Nd  Nd2  1  0.69597550  0.69597550  0.69597550  1
  Nd  Nd3  1  0.80402450  0.80402450  0.80402450  1
  Zr  Zr0  1  0.40455548  0.40455548  0.40455548  1
  Zr  Zr1  1  0.09544452  0.09544452  0.09544452  1
  Zr  Zr2  1  0.59544452  0.59544452  0.59544452  1
  Zr  Zr3  1  0.00000000  -0.00000000  -0.00000000  1
  Zr  Zr4  1  0.50000000  0.50000000  0.50000000  1
  Zr  Zr5  1  0.90455548  0.90455548  0.90455548  1
  Mo  Mo0  1  0.62041771  0.80052190  0.15331617  1
  Mo  Mo1  1  0.65331617  0.30052190  0.12041771  1
  Mo  Mo2  1  0.87958229  0.34668383  0.69947810  1
  Mo  Mo3  1  0.25000000  0.97118762  0.52881238  1
  Mo  Mo4  1  0.97118762  0.52881238  0.25000000  1
  Mo  Mo5  1  0.19947810  0.84668383  0.37958229  1
  Mo  Mo6  1  0.02881238  0.47118762  0.75000000  1
  Mo  Mo7  1  0.12041771  0.65331617  0.30052190  1
  Mo  Mo8  1  0.84668383  0.37958229  0.19947810  1
  Mo  Mo9  1  0.15331617  0.62041771  0.80052190  1
  Mo  Mo10  1  0.52881238  0.25000000  0.97118762  1
  Mo  Mo11  1  0.47118762  0.75000000  0.02881238  1
  Mo  Mo12  1  0.75000000  0.02881238  0.47118762  1
  Mo  Mo13  1  0.30052190  0.12041771  0.65331617  1
  Mo  Mo14  1  0.34668383  0.69947810  0.87958229  1
  Mo  Mo15  1  0.37958229  0.19947810  0.84668383  1
  Mo  Mo16  1  0.80052190  0.15331617  0.62041771  1
  Mo  Mo17  1  0.69947810  0.87958229  0.34668383  1
  O  O0  1  0.84256293  0.00471203  0.65776406  1
  O  O1  1  0.31555644  0.25771646  0.57440283  1
  O  O2  1  0.15776406  0.50471203  0.34256293  1
  O  O3  1  0.42559717  0.68444356  0.74228354  1
  O  O4  1  0.07029414  0.27659098  0.56387086  1
  O  O5  1  0.81479635  0.10378736  0.13923257  1
  O  O6  1  0.56495062  0.69709963  0.91790844  1
  O  O7  1  0.25771646  0.57440283  0.31555644  1
  O  O8  1  0.43504938  0.30290037  0.08209156  1
  O  O9  1  0.10378736  0.13923257  0.81479635  1
  O  O10  1  0.03829638  0.27755510  0.91849445  1
  O  O11  1  0.75771646  0.81555644  0.07440283  1
  O  O12  1  0.07440283  0.75771646  0.81555644  1
  O  O13  1  0.41790844  0.19709963  0.06495062  1
  O  O14  1  0.72244490  0.08150555  0.96170362  1
  O  O15  1  0.24228354  0.18444356  0.92559717  1
  O  O16  1  0.91849445  0.03829638  0.27755510  1
  O  O17  1  0.58209156  0.80290037  0.93504938  1
  O  O18  1  0.63923257  0.60378736  0.31479635  1
  O  O19  1  0.13923257  0.81479635  0.10378736  1
  O  O20  1  0.74228354  0.42559717  0.68444356  1
  O  O21  1  0.22244490  0.46170362  0.58150555  1
  O  O22  1  0.81555644  0.07440283  0.75771646  1
  O  O23  1  0.41849445  0.77755510  0.53829638  1
  O  O24  1  0.60378736  0.31479635  0.63923257  1
  O  O25  1  0.06387086  0.77659098  0.57029414  1
  O  O26  1  0.08150555  0.96170362  0.72244490  1
  O  O27  1  0.30290037  0.08209156  0.43504938  1
  O  O28  1  0.34223594  0.15743707  0.99528797  1
  O  O29  1  0.58150555  0.22244490  0.46170362  1
  O  O30  1  0.89621264  0.86076743  0.18520365  1
  O  O31  1  0.86076743  0.18520365  0.89621264  1
  O  O32  1  0.18520365  0.89621264  0.86076743  1
  O  O33  1  0.18444356  0.92559717  0.24228354  1
  O  O34  1  0.27755510  0.91849445  0.03829638  1
  O  O35  1  0.08209156  0.43504938  0.30290037  1
  O  O36  1  0.99528797  0.34223594  0.15743707  1
  O  O37  1  0.46170362  0.58150555  0.22244490  1
  O  O38  1  0.27659098  0.56387086  0.07029414  1
  O  O39  1  0.00471203  0.65776406  0.84256293  1
  O  O40  1  0.93504938  0.58209156  0.80290037  1
  O  O41  1  0.15743707  0.99528797  0.34223594  1
  O  O42  1  0.65776406  0.84256293  0.00471203  1
  O  O43  1  0.91790844  0.56495062  0.69709963  1
  O  O44  1  0.68444356  0.74228354  0.42559717  1
  O  O45  1  0.19709963  0.06495062  0.41790844  1
  O  O46  1  0.68520365  0.36076743  0.39621264  1
  O  O47  1  0.22340902  0.42970586  0.93612914  1
  O  O48  1  0.56387086  0.07029414  0.27659098  1
  O  O49  1  0.06495062  0.41790844  0.19709963  1
  O  O50  1  0.92970586  0.72340902  0.43612914  1
  O  O51  1  0.36076743  0.39621264  0.68520365  1
  O  O52  1  0.57029414  0.06387086  0.77659098  1
  O  O53  1  0.69709963  0.91790844  0.56495062  1
  O  O54  1  0.96170362  0.72244490  0.08150555  1
  O  O55  1  0.31479635  0.63923257  0.60378736  1
  O  O56  1  0.42970586  0.93612914  0.22340902  1
  O  O57  1  0.80290037  0.93504938  0.58209156  1
  O  O58  1  0.53829638  0.41849445  0.77755510  1
  O  O59  1  0.72340902  0.43612914  0.92970586  1
  O  O60  1  0.92559717  0.24228354  0.18444356  1
  O  O61  1  0.34256293  0.15776406  0.50471203  1
  O  O62  1  0.43612914  0.92970586  0.72340902  1
  O  O63  1  0.65743707  0.84223594  0.49528797  1
  O  O64  1  0.77659098  0.57029414  0.06387086  1
  O  O65  1  0.57440283  0.31555644  0.25771646  1
  O  O66  1  0.93612914  0.22340902  0.42970586  1
  O  O67  1  0.84223594  0.49528797  0.65743707  1
  O  O68  1  0.39621264  0.68520365  0.36076743  1
  O  O69  1  0.77755510  0.53829638  0.41849445  1
  O  O70  1  0.50471203  0.34256293  0.15776406  1
  O  O71  1  0.49528797  0.65743707  0.84223594  1
loop_
_geom_bond_atom_site_label_1
_geom_bond_atom_site_label_2
_geom_bond_distance
_geom_bond_site_symmetry_2
Nd0 O48 2.441961 1_555
Nd0 O38 2.441962 1_555
Nd0 O4 2.441962 1_555
Nd0 O2 2.499642 1_555
Nd0 O70 2.499642 1_555
Nd0 O61 2.499642 1_555
Nd0 O35 2.518580 1_555
Nd0 O27 2.518580 1_555
Nd0 O8 2.518580 1_555
Nd1 O56 2.441961 1_545
Nd1 O66 2.441962 1_455
Nd1 O47 2.441962 1_554
Nd1 O36 2.499642 1_455
Nd1 O41 2.499642 1_545
Nd1 O28 2.499642 1_554
Nd1 O49 2.518580 1_555
Nd1 O13 2.518580 1_555
Nd1 O45 2.518580 1_555
Nd2 O62 2.441961 1_555
Nd2 O59 2.441962 1_555
Nd2 O50 2.441962 1_555
Nd2 O67 2.499642 1_555
Nd2 O71 2.499642 1_555
Nd2 O63 2.499642 1_555
Nd2 O43 2.518580 1_555
Nd2 O53 2.518580 1_555
Nd2 O6 2.518580 1_555
Nd3 O52 2.441961 1_565
Nd3 O25 2.441962 1_655
Nd3 O64 2.441962 1_556
Nd3 O39 2.499642 1_655
Nd3 O0 2.499642 1_565
Nd3 O42 2.499642 1_556
Nd3 O40 2.518580 1_555
Nd3 O17 2.518580 1_555
Nd3 O57 2.518580 1_555
Mo0 O56 1.725626 1_555
Mo0 O42 1.729165 1_555
Mo0 O11 1.792699 1_555
Mo0 O18 1.805415 1_555
Mo1 O59 1.725626 1_554
Mo1 O70 1.729165 1_555
Mo1 O65 1.792699 1_555
Mo1 O5 1.805415 1_555
Mo2 O4 1.725626 1_655
Mo2 O67 1.729165 1_555
Mo2 O20 1.792698 1_555
Mo2 O31 1.805415 1_555
Mo3 O45 1.722366 1_565
Mo3 O27 1.722366 1_565
Mo3 O23 1.814102 1_555
Mo3 O26 1.814102 1_555
Mo4 O49 1.722366 1_655
Mo4 O35 1.722366 1_655
Mo4 O54 1.814102 1_555
Mo4 O69 1.814102 1_555
Mo5 O25 1.725626 1_555
Mo5 O41 1.729165 1_555
Mo5 O33 1.792699 1_555
Mo5 O68 1.805415 1_555
Mo6 O43 1.722366 1_455
Mo6 O40 1.722366 1_455
Mo6 O21 1.814102 1_555
Mo6 O10 1.814102 1_555
Mo7 O50 1.725626 1_455
Mo7 O2 1.729165 1_555
Mo7 O7 1.792698 1_555
Mo7 O19 1.805415 1_555
Mo8 O64 1.725626 1_555
Mo8 O36 1.729165 1_555
Mo8 O60 1.792698 1_555
Mo8 O46 1.805415 1_555
Mo9 O47 1.725626 1_555
Mo9 O39 1.729165 1_555
Mo9 O12 1.792698 1_555
Mo9 O55 1.805415 1_555
Mo10 O8 1.722366 1_556
Mo10 O13 1.722366 1_556
Mo10 O14 1.814102 1_555
Mo10 O58 1.814102 1_555
Mo11 O6 1.722366 1_554
Mo11 O17 1.722366 1_554
Mo11 O34 1.814102 1_555
Mo11 O37 1.814102 1_555
Mo12 O57 1.722366 1_545
Mo12 O53 1.722366 1_545
Mo12 O29 1.814102 1_555
Mo12 O16 1.814102 1_555
Mo13 O62 1.725626 1_545
Mo13 O61 1.729165 1_555
Mo13 O1 1.792699 1_555
Mo13 O9 1.805415 1_555
Mo14 O38 1.725626 1_556
Mo14 O71 1.729165 1_555
Mo14 O3 1.792699 1_555
Mo14 O32 1.805415 1_555
Mo15 O52 1.725626 1_555
Mo15 O28 1.729165 1_555
Mo15 O15 1.792699 1_555
Mo15 O51 1.805415 1_555
Mo16 O66 1.725626 1_555
Mo16 O0 1.729165 1_555
Mo16 O22 1.792699 1_555
Mo16 O24 1.805415 1_555
Mo17 O48 1.725626 1_565
Mo17 O63 1.729165 1_555
Mo17 O44 1.792699 1_555
Mo17 O30 1.805415 1_555
O1 Zr0 2.105803 1_555
O3 Zr2 2.105803 1_555
O5 Zr3 2.087767 1_655
O7 Zr0 2.105803 1_555
O9 Zr3 2.087767 1_556
O10 Zr1 2.069362 1_556
O11 Zr5 2.105803 1_554
O12 Zr5 2.105803 1_455
O14 Zr5 2.069362 1_545
O15 Zr1 2.105803 1_556
O16 Zr1 2.069362 1_655
O18 Zr4 2.087767 1_555
O19 Zr3 2.087767 1_565
O20 Zr2 2.105803 1_555
O21 Zr0 2.069362 1_555
O22 Zr5 2.105803 1_545
O23 Zr2 2.069362 1_555
O24 Zr4 2.087767 1_555
O26 Zr5 2.069362 1_455
O29 Zr0 2.069362 1_555
O30 Zr3 2.087767 1_665
O31 Zr3 2.087767 1_656
O32 Zr3 2.087767 1_566
O33 Zr1 2.105803 1_565
O34 Zr1 2.069362 1_565
O37 Zr0 2.069362 1_555
O44 Zr2 2.105803 1_555
O46 Zr4 2.087767 1_555
O51 Zr4 2.087767 1_555
O54 Zr5 2.069362 1_554
O55 Zr4 2.087767 1_555
O58 Zr2 2.069362 1_555
O60 Zr1 2.105803 1_655
O65 Zr0 2.105803 1_555
O68 Zr4 2.087767 1_555
O69 Zr2 2.069362 1_555
