# generated using pymatgen
data_YB4Mo
_symmetry_space_group_name_H-M   'P 1'
_cell_length_a   3.62331518
_cell_length_b   6.02756528
_cell_length_c   11.64192282
_cell_angle_alpha   90.00000000
_cell_angle_beta   90.00000000
_cell_angle_gamma   90.00000000
_symmetry_Int_Tables_number   1
_chemical_formula_structural   YB4Mo
_chemical_formula_sum   'Y4 B16 Mo4'
_cell_volume   254.25690251
_cell_formula_units_Z   4
loop_
 _symmetry_equiv_pos_site_id
 _symmetry_equiv_pos_as_xyz
  1  'x, y, z'
loop_
 _atom_site_type_symbol
 _atom_site_label
 _atom_site_symmetry_multiplicity
 _atom_site_fract_x
 _atom_site_fract_y
 _atom_site_fract_z
 _atom_site_occupancy
  Y  Y0  1  0.00000000  0.12734584  0.14962918  1
  Y  Y1  1  -0.00000000  0.87265416  0.85037082  1
  Y  Y2  1  -0.00000000  0.62734584  0.35037082  1
  Y  Y3  1  -0.00000000  0.37265416  0.64962918  1
  B  B0  1  0.50000000  0.02366453  0.69323952  1
  B  B1  1  0.50000000  0.97633547  0.30676048  1
  B  B2  1  0.50000000  0.52366453  0.80676048  1
  B  B3  1  0.50000000  0.47633547  0.19323952  1
  B  B4  1  0.50000000  0.11370029  0.54734914  1
  B  B5  1  0.50000000  0.88629971  0.45265086  1
  B  B6  1  0.50000000  0.61370029  0.95265086  1
  B  B7  1  0.50000000  0.38629971  0.04734914  1
  B  B8  1  0.50000000  0.28625575  0.31413547  1
  B  B9  1  0.50000000  0.71374425  0.68586453  1
  B  B10  1  0.50000000  0.78625575  0.18586453  1
  B  B11  1  0.50000000  0.21374425  0.81413547  1
  B  B12  1  0.50000000  0.36615963  0.46810759  1
  B  B13  1  0.50000000  0.63384037  0.53189241  1
  B  B14  1  0.50000000  0.86615963  0.03189241  1
  B  B15  1  0.50000000  0.13384037  0.96810759  1
  Mo  Mo0  1  -0.00000000  0.12876385  0.41699664  1
  Mo  Mo1  1  0.00000000  0.87123615  0.58300336  1
  Mo  Mo2  1  -0.00000000  0.62876385  0.08300336  1
  Mo  Mo3  1  0.00000000  0.37123615  0.91699664  1
loop_
_geom_bond_atom_site_label_1
_geom_bond_atom_site_label_2
_geom_bond_distance
_geom_bond_site_symmetry_2
B0 B4 1.783040 1_555
B0 B11 1.814832 1_555
B0 B9 1.870037 1_545
B0 Mo1 2.402761 1_645
B0 Mo1 2.402761 1_545
B0 Y1 2.730749 1_545
B0 Y1 2.730749 1_645
B0 Y3 2.822202 1_555
B0 Y3 2.822202 1_655
B1 B5 1.783040 1_555
B1 B10 1.814832 1_555
B1 B8 1.870037 1_565
B1 Mo0 2.402761 1_565
B1 Mo0 2.402761 1_665
B1 Y0 2.730749 1_665
B1 Y0 2.730749 1_565
B1 Y2 2.822202 1_555
B1 Y2 2.822202 1_655
B2 B6 1.783040 1_555
B2 B9 1.814832 1_555
B2 Mo3 2.402761 1_555
B2 Mo3 2.402761 1_655
B2 Y3 2.730749 1_555
B2 Y3 2.730749 1_655
B2 Y1 2.822202 1_555
B2 Y1 2.822202 1_655
B3 B7 1.783040 1_555
B3 B8 1.814832 1_555
B3 Mo2 2.402761 1_655
B3 Mo2 2.402761 1_555
B3 Y2 2.730749 1_555
B3 Y2 2.730749 1_655
B3 Y0 2.822202 1_655
B3 Y0 2.822202 1_555
B4 B5 1.759029 1_545
B4 Mo1 2.364379 1_545
B4 Mo1 2.364379 1_645
B4 Mo0 2.365019 1_655
B4 Mo0 2.365019 1_555
B4 Y3 2.671375 1_555
B4 Y3 2.671375 1_655
B5 Mo0 2.364379 1_665
B5 Mo0 2.364379 1_565
B5 Mo1 2.365019 1_555
B5 Mo1 2.365019 1_655
B5 Y2 2.671375 1_655
B5 Y2 2.671375 1_555
B6 B7 1.759029 1_556
B6 Mo3 2.364379 1_555
B6 Mo3 2.364379 1_655
B6 Mo2 2.365019 1_656
B6 Mo2 2.365019 1_556
B6 Y1 2.671375 1_555
B6 Y1 2.671375 1_655
B7 Mo2 2.364379 1_655
B7 Mo2 2.364379 1_555
B7 Mo3 2.365019 1_654
B7 Mo3 2.365019 1_554
B7 Y0 2.671375 1_555
B7 Y0 2.671375 1_655
B8 Mo0 2.370078 1_555
B8 Mo0 2.370078 1_655
B8 Y2 2.772537 1_555
B8 Y2 2.772537 1_655
B8 Y0 2.804895 1_655
B8 Y0 2.804895 1_555
B9 Mo1 2.370078 1_555
B9 Mo1 2.370078 1_655
B9 Y3 2.772537 1_555
B9 Y3 2.772537 1_655
B9 Y1 2.804895 1_555
B9 Y1 2.804895 1_655
B10 B14 1.856107 1_555
B10 B3 1.870037 1_555
B10 Mo2 2.370078 1_555
B10 Mo2 2.370078 1_655
B10 Y0 2.772537 1_565
B10 Y0 2.772537 1_665
B10 Y2 2.804895 1_655
B10 Y2 2.804895 1_555
B11 B15 1.856107 1_555
B11 B2 1.870037 1_555
B11 Mo3 2.370078 1_655
B11 Mo3 2.370078 1_555
B11 Y1 2.772537 1_645
B11 Y1 2.772537 1_545
B11 Y3 2.804895 1_555
B11 Y3 2.804895 1_655
B12 B13 1.776143 1_555
B12 B4 1.779513 1_555
B12 B8 1.856107 1_555
B12 Mo0 2.384049 1_555
B12 Mo0 2.384049 1_655
B12 Y2 2.763937 1_555
B12 Y2 2.763937 1_655
B12 Y3 2.783793 1_655
B12 Y3 2.783793 1_555
B13 B5 1.779513 1_555
B13 B9 1.856107 1_555
B13 Mo1 2.384049 1_655
B13 Mo1 2.384049 1_555
B13 Y3 2.763937 1_555
B13 Y3 2.763937 1_655
B13 Y2 2.783793 1_655
B13 Y2 2.783793 1_555
B14 B15 1.776143 1_564
B14 B6 1.779513 1_554
B14 Mo2 2.384049 1_655
B14 Mo2 2.384049 1_555
B14 Y0 2.763937 1_665
B14 Y0 2.763937 1_565
B14 Y1 2.783793 1_654
B14 Y1 2.783793 1_554
B15 B7 1.779513 1_556
B15 Mo3 2.384049 1_655
B15 Mo3 2.384049 1_555
B15 Y1 2.763937 1_645
B15 Y1 2.763937 1_545
B15 Y0 2.783793 1_556
B15 Y0 2.783793 1_656
Mo0 Mo1 2.478833 1_545
Mo0 Y3 3.081546 1_555
Mo0 Y2 3.103720 1_555
Mo0 Y0 3.112683 1_555
Mo0 Y2 3.120275 1_545
Mo1 Y2 3.081546 1_555
Mo1 Y3 3.103720 1_555
Mo1 Y1 3.112683 1_555
Mo1 Y3 3.120275 1_565
Mo2 Mo3 2.478833 1_554
Mo2 Y1 3.081546 1_554
Mo2 Y0 3.103720 1_565
Mo2 Y2 3.112683 1_555
Mo2 Y0 3.120275 1_555
Mo3 Y0 3.081546 1_556
Mo3 Y1 3.103720 1_545
Mo3 Y3 3.112683 1_555
Mo3 Y1 3.120275 1_555
