# generated using pymatgen
data_Li5Fe8(BO3)8
_symmetry_space_group_name_H-M   'P 1'
_cell_length_a   5.27622300
_cell_length_b   9.08401282
_cell_length_c   11.37150746
_cell_angle_alpha   113.17468936
_cell_angle_beta   102.45657138
_cell_angle_gamma   90.05904914
_symmetry_Int_Tables_number   1
_chemical_formula_structural   Li5Fe8(BO3)8
_chemical_formula_sum   'Li5 Fe8 B8 O24'
_cell_volume   487.00855383
_cell_formula_units_Z   1
loop_
 _symmetry_equiv_pos_site_id
 _symmetry_equiv_pos_as_xyz
  1  'x, y, z'
loop_
 _atom_site_type_symbol
 _atom_site_label
 _atom_site_symmetry_multiplicity
 _atom_site_fract_x
 _atom_site_fract_y
 _atom_site_fract_z
 _atom_site_occupancy
  Li  Li0  1  0.17140300  0.83587900  0.65876800  1
  Li  Li1  1  0.61146600  0.94816700  0.90320900  1
  Li  Li2  1  0.92239800  0.56911000  0.16097200  1
  Li  Li3  1  0.11074000  0.44791600  0.89733600  1
  Li  Li4  1  0.42385200  0.07144600  0.16523300  1
  Fe  Fe0  1  0.40285800  0.72090600  0.13064800  1
  Fe  Fe1  1  0.09145500  0.76924000  0.87986000  1
  Fe  Fe2  1  0.84225900  0.85981000  0.37987600  1
  Fe  Fe3  1  0.65272900  0.64609700  0.62745100  1
  Fe  Fe4  1  0.34796400  0.36066900  0.38335700  1
  Fe  Fe5  1  0.15401900  0.15791000  0.63310200  1
  Fe  Fe6  1  0.90659600  0.22174400  0.12837100  1
  Fe  Fe7  1  0.60629400  0.28155700  0.87800800  1
  B  B0  1  0.63872800  0.98260300  0.62922000  1
  B  B1  1  0.90045400  0.89669600  0.12922700  1
  B  B2  1  0.14998500  0.48452100  0.62894600  1
  B  B3  1  0.40166000  0.39223000  0.12698900  1
  B  B4  1  0.84850800  0.51831500  0.37319700  1
  B  B5  1  0.60750300  0.60962200  0.88384800  1
  B  B6  1  0.34615100  0.02158900  0.37925600  1
  B  B7  1  0.09924200  0.10247400  0.87215200  1
  O  O0  1  0.14177100  0.88233900  0.09771200  1
  O  O1  1  0.47251000  0.88129000  0.34563600  1
  O  O2  1  0.23430400  0.97055600  0.86212000  1
  O  O3  1  0.52222300  0.85382500  0.63528000  1
  O  O4  1  0.88219200  0.97250100  0.59013600  1
  O  O5  1  0.81207600  0.79073300  0.17877900  1
  O  O6  1  0.24749300  0.51023000  0.11289500  1
  O  O7  1  0.05175600  0.63437900  0.66677200  1
  O  O8  1  0.69935500  0.72459700  0.84565000  1
  O  O9  1  0.62458400  0.52054100  0.41712300  1
  O  O10  1  0.94255400  0.65322800  0.36163800  1
  O  O11  1  0.36874300  0.62697900  0.92087200  1
  O  O12  1  0.64175800  0.37989800  0.09351600  1
  O  O13  1  0.36513000  0.46414600  0.57430600  1
  O  O14  1  0.31146700  0.28144300  0.17001800  1
  O  O15  1  0.97795900  0.38028200  0.33696000  1
  O  O16  1  0.75306300  0.48761100  0.88951200  1
  O  O17  1  0.19494600  0.21937900  0.83453800  1
  O  O18  1  0.12616200  0.02773800  0.43193300  1
  O  O19  1  0.43002800  0.14694100  0.35618900  1
  O  O20  1  0.04502300  0.35989600  0.64867100  1
  O  O21  1  0.74318700  0.01034500  0.11001100  1
  O  O22  1  0.52786900  0.12835100  0.66289400  1
  O  O23  1  0.86812700  0.12284600  0.91377200  1
loop_
_geom_bond_atom_site_label_1
_geom_bond_atom_site_label_2
_geom_bond_distance
_geom_bond_site_symmetry_2
Li0 O3 1.941922 1_555
Li0 O7 1.977576 1_555
Li0 O2 2.096566 1_555
Li0 O4 2.174940 1_455
Li1 O8 1.963335 1_555
Li1 O2 1.973386 1_555
Li1 O23 2.035082 1_565
Li1 O21 2.140322 1_566
Li2 O6 1.924427 1_655
Li2 O5 2.040908 1_555
Li2 O12 2.049943 1_555
Li2 O10 2.079645 1_555
Li3 O16 1.911445 1_455
Li3 O17 1.997294 1_555
Li3 O11 2.016481 1_555
Li3 O6 2.234645 1_556
Li3 O20 2.559753 1_555
Li4 O21 1.930095 1_555
Li4 O14 1.981949 1_555
Li4 O19 1.995982 1_555
Li4 O0 2.054083 1_545
Fe0 O6 1.999146 1_555
Fe0 O0 2.098168 1_555
Fe0 O5 2.139594 1_555
Fe0 O11 2.159478 1_554
Fe0 O1 2.245518 1_555
Fe1 O8 2.030435 1_455
Fe1 O11 2.052295 1_555
Fe1 O2 2.075146 1_555
Fe1 O7 2.204616 1_555
Fe1 O0 2.230594 1_556
Fe2 O10 1.894126 1_555
Fe2 O1 1.930931 1_555
Fe2 O18 1.955320 1_665
Fe2 O5 2.088479 1_555
Fe2 O4 2.159831 1_555
Fe3 O3 1.984880 1_555
Fe3 O13 2.052502 1_555
Fe3 O7 2.067751 1_655
Fe3 O9 2.177781 1_555
Fe3 O8 2.251516 1_555
Fe4 O19 1.907805 1_555
Fe4 O9 1.923977 1_555
Fe4 O15 1.936922 1_455
Fe4 O13 1.978681 1_555
Fe4 O14 2.205545 1_555
Fe5 O20 1.875937 1_555
Fe5 O22 1.965222 1_555
Fe5 O4 2.043884 1_445
Fe5 O18 2.092484 1_555
Fe5 O17 2.094056 1_555
Fe6 O21 2.019422 1_555
Fe6 O12 2.094538 1_555
Fe6 O14 2.107302 1_655
Fe6 O15 2.183352 1_555
Fe6 O23 2.205412 1_554
Fe7 O16 1.970024 1_555
Fe7 O23 2.091823 1_555
Fe7 O17 2.142137 1_555
Fe7 O12 2.217541 1_556
Fe7 O22 2.230363 1_555
B0 O3 1.353268 1_555
B0 O22 1.393148 1_565
B0 O4 1.438926 1_555
B1 O21 1.379567 1_565
B1 O0 1.388160 1_655
B1 O5 1.414501 1_555
B2 O20 1.375066 1_555
B2 O13 1.386753 1_555
B2 O7 1.394115 1_555
B3 O6 1.384597 1_555
B3 O12 1.391760 1_555
B3 O14 1.402050 1_555
B4 O9 1.375675 1_555
B4 O10 1.385334 1_555
B4 O15 1.387467 1_555
B5 O16 1.363460 1_555
B5 O8 1.400438 1_555
B5 O11 1.402161 1_555
B6 O19 1.358464 1_555
B6 O1 1.393970 1_545
B6 O18 1.408167 1_555
B7 O2 1.373354 1_545
B7 O23 1.387701 1_455
B7 O17 1.419608 1_555
