# generated using pymatgen
data_SbH3SO6
_symmetry_space_group_name_H-M   'P 1'
_cell_length_a   13.52425600
_cell_length_b   6.10886800
_cell_length_c   6.82150577
_cell_angle_alpha   62.09877328
_cell_angle_beta   90.00000000
_cell_angle_gamma   90.00000000
_symmetry_Int_Tables_number   1
_chemical_formula_structural   SbH3SO6
_chemical_formula_sum   'Sb4 H12 S4 O24'
_cell_volume   498.06561340
_cell_formula_units_Z   4
loop_
 _symmetry_equiv_pos_site_id
 _symmetry_equiv_pos_as_xyz
  1  'x, y, z'
loop_
 _atom_site_type_symbol
 _atom_site_label
 _atom_site_symmetry_multiplicity
 _atom_site_fract_x
 _atom_site_fract_y
 _atom_site_fract_z
 _atom_site_occupancy
  Sb  Sb0  1  0.38642500  0.94829200  0.40200400  1
  Sb  Sb1  1  0.88642500  0.05170800  0.09799600  1
  Sb  Sb2  1  0.61357500  0.05170800  0.59799600  1
  Sb  Sb3  1  0.11357500  0.94829200  0.90200400  1
  H  H0  1  0.57204200  0.77225400  0.37195200  1
  H  H1  1  0.07204200  0.22774600  0.12804800  1
  H  H2  1  0.42795800  0.22774600  0.62804900  1
  H  H3  1  0.92795800  0.77225400  0.87195100  1
  H  H4  1  0.47205300  0.67936200  0.18833500  1
  H  H5  1  0.97205300  0.32063800  0.31166500  1
  H  H6  1  0.52794700  0.32063800  0.81166500  1
  H  H7  1  0.02794700  0.67936200  0.68833500  1
  H  H8  1  0.36458100  0.74051700  0.07762000  1
  H  H9  1  0.86458100  0.25948300  0.42238000  1
  H  H10  1  0.63541900  0.25948300  0.92238000  1
  H  H11  1  0.13541900  0.74051700  0.57762000  1
  S  S0  1  0.84089900  0.59954900  0.57573300  1
  S  S1  1  0.34089900  0.40045100  0.92426700  1
  S  S2  1  0.15910100  0.40045100  0.42426700  1
  S  S3  1  0.65910100  0.59954900  0.07573300  1
  O  O0  1  0.91421200  0.70706800  0.37598500  1
  O  O1  1  0.41421200  0.29293200  0.12401500  1
  O  O2  1  0.08578800  0.29293200  0.62401500  1
  O  O3  1  0.58578800  0.70706800  0.87598500  1
  O  O4  1  0.76042100  0.77772600  0.52582000  1
  O  O5  1  0.26042100  0.22227400  0.97418000  1
  O  O6  1  0.23957900  0.22227400  0.47418000  1
  O  O7  1  0.73957900  0.77772600  0.02582000  1
  O  O8  1  0.90035600  0.56482700  0.77416700  1
  O  O9  1  0.40035600  0.43517300  0.72583300  1
  O  O10  1  0.09964400  0.43517300  0.22583300  1
  O  O11  1  0.59964400  0.56482700  0.27416700  1
  O  O12  1  0.80904100  0.35601300  0.60309600  1
  O  O13  1  0.30904100  0.64398700  0.89690400  1
  O  O14  1  0.19095900  0.64398700  0.39690400  1
  O  O15  1  0.69095900  0.35601300  0.10309600  1
  O  O16  1  0.53801400  0.87622800  0.42861700  1
  O  O17  1  0.03801400  0.12377200  0.07138300  1
  O  O18  1  0.46198600  0.12377200  0.57138300  1
  O  O19  1  0.96198600  0.87622800  0.92861700  1
  O  O20  1  0.41232500  0.78131200  0.16659000  1
  O  O21  1  0.91232500  0.21868800  0.33341000  1
  O  O22  1  0.58767500  0.21868800  0.83341000  1
  O  O23  1  0.08767500  0.78131200  0.66659000  1
loop_
_geom_bond_atom_site_label_1
_geom_bond_atom_site_label_2
_geom_bond_distance
_geom_bond_site_symmetry_2
H0 O16 0.997202 1_555
H1 O17 0.997202 1_555
H2 O18 0.997207 1_555
H3 O19 0.997207 1_555
H4 O20 0.987889 1_555
H5 O21 0.987889 1_555
H6 O22 0.987889 1_555
H7 O23 0.987889 1_555
H8 O20 0.994449 1_555
H9 O21 0.994449 1_555
H10 O22 0.994449 1_555
H11 O23 0.994449 1_555
O0 S0 1.559975 1_555
O0 Sb1 2.105530 1_565
O1 S1 1.559975 1_554
O1 Sb0 2.105530 1_545
O2 S2 1.559975 1_555
O2 Sb3 2.105530 1_545
O3 S3 1.559975 1_556
O3 Sb2 2.105530 1_565
O4 S0 1.462345 1_555
O5 S1 1.462345 1_555
O6 S2 1.462345 1_555
O7 S3 1.462345 1_555
O8 S0 1.501718 1_555
O9 S1 1.501718 1_555
O10 S2 1.501718 1_555
O11 S3 1.501718 1_555
O12 S0 1.474423 1_555
O13 S1 1.474423 1_555
O14 S2 1.474423 1_555
O15 S3 1.474423 1_555
O16 Sb0 2.086861 1_555
O16 Sb2 2.165094 1_565
O17 Sb1 2.086861 1_455
O17 Sb3 2.165094 1_544
O18 Sb2 2.086861 1_555
O18 Sb0 2.165094 1_545
O19 Sb3 2.086861 1_655
O19 Sb1 2.165094 1_566
O20 Sb0 2.296768 1_555
O21 Sb1 2.296768 1_555
O22 Sb2 2.296768 1_555
O23 Sb3 2.296768 1_555
