# generated using pymatgen
data_Ca5Gd3Ti5Mn3O24
_symmetry_space_group_name_H-M   'P 1'
_cell_length_a   5.41523900
_cell_length_b   5.64092197
_cell_length_c   15.29679791
_cell_angle_alpha   90.12263836
_cell_angle_beta   90.09280867
_cell_angle_gamma   90.85425945
_symmetry_Int_Tables_number   1
_chemical_formula_structural   Ca5Gd3Ti5Mn3O24
_chemical_formula_sum   'Ca5 Gd3 Ti5 Mn3 O24'
_cell_volume   467.21673460
_cell_formula_units_Z   1
loop_
 _symmetry_equiv_pos_site_id
 _symmetry_equiv_pos_as_xyz
  1  'x, y, z'
loop_
 _atom_site_type_symbol
 _atom_site_label
 _atom_site_symmetry_multiplicity
 _atom_site_fract_x
 _atom_site_fract_y
 _atom_site_fract_z
 _atom_site_occupancy
  Ca  Ca0  1  0.01340700  0.04952600  0.62398600  1
  Ca  Ca1  1  0.01365300  0.05740300  0.12722000  1
  Ca  Ca2  1  0.49429800  0.55196500  0.62321400  1
  Ca  Ca3  1  0.50989600  0.45294300  0.87195300  1
  Ca  Ca4  1  0.99280200  0.95697600  0.87176400  1
  Gd  Gd0  1  0.48659900  0.56718600  0.12846100  1
  Gd  Gd1  1  0.51306200  0.43112200  0.37488900  1
  Gd  Gd2  1  0.98029600  0.93145100  0.37491600  1
  Ti  Ti0  1  0.98955900  0.51888600  0.99992500  1
  Ti  Ti1  1  0.01810200  0.49968000  0.74846800  1
  Ti  Ti2  1  0.00666600  0.49739300  0.50273600  1
  Ti  Ti3  1  0.51663300  0.99112500  0.75032800  1
  Ti  Ti4  1  0.50362700  0.02488600  0.00066200  1
  Mn  Mn0  1  0.00161700  0.49506900  0.24957600  1
  Mn  Mn1  1  0.49732700  0.00024100  0.25018100  1
  Mn  Mn2  1  0.49546000  0.99511400  0.50117400  1
  O  O0  1  0.07912600  0.52394800  0.87541800  1
  O  O1  1  0.09940200  0.52611400  0.37541200  1
  O  O2  1  0.19294900  0.79783800  0.52170800  1
  O  O3  1  0.21087600  0.78204200  0.02474300  1
  O  O4  1  0.20245700  0.79035700  0.72878000  1
  O  O5  1  0.21406700  0.81398900  0.22449200  1
  O  O6  1  0.28946000  0.31527200  0.52129800  1
  O  O7  1  0.28434000  0.29748200  0.72942900  1
  O  O8  1  0.29646500  0.32072900  0.22719600  1
  O  O9  1  0.30366100  0.29134300  0.02444100  1
  O  O10  1  0.41626900  0.02172100  0.87561800  1
  O  O11  1  0.39404200  0.02503600  0.37877000  1
  O  O12  1  0.58020200  0.97559400  0.62527200  1
  O  O13  1  0.59310700  0.97066900  0.12171200  1
  O  O14  1  0.70869900  0.70005300  0.97972300  1
  O  O15  1  0.70405400  0.71787000  0.77198300  1
  O  O16  1  0.71072900  0.67939400  0.27383700  1
  O  O17  1  0.71385000  0.68721400  0.47104900  1
  O  O18  1  0.78289700  0.21278000  0.77193800  1
  O  O19  1  0.78464600  0.18198000  0.27921300  1
  O  O20  1  0.79424100  0.20426600  0.97657700  1
  O  O21  1  0.79519400  0.19994200  0.47376700  1
  O  O22  1  0.91233300  0.47355700  0.62562200  1
  O  O23  1  0.90392900  0.46984400  0.12254600  1
loop_
_geom_bond_atom_site_label_1
_geom_bond_atom_site_label_2
_geom_bond_distance
_geom_bond_site_symmetry_2
Ca0 O2 2.333519 1_545
Ca0 O12 2.376681 1_445
Ca0 O4 2.409225 1_545
Ca0 O22 2.461776 1_455
Ca0 O7 2.575268 1_555
Ca0 O6 2.626811 1_555
Ca0 O21 2.725057 1_455
Ca0 O18 2.750050 1_455
Ca1 O5 2.307628 1_545
Ca1 O13 2.323533 1_445
Ca1 O23 2.410971 1_455
Ca1 O3 2.460711 1_545
Ca1 O9 2.575783 1_555
Ca1 O8 2.608744 1_555
Ca1 O20 2.727044 1_454
Ca1 O19 2.732349 1_455
Ca2 O22 2.313275 1_555
Ca2 O6 2.320532 1_555
Ca2 O12 2.427827 1_555
Ca2 O7 2.441420 1_555
Ca2 O4 2.641207 1_555
Ca2 O2 2.658210 1_555
Ca2 O15 2.701041 1_555
Ca2 O17 2.720850 1_555
Ca3 O0 2.373394 1_555
Ca3 O15 2.376016 1_555
Ca3 O14 2.399868 1_555
Ca3 O10 2.478127 1_555
Ca3 O18 2.533710 1_555
Ca3 O7 2.639185 1_555
Ca3 O20 2.639334 1_555
Ca3 O9 2.739770 1_556
Ca4 O10 2.317328 1_665
Ca4 O20 2.390263 1_565
Ca4 O18 2.399733 1_565
Ca4 O0 2.494568 1_655
Ca4 O15 2.552337 1_555
Ca4 O4 2.643342 1_655
Ca4 O14 2.673305 1_555
Ca4 O3 2.807139 1_656
Gd0 O8 2.290270 1_555
Gd0 O23 2.335484 1_555
Gd0 O13 2.342141 1_555
Gd0 O9 2.423369 1_555
Gd0 O3 2.503986 1_555
Gd0 O5 2.516679 1_555
Gd0 O16 2.604092 1_555
Gd0 O14 2.678465 1_554
Gd1 O1 2.311044 1_555
Gd1 O17 2.317684 1_555
Gd1 O16 2.338050 1_555
Gd1 O11 2.371269 1_555
Gd1 O19 2.517895 1_555
Gd1 O21 2.526436 1_555
Gd1 O8 2.613669 1_555
Gd1 O6 2.626872 1_555
Gd2 O11 2.294846 1_665
Gd2 O19 2.304631 1_565
Gd2 O21 2.371793 1_565
Gd2 O1 2.384966 1_655
Gd2 O17 2.469557 1_555
Gd2 O16 2.542561 1_555
Gd2 O2 2.638362 1_655
Gd2 O5 2.713696 1_655
Mn0 O8 1.918557 1_555
Mn0 O16 1.936300 1_455
Mn0 O1 2.002187 1_555
Mn0 O23 2.017220 1_455
Mn0 O19 2.156028 1_455
Mn0 O5 2.156360 1_555
Mn1 O5 1.886633 1_545
Mn1 O19 1.901916 1_555
Mn1 O13 2.040391 1_545
Mn1 O11 2.050903 1_555
Mn1 O8 2.152946 1_555
Mn1 O16 2.192228 1_545
Mn2 O12 1.955976 1_555
Mn2 O11 1.958760 1_565
Mn2 O2 1.992343 1_555
Mn2 O21 2.023281 1_565
Mn2 O6 2.158606 1_565
Mn2 O17 2.164988 1_555
O0 Ti0 1.966271 1_455
O0 Ti1 1.973440 1_555
O1 Ti2 2.018384 1_555
O2 Ti2 1.979925 1_555
O3 Ti0 1.930576 1_454
O3 Ti4 2.112994 1_565
O4 Ti1 1.931373 1_555
O4 Ti3 2.055462 1_555
O6 Ti2 1.878286 1_555
O7 Ti1 1.874391 1_555
O7 Ti3 2.176443 1_545
O9 Ti4 1.900413 1_555
O9 Ti0 2.178629 1_454
O10 Ti4 1.969639 1_556
O10 Ti3 2.000760 1_545
O12 Ti3 1.946251 1_555
O13 Ti4 1.939323 1_565
O14 Ti0 1.870632 1_555
O14 Ti4 2.180065 1_566
O15 Ti3 1.887723 1_555
O15 Ti1 2.144512 1_655
O17 Ti2 1.986501 1_655
O18 Ti3 1.922128 1_545
O18 Ti1 2.076738 1_655
O20 Ti4 1.895330 1_556
O20 Ti0 2.082328 1_555
O21 Ti2 2.064220 1_655
O22 Ti2 1.953121 1_655
O22 Ti1 1.968195 1_655
O23 Ti0 1.952192 1_554
