# generated using pymatgen
data_Li2Mn4O7F
_symmetry_space_group_name_H-M   'P 1'
_cell_length_a   5.91002021
_cell_length_b   5.91002021
_cell_length_c   5.97419857
_cell_angle_alpha   60.23749361
_cell_angle_beta   60.23749361
_cell_angle_gamma   62.19593740
_symmetry_Int_Tables_number   1
_chemical_formula_structural   Li2Mn4O7F
_chemical_formula_sum   'Li2 Mn4 O7 F1'
_cell_volume   150.39668409
_cell_formula_units_Z   1
loop_
 _symmetry_equiv_pos_site_id
 _symmetry_equiv_pos_as_xyz
  1  'x, y, z'
loop_
 _atom_site_type_symbol
 _atom_site_label
 _atom_site_symmetry_multiplicity
 _atom_site_fract_x
 _atom_site_fract_y
 _atom_site_fract_z
 _atom_site_occupancy
  Li  Li0  1  0.88424100  0.88424100  0.36210600  1
  Li  Li1  1  0.49893000  0.49893000  0.49840800  1
  Mn  Mn0  1  0.11401800  0.11401800  0.63844700  1
  Mn  Mn1  1  0.00364300  0.49195600  0.99108100  1
  Mn  Mn2  1  0.49195600  0.00364300  0.99108100  1
  Mn  Mn3  1  0.50102200  0.50102200  0.00503400  1
  O  O0  1  0.29440500  0.74228400  0.21279500  1
  O  O1  1  0.74228400  0.29440500  0.21279500  1
  O  O2  1  0.74114000  0.74114000  0.78649000  1
  O  O3  1  0.25236100  0.25236100  0.77245700  1
  O  O4  1  0.25981100  0.25981100  0.22026000  1
  O  O5  1  0.70662800  0.25670900  0.78498600  1
  O  O6  1  0.25670900  0.70662800  0.78498600  1
  F  F0  1  0.74696300  0.74696300  0.23904600  1
loop_
_geom_bond_atom_site_label_1
_geom_bond_atom_site_label_2
_geom_bond_distance
_geom_bond_site_symmetry_2
Li0 O0 2.018582 1_655
Li0 O1 2.018582 1_565
Li0 O2 2.065957 1_555
Li1 O3 2.042359 1_555
Li1 O1 2.104877 1_555
Li1 O0 2.104877 1_555
Li1 O6 2.121588 1_555
Li1 O5 2.121588 1_555
Mn0 O3 1.975175 1_555
Mn0 O6 2.005157 1_545
Mn0 O5 2.005157 1_455
Mn0 O4 2.035863 1_555
Mn1 O1 1.902441 1_456
Mn1 O6 1.937415 1_555
Mn1 O3 1.964688 1_555
Mn1 O2 2.008402 1_455
Mn1 O4 2.074669 1_556
Mn2 O0 1.902441 1_546
Mn2 O5 1.937415 1_555
Mn2 O3 1.964688 1_555
Mn2 O2 2.008402 1_545
Mn2 O4 2.074669 1_556
Mn3 O0 1.921665 1_555
Mn3 O1 1.921665 1_555
Mn3 O2 1.982948 1_554
Mn3 O6 1.987802 1_554
Mn3 O5 1.987802 1_554
Mn3 O4 1.993482 1_555
F0 Li0 1.911907 1_555
F0 Li1 2.047697 1_555
F0 Mn2 2.149356 1_564
F0 Mn1 2.149356 1_654
