# generated using pymatgen
data_V2O3F
_symmetry_space_group_name_H-M   'P 1'
_cell_length_a   5.44173833
_cell_length_b   5.44173833
_cell_length_c   8.75514531
_cell_angle_alpha   86.18201260
_cell_angle_beta   86.18201260
_cell_angle_gamma   72.71064420
_symmetry_Int_Tables_number   1
_chemical_formula_structural   V2O3F
_chemical_formula_sum   'V8 O12 F4'
_cell_volume   246.69982618
_cell_formula_units_Z   4
loop_
 _symmetry_equiv_pos_site_id
 _symmetry_equiv_pos_as_xyz
  1  'x, y, z'
loop_
 _atom_site_type_symbol
 _atom_site_label
 _atom_site_symmetry_multiplicity
 _atom_site_fract_x
 _atom_site_fract_y
 _atom_site_fract_z
 _atom_site_occupancy
  V  V0  1  0.86071835  0.86071835  0.64936450  1
  V  V1  1  0.13928165  0.13928165  0.35063550  1
  V  V2  1  0.50000000  0.50000000  0.50000000  1
  V  V3  1  0.75454088  0.75454088  0.27008182  1
  V  V4  1  0.00000000  -0.00000000  -0.00000000  1
  V  V5  1  0.39561406  0.39561406  0.13079149  1
  V  V6  1  0.60438594  0.60438594  0.86920851  1
  V  V7  1  0.24545912  0.24545912  0.72991818  1
  O  O0  1  0.05659585  0.45554211  0.24207175  1
  O  O1  1  0.47064024  0.47064024  0.72128261  1
  O  O2  1  0.97447683  0.97447683  0.22839672  1
  O  O3  1  0.73037874  0.73037874  0.48217362  1
  O  O4  1  0.26962126  0.26962126  0.51782638  1
  O  O5  1  0.02552317  0.02552317  0.77160328  1
  O  O6  1  0.52935976  0.52935976  0.27871739  1
  O  O7  1  0.45554211  0.05659585  0.24207175  1
  O  O8  1  0.94340415  0.54445789  0.75792825  1
  O  O9  1  0.70309868  0.29690132  -0.00000000  1
  O  O10  1  0.54445789  0.94340415  0.75792825  1
  O  O11  1  0.29690132  0.70309868  -0.00000000  1
  F  F0  1  0.19227882  0.80772118  0.50000000  1
  F  F1  1  0.80772118  0.19227882  0.50000000  1
  F  F2  1  0.22991284  0.22991284  0.97064920  1
  F  F3  1  0.77008716  0.77008716  0.02935080  1
loop_
_geom_bond_atom_site_label_1
_geom_bond_atom_site_label_2
_geom_bond_distance
_geom_bond_site_symmetry_2
O0 V1 1.856497 1_555
O0 V3 1.954241 1_455
O0 V5 1.975947 1_555
O1 V6 1.817317 1_555
O1 V2 1.933171 1_555
O1 V7 1.968921 1_555
O2 V1 1.867529 1_665
O2 V3 1.932122 1_555
O2 V4 1.993655 1_665
O3 V3 1.851453 1_555
O3 V0 1.929856 1_555
O3 V2 2.012403 1_555
O4 V7 1.851453 1_555
O4 V1 1.929856 1_555
O4 V2 2.012403 1_555
O5 V0 1.867529 1_445
O5 V7 1.932122 1_555
O5 V4 1.993655 1_556
O6 V5 1.817317 1_555
O6 V2 1.933171 1_555
O6 V3 1.968921 1_555
O7 V1 1.856497 1_555
O7 V3 1.954241 1_545
O7 V5 1.975947 1_555
O8 V0 1.856497 1_555
O8 V7 1.954241 1_655
O8 V6 1.975947 1_555
O9 V4 1.915497 1_655
O9 V5 1.921475 1_555
O9 V6 1.921475 1_554
O10 V0 1.856497 1_555
O10 V7 1.954241 1_565
O10 V6 1.975947 1_555
O11 V4 1.915497 1_565
O11 V5 1.921475 1_555
O11 V6 1.921475 1_554
F0 V2 1.985303 1_555
F0 V1 2.115505 1_565
F0 V0 2.115505 1_455
F1 V2 1.985303 1_555
F1 V0 2.115505 1_545
F1 V1 2.115505 1_655
F2 V4 2.010335 1_556
F2 V5 2.100464 1_556
F2 V7 2.100762 1_555
F3 V4 2.010335 1_665
F3 V6 2.100464 1_554
F3 V3 2.100762 1_555
