# generated using pymatgen
data_TaCrO4
_symmetry_space_group_name_H-M   'P 1'
_cell_length_a   5.54811512
_cell_length_b   5.54810445
_cell_length_c   5.54799587
_cell_angle_alpha   72.83736326
_cell_angle_beta   107.16276255
_cell_angle_gamma   65.80513669
_symmetry_Int_Tables_number   1
_chemical_formula_structural   TaCrO4
_chemical_formula_sum   'Ta2 Cr2 O8'
_cell_volume   130.78614046
_cell_formula_units_Z   2
loop_
 _symmetry_equiv_pos_site_id
 _symmetry_equiv_pos_as_xyz
  1  'x, y, z'
loop_
 _atom_site_type_symbol
 _atom_site_label
 _atom_site_symmetry_multiplicity
 _atom_site_fract_x
 _atom_site_fract_y
 _atom_site_fract_z
 _atom_site_occupancy
  Ta  Ta0  1  0.26046119  0.23953576  0.50001000  1
  Ta  Ta1  1  0.01047784  0.98952781  0.00001072  1
  Cr  Cr0  1  0.75022253  0.74978169  0.49999861  1
  Cr  Cr1  1  0.50025092  0.49974522  -0.00000221  1
  O  O0  1  0.55383615  0.25047179  0.80428086  1
  O  O1  1  0.04635054  0.75490511  0.80121386  1
  O  O2  1  0.99954199  0.30477155  0.69571340  1
  O  O3  1  0.49512740  0.80611532  0.69878062  1
  O  O4  1  0.99951694  0.69617199  0.30428258  1
  O  O5  1  0.49508718  0.20365658  0.30121503  1
  O  O6  1  0.94523829  0.25045089  0.19571356  1
  O  O7  1  0.44389305  0.75486329  0.19878297  1
loop_
_geom_bond_atom_site_label_1
_geom_bond_atom_site_label_2
_geom_bond_distance
_geom_bond_site_symmetry_2
Cr0 O2 1.979953 1_555
Cr0 O4 1.979960 1_555
Cr0 O7 1.984615 1_555
Cr0 O1 1.984626 1_655
Cr0 O5 2.019648 1_565
Cr0 O3 2.019660 1_555
Cr1 O6 1.979851 1_555
Cr1 O0 1.979864 1_554
Cr1 O3 1.984621 1_554
Cr1 O5 1.984641 1_555
Cr1 O1 2.019767 1_554
Cr1 O7 2.019776 1_555
O0 Ta0 2.005609 1_555
O0 Ta1 2.033674 1_646
O1 Ta1 1.927433 1_556
O2 Ta1 2.005692 1_646
O2 Ta0 2.033597 1_655
O3 Ta0 1.927434 1_565
O4 Ta1 2.005637 1_655
O4 Ta0 2.033648 1_655
O5 Ta0 1.927442 1_555
O6 Ta0 2.005684 1_655
O6 Ta1 2.033610 1_645
O7 Ta1 1.927414 1_555
