# generated using pymatgen
data_LiMnAlO4
_symmetry_space_group_name_H-M   'P 1'
_cell_length_a   2.87132800
_cell_length_b   10.08687700
_cell_length_c   9.35444400
_cell_angle_alpha   90.00162210
_cell_angle_beta   89.99915833
_cell_angle_gamma   90.00007400
_symmetry_Int_Tables_number   1
_chemical_formula_structural   LiMnAlO4
_chemical_formula_sum   'Li4 Mn4 Al4 O16'
_cell_volume   270.93025790
_cell_formula_units_Z   4
loop_
 _symmetry_equiv_pos_site_id
 _symmetry_equiv_pos_as_xyz
  1  'x, y, z'
loop_
 _atom_site_type_symbol
 _atom_site_label
 _atom_site_symmetry_multiplicity
 _atom_site_fract_x
 _atom_site_fract_y
 _atom_site_fract_z
 _atom_site_occupancy
  Li  Li0  1  0.24999000  0.62308000  0.07446800  1
  Li  Li1  1  0.74997400  0.12302000  0.42559300  1
  Li  Li2  1  0.24995500  0.87692700  0.57446000  1
  Li  Li3  1  0.74997600  0.37698800  0.92557300  1
  Mn  Mn0  1  0.24999600  0.84767300  0.27291300  1
  Mn  Mn1  1  0.24991000  0.65235900  0.77291000  1
  Mn  Mn2  1  0.75002000  0.34768300  0.22706600  1
  Mn  Mn3  1  0.75003100  0.15227400  0.72710100  1
  Al  Al0  1  0.25003000  0.12639800  0.00331200  1
  Al  Al1  1  0.74998100  0.62637200  0.49668100  1
  Al  Al2  1  0.25001900  0.37358800  0.50329200  1
  Al  Al3  1  0.74999500  0.87363200  0.99668900  1
  O  O0  1  0.25001100  0.96272500  0.10356400  1
  O  O1  1  0.75001300  0.46267000  0.39645900  1
  O  O2  1  0.24997600  0.53725300  0.60354400  1
  O  O3  1  0.75003800  0.03734900  0.89645900  1
  O  O4  1  0.25004100  0.43573900  0.13140800  1
  O  O5  1  0.75001500  0.93569600  0.36864100  1
  O  O6  1  0.25006100  0.06428000  0.63144800  1
  O  O7  1  0.74993400  0.56429000  0.86862100  1
  O  O8  1  0.75003500  0.21440600  0.08500400  1
  O  O9  1  0.24998800  0.71430100  0.41494500  1
  O  O10  1  0.75002800  0.28561200  0.58498100  1
  O  O11  1  0.24997300  0.78566800  0.91493700  1
  O  O12  1  0.75000400  0.75789600  0.16335900  1
  O  O13  1  0.25001400  0.25787500  0.33660900  1
  O  O14  1  0.74995000  0.74208400  0.66334200  1
  O  O15  1  0.25004100  0.24216100  0.83661900  1
loop_
_geom_bond_atom_site_label_1
_geom_bond_atom_site_label_2
_geom_bond_distance
_geom_bond_site_symmetry_2
Li0 O4 1.963333 1_555
Li0 O12 2.145136 1_455
Li0 O12 2.145204 1_555
Li0 O11 2.217383 1_554
Li0 O7 2.473875 1_554
Li0 O7 2.474094 1_454
Li1 O5 1.963169 1_545
Li1 O13 2.145719 1_555
Li1 O13 2.145854 1_655
Li1 O10 2.216450 1_555
Li1 O6 2.473786 1_555
Li1 O6 2.474110 1_655
Li2 O6 1.963542 1_565
Li2 O14 2.145340 1_555
Li2 O14 2.145340 1_455
Li2 O9 2.217503 1_555
Li2 O5 2.473673 1_455
Li2 O5 2.473839 1_555
Li3 O7 1.962985 1_555
Li3 O15 2.145351 1_555
Li3 O15 2.145587 1_655
Li3 O8 2.216708 1_556
Li3 O4 2.473679 1_556
Li3 O4 2.473927 1_656
Mn0 O9 1.890823 1_555
Mn0 O5 1.910788 1_455
Mn0 O5 1.910888 1_555
Mn0 O0 1.963793 1_555
Mn0 O12 1.982765 1_455
Mn0 O12 1.982778 1_555
Mn1 O11 1.890284 1_555
Mn1 O7 1.910940 1_455
Mn1 O7 1.911065 1_555
Mn1 O2 1.964190 1_555
Mn1 O14 1.982555 1_455
Mn1 O14 1.982698 1_555
Mn2 O8 1.890285 1_555
Mn2 O4 1.910675 1_555
Mn2 O4 1.910744 1_655
Mn2 O1 1.963684 1_555
Mn2 O13 1.982887 1_655
Mn2 O13 1.982889 1_555
Mn3 O10 1.891157 1_555
Mn3 O6 1.910317 1_555
Mn3 O6 1.910429 1_655
Mn3 O3 1.963104 1_555
Mn3 O15 1.983074 1_555
Mn3 O15 1.983136 1_655
Al0 O8 1.852851 1_455
Al0 O8 1.852889 1_555
Al0 O0 1.898735 1_545
Al0 O15 1.948096 1_554
Al0 O3 1.966460 1_454
Al0 O3 1.966474 1_554
Al1 O9 1.852673 1_555
Al1 O9 1.852685 1_655
Al1 O1 1.898804 1_555
Al1 O14 1.947495 1_555
Al1 O2 1.966862 1_555
Al1 O2 1.966864 1_655
Al2 O10 1.852695 1_455
Al2 O10 1.852754 1_555
Al2 O2 1.898618 1_555
Al2 O13 1.947665 1_555
Al2 O1 1.966526 1_555
Al2 O1 1.966574 1_455
Al3 O11 1.852832 1_655
Al3 O11 1.852945 1_555
Al3 O3 1.899019 1_565
Al3 O12 1.947760 1_556
Al3 O0 1.966731 1_556
Al3 O0 1.966818 1_656
