# generated using pymatgen
data_Li4Ni3Sb(PO4)4
_symmetry_space_group_name_H-M   'P 1'
_cell_length_a   6.19115200
_cell_length_b   4.76555400
_cell_length_c   10.46369326
_cell_angle_alpha   89.33713290
_cell_angle_beta   90.00000000
_cell_angle_gamma   90.00000000
_symmetry_Int_Tables_number   1
_chemical_formula_structural   Li4Ni3Sb(PO4)4
_chemical_formula_sum   'Li4 Ni3 Sb1 P4 O16'
_cell_volume   308.70296188
_cell_formula_units_Z   1
loop_
 _symmetry_equiv_pos_site_id
 _symmetry_equiv_pos_as_xyz
  1  'x, y, z'
loop_
 _atom_site_type_symbol
 _atom_site_label
 _atom_site_symmetry_multiplicity
 _atom_site_fract_x
 _atom_site_fract_y
 _atom_site_fract_z
 _atom_site_occupancy
  Li  Li0  1  0.26131200  0.99987200  0.00839900  1
  Li  Li1  1  0.73868800  0.99987200  0.00839900  1
  Li  Li2  1  0.73800400  0.50605300  0.49261100  1
  Li  Li3  1  0.26199600  0.50605300  0.49261100  1
  Ni  Ni0  1  0.50000000  0.97985400  0.27332300  1
  Ni  Ni1  1  0.50000000  0.55250400  0.79104300  1
  Ni  Ni2  1  0.00000000  0.47104400  0.22482300  1
  Sb  Sb0  1  0.00000000  0.02048400  0.71800300  1
  P  P0  1  0.00000000  0.90737300  0.39467300  1
  P  P1  1  0.00000000  0.58439500  0.92309600  1
  P  P2  1  0.50000000  0.41595900  0.10039900  1
  P  P3  1  0.50000000  0.08637800  0.57917900  1
  O  O0  1  0.00000000  0.77645100  0.53473500  1
  O  O1  1  0.20161800  0.77265200  0.32855000  1
  O  O2  1  0.79838200  0.77265200  0.32855000  1
  O  O3  1  0.50000000  0.76683800  0.59042200  1
  O  O4  1  0.50000000  0.73957400  0.10554000  1
  O  O5  1  0.19715800  0.71720600  0.84841400  1
  O  O6  1  0.80284200  0.71720600  0.84841400  1
  O  O7  1  0.00000000  0.70549400  0.05955000  1
  O  O8  1  0.50000000  0.29957000  0.96302900  1
  O  O9  1  0.70057000  0.27849100  0.17099400  1
  O  O10  1  0.29943000  0.27849100  0.17099400  1
  O  O11  1  0.00000000  0.26203000  0.92236800  1
  O  O12  1  0.00000000  0.22841500  0.39488200  1
  O  O13  1  0.70142600  0.22601000  0.64396900  1
  O  O14  1  0.29857400  0.22601000  0.64396900  1
  O  O15  1  0.50000000  0.20306800  0.43906000  1
loop_
_geom_bond_atom_site_label_1
_geom_bond_atom_site_label_2
_geom_bond_distance
_geom_bond_site_symmetry_2
Li0 O8 2.105535 1_564
Li0 O4 2.174054 1_555
Li0 O10 2.183007 1_565
Li0 O5 2.197020 1_554
Li0 O7 2.203293 1_555
Li0 O11 2.227669 1_564
Li1 O8 2.105535 1_564
Li1 O4 2.174054 1_555
Li1 O9 2.183007 1_565
Li1 O6 2.197020 1_554
Li1 O7 2.203293 1_655
Li1 O11 2.227669 1_664
Li2 O13 2.071651 1_555
Li2 O0 2.121078 1_655
Li2 O15 2.142144 1_555
Li2 O2 2.156484 1_555
Li2 O3 2.189219 1_555
Li2 O12 2.336384 1_655
Li3 O14 2.071651 1_555
Li3 O0 2.121078 1_555
Li3 O15 2.142144 1_555
Li3 O1 2.156484 1_555
Li3 O3 2.189219 1_555
Li3 O12 2.336384 1_555
Ni0 O15 2.044932 1_565
Ni0 O4 2.107114 1_555
Ni0 O9 2.163008 1_565
Ni0 O10 2.163008 1_565
Ni0 O1 2.169881 1_555
Ni0 O2 2.169881 1_555
Ni1 O6 2.121967 1_555
Ni1 O5 2.121967 1_555
Ni1 O8 2.154372 1_555
Ni1 O3 2.323894 1_555
Ni1 O13 2.529780 1_555
Ni1 O14 2.529780 1_555
Ni2 O7 2.048005 1_555
Ni2 O12 2.110867 1_555
Ni2 O9 2.146596 1_455
Ni2 O10 2.146596 1_555
Ni2 O2 2.199581 1_455
Ni2 O1 2.199581 1_555
O0 P0 1.586189 1_555
O0 Sb0 2.254214 1_565
O1 P0 1.568217 1_555
O2 P0 1.568217 1_655
O3 P3 1.525965 1_565
O4 P2 1.543765 1_555
O5 P1 1.577896 1_555
O5 Sb0 2.322769 1_565
O6 P1 1.577896 1_655
O6 Sb0 2.322769 1_665
O7 P1 1.546209 1_554
O8 P2 1.546675 1_556
O9 P2 1.582907 1_555
O10 P2 1.582907 1_555
O11 P1 1.536355 1_555
O11 Sb0 2.440245 1_555
O12 P0 1.529970 1_545
O13 P3 1.570984 1_555
O13 Sb0 2.226855 1_655
O14 P3 1.570984 1_555
O14 Sb0 2.226855 1_555
O15 P3 1.562052 1_555
