# generated using pymatgen
data_Li2MnFe(PO4)2
_symmetry_space_group_name_H-M   'P 1'
_cell_length_a   4.77237600
_cell_length_b   10.53094202
_cell_length_c   6.11810301
_cell_angle_alpha   89.99235339
_cell_angle_beta   89.99956856
_cell_angle_gamma   90.00174035
_symmetry_Int_Tables_number   1
_chemical_formula_structural   Li2MnFe(PO4)2
_chemical_formula_sum   'Li4 Mn2 Fe2 P4 O16'
_cell_volume   307.48126279
_cell_formula_units_Z   2
loop_
 _symmetry_equiv_pos_site_id
 _symmetry_equiv_pos_as_xyz
  1  'x, y, z'
loop_
 _atom_site_type_symbol
 _atom_site_label
 _atom_site_symmetry_multiplicity
 _atom_site_fract_x
 _atom_site_fract_y
 _atom_site_fract_z
 _atom_site_occupancy
  Li  Li0  1  0.99929800  0.00059400  0.00110900  1
  Li  Li1  1  0.99925300  0.00056500  0.49889200  1
  Li  Li2  1  0.50074700  0.50060800  0.00111700  1
  Li  Li3  1  0.50079000  0.50058000  0.49888300  1
  Mn  Mn0  1  0.02116200  0.71887500  0.74998300  1
  Mn  Mn1  1  0.47879200  0.21889800  0.74998100  1
  Fe  Fe0  1  0.97637300  0.28141700  0.25000300  1
  Fe  Fe1  1  0.52373400  0.78143100  0.24999500  1
  P  P0  1  0.41155900  0.09349300  0.24994100  1
  P  P1  1  0.08837400  0.59352300  0.24993800  1
  P  P2  1  0.91922300  0.40662600  0.75004400  1
  P  P3  1  0.58080000  0.90659900  0.75004500  1
  O  O0  1  0.70985600  0.04210700  0.74996900  1
  O  O1  1  0.79020100  0.54212800  0.74996700  1
  O  O2  1  0.73389900  0.09826900  0.25005200  1
  O  O3  1  0.76604200  0.59822600  0.25004700  1
  O  O4  1  0.24124300  0.40560500  0.74998900  1
  O  O5  1  0.25877100  0.90556300  0.74999400  1
  O  O6  1  0.20837500  0.45591600  0.25005000  1
  O  O7  1  0.29161700  0.95588800  0.25005200  1
  O  O8  1  0.27576500  0.16259800  0.04823600  1
  O  O9  1  0.27563600  0.16265300  0.45152900  1
  O  O10  1  0.22418700  0.66262000  0.04822800  1
  O  O11  1  0.22430600  0.66268000  0.45152400  1
  O  O12  1  0.78971500  0.33562000  0.54752300  1
  O  O13  1  0.78975800  0.33566800  0.95269400  1
  O  O14  1  0.71028400  0.83560400  0.54753500  1
  O  O15  1  0.71024000  0.83564800  0.95267800  1
loop_
_geom_bond_atom_site_label_1
_geom_bond_atom_site_label_2
_geom_bond_distance
_geom_bond_site_symmetry_2
Li0 O0 2.111848 1_554
Li0 O7 2.118353 1_645
Li0 O8 2.175910 1_655
Li0 O5 2.212633 1_644
Li0 O2 2.232140 1_555
Li0 O15 2.237877 1_544
Li1 O0 2.111560 1_555
Li1 O7 2.118049 1_645
Li1 O9 2.176489 1_655
Li1 O5 2.212388 1_645
Li1 O2 2.231555 1_555
Li1 O14 2.237846 1_545
Li2 O1 2.111913 1_554
Li2 O6 2.118409 1_555
Li2 O10 2.176292 1_555
Li2 O4 2.212617 1_554
Li2 O3 2.231505 1_555
Li2 O13 2.237746 1_554
Li3 O1 2.111646 1_555
Li3 O6 2.118144 1_555
Li3 O11 2.176943 1_555
Li3 O4 2.212307 1_555
Li3 O3 2.230932 1_555
Li3 O12 2.237774 1_555
Mn0 O10 2.149193 1_556
Mn0 O11 2.150508 1_555
Mn0 O1 2.163163 1_455
Mn0 O5 2.269557 1_555
Mn0 O14 2.290437 1_455
Mn0 O15 2.291804 1_455
Mn1 O8 2.149351 1_556
Mn1 O9 2.150639 1_555
Mn1 O0 2.163870 1_555
Mn1 O4 2.269646 1_555
Mn1 O12 2.290509 1_555
Mn1 O13 2.291947 1_555
Fe0 O13 2.104277 1_554
Fe0 O12 2.105463 1_555
Fe0 O6 2.145387 1_655
Fe0 O2 2.249197 1_555
Fe0 O9 2.263601 1_655
Fe0 O8 2.265283 1_655
Fe1 O15 2.103976 1_554
Fe1 O14 2.105262 1_555
Fe1 O7 2.145349 1_555
Fe1 O3 2.249365 1_555
Fe1 O11 2.263973 1_555
Fe1 O10 2.265667 1_555
O0 P3 1.554249 1_545
O1 P2 1.554161 1_555
O2 P0 1.539148 1_555
O3 P1 1.539088 1_655
O4 P2 1.536838 1_455
O5 P3 1.536882 1_555
O6 P1 1.558206 1_555
O7 P0 1.558051 1_565
O8 P0 1.572347 1_555
O9 P0 1.572452 1_555
O10 P1 1.572343 1_555
O11 P1 1.572435 1_555
O12 P2 1.573724 1_555
O13 P2 1.573860 1_555
O14 P3 1.573581 1_555
O15 P3 1.573721 1_555
