# generated using pymatgen
data_LiCoSiO4
_symmetry_space_group_name_H-M   'P 1'
_cell_length_a   5.11003800
_cell_length_b   10.23458600
_cell_length_c   13.24517000
_cell_angle_alpha   90.00000000
_cell_angle_beta   90.00000000
_cell_angle_gamma   90.00000000
_symmetry_Int_Tables_number   1
_chemical_formula_structural   LiCoSiO4
_chemical_formula_sum   'Li8 Co8 Si8 O32'
_cell_volume   692.71077994
_cell_formula_units_Z   8
loop_
 _symmetry_equiv_pos_site_id
 _symmetry_equiv_pos_as_xyz
  1  'x, y, z'
loop_
 _atom_site_type_symbol
 _atom_site_label
 _atom_site_symmetry_multiplicity
 _atom_site_fract_x
 _atom_site_fract_y
 _atom_site_fract_z
 _atom_site_occupancy
  Li  Li0  1  0.06085500  0.03846300  0.24635000  1
  Li  Li1  1  0.55952100  0.21355700  0.99908000  1
  Li  Li2  1  0.55952100  0.28644300  0.49908000  1
  Li  Li3  1  0.06085500  0.46153700  0.74635000  1
  Li  Li4  1  0.93914500  0.53846300  0.24635000  1
  Li  Li5  1  0.44047900  0.71355700  0.99908000  1
  Li  Li6  1  0.44047900  0.78644300  0.49908000  1
  Li  Li7  1  0.93914500  0.96153700  0.74635000  1
  Co  Co0  1  0.91780000  0.03359700  0.49761200  1
  Co  Co1  1  0.55745900  0.21376700  0.24992000  1
  Co  Co2  1  0.55745900  0.28623300  0.74992000  1
  Co  Co3  1  0.91780000  0.46640300  0.99761200  1
  Co  Co4  1  0.08220000  0.53359700  0.49761200  1
  Co  Co5  1  0.44254100  0.71376700  0.24992000  1
  Co  Co6  1  0.44254100  0.78623300  0.74992000  1
  Co  Co7  1  0.08220000  0.96640300  0.99761200  1
  Si  Si0  1  0.43494500  0.03386200  0.62376900  1
  Si  Si1  1  0.05528000  0.21760200  0.87292800  1
  Si  Si2  1  0.05528000  0.28239800  0.37292800  1
  Si  Si3  1  0.43494500  0.46613800  0.12376900  1
  Si  Si4  1  0.56505500  0.53386200  0.62376900  1
  Si  Si5  1  0.94472000  0.71760200  0.87292800  1
  Si  Si6  1  0.94472000  0.78239800  0.37292800  1
  Si  Si7  1  0.56505500  0.96613800  0.12376900  1
  O  O0  1  0.88120400  0.99276700  0.11439700  1
  O  O1  1  0.57609800  0.97404700  0.52218000  1
  O  O2  1  0.44984600  0.04187600  0.22368800  1
  O  O3  1  0.00112100  0.05938100  0.87940200  1
  O  O4  1  0.50354200  0.19028700  0.63211600  1
  O  O5  1  0.92354200  0.21358500  0.47298700  1
  O  O6  1  0.91824500  0.28115900  0.77222600  1
  O  O7  1  0.37127200  0.24815600  0.86774600  1
  O  O8  1  0.37127200  0.25184400  0.36774600  1
  O  O9  1  0.91824500  0.21884100  0.27222600  1
  O  O10  1  0.92354200  0.28641500  0.97298700  1
  O  O11  1  0.50354200  0.30971300  0.13211600  1
  O  O12  1  0.00112100  0.44061900  0.37940200  1
  O  O13  1  0.44984600  0.45812400  0.72368800  1
  O  O14  1  0.57609800  0.52595300  0.02218000  1
  O  O15  1  0.88120400  0.50723300  0.61439700  1
  O  O16  1  0.11879600  0.49276700  0.11439700  1
  O  O17  1  0.42390200  0.47404700  0.52218000  1
  O  O18  1  0.55015400  0.54187600  0.22368800  1
  O  O19  1  0.99887900  0.55938100  0.87940200  1
  O  O20  1  0.49645800  0.69028700  0.63211600  1
  O  O21  1  0.07645800  0.71358500  0.47298700  1
  O  O22  1  0.08175500  0.78115900  0.77222600  1
  O  O23  1  0.62872800  0.74815600  0.86774600  1
  O  O24  1  0.62872800  0.75184400  0.36774600  1
  O  O25  1  0.08175500  0.71884100  0.27222600  1
  O  O26  1  0.07645800  0.78641500  0.97298700  1
  O  O27  1  0.49645800  0.80971300  0.13211600  1
  O  O28  1  0.99887900  0.94061900  0.37940200  1
  O  O29  1  0.55015400  0.95812400  0.72368800  1
  O  O30  1  0.42390200  0.02595300  0.02218000  1
  O  O31  1  0.11879600  0.00723300  0.61439700  1
loop_
_geom_bond_atom_site_label_1
_geom_bond_atom_site_label_2
_geom_bond_distance
_geom_bond_site_symmetry_2
Li0 O2 2.010598 1_555
Li0 O9 2.014099 1_455
Li0 O0 2.028814 1_445
Li0 O28 2.051530 1_445
Li1 O7 2.019099 1_555
Li1 O10 2.033634 1_555
Li1 O11 2.038444 1_556
Li1 O30 2.064092 1_556
Li2 O8 2.019099 1_555
Li2 O5 2.033634 1_555
Li2 O4 2.038444 1_555
Li2 O17 2.064092 1_555
Li3 O13 2.010598 1_555
Li3 O6 2.014099 1_455
Li3 O15 2.028814 1_455
Li3 O19 2.051530 1_455
Li4 O18 2.010598 1_555
Li4 O25 2.014099 1_655
Li4 O16 2.028814 1_655
Li4 O12 2.051530 1_655
Li5 O23 2.019099 1_555
Li5 O26 2.033634 1_555
Li5 O27 2.038444 1_556
Li5 O14 2.064092 1_556
Li6 O24 2.019099 1_555
Li6 O21 2.033634 1_555
Li6 O20 2.038444 1_555
Li6 O1 2.064092 1_555
Li7 O29 2.010598 1_555
Li7 O22 2.014099 1_655
Li7 O31 2.028814 1_665
Li7 O3 2.051530 1_665
Co0 O5 1.870985 1_555
Co0 O31 1.876283 1_655
Co0 O1 1.877830 1_545
Co0 O28 1.878467 1_545
Co1 O11 1.864085 1_555
Co1 O9 1.867875 1_555
Co1 O8 1.868856 1_555
Co1 O2 1.875638 1_555
Co2 O4 1.864085 1_555
Co2 O6 1.867875 1_555
Co2 O7 1.868856 1_555
Co2 O13 1.875638 1_555
Co3 O10 1.870985 1_555
Co3 O16 1.876283 1_656
Co3 O14 1.877830 1_556
Co3 O19 1.878467 1_555
Co4 O21 1.870985 1_555
Co4 O15 1.876283 1_455
Co4 O17 1.877830 1_555
Co4 O12 1.878467 1_555
Co5 O27 1.864085 1_555
Co5 O25 1.867875 1_555
Co5 O24 1.868856 1_555
Co5 O18 1.875638 1_555
Co6 O20 1.864085 1_555
Co6 O22 1.867875 1_555
Co6 O23 1.868856 1_555
Co6 O29 1.875638 1_555
Co7 O26 1.870985 1_555
Co7 O0 1.876283 1_456
Co7 O30 1.877830 1_566
Co7 O3 1.878467 1_565
O0 Si7 1.643056 1_555
O1 Si0 1.644864 1_565
O2 Si7 1.642849 1_545
O3 Si1 1.645042 1_555
O4 Si0 1.642596 1_555
O5 Si2 1.644869 1_655
O6 Si1 1.640897 1_655
O7 Si1 1.646163 1_555
O8 Si2 1.646163 1_555
O9 Si2 1.640897 1_655
O10 Si1 1.644869 1_655
O11 Si3 1.642596 1_555
O12 Si2 1.645042 1_555
O13 Si4 1.642849 1_555
O14 Si3 1.644864 1_555
O15 Si4 1.643056 1_555
O16 Si3 1.643056 1_555
O17 Si4 1.644864 1_555
O18 Si3 1.642849 1_555
O19 Si5 1.645042 1_555
O20 Si4 1.642596 1_555
O21 Si6 1.644869 1_455
O22 Si5 1.640897 1_455
O23 Si5 1.646163 1_555
O24 Si6 1.646163 1_555
O25 Si6 1.640897 1_455
O26 Si5 1.644869 1_455
O27 Si7 1.642596 1_555
O28 Si6 1.645042 1_555
O29 Si0 1.642849 1_565
O30 Si7 1.644864 1_545
O31 Si0 1.643056 1_555
