# generated using pymatgen
data_NaH5S2O9
_symmetry_space_group_name_H-M   'P 1'
_cell_length_a   14.03322100
_cell_length_b   7.50205700
_cell_length_c   9.40669685
_cell_angle_alpha   76.49269458
_cell_angle_beta   90.00000000
_cell_angle_gamma   90.00000000
_symmetry_Int_Tables_number   1
_chemical_formula_structural   NaH5S2O9
_chemical_formula_sum   'Na4 H20 S8 O36'
_cell_volume   962.92639251
_cell_formula_units_Z   4
loop_
 _symmetry_equiv_pos_site_id
 _symmetry_equiv_pos_as_xyz
  1  'x, y, z'
loop_
 _atom_site_type_symbol
 _atom_site_label
 _atom_site_symmetry_multiplicity
 _atom_site_fract_x
 _atom_site_fract_y
 _atom_site_fract_z
 _atom_site_occupancy
  Na  Na0  1  0.07797700  0.21429000  0.69577500  1
  Na  Na1  1  0.57797700  0.78571000  0.80422500  1
  Na  Na2  1  0.92202300  0.78571000  0.30422500  1
  Na  Na3  1  0.42202300  0.21429000  0.19577500  1
  H  H0  1  0.41544400  0.80104500  0.21449800  1
  H  H1  1  0.91544400  0.19895500  0.28550200  1
  H  H2  1  0.58455600  0.19895500  0.78550200  1
  H  H3  1  0.08455600  0.80104500  0.71449800  1
  H  H4  1  0.84931700  0.12982200  0.74692400  1
  H  H5  1  0.34931700  0.87017800  0.75307600  1
  H  H6  1  0.15068300  0.87017800  0.25307600  1
  H  H7  1  0.65068300  0.12982200  0.24692400  1
  H  H8  1  0.66928900  0.44591000  0.96352700  1
  H  H9  1  0.16928900  0.55409000  0.53647300  1
  H  H10  1  0.33071100  0.55409000  0.03647300  1
  H  H11  1  0.83071100  0.44591000  0.46352700  1
  H  H12  1  0.89115300  0.56227600  0.75391600  1
  H  H13  1  0.39115300  0.43772400  0.74608400  1
  H  H14  1  0.10884700  0.43772400  0.24608400  1
  H  H15  1  0.60884700  0.56227600  0.25391600  1
  H  H16  1  0.75370000  0.68732200  0.49962300  1
  H  H17  1  0.25370000  0.31267800  0.00037700  1
  H  H18  1  0.24630000  0.31267800  0.50037700  1
  H  H19  1  0.74630000  0.68732200  0.99962300  1
  S  S0  1  0.02600000  0.68697000  0.65326200  1
  S  S1  1  0.52600000  0.31303000  0.84673800  1
  S  S2  1  0.97400000  0.31303000  0.34673800  1
  S  S3  1  0.47400000  0.68697000  0.15326200  1
  S  S4  1  0.70438500  0.98146100  0.45455200  1
  S  S5  1  0.20438500  0.01853900  0.04544800  1
  S  S6  1  0.29561500  0.01853900  0.54544800  1
  S  S7  1  0.79561500  0.98146100  0.95455200  1
  O  O0  1  0.01348600  0.79618600  0.49965400  1
  O  O1  1  0.51348600  0.20381400  0.00034600  1
  O  O2  1  0.98651400  0.20381400  0.50034600  1
  O  O3  1  0.48651400  0.79618600  0.99965400  1
  O  O4  1  0.83751200  0.47161300  0.77926700  1
  O  O5  1  0.33751200  0.52838700  0.72073300  1
  O  O6  1  0.16248800  0.52838700  0.22073300  1
  O  O7  1  0.66248800  0.47161300  0.27926700  1
  O  O8  1  0.09391200  0.52488100  0.66192000  1
  O  O9  1  0.59391200  0.47511900  0.83808000  1
  O  O10  1  0.90608800  0.47511900  0.33808000  1
  O  O11  1  0.40608800  0.52488100  0.16192000  1
  O  O12  1  0.01433600  0.41988700  0.01844900  1
  O  O13  1  0.51433600  0.58011300  0.48155100  1
  O  O14  1  0.98566400  0.58011300  0.98155100  1
  O  O15  1  0.48566400  0.41988700  0.51844900  1
  O  O16  1  0.63914600  0.00305100  0.30783600  1
  O  O17  1  0.13914600  0.99694900  0.19216400  1
  O  O18  1  0.36085400  0.99694900  0.69216400  1
  O  O19  1  0.86085400  0.00305100  0.80783600  1
  O  O20  1  0.63992800  0.90802600  0.57699200  1
  O  O21  1  0.13992800  0.09197400  0.92300800  1
  O  O22  1  0.36007200  0.09197400  0.42300800  1
  O  O23  1  0.86007200  0.90802600  0.07699200  1
  O  O24  1  0.77036100  0.80920200  0.43431100  1
  O  O25  1  0.27036100  0.19079800  0.06568900  1
  O  O26  1  0.22963900  0.19079800  0.56568900  1
  O  O27  1  0.72963900  0.80920200  0.93431100  1
  O  O28  1  0.71695400  0.43497400  0.04946000  1
  O  O29  1  0.21695400  0.56502600  0.45054000  1
  O  O30  1  0.28304600  0.56502600  0.95054000  1
  O  O31  1  0.78304600  0.43497400  0.54946000  1
  O  O32  1  0.15026200  0.63308200  0.32774700  1
  O  O33  1  0.65026200  0.36691800  0.17225300  1
  O  O34  1  0.84973800  0.36691800  0.67225300  1
  O  O35  1  0.34973800  0.63308200  0.82774700  1
loop_
_geom_bond_atom_site_label_1
_geom_bond_atom_site_label_2
_geom_bond_distance
_geom_bond_site_symmetry_2
Na0 O2 2.258449 1_455
Na0 O8 2.287798 1_555
Na0 O21 2.291405 1_555
Na0 O26 2.481710 1_555
Na1 O3 2.258449 1_555
Na1 O9 2.287798 1_555
Na1 O20 2.291405 1_555
Na1 O27 2.481710 1_555
Na2 O0 2.258449 1_655
Na2 O10 2.287798 1_555
Na2 O23 2.291405 1_555
Na2 O24 2.481710 1_555
Na3 O1 2.258449 1_555
Na3 O11 2.287798 1_555
Na3 O22 2.291405 1_555
Na3 O25 2.481710 1_555
H0 S3 1.403467 1_555
H1 S2 1.403467 1_555
H2 S1 1.403467 1_555
H3 S0 1.403467 1_555
H4 O19 1.002220 1_555
H4 O34 1.753163 1_555
H5 O18 1.002220 1_555
H5 O35 1.753163 1_555
H6 O17 1.002220 1_555
H6 O32 1.753163 1_555
H7 O16 1.002220 1_555
H7 O33 1.753163 1_555
H8 O28 1.037590 1_556
H8 O9 1.561610 1_555
H9 O29 1.037590 1_555
H9 O8 1.561610 1_555
H10 O30 1.037590 1_554
H10 O11 1.561610 1_555
H11 O31 1.037590 1_555
H11 O10 1.561610 1_555
H12 O4 1.005165 1_555
H13 O5 1.005165 1_555
H14 O6 1.005165 1_555
H15 O7 1.005165 1_555
H16 O24 1.002865 1_555
H17 O25 1.002865 1_555
H18 O26 1.002865 1_555
H19 O27 1.002865 1_555
O0 S0 1.495653 1_555
O1 S1 1.495653 1_554
O2 S2 1.495653 1_555
O3 S3 1.495653 1_556
O8 S0 1.532085 1_555
O9 S1 1.532085 1_555
O10 S2 1.532085 1_555
O11 S3 1.532085 1_555
O12 O14 1.237874 1_454
O13 O15 1.237874 1_555
O16 S4 1.632387 1_545
O17 S5 1.632387 1_565
O18 S6 1.632387 1_565
O19 S7 1.632387 1_545
O20 S4 1.466912 1_555
O21 S5 1.466912 1_556
O22 S6 1.466912 1_555
O23 S7 1.466912 1_554
O24 S4 1.636592 1_555
O25 S5 1.636592 1_555
O26 S6 1.636592 1_555
O27 S7 1.636592 1_555
O28 O33 1.481655 1_555
O29 O32 1.481655 1_555
O30 O35 1.481655 1_555
O31 O34 1.481655 1_555
O32 O6 1.424436 1_555
O33 O7 1.424436 1_555
O34 O4 1.424436 1_555
O35 O5 1.424436 1_555
