# generated using pymatgen
data_Ti15VO24
_symmetry_space_group_name_H-M   'P 1'
_cell_length_a   5.47318128
_cell_length_b   9.04349243
_cell_length_c   9.04515982
_cell_angle_alpha   68.47861818
_cell_angle_beta   94.76218776
_cell_angle_gamma   94.75366188
_symmetry_Int_Tables_number   1
_chemical_formula_structural   Ti15VO24
_chemical_formula_sum   'Ti15 V1 O24'
_cell_volume   414.38991303
_cell_formula_units_Z   1
loop_
 _symmetry_equiv_pos_site_id
 _symmetry_equiv_pos_as_xyz
  1  'x, y, z'
loop_
 _atom_site_type_symbol
 _atom_site_label
 _atom_site_symmetry_multiplicity
 _atom_site_fract_x
 _atom_site_fract_y
 _atom_site_fract_z
 _atom_site_occupancy
  Ti  Ti0  1  0.69004829  0.07662512  0.07779881  1
  Ti  Ti1  1  0.30936415  0.17173796  0.17242354  1
  Ti  Ti2  1  0.19118391  0.07727106  0.57883911  1
  Ti  Ti3  1  0.30888438  0.42253395  0.42251283  1
  Ti  Ti4  1  0.68923373  0.32783706  0.32770325  1
  Ti  Ti5  1  0.81055718  0.17217600  0.67351167  1
  Ti  Ti6  1  0.19226677  0.33092040  0.82648701  1
  Ti  Ti7  1  0.18837350  0.57691534  0.07636056  1
  Ti  Ti8  1  0.81011795  0.67343176  0.17187501  1
  Ti  Ti9  1  0.19106509  0.82503167  0.33076679  1
  Ti  Ti10  1  0.69285703  0.57789019  0.57634189  1
  Ti  Ti11  1  0.80958307  0.42224535  0.92257003  1
  Ti  Ti12  1  0.81029711  0.92371495  0.42211257  1
  Ti  Ti13  1  0.30958596  0.92233372  0.92336240  1
  Ti  Ti14  1  0.68605642  0.82660421  0.82513963  1
  V  V0  1  0.31221219  0.67208298  0.67183363  1
  O  O0  1  0.15873183  0.03180203  0.37619901  1
  O  O1  1  -0.00020526  0.21771590  0.03101124  1
  O  O2  1  0.99934329  0.28267502  0.46827648  1
  O  O3  1  0.15843545  0.12562022  0.78304862  1
  O  O4  1  0.65718443  0.12569444  0.28157382  1
  O  O5  1  0.65661082  0.03058297  0.87572734  1
  O  O6  1  0.34158235  0.37478183  0.21794248  1
  O  O7  1  0.49972308  0.21853592  0.53194462  1
  O  O8  1  0.15635035  0.62480437  0.28187841  1
  O  O9  1  0.49984002  0.28065555  0.96844432  1
  O  O10  1  0.34309499  0.46694270  0.62336736  1
  O  O11  1  0.84158777  0.46806689  0.12469338  1
  O  O12  1  0.15758656  0.52884663  0.88040561  1
  O  O13  1  0.65501838  0.53250260  0.37408130  1
  O  O14  1  0.99385028  0.71820146  0.52895403  1
  O  O15  1  0.49864769  0.71741533  0.03162641  1
  O  O16  1  0.84273734  0.37514133  0.71818379  1
  O  O17  1  0.66021942  0.62345217  0.78240718  1
  O  O18  1  0.50378894  0.78341984  0.46662994  1
  O  O19  1  0.99896632  0.78243381  0.96699753  1
  O  O20  1  0.34294110  0.96649590  0.12653887  1
  O  O21  1  0.34376101  0.88031348  0.71711302  1
  O  O22  1  0.84524754  0.87572071  0.21863871  1
  O  O23  1  0.84326757  0.96882719  0.62467983  1
loop_
_geom_bond_atom_site_label_1
_geom_bond_atom_site_label_2
_geom_bond_distance
_geom_bond_site_symmetry_2
O0 Ti1 2.011597 1_555
O0 Ti2 2.011720 1_555
O0 Ti12 2.071103 1_445
O0 Ti9 2.080272 1_545
O1 Ti0 2.011370 1_455
O1 Ti1 2.011576 1_555
O1 Ti11 2.070179 1_454
O1 Ti6 2.082167 1_554
O2 Ti3 2.004614 1_655
O2 Ti4 2.009941 1_555
O2 Ti5 2.073324 1_555
O2 Ti2 2.083046 1_655
O3 Ti13 2.010170 1_545
O3 Ti6 2.025315 1_555
O3 Ti2 2.072592 1_555
O3 Ti5 2.073092 1_455
O4 Ti12 2.006958 1_545
O4 Ti4 2.010238 1_555
O4 Ti1 2.071186 1_555
O4 Ti0 2.072429 1_555
O5 Ti0 2.009431 1_556
O5 Ti5 2.013398 1_555
O5 Ti13 2.066320 1_545
O5 Ti14 2.078222 1_545
O6 Ti7 2.010698 1_555
O6 Ti1 2.015268 1_555
O6 Ti3 2.072792 1_555
O6 Ti4 2.073010 1_555
O7 Ti2 2.006853 1_555
O7 Ti5 2.018000 1_555
O7 Ti4 2.067416 1_555
O7 Ti3 2.069332 1_555
O8 Ti9 2.006735 1_555
O8 Ti3 2.007670 1_555
O8 Ti8 2.068435 1_455
O8 Ti7 2.081179 1_555
O9 Ti6 2.007210 1_555
O9 Ti11 2.013189 1_555
O9 Ti0 2.067621 1_556
O9 Ti1 2.068080 1_556
O10 Ti3 1.990817 1_555
O10 Ti6 1.998870 1_555
O10 V0 2.079289 1_555
O10 Ti10 2.087092 1_555
O11 Ti11 2.008854 1_554
O11 Ti4 2.011426 1_555
O11 Ti7 2.067597 1_655
O11 Ti8 2.075523 1_555
O12 Ti7 1.965325 1_556
O12 Ti6 2.046937 1_555
O12 V0 2.060026 1_555
O12 Ti11 2.061355 1_455
O13 Ti10 2.008064 1_555
O13 Ti8 2.014534 1_555
O13 Ti3 2.067796 1_555
O13 Ti4 2.068094 1_555
O14 Ti10 1.969635 1_555
O14 Ti9 2.046892 1_655
O14 Ti12 2.056185 1_555
O14 V0 2.057032 1_655
O15 Ti7 2.010289 1_555
O15 Ti8 2.014125 1_555
O15 Ti13 2.069318 1_554
O15 Ti14 2.076674 1_554
O16 Ti10 2.007358 1_555
O16 Ti5 2.010515 1_555
O16 Ti11 2.068434 1_555
O16 Ti6 2.075451 1_655
O17 Ti11 1.992107 1_555
O17 Ti14 2.003395 1_555
O17 Ti10 2.075270 1_555
O17 V0 2.078808 1_555
O18 Ti12 1.992660 1_555
O18 Ti9 1.999895 1_555
O18 Ti10 2.074937 1_555
O18 V0 2.082142 1_555
O19 Ti13 2.008799 1_655
O19 Ti14 2.027678 1_555
O19 Ti8 2.069563 1_556
O19 Ti7 2.075511 1_656
O20 Ti13 2.010205 1_554
O20 Ti9 2.021102 1_555
O20 Ti1 2.070158 1_565
O20 Ti0 2.073345 1_565
O21 Ti2 1.967963 1_565
O21 Ti14 2.049179 1_555
O21 V0 2.060089 1_555
O21 Ti13 2.061447 1_555
O22 Ti0 2.005839 1_565
O22 Ti8 2.014577 1_555
O22 Ti12 2.066533 1_555
O22 Ti9 2.074879 1_655
O23 Ti12 2.009353 1_555
O23 Ti14 2.011684 1_555
O23 Ti5 2.067041 1_565
O23 Ti2 2.069530 1_665
