# generated using pymatgen
data_Li2V2Si4O11
_symmetry_space_group_name_H-M   'P 1'
_cell_length_a   8.96389800
_cell_length_b   7.47231728
_cell_length_c   7.00625656
_cell_angle_alpha   104.31663142
_cell_angle_beta   100.86464795
_cell_angle_gamma   99.96762514
_symmetry_Int_Tables_number   1
_chemical_formula_structural   Li2V2Si4O11
_chemical_formula_sum   'Li4 V4 Si8 O22'
_cell_volume   434.49661601
_cell_formula_units_Z   2
loop_
 _symmetry_equiv_pos_site_id
 _symmetry_equiv_pos_as_xyz
  1  'x, y, z'
loop_
 _atom_site_type_symbol
 _atom_site_label
 _atom_site_symmetry_multiplicity
 _atom_site_fract_x
 _atom_site_fract_y
 _atom_site_fract_z
 _atom_site_occupancy
  Li  Li0  1  0.61066100  0.19669500  0.79431600  1
  Li  Li1  1  0.13847900  0.15096800  0.75360900  1
  Li  Li2  1  0.86152100  0.84903200  0.24639100  1
  Li  Li3  1  0.38933900  0.80330500  0.20568400  1
  V  V0  1  0.88023900  0.39021400  0.62090700  1
  V  V1  1  0.37301500  0.39355000  0.60952600  1
  V  V2  1  0.62698500  0.60645000  0.39047400  1
  V  V3  1  0.11976100  0.60978600  0.37909300  1
  Si  Si0  1  0.23924200  0.03203000  0.38838000  1
  Si  Si1  1  0.95897000  0.23146100  0.22473500  1
  Si  Si2  1  0.51940500  0.22487300  0.22291500  1
  Si  Si3  1  0.76664700  0.59674600  0.97398500  1
  Si  Si4  1  0.23335300  0.40325400  0.02601500  1
  Si  Si5  1  0.48059500  0.77512700  0.77708500  1
  Si  Si6  1  0.04103000  0.76853900  0.77526500  1
  Si  Si7  1  0.76075800  0.96797000  0.61162000  1
  O  O0  1  0.81906500  0.15171300  0.62760700  1
  O  O1  1  0.39828700  0.06108800  0.25635200  1
  O  O2  1  0.32378400  0.14861500  0.59742700  1
  O  O3  1  0.02459100  0.06913200  0.25993700  1
  O  O4  1  0.71051700  0.18529000  0.15102900  1
  O  O5  1  0.38294000  0.27631600  0.04023900  1
  O  O6  1  0.67928300  0.43691200  0.80884700  1
  O  O7  1  0.57794000  0.36466700  0.41258700  1
  O  O8  1  0.18584800  0.41438400  0.80640900  1
  O  O9  1  0.02408600  0.29346900  0.04918700  1
  O  O10  1  0.06111300  0.36856500  0.41732400  1
  O  O11  1  0.93888700  0.63143500  0.58267600  1
  O  O12  1  0.97591400  0.70653100  0.95081200  1
  O  O13  1  0.81415200  0.58561600  0.19359100  1
  O  O14  1  0.42206000  0.63533300  0.58741300  1
  O  O15  1  0.32071700  0.56308800  0.19115300  1
  O  O16  1  0.61706000  0.72368400  0.95976100  1
  O  O17  1  0.28948300  0.81471000  0.84897100  1
  O  O18  1  0.97540900  0.93086800  0.74006300  1
  O  O19  1  0.67621600  0.85138500  0.40257300  1
  O  O20  1  0.60171300  0.93891200  0.74364800  1
  O  O21  1  0.18093500  0.84828700  0.37239300  1
loop_
_geom_bond_atom_site_label_1
_geom_bond_atom_site_label_2
_geom_bond_distance
_geom_bond_site_symmetry_2
Li0 O6 1.764785 1_555
Li0 O20 1.854842 1_545
Li0 O4 2.518532 1_556
Li0 O2 2.596646 1_555
Li1 O8 1.866226 1_555
Li1 O18 1.972018 1_445
Li1 O2 2.154668 1_555
Li2 O13 1.866226 1_555
Li2 O3 1.972018 1_665
Li2 O19 2.154668 1_555
Li3 O15 1.764785 1_555
Li3 O1 1.854842 1_565
Li3 O17 2.518532 1_554
Li3 O19 2.596646 1_555
O0 Si7 1.350652 1_545
O0 V0 1.786545 1_555
O1 Si2 1.584019 1_555
O1 Si0 1.850580 1_555
O2 Si0 1.483369 1_555
O2 V1 1.783604 1_555
O3 Si1 1.489429 1_455
O3 Si0 2.060145 1_555
O4 Si2 1.924289 1_555
O4 Si1 2.134958 1_555
O5 Si2 1.760140 1_555
O5 Si4 1.773206 1_555
O6 Si3 1.424637 1_555
O7 Si2 1.411844 1_555
O7 V2 1.835896 1_555
O8 Si4 1.544066 1_556
O9 Si1 1.589646 1_455
O9 Si4 1.966236 1_555
O10 Si1 1.494808 1_455
O10 V3 1.887029 1_555
O11 Si6 1.494808 1_655
O11 V0 1.887029 1_555
O12 Si6 1.589639 1_655
O12 Si3 1.966238 1_555
O13 Si3 1.544066 1_554
O14 Si5 1.411844 1_555
O14 V1 1.835896 1_555
O15 Si4 1.424637 1_555
O16 Si5 1.760140 1_555
O16 Si3 1.773206 1_555
O17 Si5 1.924289 1_555
O17 Si6 2.134958 1_555
O18 Si6 1.489429 1_655
O18 Si7 2.060145 1_555
O19 Si7 1.483369 1_555
O19 V2 1.783604 1_555
O20 Si5 1.584019 1_555
O20 Si7 1.850580 1_555
O21 Si0 1.350652 1_565
O21 V3 1.786545 1_555
