# generated using pymatgen
data_Na4Fe2C4SO16
_symmetry_space_group_name_H-M   'P 1'
_cell_length_a   9.96065667
_cell_length_b   9.93187761
_cell_length_c   9.73036057
_cell_angle_alpha   60.86342236
_cell_angle_beta   60.56781309
_cell_angle_gamma   58.56876456
_symmetry_Int_Tables_number   1
_chemical_formula_structural   Na4Fe2C4SO16
_chemical_formula_sum   'Na8 Fe4 C8 S2 O32'
_cell_volume   680.02720761
_cell_formula_units_Z   2
loop_
 _symmetry_equiv_pos_site_id
 _symmetry_equiv_pos_as_xyz
  1  'x, y, z'
loop_
 _atom_site_type_symbol
 _atom_site_label
 _atom_site_symmetry_multiplicity
 _atom_site_fract_x
 _atom_site_fract_y
 _atom_site_fract_z
 _atom_site_occupancy
  Na  Na0  1  0.95863400  0.54136600  0.95863400  1
  Na  Na1  1  0.54101400  0.95898600  0.95898600  1
  Na  Na2  1  0.29101400  0.70898600  0.70898600  1
  Na  Na3  1  0.70863400  0.29136600  0.70863400  1
  Na  Na4  1  0.54136600  0.95863400  0.54136600  1
  Na  Na5  1  0.95898600  0.54101400  0.54101400  1
  Na  Na6  1  0.70898600  0.29101400  0.29101400  1
  Na  Na7  1  0.29136600  0.70863400  0.29136600  1
  Fe  Fe0  1  0.12500000  0.12500000  0.12500000  1
  Fe  Fe1  1  0.12500000  0.12500000  0.62500000  1
  Fe  Fe2  1  0.12500000  0.62500000  0.12500000  1
  Fe  Fe3  1  0.62500000  0.12500000  0.12500000  1
  C  C0  1  0.91604500  0.91312100  0.90287000  1
  C  C1  1  0.33687900  0.33395500  0.98203600  1
  C  C2  1  0.90287000  0.26796400  0.91604500  1
  C  C3  1  0.26796400  0.90287000  0.91312100  1
  C  C4  1  0.98203600  0.34713000  0.33687900  1
  C  C5  1  0.34713000  0.98203600  0.33395500  1
  C  C6  1  0.91312100  0.91604500  0.26796400  1
  C  C7  1  0.33395500  0.33687900  0.34713000  1
  S  S0  1  0.50000000  0.50000000  0.50000000  1
  S  S1  1  0.75000000  0.75000000  0.75000000  1
  O  O0  1  0.94404200  0.76861600  0.01487900  1
  O  O1  1  0.31404900  0.56836200  0.55902300  1
  O  O2  1  0.03279200  0.94087100  0.76428600  1
  O  O3  1  0.30912900  0.21720800  0.98794900  1
  O  O4  1  0.76428600  0.26205100  0.03279200  1
  O  O5  1  0.22098500  0.48097300  0.97672800  1
  O  O6  1  0.55902300  0.55856500  0.31404900  1
  O  O7  1  0.56836200  0.31404900  0.55856500  1
  O  O8  1  0.32131400  0.97672800  0.48097300  1
  O  O9  1  0.26205100  0.76428600  0.94087100  1
  O  O10  1  0.48138400  0.30595800  0.97753700  1
  O  O11  1  0.55856500  0.55902300  0.56836200  1
  O  O12  1  0.01487900  0.27246300  0.94404200  1
  O  O13  1  0.27246300  0.01487900  0.76861600  1
  O  O14  1  0.76902700  0.02901500  0.92868600  1
  O  O15  1  0.97672800  0.32131400  0.22098500  1
  O  O16  1  0.27327200  0.92868600  0.02901500  1
  O  O17  1  0.48097300  0.22098500  0.32131400  1
  O  O18  1  0.97753700  0.23512100  0.48138400  1
  O  O19  1  0.23512100  0.97753700  0.30595800  1
  O  O20  1  0.69143500  0.69097700  0.68163800  1
  O  O21  1  0.76861600  0.94404200  0.27246300  1
  O  O22  1  0.98794900  0.48571400  0.30912900  1
  O  O23  1  0.92868600  0.27327200  0.76902700  1
  O  O24  1  0.68163800  0.93595100  0.69143500  1
  O  O25  1  0.69097700  0.69143500  0.93595100  1
  O  O26  1  0.02901500  0.76902700  0.27327200  1
  O  O27  1  0.48571400  0.98794900  0.21720800  1
  O  O28  1  0.94087100  0.03279200  0.26205100  1
  O  O29  1  0.21720800  0.30912900  0.48571400  1
  O  O30  1  0.93595100  0.68163800  0.69097700  1
  O  O31  1  0.30595800  0.48138400  0.23512100  1
loop_
_geom_bond_atom_site_label_1
_geom_bond_atom_site_label_2
_geom_bond_distance
_geom_bond_site_symmetry_2
Na0 O25 2.343421 1_555
Na0 O30 2.343421 1_555
Na0 O15 2.436001 1_556
Na0 O5 2.436001 1_655
Na0 O12 2.489441 1_655
Na0 O0 2.489441 1_556
Na1 O25 2.335343 1_555
Na1 O24 2.335343 1_555
Na1 O27 2.424391 1_556
Na1 O3 2.424391 1_565
Na1 O16 2.553146 1_556
Na1 O14 2.553146 1_565
Na2 O11 2.335347 1_555
Na2 O1 2.335352 1_555
Na2 O9 2.424391 1_555
Na2 O2 2.424391 1_555
Na2 O5 2.553146 1_555
Na2 O8 2.553146 1_555
Na3 O11 2.343424 1_555
Na3 O7 2.343429 1_555
Na3 O23 2.436001 1_555
Na3 O14 2.436001 1_555
Na3 O18 2.489441 1_555
Na3 O10 2.489441 1_555
Na4 O20 2.343424 1_555
Na4 O24 2.343429 1_555
Na4 O8 2.436001 1_555
Na4 O17 2.436001 1_565
Na4 O21 2.489441 1_555
Na4 O13 2.489441 1_565
Na5 O20 2.335347 1_555
Na5 O30 2.335352 1_555
Na5 O29 2.424391 1_655
Na5 O22 2.424391 1_555
Na5 O23 2.553146 1_555
Na5 O26 2.553146 1_655
Na6 O6 2.335343 1_555
Na6 O7 2.335343 1_555
Na6 O4 2.424391 1_555
Na6 O28 2.424391 1_555
Na6 O17 2.553146 1_555
Na6 O15 2.553146 1_555
Na7 O6 2.343421 1_555
Na7 O1 2.343421 1_555
Na7 O26 2.436001 1_555
Na7 O16 2.436001 1_555
Na7 O31 2.489441 1_555
Na7 O19 2.489441 1_555
Fe0 O28 2.034596 1_455
Fe0 O3 2.034596 1_554
Fe0 O12 2.039596 1_554
Fe0 O19 2.039596 1_545
Fe0 O15 2.066273 1_455
Fe0 O16 2.066273 1_545
Fe1 O29 2.034596 1_555
Fe1 O2 2.034596 1_545
Fe1 O13 2.039596 1_555
Fe1 O18 2.039596 1_455
Fe1 O8 2.066273 1_545
Fe1 O23 2.066273 1_455
Fe2 O9 2.034596 1_554
Fe2 O22 2.034596 1_455
Fe2 O0 2.039596 1_455
Fe2 O31 2.039596 1_555
Fe2 O5 2.066273 1_554
Fe2 O26 2.066273 1_555
Fe3 O4 2.034596 1_555
Fe3 O27 2.034596 1_545
Fe3 O21 2.039596 1_545
Fe3 O10 2.039596 1_554
Fe3 O17 2.066273 1_555
Fe3 O14 2.066273 1_554
C0 O2 1.295323 1_655
C0 O0 1.297501 1_556
C0 O14 1.301737 1_565
C1 O3 1.295323 1_555
C1 O10 1.297501 1_555
C1 O5 1.301737 1_555
C2 O4 1.295323 1_556
C2 O12 1.297501 1_655
C2 O23 1.301737 1_555
C3 O9 1.295323 1_555
C3 O13 1.297501 1_565
C3 O16 1.301737 1_556
C4 O22 1.295323 1_555
C4 O18 1.297501 1_555
C4 O15 1.301737 1_555
C5 O27 1.295323 1_555
C5 O19 1.297501 1_555
C5 O8 1.301737 1_555
C6 O28 1.295323 1_565
C6 O21 1.297501 1_555
C6 O26 1.301737 1_655
C7 O29 1.295323 1_555
C7 O31 1.297501 1_555
C7 O17 1.301737 1_555
O1 S0 1.498050 1_555
O6 S0 1.498050 1_555
O7 S0 1.498050 1_555
O11 S0 1.498042 1_555
O20 S1 1.498042 1_555
O24 S1 1.498050 1_555
O25 S1 1.498050 1_555
O30 S1 1.498050 1_555
