# generated using pymatgen
data_Sc6N2O5
_symmetry_space_group_name_H-M   'P 1'
_cell_length_a   6.99407527
_cell_length_b   4.39873930
_cell_length_c   5.44779077
_cell_angle_alpha   66.18920243
_cell_angle_beta   97.77869148
_cell_angle_gamma   90.00000000
_symmetry_Int_Tables_number   1
_chemical_formula_structural   Sc6N2O5
_chemical_formula_sum   'Sc6 N2 O5'
_cell_volume   151.64899207
_cell_formula_units_Z   1
loop_
 _symmetry_equiv_pos_site_id
 _symmetry_equiv_pos_as_xyz
  1  'x, y, z'
loop_
 _atom_site_type_symbol
 _atom_site_label
 _atom_site_symmetry_multiplicity
 _atom_site_fract_x
 _atom_site_fract_y
 _atom_site_fract_z
 _atom_site_occupancy
  Sc  Sc0  1  0.28333770  0.56462406  0.87075088  1
  Sc  Sc1  1  0.13819083  0.29178949  0.41642202  1
  Sc  Sc2  1  0.57769170  0.14562414  0.70874873  1
  Sc  Sc3  1  0.42230830  0.85437586  0.29125127  1
  Sc  Sc4  1  0.86180917  0.70821051  0.58357798  1
  Sc  Sc5  1  0.71666230  0.43537594  0.12924912  1
  N  N0  1  0.42562656  0.35764888  0.28470224  1
  N  N1  1  0.57437344  0.64235112  0.71529776  1
  O  O0  1  0.29673500  0.07753419  0.84493363  1
  O  O1  1  -0.00000000  0.50000000  0.00000000  1
  O  O2  1  0.14543018  0.77316169  0.45367561  1
  O  O3  1  0.85456982  0.22683831  0.54632439  1
  O  O4  1  0.70326500  0.92246581  0.15506637  1
loop_
_geom_bond_atom_site_label_1
_geom_bond_atom_site_label_2
_geom_bond_distance
_geom_bond_site_symmetry_2
N0 Sc0 2.153963 1_554
N0 Sc3 2.199779 1_545
N0 Sc3 2.199792 1_555
N0 Sc1 2.205220 1_555
N0 Sc2 2.221014 1_555
N0 Sc5 2.282609 1_555
N1 Sc5 2.153963 1_556
N1 Sc2 2.199779 1_565
N1 Sc2 2.199792 1_555
N1 Sc4 2.205220 1_555
N1 Sc3 2.221014 1_555
N1 Sc0 2.282609 1_555
O0 Sc2 2.171797 1_555
O0 Sc0 2.205924 1_555
O0 Sc0 2.205938 1_545
O0 Sc1 2.256163 1_555
O0 Sc3 2.267521 1_546
O1 Sc4 2.155985 1_454
O1 Sc1 2.155985 1_555
O1 Sc5 2.172503 1_455
O1 Sc0 2.172503 1_554
O2 Sc0 2.158300 1_555
O2 Sc4 2.175803 1_455
O2 Sc3 2.206638 1_555
O2 Sc1 2.207140 1_555
O2 Sc1 2.207148 1_565
O3 Sc5 2.158300 1_555
O3 Sc1 2.175803 1_655
O3 Sc2 2.206638 1_555
O3 Sc4 2.207140 1_555
O3 Sc4 2.207148 1_545
O4 Sc3 2.171797 1_555
O4 Sc5 2.205924 1_555
O4 Sc5 2.205938 1_565
O4 Sc4 2.256163 1_555
O4 Sc2 2.267521 1_564
