# generated using pymatgen
data_Li3NbV4O8
_symmetry_space_group_name_H-M   'P 1'
_cell_length_a   6.07664064
_cell_length_b   6.07664064
_cell_length_c   6.10354974
_cell_angle_alpha   60.44129601
_cell_angle_beta   60.44129601
_cell_angle_gamma   60.77493847
_symmetry_Int_Tables_number   1
_chemical_formula_structural   Li3NbV4O8
_chemical_formula_sum   'Li3 Nb1 V4 O8'
_cell_volume   161.35127226
_cell_formula_units_Z   1
loop_
 _symmetry_equiv_pos_site_id
 _symmetry_equiv_pos_as_xyz
  1  'x, y, z'
loop_
 _atom_site_type_symbol
 _atom_site_label
 _atom_site_symmetry_multiplicity
 _atom_site_fract_x
 _atom_site_fract_y
 _atom_site_fract_z
 _atom_site_occupancy
  Li  Li0  1  0.00000000  0.50000000  0.50000000  1
  Li  Li1  1  0.50000000  0.00000000  0.50000000  1
  Li  Li2  1  0.00000000  0.00000000  0.50000000  1
  Nb  Nb0  1  0.50000000  0.50000000  0.00000000  1
  V  V0  1  0.00000000  0.00000000  0.00000000  1
  V  V1  1  0.50000000  0.00000000  0.00000000  1
  V  V2  1  0.00000000  0.50000000  0.00000000  1
  V  V3  1  0.50000000  0.50000000  0.50000000  1
  O  O0  1  0.26180800  0.26180800  0.23528100  1
  O  O1  1  0.74136400  0.25753800  0.24246400  1
  O  O2  1  0.25753800  0.74136400  0.24246400  1
  O  O3  1  0.73819200  0.73819200  0.76471900  1
  O  O4  1  0.74974700  0.74974700  0.24444000  1
  O  O5  1  0.25863600  0.74246200  0.75753600  1
  O  O6  1  0.74246200  0.25863600  0.75753600  1
  O  O7  1  0.25025300  0.25025300  0.75556000  1
loop_
_geom_bond_atom_site_label_1
_geom_bond_atom_site_label_2
_geom_bond_distance
_geom_bond_site_symmetry_2
Li0 O2 2.147263 1_555
Li0 O6 2.147263 1_455
Li0 O3 2.181570 1_455
Li0 O0 2.181570 1_555
Li0 O7 2.190869 1_555
Li0 O4 2.190869 1_455
Li1 O1 2.147263 1_555
Li1 O5 2.147263 1_545
Li1 O3 2.181570 1_545
Li1 O0 2.181570 1_555
Li1 O7 2.190869 1_555
Li1 O4 2.190869 1_545
Li2 O2 2.235758 1_545
Li2 O5 2.235758 1_545
Li2 O1 2.235758 1_455
Li2 O6 2.235758 1_455
Li2 O0 2.252074 1_555
Li2 O3 2.252074 1_445
Nb0 O3 2.048516 1_554
Nb0 O0 2.048516 1_555
Nb0 O2 2.095744 1_555
Nb0 O6 2.095744 1_554
Nb0 O1 2.095744 1_555
Nb0 O5 2.095744 1_554
O0 V2 2.154764 1_555
O0 V1 2.154764 1_555
O1 V2 2.155461 1_655
O1 V3 2.166327 1_555
O1 V0 2.167437 1_655
O2 V1 2.155461 1_565
O2 V3 2.166327 1_555
O2 V0 2.167437 1_565
O3 V2 2.154764 1_656
O3 V1 2.154764 1_566
O4 V2 2.140916 1_655
O4 V1 2.140916 1_565
O4 V3 2.148784 1_555
O4 V0 2.152243 1_665
O5 V2 2.155461 1_556
O5 V3 2.166327 1_555
O5 V0 2.167437 1_566
O6 V1 2.155461 1_556
O6 V3 2.166327 1_555
O6 V0 2.167437 1_656
O7 V2 2.140916 1_556
O7 V1 2.140916 1_556
O7 V3 2.148784 1_555
O7 V0 2.152243 1_556
