# generated using pymatgen
data_Li3CrO4
_symmetry_space_group_name_H-M   'P 1'
_cell_length_a   5.79667200
_cell_length_b   5.79667200
_cell_length_c   8.23255900
_cell_angle_alpha   90.00000000
_cell_angle_beta   90.00000000
_cell_angle_gamma   90.00000000
_symmetry_Int_Tables_number   1
_chemical_formula_structural   Li3CrO4
_chemical_formula_sum   'Li12 Cr4 O16'
_cell_volume   276.62555965
_cell_formula_units_Z   4
loop_
 _symmetry_equiv_pos_site_id
 _symmetry_equiv_pos_as_xyz
  1  'x, y, z'
loop_
 _atom_site_type_symbol
 _atom_site_label
 _atom_site_symmetry_multiplicity
 _atom_site_fract_x
 _atom_site_fract_y
 _atom_site_fract_z
 _atom_site_occupancy
  Li  Li0  1  0.00000000  0.24964500  0.00000000  1
  Li  Li1  1  0.00000000  0.75021800  0.00000000  1
  Li  Li2  1  0.00000000  0.24978200  0.50000000  1
  Li  Li3  1  0.00000000  0.75035500  0.50000000  1
  Li  Li4  1  0.25375900  0.50000000  0.25000000  1
  Li  Li5  1  0.24964500  0.00000000  0.75000000  1
  Li  Li6  1  0.24978200  0.00000000  0.25000000  1
  Li  Li7  1  0.50000000  0.25375900  0.50000000  1
  Li  Li8  1  0.50000000  0.74624100  0.00000000  1
  Li  Li9  1  0.75021800  0.00000000  0.75000000  1
  Li  Li10  1  0.75035500  0.00000000  0.25000000  1
  Li  Li11  1  0.74624100  0.50000000  0.75000000  1
  Cr  Cr0  1  0.22422800  0.50000000  0.75000000  1
  Cr  Cr1  1  0.50000000  0.22422800  0.00000000  1
  Cr  Cr2  1  0.50000000  0.77577200  0.50000000  1
  Cr  Cr3  1  0.77577200  0.50000000  0.25000000  1
  O  O0  1  0.02105200  0.27149000  0.74340500  1
  O  O1  1  0.02105200  0.72851000  0.75659500  1
  O  O2  1  0.26987700  0.49151400  0.97948600  1
  O  O3  1  0.26987700  0.50848600  0.52051400  1
  O  O4  1  0.27149000  0.02105200  0.00659500  1
  O  O5  1  0.27149000  0.97894800  0.49340500  1
  O  O6  1  0.49151400  0.26987700  0.77051400  1
  O  O7  1  0.49151400  0.73012300  0.72948600  1
  O  O8  1  0.50848600  0.26987700  0.22948600  1
  O  O9  1  0.50848600  0.73012300  0.27051400  1
  O  O10  1  0.72851000  0.97894800  0.50659500  1
  O  O11  1  0.72851000  0.02105200  0.99340500  1
  O  O12  1  0.73012300  0.49151400  0.02051400  1
  O  O13  1  0.73012300  0.50848600  0.47948600  1
  O  O14  1  0.97894800  0.27149000  0.25659500  1
  O  O15  1  0.97894800  0.72851000  0.24340500  1
loop_
_geom_bond_atom_site_label_1
_geom_bond_atom_site_label_2
_geom_bond_distance
_geom_bond_site_symmetry_2
Li0 O11 2.058017 1_454
Li0 O4 2.058017 1_555
Li0 O12 2.107495 1_455
Li0 O2 2.107495 1_554
Li0 O14 2.119741 1_455
Li0 O0 2.119741 1_554
Li1 O15 2.011498 1_455
Li1 O1 2.011498 1_554
Li1 O12 2.173637 1_455
Li1 O2 2.173637 1_554
Li1 O11 2.223578 1_464
Li1 O4 2.223578 1_565
Li2 O0 2.011498 1_555
Li2 O14 2.011498 1_455
Li2 O3 2.173637 1_555
Li2 O13 2.173637 1_455
Li2 O10 2.223578 1_445
Li2 O5 2.223578 1_545
Li3 O10 2.058017 1_455
Li3 O5 2.058017 1_555
Li3 O3 2.107495 1_555
Li3 O13 2.107495 1_455
Li3 O1 2.119741 1_555
Li3 O15 2.119741 1_455
Li4 O9 1.997046 1_555
Li4 O8 1.997046 1_555
Li4 O14 2.072467 1_455
Li4 O15 2.072467 1_455
Li4 O3 2.229524 1_555
Li4 O2 2.229524 1_554
Li5 O1 2.058017 1_545
Li5 O0 2.058017 1_555
Li5 O6 2.107495 1_555
Li5 O7 2.107495 1_545
Li5 O4 2.119741 1_556
Li5 O5 2.119741 1_545
Li6 O5 2.011498 1_545
Li6 O4 2.011498 1_555
Li6 O9 2.173637 1_545
Li6 O8 2.173637 1_555
Li6 O15 2.223578 1_445
Li6 O14 2.223578 1_455
Li7 O3 1.997046 1_555
Li7 O13 1.997046 1_555
Li7 O5 2.072467 1_545
Li7 O10 2.072467 1_545
Li7 O6 2.229524 1_555
Li7 O8 2.229524 1_555
Li8 O12 1.997046 1_555
Li8 O2 1.997046 1_554
Li8 O4 2.072467 1_565
Li8 O11 2.072467 1_564
Li8 O9 2.229524 1_555
Li8 O7 2.229524 1_554
Li9 O11 2.011498 1_555
Li9 O10 2.011498 1_545
Li9 O6 2.173637 1_555
Li9 O7 2.173637 1_545
Li9 O1 2.223578 1_645
Li9 O0 2.223578 1_655
Li10 O15 2.058017 1_545
Li10 O14 2.058017 1_555
Li10 O8 2.107495 1_555
Li10 O9 2.107495 1_545
Li10 O11 2.119741 1_554
Li10 O10 2.119741 1_545
Li11 O6 1.997046 1_555
Li11 O7 1.997046 1_555
Li11 O0 2.072467 1_655
Li11 O1 2.072467 1_655
Li11 O12 2.229524 1_556
Li11 O13 2.229524 1_555
Cr0 O0 1.773299 1_555
Cr0 O1 1.773299 1_555
Cr0 O2 1.908332 1_555
Cr0 O3 1.908332 1_555
Cr0 O6 2.051459 1_555
Cr0 O7 2.051459 1_555
Cr1 O4 1.773299 1_555
Cr1 O11 1.773299 1_554
Cr1 O8 1.908332 1_555
Cr1 O6 1.908332 1_554
Cr1 O12 2.051459 1_555
Cr1 O2 2.051459 1_554
Cr2 O5 1.773299 1_555
Cr2 O10 1.773299 1_555
Cr2 O7 1.908332 1_555
Cr2 O9 1.908332 1_555
Cr2 O3 2.051459 1_555
Cr2 O13 2.051459 1_555
Cr3 O14 1.773299 1_555
Cr3 O15 1.773299 1_555
Cr3 O13 1.908332 1_555
Cr3 O12 1.908332 1_555
Cr3 O9 2.051459 1_555
Cr3 O8 2.051459 1_555
