# generated using pymatgen
data_Li2VOF3
_symmetry_space_group_name_H-M   'P 1'
_cell_length_a   5.97229639
_cell_length_b   8.48858607
_cell_length_c   6.07555339
_cell_angle_alpha   89.99984436
_cell_angle_beta   89.99986626
_cell_angle_gamma   91.02284787
_symmetry_Int_Tables_number   1
_chemical_formula_structural   Li2VOF3
_chemical_formula_sum   'Li8 V4 O4 F12'
_cell_volume   307.95931353
_cell_formula_units_Z   4
loop_
 _symmetry_equiv_pos_site_id
 _symmetry_equiv_pos_as_xyz
  1  'x, y, z'
loop_
 _atom_site_type_symbol
 _atom_site_label
 _atom_site_symmetry_multiplicity
 _atom_site_fract_x
 _atom_site_fract_y
 _atom_site_fract_z
 _atom_site_occupancy
  Li  Li0  1  0.49999700  0.00003100  0.49999900  1
  Li  Li1  1  0.00000400  0.49996900  0.99999900  1
  Li  Li2  1  0.99999600  0.00003300  0.49999900  1
  Li  Li3  1  0.50000500  0.49996800  0.99999900  1
  Li  Li4  1  0.22129800  0.12637700  0.99999900  1
  Li  Li5  1  0.72129500  0.62634400  0.49999900  1
  Li  Li6  1  0.27870300  0.37362300  0.49999900  1
  Li  Li7  1  0.77870600  0.87365600  0.99999900  1
  V  V0  1  0.24999700  0.75000100  0.75000000  1
  V  V1  1  0.25000200  0.74999800  0.24999800  1
  V  V2  1  0.74999300  0.24999300  0.24999600  1
  V  V3  1  0.74999300  0.25000400  0.75002700  1
  O  O0  1  0.54536100  0.24474900  0.49999800  1
  O  O1  1  0.04542400  0.74473100  0.99999900  1
  O  O2  1  0.95464000  0.25525100  0.00000000  1
  O  O3  1  0.45457700  0.75526900  0.50000000  1
  F  F0  1  0.99488300  0.24556300  0.50000000  1
  F  F1  1  0.49492300  0.74553600  0.00000100  1
  F  F2  1  0.50511800  0.25443800  0.99999800  1
  F  F3  1  0.00507800  0.75446400  0.49999800  1
  F  F4  1  0.75562500  0.01252800  0.73772500  1
  F  F5  1  0.25562600  0.51256500  0.23769900  1
  F  F6  1  0.75562500  0.01252900  0.26227300  1
  F  F7  1  0.25562500  0.51256500  0.76230000  1
  F  F8  1  0.74437600  0.48747200  0.23772600  1
  F  F9  1  0.24437600  0.98743500  0.73769900  1
  F  F10  1  0.74437700  0.48747200  0.76227300  1
  F  F11  1  0.24437600  0.98743600  0.26230000  1
loop_
_geom_bond_atom_site_label_1
_geom_bond_atom_site_label_2
_geom_bond_distance
_geom_bond_site_symmetry_2
Li0 O0 2.090102 1_555
Li0 O3 2.090509 1_545
Li1 O2 2.090102 1_456
Li1 O1 2.090509 1_555
Li4 O2 1.948126 1_456
Li5 O3 1.948672 1_555
Li6 O0 1.948126 1_555
Li7 O1 1.948672 1_655
O0 V2 1.949532 1_555
O0 V3 1.949665 1_555
O1 V0 1.949299 1_555
O1 V1 1.949322 1_556
O2 V3 1.949455 1_554
O2 V2 1.949561 1_555
O3 V1 1.949326 1_555
O3 V0 1.949330 1_555
F0 Li6 1.997275 1_655
F0 Li2 2.084971 1_555
F0 V2 2.109396 1_555
F0 V3 2.109495 1_555
F1 Li7 1.997359 1_554
F1 Li3 2.085288 1_554
F1 V1 2.109497 1_555
F1 V0 2.109541 1_554
F2 Li4 1.997280 1_555
F2 Li3 2.084971 1_555
F2 V3 2.109186 1_555
F2 V2 2.109312 1_556
F3 Li5 1.997359 1_455
F3 Li2 2.085296 1_465
F3 V0 2.109516 1_555
F3 V1 2.109524 1_555
F4 Li7 1.988351 1_545
F4 V3 2.018101 1_555
F4 Li2 2.057384 1_555
F4 Li0 2.102928 1_555
F5 Li6 1.988829 1_555
F5 V1 2.017734 1_555
F5 Li3 2.057363 1_554
F5 Li1 2.102825 1_554
F6 Li7 1.988361 1_544
F6 V2 2.017993 1_555
F6 Li2 2.057389 1_555
F6 Li0 2.102923 1_555
F7 Li6 1.988839 1_555
F7 V0 2.017760 1_555
F7 Li3 2.057368 1_555
F7 Li1 2.102811 1_555
F8 Li5 1.988351 1_555
F8 V2 2.018116 1_555
F8 Li3 2.057394 1_554
F8 Li1 2.102927 1_654
F9 Li4 1.988834 1_565
F9 V0 2.017742 1_555
F9 Li2 2.057372 1_465
F9 Li0 2.102815 1_565
F10 Li5 1.988352 1_555
F10 V3 2.018017 1_555
F10 Li3 2.057389 1_555
F10 Li1 2.102923 1_655
F11 Li4 1.988829 1_564
F11 V1 2.017778 1_555
F11 Li2 2.057363 1_465
F11 Li0 2.102816 1_565
