# generated using pymatgen
data_Hg2P2H4O9
_symmetry_space_group_name_H-M   'P 1'
_cell_length_a   7.04463600
_cell_length_b   7.54475643
_cell_length_c   8.10762811
_cell_angle_alpha   84.91393930
_cell_angle_beta   75.12871583
_cell_angle_gamma   73.57107620
_symmetry_Int_Tables_number   1
_chemical_formula_structural   Hg2P2H4O9
_chemical_formula_sum   'Hg4 P4 H8 O18'
_cell_volume   399.42256239
_cell_formula_units_Z   2
loop_
 _symmetry_equiv_pos_site_id
 _symmetry_equiv_pos_as_xyz
  1  'x, y, z'
loop_
 _atom_site_type_symbol
 _atom_site_label
 _atom_site_symmetry_multiplicity
 _atom_site_fract_x
 _atom_site_fract_y
 _atom_site_fract_z
 _atom_site_occupancy
  Hg  Hg0  1  0.18931900  0.23093600  0.52132700  1
  Hg  Hg1  1  0.26373700  0.63579800  0.75469900  1
  Hg  Hg2  1  0.73626300  0.36420200  0.24530100  1
  Hg  Hg3  1  0.81068100  0.76906400  0.47867300  1
  P  P0  1  0.22262100  0.53645100  0.18807700  1
  P  P1  1  0.33079700  0.79554200  0.36157800  1
  P  P2  1  0.66920300  0.20445800  0.63842200  1
  P  P3  1  0.77737900  0.46354900  0.81192300  1
  H  H0  1  0.17757200  0.10303400  0.14448600  1
  H  H1  1  0.16663000  0.27039800  0.01414300  1
  H  H2  1  0.20134200  0.02961100  0.87020900  1
  H  H3  1  0.58306500  0.02481000  0.26126600  1
  H  H4  1  0.41693500  0.97519000  0.73873400  1
  H  H5  1  0.79865800  0.97038900  0.12979100  1
  H  H6  1  0.83337000  0.72960200  0.98585700  1
  H  H7  1  0.82242800  0.89696600  0.85551400  1
  O  O0  1  0.11051700  0.16322200  0.05303300  1
  O  O1  1  0.00768900  0.43093100  0.72758600  1
  O  O2  1  0.31222500  0.00410700  0.32248200  1
  O  O3  1  0.16441600  0.75934300  0.51800400  1
  O  O4  1  0.27584800  0.73245600  0.19582700  1
  O  O5  1  0.35730500  0.39020100  0.28394700  1
  O  O6  1  0.26902800  0.48653800  0.00047200  1
  O  O7  1  0.45386800  0.31256400  0.63063700  1
  O  O8  1  0.72782700  0.02500400  0.24505500  1
  O  O9  1  0.27217300  0.97499600  0.75494500  1
  O  O10  1  0.54613200  0.68743600  0.36936300  1
  O  O11  1  0.73097200  0.51346200  0.99952800  1
  O  O12  1  0.64269500  0.60979900  0.71605300  1
  O  O13  1  0.72415200  0.26754400  0.80417300  1
  O  O14  1  0.83558400  0.24065700  0.48199600  1
  O  O15  1  0.68777500  0.99589300  0.67751800  1
  O  O16  1  0.99231100  0.56906900  0.27241400  1
  O  O17  1  0.88948300  0.83677800  0.94696700  1
loop_
_geom_bond_atom_site_label_1
_geom_bond_atom_site_label_2
_geom_bond_distance
_geom_bond_site_symmetry_2
Hg0 O1 2.228783 1_555
Hg0 O2 2.282991 1_555
Hg0 O5 2.402834 1_555
Hg0 O7 2.496338 1_555
Hg0 O14 2.572383 1_455
Hg0 O9 2.634098 1_545
Hg1 O6 2.203786 1_556
Hg1 O3 2.245938 1_555
Hg1 O12 2.559074 1_555
Hg1 O9 2.576793 1_555
Hg1 O7 2.578532 1_555
Hg2 O11 2.203786 1_554
Hg2 O14 2.245938 1_555
Hg2 O5 2.559074 1_555
Hg2 O8 2.576793 1_555
Hg2 O10 2.578532 1_555
Hg3 O16 2.228783 1_555
Hg3 O15 2.282991 1_555
Hg3 O12 2.402834 1_555
Hg3 O10 2.496338 1_555
Hg3 O3 2.572383 1_655
Hg3 O8 2.634098 1_565
H0 O0 0.988874 1_555
H1 O0 0.990536 1_555
H2 O9 1.002354 1_545
H3 O8 0.994621 1_555
H4 O9 0.994621 1_555
H5 O8 1.002354 1_565
H6 O17 0.990536 1_555
H7 O17 0.988874 1_555
O1 P3 1.547576 1_455
O2 P1 1.552455 1_545
O3 P1 1.553538 1_555
O4 P1 1.633082 1_555
O4 P0 1.635130 1_555
O5 P0 1.534993 1_555
O6 P0 1.529349 1_555
O7 P2 1.520049 1_555
O10 P1 1.520049 1_555
O11 P3 1.529349 1_555
O12 P3 1.534993 1_555
O13 P2 1.633082 1_555
O13 P3 1.635130 1_555
O14 P2 1.553538 1_555
O15 P2 1.552455 1_565
O16 P0 1.547576 1_655
