# generated using pymatgen
data_Na2YPCO7
_symmetry_space_group_name_H-M   'P 1'
_cell_length_a   7.00359700
_cell_length_b   5.22591700
_cell_length_c   9.28664862
_cell_angle_alpha   89.31917059
_cell_angle_beta   90.00000000
_cell_angle_gamma   90.00000000
_symmetry_Int_Tables_number   1
_chemical_formula_structural   Na2YPCO7
_chemical_formula_sum   'Na4 Y2 P2 C2 O14'
_cell_volume   339.86935536
_cell_formula_units_Z   2
loop_
 _symmetry_equiv_pos_site_id
 _symmetry_equiv_pos_as_xyz
  1  'x, y, z'
loop_
 _atom_site_type_symbol
 _atom_site_label
 _atom_site_symmetry_multiplicity
 _atom_site_fract_x
 _atom_site_fract_y
 _atom_site_fract_z
 _atom_site_occupancy
  Na  Na0  1  0.49983900  0.23115800  0.79225200  1
  Na  Na1  1  0.00016100  0.23115800  0.79225200  1
  Na  Na2  1  0.50016100  0.76884200  0.20774800  1
  Na  Na3  1  0.99983900  0.76884200  0.20774800  1
  Y  Y0  1  0.75000000  0.77625100  0.62986200  1
  Y  Y1  1  0.25000000  0.22374900  0.37013800  1
  P  P0  1  0.25000000  0.70536000  0.58246300  1
  P  P1  1  0.75000000  0.29464000  0.41753700  1
  C  C0  1  0.75000000  0.73108800  0.92767500  1
  C  C1  1  0.25000000  0.26891200  0.07232500  1
  O  O0  1  0.25000000  0.29978600  0.93768400  1
  O  O1  1  0.75000000  0.95746900  0.86411100  1
  O  O2  1  0.75000000  0.53579100  0.83754500  1
  O  O3  1  0.06896700  0.81729400  0.65268200  1
  O  O4  1  0.43103300  0.81729400  0.65268200  1
  O  O5  1  0.75000000  0.22431800  0.58348900  1
  O  O6  1  0.25000000  0.40649600  0.59330800  1
  O  O7  1  0.75000000  0.59350400  0.40669200  1
  O  O8  1  0.25000000  0.77568200  0.41651100  1
  O  O9  1  0.56896700  0.18270600  0.34731800  1
  O  O10  1  0.93103300  0.18270600  0.34731800  1
  O  O11  1  0.25000000  0.46420900  0.16245500  1
  O  O12  1  0.25000000  0.04253100  0.13588900  1
  O  O13  1  0.75000000  0.70021400  0.06231600  1
loop_
_geom_bond_atom_site_label_1
_geom_bond_atom_site_label_2
_geom_bond_distance
_geom_bond_site_symmetry_2
Na0 O0 2.241850 1_555
Na0 O1 2.353281 1_545
Na0 O2 2.407666 1_555
Na0 O4 2.580038 1_545
Na0 O5 2.613640 1_555
Na0 O6 2.697113 1_555
Na1 O0 2.241850 1_555
Na1 O1 2.353281 1_445
Na1 O2 2.407666 1_455
Na1 O3 2.580038 1_545
Na1 O5 2.613640 1_455
Na1 O6 2.697113 1_555
Na2 O13 2.241850 1_555
Na2 O12 2.353281 1_565
Na2 O11 2.407666 1_555
Na2 O9 2.580038 1_565
Na2 O8 2.613640 1_555
Na2 O7 2.697113 1_555
Na3 O13 2.241850 1_555
Na3 O12 2.353281 1_665
Na3 O11 2.407666 1_655
Na3 O10 2.580038 1_565
Na3 O8 2.613640 1_655
Na3 O7 2.697113 1_555
C0 O13 1.258828 1_556
C0 O1 1.315848 1_555
C0 O2 1.327598 1_555
C1 O0 1.258828 1_554
C1 O12 1.315848 1_555
C1 O11 1.327598 1_555
O1 Y0 2.382885 1_555
O2 Y0 2.289391 1_555
O3 P0 1.544020 1_555
O3 Y0 2.254413 1_455
O4 P0 1.544020 1_555
O4 Y0 2.254413 1_555
O5 P1 1.580095 1_555
O5 Y0 2.375795 1_545
O6 P0 1.563888 1_555
O6 Y1 2.292240 1_555
O7 P1 1.563888 1_555
O7 Y0 2.292240 1_555
O8 P0 1.580095 1_555
O8 Y1 2.375795 1_565
O9 P1 1.544020 1_555
O9 Y1 2.254413 1_555
O10 P1 1.544020 1_555
O10 Y1 2.254413 1_655
O11 Y1 2.289391 1_555
O12 Y1 2.382885 1_555
