# generated using pymatgen
data_Li3VCr3O8
_symmetry_space_group_name_H-M   'P 1'
_cell_length_a   5.93850538
_cell_length_b   5.93850538
_cell_length_c   5.94832170
_cell_angle_alpha   60.37731781
_cell_angle_beta   60.37731781
_cell_angle_gamma   59.16863471
_symmetry_Int_Tables_number   1
_chemical_formula_structural   Li3VCr3O8
_chemical_formula_sum   'Li3 V1 Cr3 O8'
_cell_volume   148.20193513
_cell_formula_units_Z   1
loop_
 _symmetry_equiv_pos_site_id
 _symmetry_equiv_pos_as_xyz
  1  'x, y, z'
loop_
 _atom_site_type_symbol
 _atom_site_label
 _atom_site_symmetry_multiplicity
 _atom_site_fract_x
 _atom_site_fract_y
 _atom_site_fract_z
 _atom_site_occupancy
  Li  Li0  1  0.50000000  0.50000000  0.50000000  1
  Li  Li1  1  0.50000000  0.00000000  0.50000000  1
  Li  Li2  1  0.00000000  0.50000000  0.50000000  1
  V  V0  1  0.00000000  0.00000000  0.00000000  1
  Cr  Cr0  1  0.50000000  0.50000000  0.00000000  1
  Cr  Cr1  1  0.00000000  0.50000000  0.00000000  1
  Cr  Cr2  1  0.50000000  0.00000000  0.00000000  1
  O  O0  1  0.73339700  0.73339700  0.78592800  1
  O  O1  1  0.74547100  0.23446700  0.78387600  1
  O  O2  1  0.23446700  0.74547100  0.78387600  1
  O  O3  1  0.76185400  0.76185400  0.22491900  1
  O  O4  1  0.23814600  0.23814600  0.77508100  1
  O  O5  1  0.76553300  0.25452900  0.21612400  1
  O  O6  1  0.25452900  0.76553300  0.21612400  1
  O  O7  1  0.26660300  0.26660300  0.21407200  1
loop_
_geom_bond_atom_site_label_1
_geom_bond_atom_site_label_2
_geom_bond_distance
_geom_bond_site_symmetry_2
Li0 O2 2.215347 1_555
Li0 O1 2.215347 1_555
Li0 O5 2.215347 1_555
Li0 O6 2.215347 1_555
Li0 O3 2.227432 1_555
Li0 O4 2.227432 1_555
Li1 O4 2.147926 1_555
Li1 O3 2.147926 1_545
Li1 O0 2.177040 1_545
Li1 O7 2.177040 1_555
Li1 O5 2.215906 1_555
Li1 O2 2.215906 1_545
Li2 O4 2.147926 1_555
Li2 O3 2.147926 1_455
Li2 O0 2.177040 1_455
Li2 O7 2.177040 1_555
Li2 O6 2.215906 1_555
Li2 O1 2.215906 1_455
Cr0 O0 1.985765 1_554
Cr0 O7 1.985765 1_555
Cr0 O5 2.014803 1_555
Cr0 O6 2.014803 1_555
Cr0 O1 2.014803 1_554
Cr0 O2 2.014803 1_554
Cr1 O7 2.011980 1_555
Cr1 O0 2.011980 1_454
Cr1 O3 2.034725 1_455
Cr1 O4 2.034725 1_554
Cr1 O2 2.043225 1_554
Cr1 O5 2.043225 1_455
Cr2 O7 2.011980 1_555
Cr2 O0 2.011980 1_544
Cr2 O3 2.034725 1_545
Cr2 O4 2.034725 1_554
Cr2 O1 2.043225 1_554
Cr2 O6 2.043225 1_545
O1 V0 1.967297 1_656
O2 V0 1.967297 1_566
O3 V0 2.024655 1_665
O4 V0 2.024655 1_556
O5 V0 1.967297 1_655
O6 V0 1.967297 1_565
