# generated using pymatgen
data_Li4Ni3O3F4
_symmetry_space_group_name_H-M   'P 1'
_cell_length_a   14.67827860
_cell_length_b   14.67827860
_cell_length_c   14.67827860
_cell_angle_alpha   168.49522376
_cell_angle_beta   168.49522376
_cell_angle_gamma   16.29778055
_symmetry_Int_Tables_number   1
_chemical_formula_structural   Li4Ni3O3F4
_chemical_formula_sum   'Li4 Ni3 O3 F4'
_cell_volume   125.79675803
_cell_formula_units_Z   1
loop_
 _symmetry_equiv_pos_site_id
 _symmetry_equiv_pos_as_xyz
  1  'x, y, z'
loop_
 _atom_site_type_symbol
 _atom_site_label
 _atom_site_symmetry_multiplicity
 _atom_site_fract_x
 _atom_site_fract_y
 _atom_site_fract_z
 _atom_site_occupancy
  Li  Li0  1  0.35506400  0.35506400  0.00000000  1
  Li  Li1  1  0.64493600  0.64493600  0.00000000  1
  Li  Li2  1  0.21583000  0.21583000  0.00000000  1
  Li  Li3  1  0.78417000  0.78417000  0.00000000  1
  Ni  Ni0  1  0.92784700  0.92784700  0.00000000  1
  Ni  Ni1  1  0.50000000  0.50000000  0.00000000  1
  Ni  Ni2  1  0.07215300  0.07215300  0.00000000  1
  O  O0  1  0.42677100  0.42677100  0.00000000  1
  O  O1  1  0.00000000  0.00000000  0.00000000  1
  O  O2  1  0.57322900  0.57322900  0.00000000  1
  F  F0  1  0.85326000  0.85326000  0.00000000  1
  F  F1  1  0.14674000  0.14674000  0.00000000  1
  F  F2  1  0.71536800  0.71536800  0.00000000  1
  F  F3  1  0.28463300  0.28463300  0.00000000  1
loop_
_geom_bond_atom_site_label_1
_geom_bond_atom_site_label_2
_geom_bond_distance
_geom_bond_site_symmetry_2
Li0 O0 2.083816 1_555
Li1 O2 2.083816 1_555
Ni0 O0 2.080822 1_666
Ni0 O0 2.080822 1_554
Ni0 O0 2.080822 1_565
Ni0 O0 2.080822 1_655
Ni0 O1 2.096777 1_665
Ni1 O1 2.080587 1_666
Ni1 O1 2.080587 1_565
Ni1 O1 2.080587 1_554
Ni1 O1 2.080587 1_655
Ni1 O2 2.128045 1_555
Ni1 O0 2.128045 1_555
Ni2 O2 2.080822 1_444
Ni2 O2 2.080822 1_545
Ni2 O2 2.080822 1_455
Ni2 O2 2.080822 1_556
Ni2 O1 2.096777 1_555
F0 Li3 2.007765 1_555
F0 Li0 2.081247 1_554
F0 Li0 2.081247 1_666
F0 Li0 2.081247 1_655
F0 Li0 2.081247 1_565
F0 Ni0 2.167509 1_555
F1 Li2 2.007765 1_555
F1 Li1 2.081247 1_455
F1 Li1 2.081247 1_556
F1 Li1 2.081247 1_444
F1 Li1 2.081247 1_545
F1 Ni2 2.167509 1_555
F2 Li3 1.999396 1_555
F2 Li1 2.046764 1_555
F2 Li2 2.080630 1_565
F2 Li2 2.080630 1_655
F2 Li2 2.080630 1_666
F2 Li2 2.080630 1_554
F3 Li2 1.999425 1_555
F3 Li0 2.046735 1_555
F3 Li3 2.080630 1_444
F3 Li3 2.080630 1_455
F3 Li3 2.080630 1_545
F3 Li3 2.080630 1_556
