# generated using pymatgen
data_NaY3SiS7
_symmetry_space_group_name_H-M   'P 1'
_cell_length_a   9.98512533
_cell_length_b   9.98512533
_cell_length_c   5.75609700
_cell_angle_alpha   90.00000000
_cell_angle_beta   90.00000000
_cell_angle_gamma   119.99999555
_symmetry_Int_Tables_number   1
_chemical_formula_structural   NaY3SiS7
_chemical_formula_sum   'Na2 Y6 Si2 S14'
_cell_volume   497.01076525
_cell_formula_units_Z   2
loop_
 _symmetry_equiv_pos_site_id
 _symmetry_equiv_pos_as_xyz
  1  'x, y, z'
loop_
 _atom_site_type_symbol
 _atom_site_label
 _atom_site_symmetry_multiplicity
 _atom_site_fract_x
 _atom_site_fract_y
 _atom_site_fract_z
 _atom_site_occupancy
  Na  Na0  1  0.00000000  0.00000000  0.03791400  1
  Na  Na1  1  0.00000000  0.00000000  0.53791400  1
  Y  Y0  1  0.13109800  0.76888100  0.75376700  1
  Y  Y1  1  0.36221700  0.13109800  0.25376700  1
  Y  Y2  1  0.23111900  0.36221700  0.75376700  1
  Y  Y3  1  0.63778300  0.86890200  0.75376700  1
  Y  Y4  1  0.76888100  0.63778300  0.25376700  1
  Y  Y5  1  0.86890200  0.23111900  0.25376700  1
  Si  Si0  1  0.66666700  0.33333300  0.66613800  1
  Si  Si1  1  0.33333300  0.66666700  0.16613800  1
  S  S0  1  0.09731200  0.83468700  0.29081200  1
  S  S1  1  0.73737500  0.90268800  0.29081200  1
  S  S2  1  0.83468700  0.73737500  0.79081200  1
  S  S3  1  0.90268800  0.16531300  0.79081200  1
  S  S4  1  0.52257400  0.41387400  0.51497500  1
  S  S5  1  0.16531300  0.26262500  0.29081200  1
  S  S6  1  0.33333300  0.66666700  0.53468400  1
  S  S7  1  0.66666700  0.33333300  0.03468400  1
  S  S8  1  0.41387400  0.89129900  0.01497500  1
  S  S9  1  0.10870100  0.52257400  0.01497500  1
  S  S10  1  0.47742600  0.58612600  0.01497500  1
  S  S11  1  0.58612600  0.10870100  0.51497500  1
  S  S12  1  0.89129900  0.47742600  0.51497500  1
  S  S13  1  0.26262500  0.09731200  0.79081200  1
loop_
_geom_bond_atom_site_label_1
_geom_bond_atom_site_label_2
_geom_bond_distance
_geom_bond_site_symmetry_2
Na0 S3 2.701080 1_454
Na0 S13 2.701080 1_554
Na0 S2 2.701080 1_444
Na0 S0 2.718796 1_545
Na0 S1 2.718796 1_445
Na0 S5 2.718796 1_555
Na1 S0 2.701080 1_545
Na1 S1 2.701080 1_445
Na1 S5 2.701080 1_555
Na1 S3 2.718796 1_455
Na1 S13 2.718796 1_555
Na1 S2 2.718796 1_445
S0 Y0 2.805079 1_555
S0 Y1 2.823680 1_565
S0 Y4 2.866701 1_455
S0 Y0 3.212984 1_554
S1 Y3 2.805079 1_555
S1 Y4 2.823680 1_555
S1 Y5 2.866701 1_565
S1 Y3 3.212984 1_554
S2 Y4 2.805079 1_556
S2 Y0 2.823680 1_655
S2 Y3 2.866701 1_555
S2 Y4 3.212984 1_555
S3 Y5 2.805079 1_556
S3 Y3 2.823680 1_545
S3 Y2 2.866701 1_655
S3 Y5 3.212984 1_555
S4 Si0 2.151986 1_555
S4 Y4 2.794510 1_555
S4 Y1 2.876777 1_555
S4 Y2 3.020527 1_555
S5 Y2 2.805079 1_555
S5 Y5 2.823680 1_455
S5 Y1 2.866701 1_555
S5 Y2 3.212984 1_554
S6 Si1 2.121387 1_555
S6 Y0 2.961531 1_555
S6 Y3 2.961538 1_555
S6 Y2 2.961540 1_555
S7 Si0 2.121387 1_554
S7 Y5 2.961531 1_555
S7 Y1 2.961538 1_555
S7 Y4 2.961540 1_555
S8 Si1 2.151969 1_555
S8 Y3 2.794505 1_554
S8 Y0 2.876778 1_554
S8 Y1 3.020536 1_565
S9 Si1 2.151972 1_555
S9 Y0 2.794514 1_554
S9 Y2 2.876770 1_554
S9 Y5 3.020531 1_455
S10 Si1 2.151986 1_555
S10 Y2 2.794510 1_554
S10 Y3 2.876777 1_554
S10 Y4 3.020527 1_555
S11 Si0 2.151969 1_555
S11 Y1 2.794505 1_555
S11 Y5 2.876778 1_555
S11 Y3 3.020536 1_545
S12 Si0 2.151972 1_555
S12 Y5 2.794514 1_555
S12 Y4 2.876770 1_555
S12 Y0 3.020531 1_655
S13 Y1 2.805079 1_556
S13 Y2 2.823680 1_555
S13 Y0 2.866701 1_545
S13 Y1 3.212984 1_555
