# generated using pymatgen
data_Li8Fe3Sn(PO4)6
_symmetry_space_group_name_H-M   'P 1'
_cell_length_a   8.85076992
_cell_length_b   8.85076992
_cell_length_c   8.85077108
_cell_angle_alpha   61.67365277
_cell_angle_beta   61.67365277
_cell_angle_gamma   61.67365178
_symmetry_Int_Tables_number   1
_chemical_formula_structural   Li8Fe3Sn(PO4)6
_chemical_formula_sum   'Li8 Fe3 Sn1 P6 O24'
_cell_volume   508.65819606
_cell_formula_units_Z   1
loop_
 _symmetry_equiv_pos_site_id
 _symmetry_equiv_pos_as_xyz
  1  'x, y, z'
loop_
 _atom_site_type_symbol
 _atom_site_label
 _atom_site_symmetry_multiplicity
 _atom_site_fract_x
 _atom_site_fract_y
 _atom_site_fract_z
 _atom_site_occupancy
  Li  Li0  1  0.64427300  0.23750600  0.79804800  1
  Li  Li1  1  0.96928400  0.96928400  0.96928400  1
  Li  Li2  1  0.23750600  0.79804800  0.64427300  1
  Li  Li3  1  0.79804800  0.64427300  0.23750600  1
  Li  Li4  1  0.14302400  0.30885400  0.72001400  1
  Li  Li5  1  0.47512000  0.47512000  0.47512000  1
  Li  Li6  1  0.72001400  0.14302400  0.30885400  1
  Li  Li7  1  0.30885400  0.72001400  0.14302400  1
  Fe  Fe0  1  0.84507100  0.84507100  0.84507100  1
  Fe  Fe1  1  0.34595900  0.34595900  0.34595900  1
  Fe  Fe2  1  0.64641500  0.64641500  0.64641500  1
  Sn  Sn0  1  0.14499200  0.14499200  0.14499200  1
  P  P0  1  0.54905400  0.94998300  0.25038600  1
  P  P1  1  0.25038600  0.54905400  0.94998300  1
  P  P2  1  0.94998300  0.25038600  0.54905400  1
  P  P3  1  0.05145100  0.75021800  0.45295400  1
  P  P4  1  0.75021800  0.45295400  0.05145100  1
  P  P5  1  0.45295400  0.05145100  0.75021800  1
  O  O0  1  0.73174700  0.92176900  0.09308000  1
  O  O1  1  0.52620700  0.10422000  0.30156300  1
  O  O2  1  0.55902500  0.76586900  0.40656300  1
  O  O3  1  0.30156300  0.52620700  0.10422000  1
  O  O4  1  0.40656300  0.55902500  0.76586900  1
  O  O5  1  0.10422000  0.30156300  0.52620700  1
  O  O6  1  0.38555700  0.99474400  0.19471800  1
  O  O7  1  0.09308000  0.73174700  0.92176900  1
  O  O8  1  0.19471800  0.38555700  0.99474400  1
  O  O9  1  0.92176900  0.09308000  0.73174700  1
  O  O10  1  0.99474400  0.19471800  0.38555700  1
  O  O11  1  0.76586900  0.40656300  0.55902500  1
  O  O12  1  0.23612000  0.59662800  0.41979400  1
  O  O13  1  0.03403400  0.80709000  0.60131800  1
  O  O14  1  0.07277000  0.90881800  0.25913700  1
  O  O15  1  0.80709000  0.60131800  0.03403400  1
  O  O16  1  0.90881800  0.25913700  0.07277000  1
  O  O17  1  0.60131800  0.03403400  0.80709000  1
  O  O18  1  0.88795500  0.70519400  0.49139700  1
  O  O19  1  0.59662800  0.41979400  0.23612000  1
  O  O20  1  0.70519400  0.49139700  0.88795500  1
  O  O21  1  0.41979400  0.23612000  0.59662800  1
  O  O22  1  0.49139700  0.88795500  0.70519400  1
  O  O23  1  0.25913700  0.07277000  0.90881800  1
loop_
_geom_bond_atom_site_label_1
_geom_bond_atom_site_label_2
_geom_bond_distance
_geom_bond_site_symmetry_2
Li0 O17 1.969321 1_555
Li0 O11 2.058202 1_555
Li0 O9 2.091724 1_555
Li0 O4 2.592948 1_555
Li1 O0 2.003280 1_556
Li1 O7 2.003280 1_655
Li1 O9 2.003281 1_565
Li2 O13 1.969321 1_555
Li2 O4 2.058202 1_555
Li2 O7 2.091724 1_555
Li2 O2 2.592948 1_555
Li3 O15 1.969321 1_555
Li3 O2 2.058202 1_555
Li3 O0 2.091724 1_555
Li3 O11 2.592948 1_555
Li4 O5 1.936405 1_555
Li4 O21 2.059044 1_555
Li4 O23 2.119669 1_555
Li5 O21 2.048260 1_555
Li5 O12 2.048260 1_555
Li5 O19 2.048260 1_555
Li6 O1 1.936405 1_555
Li6 O19 2.059044 1_555
Li6 O16 2.119669 1_555
Li7 O3 1.936405 1_555
Li7 O12 2.059044 1_555
Li7 O14 2.119669 1_555
Fe0 O17 2.072467 1_565
Fe0 O15 2.072467 1_556
Fe0 O13 2.072467 1_655
Fe0 O9 2.227949 1_565
Fe0 O7 2.227949 1_655
Fe0 O0 2.227950 1_556
Fe1 O1 2.059372 1_555
Fe1 O5 2.059372 1_555
Fe1 O3 2.059372 1_555
Fe1 O19 2.240665 1_555
Fe1 O12 2.240665 1_555
Fe1 O21 2.240666 1_555
Fe2 O22 2.077961 1_555
Fe2 O18 2.077961 1_555
Fe2 O20 2.077961 1_555
Fe2 O4 2.207915 1_555
Fe2 O11 2.207915 1_555
Fe2 O2 2.207916 1_555
O0 P0 1.557474 1_555
O1 P0 1.532159 1_545
O2 P0 1.554231 1_555
O3 P1 1.532159 1_554
O4 P1 1.554231 1_555
O5 P2 1.532159 1_455
O6 P0 1.562390 1_555
O6 Sn0 2.035294 1_565
O7 P1 1.557473 1_555
O8 P1 1.562390 1_555
O8 Sn0 2.035294 1_556
O9 P2 1.557474 1_555
O10 P2 1.562390 1_555
O10 Sn0 2.035295 1_655
O11 P2 1.554231 1_555
O12 P3 1.555766 1_555
O13 P3 1.537201 1_555
O14 P3 1.614866 1_555
O14 Sn0 2.109456 1_565
O15 P4 1.537201 1_555
O16 P4 1.614866 1_555
O16 Sn0 2.109456 1_655
O17 P5 1.537201 1_555
O18 P3 1.523117 1_655
O19 P4 1.555766 1_555
O20 P4 1.523117 1_556
O21 P5 1.555766 1_555
O22 P5 1.523117 1_565
O23 P5 1.614866 1_555
O23 Sn0 2.109456 1_556
