# generated using pymatgen
data_Fe4O7F
_symmetry_space_group_name_H-M   'P 1'
_cell_length_a   4.64245400
_cell_length_b   7.57072300
_cell_length_c   7.58780357
_cell_angle_alpha   75.64486135
_cell_angle_beta   90.00000000
_cell_angle_gamma   90.00000000
_symmetry_Int_Tables_number   1
_chemical_formula_structural   Fe4O7F
_chemical_formula_sum   'Fe8 O14 F2'
_cell_volume   258.35991075
_cell_formula_units_Z   2
loop_
 _symmetry_equiv_pos_site_id
 _symmetry_equiv_pos_as_xyz
  1  'x, y, z'
loop_
 _atom_site_type_symbol
 _atom_site_label
 _atom_site_symmetry_multiplicity
 _atom_site_fract_x
 _atom_site_fract_y
 _atom_site_fract_z
 _atom_site_occupancy
  Fe  Fe0  1  0.48439200  0.68742700  0.42688500  1
  Fe  Fe1  1  0.52338900  0.44296000  0.18234500  1
  Fe  Fe2  1  0.48996600  0.95155200  0.68367500  1
  Fe  Fe3  1  0.50075700  0.18532200  0.94257900  1
  Fe  Fe4  1  0.02338900  0.55704000  0.81765500  1
  Fe  Fe5  1  0.00075700  0.81467800  0.05742100  1
  Fe  Fe6  1  0.98996600  0.04844800  0.31632500  1
  Fe  Fe7  1  0.98439200  0.31257300  0.57311500  1
  O  O0  1  0.80544600  0.35103300  0.79241400  1
  O  O1  1  0.80172800  0.83144600  0.27866800  1
  O  O2  1  0.81618400  0.59659500  0.02461400  1
  O  O3  1  0.80858200  0.09085200  0.53431000  1
  O  O4  1  0.69314800  0.46288500  0.40665500  1
  O  O5  1  0.69250300  0.21500500  0.16378400  1
  O  O6  1  0.68793100  0.97334400  0.90658800  1
  O  O7  1  0.31618400  0.40340500  0.97538600  1
  O  O8  1  0.30544600  0.64896700  0.20758600  1
  O  O9  1  0.30172800  0.16855400  0.72133200  1
  O  O10  1  0.30858200  0.90914800  0.46569000  1
  O  O11  1  0.19250300  0.78499500  0.83621600  1
  O  O12  1  0.19314800  0.53711500  0.59334500  1
  O  O13  1  0.18793100  0.02665600  0.09341200  1
  F  F0  1  0.69597400  0.71822100  0.65665700  1
  F  F1  1  0.19597400  0.28177900  0.34334300  1
loop_
_geom_bond_atom_site_label_1
_geom_bond_atom_site_label_2
_geom_bond_distance
_geom_bond_site_symmetry_2
Fe0 O8 1.945266 1_555
Fe0 O10 1.953357 1_555
Fe0 O4 1.995495 1_555
Fe0 O12 2.001432 1_555
Fe0 O1 2.003987 1_555
Fe1 O8 1.908124 1_555
Fe1 O4 1.915212 1_555
Fe1 O7 1.927235 1_554
Fe1 O5 1.932634 1_555
Fe1 O2 1.985613 1_555
Fe2 O9 1.943473 1_565
Fe2 O10 1.952240 1_555
Fe2 O6 1.967520 1_555
Fe2 O3 1.997977 1_565
Fe2 O11 2.028063 1_555
Fe3 O6 1.903270 1_545
Fe3 O7 1.930272 1_555
Fe3 O9 1.947777 1_555
Fe3 O5 1.961420 1_556
Fe3 O0 2.040635 1_555
Fe3 O13 2.044553 1_556
Fe4 O0 1.908124 1_455
Fe4 O12 1.915212 1_555
Fe4 O2 1.927235 1_456
Fe4 O11 1.932634 1_555
Fe4 O7 1.985613 1_555
Fe5 O13 1.903270 1_565
Fe5 O2 1.930272 1_455
Fe5 O1 1.947777 1_455
Fe5 O11 1.961420 1_554
Fe5 O8 2.040635 1_555
Fe5 O6 2.044553 1_454
Fe6 O1 1.943473 1_545
Fe6 O3 1.952240 1_555
Fe6 O13 1.967520 1_655
Fe6 O10 1.997977 1_645
Fe6 O5 2.028063 1_555
Fe7 O0 1.945266 1_555
Fe7 O3 1.953357 1_555
Fe7 O12 1.995495 1_655
Fe7 O4 2.001432 1_555
Fe7 O9 2.003987 1_655
F0 Fe2 2.063186 1_555
F0 Fe0 2.064074 1_555
F0 Fe4 2.133690 1_655
F1 Fe6 2.063186 1_455
F1 Fe7 2.064074 1_455
F1 Fe1 2.133690 1_555
