# generated using pymatgen
data_Li7CuO4
_symmetry_space_group_name_H-M   'P 1'
_cell_length_a   6.68673800
_cell_length_b   6.68673800
_cell_length_c   4.73103000
_cell_angle_alpha   90.00000000
_cell_angle_beta   90.00000000
_cell_angle_gamma   90.00000000
_symmetry_Int_Tables_number   1
_chemical_formula_structural   Li7CuO4
_chemical_formula_sum   'Li14 Cu2 O8'
_cell_volume   211.53601367
_cell_formula_units_Z   2
loop_
 _symmetry_equiv_pos_site_id
 _symmetry_equiv_pos_as_xyz
  1  'x, y, z'
loop_
 _atom_site_type_symbol
 _atom_site_label
 _atom_site_symmetry_multiplicity
 _atom_site_fract_x
 _atom_site_fract_y
 _atom_site_fract_z
 _atom_site_occupancy
  Li  Li0  1  0.75133100  0.75133100  0.00000000  1
  Li  Li1  1  0.24866900  0.75133100  0.00000000  1
  Li  Li2  1  0.50000000  0.00000000  0.50979300  1
  Li  Li3  1  0.00000000  0.00000000  0.00000000  1
  Li  Li4  1  0.50000000  0.00000000  0.00979300  1
  Li  Li5  1  0.75133100  0.24866900  0.00000000  1
  Li  Li6  1  0.24866900  0.24866900  0.00000000  1
  Li  Li7  1  0.25133100  0.25133100  0.50000000  1
  Li  Li8  1  0.74866900  0.25133100  0.50000000  1
  Li  Li9  1  0.00000000  0.50000000  0.49020700  1
  Li  Li10  1  0.50000000  0.50000000  0.50000000  1
  Li  Li11  1  0.00000000  0.50000000  0.99020700  1
  Li  Li12  1  0.25133100  0.74866900  0.50000000  1
  Li  Li13  1  0.74866900  0.74866900  0.50000000  1
  Cu  Cu0  1  0.00000000  0.00000000  0.50000000  1
  Cu  Cu1  1  0.50000000  0.50000000  0.00000000  1
  O  O0  1  0.50000000  0.75855400  0.26229100  1
  O  O1  1  0.74144600  0.00000000  0.76229100  1
  O  O2  1  0.25855400  0.00000000  0.76229100  1
  O  O3  1  0.50000000  0.24144600  0.26229100  1
  O  O4  1  0.00000000  0.25855400  0.23770900  1
  O  O5  1  0.24144600  0.50000000  0.73770900  1
  O  O6  1  0.75855400  0.50000000  0.73770900  1
  O  O7  1  0.00000000  0.74144600  0.23770900  1
loop_
_geom_bond_atom_site_label_1
_geom_bond_atom_site_label_2
_geom_bond_distance
_geom_bond_site_symmetry_2
Li0 O7 2.008473 1_655
Li0 O1 2.008473 1_564
Li0 O6 2.089628 1_554
Li0 O0 2.089628 1_555
Li1 O7 2.008473 1_555
Li1 O2 2.008473 1_564
Li1 O0 2.089628 1_555
Li1 O5 2.089628 1_554
Li2 O3 1.994408 1_555
Li2 O0 1.994408 1_545
Li2 O1 2.008377 1_555
Li2 O2 2.008377 1_555
Li3 O4 2.062469 1_555
Li3 O2 2.062469 1_554
Li3 O7 2.062469 1_545
Li3 O1 2.062469 1_454
Li4 O1 1.994408 1_554
Li4 O2 1.994408 1_554
Li4 O3 2.008377 1_555
Li4 O0 2.008377 1_545
Li5 O4 2.008473 1_655
Li5 O1 2.008473 1_554
Li5 O6 2.089628 1_554
Li5 O3 2.089628 1_555
Li6 O4 2.008473 1_555
Li6 O2 2.008473 1_554
Li6 O3 2.089628 1_555
Li6 O5 2.089628 1_554
Li7 O3 2.008473 1_555
Li7 O5 2.008473 1_555
Li7 O2 2.089628 1_555
Li7 O4 2.089628 1_555
Li8 O3 2.008473 1_555
Li8 O6 2.008473 1_555
Li8 O1 2.089628 1_555
Li8 O4 2.089628 1_655
Li9 O5 1.994408 1_555
Li9 O6 1.994408 1_455
Li9 O7 2.008377 1_555
Li9 O4 2.008377 1_555
Li10 O6 2.062469 1_555
Li10 O5 2.062469 1_555
Li10 O0 2.062469 1_555
Li10 O3 2.062469 1_555
Li11 O7 1.994408 1_556
Li11 O4 1.994408 1_556
Li11 O6 2.008377 1_455
Li11 O5 2.008377 1_555
Li12 O5 2.008473 1_555
Li12 O0 2.008473 1_555
Li12 O7 2.089628 1_555
Li12 O2 2.089628 1_565
Li13 O6 2.008473 1_555
Li13 O0 2.008473 1_555
Li13 O1 2.089628 1_565
Li13 O7 2.089628 1_655
Cu0 O2 2.128118 1_555
Cu0 O4 2.128118 1_555
Cu0 O1 2.128118 1_455
Cu0 O7 2.128118 1_545
Cu0 Li3 2.365515 1_556
Cu0 Li3 2.365515 1_555
Cu0 Li7 2.376705 1_555
Cu0 Li12 2.376705 1_545
Cu0 Li8 2.376705 1_455
Cu0 Li13 2.376705 1_445
Cu1 O0 2.128118 1_555
Cu1 O3 2.128118 1_555
Cu1 O6 2.128118 1_554
Cu1 O5 2.128118 1_554
Cu1 Li10 2.365515 1_554
Cu1 Li10 2.365515 1_555
Cu1 Li1 2.376705 1_555
Cu1 Li6 2.376705 1_555
Cu1 Li0 2.376705 1_555
Cu1 Li5 2.376705 1_555
