# generated using pymatgen
data_Li4V3Cr2O10
_symmetry_space_group_name_H-M   'P 1'
_cell_length_a   5.13063700
_cell_length_b   5.15615823
_cell_length_c   7.84703594
_cell_angle_alpha   72.12691452
_cell_angle_beta   72.12246838
_cell_angle_gamma   79.78850535
_symmetry_Int_Tables_number   1
_chemical_formula_structural   Li4V3Cr2O10
_chemical_formula_sum   'Li4 V3 Cr2 O10'
_cell_volume   187.23791565
_cell_formula_units_Z   1
loop_
 _symmetry_equiv_pos_site_id
 _symmetry_equiv_pos_as_xyz
  1  'x, y, z'
loop_
 _atom_site_type_symbol
 _atom_site_label
 _atom_site_symmetry_multiplicity
 _atom_site_fract_x
 _atom_site_fract_y
 _atom_site_fract_z
 _atom_site_occupancy
  Li  Li0  1  0.50382100  0.77670300  0.43204500  1
  Li  Li1  1  0.97849800  0.49973500  0.50633100  1
  Li  Li2  1  0.48470300  0.38139500  0.23190600  1
  Li  Li3  1  0.49976700  0.20153100  0.58919700  1
  V  V0  1  0.49988700  0.99804500  0.99892200  1
  V  V1  1  0.99577300  0.31972800  0.88491000  1
  V  V2  1  0.00420600  0.69019600  0.10742600  1
  Cr  Cr0  1  0.01181600  0.89946400  0.68810600  1
  Cr  Cr1  1  0.99575900  0.09896500  0.30733200  1
  O  O0  1  0.22594200  0.97048100  0.86019000  1
  O  O1  1  0.77788900  0.66818300  0.94190300  1
  O  O2  1  0.77965200  0.87766400  0.53636100  1
  O  O3  1  0.25373300  0.76803900  0.22941700  1
  O  O4  1  0.21112700  0.53695500  0.67034900  1
  O  O5  1  0.77775300  0.45673400  0.32930000  1
  O  O6  1  0.76435300  0.22405100  0.77228100  1
  O  O7  1  0.23335300  0.13039700  0.45596100  1
  O  O8  1  0.22475300  0.32311900  0.05401700  1
  O  O9  1  0.76501800  0.05957000  0.13464500  1
loop_
_geom_bond_atom_site_label_1
_geom_bond_atom_site_label_2
_geom_bond_distance
_geom_bond_site_symmetry_2
Li0 O2 2.043973 1_555
Li0 O7 2.107045 1_565
Li0 O5 2.155415 1_555
Li0 O4 2.189806 1_555
Li0 O3 2.343734 1_555
Li0 O9 2.460271 1_565
Li1 O5 2.046515 1_555
Li1 O4 2.072158 1_655
Li1 O2 2.079184 1_555
Li1 O7 2.180456 1_655
Li1 O6 2.215411 1_555
Li1 O3 2.364994 1_655
Li2 O5 2.022477 1_555
Li2 O7 2.057212 1_555
Li2 O3 2.128793 1_555
Li2 O9 2.159102 1_555
Li2 O8 2.315211 1_555
Li2 O1 2.499884 1_554
Li3 O2 2.057126 1_545
Li3 O7 2.094397 1_555
Li3 O4 2.186020 1_555
Li3 O0 2.262555 1_545
Li3 O5 2.270957 1_555
Li3 O6 2.296949 1_555
Cr0 O2 1.962093 1_455
Cr0 O7 1.976199 1_565
Cr0 O4 1.988347 1_555
Cr0 O6 2.063867 1_465
Cr0 O1 2.100237 1_455
Cr0 O0 2.126363 1_555
Cr1 O2 1.930723 1_545
Cr1 O7 1.982792 1_655
Cr1 O5 2.007231 1_555
Cr1 O8 2.074804 1_655
Cr1 O3 2.092821 1_645
Cr1 O9 2.125595 1_555
O0 V1 1.998684 1_465
O0 V0 2.070269 1_555
O0 V2 2.157206 1_556
O1 V2 2.027658 1_656
O1 V1 2.037620 1_555
O1 V0 2.083876 1_555
O3 V2 1.971527 1_555
O3 V0 2.021088 1_554
O4 V1 1.857194 1_455
O5 V2 1.948767 1_655
O6 V1 1.885159 1_555
O6 V0 2.041796 1_545
O8 V1 2.029795 1_454
O8 V0 2.054306 1_544
O8 V2 2.115363 1_555
O9 V0 2.082107 1_544
O9 V2 2.106890 1_645
O9 V1 2.136928 1_554
