# generated using pymatgen
data_Fe2P4Pb3O16
_symmetry_space_group_name_H-M   'P 1'
_cell_length_a   9.19385200
_cell_length_b   9.13491000
_cell_length_c   9.46796011
_cell_angle_alpha   63.02899008
_cell_angle_beta   90.00000000
_cell_angle_gamma   90.00000000
_symmetry_Int_Tables_number   1
_chemical_formula_structural   Fe2P4Pb3O16
_chemical_formula_sum   'Fe4 P8 Pb6 O32'
_cell_volume   708.68130840
_cell_formula_units_Z   2
loop_
 _symmetry_equiv_pos_site_id
 _symmetry_equiv_pos_as_xyz
  1  'x, y, z'
loop_
 _atom_site_type_symbol
 _atom_site_label
 _atom_site_symmetry_multiplicity
 _atom_site_fract_x
 _atom_site_fract_y
 _atom_site_fract_z
 _atom_site_occupancy
  Fe  Fe0  1  0.36652900  0.75404700  0.24216800  1
  Fe  Fe1  1  0.86652900  0.24595300  0.25783200  1
  Fe  Fe2  1  0.63347100  0.24595300  0.75783200  1
  Fe  Fe3  1  0.13347100  0.75404700  0.74216800  1
  P  P0  1  0.08887100  0.57408300  0.13918700  1
  P  P1  1  0.63861600  0.02034300  0.15559600  1
  P  P2  1  0.36138400  0.97965700  0.84440400  1
  P  P3  1  0.41112900  0.57408300  0.63918700  1
  P  P4  1  0.91112900  0.42591700  0.86081300  1
  P  P5  1  0.58887100  0.42591700  0.36081300  1
  P  P6  1  0.86138400  0.02034300  0.65559600  1
  P  P7  1  0.13861600  0.97965700  0.34440400  1
  Pb  Pb0  1  0.20661800  0.30218900  0.46776800  1
  Pb  Pb1  1  0.70661800  0.69781100  0.03223200  1
  Pb  Pb2  1  0.79338200  0.69781100  0.53223200  1
  Pb  Pb3  1  0.00000000  0.00000000  0.00000000  1
  Pb  Pb4  1  0.29338200  0.30218900  0.96776800  1
  Pb  Pb5  1  0.50000000  0.00000000  0.50000000  1
  O  O0  1  0.90819300  0.16150600  0.49396500  1
  O  O1  1  0.79415000  0.08922500  0.76543900  1
  O  O2  1  0.95189600  0.61152900  0.76002600  1
  O  O3  1  0.70585000  0.08922500  0.26543900  1
  O  O4  1  0.49595100  0.07842500  0.74766000  1
  O  O5  1  0.54810400  0.61152900  0.26002600  1
  O  O6  1  0.59180700  0.16150600  0.99396500  1
  O  O7  1  0.00404900  0.07842500  0.24766000  1
  O  O8  1  0.71363200  0.40552300  0.25926400  1
  O  O9  1  0.45189600  0.38847100  0.73997400  1
  O  O10  1  0.24832800  0.09543400  0.36946800  1
  O  O11  1  0.40819300  0.83849400  0.00603500  1
  O  O12  1  0.84997000  0.39297400  0.02359800  1
  O  O13  1  0.09180700  0.83849400  0.50603500  1
  O  O14  1  0.50404900  0.92157500  0.25234000  1
  O  O15  1  0.34997000  0.60702600  0.47640200  1
  O  O16  1  0.65003000  0.39297400  0.52359800  1
  O  O17  1  0.75167200  0.90456600  0.63053200  1
  O  O18  1  0.95708100  0.68497100  0.12608100  1
  O  O19  1  0.28636800  0.59447700  0.74073600  1
  O  O20  1  0.25167200  0.09543400  0.86946800  1
  O  O21  1  0.78636800  0.40552300  0.75926400  1
  O  O22  1  0.29415000  0.91077500  0.73456100  1
  O  O23  1  0.74832800  0.90456600  0.13053200  1
  O  O24  1  0.21363200  0.59447700  0.24073600  1
  O  O25  1  0.15003000  0.60702600  0.97640200  1
  O  O26  1  0.45708100  0.31502900  0.37391900  1
  O  O27  1  0.04291900  0.31502900  0.87391900  1
  O  O28  1  0.04810400  0.38847100  0.23997400  1
  O  O29  1  0.20585000  0.91077500  0.23456100  1
  O  O30  1  0.54291900  0.68497100  0.62608100  1
  O  O31  1  0.99595100  0.92157500  0.75234000  1
loop_
_geom_bond_atom_site_label_1
_geom_bond_atom_site_label_2
_geom_bond_distance
_geom_bond_site_symmetry_2
Fe0 O15 2.010839 1_555
Fe0 O14 2.020767 1_555
Fe0 O24 2.029508 1_555
Fe0 O29 2.035609 1_555
Fe0 O11 2.043468 1_555
Fe0 O5 2.076209 1_555
Fe1 O12 2.010839 1_555
Fe1 O7 2.020767 1_655
Fe1 O8 2.029508 1_555
Fe1 O3 2.035609 1_555
Fe1 O0 2.043468 1_555
Fe1 O28 2.076209 1_655
Fe2 O16 2.010839 1_555
Fe2 O4 2.020767 1_555
Fe2 O21 2.029508 1_555
Fe2 O1 2.035609 1_555
Fe2 O6 2.043468 1_555
Fe2 O9 2.076209 1_555
Fe3 O25 2.010839 1_555
Fe3 O31 2.020767 1_455
Fe3 O19 2.029508 1_555
Fe3 O22 2.035609 1_555
Fe3 O13 2.043468 1_555
Fe3 O2 2.076209 1_455
O0 P6 1.549167 1_555
O1 P6 1.566267 1_555
O1 Pb3 2.745214 1_656
O2 P4 1.567904 1_555
O2 Pb2 2.419651 1_555
O3 P1 1.566267 1_555
O3 Pb5 2.745214 1_555
O4 P2 1.560140 1_545
O4 Pb5 2.745293 1_555
O5 P5 1.567904 1_555
O5 Pb1 2.419651 1_555
O6 P1 1.549167 1_556
O7 P7 1.560140 1_545
O7 Pb3 2.745293 1_555
O8 P5 1.561178 1_555
O8 Pb1 2.558842 1_555
O9 P3 1.567904 1_555
O9 Pb4 2.419651 1_555
O10 P7 1.555616 1_545
O10 Pb0 2.484928 1_555
O10 Pb5 2.581457 1_555
O11 P2 1.549167 1_554
O12 P4 1.536698 1_554
O13 P7 1.549167 1_555
O14 P1 1.560140 1_565
O14 Pb5 2.745293 1_565
O15 P3 1.536698 1_555
O16 P5 1.536698 1_555
O17 P6 1.555616 1_565
O17 Pb2 2.484928 1_555
O17 Pb5 2.581457 1_565
O18 P0 1.547763 1_655
O18 Pb1 2.451790 1_555
O18 Pb3 2.597334 1_665
O19 P3 1.561178 1_555
O19 Pb4 2.558842 1_555
O20 P2 1.555616 1_545
O20 Pb4 2.484928 1_555
O20 Pb3 2.581457 1_556
O21 P4 1.561178 1_555
O21 Pb2 2.558842 1_555
O22 P2 1.566267 1_555
O22 Pb5 2.745214 1_565
O23 P1 1.555616 1_565
O23 Pb1 2.484928 1_555
O23 Pb3 2.581457 1_665
O24 P0 1.561178 1_555
O24 Pb0 2.558842 1_555
O25 P0 1.536698 1_556
O26 P5 1.547763 1_555
O26 Pb0 2.451790 1_555
O26 Pb5 2.597334 1_555
O27 P4 1.547763 1_455
O27 Pb4 2.451790 1_555
O27 Pb3 2.597334 1_556
O28 P0 1.567904 1_555
O28 Pb0 2.419651 1_555
O29 P7 1.566267 1_555
O29 Pb3 2.745214 1_565
O30 P3 1.547763 1_555
O30 Pb2 2.451790 1_555
O30 Pb5 2.597334 1_565
O31 P6 1.560140 1_565
O31 Pb3 2.745293 1_666
