# generated using pymatgen
data_LiMnF4
_symmetry_space_group_name_H-M   'P 1'
_cell_length_a   4.50447489
_cell_length_b   4.96168907
_cell_length_c   11.08059554
_cell_angle_alpha   90.00000000
_cell_angle_beta   90.00000000
_cell_angle_gamma   90.00000000
_symmetry_Int_Tables_number   1
_chemical_formula_structural   LiMnF4
_chemical_formula_sum   'Li4 Mn4 F16'
_cell_volume   247.64913661
_cell_formula_units_Z   4
loop_
 _symmetry_equiv_pos_site_id
 _symmetry_equiv_pos_as_xyz
  1  'x, y, z'
loop_
 _atom_site_type_symbol
 _atom_site_label
 _atom_site_symmetry_multiplicity
 _atom_site_fract_x
 _atom_site_fract_y
 _atom_site_fract_z
 _atom_site_occupancy
  Li  Li0  1  -0.00000000  0.25000000  0.05913169  1
  Li  Li1  1  -0.00000000  0.75000000  0.94086831  1
  Li  Li2  1  0.50000000  0.25000000  0.55913169  1
  Li  Li3  1  0.50000000  0.75000000  0.44086831  1
  Mn  Mn0  1  -0.00000000  0.25000000  0.32344248  1
  Mn  Mn1  1  -0.00000000  0.75000000  0.67655752  1
  Mn  Mn2  1  0.50000000  0.25000000  0.82344248  1
  Mn  Mn3  1  0.50000000  0.75000000  0.17655752  1
  F  F0  1  0.22383285  0.40394825  0.19722073  1
  F  F1  1  0.22383285  0.90394825  0.80277927  1
  F  F2  1  0.25402466  0.90604816  0.06363067  1
  F  F3  1  0.25402466  0.40604816  0.93636933  1
  F  F4  1  0.24597534  0.90604816  0.56363067  1
  F  F5  1  0.24597534  0.40604816  0.43636933  1
  F  F6  1  0.27616715  0.90394825  0.30277927  1
  F  F7  1  0.27616715  0.40394825  0.69722073  1
  F  F8  1  0.72383285  0.09605175  0.69722073  1
  F  F9  1  0.72383285  0.59605175  0.30277927  1
  F  F10  1  0.75402466  0.09395184  0.43636933  1
  F  F11  1  0.75402466  0.59395184  0.56363067  1
  F  F12  1  0.74597534  0.59395184  0.06363067  1
  F  F13  1  0.74597534  0.09395184  0.93636933  1
  F  F14  1  0.77616715  0.09605175  0.19722073  1
  F  F15  1  0.77616715  0.59605175  0.80277927  1
loop_
_geom_bond_atom_site_label_1
_geom_bond_atom_site_label_2
_geom_bond_distance
_geom_bond_site_symmetry_2
F0 Mn0 1.885773 1_555
F0 Li0 1.985260 1_555
F0 Mn3 2.132609 1_555
F1 Mn1 1.885773 1_555
F1 Li1 1.985260 1_555
F1 Mn2 2.132609 1_565
F2 Mn3 1.841974 1_555
F2 Li1 1.938852 1_554
F2 Li0 2.055288 1_565
F3 Mn2 1.841974 1_555
F3 Li0 1.938852 1_556
F3 Li1 2.055288 1_555
F4 Mn1 1.841974 1_555
F4 Li3 1.938852 1_555
F4 Li2 2.055288 1_565
F5 Mn0 1.841974 1_555
F5 Li2 1.938852 1_555
F5 Li3 2.055288 1_555
F6 Mn3 1.885773 1_555
F6 Li3 1.985260 1_555
F6 Mn0 2.132609 1_565
F7 Mn2 1.885773 1_555
F7 Li2 1.985260 1_555
F7 Mn1 2.132609 1_555
F8 Mn2 1.885773 1_555
F8 Li2 1.985260 1_555
F8 Mn1 2.132609 1_645
F9 Mn3 1.885773 1_555
F9 Li3 1.985260 1_555
F9 Mn0 2.132609 1_655
F10 Mn0 1.841974 1_655
F10 Li2 1.938852 1_555
F10 Li3 2.055288 1_545
F11 Mn1 1.841974 1_655
F11 Li3 1.938852 1_555
F11 Li2 2.055288 1_555
F12 Mn3 1.841974 1_555
F12 Li1 1.938852 1_654
F12 Li0 2.055288 1_655
F13 Mn2 1.841974 1_555
F13 Li0 1.938852 1_656
F13 Li1 2.055288 1_645
F14 Mn0 1.885773 1_655
F14 Li0 1.985260 1_655
F14 Mn3 2.132609 1_545
F15 Mn1 1.885773 1_655
F15 Li1 1.985260 1_655
F15 Mn2 2.132609 1_555
