# generated using pymatgen
data_CaAl2(OF3)2
_symmetry_space_group_name_H-M   'P 1'
_cell_length_a   6.56324703
_cell_length_b   6.56324703
_cell_length_c   7.63179269
_cell_angle_alpha   88.09424561
_cell_angle_beta   88.09424561
_cell_angle_gamma   118.27657512
_symmetry_Int_Tables_number   1
_chemical_formula_structural   CaAl2(OF3)2
_chemical_formula_sum   'Ca2 Al4 O4 F12'
_cell_volume   288.91044565
_cell_formula_units_Z   2
loop_
 _symmetry_equiv_pos_site_id
 _symmetry_equiv_pos_as_xyz
  1  'x, y, z'
loop_
 _atom_site_type_symbol
 _atom_site_label
 _atom_site_symmetry_multiplicity
 _atom_site_fract_x
 _atom_site_fract_y
 _atom_site_fract_z
 _atom_site_occupancy
  Ca  Ca0  1  0.03353000  0.96647000  0.25000000  1
  Ca  Ca1  1  0.96647000  0.03353000  0.75000000  1
  Al  Al0  1  0.50000000  0.00000000  0.50000000  1
  Al  Al1  1  0.00000000  0.50000000  0.00000000  1
  Al  Al2  1  0.36793100  0.63206900  0.25000000  1
  Al  Al3  1  0.63206900  0.36793100  0.75000000  1
  O  O0  1  0.40767000  0.94560800  0.26125900  1
  O  O1  1  0.05439200  0.59233000  0.23874100  1
  O  O2  1  0.59233000  0.05439200  0.73874100  1
  O  O3  1  0.94560800  0.40767000  0.76125900  1
  F  F0  1  0.38420300  0.68460900  0.49409800  1
  F  F1  1  0.31539100  0.61579700  0.00590200  1
  F  F2  1  0.61579700  0.31539100  0.50590200  1
  F  F3  1  0.68460900  0.38420300  0.99409800  1
  F  F4  1  0.79793500  0.04600700  0.46302800  1
  F  F5  1  0.95399300  0.20206500  0.03697200  1
  F  F6  1  0.20206500  0.95399300  0.53697200  1
  F  F7  1  0.04600700  0.79793500  0.96302800  1
  F  F8  1  0.27207600  0.33797700  0.29228100  1
  F  F9  1  0.66202300  0.72792400  0.20771900  1
  F  F10  1  0.72792400  0.66202300  0.70771900  1
  F  F11  1  0.33797700  0.27207600  0.79228100  1
loop_
_geom_bond_atom_site_label_1
_geom_bond_atom_site_label_2
_geom_bond_distance
_geom_bond_site_symmetry_2
Ca0 F8 2.229270 1_565
Ca0 F9 2.229270 1_455
Ca0 F5 2.441444 1_465
Ca0 F4 2.441444 1_465
Ca0 F7 2.502369 1_554
Ca0 F6 2.502369 1_555
Ca0 O1 2.527406 1_555
Ca0 O0 2.527406 1_555
Ca1 F11 2.229270 1_655
Ca1 F10 2.229270 1_545
Ca1 F6 2.441444 1_645
Ca1 F7 2.441444 1_645
Ca1 F5 2.502369 1_556
Ca1 F4 2.502369 1_555
Ca1 O2 2.527406 1_555
Ca1 O3 2.527406 1_555
Al0 F0 1.839138 1_545
Al0 F2 1.839138 1_555
Al0 F4 1.841921 1_555
Al0 F6 1.841921 1_545
Al0 O2 1.930325 1_555
Al0 O0 1.930325 1_545
Al1 F3 1.839138 1_454
Al1 F1 1.839138 1_555
Al1 F7 1.841921 1_554
Al1 F5 1.841921 1_455
Al1 O1 1.930325 1_555
Al1 O3 1.930325 1_454
Al2 F9 1.737853 1_555
Al2 F8 1.737853 1_555
Al2 F0 1.903102 1_555
Al2 F1 1.903102 1_555
Al2 O0 1.953157 1_555
Al2 O1 1.953157 1_555
Al3 F10 1.737853 1_555
Al3 F11 1.737853 1_555
Al3 F3 1.903102 1_555
Al3 F2 1.903102 1_555
Al3 O3 1.953157 1_555
Al3 O2 1.953157 1_555
