# generated using pymatgen
data_Sn4P2O9
_symmetry_space_group_name_H-M   'P 1'
_cell_length_a   7.25286700
_cell_length_b   9.73016300
_cell_length_c   13.69884800
_cell_angle_alpha   90.00000000
_cell_angle_beta   90.00000000
_cell_angle_gamma   90.00000000
_symmetry_Int_Tables_number   1
_chemical_formula_structural   Sn4P2O9
_chemical_formula_sum   'Sn16 P8 O36'
_cell_volume   966.74932189
_cell_formula_units_Z   4
loop_
 _symmetry_equiv_pos_site_id
 _symmetry_equiv_pos_as_xyz
  1  'x, y, z'
loop_
 _atom_site_type_symbol
 _atom_site_label
 _atom_site_symmetry_multiplicity
 _atom_site_fract_x
 _atom_site_fract_y
 _atom_site_fract_z
 _atom_site_occupancy
  Sn  Sn0  1  0.75000000  0.03409800  0.39035700  1
  Sn  Sn1  1  0.25000000  0.19167800  0.09081500  1
  Sn  Sn2  1  0.48504400  0.13543900  0.83640300  1
  Sn  Sn3  1  0.01495600  0.13543900  0.83640300  1
  Sn  Sn4  1  0.98504400  0.36456100  0.33640300  1
  Sn  Sn5  1  0.51495600  0.36456100  0.33640300  1
  Sn  Sn6  1  0.75000000  0.30832200  0.59081500  1
  Sn  Sn7  1  0.25000000  0.46590200  0.89035700  1
  Sn  Sn8  1  0.75000000  0.53409800  0.10964300  1
  Sn  Sn9  1  0.25000000  0.69167800  0.40918500  1
  Sn  Sn10  1  0.48504400  0.63543900  0.66359700  1
  Sn  Sn11  1  0.01495600  0.63543900  0.66359700  1
  Sn  Sn12  1  0.98504400  0.86456100  0.16359700  1
  Sn  Sn13  1  0.51495600  0.86456100  0.16359700  1
  Sn  Sn14  1  0.75000000  0.80832200  0.90918500  1
  Sn  Sn15  1  0.25000000  0.96590200  0.60964300  1
  P  P0  1  0.25000000  0.04352400  0.36333500  1
  P  P1  1  0.75000000  0.14965100  0.05009700  1
  P  P2  1  0.25000000  0.35034900  0.55009700  1
  P  P3  1  0.75000000  0.45647600  0.86333500  1
  P  P4  1  0.25000000  0.54352400  0.13666500  1
  P  P5  1  0.75000000  0.64965100  0.44990300  1
  P  P6  1  0.25000000  0.85034900  0.94990300  1
  P  P7  1  0.75000000  0.95647600  0.63666500  1
  O  O0  1  0.57182000  0.08541800  0.09425600  1
  O  O1  1  0.92818000  0.08541800  0.09425600  1
  O  O2  1  0.75000000  0.10713200  0.93571700  1
  O  O3  1  0.75000000  0.04328700  0.73059200  1
  O  O4  1  0.07183500  0.13154100  0.37068400  1
  O  O5  1  0.42816500  0.13154100  0.37068400  1
  O  O6  1  0.75000000  0.06389400  0.54853200  1
  O  O7  1  0.25000000  0.19474700  0.56343100  1
  O  O8  1  0.25000000  0.20211200  0.93754900  1
  O  O9  1  0.75000000  0.29788800  0.43754900  1
  O  O10  1  0.75000000  0.30525300  0.06343100  1
  O  O11  1  0.25000000  0.43610600  0.04853200  1
  O  O12  1  0.57183500  0.36845900  0.87068400  1
  O  O13  1  0.92816500  0.36845900  0.87068400  1
  O  O14  1  0.25000000  0.45671300  0.23059200  1
  O  O15  1  0.25000000  0.39286800  0.43571700  1
  O  O16  1  0.07182000  0.41458200  0.59425600  1
  O  O17  1  0.42818000  0.41458200  0.59425600  1
  O  O18  1  0.57182000  0.58541800  0.40574400  1
  O  O19  1  0.92818000  0.58541800  0.40574400  1
  O  O20  1  0.75000000  0.60713200  0.56428300  1
  O  O21  1  0.75000000  0.54328700  0.76940800  1
  O  O22  1  0.07183500  0.63154100  0.12931600  1
  O  O23  1  0.42816500  0.63154100  0.12931600  1
  O  O24  1  0.75000000  0.56389400  0.95146800  1
  O  O25  1  0.25000000  0.69474700  0.93656900  1
  O  O26  1  0.25000000  0.70211200  0.56245100  1
  O  O27  1  0.75000000  0.79788800  0.06245100  1
  O  O28  1  0.75000000  0.80525300  0.43656900  1
  O  O29  1  0.25000000  0.93610600  0.45146800  1
  O  O30  1  0.57183500  0.86845900  0.62931600  1
  O  O31  1  0.92816500  0.86845900  0.62931600  1
  O  O32  1  0.25000000  0.95671300  0.26940800  1
  O  O33  1  0.25000000  0.89286800  0.06428300  1
  O  O34  1  0.07182000  0.91458200  0.90574400  1
  O  O35  1  0.42818000  0.91458200  0.90574400  1
loop_
_geom_bond_atom_site_label_1
_geom_bond_atom_site_label_2
_geom_bond_distance
_geom_bond_site_symmetry_2
O0 P1 1.557767 1_555
O0 Sn13 2.385473 1_545
O0 Sn1 2.553298 1_555
O1 P1 1.557767 1_555
O1 Sn12 2.385473 1_545
O1 Sn1 2.553298 1_655
O2 P1 1.620573 1_556
O2 Sn3 2.370587 1_655
O2 Sn2 2.370587 1_555
O3 P7 1.539178 1_545
O3 Sn3 2.568638 1_655
O3 Sn2 2.568638 1_555
O4 P0 1.553509 1_555
O4 Sn4 2.399486 1_455
O4 Sn0 2.533812 1_455
O5 P0 1.553509 1_555
O5 Sn5 2.399486 1_555
O5 Sn0 2.533812 1_555
O6 P7 1.596889 1_545
O6 Sn0 2.186125 1_555
O6 Sn6 2.447842 1_555
O7 P2 1.525012 1_555
O7 Sn15 2.314939 1_545
O8 Sn1 2.102021 1_556
O8 Sn2 2.290601 1_555
O8 Sn3 2.290601 1_555
O8 Sn7 2.646881 1_555
O9 Sn6 2.102021 1_555
O9 Sn4 2.290601 1_555
O9 Sn5 2.290601 1_555
O9 Sn0 2.646881 1_555
O10 P1 1.525012 1_555
O10 Sn8 2.314939 1_555
O11 P4 1.596889 1_555
O11 Sn7 2.186125 1_554
O11 Sn1 2.447842 1_555
O12 P3 1.553509 1_555
O12 Sn2 2.399486 1_555
O12 Sn7 2.533812 1_555
O13 P3 1.553509 1_555
O13 Sn3 2.399486 1_655
O13 Sn7 2.533812 1_655
O14 P4 1.539178 1_555
O14 Sn5 2.568638 1_555
O14 Sn4 2.568638 1_455
O15 P2 1.620573 1_555
O15 Sn5 2.370587 1_555
O15 Sn4 2.370587 1_455
O16 P2 1.557767 1_555
O16 Sn11 2.385473 1_555
O16 Sn6 2.553298 1_455
O17 P2 1.557767 1_555
O17 Sn10 2.385473 1_555
O17 Sn6 2.553298 1_555
O18 P5 1.557767 1_555
O18 Sn5 2.385473 1_555
O18 Sn9 2.553298 1_555
O19 P5 1.557767 1_555
O19 Sn4 2.385473 1_555
O19 Sn9 2.553298 1_655
O20 P5 1.620573 1_555
O20 Sn11 2.370587 1_655
O20 Sn10 2.370587 1_555
O21 P3 1.539178 1_555
O21 Sn11 2.568638 1_655
O21 Sn10 2.568638 1_555
O22 P4 1.553509 1_555
O22 Sn12 2.399486 1_455
O22 Sn8 2.533812 1_455
O23 P4 1.553509 1_555
O23 Sn13 2.399486 1_555
O23 Sn8 2.533812 1_555
O24 P3 1.596889 1_555
O24 Sn8 2.186125 1_556
O24 Sn14 2.447842 1_555
O25 P6 1.525012 1_555
O25 Sn7 2.314939 1_555
O26 Sn9 2.102021 1_555
O26 Sn10 2.290601 1_555
O26 Sn11 2.290601 1_555
O26 Sn15 2.646881 1_555
O27 Sn14 2.102021 1_554
O27 Sn12 2.290601 1_555
O27 Sn13 2.290601 1_555
O27 Sn8 2.646881 1_555
O28 P5 1.525012 1_555
O28 Sn0 2.314939 1_565
O29 P0 1.596889 1_565
O29 Sn15 2.186125 1_555
O29 Sn9 2.447842 1_555
O30 P7 1.553509 1_555
O30 Sn10 2.399486 1_555
O30 Sn15 2.533812 1_555
O31 P7 1.553509 1_555
O31 Sn11 2.399486 1_655
O31 Sn15 2.533812 1_655
O32 P0 1.539178 1_565
O32 Sn13 2.568638 1_555
O32 Sn12 2.568638 1_455
O33 P6 1.620573 1_554
O33 Sn13 2.370587 1_555
O33 Sn12 2.370587 1_455
O34 P6 1.557767 1_555
O34 Sn3 2.385473 1_565
O34 Sn14 2.553298 1_455
O35 P6 1.557767 1_555
O35 Sn2 2.385473 1_565
O35 Sn14 2.553298 1_555
