# generated using pymatgen
data_Li2Co(SiO3)2
_symmetry_space_group_name_H-M   'P 1'
_cell_length_a   7.27001303
_cell_length_b   10.38139561
_cell_length_c   7.30416405
_cell_angle_alpha   110.58513178
_cell_angle_beta   90.00766660
_cell_angle_gamma   90.00462371
_symmetry_Int_Tables_number   1
_chemical_formula_structural   Li2Co(SiO3)2
_chemical_formula_sum   'Li8 Co4 Si8 O24'
_cell_volume   516.06838864
_cell_formula_units_Z   4
loop_
 _symmetry_equiv_pos_site_id
 _symmetry_equiv_pos_as_xyz
  1  'x, y, z'
loop_
 _atom_site_type_symbol
 _atom_site_label
 _atom_site_symmetry_multiplicity
 _atom_site_fract_x
 _atom_site_fract_y
 _atom_site_fract_z
 _atom_site_occupancy
  Li  Li0  1  0.71949000  0.83319000  0.18989600  1
  Li  Li1  1  0.21948200  0.83319000  0.68988700  1
  Li  Li2  1  0.46860400  0.66653300  0.35612600  1
  Li  Li3  1  0.96859500  0.66652900  0.85613300  1
  Li  Li4  1  0.46933600  0.33306100  0.64406500  1
  Li  Li5  1  0.96932700  0.33306700  0.14405700  1
  Li  Li6  1  0.71901700  0.16637900  0.81062800  1
  Li  Li7  1  0.21901100  0.16637500  0.31063700  1
  Co  Co0  1  0.21693200  0.49980700  0.50049300  1
  Co  Co1  1  0.96689000  0.99971100  0.99997800  1
  Co  Co2  1  0.71693000  0.49982300  0.00050800  1
  Co  Co3  1  0.46688200  0.99969700  0.49996900  1
  Si  Si0  1  0.28541300  0.83572700  0.10777500  1
  Si  Si1  1  0.78541100  0.83573000  0.60776300  1
  Si  Si2  1  0.53550200  0.66389400  0.77199700  1
  Si  Si3  1  0.03549400  0.66390300  0.27199500  1
  Si  Si4  1  0.53526800  0.33570800  0.22860300  1
  Si  Si5  1  0.03525300  0.33569500  0.72862300  1
  Si  Si6  1  0.28544600  0.16384900  0.89251200  1
  Si  Si7  1  0.78543000  0.16386000  0.39253900  1
  O  O0  1  0.32175200  0.98673300  0.26856000  1
  O  O1  1  0.82175700  0.98673700  0.76853500  1
  O  O2  1  0.57183300  0.51287700  0.78192100  1
  O  O3  1  0.07180900  0.51288800  0.28193500  1
  O  O4  1  0.57125300  0.48676000  0.21867800  1
  O  O5  1  0.07127800  0.48674700  0.71870800  1
  O  O6  1  0.32183900  0.01292300  0.73146400  1
  O  O7  1  0.82183500  0.01293900  0.23148100  1
  O  O8  1  0.12871500  0.83244900  0.94604200  1
  O  O9  1  0.62874800  0.83246700  0.44600100  1
  O  O10  1  0.87882200  0.66690700  0.11334000  1
  O  O11  1  0.37881900  0.66691700  0.61336400  1
  O  O12  1  0.37864200  0.33258700  0.38718400  1
  O  O13  1  0.87864300  0.33256700  0.88721900  1
  O  O14  1  0.12877900  0.16686800  0.05415400  1
  O  O15  1  0.62876300  0.16689500  0.55419200  1
  O  O16  1  0.23449300  0.72621500  0.22349900  1
  O  O17  1  0.73449800  0.72621300  0.72349100  1
  O  O18  1  0.48438800  0.77340500  0.99707400  1
  O  O19  1  0.98438900  0.77341600  0.49707000  1
  O  O20  1  0.48435600  0.22611800  0.00352300  1
  O  O21  1  0.98435900  0.22610800  0.50352800  1
  O  O22  1  0.23440800  0.27365900  0.77730200  1
  O  O23  1  0.73441200  0.27366700  0.27730400  1
loop_
_geom_bond_atom_site_label_1
_geom_bond_atom_site_label_2
_geom_bond_distance
_geom_bond_site_symmetry_2
Li0 O7 1.931098 1_565
Li0 O9 1.986133 1_555
Li0 O10 1.988994 1_555
Li0 O18 2.162095 1_554
Li1 O6 1.930991 1_565
Li1 O8 1.986601 1_555
Li1 O11 1.988941 1_555
Li1 O19 2.162017 1_455
Li2 O4 1.931512 1_555
Li2 O11 1.987823 1_555
Li2 O9 1.989505 1_555
Li2 O16 2.154271 1_555
Li3 O5 1.931650 1_655
Li3 O10 1.987601 1_556
Li3 O8 1.989300 1_655
Li3 O17 2.154260 1_555
Li4 O2 1.931753 1_555
Li4 O12 1.987069 1_555
Li4 O15 1.988533 1_555
Li4 O22 2.160253 1_555
Li5 O3 1.931781 1_655
Li5 O13 1.986660 1_554
Li5 O14 1.988902 1_655
Li5 O23 2.160209 1_555
Li6 O1 1.930670 1_545
Li6 O15 1.986355 1_555
Li6 O13 1.989226 1_555
Li6 O20 2.160205 1_556
Li7 O0 1.930694 1_545
Li7 O14 1.986546 1_555
Li7 O12 1.989446 1_555
Li7 O21 2.160134 1_455
Co0 O3 1.957555 1_555
Co0 O5 1.957678 1_555
Co0 O11 2.016963 1_555
Co0 O12 2.017666 1_555
Co1 O7 1.956378 1_566
Co1 O1 1.956678 1_555
Co1 O14 2.017369 1_666
Co1 O8 2.018373 1_655
Co2 O4 1.957504 1_555
Co2 O2 1.957531 1_554
Co2 O10 2.016761 1_555
Co2 O13 2.017930 1_554
Co3 O6 1.956287 1_565
Co3 O0 1.956482 1_555
Co3 O15 2.017636 1_565
Co3 O9 2.018259 1_555
O0 Si0 1.616098 1_555
O1 Si1 1.616077 1_555
O2 Si2 1.616442 1_555
O3 Si3 1.616448 1_555
O4 Si4 1.616356 1_555
O5 Si5 1.616375 1_555
O6 Si6 1.616404 1_555
O7 Si7 1.616410 1_555
O8 Si0 1.632733 1_556
O9 Si1 1.632744 1_555
O10 Si3 1.632878 1_655
O11 Si2 1.632872 1_555
O12 Si4 1.632797 1_555
O13 Si5 1.632814 1_655
O14 Si6 1.632954 1_554
O15 Si7 1.632973 1_555
O16 Si3 1.672742 1_555
O16 Si0 1.679226 1_555
O17 Si2 1.672782 1_555
O17 Si1 1.679281 1_555
O18 Si0 1.672572 1_556
O18 Si2 1.679061 1_555
O19 Si1 1.672552 1_555
O19 Si3 1.679043 1_655
O20 Si6 1.672555 1_554
O20 Si4 1.678889 1_555
O21 Si7 1.672571 1_555
O21 Si5 1.678931 1_655
O22 Si5 1.672877 1_555
O22 Si6 1.679269 1_555
O23 Si4 1.672888 1_555
O23 Si7 1.679345 1_555
