# generated using pymatgen
data_Na9Li7V16O48
_symmetry_space_group_name_H-M   'P 1'
_cell_length_a   6.97303228
_cell_length_b   6.97303228
_cell_length_c   22.51734015
_cell_angle_alpha   85.03812348
_cell_angle_beta   85.03812348
_cell_angle_gamma   83.37705142
_symmetry_Int_Tables_number   1
_chemical_formula_structural   Na9Li7V16O48
_chemical_formula_sum   'Na9 Li7 V16 O48'
_cell_volume   1080.23891202
_cell_formula_units_Z   1
loop_
 _symmetry_equiv_pos_site_id
 _symmetry_equiv_pos_as_xyz
  1  'x, y, z'
loop_
 _atom_site_type_symbol
 _atom_site_label
 _atom_site_symmetry_multiplicity
 _atom_site_fract_x
 _atom_site_fract_y
 _atom_site_fract_z
 _atom_site_occupancy
  Na  Na0  1  0.52288300  0.47711700  0.00000000  1
  Na  Na1  1  0.22712500  0.02356800  0.87475800  1
  Na  Na2  1  0.02359900  0.97640100  0.50000000  1
  Na  Na3  1  0.72640300  0.52360300  0.37499500  1
  Na  Na4  1  0.27367000  0.22636200  0.25004600  1
  Na  Na5  1  0.97643200  0.77287500  0.12524200  1
  Na  Na6  1  0.77363800  0.72633000  0.74995400  1
  Na  Na7  1  0.89593800  0.10406200  0.00000000  1
  Na  Na8  1  0.47639700  0.27359700  0.62500500  1
  Li  Li0  1  0.10086000  0.64914000  0.62500200  1
  Li  Li1  1  0.85077000  0.39976900  0.87472300  1
  Li  Li2  1  0.39914200  0.60085800  0.50000000  1
  Li  Li3  1  0.35086000  0.89914000  0.37499800  1
  Li  Li4  1  0.64914400  0.85089300  0.24999700  1
  Li  Li5  1  0.60023100  0.14923000  0.12527700  1
  Li  Li6  1  0.14910700  0.35085600  0.75000300  1
  V  V0  1  0.01179000  0.56700900  0.99964600  1
  V  V1  1  0.31922800  0.51015500  0.87464300  1
  V  V2  1  0.23977100  0.43112300  0.37525800  1
  V  V3  1  0.18112900  0.73975200  0.25028100  1
  V  V4  1  0.48984500  0.68077200  0.12535700  1
  V  V5  1  0.06996100  0.26049800  0.12548400  1
  V  V6  1  0.43299100  0.98821000  0.00035400  1
  V  V7  1  0.26024800  0.81887100  0.74971900  1
  V  V8  1  0.73950200  0.93003900  0.87451600  1
  V  V9  1  0.56887700  0.76022900  0.62474200  1
  V  V10  1  0.93112200  0.48979400  0.50025600  1
  V  V11  1  0.51020600  0.06887800  0.49974400  1
  V  V12  1  0.81885100  0.01019600  0.37475500  1
  V  V13  1  0.76008400  0.31890100  0.24982600  1
  V  V14  1  0.68109900  0.23991600  0.75017400  1
  V  V15  1  0.98980400  0.18114900  0.62524500  1
  O  O0  1  0.09462000  0.47043900  0.07208100  1
  O  O1  1  0.02802400  0.40586800  0.42795700  1
  O  O2  1  0.22285900  0.59492400  0.94688900  1
  O  O3  1  0.15585400  0.52802300  0.30296700  1
  O  O4  1  0.53823000  0.39530600  0.88733600  1
  O  O5  1  0.34427900  0.72202700  0.82202300  1
  O  O6  1  0.07464600  0.64034400  0.52504800  1
  O  O7  1  0.27797300  0.65572100  0.17797700  1
  O  O8  1  0.60469400  0.46177000  0.11266400  1
  O  O9  1  0.03802000  0.89548000  0.38734700  1
  O  O10  1  0.39035000  0.57463200  0.40004500  1
  O  O11  1  0.10968800  0.67532900  0.72494600  1
  O  O12  1  0.40507600  0.77714100  0.05311100  1
  O  O13  1  0.85748000  0.43148200  0.97361500  1
  O  O14  1  0.21828700  0.10703900  0.98649700  1
  O  O15  1  0.64537800  0.53807200  0.26236700  1
  O  O16  1  0.32467100  0.89031200  0.27505400  1
  O  O17  1  0.42536800  0.60965000  0.59995500  1
  O  O18  1  0.52956100  0.90538000  0.92791900  1
  O  O19  1  0.10452000  0.96198000  0.61265300  1
  O  O20  1  0.17531000  0.35966500  0.84999500  1
  O  O21  1  0.85471900  0.71112200  0.86235800  1
  O  O22  1  0.28887800  0.14528100  0.13764200  1
  O  O23  1  0.64033500  0.82469000  0.15000500  1
  O  O24  1  0.35965600  0.92535400  0.47495200  1
  O  O25  1  0.71195900  0.60453700  0.48765100  1
  O  O26  1  0.14557100  0.03802100  0.76231300  1
  O  O27  1  0.82464500  0.39031000  0.77503300  1
  O  O28  1  0.89296100  0.78171300  0.01350300  1
  O  O29  1  0.47197700  0.84414600  0.69703300  1
  O  O30  1  0.56851800  0.14252000  0.02638500  1
  O  O31  1  0.67531500  0.85970600  0.34995200  1
  O  O32  1  0.35451800  0.21196900  0.36264600  1
  O  O33  1  0.78803100  0.64548200  0.63735400  1
  O  O34  1  0.14029400  0.32468500  0.65004800  1
  O  O35  1  0.59413200  0.97197600  0.57204300  1
  O  O36  1  0.89145400  0.07488700  0.89758200  1
  O  O37  1  0.60969000  0.17535500  0.22496700  1
  O  O38  1  0.96197900  0.85442900  0.23768700  1
  O  O39  1  0.39546300  0.28804100  0.51234900  1
  O  O40  1  0.72197400  0.09412300  0.44705100  1
  O  O41  1  0.92511300  0.10854600  0.10241800  1
  O  O42  1  0.65499300  0.02771600  0.80260700  1
  O  O43  1  0.46192800  0.35462200  0.73763300  1
  O  O44  1  0.84411500  0.22198000  0.32207700  1
  O  O45  1  0.77802000  0.15588500  0.67792300  1
  O  O46  1  0.97228400  0.34500700  0.19739300  1
  O  O47  1  0.90587700  0.27802600  0.55294900  1
loop_
_geom_bond_atom_site_label_1
_geom_bond_atom_site_label_2
_geom_bond_distance
_geom_bond_site_symmetry_2
Na0 O30 2.349364 1_555
Na0 O13 2.349364 1_554
Na0 O12 2.519575 1_555
Na0 O2 2.519575 1_554
Na0 O4 2.638564 1_554
Na0 O8 2.638564 1_555
Na1 O36 2.345489 1_455
Na1 O20 2.355305 1_555
Na1 O5 2.523181 1_545
Na1 O18 2.534695 1_545
Na1 O14 2.625146 1_555
Na1 O26 2.633648 1_555
Na2 O6 2.355787 1_555
Na2 O24 2.355787 1_555
Na2 O40 2.526896 1_465
Na2 O47 2.526896 1_465
Na2 O9 2.636943 1_555
Na2 O19 2.636943 1_555
Na3 O10 2.355761 1_555
Na3 O31 2.356091 1_555
Na3 O44 2.526511 1_555
Na3 O1 2.527041 1_655
Na3 O15 2.636582 1_555
Na3 O25 2.637024 1_555
Na4 O16 2.355572 1_545
Na4 O37 2.355640 1_555
Na4 O46 2.523293 1_455
Na4 O3 2.526904 1_555
Na4 O22 2.631414 1_555
Na4 O32 2.635641 1_555
Na5 O41 2.345489 1_565
Na5 O23 2.355305 1_555
Na5 O7 2.523181 1_655
Na5 O0 2.534695 1_655
Na5 O28 2.625146 1_555
Na5 O38 2.633648 1_555
Na6 O11 2.355572 1_655
Na6 O27 2.355640 1_555
Na6 O42 2.523293 1_565
Na6 O29 2.526904 1_555
Na6 O21 2.631414 1_555
Na6 O33 2.635641 1_555
Na7 O28 2.244261 1_545
Na7 O14 2.244261 1_654
Na7 O13 2.299820 1_554
Na7 O30 2.299820 1_555
Na7 O41 2.335794 1_555
Na7 O36 2.335794 1_554
Na8 O17 2.355761 1_555
Na8 O34 2.356091 1_555
Na8 O45 2.526511 1_555
Na8 O35 2.527041 1_545
Na8 O43 2.636582 1_555
Na8 O39 2.637024 1_555
Li0 O33 2.177849 1_455
Li0 O19 2.177924 1_555
Li0 O34 2.274838 1_555
Li0 O17 2.275207 1_555
Li0 O11 2.280223 1_555
Li0 O6 2.280450 1_555
Li1 O21 2.167889 1_555
Li1 O4 2.176752 1_555
Li1 O13 2.261692 1_555
Li1 O36 2.269982 1_555
Li1 O20 2.274316 1_655
Li1 O27 2.274990 1_555
Li2 O39 2.177780 1_555
Li2 O25 2.177780 1_555
Li2 O6 2.275130 1_555
Li2 O24 2.275130 1_555
Li2 O10 2.280483 1_555
Li2 O17 2.280483 1_555
Li3 O32 2.177849 1_565
Li3 O9 2.177924 1_555
Li3 O31 2.274838 1_555
Li3 O10 2.275207 1_555
Li3 O16 2.280223 1_555
Li3 O24 2.280450 1_555
Li4 O38 2.177754 1_555
Li4 O15 2.177897 1_555
Li4 O37 2.274827 1_565
Li4 O16 2.274998 1_555
Li4 O31 2.280436 1_555
Li4 O23 2.281300 1_555
Li5 O22 2.167889 1_555
Li5 O8 2.176752 1_555
Li5 O30 2.261692 1_555
Li5 O41 2.269982 1_555
Li5 O23 2.274316 1_545
Li5 O37 2.274990 1_555
Li6 O26 2.177754 1_555
Li6 O43 2.177897 1_555
Li6 O27 2.274827 1_455
Li6 O11 2.274998 1_555
Li6 O34 2.280436 1_555
Li6 O20 2.281300 1_555
O0 V0 1.824993 1_554
O0 V5 1.826585 1_555
O1 V10 1.825563 1_455
O1 V2 1.827561 1_555
O2 V1 1.825653 1_555
O2 V0 1.827269 1_555
O3 V2 1.825377 1_555
O3 V3 1.827317 1_555
O4 V1 1.675979 1_555
O5 V7 1.825819 1_555
O5 V1 1.827022 1_555
O6 V10 1.689873 1_455
O7 V3 1.825819 1_555
O7 V4 1.827022 1_555
O8 V4 1.675979 1_555
O9 V12 1.676190 1_465
O10 V2 1.689896 1_555
O11 V7 1.689823 1_555
O12 V4 1.825653 1_555
O12 V6 1.827269 1_555
O13 V0 1.683431 1_655
O14 V6 1.665920 1_546
O15 V13 1.675940 1_555
O16 V3 1.689823 1_555
O17 V9 1.689896 1_555
O18 V6 1.824993 1_556
O18 V8 1.826585 1_555
O19 V15 1.676190 1_465
O20 V1 1.690068 1_555
O21 V8 1.673922 1_555
O22 V5 1.673922 1_555
O23 V4 1.690068 1_555
O24 V11 1.689873 1_565
O25 V10 1.676281 1_555
O26 V7 1.675986 1_545
O27 V14 1.689855 1_555
O28 V0 1.665920 1_654
O29 V9 1.825377 1_555
O29 V7 1.827317 1_555
O30 V6 1.683431 1_545
O31 V12 1.689738 1_565
O32 V2 1.676269 1_555
O33 V9 1.676269 1_555
O34 V15 1.689738 1_455
O35 V11 1.825563 1_565
O35 V9 1.827561 1_555
O36 V8 1.686834 1_545
O37 V13 1.689855 1_555
O38 V3 1.675986 1_655
O39 V11 1.676281 1_555
O40 V12 1.825461 1_555
O40 V11 1.827586 1_555
O41 V5 1.686834 1_655
O42 V8 1.820622 1_545
O42 V14 1.827368 1_555
O43 V14 1.675940 1_555
O44 V13 1.824898 1_555
O44 V12 1.827496 1_555
O45 V14 1.824898 1_555
O45 V15 1.827496 1_555
O46 V5 1.820622 1_655
O46 V13 1.827368 1_555
O47 V15 1.825461 1_555
O47 V10 1.827586 1_555
