# generated using pymatgen
data_Li4Ti3Cr3(WO8)2
_symmetry_space_group_name_H-M   'P 1'
_cell_length_a   5.97448424
_cell_length_b   5.97448424
_cell_length_c   9.84283077
_cell_angle_alpha   89.04222098
_cell_angle_beta   89.04222098
_cell_angle_gamma   59.89880975
_symmetry_Int_Tables_number   1
_chemical_formula_structural   Li4Ti3Cr3(WO8)2
_chemical_formula_sum   'Li4 Ti3 Cr3 W2 O16'
_cell_volume   303.89735701
_cell_formula_units_Z   1
loop_
 _symmetry_equiv_pos_site_id
 _symmetry_equiv_pos_as_xyz
  1  'x, y, z'
loop_
 _atom_site_type_symbol
 _atom_site_label
 _atom_site_symmetry_multiplicity
 _atom_site_fract_x
 _atom_site_fract_y
 _atom_site_fract_z
 _atom_site_occupancy
  Li  Li0  1  0.66477800  0.66477800  0.10302700  1
  Li  Li1  1  0.99884700  0.99884700  0.00791700  1
  Li  Li2  1  0.99665100  0.99665100  0.50547800  1
  Li  Li3  1  0.33349900  0.33349900  0.59950900  1
  Ti  Ti0  1  0.33755300  0.83539600  0.78458500  1
  Ti  Ti1  1  0.83539600  0.33755300  0.78458500  1
  Ti  Ti2  1  0.16906700  0.16906700  0.28576600  1
  Cr  Cr0  1  0.82981500  0.82981500  0.78830300  1
  Cr  Cr1  1  0.17113200  0.66071000  0.28675200  1
  Cr  Cr2  1  0.66071000  0.17113200  0.28675200  1
  W  W0  1  0.66866300  0.66866300  0.51178600  1
  W  W1  1  0.33632500  0.33632500  0.01457100  1
  O  O0  1  0.32588200  0.84082700  0.39711500  1
  O  O1  1  0.51882900  0.51882900  0.65911800  1
  O  O2  1  0.66143700  0.66143700  0.89469000  1
  O  O3  1  0.99934000  0.99934000  0.69003200  1
  O  O4  1  0.00400400  0.00400400  0.19159200  1
  O  O5  1  0.84082700  0.32588200  0.39711500  1
  O  O6  1  0.51693200  0.96334100  0.66235400  1
  O  O7  1  0.96334100  0.51693200  0.66235400  1
  O  O8  1  0.16299900  0.16299900  0.89505200  1
  O  O9  1  0.83620100  0.83620100  0.40133400  1
  O  O10  1  0.03876500  0.47890500  0.16080600  1
  O  O11  1  0.47890500  0.03876500  0.16080600  1
  O  O12  1  0.32684900  0.32684900  0.39308100  1
  O  O13  1  0.16303100  0.67512800  0.90199300  1
  O  O14  1  0.48314200  0.48314200  0.16376800  1
  O  O15  1  0.67512800  0.16303100  0.90199300  1
loop_
_geom_bond_atom_site_label_1
_geom_bond_atom_site_label_2
_geom_bond_distance
_geom_bond_site_symmetry_2
Li0 O14 1.962274 1_555
Li0 O10 2.020296 1_655
Li0 O11 2.020296 1_565
Li0 O2 2.051585 1_554
Li1 O4 1.809699 1_665
Li1 O15 1.979908 1_564
Li1 O13 1.979908 1_654
Li1 O8 2.012380 1_664
Li2 O3 1.817284 1_555
Li2 O9 1.968771 1_555
Li2 O5 1.999906 1_565
Li2 O0 1.999906 1_655
Li3 O6 2.005071 1_545
Li3 O7 2.005071 1_455
Li3 O1 2.017286 1_555
Li3 O12 2.034329 1_555
Cr0 O3 1.987630 1_555
Cr0 O2 2.016214 1_555
Cr0 O6 2.053336 1_555
Cr0 O7 2.053336 1_555
Cr0 O13 2.064952 1_655
Cr0 O15 2.064952 1_565
Cr1 O4 1.998444 1_565
Cr1 O12 2.010190 1_555
Cr1 O14 2.012344 1_555
Cr1 O9 2.057923 1_455
Cr1 O0 2.064807 1_555
Cr1 O10 2.069151 1_555
Cr2 O4 1.998444 1_655
Cr2 O12 2.010190 1_555
Cr2 O14 2.012344 1_555
Cr2 O9 2.057923 1_545
Cr2 O5 2.064807 1_555
Cr2 O11 2.069151 1_555
O0 Ti2 2.011041 1_565
O0 W0 2.109863 1_555
O1 Ti0 2.062502 1_555
O1 Ti1 2.062502 1_555
O1 W0 2.103015 1_555
O2 Ti0 2.003558 1_555
O2 Ti1 2.003558 1_555
O3 Ti0 1.988895 1_655
O3 Ti1 1.988895 1_565
O4 Ti2 1.959817 1_555
O5 Ti2 2.011041 1_655
O5 W0 2.109863 1_555
O6 Ti0 1.981959 1_555
O6 W0 2.135215 1_555
O7 Ti1 1.981959 1_555
O7 W0 2.135215 1_555
O8 Ti0 2.021512 1_545
O8 Ti1 2.021512 1_455
O8 W1 2.164636 1_556
O9 W0 2.029272 1_555
O10 Ti2 2.013929 1_555
O10 W1 2.096260 1_555
O11 Ti2 2.013929 1_555
O11 W1 2.096260 1_555
O12 Ti2 1.962367 1_555
O13 W1 2.063569 1_556
O13 Ti0 2.064862 1_555
O14 W1 2.133832 1_555
O15 W1 2.063569 1_556
O15 Ti1 2.064862 1_555
