# generated using pymatgen
data_Li2MnSiO4
_symmetry_space_group_name_H-M   'P 1'
_cell_length_a   6.34451300
_cell_length_b   7.44326400
_cell_length_c   7.83512600
_cell_angle_alpha   89.99896505
_cell_angle_beta   89.99854627
_cell_angle_gamma   89.99949311
_symmetry_Int_Tables_number   1
_chemical_formula_structural   Li2MnSiO4
_chemical_formula_sum   'Li8 Mn4 Si4 O16'
_cell_volume   370.00509074
_cell_formula_units_Z   4
loop_
 _symmetry_equiv_pos_site_id
 _symmetry_equiv_pos_as_xyz
  1  'x, y, z'
loop_
 _atom_site_type_symbol
 _atom_site_label
 _atom_site_symmetry_multiplicity
 _atom_site_fract_x
 _atom_site_fract_y
 _atom_site_fract_z
 _atom_site_occupancy
  Li  Li0  1  0.50000000  0.49999300  0.19010000  1
  Li  Li1  1  0.49999900  0.99999300  0.69009400  1
  Li  Li2  1  0.99999400  0.49999800  0.80990100  1
  Li  Li3  1  0.99999400  0.99999800  0.30989500  1
  Li  Li4  1  0.74999900  0.17737000  0.99999500  1
  Li  Li5  1  0.74999500  0.67737000  0.49999200  1
  Li  Li6  1  0.24999400  0.82262500  0.00000100  1
  Li  Li7  1  0.24999700  0.32262600  0.49999800  1
  Mn  Mn0  1  0.00002700  0.00000100  0.67868900  1
  Mn  Mn1  1  0.49999900  0.50001800  0.82132300  1
  Mn  Mn2  1  0.00002900  0.49999900  0.17870100  1
  Mn  Mn3  1  0.49999600  0.00001600  0.32131200  1
  Si  Si0  1  0.25000500  0.17407900  0.00000200  1
  Si  Si1  1  0.24999700  0.67408000  0.49999900  1
  Si  Si2  1  0.74999300  0.82592300  0.00000200  1
  Si  Si3  1  0.75000200  0.32592100  0.49999900  1
  O  O0  1  0.25631200  0.53779900  0.33317500  1
  O  O1  1  0.25631100  0.03780100  0.83317200  1
  O  O2  1  0.74369700  0.46219500  0.33316600  1
  O  O3  1  0.74369500  0.96219500  0.83316400  1
  O  O4  1  0.75630000  0.46220000  0.66682700  1
  O  O5  1  0.75629600  0.96220100  0.16682700  1
  O  O6  1  0.24369200  0.53779900  0.66683100  1
  O  O7  1  0.24369800  0.03779800  0.16683100  1
  O  O8  1  0.03520400  0.30044600  0.99190200  1
  O  O9  1  0.03520600  0.80044500  0.49189300  1
  O  O10  1  0.96478900  0.69955100  0.99190200  1
  O  O11  1  0.96478800  0.19955100  0.49189100  1
  O  O12  1  0.46479100  0.30044700  0.00810600  1
  O  O13  1  0.46479100  0.80044700  0.50809700  1
  O  O14  1  0.53520500  0.69955600  0.00811200  1
  O  O15  1  0.53520500  0.19955700  0.50810300  1
loop_
_geom_bond_atom_site_label_1
_geom_bond_atom_site_label_2
_geom_bond_distance
_geom_bond_site_symmetry_2
Li0 O0 1.930320 1_555
Li0 O2 1.930356 1_555
Li0 O12 2.071077 1_555
Li0 O14 2.071087 1_555
Li1 O1 1.930336 1_565
Li1 O3 1.930369 1_555
Li1 O13 2.071092 1_555
Li1 O15 2.071110 1_565
Li2 O6 1.930341 1_655
Li2 O4 1.930387 1_555
Li2 O8 2.071107 1_655
Li2 O10 2.071138 1_555
Li3 O7 1.930343 1_665
Li3 O5 1.930379 1_555
Li3 O9 2.071098 1_655
Li3 O11 2.071112 1_565
Li4 O8 2.029163 1_655
Li4 O12 2.029174 1_556
Li4 O5 2.067645 1_546
Li4 O3 2.067713 1_545
Li5 O13 2.029150 1_555
Li5 O9 2.029195 1_655
Li5 O4 2.067667 1_555
Li5 O2 2.067687 1_555
Li6 O10 2.029161 1_454
Li6 O14 2.029166 1_555
Li6 O1 2.067672 1_564
Li6 O7 2.067693 1_565
Li7 O15 2.029147 1_555
Li7 O11 2.029189 1_455
Li7 O0 2.067625 1_555
Li7 O6 2.067709 1_555
Mn0 O1 2.046509 1_555
Mn0 O3 2.046666 1_445
Mn0 O11 2.097171 1_455
Mn0 O9 2.097181 1_545
Mn1 O4 2.046621 1_555
Mn1 O6 2.046638 1_555
Mn1 O14 2.097077 1_556
Mn1 O12 2.097174 1_556
Mn2 O0 2.046463 1_555
Mn2 O2 2.046617 1_455
Mn2 O8 2.097179 1_554
Mn2 O10 2.097188 1_454
Mn3 O7 2.046542 1_555
Mn3 O5 2.046562 1_545
Mn3 O15 2.097105 1_555
Mn3 O13 2.097172 1_545
O0 Si1 1.655018 1_555
O1 Si0 1.655040 1_556
O2 Si3 1.655013 1_555
O3 Si2 1.655033 1_556
O4 Si3 1.655033 1_555
O5 Si2 1.655011 1_555
O6 Si1 1.655037 1_555
O7 Si0 1.655019 1_555
O8 Si0 1.657090 1_556
O9 Si1 1.657032 1_555
O10 Si2 1.657084 1_556
O11 Si3 1.657026 1_555
O12 Si0 1.657033 1_555
O13 Si1 1.657068 1_555
O14 Si2 1.657037 1_555
O15 Si3 1.657069 1_555
