# generated using pymatgen
data_ErTa3O9
_symmetry_space_group_name_H-M   'P 1'
_cell_length_a   6.47126600
_cell_length_b   7.63995100
_cell_length_c   12.61082700
_cell_angle_alpha   90.00000000
_cell_angle_beta   90.00000000
_cell_angle_gamma   90.00000000
_symmetry_Int_Tables_number   1
_chemical_formula_structural   ErTa3O9
_chemical_formula_sum   'Er4 Ta12 O36'
_cell_volume   623.48124342
_cell_formula_units_Z   4
loop_
 _symmetry_equiv_pos_site_id
 _symmetry_equiv_pos_as_xyz
  1  'x, y, z'
loop_
 _atom_site_type_symbol
 _atom_site_label
 _atom_site_symmetry_multiplicity
 _atom_site_fract_x
 _atom_site_fract_y
 _atom_site_fract_z
 _atom_site_occupancy
  Er  Er0  1  0.05521000  0.25000000  0.46195000  1
  Er  Er1  1  0.44479000  0.75000000  0.96195000  1
  Er  Er2  1  0.55521000  0.25000000  0.03805000  1
  Er  Er3  1  0.94479000  0.75000000  0.53805000  1
  Ta  Ta0  1  0.00000000  0.00000000  0.00000000  1
  Ta  Ta1  1  0.00000000  0.50000000  0.00000000  1
  Ta  Ta2  1  0.20748900  0.00267100  0.71323600  1
  Ta  Ta3  1  0.20748900  0.49732900  0.71323600  1
  Ta  Ta4  1  0.29251100  0.50267100  0.21323600  1
  Ta  Ta5  1  0.29251100  0.99732900  0.21323600  1
  Ta  Ta6  1  0.50000000  0.00000000  0.50000000  1
  Ta  Ta7  1  0.50000000  0.50000000  0.50000000  1
  Ta  Ta8  1  0.70748900  0.00267100  0.78676400  1
  Ta  Ta9  1  0.70748900  0.49732900  0.78676400  1
  Ta  Ta10  1  0.79251100  0.50267100  0.28676400  1
  Ta  Ta11  1  0.79251100  0.99732900  0.28676400  1
  O  O0  1  0.01773300  0.04129100  0.84304700  1
  O  O1  1  0.01773300  0.45870900  0.84304700  1
  O  O2  1  0.08266300  0.75000000  0.97510800  1
  O  O3  1  0.10053600  0.03493500  0.33342000  1
  O  O4  1  0.10053600  0.46506500  0.33342000  1
  O  O5  1  0.16995400  0.25000000  0.67141600  1
  O  O6  1  0.20475400  0.75000000  0.69838900  1
  O  O7  1  0.20610200  0.53781100  0.53694000  1
  O  O8  1  0.20610200  0.96218900  0.53694000  1
  O  O9  1  0.29389800  0.03781100  0.03694000  1
  O  O10  1  0.29389800  0.46218900  0.03694000  1
  O  O11  1  0.29524600  0.25000000  0.19838900  1
  O  O12  1  0.33004600  0.75000000  0.17141600  1
  O  O13  1  0.39946400  0.53493500  0.83342000  1
  O  O14  1  0.39946400  0.96506500  0.83342000  1
  O  O15  1  0.41733700  0.25000000  0.47510800  1
  O  O16  1  0.48226700  0.54129100  0.34304700  1
  O  O17  1  0.48226700  0.95870900  0.34304700  1
  O  O18  1  0.51773300  0.04129100  0.65695300  1
  O  O19  1  0.51773300  0.45870900  0.65695300  1
  O  O20  1  0.58266300  0.75000000  0.52489200  1
  O  O21  1  0.60053600  0.03493500  0.16658000  1
  O  O22  1  0.60053600  0.46506500  0.16658000  1
  O  O23  1  0.66995400  0.25000000  0.82858400  1
  O  O24  1  0.70475400  0.75000000  0.80161100  1
  O  O25  1  0.70610200  0.53781100  0.96306000  1
  O  O26  1  0.70610200  0.96218900  0.96306000  1
  O  O27  1  0.79389800  0.03781100  0.46306000  1
  O  O28  1  0.79389800  0.46218900  0.46306000  1
  O  O29  1  0.79524600  0.25000000  0.30161100  1
  O  O30  1  0.83004600  0.75000000  0.32858400  1
  O  O31  1  0.89946400  0.53493500  0.66658000  1
  O  O32  1  0.89946400  0.96506500  0.66658000  1
  O  O33  1  0.91733700  0.25000000  0.02489200  1
  O  O34  1  0.98226700  0.54129100  0.15695300  1
  O  O35  1  0.98226700  0.95870900  0.15695300  1
loop_
_geom_bond_atom_site_label_1
_geom_bond_atom_site_label_2
_geom_bond_distance
_geom_bond_site_symmetry_2
Er0 O3 2.326582 1_555
Er0 O4 2.326582 1_555
Er0 O28 2.342595 1_455
Er0 O27 2.342595 1_455
Er0 O15 2.349288 1_555
Er0 O7 2.585110 1_555
Er0 O8 2.585110 1_545
Er0 O29 2.630330 1_455
Er0 O5 2.743920 1_555
Er1 O14 2.326582 1_555
Er1 O13 2.326582 1_555
Er1 O26 2.342595 1_555
Er1 O25 2.342595 1_555
Er1 O2 2.349288 1_555
Er1 O9 2.585110 1_566
Er1 O10 2.585110 1_556
Er1 O24 2.630330 1_555
Er1 O12 2.743920 1_556
Er2 O22 2.326582 1_555
Er2 O21 2.326582 1_555
Er2 O10 2.342595 1_555
Er2 O9 2.342595 1_555
Er2 O33 2.349288 1_555
Er2 O25 2.585110 1_554
Er2 O26 2.585110 1_544
Er2 O11 2.630330 1_555
Er2 O23 2.743920 1_554
Er3 O32 2.326582 1_555
Er3 O31 2.326582 1_555
Er3 O8 2.342595 1_655
Er3 O7 2.342595 1_655
Er3 O20 2.349288 1_555
Er3 O27 2.585110 1_565
Er3 O28 2.585110 1_555
Er3 O6 2.630330 1_655
Er3 O30 2.743920 1_555
O0 Ta0 2.007571 1_556
O0 Ta2 2.067558 1_555
O0 Ta8 2.149787 1_455
O1 Ta1 2.007571 1_556
O1 Ta3 2.067558 1_555
O1 Ta9 2.149787 1_455
O2 Ta1 2.008170 1_556
O2 Ta0 2.008170 1_566
O3 Ta5 1.980659 1_545
O3 Ta11 2.098099 1_445
O4 Ta4 1.980659 1_555
O4 Ta10 2.098099 1_455
O5 Ta3 1.976778 1_555
O5 Ta2 1.976778 1_555
O6 Ta2 1.939534 1_565
O6 Ta3 1.939534 1_555
O7 Ta7 1.979306 1_555
O7 Ta3 2.244666 1_555
O8 Ta6 1.979306 1_565
O8 Ta2 2.244666 1_565
O9 Ta0 1.979306 1_555
O9 Ta5 2.244666 1_545
O10 Ta1 1.979306 1_555
O10 Ta4 2.244666 1_555
O11 Ta4 1.939534 1_555
O11 Ta5 1.939534 1_545
O12 Ta5 1.976778 1_555
O12 Ta4 1.976778 1_555
O13 Ta3 1.980659 1_555
O13 Ta9 2.098099 1_555
O14 Ta2 1.980659 1_565
O14 Ta8 2.098099 1_565
O15 Ta7 2.008170 1_555
O15 Ta6 2.008170 1_555
O16 Ta7 2.007571 1_555
O16 Ta4 2.067558 1_555
O16 Ta10 2.149787 1_555
O17 Ta6 2.007571 1_565
O17 Ta5 2.067558 1_555
O17 Ta11 2.149787 1_555
O18 Ta6 2.007571 1_555
O18 Ta8 2.067558 1_555
O18 Ta2 2.149787 1_555
O19 Ta7 2.007571 1_555
O19 Ta9 2.067558 1_555
O19 Ta3 2.149787 1_555
O20 Ta6 2.008170 1_565
O20 Ta7 2.008170 1_555
O21 Ta11 1.980659 1_545
O21 Ta5 2.098099 1_545
O22 Ta10 1.980659 1_555
O22 Ta4 2.098099 1_555
O23 Ta9 1.976778 1_555
O23 Ta8 1.976778 1_555
O24 Ta8 1.939534 1_565
O24 Ta9 1.939534 1_555
O25 Ta1 1.979306 1_656
O25 Ta9 2.244666 1_555
O26 Ta0 1.979306 1_666
O26 Ta8 2.244666 1_565
O27 Ta6 1.979306 1_555
O27 Ta11 2.244666 1_545
O28 Ta7 1.979306 1_555
O28 Ta10 2.244666 1_555
O29 Ta10 1.939534 1_555
O29 Ta11 1.939534 1_545
O30 Ta11 1.976778 1_555
O30 Ta10 1.976778 1_555
O31 Ta9 1.980659 1_555
O31 Ta3 2.098099 1_655
O32 Ta8 1.980659 1_565
O32 Ta2 2.098099 1_665
O33 Ta0 2.008170 1_655
O33 Ta1 2.008170 1_655
O34 Ta1 2.007571 1_655
O34 Ta10 2.067558 1_555
O34 Ta4 2.149787 1_655
O35 Ta0 2.007571 1_665
O35 Ta11 2.067558 1_555
O35 Ta5 2.149787 1_655
