# generated using pymatgen
data_LiCuCO3F
_symmetry_space_group_name_H-M   'P 1'
_cell_length_a   3.68653200
_cell_length_b   4.78390700
_cell_length_c   8.88058800
_cell_angle_alpha   90.00000000
_cell_angle_beta   90.00000000
_cell_angle_gamma   90.00000000
_symmetry_Int_Tables_number   1
_chemical_formula_structural   LiCuCO3F
_chemical_formula_sum   'Li2 Cu2 C2 O6 F2'
_cell_volume   156.61828300
_cell_formula_units_Z   2
loop_
 _symmetry_equiv_pos_site_id
 _symmetry_equiv_pos_as_xyz
  1  'x, y, z'
loop_
 _atom_site_type_symbol
 _atom_site_label
 _atom_site_symmetry_multiplicity
 _atom_site_fract_x
 _atom_site_fract_y
 _atom_site_fract_z
 _atom_site_occupancy
  Li  Li0  1  0.50000000  0.24342300  0.59852700  1
  Li  Li1  1  0.50000000  0.75657700  0.09852700  1
  Cu  Cu0  1  0.00000000  0.23641700  0.23711800  1
  Cu  Cu1  1  0.00000000  0.76358300  0.73711800  1
  C  C0  1  0.00000000  0.77725900  0.41652000  1
  C  C1  1  0.00000000  0.22274100  0.91652000  1
  O  O0  1  0.00000000  0.38944600  0.03154700  1
  O  O1  1  0.00000000  0.04780700  0.43602400  1
  O  O2  1  0.00000000  0.67262100  0.28287200  1
  O  O3  1  0.00000000  0.61055400  0.53154700  1
  O  O4  1  0.00000000  0.32737900  0.78287200  1
  O  O5  1  0.00000000  0.95219300  0.93602400  1
  F  F0  1  0.50000000  0.09966400  0.19759300  1
  F  F1  1  0.50000000  0.90033600  0.69759300  1
loop_
_geom_bond_atom_site_label_1
_geom_bond_atom_site_label_2
_geom_bond_distance
_geom_bond_site_symmetry_2
Li0 O4 2.497802 1_655
Li0 O4 2.497802 1_555
Li0 O1 2.521105 1_655
Li0 O1 2.521105 1_555
Li1 O2 2.497802 1_555
Li1 O2 2.497802 1_655
Li1 O5 2.521105 1_654
Li1 O5 2.521105 1_554
Cu0 O0 1.966906 1_555
Cu0 O1 1.983509 1_555
Cu0 F0 1.987166 1_555
Cu0 F0 1.987166 1_455
Cu0 O2 2.125950 1_555
Cu1 O3 1.966906 1_555
Cu1 O5 1.983509 1_555
Cu1 F1 1.987166 1_455
Cu1 F1 1.987166 1_555
Cu1 O4 2.125950 1_555
C0 O2 1.288117 1_555
C0 O3 1.295950 1_555
C0 O1 1.305815 1_565
C1 O4 1.288117 1_555
C1 O0 1.295950 1_556
C1 O5 1.305815 1_545
F0 Li1 1.862213 1_545
F1 Li0 1.862213 1_565
