# generated using pymatgen
data_Li7Mn8(BO3)8
_symmetry_space_group_name_H-M   'P 1'
_cell_length_a   5.22784400
_cell_length_b   9.11563224
_cell_length_c   11.53350367
_cell_angle_alpha   111.39699719
_cell_angle_beta   102.20251936
_cell_angle_gamma   89.28174999
_symmetry_Int_Tables_number   1
_chemical_formula_structural   Li7Mn8(BO3)8
_chemical_formula_sum   'Li7 Mn8 B8 O24'
_cell_volume   498.92397566
_cell_formula_units_Z   1
loop_
 _symmetry_equiv_pos_site_id
 _symmetry_equiv_pos_as_xyz
  1  'x, y, z'
loop_
 _atom_site_type_symbol
 _atom_site_label
 _atom_site_symmetry_multiplicity
 _atom_site_fract_x
 _atom_site_fract_y
 _atom_site_fract_z
 _atom_site_occupancy
  Li  Li0  1  0.02025200  0.99291300  0.83758000  1
  Li  Li1  1  0.20691100  0.21960600  0.58087800  1
  Li  Li2  1  0.52387000  0.49115900  0.83692800  1
  Li  Li3  1  0.47007100  0.46274400  0.09793600  1
  Li  Li4  1  0.70856800  0.70790000  0.57383700  1
  Li  Li5  1  0.72696600  0.75005900  0.33438300  1
  Li  Li6  1  0.95982700  0.95518100  0.07821600  1
  Mn  Mn0  1  0.03069800  0.34281100  0.87336600  1
  Mn  Mn1  1  0.23510300  0.56385200  0.61845300  1
  Mn  Mn2  1  0.25069800  0.95229700  0.36302100  1
  Mn  Mn3  1  0.52325500  0.84563800  0.86669300  1
  Mn  Mn4  1  0.45752300  0.13920400  0.12406700  1
  Mn  Mn5  1  0.72977200  0.05587500  0.61830100  1
  Mn  Mn6  1  0.78288600  0.40846900  0.36983600  1
  Mn  Mn7  1  0.97533200  0.64758000  0.11950100  1
  B  B0  1  0.03058800  0.68260900  0.87316200  1
  B  B1  1  0.23989600  0.89513400  0.62440900  1
  B  B2  1  0.25956000  0.61846600  0.37524000  1
  B  B3  1  0.53416300  0.18718700  0.87927900  1
  B  B4  1  0.47165700  0.81280500  0.12421900  1
  B  B5  1  0.73587600  0.38576700  0.62245400  1
  B  B6  1  0.76366100  0.11057400  0.37803800  1
  B  B7  1  0.96988800  0.30938900  0.12817500  1
  O  O0  1  0.02609700  0.14301500  0.39732600  1
  O  O1  1  0.26022300  0.64650700  0.82753900  1
  O  O2  1  0.10628100  0.72062500  0.32990900  1
  O  O3  1  0.40172600  0.07722700  0.90834500  1
  O  O4  1  0.13125500  0.52020000  0.41781200  1
  O  O5  1  0.44000900  0.33582800  0.90184900  1
  O  O6  1  0.06438700  0.16665200  0.11482900  1
  O  O7  1  0.32383700  0.00859900  0.58360700  1
  O  O8  1  0.08393500  0.41622200  0.08964800  1
  O  O9  1  0.41721100  0.79085200  0.65600700  1
  O  O10  1  0.22612900  0.84912400  0.15300400  1
  O  O11  1  0.48700700  0.39448100  0.64427000  1
  O  O12  1  0.52718000  0.61467200  0.38589800  1
  O  O13  1  0.76141800  0.14933000  0.83254100  1
  O  O14  1  0.58739200  0.20780200  0.33470200  1
  O  O15  1  0.90650500  0.57380300  0.90688600  1
  O  O16  1  0.66195000  0.98790700  0.40452200  1
  O  O17  1  0.92684700  0.82614900  0.88668100  1
  O  O18  1  0.58867300  0.68294700  0.14075600  1
  O  O19  1  0.82550600  0.48328600  0.56531300  1
  O  O20  1  0.59583200  0.91071800  0.08110800  1
  O  O21  1  0.90738100  0.28491500  0.65947600  1
  O  O22  1  0.73821100  0.34935600  0.17882000  1
  O  O23  1  0.98454800  0.88450900  0.63814500  1
loop_
_geom_bond_atom_site_label_1
_geom_bond_atom_site_label_2
_geom_bond_distance
_geom_bond_site_symmetry_2
Li0 O17 1.906223 1_455
Li0 O13 1.961184 1_465
Li0 O3 2.031420 1_565
Li0 O23 2.113482 1_455
Li1 O21 1.952213 1_455
Li1 O0 1.988668 1_555
Li1 O11 1.993840 1_555
Li1 O7 2.020127 1_555
Li2 O5 1.919809 1_555
Li2 O1 1.979050 1_555
Li2 O15 2.032720 1_555
Li2 O11 2.036070 1_555
Li3 O18 1.958566 1_555
Li3 O22 2.004504 1_555
Li3 O8 2.043104 1_555
Li3 O5 2.103106 1_554
Li4 O9 1.961744 1_555
Li4 O23 1.989504 1_555
Li4 O12 2.031524 1_555
Li4 O19 2.103044 1_555
Li5 O12 1.948503 1_555
Li5 O2 2.006678 1_655
Li5 O18 2.053249 1_555
Li5 O16 2.070928 1_555
Li6 O6 1.878296 1_665
Li6 O10 1.919359 1_655
Li6 O20 1.960225 1_555
Li6 O17 2.059459 1_554
Mn0 O5 2.098918 1_555
Mn0 O15 2.117209 1_455
Mn0 O13 2.119013 1_455
Mn0 O21 2.272886 1_455
Mn0 O8 2.289308 1_556
Mn1 O11 2.079741 1_555
Mn1 O9 2.144032 1_555
Mn1 O4 2.147220 1_555
Mn1 O19 2.157870 1_455
Mn1 O1 2.223309 1_555
Mn2 O0 2.049632 1_565
Mn2 O16 2.103784 1_555
Mn2 O2 2.122575 1_555
Mn2 O10 2.231035 1_555
Mn2 O7 2.350142 1_565
Mn3 O17 2.085981 1_555
Mn3 O3 2.108674 1_565
Mn3 O1 2.142833 1_555
Mn3 O9 2.239061 1_555
Mn3 O20 2.269350 1_556
Mn4 O6 2.052319 1_555
Mn4 O20 2.113539 1_545
Mn4 O14 2.226819 1_555
Mn4 O22 2.240061 1_555
Mn4 O3 2.294834 1_554
Mn5 O23 2.084812 1_545
Mn5 O7 2.094647 1_555
Mn5 O21 2.141377 1_555
Mn5 O16 2.260569 1_545
Mn5 O13 2.270119 1_555
Mn6 O4 1.967140 1_655
Mn6 O14 1.971209 1_555
Mn6 O22 2.029268 1_555
Mn6 O19 2.065729 1_555
Mn6 O12 2.267621 1_555
Mn7 O18 2.094167 1_555
Mn7 O8 2.100347 1_655
Mn7 O10 2.138202 1_655
Mn7 O2 2.220632 1_655
Mn7 O15 2.241600 1_554
B0 O17 1.378261 1_455
B0 O1 1.398983 1_555
B0 O15 1.400034 1_455
B1 O23 1.385759 1_455
B1 O7 1.391992 1_565
B1 O9 1.408405 1_555
B2 O12 1.379459 1_555
B2 O2 1.393597 1_555
B2 O4 1.403064 1_555
B3 O5 1.387818 1_555
B3 O13 1.394939 1_555
B3 O3 1.398984 1_555
B4 O18 1.381702 1_555
B4 O20 1.392861 1_555
B4 O10 1.398821 1_555
B5 O11 1.372429 1_555
B5 O21 1.391152 1_555
B5 O19 1.418650 1_555
B6 O0 1.361030 1_655
B6 O16 1.399701 1_545
B6 O14 1.411578 1_555
B7 O6 1.353001 1_655
B7 O8 1.394134 1_655
B7 O22 1.439996 1_555
