# generated using pymatgen
data_Sc2Ge2O7
_symmetry_space_group_name_H-M   'P 1'
_cell_length_a   6.80505321
_cell_length_b   6.80505321
_cell_length_c   6.80505321
_cell_angle_alpha   60.00000000
_cell_angle_beta   60.00000000
_cell_angle_gamma   60.00000000
_symmetry_Int_Tables_number   1
_chemical_formula_structural   Sc2Ge2O7
_chemical_formula_sum   'Sc4 Ge4 O14'
_cell_volume   222.83303632
_cell_formula_units_Z   2
loop_
 _symmetry_equiv_pos_site_id
 _symmetry_equiv_pos_as_xyz
  1  'x, y, z'
loop_
 _atom_site_type_symbol
 _atom_site_label
 _atom_site_symmetry_multiplicity
 _atom_site_fract_x
 _atom_site_fract_y
 _atom_site_fract_z
 _atom_site_occupancy
  Sc  Sc0  1  0.62500000  0.62500000  0.62500000  1
  Sc  Sc1  1  0.12500000  0.62500000  0.62500000  1
  Sc  Sc2  1  0.62500000  0.12500000  0.62500000  1
  Sc  Sc3  1  0.62500000  0.62500000  0.12500000  1
  Ge  Ge0  1  0.12500000  0.62500000  0.12500000  1
  Ge  Ge1  1  0.12500000  0.12500000  0.62500000  1
  Ge  Ge2  1  0.62500000  0.12500000  0.12500000  1
  Ge  Ge3  1  0.12500000  0.12500000  0.12500000  1
  O  O0  1  0.75000000  0.75000000  0.75000000  1
  O  O1  1  0.20692248  0.79307752  0.79307752  1
  O  O2  1  0.20692248  0.79307752  0.20692248  1
  O  O3  1  0.79307752  0.79307752  0.20692248  1
  O  O4  1  0.79307752  0.20692248  0.79307752  1
  O  O5  1  0.20692248  0.20692248  0.79307752  1
  O  O6  1  0.45692248  0.04307752  0.04307752  1
  O  O7  1  0.79307752  0.20692248  0.20692248  1
  O  O8  1  0.04307752  0.45692248  0.04307752  1
  O  O9  1  0.04307752  0.04307752  0.45692248  1
  O  O10  1  0.45692248  0.45692248  0.04307752  1
  O  O11  1  0.45692248  0.04307752  0.45692248  1
  O  O12  1  0.04307752  0.45692248  0.45692248  1
  O  O13  1  0.50000000  0.50000000  0.50000000  1
loop_
_geom_bond_atom_site_label_1
_geom_bond_atom_site_label_2
_geom_bond_distance
_geom_bond_site_symmetry_2
Ge0 O8 1.875068 1_555
Ge0 O2 1.875068 1_555
Ge0 O12 1.875068 1_555
Ge0 O1 1.875068 1_554
Ge0 O10 1.875068 1_555
Ge0 O3 1.875068 1_455
Ge1 O5 1.875068 1_555
Ge1 O9 1.875068 1_555
Ge1 O1 1.875068 1_545
Ge1 O12 1.875068 1_555
Ge1 O4 1.875068 1_455
Ge1 O11 1.875068 1_555
Ge2 O4 1.875068 1_554
Ge2 O11 1.875068 1_555
Ge2 O6 1.875068 1_555
Ge2 O7 1.875068 1_555
Ge2 O10 1.875068 1_555
Ge2 O3 1.875068 1_545
Ge3 O5 1.875068 1_554
Ge3 O9 1.875068 1_555
Ge3 O6 1.875068 1_555
Ge3 O2 1.875068 1_545
Ge3 O7 1.875068 1_455
Ge3 O8 1.875068 1_555
O0 Sc3 2.083614 1_556
O0 Sc1 2.083614 1_655
O0 Sc2 2.083614 1_565
O0 Sc0 2.083614 1_555
O1 Sc0 2.347498 1_555
O1 Sc1 2.347498 1_555
O2 Sc3 2.347498 1_555
O2 Sc1 2.347498 1_555
O3 Sc0 2.347498 1_555
O3 Sc3 2.347498 1_555
O4 Sc2 2.347498 1_555
O4 Sc0 2.347498 1_555
O5 Sc2 2.347498 1_555
O5 Sc1 2.347498 1_555
O6 Sc2 2.347498 1_554
O6 Sc3 2.347498 1_545
O7 Sc2 2.347498 1_555
O7 Sc3 2.347498 1_555
O8 Sc3 2.347498 1_455
O8 Sc1 2.347498 1_554
O9 Sc2 2.347498 1_455
O9 Sc1 2.347498 1_545
O10 Sc3 2.347498 1_555
O10 Sc0 2.347498 1_554
O11 Sc0 2.347498 1_545
O11 Sc2 2.347498 1_555
O12 Sc0 2.347498 1_455
O12 Sc1 2.347498 1_555
O13 Sc3 2.083614 1_555
O13 Sc1 2.083614 1_555
O13 Sc2 2.083614 1_555
O13 Sc0 2.083614 1_555
