# generated using pymatgen
data_Na5(CN2)3
_symmetry_space_group_name_H-M   'P 1'
_cell_length_a   6.27847460
_cell_length_b   6.27847460
_cell_length_c   6.27847460
_cell_angle_alpha   109.47122063
_cell_angle_beta   109.47122063
_cell_angle_gamma   109.47122063
_symmetry_Int_Tables_number   1
_chemical_formula_structural   Na5(CN2)3
_chemical_formula_sum   'Na5 C3 N6'
_cell_volume   190.51998295
_cell_formula_units_Z   1
loop_
 _symmetry_equiv_pos_site_id
 _symmetry_equiv_pos_as_xyz
  1  'x, y, z'
loop_
 _atom_site_type_symbol
 _atom_site_label
 _atom_site_symmetry_multiplicity
 _atom_site_fract_x
 _atom_site_fract_y
 _atom_site_fract_z
 _atom_site_occupancy
  Na  Na0  1  0.00000000  0.00000000  0.00000000  1
  Na  Na1  1  0.00000000  0.00000000  0.50000000  1
  Na  Na2  1  0.00000000  0.50000000  0.00000000  1
  Na  Na3  1  0.50000000  0.00000000  0.00000000  1
  Na  Na4  1  0.50000000  0.50000000  0.50000000  1
  C  C0  1  0.50000000  0.50000000  0.00000000  1
  C  C1  1  0.50000000  0.00000000  0.50000000  1
  C  C2  1  0.00000000  0.50000000  0.50000000  1
  N  N0  1  0.67092100  0.67092100  0.00000000  1
  N  N1  1  0.32907900  0.00000000  0.32907900  1
  N  N2  1  0.00000000  0.32907900  0.32907900  1
  N  N3  1  0.32907900  0.32907900  0.00000000  1
  N  N4  1  0.67092100  0.00000000  0.67092100  1
  N  N5  1  0.00000000  0.67092100  0.67092100  1
loop_
_geom_bond_atom_site_label_1
_geom_bond_atom_site_label_2
_geom_bond_distance
_geom_bond_site_symmetry_2
C0 N0 1.239136 1_555
C0 N3 1.239136 1_555
C1 N1 1.239136 1_555
C1 N4 1.239136 1_555
C2 N5 1.239136 1_555
C2 N2 1.239136 1_555
N0 Na0 2.385743 1_665
N0 Na4 2.626509 1_554
N0 Na1 2.626509 1_665
N0 Na2 2.626509 1_655
N0 Na3 2.626509 1_565
N1 Na0 2.385743 1_555
N1 Na2 2.626509 1_545
N1 Na3 2.626509 1_555
N1 Na4 2.626509 1_555
N1 Na1 2.626509 1_555
N2 Na0 2.385743 1_555
N2 Na3 2.626509 1_455
N2 Na2 2.626509 1_555
N2 Na4 2.626509 1_555
N2 Na1 2.626509 1_555
N3 Na0 2.385743 1_555
N3 Na2 2.626509 1_555
N3 Na3 2.626509 1_555
N3 Na1 2.626509 1_554
N3 Na4 2.626509 1_555
N4 Na0 2.385743 1_656
N4 Na1 2.626509 1_655
N4 Na4 2.626509 1_545
N4 Na2 2.626509 1_656
N4 Na3 2.626509 1_556
N5 Na0 2.385743 1_566
N5 Na2 2.626509 1_556
N5 Na4 2.626509 1_455
N5 Na3 2.626509 1_566
N5 Na1 2.626509 1_565
