# generated using pymatgen
data_SiMo12H24C6N3O40
_symmetry_space_group_name_H-M   'P 1'
_cell_length_a   12.86373653
_cell_length_b   12.86373653
_cell_length_c   12.86373657
_cell_angle_alpha   80.94879752
_cell_angle_beta   80.94879752
_cell_angle_gamma   80.94879690
_symmetry_Int_Tables_number   1
_chemical_formula_structural   SiMo12H24C6N3O40
_chemical_formula_sum   'Si2 Mo24 H48 C12 N6 O80'
_cell_volume   2056.68633970
_cell_formula_units_Z   2
loop_
 _symmetry_equiv_pos_site_id
 _symmetry_equiv_pos_as_xyz
  1  'x, y, z'
loop_
 _atom_site_type_symbol
 _atom_site_label
 _atom_site_symmetry_multiplicity
 _atom_site_fract_x
 _atom_site_fract_y
 _atom_site_fract_z
 _atom_site_occupancy
  Si  Si0  1  0.76511600  0.76511600  0.76511600  1
  Si  Si1  1  0.23488400  0.23488400  0.23488400  1
  Mo  Mo0  1  0.74619900  0.95078700  0.95078700  1
  Mo  Mo1  1  0.95078700  0.95078700  0.74619900  1
  Mo  Mo2  1  0.95078700  0.74619900  0.95078700  1
  Mo  Mo3  1  0.25380100  0.04921300  0.04921300  1
  Mo  Mo4  1  0.04921300  0.04921300  0.25380100  1
  Mo  Mo5  1  0.04921300  0.25380100  0.04921300  1
  Mo  Mo6  1  0.55019100  0.98057500  0.75569300  1
  Mo  Mo7  1  0.98057500  0.75569300  0.55019100  1
  Mo  Mo8  1  0.75569300  0.55019100  0.98057500  1
  Mo  Mo9  1  0.98057500  0.55019100  0.75569300  1
  Mo  Mo10  1  0.55019100  0.75569300  0.98057500  1
  Mo  Mo11  1  0.75569300  0.98057500  0.55019100  1
  Mo  Mo12  1  0.44980900  0.01942500  0.24430700  1
  Mo  Mo13  1  0.01942500  0.24430700  0.44980900  1
  Mo  Mo14  1  0.24430700  0.44980900  0.01942500  1
  Mo  Mo15  1  0.01942500  0.44980900  0.24430700  1
  Mo  Mo16  1  0.44980900  0.24430700  0.01942500  1
  Mo  Mo17  1  0.24430700  0.01942500  0.44980900  1
  Mo  Mo18  1  0.57923100  0.80396000  0.57923100  1
  Mo  Mo19  1  0.80396000  0.57923100  0.57923100  1
  Mo  Mo20  1  0.57923100  0.57923100  0.80396000  1
  Mo  Mo21  1  0.42076900  0.19604000  0.42076900  1
  Mo  Mo22  1  0.19604000  0.42076900  0.42076900  1
  Mo  Mo23  1  0.42076900  0.42076900  0.19604000  1
  H  H0  1  0.69106000  0.17043800  0.79039100  1
  H  H1  1  0.17043800  0.79039100  0.69106000  1
  H  H2  1  0.79039100  0.69106000  0.17043800  1
  H  H3  1  0.17043800  0.69106000  0.79039100  1
  H  H4  1  0.69106000  0.79039100  0.17043800  1
  H  H5  1  0.79039100  0.17043800  0.69106000  1
  H  H6  1  0.30894000  0.82956200  0.20960900  1
  H  H7  1  0.82956200  0.20960900  0.30894000  1
  H  H8  1  0.20960900  0.30894000  0.82956200  1
  H  H9  1  0.82956200  0.30894000  0.20960900  1
  H  H10  1  0.30894000  0.20960900  0.82956200  1
  H  H11  1  0.20960900  0.82956200  0.30894000  1
  H  H12  1  0.62694800  0.24391500  0.62694800  1
  H  H13  1  0.24391500  0.62694800  0.62694800  1
  H  H14  1  0.62694800  0.62694800  0.24391500  1
  H  H15  1  0.37305200  0.75608500  0.37305200  1
  H  H16  1  0.75608500  0.37305200  0.37305200  1
  H  H17  1  0.37305200  0.37305200  0.75608500  1
  H  H18  1  0.71619200  0.34209600  0.60841200  1
  H  H19  1  0.34209600  0.60841200  0.71619200  1
  H  H20  1  0.60841200  0.71619200  0.34209600  1
  H  H21  1  0.34209600  0.71619200  0.60841200  1
  H  H22  1  0.71619200  0.60841200  0.34209600  1
  H  H23  1  0.60841200  0.34209600  0.71619200  1
  H  H24  1  0.28380800  0.65790400  0.39158800  1
  H  H25  1  0.65790400  0.39158800  0.28380800  1
  H  H26  1  0.39158800  0.28380800  0.65790400  1
  H  H27  1  0.65790400  0.28380800  0.39158800  1
  H  H28  1  0.28380800  0.39158800  0.65790400  1
  H  H29  1  0.39158800  0.65790400  0.28380800  1
  H  H30  1  0.84612300  0.21272400  0.84612300  1
  H  H31  1  0.21272400  0.84612300  0.84612300  1
  H  H32  1  0.84612300  0.84612300  0.21272400  1
  H  H33  1  0.15387700  0.78727600  0.15387700  1
  H  H34  1  0.78727600  0.15387700  0.15387700  1
  H  H35  1  0.15387700  0.15387700  0.78727600  1
  H  H36  1  0.74123100  0.32303100  0.84904700  1
  H  H37  1  0.32303100  0.84904700  0.74123100  1
  H  H38  1  0.84904700  0.74123100  0.32303100  1
  H  H39  1  0.32303100  0.74123100  0.84904700  1
  H  H40  1  0.74123100  0.84904700  0.32303100  1
  H  H41  1  0.84904700  0.32303100  0.74123100  1
  H  H42  1  0.25876900  0.67696900  0.15095300  1
  H  H43  1  0.67696900  0.15095300  0.25876900  1
  H  H44  1  0.15095300  0.25876900  0.67696900  1
  H  H45  1  0.67696900  0.25876900  0.15095300  1
  H  H46  1  0.25876900  0.15095300  0.67696900  1
  H  H47  1  0.15095300  0.67696900  0.25876900  1
  C  C0  1  0.66687500  0.29252000  0.66687500  1
  C  C1  1  0.29252000  0.66687500  0.66687500  1
  C  C2  1  0.66687500  0.66687500  0.29252000  1
  C  C3  1  0.33312500  0.70748000  0.33312500  1
  C  C4  1  0.70748000  0.33312500  0.33312500  1
  C  C5  1  0.33312500  0.33312500  0.70748000  1
  C  C6  1  0.79790000  0.27374900  0.79790000  1
  C  C7  1  0.27374900  0.79790000  0.79790000  1
  C  C8  1  0.79790000  0.79790000  0.27374900  1
  C  C9  1  0.20210000  0.72625100  0.20210000  1
  C  C10  1  0.72625100  0.20210000  0.20210000  1
  C  C11  1  0.20210000  0.20210000  0.72625100  1
  N  N0  1  0.73715200  0.21937000  0.73715200  1
  N  N1  1  0.21937000  0.73715200  0.73715200  1
  N  N2  1  0.73715200  0.73715200  0.21937000  1
  N  N3  1  0.26284800  0.78063000  0.26284800  1
  N  N4  1  0.78063000  0.26284800  0.26284800  1
  N  N5  1  0.26284800  0.26284800  0.78063000  1
  O  O0  1  0.82937600  0.82937600  0.82937600  1
  O  O1  1  0.17062400  0.17062400  0.17062400  1
  O  O2  1  0.69012700  0.85097900  0.69012700  1
  O  O3  1  0.85097900  0.69012700  0.69012700  1
  O  O4  1  0.69012700  0.69012700  0.85097900  1
  O  O5  1  0.30987300  0.14902100  0.30987300  1
  O  O6  1  0.14902100  0.30987300  0.30987300  1
  O  O7  1  0.30987300  0.30987300  0.14902100  1
  O  O8  1  0.70862800  0.03996600  0.03996600  1
  O  O9  1  0.03996600  0.03996600  0.70862800  1
  O  O10  1  0.03996600  0.70862800  0.03996600  1
  O  O11  1  0.29137200  0.96003400  0.96003400  1
  O  O12  1  0.96003400  0.96003400  0.29137200  1
  O  O13  1  0.96003400  0.29137200  0.96003400  1
  O  O14  1  0.85763800  0.02006800  0.85763800  1
  O  O15  1  0.02006800  0.85763800  0.85763800  1
  O  O16  1  0.85763800  0.85763800  0.02006800  1
  O  O17  1  0.14236200  0.97993200  0.14236200  1
  O  O18  1  0.97993200  0.14236200  0.14236200  1
  O  O19  1  0.14236200  0.14236200  0.97993200  1
  O  O20  1  0.65143600  0.00337200  0.84511700  1
  O  O21  1  0.00337200  0.84511700  0.65143600  1
  O  O22  1  0.84511700  0.65143600  0.00337200  1
  O  O23  1  0.00337200  0.65143600  0.84511700  1
  O  O24  1  0.65143600  0.84511700  0.00337200  1
  O  O25  1  0.84511700  0.00337200  0.65143600  1
  O  O26  1  0.34856400  0.99662800  0.15488300  1
  O  O27  1  0.99662800  0.15488300  0.34856400  1
  O  O28  1  0.15488300  0.34856400  0.99662800  1
  O  O29  1  0.99662800  0.34856400  0.15488300  1
  O  O30  1  0.34856400  0.15488300  0.99662800  1
  O  O31  1  0.15488300  0.99662800  0.34856400  1
  O  O32  1  0.51606600  0.86606800  0.86606800  1
  O  O33  1  0.86606800  0.86606800  0.51606600  1
  O  O34  1  0.86606800  0.51606600  0.86606800  1
  O  O35  1  0.48393400  0.13393200  0.13393200  1
  O  O36  1  0.13393200  0.13393200  0.48393400  1
  O  O37  1  0.13393200  0.48393400  0.13393200  1
  O  O38  1  0.44862200  0.08142300  0.78031000  1
  O  O39  1  0.08142300  0.78031000  0.44862200  1
  O  O40  1  0.78031000  0.44862200  0.08142300  1
  O  O41  1  0.08142300  0.44862200  0.78031000  1
  O  O42  1  0.44862200  0.78031000  0.08142300  1
  O  O43  1  0.78031000  0.08142300  0.44862200  1
  O  O44  1  0.55137800  0.91857700  0.21969000  1
  O  O45  1  0.91857700  0.21969000  0.55137800  1
  O  O46  1  0.21969000  0.55137800  0.91857700  1
  O  O47  1  0.91857700  0.55137800  0.21969000  1
  O  O48  1  0.55137800  0.21969000  0.91857700  1
  O  O49  1  0.21969000  0.91857700  0.55137800  1
  O  O50  1  0.63554700  0.05323900  0.63554700  1
  O  O51  1  0.05323900  0.63554700  0.63554700  1
  O  O52  1  0.63554700  0.63554700  0.05323900  1
  O  O53  1  0.36445300  0.94676100  0.36445300  1
  O  O54  1  0.94676100  0.36445300  0.36445300  1
  O  O55  1  0.36445300  0.36445300  0.94676100  1
  O  O56  1  0.49326300  0.91469100  0.65511600  1
  O  O57  1  0.91469100  0.65511600  0.49326300  1
  O  O58  1  0.65511600  0.49326300  0.91469100  1
  O  O59  1  0.91469100  0.49326300  0.65511600  1
  O  O60  1  0.49326300  0.65511600  0.91469100  1
  O  O61  1  0.65511600  0.91469100  0.49326300  1
  O  O62  1  0.50673700  0.08530900  0.34488400  1
  O  O63  1  0.08530900  0.34488400  0.50673700  1
  O  O64  1  0.34488400  0.50673700  0.08530900  1
  O  O65  1  0.08530900  0.50673700  0.34488400  1
  O  O66  1  0.50673700  0.34488400  0.08530900  1
  O  O67  1  0.34488400  0.08530900  0.50673700  1
  O  O68  1  0.54244400  0.69954000  0.69954000  1
  O  O69  1  0.69954000  0.69954000  0.54244400  1
  O  O70  1  0.69954000  0.54244400  0.69954000  1
  O  O71  1  0.45755600  0.30046000  0.30046000  1
  O  O72  1  0.30046000  0.30046000  0.45755600  1
  O  O73  1  0.30046000  0.45755600  0.30046000  1
  O  O74  1  0.49446600  0.78659900  0.49446600  1
  O  O75  1  0.78659900  0.49446600  0.49446600  1
  O  O76  1  0.49446600  0.49446600  0.78659900  1
  O  O77  1  0.50553400  0.21340100  0.50553400  1
  O  O78  1  0.21340100  0.50553400  0.50553400  1
  O  O79  1  0.50553400  0.50553400  0.21340100  1
loop_
_geom_bond_atom_site_label_1
_geom_bond_atom_site_label_2
_geom_bond_distance
_geom_bond_site_symmetry_2
Mo0 O8 1.711952 1_566
Mo0 O20 1.940072 1_565
Mo0 O24 1.940072 1_556
Mo0 O16 1.952065 1_556
Mo0 O14 1.952065 1_565
Mo0 O0 2.395656 1_555
Mo1 O9 1.711952 1_665
Mo1 O25 1.940072 1_565
Mo1 O21 1.940072 1_655
Mo1 O14 1.952065 1_565
Mo1 O15 1.952065 1_655
Mo1 O0 2.395656 1_555
Mo2 O10 1.711952 1_656
Mo2 O23 1.940072 1_655
Mo2 O22 1.940072 1_556
Mo2 O16 1.952065 1_556
Mo2 O15 1.952065 1_655
Mo2 O0 2.395656 1_555
Mo3 O11 1.711952 1_544
Mo3 O26 1.940072 1_545
Mo3 O30 1.940072 1_554
Mo3 O19 1.952065 1_554
Mo3 O17 1.952065 1_545
Mo3 O1 2.395656 1_555
Mo4 O12 1.711952 1_445
Mo4 O31 1.940072 1_545
Mo4 O27 1.940072 1_455
Mo4 O17 1.952065 1_545
Mo4 O18 1.952065 1_455
Mo4 O1 2.395656 1_555
Mo5 O13 1.711952 1_454
Mo5 O29 1.940072 1_455
Mo5 O28 1.940072 1_554
Mo5 O19 1.952065 1_554
Mo5 O18 1.952065 1_455
Mo5 O1 2.395656 1_555
Mo6 O38 1.719328 1_565
Mo6 O32 1.930710 1_555
Mo6 O56 1.940834 1_555
Mo6 O50 1.949981 1_565
Mo6 O20 1.950167 1_565
Mo6 O2 2.398211 1_555
Mo7 O39 1.719328 1_655
Mo7 O33 1.930709 1_555
Mo7 O57 1.940834 1_555
Mo7 O51 1.949981 1_655
Mo7 O21 1.950167 1_655
Mo7 O3 2.398211 1_555
Mo8 O40 1.719328 1_556
Mo8 O34 1.930710 1_555
Mo8 O58 1.940834 1_555
Mo8 O52 1.949981 1_556
Mo8 O22 1.950167 1_556
Mo8 O4 2.398211 1_555
Mo9 O41 1.719328 1_655
Mo9 O34 1.930710 1_555
Mo9 O59 1.940834 1_555
Mo9 O51 1.949981 1_655
Mo9 O23 1.950167 1_655
Mo9 O3 2.398211 1_555
Mo10 O42 1.719328 1_556
Mo10 O32 1.930710 1_555
Mo10 O60 1.940834 1_555
Mo10 O52 1.949981 1_556
Mo10 O24 1.950167 1_556
Mo10 O4 2.398211 1_555
Mo11 O43 1.719328 1_565
Mo11 O33 1.930709 1_555
Mo11 O61 1.940834 1_555
Mo11 O50 1.949981 1_565
Mo11 O25 1.950167 1_565
Mo11 O2 2.398211 1_555
Mo12 O44 1.719328 1_545
Mo12 O35 1.930710 1_555
Mo12 O62 1.940834 1_555
Mo12 O53 1.949981 1_545
Mo12 O26 1.950167 1_545
Mo12 O5 2.398211 1_555
Mo13 O45 1.719328 1_455
Mo13 O36 1.930709 1_555
Mo13 O63 1.940834 1_555
Mo13 O54 1.949981 1_455
Mo13 O27 1.950167 1_455
Mo13 O6 2.398211 1_555
Mo14 O46 1.719328 1_554
Mo14 O37 1.930710 1_555
Mo14 O64 1.940834 1_555
Mo14 O55 1.949981 1_554
Mo14 O28 1.950167 1_554
Mo14 O7 2.398211 1_555
Mo15 O47 1.719328 1_455
Mo15 O37 1.930710 1_555
Mo15 O65 1.940834 1_555
Mo15 O54 1.949981 1_455
Mo15 O29 1.950167 1_455
Mo15 O6 2.398211 1_555
Mo16 O48 1.719328 1_554
Mo16 O35 1.930710 1_555
Mo16 O66 1.940834 1_555
Mo16 O55 1.949981 1_554
Mo16 O30 1.950167 1_554
Mo16 O7 2.398211 1_555
Mo17 O49 1.719328 1_545
Mo17 O36 1.930709 1_555
Mo17 O67 1.940834 1_555
Mo17 O53 1.949981 1_545
Mo17 O31 1.950167 1_545
Mo17 O5 2.398211 1_555
Mo18 O74 1.719046 1_555
Mo18 O69 1.933609 1_555
Mo18 O68 1.933609 1_555
Mo18 O56 1.951159 1_555
Mo18 O61 1.951159 1_555
Mo18 O2 2.370460 1_555
Mo19 O75 1.719046 1_555
Mo19 O69 1.933609 1_555
Mo19 O70 1.933609 1_555
Mo19 O59 1.951159 1_555
Mo19 O57 1.951159 1_555
Mo19 O3 2.370460 1_555
Mo20 O76 1.719046 1_555
Mo20 O70 1.933609 1_555
Mo20 O68 1.933609 1_555
Mo20 O58 1.951159 1_555
Mo20 O60 1.951159 1_555
Mo20 O4 2.370460 1_555
Mo21 O77 1.719046 1_555
Mo21 O72 1.933609 1_555
Mo21 O71 1.933609 1_555
Mo21 O62 1.951159 1_555
Mo21 O67 1.951159 1_555
Mo21 O5 2.370460 1_555
Mo22 O78 1.719046 1_555
Mo22 O72 1.933609 1_555
Mo22 O73 1.933609 1_555
Mo22 O65 1.951159 1_555
Mo22 O63 1.951159 1_555
Mo22 O6 2.370460 1_555
Mo23 O79 1.719046 1_555
Mo23 O73 1.933609 1_555
Mo23 O71 1.933609 1_555
Mo23 O66 1.951159 1_555
Mo23 O64 1.951159 1_555
Mo23 O7 2.370460 1_555
H0 N0 1.034799 1_555
H1 N1 1.034799 1_555
H2 N2 1.034799 1_555
H3 N1 1.034799 1_555
H4 N2 1.034799 1_555
H5 N0 1.034799 1_555
H6 N3 1.034799 1_555
H7 N4 1.034799 1_555
H8 N5 1.034799 1_555
H9 N4 1.034799 1_555
H10 N5 1.034799 1_555
H11 N3 1.034799 1_555
C0 H23 1.095915 1_555
C0 H18 1.095915 1_555
C0 H12 1.097085 1_555
C0 N0 1.497267 1_555
C1 H19 1.095915 1_555
C1 H21 1.095915 1_555
C1 H13 1.097085 1_555
C1 N1 1.497267 1_555
C2 H22 1.095915 1_555
C2 H20 1.095915 1_555
C2 H14 1.097085 1_555
C2 N2 1.497267 1_555
C3 H29 1.095915 1_555
C3 H24 1.095915 1_555
C3 H15 1.097085 1_555
C3 N3 1.497267 1_555
C4 H25 1.095915 1_555
C4 H27 1.095915 1_555
C4 H16 1.097085 1_555
C4 N4 1.497267 1_555
C5 H28 1.095915 1_555
C5 H26 1.095915 1_555
C5 H17 1.097085 1_555
C5 N5 1.497267 1_555
C6 H30 1.095672 1_555
C6 H36 1.095952 1_555
C6 H41 1.095952 1_555
C6 N0 1.498918 1_555
C7 H31 1.095672 1_555
C7 H39 1.095952 1_555
C7 H37 1.095952 1_555
C7 N1 1.498918 1_555
C8 H32 1.095672 1_555
C8 H40 1.095952 1_555
C8 H38 1.095952 1_555
C8 N2 1.498918 1_555
C9 H33 1.095672 1_555
C9 H42 1.095952 1_555
C9 H47 1.095952 1_555
C9 N3 1.498918 1_555
C10 H34 1.095672 1_555
C10 H45 1.095952 1_555
C10 H43 1.095952 1_555
C10 N4 1.498918 1_555
C11 H35 1.095672 1_555
C11 H44 1.095952 1_555
C11 H46 1.095952 1_555
C11 N5 1.498918 1_555
O0 Si0 1.641614 1_555
O1 Si1 1.641614 1_555
O2 Si0 1.644181 1_555
O3 Si0 1.644181 1_555
O4 Si0 1.644181 1_555
O5 Si1 1.644181 1_555
O6 Si1 1.644181 1_555
O7 Si1 1.644181 1_555
