# generated using pymatgen
data_Li4FeTe(WO6)2
_symmetry_space_group_name_H-M   'P 1'
_cell_length_a   5.20820100
_cell_length_b   5.49377651
_cell_length_c   7.58840997
_cell_angle_alpha   85.69144721
_cell_angle_beta   89.88115610
_cell_angle_gamma   89.85951833
_symmetry_Int_Tables_number   1
_chemical_formula_structural   Li4FeTe(WO6)2
_chemical_formula_sum   'Li4 Fe1 Te1 W2 O12'
_cell_volume   216.51019005
_cell_formula_units_Z   1
loop_
 _symmetry_equiv_pos_site_id
 _symmetry_equiv_pos_as_xyz
  1  'x, y, z'
loop_
 _atom_site_type_symbol
 _atom_site_label
 _atom_site_symmetry_multiplicity
 _atom_site_fract_x
 _atom_site_fract_y
 _atom_site_fract_z
 _atom_site_occupancy
  Li  Li0  1  0.99898100  0.58913600  0.26667600  1
  Li  Li1  1  0.50368700  0.05619800  0.80572700  1
  Li  Li2  1  0.00561900  0.58152800  0.80504800  1
  Li  Li3  1  0.49242200  0.99857000  0.23318100  1
  Fe  Fe0  1  0.99947600  0.01500600  0.00247500  1
  Te  Te0  1  0.50267500  0.50611800  0.50662100  1
  W  W0  1  0.00436000  0.00787500  0.50245100  1
  W  W1  1  0.49651500  0.50134600  0.00389700  1
  O  O0  1  0.69132900  0.81251000  0.42645800  1
  O  O1  1  0.87762800  0.98957200  0.73554600  1
  O  O2  1  0.67806600  0.19060500  0.04851900  1
  O  O3  1  0.83180800  0.31104300  0.43155200  1
  O  O4  1  0.20674800  0.30652400  0.93250600  1
  O  O5  1  0.63380000  0.49304100  0.75183400  1
  O  O6  1  0.37005800  0.48991000  0.24639400  1
  O  O7  1  0.79699000  0.68327500  0.05132000  1
  O  O8  1  0.17307100  0.67787300  0.56100700  1
  O  O9  1  0.30266600  0.79065000  0.93779700  1
  O  O10  1  0.11542000  0.97552900  0.25876200  1
  O  O11  1  0.31868200  0.16609000  0.56342800  1
loop_
_geom_bond_atom_site_label_1
_geom_bond_atom_site_label_2
_geom_bond_distance
_geom_bond_site_symmetry_2
Li0 O7 1.980482 1_555
Li0 O6 2.015482 1_655
Li0 O3 2.091015 1_555
Li0 O10 2.205556 1_655
Li0 O0 2.397780 1_555
Li0 O8 2.494487 1_655
Li1 O9 2.003062 1_545
Li1 O1 2.057202 1_545
Li1 O11 2.123980 1_555
Li1 O2 2.231404 1_556
Li1 O4 2.321793 1_555
Li1 O5 2.499085 1_555
Li2 O4 2.022921 1_555
Li2 O5 2.046168 1_455
Li2 O8 2.078103 1_555
Li2 O9 2.217475 1_555
Li2 O7 2.265200 1_456
Li2 O1 2.358863 1_455
Li3 O2 1.946465 1_565
Li3 O10 1.976105 1_555
Li3 O0 2.011214 1_555
Fe0 O4 1.972437 1_654
Fe0 O2 1.973626 1_555
Fe0 O10 2.033427 1_645
Fe0 O9 2.081276 1_644
Fe0 O7 2.115938 1_545
Fe0 O1 2.138567 1_544
O0 Te0 2.005130 1_555
O0 W0 2.061055 1_665
O1 W0 1.882354 1_665
O2 W1 1.956941 1_555
O3 W0 1.931614 1_655
O3 Te0 2.119001 1_555
O4 W1 1.953218 1_556
O5 Te0 1.979642 1_555
O5 W1 2.044319 1_556
O6 W1 1.949804 1_555
O6 Te0 2.101629 1_555
O7 W1 1.908278 1_555
O8 Te0 2.013745 1_555
O8 W0 2.032020 1_565
O9 W1 1.916102 1_556
O10 W0 1.957082 1_565
O11 W0 1.928757 1_555
O11 Te0 2.116541 1_555
