# generated using pymatgen
data_Li2NbV3O8
_symmetry_space_group_name_H-M   'P 1'
_cell_length_a   8.59080000
_cell_length_b   8.59080000
_cell_length_c   8.59080000
_cell_angle_alpha   90.00000000
_cell_angle_beta   90.00000000
_cell_angle_gamma   90.00000000
_symmetry_Int_Tables_number   1
_chemical_formula_structural   Li2NbV3O8
_chemical_formula_sum   'Li8 Nb4 V12 O32'
_cell_volume   634.01688693
_cell_formula_units_Z   4
loop_
 _symmetry_equiv_pos_site_id
 _symmetry_equiv_pos_as_xyz
  1  'x, y, z'
loop_
 _atom_site_type_symbol
 _atom_site_label
 _atom_site_symmetry_multiplicity
 _atom_site_fract_x
 _atom_site_fract_y
 _atom_site_fract_z
 _atom_site_occupancy
  Li  Li0  1  0.99988400  0.99988400  0.99988400  1
  Li  Li1  1  0.25011600  0.25011600  0.25011600  1
  Li  Li2  1  0.24988400  0.74988400  0.75011600  1
  Li  Li3  1  0.50011600  0.00011600  0.49988400  1
  Li  Li4  1  0.49988400  0.50011600  0.00011600  1
  Li  Li5  1  0.75011600  0.24988400  0.74988400  1
  Li  Li6  1  0.74988400  0.75011600  0.24988400  1
  Li  Li7  1  0.00011600  0.49988400  0.50011600  1
  Nb  Nb0  1  0.12500000  0.87500000  0.37500000  1
  Nb  Nb1  1  0.37500000  0.12500000  0.87500000  1
  Nb  Nb2  1  0.62500000  0.62500000  0.62500000  1
  Nb  Nb3  1  0.87500000  0.37500000  0.12500000  1
  V  V0  1  0.12023500  0.12976500  0.62500000  1
  V  V1  1  0.12500000  0.37976500  0.87023500  1
  V  V2  1  0.12976500  0.62500000  0.12023500  1
  V  V3  1  0.37023500  0.37500000  0.62023500  1
  V  V4  1  0.37500000  0.62023500  0.37023500  1
  V  V5  1  0.37976500  0.87023500  0.12500000  1
  V  V6  1  0.62023500  0.37023500  0.37500000  1
  V  V7  1  0.62500000  0.12023500  0.12976500  1
  V  V8  1  0.62976500  0.87500000  0.87976500  1
  V  V9  1  0.87023500  0.12500000  0.37976500  1
  V  V10  1  0.87500000  0.87976500  0.62976500  1
  V  V11  1  0.87976500  0.62976500  0.87500000  1
  O  O0  1  0.11041200  0.11067700  0.38093900  1
  O  O1  1  0.11906100  0.88958800  0.61067700  1
  O  O2  1  0.11382100  0.61382100  0.88617900  1
  O  O3  1  0.13932300  0.13958800  0.86906100  1
  O  O4  1  0.11067700  0.38093900  0.11041200  1
  O  O5  1  0.13617900  0.36382100  0.63617900  1
  O  O6  1  0.13093900  0.63932300  0.36041200  1
  O  O7  1  0.13958800  0.86906100  0.13932300  1
  O  O8  1  0.36041200  0.13093900  0.63932300  1
  O  O9  1  0.36906100  0.36067700  0.86041200  1
  O  O10  1  0.36382100  0.63617900  0.13617900  1
  O  O11  1  0.38932300  0.61906100  0.61041200  1
  O  O12  1  0.36067700  0.86041200  0.36906100  1
  O  O13  1  0.38617900  0.38617900  0.38617900  1
  O  O14  1  0.38093900  0.11041200  0.11067700  1
  O  O15  1  0.38958800  0.88932300  0.88093900  1
  O  O16  1  0.61041200  0.38932300  0.61906100  1
  O  O17  1  0.61906100  0.61041200  0.38932300  1
  O  O18  1  0.61382100  0.88617900  0.11382100  1
  O  O19  1  0.63932300  0.36041200  0.13093900  1
  O  O20  1  0.61067700  0.11906100  0.88958800  1
  O  O21  1  0.63617900  0.13617900  0.36382100  1
  O  O22  1  0.63093900  0.86067700  0.63958800  1
  O  O23  1  0.63958800  0.63093900  0.86067700  1
  O  O24  1  0.86041200  0.36906100  0.36067700  1
  O  O25  1  0.86906100  0.13932300  0.13958800  1
  O  O26  1  0.86382100  0.86382100  0.86382100  1
  O  O27  1  0.88932300  0.88093900  0.38958800  1
  O  O28  1  0.86067700  0.63958800  0.63093900  1
  O  O29  1  0.88617900  0.11382100  0.61382100  1
  O  O30  1  0.88093900  0.38958800  0.88932300  1
  O  O31  1  0.88958800  0.61067700  0.11906100  1
loop_
_geom_bond_atom_site_label_1
_geom_bond_atom_site_label_2
_geom_bond_distance
_geom_bond_site_symmetry_2
Li0 O26 2.024577 1_555
Li0 O25 2.034317 1_566
Li0 O3 2.034317 1_665
Li0 O7 2.034317 1_656
Li1 O13 2.024577 1_555
Li1 O0 2.034317 1_555
Li1 O14 2.034317 1_555
Li1 O4 2.034317 1_555
Li2 O2 2.024577 1_555
Li2 O15 2.034317 1_555
Li2 O11 2.034317 1_555
Li2 O1 2.034317 1_555
Li3 O21 2.024577 1_555
Li3 O8 2.034317 1_555
Li3 O22 2.034317 1_545
Li3 O12 2.034317 1_545
Li4 O10 2.024577 1_555
Li4 O19 2.034317 1_555
Li4 O23 2.034317 1_554
Li4 O9 2.034317 1_554
Li5 O29 2.024577 1_555
Li5 O30 2.034317 1_555
Li5 O16 2.034317 1_555
Li5 O20 2.034317 1_555
Li6 O18 2.024577 1_555
Li6 O27 2.034317 1_555
Li6 O17 2.034317 1_555
Li6 O31 2.034317 1_555
Li7 O5 2.024577 1_555
Li7 O6 2.034317 1_555
Li7 O24 2.034317 1_455
Li7 O28 2.034317 1_455
Nb0 O0 2.029170 1_565
Nb0 O7 2.029170 1_555
Nb0 O6 2.029170 1_555
Nb0 O27 2.029170 1_455
Nb0 O1 2.029170 1_555
Nb0 O12 2.029170 1_555
Nb1 O14 2.029170 1_556
Nb1 O3 2.029170 1_555
Nb1 O15 2.029170 1_545
Nb1 O8 2.029170 1_555
Nb1 O9 2.029170 1_555
Nb1 O20 2.029170 1_555
Nb2 O16 2.029170 1_555
Nb2 O28 2.029170 1_555
Nb2 O22 2.029170 1_555
Nb2 O11 2.029170 1_555
Nb2 O23 2.029170 1_555
Nb2 O17 2.029170 1_555
Nb3 O4 2.029170 1_655
Nb3 O25 2.029170 1_555
Nb3 O19 2.029170 1_555
Nb3 O30 2.029170 1_554
Nb3 O31 2.029170 1_555
Nb3 O24 2.029170 1_555
O0 V9 2.067003 1_455
O0 V0 2.104774 1_555
O1 V0 2.067003 1_565
O1 V10 2.104774 1_455
O2 V1 2.017675 1_555
O2 V11 2.017675 1_455
O2 V2 2.017675 1_556
O3 V1 2.067003 1_555
O3 V0 2.104774 1_555
O4 V1 2.067003 1_554
O4 V2 2.104774 1_555
O5 V1 2.017675 1_555
O5 V3 2.017675 1_555
O5 V0 2.017675 1_555
O6 V2 2.067003 1_555
O6 V4 2.104774 1_555
O7 V5 2.067003 1_555
O7 V2 2.104774 1_555
O8 V0 2.067003 1_555
O8 V3 2.104774 1_555
O9 V3 2.067003 1_555
O9 V1 2.104774 1_555
O10 V5 2.017675 1_555
O10 V4 2.017675 1_555
O10 V2 2.017675 1_555
O11 V4 2.067003 1_555
O11 V3 2.104774 1_555
O12 V4 2.067003 1_555
O12 V5 2.104774 1_555
O13 V4 2.017675 1_555
O13 V6 2.017675 1_555
O13 V3 2.017675 1_555
O14 V5 2.067003 1_545
O14 V7 2.104774 1_555
O15 V8 2.067003 1_555
O15 V5 2.104774 1_556
O16 V3 2.067003 1_555
O16 V6 2.104774 1_555
O17 V6 2.067003 1_555
O17 V4 2.104774 1_555
O18 V5 2.017675 1_555
O18 V8 2.017675 1_554
O18 V7 2.017675 1_565
O19 V7 2.067003 1_555
O19 V6 2.104774 1_555
O20 V7 2.067003 1_556
O20 V8 2.104774 1_545
O21 V9 2.017675 1_555
O21 V6 2.017675 1_555
O21 V7 2.017675 1_555
O22 V8 2.067003 1_555
O22 V10 2.104774 1_555
O23 V11 2.067003 1_555
O23 V8 2.104774 1_555
O24 V6 2.067003 1_555
O24 V9 2.104774 1_555
O25 V9 2.067003 1_555
O25 V7 2.104774 1_555
O26 V10 2.017675 1_555
O26 V11 2.017675 1_555
O26 V8 2.017675 1_555
O27 V10 2.067003 1_555
O27 V9 2.104774 1_565
O28 V10 2.067003 1_555
O28 V11 2.104774 1_555
O29 V9 2.017675 1_555
O29 V10 2.017675 1_545
O29 V0 2.017675 1_655
O30 V11 2.067003 1_555
O30 V1 2.104774 1_655
O31 V2 2.067003 1_655
O31 V11 2.104774 1_554
