# generated using pymatgen
data_Li2Co2OF6
_symmetry_space_group_name_H-M   'P 1'
_cell_length_a   5.33574000
_cell_length_b   6.68368918
_cell_length_c   8.37365361
_cell_angle_alpha   71.21634546
_cell_angle_beta   74.80933337
_cell_angle_gamma   82.71241353
_symmetry_Int_Tables_number   1
_chemical_formula_structural   Li2Co2OF6
_chemical_formula_sum   'Li4 Co4 O2 F12'
_cell_volume   272.54691034
_cell_formula_units_Z   2
loop_
 _symmetry_equiv_pos_site_id
 _symmetry_equiv_pos_as_xyz
  1  'x, y, z'
loop_
 _atom_site_type_symbol
 _atom_site_label
 _atom_site_symmetry_multiplicity
 _atom_site_fract_x
 _atom_site_fract_y
 _atom_site_fract_z
 _atom_site_occupancy
  Li  Li0  1  0.10110200  0.42974900  0.25849700  1
  Li  Li1  1  0.56651300  0.25401700  0.34658400  1
  Li  Li2  1  0.43348700  0.74598300  0.65341600  1
  Li  Li3  1  0.89889800  0.57025100  0.74150300  1
  Co  Co0  1  0.30046300  0.00105000  0.19103300  1
  Co  Co1  1  0.78007200  0.79087100  0.29499600  1
  Co  Co2  1  0.21992800  0.20912900  0.70500400  1
  Co  Co3  1  0.69953700  0.99895000  0.80896700  1
  O  O0  1  0.44485600  0.88037100  0.37058000  1
  O  O1  1  0.55514400  0.11962900  0.62942000  1
  F  F0  1  0.38891000  0.28607300  0.15443700  1
  F  F1  1  0.92510000  0.07832400  0.26197100  1
  F  F2  1  0.69574400  0.91868900  0.06412500  1
  F  F3  1  0.13874900  0.73162300  0.20522200  1
  F  F4  1  0.73543200  0.50962200  0.29151000  1
  F  F5  1  0.19302800  0.29505300  0.47513300  1
  F  F6  1  0.80697200  0.70494700  0.52486700  1
  F  F7  1  0.26456800  0.49037800  0.70849000  1
  F  F8  1  0.86125100  0.26837700  0.79477800  1
  F  F9  1  0.30425600  0.08131100  0.93587500  1
  F  F10  1  0.07490000  0.92167600  0.73802900  1
  F  F11  1  0.61109000  0.71392700  0.84556300  1
loop_
_geom_bond_atom_site_label_1
_geom_bond_atom_site_label_2
_geom_bond_distance
_geom_bond_site_symmetry_2
Li1 O1 2.233431 1_555
Li1 O0 2.591945 1_545
Li2 O0 2.233431 1_555
Li2 O1 2.591945 1_565
Co0 O0 1.781292 1_545
Co0 F0 1.929253 1_555
Co0 F1 1.985603 1_455
Co0 F9 2.023668 1_554
Co0 F3 2.050390 1_545
Co0 F2 2.188211 1_545
Co1 O0 1.826664 1_555
Co1 F6 1.862119 1_555
Co1 F3 1.905271 1_655
Co1 F4 1.934873 1_555
Co1 F2 1.991087 1_555
Co1 F1 2.071076 1_565
Co2 O1 1.826664 1_555
Co2 F5 1.862119 1_555
Co2 F8 1.905271 1_455
Co2 F7 1.934873 1_555
Co2 F9 1.991087 1_555
Co2 F10 2.071076 1_545
Co3 O1 1.781292 1_565
Co3 F11 1.929253 1_555
Co3 F10 1.985603 1_655
Co3 F2 2.023668 1_556
Co3 F8 2.050390 1_565
Co3 F9 2.188211 1_565
F0 Li0 1.871677 1_555
F0 Li1 2.014515 1_555
F1 Li1 2.190230 1_555
F3 Li0 1.945872 1_555
F4 Li1 1.899750 1_555
F4 Li0 1.927797 1_655
F5 Li0 1.909017 1_555
F5 Li1 2.032861 1_555
F6 Li3 1.909017 1_555
F6 Li2 2.032861 1_555
F7 Li2 1.899750 1_555
F7 Li3 1.927797 1_455
F8 Li3 1.945872 1_555
F10 Li2 2.190230 1_555
F11 Li3 1.871677 1_555
F11 Li2 2.014515 1_555
