# generated using pymatgen
data_Li3V(CoO2)4
_symmetry_space_group_name_H-M   'P 1'
_cell_length_a   5.90545722
_cell_length_b   5.90545722
_cell_length_c   5.99557810
_cell_angle_alpha   59.44515209
_cell_angle_beta   59.44515209
_cell_angle_gamma   61.01785761
_symmetry_Int_Tables_number   1
_chemical_formula_structural   Li3V(CoO2)4
_chemical_formula_sum   'Li3 V1 Co4 O8'
_cell_volume   147.67289272
_cell_formula_units_Z   1
loop_
 _symmetry_equiv_pos_site_id
 _symmetry_equiv_pos_as_xyz
  1  'x, y, z'
loop_
 _atom_site_type_symbol
 _atom_site_label
 _atom_site_symmetry_multiplicity
 _atom_site_fract_x
 _atom_site_fract_y
 _atom_site_fract_z
 _atom_site_occupancy
  Li  Li0  1  0.50000000  0.00000000  0.50000000  1
  Li  Li1  1  0.00000000  0.00000000  0.50000000  1
  Li  Li2  1  0.00000000  0.50000000  0.50000000  1
  V  V0  1  0.50000000  0.50000000  0.00000000  1
  Co  Co0  1  0.50000000  0.50000000  0.50000000  1
  Co  Co1  1  0.00000000  0.00000000  0.00000000  1
  Co  Co2  1  0.50000000  0.00000000  0.00000000  1
  Co  Co3  1  0.00000000  0.50000000  0.00000000  1
  O  O0  1  0.26965100  0.26965100  0.22988600  1
  O  O1  1  0.73620100  0.25688400  0.24195700  1
  O  O2  1  0.25688400  0.73620100  0.24195700  1
  O  O3  1  0.74971400  0.74971400  0.23885700  1
  O  O4  1  0.25028600  0.25028600  0.76114300  1
  O  O5  1  0.74311600  0.26379900  0.75804300  1
  O  O6  1  0.26379900  0.74311600  0.75804300  1
  O  O7  1  0.73034900  0.73034900  0.77011400  1
loop_
_geom_bond_atom_site_label_1
_geom_bond_atom_site_label_2
_geom_bond_distance
_geom_bond_site_symmetry_2
Li0 O1 2.027513 1_555
Li0 O6 2.027513 1_545
Li0 O7 2.127822 1_545
Li0 O0 2.127822 1_555
Li0 O4 2.168841 1_555
Li0 O3 2.168841 1_545
Li1 O1 2.212657 1_455
Li1 O5 2.212657 1_455
Li1 O6 2.212657 1_545
Li1 O2 2.212657 1_545
Li1 O7 2.215310 1_445
Li1 O0 2.215310 1_555
Li2 O5 2.027513 1_455
Li2 O2 2.027513 1_555
Li2 O0 2.127822 1_555
Li2 O7 2.127822 1_455
Li2 O4 2.168841 1_555
Li2 O3 2.168841 1_455
Co0 O3 2.052591 1_555
Co0 O4 2.052591 1_555
Co0 O6 2.126980 1_555
Co0 O1 2.126980 1_555
Co0 O5 2.126980 1_555
Co0 O2 2.126980 1_555
Co1 O4 2.057432 1_554
Co1 O3 2.057432 1_445
Co1 O6 2.117136 1_544
Co1 O2 2.117136 1_545
Co1 O1 2.117136 1_455
Co1 O5 2.117136 1_454
Co2 O3 2.071960 1_545
Co2 O4 2.071960 1_554
Co2 O5 2.084410 1_554
Co2 O2 2.084410 1_545
Co2 O0 2.124148 1_555
Co2 O7 2.124148 1_544
Co3 O3 2.071960 1_455
Co3 O4 2.071960 1_554
Co3 O1 2.084410 1_455
Co3 O6 2.084410 1_554
Co3 O0 2.124148 1_555
Co3 O7 2.124148 1_454
O0 V0 1.892431 1_555
O1 V0 2.027426 1_555
O2 V0 2.027426 1_555
O5 V0 2.027426 1_556
O6 V0 2.027426 1_556
O7 V0 1.892431 1_556
