# generated using pymatgen
data_Li3Co2(SiO4)2
_symmetry_space_group_name_H-M   'P 1'
_cell_length_a   5.09494000
_cell_length_b   6.61184400
_cell_length_c   10.60229163
_cell_angle_alpha   88.78096061
_cell_angle_beta   90.00000000
_cell_angle_gamma   90.00000000
_symmetry_Int_Tables_number   1
_chemical_formula_structural   Li3Co2(SiO4)2
_chemical_formula_sum   'Li6 Co4 Si4 O16'
_cell_volume   357.07801558
_cell_formula_units_Z   2
loop_
 _symmetry_equiv_pos_site_id
 _symmetry_equiv_pos_as_xyz
  1  'x, y, z'
loop_
 _atom_site_type_symbol
 _atom_site_label
 _atom_site_symmetry_multiplicity
 _atom_site_fract_x
 _atom_site_fract_y
 _atom_site_fract_z
 _atom_site_occupancy
  Li  Li0  1  0.56738700  0.00830300  0.41323700  1
  Li  Li1  1  0.43261300  0.00830300  0.91323700  1
  Li  Li2  1  0.56233200  0.77642500  0.17180900  1
  Li  Li3  1  0.43766800  0.77642500  0.67180900  1
  Li  Li4  1  0.06694300  0.00501300  0.08543400  1
  Li  Li5  1  0.93305700  0.00501300  0.58543400  1
  Co  Co0  1  0.55185100  0.49055600  0.40129600  1
  Co  Co1  1  0.05614800  0.50152600  0.10030400  1
  Co  Co2  1  0.44814900  0.49055600  0.90129600  1
  Co  Co3  1  0.94385200  0.50152600  0.60030400  1
  Si  Si0  1  0.57221200  0.24176300  0.15911000  1
  Si  Si1  1  0.42778800  0.24176300  0.65911000  1
  Si  Si2  1  0.05876600  0.75756800  0.34357800  1
  Si  Si3  1  0.94123400  0.75756800  0.84357800  1
  O  O0  1  0.46121500  0.03634600  0.09875200  1
  O  O1  1  0.53878500  0.03634600  0.59875200  1
  O  O2  1  0.89561400  0.26063600  0.13601100  1
  O  O3  1  0.50024500  0.25538000  0.30861000  1
  O  O4  1  0.10438600  0.26063600  0.63601100  1
  O  O5  1  0.49975500  0.25538000  0.80861000  1
  O  O6  1  0.44801500  0.45637600  0.08863500  1
  O  O7  1  0.55198500  0.45637600  0.58863500  1
  O  O8  1  0.93372300  0.55087400  0.41766000  1
  O  O9  1  0.06627700  0.55087400  0.91766000  1
  O  O10  1  0.96436500  0.73746600  0.19058800  1
  O  O11  1  0.38494800  0.73759300  0.34338800  1
  O  O12  1  0.03563500  0.73746600  0.69058800  1
  O  O13  1  0.61505200  0.73759300  0.84338800  1
  O  O14  1  0.94712500  0.95393300  0.40860600  1
  O  O15  1  0.05287500  0.95393300  0.90860600  1
loop_
_geom_bond_atom_site_label_1
_geom_bond_atom_site_label_2
_geom_bond_distance
_geom_bond_site_symmetry_2
Li0 O14 1.968659 1_545
Li0 O3 1.984740 1_555
Li0 O1 1.984884 1_555
Li0 O11 2.161606 1_545
Li1 O15 1.968659 1_545
Li1 O5 1.984740 1_555
Li1 O0 1.984884 1_556
Li1 O13 2.161606 1_545
Li2 O0 1.939633 1_565
Li2 O11 2.042564 1_555
Li2 O10 2.073520 1_555
Li2 O6 2.382059 1_555
Li3 O1 1.939633 1_565
Li3 O13 2.042564 1_555
Li3 O12 2.073520 1_555
Li3 O7 2.382059 1_555
Li4 O15 1.913361 1_544
Li4 O2 1.986115 1_455
Li4 O0 2.024685 1_555
Li4 O10 2.135756 1_445
Li5 O14 1.913361 1_545
Li5 O4 1.986115 1_655
Li5 O1 2.024685 1_555
Li5 O12 2.135756 1_645
Co0 O3 1.875547 1_555
Co0 O11 1.930100 1_555
Co0 O7 1.994255 1_555
Co0 O8 1.994371 1_555
Co1 O2 1.823026 1_455
Co1 O10 1.905800 1_455
Co1 O9 1.957564 1_554
Co1 O6 2.022909 1_555
Co2 O5 1.875547 1_555
Co2 O13 1.930100 1_555
Co2 O6 1.994255 1_556
Co2 O9 1.994371 1_555
Co3 O4 1.823026 1_655
Co3 O12 1.905800 1_655
Co3 O8 1.957564 1_555
Co3 O7 2.022909 1_555
O0 Si0 1.615852 1_555
O1 Si1 1.615852 1_555
O2 Si0 1.670092 1_555
O3 Si0 1.631252 1_555
O4 Si1 1.670092 1_555
O5 Si1 1.631252 1_555
O6 Si0 1.710883 1_555
O7 Si1 1.710883 1_555
O8 Si2 1.686652 1_655
O9 Si3 1.686652 1_455
O10 Si2 1.699764 1_655
O11 Si2 1.667122 1_555
O12 Si3 1.699764 1_455
O13 Si3 1.667122 1_555
O14 Si2 1.588280 1_655
O15 Si3 1.588280 1_455
