# generated using pymatgen
data_Li3MnO3
_symmetry_space_group_name_H-M   'P 1'
_cell_length_a   3.47171089
_cell_length_b   8.93057027
_cell_length_c   8.92961717
_cell_angle_alpha   90.00006345
_cell_angle_beta   90.00001900
_cell_angle_gamma   90.00000065
_symmetry_Int_Tables_number   1
_chemical_formula_structural   Li3MnO3
_chemical_formula_sum   'Li12 Mn4 O12'
_cell_volume   276.85704808
_cell_formula_units_Z   4
loop_
 _symmetry_equiv_pos_site_id
 _symmetry_equiv_pos_as_xyz
  1  'x, y, z'
loop_
 _atom_site_type_symbol
 _atom_site_label
 _atom_site_symmetry_multiplicity
 _atom_site_fract_x
 _atom_site_fract_y
 _atom_site_fract_z
 _atom_site_occupancy
  Li  Li0  1  0.00000054  0.17295600  0.17294632  1
  Li  Li1  1  0.49999981  0.32704347  0.67294683  1
  Li  Li2  1  0.49999992  0.67295395  0.32705254  1
  Li  Li3  1  -0.00000073  0.82704612  0.82705343  1
  Li  Li4  1  0.50000047  0.09487309  0.35524894  1
  Li  Li5  1  -0.00000016  0.14473752  0.59486848  1
  Li  Li6  1  0.50000024  0.35526651  0.09486846  1
  Li  Li7  1  0.00000062  0.40512770  0.85525199  1
  Li  Li8  1  0.00000048  0.59487603  0.14474820  1
  Li  Li9  1  0.50000012  0.64474618  0.90512879  1
  Li  Li10  1  0.00000045  0.85525725  0.40512823  1
  Li  Li11  1  0.49999954  0.90512385  0.64474783  1
  Mn  Mn0  1  0.99999716  0.61490891  0.61491207  1
  Mn  Mn1  1  0.50000083  0.88509059  0.11491557  1
  Mn  Mn2  1  0.50000132  0.11490181  0.88509107  1
  Mn  Mn3  1  -0.00000008  0.38509819  0.38508543  1
  O  O0  1  0.50000079  0.10187622  0.10193117  1
  O  O1  1  0.99999914  0.39812083  0.60192498  1
  O  O2  1  0.99999937  0.60188420  0.39807163  1
  O  O3  1  0.50000143  0.89811404  0.89807576  1
  O  O4  1  0.49999981  0.11259327  0.67866440  1
  O  O5  1  0.00000075  0.17870453  0.38741182  1
  O  O6  1  0.50000094  0.32129281  0.88741460  1
  O  O7  1  0.00000030  0.38740670  0.17865989  1
  O  O8  1  -0.00000004  0.61259730  0.82133775  1
  O  O9  1  0.50000054  0.67869750  0.11258836  1
  O  O10  1  0.99999895  0.82130019  0.61258648  1
  O  O11  1  0.50000048  0.88740223  0.32133999  1
loop_
_geom_bond_atom_site_label_1
_geom_bond_atom_site_label_2
_geom_bond_distance
_geom_bond_site_symmetry_2
Li0 O5 1.915783 1_555
Li0 O7 1.915846 1_555
Li0 O0 1.954039 1_455
Li0 O0 1.954041 1_555
Li1 O6 1.915804 1_555
Li1 O4 1.915843 1_555
Li1 O1 1.954051 1_555
Li1 O1 1.954055 1_455
Li2 O9 1.915770 1_555
Li2 O11 1.915825 1_555
Li2 O2 1.954021 1_555
Li2 O2 1.954025 1_455
Li3 O10 1.915795 1_455
Li3 O8 1.915830 1_555
Li3 O3 1.954020 1_455
Li3 O3 1.954033 1_555
Li4 O11 1.877411 1_545
Li4 O5 1.912112 1_555
Li4 O5 1.912113 1_655
Li4 O0 2.262895 1_555
Li5 O5 1.877181 1_555
Li5 O4 1.911937 1_555
Li5 O4 1.911937 1_455
Li5 O1 2.263735 1_455
Li6 O6 1.877165 1_554
Li6 O7 1.911916 1_655
Li6 O7 1.911916 1_555
Li6 O0 2.263799 1_555
Li7 O8 1.877409 1_555
Li7 O6 1.912124 1_455
Li7 O6 1.912125 1_555
Li7 O1 2.262978 1_455
Li8 O7 1.877402 1_555
Li8 O9 1.912074 1_455
Li8 O9 1.912074 1_555
Li8 O2 2.262947 1_455
Li9 O9 1.877183 1_556
Li9 O8 1.911926 1_655
Li9 O8 1.911926 1_555
Li9 O3 2.263596 1_555
Li10 O10 1.877180 1_455
Li10 O11 1.911911 1_455
Li10 O11 1.911911 1_555
Li10 O2 2.263643 1_455
Li11 O4 1.877410 1_565
Li11 O10 1.912082 1_555
Li11 O10 1.912085 1_455
Li11 O3 2.262988 1_555
Mn0 O10 1.843309 1_555
Mn0 O8 1.843418 1_655
Mn0 O1 1.939511 1_555
Mn0 O2 1.939793 1_555
Mn1 O9 1.843325 1_555
Mn1 O11 1.843407 1_555
Mn1 O0 1.939488 1_565
Mn1 O3 1.939787 1_554
Mn2 O6 1.843306 1_555
Mn2 O4 1.843426 1_555
Mn2 O3 1.939507 1_545
Mn2 O0 1.939790 1_556
Mn3 O5 1.843330 1_555
Mn3 O7 1.843416 1_555
Mn3 O2 1.939492 1_455
Mn3 O1 1.939784 1_455
