# generated using pymatgen
data_Y11Ta5O28
_symmetry_space_group_name_H-M   'P 1'
_cell_length_a   6.45334104
_cell_length_b   13.02979030
_cell_length_c   7.37129476
_cell_angle_alpha   106.42101524
_cell_angle_beta   89.92171127
_cell_angle_gamma   80.49362388
_symmetry_Int_Tables_number   1
_chemical_formula_structural   Y11Ta5O28
_chemical_formula_sum   'Y11 Ta5 O28'
_cell_volume   585.61643727
_cell_formula_units_Z   1
loop_
 _symmetry_equiv_pos_site_id
 _symmetry_equiv_pos_as_xyz
  1  'x, y, z'
loop_
 _atom_site_type_symbol
 _atom_site_label
 _atom_site_symmetry_multiplicity
 _atom_site_fract_x
 _atom_site_fract_y
 _atom_site_fract_z
 _atom_site_occupancy
  Y  Y0  1  0.03333000  0.50329200  0.25087300  1
  Y  Y1  1  0.25013600  0.74885300  0.37601400  1
  Y  Y2  1  0.97231800  0.49731600  0.74880400  1
  Y  Y3  1  0.25086600  0.25006200  0.37374300  1
  Y  Y4  1  0.74290500  0.74726700  0.61884100  1
  Y  Y5  1  0.75434800  0.75155700  0.13037100  1
  Y  Y6  1  0.25212500  0.24921700  0.87343400  1
  Y  Y7  1  0.52843500  0.00089100  0.99878100  1
  Y  Y8  1  0.77246600  0.22959400  0.11428900  1
  Y  Y9  1  0.46725800  0.99527300  0.49706300  1
  Y  Y10  1  0.72928700  0.26842000  0.63384100  1
  Ta  Ta0  1  0.24989800  0.74897100  0.87458800  1
  Ta  Ta1  1  0.99156400  0.00374500  0.73597100  1
  Ta  Ta2  1  0.50918700  0.49411600  0.48074700  1
  Ta  Ta3  1  0.50943100  0.49477700  0.01180600  1
  Ta  Ta4  1  0.99165600  0.00418900  0.26680100  1
  O  O0  1  0.12993900  0.94097800  0.46969000  1
  O  O1  1  0.89500900  0.03274400  0.01592400  1
  O  O2  1  0.11019200  0.84139200  0.72221300  1
  O  O3  1  0.10145200  0.83857000  0.11891900  1
  O  O4  1  0.04467800  0.31834200  0.65968400  1
  O  O5  1  0.05389900  0.31831900  0.15833600  1
  O  O6  1  0.52011600  0.81792400  0.91034400  1
  O  O7  1  0.54883700  0.80393000  0.40053700  1
  O  O8  1  0.21844400  0.46043400  0.95573700  1
  O  O9  1  0.71915000  0.94614400  0.69498800  1
  O  O10  1  0.39412300  0.65828800  0.02753700  1
  O  O11  1  0.39842200  0.66008200  0.62819100  1
  O  O12  1  0.71787300  0.94749100  0.25075400  1
  O  O13  1  0.21857500  0.45961200  0.50309800  1
  O  O14  1  0.60685400  0.46527300  0.73185100  1
  O  O15  1  0.37100800  0.55682300  0.27796700  1
  O  O16  1  0.78228300  0.55152400  0.05323500  1
  O  O17  1  0.28215500  0.04026200  0.79199700  1
  O  O18  1  0.28187900  0.03789300  0.24398600  1
  O  O19  1  0.58843900  0.33573900  0.94675800  1
  O  O20  1  0.78266300  0.55025900  0.49621400  1
  O  O21  1  0.58873200  0.33552900  0.38752100  1
  O  O22  1  0.95029500  0.69525700  0.34930400  1
  O  O23  1  0.45761600  0.17993600  0.08935800  1
  O  O24  1  0.44684700  0.18039700  0.58855200  1
  O  O25  1  0.98196600  0.68026200  0.83676900  1
  O  O26  1  0.91136200  0.16268800  0.36028700  1
  O  O27  1  0.90950100  0.16217000  0.80083400  1
loop_
_geom_bond_atom_site_label_1
_geom_bond_atom_site_label_2
_geom_bond_distance
_geom_bond_site_symmetry_2
O0 Ta1 2.040924 1_465
O0 Ta4 2.041739 1_465
O0 Y9 2.389350 1_555
O0 Y1 2.392706 1_555
O1 Ta4 2.064659 1_555
O1 Ta1 2.065769 1_554
O1 Y8 2.450889 1_555
O1 Y7 2.465744 1_554
O2 Ta0 1.983293 1_555
O2 Ta1 2.101175 1_465
O2 Y1 2.583822 1_555
O2 Y4 2.852981 1_455
O3 Ta0 1.990342 1_554
O3 Ta4 2.123683 1_465
O3 Y1 2.601098 1_555
O3 Y5 2.683750 1_455
O4 Y2 2.204795 1_455
O4 Y10 2.229410 1_455
O4 Y6 2.344316 1_555
O4 Y3 2.354939 1_555
O5 Y8 2.285468 1_455
O5 Y0 2.292673 1_555
O5 Y3 2.314821 1_555
O5 Y6 2.323924 1_554
O6 Ta0 2.074227 1_555
O6 Y7 2.296757 1_565
O6 Y4 2.442883 1_555
O6 Y5 2.455823 1_556
O7 Y1 2.155910 1_555
O7 Y4 2.252741 1_555
O7 Y5 2.261861 1_555
O7 Y9 2.358331 1_555
O8 Ta3 2.018032 1_556
O8 Y2 2.291163 1_455
O8 Y0 2.357443 1_556
O8 Y6 2.616769 1_555
O9 Ta1 2.013488 1_565
O9 Y9 2.317661 1_555
O9 Y7 2.416110 1_565
O9 Y4 2.469760 1_555
O10 Ta0 1.981487 1_554
O10 Ta3 2.107764 1_555
O10 Y1 2.602259 1_555
O10 Y5 2.805826 1_555
O11 Ta0 1.999535 1_555
O11 Ta2 2.127688 1_555
O11 Y1 2.562011 1_555
O11 Y4 2.667453 1_555
O12 Ta4 2.015864 1_565
O12 Y9 2.306518 1_555
O12 Y5 2.424999 1_555
O12 Y7 2.425772 1_564
O13 Ta2 2.016432 1_555
O13 Y2 2.297469 1_455
O13 Y0 2.364179 1_555
O13 Y3 2.597539 1_555
O14 Ta3 2.066328 1_556
O14 Ta2 2.069491 1_555
O14 Y10 2.450821 1_555
O14 Y2 2.459441 1_555
O15 Ta2 2.037280 1_555
O15 Ta3 2.039778 1_555
O15 Y0 2.387380 1_555
O15 Y1 2.392217 1_555
O16 Ta3 2.011037 1_555
O16 Y0 2.308645 1_655
O16 Y2 2.418434 1_554
O16 Y5 2.481065 1_555
O17 Ta1 2.024694 1_455
O17 Y7 2.300418 1_555
O17 Y9 2.353312 1_545
O17 Y6 2.590756 1_555
O18 Ta4 2.010350 1_455
O18 Y7 2.297196 1_554
O18 Y9 2.364751 1_545
O18 Y3 2.630435 1_555
O19 Ta3 1.967886 1_556
O19 Y8 2.296810 1_556
O19 Y10 2.345846 1_555
O19 Y6 2.596228 1_555
O20 Ta2 2.010626 1_555
O20 Y0 2.302422 1_655
O20 Y2 2.427775 1_555
O20 Y4 2.437658 1_555
O21 Ta2 1.962496 1_555
O21 Y8 2.291004 1_555
O21 Y10 2.350375 1_555
O21 Y3 2.596756 1_555
O22 Y1 2.154120 1_655
O22 Y5 2.260543 1_555
O22 Y4 2.264919 1_555
O22 Y0 2.366440 1_655
O23 Y7 2.205332 1_554
O23 Y8 2.224595 1_555
O23 Y3 2.348655 1_555
O23 Y6 2.351481 1_554
O24 Y10 2.285770 1_555
O24 Y9 2.294688 1_545
O24 Y6 2.312764 1_555
O24 Y3 2.317244 1_555
O25 Ta0 2.059217 1_655
O25 Y2 2.298220 1_555
O25 Y4 2.465293 1_555
O25 Y5 2.471515 1_556
O26 Ta4 1.961981 1_555
O26 Y10 2.287536 1_555
O26 Y8 2.343428 1_555
O26 Y3 2.620456 1_655
O27 Ta1 1.962233 1_555
O27 Y10 2.284727 1_555
O27 Y8 2.341516 1_556
O27 Y6 2.636297 1_655
