# generated using pymatgen
data_Bi12Rh12O41
_symmetry_space_group_name_H-M   'P 1'
_cell_length_a   12.67771589
_cell_length_b   12.67771589
_cell_length_c   12.67771589
_cell_angle_alpha   146.46889061
_cell_angle_beta   131.75743370
_cell_angle_gamma   60.02880995
_symmetry_Int_Tables_number   1
_chemical_formula_structural   Bi12Rh12O41
_chemical_formula_sum   'Bi12 Rh12 O41'
_cell_volume   831.96060054
_cell_formula_units_Z   1
loop_
 _symmetry_equiv_pos_site_id
 _symmetry_equiv_pos_as_xyz
  1  'x, y, z'
loop_
 _atom_site_type_symbol
 _atom_site_label
 _atom_site_symmetry_multiplicity
 _atom_site_fract_x
 _atom_site_fract_y
 _atom_site_fract_z
 _atom_site_occupancy
  Bi  Bi0  1  0.42929700  0.42178800  0.00750900  1
  Bi  Bi1  1  0.41699200  0.41559500  0.50282200  1
  Bi  Bi2  1  0.41699200  0.91417000  0.00139700  1
  Bi  Bi3  1  0.91186600  0.91685700  0.99500900  1
  Bi  Bi4  1  0.75144100  0.74820500  0.00323600  1
  Bi  Bi5  1  0.58572200  0.57821200  0.00750900  1
  Bi  Bi6  1  0.74038400  0.25722100  0.99760500  1
  Bi  Bi7  1  0.08722700  0.08583000  0.50282200  1
  Bi  Bi8  1  0.74038400  0.74277900  0.48316300  1
  Bi  Bi9  1  0.08722700  0.58440500  0.00139700  1
  Bi  Bi10  1  0.07815200  0.08314300  0.99500900  1
  Bi  Bi11  1  0.25503100  0.25179500  0.00323600  1
  Rh  Rh0  1  0.41521400  0.91607400  0.49914000  1
  Rh  Rh1  1  0.58358900  0.08155900  0.99911600  1
  Rh  Rh2  1  0.58358900  0.58447300  0.50203000  1
  Rh  Rh3  1  0.58306500  0.08392600  0.49914000  1
  Rh  Rh4  1  0.75016400  0.24961900  0.50054500  1
  Rh  Rh5  1  0.91818000  0.41700200  0.50117800  1
  Rh  Rh6  1  0.91755600  0.91844100  0.50203000  1
  Rh  Rh7  1  0.91755600  0.41552700  0.99911600  1
  Rh  Rh8  1  0.08417700  0.58299800  0.50117800  1
  Rh  Rh9  1  0.25092600  0.75038100  0.50054500  1
  Rh  Rh10  1  0.24809000  0.25025700  0.49834700  1
  Rh  Rh11  1  0.24809000  0.74974300  0.99783300  1
  O  O0  1  0.30716200  0.71918800  0.16447200  1
  O  O1  1  0.30716200  0.14269000  0.58797500  1
  O  O2  1  0.24932200  0.83350600  0.41581600  1
  O  O3  1  0.38971600  0.97230800  0.83374100  1
  O  O4  1  0.28936400  0.16556800  0.12379600  1
  O  O5  1  0.52648600  0.10909000  0.83157600  1
  O  O6  1  0.38971600  0.55597500  0.41740800  1
  O  O7  1  0.52648600  0.69491000  0.41739700  1
  O  O8  1  0.50055400  0.33430300  0.16625200  1
  O  O9  1  0.33130200  0.50000000  0.83130200  1
  O  O10  1  0.66693700  0.83315400  0.83378300  1
  O  O11  1  0.54666000  0.65796100  0.88869900  1
  O  O12  1  0.77777400  0.61380100  0.58273700  1
  O  O13  1  0.44528500  0.85731000  0.16447200  1
  O  O14  1  0.63922800  0.47202800  0.58376500  1
  O  O15  1  0.44528500  0.28081200  0.58797500  1
  O  O16  1  0.77777400  0.19503700  0.16397200  1
  O  O17  1  0.63922800  0.05546300  0.16720000  1
  O  O18  1  0.58231000  0.16649400  0.41581600  1
  O  O19  1  0.91655200  0.33301000  0.58354100  1
  O  O20  1  0.58478900  0.00000000  0.58478900  1
  O  O21  1  0.05520600  0.63871800  0.83328500  1
  O  O22  1  0.86143300  0.02769200  0.41740800  1
  O  O23  1  0.86143300  0.44402500  0.83374100  1
  O  O24  1  0.05520600  0.22192200  0.41648800  1
  O  O25  1  0.72248700  0.30509000  0.83157600  1
  O  O26  1  0.72248700  0.89091000  0.41739700  1
  O  O27  1  0.95822800  0.83443200  0.12379600  1
  O  O28  1  0.83194900  0.66569700  0.16625200  1
  O  O29  1  0.00062900  0.16684600  0.83378300  1
  O  O30  1  0.84954100  0.00000000  0.84954100  1
  O  O31  1  0.23073800  0.34203900  0.88869900  1
  O  O32  1  0.96893500  0.80496300  0.58273700  1
  O  O33  1  0.11173700  0.52797200  0.16720000  1
  O  O34  1  0.96893500  0.38619900  0.16397200  1
  O  O35  1  0.11173700  0.94453700  0.58376500  1
  O  O36  1  0.91937300  0.50000000  0.41937300  1
  O  O37  1  0.25053100  0.66699000  0.58354100  1
  O  O38  1  0.19456700  0.36128200  0.41648800  1
  O  O39  1  0.19456700  0.77807800  0.83328500  1
  O  O40  1  0.16524300  0.00000000  0.16524300  1
loop_
_geom_bond_atom_site_label_1
_geom_bond_atom_site_label_2
_geom_bond_distance
_geom_bond_site_symmetry_2
Bi0 O31 2.140400 1_554
Bi0 O5 2.499504 1_554
Bi0 O7 2.499512 1_555
Bi0 O9 2.506472 1_554
Bi0 O1 2.517067 1_554
Bi0 O0 2.517074 1_555
Bi0 O8 2.528834 1_555
Bi1 O4 2.265050 1_555
Bi1 O11 2.313136 1_555
Bi1 O15 2.482157 1_555
Bi1 O38 2.489213 1_555
Bi1 O18 2.498241 1_555
Bi1 O37 2.525360 1_555
Bi1 O14 2.538096 1_555
Bi1 O6 2.561004 1_555
Bi2 O4 2.265050 1_565
Bi2 O11 2.313136 1_554
Bi2 O13 2.482145 1_555
Bi2 O39 2.489220 1_554
Bi2 O18 2.498241 1_565
Bi2 O37 2.525360 1_554
Bi2 O17 2.538096 1_565
Bi2 O3 2.561004 1_554
Bi3 O27 2.248497 1_556
Bi3 O30 2.367330 1_565
Bi3 O10 2.483586 1_555
Bi3 O16 2.486288 1_566
Bi3 O12 2.486289 1_555
Bi3 O40 2.538454 1_666
Bi3 O21 2.539124 1_655
Bi3 O24 2.539126 1_666
Bi4 O27 2.268164 1_555
Bi4 O11 2.309597 1_554
Bi4 O28 2.476847 1_555
Bi4 O23 2.497268 1_554
Bi4 O22 2.497268 1_565
Bi4 O14 2.533982 1_554
Bi4 O17 2.533982 1_565
Bi4 O10 2.561561 1_554
Bi5 O11 2.140394 1_554
Bi5 O25 2.499504 1_554
Bi5 O26 2.499508 1_555
Bi5 O9 2.506484 1_554
Bi5 O15 2.517069 1_554
Bi5 O13 2.517074 1_555
Bi5 O28 2.528818 1_555
Bi6 O30 2.195138 1_555
Bi6 O20 2.477641 1_555
Bi6 O5 2.491210 1_555
Bi6 O25 2.491218 1_555
Bi6 O16 2.522258 1_556
Bi6 O34 2.522264 1_556
Bi6 O36 2.567654 1_556
Bi7 O27 2.265050 1_445
Bi7 O31 2.313136 1_555
Bi7 O1 2.482145 1_555
Bi7 O24 2.489225 1_555
Bi7 O2 2.498241 1_545
Bi7 O19 2.525353 1_455
Bi7 O35 2.538096 1_545
Bi7 O22 2.561004 1_455
Bi8 O30 2.195138 1_565
Bi8 O20 2.477641 1_565
Bi8 O26 2.491205 1_555
Bi8 O7 2.491218 1_555
Bi8 O32 2.522258 1_555
Bi8 O12 2.522270 1_555
Bi8 O36 2.567654 1_555
Bi9 O27 2.265050 1_455
Bi9 O31 2.313136 1_554
Bi9 O0 2.482152 1_555
Bi9 O21 2.489213 1_554
Bi9 O2 2.498241 1_555
Bi9 O19 2.525358 1_454
Bi9 O33 2.538096 1_555
Bi9 O23 2.561004 1_454
Bi10 O4 2.248497 1_556
Bi10 O30 2.367330 1_455
Bi10 O29 2.483586 1_555
Bi10 O32 2.486288 1_445
Bi10 O34 2.486295 1_456
Bi10 O40 2.538454 1_556
Bi10 O38 2.539124 1_556
Bi10 O39 2.539131 1_545
Bi11 O4 2.268164 1_555
Bi11 O31 2.309597 1_554
Bi11 O8 2.476836 1_555
Bi11 O3 2.497268 1_544
Bi11 O6 2.497268 1_555
Bi11 O33 2.533982 1_555
Bi11 O35 2.533982 1_544
Bi11 O29 2.561561 1_554
O0 Rh0 2.031578 1_555
O0 Rh11 2.034984 1_554
O1 Rh0 2.031576 1_545
O1 Rh10 2.034995 1_555
O2 Rh0 2.007913 1_555
O2 Rh9 2.025229 1_555
O3 Rh1 2.012824 1_565
O3 Rh9 2.021828 1_555
O5 Rh0 2.019057 1_545
O5 Rh1 2.023065 1_555
O6 Rh2 2.012824 1_555
O6 Rh9 2.021828 1_555
O7 Rh0 2.019059 1_555
O7 Rh2 2.023054 1_555
O8 Rh2 2.036329 1_555
O8 Rh1 2.036336 1_554
O9 Rh10 2.019886 1_555
O9 Rh11 2.019886 1_555
O10 Rh1 2.011946 1_565
O10 Rh2 2.011946 1_555
O12 Rh2 2.042292 1_555
O12 Rh5 2.043484 1_555
O13 Rh3 2.031573 1_565
O13 Rh11 2.034995 1_554
O14 Rh2 2.021867 1_555
O14 Rh4 2.023902 1_555
O15 Rh3 2.031564 1_555
O15 Rh10 2.034990 1_555
O16 Rh1 2.042296 1_554
O16 Rh5 2.043489 1_555
O17 Rh1 2.021867 1_554
O17 Rh4 2.023902 1_555
O18 Rh3 2.007921 1_555
O18 Rh4 2.025229 1_555
O19 Rh4 2.022806 1_555
O19 Rh5 2.031974 1_555
O20 Rh3 2.045202 1_555
O20 Rh0 2.045210 1_545
O21 Rh5 2.012932 1_455
O21 Rh11 2.015362 1_555
O22 Rh6 2.012828 1_545
O22 Rh4 2.021828 1_555
O23 Rh7 2.012829 1_555
O23 Rh4 2.021828 1_555
O24 Rh5 2.012928 1_455
O24 Rh10 2.015358 1_555
O25 Rh3 2.019062 1_555
O25 Rh7 2.023043 1_555
O26 Rh3 2.019071 1_565
O26 Rh6 2.023046 1_555
O28 Rh7 2.036325 1_554
O28 Rh6 2.036332 1_555
O29 Rh6 2.011945 1_445
O29 Rh7 2.011952 1_455
O32 Rh6 2.042292 1_555
O32 Rh8 2.043493 1_655
O33 Rh7 2.021878 1_454
O33 Rh9 2.023902 1_555
O34 Rh7 2.042279 1_554
O34 Rh8 2.043490 1_655
O35 Rh6 2.021879 1_455
O35 Rh9 2.023902 1_555
O36 Rh5 2.009751 1_555
O36 Rh8 2.009763 1_655
O37 Rh9 2.022794 1_555
O37 Rh8 2.031969 1_555
O38 Rh8 2.012928 1_555
O38 Rh10 2.015362 1_555
O39 Rh8 2.012936 1_555
O39 Rh11 2.015351 1_555
O40 Rh11 2.021678 1_544
O40 Rh10 2.021678 1_555
