# generated using pymatgen
data_Li3FePCO7
_symmetry_space_group_name_H-M   'P 1'
_cell_length_a   4.86815005
_cell_length_b   6.46587305
_cell_length_c   17.27430599
_cell_angle_alpha   90.01508192
_cell_angle_beta   86.01759745
_cell_angle_gamma   90.00443617
_symmetry_Int_Tables_number   1
_chemical_formula_structural   Li3FePCO7
_chemical_formula_sum   'Li12 Fe4 P4 C4 O28'
_cell_volume   542.42764862
_cell_formula_units_Z   4
loop_
 _symmetry_equiv_pos_site_id
 _symmetry_equiv_pos_as_xyz
  1  'x, y, z'
loop_
 _atom_site_type_symbol
 _atom_site_label
 _atom_site_symmetry_multiplicity
 _atom_site_fract_x
 _atom_site_fract_y
 _atom_site_fract_z
 _atom_site_occupancy
  Li  Li0  1  0.77415200  0.26850700  0.05583900  1
  Li  Li1  1  0.77397800  0.26826500  0.55585600  1
  Li  Li2  1  0.22590500  0.76827700  0.44412000  1
  Li  Li3  1  0.22602100  0.76845300  0.94417400  1
  Li  Li4  1  0.24207100  0.47799600  0.14524500  1
  Li  Li5  1  0.24204700  0.47752000  0.64533400  1
  Li  Li6  1  0.75775700  0.97808000  0.35479300  1
  Li  Li7  1  0.75791700  0.97795200  0.85477200  1
  Li  Li8  1  0.77941400  0.73821100  0.18213300  1
  Li  Li9  1  0.77941800  0.73791800  0.68217900  1
  Li  Li10  1  0.22049100  0.23816300  0.31787500  1
  Li  Li11  1  0.22065800  0.23800400  0.81786000  1
  Fe  Fe0  1  0.25130400  0.98863000  0.62775900  1
  Fe  Fe1  1  0.74871000  0.48935900  0.87204000  1
  Fe  Fe2  1  0.25123500  0.98951500  0.12793700  1
  Fe  Fe3  1  0.74853800  0.48943600  0.37208600  1
  P  P0  1  0.72155100  0.24663100  0.20470000  1
  P  P1  1  0.72161800  0.24633000  0.70468400  1
  P  P2  1  0.27831100  0.74667700  0.29529600  1
  P  P3  1  0.27842800  0.74651100  0.79531800  1
  C  C0  1  0.71448400  0.76636900  0.02241200  1
  C  C1  1  0.71452300  0.76612000  0.52240500  1
  C  C2  1  0.28548200  0.26623100  0.47758300  1
  C  C3  1  0.28566400  0.26637300  0.97758700  1
  O  O0  1  0.97150300  0.77842900  0.03333000  1
  O  O1  1  0.97156700  0.77830100  0.53328700  1
  O  O2  1  0.02846400  0.27846900  0.46668800  1
  O  O3  1  0.02866600  0.27845000  0.96668400  1
  O  O4  1  0.36733900  0.24305100  0.04845400  1
  O  O5  1  0.36714400  0.24258700  0.54843700  1
  O  O6  1  0.63274100  0.74294500  0.45154700  1
  O  O7  1  0.63288700  0.74307700  0.95152500  1
  O  O8  1  0.52852400  0.77271700  0.08012500  1
  O  O9  1  0.52872500  0.77225800  0.58016000  1
  O  O10  1  0.47140500  0.27274900  0.41986400  1
  O  O11  1  0.47157300  0.27272800  0.91986200  1
  O  O12  1  0.84200400  0.05710100  0.15760300  1
  O  O13  1  0.84210500  0.05680300  0.65760400  1
  O  O14  1  0.15790600  0.55710700  0.34235900  1
  O  O15  1  0.15810700  0.55698600  0.84241500  1
  O  O16  1  0.82356900  0.43735700  0.15681600  1
  O  O17  1  0.82357400  0.43707400  0.65679300  1
  O  O18  1  0.17626100  0.93737200  0.34322800  1
  O  O19  1  0.17640600  0.93724500  0.84322300  1
  O  O20  1  0.18921000  0.74321200  0.21097300  1
  O  O21  1  0.18925300  0.74288100  0.71100300  1
  O  O22  1  0.81066200  0.24314700  0.28902000  1
  O  O23  1  0.81078900  0.24300400  0.78900900  1
  O  O24  1  0.40035300  0.23243900  0.20704800  1
  O  O25  1  0.40045100  0.23206700  0.70703600  1
  O  O26  1  0.59949900  0.73253400  0.29296000  1
  O  O27  1  0.59963500  0.73239100  0.79295900  1
loop_
_geom_bond_atom_site_label_1
_geom_bond_atom_site_label_2
_geom_bond_distance
_geom_bond_site_symmetry_2
Li0 O3 1.909491 1_654
Li0 O4 2.000122 1_555
Li0 O16 2.085587 1_555
Li0 O12 2.269317 1_555
Li1 O2 1.909639 1_655
Li1 O5 2.000420 1_555
Li1 O17 2.085016 1_555
Li1 O13 2.269585 1_555
Li2 O1 1.909138 1_455
Li2 O6 2.000294 1_555
Li2 O18 2.085869 1_555
Li2 O14 2.267912 1_555
Li3 O0 1.909502 1_456
Li3 O7 2.000289 1_555
Li3 O19 2.085679 1_555
Li3 O15 2.268959 1_555
Li4 O16 2.050145 1_455
Li4 O20 2.062655 1_555
Li4 O24 2.090401 1_555
Li4 O4 2.309195 1_555
Li4 O8 2.573767 1_555
Li5 O17 2.049792 1_455
Li5 O21 2.062855 1_555
Li5 O25 2.089195 1_555
Li5 O5 2.310258 1_555
Li5 O9 2.574781 1_555
Li6 O18 2.050236 1_655
Li6 O22 2.062758 1_565
Li6 O26 2.090060 1_555
Li6 O6 2.309807 1_555
Li6 O10 2.572650 1_565
Li7 O19 2.050155 1_655
Li7 O23 2.062570 1_565
Li7 O27 2.089996 1_555
Li7 O7 2.308703 1_555
Li7 O11 2.573273 1_565
Li8 O16 2.002037 1_555
Li8 O26 2.049573 1_555
Li8 O20 2.089758 1_655
Li8 O12 2.122797 1_565
Li8 O8 2.223909 1_555
Li9 O17 2.002227 1_555
Li9 O27 2.048588 1_555
Li9 O21 2.089854 1_655
Li9 O13 2.122974 1_565
Li9 O9 2.223380 1_555
Li10 O18 2.001998 1_545
Li10 O24 2.049469 1_555
Li10 O22 2.090000 1_455
Li10 O14 2.122811 1_555
Li10 O10 2.223647 1_555
Li11 O19 2.001844 1_545
Li11 O25 2.049325 1_555
Li11 O23 2.090170 1_455
Li11 O15 2.123261 1_555
Li11 O11 2.223926 1_555
Fe0 O13 2.070192 1_465
Fe0 O9 2.074305 1_555
Fe0 O21 2.150511 1_555
Fe0 O5 2.187602 1_565
Fe0 O25 2.239858 1_565
Fe0 O1 2.583496 1_455
Fe1 O15 2.069657 1_655
Fe1 O11 2.076081 1_555
Fe1 O23 2.150477 1_555
Fe1 O7 2.187664 1_555
Fe1 O27 2.236329 1_555
Fe1 O3 2.588629 1_655
Fe2 O12 2.068973 1_465
Fe2 O8 2.077057 1_555
Fe2 O20 2.150784 1_555
Fe2 O4 2.187530 1_565
Fe2 O24 2.235659 1_565
Fe2 O0 2.587618 1_455
Fe3 O14 2.069902 1_655
Fe3 O10 2.076045 1_555
Fe3 O22 2.150579 1_555
Fe3 O6 2.186371 1_555
Fe3 O26 2.237057 1_555
Fe3 O2 2.588258 1_655
C0 O0 1.280595 1_555
C0 O8 1.299906 1_555
C0 O7 1.321887 1_554
C1 O1 1.280630 1_555
C1 O9 1.299879 1_555
C1 O6 1.321656 1_555
C2 O2 1.280594 1_555
C2 O10 1.299912 1_555
C2 O5 1.321805 1_555
C3 O3 1.280463 1_555
C3 O11 1.299909 1_555
C3 O4 1.321801 1_556
O12 P0 1.562323 1_555
O13 P1 1.562219 1_555
O14 P2 1.562421 1_555
O15 P3 1.562345 1_555
O16 P0 1.547591 1_555
O17 P1 1.547660 1_555
O18 P2 1.547614 1_555
O19 P3 1.547538 1_555
O20 P2 1.548591 1_555
O21 P3 1.548598 1_555
O22 P0 1.548572 1_555
O23 P1 1.548741 1_555
O24 P0 1.564035 1_555
O25 P1 1.563909 1_555
O26 P2 1.563990 1_555
O27 P3 1.564056 1_555
