# generated using pymatgen
data_Li2BiAsCO7
_symmetry_space_group_name_H-M   'P 1'
_cell_length_a   7.17260200
_cell_length_b   5.13904500
_cell_length_c   9.34412796
_cell_angle_alpha   89.70249882
_cell_angle_beta   90.00000000
_cell_angle_gamma   90.00000000
_symmetry_Int_Tables_number   1
_chemical_formula_structural   Li2BiAsCO7
_chemical_formula_sum   'Li4 Bi2 As2 C2 O14'
_cell_volume   344.42294534
_cell_formula_units_Z   2
loop_
 _symmetry_equiv_pos_site_id
 _symmetry_equiv_pos_as_xyz
  1  'x, y, z'
loop_
 _atom_site_type_symbol
 _atom_site_label
 _atom_site_symmetry_multiplicity
 _atom_site_fract_x
 _atom_site_fract_y
 _atom_site_fract_z
 _atom_site_occupancy
  Li  Li0  1  0.05695700  0.21345400  0.78992800  1
  Li  Li1  1  0.44304300  0.21345400  0.78992800  1
  Li  Li2  1  0.55695700  0.78654600  0.21007200  1
  Li  Li3  1  0.94304300  0.78654600  0.21007200  1
  Bi  Bi0  1  0.75000000  0.77861100  0.63995200  1
  Bi  Bi1  1  0.25000000  0.22138900  0.36004800  1
  As  As0  1  0.25000000  0.72767200  0.61323600  1
  As  As1  1  0.75000000  0.27232800  0.38676400  1
  C  C0  1  0.75000000  0.74388600  0.93097900  1
  C  C1  1  0.25000000  0.25611400  0.06902100  1
  O  O0  1  0.25000000  0.26145700  0.93269200  1
  O  O1  1  0.75000000  0.96777900  0.85982000  1
  O  O2  1  0.75000000  0.53228000  0.85336100  1
  O  O3  1  0.05941000  0.87907300  0.68802100  1
  O  O4  1  0.44059000  0.87907300  0.68802100  1
  O  O5  1  0.75000000  0.22735000  0.57189900  1
  O  O6  1  0.25000000  0.39907900  0.64147200  1
  O  O7  1  0.75000000  0.60092100  0.35852800  1
  O  O8  1  0.25000000  0.77265000  0.42810100  1
  O  O9  1  0.55941000  0.12092700  0.31197900  1
  O  O10  1  0.94059000  0.12092700  0.31197900  1
  O  O11  1  0.25000000  0.46772000  0.14663900  1
  O  O12  1  0.25000000  0.03222100  0.14018000  1
  O  O13  1  0.75000000  0.73854300  0.06730800  1
loop_
_geom_bond_atom_site_label_1
_geom_bond_atom_site_label_2
_geom_bond_distance
_geom_bond_site_symmetry_2
Li0 O0 1.939334 1_555
Li0 O3 1.968995 1_545
Li0 O6 2.176632 1_555
Li1 O0 1.939334 1_555
Li1 O4 1.968995 1_545
Li1 O6 2.176632 1_555
Li2 O13 1.939334 1_555
Li2 O9 1.968995 1_565
Li2 O7 2.176632 1_555
Li3 O13 1.939334 1_555
Li3 O10 1.968995 1_565
Li3 O7 2.176632 1_555
Bi0 O1 2.277426 1_555
Bi0 O3 2.322903 1_655
Bi0 O4 2.322903 1_555
Bi0 O2 2.356443 1_555
Bi0 O5 2.388972 1_565
Bi0 O7 2.788174 1_555
Bi1 O12 2.277426 1_555
Bi1 O10 2.322903 1_455
Bi1 O9 2.322903 1_555
Bi1 O11 2.356443 1_555
Bi1 O8 2.388972 1_545
Bi1 O6 2.788174 1_555
As0 O6 1.707788 1_555
As0 O4 1.722818 1_555
As0 O3 1.722818 1_555
As0 O8 1.744109 1_555
As1 O7 1.707788 1_555
As1 O10 1.722818 1_555
As1 O9 1.722818 1_555
As1 O5 1.744109 1_555
C0 O13 1.274029 1_556
C0 O2 1.310253 1_555
C0 O1 1.325912 1_555
C1 O0 1.274029 1_554
C1 O11 1.310253 1_555
C1 O12 1.325912 1_555
