# generated using pymatgen
data_Zr2N2O
_symmetry_space_group_name_H-M   'P 1'
_cell_length_a   8.80614723
_cell_length_b   8.78181946
_cell_length_c   8.76571229
_cell_angle_alpha   109.35226425
_cell_angle_beta   109.32752198
_cell_angle_gamma   109.56911784
_symmetry_Int_Tables_number   1
_chemical_formula_structural   Zr2N2O
_chemical_formula_sum   'Zr16 N16 O8'
_cell_volume   522.89434621
_cell_formula_units_Z   8
loop_
 _symmetry_equiv_pos_site_id
 _symmetry_equiv_pos_as_xyz
  1  'x, y, z'
loop_
 _atom_site_type_symbol
 _atom_site_label
 _atom_site_symmetry_multiplicity
 _atom_site_fract_x
 _atom_site_fract_y
 _atom_site_fract_z
 _atom_site_occupancy
  Zr  Zr0  1  0.50030165  0.99976830  0.98742330  1
  Zr  Zr1  1  0.74852409  0.29139381  0.53403945  1
  Zr  Zr2  1  0.21752592  0.96296607  0.24865188  1
  Zr  Zr3  1  0.72015834  0.47209130  0.24786229  1
  Zr  Zr4  1  0.24281147  0.21225829  0.95559092  1
  Zr  Zr5  1  0.00945649  0.50970244  0.00607070  1
  Zr  Zr6  1  0.53358662  0.74965180  0.29189279  1
  Zr  Zr7  1  0.99734193  0.99607309  0.50527751  1
  Zr  Zr8  1  0.50250708  0.50015336  0.50946665  1
  Zr  Zr9  1  0.97155829  0.25878898  0.21434026  1
  Zr  Zr10  1  0.46234233  0.25636288  0.71895785  1
  Zr  Zr11  1  0.02783083  0.73985230  0.77674236  1
  Zr  Zr12  1  0.75224568  0.78168208  0.03290409  1
  Zr  Zr13  1  0.78851938  0.03287546  0.75961584  1
  Zr  Zr14  1  0.27989202  0.53283279  0.74588959  1
  Zr  Zr15  1  0.25152606  0.70777230  0.46703207  1
  N  N0  1  0.72872369  0.98988964  0.96008215  1
  N  N1  1  0.51442993  0.23876744  0.96859887  1
  N  N2  1  0.77000226  0.54134359  0.52704056  1
  N  N3  1  0.76835806  0.73064874  0.26128868  1
  N  N4  1  0.46541702  0.22481684  0.45589138  1
  N  N5  1  0.04921989  0.27573957  0.01490950  1
  N  N6  1  0.95806950  0.73269699  0.99079052  1
  N  N7  1  0.96475515  0.50822169  0.23909005  1
  N  N8  1  0.27464562  0.74293986  0.22593407  1
  N  N9  1  0.53624803  0.77276915  0.54211974  1
  N  N10  1  0.22812550  0.45295454  0.46723135  1
  N  N11  1  0.54541967  0.53373611  0.77593590  1
  N  N12  1  0.98800498  0.95596489  0.72681894  1
  N  N13  1  0.22530680  0.26675340  0.73460806  1
  N  N14  1  0.02900627  0.48342638  0.75773939  1
  N  N15  1  0.26592092  0.77904704  0.73073109  1
  O  O0  1  0.76382821  0.03680397  0.48731977  1
  O  O1  1  0.27549723  0.01304596  0.04753809  1
  O  O2  1  0.73549903  0.21938349  0.27416752  1
  O  O3  1  0.45117090  0.46808125  0.22462013  1
  O  O4  1  0.22820899  0.96175498  0.50398063  1
  O  O5  1  0.72619677  0.25520542  0.76803589  1
  O  O6  1  0.01503524  0.04704955  0.27779427  1
  O  O7  1  0.48678115  0.76473727  0.03597389  1
loop_
_geom_bond_atom_site_label_1
_geom_bond_atom_site_label_2
_geom_bond_distance
_geom_bond_site_symmetry_2
N0 Zr13 2.103948 1_565
N0 Zr0 2.129179 1_555
N0 Zr12 2.175615 1_556
N0 Zr9 2.256307 1_566
N1 Zr0 2.125102 1_545
N1 Zr10 2.151746 1_555
N1 Zr3 2.174040 1_556
N1 Zr4 2.284141 1_555
N2 Zr11 2.124869 1_655
N2 Zr3 2.162195 1_555
N2 Zr1 2.162508 1_555
N2 Zr8 2.203522 1_555
N3 Zr3 2.119875 1_555
N3 Zr12 2.162868 1_555
N3 Zr7 2.183162 1_555
N3 Zr6 2.223211 1_555
N4 Zr2 2.144068 1_545
N4 Zr1 2.157361 1_555
N4 Zr8 2.188740 1_555
N4 Zr10 2.240073 1_555
N5 Zr9 2.107502 1_455
N5 Zr4 2.125745 1_554
N5 Zr5 2.218011 1_555
N5 Zr13 2.232328 1_454
N6 Zr12 2.113411 1_556
N6 Zr11 2.171878 1_655
N6 Zr5 2.187464 1_656
N6 Zr2 2.208119 1_656
N7 Zr3 2.100975 1_555
N7 Zr9 2.151834 1_555
N7 Zr15 2.194419 1_655
N7 Zr5 2.207639 1_655
N8 Zr2 2.118620 1_555
N8 Zr6 2.133562 1_555
N8 Zr5 2.136260 1_555
N8 Zr15 2.297507 1_555
N9 Zr6 2.126149 1_555
N9 Zr13 2.167617 1_565
N9 Zr15 2.178419 1_555
N9 Zr8 2.216931 1_555
N10 Zr9 2.127230 1_455
N10 Zr14 2.139973 1_555
N10 Zr15 2.178067 1_555
N10 Zr8 2.186863 1_555
N11 Zr10 2.115673 1_555
N11 Zr12 2.123526 1_556
N11 Zr8 2.137809 1_555
N11 Zr14 2.261747 1_555
N12 Zr7 2.107530 1_555
N12 Zr13 2.150641 1_565
N12 Zr4 2.183830 1_665
N12 Zr11 2.193424 1_655
N13 Zr4 2.114517 1_555
N13 Zr7 2.164872 1_445
N13 Zr10 2.166357 1_555
N13 Zr14 2.182612 1_555
N14 Zr1 2.145196 1_455
N14 Zr14 2.149382 1_555
N14 Zr5 2.182458 1_556
N14 Zr11 2.206128 1_555
N15 Zr0 2.106041 1_555
N15 Zr15 2.131885 1_555
N15 Zr11 2.201233 1_555
N15 Zr14 2.250718 1_555
O0 Zr7 2.167280 1_545
O0 Zr1 2.194554 1_555
O0 Zr6 2.194861 1_545
O0 Zr13 2.337023 1_555
O1 Zr2 2.126271 1_545
O1 Zr4 2.216140 1_554
O1 Zr0 2.239365 1_544
O1 Zr11 2.332546 1_544
O2 Zr1 2.103786 1_555
O2 Zr0 2.234389 1_544
O2 Zr9 2.253015 1_555
O2 Zr3 2.348569 1_555
O3 Zr6 2.129994 1_555
O3 Zr4 2.199610 1_554
O3 Zr8 2.284638 1_555
O3 Zr3 2.296434 1_555
O4 Zr7 2.155857 1_455
O4 Zr2 2.212532 1_555
O4 Zr15 2.234710 1_555
O4 Zr10 2.262592 1_565
O5 Zr13 2.183549 1_555
O5 Zr10 2.222852 1_555
O5 Zr1 2.236954 1_555
O5 Zr5 2.302270 1_656
O6 Zr2 2.201980 1_545
O6 Zr9 2.221475 1_455
O6 Zr7 2.225192 1_445
O6 Zr12 2.275484 1_445
O7 Zr6 2.200313 1_555
O7 Zr0 2.215055 1_554
O7 Zr14 2.224517 1_554
O7 Zr12 2.301969 1_555
