# generated using pymatgen
data_Li2MnCo3O8
_symmetry_space_group_name_H-M   'P 1'
_cell_length_a   8.11967700
_cell_length_b   8.11967700
_cell_length_c   8.11967700
_cell_angle_alpha   90.00000000
_cell_angle_beta   90.00000000
_cell_angle_gamma   90.00000000
_symmetry_Int_Tables_number   1
_chemical_formula_structural   Li2MnCo3O8
_chemical_formula_sum   'Li8 Mn4 Co12 O32'
_cell_volume   535.32344011
_cell_formula_units_Z   4
loop_
 _symmetry_equiv_pos_site_id
 _symmetry_equiv_pos_as_xyz
  1  'x, y, z'
loop_
 _atom_site_type_symbol
 _atom_site_label
 _atom_site_symmetry_multiplicity
 _atom_site_fract_x
 _atom_site_fract_y
 _atom_site_fract_z
 _atom_site_occupancy
  Li  Li0  1  0.49738600  0.49738600  0.49738600  1
  Li  Li1  1  0.75261400  0.75261400  0.75261400  1
  Li  Li2  1  0.74738600  0.24738600  0.25261400  1
  Li  Li3  1  0.00261400  0.50261400  0.99738600  1
  Li  Li4  1  0.99738600  0.00261400  0.50261400  1
  Li  Li5  1  0.25261400  0.74738600  0.24738600  1
  Li  Li6  1  0.24738600  0.25261400  0.74738600  1
  Li  Li7  1  0.50261400  0.99738600  0.00261400  1
  Mn  Mn0  1  0.62500000  0.37500000  0.87500000  1
  Mn  Mn1  1  0.87500000  0.62500000  0.37500000  1
  Mn  Mn2  1  0.12500000  0.12500000  0.12500000  1
  Mn  Mn3  1  0.37500000  0.87500000  0.62500000  1
  Co  Co0  1  0.62479000  0.62521000  0.12500000  1
  Co  Co1  1  0.62500000  0.87521000  0.37479000  1
  Co  Co2  1  0.62521000  0.12500000  0.62479000  1
  Co  Co3  1  0.87479000  0.87500000  0.12479000  1
  Co  Co4  1  0.87500000  0.12479000  0.87479000  1
  Co  Co5  1  0.87521000  0.37479000  0.62500000  1
  Co  Co6  1  0.12479000  0.87479000  0.87500000  1
  Co  Co7  1  0.12500000  0.62479000  0.62521000  1
  Co  Co8  1  0.12521000  0.37500000  0.37521000  1
  Co  Co9  1  0.37479000  0.62500000  0.87521000  1
  Co  Co10  1  0.37500000  0.37521000  0.12521000  1
  Co  Co11  1  0.37521000  0.12521000  0.37500000  1
  O  O0  1  0.61163500  0.61241100  0.88880300  1
  O  O1  1  0.61119700  0.38836500  0.11241100  1
  O  O2  1  0.60973200  0.10973200  0.39026800  1
  O  O3  1  0.63758900  0.63836500  0.36119700  1
  O  O4  1  0.61241100  0.88880300  0.61163500  1
  O  O5  1  0.64026800  0.85973200  0.14026800  1
  O  O6  1  0.63880300  0.13758900  0.86163500  1
  O  O7  1  0.63836500  0.36119700  0.63758900  1
  O  O8  1  0.86163500  0.63880300  0.13758900  1
  O  O9  1  0.86119700  0.86241100  0.36163500  1
  O  O10  1  0.85973200  0.14026800  0.64026800  1
  O  O11  1  0.88758900  0.11119700  0.11163500  1
  O  O12  1  0.86241100  0.36163500  0.86119700  1
  O  O13  1  0.89026800  0.89026800  0.89026800  1
  O  O14  1  0.88880300  0.61163500  0.61241100  1
  O  O15  1  0.88836500  0.38758900  0.38880300  1
  O  O16  1  0.11163500  0.88758900  0.11119700  1
  O  O17  1  0.11119700  0.11163500  0.88758900  1
  O  O18  1  0.10973200  0.39026800  0.60973200  1
  O  O19  1  0.13758900  0.86163500  0.63880300  1
  O  O20  1  0.11241100  0.61119700  0.38836500  1
  O  O21  1  0.14026800  0.64026800  0.85973200  1
  O  O22  1  0.13880300  0.36241100  0.13836500  1
  O  O23  1  0.13836500  0.13880300  0.36241100  1
  O  O24  1  0.36163500  0.86119700  0.86241100  1
  O  O25  1  0.36119700  0.63758900  0.63836500  1
  O  O26  1  0.35973200  0.35973200  0.35973200  1
  O  O27  1  0.38758900  0.38880300  0.88836500  1
  O  O28  1  0.36241100  0.13836500  0.13880300  1
  O  O29  1  0.39026800  0.60973200  0.10973200  1
  O  O30  1  0.38880300  0.88836500  0.38758900  1
  O  O31  1  0.38836500  0.11241100  0.61119700  1
loop_
_geom_bond_atom_site_label_1
_geom_bond_atom_site_label_2
_geom_bond_distance
_geom_bond_site_symmetry_2
Li0 O26 1.935924 1_555
Li0 O7 1.956815 1_555
Li0 O25 1.956815 1_555
Li0 O3 1.956815 1_555
Li1 O13 1.935924 1_555
Li1 O0 1.956815 1_555
Li1 O14 1.956815 1_555
Li1 O4 1.956815 1_555
Li2 O2 1.935924 1_555
Li2 O15 1.956815 1_555
Li2 O1 1.956815 1_555
Li2 O11 1.956815 1_555
Li3 O21 1.935924 1_555
Li3 O22 1.956815 1_556
Li3 O12 1.956815 1_455
Li3 O8 1.956815 1_456
Li4 O10 1.935924 1_555
Li4 O23 1.956815 1_655
Li4 O19 1.956815 1_645
Li4 O9 1.956815 1_545
Li5 O29 1.935924 1_555
Li5 O30 1.956815 1_555
Li5 O20 1.956815 1_555
Li5 O16 1.956815 1_555
Li6 O18 1.935924 1_555
Li6 O27 1.956815 1_555
Li6 O31 1.956815 1_555
Li6 O17 1.956815 1_555
Li7 O5 1.935924 1_555
Li7 O28 1.956815 1_565
Li7 O6 1.956815 1_564
Li7 O24 1.956815 1_554
Mn0 O12 1.934003 1_555
Mn0 O0 1.934003 1_555
Mn0 O1 1.934003 1_556
Mn0 O7 1.934003 1_555
Mn0 O6 1.934003 1_555
Mn0 O27 1.934003 1_555
Mn1 O9 1.934003 1_555
Mn1 O14 1.934003 1_555
Mn1 O20 1.934003 1_655
Mn1 O3 1.934003 1_555
Mn1 O8 1.934003 1_555
Mn1 O15 1.934003 1_555
Mn2 O28 1.934003 1_555
Mn2 O22 1.934003 1_555
Mn2 O23 1.934003 1_555
Mn2 O16 1.934003 1_545
Mn2 O11 1.934003 1_455
Mn2 O17 1.934003 1_554
Mn3 O24 1.934003 1_555
Mn3 O4 1.934003 1_555
Mn3 O31 1.934003 1_565
Mn3 O25 1.934003 1_555
Mn3 O19 1.934003 1_555
Mn3 O30 1.934003 1_555
Co0 O5 1.912408 1_555
Co0 O29 1.912408 1_555
Co0 O3 1.923625 1_555
Co0 O0 1.923625 1_554
Co0 O8 1.928980 1_555
Co0 O1 1.928980 1_555
Co1 O2 1.912408 1_565
Co1 O5 1.912408 1_555
Co1 O30 1.923625 1_555
Co1 O9 1.923625 1_555
Co1 O4 1.928980 1_555
Co1 O3 1.928980 1_555
Co2 O10 1.912408 1_555
Co2 O2 1.912408 1_555
Co2 O7 1.923625 1_555
Co2 O4 1.923625 1_545
Co2 O6 1.928980 1_555
Co2 O31 1.928980 1_555
Co3 O13 1.912408 1_554
Co3 O5 1.912408 1_555
Co3 O11 1.923625 1_565
Co3 O8 1.923625 1_555
Co3 O16 1.928980 1_655
Co3 O9 1.928980 1_555
Co4 O13 1.912408 1_545
Co4 O10 1.912408 1_555
Co4 O17 1.923625 1_655
Co4 O6 1.923625 1_555
Co4 O11 1.928980 1_556
Co4 O12 1.928980 1_555
Co5 O18 1.912408 1_655
Co5 O10 1.912408 1_555
Co5 O15 1.923625 1_555
Co5 O12 1.923625 1_555
Co5 O14 1.928980 1_555
Co5 O7 1.928980 1_555
Co6 O13 1.912408 1_455
Co6 O21 1.912408 1_555
Co6 O16 1.923625 1_556
Co6 O19 1.923625 1_555
Co6 O17 1.928980 1_565
Co6 O24 1.928980 1_555
Co7 O21 1.912408 1_555
Co7 O18 1.912408 1_555
Co7 O25 1.923625 1_555
Co7 O14 1.923625 1_455
Co7 O19 1.928980 1_555
Co7 O20 1.928980 1_555
Co8 O18 1.912408 1_555
Co8 O26 1.912408 1_555
Co8 O20 1.923625 1_555
Co8 O23 1.923625 1_555
Co8 O22 1.928980 1_555
Co8 O15 1.928980 1_455
Co9 O29 1.912408 1_556
Co9 O21 1.912408 1_555
Co9 O27 1.923625 1_555
Co9 O24 1.923625 1_555
Co9 O0 1.928980 1_555
Co9 O25 1.928980 1_555
Co10 O29 1.912408 1_555
Co10 O26 1.912408 1_555
Co10 O1 1.923625 1_555
Co10 O22 1.923625 1_555
Co10 O27 1.928980 1_554
Co10 O28 1.928980 1_555
Co11 O2 1.912408 1_555
Co11 O26 1.912408 1_555
Co11 O31 1.923625 1_555
Co11 O28 1.923625 1_555
Co11 O23 1.928980 1_555
Co11 O30 1.928980 1_545
