# generated using pymatgen
data_Li3Co3SbO8
_symmetry_space_group_name_H-M   'P 1'
_cell_length_a   10.51250013
_cell_length_b   10.50045983
_cell_length_c   14.82844109
_cell_angle_alpha   19.37492549
_cell_angle_beta   19.51305814
_cell_angle_gamma   33.60551271
_symmetry_Int_Tables_number   1
_chemical_formula_structural   Li3Co3SbO8
_chemical_formula_sum   'Li3 Co3 Sb1 O8'
_cell_volume   156.20929381
_cell_formula_units_Z   1
loop_
 _symmetry_equiv_pos_site_id
 _symmetry_equiv_pos_as_xyz
  1  'x, y, z'
loop_
 _atom_site_type_symbol
 _atom_site_label
 _atom_site_symmetry_multiplicity
 _atom_site_fract_x
 _atom_site_fract_y
 _atom_site_fract_z
 _atom_site_occupancy
  Li  Li0  1  0.00000000  0.50000000  0.50000000  1
  Li  Li1  1  0.50000000  0.00000000  0.50000000  1
  Li  Li2  1  0.50000000  0.50000000  0.50000000  1
  Co  Co0  1  0.00000000  0.50000000  0.00000000  1
  Co  Co1  1  0.50000000  0.00000000  0.00000000  1
  Co  Co2  1  0.49999900  0.50000000  0.00000100  1
  Sb  Sb0  1  0.00000000  0.00000000  0.00000000  1
  O  O0  1  0.01298900  0.96927300  0.28171200  1
  O  O1  1  0.93541400  0.50008400  0.29889700  1
  O  O2  1  0.52779400  0.04481400  0.21506800  1
  O  O3  1  0.98701200  0.03072800  0.71828700  1
  O  O4  1  0.46966100  0.44893100  0.30710800  1
  O  O5  1  0.06458500  0.49991600  0.70110400  1
  O  O6  1  0.47220600  0.95518700  0.78493200  1
  O  O7  1  0.53033900  0.55106900  0.69289200  1
loop_
_geom_bond_atom_site_label_1
_geom_bond_atom_site_label_2
_geom_bond_distance
_geom_bond_site_symmetry_2
Li0 O6 2.143473 1_554
Li0 O2 2.143478 1_456
Li0 O4 2.169670 1_555
Li0 O7 2.169670 1_455
Li0 O3 2.229635 1_455
Li0 O0 2.229640 1_555
Li1 O4 2.068918 1_555
Li1 O7 2.068918 1_545
Li1 O5 2.267965 1_654
Li1 O1 2.267970 1_446
Li1 O3 2.414403 1_455
Li1 O0 2.414408 1_645
Li2 O5 2.028423 1_555
Li2 O1 2.028423 1_555
Li2 O3 2.324817 1_564
Li2 O0 2.324818 1_546
Li2 O6 2.348886 1_545
Li2 O2 2.348895 1_565
Co0 O0 2.100154 1_545
Co0 O3 2.100157 1_464
Co0 O2 2.118257 1_564
Co0 O6 2.118260 1_445
Co0 O7 2.149300 1_554
Co0 O4 2.149300 1_455
Co1 O0 1.912436 1_545
Co1 O3 1.912441 1_554
Co1 O1 1.984365 1_554
Co1 O5 1.984369 1_545
Co1 O7 2.222992 1_554
Co1 O4 2.222992 1_545
Co2 O3 1.941486 1_455
Co2 O0 1.941494 1_654
Co2 O6 1.942163 1_554
Co2 O2 1.942163 1_555
Co2 O1 2.297717 1_455
Co2 O5 2.297717 1_654
O1 Sb0 2.006973 1_665
O2 Sb0 2.032420 1_655
O4 Sb0 1.980293 1_556
O5 Sb0 2.006977 1_556
O6 Sb0 2.032424 1_566
O7 Sb0 1.980293 1_665
