# generated using pymatgen
data_Lu6WO12
_symmetry_space_group_name_H-M   'P 1'
_cell_length_a   6.27416329
_cell_length_b   6.27416329
_cell_length_c   6.27416426
_cell_angle_alpha   98.80519984
_cell_angle_beta   98.80519974
_cell_angle_gamma   98.80519141
_symmetry_Int_Tables_number   1
_chemical_formula_structural   Lu6WO12
_chemical_formula_sum   'Lu6 W1 O12'
_cell_volume   237.22352453
_cell_formula_units_Z   1
loop_
 _symmetry_equiv_pos_site_id
 _symmetry_equiv_pos_as_xyz
  1  'x, y, z'
loop_
 _atom_site_type_symbol
 _atom_site_label
 _atom_site_symmetry_multiplicity
 _atom_site_fract_x
 _atom_site_fract_y
 _atom_site_fract_z
 _atom_site_occupancy
  Lu  Lu0  1  0.31998987  0.14391701  0.61068886  1
  Lu  Lu1  1  0.85608299  0.38931114  0.68001013  1
  Lu  Lu2  1  0.61068886  0.31998987  0.14391701  1
  Lu  Lu3  1  0.38931114  0.68001013  0.85608299  1
  Lu  Lu4  1  0.14391701  0.61068886  0.31998987  1
  Lu  Lu5  1  0.68001013  0.85608299  0.38931114  1
  W  W0  1  -0.00000000  0.00000000  -0.00000000  1
  O  O0  1  0.91741845  0.03627778  0.69926406  1
  O  O1  1  0.30073594  0.08258155  0.96372222  1
  O  O2  1  0.58901712  0.17742006  0.42730645  1
  O  O3  1  0.96372222  0.30073594  0.08258155  1
  O  O4  1  0.57269355  0.41098288  0.82257994  1
  O  O5  1  0.17742006  0.42730645  0.58901712  1
  O  O6  1  0.82257994  0.57269355  0.41098288  1
  O  O7  1  0.42730645  0.58901712  0.17742006  1
  O  O8  1  0.03627778  0.69926406  0.91741845  1
  O  O9  1  0.41098288  0.82257994  0.57269355  1
  O  O10  1  0.69926406  0.91741845  0.03627778  1
  O  O11  1  0.08258155  0.96372222  0.30073594  1
loop_
_geom_bond_atom_site_label_1
_geom_bond_atom_site_label_2
_geom_bond_distance
_geom_bond_site_symmetry_2
Lu0 O5 2.122198 1_555
Lu0 O9 2.166660 1_545
Lu0 O2 2.185650 1_555
Lu0 O4 2.224469 1_555
Lu0 O11 2.281064 1_545
Lu0 O1 2.323254 1_555
Lu0 O0 2.677126 1_455
Lu1 O4 2.122199 1_555
Lu1 O5 2.166660 1_655
Lu1 O6 2.185650 1_555
Lu1 O2 2.224469 1_555
Lu1 O8 2.281064 1_655
Lu1 O0 2.323254 1_555
Lu1 O3 2.677126 1_556
Lu2 O2 2.122199 1_555
Lu2 O4 2.166660 1_554
Lu2 O7 2.185649 1_555
Lu2 O6 2.224469 1_555
Lu2 O1 2.281064 1_554
Lu2 O3 2.323254 1_555
Lu2 O10 2.677126 1_545
Lu3 O9 2.122199 1_555
Lu3 O7 2.166660 1_556
Lu3 O4 2.185649 1_555
Lu3 O5 2.224469 1_555
Lu3 O10 2.281064 1_556
Lu3 O8 2.323254 1_555
Lu3 O1 2.677126 1_565
Lu4 O7 2.122199 1_555
Lu4 O6 2.166660 1_455
Lu4 O5 2.185650 1_555
Lu4 O9 2.224469 1_555
Lu4 O3 2.281064 1_455
Lu4 O11 2.323254 1_555
Lu4 O8 2.677126 1_554
Lu5 O6 2.122198 1_555
Lu5 O2 2.166660 1_565
Lu5 O9 2.185650 1_555
Lu5 O7 2.224469 1_555
Lu5 O0 2.281064 1_565
Lu5 O10 2.323254 1_555
Lu5 O11 2.677126 1_655
O0 W0 1.936186 1_656
O1 W0 1.936186 1_556
O3 W0 1.936186 1_655
O8 W0 1.936186 1_566
O10 W0 1.936186 1_665
O11 W0 1.936186 1_565
