# generated using pymatgen
data_V3CoNi2(PO4)6
_symmetry_space_group_name_H-M   'P 1'
_cell_length_a   8.44793180
_cell_length_b   8.44793180
_cell_length_c   8.44793109
_cell_angle_alpha   61.25952773
_cell_angle_beta   61.25952773
_cell_angle_gamma   61.25952841
_symmetry_Int_Tables_number   1
_chemical_formula_structural   V3CoNi2(PO4)6
_chemical_formula_sum   'V3 Co1 Ni2 P6 O24'
_cell_volume   438.39403962
_cell_formula_units_Z   1
loop_
 _symmetry_equiv_pos_site_id
 _symmetry_equiv_pos_as_xyz
  1  'x, y, z'
loop_
 _atom_site_type_symbol
 _atom_site_label
 _atom_site_symmetry_multiplicity
 _atom_site_fract_x
 _atom_site_fract_y
 _atom_site_fract_z
 _atom_site_occupancy
  V  V0  1  0.64311400  0.64311400  0.64311400  1
  V  V1  1  0.85835800  0.85835800  0.85835800  1
  V  V2  1  0.35750200  0.35750200  0.35750200  1
  Co  Co0  1  0.14287100  0.14287100  0.14287100  1
  Ni  Ni0  1  0.00190400  0.00190400  0.00190400  1
  Ni  Ni1  1  0.50061900  0.50061900  0.50061900  1
  P  P0  1  0.95657300  0.24903000  0.54164800  1
  P  P1  1  0.54164800  0.95657300  0.24903000  1
  P  P2  1  0.24903000  0.54164800  0.95657300  1
  P  P3  1  0.75159000  0.45463800  0.04398600  1
  P  P4  1  0.45463800  0.04398600  0.75159000  1
  P  P5  1  0.04398600  0.75159000  0.45463800  1
  O  O0  1  0.50201100  0.11669800  0.31656000  1
  O  O1  1  0.31656000  0.50201100  0.11669800  1
  O  O2  1  0.11669800  0.31656000  0.50201100  1
  O  O3  1  0.94324400  0.08930700  0.74163900  1
  O  O4  1  0.99011100  0.18437300  0.38671400  1
  O  O5  1  0.75802500  0.41233400  0.56055200  1
  O  O6  1  0.74163900  0.94324400  0.08930700  1
  O  O7  1  0.56055200  0.75802500  0.41233400  1
  O  O8  1  0.81510200  0.61624600  0.00495800  1
  O  O9  1  0.41233400  0.56055200  0.75802500  1
  O  O10  1  0.90894100  0.25877800  0.05451600  1
  O  O11  1  0.61624600  0.00495800  0.81510200  1
  O  O12  1  0.38671400  0.99011100  0.18437300  1
  O  O13  1  0.08930700  0.74163900  0.94324400  1
  O  O14  1  0.58895300  0.44112600  0.24268000  1
  O  O15  1  0.18437300  0.38671400  0.99011100  1
  O  O16  1  0.44112600  0.24268000  0.58895300  1
  O  O17  1  0.25877800  0.05451600  0.90894100  1
  O  O18  1  0.24268000  0.58895300  0.44112600  1
  O  O19  1  0.00495800  0.81510200  0.61624600  1
  O  O20  1  0.05451600  0.90894100  0.25877800  1
  O  O21  1  0.88514300  0.67960700  0.50056300  1
  O  O22  1  0.67960700  0.50056300  0.88514300  1
  O  O23  1  0.50056300  0.88514300  0.67960700  1
loop_
_geom_bond_atom_site_label_1
_geom_bond_atom_site_label_2
_geom_bond_distance
_geom_bond_site_symmetry_2
Co0 O4 1.932536 1_455
Co0 O15 1.932536 1_554
Co0 O12 1.932536 1_545
Co0 O17 2.067887 1_554
Co0 O10 2.067887 1_455
Co0 O20 2.067887 1_545
Ni0 O20 2.115744 1_545
Ni0 O10 2.115744 1_455
Ni0 O17 2.115744 1_554
Ni0 O3 2.181683 1_454
Ni0 O13 2.181683 1_544
Ni0 O6 2.181683 1_445
Ni1 O9 2.162691 1_555
Ni1 O5 2.162691 1_555
Ni1 O7 2.162691 1_555
Ni1 O14 2.164827 1_555
Ni1 O18 2.164827 1_555
Ni1 O16 2.164827 1_555
O0 P1 1.546053 1_545
O0 V2 1.905417 1_555
O1 P2 1.546053 1_554
O1 V2 1.905417 1_555
O2 P0 1.546053 1_455
O2 V2 1.905417 1_555
O3 P0 1.567997 1_555
O3 V1 2.026942 1_545
O4 P0 1.507930 1_555
O5 P0 1.571968 1_555
O5 V0 2.016512 1_555
O6 P1 1.567997 1_555
O6 V1 2.026942 1_554
O7 P1 1.571968 1_555
O7 V0 2.016512 1_555
O8 P3 1.536863 1_555
O8 V1 1.923094 1_554
O9 P2 1.571968 1_555
O9 V0 2.016512 1_555
O10 P3 1.539366 1_555
O11 P4 1.536863 1_555
O11 V1 1.923094 1_545
O12 P1 1.507930 1_555
O13 P2 1.567997 1_555
O13 V1 2.026942 1_455
O14 P3 1.570662 1_555
O14 V2 2.026949 1_555
O15 P2 1.507930 1_555
O16 P4 1.570662 1_555
O16 V2 2.026949 1_555
O17 P4 1.539366 1_555
O18 P5 1.570663 1_555
O18 V2 2.026949 1_555
O19 P5 1.536863 1_555
O19 V1 1.923094 1_455
O20 P5 1.539366 1_555
O21 P5 1.542138 1_655
O21 V0 1.899228 1_555
O22 P3 1.542138 1_556
O22 V0 1.899228 1_555
O23 P4 1.542138 1_565
O23 V0 1.899228 1_555
