# generated using pymatgen
data_Li3MnAl2O6
_symmetry_space_group_name_H-M   'P 1'
_cell_length_a   5.60010700
_cell_length_b   9.78829700
_cell_length_c   11.30303999
_cell_angle_alpha   54.93654900
_cell_angle_beta   90.00000000
_cell_angle_gamma   90.00000000
_symmetry_Int_Tables_number   1
_chemical_formula_structural   Li3MnAl2O6
_chemical_formula_sum   'Li12 Mn4 Al8 O24'
_cell_volume   507.13791969
_cell_formula_units_Z   4
loop_
 _symmetry_equiv_pos_site_id
 _symmetry_equiv_pos_as_xyz
  1  'x, y, z'
loop_
 _atom_site_type_symbol
 _atom_site_label
 _atom_site_symmetry_multiplicity
 _atom_site_fract_x
 _atom_site_fract_y
 _atom_site_fract_z
 _atom_site_occupancy
  Li  Li0  1  0.24444100  0.42612600  0.96367600  1
  Li  Li1  1  0.00249700  0.24509100  0.23560600  1
  Li  Li2  1  0.74444100  0.57387400  0.53632400  1
  Li  Li3  1  0.75332900  0.07856600  0.13419000  1
  Li  Li4  1  0.49750300  0.24509100  0.73560600  1
  Li  Li5  1  0.25332900  0.92143400  0.36581000  1
  Li  Li6  1  0.74667100  0.07856600  0.63419000  1
  Li  Li7  1  0.50249700  0.75490900  0.26439400  1
  Li  Li8  1  0.24667100  0.92143400  0.86581000  1
  Li  Li9  1  0.25555900  0.42612600  0.46367600  1
  Li  Li10  1  0.99750300  0.75490900  0.76439400  1
  Li  Li11  1  0.75555900  0.57387400  0.03632400  1
  Mn  Mn0  1  0.50258200  0.24814200  0.24344100  1
  Mn  Mn1  1  0.99741800  0.24814200  0.74344100  1
  Mn  Mn2  1  0.00258200  0.75185800  0.25655900  1
  Mn  Mn3  1  0.49741800  0.75185800  0.75655900  1
  Al  Al0  1  0.23633600  0.62384700  0.60526600  1
  Al  Al1  1  0.73633600  0.37615300  0.89473400  1
  Al  Al2  1  0.74159100  0.87294200  0.47824200  1
  Al  Al3  1  0.24159100  0.12705800  0.02175800  1
  Al  Al4  1  0.75840900  0.87294200  0.97824200  1
  Al  Al5  1  0.25840900  0.12705800  0.52175800  1
  Al  Al6  1  0.26366400  0.62384700  0.10526600  1
  Al  Al7  1  0.76366400  0.37615300  0.39473400  1
  O  O0  1  0.72202800  0.57252800  0.86742400  1
  O  O1  1  0.24336400  0.61149300  0.76793500  1
  O  O2  1  0.49345200  0.74206900  0.49850100  1
  O  O3  1  0.99345200  0.25793100  0.00149900  1
  O  O4  1  0.74336400  0.38850700  0.73206500  1
  O  O5  1  0.74711800  0.89280800  0.62442100  1
  O  O6  1  0.49392000  0.24683200  0.01299400  1
  O  O7  1  0.22202800  0.42747200  0.63257600  1
  O  O8  1  0.72439300  0.06729800  0.30838400  1
  O  O9  1  0.22439300  0.93270200  0.19161600  1
  O  O10  1  0.99392000  0.75316800  0.48700600  1
  O  O11  1  0.24711800  0.10719200  0.87557900  1
  O  O12  1  0.75288200  0.89280800  0.12442100  1
  O  O13  1  0.00608000  0.24683200  0.51299400  1
  O  O14  1  0.77560700  0.06729800  0.80838400  1
  O  O15  1  0.27560700  0.93270200  0.69161600  1
  O  O16  1  0.77797200  0.57252800  0.36742400  1
  O  O17  1  0.50608000  0.75316800  0.98700600  1
  O  O18  1  0.25288200  0.10719200  0.37557900  1
  O  O19  1  0.25663600  0.61149300  0.26793500  1
  O  O20  1  0.00654800  0.74206900  0.99850100  1
  O  O21  1  0.50654800  0.25793100  0.50149900  1
  O  O22  1  0.75663600  0.38850700  0.23206500  1
  O  O23  1  0.27797200  0.42747200  0.13257600  1
loop_
_geom_bond_atom_site_label_1
_geom_bond_atom_site_label_2
_geom_bond_distance
_geom_bond_site_symmetry_2
Li0 O1 1.890722 1_555
Li0 O23 1.925859 1_556
Li0 O3 2.014980 1_456
Li0 O6 2.053919 1_556
Li1 O22 1.950232 1_455
Li1 O18 1.958956 1_555
Li1 O8 2.118016 1_455
Li1 O23 2.129403 1_555
Li1 O3 2.576472 1_455
Li2 O4 1.890722 1_555
Li2 O16 1.925859 1_555
Li2 O2 2.014980 1_555
Li2 O10 2.053919 1_555
Li3 O12 1.883860 1_545
Li3 O8 1.914567 1_555
Li3 O6 2.026659 1_555
Li3 O3 2.028461 1_555
Li4 O4 1.950232 1_555
Li4 O11 1.958956 1_555
Li4 O14 2.118016 1_555
Li4 O7 2.129403 1_555
Li4 O21 2.576472 1_555
Li5 O18 1.883860 1_565
Li5 O9 1.914567 1_555
Li5 O10 2.026659 1_455
Li5 O2 2.028461 1_555
Li6 O5 1.883860 1_545
Li6 O14 1.914567 1_555
Li6 O13 2.026659 1_655
Li6 O21 2.028461 1_555
Li7 O19 1.950232 1_555
Li7 O12 1.958956 1_555
Li7 O9 2.118016 1_555
Li7 O16 2.129403 1_555
Li7 O2 2.576472 1_555
Li8 O11 1.883860 1_565
Li8 O15 1.914567 1_555
Li8 O17 2.026659 1_555
Li8 O20 2.028461 1_555
Li9 O19 1.890722 1_555
Li9 O7 1.925859 1_555
Li9 O21 2.014980 1_555
Li9 O13 2.053919 1_555
Li10 O1 1.950232 1_655
Li10 O5 1.958956 1_555
Li10 O15 2.118016 1_655
Li10 O0 2.129403 1_555
Li10 O20 2.576472 1_655
Li11 O22 1.890722 1_555
Li11 O0 1.925859 1_554
Li11 O20 2.014980 1_654
Li11 O17 2.053919 1_554
Mn0 O23 1.925188 1_555
Mn0 O18 1.929247 1_555
Mn0 O8 1.929327 1_555
Mn0 O22 1.930131 1_555
Mn0 O6 2.612590 1_555
Mn1 O7 1.925188 1_655
Mn1 O11 1.929247 1_655
Mn1 O14 1.929327 1_555
Mn1 O4 1.930131 1_555
Mn1 O13 2.612590 1_655
Mn2 O16 1.925188 1_455
Mn2 O12 1.929247 1_455
Mn2 O9 1.929327 1_555
Mn2 O19 1.930131 1_555
Mn2 O10 2.612590 1_455
Mn3 O0 1.925188 1_555
Mn3 O5 1.929247 1_555
Mn3 O15 1.929327 1_555
Mn3 O1 1.930131 1_555
Mn3 O17 2.612590 1_555
Al0 O7 1.764861 1_555
Al0 O1 1.772389 1_555
Al0 O2 1.806693 1_555
Al0 O10 1.813273 1_455
Al1 O0 1.764861 1_555
Al1 O4 1.772389 1_555
Al1 O3 1.806693 1_556
Al1 O6 1.813273 1_556
Al2 O8 1.765773 1_565
Al2 O5 1.771414 1_555
Al2 O10 1.802117 1_555
Al2 O2 1.813125 1_555
Al3 O9 1.765773 1_545
Al3 O11 1.771414 1_554
Al3 O6 1.802117 1_555
Al3 O3 1.813125 1_455
Al4 O14 1.765773 1_565
Al4 O12 1.771414 1_556
Al4 O17 1.802117 1_555
Al4 O20 1.813125 1_655
Al5 O15 1.765773 1_545
Al5 O18 1.771414 1_555
Al5 O13 1.802117 1_555
Al5 O21 1.813125 1_555
Al6 O23 1.764861 1_555
Al6 O19 1.772389 1_555
Al6 O20 1.806693 1_554
Al6 O17 1.813273 1_554
Al7 O16 1.764861 1_555
Al7 O22 1.772389 1_555
Al7 O21 1.806693 1_555
Al7 O13 1.813273 1_655
