# generated using pymatgen
data_ThUO4
_symmetry_space_group_name_H-M   'P 1'
_cell_length_a   3.91196100
_cell_length_b   3.91196100
_cell_length_c   5.54179700
_cell_angle_alpha   90.00000000
_cell_angle_beta   90.00000000
_cell_angle_gamma   90.00000000
_symmetry_Int_Tables_number   1
_chemical_formula_structural   ThUO4
_chemical_formula_sum   'Th1 U1 O4'
_cell_volume   84.80855159
_cell_formula_units_Z   1
loop_
 _symmetry_equiv_pos_site_id
 _symmetry_equiv_pos_as_xyz
  1  'x, y, z'
loop_
 _atom_site_type_symbol
 _atom_site_label
 _atom_site_symmetry_multiplicity
 _atom_site_fract_x
 _atom_site_fract_y
 _atom_site_fract_z
 _atom_site_occupancy
  Th  Th0  1  0.00000000  0.00000000  0.50000000  1
  U  U0  1  0.50000000  0.50000000  0.00000000  1
  O  O0  1  0.00000000  0.50000000  0.24369500  1
  O  O1  1  0.50000000  0.00000000  0.24369500  1
  O  O2  1  0.50000000  0.00000000  0.75630500  1
  O  O3  1  0.00000000  0.50000000  0.75630500  1
loop_
_geom_bond_atom_site_label_1
_geom_bond_atom_site_label_2
_geom_bond_distance
_geom_bond_site_symmetry_2
O0 U0 2.376917 1_455
O0 U0 2.376917 1_555
O0 Th0 2.417306 1_555
O0 Th0 2.417306 1_565
O1 U0 2.376917 1_545
O1 U0 2.376917 1_555
O1 Th0 2.417306 1_555
O1 Th0 2.417306 1_655
O2 U0 2.376917 1_546
O2 U0 2.376917 1_556
O2 Th0 2.417306 1_555
O2 Th0 2.417306 1_655
O3 U0 2.376917 1_456
O3 U0 2.376917 1_556
O3 Th0 2.417306 1_555
O3 Th0 2.417306 1_565
