# generated using pymatgen
data_Li3Co2OF5
_symmetry_space_group_name_H-M   'P 1'
_cell_length_a   5.13153030
_cell_length_b   5.13946284
_cell_length_c   9.36963555
_cell_angle_alpha   99.40093161
_cell_angle_beta   78.35512011
_cell_angle_gamma   70.95314861
_symmetry_Int_Tables_number   1
_chemical_formula_structural   Li3Co2OF5
_chemical_formula_sum   'Li6 Co4 O2 F10'
_cell_volume   221.64946575
_cell_formula_units_Z   2
loop_
 _symmetry_equiv_pos_site_id
 _symmetry_equiv_pos_as_xyz
  1  'x, y, z'
loop_
 _atom_site_type_symbol
 _atom_site_label
 _atom_site_symmetry_multiplicity
 _atom_site_fract_x
 _atom_site_fract_y
 _atom_site_fract_z
 _atom_site_occupancy
  Li  Li0  1  0.45171400  0.30197600  0.08434700  1
  Li  Li1  1  0.88192300  0.37745200  0.25499900  1
  Li  Li2  1  0.21003200  0.04450400  0.58395100  1
  Li  Li3  1  0.78476100  0.96898100  0.43838400  1
  Li  Li4  1  0.13436300  0.61162200  0.72944100  1
  Li  Li5  1  0.54335200  0.69917500  0.91398400  1
  Co  Co0  1  0.93958600  0.81041500  0.08339200  1
  Co  Co1  1  0.71044900  0.53825900  0.58460800  1
  Co  Co2  1  0.40667000  0.86207600  0.22982900  1
  Co  Co3  1  0.03435600  0.19802200  0.93863900  1
  O  O0  1  0.20311600  0.02005500  0.08576900  1
  O  O1  1  0.73125000  0.54635400  0.08255700  1
  F  F0  1  0.62330600  0.14371800  0.25248100  1
  F  F1  1  0.94751500  0.77738800  0.58353100  1
  F  F2  1  0.55547100  0.73643600  0.41957600  1
  F  F3  1  0.12694000  0.62319400  0.24387500  1
  F  F4  1  0.03652900  0.18062200  0.41785900  1
  F  F5  1  0.46967800  0.30191300  0.58418900  1
  F  F6  1  0.90096700  0.38208300  0.75098700  1
  F  F7  1  0.28542300  0.46495100  0.92210100  1
  F  F8  1  0.34713900  0.86089800  0.74811400  1
  F  F9  1  0.77155400  0.96299300  0.91601700  1
loop_
_geom_bond_atom_site_label_1
_geom_bond_atom_site_label_2
_geom_bond_distance
_geom_bond_site_symmetry_2
Li0 O1 2.192817 1_555
Li0 O0 2.220986 1_555
Li1 O1 2.118097 1_555
Li1 O0 2.149945 1_655
Li5 O0 2.116081 1_566
Li5 O1 2.137070 1_556
Co0 O1 1.982847 1_555
Co0 O0 1.986306 1_665
Co0 F9 2.079450 1_554
Co0 F0 2.083102 1_565
Co0 F3 2.136272 1_655
Co0 F7 2.137734 1_654
Co1 F1 1.991317 1_555
Co1 F5 1.995481 1_555
Co1 F6 2.131224 1_555
Co1 F2 2.131459 1_555
Co1 F8 2.138163 1_555
Co1 F4 2.149063 1_655
Co2 O1 1.971799 1_555
Co2 O0 1.986425 1_565
Co2 F0 2.102672 1_565
Co2 F3 2.170689 1_555
Co2 F2 2.182210 1_555
Co2 F4 2.251467 1_565
Co3 O0 1.965662 1_556
Co3 O1 1.997451 1_456
Co3 F9 2.101813 1_445
Co3 F7 2.169874 1_555
Co3 F8 2.186956 1_545
Co3 F6 2.249743 1_455
F0 Li1 2.061234 1_555
F0 Li0 2.104698 1_555
F0 Li3 2.266037 1_545
F1 Li3 1.968730 1_555
F1 Li4 1.972481 1_655
F1 Li2 2.215135 1_665
F2 Li3 1.943343 1_555
F2 Li2 2.071359 1_565
F2 Li1 2.144438 1_555
F3 Li0 2.032146 1_555
F3 Li1 2.052646 1_455
F3 Li3 2.275145 1_455
F4 Li3 1.942810 1_445
F4 Li2 2.052412 1_555
F4 Li1 2.109605 1_455
F5 Li4 1.976340 1_555
F5 Li3 1.986794 1_545
F5 Li2 2.162434 1_555
F6 Li4 1.941462 1_655
F6 Li2 2.071199 1_655
F6 Li5 2.111751 1_555
F7 Li0 2.052767 1_556
F7 Li5 2.058133 1_555
F7 Li4 2.248496 1_555
F8 Li4 1.944481 1_555
F8 Li2 2.056470 1_565
F8 Li5 2.151156 1_555
F9 Li5 2.060816 1_555
F9 Li0 2.099428 1_566
F9 Li4 2.289927 1_655
