# generated using pymatgen
data_Zr3N4
_symmetry_space_group_name_H-M   'P 1'
_cell_length_a   3.43544386
_cell_length_b   8.68034092
_cell_length_c   3.43544395
_cell_angle_alpha   89.99999086
_cell_angle_beta   60.00000361
_cell_angle_gamma   101.41339354
_symmetry_Int_Tables_number   1
_chemical_formula_structural   Zr3N4
_chemical_formula_sum   'Zr3 N4'
_cell_volume   86.37513282
_cell_formula_units_Z   1
loop_
 _symmetry_equiv_pos_site_id
 _symmetry_equiv_pos_as_xyz
  1  'x, y, z'
loop_
 _atom_site_type_symbol
 _atom_site_label
 _atom_site_symmetry_multiplicity
 _atom_site_fract_x
 _atom_site_fract_y
 _atom_site_fract_z
 _atom_site_occupancy
  Zr  Zr0  1  0.44390578  0.66585867  0.77804711  1
  Zr  Zr1  1  0.55609422  0.33414133  0.22195289  1
  Zr  Zr2  1  -0.00000000  -0.00000000  0.00000000  1
  N  N0  1  0.24356216  0.86534374  0.37821942  1
  N  N1  1  0.73588031  0.60381996  0.13206035  1
  N  N2  1  0.26411969  0.39618004  0.86793965  1
  N  N3  1  0.75643784  0.13465626  0.62178058  1
loop_
_geom_bond_atom_site_label_1
_geom_bond_atom_site_label_2
_geom_bond_distance
_geom_bond_site_symmetry_2
N0 Zr2 2.286698 1_566
N0 Zr2 2.286701 1_565
N0 Zr2 2.286701 1_665
N0 Zr0 2.603068 1_555
N0 Zr0 2.603069 1_455
N0 Zr0 2.603071 1_554
N1 Zr0 2.051572 1_654
N1 Zr0 2.051572 1_555
N1 Zr0 2.051575 1_554
N1 Zr1 2.278971 1_555
N2 Zr1 2.051572 1_456
N2 Zr1 2.051572 1_555
N2 Zr1 2.051575 1_556
N2 Zr0 2.278971 1_555
N3 Zr2 2.286698 1_655
N3 Zr2 2.286701 1_656
N3 Zr2 2.286701 1_556
N3 Zr1 2.603068 1_555
N3 Zr1 2.603069 1_655
N3 Zr1 2.603071 1_556
