# generated using pymatgen
data_LiMn4O8
_symmetry_space_group_name_H-M   'P 1'
_cell_length_a   5.74951800
_cell_length_b   6.11821378
_cell_length_c   6.04828433
_cell_angle_alpha   56.30268402
_cell_angle_beta   61.62101336
_cell_angle_gamma   90.00000000
_symmetry_Int_Tables_number   1
_chemical_formula_structural   LiMn4O8
_chemical_formula_sum   'Li1 Mn4 O8'
_cell_volume   145.28185193
_cell_formula_units_Z   1
loop_
 _symmetry_equiv_pos_site_id
 _symmetry_equiv_pos_as_xyz
  1  'x, y, z'
loop_
 _atom_site_type_symbol
 _atom_site_label
 _atom_site_symmetry_multiplicity
 _atom_site_fract_x
 _atom_site_fract_y
 _atom_site_fract_z
 _atom_site_occupancy
  Li  Li0  1  0.50000000  0.50000000  0.00000000  1
  Mn  Mn0  1  0.50000000  0.50000000  0.50000000  1
  Mn  Mn1  1  0.50000000  0.00000000  0.00000000  1
  Mn  Mn2  1  0.00000000  0.50000000  0.50000000  1
  Mn  Mn3  1  0.00000000  0.00000000  0.00000000  1
  O  O0  1  0.72903300  0.76825800  0.03490800  1
  O  O1  1  0.76359000  0.72444900  0.47281900  1
  O  O2  1  0.73160500  0.27302200  0.53679100  1
  O  O3  1  0.23605800  0.76825800  0.03490800  1
  O  O4  1  0.76394200  0.23174200  0.96509200  1
  O  O5  1  0.26839500  0.72697800  0.46320900  1
  O  O6  1  0.23641000  0.27555100  0.52718100  1
  O  O7  1  0.27096700  0.23174200  0.96509200  1
loop_
_geom_bond_atom_site_label_1
_geom_bond_atom_site_label_2
_geom_bond_distance
_geom_bond_site_symmetry_2
Li0 O1 2.212966 1_554
Li0 O6 2.212966 1_555
Li0 O0 2.262996 1_555
Li0 O7 2.262996 1_554
Li0 O3 2.263000 1_555
Li0 O4 2.263000 1_554
Mn0 O2 1.920936 1_555
Mn0 O5 1.920936 1_555
Mn0 O0 1.922649 1_555
Mn0 O7 1.922649 1_555
Mn0 O6 1.929306 1_555
Mn0 O1 1.929306 1_555
Mn1 O2 1.916593 1_554
Mn1 O5 1.916593 1_545
Mn1 O7 1.928998 1_554
Mn1 O0 1.928998 1_545
Mn1 O4 1.929002 1_554
Mn1 O3 1.929002 1_545
Mn2 O5 1.920932 1_555
Mn2 O2 1.920932 1_455
Mn2 O4 1.922649 1_455
Mn2 O3 1.922649 1_555
Mn2 O1 1.929311 1_455
Mn2 O6 1.929311 1_555
Mn3 O6 1.955288 1_554
Mn3 O1 1.955288 1_445
Mn3 O4 1.958863 1_454
Mn3 O3 1.958863 1_545
Mn3 O7 1.958868 1_554
Mn3 O0 1.958868 1_445
