# generated using pymatgen
data_LiFe3SiPO8
_symmetry_space_group_name_H-M   'P 1'
_cell_length_a   7.16567700
_cell_length_b   5.56441500
_cell_length_c   9.83910827
_cell_angle_alpha   57.85268759
_cell_angle_beta   90.00000000
_cell_angle_gamma   90.00000000
_symmetry_Int_Tables_number   1
_chemical_formula_structural   LiFe3SiPO8
_chemical_formula_sum   'Li2 Fe6 Si2 P2 O16'
_cell_volume   332.16451204
_cell_formula_units_Z   2
loop_
 _symmetry_equiv_pos_site_id
 _symmetry_equiv_pos_as_xyz
  1  'x, y, z'
loop_
 _atom_site_type_symbol
 _atom_site_label
 _atom_site_symmetry_multiplicity
 _atom_site_fract_x
 _atom_site_fract_y
 _atom_site_fract_z
 _atom_site_occupancy
  Li  Li0  1  0.30521900  0.81828400  0.99575800  1
  Li  Li1  1  0.69478100  0.81828400  0.49575800  1
  Fe  Fe0  1  0.15382100  0.47218300  0.56452300  1
  Fe  Fe1  1  0.93703500  0.20202200  0.87352300  1
  Fe  Fe2  1  0.44880600  0.51015600  0.80779000  1
  Fe  Fe3  1  0.84617900  0.47218300  0.06452300  1
  Fe  Fe4  1  0.06296500  0.20202200  0.37352300  1
  Fe  Fe5  1  0.55119400  0.51015600  0.30779000  1
  Si  Si0  1  0.98800500  0.77424900  0.26659600  1
  Si  Si1  1  0.01199500  0.77424900  0.76659600  1
  P  P0  1  0.44637000  0.13375300  0.17862700  1
  P  P1  1  0.55363000  0.13375300  0.67862700  1
  O  O0  1  0.85045600  0.53453200  0.26097700  1
  O  O1  1  0.04809600  0.79025900  0.92984000  1
  O  O2  1  0.04939700  0.09122500  0.60690800  1
  O  O3  1  0.42787100  0.87820000  0.79518600  1
  O  O4  1  0.44230700  0.41680400  0.62568500  1
  O  O5  1  0.72534500  0.14397700  0.76559600  1
  O  O6  1  0.59102800  0.12660400  0.52484800  1
  O  O7  1  0.19275100  0.60775000  0.30413900  1
  O  O8  1  0.14954400  0.53453200  0.76097700  1
  O  O9  1  0.95190400  0.79025900  0.42984000  1
  O  O10  1  0.95060300  0.09122500  0.10690800  1
  O  O11  1  0.57212900  0.87820000  0.29518600  1
  O  O12  1  0.55769300  0.41680400  0.12568500  1
  O  O13  1  0.27465500  0.14397700  0.26559600  1
  O  O14  1  0.40897200  0.12660400  0.02484800  1
  O  O15  1  0.80724900  0.60775000  0.80413900  1
loop_
_geom_bond_atom_site_label_1
_geom_bond_atom_site_label_2
_geom_bond_distance
_geom_bond_site_symmetry_2
Li0 O1 1.986771 1_555
Li0 O3 2.019385 1_555
Li0 O14 2.024988 1_566
Li0 O12 2.618929 1_556
Li1 O9 1.986771 1_555
Li1 O11 2.019385 1_555
Li1 O6 2.024988 1_565
Li1 O4 2.618929 1_555
Fe0 O2 2.070418 1_555
Fe0 O9 2.118038 1_455
Fe0 O4 2.129098 1_555
Fe0 O8 2.138033 1_555
Fe0 O7 2.270190 1_555
Fe1 O5 1.974324 1_555
Fe1 O10 2.038614 1_556
Fe1 O15 2.188084 1_555
Fe1 O8 2.188152 1_655
Fe1 O1 2.199768 1_645
Fe2 O3 1.990403 1_555
Fe2 O14 2.084918 1_556
Fe2 O4 2.114909 1_555
Fe2 O8 2.182333 1_555
Fe2 O15 2.621557 1_555
Fe3 O10 2.070418 1_555
Fe3 O1 2.118038 1_654
Fe3 O12 2.129098 1_555
Fe3 O0 2.138033 1_555
Fe3 O15 2.270190 1_554
Fe4 O13 1.974324 1_555
Fe4 O2 2.038614 1_555
Fe4 O7 2.188084 1_555
Fe4 O0 2.188152 1_455
Fe4 O9 2.199768 1_445
Fe5 O11 1.990403 1_555
Fe5 O6 2.084918 1_555
Fe5 O12 2.114909 1_555
Fe5 O0 2.182333 1_555
Fe5 O7 2.621557 1_555
O0 Si0 1.682930 1_555
O1 Si1 1.675389 1_555
O2 Si1 1.643855 1_545
O3 P1 1.553673 1_565
O4 P1 1.585952 1_555
O5 P1 1.516997 1_555
O6 P1 1.557808 1_555
O7 Si0 1.668265 1_455
O8 Si1 1.682930 1_555
O9 Si0 1.675389 1_555
O10 Si0 1.643855 1_545
O11 P0 1.553673 1_565
O12 P0 1.585952 1_555
O13 P0 1.516997 1_555
O14 P0 1.557808 1_555
O15 Si1 1.668265 1_655
