# generated using pymatgen
data_Na3Ni2P2(CO7)2
_symmetry_space_group_name_H-M   'P 1'
_cell_length_a   8.00507764
_cell_length_b   8.05193420
_cell_length_c   8.87842726
_cell_angle_alpha   90.74792566
_cell_angle_beta   91.41513388
_cell_angle_gamma   103.02451197
_symmetry_Int_Tables_number   1
_chemical_formula_structural   Na3Ni2P2(CO7)2
_chemical_formula_sum   'Na6 Ni4 P4 C4 O28'
_cell_volume   557.27678776
_cell_formula_units_Z   2
loop_
 _symmetry_equiv_pos_site_id
 _symmetry_equiv_pos_as_xyz
  1  'x, y, z'
loop_
 _atom_site_type_symbol
 _atom_site_label
 _atom_site_symmetry_multiplicity
 _atom_site_fract_x
 _atom_site_fract_y
 _atom_site_fract_z
 _atom_site_occupancy
  Na  Na0  1  0.38211380  0.36863148  0.24590027  1
  Na  Na1  1  0.61987503  0.12465537  0.24103685  1
  Na  Na2  1  0.10571048  0.66752586  0.25165434  1
  Na  Na3  1  0.38984812  0.87320962  0.75236544  1
  Na  Na4  1  0.62050965  0.62089572  0.76014964  1
  Na  Na5  1  0.08588005  0.14694893  0.75347621  1
  Ni  Ni0  1  0.98075631  0.23394611  0.34898775  1
  Ni  Ni1  1  0.48568460  0.72798382  0.34078089  1
  Ni  Ni2  1  0.02043490  0.76549302  0.64879401  1
  Ni  Ni3  1  0.52178407  0.26715015  0.66029529  1
  P  P0  1  0.76595849  0.50664080  0.43409284  1
  P  P1  1  0.26866518  0.02778907  0.42573347  1
  P  P2  1  0.73181175  0.97372311  0.57241836  1
  P  P3  1  0.23356346  0.48990523  0.56858665  1
  C  C0  1  0.52225057  0.76213510  0.08213771  1
  C  C1  1  0.01538136  0.27504629  0.09076734  1
  C  C2  1  0.99066705  0.72391632  0.90625614  1
  C  C3  1  0.47634160  0.23409471  0.91895204  1
  O  O0  1  0.97127112  0.70053299  0.04051407  1
  O  O1  1  0.45713278  0.21348291  0.05578369  1
  O  O2  1  0.40007704  0.64991480  0.14535243  1
  O  O3  1  0.90061891  0.15537146  0.15197232  1
  O  O4  1  0.62168903  0.85196578  0.18629568  1
  O  O5  1  0.10312711  0.37347571  0.20063812  1
  O  O6  1  0.32947209  0.89902952  0.32630240  1
  O  O7  1  0.82057924  0.37089999  0.33236010  1
  O  O8  1  0.62940620  0.55512737  0.33295561  1
  O  O9  1  0.14051261  0.09527535  0.32480951  1
  O  O10  1  0.80643073  0.05685713  0.42819842  1
  O  O11  1  0.29951352  0.55941221  0.41667428  1
  O  O12  1  0.92233762  0.65865062  0.46482020  1
  O  O13  1  0.42327001  0.17776167  0.46731822  1
  O  O14  1  0.58533643  0.81626268  0.53046059  1
  O  O15  1  0.08110660  0.33499108  0.53617013  1
  O  O16  1  0.19027227  0.95317785  0.57306597  1
  O  O17  1  0.70074439  0.43701499  0.58477173  1
  O  O18  1  0.86748490  0.91242691  0.67199730  1
  O  O19  1  0.18397934  0.63206158  0.66476349  1
  O  O20  1  0.66064605  0.08803003  0.67863176  1
  O  O21  1  0.36843808  0.43781764  0.66920363  1
  O  O22  1  0.90034947  0.62918979  0.79756099  1
  O  O23  1  0.37702268  0.14426992  0.81267011  1
  O  O24  1  0.59829531  0.34542514  0.85820220  1
  O  O25  1  0.10299075  0.84794872  0.84443631  1
  O  O26  1  0.53750965  0.77915655  0.94461960  1
  O  O27  1  0.04330458  0.29462290  0.95706690  1
loop_
_geom_bond_atom_site_label_1
_geom_bond_atom_site_label_2
_geom_bond_distance
_geom_bond_site_symmetry_2
Na0 O1 2.259104 1_555
Na0 O5 2.268486 1_555
Na0 O8 2.307681 1_555
Na0 O11 2.354230 1_555
Na0 O2 2.420659 1_555
Na0 O13 2.571024 1_555
Na0 O9 2.695249 1_555
Na1 O4 2.245949 1_545
Na1 O1 2.293217 1_555
Na1 O10 2.357554 1_555
Na1 O3 2.362099 1_555
Na1 O7 2.372309 1_555
Na1 O13 2.670781 1_555
Na1 O6 2.738068 1_545
Na2 O0 2.187514 1_455
Na2 O6 2.350866 1_555
Na2 O5 2.400193 1_555
Na2 O12 2.415615 1_455
Na2 O11 2.416819 1_555
Na2 O2 2.592406 1_555
Na3 O23 2.265829 1_565
Na3 O26 2.285142 1_555
Na3 O19 2.354992 1_555
Na3 O16 2.421972 1_555
Na3 O25 2.422640 1_555
Na3 O20 2.555236 1_565
Na3 O14 2.644398 1_555
Na4 O22 2.242376 1_555
Na4 O26 2.264641 1_555
Na4 O21 2.333341 1_555
Na4 O17 2.333889 1_555
Na4 O24 2.364232 1_555
Na4 O14 2.639611 1_555
Na4 O18 2.839736 1_555
Na5 O27 2.225825 1_555
Na5 O18 2.357855 1_445
Na5 O23 2.381368 1_555
Na5 O15 2.472854 1_555
Na5 O16 2.507360 1_545
Na5 O25 2.580908 1_545
Ni0 O7 1.874614 1_555
Ni0 O5 1.887562 1_655
Ni0 O9 1.891881 1_655
Ni0 O3 1.898476 1_555
Ni0 O10 1.911270 1_555
Ni0 O15 1.916585 1_655
Ni1 O2 1.895776 1_555
Ni1 O14 1.903807 1_555
Ni1 O11 1.918100 1_555
Ni1 O4 1.919056 1_555
Ni1 O8 1.997213 1_555
Ni1 O6 2.061560 1_555
Ni2 O22 1.870342 1_455
Ni2 O19 1.875410 1_555
Ni2 O18 1.897441 1_455
Ni2 O25 1.900033 1_555
Ni2 O12 1.902683 1_455
Ni2 O16 1.931282 1_555
Ni3 O17 1.887023 1_555
Ni3 O24 1.898344 1_555
Ni3 O13 1.928909 1_555
Ni3 O23 1.935876 1_555
Ni3 O20 2.015466 1_555
Ni3 O21 2.040555 1_555
C0 O26 1.236365 1_554
C0 O4 1.303324 1_555
C0 O2 1.315296 1_555
C1 O27 1.219019 1_554
C1 O3 1.306571 1_455
C1 O5 1.329709 1_555
C2 O0 1.217474 1_556
C2 O22 1.316645 1_555
C2 O25 1.319497 1_655
C3 O1 1.236947 1_556
C3 O24 1.300665 1_555
C3 O23 1.315893 1_555
O6 P1 1.521820 1_565
O7 P0 1.552654 1_555
O8 P0 1.518762 1_555
O9 P1 1.539208 1_555
O10 P2 1.524585 1_545
O11 P3 1.527333 1_555
O12 P0 1.556728 1_555
O13 P1 1.555124 1_555
O14 P2 1.554711 1_555
O15 P3 1.554124 1_555
O16 P1 1.535231 1_565
O17 P0 1.516137 1_555
O18 P2 1.552536 1_555
O19 P3 1.546896 1_555
O20 P2 1.516951 1_545
O21 P3 1.518513 1_555
