# generated using pymatgen
data_Li8Mn5Fe3(BO3)8
_symmetry_space_group_name_H-M   'P 1'
_cell_length_a   5.24558400
_cell_length_b   6.04953980
_cell_length_c   16.18721499
_cell_angle_alpha   82.08500739
_cell_angle_beta   89.01367490
_cell_angle_gamma   89.01177461
_symmetry_Int_Tables_number   1
_chemical_formula_structural   Li8Mn5Fe3(BO3)8
_chemical_formula_sum   'Li8 Mn5 Fe3 B8 O24'
_cell_volume   508.64854325
_cell_formula_units_Z   1
loop_
 _symmetry_equiv_pos_site_id
 _symmetry_equiv_pos_as_xyz
  1  'x, y, z'
loop_
 _atom_site_type_symbol
 _atom_site_label
 _atom_site_symmetry_multiplicity
 _atom_site_fract_x
 _atom_site_fract_y
 _atom_site_fract_z
 _atom_site_occupancy
  Li  Li0  1  0.84992200  0.06299700  0.38936800  1
  Li  Li1  1  0.15065700  0.43560400  0.10938300  1
  Li  Li2  1  0.64995500  0.18756100  0.85946900  1
  Li  Li3  1  0.34928700  0.31147700  0.64078600  1
  Li  Li4  1  0.65064400  0.68768500  0.35841300  1
  Li  Li5  1  0.34923600  0.81244800  0.14128300  1
  Li  Li6  1  0.84941300  0.56430500  0.89102600  1
  Li  Li7  1  0.15230800  0.93636800  0.61007700  1
  Mn  Mn0  1  0.66754400  0.27347000  0.04097400  1
  Mn  Mn1  1  0.16663700  0.52114900  0.29102800  1
  Mn  Mn2  1  0.83435800  0.47681100  0.71051000  1
  Mn  Mn3  1  0.66596300  0.77508300  0.53910000  1
  Mn  Mn4  1  0.33221200  0.72686200  0.95914000  1
  Fe  Fe0  1  0.16025300  0.02525800  0.79055700  1
  Fe  Fe1  1  0.33126200  0.22460800  0.46209700  1
  Fe  Fe2  1  0.84087100  0.97386500  0.20925100  1
  B  B0  1  0.33113500  0.03728900  0.29771900  1
  B  B1  1  0.82738900  0.28587500  0.54652400  1
  B  B2  1  0.67086400  0.46285800  0.20257200  1
  B  B3  1  0.16924300  0.21477700  0.95090500  1
  B  B4  1  0.83043600  0.78537500  0.04907800  1
  B  B5  1  0.32933700  0.53698900  0.79729600  1
  B  B6  1  0.17056300  0.71480400  0.45221600  1
  B  B7  1  0.67022000  0.96340000  0.70310100  1
  O  O0  1  0.59044100  0.01278700  0.30845200  1
  O  O1  1  0.18595500  0.16898800  0.34633000  1
  O  O2  1  0.70634500  0.17034800  0.48975500  1
  O  O3  1  0.28761000  0.33059400  0.00764700  1
  O  O4  1  0.79338000  0.07799400  0.75999200  1
  O  O5  1  0.82064600  0.32701000  0.15671500  1
  O  O6  1  0.31761300  0.08112200  0.90348900  1
  O  O7  1  0.08771600  0.26346500  0.55816300  1
  O  O8  1  0.41159300  0.48565500  0.18875500  1
  O  O9  1  0.90992700  0.23603800  0.93849800  1
  O  O10  1  0.68163000  0.41838100  0.59461600  1
  O  O11  1  0.21455100  0.41805500  0.74081000  1
  O  O12  1  0.78737000  0.58150700  0.25877000  1
  O  O13  1  0.32068000  0.57900400  0.40667300  1
  O  O14  1  0.09000600  0.76442700  0.06148500  1
  O  O15  1  0.58835800  0.51478900  0.81159100  1
  O  O16  1  0.91127100  0.73636700  0.43818400  1
  O  O17  1  0.68163800  0.91885800  0.09649000  1
  O  O18  1  0.17872600  0.67263500  0.84294000  1
  O  O19  1  0.20684600  0.92430300  0.24072100  1
  O  O20  1  0.71232400  0.66973700  0.99215400  1
  O  O21  1  0.28559500  0.83301000  0.50904500  1
  O  O22  1  0.81844900  0.83118100  0.65525300  1
  O  O23  1  0.41161900  0.98683200  0.69159800  1
loop_
_geom_bond_atom_site_label_1
_geom_bond_atom_site_label_2
_geom_bond_distance
_geom_bond_site_symmetry_2
Li0 O0 1.961054 1_555
Li0 O2 1.964992 1_555
Li0 O1 1.969069 1_655
Li0 O16 2.046752 1_545
Li1 O8 1.948822 1_555
Li1 O3 1.965535 1_555
Li1 O5 1.967295 1_455
Li1 O14 2.054577 1_555
Li2 O9 1.938911 1_555
Li2 O6 1.957330 1_555
Li2 O4 1.957890 1_555
Li2 O15 2.046413 1_555
Li3 O11 1.941424 1_555
Li3 O10 1.968992 1_555
Li3 O7 1.984854 1_555
Li3 O23 2.045179 1_545
Li4 O12 1.938601 1_555
Li4 O16 1.950021 1_555
Li4 O13 1.972216 1_555
Li4 O0 2.042320 1_565
Li5 O14 1.944077 1_555
Li5 O17 1.961391 1_555
Li5 O19 1.961583 1_555
Li5 O8 2.042981 1_555
Li6 O15 1.949143 1_555
Li6 O20 1.958274 1_555
Li6 O18 1.967656 1_655
Li6 O9 2.049706 1_555
Li7 O21 1.944633 1_555
Li7 O23 1.967702 1_555
Li7 O22 1.967962 1_455
Li7 O7 2.065257 1_565
Mn0 O3 2.084303 1_555
Mn0 O9 2.107218 1_554
Mn0 O5 2.118462 1_555
Mn0 O17 2.209292 1_545
Mn0 O20 2.432633 1_554
Mn1 O12 2.078990 1_455
Mn1 O8 2.110225 1_555
Mn1 O13 2.126495 1_555
Mn1 O1 2.195615 1_555
Mn1 O19 2.474003 1_555
Mn2 O11 2.074966 1_655
Mn2 O15 2.101376 1_555
Mn2 O10 2.128450 1_555
Mn2 O22 2.207055 1_555
Mn2 O4 2.447128 1_555
Mn3 O21 2.074336 1_555
Mn3 O16 2.098037 1_555
Mn3 O22 2.127669 1_555
Mn3 O10 2.221068 1_555
Mn3 O2 2.426152 1_565
Mn4 O20 2.083925 1_555
Mn4 O14 2.105159 1_556
Mn4 O18 2.127208 1_555
Mn4 O6 2.208009 1_565
Mn4 O3 2.431593 1_556
Fe0 O4 2.004559 1_455
Fe0 O6 2.090232 1_555
Fe0 O23 2.092342 1_545
Fe0 O18 2.185518 1_545
Fe0 O11 2.421684 1_555
Fe1 O7 2.031610 1_555
Fe1 O2 2.036402 1_555
Fe1 O1 2.106547 1_555
Fe1 O13 2.207329 1_555
Fe1 O21 2.400938 1_545
Fe2 O19 2.001648 1_655
Fe2 O17 2.090320 1_555
Fe2 O0 2.092968 1_565
Fe2 O5 2.189393 1_565
Fe2 O12 2.417939 1_555
B0 O0 1.377105 1_555
B0 O19 1.397597 1_545
B0 O1 1.401784 1_555
B1 O7 1.383505 1_655
B1 O2 1.395816 1_555
B1 O10 1.401219 1_555
B2 O8 1.383556 1_555
B2 O12 1.389361 1_555
B2 O5 1.403339 1_555
B3 O9 1.379656 1_455
B3 O3 1.389937 1_556
B3 O6 1.406142 1_555
B4 O14 1.380866 1_655
B4 O20 1.390837 1_554
B4 O17 1.406637 1_555
B5 O15 1.383352 1_555
B5 O11 1.389727 1_555
B5 O18 1.402841 1_555
B6 O16 1.383813 1_455
B6 O21 1.391705 1_555
B6 O13 1.401060 1_555
B7 O23 1.374659 1_555
B7 O4 1.399208 1_565
B7 O22 1.404524 1_555
