# generated using pymatgen
data_Ag2H12S(NO)4
_symmetry_space_group_name_H-M   'P 1'
_cell_length_a   8.58282200
_cell_length_b   8.58282200
_cell_length_c   6.45047000
_cell_angle_alpha   90.00000000
_cell_angle_beta   90.00000000
_cell_angle_gamma   90.00000000
_symmetry_Int_Tables_number   1
_chemical_formula_structural   Ag2H12S(NO)4
_chemical_formula_sum   'Ag4 H24 S2 N8 O8'
_cell_volume   475.17279844
_cell_formula_units_Z   2
loop_
 _symmetry_equiv_pos_site_id
 _symmetry_equiv_pos_as_xyz
  1  'x, y, z'
loop_
 _atom_site_type_symbol
 _atom_site_label
 _atom_site_symmetry_multiplicity
 _atom_site_fract_x
 _atom_site_fract_y
 _atom_site_fract_z
 _atom_site_occupancy
  Ag  Ag0  1  0.50000000  0.00000000  0.98514300  1
  Ag  Ag1  1  0.00000000  0.50000000  0.51485700  1
  Ag  Ag2  1  0.00000000  0.50000000  0.01485700  1
  Ag  Ag3  1  0.50000000  0.00000000  0.48514300  1
  H  H0  1  0.58475300  0.70208200  0.88022700  1
  H  H1  1  0.91524700  0.20208200  0.61977300  1
  H  H2  1  0.41524700  0.29791800  0.88022700  1
  H  H3  1  0.08475300  0.79791800  0.61977300  1
  H  H4  1  0.29791800  0.58475300  0.11977300  1
  H  H5  1  0.79791800  0.91524700  0.38022700  1
  H  H6  1  0.70208200  0.41524700  0.11977300  1
  H  H7  1  0.20208200  0.08475300  0.38022700  1
  H  H8  1  0.71857100  0.78755500  0.02917400  1
  H  H9  1  0.78142900  0.28755500  0.47082600  1
  H  H10  1  0.28142900  0.21244500  0.02917400  1
  H  H11  1  0.21857100  0.71244500  0.47082600  1
  H  H12  1  0.21244500  0.71857100  0.97082600  1
  H  H13  1  0.71244500  0.78142900  0.52917400  1
  H  H14  1  0.78755500  0.28142900  0.97082600  1
  H  H15  1  0.28755500  0.21857100  0.52917400  1
  H  H16  1  0.55565800  0.71659700  0.13653200  1
  H  H17  1  0.94434200  0.21659700  0.36346800  1
  H  H18  1  0.44434200  0.28340300  0.13653200  1
  H  H19  1  0.05565800  0.78340300  0.36346800  1
  H  H20  1  0.28340300  0.55565800  0.86346800  1
  H  H21  1  0.78340300  0.94434200  0.63653200  1
  H  H22  1  0.71659700  0.44434200  0.86346800  1
  H  H23  1  0.21659700  0.05565800  0.63653200  1
  S  S0  1  0.50000000  0.50000000  0.50000000  1
  S  S1  1  0.00000000  0.00000000  0.00000000  1
  N  N0  1  0.60048900  0.77234400  0.00796700  1
  N  N1  1  0.89951100  0.27234400  0.49203300  1
  N  N2  1  0.39951100  0.22765600  0.00796700  1
  N  N3  1  0.10048900  0.72765600  0.49203300  1
  N  N4  1  0.22765600  0.60048900  0.99203300  1
  N  N5  1  0.72765600  0.89951100  0.50796700  1
  N  N6  1  0.77234400  0.39951100  0.99203300  1
  N  N7  1  0.27234400  0.10048900  0.50796700  1
  O  O0  1  0.62724100  0.56506300  0.63344300  1
  O  O1  1  0.87275900  0.06506300  0.86655700  1
  O  O2  1  0.37275900  0.43493700  0.63344300  1
  O  O3  1  0.12724100  0.93493700  0.86655700  1
  O  O4  1  0.43493700  0.62724100  0.36655700  1
  O  O5  1  0.93493700  0.87275900  0.13344300  1
  O  O6  1  0.56506300  0.37275900  0.36655700  1
  O  O7  1  0.06506300  0.12724100  0.13344300  1
loop_
_geom_bond_atom_site_label_1
_geom_bond_atom_site_label_2
_geom_bond_distance
_geom_bond_site_symmetry_2
Ag0 N2 2.140886 1_556
Ag0 N0 2.140886 1_546
Ag1 N3 2.140886 1_555
Ag1 N1 2.140886 1_455
Ag2 N4 2.140886 1_554
Ag2 N6 2.140886 1_454
Ag3 N7 2.140886 1_555
Ag3 N5 2.140886 1_545
H0 N0 1.029978 1_556
H1 N1 1.029978 1_555
H2 N2 1.029978 1_556
H3 N3 1.029978 1_555
H4 N4 1.029978 1_554
H5 N5 1.029978 1_555
H6 N6 1.029978 1_554
H7 N7 1.029978 1_555
H8 N0 1.030967 1_555
H9 N1 1.030967 1_555
H10 N2 1.030967 1_555
H11 N3 1.030967 1_555
H12 N4 1.030967 1_555
H13 N5 1.030967 1_555
H14 N6 1.030967 1_555
H15 N7 1.030967 1_555
H16 N0 1.031857 1_555
H17 N1 1.031857 1_555
H18 N2 1.031857 1_555
H19 N3 1.031857 1_555
H20 N4 1.031857 1_555
H21 N5 1.031857 1_555
H22 N6 1.031857 1_555
H23 N7 1.031857 1_555
O0 S0 1.498471 1_555
O1 S1 1.498471 1_656
O2 S0 1.498471 1_555
O3 S1 1.498471 1_566
O4 S0 1.498471 1_555
O5 S1 1.498471 1_665
O6 S0 1.498471 1_555
O7 S1 1.498471 1_555
