# generated using pymatgen
data_Li6MnFe5(BO3)6
_symmetry_space_group_name_H-M   'P 1'
_cell_length_a   12.56644100
_cell_length_b   8.24421800
_cell_length_c   8.25265559
_cell_angle_alpha   60.04498617
_cell_angle_beta   90.00000000
_cell_angle_gamma   90.00000000
_symmetry_Int_Tables_number   1
_chemical_formula_structural   Li6MnFe5(BO3)6
_chemical_formula_sum   'Li12 Mn2 Fe10 B12 O36'
_cell_volume   740.76901480
_cell_formula_units_Z   2
loop_
 _symmetry_equiv_pos_site_id
 _symmetry_equiv_pos_as_xyz
  1  'x, y, z'
loop_
 _atom_site_type_symbol
 _atom_site_label
 _atom_site_symmetry_multiplicity
 _atom_site_fract_x
 _atom_site_fract_y
 _atom_site_fract_z
 _atom_site_occupancy
  Li  Li0  1  0.00000000  0.71607700  0.30129400  1
  Li  Li1  1  0.25040400  0.71521700  0.30157000  1
  Li  Li2  1  0.50000000  0.71454900  0.30165600  1
  Li  Li3  1  0.74959600  0.71521700  0.30157000  1
  Li  Li4  1  0.00000000  0.98413300  0.71452500  1
  Li  Li5  1  0.74981500  0.98396500  0.71484700  1
  Li  Li6  1  0.50000000  0.98405000  0.71459900  1
  Li  Li7  1  0.25018500  0.98396500  0.71484700  1
  Li  Li8  1  0.74938300  0.30124700  0.98420200  1
  Li  Li9  1  0.50000000  0.30163800  0.98351100  1
  Li  Li10  1  0.00000000  0.30193500  0.98432200  1
  Li  Li11  1  0.25061700  0.30124700  0.98420200  1
  Mn  Mn0  1  0.12681200  0.62757700  0.01183800  1
  Mn  Mn1  1  0.87318800  0.62757700  0.01183800  1
  Fe  Fe0  1  0.62376300  0.63174200  0.00750900  1
  Fe  Fe1  1  0.37623700  0.63174200  0.00750900  1
  Fe  Fe2  1  0.62506200  0.36011100  0.63211500  1
  Fe  Fe3  1  0.12485500  0.35946000  0.63301900  1
  Fe  Fe4  1  0.87514500  0.35946000  0.63301900  1
  Fe  Fe5  1  0.37493800  0.36011100  0.63211500  1
  Fe  Fe6  1  0.62490100  0.00757900  0.36018700  1
  Fe  Fe7  1  0.12510900  0.00751900  0.35924400  1
  Fe  Fe8  1  0.87489100  0.00751900  0.35924400  1
  Fe  Fe9  1  0.37509900  0.00757900  0.36018700  1
  B  B0  1  0.12515600  0.00236100  0.99818000  1
  B  B1  1  0.87484400  0.00236100  0.99818000  1
  B  B2  1  0.62475500  0.99989100  0.00006200  1
  B  B3  1  0.37524500  0.99989100  0.00006200  1
  B  B4  1  0.25167700  0.66654000  0.66551300  1
  B  B5  1  0.00000000  0.66672400  0.66461300  1
  B  B6  1  0.74832300  0.66654000  0.66551300  1
  B  B7  1  0.50000000  0.66693200  0.66606300  1
  B  B8  1  0.00000000  0.33171000  0.33606100  1
  B  B9  1  0.74892200  0.33217300  0.33519400  1
  B  B10  1  0.50000000  0.33335600  0.33320600  1
  B  B11  1  0.25107800  0.33217300  0.33519400  1
  O  O0  1  0.87475800  0.89114300  0.19262400  1
  O  O1  1  0.12524200  0.89114300  0.19262400  1
  O  O2  1  0.62481600  0.89093100  0.19430700  1
  O  O3  1  0.37518400  0.89093100  0.19430700  1
  O  O4  1  0.25005900  0.86103100  0.55779600  1
  O  O5  1  0.00000000  0.86136400  0.55647700  1
  O  O6  1  0.74994100  0.86103100  0.55779600  1
  O  O7  1  0.50000000  0.86169900  0.55783700  1
  O  O8  1  0.12524400  0.92022000  0.88672300  1
  O  O9  1  0.62435900  0.91429200  0.89109800  1
  O  O10  1  0.37564100  0.91429200  0.89109800  1
  O  O11  1  0.87475600  0.92022000  0.88672300  1
  O  O12  1  0.25016200  0.55825200  0.57949400  1
  O  O13  1  0.50000000  0.55835300  0.58002900  1
  O  O14  1  0.00000000  0.55843000  0.57835400  1
  O  O15  1  0.74983800  0.55825200  0.57949400  1
  O  O16  1  0.25385600  0.58019800  0.85966900  1
  O  O17  1  0.00000000  0.58095300  0.85828900  1
  O  O18  1  0.50000000  0.58075900  0.86043300  1
  O  O19  1  0.74614400  0.58019800  0.85966900  1
  O  O20  1  0.00000000  0.52580900  0.22243100  1
  O  O21  1  0.50000000  0.52726500  0.21807400  1
  O  O22  1  0.74745700  0.52609600  0.22090300  1
  O  O23  1  0.25254300  0.52609600  0.22090300  1
  O  O24  1  0.12516500  0.19661900  0.91631900  1
  O  O25  1  0.87483500  0.19661900  0.91631900  1
  O  O26  1  0.62485000  0.19438300  0.91480400  1
  O  O27  1  0.37515000  0.19438300  0.91480400  1
  O  O28  1  0.00000000  0.21810700  0.25542600  1
  O  O29  1  0.74982100  0.21804200  0.25524000  1
  O  O30  1  0.50000000  0.21811600  0.25455200  1
  O  O31  1  0.25017900  0.21804200  0.25524000  1
  O  O32  1  0.75000900  0.25354600  0.52854800  1
  O  O33  1  0.00000000  0.25277600  0.52946200  1
  O  O34  1  0.50000000  0.25498900  0.52678600  1
  O  O35  1  0.24999100  0.25354600  0.52854800  1
loop_
_geom_bond_atom_site_label_1
_geom_bond_atom_site_label_2
_geom_bond_distance
_geom_bond_site_symmetry_2
Li0 O20 1.975760 1_555
Li0 O14 1.987337 1_555
Li0 O1 2.017854 1_555
Li0 O0 2.017854 1_455
Li1 O23 1.977728 1_555
Li1 O12 1.992791 1_555
Li1 O3 2.015010 1_555
Li1 O1 2.020775 1_555
Li2 O21 1.980738 1_555
Li2 O13 1.995397 1_555
Li2 O3 2.018175 1_555
Li2 O2 2.018175 1_555
Li3 O22 1.977728 1_555
Li3 O15 1.992791 1_555
Li3 O2 2.015010 1_555
Li3 O0 2.020775 1_555
Li4 O33 1.964624 1_565
Li4 O8 2.006598 1_555
Li4 O11 2.006598 1_455
Li4 O5 2.010971 1_555
Li5 O32 1.972535 1_565
Li5 O11 2.002204 1_555
Li5 O6 2.004697 1_555
Li5 O9 2.024039 1_555
Li6 O34 1.983505 1_565
Li6 O7 1.998571 1_555
Li6 O9 2.014454 1_555
Li6 O10 2.014454 1_555
Li7 O35 1.972535 1_565
Li7 O8 2.002204 1_555
Li7 O4 2.004697 1_555
Li7 O10 2.024039 1_555
Li8 O29 1.985325 1_556
Li8 O19 1.996589 1_555
Li8 O25 2.006428 1_555
Li8 O26 2.014223 1_555
Li9 O30 1.984775 1_556
Li9 O18 1.998194 1_555
Li9 O26 2.016328 1_555
Li9 O27 2.016328 1_555
Li10 O28 1.984728 1_556
Li10 O17 1.995958 1_555
Li10 O25 2.007326 1_455
Li10 O24 2.007326 1_555
Li11 O31 1.985325 1_556
Li11 O16 1.996589 1_555
Li11 O24 2.006428 1_555
Li11 O27 2.014223 1_555
Mn0 O8 2.097498 1_554
Mn0 O23 2.175228 1_555
Mn0 O16 2.183629 1_554
Mn0 O17 2.186186 1_554
Mn0 O20 2.192652 1_555
Mn1 O11 2.097498 1_554
Mn1 O22 2.175228 1_555
Mn1 O19 2.183629 1_554
Mn1 O17 2.186186 1_654
Mn1 O20 2.192652 1_655
Fe0 O9 2.028376 1_554
Fe0 O19 2.133546 1_554
Fe0 O18 2.139673 1_554
Fe0 O21 2.164644 1_555
Fe0 O22 2.178149 1_555
Fe1 O10 2.028376 1_554
Fe1 O16 2.133546 1_554
Fe1 O18 2.139673 1_554
Fe1 O21 2.164644 1_555
Fe1 O23 2.178149 1_555
Fe2 O26 2.031308 1_555
Fe2 O15 2.146426 1_555
Fe2 O13 2.150391 1_555
Fe2 O32 2.171996 1_555
Fe2 O34 2.174591 1_555
Fe3 O24 2.033222 1_555
Fe3 O14 2.148715 1_555
Fe3 O12 2.153527 1_555
Fe3 O33 2.171702 1_555
Fe3 O35 2.174940 1_555
Fe4 O25 2.033222 1_555
Fe4 O14 2.148715 1_655
Fe4 O15 2.153527 1_555
Fe4 O33 2.171702 1_655
Fe4 O32 2.174940 1_555
Fe5 O27 2.031308 1_555
Fe5 O12 2.146426 1_555
Fe5 O13 2.150391 1_555
Fe5 O35 2.171996 1_555
Fe5 O34 2.174591 1_555
Fe6 O2 2.028184 1_545
Fe6 O7 2.147438 1_545
Fe6 O6 2.149555 1_545
Fe6 O29 2.173535 1_555
Fe6 O30 2.173734 1_555
Fe7 O1 2.031936 1_545
Fe7 O5 2.148114 1_545
Fe7 O4 2.152372 1_545
Fe7 O31 2.175209 1_555
Fe7 O28 2.175892 1_555
Fe8 O0 2.031936 1_545
Fe8 O5 2.148114 1_645
Fe8 O6 2.152372 1_545
Fe8 O29 2.175209 1_555
Fe8 O28 2.175892 1_655
Fe9 O3 2.028184 1_545
Fe9 O7 2.147438 1_545
Fe9 O4 2.149555 1_545
Fe9 O31 2.173535 1_555
Fe9 O30 2.173734 1_555
B0 O8 1.388052 1_545
B0 O24 1.393110 1_555
B0 O1 1.395125 1_546
B1 O11 1.388052 1_545
B1 O25 1.393110 1_555
B1 O0 1.395125 1_546
B2 O2 1.392343 1_555
B2 O26 1.392628 1_564
B2 O9 1.392982 1_554
B3 O3 1.392343 1_555
B3 O27 1.392628 1_564
B3 O10 1.392982 1_554
B4 O12 1.390751 1_555
B4 O16 1.391334 1_555
B4 O4 1.392191 1_555
B5 O17 1.387816 1_555
B5 O14 1.392312 1_555
B5 O5 1.393287 1_555
B6 O15 1.390751 1_555
B6 O19 1.391334 1_555
B6 O6 1.392191 1_555
B7 O18 1.392738 1_555
B7 O13 1.392876 1_555
B7 O7 1.394207 1_555
B8 O33 1.390572 1_555
B8 O20 1.393361 1_555
B8 O28 1.393693 1_555
B9 O32 1.390553 1_555
B9 O22 1.392862 1_555
B9 O29 1.393142 1_555
B10 O34 1.392424 1_555
B10 O30 1.392770 1_555
B10 O21 1.393386 1_555
B11 O35 1.390553 1_555
B11 O23 1.392862 1_555
B11 O31 1.393142 1_555
