# generated using pymatgen
data_Li3V2(O2F)2
_symmetry_space_group_name_H-M   'P 1'
_cell_length_a   5.92425300
_cell_length_b   5.19685800
_cell_length_c   14.92245299
_cell_angle_alpha   89.68397504
_cell_angle_beta   90.00000000
_cell_angle_gamma   90.00000000
_symmetry_Int_Tables_number   1
_chemical_formula_structural   Li3V2(O2F)2
_chemical_formula_sum   'Li12 V8 O16 F8'
_cell_volume   459.41805681
_cell_formula_units_Z   4
loop_
 _symmetry_equiv_pos_site_id
 _symmetry_equiv_pos_as_xyz
  1  'x, y, z'
loop_
 _atom_site_type_symbol
 _atom_site_label
 _atom_site_symmetry_multiplicity
 _atom_site_fract_x
 _atom_site_fract_y
 _atom_site_fract_z
 _atom_site_occupancy
  Li  Li0  1  0.22866600  0.50000000  0.00000000  1
  Li  Li1  1  0.24209100  0.50000000  0.50000000  1
  Li  Li2  1  0.25281600  0.15388000  0.87223500  1
  Li  Li3  1  0.25281600  0.84612000  0.12776500  1
  Li  Li4  1  0.00000000  0.00000000  0.00000000  1
  Li  Li5  1  0.77133400  0.50000000  0.00000000  1
  Li  Li6  1  0.75790900  0.50000000  0.50000000  1
  Li  Li7  1  0.74718400  0.15388000  0.87223500  1
  Li  Li8  1  0.74718400  0.84612000  0.12776500  1
  Li  Li9  1  0.50000000  0.00000000  0.50000000  1
  Li  Li10  1  0.50000000  0.69345000  0.87051000  1
  Li  Li11  1  0.50000000  0.30655000  0.12949000  1
  V  V0  1  0.23972700  0.16535500  0.33416200  1
  V  V1  1  0.23972700  0.83464500  0.66583800  1
  V  V2  1  0.00000000  0.67291800  0.33573200  1
  V  V3  1  0.00000000  0.32708200  0.66426800  1
  V  V4  1  0.76027300  0.16535500  0.33416200  1
  V  V5  1  0.76027300  0.83464500  0.66583800  1
  V  V6  1  0.50000000  0.66814800  0.33039700  1
  V  V7  1  0.50000000  0.33185200  0.66960300  1
  O  O0  1  0.25757900  0.50152000  0.27055500  1
  O  O1  1  0.25757900  0.49848000  0.72944500  1
  O  O2  1  0.26410000  0.16999300  0.59353500  1
  O  O3  1  0.26410000  0.83000700  0.40646500  1
  O  O4  1  0.00000000  0.00202500  0.26608300  1
  O  O5  1  0.00000000  0.99797500  0.73391700  1
  O  O6  1  0.00000000  0.65442700  0.59034900  1
  O  O7  1  0.00000000  0.34557300  0.40965100  1
  O  O8  1  0.74242100  0.50152000  0.27055500  1
  O  O9  1  0.74242100  0.49848000  0.72944500  1
  O  O10  1  0.73590000  0.16999300  0.59353500  1
  O  O11  1  0.73590000  0.83000700  0.40646500  1
  O  O12  1  0.50000000  0.99788600  0.26620200  1
  O  O13  1  0.50000000  0.00211400  0.73379800  1
  O  O14  1  0.50000000  0.67306900  0.59208500  1
  O  O15  1  0.50000000  0.32693100  0.40791500  1
  F  F0  1  0.24536400  0.17189500  0.08009400  1
  F  F1  1  0.24536400  0.82810500  0.91990600  1
  F  F2  1  0.00000000  0.68934200  0.07645000  1
  F  F3  1  0.00000000  0.31065800  0.92355000  1
  F  F4  1  0.75463600  0.17189500  0.08009400  1
  F  F5  1  0.75463600  0.82810500  0.91990600  1
  F  F6  1  0.50000000  0.64617300  0.09145500  1
  F  F7  1  0.50000000  0.35382700  0.90854500  1
loop_
_geom_bond_atom_site_label_1
_geom_bond_atom_site_label_2
_geom_bond_distance
_geom_bond_site_symmetry_2
Li1 O6 2.128538 1_555
Li1 O7 2.128538 1_555
Li1 O2 2.209071 1_555
Li1 O3 2.209071 1_555
Li1 O14 2.246188 1_555
Li1 O15 2.246188 1_555
Li6 O6 2.128538 1_655
Li6 O7 2.128538 1_655
Li6 O10 2.209071 1_555
Li6 O11 2.209071 1_555
Li6 O14 2.246188 1_555
Li6 O15 2.246188 1_555
Li9 O10 2.166869 1_555
Li9 O2 2.166869 1_555
Li9 O3 2.166869 1_545
Li9 O11 2.166869 1_545
Li9 O14 2.179252 1_545
Li9 O15 2.179252 1_555
O0 V6 1.902204 1_555
O0 V0 1.986413 1_555
O0 V2 2.019276 1_555
O1 V7 1.902204 1_555
O1 V1 1.986413 1_555
O1 V3 2.019276 1_555
O2 V7 1.989893 1_555
O2 V1 2.049735 1_545
O2 V3 2.058646 1_555
O3 V6 1.989893 1_555
O3 V0 2.049735 1_565
O3 V2 2.058646 1_555
O4 V0 1.943970 1_555
O4 V4 1.943970 1_455
O4 V2 1.996449 1_545
O5 V1 1.943970 1_555
O5 V5 1.943970 1_455
O5 V3 1.996449 1_565
O6 V3 2.022372 1_555
O6 V1 2.043217 1_555
O6 V5 2.043217 1_455
O7 V2 2.022372 1_555
O7 V0 2.043217 1_555
O7 V4 2.043217 1_455
O8 V6 1.902204 1_555
O8 V4 1.986413 1_555
O8 V2 2.019276 1_655
O9 V7 1.902204 1_555
O9 V5 1.986413 1_555
O9 V3 2.019276 1_655
O10 V7 1.989893 1_555
O10 V5 2.049735 1_545
O10 V3 2.058646 1_655
O11 V6 1.989893 1_555
O11 V4 2.049735 1_565
O11 V2 2.058646 1_655
O12 V6 1.958567 1_555
O12 V0 2.042833 1_565
O12 V4 2.042833 1_565
O13 V7 1.958567 1_555
O13 V5 2.042833 1_545
O13 V1 2.042833 1_545
O14 V1 2.074624 1_555
O14 V5 2.074624 1_555
O14 V7 2.111848 1_555
O15 V4 2.074624 1_555
O15 V0 2.074624 1_555
O15 V6 2.111848 1_555
F0 Li11 1.820542 1_555
F0 Li3 1.833297 1_545
F0 Li0 2.079236 1_555
F0 Li4 2.085962 1_555
F1 Li10 1.820542 1_555
F1 Li2 1.833297 1_565
F1 Li0 2.079236 1_556
F1 Li4 2.085962 1_566
F2 Li3 1.870913 1_555
F2 Li8 1.870913 1_455
F2 Li4 1.971697 1_565
F2 Li0 2.029095 1_555
F2 Li5 2.029095 1_455
F3 Li2 1.870913 1_555
F3 Li7 1.870913 1_455
F3 Li4 1.971697 1_556
F3 Li0 2.029095 1_556
F3 Li5 2.029095 1_456
F4 Li11 1.820542 1_555
F4 Li8 1.833297 1_545
F4 Li5 2.079236 1_555
F4 Li4 2.085962 1_655
F5 Li10 1.820542 1_555
F5 Li7 1.833297 1_565
F5 Li5 2.079236 1_556
F5 Li4 2.085962 1_666
F6 Li11 1.851005 1_555
F6 Li8 1.877212 1_555
F6 Li3 1.877212 1_555
F6 Li5 2.243855 1_555
F6 Li0 2.243855 1_555
F7 Li10 1.851005 1_555
F7 Li7 1.877212 1_555
F7 Li2 1.877212 1_555
F7 Li5 2.243855 1_556
F7 Li0 2.243855 1_556
