# generated using pymatgen
data_Li4TiMn8O18
_symmetry_space_group_name_H-M   'P 1'
_cell_length_a   2.92310400
_cell_length_b   9.04412700
_cell_length_c   25.15065500
_cell_angle_alpha   90.00000000
_cell_angle_beta   90.00000000
_cell_angle_gamma   90.00000000
_symmetry_Int_Tables_number   1
_chemical_formula_structural   Li4TiMn8O18
_chemical_formula_sum   'Li8 Ti2 Mn16 O36'
_cell_volume   664.90595001
_cell_formula_units_Z   2
loop_
 _symmetry_equiv_pos_site_id
 _symmetry_equiv_pos_as_xyz
  1  'x, y, z'
loop_
 _atom_site_type_symbol
 _atom_site_label
 _atom_site_symmetry_multiplicity
 _atom_site_fract_x
 _atom_site_fract_y
 _atom_site_fract_z
 _atom_site_occupancy
  Li  Li0  1  0.00000000  0.92575700  0.99918900  1
  Li  Li1  1  0.00000000  0.94243300  0.20693100  1
  Li  Li2  1  0.00000000  0.05756700  0.70693100  1
  Li  Li3  1  0.00000000  0.07424300  0.49918900  1
  Li  Li4  1  0.00000000  0.43795700  0.52078200  1
  Li  Li5  1  0.00000000  0.43749100  0.29287400  1
  Li  Li6  1  0.00000000  0.56250900  0.79287400  1
  Li  Li7  1  0.00000000  0.56204300  0.02078200  1
  Ti  Ti0  1  0.00000000  0.24860800  0.39480900  1
  Ti  Ti1  1  0.00000000  0.75139200  0.89480900  1
  Mn  Mn0  1  0.00000000  0.74623600  0.50062800  1
  Mn  Mn1  1  0.00000000  0.75556000  0.10630800  1
  Mn  Mn2  1  0.00000000  0.76962100  0.30798000  1
  Mn  Mn3  1  0.50000000  0.89323300  0.58558300  1
  Mn  Mn4  1  0.50000000  0.89987900  0.80494300  1
  Mn  Mn5  1  0.50000000  0.10012100  0.30494300  1
  Mn  Mn6  1  0.50000000  0.10676700  0.08558300  1
  Mn  Mn7  1  0.00000000  0.23037900  0.80798000  1
  Mn  Mn8  1  0.00000000  0.24444000  0.60630800  1
  Mn  Mn9  1  0.00000000  0.25376400  0.00062800  1
  Mn  Mn10  1  0.00000000  0.27047200  0.18747100  1
  Mn  Mn11  1  0.50000000  0.40022300  0.91339400  1
  Mn  Mn12  1  0.50000000  0.40374200  0.69230900  1
  Mn  Mn13  1  0.50000000  0.59625800  0.19230900  1
  Mn  Mn14  1  0.50000000  0.59977700  0.41339400  1
  Mn  Mn15  1  0.00000000  0.72952800  0.68747100  1
  O  O0  1  0.00000000  0.74068500  0.42414200  1
  O  O1  1  0.00000000  0.74968800  0.57696500  1
  O  O2  1  0.50000000  0.80262900  0.93931500  1
  O  O3  1  0.50000000  0.79512000  0.16019700  1
  O  O4  1  0.50000000  0.85715700  0.66188800  1
  O  O5  1  0.00000000  0.85856400  0.75748700  1
  O  O6  1  0.50000000  0.90433600  0.50822200  1
  O  O7  1  0.50000000  0.89611600  0.27963200  1
  O  O8  1  0.00000000  0.94011000  0.85400700  1
  O  O9  1  0.00000000  0.96644700  0.08639700  1
  O  O10  1  0.00000000  0.03355300  0.58639700  1
  O  O11  1  0.00000000  0.05989000  0.35400700  1
  O  O12  1  0.50000000  0.10388400  0.77963200  1
  O  O13  1  0.50000000  0.09566400  0.00822200  1
  O  O14  1  0.00000000  0.14143600  0.25748700  1
  O  O15  1  0.50000000  0.14284300  0.16188800  1
  O  O16  1  0.50000000  0.20488000  0.66019700  1
  O  O17  1  0.50000000  0.19737100  0.43931500  1
  O  O18  1  0.00000000  0.25031200  0.07696500  1
  O  O19  1  0.00000000  0.25931500  0.92414200  1
  O  O20  1  0.50000000  0.29213500  0.55827700  1
  O  O21  1  0.50000000  0.29603800  0.33782900  1
  O  O22  1  0.50000000  0.35129700  0.83673500  1
  O  O23  1  0.00000000  0.36287000  0.74026300  1
  O  O24  1  0.50000000  0.40867100  0.99476800  1
  O  O25  1  0.50000000  0.39252900  0.21637800  1
  O  O26  1  0.00000000  0.44606800  0.64427400  1
  O  O27  1  0.00000000  0.45840700  0.40976400  1
  O  O28  1  0.00000000  0.54159300  0.90976400  1
  O  O29  1  0.00000000  0.55393200  0.14427400  1
  O  O30  1  0.50000000  0.60747100  0.71637800  1
  O  O31  1  0.50000000  0.59132900  0.49476800  1
  O  O32  1  0.00000000  0.63713000  0.24026300  1
  O  O33  1  0.50000000  0.64870300  0.33673500  1
  O  O34  1  0.50000000  0.70396200  0.83782900  1
  O  O35  1  0.50000000  0.70786500  0.05827700  1
loop_
_geom_bond_atom_site_label_1
_geom_bond_atom_site_label_2
_geom_bond_distance
_geom_bond_site_symmetry_2
Li0 O13 2.132856 1_466
Li0 O13 2.132856 1_566
Li0 O9 2.223997 1_556
Li0 O2 2.375679 1_455
Li0 O2 2.375679 1_555
Li1 O14 2.203648 1_565
Li1 O3 2.300597 1_455
Li1 O3 2.300597 1_555
Li1 O7 2.378012 1_455
Li1 O7 2.378012 1_555
Li1 O15 2.589360 1_565
Li1 O15 2.589360 1_465
Li2 O5 2.203648 1_545
Li2 O16 2.300597 1_455
Li2 O16 2.300597 1_555
Li2 O12 2.378012 1_455
Li2 O12 2.378012 1_555
Li2 O4 2.589360 1_445
Li2 O4 2.589360 1_545
Li3 O6 2.132856 1_445
Li3 O6 2.132856 1_545
Li3 O10 2.223997 1_555
Li3 O17 2.375679 1_555
Li3 O17 2.375679 1_455
Li4 O31 2.118559 1_555
Li4 O31 2.118559 1_455
Li4 O20 2.182830 1_555
Li4 O20 2.182830 1_455
Li5 O32 2.238506 1_555
Li5 O21 2.247478 1_455
Li5 O21 2.247478 1_555
Li5 O25 2.450097 1_555
Li5 O25 2.450097 1_455
Li6 O23 2.238506 1_555
Li6 O34 2.247478 1_455
Li6 O34 2.247478 1_555
Li6 O30 2.450097 1_455
Li6 O30 2.450097 1_555
Li7 O24 2.118559 1_554
Li7 O24 2.118559 1_454
Li7 O35 2.182830 1_455
Li7 O35 2.182830 1_555
Mn0 O1 1.920179 1_555
Mn0 O0 1.924328 1_555
Mn0 O31 2.029939 1_455
Mn0 O31 2.029939 1_555
Mn0 O6 2.053572 1_555
Mn0 O6 2.053572 1_455
Mn1 O35 1.944607 1_555
Mn1 O35 1.944607 1_455
Mn1 O9 1.971935 1_555
Mn1 O3 2.025118 1_455
Mn1 O3 2.025118 1_555
Mn1 O29 2.058424 1_555
Mn2 O33 1.963446 1_455
Mn2 O33 1.963446 1_555
Mn2 O7 1.988286 1_555
Mn2 O7 1.988286 1_455
Mn2 O32 2.082422 1_555
Mn3 O10 1.935742 1_565
Mn3 O10 1.935742 1_665
Mn3 O4 1.946659 1_555
Mn3 O6 1.948269 1_555
Mn3 O1 1.966860 1_555
Mn3 O1 1.966860 1_655
Mn4 O5 1.923620 1_555
Mn4 O5 1.923620 1_655
Mn4 O8 1.947116 1_555
Mn4 O8 1.947116 1_655
Mn4 O12 1.951780 1_565
Mn4 O34 1.955435 1_555
Mn5 O14 1.923620 1_655
Mn5 O14 1.923620 1_555
Mn5 O11 1.947116 1_555
Mn5 O11 1.947116 1_655
Mn5 O7 1.951780 1_545
Mn5 O21 1.955435 1_555
Mn6 O9 1.935742 1_545
Mn6 O9 1.935742 1_645
Mn6 O15 1.946659 1_555
Mn6 O13 1.948269 1_555
Mn6 O18 1.966860 1_555
Mn6 O18 1.966860 1_655
Mn7 O22 1.963446 1_555
Mn7 O22 1.963446 1_455
Mn7 O12 1.988286 1_455
Mn7 O12 1.988286 1_555
Mn7 O23 2.082422 1_555
Mn8 O20 1.944607 1_455
Mn8 O20 1.944607 1_555
Mn8 O10 1.971935 1_555
Mn8 O16 2.025118 1_455
Mn8 O16 2.025118 1_555
Mn8 O26 2.058424 1_555
Mn9 O18 1.920179 1_555
Mn9 O19 1.924328 1_554
Mn9 O24 2.029939 1_454
Mn9 O24 2.029939 1_554
Mn9 O13 2.053572 1_555
Mn9 O13 2.053572 1_455
Mn10 O15 1.970413 1_455
Mn10 O15 1.970413 1_555
Mn10 O25 1.970609 1_555
Mn10 O25 1.970609 1_455
Mn10 O14 2.112551 1_555
Mn11 O28 1.944018 1_655
Mn11 O28 1.944018 1_555
Mn11 O19 1.957875 1_555
Mn11 O19 1.957875 1_655
Mn11 O22 1.978150 1_555
Mn11 O24 2.048035 1_555
Mn12 O23 1.930646 1_555
Mn12 O23 1.930646 1_655
Mn12 O26 1.934478 1_655
Mn12 O26 1.934478 1_555
Mn12 O30 1.939444 1_555
Mn12 O16 1.971548 1_555
Mn13 O32 1.930646 1_555
Mn13 O32 1.930646 1_655
Mn13 O29 1.934478 1_555
Mn13 O29 1.934478 1_655
Mn13 O25 1.939444 1_555
Mn13 O3 1.971548 1_555
Mn14 O27 1.944018 1_655
Mn14 O27 1.944018 1_555
Mn14 O0 1.957875 1_555
Mn14 O0 1.957875 1_655
Mn14 O33 1.978150 1_555
Mn14 O31 2.048035 1_555
Mn15 O4 1.970413 1_555
Mn15 O4 1.970413 1_455
Mn15 O30 1.970609 1_455
Mn15 O30 1.970609 1_555
Mn15 O5 2.112551 1_555
O2 Ti1 1.898374 1_655
O2 Ti1 1.898374 1_555
O8 Ti1 1.991535 1_555
O11 Ti0 1.991535 1_555
O17 Ti0 1.898374 1_655
O17 Ti0 1.898374 1_555
O21 Ti0 2.091381 1_555
O21 Ti0 2.091381 1_655
O27 Ti0 1.934369 1_555
O28 Ti1 1.934369 1_555
O34 Ti1 2.091381 1_555
O34 Ti1 2.091381 1_655
