# generated using pymatgen
data_Na2O
_symmetry_space_group_name_H-M   'P 1'
_cell_length_a   6.19378238
_cell_length_b   6.19378238
_cell_length_c   3.70870800
_cell_angle_alpha   90.00000000
_cell_angle_beta   90.00000000
_cell_angle_gamma   120.00000409
_symmetry_Int_Tables_number   1
_chemical_formula_structural   Na2O
_chemical_formula_sum   'Na6 O3'
_cell_volume   123.21544216
_cell_formula_units_Z   3
loop_
 _symmetry_equiv_pos_site_id
 _symmetry_equiv_pos_as_xyz
  1  'x, y, z'
loop_
 _atom_site_type_symbol
 _atom_site_label
 _atom_site_symmetry_multiplicity
 _atom_site_fract_x
 _atom_site_fract_y
 _atom_site_fract_z
 _atom_site_occupancy
  Na  Na0  1  0.26522300  0.92200200  0.07842900  1
  Na  Na1  1  0.67506900  0.07294600  0.57367800  1
  Na  Na2  1  0.39787700  0.32493100  0.57367800  1
  Na  Na3  1  0.07799800  0.34322100  0.07842900  1
  Na  Na4  1  0.92705400  0.60212300  0.57367800  1
  Na  Na5  1  0.65677900  0.73477700  0.07842900  1
  O  O0  1  0.00000000  0.00000000  0.47462700  1
  O  O1  1  0.66666700  0.33333300  0.06893300  1
  O  O2  1  0.33333300  0.66666700  0.60511700  1
loop_
_geom_bond_atom_site_label_1
_geom_bond_atom_site_label_2
_geom_bond_distance
_geom_bond_site_symmetry_2
Na0 O0 2.425831 1_565
Na0 O1 2.517881 1_565
Na0 O2 2.535268 1_554
Na0 O2 2.676144 1_555
Na1 O0 2.301899 1_655
Na1 O2 2.345149 1_545
Na1 O1 2.461985 1_556
Na1 O1 2.488353 1_555
Na2 O0 2.301899 1_555
Na2 O2 2.345153 1_555
Na2 O1 2.461989 1_556
Na2 O1 2.488357 1_555
Na3 O0 2.425831 1_555
Na3 O1 2.517878 1_455
Na3 O2 2.535271 1_554
Na3 O2 2.676146 1_555
Na4 O0 2.301899 1_665
Na4 O2 2.345147 1_655
Na4 O1 2.461987 1_556
Na4 O1 2.488355 1_555
Na5 O0 2.425831 1_665
Na5 O1 2.517884 1_555
Na5 O2 2.535272 1_554
Na5 O2 2.676148 1_555
