# generated using pymatgen
data_Li11Fe(WO4)7
_symmetry_space_group_name_H-M   'P 1'
_cell_length_a   8.41692877
_cell_length_b   8.41691059
_cell_length_c   8.16743426
_cell_angle_alpha   89.93856949
_cell_angle_beta   89.93868902
_cell_angle_gamma   89.90656910
_symmetry_Int_Tables_number   1
_chemical_formula_structural   Li11Fe(WO4)7
_chemical_formula_sum   'Li11 Fe1 W7 O28'
_cell_volume   578.61666513
_cell_formula_units_Z   1
loop_
 _symmetry_equiv_pos_site_id
 _symmetry_equiv_pos_as_xyz
  1  'x, y, z'
loop_
 _atom_site_type_symbol
 _atom_site_label
 _atom_site_symmetry_multiplicity
 _atom_site_fract_x
 _atom_site_fract_y
 _atom_site_fract_z
 _atom_site_occupancy
  Li  Li0  1  0.34324673  0.64542752  0.89650354  1
  Li  Li1  1  0.64542628  0.34324329  0.89650649  1
  Li  Li2  1  0.08904010  0.64967828  0.64511600  1
  Li  Li3  1  0.34810504  0.91363998  0.64236989  1
  Li  Li4  1  0.64967829  0.08903702  0.64511504  1
  Li  Li5  1  0.91364048  0.34810462  0.64236962  1
  Li  Li6  1  0.09159224  0.34842006  0.35859575  1
  Li  Li7  1  0.34842036  0.09159215  0.35859534  1
  Li  Li8  1  0.65001775  0.90801581  0.36060224  1
  Li  Li9  1  0.90801675  0.65001812  0.36060290  1
  Li  Li10  1  0.35321194  0.35320913  0.09614531  1
  Fe  Fe0  1  0.63354893  0.63354643  0.10268881  1
  W  W0  1  0.99701161  0.49844102  0.00084967  1
  W  W1  1  0.49844095  0.99701058  0.00084900  1
  W  W2  1  0.35507884  0.35508227  0.64101961  1
  W  W3  1  0.64654334  0.64654366  0.64095674  1
  W  W4  1  0.99926814  0.99926703  0.49909870  1
  W  W5  1  0.35272647  0.64686194  0.36365180  1
  W  W6  1  0.64686149  0.35272717  0.36365585  1
  O  O0  1  0.38663125  0.38663061  0.85553208  1
  O  O1  1  0.61857580  0.61857812  0.86421622  1
  O  O2  1  0.11818256  0.62083448  0.87639417  1
  O  O3  1  0.62083691  0.11818162  0.87639296  1
  O  O4  1  0.37558538  0.87765299  0.87558237  1
  O  O5  1  0.87765243  0.37558431  0.87558185  1
  O  O6  1  0.12264284  0.87540262  0.62302228  1
  O  O7  1  0.87540181  0.12264318  0.62302255  1
  O  O8  1  0.39401192  0.61179676  0.60813888  1
  O  O9  1  0.61179680  0.39401316  0.60813986  1
  O  O10  1  0.14654853  0.38480901  0.61404489  1
  O  O11  1  0.38480761  0.14655261  0.61404524  1
  O  O12  1  0.61990476  0.85462552  0.61859230  1
  O  O13  1  0.85462459  0.61990606  0.61859380  1
  O  O14  1  0.14411674  0.62161009  0.37669612  1
  O  O15  1  0.62161046  0.14411605  0.37669774  1
  O  O16  1  0.38289679  0.85542183  0.38503846  1
  O  O17  1  0.85542101  0.38289703  0.38504014  1
  O  O18  1  0.39568279  0.39568282  0.38840892  1
  O  O19  1  0.61579228  0.61579318  0.38506045  1
  O  O20  1  0.12284089  0.12284115  0.37558153  1
  O  O21  1  0.87618437  0.87618468  0.37454898  1
  O  O22  1  0.12363687  0.38191458  0.12578956  1
  O  O23  1  0.38191474  0.12363744  0.12579041  1
  O  O24  1  0.62202086  0.86334723  0.12451729  1
  O  O25  1  0.86334616  0.62202049  0.12451806  1
  O  O26  1  0.39696483  0.62048927  0.14285979  1
  O  O27  1  0.62048928  0.39696402  0.14286379  1
loop_
_geom_bond_atom_site_label_1
_geom_bond_atom_site_label_2
_geom_bond_distance
_geom_bond_site_symmetry_2
Li0 O2 1.913217 1_555
Li0 O4 1.981098 1_555
Li0 O26 2.073105 1_556
Li0 O0 2.233583 1_555
Li0 O1 2.342687 1_555
Li0 O8 2.410093 1_555
Li1 O3 1.913192 1_555
Li1 O5 1.981113 1_555
Li1 O27 2.073118 1_556
Li1 O0 2.233579 1_555
Li1 O1 2.342733 1_555
Li1 O9 2.410113 1_555
Li2 O2 1.920169 1_555
Li2 O6 1.929531 1_555
Li2 O13 2.001330 1_455
Li2 O14 2.252883 1_555
Li2 O10 2.294835 1_555
Li2 O8 2.603432 1_555
Li3 O6 1.931983 1_555
Li3 O4 1.942367 1_555
Li3 O11 1.998246 1_565
Li3 O16 2.177980 1_555
Li3 O12 2.348117 1_555
Li3 O8 2.584597 1_555
Li4 O3 1.920168 1_555
Li4 O7 1.929532 1_555
Li4 O12 2.001295 1_545
Li4 O15 2.252865 1_555
Li4 O11 2.294862 1_555
Li4 O9 2.603460 1_555
Li5 O7 1.931974 1_555
Li5 O5 1.942367 1_555
Li5 O10 1.998215 1_655
Li5 O17 2.177966 1_555
Li5 O13 2.348127 1_555
Li5 O9 2.584606 1_555
Li6 O20 1.921272 1_555
Li6 O22 1.940531 1_555
Li6 O17 2.019823 1_455
Li6 O10 2.159765 1_555
Li6 O14 2.347084 1_555
Li6 O18 2.602592 1_555
Li7 O20 1.921281 1_555
Li7 O23 1.940522 1_555
Li7 O16 2.019809 1_545
Li7 O11 2.159777 1_555
Li7 O15 2.347089 1_555
Li7 O18 2.602588 1_555
Li8 O21 1.925433 1_555
Li8 O24 1.979315 1_555
Li8 O15 2.005616 1_565
Li8 O12 2.168715 1_555
Li8 O16 2.300634 1_555
Li8 O19 2.484696 1_555
Li9 O21 1.925430 1_555
Li9 O25 1.979318 1_555
Li9 O14 2.005617 1_655
Li9 O13 2.168724 1_555
Li9 O17 2.300634 1_555
Li9 O19 2.484716 1_555
Li10 O23 1.961712 1_555
Li10 O22 1.961746 1_555
Li10 O0 2.004527 1_554
Li10 O27 2.312361 1_555
Li10 O26 2.312371 1_555
Li10 O18 2.440828 1_555
Fe0 O25 1.944831 1_555
Fe0 O24 1.944857 1_555
Fe0 O1 1.956126 1_554
Fe0 O27 2.020949 1_555
Fe0 O26 2.020961 1_555
Fe0 O19 2.315612 1_555
O0 W2 1.792436 1_555
O1 W3 1.853148 1_555
O2 W0 1.770206 1_456
O3 W1 1.770221 1_546
O4 W1 1.770074 1_556
O5 W0 1.770093 1_556
O6 W4 1.784979 1_455
O7 W4 1.784999 1_545
O8 W5 2.048191 1_555
O8 W3 2.163032 1_555
O8 W2 2.202088 1_555
O9 W6 2.048168 1_555
O9 W3 2.163019 1_555
O9 W2 2.202118 1_555
O10 W2 1.786363 1_555
O11 W2 1.786356 1_555
O12 W3 1.774594 1_555
O13 W3 1.774590 1_555
O14 W5 1.772093 1_555
O15 W6 1.772099 1_555
O16 W5 1.782902 1_555
O17 W6 1.782899 1_555
O18 W2 2.118409 1_555
O18 W6 2.153598 1_555
O18 W5 2.153601 1_555
O19 W3 2.122425 1_555
O19 W6 2.236177 1_555
O19 W5 2.236182 1_555
O20 W4 1.783366 1_445
O21 W4 1.785869 1_555
O22 W0 1.770859 1_455
O23 W1 1.770875 1_545
O24 W1 1.834077 1_555
O25 W0 1.834089 1_555
O26 W5 1.854448 1_555
O27 W6 1.854444 1_555
