# generated using pymatgen
data_La7(FeO8)2
_symmetry_space_group_name_H-M   'P 1'
_cell_length_a   7.60757563
_cell_length_b   7.60757563
_cell_length_c   6.95285989
_cell_angle_alpha   74.24737485
_cell_angle_beta   74.24737485
_cell_angle_gamma   90.62619810
_symmetry_Int_Tables_number   1
_chemical_formula_structural   La7(FeO8)2
_chemical_formula_sum   'La7 Fe2 O16'
_cell_volume   371.18084284
_cell_formula_units_Z   1
loop_
 _symmetry_equiv_pos_site_id
 _symmetry_equiv_pos_as_xyz
  1  'x, y, z'
loop_
 _atom_site_type_symbol
 _atom_site_label
 _atom_site_symmetry_multiplicity
 _atom_site_fract_x
 _atom_site_fract_y
 _atom_site_fract_z
 _atom_site_occupancy
  La  La0  1  0.80437900  0.80437900  0.77539400  1
  La  La1  1  0.82133200  0.31863400  0.72192400  1
  La  La2  1  0.68172800  0.18213200  0.26830600  1
  La  La3  1  0.32284200  0.32284200  0.72167200  1
  La  La4  1  0.31863400  0.82133200  0.72192400  1
  La  La5  1  0.18213200  0.68172800  0.26830600  1
  La  La6  1  0.18008500  0.18008500  0.27476200  1
  Fe  Fe0  1  0.99828500  0.99828500  0.00611000  1
  Fe  Fe1  1  0.49827500  0.49827500  0.00771200  1
  O  O0  1  0.93571000  0.93571000  0.30573200  1
  O  O1  1  0.01009100  0.76328200  0.98781600  1
  O  O2  1  0.00713900  0.24489400  0.99045200  1
  O  O3  1  0.94177300  0.36779000  0.38007100  1
  O  O4  1  0.58703700  0.10490100  0.62122100  1
  O  O5  1  0.74119400  0.49419000  0.99598600  1
  O  O6  1  0.76328200  0.01009100  0.98781600  1
  O  O7  1  0.57340700  0.57340700  0.70382000  1
  O  O8  1  0.40580800  0.40580800  0.31930600  1
  O  O9  1  0.49581100  0.25747600  0.99721200  1
  O  O10  1  0.49419000  0.74119400  0.99598600  1
  O  O11  1  0.36779000  0.94177300  0.38007100  1
  O  O12  1  0.10490100  0.58703700  0.62122100  1
  O  O13  1  0.24489400  0.00713900  0.99045200  1
  O  O14  1  0.08080400  0.08080400  0.68351700  1
  O  O15  1  0.25747600  0.49581100  0.99721200  1
loop_
_geom_bond_atom_site_label_1
_geom_bond_atom_site_label_2
_geom_bond_distance
_geom_bond_site_symmetry_2
La0 O1 2.396498 1_655
La0 O6 2.396498 1_565
La0 O5 2.400365 1_555
La0 O10 2.400365 1_555
La0 O7 2.702739 1_555
La0 O14 2.774380 1_665
La0 O12 2.970551 1_655
La0 O4 2.970551 1_565
La0 O0 3.015809 1_555
La1 O3 2.226259 1_555
La1 O6 2.510037 1_555
La1 O5 2.560315 1_555
La1 O2 2.584615 1_655
La1 O9 2.632551 1_555
La1 O14 2.701036 1_655
La1 O7 2.721439 1_555
La1 O4 2.746549 1_555
La1 O12 2.760564 1_655
La2 O4 2.265681 1_555
La2 O5 2.548794 1_554
La2 O6 2.578356 1_554
La2 O9 2.600076 1_554
La2 O2 2.639172 1_654
La2 O0 2.720802 1_545
La2 O8 2.725617 1_555
La2 O11 2.788687 1_545
La2 O3 2.807501 1_555
La3 O9 2.552428 1_555
La3 O15 2.552428 1_555
La3 O2 2.557827 1_555
La3 O13 2.557827 1_555
La3 O8 2.587871 1_555
La3 O7 2.635562 1_555
La3 O4 2.686223 1_555
La3 O12 2.686223 1_555
La3 O14 2.703269 1_555
La4 O11 2.226259 1_555
La4 O1 2.510037 1_555
La4 O10 2.560315 1_555
La4 O13 2.584615 1_565
La4 O15 2.632551 1_555
La4 O14 2.701036 1_565
La4 O7 2.721439 1_555
La4 O12 2.746549 1_555
La4 O4 2.760564 1_565
La5 O12 2.265681 1_555
La5 O10 2.548794 1_554
La5 O1 2.578356 1_554
La5 O15 2.600076 1_554
La5 O13 2.639172 1_564
La5 O0 2.720802 1_455
La5 O8 2.725617 1_555
La5 O3 2.788687 1_455
La5 O11 2.807501 1_555
La6 O3 2.401178 1_455
La6 O11 2.401178 1_545
La6 O0 2.539412 1_445
La6 O8 2.550801 1_555
La6 O15 2.583653 1_554
La6 O9 2.583653 1_554
La6 O13 2.603637 1_554
La6 O2 2.603637 1_554
La6 O14 2.621926 1_555
Fe0 O6 1.827912 1_564
Fe0 O1 1.827912 1_654
Fe0 O2 1.848914 1_664
Fe0 O13 1.848914 1_664
Fe0 O0 1.926446 1_555
Fe0 O14 2.069134 1_664
Fe1 O5 1.828560 1_554
Fe1 O10 1.828560 1_554
Fe1 O15 1.853142 1_554
Fe1 O9 1.853142 1_554
Fe1 O7 1.949154 1_554
Fe1 O8 2.004366 1_555
