# generated using pymatgen
data_Li4Mn7(OF7)2
_symmetry_space_group_name_H-M   'P 1'
_cell_length_a   6.20564095
_cell_length_b   6.20564095
_cell_length_c   11.13634521
_cell_angle_alpha   72.81287834
_cell_angle_beta   72.81287834
_cell_angle_gamma   62.30741774
_symmetry_Int_Tables_number   1
_chemical_formula_structural   Li4Mn7(OF7)2
_chemical_formula_sum   'Li4 Mn7 O2 F14'
_cell_volume   356.38079052
_cell_formula_units_Z   1
loop_
 _symmetry_equiv_pos_site_id
 _symmetry_equiv_pos_as_xyz
  1  'x, y, z'
loop_
 _atom_site_type_symbol
 _atom_site_label
 _atom_site_symmetry_multiplicity
 _atom_site_fract_x
 _atom_site_fract_y
 _atom_site_fract_z
 _atom_site_occupancy
  Li  Li0  1  0.42082600  0.42082600  0.71269000  1
  Li  Li1  1  0.07974300  0.07974300  0.79716600  1
  Li  Li2  1  0.92025700  0.92025700  0.20283400  1
  Li  Li3  1  0.57917400  0.57917400  0.28731000  1
  Mn  Mn0  1  0.77061400  0.77061400  0.73933400  1
  Mn  Mn1  1  0.00000000  0.50000000  0.50000000  1
  Mn  Mn2  1  0.50000000  0.00000000  0.50000000  1
  Mn  Mn3  1  0.50000000  0.50000000  0.00000000  1
  Mn  Mn4  1  0.22938600  0.22938600  0.26066600  1
  Mn  Mn5  1  0.50000000  0.00000000  0.00000000  1
  Mn  Mn6  1  0.00000000  0.50000000  0.00000000  1
  O  O0  1  0.63823900  0.63823900  0.09061500  1
  O  O1  1  0.36176100  0.36176100  0.90938400  1
  F  F0  1  0.60181800  0.11991700  0.62981100  1
  F  F1  1  0.11991700  0.60181800  0.62981100  1
  F  F2  1  0.36630800  0.36630800  0.37407300  1
  F  F3  1  0.63369200  0.63369200  0.62592700  1
  F  F4  1  0.85933100  0.85933100  0.38694200  1
  F  F5  1  0.14066900  0.14066900  0.61305800  1
  F  F6  1  0.88008300  0.39818200  0.37018900  1
  F  F7  1  0.39818200  0.88008300  0.37018900  1
  F  F8  1  0.12667300  0.60448800  0.13878100  1
  F  F9  1  0.60448800  0.12667300  0.13878100  1
  F  F10  1  0.11474700  0.11474700  0.13752900  1
  F  F11  1  0.88525300  0.88525300  0.86247100  1
  F  F12  1  0.39551200  0.87332700  0.86121900  1
  F  F13  1  0.87332700  0.39551200  0.86121900  1
loop_
_geom_bond_atom_site_label_1
_geom_bond_atom_site_label_2
_geom_bond_distance
_geom_bond_site_symmetry_2
Li0 O1 2.059774 1_555
Li3 O0 2.059784 1_555
Mn3 O0 2.048757 1_555
Mn3 O1 2.048765 1_554
Mn5 O0 2.043735 1_545
Mn5 O1 2.043739 1_554
Mn6 O0 2.043735 1_455
Mn6 O1 2.043739 1_554
F0 Li0 2.014163 1_555
F0 Mn0 2.089432 1_545
F0 Mn2 2.157645 1_555
F1 Li0 2.014163 1_555
F1 Mn0 2.089432 1_455
F1 Mn1 2.157645 1_555
F2 Li3 2.129967 1_555
F2 Mn2 2.207491 1_555
F2 Mn1 2.207491 1_555
F2 Mn4 2.231228 1_555
F3 Li0 2.129967 1_555
F3 Mn2 2.207491 1_565
F3 Mn1 2.207491 1_655
F3 Mn0 2.231228 1_555
F4 Li2 1.925150 1_555
F4 Mn2 2.121484 1_565
F4 Mn1 2.121484 1_655
F5 Li1 1.925150 1_555
F5 Mn2 2.121484 1_555
F5 Mn1 2.121484 1_555
F6 Li3 2.014163 1_555
F6 Mn4 2.089432 1_655
F6 Mn1 2.157645 1_655
F7 Li3 2.014163 1_555
F7 Mn4 2.089432 1_565
F7 Mn2 2.157645 1_565
F8 Li2 1.985584 1_455
F8 Mn4 2.220833 1_555
F8 Mn6 2.282757 1_555
F8 Mn3 2.292656 1_555
F9 Li2 1.985584 1_545
F9 Mn4 2.220833 1_555
F9 Mn5 2.282757 1_555
F9 Mn3 2.292656 1_555
F10 Li2 1.938746 1_445
F10 Mn4 2.125119 1_555
F10 Mn5 2.338095 1_555
F10 Mn6 2.338095 1_555
F11 Li1 1.938746 1_665
F11 Mn0 2.125119 1_555
F11 Mn5 2.338095 1_566
F11 Mn6 2.338095 1_656
F12 Li1 1.985584 1_565
F12 Mn0 2.220833 1_555
F12 Mn5 2.282757 1_566
F12 Mn3 2.292656 1_556
F13 Li1 1.985584 1_655
F13 Mn0 2.220833 1_555
F13 Mn6 2.282757 1_656
F13 Mn3 2.292656 1_556
