# generated using pymatgen
data_Li5V3P8O29
_symmetry_space_group_name_H-M   'P 1'
_cell_length_a   9.77068600
_cell_length_b   9.78150774
_cell_length_c   14.01688073
_cell_angle_alpha   90.22287200
_cell_angle_beta   90.12559653
_cell_angle_gamma   119.70887610
_symmetry_Int_Tables_number   1
_chemical_formula_structural   Li5V3P8O29
_chemical_formula_sum   'Li10 V6 P16 O58'
_cell_volume   1163.51306761
_cell_formula_units_Z   2
loop_
 _symmetry_equiv_pos_site_id
 _symmetry_equiv_pos_as_xyz
  1  'x, y, z'
loop_
 _atom_site_type_symbol
 _atom_site_label
 _atom_site_symmetry_multiplicity
 _atom_site_fract_x
 _atom_site_fract_y
 _atom_site_fract_z
 _atom_site_occupancy
  Li  Li0  1  0.67656300  0.90796600  0.56263800  1
  Li  Li1  1  0.34755200  0.66867200  0.88701000  1
  Li  Li2  1  0.08948200  0.32485300  0.05954200  1
  Li  Li3  1  0.23013600  0.91283400  0.06076100  1
  Li  Li4  1  0.91671200  0.22351700  0.44090800  1
  Li  Li5  1  0.09305300  0.77248700  0.56051700  1
  Li  Li6  1  0.89378700  0.66173800  0.94170700  1
  Li  Li7  1  0.77101500  0.67757600  0.43864800  1
  Li  Li8  1  0.31933600  0.09272400  0.44489000  1
  Li  Li9  1  0.95312300  0.00236000  0.99034300  1
  V  V0  1  0.00014100  0.43079400  0.25178800  1
  V  V1  1  0.99824900  0.56669600  0.74627600  1
  V  V2  1  0.57073000  0.00391700  0.75752000  1
  V  V3  1  0.43679700  0.00185800  0.24745800  1
  V  V4  1  0.56166000  0.56610000  0.24336600  1
  V  V5  1  0.43095400  0.42509900  0.74838400  1
  P  P0  1  0.69110600  0.77704100  0.84155100  1
  P  P1  1  0.68075800  0.91109600  0.34115200  1
  P  P2  1  0.23404000  0.31689700  0.34532300  1
  P  P3  1  0.32818600  0.66350100  0.12605500  1
  P  P4  1  0.33911100  0.67037400  0.62999100  1
  P  P5  1  0.09266500  0.31644600  0.84135400  1
  P  P6  1  0.91183000  0.22844900  0.65824300  1
  P  P7  1  0.22371400  0.90669300  0.84383400  1
  P  P8  1  0.77738300  0.08408400  0.15692900  1
  P  P9  1  0.09126900  0.76971600  0.34119200  1
  P  P10  1  0.91114900  0.68317500  0.15947500  1
  P  P11  1  0.66675800  0.33639200  0.36893800  1
  P  P12  1  0.66808100  0.33880100  0.87289000  1
  P  P13  1  0.76496900  0.68195900  0.65505900  1
  P  P14  1  0.31741100  0.08403600  0.66109200  1
  P  P15  1  0.30702000  0.22543700  0.15743700  1
  O  O0  1  0.75140200  0.75480400  0.56388500  1
  O  O1  1  0.66182400  0.74413600  0.33829100  1
  O  O2  1  0.80240700  0.00587900  0.07418600  1
  O  O3  1  0.65875900  0.91565800  0.84294900  1
  O  O4  1  0.53031200  0.62243400  0.83461500  1
  O  O5  1  0.48048000  0.66906500  0.17260600  1
  O  O6  1  0.38375500  0.47721400  0.32202400  1
  O  O7  1  0.21097900  0.21996300  0.07364200  1
  O  O8  1  0.26266100  0.34144600  0.83304900  1
  O  O9  1  0.48851100  0.81940700  0.67220200  1
  O  O10  1  0.51966100  0.90003500  0.32005300  1
  O  O11  1  0.34082600  0.52588500  0.68039500  1
  O  O12  1  0.33356600  0.65949900  0.01932400  1
  O  O13  1  0.34400000  0.66600000  0.52424500  1
  O  O14  1  0.18541400  0.50929500  0.16351600  1
  O  O15  1  0.37169600  0.88819800  0.83083300  1
  O  O16  1  0.32094400  0.81038100  0.16291700  1
  O  O17  1  0.08641200  0.33707300  0.34325900  1
  O  O18  1  0.00271100  0.21026900  0.74963800  1
  O  O19  1  0.99438900  0.24177500  0.56770300  1
  O  O20  1  0.01624600  0.22935400  0.93065000  1
  O  O21  1  0.10672900  0.48023400  0.83028300  1
  O  O22  1  0.18702300  0.67329900  0.66636500  1
  O  O23  1  0.91712800  0.25770500  0.16526700  1
  O  O24  1  0.10283500  0.62015600  0.32111000  1
  O  O25  1  0.25622300  0.91781800  0.34140400  1
  O  O26  1  0.79567400  0.00511400  0.25518900  1
  O  O27  1  0.75320900  0.99614800  0.43302100  1
  O  O28  1  0.23636900  0.99750000  0.57135700  1
  O  O29  1  0.74647000  0.08216200  0.66318000  1
  O  O30  1  0.90151500  0.37994800  0.68105900  1
  O  O31  1  0.07661800  0.73838400  0.83618100  1
  O  O32  1  0.81528700  0.32866600  0.33225000  1
  O  O33  1  0.90774200  0.52686500  0.17181800  1
  O  O34  1  0.99315200  0.77140800  0.07056100  1
  O  O35  1  0.00054700  0.75471200  0.43068500  1
  O  O36  1  0.00121700  0.79294200  0.25119200  1
  O  O37  1  0.91538400  0.66624100  0.65635000  1
  O  O38  1  0.66823600  0.18974900  0.83068200  1
  O  O39  1  0.61920300  0.08129200  0.16558700  1
  O  O40  1  0.81498400  0.48923100  0.83356800  1
  O  O41  1  0.65886600  0.34437600  0.97800900  1
  O  O42  1  0.66573900  0.34539700  0.47502800  1
  O  O43  1  0.66915200  0.48578600  0.32299700  1
  O  O44  1  0.47591900  0.09220000  0.67727200  1
  O  O45  1  0.51562100  0.18658500  0.32842600  1
  O  O46  1  0.74160400  0.65893500  0.16598600  1
  O  O47  1  0.78378800  0.79674600  0.74164300  1
  O  O48  1  0.80003700  0.78998200  0.92064600  1
  O  O49  1  0.61814400  0.52263300  0.67639900  1
  O  O50  1  0.52022400  0.33640000  0.82209600  1
  O  O51  1  0.46718700  0.38246600  0.17028500  1
  O  O52  1  0.33943300  0.08520700  0.15944200  1
  O  O53  1  0.21738500  0.98393300  0.93386400  1
  O  O54  1  0.20690400  0.99589100  0.75177000  1
  O  O55  1  0.33877400  0.25246900  0.66450100  1
  O  O56  1  0.24748000  0.23735700  0.43125900  1
  O  O57  1  0.20959600  0.20675000  0.25285100  1
loop_
_geom_bond_atom_site_label_1
_geom_bond_atom_site_label_2
_geom_bond_distance
_geom_bond_site_symmetry_2
Li0 O0 1.966076 1_555
Li0 O27 1.995891 1_555
Li0 O29 2.044365 1_565
Li0 O9 2.220368 1_555
Li1 O12 1.859201 1_556
Li1 O4 2.176301 1_555
Li1 O15 2.190536 1_555
Li1 O21 2.290815 1_555
Li2 O7 1.925797 1_555
Li2 O20 1.991814 1_554
Li2 O23 2.094189 1_455
Li2 O14 2.134205 1_555
Li3 O53 1.938424 1_554
Li3 O52 2.021677 1_565
Li3 O34 2.030275 1_455
Li3 O16 2.174580 1_555
Li4 O19 1.903647 1_555
Li4 O27 1.996562 1_545
Li4 O17 2.013141 1_655
Li4 O32 2.318494 1_555
Li5 O28 1.941595 1_555
Li5 O35 1.998387 1_555
Li5 O37 2.032451 1_455
Li5 O22 2.207651 1_555
Li6 O48 1.907982 1_555
Li6 O34 2.073738 1_556
Li6 O40 2.103538 1_555
Li6 O31 2.152638 1_655
Li7 O0 1.955389 1_555
Li7 O35 1.983915 1_655
Li7 O1 2.056669 1_555
Li7 O43 2.292679 1_555
Li8 O56 1.875340 1_555
Li8 O28 1.984394 1_545
Li8 O25 2.083847 1_545
Li8 O45 2.337966 1_555
Li9 O2 1.899574 1_556
Li9 O48 2.098839 1_545
Li9 O20 2.160966 1_655
O0 P13 1.502817 1_555
O1 P1 1.550133 1_555
O1 V4 2.011920 1_555
O2 P8 1.473027 1_555
O3 P0 1.537292 1_555
O3 V2 1.912714 1_565
O4 P0 1.551755 1_555
O4 V5 2.061198 1_555
O5 P3 1.599409 1_555
O5 V4 1.850236 1_555
O6 P2 1.561394 1_555
O6 V4 1.873745 1_555
O7 P15 1.485889 1_555
O8 P5 1.559062 1_555
O8 V5 1.861241 1_555
O9 P4 1.576799 1_555
O9 V2 1.968422 1_565
O10 P1 1.551014 1_555
O10 V3 1.867208 1_565
O11 P4 1.589999 1_555
O11 V5 1.876079 1_555
O12 P3 1.498115 1_555
O13 P4 1.484237 1_555
O14 P3 1.555838 1_555
O14 V0 2.009216 1_555
O15 P7 1.554570 1_555
O15 V2 1.988734 1_565
O16 P3 1.559248 1_555
O16 V3 2.017150 1_565
O17 P2 1.549967 1_555
O17 V0 1.991265 1_555
O18 P5 1.607390 1_555
O18 P6 1.616960 1_455
O19 P6 1.476424 1_555
O20 P5 1.493914 1_555
O21 P5 1.547089 1_555
O21 V1 2.028799 1_455
O22 P4 1.585662 1_555
O22 V1 1.963606 1_455
O23 P8 1.568913 1_555
O23 V0 1.900977 1_655
O24 P9 1.546916 1_555
O24 V0 1.876524 1_555
O25 P9 1.543355 1_555
O25 V3 2.025758 1_565
O26 P1 1.596675 1_545
O26 P8 1.633889 1_555
O27 P1 1.501794 1_555
O28 P14 1.499522 1_565
O29 P6 1.540278 1_555
O29 V2 1.999509 1_555
O30 P6 1.566180 1_555
O30 V1 1.826927 1_555
O31 P7 1.562102 1_555
O31 V1 1.923380 1_455
O32 P11 1.577311 1_555
O32 V0 1.939438 1_655
O33 P10 1.523272 1_555
O33 V0 1.949171 1_655
O34 P10 1.505795 1_555
O35 P9 1.502726 1_555
O36 P9 1.616388 1_555
O36 P10 1.621030 1_455
O37 P13 1.551685 1_555
O37 V1 1.994722 1_555
O38 P12 1.571983 1_555
O38 V2 1.878331 1_555
O39 P8 1.537251 1_555
O39 V3 1.933993 1_555
O40 P12 1.563808 1_555
O40 V1 1.987351 1_555
O41 P12 1.478827 1_555
O42 P11 1.489662 1_555
O43 P11 1.588747 1_555
O43 V4 1.945654 1_555
O44 P14 1.527127 1_555
O44 V2 1.914417 1_555
O45 P11 1.579680 1_555
O45 V3 1.935710 1_555
O46 P10 1.555728 1_555
O46 V4 1.877694 1_555
O47 P13 1.597239 1_555
O47 P0 1.628795 1_555
O48 P0 1.496047 1_555
O49 P13 1.538099 1_555
O49 V5 1.886657 1_555
O50 P12 1.598826 1_555
O50 V5 1.825970 1_555
O51 P15 1.566776 1_555
O51 V4 1.861694 1_555
O52 P15 1.553504 1_555
O52 V3 1.965489 1_555
O53 P7 1.485384 1_555
O54 P7 1.613489 1_555
O54 P14 1.617560 1_565
O55 P14 1.555213 1_555
O55 V5 1.875481 1_555
O56 P2 1.476949 1_555
O57 P15 1.601000 1_555
O57 P2 1.621919 1_555
