# generated using pymatgen
data_NaMn2O4
_symmetry_space_group_name_H-M   'P 1'
_cell_length_a   5.04950400
_cell_length_b   6.07245100
_cell_length_c   12.94560156
_cell_angle_alpha   62.00369824
_cell_angle_beta   90.00000000
_cell_angle_gamma   90.00000000
_symmetry_Int_Tables_number   1
_chemical_formula_structural   NaMn2O4
_chemical_formula_sum   'Na4 Mn8 O16'
_cell_volume   350.49740472
_cell_formula_units_Z   4
loop_
 _symmetry_equiv_pos_site_id
 _symmetry_equiv_pos_as_xyz
  1  'x, y, z'
loop_
 _atom_site_type_symbol
 _atom_site_label
 _atom_site_symmetry_multiplicity
 _atom_site_fract_x
 _atom_site_fract_y
 _atom_site_fract_z
 _atom_site_occupancy
  Na  Na0  1  0.99096200  0.00000000  0.25000000  1
  Na  Na1  1  0.63995700  0.50000000  0.75000000  1
  Na  Na2  1  0.36004300  0.50000000  0.25000000  1
  Na  Na3  1  0.00903800  0.00000000  0.75000000  1
  Mn  Mn0  1  0.99818000  0.74920700  0.00634000  1
  Mn  Mn1  1  0.00182000  0.25079300  0.99366000  1
  Mn  Mn2  1  0.99818000  0.25079300  0.49366000  1
  Mn  Mn3  1  0.00182000  0.74920700  0.50634000  1
  Mn  Mn4  1  0.50000000  0.00000000  0.00000000  1
  Mn  Mn5  1  0.50000000  0.50000000  0.00000000  1
  Mn  Mn6  1  0.50000000  0.00000000  0.50000000  1
  Mn  Mn7  1  0.50000000  0.50000000  0.50000000  1
  O  O0  1  0.82174100  0.91388000  0.59376900  1
  O  O1  1  0.82624200  0.59460500  0.91022600  1
  O  O2  1  0.82624200  0.40539500  0.58977400  1
  O  O3  1  0.82174100  0.08612000  0.90623100  1
  O  O4  1  0.66458800  0.67426300  0.08903300  1
  O  O5  1  0.66458800  0.32573700  0.41096700  1
  O  O6  1  0.68572700  0.14622400  0.08597900  1
  O  O7  1  0.68572700  0.85377600  0.41402100  1
  O  O8  1  0.31427300  0.14622400  0.58597900  1
  O  O9  1  0.31427300  0.85377600  0.91402100  1
  O  O10  1  0.33541200  0.67426300  0.58903300  1
  O  O11  1  0.33541200  0.32573700  0.91096700  1
  O  O12  1  0.17825900  0.08612000  0.40623100  1
  O  O13  1  0.17375800  0.59460500  0.41022600  1
  O  O14  1  0.17375800  0.40539500  0.08977400  1
  O  O15  1  0.17825900  0.91388000  0.09376900  1
loop_
_geom_bond_atom_site_label_1
_geom_bond_atom_site_label_2
_geom_bond_distance
_geom_bond_site_symmetry_2
Na0 O6 2.429514 1_555
Na0 O7 2.429514 1_545
Na0 O15 2.500291 1_645
Na0 O12 2.500291 1_655
Na0 O14 2.533910 1_655
Na0 O13 2.533910 1_645
Na1 O10 2.399312 1_555
Na1 O11 2.399312 1_555
Na1 O3 2.545084 1_555
Na1 O0 2.545084 1_555
Na1 O2 2.576036 1_555
Na1 O1 2.576036 1_555
Na2 O5 2.399312 1_555
Na2 O4 2.399312 1_555
Na2 O15 2.545084 1_555
Na2 O12 2.545084 1_555
Na2 O13 2.576036 1_555
Na2 O14 2.576036 1_555
Na3 O9 2.429514 1_545
Na3 O8 2.429514 1_555
Na3 O3 2.500291 1_455
Na3 O0 2.500291 1_445
Na3 O2 2.533910 1_455
Na3 O1 2.533910 1_445
Mn0 O9 1.914848 1_654
Mn0 O4 1.932143 1_555
Mn0 O3 2.041992 1_564
Mn0 O15 2.042144 1_655
Mn0 O14 2.048024 1_655
Mn0 O1 2.068811 1_554
Mn1 O6 1.914848 1_456
Mn1 O11 1.932143 1_555
Mn1 O15 2.041992 1_546
Mn1 O3 2.042144 1_455
Mn1 O1 2.048024 1_455
Mn1 O14 2.068811 1_556
Mn2 O8 1.914848 1_655
Mn2 O5 1.932143 1_555
Mn2 O0 2.041992 1_545
Mn2 O12 2.042144 1_655
Mn2 O13 2.048024 1_655
Mn2 O2 2.068811 1_555
Mn3 O7 1.914848 1_455
Mn3 O10 1.932143 1_555
Mn3 O12 2.041992 1_565
Mn3 O0 2.042144 1_455
Mn3 O2 2.048024 1_455
Mn3 O13 2.068811 1_555
Mn4 O3 1.946914 1_554
Mn4 O15 1.946914 1_545
Mn4 O11 1.947139 1_554
Mn4 O4 1.947139 1_545
Mn4 O6 1.958239 1_555
Mn4 O9 1.958239 1_544
Mn5 O14 1.941050 1_555
Mn5 O1 1.941050 1_554
Mn5 O4 2.069787 1_555
Mn5 O11 2.069787 1_554
Mn5 O6 2.118646 1_555
Mn5 O9 2.118646 1_554
Mn6 O12 1.946914 1_555
Mn6 O0 1.946914 1_545
Mn6 O5 1.947139 1_555
Mn6 O10 1.947139 1_545
Mn6 O7 1.958239 1_545
Mn6 O8 1.958239 1_555
Mn7 O2 1.941050 1_555
Mn7 O13 1.941050 1_555
Mn7 O5 2.069787 1_555
Mn7 O10 2.069787 1_555
Mn7 O7 2.118646 1_555
Mn7 O8 2.118646 1_555
