# generated using pymatgen
data_Na5Fe11O16
_symmetry_space_group_name_H-M   'P 1'
_cell_length_a   6.20220660
_cell_length_b   6.20220660
_cell_length_c   10.95614053
_cell_angle_alpha   74.23776705
_cell_angle_beta   74.23776705
_cell_angle_gamma   59.93310090
_symmetry_Int_Tables_number   1
_chemical_formula_structural   Na5Fe11O16
_chemical_formula_sum   'Na5 Fe11 O16'
_cell_volume   346.34837685
_cell_formula_units_Z   1
loop_
 _symmetry_equiv_pos_site_id
 _symmetry_equiv_pos_as_xyz
  1  'x, y, z'
loop_
 _atom_site_type_symbol
 _atom_site_label
 _atom_site_symmetry_multiplicity
 _atom_site_fract_x
 _atom_site_fract_y
 _atom_site_fract_z
 _atom_site_occupancy
  Na  Na0  1  0.81194800  0.31544600  0.05972200  1
  Na  Na1  1  0.31544600  0.81194800  0.05972200  1
  Na  Na2  1  0.81167200  0.31441300  0.56636200  1
  Na  Na3  1  0.81187700  0.81187700  0.06364700  1
  Na  Na4  1  0.31441300  0.81167200  0.56636200  1
  Fe  Fe0  1  0.06392600  0.06392600  0.31507200  1
  Fe  Fe1  1  0.31597900  0.31597900  0.05812300  1
  Fe  Fe2  1  0.56490300  0.05934300  0.81409100  1
  Fe  Fe3  1  0.06308000  0.56641400  0.31387000  1
  Fe  Fe4  1  0.56641400  0.06308000  0.31387000  1
  Fe  Fe5  1  0.81167800  0.81167800  0.56731500  1
  Fe  Fe6  1  0.56462000  0.56462000  0.31349000  1
  Fe  Fe7  1  0.06100100  0.06100100  0.81461800  1
  Fe  Fe8  1  0.56259500  0.56259500  0.81013300  1
  Fe  Fe9  1  0.31373600  0.31373600  0.56699500  1
  Fe  Fe10  1  0.05934300  0.56490300  0.81409100  1
  O  O0  1  0.95739500  0.41664600  0.20824900  1
  O  O1  1  0.69811600  0.16795000  0.43069500  1
  O  O2  1  0.19815700  0.19815700  0.91963000  1
  O  O3  1  0.93276100  0.93276100  0.21315400  1
  O  O4  1  0.70180500  0.70180500  0.41770100  1
  O  O5  1  0.42220900  0.42220900  0.70013100  1
  O  O6  1  0.42671800  0.42671800  0.20904900  1
  O  O7  1  0.20263500  0.20263500  0.42479500  1
  O  O8  1  0.44562700  0.95237800  0.69245800  1
  O  O9  1  0.41664600  0.95739500  0.20824900  1
  O  O10  1  0.95237800  0.44562700  0.69245800  1
  O  O11  1  0.66947000  0.19111700  0.92543100  1
  O  O12  1  0.19111700  0.66947000  0.92543100  1
  O  O13  1  0.16795000  0.69811600  0.43069500  1
  O  O14  1  0.92678300  0.92678300  0.70609000  1
  O  O15  1  0.69791500  0.69791500  0.91376500  1
loop_
_geom_bond_atom_site_label_1
_geom_bond_atom_site_label_2
_geom_bond_distance
_geom_bond_site_symmetry_2
Na0 O2 2.342188 1_654
Na0 O11 2.354955 1_554
Na0 O15 2.357320 1_554
Na0 O6 2.387266 1_555
Na0 O3 2.399030 1_545
Na0 O0 2.403243 1_555
Na1 O2 2.342188 1_564
Na1 O12 2.354955 1_554
Na1 O15 2.357320 1_554
Na1 O6 2.387266 1_555
Na1 O3 2.399030 1_455
Na1 O9 2.403243 1_555
Na2 O10 2.304339 1_555
Na2 O5 2.328198 1_555
Na2 O1 2.339647 1_555
Na2 O14 2.346831 1_545
Na2 O7 2.371190 1_655
Na2 O4 2.392987 1_555
Na3 O12 2.305556 1_654
Na3 O11 2.305556 1_564
Na3 O15 2.336138 1_554
Na3 O3 2.388523 1_555
Na3 O9 2.404886 1_555
Na3 O0 2.404886 1_555
Na4 O8 2.304339 1_555
Na4 O5 2.328198 1_555
Na4 O13 2.339647 1_555
Na4 O14 2.346831 1_455
Na4 O7 2.371190 1_565
Na4 O4 2.392987 1_555
Fe0 O0 2.042756 1_455
Fe0 O9 2.042756 1_545
Fe0 O3 2.054421 1_445
Fe0 O13 2.141114 1_545
Fe0 O1 2.141114 1_455
Fe0 O7 2.188777 1_555
Fe1 O12 2.167645 1_554
Fe1 O11 2.167645 1_554
Fe1 O2 2.260588 1_554
Fe1 O0 2.284858 1_455
Fe1 O9 2.284858 1_545
Fe1 O6 2.320447 1_555
Fe2 O11 2.019706 1_555
Fe2 O15 2.050508 1_545
Fe2 O8 2.066635 1_545
Fe2 O14 2.085735 1_545
Fe2 O2 2.098055 1_555
Fe2 O5 2.117807 1_555
Fe3 O0 2.058590 1_455
Fe3 O4 2.066095 1_455
Fe3 O13 2.069118 1_555
Fe3 O3 2.077450 1_455
Fe3 O6 2.081245 1_555
Fe3 O7 2.107531 1_555
Fe4 O9 2.058590 1_545
Fe4 O4 2.066095 1_545
Fe4 O1 2.069118 1_555
Fe4 O3 2.077450 1_545
Fe4 O6 2.081245 1_555
Fe4 O7 2.107531 1_555
Fe5 O8 2.183903 1_555
Fe5 O10 2.183903 1_555
Fe5 O13 2.198994 1_655
Fe5 O1 2.198994 1_565
Fe5 O14 2.240798 1_555
Fe5 O4 2.301040 1_555
Fe6 O4 2.128958 1_555
Fe6 O6 2.137489 1_555
Fe6 O9 2.216945 1_555
Fe6 O0 2.216945 1_555
Fe6 O13 2.281963 1_555
Fe6 O1 2.281963 1_555
Fe7 O2 2.135310 1_555
Fe7 O14 2.137678 1_445
Fe7 O12 2.233621 1_545
Fe7 O11 2.233621 1_455
Fe7 O10 2.254067 1_455
Fe7 O8 2.254067 1_545
Fe8 O15 2.106939 1_555
Fe8 O11 2.164912 1_555
Fe8 O12 2.164912 1_555
Fe8 O5 2.206498 1_555
Fe8 O8 2.256174 1_555
Fe8 O10 2.256174 1_555
Fe9 O5 2.133723 1_555
Fe9 O10 2.163745 1_455
Fe9 O8 2.163745 1_545
Fe9 O7 2.240350 1_555
Fe9 O1 2.317436 1_555
Fe9 O13 2.317436 1_555
Fe10 O12 2.019706 1_555
Fe10 O15 2.050508 1_455
Fe10 O10 2.066635 1_455
Fe10 O14 2.085735 1_455
Fe10 O2 2.098055 1_555
Fe10 O5 2.117807 1_555
