# generated using pymatgen
data_Li5VO3F2
_symmetry_space_group_name_H-M   'P 1'
_cell_length_a   7.19500986
_cell_length_b   9.66895791
_cell_length_c   7.19661851
_cell_angle_alpha   72.51442730
_cell_angle_beta   67.80396757
_cell_angle_gamma   72.51337565
_symmetry_Int_Tables_number   1
_chemical_formula_structural   Li5VO3F2
_chemical_formula_sum   'Li20 V4 O12 F8'
_cell_volume   432.11297209
_cell_formula_units_Z   4
loop_
 _symmetry_equiv_pos_site_id
 _symmetry_equiv_pos_as_xyz
  1  'x, y, z'
loop_
 _atom_site_type_symbol
 _atom_site_label
 _atom_site_symmetry_multiplicity
 _atom_site_fract_x
 _atom_site_fract_y
 _atom_site_fract_z
 _atom_site_occupancy
  Li  Li0  1  0.24877800  0.99944400  0.24928500  1
  Li  Li1  1  0.99878000  0.49944300  0.49928500  1
  Li  Li2  1  0.49877900  0.49944300  0.99928400  1
  Li  Li3  1  0.74877700  0.99944400  0.74928400  1
  Li  Li4  1  0.19040600  0.82905200  0.68927400  1
  Li  Li5  1  0.94040700  0.32905100  0.93927100  1
  Li  Li6  1  0.44040700  0.32905000  0.43927200  1
  Li  Li7  1  0.69040600  0.82905200  0.18927400  1
  Li  Li8  1  0.56015800  0.67309800  0.55885800  1
  Li  Li9  1  0.31015800  0.17309800  0.80885800  1
  Li  Li10  1  0.81015800  0.17309700  0.30885900  1
  Li  Li11  1  0.06015900  0.67309800  0.05885800  1
  Li  Li12  1  0.90456900  0.79688000  0.40299400  1
  Li  Li13  1  0.65456600  0.29687800  0.65298900  1
  Li  Li14  1  0.15457400  0.29688000  0.15298900  1
  Li  Li15  1  0.40456900  0.79687800  0.90298600  1
  Li  Li16  1  0.84663100  0.70498400  0.84531900  1
  Li  Li17  1  0.59662800  0.20498400  0.09532300  1
  Li  Li18  1  0.09663500  0.20498600  0.59532300  1
  Li  Li19  1  0.34663100  0.70498600  0.34532500  1
  V  V0  1  0.75022300  0.50137600  0.24883400  1
  V  V1  1  0.00024100  0.00138000  0.99881700  1
  V  V2  1  0.50023800  0.00137300  0.49882900  1
  V  V3  1  0.25023800  0.50137100  0.74883200  1
  O  O0  1  0.00034500  0.50129200  0.99900500  1
  O  O1  1  0.75034800  0.00129500  0.24899900  1
  O  O2  1  0.25035400  0.00129500  0.74899400  1
  O  O3  1  0.50034000  0.50129200  0.49901100  1
  O  O4  1  0.91033300  0.86073400  0.90929200  1
  O  O5  1  0.66034900  0.36073300  0.15929900  1
  O  O6  1  0.16035200  0.36073600  0.65929700  1
  O  O7  1  0.41033100  0.86073700  0.40929500  1
  O  O8  1  0.84027900  0.64176500  0.33901900  1
  O  O9  1  0.59027300  0.14175900  0.58903600  1
  O  O10  1  0.09027600  0.14176200  0.08903400  1
  O  O11  1  0.34028100  0.64176300  0.83901600  1
  F  F0  1  0.67156800  0.82663600  0.67025500  1
  F  F1  1  0.42157000  0.32662100  0.92024300  1
  F  F2  1  0.92157000  0.32661900  0.42024300  1
  F  F3  1  0.17156900  0.82663500  0.17025500  1
  F  F4  1  0.07958200  0.67707400  0.57838400  1
  F  F5  1  0.82957900  0.17709200  0.82838200  1
  F  F6  1  0.32957800  0.17709100  0.32838300  1
  F  F7  1  0.57958100  0.67707500  0.07838400  1
loop_
_geom_bond_atom_site_label_1
_geom_bond_atom_site_label_2
_geom_bond_distance
_geom_bond_site_symmetry_2
Li0 O10 1.902919 1_565
Li0 O7 1.903213 1_555
Li1 O8 1.902995 1_555
Li1 O6 1.903308 1_655
Li2 O11 1.902984 1_555
Li2 O5 1.903322 1_556
Li3 O9 1.902905 1_565
Li3 O4 1.903228 1_555
Li4 O11 2.033522 1_555
Li4 O2 2.036229 1_565
Li4 O7 2.041815 1_555
Li4 O4 2.042408 1_455
Li5 O10 2.033572 1_656
Li5 O0 2.036226 1_655
Li5 O6 2.041856 1_655
Li5 O5 2.042370 1_556
Li6 O9 2.033576 1_555
Li6 O3 2.036235 1_555
Li6 O5 2.041840 1_555
Li6 O6 2.042349 1_555
Li7 O8 2.033514 1_555
Li7 O1 2.036225 1_565
Li7 O4 2.041833 1_554
Li7 O7 2.042429 1_555
Li8 O3 2.032225 1_555
Li8 O7 2.034706 1_555
Li8 O8 2.041767 1_555
Li8 O11 2.042208 1_555
Li9 O2 2.032209 1_555
Li9 O6 2.034624 1_555
Li9 O9 2.041690 1_555
Li9 O10 2.042309 1_556
Li10 O1 2.032208 1_555
Li10 O5 2.034619 1_555
Li10 O10 2.041710 1_655
Li10 O9 2.042325 1_555
Li11 O0 2.032233 1_554
Li11 O4 2.034696 1_454
Li11 O11 2.041783 1_554
Li11 O8 2.042230 1_455
Li12 O8 1.915235 1_555
Li12 O1 2.158881 1_565
Li13 O9 1.915194 1_555
Li13 O3 2.158837 1_555
Li14 O10 1.915213 1_555
Li14 O0 2.158854 1_554
Li15 O11 1.915207 1_555
Li15 O2 2.158864 1_565
Li16 O4 1.918530 1_555
Li16 O0 2.152099 1_655
Li17 O5 1.918611 1_555
Li17 O1 2.152068 1_555
Li18 O6 1.918595 1_555
Li18 O2 2.152062 1_555
Li19 O7 1.918519 1_555
Li19 O3 2.152095 1_555
O0 V0 2.006622 1_456
O0 V3 2.007084 1_555
O1 V2 2.006578 1_555
O1 V1 2.007121 1_654
O2 V1 2.006562 1_555
O2 V2 2.007016 1_555
O3 V3 2.006510 1_555
O3 V0 2.007060 1_555
O4 V1 2.013197 1_665
O5 V0 2.013061 1_555
O6 V3 2.013049 1_555
O7 V2 2.013151 1_565
O8 V0 2.014793 1_555
O9 V2 2.014773 1_555
O10 V1 2.014786 1_554
O11 V3 2.014753 1_555
F0 Li16 1.993854 1_555
F0 Li15 2.046958 1_555
F0 Li12 2.049161 1_555
F0 V2 2.130946 1_565
F0 Li3 2.188945 1_555
F0 Li8 2.324872 1_555
F1 Li17 1.993878 1_556
F1 Li14 2.046960 1_556
F1 Li13 2.049090 1_555
F1 V3 2.130950 1_555
F1 Li2 2.189120 1_555
F1 Li9 2.324702 1_555
F2 Li18 1.993905 1_655
F2 Li13 2.046998 1_555
F2 Li14 2.049107 1_655
F2 V0 2.131032 1_555
F2 Li1 2.189146 1_555
F2 Li10 2.324689 1_555
F3 Li19 1.993873 1_555
F3 Li12 2.046982 1_455
F3 Li15 2.049199 1_554
F3 V1 2.131021 1_564
F3 Li0 2.188958 1_555
F3 Li11 2.324864 1_555
F4 Li12 1.991563 1_455
F4 Li16 2.044360 1_455
F4 Li19 2.045123 1_555
F4 V3 2.128514 1_555
F4 Li1 2.247109 1_455
F4 Li4 2.306874 1_555
F5 Li13 1.991539 1_555
F5 Li17 2.044360 1_556
F5 Li18 2.045128 1_655
F5 V1 2.128526 1_655
F5 Li3 2.247255 1_545
F5 Li5 2.306733 1_555
F6 Li14 1.991505 1_555
F6 Li18 2.044335 1_555
F6 Li17 2.045100 1_555
F6 V2 2.128588 1_555
F6 Li0 2.247238 1_545
F6 Li6 2.306738 1_555
F7 Li15 1.991593 1_554
F7 Li19 2.044388 1_555
F7 Li16 2.045142 1_554
F7 V0 2.128449 1_555
F7 Li2 2.247122 1_554
F7 Li7 2.306870 1_555
