# generated using pymatgen
data_Cd(FeO2)2
_symmetry_space_group_name_H-M   'P 1'
_cell_length_a   2.98816600
_cell_length_b   9.31064300
_cell_length_c   10.71636600
_cell_angle_alpha   90.00000000
_cell_angle_beta   90.00000000
_cell_angle_gamma   90.00000000
_symmetry_Int_Tables_number   1
_chemical_formula_structural   Cd(FeO2)2
_chemical_formula_sum   'Cd4 Fe8 O16'
_cell_volume   298.14802201
_cell_formula_units_Z   4
loop_
 _symmetry_equiv_pos_site_id
 _symmetry_equiv_pos_as_xyz
  1  'x, y, z'
loop_
 _atom_site_type_symbol
 _atom_site_label
 _atom_site_symmetry_multiplicity
 _atom_site_fract_x
 _atom_site_fract_y
 _atom_site_fract_z
 _atom_site_occupancy
  Cd  Cd0  1  0.00000000  0.49566100  0.15539200  1
  Cd  Cd1  1  0.00000000  0.99217100  0.34328600  1
  Cd  Cd2  1  0.50000000  0.50433900  0.65539200  1
  Cd  Cd3  1  0.50000000  0.00782900  0.84328600  1
  Fe  Fe0  1  0.50000000  0.16624800  0.10250600  1
  Fe  Fe1  1  0.00000000  0.81809500  0.11218800  1
  Fe  Fe2  1  0.00000000  0.31213800  0.38382300  1
  Fe  Fe3  1  0.50000000  0.66449800  0.39710600  1
  Fe  Fe4  1  0.00000000  0.83375200  0.60250600  1
  Fe  Fe5  1  0.50000000  0.18190500  0.61218800  1
  Fe  Fe6  1  0.50000000  0.68786200  0.88382300  1
  Fe  Fe7  1  0.00000000  0.33550200  0.89710600  1
  O  O0  1  0.50000000  0.35765800  0.03301800  1
  O  O1  1  0.50000000  0.66498500  0.06990200  1
  O  O2  1  0.50000000  0.96815600  0.15747200  1
  O  O3  1  0.00000000  0.21767400  0.21065600  1
  O  O4  1  0.00000000  0.73714500  0.28523500  1
  O  O5  1  0.50000000  0.45904000  0.33591100  1
  O  O6  1  0.50000000  0.16086600  0.42785800  1
  O  O7  1  0.50000000  0.86522700  0.48596500  1
  O  O8  1  0.00000000  0.64234200  0.53301800  1
  O  O9  1  0.00000000  0.33501500  0.56990200  1
  O  O10  1  0.00000000  0.03184400  0.65747200  1
  O  O11  1  0.50000000  0.78232600  0.71065600  1
  O  O12  1  0.50000000  0.26285500  0.78523500  1
  O  O13  1  0.00000000  0.54096000  0.83591100  1
  O  O14  1  0.00000000  0.83913400  0.92785800  1
  O  O15  1  0.00000000  0.13477300  0.98596500  1
loop_
_geom_bond_atom_site_label_1
_geom_bond_atom_site_label_2
_geom_bond_distance
_geom_bond_site_symmetry_2
Cd0 O1 2.357329 1_555
Cd0 O1 2.357329 1_455
Cd0 O0 2.367071 1_455
Cd0 O0 2.367071 1_555
Cd0 O5 2.467967 1_455
Cd0 O5 2.467967 1_555
Cd0 O4 2.644105 1_555
Cd0 O3 2.655129 1_555
Cd1 O6 2.349605 1_465
Cd1 O6 2.349605 1_565
Cd1 O7 2.442762 1_555
Cd1 O7 2.442762 1_455
Cd1 O4 2.454597 1_555
Cd1 O2 2.499472 1_455
Cd1 O2 2.499472 1_555
Cd1 O3 2.535420 1_565
Cd2 O9 2.357329 1_555
Cd2 O9 2.357329 1_655
Cd2 O8 2.367071 1_555
Cd2 O8 2.367071 1_655
Cd2 O13 2.467967 1_655
Cd2 O13 2.467967 1_555
Cd2 O12 2.644105 1_555
Cd2 O11 2.655129 1_555
Cd3 O14 2.349605 1_645
Cd3 O14 2.349605 1_545
Cd3 O15 2.442762 1_555
Cd3 O15 2.442762 1_655
Cd3 O12 2.454597 1_555
Cd3 O10 2.499472 1_555
Cd3 O10 2.499472 1_655
Cd3 O11 2.535420 1_545
Fe0 O0 1.931470 1_555
Fe0 O2 1.936141 1_545
Fe0 O3 1.950581 1_655
Fe0 O3 1.950581 1_555
Fe0 O15 1.969240 1_654
Fe0 O15 1.969240 1_554
Fe1 O14 1.985037 1_554
Fe1 O4 2.001746 1_555
Fe1 O2 2.102344 1_455
Fe1 O2 2.102344 1_555
Fe1 O1 2.114197 1_455
Fe1 O1 2.114197 1_555
Fe2 O9 2.005434 1_555
Fe2 O3 2.053596 1_555
Fe2 O5 2.089654 1_555
Fe2 O5 2.089654 1_455
Fe2 O6 2.106815 1_555
Fe2 O6 2.106815 1_455
Fe3 O5 2.022232 1_555
Fe3 O4 2.031509 1_555
Fe3 O4 2.031509 1_655
Fe3 O8 2.096707 1_555
Fe3 O8 2.096707 1_655
Fe3 O7 2.097527 1_555
Fe4 O8 1.931470 1_555
Fe4 O10 1.936141 1_565
Fe4 O11 1.950581 1_455
Fe4 O11 1.950581 1_555
Fe4 O7 1.969240 1_555
Fe4 O7 1.969240 1_455
Fe5 O6 1.985037 1_555
Fe5 O12 2.001746 1_555
Fe5 O10 2.102344 1_555
Fe5 O10 2.102344 1_655
Fe5 O9 2.114197 1_555
Fe5 O9 2.114197 1_655
Fe6 O1 2.005434 1_556
Fe6 O11 2.053596 1_555
Fe6 O13 2.089654 1_555
Fe6 O13 2.089654 1_655
Fe6 O14 2.106815 1_555
Fe6 O14 2.106815 1_655
Fe7 O13 2.022232 1_555
Fe7 O12 2.031509 1_455
Fe7 O12 2.031509 1_555
Fe7 O0 2.096707 1_456
Fe7 O0 2.096707 1_556
Fe7 O15 2.097527 1_555
