# generated using pymatgen
data_RbPHO3F
_symmetry_space_group_name_H-M   'P 1'
_cell_length_a   15.86458500
_cell_length_b   7.63108500
_cell_length_c   9.28452443
_cell_angle_alpha   53.12547896
_cell_angle_beta   90.00000000
_cell_angle_gamma   90.00000000
_symmetry_Int_Tables_number   1
_chemical_formula_structural   RbPHO3F
_chemical_formula_sum   'Rb8 P8 H8 O24 F8'
_cell_volume   899.16288381
_cell_formula_units_Z   8
loop_
 _symmetry_equiv_pos_site_id
 _symmetry_equiv_pos_as_xyz
  1  'x, y, z'
loop_
 _atom_site_type_symbol
 _atom_site_label
 _atom_site_symmetry_multiplicity
 _atom_site_fract_x
 _atom_site_fract_y
 _atom_site_fract_z
 _atom_site_occupancy
  Rb  Rb0  1  0.29549200  0.31934900  0.74759000  1
  Rb  Rb1  1  0.95255300  0.98112800  0.27581500  1
  Rb  Rb2  1  0.45255300  0.01887200  0.22418500  1
  Rb  Rb3  1  0.79549200  0.68065100  0.75241000  1
  Rb  Rb4  1  0.20450800  0.31934900  0.24759000  1
  Rb  Rb5  1  0.54744700  0.98112800  0.77581500  1
  Rb  Rb6  1  0.04744700  0.01887200  0.72418500  1
  Rb  Rb7  1  0.70450800  0.68065100  0.25241000  1
  P  P0  1  0.20300800  0.87047900  0.22168200  1
  P  P1  1  0.53149400  0.51276800  0.73192600  1
  P  P2  1  0.03149400  0.48723200  0.76807400  1
  P  P3  1  0.70300800  0.12952100  0.27831800  1
  P  P4  1  0.29699200  0.87047900  0.72168200  1
  P  P5  1  0.96850600  0.51276800  0.23192600  1
  P  P6  1  0.46850600  0.48723200  0.26807400  1
  P  P7  1  0.79699200  0.12952100  0.77831800  1
  H  H0  1  0.89975400  0.20519500  0.89464600  1
  H  H1  1  0.11749500  0.63756100  0.53319200  1
  H  H2  1  0.61749500  0.36243900  0.96680800  1
  H  H3  1  0.39975400  0.79480500  0.60535400  1
  H  H4  1  0.60024600  0.20519500  0.39464600  1
  H  H5  1  0.38250500  0.63756100  0.03319200  1
  H  H6  1  0.88250500  0.36243900  0.46680800  1
  H  H7  1  0.10024600  0.79480500  0.10535400  1
  O  O0  1  0.83733300  0.15393900  0.92162500  1
  O  O1  1  0.99109800  0.26348300  0.87950800  1
  O  O2  1  0.47866400  0.30948000  0.83852600  1
  O  O3  1  0.10521200  0.48640100  0.65225000  1
  O  O4  1  0.60521200  0.51359900  0.84775000  1
  O  O5  1  0.13735900  0.86346800  0.34339900  1
  O  O6  1  0.26850000  0.04742700  0.13606300  1
  O  O7  1  0.97866400  0.69052000  0.66147400  1
  O  O8  1  0.49109800  0.73651700  0.62049200  1
  O  O9  1  0.76850000  0.95257300  0.36393700  1
  O  O10  1  0.63735900  0.13653200  0.15660100  1
  O  O11  1  0.33733300  0.84606100  0.57837500  1
  O  O12  1  0.66266700  0.15393900  0.42162500  1
  O  O13  1  0.36264100  0.86346800  0.84339900  1
  O  O14  1  0.23150000  0.04742700  0.63606300  1
  O  O15  1  0.50890200  0.26348300  0.37950800  1
  O  O16  1  0.02133600  0.30948000  0.33852600  1
  O  O17  1  0.73150000  0.95257300  0.86393700  1
  O  O18  1  0.86264100  0.13653200  0.65660100  1
  O  O19  1  0.39478800  0.48640100  0.15225000  1
  O  O20  1  0.89478800  0.51359900  0.34775000  1
  O  O21  1  0.52133600  0.69052000  0.16147400  1
  O  O22  1  0.00890200  0.73651700  0.12049200  1
  O  O23  1  0.16266700  0.84606100  0.07837500  1
  F  F0  1  0.74754700  0.36136600  0.65118600  1
  F  F1  1  0.58324100  0.50203500  0.58751500  1
  F  F2  1  0.08324100  0.49796500  0.91248500  1
  F  F3  1  0.24754700  0.63863400  0.84881400  1
  F  F4  1  0.75245300  0.36136600  0.15118600  1
  F  F5  1  0.91675900  0.50203500  0.08751500  1
  F  F6  1  0.41675900  0.49796500  0.41248500  1
  F  F7  1  0.25245300  0.63863400  0.34881400  1
loop_
_geom_bond_atom_site_label_1
_geom_bond_atom_site_label_2
_geom_bond_distance
_geom_bond_site_symmetry_2
H0 O0 1.038658 1_555
H0 O1 1.497520 1_555
H0 Rb1 2.981176 1_546
H1 O3 1.029658 1_555
H1 O5 1.590786 1_555
H2 O4 1.029658 1_555
H2 O10 1.590786 1_556
H3 O11 1.038658 1_555
H3 O8 1.497520 1_555
H3 Rb2 2.981176 1_565
H4 O12 1.038658 1_555
H4 O15 1.497520 1_555
H4 Rb5 2.981176 1_545
H5 O19 1.029658 1_555
H5 O13 1.590786 1_554
H6 O20 1.029658 1_555
H6 O18 1.590786 1_555
H7 O23 1.038658 1_555
H7 O22 1.497520 1_555
H7 Rb6 2.981176 1_564
O0 P7 1.584988 1_555
O0 Rb1 3.269549 1_546
O1 P2 1.508783 1_655
O1 Rb1 3.006760 1_546
O1 Rb6 3.097385 1_655
O2 P1 1.498642 1_555
O2 Rb2 2.894977 1_556
O2 Rb0 3.014421 1_555
O2 Rb5 3.091776 1_545
O3 P2 1.591348 1_555
O3 Rb0 3.188575 1_555
O3 Rb6 3.339916 1_555
O4 P1 1.591348 1_555
O4 Rb3 3.188575 1_555
O4 Rb5 3.339916 1_555
O5 P0 1.513969 1_555
O5 Rb1 3.019871 1_455
O5 Rb4 3.211655 1_565
O6 P0 1.498849 1_545
O6 Rb0 2.918224 1_554
O6 Rb4 2.997901 1_555
O6 Rb2 3.004810 1_555
O7 P2 1.498642 1_655
O7 Rb1 2.894977 1_555
O7 Rb3 3.014421 1_555
O7 Rb6 3.091776 1_665
O8 P1 1.508783 1_555
O8 Rb2 3.006760 1_565
O8 Rb5 3.097385 1_555
O9 P3 1.498849 1_565
O9 Rb3 2.918224 1_555
O9 Rb7 2.997901 1_555
O9 Rb1 3.004810 1_555
O10 P3 1.513969 1_555
O10 Rb2 3.019871 1_555
O10 Rb7 3.211655 1_545
O11 P4 1.584988 1_555
O11 Rb2 3.269549 1_565
O12 P3 1.584988 1_555
O12 Rb5 3.269549 1_545
O13 P4 1.513969 1_555
O13 Rb5 3.019871 1_555
O13 Rb0 3.211655 1_565
O14 P4 1.498849 1_545
O14 Rb4 2.918224 1_555
O14 Rb0 2.997901 1_555
O14 Rb6 3.004810 1_555
O15 P6 1.508783 1_555
O15 Rb5 3.006760 1_545
O15 Rb2 3.097385 1_555
O16 P5 1.498642 1_455
O16 Rb6 2.894977 1_555
O16 Rb4 3.014421 1_555
O16 Rb1 3.091776 1_445
O17 P7 1.498849 1_565
O17 Rb7 2.918224 1_556
O17 Rb3 2.997901 1_555
O17 Rb5 3.004810 1_555
O18 P7 1.513969 1_555
O18 Rb6 3.019871 1_655
O18 Rb3 3.211655 1_545
O19 P6 1.591348 1_555
O19 Rb4 3.188575 1_555
O19 Rb2 3.339916 1_555
O20 P5 1.591348 1_555
O20 Rb7 3.188575 1_555
O20 Rb1 3.339916 1_555
O21 P6 1.498642 1_555
O21 Rb5 2.894977 1_554
O21 Rb7 3.014421 1_555
O21 Rb2 3.091776 1_565
O22 P5 1.508783 1_455
O22 Rb6 3.006760 1_564
O22 Rb1 3.097385 1_455
O23 P0 1.584988 1_555
O23 Rb6 3.269549 1_564
F0 P7 1.622492 1_555
F0 Rb7 3.047042 1_555
F0 Rb3 3.185344 1_555
F1 P1 1.615600 1_555
F1 Rb7 3.185858 1_555
F1 Rb5 3.292398 1_545
F2 P2 1.615600 1_555
F2 Rb4 3.185858 1_556
F2 Rb6 3.292398 1_565
F3 P4 1.622492 1_555
F3 Rb4 3.047042 1_556
F3 Rb0 3.185344 1_555
F4 P3 1.622492 1_555
F4 Rb3 3.047042 1_554
F4 Rb7 3.185344 1_555
F5 P5 1.615600 1_555
F5 Rb3 3.185858 1_554
F5 Rb1 3.292398 1_545
F6 P6 1.615600 1_555
F6 Rb0 3.185858 1_555
F6 Rb2 3.292398 1_565
F7 P0 1.622492 1_555
F7 Rb0 3.047042 1_555
F7 Rb4 3.185344 1_555
