# generated using pymatgen
data_BaSn3
_symmetry_space_group_name_H-M   'P 1'
_cell_length_a   7.34786896
_cell_length_b   7.34795475
_cell_length_c   5.64984471
_cell_angle_alpha   90.00020170
_cell_angle_beta   89.99989607
_cell_angle_gamma   120.00015686
_symmetry_Int_Tables_number   1
_chemical_formula_structural   BaSn3
_chemical_formula_sum   'Ba2 Sn6'
_cell_volume   264.17659145
_cell_formula_units_Z   2
loop_
 _symmetry_equiv_pos_site_id
 _symmetry_equiv_pos_as_xyz
  1  'x, y, z'
loop_
 _atom_site_type_symbol
 _atom_site_label
 _atom_site_symmetry_multiplicity
 _atom_site_fract_x
 _atom_site_fract_y
 _atom_site_fract_z
 _atom_site_occupancy
  Ba  Ba0  1  0.33333300  0.66666700  0.25000000  1
  Ba  Ba1  1  0.66666700  0.33333300  0.75000000  1
  Sn  Sn0  1  0.27318433  0.13659166  0.25000000  1
  Sn  Sn1  1  0.13659166  0.27318433  0.75000000  1
  Sn  Sn2  1  0.13659266  0.86340734  0.75000000  1
  Sn  Sn3  1  0.86340734  0.13659266  0.25000000  1
  Sn  Sn4  1  0.86340834  0.72681567  0.25000000  1
  Sn  Sn5  1  0.72681567  0.86340834  0.75000000  1
loop_
_geom_bond_atom_site_label_1
_geom_bond_atom_site_label_2
_geom_bond_distance
_geom_bond_site_symmetry_2
Ba0 Sn4 3.693815 1_455
Ba0 Sn4 3.693822 1_555
Ba0 Sn3 3.693826 1_565
Ba0 Sn3 3.693836 1_455
Ba0 Sn0 3.693852 1_565
Ba0 Sn0 3.693870 1_555
Ba0 Sn2 3.774877 1_555
Ba0 Sn5 3.774877 1_554
Ba0 Sn5 3.774878 1_555
Ba0 Sn2 3.774889 1_554
Ba0 Sn1 3.774891 1_554
Ba0 Sn1 3.774903 1_555
Ba1 Sn1 3.693815 1_655
Ba1 Sn1 3.693822 1_555
Ba1 Sn2 3.693826 1_545
Ba1 Sn2 3.693836 1_655
Ba1 Sn5 3.693852 1_545
Ba1 Sn5 3.693870 1_555
Ba1 Sn3 3.774877 1_555
Ba1 Sn0 3.774877 1_556
Ba1 Sn0 3.774878 1_555
Ba1 Sn3 3.774889 1_556
Ba1 Sn4 3.774891 1_556
Ba1 Sn4 3.774903 1_555
Sn0 Sn4 3.010991 1_445
Sn0 Sn3 3.010991 1_455
Sn0 Sn2 3.316960 1_544
Sn0 Sn1 3.316960 1_555
Sn0 Sn2 3.316969 1_545
Sn0 Sn1 3.316970 1_554
Sn1 Sn5 3.010991 1_445
Sn1 Sn2 3.011026 1_545
Sn1 Sn3 3.316954 1_456
Sn1 Sn3 3.316954 1_455
Sn2 Sn5 3.010991 1_455
Sn2 Sn4 3.316954 1_456
Sn2 Sn4 3.316954 1_455
Sn3 Sn4 3.011026 1_545
Sn3 Sn5 3.316960 1_544
Sn3 Sn5 3.316969 1_545
Sn4 Sn5 3.316960 1_555
Sn4 Sn5 3.316970 1_554
