# generated using pymatgen
data_Li2Ni3SbO8
_symmetry_space_group_name_H-M   'P 1'
_cell_length_a   5.81284933
_cell_length_b   5.81284933
_cell_length_c   9.51311700
_cell_angle_alpha   90.00000000
_cell_angle_beta   90.00000000
_cell_angle_gamma   119.99999243
_symmetry_Int_Tables_number   1
_chemical_formula_structural   Li2Ni3SbO8
_chemical_formula_sum   'Li4 Ni6 Sb2 O16'
_cell_volume   278.37590109
_cell_formula_units_Z   2
loop_
 _symmetry_equiv_pos_site_id
 _symmetry_equiv_pos_as_xyz
  1  'x, y, z'
loop_
 _atom_site_type_symbol
 _atom_site_label
 _atom_site_symmetry_multiplicity
 _atom_site_fract_x
 _atom_site_fract_y
 _atom_site_fract_z
 _atom_site_occupancy
  Li  Li0  1  0.33333300  0.66666700  0.90159100  1
  Li  Li1  1  0.00000000  0.00000000  0.99066900  1
  Li  Li2  1  0.00000000  0.00000000  0.49066900  1
  Li  Li3  1  0.66666700  0.33333300  0.40159100  1
  Ni  Ni0  1  0.17390900  0.83500600  0.21413500  1
  Ni  Ni1  1  0.16499400  0.33890300  0.21413500  1
  Ni  Ni2  1  0.66109700  0.82609100  0.21413500  1
  Ni  Ni3  1  0.33890300  0.16499400  0.71413500  1
  Ni  Ni4  1  0.82609100  0.66109700  0.71413500  1
  Ni  Ni5  1  0.83500600  0.17390900  0.71413500  1
  Sb  Sb0  1  0.33333300  0.66666700  0.48627600  1
  Sb  Sb1  1  0.66666700  0.33333300  0.98627600  1
  O  O0  1  0.18273800  0.85568100  0.59347500  1
  O  O1  1  0.03194100  0.54260900  0.34475200  1
  O  O2  1  0.33333300  0.66666700  0.11880400  1
  O  O3  1  0.00000000  0.00000000  0.29947200  1
  O  O4  1  0.00000000  0.00000000  0.79947200  1
  O  O5  1  0.14431900  0.32705700  0.59347500  1
  O  O6  1  0.51066800  0.96805900  0.34475200  1
  O  O7  1  0.45739100  0.48933200  0.34475200  1
  O  O8  1  0.32705700  0.14431900  0.09347500  1
  O  O9  1  0.67294300  0.81726200  0.59347500  1
  O  O10  1  0.48933200  0.45739100  0.84475200  1
  O  O11  1  0.54260900  0.03194100  0.84475200  1
  O  O12  1  0.66666700  0.33333300  0.61880400  1
  O  O13  1  0.81726200  0.67294300  0.09347500  1
  O  O14  1  0.96805900  0.51066800  0.84475200  1
  O  O15  1  0.85568100  0.18273800  0.09347500  1
loop_
_geom_bond_atom_site_label_1
_geom_bond_atom_site_label_2
_geom_bond_distance
_geom_bond_site_symmetry_2
Li0 O14 1.922914 1_455
Li0 O11 1.922914 1_565
Li0 O10 1.922919 1_555
Li0 O2 2.066373 1_556
Li1 O4 1.818879 1_555
Li1 O15 1.918253 1_456
Li1 O8 1.918253 1_556
Li1 O13 1.918253 1_446
Li2 O3 1.818879 1_555
Li2 O0 1.918253 1_545
Li2 O5 1.918253 1_555
Li2 O9 1.918253 1_445
Li3 O6 1.922914 1_545
Li3 O1 1.922914 1_655
Li3 O7 1.922919 1_555
Li3 O12 2.066373 1_555
Ni0 O2 1.882970 1_555
Ni0 O3 1.889544 1_565
Ni0 O1 1.926455 1_555
Ni0 O8 1.934482 1_565
Ni0 O6 2.111895 1_555
Ni0 O13 2.133054 1_455
Ni1 O2 1.882974 1_555
Ni1 O3 1.889544 1_555
Ni1 O7 1.926455 1_555
Ni1 O15 1.934482 1_455
Ni1 O1 2.111895 1_555
Ni1 O8 2.133053 1_555
Ni2 O2 1.882974 1_555
Ni2 O3 1.889544 1_665
Ni2 O6 1.926455 1_555
Ni2 O13 1.934481 1_555
Ni2 O7 2.111895 1_555
Ni2 O15 2.133054 1_565
Ni3 O12 1.882974 1_555
Ni3 O4 1.889544 1_555
Ni3 O10 1.926455 1_555
Ni3 O0 1.934482 1_545
Ni3 O11 2.111895 1_555
Ni3 O5 2.133053 1_555
Ni4 O12 1.882974 1_555
Ni4 O4 1.889544 1_665
Ni4 O14 1.926455 1_555
Ni4 O9 1.934481 1_555
Ni4 O10 2.111895 1_555
Ni4 O0 2.133054 1_655
Ni5 O12 1.882970 1_555
Ni5 O4 1.889544 1_655
Ni5 O11 1.926455 1_555
Ni5 O5 1.934482 1_655
Ni5 O14 2.111895 1_555
Ni5 O9 2.133054 1_545
O0 Sb0 1.993802 1_555
O1 Sb0 2.034350 1_555
O5 Sb0 1.993806 1_555
O6 Sb0 2.034350 1_555
O7 Sb0 2.034354 1_555
O8 Sb1 1.993806 1_554
O9 Sb0 1.993806 1_555
O10 Sb1 2.034354 1_555
O11 Sb1 2.034350 1_555
O13 Sb1 1.993806 1_554
O14 Sb1 2.034350 1_555
O15 Sb1 1.993802 1_554
