# generated using pymatgen
data_LiFePO4
_symmetry_space_group_name_H-M   'P 1'
_cell_length_a   6.40608832
_cell_length_b   6.74012796
_cell_length_c   14.14303805
_cell_angle_alpha   90.00000000
_cell_angle_beta   90.00000000
_cell_angle_gamma   90.00000000
_symmetry_Int_Tables_number   1
_chemical_formula_structural   LiFePO4
_chemical_formula_sum   'Li8 Fe8 P8 O32'
_cell_volume   610.66604618
_cell_formula_units_Z   8
loop_
 _symmetry_equiv_pos_site_id
 _symmetry_equiv_pos_as_xyz
  1  'x, y, z'
loop_
 _atom_site_type_symbol
 _atom_site_label
 _atom_site_symmetry_multiplicity
 _atom_site_fract_x
 _atom_site_fract_y
 _atom_site_fract_z
 _atom_site_occupancy
  Li  Li0  1  0.24126600  0.20924251  0.20962707  1
  Li  Li1  1  0.74126600  0.20924251  0.29037293  1
  Li  Li2  1  0.74126600  0.29075749  0.79037293  1
  Li  Li3  1  0.24126600  0.29075749  0.70962707  1
  Li  Li4  1  0.25873400  0.70924251  0.20962707  1
  Li  Li5  1  0.75873400  0.70924251  0.29037293  1
  Li  Li6  1  0.25873400  0.79075749  0.70962707  1
  Li  Li7  1  0.75873400  0.79075749  0.79037293  1
  Fe  Fe0  1  0.44987853  0.16920393  0.51193375  1
  Fe  Fe1  1  0.94987853  0.16920393  0.98806625  1
  Fe  Fe2  1  0.44987853  0.33079607  0.01193375  1
  Fe  Fe3  1  0.94987853  0.33079607  0.48806625  1
  Fe  Fe4  1  0.05012147  0.66920393  0.51193375  1
  Fe  Fe5  1  0.55012147  0.66920393  0.98806625  1
  Fe  Fe6  1  0.05012147  0.83079607  0.01193375  1
  Fe  Fe7  1  0.55012147  0.83079607  0.48806625  1
  P  P0  1  0.89611805  0.02974518  0.63114064  1
  P  P1  1  0.39611805  0.02974518  0.86885936  1
  P  P2  1  0.89611805  0.47025482  0.13114064  1
  P  P3  1  0.39611805  0.47025482  0.36885936  1
  P  P4  1  0.60388195  0.52974518  0.63114064  1
  P  P5  1  0.10388195  0.52974518  0.86885936  1
  P  P6  1  0.60388195  0.97025482  0.13114064  1
  P  P7  1  0.10388195  0.97025482  0.36885936  1
  O  O0  1  0.75991117  0.96547056  0.04427592  1
  O  O1  1  0.25991117  0.96547056  0.45572408  1
  O  O2  1  0.28753204  0.04281516  0.77513226  1
  O  O3  1  0.78753204  0.04281516  0.72486774  1
  O  O4  1  0.47792668  0.16378852  0.12421354  1
  O  O5  1  0.97792668  0.16378852  0.37578646  1
  O  O6  1  0.03955603  0.21063357  0.61190263  1
  O  O7  1  0.53955603  0.21063357  0.88809737  1
  O  O8  1  0.03955603  0.28936643  0.11190263  1
  O  O9  1  0.53955603  0.28936643  0.38809737  1
  O  O10  1  0.47792668  0.33621148  0.62421354  1
  O  O11  1  0.97792668  0.33621148  0.87578646  1
  O  O12  1  0.78753204  0.45718484  0.22486774  1
  O  O13  1  0.28753204  0.45718484  0.27513226  1
  O  O14  1  0.75991117  0.53452944  0.54427592  1
  O  O15  1  0.25991117  0.53452944  0.95572408  1
  O  O16  1  0.24008883  0.46547056  0.45572408  1
  O  O17  1  0.74008883  0.46547056  0.04427592  1
  O  O18  1  0.71246796  0.54281516  0.72486774  1
  O  O19  1  0.21246796  0.54281516  0.77513226  1
  O  O20  1  0.02207332  0.66378852  0.12421354  1
  O  O21  1  0.52207332  0.66378852  0.37578646  1
  O  O22  1  0.46044397  0.71063357  0.61190263  1
  O  O23  1  0.96044397  0.71063357  0.88809737  1
  O  O24  1  0.46044397  0.78936643  0.11190263  1
  O  O25  1  0.96044397  0.78936643  0.38809737  1
  O  O26  1  0.02207332  0.83621148  0.62421354  1
  O  O27  1  0.52207332  0.83621148  0.87578646  1
  O  O28  1  0.71246796  0.95718484  0.22486774  1
  O  O29  1  0.21246796  0.95718484  0.27513226  1
  O  O30  1  0.74008883  0.03452944  0.54427592  1
  O  O31  1  0.24008883  0.03452944  0.95572408  1
loop_
_geom_bond_atom_site_label_1
_geom_bond_atom_site_label_2
_geom_bond_distance
_geom_bond_site_symmetry_2
Li0 O13 1.933630 1_555
Li0 O29 1.943861 1_545
Li0 O4 1.962551 1_555
Li0 O8 1.967642 1_555
Li1 O12 1.933630 1_555
Li1 O28 1.943861 1_545
Li1 O5 1.962551 1_555
Li1 O9 1.967642 1_555
Li2 O3 1.933630 1_555
Li2 O18 1.943861 1_555
Li2 O11 1.962551 1_555
Li2 O7 1.967642 1_555
Li3 O2 1.933630 1_555
Li3 O19 1.943861 1_555
Li3 O10 1.962551 1_555
Li3 O6 1.967642 1_555
Li4 O29 1.933630 1_555
Li4 O13 1.943861 1_555
Li4 O20 1.962551 1_555
Li4 O24 1.967642 1_555
Li5 O28 1.933630 1_555
Li5 O12 1.943861 1_555
Li5 O21 1.962551 1_555
Li5 O25 1.967642 1_555
Li6 O19 1.933630 1_555
Li6 O2 1.943861 1_565
Li6 O26 1.962551 1_555
Li6 O22 1.967642 1_555
Li7 O18 1.933630 1_555
Li7 O3 1.943861 1_565
Li7 O27 1.962551 1_555
Li7 O23 1.967642 1_555
Fe0 O10 1.954751 1_555
Fe0 O1 1.999649 1_545
Fe0 O9 2.013322 1_555
Fe0 O30 2.118842 1_555
Fe0 O16 2.534886 1_555
Fe1 O11 1.954751 1_555
Fe1 O0 1.999649 1_546
Fe1 O8 2.013322 1_656
Fe1 O31 2.118842 1_655
Fe1 O17 2.534886 1_556
Fe2 O4 1.954751 1_555
Fe2 O15 1.999649 1_554
Fe2 O7 2.013322 1_554
Fe2 O17 2.118842 1_555
Fe2 O31 2.534886 1_554
Fe3 O5 1.954751 1_555
Fe3 O14 1.999649 1_555
Fe3 O6 2.013322 1_655
Fe3 O16 2.118842 1_655
Fe3 O30 2.534886 1_555
Fe4 O26 1.954751 1_555
Fe4 O16 1.999649 1_555
Fe4 O25 2.013322 1_455
Fe4 O14 2.118842 1_455
Fe4 O1 2.534886 1_555
Fe5 O27 1.954751 1_555
Fe5 O17 1.999649 1_556
Fe5 O24 2.013322 1_556
Fe5 O15 2.118842 1_555
Fe5 O0 2.534886 1_556
Fe6 O20 1.954751 1_555
Fe6 O31 1.999649 1_564
Fe6 O23 2.013322 1_454
Fe6 O0 2.118842 1_455
Fe6 O15 2.534886 1_554
Fe7 O21 1.954751 1_555
Fe7 O30 1.999649 1_565
Fe7 O22 2.013322 1_555
Fe7 O1 2.118842 1_555
Fe7 O14 2.534886 1_555
O0 P6 1.584109 1_555
O1 P7 1.584109 1_555
O2 P1 1.499605 1_555
O3 P0 1.499605 1_555
O4 P6 1.536953 1_545
O5 P7 1.536953 1_645
O6 P0 1.550754 1_455
O7 P1 1.550754 1_555
O8 P2 1.550754 1_455
O9 P3 1.550754 1_555
O10 P4 1.536953 1_555
O11 P5 1.536953 1_655
O12 P2 1.499605 1_555
O13 P3 1.499605 1_555
O14 P4 1.584109 1_555
O15 P5 1.584109 1_555
O16 P3 1.584109 1_555
O17 P2 1.584109 1_555
O18 P4 1.499605 1_555
O19 P5 1.499605 1_555
O20 P2 1.536953 1_455
O21 P3 1.536953 1_555
O22 P4 1.550754 1_555
O23 P5 1.550754 1_655
O24 P6 1.550754 1_555
O25 P7 1.550754 1_655
O26 P0 1.536953 1_465
O27 P1 1.536953 1_565
O28 P6 1.499605 1_555
O29 P7 1.499605 1_555
O30 P0 1.584109 1_555
O31 P1 1.584109 1_555
