# generated using pymatgen
data_La3ScO6
_symmetry_space_group_name_H-M   'P 1'
_cell_length_a   6.94881183
_cell_length_b   6.94881183
_cell_length_c   6.94881125
_cell_angle_alpha   92.29217516
_cell_angle_beta   92.29217516
_cell_angle_gamma   92.29216969
_symmetry_Int_Tables_number   1
_chemical_formula_structural   La3ScO6
_chemical_formula_sum   'La6 Sc2 O12'
_cell_volume   334.70263191
_cell_formula_units_Z   2
loop_
 _symmetry_equiv_pos_site_id
 _symmetry_equiv_pos_as_xyz
  1  'x, y, z'
loop_
 _atom_site_type_symbol
 _atom_site_label
 _atom_site_symmetry_multiplicity
 _atom_site_fract_x
 _atom_site_fract_y
 _atom_site_fract_z
 _atom_site_occupancy
  La  La0  1  0.43971000  0.74627000  0.93211400  1
  La  La1  1  0.25373000  0.06788600  0.56029000  1
  La  La2  1  0.06788600  0.56029000  0.25373000  1
  La  La3  1  0.93211400  0.43971000  0.74627000  1
  La  La4  1  0.74627000  0.93211400  0.43971000  1
  La  La5  1  0.56029000  0.25373000  0.06788600  1
  Sc  Sc0  1  0.00000000  0.00000000  0.00000000  1
  Sc  Sc1  1  0.50000000  0.50000000  0.50000000  1
  O  O0  1  0.07894100  0.70237300  0.93581800  1
  O  O1  1  0.29762700  0.06418200  0.92105900  1
  O  O2  1  0.20349000  0.41226500  0.53944800  1
  O  O3  1  0.06418200  0.92105900  0.29762700  1
  O  O4  1  0.58773500  0.46055200  0.79651000  1
  O  O5  1  0.46055200  0.79651000  0.58773500  1
  O  O6  1  0.53944800  0.20349000  0.41226500  1
  O  O7  1  0.41226500  0.53944800  0.20349000  1
  O  O8  1  0.93581800  0.07894100  0.70237300  1
  O  O9  1  0.79651000  0.58773500  0.46055200  1
  O  O10  1  0.70237300  0.93581800  0.07894100  1
  O  O11  1  0.92105900  0.29762700  0.06418200  1
loop_
_geom_bond_atom_site_label_1
_geom_bond_atom_site_label_2
_geom_bond_distance
_geom_bond_site_symmetry_2
La0 O10 2.378736 1_556
La0 O7 2.425173 1_556
La0 O5 2.441295 1_555
La0 O4 2.445193 1_555
La0 O1 2.458215 1_565
La0 O0 2.514549 1_555
La1 O3 2.378736 1_545
La1 O5 2.425173 1_545
La1 O2 2.441296 1_555
La1 O6 2.445193 1_555
La1 O8 2.458215 1_455
La1 O1 2.514549 1_555
La2 O11 2.378736 1_455
La2 O9 2.425173 1_455
La2 O7 2.441296 1_555
La2 O2 2.445193 1_555
La2 O0 2.458215 1_554
La2 O3 2.514549 1_555
La3 O0 2.378736 1_655
La3 O2 2.425173 1_655
La3 O4 2.441296 1_555
La3 O9 2.445193 1_555
La3 O11 2.458215 1_556
La3 O8 2.514549 1_555
La4 O8 2.378736 1_565
La4 O6 2.425173 1_565
La4 O9 2.441296 1_555
La4 O5 2.445193 1_555
La4 O3 2.458215 1_655
La4 O10 2.514549 1_555
La5 O1 2.378736 1_554
La5 O4 2.425173 1_554
La5 O6 2.441295 1_555
La5 O7 2.445193 1_555
La5 O10 2.458215 1_545
La5 O11 2.514549 1_555
O0 Sc0 2.193993 1_566
O1 Sc0 2.193993 1_556
O2 Sc1 2.156409 1_555
O3 Sc0 2.193993 1_565
O4 Sc1 2.156409 1_555
O5 Sc1 2.156409 1_555
O6 Sc1 2.156409 1_555
O7 Sc1 2.156409 1_555
O8 Sc0 2.193993 1_656
O9 Sc1 2.156409 1_555
O10 Sc0 2.193993 1_665
O11 Sc0 2.193993 1_655
