# generated using pymatgen
data_LiCoSiO4
_symmetry_space_group_name_H-M   'P 1'
_cell_length_a   5.17601706
_cell_length_b   5.17601706
_cell_length_c   6.58061600
_cell_angle_alpha   90.00000000
_cell_angle_beta   90.00000000
_cell_angle_gamma   90.65209582
_symmetry_Int_Tables_number   1
_chemical_formula_structural   LiCoSiO4
_chemical_formula_sum   'Li2 Co2 Si2 O8'
_cell_volume   176.29086903
_cell_formula_units_Z   2
loop_
 _symmetry_equiv_pos_site_id
 _symmetry_equiv_pos_as_xyz
  1  'x, y, z'
loop_
 _atom_site_type_symbol
 _atom_site_label
 _atom_site_symmetry_multiplicity
 _atom_site_fract_x
 _atom_site_fract_y
 _atom_site_fract_z
 _atom_site_occupancy
  Li  Li0  1  0.19081500  0.19081500  0.00000000  1
  Li  Li1  1  0.80918500  0.80918500  0.50000000  1
  Co  Co0  1  0.18677800  0.18677800  0.50000000  1
  Co  Co1  1  0.81322200  0.81322200  0.00000000  1
  Si  Si0  1  0.31334300  0.68665700  0.25000000  1
  Si  Si1  1  0.68665700  0.31334300  0.75000000  1
  O  O0  1  0.17248000  0.80493300  0.04690600  1
  O  O1  1  0.19506700  0.82752000  0.45309400  1
  O  O2  1  0.25702800  0.37291300  0.26485300  1
  O  O3  1  0.37291300  0.25702800  0.73514700  1
  O  O4  1  0.62708700  0.74297200  0.23514700  1
  O  O5  1  0.74297200  0.62708700  0.76485300  1
  O  O6  1  0.80493300  0.17248000  0.95309400  1
  O  O7  1  0.82752000  0.19506700  0.54690600  1
loop_
_geom_bond_atom_site_label_1
_geom_bond_atom_site_label_2
_geom_bond_distance
_geom_bond_site_symmetry_2
Li0 O3 2.009024 1_554
Li0 O2 2.009024 1_555
Li0 O0 2.022203 1_545
Li0 O6 2.022203 1_454
Li1 O4 2.009024 1_555
Li1 O5 2.009024 1_555
Li1 O1 2.022203 1_655
Li1 O7 2.022203 1_565
Co0 O3 1.856593 1_555
Co0 O2 1.856593 1_555
Co0 O1 1.885940 1_545
Co0 O7 1.885940 1_455
Co1 O4 1.856593 1_555
Co1 O5 1.856593 1_554
Co1 O0 1.885940 1_655
Co1 O6 1.885940 1_564
O0 Si0 1.644000 1_555
O1 Si0 1.644000 1_555
O2 Si0 1.649527 1_555
O3 Si1 1.649527 1_555
O4 Si0 1.649527 1_555
O5 Si1 1.649527 1_555
O6 Si1 1.644000 1_555
O7 Si1 1.644000 1_555
