# generated using pymatgen
data_HoHO2
_symmetry_space_group_name_H-M   'P 1'
_cell_length_a   3.49076017
_cell_length_b   5.02020349
_cell_length_c   10.75131296
_cell_angle_alpha   90.00000000
_cell_angle_beta   90.00000000
_cell_angle_gamma   90.00000000
_symmetry_Int_Tables_number   1
_chemical_formula_structural   HoHO2
_chemical_formula_sum   'Ho4 H4 O8'
_cell_volume   188.40951741
_cell_formula_units_Z   4
loop_
 _symmetry_equiv_pos_site_id
 _symmetry_equiv_pos_as_xyz
  1  'x, y, z'
loop_
 _atom_site_type_symbol
 _atom_site_label
 _atom_site_symmetry_multiplicity
 _atom_site_fract_x
 _atom_site_fract_y
 _atom_site_fract_z
 _atom_site_occupancy
  Ho  Ho0  1  0.25000000  0.10233555  0.85523264  1
  Ho  Ho1  1  0.25000000  0.39766445  0.35523264  1
  Ho  Ho2  1  0.75000000  0.60233555  0.64476736  1
  Ho  Ho3  1  0.75000000  0.89766445  0.14476736  1
  H  H0  1  0.25000000  0.13958119  0.59886509  1
  H  H1  1  0.25000000  0.36041881  0.09886509  1
  H  H2  1  0.75000000  0.63958119  0.90113491  1
  H  H3  1  0.75000000  0.86041881  0.40113491  1
  O  O0  1  0.25000000  0.17423654  0.06806970  1
  O  O1  1  0.75000000  0.15123983  0.31079518  1
  O  O2  1  0.75000000  0.34876017  0.81079518  1
  O  O3  1  0.25000000  0.32576346  0.56806970  1
  O  O4  1  0.75000000  0.67423654  0.43193030  1
  O  O5  1  0.25000000  0.65123983  0.18920482  1
  O  O6  1  0.25000000  0.84876017  0.68920482  1
  O  O7  1  0.75000000  0.82576346  0.93193030  1
loop_
_geom_bond_atom_site_label_1
_geom_bond_atom_site_label_2
_geom_bond_distance
_geom_bond_site_symmetry_2
Ho0 O2 2.192037 1_555
Ho0 O2 2.192037 1_455
Ho0 O6 2.192445 1_545
Ho0 O0 2.316572 1_556
Ho0 O7 2.377836 1_445
Ho0 O7 2.377836 1_545
Ho1 O1 2.192037 1_455
Ho1 O1 2.192037 1_555
Ho1 O5 2.192445 1_555
Ho1 O3 2.316572 1_555
Ho1 O4 2.377836 1_455
Ho1 O4 2.377836 1_555
Ho2 O6 2.192037 1_555
Ho2 O6 2.192037 1_655
Ho2 O2 2.192445 1_555
Ho2 O4 2.316572 1_555
Ho2 O3 2.377836 1_655
Ho2 O3 2.377836 1_555
Ho3 O5 2.192037 1_655
Ho3 O5 2.192037 1_555
Ho3 O1 2.192445 1_565
Ho3 O7 2.316572 1_554
Ho3 O0 2.377836 1_565
Ho3 O0 2.377836 1_665
H0 O3 0.991582 1_555
H0 O6 1.753542 1_545
H1 O0 0.991582 1_555
H1 O5 1.753542 1_555
H2 O7 0.991582 1_555
H2 O2 1.753542 1_555
H3 O4 0.991582 1_555
H3 O1 1.753542 1_565
