# generated using pymatgen
data_Sm3NbO7
_symmetry_space_group_name_H-M   'P 1'
_cell_length_a   6.47972909
_cell_length_b   6.59309949
_cell_length_c   7.70894869
_cell_angle_alpha   106.84611576
_cell_angle_beta   89.82501897
_cell_angle_gamma   97.37305510
_symmetry_Int_Tables_number   1
_chemical_formula_structural   Sm3NbO7
_chemical_formula_sum   'Sm6 Nb2 O14'
_cell_volume   312.39636170
_cell_formula_units_Z   2
loop_
 _symmetry_equiv_pos_site_id
 _symmetry_equiv_pos_as_xyz
  1  'x, y, z'
loop_
 _atom_site_type_symbol
 _atom_site_label
 _atom_site_symmetry_multiplicity
 _atom_site_fract_x
 _atom_site_fract_y
 _atom_site_fract_z
 _atom_site_occupancy
  Sm  Sm0  1  0.73839114  0.46401640  0.11705053  1
  Sm  Sm1  1  0.73900227  0.46026686  0.61037970  1
  Sm  Sm2  1  0.54687898  0.99317160  0.74954881  1
  Sm  Sm3  1  0.45312102  0.00682840  0.25045119  1
  Sm  Sm4  1  0.26099773  0.53973314  0.38962030  1
  Sm  Sm5  1  0.26160886  0.53598360  0.88294947  1
  Nb  Nb0  1  0.00000000  0.00000000  0.00000000  1
  Nb  Nb1  1  0.00000000  0.00000000  0.50000000  1
  O  O0  1  0.71171231  0.06940627  0.48486470  1
  O  O1  1  0.92175928  0.68027474  0.94446680  1
  O  O2  1  0.71077322  0.07028557  0.04919261  1
  O  O3  1  0.92370939  0.67377949  0.39757333  1
  O  O4  1  0.91740062  0.96140280  0.73946753  1
  O  O5  1  0.55848251  0.35127683  0.83536923  1
  O  O6  1  0.54471068  0.36299383  0.34198912  1
  O  O7  1  0.45528932  0.63700617  0.65801088  1
  O  O8  1  0.44151749  0.64872317  0.16463077  1
  O  O9  1  0.08259938  0.03859720  0.26053247  1
  O  O10  1  0.07629061  0.32622051  0.60242667  1
  O  O11  1  0.28922678  0.92971443  0.95080739  1
  O  O12  1  0.07824072  0.31972526  0.05553320  1
  O  O13  1  0.28828769  0.93059373  0.51513530  1
loop_
_geom_bond_atom_site_label_1
_geom_bond_atom_site_label_2
_geom_bond_distance
_geom_bond_site_symmetry_2
Nb0 O11 1.996884 1_544
Nb0 O2 1.996884 1_455
Nb0 O4 2.015041 1_444
Nb0 O9 2.015041 1_555
Nb0 O1 2.021846 1_444
Nb0 O12 2.021846 1_555
Nb1 O0 1.991032 1_455
Nb1 O13 1.991032 1_545
Nb1 O4 1.997595 1_445
Nb1 O9 1.997595 1_555
Nb1 O3 2.058876 1_445
Nb1 O10 2.058876 1_555
O0 Sm3 2.377464 1_555
O0 Sm2 2.449515 1_545
O0 Sm1 2.459107 1_555
O1 Sm0 2.422765 1_556
O1 Sm5 2.499825 1_655
O1 Sm1 2.748069 1_555
O2 Sm3 2.355969 1_555
O2 Sm2 2.432660 1_544
O2 Sm0 2.477634 1_555
O3 Sm0 2.426383 1_555
O3 Sm4 2.454571 1_655
O3 Sm1 2.645655 1_555
O4 Sm2 2.435699 1_555
O5 Sm2 2.251037 1_545
O5 Sm1 2.321016 1_555
O5 Sm0 2.341860 1_556
O5 Sm5 2.378249 1_555
O6 Sm3 2.246956 1_555
O6 Sm4 2.273764 1_555
O6 Sm1 2.305791 1_555
O6 Sm0 2.338189 1_555
O7 Sm2 2.246956 1_555
O7 Sm1 2.273764 1_555
O7 Sm4 2.305791 1_555
O7 Sm5 2.338189 1_555
O8 Sm3 2.251037 1_565
O8 Sm4 2.321016 1_555
O8 Sm5 2.341860 1_554
O8 Sm0 2.378249 1_555
O9 Sm3 2.435699 1_555
O10 Sm5 2.426383 1_555
O10 Sm1 2.454571 1_455
O10 Sm4 2.645655 1_555
O11 Sm2 2.355969 1_555
O11 Sm3 2.432660 1_566
O11 Sm5 2.477634 1_555
O12 Sm5 2.422765 1_554
O12 Sm0 2.499825 1_455
O12 Sm4 2.748069 1_555
O13 Sm2 2.377464 1_555
O13 Sm3 2.449515 1_565
O13 Sm4 2.459107 1_555
