# generated using pymatgen
data_LiCoPO4
_symmetry_space_group_name_H-M   'P 1'
_cell_length_a   4.82865500
_cell_length_b   7.44600300
_cell_length_c   4.82865500
_cell_angle_alpha   90.00003912
_cell_angle_beta   89.99996440
_cell_angle_gamma   90.00000769
_symmetry_Int_Tables_number   1
_chemical_formula_structural   LiCoPO4
_chemical_formula_sum   'Li2 Co2 P2 O8'
_cell_volume   173.61032917
_cell_formula_units_Z   2
loop_
 _symmetry_equiv_pos_site_id
 _symmetry_equiv_pos_as_xyz
  1  'x, y, z'
loop_
 _atom_site_type_symbol
 _atom_site_label
 _atom_site_symmetry_multiplicity
 _atom_site_fract_x
 _atom_site_fract_y
 _atom_site_fract_z
 _atom_site_occupancy
  Li  Li0  1  0.50000000  0.00000000  0.50000000  1
  Li  Li1  1  0.00000000  0.50000000  0.00000000  1
  Co  Co0  1  0.50000000  0.50000000  0.50000000  1
  Co  Co1  1  0.00000000  0.00000000  0.00000000  1
  P  P0  1  0.50000000  0.25000000  0.00000000  1
  P  P1  1  0.00000000  0.74999900  0.50000000  1
  O  O0  1  0.30936900  0.13137800  0.18504700  1
  O  O1  1  0.80937200  0.63138100  0.68504200  1
  O  O2  1  0.31495900  0.36861900  0.80937200  1
  O  O3  1  0.81495300  0.86862200  0.30936800  1
  O  O4  1  0.69063100  0.13137800  0.81495400  1
  O  O5  1  0.19062800  0.63138100  0.31495900  1
  O  O6  1  0.68504100  0.36861900  0.19062800  1
  O  O7  1  0.18504700  0.86862300  0.69063100  1
loop_
_geom_bond_atom_site_label_1
_geom_bond_atom_site_label_2
_geom_bond_distance
_geom_bond_site_symmetry_2
Li0 O7 2.029058 1_545
Li0 O0 2.029062 1_555
Li0 O3 2.029063 1_545
Li0 O4 2.029065 1_555
Li1 O1 2.029085 1_454
Li1 O2 2.029087 1_554
Li1 O6 2.029087 1_455
Li1 O5 2.029087 1_555
Co0 O6 1.996729 1_555
Co0 O2 1.996730 1_555
Co0 O5 1.996731 1_555
Co0 O1 1.996732 1_555
Co1 O7 1.996716 1_544
Co1 O3 1.996717 1_445
Co1 O4 1.996720 1_454
Co1 O0 1.996721 1_555
O0 P0 1.557512 1_555
O1 P1 1.557473 1_655
O2 P0 1.557475 1_556
O3 P1 1.557520 1_655
O4 P0 1.557509 1_556
O5 P1 1.557470 1_555
O6 P0 1.557474 1_555
O7 P1 1.557521 1_555
