# generated using pymatgen
data_Na5LiFe2P2(CO7)2
_symmetry_space_group_name_H-M   'P 1'
_cell_length_a   6.60255100
_cell_length_b   8.98842294
_cell_length_c   10.38355686
_cell_angle_alpha   90.97070026
_cell_angle_beta   90.19428682
_cell_angle_gamma   90.56235836
_symmetry_Int_Tables_number   1
_chemical_formula_structural   Na5LiFe2P2(CO7)2
_chemical_formula_sum   'Na10 Li2 Fe4 P4 C4 O28'
_cell_volume   616.10596199
_cell_formula_units_Z   2
loop_
 _symmetry_equiv_pos_site_id
 _symmetry_equiv_pos_as_xyz
  1  'x, y, z'
loop_
 _atom_site_type_symbol
 _atom_site_label
 _atom_site_symmetry_multiplicity
 _atom_site_fract_x
 _atom_site_fract_y
 _atom_site_fract_z
 _atom_site_occupancy
  Na  Na0  1  0.24609200  0.91756100  0.62946400  1
  Na  Na1  1  0.24860800  0.91684500  0.13098500  1
  Na  Na2  1  0.49865600  0.73997100  0.37427800  1
  Na  Na3  1  0.00106500  0.73949200  0.87466200  1
  Na  Na4  1  0.49928100  0.73893700  0.87424300  1
  Na  Na5  1  0.50134400  0.26002900  0.62572200  1
  Na  Na6  1  0.50071900  0.26106300  0.12575700  1
  Na  Na7  1  0.99893500  0.26050800  0.12533800  1
  Na  Na8  1  0.75390800  0.08243900  0.37053600  1
  Na  Na9  1  0.75139200  0.08315500  0.86901500  1
  Li  Li0  1  0.00403200  0.73171000  0.37258800  1
  Li  Li1  1  0.99596900  0.26829000  0.62741200  1
  Fe  Fe0  1  0.75009000  0.64441200  0.64117800  1
  Fe  Fe1  1  0.75193800  0.64493800  0.14377200  1
  Fe  Fe2  1  0.24991000  0.35558800  0.35882200  1
  Fe  Fe3  1  0.24806200  0.35506200  0.85622800  1
  P  P0  1  0.24332300  0.58525700  0.59827900  1
  P  P1  1  0.24988100  0.58644800  0.10140600  1
  P  P2  1  0.75667700  0.41474300  0.40172100  1
  P  P3  1  0.75011900  0.41355200  0.89859400  1
  C  C0  1  0.75712400  0.94265900  0.61544100  1
  C  C1  1  0.75071100  0.93968900  0.11657300  1
  C  C2  1  0.24287600  0.05734100  0.38455900  1
  C  C3  1  0.24928900  0.06031100  0.88342700  1
  O  O0  1  0.23484900  0.91277200  0.39144000  1
  O  O1  1  0.25158600  0.91663600  0.89126900  1
  O  O2  1  0.75018100  0.87901900  0.72702500  1
  O  O3  1  0.75188200  0.87692000  0.22886700  1
  O  O4  1  0.75512600  0.85971400  0.51137900  1
  O  O5  1  0.75184000  0.85673200  0.01287100  1
  O  O6  1  0.06138500  0.68205100  0.64356400  1
  O  O7  1  0.43685800  0.67550700  0.64064000  1
  O  O8  1  0.06432300  0.68143700  0.14526800  1
  O  O9  1  0.44008000  0.68114600  0.14202100  1
  O  O10  1  0.23847900  0.57169300  0.44815500  1
  O  O11  1  0.76391700  0.57170400  0.34225800  1
  O  O12  1  0.24721300  0.56704400  0.95191700  1
  O  O13  1  0.74996600  0.56726400  0.83541700  1
  O  O14  1  0.23608300  0.42829600  0.65774200  1
  O  O15  1  0.76152100  0.42830700  0.55184500  1
  O  O16  1  0.25003400  0.43273600  0.16458300  1
  O  O17  1  0.75278700  0.43295600  0.04808300  1
  O  O18  1  0.56314200  0.32449300  0.35936000  1
  O  O19  1  0.93861500  0.31794900  0.35643600  1
  O  O20  1  0.55992000  0.31885400  0.85797900  1
  O  O21  1  0.93567700  0.31856300  0.85473200  1
  O  O22  1  0.24487400  0.14028600  0.48862100  1
  O  O23  1  0.24816000  0.14326800  0.98712900  1
  O  O24  1  0.24981900  0.12098100  0.27297500  1
  O  O25  1  0.24811800  0.12308000  0.77113300  1
  O  O26  1  0.76515100  0.08722800  0.60856000  1
  O  O27  1  0.74841400  0.08336400  0.10873100  1
loop_
_geom_bond_atom_site_label_1
_geom_bond_atom_site_label_2
_geom_bond_distance
_geom_bond_site_symmetry_2
Na0 O25 2.341773 1_565
Na0 O6 2.439437 1_555
Na0 O0 2.472032 1_555
Na0 O22 2.499211 1_565
Na0 O7 2.528808 1_555
Na0 O1 2.718741 1_555
Na1 O24 2.334200 1_565
Na1 O8 2.437422 1_555
Na1 O9 2.481827 1_555
Na1 O1 2.489218 1_554
Na1 O23 2.544864 1_564
Na1 O0 2.707138 1_555
Na2 O11 2.346140 1_555
Na2 O0 2.350300 1_555
Na2 O10 2.413392 1_555
Na2 O4 2.438947 1_555
Na2 O9 2.488308 1_555
Na2 O3 2.574892 1_555
Na2 O7 2.865153 1_555
Na3 O13 2.287973 1_455
Na3 O1 2.288671 1_555
Na3 O12 2.402110 1_555
Na3 O5 2.424163 1_456
Na3 O6 2.480302 1_555
Na3 O2 2.599139 1_455
Na3 O8 2.896207 1_556
Na4 O1 2.302319 1_555
Na4 O13 2.305804 1_555
Na4 O12 2.410058 1_555
Na4 O5 2.423046 1_556
Na4 O7 2.514032 1_555
Na4 O2 2.589949 1_555
Na4 O9 2.864620 1_556
Na5 O14 2.346140 1_555
Na5 O26 2.350300 1_555
Na5 O15 2.413392 1_555
Na5 O22 2.438947 1_555
Na5 O20 2.488308 1_555
Na5 O25 2.574892 1_555
Na5 O18 2.865153 1_555
Na6 O27 2.302319 1_555
Na6 O16 2.305804 1_555
Na6 O17 2.410058 1_555
Na6 O23 2.423046 1_554
Na6 O18 2.514032 1_555
Na6 O24 2.589949 1_555
Na6 O20 2.864620 1_554
Na7 O16 2.287973 1_655
Na7 O27 2.288671 1_555
Na7 O17 2.402110 1_555
Na7 O23 2.424163 1_654
Na7 O19 2.480302 1_555
Na7 O24 2.599139 1_655
Na7 O21 2.896207 1_554
Na8 O3 2.341773 1_545
Na8 O19 2.439437 1_555
Na8 O26 2.472032 1_555
Na8 O4 2.499211 1_545
Na8 O18 2.528808 1_555
Na8 O27 2.718741 1_555
Na9 O2 2.334200 1_545
Na9 O21 2.437422 1_555
Na9 O20 2.481827 1_555
Na9 O27 2.489218 1_556
Na9 O5 2.544864 1_546
Na9 O26 2.707138 1_555
Li0 O11 2.148841 1_455
Li0 O0 2.224402 1_555
Li0 O10 2.270295 1_555
Li0 O8 2.430609 1_555
Li0 O4 2.469510 1_455
Li0 O3 2.606550 1_455
Li1 O14 2.148837 1_655
Li1 O26 2.224407 1_555
Li1 O15 2.270300 1_555
Li1 O21 2.430610 1_555
Li1 O22 2.469506 1_655
Li1 O25 2.606546 1_655
Fe0 O6 2.079716 1_655
Fe0 O7 2.089649 1_555
Fe0 O15 2.140448 1_555
Fe0 O13 2.143851 1_555
Fe0 O2 2.275453 1_555
Fe0 O4 2.376997 1_555
Fe1 O8 2.085248 1_655
Fe1 O9 2.087839 1_555
Fe1 O17 2.133974 1_555
Fe1 O11 2.175575 1_555
Fe1 O3 2.250818 1_555
Fe1 O5 2.357799 1_555
Fe2 O19 2.079716 1_455
Fe2 O18 2.089649 1_555
Fe2 O10 2.140448 1_555
Fe2 O16 2.143851 1_555
Fe2 O24 2.275453 1_555
Fe2 O22 2.376997 1_555
Fe3 O21 2.085248 1_455
Fe3 O20 2.087839 1_555
Fe3 O12 2.133974 1_555
Fe3 O14 2.175575 1_555
Fe3 O25 2.250818 1_555
Fe3 O23 2.357799 1_555
C0 O2 1.301560 1_555
C0 O4 1.302298 1_555
C0 O26 1.303187 1_565
C1 O27 1.295586 1_565
C1 O5 1.299423 1_555
C1 O3 1.303944 1_555
C2 O24 1.301560 1_555
C2 O22 1.302298 1_555
C2 O0 1.303187 1_545
C3 O1 1.295586 1_545
C3 O23 1.299423 1_555
C3 O25 1.303944 1_555
O6 P0 1.559342 1_555
O7 P0 1.564645 1_555
O8 P1 1.564786 1_555
O9 P1 1.562903 1_555
O10 P0 1.561716 1_555
O11 P2 1.549952 1_555
O12 P1 1.559077 1_556
O13 P3 1.539470 1_555
O14 P0 1.549952 1_555
O15 P2 1.561716 1_555
O16 P1 1.539470 1_555
O17 P3 1.559077 1_554
O18 P2 1.564645 1_555
O19 P2 1.559342 1_555
O20 P3 1.562903 1_555
O21 P3 1.564786 1_555
