# generated using pymatgen
data_LiVF4
_symmetry_space_group_name_H-M   'P 1'
_cell_length_a   4.56527415
_cell_length_b   5.59724147
_cell_length_c   9.96628800
_cell_angle_alpha   90.00000000
_cell_angle_beta   90.00000000
_cell_angle_gamma   90.00000000
_symmetry_Int_Tables_number   1
_chemical_formula_structural   LiVF4
_chemical_formula_sum   'Li4 V4 F16'
_cell_volume   254.66797717
_cell_formula_units_Z   4
loop_
 _symmetry_equiv_pos_site_id
 _symmetry_equiv_pos_as_xyz
  1  'x, y, z'
loop_
 _atom_site_type_symbol
 _atom_site_label
 _atom_site_symmetry_multiplicity
 _atom_site_fract_x
 _atom_site_fract_y
 _atom_site_fract_z
 _atom_site_occupancy
  Li  Li0  1  -0.00000000  0.81097017  0.25000000  1
  Li  Li1  1  -0.00000000  0.18902983  0.75000000  1
  Li  Li2  1  0.50000000  0.31097017  0.25000000  1
  Li  Li3  1  0.50000000  0.68902983  0.75000000  1
  V  V0  1  -0.00000000  0.50000000  -0.00000000  1
  V  V1  1  -0.00000000  0.50000000  0.50000000  1
  V  V2  1  0.50000000  -0.00000000  -0.00000000  1
  V  V3  1  0.50000000  -0.00000000  0.50000000  1
  F  F0  1  0.22132968  0.51943138  0.34021272  1
  F  F1  1  0.22132968  0.48056862  0.84021272  1
  F  F2  1  0.22811394  0.77306304  0.07990576  1
  F  F3  1  0.22811394  0.22693696  0.57990576  1
  F  F4  1  0.27188606  0.27306304  0.07990576  1
  F  F5  1  0.27188606  0.72693696  0.57990576  1
  F  F6  1  0.27867032  0.01943138  0.34021272  1
  F  F7  1  0.27867032  0.98056862  0.84021272  1
  F  F8  1  0.72132968  0.01943138  0.15978728  1
  F  F9  1  0.72132968  0.98056862  0.65978728  1
  F  F10  1  0.72811394  0.27306304  0.42009424  1
  F  F11  1  0.72811394  0.72693696  0.92009424  1
  F  F12  1  0.77188606  0.22693696  0.92009424  1
  F  F13  1  0.77188606  0.77306304  0.42009424  1
  F  F14  1  0.77867032  0.51943138  0.15978728  1
  F  F15  1  0.77867032  0.48056862  0.65978728  1
loop_
_geom_bond_atom_site_label_1
_geom_bond_atom_site_label_2
_geom_bond_distance
_geom_bond_site_symmetry_2
F0 V1 1.889130 1_555
F0 Li2 1.946357 1_555
F0 Li0 2.119467 1_555
F1 V0 1.889130 1_556
F1 Li3 1.946357 1_555
F1 Li1 2.119467 1_555
F2 V2 1.946361 1_565
F2 Li0 2.000817 1_555
F2 V0 2.013634 1_555
F3 V3 1.946361 1_555
F3 Li1 2.000817 1_555
F3 V1 2.013634 1_555
F4 V0 1.946361 1_555
F4 Li2 2.000817 1_555
F4 V2 2.013634 1_555
F5 V1 1.946361 1_555
F5 Li3 2.000817 1_555
F5 V3 2.013634 1_565
F6 V3 1.889130 1_555
F6 Li0 1.946357 1_545
F6 Li2 2.119467 1_555
F7 V2 1.889130 1_566
F7 Li1 1.946357 1_565
F7 Li3 2.119467 1_555
F8 V2 1.889130 1_555
F8 Li0 1.946357 1_645
F8 Li2 2.119467 1_555
F9 V3 1.889130 1_565
F9 Li1 1.946357 1_665
F9 Li3 2.119467 1_555
F10 V1 1.946361 1_655
F10 Li2 2.000817 1_555
F10 V3 2.013634 1_555
F11 V0 1.946361 1_656
F11 Li3 2.000817 1_555
F11 V2 2.013634 1_566
F12 V2 1.946361 1_556
F12 Li1 2.000817 1_655
F12 V0 2.013634 1_656
F13 V3 1.946361 1_565
F13 Li0 2.000817 1_655
F13 V1 2.013634 1_655
F14 V0 1.889130 1_655
F14 Li2 1.946357 1_555
F14 Li0 2.119467 1_655
F15 V1 1.889130 1_655
F15 Li3 1.946357 1_555
F15 Li1 2.119467 1_655
