# generated using pymatgen
data_Li4Ni2C4SO16
_symmetry_space_group_name_H-M   'P 1'
_cell_length_a   9.66290362
_cell_length_b   9.58966464
_cell_length_c   9.27853995
_cell_angle_alpha   61.58499187
_cell_angle_beta   60.79243977
_cell_angle_gamma   57.62256836
_symmetry_Int_Tables_number   1
_chemical_formula_structural   Li4Ni2C4SO16
_chemical_formula_sum   'Li8 Ni4 C8 S2 O32'
_cell_volume   606.36473657
_cell_formula_units_Z   2
loop_
 _symmetry_equiv_pos_site_id
 _symmetry_equiv_pos_as_xyz
  1  'x, y, z'
loop_
 _atom_site_type_symbol
 _atom_site_label
 _atom_site_symmetry_multiplicity
 _atom_site_fract_x
 _atom_site_fract_y
 _atom_site_fract_z
 _atom_site_occupancy
  Li  Li0  1  0.45940400  0.04059600  0.45940400  1
  Li  Li1  1  0.04215600  0.45784400  0.45784400  1
  Li  Li2  1  0.79215600  0.20784400  0.20784400  1
  Li  Li3  1  0.20940400  0.79059600  0.20940400  1
  Li  Li4  1  0.04059600  0.45940400  0.04059600  1
  Li  Li5  1  0.45784400  0.04215600  0.04215600  1
  Li  Li6  1  0.20784400  0.79215600  0.79215600  1
  Li  Li7  1  0.79059600  0.20940400  0.79059600  1
  Ni  Ni0  1  0.62500000  0.62500000  0.62500000  1
  Ni  Ni1  1  0.62500000  0.62500000  0.12500000  1
  Ni  Ni2  1  0.62500000  0.12500000  0.62500000  1
  Ni  Ni3  1  0.12500000  0.62500000  0.62500000  1
  C  C0  1  0.41353000  0.40975400  0.39393100  1
  C  C1  1  0.84024600  0.83647000  0.46721600  1
  C  C2  1  0.39393100  0.78278400  0.41353000  1
  C  C3  1  0.78278400  0.39393100  0.40975400  1
  C  C4  1  0.46721600  0.85606900  0.84024600  1
  C  C5  1  0.85606900  0.46721600  0.83647000  1
  C  C6  1  0.40975400  0.41353000  0.78278400  1
  C  C7  1  0.83647000  0.84024600  0.85606900  1
  S  S0  1  0.00000000  0.00000000  0.00000000  1
  S  S1  1  0.25000000  0.25000000  0.25000000  1
  O  O0  1  0.43059500  0.26619000  0.51499500  1
  O  O1  1  0.80639100  0.07777900  0.05840100  1
  O  O2  1  0.54597100  0.42043800  0.26059700  1
  O  O3  1  0.82956200  0.70402900  0.47700700  1
  O  O4  1  0.26059700  0.77299300  0.54597100  1
  O  O5  1  0.71041100  0.98419600  0.45830500  1
  O  O6  1  0.05840100  0.05742900  0.80639100  1
  O  O7  1  0.07777900  0.80639100  0.05742900  1
  O  O8  1  0.84708700  0.45830500  0.98419600  1
  O  O9  1  0.77299300  0.26059700  0.42043800  1
  O  O10  1  0.98381000  0.81940500  0.46178000  1
  O  O11  1  0.05742900  0.05840100  0.07777900  1
  O  O12  1  0.51499500  0.78822000  0.43059500  1
  O  O13  1  0.78822000  0.51499500  0.26619000  1
  O  O14  1  0.26580400  0.53958900  0.40291300  1
  O  O15  1  0.45830500  0.84708700  0.71041100  1
  O  O16  1  0.79169500  0.40291300  0.53958900  1
  O  O17  1  0.98419600  0.71041100  0.84708700  1
  O  O18  1  0.46178000  0.73500500  0.98381000  1
  O  O19  1  0.73500500  0.46178000  0.81940500  1
  O  O20  1  0.19257100  0.19159900  0.17222100  1
  O  O21  1  0.26619000  0.43059500  0.78822000  1
  O  O22  1  0.47700700  0.98940300  0.82956200  1
  O  O23  1  0.40291300  0.79169500  0.26580400  1
  O  O24  1  0.17222100  0.44360900  0.19257100  1
  O  O25  1  0.19159900  0.19257100  0.44360900  1
  O  O26  1  0.53958900  0.26580400  0.79169500  1
  O  O27  1  0.98940300  0.47700700  0.70402900  1
  O  O28  1  0.42043800  0.54597100  0.77299300  1
  O  O29  1  0.70402900  0.82956200  0.98940300  1
  O  O30  1  0.44360900  0.17222100  0.19159900  1
  O  O31  1  0.81940500  0.98381000  0.73500500  1
loop_
_geom_bond_atom_site_label_1
_geom_bond_atom_site_label_2
_geom_bond_distance
_geom_bond_site_symmetry_2
Li0 O5 2.179824 1_545
Li0 O15 2.179827 1_545
Li0 O25 2.229299 1_555
Li0 O30 2.229299 1_555
Li0 O12 2.302300 1_545
Li0 O0 2.302300 1_555
Li1 O3 2.161974 1_455
Li1 O27 2.161977 1_455
Li1 O24 2.184814 1_555
Li1 O25 2.184814 1_555
Li1 O16 2.429749 1_455
Li1 O14 2.429758 1_555
Li2 O9 2.161968 1_555
Li2 O2 2.161973 1_555
Li2 O11 2.184814 1_655
Li2 O1 2.184814 1_555
Li2 O8 2.429751 1_554
Li2 O5 2.429755 1_545
Li3 O14 2.179827 1_555
Li3 O23 2.179833 1_555
Li3 O7 2.229299 1_555
Li3 O11 2.229299 1_565
Li3 O18 2.302300 1_554
Li3 O10 2.302300 1_455
Li4 O17 2.179827 1_454
Li4 O8 2.179833 1_454
Li4 O24 2.229299 1_555
Li4 O20 2.229299 1_555
Li4 O13 2.302300 1_455
Li4 O21 2.302300 1_554
Li5 O22 2.161968 1_544
Li5 O29 2.161973 1_544
Li5 O30 2.184814 1_555
Li5 O20 2.184814 1_555
Li5 O23 2.429751 1_545
Li5 O26 2.429755 1_554
Li6 O28 2.161974 1_555
Li6 O4 2.161977 1_555
Li6 O7 2.184814 1_556
Li6 O6 2.184814 1_565
Li6 O15 2.429749 1_555
Li6 O17 2.429758 1_455
Li7 O26 2.179824 1_555
Li7 O16 2.179827 1_555
Li7 O6 2.229299 1_655
Li7 O1 2.229299 1_556
Li7 O31 2.302300 1_545
Li7 O19 2.302300 1_555
Ni0 O19 2.058123 1_555
Ni0 O12 2.058123 1_555
Ni0 O3 2.081368 1_555
Ni0 O28 2.081368 1_555
Ni0 O15 2.108278 1_555
Ni0 O16 2.108278 1_555
Ni1 O18 2.058123 1_554
Ni1 O13 2.058123 1_555
Ni1 O29 2.081368 1_554
Ni1 O2 2.081368 1_555
Ni1 O23 2.108282 1_555
Ni1 O8 2.108282 1_554
Ni2 O31 2.058123 1_545
Ni2 O0 2.058123 1_555
Ni2 O9 2.081363 1_555
Ni2 O22 2.081363 1_545
Ni2 O26 2.108285 1_555
Ni2 O5 2.108285 1_545
Ni3 O10 2.058123 1_455
Ni3 O21 2.058123 1_555
Ni3 O4 2.081360 1_555
Ni3 O27 2.081360 1_455
Ni3 O17 2.108277 1_455
Ni3 O14 2.108277 1_555
C0 O0 1.284608 1_555
C0 O2 1.285862 1_555
C0 O14 1.293828 1_555
C1 O10 1.284604 1_555
C1 O3 1.285862 1_555
C1 O5 1.293828 1_555
C2 O12 1.284613 1_555
C2 O4 1.285862 1_555
C2 O23 1.293820 1_555
C3 O13 1.284608 1_555
C3 O9 1.285862 1_555
C3 O16 1.293838 1_555
C4 O18 1.284608 1_555
C4 O22 1.285862 1_555
C4 O15 1.293838 1_555
C5 O19 1.284613 1_555
C5 O27 1.285862 1_555
C5 O8 1.293820 1_555
C6 O21 1.284604 1_555
C6 O28 1.285862 1_555
C6 O26 1.293828 1_555
C7 O31 1.284608 1_555
C7 O29 1.285862 1_555
C7 O17 1.293828 1_555
O1 S0 1.500256 1_655
O6 S0 1.500256 1_556
O7 S0 1.500256 1_565
O11 S0 1.500256 1_555
O20 S1 1.500256 1_555
O24 S1 1.500256 1_555
O25 S1 1.500256 1_555
O30 S1 1.500256 1_555
