# generated using pymatgen
data_Tb2(WO4)3
_symmetry_space_group_name_H-M   'P 1'
_cell_length_a   6.95846450
_cell_length_b   6.95846450
_cell_length_c   11.44850080
_cell_angle_alpha   79.13326657
_cell_angle_beta   79.13326657
_cell_angle_gamma   111.97316103
_symmetry_Int_Tables_number   1
_chemical_formula_structural   Tb2(WO4)3
_chemical_formula_sum   'Tb4 W6 O24'
_cell_volume   483.99672520
_cell_formula_units_Z   2
loop_
 _symmetry_equiv_pos_site_id
 _symmetry_equiv_pos_as_xyz
  1  'x, y, z'
loop_
 _atom_site_type_symbol
 _atom_site_label
 _atom_site_symmetry_multiplicity
 _atom_site_fract_x
 _atom_site_fract_y
 _atom_site_fract_z
 _atom_site_occupancy
  Tb  Tb0  1  0.71117300  0.95878000  0.09411300  1
  Tb  Tb1  1  0.95878000  0.71117300  0.59411300  1
  Tb  Tb2  1  0.04122000  0.28882700  0.40588700  1
  Tb  Tb3  1  0.28882700  0.04122000  0.90588700  1
  W  W0  1  0.54074700  0.75434600  0.45183700  1
  W  W1  1  0.75434600  0.54074700  0.95183700  1
  W  W2  1  0.13187900  0.86812100  0.25000000  1
  W  W3  1  0.86812100  0.13187900  0.75000000  1
  W  W4  1  0.24565400  0.45925300  0.04816300  1
  W  W5  1  0.45925300  0.24565400  0.54816300  1
  O  O0  1  0.54772800  0.90606100  0.30064800  1
  O  O1  1  0.86836400  0.78953200  0.22231600  1
  O  O2  1  0.08051000  0.66062900  0.39318200  1
  O  O3  1  0.76885500  0.33295100  0.06283600  1
  O  O4  1  0.81703100  0.92116100  0.46350000  1
  O  O5  1  0.52803200  0.60616400  0.07462900  1
  O  O6  1  0.90606100  0.54772800  0.80064800  1
  O  O7  1  0.39383500  0.47196800  0.42537100  1
  O  O8  1  0.07883900  0.18296900  0.03650000  1
  O  O9  1  0.66704900  0.23114500  0.43716400  1
  O  O10  1  0.33937100  0.91949000  0.10681800  1
  O  O11  1  0.78953200  0.86836400  0.72231600  1
  O  O12  1  0.21046800  0.13163600  0.27768400  1
  O  O13  1  0.66062900  0.08051000  0.89318200  1
  O  O14  1  0.33295100  0.76885500  0.56283600  1
  O  O15  1  0.92116100  0.81703100  0.96350000  1
  O  O16  1  0.60616400  0.52803200  0.57462900  1
  O  O17  1  0.09393900  0.45227200  0.19935200  1
  O  O18  1  0.47196800  0.39383500  0.92537100  1
  O  O19  1  0.18296900  0.07883900  0.53650000  1
  O  O20  1  0.23114500  0.66704900  0.93716400  1
  O  O21  1  0.91949000  0.33937100  0.60681800  1
  O  O22  1  0.13163600  0.21046800  0.77768400  1
  O  O23  1  0.45227200  0.09393900  0.69935200  1
loop_
_geom_bond_atom_site_label_1
_geom_bond_atom_site_label_2
_geom_bond_distance
_geom_bond_site_symmetry_2
O0 W0 1.831331 1_555
O0 Tb0 2.316412 1_555
O1 W2 1.815458 1_655
O1 Tb0 2.378071 1_555
O2 W2 1.843886 1_555
O2 Tb1 2.434370 1_455
O2 Tb2 2.470455 1_555
O3 W1 1.783425 1_554
O3 Tb0 2.424989 1_545
O4 W0 1.883216 1_555
O4 Tb2 2.324454 1_665
O4 Tb1 2.480889 1_555
O5 W4 1.958529 1_555
O5 W1 2.146261 1_554
O5 Tb0 2.380720 1_555
O6 W1 1.831331 1_555
O6 Tb1 2.316412 1_555
O7 W0 1.958530 1_555
O7 W5 2.146265 1_555
O7 Tb2 2.380714 1_555
O8 W4 1.883216 1_555
O8 Tb0 2.324454 1_445
O8 Tb3 2.480889 1_554
O9 W5 1.783425 1_555
O9 Tb2 2.424989 1_655
O10 W2 1.843886 1_555
O10 Tb3 2.434370 1_564
O10 Tb0 2.470455 1_555
O11 W3 1.815458 1_565
O11 Tb1 2.378071 1_555
O12 W2 1.815458 1_545
O12 Tb2 2.378071 1_555
O13 W3 1.843886 1_555
O13 Tb0 2.434370 1_546
O13 Tb3 2.470455 1_555
O14 W0 1.783425 1_555
O14 Tb1 2.424989 1_455
O15 W1 1.883216 1_555
O15 Tb3 2.324454 1_665
O15 Tb0 2.480889 1_556
O16 W5 1.958529 1_555
O16 W0 2.146261 1_555
O16 Tb1 2.380720 1_555
O17 W4 1.831331 1_555
O17 Tb2 2.316412 1_555
O18 W1 1.958530 1_555
O18 W4 2.146265 1_556
O18 Tb3 2.380714 1_555
O19 W5 1.883216 1_555
O19 Tb1 2.324454 1_445
O19 Tb2 2.480889 1_555
O20 W4 1.783425 1_556
O20 Tb3 2.424989 1_565
O21 W3 1.843886 1_555
O21 Tb2 2.434370 1_655
O21 Tb1 2.470455 1_555
O22 W3 1.815458 1_455
O22 Tb3 2.378071 1_555
O23 W5 1.831331 1_555
O23 Tb3 2.316412 1_555
