# generated using pymatgen
data_LiVBO4
_symmetry_space_group_name_H-M   'P 1'
_cell_length_a   3.11395300
_cell_length_b   9.08791700
_cell_length_c   9.41504400
_cell_angle_alpha   90.00000000
_cell_angle_beta   90.00000000
_cell_angle_gamma   90.00000000
_symmetry_Int_Tables_number   1
_chemical_formula_structural   LiVBO4
_chemical_formula_sum   'Li4 V4 B4 O16'
_cell_volume   266.43959158
_cell_formula_units_Z   4
loop_
 _symmetry_equiv_pos_site_id
 _symmetry_equiv_pos_as_xyz
  1  'x, y, z'
loop_
 _atom_site_type_symbol
 _atom_site_label
 _atom_site_symmetry_multiplicity
 _atom_site_fract_x
 _atom_site_fract_y
 _atom_site_fract_z
 _atom_site_occupancy
  Li  Li0  1  0.75000000  0.12199200  0.93492100  1
  Li  Li1  1  0.25000000  0.37800800  0.43492100  1
  Li  Li2  1  0.75000000  0.62199200  0.56507900  1
  Li  Li3  1  0.25000000  0.87800800  0.06507900  1
  V  V0  1  0.75000000  0.10756900  0.29088600  1
  V  V1  1  0.25000000  0.39243100  0.79088600  1
  V  V2  1  0.75000000  0.60756900  0.20911400  1
  V  V3  1  0.25000000  0.89243100  0.70911400  1
  B  B0  1  0.75000000  0.16504400  0.61456800  1
  B  B1  1  0.25000000  0.33495600  0.11456800  1
  B  B2  1  0.75000000  0.66504400  0.88543200  1
  B  B3  1  0.25000000  0.83495600  0.38543200  1
  O  O0  1  0.75000000  0.02521300  0.13067900  1
  O  O1  1  0.75000000  0.01127700  0.63242700  1
  O  O2  1  0.75000000  0.22564400  0.48452200  1
  O  O3  1  0.75000000  0.24868800  0.74132100  1
  O  O4  1  0.25000000  0.25131200  0.24132100  1
  O  O5  1  0.25000000  0.27435600  0.98452200  1
  O  O6  1  0.25000000  0.48872300  0.13242700  1
  O  O7  1  0.25000000  0.47478700  0.63067900  1
  O  O8  1  0.75000000  0.52521300  0.36932100  1
  O  O9  1  0.75000000  0.51127700  0.86757300  1
  O  O10  1  0.75000000  0.72564400  0.01547800  1
  O  O11  1  0.75000000  0.74868800  0.75867900  1
  O  O12  1  0.25000000  0.75131200  0.25867900  1
  O  O13  1  0.25000000  0.77435600  0.51547800  1
  O  O14  1  0.25000000  0.98872300  0.36757300  1
  O  O15  1  0.25000000  0.97478700  0.86932100  1
loop_
_geom_bond_atom_site_label_1
_geom_bond_atom_site_label_2
_geom_bond_distance
_geom_bond_site_symmetry_2
Li0 O0 2.042171 1_556
Li0 O5 2.135316 1_655
Li0 O5 2.135316 1_555
Li0 O15 2.143668 1_545
Li0 O15 2.143668 1_645
Li0 O3 2.155958 1_555
Li1 O7 2.042171 1_555
Li1 O2 2.135316 1_455
Li1 O2 2.135316 1_555
Li1 O8 2.143668 1_455
Li1 O8 2.143668 1_555
Li1 O4 2.155958 1_555
Li2 O8 2.042171 1_555
Li2 O13 2.135316 1_555
Li2 O13 2.135316 1_655
Li2 O7 2.143668 1_655
Li2 O7 2.143668 1_555
Li2 O11 2.155958 1_555
Li3 O15 2.042171 1_554
Li3 O10 2.135316 1_455
Li3 O10 2.135316 1_555
Li3 O0 2.143668 1_565
Li3 O0 2.143668 1_465
Li3 O12 2.155958 1_555
B0 O2 1.342546 1_555
B0 O1 1.407501 1_555
B0 O3 1.414919 1_555
B1 O5 1.342546 1_554
B1 O6 1.407501 1_555
B1 O4 1.414919 1_555
B2 O10 1.342546 1_556
B2 O9 1.407501 1_555
B2 O11 1.414919 1_555
B3 O13 1.342546 1_555
B3 O14 1.407501 1_555
B3 O12 1.414919 1_555
O0 V0 1.683837 1_555
O1 V3 2.027810 1_645
O1 V3 2.027810 1_545
O2 V0 2.115446 1_555
O3 V1 2.085288 1_555
O3 V1 2.085288 1_655
O4 V0 2.085288 1_455
O4 V0 2.085288 1_555
O5 V1 2.115446 1_555
O6 V2 2.027810 1_555
O6 V2 2.027810 1_455
O7 V1 1.683837 1_555
O8 V2 1.683837 1_555
O9 V1 2.027810 1_655
O9 V1 2.027810 1_555
O10 V2 2.115446 1_555
O11 V3 2.085288 1_555
O11 V3 2.085288 1_655
O12 V2 2.085288 1_455
O12 V2 2.085288 1_555
O13 V3 2.115446 1_555
O14 V0 2.027810 1_465
O14 V0 2.027810 1_565
O15 V3 1.683837 1_555
