# generated using pymatgen
data_LiSiBiO4
_symmetry_space_group_name_H-M   'P 1'
_cell_length_a   8.98396396
_cell_length_b   8.98396396
_cell_length_c   8.36298700
_cell_angle_alpha   90.00000000
_cell_angle_beta   90.00000000
_cell_angle_gamma   119.99999968
_symmetry_Int_Tables_number   1
_chemical_formula_structural   LiSiBiO4
_chemical_formula_sum   'Li6 Si6 Bi6 O24'
_cell_volume   584.55860309
_cell_formula_units_Z   6
loop_
 _symmetry_equiv_pos_site_id
 _symmetry_equiv_pos_as_xyz
  1  'x, y, z'
loop_
 _atom_site_type_symbol
 _atom_site_label
 _atom_site_symmetry_multiplicity
 _atom_site_fract_x
 _atom_site_fract_y
 _atom_site_fract_z
 _atom_site_occupancy
  Li  Li0  1  0.02705700  0.68448800  0.25713500  1
  Li  Li1  1  0.31551200  0.34256900  0.25713500  1
  Li  Li2  1  0.65743100  0.97294300  0.25713500  1
  Li  Li3  1  0.34256900  0.02705700  0.75713500  1
  Li  Li4  1  0.68448800  0.65743100  0.75713500  1
  Li  Li5  1  0.97294300  0.31551200  0.75713500  1
  Si  Si0  1  0.02327300  0.67666500  0.87104500  1
  Si  Si1  1  0.32333500  0.34660700  0.87104500  1
  Si  Si2  1  0.65339300  0.97672700  0.87104500  1
  Si  Si3  1  0.34660700  0.02327300  0.37104500  1
  Si  Si4  1  0.67666500  0.65339300  0.37104500  1
  Si  Si5  1  0.97672700  0.32333500  0.37104500  1
  Bi  Bi0  1  0.33333300  0.66666700  0.99604200  1
  Bi  Bi1  1  0.33333300  0.66666700  0.54760900  1
  Bi  Bi2  1  0.00000000  0.00000000  0.94674600  1
  Bi  Bi3  1  0.00000000  0.00000000  0.44674600  1
  Bi  Bi4  1  0.66666700  0.33333300  0.49604200  1
  Bi  Bi5  1  0.66666700  0.33333300  0.04760900  1
  O  O0  1  0.07931500  0.86405300  0.78167400  1
  O  O1  1  0.11572000  0.73166700  0.04798600  1
  O  O2  1  0.10958900  0.57223700  0.78426600  1
  O  O3  1  0.24441000  0.81185800  0.38849000  1
  O  O4  1  0.18814200  0.43255200  0.38849000  1
  O  O5  1  0.13594700  0.21526200  0.78167400  1
  O  O6  1  0.46264700  0.89041100  0.78426600  1
  O  O7  1  0.26833300  0.38405200  0.04798600  1
  O  O8  1  0.61594800  0.88428000  0.04798600  1
  O  O9  1  0.21526200  0.07931500  0.28167400  1
  O  O10  1  0.42776300  0.53735300  0.78426600  1
  O  O11  1  0.56744800  0.75559000  0.38849000  1
  O  O12  1  0.43255200  0.24441000  0.88849000  1
  O  O13  1  0.57223700  0.46264700  0.28426600  1
  O  O14  1  0.78473800  0.92068500  0.78167400  1
  O  O15  1  0.38405200  0.11572000  0.54798600  1
  O  O16  1  0.73166700  0.61594800  0.54798600  1
  O  O17  1  0.53735300  0.10958900  0.28426600  1
  O  O18  1  0.86405300  0.78473800  0.28167400  1
  O  O19  1  0.81185800  0.56744800  0.88849000  1
  O  O20  1  0.75559000  0.18814200  0.88849000  1
  O  O21  1  0.89041100  0.42776300  0.28426600  1
  O  O22  1  0.88428000  0.26833300  0.54798600  1
  O  O23  1  0.92068500  0.13594700  0.28167400  1
loop_
_geom_bond_atom_site_label_1
_geom_bond_atom_site_label_2
_geom_bond_distance
_geom_bond_site_symmetry_2
Li0 O1 1.880400 1_555
Li0 O21 2.011631 1_455
Li0 O3 2.023538 1_555
Li0 O18 2.077673 1_455
Li1 O7 1.880397 1_555
Li1 O13 2.011631 1_555
Li1 O4 2.023538 1_555
Li1 O9 2.077673 1_555
Li2 O8 1.880400 1_555
Li2 O17 2.011623 1_565
Li2 O11 2.023538 1_555
Li2 O23 2.077673 1_565
Li3 O15 1.880400 1_555
Li3 O6 2.011623 1_545
Li3 O12 2.023538 1_555
Li3 O0 2.077673 1_545
Li4 O16 1.880397 1_555
Li4 O10 2.011631 1_555
Li4 O19 2.023538 1_555
Li4 O14 2.077673 1_555
Li5 O22 1.880400 1_555
Li5 O2 2.011631 1_655
Li5 O20 2.023538 1_555
Li5 O5 2.077673 1_655
Bi0 O1 2.343822 1_556
Bi0 O8 2.343834 1_556
Bi0 O7 2.343839 1_556
Bi0 O10 2.488309 1_555
Bi0 O2 2.488309 1_555
Bi0 O6 2.488309 1_555
Bi1 O3 2.269909 1_555
Bi1 O4 2.269915 1_555
Bi1 O11 2.269916 1_555
Bi1 O10 2.640460 1_555
Bi1 O2 2.640460 1_555
Bi1 O6 2.640460 1_555
Bi2 O0 2.185286 1_545
Bi2 O14 2.185286 1_445
Bi2 O5 2.185286 1_555
Bi3 O23 2.185286 1_455
Bi3 O9 2.185286 1_555
Bi3 O18 2.185286 1_445
Bi4 O22 2.343822 1_555
Bi4 O15 2.343834 1_555
Bi4 O16 2.343839 1_555
Bi4 O13 2.488309 1_555
Bi4 O21 2.488309 1_555
Bi4 O17 2.488309 1_555
Bi5 O20 2.269909 1_554
Bi5 O19 2.269915 1_554
Bi5 O12 2.269916 1_554
Bi5 O13 2.640460 1_555
Bi5 O21 2.640460 1_555
Bi5 O17 2.640460 1_555
O0 Si0 1.672913 1_555
O1 Si0 1.647193 1_554
O2 Si0 1.654001 1_555
O3 Si3 1.651639 1_565
O4 Si5 1.651639 1_455
O5 Si1 1.672911 1_555
O6 Si2 1.654016 1_555
O7 Si1 1.647193 1_554
O8 Si2 1.647193 1_554
O9 Si3 1.672906 1_555
O10 Si1 1.654015 1_555
O11 Si4 1.651631 1_555
O12 Si1 1.651631 1_555
O13 Si4 1.654015 1_555
O14 Si2 1.672906 1_555
O15 Si3 1.647193 1_555
O16 Si4 1.647193 1_555
O17 Si3 1.654016 1_555
O18 Si4 1.672911 1_555
O19 Si0 1.651639 1_655
O20 Si2 1.651639 1_545
O21 Si5 1.654001 1_555
O22 Si5 1.647193 1_555
O23 Si5 1.672913 1_555
