# generated using pymatgen
data_Li9V12Cr7O48
_symmetry_space_group_name_H-M   'P 1'
_cell_length_a   5.03389500
_cell_length_b   10.21616999
_cell_length_c   17.13602200
_cell_angle_alpha   89.90253172
_cell_angle_beta   89.48523783
_cell_angle_gamma   89.91595335
_symmetry_Int_Tables_number   1
_chemical_formula_structural   Li9V12Cr7O48
_chemical_formula_sum   'Li9 V12 Cr7 O48'
_cell_volume   881.21861042
_cell_formula_units_Z   1
loop_
 _symmetry_equiv_pos_site_id
 _symmetry_equiv_pos_as_xyz
  1  'x, y, z'
loop_
 _atom_site_type_symbol
 _atom_site_label
 _atom_site_symmetry_multiplicity
 _atom_site_fract_x
 _atom_site_fract_y
 _atom_site_fract_z
 _atom_site_occupancy
  Li  Li0  1  0.09735500  0.25050900  0.25033900  1
  Li  Li1  1  0.25023300  0.41833000  0.96957100  1
  Li  Li2  1  0.25250800  0.58160200  0.47189100  1
  Li  Li3  1  0.25371400  0.91877800  0.47233800  1
  Li  Li4  1  0.24394100  0.25410800  0.80339000  1
  Li  Li5  1  0.75310300  0.75115000  0.19274800  1
  Li  Li6  1  0.75203400  0.91917000  0.02855600  1
  Li  Li7  1  0.75021600  0.25128100  0.70073200  1
  Li  Li8  1  0.90116300  0.75047800  0.74884700  1
  V  V0  1  0.22403300  0.74900300  0.94396500  1
  V  V1  1  0.22496200  0.02866900  0.65498600  1
  V  V2  1  0.22364400  0.47188500  0.65466500  1
  V  V3  1  0.28667700  0.52661800  0.15424300  1
  V  V4  1  0.28554100  0.97372900  0.15747100  1
  V  V5  1  0.28723300  0.25069800  0.44384800  1
  V  V6  1  0.71470500  0.75016500  0.55829800  1
  V  V7  1  0.71583900  0.47298800  0.84259000  1
  V  V8  1  0.71605300  0.02565400  0.84612700  1
  V  V9  1  0.77257200  0.52919000  0.34305600  1
  V  V10  1  0.77422700  0.97066000  0.34372400  1
  V  V11  1  0.77563700  0.24890600  0.05611200  1
  Cr  Cr0  1  0.23747100  0.75347800  0.29775300  1
  Cr  Cr1  1  0.24447800  0.06886500  0.97465900  1
  Cr  Cr2  1  0.40433300  0.74926200  0.75072500  1
  Cr  Cr3  1  0.59713200  0.24892600  0.24855900  1
  Cr  Cr4  1  0.76302400  0.06727600  0.52711500  1
  Cr  Cr5  1  0.76059700  0.43282600  0.52792600  1
  Cr  Cr6  1  0.76013300  0.56847400  0.02310000  1
  O  O0  1  0.06553900  0.23601000  0.99608800  1
  O  O1  1  0.05998100  0.61663500  0.36620000  1
  O  O2  1  0.06070900  0.88281600  0.36865300  1
  O  O3  1  0.09922200  0.62766900  0.21322400  1
  O  O4  1  0.08420800  0.87433400  0.21733300  1
  O  O5  1  0.08216800  0.11850300  0.46564400  1
  O  O6  1  0.08032500  0.38201600  0.46575300  1
  O  O7  1  0.09244500  0.00970400  0.07381700  1
  O  O8  1  0.07356100  0.49592800  0.07680600  1
  O  O9  1  0.16700700  0.74739500  0.84349800  1
  O  O10  1  0.17191800  0.62084800  0.70425100  1
  O  O11  1  0.17612600  0.87830400  0.70601900  1
  O  O12  1  0.36923800  0.12281200  0.20775000  1
  O  O13  1  0.36601900  0.38143400  0.20401200  1
  O  O14  1  0.36547800  0.25106100  0.34482500  1
  O  O15  1  0.43692600  0.49687800  0.57370700  1
  O  O16  1  0.43656000  0.00293400  0.57474400  1
  O  O17  1  0.40035000  0.89146800  0.96631600  1
  O  O18  1  0.44058700  0.62305400  0.96611400  1
  O  O19  1  0.39932000  0.12569100  0.71227700  1
  O  O20  1  0.40813800  0.37551500  0.70953900  1
  O  O21  1  0.41408700  0.11087500  0.88074400  1
  O  O22  1  0.45179300  0.38344100  0.87144300  1
  O  O23  1  0.45287800  0.75016200  0.49791900  1
  O  O24  1  0.58165300  0.24960300  0.50779300  1
  O  O25  1  0.57974000  0.60971100  0.12046300  1
  O  O26  1  0.55415700  0.88834100  0.13004100  1
  O  O27  1  0.55980100  0.62668600  0.29128500  1
  O  O28  1  0.55389900  0.87461100  0.29362200  1
  O  O29  1  0.56110700  0.12315000  0.03367400  1
  O  O30  1  0.60180500  0.39259200  0.03408800  1
  O  O31  1  0.60268600  0.01459700  0.42985200  1
  O  O32  1  0.60238400  0.48552800  0.42886000  1
  O  O33  1  0.62873800  0.75157600  0.65755000  1
  O  O34  1  0.62845900  0.62372800  0.79276200  1
  O  O35  1  0.63288200  0.88117200  0.79673700  1
  O  O36  1  0.82900500  0.11874000  0.29266400  1
  O  O37  1  0.82494000  0.37996400  0.29090800  1
  O  O38  1  0.83121100  0.24746600  0.15708800  1
  O  O39  1  0.91354700  0.51117300  0.92927400  1
  O  O40  1  0.92858700  0.99423800  0.92573600  1
  O  O41  1  0.90977900  0.60745700  0.53803500  1
  O  O42  1  0.91004700  0.89328900  0.53745600  1
  O  O43  1  0.89510500  0.12198600  0.78757700  1
  O  O44  1  0.91580900  0.38148700  0.78506200  1
  O  O45  1  0.92221000  0.11346500  0.62053000  1
  O  O46  1  0.92160600  0.38475400  0.61926200  1
  O  O47  1  0.93370500  0.73652300  0.00566700  1
loop_
_geom_bond_atom_site_label_1
_geom_bond_atom_site_label_2
_geom_bond_distance
_geom_bond_site_symmetry_2
Li0 O12 2.021815 1_555
Li0 O37 2.023253 1_455
Li0 O36 2.036520 1_455
Li0 O13 2.056871 1_555
Li0 O38 2.094774 1_455
Li0 O14 2.117211 1_555
Li1 O22 1.988559 1_555
Li1 O39 2.064717 1_455
Li1 O30 2.111001 1_556
Li1 O0 2.129509 1_555
Li1 O8 2.183948 1_556
Li1 O18 2.302279 1_555
Li2 O23 2.048779 1_555
Li2 O41 2.072568 1_455
Li2 O1 2.091853 1_555
Li2 O32 2.140819 1_555
Li2 O15 2.162559 1_555
Li2 O6 2.219778 1_555
Li3 O23 2.040821 1_555
Li3 O2 2.066408 1_555
Li3 O42 2.066748 1_455
Li3 O31 2.133984 1_565
Li3 O16 2.168472 1_565
Li3 O5 2.217660 1_565
Li4 O22 2.057110 1_555
Li4 O44 2.126522 1_455
Li4 O21 2.154528 1_555
Li4 O19 2.180058 1_555
Li4 O20 2.186393 1_555
Li4 O43 2.235091 1_455
Li5 O26 2.032753 1_555
Li5 O25 2.100725 1_555
Li5 O4 2.135381 1_655
Li5 O3 2.180192 1_655
Li5 O27 2.319832 1_555
Li5 O28 2.357323 1_555
Li6 O26 2.020797 1_555
Li6 O17 2.094789 1_554
Li6 O7 2.103421 1_665
Li6 O40 2.109898 1_554
Li6 O47 2.112580 1_555
Li6 O29 2.295052 1_565
Li7 O43 2.121650 1_555
Li7 O46 2.127924 1_555
Li7 O44 2.141027 1_555
Li7 O20 2.142063 1_555
Li7 O45 2.145317 1_555
Li7 O19 2.192016 1_555
Li8 O34 2.027531 1_555
Li8 O11 2.035580 1_655
Li8 O10 2.043257 1_655
Li8 O35 2.063629 1_555
Li8 O33 2.089678 1_555
Li8 O9 2.112168 1_655
Cr0 O2 1.999090 1_555
Cr0 O4 2.007311 1_555
Cr0 O28 2.019191 1_555
Cr0 O1 2.026743 1_555
Cr0 O3 2.064335 1_555
Cr0 O27 2.077018 1_555
Cr1 O21 1.864709 1_555
Cr1 O7 1.952613 1_556
Cr1 O40 1.960199 1_445
Cr1 O0 1.963090 1_555
Cr1 O29 1.975896 1_556
Cr1 O17 1.978710 1_545
Cr2 O34 1.855736 1_555
Cr2 O11 1.911137 1_555
Cr2 O10 1.936205 1_555
Cr2 O35 1.945722 1_555
Cr2 O33 1.947679 1_555
Cr2 O9 1.980097 1_555
Cr3 O12 1.867318 1_555
Cr3 O37 1.912221 1_555
Cr3 O36 1.926241 1_555
Cr3 O13 1.943348 1_555
Cr3 O38 1.952542 1_555
Cr3 O14 2.011724 1_555
Cr4 O45 1.858482 1_555
Cr4 O42 1.932876 1_545
Cr4 O31 1.935840 1_555
Cr4 O16 1.943239 1_555
Cr4 O5 1.983588 1_655
Cr4 O24 2.100271 1_555
Cr5 O46 1.834875 1_555
Cr5 O15 1.916767 1_555
Cr5 O41 1.945289 1_555
Cr5 O32 1.956003 1_555
Cr5 O6 1.990868 1_655
Cr5 O24 2.108777 1_555
Cr6 O39 1.871815 1_554
Cr6 O25 1.939005 1_555
Cr6 O47 1.948870 1_555
Cr6 O18 1.968681 1_554
Cr6 O30 1.974756 1_555
Cr6 O8 1.976344 1_655
O0 V11 1.782669 1_456
O1 V9 1.750391 1_455
O2 V10 1.753153 1_455
O3 V3 1.720831 1_555
O4 V4 1.758216 1_555
O5 V5 1.739098 1_555
O6 V5 1.736699 1_555
O7 V4 1.776800 1_545
O8 V3 1.742992 1_555
O9 V0 1.748024 1_555
O10 V2 1.762110 1_555
O11 V1 1.782592 1_565
O12 V4 1.803444 1_545
O13 V3 1.756956 1_555
O14 V5 1.738523 1_555
O15 V2 1.765029 1_555
O16 V1 1.751710 1_555
O17 V0 1.750594 1_555
O18 V0 1.729073 1_555
O19 V1 1.654684 1_555
O20 V2 1.651029 1_555
O21 V8 1.844493 1_555
O22 V7 1.684727 1_555
O23 V6 1.682904 1_555
O24 V5 1.851073 1_555
O25 V3 1.794075 1_555
O26 V4 1.672373 1_555
O27 V9 1.713838 1_555
O28 V10 1.718503 1_555
O29 V11 1.725645 1_555
O30 V11 1.750206 1_555
O31 V10 1.761709 1_545
O32 V9 1.752447 1_555
O33 V6 1.751282 1_555
O34 V7 1.815045 1_555
O35 V8 1.755778 1_565
O36 V10 1.767083 1_545
O37 V9 1.786452 1_555
O38 V11 1.755309 1_555
O39 V7 1.838159 1_555
O40 V8 1.769847 1_565
O41 V6 1.789360 1_555
O42 V6 1.796829 1_555
O43 V8 1.664502 1_555
O44 V7 1.685669 1_555
O45 V1 1.852640 1_655
O46 V2 1.869354 1_655
O47 V0 1.800679 1_654
