# generated using pymatgen
data_Li3Mn3WO8
_symmetry_space_group_name_H-M   'P 1'
_cell_length_a   6.10644125
_cell_length_b   6.10644125
_cell_length_c   6.10644151
_cell_angle_alpha   62.02236275
_cell_angle_beta   62.02236275
_cell_angle_gamma   62.02235926
_symmetry_Int_Tables_number   1
_chemical_formula_structural   Li3Mn3WO8
_chemical_formula_sum   'Li3 Mn3 W1 O8'
_cell_volume   168.29088488
_cell_formula_units_Z   1
loop_
 _symmetry_equiv_pos_site_id
 _symmetry_equiv_pos_as_xyz
  1  'x, y, z'
loop_
 _atom_site_type_symbol
 _atom_site_label
 _atom_site_symmetry_multiplicity
 _atom_site_fract_x
 _atom_site_fract_y
 _atom_site_fract_z
 _atom_site_occupancy
  Li  Li0  1  0.00000000  0.00000000  0.50000000  1
  Li  Li1  1  0.00000000  0.50000000  0.00000000  1
  Li  Li2  1  0.50000000  0.00000000  0.00000000  1
  Mn  Mn0  1  0.50000000  0.50000000  0.00000000  1
  Mn  Mn1  1  0.50000000  0.00000000  0.50000000  1
  Mn  Mn2  1  0.00000000  0.50000000  0.50000000  1
  W  W0  1  0.00000000  0.00000000  0.00000000  1
  O  O0  1  0.73402800  0.73402800  0.73402800  1
  O  O1  1  0.22368100  0.22368100  0.78229800  1
  O  O2  1  0.22368100  0.78229800  0.22368100  1
  O  O3  1  0.26597200  0.26597200  0.26597200  1
  O  O4  1  0.78229800  0.22368100  0.22368100  1
  O  O5  1  0.77631900  0.77631900  0.21770200  1
  O  O6  1  0.77631900  0.21770200  0.77631900  1
  O  O7  1  0.21770200  0.77631900  0.77631900  1
loop_
_geom_bond_atom_site_label_1
_geom_bond_atom_site_label_2
_geom_bond_distance
_geom_bond_site_symmetry_2
Li0 O7 2.172215 1_545
Li0 O6 2.172215 1_455
Li0 O4 2.172215 1_455
Li0 O2 2.172215 1_545
Li0 O0 2.331840 1_445
Li0 O3 2.331840 1_555
Li1 O5 2.172215 1_455
Li1 O1 2.172215 1_554
Li1 O7 2.172215 1_554
Li1 O4 2.172215 1_455
Li1 O3 2.331840 1_555
Li1 O0 2.331840 1_454
Li2 O5 2.172215 1_545
Li2 O1 2.172215 1_554
Li2 O6 2.172215 1_554
Li2 O2 2.172215 1_545
Li2 O3 2.331840 1_555
Li2 O0 2.331840 1_544
Mn0 O3 2.069567 1_555
Mn0 O0 2.069567 1_554
Mn0 O2 2.236530 1_555
Mn0 O4 2.236530 1_555
Mn0 O7 2.236530 1_554
Mn0 O6 2.236530 1_554
Mn1 O0 2.069567 1_545
Mn1 O3 2.069567 1_555
Mn1 O1 2.236530 1_555
Mn1 O5 2.236530 1_545
Mn1 O4 2.236530 1_555
Mn1 O7 2.236530 1_545
Mn2 O0 2.069567 1_455
Mn2 O3 2.069567 1_555
Mn2 O1 2.236530 1_555
Mn2 O5 2.236530 1_455
Mn2 O2 2.236530 1_555
Mn2 O6 2.236530 1_455
O1 W0 1.960028 1_556
O2 W0 1.960028 1_565
O4 W0 1.960028 1_655
O5 W0 1.960028 1_665
O6 W0 1.960028 1_656
O7 W0 1.960028 1_566
