# generated using pymatgen
data_Li3Cr4(PO4)6
_symmetry_space_group_name_H-M   'P 1'
_cell_length_a   10.14327765
_cell_length_b   10.14327765
_cell_length_c   10.14327765
_cell_angle_alpha   109.88241392
_cell_angle_beta   109.41294665
_cell_angle_gamma   109.11921707
_symmetry_Int_Tables_number   1
_chemical_formula_structural   Li3Cr4(PO4)6
_chemical_formula_sum   'Li6 Cr8 P12 O48'
_cell_volume   803.32896772
_cell_formula_units_Z   2
loop_
 _symmetry_equiv_pos_site_id
 _symmetry_equiv_pos_as_xyz
  1  'x, y, z'
loop_
 _atom_site_type_symbol
 _atom_site_label
 _atom_site_symmetry_multiplicity
 _atom_site_fract_x
 _atom_site_fract_y
 _atom_site_fract_z
 _atom_site_occupancy
  Li  Li0  1  0.25000000  0.12739900  0.87739900  1
  Li  Li1  1  0.25000000  0.62525300  0.37525300  1
  Li  Li2  1  0.62798000  0.25000000  0.87798000  1
  Li  Li3  1  0.75000000  0.37260100  0.62260100  1
  Li  Li4  1  0.75000000  0.87474700  0.12474700  1
  Li  Li5  1  0.87202000  0.75000000  0.62202000  1
  Cr  Cr0  1  0.00087000  0.00162700  0.00335600  1
  Cr  Cr1  1  0.00100100  0.00141300  0.49834600  1
  Cr  Cr2  1  0.49899900  0.99734500  0.00041200  1
  Cr  Cr3  1  0.49827100  0.99751400  0.49664400  1
  Cr  Cr4  1  0.00306700  0.50265500  0.00165400  1
  Cr  Cr5  1  0.00172900  0.49837300  0.49924300  1
  Cr  Cr6  1  0.49913000  0.50248600  0.00075700  1
  Cr  Cr7  1  0.49693300  0.49858700  0.49958800  1
  P  P0  1  0.37563700  0.12563700  0.25000000  1
  P  P1  1  0.75000000  0.12586700  0.37586700  1
  P  P2  1  0.25000000  0.37413300  0.12413300  1
  P  P3  1  0.37580500  0.25000000  0.62580500  1
  P  P4  1  0.87225200  0.25000000  0.12225200  1
  P  P5  1  0.12436300  0.37436300  0.75000000  1
  P  P6  1  0.87351900  0.62351900  0.25000000  1
  P  P7  1  0.12419500  0.75000000  0.87419500  1
  P  P8  1  0.62774800  0.75000000  0.37774800  1
  P  P9  1  0.75000000  0.62469200  0.87469200  1
  P  P10  1  0.25000000  0.87530800  0.62530800  1
  P  P11  1  0.62648100  0.87648100  0.75000000  1
  O  O0  1  0.20349600  0.10854600  0.49958200  1
  O  O1  1  0.40665500  0.10986700  0.10700100  1
  O  O2  1  0.38892600  0.00665900  0.80201100  1
  O  O3  1  0.20154400  0.09271200  0.20242400  1
  O  O4  1  0.88654300  0.08542400  0.38357300  1
  O  O5  1  0.90431100  0.10759600  0.11009600  1
  O  O6  1  0.11310200  0.19776300  0.99687200  1
  O  O7  1  0.29814800  0.41457600  0.30111900  1
  O  O8  1  0.38689800  0.38377000  0.08466100  1
  O  O9  1  0.41386100  0.29639100  0.80326800  1
  O  O10  1  0.79910900  0.30223700  0.41533900  1
  O  O11  1  0.60952600  0.00361700  0.70465100  1
  O  O12  1  0.09334500  0.20034600  0.70321200  1
  O  O13  1  0.69633700  0.20069600  0.08383500  1
  O  O14  1  0.00249900  0.39240400  0.29671500  1
  O  O15  1  0.88313900  0.29930400  0.99564100  1
  O  O16  1  0.50286600  0.29965400  0.39299900  1
  O  O17  1  0.70089100  0.11623000  0.50312800  1
  O  O18  1  0.20185200  0.50297000  0.11642700  1
  O  O19  1  0.39103700  0.39145400  0.59495000  1
  O  O20  1  0.29845600  0.50088000  0.89116800  1
  O  O21  1  0.99713400  0.39013300  0.79678800  1
  O  O22  1  0.89047400  0.59512400  0.39409000  1
  O  O23  1  0.50687700  0.20360900  0.61747000  1
  O  O24  1  0.49750100  0.79421600  0.38990400  1
  O  O25  1  0.10971200  0.40728800  0.60883200  1
  O  O26  1  0.00406700  0.61118600  0.20586500  1
  O  O27  1  0.70103400  0.49638300  0.10591000  1
  O  O28  1  0.61686100  0.61250200  0.41616500  1
  O  O29  1  0.79535100  0.49334100  0.88226600  1
  O  O30  1  0.29659100  0.88380000  0.49646300  1
  O  O31  1  0.49593300  0.70179700  0.60711900  1
  O  O32  1  0.10896300  0.70391300  0.00041800  1
  O  O33  1  0.99312300  0.61059400  0.69673200  1
  O  O34  1  0.29650400  0.79608700  0.90505000  1
  O  O35  1  0.90532100  0.79820300  0.29413500  1
  O  O36  1  0.39028800  0.99912000  0.29757600  1
  O  O37  1  0.20340900  0.69987200  0.58720900  1
  O  O38  1  0.59568900  0.70578400  0.20328500  1
  O  O39  1  0.61266400  0.61620000  0.91279100  1
  O  O40  1  0.70464900  0.58691500  0.69798900  1
  O  O41  1  0.88733600  0.80012800  0.00353700  1
  O  O42  1  0.08613900  0.88940600  0.88253000  1
  O  O43  1  0.11107400  0.91308500  0.61773400  1
  O  O44  1  0.79896600  0.90487600  0.79534900  1
  O  O45  1  0.61345700  0.99703000  0.19888100  1
  O  O46  1  0.59467900  0.88881400  0.89288100  1
  O  O47  1  0.80366300  0.88749800  0.50435900  1
loop_
_geom_bond_atom_site_label_1
_geom_bond_atom_site_label_2
_geom_bond_distance
_geom_bond_site_symmetry_2
Li0 O6 2.255149 1_555
Li0 O8 2.255149 1_556
Li0 O43 2.297864 1_545
Li0 O2 2.297870 1_555
Li0 O12 2.446875 1_555
Li0 O1 2.446875 1_556
Li0 O9 2.471305 1_555
Li0 O42 2.471313 1_545
Li1 O7 2.281519 1_555
Li1 O18 2.281529 1_555
Li1 O30 2.285015 1_555
Li1 O37 2.285015 1_555
Li1 O26 2.438485 1_555
Li1 O31 2.438488 1_555
Li1 O14 2.453989 1_555
Li1 O24 2.453994 1_555
Li2 O13 2.250734 1_556
Li2 O15 2.250734 1_555
Li2 O9 2.308821 1_555
Li2 O23 2.308821 1_555
Li2 O11 2.420314 1_555
Li2 O27 2.420319 1_556
Li2 O2 2.471717 1_555
Li2 O29 2.471719 1_555
Li3 O17 2.255149 1_555
Li3 O10 2.255149 1_555
Li3 O40 2.297864 1_555
Li3 O29 2.297865 1_555
Li3 O21 2.446875 1_555
Li3 O16 2.446875 1_555
Li3 O23 2.471305 1_555
Li3 O33 2.471310 1_555
Li4 O4 2.281526 1_565
Li4 O45 2.281526 1_555
Li4 O41 2.285006 1_555
Li4 O39 2.285016 1_554
Li4 O35 2.438477 1_555
Li4 O46 2.438485 1_554
Li4 O5 2.453983 1_565
Li4 O38 2.453989 1_555
Li5 O28 2.250734 1_555
Li5 O47 2.250734 1_555
Li5 O33 2.308812 1_555
Li5 O42 2.308822 1_655
Li5 O44 2.420319 1_555
Li5 O22 2.420325 1_555
Li5 O43 2.471711 1_655
Li5 O40 2.471711 1_555
Cr0 O3 1.959849 1_555
Cr0 O5 1.972263 1_455
Cr0 O6 1.978233 1_554
Cr0 O42 1.986571 1_544
Cr0 O41 1.991399 1_445
Cr0 O44 2.002884 1_444
Cr1 O4 1.963088 1_455
Cr1 O12 1.970556 1_555
Cr1 O0 1.977699 1_555
Cr1 O35 1.982486 1_445
Cr1 O47 1.989840 1_445
Cr1 O43 2.002555 1_545
Cr2 O45 1.963088 1_555
Cr2 O1 1.970556 1_565
Cr2 O34 1.977694 1_554
Cr2 O46 1.982492 1_554
Cr2 O13 1.989840 1_565
Cr2 O2 2.002549 1_564
Cr3 O36 1.959849 1_555
Cr3 O24 1.972260 1_555
Cr3 O17 1.978233 1_565
Cr3 O23 1.986566 1_565
Cr3 O30 1.991397 1_555
Cr3 O11 2.002882 1_565
Cr4 O18 1.963097 1_555
Cr4 O21 1.970556 1_454
Cr4 O32 1.977688 1_555
Cr4 O26 1.982492 1_555
Cr4 O15 1.989840 1_454
Cr4 O29 2.002560 1_454
Cr5 O25 1.959849 1_555
Cr5 O14 1.972258 1_555
Cr5 O10 1.978233 1_455
Cr5 O33 1.986568 1_455
Cr5 O37 1.991397 1_555
Cr5 O22 2.002879 1_455
Cr6 O20 1.959849 1_554
Cr6 O38 1.972258 1_555
Cr6 O8 1.978233 1_555
Cr6 O9 1.986566 1_554
Cr6 O39 1.991402 1_554
Cr6 O27 2.002884 1_555
Cr7 O7 1.963094 1_555
Cr7 O16 1.970556 1_555
Cr7 O19 1.977694 1_555
Cr7 O31 1.982483 1_555
Cr7 O28 1.989840 1_555
Cr7 O40 2.002555 1_555
O0 P3 1.540410 1_555
O1 P0 1.551444 1_555
O2 P10 1.562129 1_545
O3 P0 1.549290 1_555
O4 P1 1.553908 1_555
O5 P4 1.555817 1_555
O6 P2 1.550912 1_556
O7 P2 1.553910 1_555
O8 P2 1.550912 1_555
O9 P3 1.566402 1_555
O10 P1 1.550912 1_555
O11 P11 1.549304 1_545
O12 P5 1.551444 1_555
O13 P4 1.551305 1_555
O14 P4 1.555816 1_455
O15 P4 1.551305 1_556
O16 P0 1.551444 1_555
O17 P1 1.550912 1_555
O18 P2 1.553902 1_555
O19 P3 1.540408 1_555
O20 P5 1.549290 1_555
O21 P5 1.551444 1_655
O22 P6 1.549299 1_555
O23 P3 1.566402 1_555
O24 P8 1.555813 1_555
O25 P5 1.549290 1_555
O26 P6 1.560132 1_455
O27 P6 1.549301 1_555
O28 P8 1.551305 1_555
O29 P9 1.562121 1_555
O30 P10 1.548949 1_555
O31 P11 1.560137 1_555
O32 P7 1.540418 1_554
O33 P7 1.566400 1_655
O34 P7 1.540408 1_555
O35 P6 1.560142 1_555
O36 P0 1.549290 1_565
O37 P10 1.548949 1_555
O38 P8 1.555816 1_555
O39 P9 1.548939 1_555
O40 P9 1.562130 1_555
O41 P9 1.548946 1_554
O42 P7 1.566392 1_555
O43 P10 1.562130 1_555
O44 P11 1.549301 1_555
O45 P1 1.553908 1_565
O46 P11 1.560132 1_555
O47 P8 1.551305 1_555
