# generated using pymatgen
data_Eu3NbO7
_symmetry_space_group_name_H-M   'P 1'
_cell_length_a   6.53877028
_cell_length_b   6.53877028
_cell_length_c   7.67992576
_cell_angle_alpha   90.00000000
_cell_angle_beta   90.00000000
_cell_angle_gamma   111.75767900
_symmetry_Int_Tables_number   1
_chemical_formula_structural   Eu3NbO7
_chemical_formula_sum   'Eu6 Nb2 O14'
_cell_volume   304.96684667
_cell_formula_units_Z   2
loop_
 _symmetry_equiv_pos_site_id
 _symmetry_equiv_pos_as_xyz
  1  'x, y, z'
loop_
 _atom_site_type_symbol
 _atom_site_label
 _atom_site_symmetry_multiplicity
 _atom_site_fract_x
 _atom_site_fract_y
 _atom_site_fract_z
 _atom_site_occupancy
  Eu  Eu0  1  0.52058348  0.05972085  0.25000000  1
  Eu  Eu1  1  0.94027915  0.47941652  0.75000000  1
  Eu  Eu2  1  0.00000000  0.00000000  -0.00000000  1
  Eu  Eu3  1  0.00000000  0.00000000  0.50000000  1
  Eu  Eu4  1  0.47941652  0.94027915  0.75000000  1
  Eu  Eu5  1  0.05972085  0.52058348  0.25000000  1
  Nb  Nb0  1  0.50000000  0.50000000  -0.00000000  1
  Nb  Nb1  1  0.50000000  0.50000000  0.50000000  1
  O  O0  1  0.89226538  0.15400483  0.25000000  1
  O  O1  1  0.84599517  0.10773462  0.75000000  1
  O  O2  1  0.43296708  0.17768486  0.53376986  1
  O  O3  1  0.82231514  0.56703292  0.03376986  1
  O  O4  1  0.82231514  0.56703292  0.46623014  1
  O  O5  1  0.43296708  0.17768486  0.96623014  1
  O  O6  1  0.57136375  0.57136375  0.75000000  1
  O  O7  1  0.42863625  0.42863625  0.25000000  1
  O  O8  1  0.17768486  0.43296708  0.53376986  1
  O  O9  1  0.17768486  0.43296708  0.96623014  1
  O  O10  1  0.56703292  0.82231514  0.03376986  1
  O  O11  1  0.56703292  0.82231514  0.46623014  1
  O  O12  1  0.15400483  0.89226538  0.25000000  1
  O  O13  1  0.10773462  0.84599517  0.75000000  1
loop_
_geom_bond_atom_site_label_1
_geom_bond_atom_site_label_2
_geom_bond_distance
_geom_bond_site_symmetry_2
Eu0 O12 2.235764 1_545
Eu0 O0 2.275049 1_555
Eu0 O11 2.368385 1_545
Eu0 O10 2.368385 1_545
Eu0 O5 2.449547 1_554
Eu0 O2 2.449547 1_555
Eu0 O7 2.693628 1_555
Eu1 O13 2.235764 1_655
Eu1 O1 2.275049 1_555
Eu1 O8 2.368385 1_655
Eu1 O9 2.368385 1_655
Eu1 O4 2.449547 1_555
Eu1 O3 2.449547 1_556
Eu1 O6 2.693628 1_555
Eu2 O12 2.392185 1_545
Eu2 O13 2.392185 1_544
Eu2 O1 2.392185 1_454
Eu2 O0 2.392185 1_455
Eu2 O3 2.644536 1_445
Eu2 O10 2.644536 1_445
Eu2 O5 2.644536 1_554
Eu2 O9 2.644536 1_554
Eu3 O12 2.392185 1_545
Eu3 O13 2.392185 1_545
Eu3 O0 2.392185 1_455
Eu3 O1 2.392185 1_455
Eu3 O11 2.644536 1_445
Eu3 O4 2.644536 1_445
Eu3 O2 2.644536 1_555
Eu3 O8 2.644536 1_555
Eu4 O1 2.235764 1_565
Eu4 O13 2.275049 1_555
Eu4 O5 2.368385 1_565
Eu4 O2 2.368385 1_565
Eu4 O11 2.449547 1_555
Eu4 O10 2.449547 1_556
Eu4 O6 2.693628 1_555
Eu5 O0 2.235764 1_455
Eu5 O12 2.275049 1_555
Eu5 O3 2.368385 1_455
Eu5 O4 2.368385 1_455
Eu5 O8 2.449547 1_555
Eu5 O9 2.449547 1_554
Eu5 O7 2.693628 1_555
Nb0 O6 1.990073 1_554
Nb0 O7 1.990073 1_555
Nb0 O10 2.004066 1_555
Nb0 O5 2.004066 1_554
Nb0 O9 2.004066 1_554
Nb0 O3 2.004066 1_555
Nb1 O6 1.990073 1_555
Nb1 O7 1.990073 1_555
Nb1 O8 2.004066 1_555
Nb1 O11 2.004066 1_555
Nb1 O2 2.004066 1_555
Nb1 O4 2.004066 1_555
