# generated using pymatgen
data_Na3CoBSO7
_symmetry_space_group_name_H-M   'P 1'
_cell_length_a   6.84885606
_cell_length_b   10.32729591
_cell_length_c   10.52845319
_cell_angle_alpha   119.07454475
_cell_angle_beta   90.01413753
_cell_angle_gamma   89.99474649
_symmetry_Int_Tables_number   1
_chemical_formula_structural   Na3CoBSO7
_chemical_formula_sum   'Na12 Co4 B4 S4 O28'
_cell_volume   650.84082722
_cell_formula_units_Z   4
loop_
 _symmetry_equiv_pos_site_id
 _symmetry_equiv_pos_as_xyz
  1  'x, y, z'
loop_
 _atom_site_type_symbol
 _atom_site_label
 _atom_site_symmetry_multiplicity
 _atom_site_fract_x
 _atom_site_fract_y
 _atom_site_fract_z
 _atom_site_occupancy
  Na  Na0  1  0.24969100  0.34093800  0.40583600  1
  Na  Na1  1  0.25061400  0.84227300  0.90688600  1
  Na  Na2  1  0.75058100  0.65762600  0.59298000  1
  Na  Na3  1  0.74991100  0.15910800  0.09416500  1
  Na  Na4  1  0.99200700  0.00142600  0.24095100  1
  Na  Na5  1  0.99213500  0.50144600  0.74196100  1
  Na  Na6  1  0.50773100  0.00117300  0.24118200  1
  Na  Na7  1  0.50805500  0.50173100  0.74219800  1
  Na  Na8  1  0.49226000  0.99867400  0.75820600  1
  Na  Na9  1  0.49183000  0.49855100  0.25919500  1
  Na  Na10  1  0.00795900  0.99821400  0.75770900  1
  Na  Na11  1  0.00748400  0.49893000  0.25886200  1
  Co  Co0  1  0.75176300  0.71695200  0.05144300  1
  Co  Co1  1  0.25216000  0.78343800  0.44867400  1
  Co  Co2  1  0.74975400  0.21487200  0.55095700  1
  Co  Co3  1  0.25034000  0.28506900  0.94900700  1
  B  B0  1  0.74990700  0.33394800  0.39924500  1
  B  B1  1  0.74927200  0.83382200  0.89859500  1
  B  B2  1  0.24882500  0.66608300  0.60122800  1
  B  B3  1  0.24987700  0.16597000  0.10070400  1
  S  S0  1  0.24981700  0.14735900  0.56648500  1
  S  S1  1  0.25043200  0.64732800  0.06799300  1
  S  S2  1  0.75017800  0.85269900  0.43223700  1
  S  S3  1  0.74990300  0.35263000  0.93337600  1
  O  O0  1  0.24982000  0.10175500  0.18701100  1
  O  O1  1  0.24986900  0.60272200  0.68814900  1
  O  O2  1  0.75014200  0.89721600  0.81174700  1
  O  O3  1  0.74967400  0.39815600  0.31292200  1
  O  O4  1  0.74973600  0.41353800  0.55169400  1
  O  O5  1  0.74799500  0.91450500  0.05114100  1
  O  O6  1  0.24693500  0.58546200  0.44875400  1
  O  O7  1  0.25022200  0.08637400  0.94824400  1
  O  O8  1  0.75020900  0.17963000  0.34422500  1
  O  O9  1  0.75127400  0.67925500  0.84374200  1
  O  O10  1  0.25155200  0.82066800  0.65608900  1
  O  O11  1  0.24957900  0.32029200  0.15572200  1
  O  O12  1  0.25090500  0.98964000  0.44546500  1
  O  O13  1  0.25039000  0.49083900  0.94423400  1
  O  O14  1  0.74995200  0.00925800  0.55591000  1
  O  O15  1  0.75045900  0.51042800  0.05423300  1
  O  O16  1  0.75138000  0.85550500  0.29208200  1
  O  O17  1  0.74962100  0.35117200  0.79115400  1
  O  O18  1  0.24996200  0.14856300  0.70859700  1
  O  O19  1  0.25159200  0.64444300  0.20809600  1
  O  O20  1  0.07469800  0.22563400  0.55254700  1
  O  O21  1  0.07465900  0.72710500  0.05770800  1
  O  O22  1  0.42446600  0.22622800  0.55284700  1
  O  O23  1  0.42416700  0.72786400  0.05625500  1
  O  O24  1  0.57439500  0.77292700  0.44253300  1
  O  O25  1  0.57508200  0.27410400  0.94740100  1
  O  O26  1  0.92391100  0.77231500  0.44425200  1
  O  O27  1  0.92486700  0.27414300  0.94717000  1
loop_
_geom_bond_atom_site_label_1
_geom_bond_atom_site_label_2
_geom_bond_distance
_geom_bond_site_symmetry_2
Na0 O6 2.339343 1_555
Na0 O0 2.424550 1_555
Na0 O11 2.536555 1_555
Na0 O22 2.648164 1_555
Na0 O20 2.651241 1_555
Na0 O1 2.886837 1_555
Na1 O7 2.340454 1_565
Na1 O1 2.426253 1_555
Na1 O10 2.539587 1_555
Na1 O23 2.662094 1_556
Na1 O21 2.687957 1_556
Na1 O0 2.863241 1_566
Na2 O4 2.340583 1_555
Na2 O2 2.426619 1_555
Na2 O9 2.539110 1_555
Na2 O26 2.658531 1_555
Na2 O24 2.686040 1_555
Na2 O3 2.862780 1_555
Na3 O5 2.339740 1_545
Na3 O3 2.423449 1_555
Na3 O8 2.536528 1_555
Na3 O25 2.648408 1_554
Na3 O27 2.651488 1_554
Na3 O2 2.887960 1_544
Na4 O0 2.255343 1_655
Na4 O8 2.316718 1_555
Na4 O5 2.418159 1_545
Na4 O16 2.462938 1_545
Na4 O21 2.599350 1_645
Na4 O12 2.836905 1_645
Na5 O1 2.259983 1_655
Na5 O9 2.308546 1_555
Na5 O4 2.413362 1_555
Na5 O17 2.493499 1_555
Na5 O20 2.624806 1_655
Na5 O13 2.810801 1_655
Na6 O0 2.258177 1_555
Na6 O8 2.321186 1_555
Na6 O5 2.402725 1_545
Na6 O16 2.473361 1_545
Na6 O23 2.596885 1_545
Na6 O12 2.825754 1_545
Na7 O1 2.261502 1_555
Na7 O9 2.318116 1_555
Na7 O4 2.412085 1_555
Na7 O17 2.489678 1_555
Na7 O22 2.623792 1_555
Na7 O13 2.808195 1_555
Na8 O2 2.260151 1_555
Na8 O10 2.309096 1_555
Na8 O7 2.410725 1_565
Na8 O18 2.491515 1_565
Na8 O25 2.621730 1_565
Na8 O14 2.809141 1_565
Na9 O3 2.254473 1_555
Na9 O11 2.319290 1_555
Na9 O6 2.421210 1_555
Na9 O19 2.460405 1_555
Na9 O24 2.599753 1_555
Na9 O15 2.840500 1_555
Na10 O2 2.259882 1_455
Na10 O10 2.320285 1_555
Na10 O7 2.414478 1_565
Na10 O18 2.491294 1_565
Na10 O27 2.626569 1_465
Na10 O14 2.807698 1_465
Na11 O3 2.258605 1_455
Na11 O11 2.320596 1_555
Na11 O6 2.397372 1_555
Na11 O19 2.473985 1_555
Na11 O26 2.598647 1_455
Na11 O15 2.828627 1_455
Co0 O9 2.026359 1_554
Co0 O5 2.041896 1_555
Co0 O15 2.147282 1_555
Co0 O21 2.213410 1_655
Co0 O16 2.223288 1_555
Co0 O23 2.245824 1_555
Co1 O10 2.025001 1_555
Co1 O6 2.045283 1_555
Co1 O12 2.146147 1_555
Co1 O24 2.209017 1_555
Co1 O19 2.223173 1_555
Co1 O26 2.250389 1_455
Co2 O8 2.024850 1_555
Co2 O4 2.047923 1_555
Co2 O14 2.149261 1_555
Co2 O17 2.217444 1_555
Co2 O20 2.227931 1_655
Co2 O22 2.230510 1_555
Co3 O11 2.024745 1_556
Co3 O7 2.048091 1_555
Co3 O13 2.149916 1_555
Co3 O18 2.219482 1_555
Co3 O25 2.226632 1_555
Co3 O27 2.231586 1_455
B0 O3 1.360667 1_555
B0 O4 1.403425 1_555
B0 O8 1.406473 1_555
B1 O2 1.358876 1_555
B1 O5 1.404710 1_556
B1 O9 1.409184 1_555
B2 O1 1.359301 1_555
B2 O6 1.404065 1_555
B2 O10 1.409403 1_555
B3 O0 1.360573 1_555
B3 O7 1.403529 1_554
B3 O11 1.406515 1_555
O12 S0 1.503171 1_565
O13 S1 1.504327 1_556
O14 S2 1.504490 1_545
O15 S3 1.503155 1_554
O16 S2 1.489937 1_555
O17 S3 1.490120 1_555
O18 S0 1.490217 1_555
O19 S1 1.489793 1_555
O20 S0 1.492815 1_555
O21 S1 1.492048 1_555
O22 S0 1.492892 1_555
O23 S1 1.490976 1_555
O24 S2 1.492277 1_555
O25 S3 1.493216 1_555
O26 S2 1.490890 1_555
O27 S3 1.492706 1_555
