# generated using pymatgen
data_V6CuO15
_symmetry_space_group_name_H-M   'P 1'
_cell_length_a   7.37323400
_cell_length_b   7.92697702
_cell_length_c   10.27277454
_cell_angle_alpha   106.67628521
_cell_angle_beta   90.00624115
_cell_angle_gamma   103.42390197
_symmetry_Int_Tables_number   1
_chemical_formula_structural   V6CuO15
_chemical_formula_sum   'V12 Cu2 O30'
_cell_volume   558.01430732
_cell_formula_units_Z   2
loop_
 _symmetry_equiv_pos_site_id
 _symmetry_equiv_pos_as_xyz
  1  'x, y, z'
loop_
 _atom_site_type_symbol
 _atom_site_label
 _atom_site_symmetry_multiplicity
 _atom_site_fract_x
 _atom_site_fract_y
 _atom_site_fract_z
 _atom_site_occupancy
  V  V0  1  0.83348400  0.33466700  0.90884900  1
  V  V1  1  0.33363800  0.32976000  0.90265500  1
  V  V2  1  0.05851300  0.22524800  0.11964800  1
  V  V3  1  0.55773600  0.22906600  0.11814300  1
  V  V4  1  0.35557600  0.43145700  0.59400100  1
  V  V5  1  0.85590200  0.42409100  0.59286400  1
  V  V6  1  0.64189900  0.56787300  0.40594000  1
  V  V7  1  0.14243800  0.57673300  0.40729000  1
  V  V8  1  0.44594300  0.77480000  0.88243000  1
  V  V9  1  0.94342000  0.77070800  0.87961100  1
  V  V10  1  0.66699500  0.67056100  0.09690400  1
  V  V11  1  0.16673400  0.66457400  0.09118600  1
  Cu  Cu0  1  0.20992800  0.04612000  0.36791600  1
  Cu  Cu1  1  0.68796000  0.95338900  0.63210700  1
  O  O0  1  0.28195200  0.13228700  0.79147900  1
  O  O1  1  0.77952800  0.13162300  0.79173500  1
  O  O2  1  0.29422400  0.20662200  0.53608900  1
  O  O3  1  0.79913300  0.20329300  0.54297700  1
  O  O4  1  0.10302300  0.38124600  0.95806900  1
  O  O5  1  0.58468700  0.37046600  0.95254900  1
  O  O6  1  0.49997400  0.99963700  0.99903900  1
  O  O7  1  0.00021100  0.00052100  0.00100900  1
  O  O8  1  0.06476500  0.19269500  0.27182500  1
  O  O9  1  0.54356000  0.20279300  0.26994100  1
  O  O10  1  0.37090400  0.48225500  0.77869600  1
  O  O11  1  0.87087300  0.48526200  0.77586200  1
  O  O12  1  0.31627200  0.26336200  0.08043800  1
  O  O13  1  0.81661900  0.26536200  0.08526300  1
  O  O14  1  0.62003100  0.48590100  0.57235100  1
  O  O15  1  0.12277400  0.49048700  0.57409000  1
  O  O16  1  0.37844700  0.51311900  0.42750400  1
  O  O17  1  0.87616500  0.51050400  0.42618600  1
  O  O18  1  0.68535800  0.73684500  0.91937500  1
  O  O19  1  0.18423100  0.73440300  0.91479700  1
  O  O20  1  0.12933700  0.51436100  0.22485000  1
  O  O21  1  0.62869700  0.51819500  0.22078500  1
  O  O22  1  0.46742900  0.80289500  0.72819700  1
  O  O23  1  0.94356800  0.80246300  0.73039100  1
  O  O24  1  0.41567700  0.63217500  0.04714200  1
  O  O25  1  0.89632400  0.61620100  0.04219700  1
  O  O26  1  0.19583100  0.79760100  0.45717400  1
  O  O27  1  0.69234700  0.79281900  0.46402300  1
  O  O28  1  0.20949500  0.86785800  0.20794500  1
  O  O29  1  0.72129400  0.86769800  0.20848200  1
loop_
_geom_bond_atom_site_label_1
_geom_bond_atom_site_label_2
_geom_bond_distance
_geom_bond_site_symmetry_2
Cu0 O2 1.833235 1_555
Cu0 O28 1.833720 1_545
Cu0 O8 2.169202 1_555
Cu0 O26 2.382045 1_545
Cu1 O27 1.833130 1_555
Cu1 O1 1.835259 1_565
Cu1 O22 2.194778 1_555
Cu1 O3 2.392021 1_565
O0 V1 1.611466 1_555
O1 V0 1.669579 1_555
O2 V4 1.658941 1_555
O3 V5 1.626730 1_555
O4 V1 1.889707 1_555
O4 V0 1.973213 1_455
O4 V11 2.209571 1_556
O4 V2 2.319857 1_556
O5 V1 1.849523 1_555
O5 V0 1.953457 1_555
O5 V3 2.276094 1_556
O5 V10 2.351841 1_556
O6 V8 1.793064 1_555
O6 V3 1.830066 1_566
O7 V2 1.800509 1_555
O7 V9 1.841487 1_444
O8 V2 1.658188 1_555
O9 V3 1.631658 1_555
O10 V4 1.820747 1_555
O10 V1 1.971706 1_555
O10 V8 2.192098 1_555
O11 V5 1.798126 1_555
O11 V0 2.037326 1_555
O11 V9 2.143776 1_555
O12 V2 1.915437 1_555
O12 V3 1.917988 1_555
O12 V1 2.036993 1_554
O13 V3 1.908226 1_555
O13 V2 1.932500 1_655
O13 V0 2.035022 1_554
O14 V4 1.924122 1_555
O14 V5 1.940071 1_555
O14 V6 1.989866 1_555
O15 V4 1.906559 1_555
O15 V5 1.939993 1_455
O15 V7 2.012678 1_555
O16 V6 1.916912 1_555
O16 V7 1.947556 1_555
O16 V4 1.989403 1_555
O17 V6 1.911164 1_555
O17 V7 1.935929 1_655
O17 V5 2.012215 1_555
O18 V8 1.913819 1_555
O18 V9 1.919722 1_555
O18 V10 2.034043 1_556
O19 V9 1.913868 1_455
O19 V8 1.926407 1_555
O19 V11 2.036897 1_556
O20 V7 1.792274 1_555
O20 V11 2.040905 1_555
O20 V2 2.171558 1_555
O21 V6 1.826100 1_555
O21 V10 1.970258 1_555
O21 V3 2.166694 1_555
O22 V8 1.664696 1_555
O23 V9 1.623111 1_555
O24 V10 1.853736 1_555
O24 V11 1.947346 1_555
O24 V8 2.274185 1_554
O24 V1 2.366458 1_554
O25 V10 1.886843 1_555
O25 V11 1.977265 1_655
O25 V0 2.199298 1_554
O25 V9 2.320980 1_554
O26 V7 1.627249 1_555
O27 V6 1.659919 1_555
O28 V11 1.670175 1_555
O29 V10 1.611684 1_555
