# generated using pymatgen
data_La2Al4O9
_symmetry_space_group_name_H-M   'P 1'
_cell_length_a   5.72380300
_cell_length_b   7.67060300
_cell_length_c   8.47042200
_cell_angle_alpha   90.00000000
_cell_angle_beta   90.00000000
_cell_angle_gamma   90.00000000
_symmetry_Int_Tables_number   1
_chemical_formula_structural   La2Al4O9
_chemical_formula_sum   'La4 Al8 O18'
_cell_volume   371.89405124
_cell_formula_units_Z   2
loop_
 _symmetry_equiv_pos_site_id
 _symmetry_equiv_pos_as_xyz
  1  'x, y, z'
loop_
 _atom_site_type_symbol
 _atom_site_label
 _atom_site_symmetry_multiplicity
 _atom_site_fract_x
 _atom_site_fract_y
 _atom_site_fract_z
 _atom_site_occupancy
  La  La0  1  0.00000000  0.15069400  0.17775200  1
  La  La1  1  0.00000000  0.34930600  0.67775200  1
  La  La2  1  0.00000000  0.65069400  0.32224800  1
  La  La3  1  0.00000000  0.84930600  0.82224800  1
  Al  Al0  1  0.25900100  0.00000000  0.50000000  1
  Al  Al1  1  0.74099900  0.00000000  0.50000000  1
  Al  Al2  1  0.50000000  0.14200400  0.83893900  1
  Al  Al3  1  0.50000000  0.35799600  0.33893900  1
  Al  Al4  1  0.25900100  0.50000000  0.00000000  1
  Al  Al5  1  0.74099900  0.50000000  0.00000000  1
  Al  Al6  1  0.50000000  0.64200400  0.66106100  1
  Al  Al7  1  0.50000000  0.85799600  0.16106100  1
  O  O0  1  0.50000000  0.00000000  0.00000000  1
  O  O1  1  0.75089900  0.10377600  0.71860100  1
  O  O2  1  0.24910100  0.10377600  0.71860100  1
  O  O3  1  0.50000000  0.14738100  0.42703800  1
  O  O4  1  0.00000000  0.15426900  0.44911600  1
  O  O5  1  0.00000000  0.34573100  0.94911600  1
  O  O6  1  0.50000000  0.35261900  0.92703800  1
  O  O7  1  0.24910100  0.39622400  0.21860100  1
  O  O8  1  0.75089900  0.39622400  0.21860100  1
  O  O9  1  0.50000000  0.50000000  0.50000000  1
  O  O10  1  0.24910100  0.60377600  0.78139900  1
  O  O11  1  0.75089900  0.60377600  0.78139900  1
  O  O12  1  0.50000000  0.64738100  0.07296200  1
  O  O13  1  0.00000000  0.65426900  0.05088400  1
  O  O14  1  0.00000000  0.84573100  0.55088400  1
  O  O15  1  0.50000000  0.85261900  0.57296200  1
  O  O16  1  0.24910100  0.89622400  0.28139900  1
  O  O17  1  0.75089900  0.89622400  0.28139900  1
loop_
_geom_bond_atom_site_label_1
_geom_bond_atom_site_label_2
_geom_bond_distance
_geom_bond_site_symmetry_2
La0 O4 2.298731 1_555
La0 O7 2.387404 1_555
La0 O8 2.387404 1_455
La0 O5 2.447194 1_554
La0 O16 2.571721 1_545
La0 O17 2.571721 1_445
La1 O5 2.298731 1_555
La1 O2 2.387404 1_555
La1 O1 2.387404 1_455
La1 O4 2.447194 1_555
La1 O11 2.571721 1_455
La1 O10 2.571721 1_555
La2 O13 2.298731 1_555
La2 O17 2.387404 1_455
La2 O16 2.387404 1_555
La2 O14 2.447194 1_555
La2 O8 2.571721 1_455
La2 O7 2.571721 1_555
La3 O14 2.298731 1_555
La3 O11 2.387404 1_455
La3 O10 2.387404 1_555
La3 O13 2.447194 1_556
La3 O2 2.571721 1_565
La3 O1 2.571721 1_465
Al0 O3 1.887541 1_555
Al0 O15 1.887541 1_545
Al0 O14 1.945192 1_545
Al0 O4 1.945192 1_555
Al0 O2 2.016295 1_555
Al0 O16 2.016295 1_545
Al1 O3 1.887541 1_555
Al1 O15 1.887541 1_545
Al1 O14 1.945192 1_645
Al1 O4 1.945192 1_655
Al1 O1 2.016295 1_555
Al1 O17 2.016295 1_545
Al2 O0 1.745758 1_556
Al2 O6 1.779565 1_555
Al2 O2 1.785317 1_555
Al2 O1 1.785317 1_555
Al3 O9 1.745758 1_555
Al3 O3 1.779565 1_555
Al3 O8 1.785317 1_555
Al3 O7 1.785317 1_555
Al4 O12 1.887541 1_555
Al4 O6 1.887541 1_554
Al4 O13 1.945192 1_555
Al4 O5 1.945192 1_554
Al4 O10 2.016295 1_554
Al4 O7 2.016295 1_555
Al5 O12 1.887541 1_555
Al5 O6 1.887541 1_554
Al5 O5 1.945192 1_654
Al5 O13 1.945192 1_655
Al5 O11 2.016295 1_554
Al5 O8 2.016295 1_555
Al6 O9 1.745758 1_555
Al6 O15 1.779565 1_555
Al6 O11 1.785317 1_555
Al6 O10 1.785317 1_555
Al7 O0 1.745758 1_565
Al7 O12 1.779565 1_555
Al7 O16 1.785317 1_555
Al7 O17 1.785317 1_555
