# generated using pymatgen
data_Na3Mn2P2(CO7)2
_symmetry_space_group_name_H-M   'P 1'
_cell_length_a   5.22652100
_cell_length_b   9.03269667
_cell_length_c   13.16790812
_cell_angle_alpha   91.05701042
_cell_angle_beta   90.25411339
_cell_angle_gamma   91.87683066
_symmetry_Int_Tables_number   1
_chemical_formula_structural   Na3Mn2P2(CO7)2
_chemical_formula_sum   'Na6 Mn4 P4 C4 O28'
_cell_volume   621.20428072
_cell_formula_units_Z   2
loop_
 _symmetry_equiv_pos_site_id
 _symmetry_equiv_pos_as_xyz
  1  'x, y, z'
loop_
 _atom_site_type_symbol
 _atom_site_label
 _atom_site_symmetry_multiplicity
 _atom_site_fract_x
 _atom_site_fract_y
 _atom_site_fract_z
 _atom_site_occupancy
  Na  Na0  1  0.24424600  0.76421100  0.00186400  1
  Na  Na1  1  0.24722400  0.76417800  0.75581000  1
  Na  Na2  1  0.24147800  0.75509100  0.48162400  1
  Na  Na3  1  0.75852200  0.24490900  0.51837600  1
  Na  Na4  1  0.75277600  0.23582200  0.24419000  1
  Na  Na5  1  0.75575400  0.23578900  0.99813600  1
  Mn  Mn0  1  0.78425800  0.65074400  0.62542700  1
  Mn  Mn1  1  0.78478700  0.65351800  0.13072200  1
  Mn  Mn2  1  0.21521300  0.34648200  0.86927800  1
  Mn  Mn3  1  0.21574200  0.34925600  0.37457300  1
  P  P0  1  0.71941700  0.57282200  0.87794400  1
  P  P1  1  0.71595600  0.57266800  0.37413400  1
  P  P2  1  0.28404400  0.42733200  0.62586600  1
  P  P3  1  0.28058300  0.42717800  0.12205600  1
  C  C0  1  0.72947600  0.91932600  0.62578500  1
  C  C1  1  0.73152300  0.92084100  0.12516000  1
  C  C2  1  0.27052400  0.08067400  0.37421500  1
  C  C3  1  0.26847700  0.07915900  0.87484000  1
  O  O0  1  0.29756900  0.94320700  0.88015600  1
  O  O1  1  0.29852600  0.94656000  0.37642600  1
  O  O2  1  0.95271200  0.85354200  0.62820400  1
  O  O3  1  0.95396000  0.85782200  0.12764800  1
  O  O4  1  0.54146300  0.82171800  0.12855500  1
  O  O5  1  0.53731500  0.81819500  0.62537200  1
  O  O6  1  0.77918100  0.67262500  0.97322500  1
  O  O7  1  0.78730900  0.66845800  0.78583200  1
  O  O8  1  0.79149100  0.67191200  0.46649500  1
  O  O9  1  0.78177300  0.66585100  0.28050800  1
  O  O10  1  0.42345800  0.53321600  0.87621500  1
  O  O11  1  0.42349500  0.53221500  0.37967100  1
  O  O12  1  0.14012700  0.57575200  0.62592500  1
  O  O13  1  0.13229700  0.57224800  0.11960800  1
  O  O14  1  0.86770300  0.42775200  0.88039200  1
  O  O15  1  0.85987300  0.42424800  0.37407500  1
  O  O16  1  0.57650500  0.46778500  0.62032900  1
  O  O17  1  0.57654200  0.46678400  0.12378500  1
  O  O18  1  0.21822700  0.33414900  0.71949200  1
  O  O19  1  0.20850900  0.32808800  0.53350500  1
  O  O20  1  0.21269100  0.33154200  0.21416800  1
  O  O21  1  0.22081900  0.32737500  0.02677500  1
  O  O22  1  0.45853700  0.17828200  0.87144500  1
  O  O23  1  0.46268500  0.18180500  0.37462800  1
  O  O24  1  0.04604000  0.14217800  0.87235200  1
  O  O25  1  0.04728800  0.14645800  0.37179600  1
  O  O26  1  0.70147400  0.05344000  0.62357400  1
  O  O27  1  0.70243100  0.05679300  0.11984400  1
loop_
_geom_bond_atom_site_label_1
_geom_bond_atom_site_label_2
_geom_bond_distance
_geom_bond_site_symmetry_2
Na0 O0 2.308737 1_554
Na0 O4 2.314772 1_555
Na0 O13 2.406981 1_555
Na0 O3 2.411399 1_455
Na0 O6 2.565814 1_454
Na0 O10 2.825370 1_554
Na0 O6 2.965249 1_554
Na1 O0 2.288212 1_555
Na1 O5 2.343613 1_555
Na1 O2 2.439844 1_455
Na1 O12 2.440693 1_555
Na1 O7 2.562573 1_455
Na1 O10 2.819465 1_555
Na2 O1 2.248814 1_555
Na2 O8 2.451538 1_455
Na2 O5 2.484965 1_555
Na2 O12 2.565452 1_555
Na2 O11 2.607153 1_555
Na2 O2 2.616207 1_455
Na3 O26 2.248814 1_555
Na3 O19 2.451538 1_655
Na3 O23 2.484965 1_555
Na3 O15 2.565452 1_555
Na3 O16 2.607153 1_555
Na3 O25 2.616207 1_655
Na4 O27 2.288212 1_555
Na4 O23 2.343613 1_555
Na4 O25 2.439844 1_655
Na4 O15 2.440693 1_555
Na4 O20 2.562573 1_655
Na4 O17 2.819465 1_555
Na5 O27 2.308737 1_556
Na5 O22 2.314772 1_555
Na5 O14 2.406981 1_555
Na5 O24 2.411399 1_655
Na5 O21 2.565814 1_656
Na5 O17 2.825370 1_556
Na5 O21 2.965249 1_556
Mn0 O16 1.947402 1_555
Mn0 O12 2.000227 1_655
Mn0 O2 2.005899 1_555
Mn0 O5 2.020259 1_555
Mn0 O8 2.105422 1_555
Mn0 O7 2.115255 1_555
Mn1 O9 1.973621 1_555
Mn1 O17 1.977658 1_555
Mn1 O13 1.986167 1_655
Mn1 O4 2.013514 1_555
Mn1 O3 2.021182 1_555
Mn1 O6 2.084401 1_554
Mn2 O18 1.973621 1_555
Mn2 O10 1.977658 1_555
Mn2 O14 1.986167 1_455
Mn2 O22 2.013514 1_555
Mn2 O24 2.021182 1_555
Mn2 O21 2.084401 1_556
Mn3 O11 1.947402 1_555
Mn3 O15 2.000227 1_455
Mn3 O25 2.005899 1_555
Mn3 O23 2.020259 1_555
Mn3 O19 2.105422 1_555
Mn3 O20 2.115255 1_555
C0 O26 1.225830 1_565
C0 O2 1.327093 1_555
C0 O5 1.335232 1_555
C1 O27 1.245529 1_565
C1 O3 1.311628 1_555
C1 O4 1.316818 1_555
C2 O1 1.225830 1_545
C2 O25 1.327093 1_555
C2 O23 1.335232 1_555
C3 O0 1.245529 1_545
C3 O24 1.311628 1_555
C3 O22 1.316818 1_555
O6 P0 1.555877 1_555
O7 P0 1.538092 1_555
O8 P1 1.539787 1_555
O9 P1 1.539416 1_555
O10 P0 1.576180 1_555
O11 P1 1.562272 1_555
O12 P2 1.558557 1_555
O13 P3 1.544873 1_555
O14 P0 1.544873 1_555
O15 P1 1.558557 1_555
O16 P2 1.562272 1_555
O17 P3 1.576180 1_555
O18 P2 1.539416 1_555
O19 P2 1.539787 1_555
O20 P3 1.538092 1_555
O21 P3 1.555877 1_555
