# generated using pymatgen
data_Li10Fe4S9
_symmetry_space_group_name_H-M   'P 1'
_cell_length_a   11.74872800
_cell_length_b   11.74872800
_cell_length_c   5.71949300
_cell_angle_alpha   90.00000000
_cell_angle_beta   90.00000000
_cell_angle_gamma   90.00000000
_symmetry_Int_Tables_number   1
_chemical_formula_structural   Li10Fe4S9
_chemical_formula_sum   'Li20 Fe8 S18'
_cell_volume   789.47654448
_cell_formula_units_Z   2
loop_
 _symmetry_equiv_pos_site_id
 _symmetry_equiv_pos_as_xyz
  1  'x, y, z'
loop_
 _atom_site_type_symbol
 _atom_site_label
 _atom_site_symmetry_multiplicity
 _atom_site_fract_x
 _atom_site_fract_y
 _atom_site_fract_z
 _atom_site_occupancy
  Li  Li0  1  0.14983900  0.31647200  0.21505600  1
  Li  Li1  1  0.85016100  0.31647200  0.21505600  1
  Li  Li2  1  0.81647200  0.35016100  0.71505600  1
  Li  Li3  1  0.18352800  0.35016100  0.71505600  1
  Li  Li4  1  0.00000000  0.50000000  0.17514000  1
  Li  Li5  1  0.00000000  0.50000000  0.67514000  1
  Li  Li6  1  0.81647200  0.64983900  0.71505600  1
  Li  Li7  1  0.18352800  0.64983900  0.71505600  1
  Li  Li8  1  0.85016100  0.68352800  0.21505600  1
  Li  Li9  1  0.14983900  0.68352800  0.21505600  1
  Li  Li10  1  0.35016100  0.81647200  0.28494400  1
  Li  Li11  1  0.64983900  0.81647200  0.28494400  1
  Li  Li12  1  0.31647200  0.85016100  0.78494400  1
  Li  Li13  1  0.68352800  0.85016100  0.78494400  1
  Li  Li14  1  0.50000000  0.00000000  0.82486000  1
  Li  Li15  1  0.50000000  0.00000000  0.32486000  1
  Li  Li16  1  0.68352800  0.14983900  0.78494400  1
  Li  Li17  1  0.31647200  0.14983900  0.78494400  1
  Li  Li18  1  0.35016100  0.18352800  0.28494400  1
  Li  Li19  1  0.64983900  0.18352800  0.28494400  1
  Fe  Fe0  1  0.50000000  0.34676500  0.76851500  1
  Fe  Fe1  1  0.65323500  0.50000000  0.23148500  1
  Fe  Fe2  1  0.34676500  0.50000000  0.23148500  1
  Fe  Fe3  1  0.50000000  0.65323500  0.76851500  1
  Fe  Fe4  1  0.00000000  0.84676500  0.73148500  1
  Fe  Fe5  1  0.84676500  0.00000000  0.26851500  1
  Fe  Fe6  1  0.15323500  0.00000000  0.26851500  1
  Fe  Fe7  1  0.00000000  0.15323500  0.73148500  1
  S  S0  1  0.33548400  0.33548400  0.00000000  1
  S  S1  1  0.66451600  0.33548400  0.00000000  1
  S  S2  1  0.00000000  0.33361100  0.92764700  1
  S  S3  1  0.50000000  0.50000000  0.50000000  1
  S  S4  1  0.83361100  0.50000000  0.42764700  1
  S  S5  1  0.16638900  0.50000000  0.42764700  1
  S  S6  1  0.00000000  0.66638900  0.92764700  1
  S  S7  1  0.33548400  0.66451600  0.00000000  1
  S  S8  1  0.66451600  0.66451600  0.00000000  1
  S  S9  1  0.83548400  0.83548400  0.50000000  1
  S  S10  1  0.16451600  0.83548400  0.50000000  1
  S  S11  1  0.50000000  0.83361100  0.57235300  1
  S  S12  1  0.66638900  0.00000000  0.07235300  1
  S  S13  1  0.00000000  0.00000000  0.00000000  1
  S  S14  1  0.33361100  0.00000000  0.07235300  1
  S  S15  1  0.50000000  0.16638900  0.57235300  1
  S  S16  1  0.83548400  0.16451600  0.50000000  1
  S  S17  1  0.16451600  0.16451600  0.50000000  1
loop_
_geom_bond_atom_site_label_1
_geom_bond_atom_site_label_2
_geom_bond_distance
_geom_bond_site_symmetry_2
Li0 S2 2.416983 1_554
Li0 S17 2.423434 1_555
Li0 S5 2.483050 1_555
Li0 S0 2.513958 1_555
Li1 S2 2.416983 1_654
Li1 S16 2.423434 1_555
Li1 S4 2.483050 1_555
Li1 S1 2.513958 1_555
Li2 S4 2.416983 1_555
Li2 S1 2.423434 1_556
Li2 S2 2.483050 1_655
Li2 S16 2.513958 1_555
Li3 S5 2.416983 1_555
Li3 S0 2.423434 1_556
Li3 S2 2.483050 1_555
Li3 S17 2.513958 1_555
Li4 S2 2.413548 1_554
Li4 S6 2.413548 1_554
Li4 S5 2.430478 1_555
Li4 S4 2.430478 1_455
Li5 S5 2.413548 1_555
Li5 S4 2.413548 1_455
Li5 S2 2.430478 1_555
Li5 S6 2.430478 1_555
Li6 S4 2.416983 1_555
Li6 S8 2.423434 1_556
Li6 S6 2.483050 1_655
Li6 S9 2.513958 1_555
Li7 S5 2.416983 1_555
Li7 S7 2.423434 1_556
Li7 S6 2.483050 1_555
Li7 S10 2.513958 1_555
Li8 S6 2.416983 1_654
Li8 S9 2.423434 1_555
Li8 S4 2.483050 1_555
Li8 S8 2.513958 1_555
Li9 S6 2.416983 1_554
Li9 S10 2.423434 1_555
Li9 S5 2.483050 1_555
Li9 S7 2.513958 1_555
Li10 S11 2.416983 1_555
Li10 S7 2.423434 1_555
Li10 S14 2.483050 1_565
Li10 S10 2.513958 1_555
Li11 S11 2.416983 1_555
Li11 S8 2.423434 1_555
Li11 S12 2.483050 1_565
Li11 S9 2.513958 1_555
Li12 S14 2.416983 1_566
Li12 S10 2.423434 1_555
Li12 S11 2.483050 1_555
Li12 S7 2.513958 1_556
Li13 S12 2.416983 1_566
Li13 S9 2.423434 1_555
Li13 S11 2.483050 1_555
Li13 S8 2.513958 1_556
Li14 S14 2.413548 1_556
Li14 S12 2.413548 1_556
Li14 S15 2.430478 1_555
Li14 S11 2.430478 1_545
Li15 S15 2.413548 1_555
Li15 S11 2.413548 1_545
Li15 S12 2.430478 1_555
Li15 S14 2.430478 1_555
Li16 S12 2.416983 1_556
Li16 S16 2.423434 1_555
Li16 S15 2.483050 1_555
Li16 S1 2.513958 1_556
Li17 S14 2.416983 1_556
Li17 S17 2.423434 1_555
Li17 S15 2.483050 1_555
Li17 S0 2.513958 1_556
Li18 S15 2.416983 1_555
Li18 S0 2.423434 1_555
Li18 S14 2.483050 1_555
Li18 S17 2.513958 1_555
Li19 S15 2.416983 1_555
Li19 S1 2.423434 1_555
Li19 S12 2.483050 1_555
Li19 S16 2.513958 1_555
Fe0 S0 2.346573 1_556
Fe0 S1 2.346573 1_556
Fe0 S3 2.366374 1_555
Fe0 S15 2.397859 1_555
Fe1 S8 2.346573 1_555
Fe1 S1 2.346573 1_555
Fe1 S3 2.366374 1_555
Fe1 S4 2.397859 1_555
Fe2 S0 2.346573 1_555
Fe2 S7 2.346573 1_555
Fe2 S3 2.366374 1_555
Fe2 S5 2.397859 1_555
Fe3 S8 2.346573 1_556
Fe3 S7 2.346573 1_556
Fe3 S3 2.366374 1_555
Fe3 S11 2.397859 1_555
Fe4 S10 2.346573 1_555
Fe4 S9 2.346573 1_455
Fe4 S13 2.366374 1_566
Fe4 S6 2.397859 1_555
Fe5 S9 2.346573 1_545
Fe5 S16 2.346573 1_555
Fe5 S13 2.366374 1_655
Fe5 S12 2.397859 1_555
Fe6 S10 2.346573 1_545
Fe6 S17 2.346573 1_555
Fe6 S13 2.366374 1_555
Fe6 S14 2.397859 1_555
Fe7 S16 2.346573 1_455
Fe7 S17 2.346573 1_555
Fe7 S13 2.366374 1_556
Fe7 S2 2.397859 1_555
