# generated using pymatgen
data_Li2FeF4
_symmetry_space_group_name_H-M   'P 1'
_cell_length_a   2.88914800
_cell_length_b   9.46873400
_cell_length_c   10.26799700
_cell_angle_alpha   90.00000000
_cell_angle_beta   90.00000000
_cell_angle_gamma   90.00000000
_symmetry_Int_Tables_number   1
_chemical_formula_structural   Li2FeF4
_chemical_formula_sum   'Li8 Fe4 F16'
_cell_volume   280.89721872
_cell_formula_units_Z   4
loop_
 _symmetry_equiv_pos_site_id
 _symmetry_equiv_pos_as_xyz
  1  'x, y, z'
loop_
 _atom_site_type_symbol
 _atom_site_label
 _atom_site_symmetry_multiplicity
 _atom_site_fract_x
 _atom_site_fract_y
 _atom_site_fract_z
 _atom_site_occupancy
  Li  Li0  1  0.75000000  0.58050600  0.89733200  1
  Li  Li1  1  0.75000000  0.56212300  0.37828500  1
  Li  Li2  1  0.25000000  0.93787700  0.87828500  1
  Li  Li3  1  0.25000000  0.91949400  0.39733200  1
  Li  Li4  1  0.75000000  0.08050600  0.60266800  1
  Li  Li5  1  0.75000000  0.06212300  0.12171500  1
  Li  Li6  1  0.25000000  0.43787700  0.62171500  1
  Li  Li7  1  0.25000000  0.41949400  0.10266800  1
  Fe  Fe0  1  0.75000000  0.76041200  0.15714900  1
  Fe  Fe1  1  0.25000000  0.73958800  0.65714900  1
  Fe  Fe2  1  0.75000000  0.26041200  0.34285100  1
  Fe  Fe3  1  0.25000000  0.23958800  0.84285100  1
  F  F0  1  0.25000000  0.56129900  0.77648500  1
  F  F1  1  0.75000000  0.60130500  0.56330000  1
  F  F2  1  0.25000000  0.62575100  0.04628100  1
  F  F3  1  0.25000000  0.69487300  0.30680100  1
  F  F4  1  0.75000000  0.80512700  0.80680100  1
  F  F5  1  0.75000000  0.87424900  0.54628100  1
  F  F6  1  0.25000000  0.89869500  0.06330000  1
  F  F7  1  0.75000000  0.93870100  0.27648500  1
  F  F8  1  0.25000000  0.06129900  0.72351500  1
  F  F9  1  0.75000000  0.10130500  0.93670000  1
  F  F10  1  0.25000000  0.12575100  0.45371900  1
  F  F11  1  0.25000000  0.19487300  0.19319900  1
  F  F12  1  0.75000000  0.30512700  0.69319900  1
  F  F13  1  0.75000000  0.37424900  0.95371900  1
  F  F14  1  0.25000000  0.39869500  0.43670000  1
  F  F15  1  0.75000000  0.43870100  0.22351500  1
loop_
_geom_bond_atom_site_label_1
_geom_bond_atom_site_label_2
_geom_bond_distance
_geom_bond_site_symmetry_2
F0 Li0 1.913007 1_555
F0 Li0 1.913007 1_455
F0 Li6 1.972620 1_555
F0 Fe1 2.085997 1_555
F1 Li1 1.935622 1_555
F1 Fe1 2.174818 1_655
F1 Fe1 2.174818 1_555
F1 Li6 2.200268 1_555
F1 Li6 2.200268 1_655
F2 Li7 2.037008 1_555
F2 Li0 2.146956 1_554
F2 Li0 2.146956 1_454
F2 Fe0 2.237975 1_455
F2 Fe0 2.237975 1_555
F3 Li1 2.050739 1_455
F3 Li1 2.050739 1_555
F3 Fe0 2.198437 1_455
F3 Fe0 2.198437 1_555
F3 Li3 2.321144 1_555
F4 Li2 2.050739 1_555
F4 Li2 2.050739 1_655
F4 Fe1 2.198437 1_555
F4 Fe1 2.198437 1_655
F4 Li0 2.321144 1_555
F5 Li4 2.037008 1_565
F5 Li3 2.146956 1_655
F5 Li3 2.146956 1_555
F5 Fe1 2.237975 1_655
F5 Fe1 2.237975 1_555
F6 Li2 1.935622 1_554
F6 Fe0 2.174818 1_555
F6 Fe0 2.174818 1_455
F6 Li5 2.200268 1_565
F6 Li5 2.200268 1_465
F7 Li3 1.913007 1_555
F7 Li3 1.913007 1_655
F7 Li5 1.972620 1_565
F7 Fe0 2.085997 1_555
F8 Li4 1.913007 1_455
F8 Li4 1.913007 1_555
F8 Li2 1.972620 1_545
F8 Fe3 2.085997 1_555
F9 Li5 1.935622 1_556
F9 Fe3 2.174818 1_555
F9 Fe3 2.174818 1_655
F9 Li2 2.200268 1_645
F9 Li2 2.200268 1_545
F10 Li3 2.037008 1_545
F10 Li4 2.146956 1_455
F10 Li4 2.146956 1_555
F10 Fe2 2.237975 1_555
F10 Fe2 2.237975 1_455
F11 Li5 2.050739 1_455
F11 Li5 2.050739 1_555
F11 Fe2 2.198437 1_455
F11 Fe2 2.198437 1_555
F11 Li7 2.321144 1_555
F12 Li6 2.050739 1_555
F12 Li6 2.050739 1_655
F12 Fe3 2.198437 1_555
F12 Fe3 2.198437 1_655
F12 Li4 2.321144 1_555
F13 Li0 2.037008 1_555
F13 Li7 2.146956 1_556
F13 Li7 2.146956 1_656
F13 Fe3 2.237975 1_655
F13 Fe3 2.237975 1_555
F14 Li6 1.935622 1_555
F14 Fe2 2.174818 1_455
F14 Fe2 2.174818 1_555
F14 Li1 2.200268 1_455
F14 Li1 2.200268 1_555
F15 Li7 1.913007 1_555
F15 Li7 1.913007 1_655
F15 Li1 1.972620 1_555
F15 Fe2 2.085997 1_555
