# generated using pymatgen
data_Li24Mn5Cr7O36
_symmetry_space_group_name_H-M   'P 1'
_cell_length_a   5.02843000
_cell_length_b   9.75249497
_cell_length_c   13.25390249
_cell_angle_alpha   97.05967048
_cell_angle_beta   100.72110825
_cell_angle_gamma   95.02218094
_symmetry_Int_Tables_number   1
_chemical_formula_structural   Li24Mn5Cr7O36
_chemical_formula_sum   'Li24 Mn5 Cr7 O36'
_cell_volume   629.70510781
_cell_formula_units_Z   1
loop_
 _symmetry_equiv_pos_site_id
 _symmetry_equiv_pos_as_xyz
  1  'x, y, z'
loop_
 _atom_site_type_symbol
 _atom_site_label
 _atom_site_symmetry_multiplicity
 _atom_site_fract_x
 _atom_site_fract_y
 _atom_site_fract_z
 _atom_site_occupancy
  Li  Li0  1  0.17053800  0.00032800  0.83344200  1
  Li  Li1  1  0.04969200  0.00060100  0.61321800  1
  Li  Li2  1  0.00046900  0.75045000  0.25035400  1
  Li  Li3  1  0.33540000  0.74934800  0.91646400  1
  Li  Li4  1  0.04543000  0.49849300  0.11225000  1
  Li  Li5  1  0.38393300  0.50051900  0.77987400  1
  Li  Li6  1  0.16204600  0.50088100  0.33291300  1
  Li  Li7  1  0.50102400  0.49914600  0.00005900  1
  Li  Li8  1  0.28301800  0.49985100  0.55433900  1
  Li  Li9  1  0.33347400  0.25020300  0.41631300  1
  Li  Li10  1  0.49852100  0.99922800  0.50045600  1
  Li  Li11  1  0.28829000  0.00073700  0.05390300  1
  Li  Li12  1  0.61631700  0.00005000  0.72047000  1
  Li  Li13  1  0.38389800  0.99979700  0.27927200  1
  Li  Li14  1  0.71361900  0.99971300  0.94680000  1
  Li  Li15  1  0.66474200  0.75039400  0.58416800  1
  Li  Li16  1  0.71969100  0.49888600  0.44501600  1
  Li  Li17  1  0.83505200  0.49919900  0.66795800  1
  Li  Li18  1  0.62044700  0.49996600  0.22055200  1
  Li  Li19  1  0.94626800  0.50117700  0.88739400  1
  Li  Li20  1  0.66674900  0.24981300  0.08324400  1
  Li  Li21  1  0.83227800  0.00060500  0.16580600  1
  Li  Li22  1  0.99940000  0.24978300  0.74857700  1
  Li  Li23  1  0.94878900  0.99977000  0.38614800  1
  Mn  Mn0  1  0.11251900  0.75156100  0.47218200  1
  Mn  Mn1  1  0.55419900  0.24920400  0.86107100  1
  Mn  Mn2  1  0.77331700  0.74732500  0.80542700  1
  Mn  Mn3  1  0.77905500  0.25040900  0.30599400  1
  Mn  Mn4  1  0.89000300  0.25030700  0.52779900  1
  Cr  Cr0  1  0.10563000  0.24847100  0.97020800  1
  Cr  Cr1  1  0.21678100  0.75004800  0.69456700  1
  Cr  Cr2  1  0.22789100  0.25152200  0.19590400  1
  Cr  Cr3  1  0.44321000  0.25006100  0.63687500  1
  Cr  Cr4  1  0.44324100  0.75086600  0.14119800  1
  Cr  Cr5  1  0.56059200  0.75062400  0.36426900  1
  Cr  Cr6  1  0.89352800  0.74951700  0.02616000  1
  O  O0  1  0.99729500  0.86123500  0.92891700  1
  O  O1  1  0.06522700  0.63540300  0.78625600  1
  O  O2  1  0.00362300  0.36148500  0.42885300  1
  O  O3  1  0.13786700  0.36327100  0.64234600  1
  O  O4  1  0.26427800  0.36267900  0.88345200  1
  O  O5  1  0.33456400  0.86336400  0.59365400  1
  O  O6  1  0.06869900  0.13693900  0.28378400  1
  O  O7  1  0.18974600  0.13909700  0.52503800  1
  O  O8  1  0.40779900  0.13428700  0.95089400  1
  O  O9  1  0.15432500  0.86306700  0.14323300  1
  O  O10  1  0.25822000  0.86516300  0.38181600  1
  O  O11  1  0.47770500  0.86100100  0.80821700  1
  O  O12  1  0.33322200  0.13788300  0.73783700  1
  O  O13  1  0.18041200  0.63772100  0.02357200  1
  O  O14  1  0.40232700  0.63673100  0.45066900  1
  O  O15  1  0.52417900  0.63798400  0.68978900  1
  O  O16  1  0.33864900  0.63840400  0.23815400  1
  O  O17  1  0.65970100  0.63661400  0.90204800  1
  O  O18  1  0.32834300  0.36238900  0.09647900  1
  O  O19  1  0.66316400  0.36094500  0.76166300  1
  O  O20  1  0.47867700  0.36180000  0.30999800  1
  O  O21  1  0.59816600  0.36350100  0.54907400  1
  O  O22  1  0.80432300  0.36220300  0.97531200  1
  O  O23  1  0.66630400  0.86255800  0.26474300  1
  O  O24  1  0.52837800  0.13826600  0.19163100  1
  O  O25  1  0.74064000  0.13510200  0.61721300  1
  O  O26  1  0.85627000  0.13853200  0.85742000  1
  O  O27  1  0.60020700  0.86442900  0.04837500  1
  O  O28  1  0.81040500  0.86129000  0.47577400  1
  O  O29  1  0.93188600  0.86332800  0.71569600  1
  O  O30  1  0.66533500  0.13864100  0.40466300  1
  O  O31  1  0.73249800  0.63660400  0.11674100  1
  O  O32  1  0.86275100  0.63732000  0.35763600  1
  O  O33  1  0.00404200  0.63895200  0.57193100  1
  O  O34  1  0.92616200  0.36533400  0.21589800  1
  O  O35  1  0.00556500  0.13762200  0.07057800  1
loop_
_geom_bond_atom_site_label_1
_geom_bond_atom_site_label_2
_geom_bond_distance
_geom_bond_site_symmetry_2
Li0 O8 2.022291 1_555
Li0 O29 2.042221 1_445
Li0 O12 2.164680 1_555
Li0 O11 2.188991 1_545
Li0 O0 2.196690 1_445
Li0 O26 2.206672 1_455
Li1 O7 2.052792 1_555
Li1 O5 2.073417 1_545
Li1 O25 2.123421 1_455
Li1 O29 2.143697 1_445
Li1 O12 2.190737 1_555
Li1 O28 2.214056 1_445
Li2 O32 2.082511 1_455
Li2 O10 2.096209 1_555
Li2 O23 2.108286 1_455
Li2 O9 2.112757 1_555
Li2 O16 2.120415 1_555
Li2 O31 2.133406 1_455
Li3 O17 2.069475 1_555
Li3 O11 2.094190 1_555
Li3 O13 2.109679 1_556
Li3 O1 2.109684 1_555
Li3 O27 2.116418 1_556
Li3 O0 2.119744 1_455
Li4 O18 2.049981 1_555
Li4 O13 2.052682 1_555
Li4 O34 2.131190 1_455
Li4 O31 2.163344 1_455
Li4 O22 2.199285 1_454
Li4 O16 2.234512 1_555
Li5 O15 2.064316 1_555
Li5 O19 2.064593 1_555
Li5 O17 2.149566 1_555
Li5 O4 2.161725 1_555
Li5 O1 2.167500 1_555
Li5 O3 2.217274 1_555
Li6 O34 2.024052 1_455
Li6 O14 2.039820 1_555
Li6 O32 2.137713 1_455
Li6 O2 2.170675 1_555
Li6 O16 2.187517 1_555
Li6 O20 2.218952 1_555
Li7 O31 2.022625 1_555
Li7 O4 2.027194 1_554
Li7 O22 2.156914 1_554
Li7 O17 2.178968 1_554
Li7 O18 2.189741 1_555
Li7 O13 2.233275 1_555
Li8 O3 2.048404 1_555
Li8 O33 2.059051 1_555
Li8 O14 2.155748 1_555
Li8 O21 2.161403 1_555
Li8 O2 2.192698 1_555
Li8 O15 2.194941 1_555
Li9 O20 2.079366 1_555
Li9 O2 2.080842 1_555
Li9 O30 2.089198 1_555
Li9 O7 2.099332 1_555
Li9 O6 2.115099 1_555
Li9 O21 2.117039 1_555
Li10 O25 2.036028 1_565
Li10 O10 2.037950 1_555
Li10 O5 2.133338 1_555
Li10 O30 2.187469 1_565
Li10 O7 2.197125 1_565
Li10 O28 2.197338 1_555
Li11 O9 2.046300 1_545
Li11 O35 2.056400 1_555
Li11 O8 2.127621 1_554
Li11 O27 2.148588 1_545
Li11 O24 2.209840 1_555
Li11 O0 2.220772 1_444
Li12 O11 2.049649 1_545
Li12 O12 2.065720 1_555
Li12 O25 2.148424 1_555
Li12 O29 2.164938 1_545
Li12 O5 2.200440 1_545
Li12 O26 2.207209 1_555
Li13 O23 2.053334 1_555
Li13 O24 2.056334 1_565
Li13 O10 2.140911 1_555
Li13 O6 2.165931 1_565
Li13 O9 2.174122 1_555
Li13 O30 2.198759 1_565
Li14 O26 2.071498 1_565
Li14 O0 2.073447 1_555
Li14 O8 2.111193 1_565
Li14 O27 2.113971 1_556
Li14 O35 2.207102 1_666
Li14 O11 2.215531 1_555
Li15 O15 2.066592 1_555
Li15 O5 2.085673 1_555
Li15 O28 2.098771 1_555
Li15 O29 2.110511 1_555
Li15 O14 2.119855 1_555
Li15 O33 2.121966 1_655
Li16 O32 2.050783 1_555
Li16 O2 2.063520 1_655
Li16 O21 2.153776 1_555
Li16 O14 2.180573 1_555
Li16 O20 2.186285 1_555
Li16 O33 2.222224 1_655
Li17 O1 2.026356 1_655
Li17 O21 2.041110 1_555
Li17 O3 2.150865 1_655
Li17 O19 2.171279 1_555
Li17 O15 2.191289 1_555
Li17 O33 2.196710 1_655
Li18 O16 2.065347 1_555
Li18 O20 2.065962 1_555
Li18 O34 2.111805 1_555
Li18 O31 2.143349 1_555
Li18 O32 2.207348 1_555
Li18 O18 2.208125 1_555
Li19 O22 2.057307 1_555
Li19 O17 2.057450 1_555
Li19 O1 2.112066 1_655
Li19 O13 2.182016 1_656
Li19 O4 2.185432 1_655
Li19 O19 2.211380 1_555
Li20 O22 2.084993 1_554
Li20 O24 2.086802 1_555
Li20 O8 2.109374 1_554
Li20 O34 2.112949 1_555
Li20 O35 2.124994 1_655
Li20 O18 2.126635 1_555
Li21 O27 2.023060 1_545
Li21 O6 2.036364 1_655
Li21 O24 2.166939 1_555
Li21 O35 2.181226 1_655
Li21 O23 2.207483 1_545
Li21 O9 2.230033 1_645
Li22 O3 2.074859 1_655
Li22 O25 2.097369 1_555
Li22 O12 2.097701 1_655
Li22 O26 2.100131 1_555
Li22 O19 2.108974 1_555
Li22 O4 2.134346 1_655
Li23 O28 2.063146 1_555
Li23 O30 2.076639 1_565
Li23 O10 2.126015 1_655
Li23 O6 2.145476 1_665
Li23 O23 2.164504 1_555
Li23 O7 2.229373 1_665
Mn0 O10 1.925940 1_555
Mn0 O5 1.927201 1_555
Mn0 O32 1.937364 1_455
Mn0 O28 1.937604 1_455
Mn0 O33 1.942109 1_555
Mn0 O14 1.954720 1_555
Mn1 O8 1.929988 1_555
Mn1 O22 1.930697 1_555
Mn1 O19 1.934084 1_555
Mn1 O12 1.938759 1_555
Mn1 O26 1.943199 1_555
Mn1 O4 1.949536 1_555
Mn2 O17 1.906880 1_555
Mn2 O15 1.924986 1_555
Mn2 O11 1.933621 1_555
Mn2 O1 1.939501 1_655
Mn2 O0 1.956937 1_555
Mn2 O29 1.963583 1_555
Mn3 O24 1.929460 1_555
Mn3 O34 1.934369 1_555
Mn3 O30 1.935155 1_555
Mn3 O20 1.940949 1_555
Mn3 O2 1.941207 1_655
Mn3 O6 1.947855 1_655
Mn4 O3 1.927822 1_655
Mn4 O25 1.934310 1_555
Mn4 O2 1.934345 1_655
Mn4 O7 1.935557 1_655
Mn4 O30 1.946156 1_555
Mn4 O21 1.952623 1_555
Cr0 O26 1.905186 1_455
Cr0 O35 1.923238 1_556
Cr0 O4 1.923455 1_555
Cr0 O22 1.960685 1_455
Cr0 O18 1.979177 1_556
Cr0 O8 1.996286 1_555
Cr1 O33 1.917670 1_555
Cr1 O29 1.923929 1_455
Cr1 O11 1.943387 1_555
Cr1 O1 1.958832 1_555
Cr1 O15 1.975578 1_555
Cr1 O5 1.975952 1_555
Cr2 O18 1.913890 1_555
Cr2 O20 1.920141 1_555
Cr2 O6 1.938139 1_555
Cr2 O24 1.953178 1_555
Cr2 O35 1.970015 1_555
Cr2 O34 1.994071 1_455
Cr3 O7 1.911543 1_555
Cr3 O21 1.920465 1_555
Cr3 O19 1.948984 1_555
Cr3 O12 1.955156 1_555
Cr3 O3 1.974901 1_555
Cr3 O25 1.982036 1_555
Cr4 O9 1.895878 1_555
Cr4 O16 1.904676 1_555
Cr4 O23 1.946844 1_555
Cr4 O31 1.957761 1_555
Cr4 O27 1.976436 1_555
Cr4 O13 1.987457 1_555
Cr5 O28 1.899146 1_555
Cr5 O14 1.917127 1_555
Cr5 O23 1.930679 1_555
Cr5 O32 1.963936 1_555
Cr5 O16 1.969689 1_555
Cr5 O10 1.994674 1_555
Cr6 O13 1.885610 1_655
Cr6 O0 1.901660 1_554
Cr6 O31 1.959623 1_555
Cr6 O27 1.971786 1_555
Cr6 O17 1.977191 1_554
Cr6 O9 1.979916 1_655
