# generated using pymatgen
data_Li4Co2Cu3Sb3O16
_symmetry_space_group_name_H-M   'P 1'
_cell_length_a   6.06792617
_cell_length_b   6.06792617
_cell_length_c   9.70437513
_cell_angle_alpha   89.53672589
_cell_angle_beta   89.53672589
_cell_angle_gamma   60.27060266
_symmetry_Int_Tables_number   1
_chemical_formula_structural   Li4Co2Cu3Sb3O16
_chemical_formula_sum   'Li4 Co2 Cu3 Sb3 O16'
_cell_volume   310.26842244
_cell_formula_units_Z   1
loop_
 _symmetry_equiv_pos_site_id
 _symmetry_equiv_pos_as_xyz
  1  'x, y, z'
loop_
 _atom_site_type_symbol
 _atom_site_label
 _atom_site_symmetry_multiplicity
 _atom_site_fract_x
 _atom_site_fract_y
 _atom_site_fract_z
 _atom_site_occupancy
  Li  Li0  1  0.32914300  0.32914300  0.10281500  1
  Li  Li1  1  0.98841300  0.98841300  0.99416000  1
  Li  Li2  1  0.97560300  0.97560300  0.51244800  1
  Li  Li3  1  0.66845300  0.66845300  0.61634300  1
  Co  Co0  1  0.35680300  0.35680300  0.52424000  1
  Co  Co1  1  0.67309000  0.67309000  0.99640500  1
  Cu  Cu0  1  0.17275400  0.66360900  0.78882000  1
  Cu  Cu1  1  0.66360900  0.17275400  0.78882000  1
  Cu  Cu2  1  0.83421000  0.83421000  0.28023700  1
  Sb  Sb0  1  0.17313600  0.17313600  0.78369600  1
  Sb  Sb1  1  0.34005900  0.83340200  0.28581700  1
  Sb  Sb2  1  0.83340200  0.34005900  0.28581700  1
  O  O0  1  0.16723400  0.67956500  0.39494800  1
  O  O1  1  0.48193000  0.48193000  0.64410500  1
  O  O2  1  0.33644900  0.33644900  0.89282400  1
  O  O3  1  0.99738900  0.99738900  0.69892700  1
  O  O4  1  0.01350900  0.01350900  0.17733600  1
  O  O5  1  0.67956500  0.16723400  0.39494800  1
  O  O6  1  0.03566200  0.48095000  0.66030800  1
  O  O7  1  0.48095000  0.03566200  0.66030800  1
  O  O8  1  0.82107000  0.82107000  0.91193800  1
  O  O9  1  0.15826900  0.15826900  0.40114400  1
  O  O10  1  0.51432500  0.96221100  0.16372700  1
  O  O11  1  0.96221100  0.51432500  0.16372700  1
  O  O12  1  0.65575700  0.65575700  0.40394600  1
  O  O13  1  0.32455100  0.84403400  0.90166100  1
  O  O14  1  0.51669400  0.51669400  0.16179500  1
  O  O15  1  0.84403400  0.32455100  0.90166100  1
loop_
_geom_bond_atom_site_label_1
_geom_bond_atom_site_label_2
_geom_bond_distance
_geom_bond_site_symmetry_2
Li0 O10 2.019283 1_545
Li0 O11 2.019283 1_455
Li0 O2 2.038557 1_554
Li0 O14 2.055116 1_555
Li1 O4 1.799451 1_666
Li1 O8 1.935894 1_555
Li1 O13 1.986036 1_655
Li1 O15 1.986036 1_565
Li2 O3 1.826170 1_555
Li2 O5 1.954263 1_565
Li2 O0 1.954263 1_655
Li2 O9 2.191708 1_665
Li3 O1 1.973625 1_555
Li3 O7 1.983565 1_565
Li3 O6 1.983565 1_655
Li3 O12 2.066726 1_555
Co0 O1 1.762483 1_555
Co0 O0 2.117158 1_555
Co0 O5 2.117158 1_555
Co0 O6 2.151024 1_555
Co0 O7 2.151024 1_555
Co0 O9 2.411531 1_555
Co1 O8 1.749383 1_555
Co1 O13 2.057762 1_555
Co1 O15 2.057762 1_555
Co1 O10 2.233153 1_556
Co1 O11 2.233153 1_556
Co1 O14 2.284996 1_556
Cu0 O3 1.960684 1_455
Cu0 O2 1.993577 1_555
Cu0 O13 2.069300 1_555
Cu0 O6 2.104608 1_555
Cu0 O1 2.153680 1_555
Cu0 O8 2.202118 1_455
Cu1 O3 1.960684 1_545
Cu1 O2 1.993577 1_555
Cu1 O15 2.069300 1_555
Cu1 O7 2.104608 1_555
Cu1 O1 2.153680 1_555
Cu1 O8 2.202118 1_545
Cu2 O10 2.043358 1_555
Cu2 O11 2.043358 1_555
Cu2 O5 2.083754 1_565
Cu2 O0 2.083754 1_655
Cu2 O4 2.122123 1_665
Cu2 O12 2.215225 1_555
O0 Sb1 2.007401 1_555
O2 Sb0 2.023238 1_555
O3 Sb0 2.026705 1_665
O4 Sb1 2.023922 1_545
O4 Sb2 2.023922 1_455
O5 Sb2 2.007401 1_555
O6 Sb0 2.013195 1_555
O7 Sb0 2.013195 1_555
O9 Sb1 2.052877 1_545
O9 Sb2 2.052877 1_455
O10 Sb1 1.979223 1_555
O11 Sb2 1.979223 1_555
O12 Sb2 2.028119 1_555
O12 Sb1 2.028119 1_555
O13 Sb0 2.074330 1_565
O14 Sb1 2.064979 1_555
O14 Sb2 2.064979 1_555
O15 Sb0 2.074330 1_655
