# generated using pymatgen
data_Li2V2F7
_symmetry_space_group_name_H-M   'P 1'
_cell_length_a   7.21351000
_cell_length_b   7.67155500
_cell_length_c   10.36679332
_cell_angle_alpha   89.98573518
_cell_angle_beta   90.00000000
_cell_angle_gamma   90.00000000
_symmetry_Int_Tables_number   1
_chemical_formula_structural   Li2V2F7
_chemical_formula_sum   'Li8 V8 F28'
_cell_volume   573.68628575
_cell_formula_units_Z   4
loop_
 _symmetry_equiv_pos_site_id
 _symmetry_equiv_pos_as_xyz
  1  'x, y, z'
loop_
 _atom_site_type_symbol
 _atom_site_label
 _atom_site_symmetry_multiplicity
 _atom_site_fract_x
 _atom_site_fract_y
 _atom_site_fract_z
 _atom_site_occupancy
  Li  Li0  1  0.84898100  0.68252500  0.85912500  1
  Li  Li1  1  0.86948600  0.85181900  0.63370600  1
  Li  Li2  1  0.36948600  0.14818100  0.86629400  1
  Li  Li3  1  0.34898100  0.31747500  0.64087500  1
  Li  Li4  1  0.65101900  0.68252500  0.35912500  1
  Li  Li5  1  0.63051400  0.85181900  0.13370600  1
  Li  Li6  1  0.13051400  0.14818100  0.36629400  1
  Li  Li7  1  0.15101900  0.31747500  0.14087500  1
  V  V0  1  0.36922400  0.60588300  0.90572400  1
  V  V1  1  0.36774800  0.87374300  0.57995900  1
  V  V2  1  0.86774800  0.12625700  0.92004100  1
  V  V3  1  0.86922400  0.39411700  0.59427600  1
  V  V4  1  0.13077600  0.60588300  0.40572400  1
  V  V5  1  0.13225200  0.87374300  0.07995900  1
  V  V6  1  0.63225200  0.12625700  0.42004100  1
  V  V7  1  0.63077600  0.39411700  0.09427600  1
  F  F0  1  0.82393100  0.92488400  0.80512400  1
  F  F1  1  0.09332600  0.68583100  0.93923800  1
  F  F2  1  0.64998300  0.54899300  0.93120000  1
  F  F3  1  0.39973000  0.72653900  0.73528800  1
  F  F4  1  0.59394000  0.17956300  0.96946000  1
  F  F5  1  0.64549000  0.93671800  0.56012000  1
  F  F6  1  0.83369400  0.61754700  0.68646400  1
  F  F7  1  0.33369400  0.38245300  0.81353600  1
  F  F8  1  0.14549000  0.06328200  0.93988000  1
  F  F9  1  0.09394000  0.82043700  0.53054000  1
  F  F10  1  0.89973000  0.27346100  0.76471200  1
  F  F11  1  0.14998300  0.45100700  0.56880000  1
  F  F12  1  0.67606900  0.92488400  0.30512400  1
  F  F13  1  0.40667400  0.68583100  0.43923800  1
  F  F14  1  0.59332600  0.31416900  0.56076200  1
  F  F15  1  0.32393100  0.07511600  0.69487600  1
  F  F16  1  0.85001700  0.54899300  0.43120000  1
  F  F17  1  0.10027000  0.72653900  0.23528800  1
  F  F18  1  0.90606000  0.17956300  0.46946000  1
  F  F19  1  0.85451000  0.93671800  0.06012000  1
  F  F20  1  0.66630600  0.61754700  0.18646400  1
  F  F21  1  0.16630600  0.38245300  0.31353600  1
  F  F22  1  0.35451000  0.06328200  0.43988000  1
  F  F23  1  0.40606000  0.82043700  0.03054000  1
  F  F24  1  0.60027000  0.27346100  0.26471200  1
  F  F25  1  0.35001700  0.45100700  0.06880000  1
  F  F26  1  0.90667400  0.31416900  0.06076200  1
  F  F27  1  0.17606900  0.07511600  0.19487600  1
loop_
_geom_bond_atom_site_label_1
_geom_bond_atom_site_label_2
_geom_bond_distance
_geom_bond_site_symmetry_2
F0 Li1 1.892245 1_555
F0 Li0 1.949978 1_555
F0 V2 1.976514 1_565
F1 Li0 1.948619 1_455
F1 V5 2.070316 1_556
F1 V0 2.111363 1_555
F2 Li0 1.915172 1_555
F2 V7 2.070728 1_556
F2 V0 2.088501 1_555
F3 V1 1.980038 1_555
F3 V0 2.006546 1_555
F4 Li2 1.955354 1_555
F4 V2 2.081079 1_555
F4 V7 2.110721 1_556
F5 Li1 1.901761 1_555
F5 V6 2.056977 1_565
F5 V1 2.071145 1_555
F6 Li0 1.861445 1_555
F6 Li1 1.896139 1_555
F6 V3 1.979354 1_555
F7 Li3 1.861445 1_555
F7 Li2 1.896139 1_555
F7 V0 1.979354 1_555
F8 Li2 1.901761 1_555
F8 V5 2.056977 1_546
F8 V2 2.071145 1_455
F9 Li1 1.955354 1_455
F9 V1 2.081079 1_555
F9 V4 2.110721 1_555
F10 V2 1.980038 1_555
F10 V3 2.006546 1_555
F11 Li3 1.915172 1_555
F11 V4 2.070728 1_555
F11 V3 2.088501 1_455
F12 Li5 1.892245 1_555
F12 Li4 1.949978 1_555
F12 V6 1.976514 1_565
F13 Li4 1.948619 1_555
F13 V1 2.070316 1_555
F13 V4 2.111363 1_555
F14 Li3 1.948619 1_555
F14 V6 2.070316 1_555
F14 V3 2.111363 1_555
F15 Li2 1.892245 1_555
F15 Li3 1.949978 1_555
F15 V1 1.976514 1_545
F16 Li4 1.915172 1_555
F16 V3 2.070728 1_555
F16 V4 2.088501 1_655
F17 V5 1.980038 1_555
F17 V4 2.006546 1_555
F18 Li6 1.955354 1_655
F18 V6 2.081079 1_555
F18 V3 2.110721 1_555
F19 Li5 1.901761 1_555
F19 V2 2.056977 1_564
F19 V5 2.071145 1_655
F20 Li4 1.861445 1_555
F20 Li5 1.896139 1_555
F20 V7 1.979354 1_555
F21 Li7 1.861445 1_555
F21 Li6 1.896139 1_555
F21 V4 1.979354 1_555
F22 Li6 1.901761 1_555
F22 V1 2.056977 1_545
F22 V6 2.071145 1_555
F23 Li5 1.955354 1_555
F23 V5 2.081079 1_555
F23 V0 2.110721 1_554
F24 V6 1.980038 1_555
F24 V7 2.006546 1_555
F25 Li7 1.915172 1_555
F25 V0 2.070728 1_554
F25 V7 2.088501 1_555
F26 Li7 1.948619 1_655
F26 V2 2.070316 1_554
F26 V7 2.111363 1_555
F27 Li6 1.892245 1_555
F27 Li7 1.949978 1_555
F27 V5 1.976514 1_545
