# generated using pymatgen
data_Na3Mn2P2(CO7)2
_symmetry_space_group_name_H-M   'P 1'
_cell_length_a   8.97515111
_cell_length_b   8.35194879
_cell_length_c   8.46937165
_cell_angle_alpha   103.63135477
_cell_angle_beta   90.01530320
_cell_angle_gamma   88.09836822
_symmetry_Int_Tables_number   1
_chemical_formula_structural   Na3Mn2P2(CO7)2
_chemical_formula_sum   'Na6 Mn4 P4 C4 O28'
_cell_volume   616.62294259
_cell_formula_units_Z   2
loop_
 _symmetry_equiv_pos_site_id
 _symmetry_equiv_pos_as_xyz
  1  'x, y, z'
loop_
 _atom_site_type_symbol
 _atom_site_label
 _atom_site_symmetry_multiplicity
 _atom_site_fract_x
 _atom_site_fract_y
 _atom_site_fract_z
 _atom_site_occupancy
  Na  Na0  1  0.76335200  0.38184900  0.38293100  1
  Na  Na1  1  0.75921600  0.61376100  0.12510500  1
  Na  Na2  1  0.75418200  0.89253600  0.86008000  1
  Na  Na3  1  0.24581800  0.10746400  0.13992000  1
  Na  Na4  1  0.24078400  0.38623900  0.87489500  1
  Na  Na5  1  0.23664800  0.61815100  0.61706900  1
  Mn  Mn0  1  0.65811100  0.47171800  0.73280400  1
  Mn  Mn1  1  0.64766500  0.98182800  0.23852300  1
  Mn  Mn2  1  0.34188900  0.52828200  0.26719600  1
  Mn  Mn3  1  0.35233500  0.01817200  0.76147700  1
  P  P0  1  0.57422700  0.26629400  0.02900500  1
  P  P1  1  0.57353300  0.76948600  0.51132400  1
  P  P2  1  0.42646700  0.23051400  0.48867600  1
  P  P3  1  0.42577300  0.73370600  0.97099500  1
  C  C0  1  0.91939700  0.00531500  0.26009400  1
  C  C1  1  0.92532900  0.51192200  0.75833400  1
  C  C2  1  0.07467100  0.48807800  0.24166600  1
  C  C3  1  0.08060300  0.99468500  0.73990600  1
  O  O0  1  0.93751400  0.46922600  0.22862000  1
  O  O1  1  0.94552700  0.97696500  0.73086400  1
  O  O2  1  0.86307300  0.39645500  0.64932100  1
  O  O3  1  0.85150600  0.89110600  0.15106400  1
  O  O4  1  0.81936400  0.10010200  0.35724600  1
  O  O5  1  0.82494000  0.60682900  0.85498200  1
  O  O6  1  0.66516900  0.12865100  0.08883400  1
  O  O7  1  0.68103100  0.64832900  0.56608900  1
  O  O8  1  0.67344300  0.33167700  0.91535000  1
  O  O9  1  0.65944500  0.82854500  0.37550400  1
  O  O10  1  0.53203500  0.40940900  0.17969900  1
  O  O11  1  0.57545600  0.30595200  0.55367800  1
  O  O12  1  0.57358100  0.80543900  0.05136100  1
  O  O13  1  0.53546800  0.91548700  0.66241800  1
  O  O14  1  0.46453200  0.08451300  0.33758200  1
  O  O15  1  0.42641900  0.19456100  0.94863900  1
  O  O16  1  0.42454400  0.69404800  0.44632200  1
  O  O17  1  0.46796500  0.59059200  0.82030100  1
  O  O18  1  0.34055500  0.17145500  0.62449600  1
  O  O19  1  0.31896900  0.35167100  0.43391100  1
  O  O20  1  0.32655800  0.66832300  0.08465000  1
  O  O21  1  0.33483100  0.87134900  0.91116600  1
  O  O22  1  0.17506000  0.39317100  0.14501800  1
  O  O23  1  0.18063600  0.89989800  0.64275400  1
  O  O24  1  0.14849400  0.10889400  0.84893600  1
  O  O25  1  0.13692700  0.60354500  0.35067900  1
  O  O26  1  0.05447300  0.02303500  0.26913600  1
  O  O27  1  0.06248600  0.53077400  0.77138000  1
loop_
_geom_bond_atom_site_label_1
_geom_bond_atom_site_label_2
_geom_bond_distance
_geom_bond_site_symmetry_2
Na0 O0 2.282611 1_555
Na0 O4 2.348950 1_555
Na0 O2 2.404705 1_555
Na0 O11 2.416884 1_555
Na0 O7 2.483907 1_555
Na0 O10 2.734778 1_555
Na1 O0 2.270795 1_555
Na1 O5 2.349731 1_554
Na1 O3 2.446879 1_555
Na1 O12 2.454082 1_555
Na1 O9 2.572649 1_555
Na1 O8 2.728728 1_554
Na1 O10 2.808492 1_555
Na2 O1 2.255948 1_555
Na2 O5 2.439272 1_555
Na2 O6 2.525090 1_566
Na2 O12 2.533013 1_556
Na2 O13 2.610962 1_555
Na2 O3 2.617001 1_556
Na2 O7 2.912904 1_555
Na3 O26 2.255948 1_555
Na3 O22 2.439272 1_555
Na3 O21 2.525090 1_544
Na3 O15 2.533013 1_554
Na3 O14 2.610962 1_555
Na3 O24 2.617001 1_554
Na3 O19 2.912904 1_555
Na4 O27 2.270795 1_555
Na4 O22 2.349731 1_556
Na4 O24 2.446879 1_555
Na4 O15 2.454082 1_555
Na4 O18 2.572649 1_555
Na4 O20 2.728731 1_556
Na4 O17 2.808498 1_555
Na5 O27 2.282611 1_555
Na5 O23 2.348950 1_555
Na5 O25 2.404705 1_555
Na5 O16 2.416884 1_555
Na5 O19 2.483907 1_555
Na5 O17 2.734776 1_555
Mn0 O11 1.961171 1_555
Mn0 O17 1.997184 1_555
Mn0 O2 1.998377 1_555
Mn0 O5 2.036420 1_555
Mn0 O8 2.149126 1_555
Mn0 O7 2.283357 1_555
Mn1 O9 1.920173 1_555
Mn1 O14 1.925875 1_565
Mn1 O6 1.970099 1_565
Mn1 O4 1.998404 1_565
Mn1 O12 2.022087 1_555
Mn1 O3 2.028313 1_555
Mn2 O16 1.961171 1_555
Mn2 O10 1.997181 1_555
Mn2 O25 1.998377 1_555
Mn2 O22 2.036420 1_555
Mn2 O20 2.149125 1_555
Mn2 O19 2.283357 1_555
Mn3 O18 1.920173 1_555
Mn3 O13 1.925875 1_545
Mn3 O21 1.970099 1_545
Mn3 O23 1.998404 1_545
Mn3 O15 2.022087 1_555
Mn3 O24 2.028313 1_555
C0 O26 1.226386 1_655
C0 O4 1.325143 1_555
C0 O3 1.325499 1_545
C1 O27 1.247783 1_655
C1 O2 1.307848 1_555
C1 O5 1.325636 1_555
C2 O0 1.247783 1_455
C2 O25 1.307848 1_555
C2 O22 1.325636 1_555
C3 O1 1.226386 1_455
C3 O23 1.325143 1_555
C3 O24 1.325499 1_565
O6 P0 1.567352 1_555
O7 P1 1.525162 1_555
O8 P0 1.515986 1_556
O9 P1 1.566598 1_555
O10 P0 1.565943 1_555
O11 P2 1.542782 1_555
O12 P3 1.562734 1_554
O13 P1 1.574255 1_555
O14 P2 1.574255 1_555
O15 P0 1.562734 1_556
O16 P1 1.542782 1_555
O17 P3 1.565938 1_555
O18 P2 1.566598 1_555
O19 P2 1.525162 1_555
O20 P3 1.515981 1_554
O21 P3 1.567352 1_555
