# generated using pymatgen
data_LiNbCoO4
_symmetry_space_group_name_H-M   'P 1'
_cell_length_a   6.09508200
_cell_length_b   6.09508200
_cell_length_c   8.66136000
_cell_angle_alpha   90.00000000
_cell_angle_beta   90.00000000
_cell_angle_gamma   90.00000000
_symmetry_Int_Tables_number   1
_chemical_formula_structural   LiNbCoO4
_chemical_formula_sum   'Li4 Nb4 Co4 O16'
_cell_volume   321.76973695
_cell_formula_units_Z   4
loop_
 _symmetry_equiv_pos_site_id
 _symmetry_equiv_pos_as_xyz
  1  'x, y, z'
loop_
 _atom_site_type_symbol
 _atom_site_label
 _atom_site_symmetry_multiplicity
 _atom_site_fract_x
 _atom_site_fract_y
 _atom_site_fract_z
 _atom_site_occupancy
  Li  Li0  1  0.00000000  0.23810200  0.00000000  1
  Li  Li1  1  0.00000000  0.76189800  0.50000000  1
  Li  Li2  1  0.23810200  0.00000000  0.25000000  1
  Li  Li3  1  0.76189800  0.00000000  0.75000000  1
  Nb  Nb0  1  0.25175700  0.25175700  0.62500000  1
  Nb  Nb1  1  0.25175700  0.74824300  0.87500000  1
  Nb  Nb2  1  0.74824300  0.25175700  0.37500000  1
  Nb  Nb3  1  0.74824300  0.74824300  0.12500000  1
  Co  Co0  1  0.24703800  0.50000000  0.25000000  1
  Co  Co1  1  0.50000000  0.24703800  0.00000000  1
  Co  Co2  1  0.50000000  0.75296200  0.50000000  1
  Co  Co3  1  0.75296200  0.50000000  0.75000000  1
  O  O0  1  0.00268200  0.25600100  0.25449700  1
  O  O1  1  0.00268200  0.74399900  0.24550300  1
  O  O2  1  0.25600100  0.00268200  0.99550300  1
  O  O3  1  0.25600100  0.99731800  0.50449700  1
  O  O4  1  0.25548700  0.49845700  0.00630000  1
  O  O5  1  0.25548700  0.50154300  0.49370000  1
  O  O6  1  0.49845700  0.25548700  0.24370000  1
  O  O7  1  0.49845700  0.74451300  0.25630000  1
  O  O8  1  0.50154300  0.25548700  0.75630000  1
  O  O9  1  0.50154300  0.74451300  0.74370000  1
  O  O10  1  0.74451300  0.50154300  0.50630000  1
  O  O11  1  0.74451300  0.49845700  0.99370000  1
  O  O12  1  0.74399900  0.00268200  0.00449700  1
  O  O13  1  0.74399900  0.99731800  0.49550300  1
  O  O14  1  0.99731800  0.25600100  0.74550300  1
  O  O15  1  0.99731800  0.74399900  0.75449700  1
loop_
_geom_bond_atom_site_label_1
_geom_bond_atom_site_label_2
_geom_bond_distance
_geom_bond_site_symmetry_2
Li0 O12 2.120177 1_455
Li0 O2 2.120177 1_554
Li0 O14 2.207049 1_454
Li0 O0 2.207049 1_555
Li0 O4 2.223982 1_555
Li0 O11 2.223982 1_454
Li1 O3 2.120177 1_555
Li1 O13 2.120177 1_455
Li1 O15 2.207049 1_455
Li1 O1 2.207049 1_555
Li1 O10 2.223982 1_455
Li1 O5 2.223982 1_555
Li2 O1 2.120177 1_545
Li2 O0 2.120177 1_555
Li2 O3 2.207049 1_545
Li2 O2 2.207049 1_554
Li2 O6 2.223982 1_555
Li2 O7 2.223982 1_545
Li3 O14 2.120177 1_555
Li3 O15 2.120177 1_545
Li3 O13 2.207049 1_545
Li3 O12 2.207049 1_556
Li3 O9 2.223982 1_545
Li3 O8 2.223982 1_555
Nb0 O14 1.869514 1_455
Nb0 O3 1.869514 1_545
Nb0 O5 1.900454 1_555
Nb0 O8 1.900454 1_555
Nb1 O15 1.869514 1_455
Nb1 O2 1.869514 1_565
Nb1 O9 1.900454 1_555
Nb1 O4 1.900454 1_556
Nb2 O13 1.869514 1_545
Nb2 O0 1.869514 1_655
Nb2 O10 1.900454 1_555
Nb2 O6 1.900454 1_555
Nb3 O1 1.869514 1_655
Nb3 O12 1.869514 1_565
Nb3 O7 1.900454 1_555
Nb3 O11 1.900454 1_554
Co0 O1 2.105109 1_555
Co0 O0 2.105109 1_555
Co0 O4 2.111422 1_555
Co0 O5 2.111422 1_555
Co0 O6 2.138308 1_555
Co0 O7 2.138308 1_555
Co1 O12 2.105109 1_555
Co1 O2 2.105109 1_554
Co1 O6 2.111422 1_555
Co1 O8 2.111422 1_554
Co1 O4 2.138308 1_555
Co1 O11 2.138308 1_554
Co2 O13 2.105109 1_555
Co2 O3 2.105109 1_555
Co2 O7 2.111422 1_555
Co2 O9 2.111422 1_555
Co2 O10 2.138308 1_555
Co2 O5 2.138308 1_555
Co3 O15 2.105109 1_555
Co3 O14 2.105109 1_555
Co3 O10 2.111422 1_555
Co3 O11 2.111422 1_555
Co3 O9 2.138308 1_555
Co3 O8 2.138308 1_555
