# generated using pymatgen
data_LuBO3
_symmetry_space_group_name_H-M   'P 1'
_cell_length_a   6.03245183
_cell_length_b   6.03245234
_cell_length_c   6.03245229
_cell_angle_alpha   47.71010856
_cell_angle_beta   47.71011237
_cell_angle_gamma   47.71010333
_symmetry_Int_Tables_number   1
_chemical_formula_structural   LuBO3
_chemical_formula_sum   'Lu2 B2 O6'
_cell_volume   109.98367788
_cell_formula_units_Z   2
loop_
 _symmetry_equiv_pos_site_id
 _symmetry_equiv_pos_as_xyz
  1  'x, y, z'
loop_
 _atom_site_type_symbol
 _atom_site_label
 _atom_site_symmetry_multiplicity
 _atom_site_fract_x
 _atom_site_fract_y
 _atom_site_fract_z
 _atom_site_occupancy
  Lu  Lu0  1  0.50000000  0.50000000  0.50000000  1
  Lu  Lu1  1  0.00000000  0.00000000  -0.00000000  1
  B  B0  1  0.75000000  0.75000000  0.75000000  1
  B  B1  1  0.25000000  0.25000000  0.25000000  1
  O  O0  1  0.75000000  0.03280036  0.46719964  1
  O  O1  1  0.46719964  0.75000000  0.03280036  1
  O  O2  1  0.96719964  0.53280036  0.25000000  1
  O  O3  1  0.25000000  0.96719964  0.53280036  1
  O  O4  1  0.53280036  0.25000000  0.96719964  1
  O  O5  1  0.03280036  0.46719964  0.75000000  1
loop_
_geom_bond_atom_site_label_1
_geom_bond_atom_site_label_2
_geom_bond_distance
_geom_bond_site_symmetry_2
Lu0 O3 2.210330 1_555
Lu0 O0 2.210330 1_555
Lu0 O5 2.210330 1_555
Lu0 O2 2.210330 1_555
Lu0 O4 2.210330 1_555
Lu0 O1 2.210330 1_555
Lu1 O4 2.210330 1_454
Lu1 O1 2.210330 1_545
Lu1 O2 2.210330 1_445
Lu1 O5 2.210330 1_554
Lu1 O0 2.210330 1_455
Lu1 O3 2.210330 1_544
B0 O5 1.379879 1_655
B0 O0 1.379879 1_565
B0 O1 1.379879 1_556
B1 O2 1.379879 1_455
B1 O3 1.379879 1_545
B1 O4 1.379879 1_554
