# generated using pymatgen
data_Mn6O5F7
_symmetry_space_group_name_H-M   'P 1'
_cell_length_a   9.30825186
_cell_length_b   4.63950557
_cell_length_c   4.66506731
_cell_angle_alpha   85.73807870
_cell_angle_beta   90.00000000
_cell_angle_gamma   90.00000000
_symmetry_Int_Tables_number   1
_chemical_formula_structural   Mn6O5F7
_chemical_formula_sum   'Mn6 O5 F7'
_cell_volume   200.90703354
_cell_formula_units_Z   1
loop_
 _symmetry_equiv_pos_site_id
 _symmetry_equiv_pos_as_xyz
  1  'x, y, z'
loop_
 _atom_site_type_symbol
 _atom_site_label
 _atom_site_symmetry_multiplicity
 _atom_site_fract_x
 _atom_site_fract_y
 _atom_site_fract_z
 _atom_site_occupancy
  Mn  Mn0  1  0.00000000  0.98105203  0.00629820  1
  Mn  Mn1  1  0.66017743  0.01310154  0.97316704  1
  Mn  Mn2  1  0.33982257  0.01310154  0.97316704  1
  Mn  Mn3  1  0.15771489  0.48031183  0.50813368  1
  Mn  Mn4  1  0.84228511  0.48031183  0.50813368  1
  Mn  Mn5  1  0.50000000  0.51087531  0.54438278  1
  O  O0  1  0.50000000  0.83169999  0.80836555  1
  O  O1  1  0.00000000  0.27845908  0.70401405  1
  O  O2  1  0.67418989  0.31738988  0.69328484  1
  O  O3  1  0.32581011  0.31738988  0.69328484  1
  O  O4  1  0.00000000  0.67714379  0.30601868  1
  F  F0  1  0.83508493  0.79640370  0.80446304  1
  F  F1  1  0.16491507  0.79640370  0.80446304  1
  F  F2  1  0.67256019  0.70939164  0.29464435  1
  F  F3  1  0.32743981  0.70939164  0.29464435  1
  F  F4  1  0.82462427  0.18074311  0.18321621  1
  F  F5  1  0.50000000  0.22608438  0.21710143  1
  F  F6  1  0.17537573  0.18074311  0.18321621  1
loop_
_geom_bond_atom_site_label_1
_geom_bond_atom_site_label_2
_geom_bond_distance
_geom_bond_site_symmetry_2
Mn0 O1 1.898235 1_564
Mn0 O4 1.910508 1_555
Mn1 O2 1.854952 1_555
Mn1 O0 1.902249 1_545
Mn2 O3 1.854952 1_555
Mn2 O0 1.902249 1_545
Mn3 O3 1.915349 1_555
Mn3 O1 1.933914 1_555
Mn3 O4 1.936532 1_555
Mn4 O2 1.915349 1_555
Mn4 O1 1.933914 1_655
Mn4 O4 1.936532 1_655
Mn5 O3 1.955662 1_555
Mn5 O2 1.955662 1_555
Mn5 O0 2.001143 1_555
F0 Mn0 2.024053 1_656
F0 Mn4 2.089853 1_555
F0 Mn1 2.097242 1_565
F1 Mn0 2.024053 1_556
F1 Mn3 2.089853 1_555
F1 Mn2 2.097242 1_565
F2 Mn1 1.983380 1_564
F2 Mn4 2.111884 1_555
F2 Mn5 2.150839 1_555
F3 Mn2 1.983380 1_564
F3 Mn3 2.111884 1_555
F3 Mn5 2.150839 1_555
F4 Mn1 2.005363 1_554
F4 Mn0 2.077988 1_645
F4 Mn4 2.137607 1_555
F5 Mn5 2.092064 1_555
F5 Mn2 2.159055 1_554
F5 Mn1 2.159055 1_554
F6 Mn2 2.005363 1_554
F6 Mn0 2.077988 1_545
F6 Mn3 2.137607 1_555
