# generated using pymatgen
data_Li9V4(PO4)6
_symmetry_space_group_name_H-M   'P 1'
_cell_length_a   8.48713100
_cell_length_b   8.49595156
_cell_length_c   9.29914560
_cell_angle_alpha   63.04177483
_cell_angle_beta   62.97548854
_cell_angle_gamma   60.07637669
_symmetry_Int_Tables_number   1
_chemical_formula_structural   Li9V4(PO4)6
_chemical_formula_sum   'Li9 V4 P6 O24'
_cell_volume   494.87018958
_cell_formula_units_Z   1
loop_
 _symmetry_equiv_pos_site_id
 _symmetry_equiv_pos_as_xyz
  1  'x, y, z'
loop_
 _atom_site_type_symbol
 _atom_site_label
 _atom_site_symmetry_multiplicity
 _atom_site_fract_x
 _atom_site_fract_y
 _atom_site_fract_z
 _atom_site_occupancy
  Li  Li0  1  0.72914900  0.33946500  0.86150900  1
  Li  Li1  1  0.69402300  0.93002800  0.10721400  1
  Li  Li2  1  0.46801700  0.90308300  0.41313000  1
  Li  Li3  1  0.92301100  0.27262400  0.14081800  1
  Li  Li4  1  0.44445800  0.45809300  0.64780800  1
  Li  Li5  1  0.07044100  0.72818400  0.86807200  1
  Li  Li6  1  0.53731900  0.09188400  0.57735100  1
  Li  Li7  1  0.30122400  0.06525600  0.89593500  1
  Li  Li8  1  0.27394000  0.65570200  0.14696600  1
  V  V0  1  0.34084300  0.34256300  0.97247400  1
  V  V1  1  0.65321600  0.65324600  0.04393900  1
  V  V2  1  0.12971800  0.16243300  0.56227700  1
  V  V3  1  0.87222700  0.83796100  0.43379200  1
  P  P0  1  0.95509700  0.54896300  0.24727800  1
  P  P1  1  0.44576400  0.75315900  0.75447100  1
  P  P2  1  0.74765300  0.04788400  0.74568300  1
  P  P3  1  0.25195800  0.95535800  0.25241400  1
  P  P4  1  0.55409900  0.24573600  0.24383700  1
  P  P5  1  0.04727200  0.45186600  0.75082600  1
  O  O0  1  0.40858100  0.17581700  0.40879900  1
  O  O1  1  0.56136800  0.20088800  0.09396600  1
  O  O2  1  0.14259600  0.55925900  0.09699800  1
  O  O3  1  0.00096100  0.40576800  0.40979400  1
  O  O4  1  0.19562800  0.00256700  0.41394700  1
  O  O5  1  0.83981300  0.75367900  0.26878900  1
  O  O6  1  0.20352800  0.14013000  0.10185300  1
  O  O7  1  0.85480600  0.16371600  0.72429500  1
  O  O8  1  0.83930400  0.50015000  0.19657600  1
  O  O9  1  0.49581400  0.53770900  0.78979300  1
  O  O10  1  0.24577100  0.87051700  0.72697600  1
  O  O11  1  0.52681900  0.17431300  0.78197600  1
  O  O12  1  0.47169200  0.84310800  0.20823900  1
  O  O13  1  0.75279600  0.12718400  0.27443100  1
  O  O14  1  0.50414900  0.45905000  0.20024100  1
  O  O15  1  0.17619700  0.49888900  0.79245400  1
  O  O16  1  0.14698600  0.83770900  0.27353100  1
  O  O17  1  0.78738600  0.86590900  0.89858700  1
  O  O18  1  0.16162600  0.24706100  0.72915400  1
  O  O19  1  0.80111100  0.99851400  0.58656100  1
  O  O20  1  0.00089500  0.59599300  0.59007000  1
  O  O21  1  0.86414900  0.44331600  0.90426600  1
  O  O22  1  0.44248300  0.79059400  0.90553000  1
  O  O23  1  0.59054000  0.82179400  0.58913900  1
loop_
_geom_bond_atom_site_label_1
_geom_bond_atom_site_label_2
_geom_bond_distance
_geom_bond_site_symmetry_2
Li0 O7 1.974102 1_555
Li0 O21 1.997494 1_555
Li0 O9 2.014274 1_555
Li0 O1 2.157424 1_556
Li1 O17 1.954231 1_554
Li1 O5 1.957583 1_555
Li1 O1 1.965315 1_565
Li1 O12 2.034401 1_555
Li2 O23 2.010589 1_555
Li2 O4 2.024667 1_565
Li2 O0 2.095922 1_565
Li2 O12 2.168226 1_555
Li3 O8 1.927206 1_555
Li3 O13 1.978731 1_555
Li3 O6 1.994656 1_655
Li3 O21 2.138910 1_554
Li4 O15 1.991349 1_555
Li4 O9 2.004415 1_555
Li4 O11 2.059574 1_555
Li5 O10 1.995136 1_555
Li5 O15 2.004764 1_555
Li5 O17 2.024331 1_455
Li5 O2 2.122341 1_556
Li6 O0 1.981052 1_555
Li6 O19 1.997437 1_545
Li6 O23 2.065042 1_545
Li6 O11 2.260760 1_555
Li6 O13 2.543451 1_555
Li7 O18 1.966442 1_555
Li7 O6 1.973376 1_556
Li7 O22 2.001963 1_545
Li7 O11 2.164074 1_555
Li8 O14 1.930433 1_555
Li8 O16 1.942342 1_555
Li8 O2 1.963949 1_555
Li8 O22 2.187333 1_554
O0 P4 1.554166 1_555
O0 V2 2.168667 1_555
O1 P4 1.572004 1_555
O1 V0 2.160821 1_554
O2 P0 1.581157 1_455
O2 V0 2.152482 1_554
O3 P0 1.520069 1_455
O3 V2 1.993752 1_555
O4 P3 1.532364 1_545
O4 V2 2.073565 1_555
O5 P0 1.569117 1_555
O5 V3 2.125809 1_555
O6 P3 1.574785 1_545
O6 V0 2.147798 1_554
O7 P2 1.544710 1_555
O7 V2 2.123431 1_655
O8 P0 1.537873 1_555
O8 V1 2.124751 1_555
O9 P1 1.563586 1_555
O9 V0 2.226220 1_555
O10 P1 1.554133 1_555
O10 V2 2.226314 1_565
O11 P2 1.589273 1_555
O11 V0 2.275241 1_555
O12 P3 1.562290 1_555
O12 V1 2.219440 1_555
O13 P4 1.555899 1_555
O13 V3 2.199991 1_545
O14 P4 1.533632 1_555
O14 V1 2.161595 1_555
O15 P5 1.570988 1_555
O15 V0 2.185698 1_555
O16 P3 1.543652 1_555
O16 V3 2.120995 1_455
O17 P2 1.564655 1_565
O17 V1 2.197227 1_556
O18 P5 1.570209 1_555
O18 V2 2.141540 1_555
O19 P2 1.527769 1_565
O19 V3 2.097490 1_555
O20 P5 1.511026 1_555
O20 V3 2.006053 1_455
O21 P5 1.568481 1_655
O21 V1 2.207876 1_556
O22 P1 1.560723 1_555
O22 V1 2.205675 1_556
O23 P1 1.548815 1_555
O23 V3 2.197840 1_555
