# generated using pymatgen
data_LiCu(PO3)3
_symmetry_space_group_name_H-M   'P 1'
_cell_length_a   5.15760800
_cell_length_b   11.58375000
_cell_length_c   13.08281600
_cell_angle_alpha   90.00000000
_cell_angle_beta   90.00000000
_cell_angle_gamma   90.00000000
_symmetry_Int_Tables_number   1
_chemical_formula_structural   LiCu(PO3)3
_chemical_formula_sum   'Li4 Cu4 P12 O36'
_cell_volume   781.62553739
_cell_formula_units_Z   4
loop_
 _symmetry_equiv_pos_site_id
 _symmetry_equiv_pos_as_xyz
  1  'x, y, z'
loop_
 _atom_site_type_symbol
 _atom_site_label
 _atom_site_symmetry_multiplicity
 _atom_site_fract_x
 _atom_site_fract_y
 _atom_site_fract_z
 _atom_site_occupancy
  Li  Li0  1  0.12056700  0.06089800  0.25000000  1
  Li  Li1  1  0.12056700  0.43910200  0.75000000  1
  Li  Li2  1  0.87943300  0.56089800  0.25000000  1
  Li  Li3  1  0.87943300  0.93910200  0.75000000  1
  Cu  Cu0  1  0.00000000  0.00000000  0.00000000  1
  Cu  Cu1  1  0.00000000  0.50000000  0.00000000  1
  Cu  Cu2  1  0.00000000  0.00000000  0.50000000  1
  Cu  Cu3  1  0.00000000  0.50000000  0.50000000  1
  P  P0  1  0.23588700  0.75000000  0.00000000  1
  P  P1  1  0.23588700  0.75000000  0.50000000  1
  P  P2  1  0.47301900  0.08228100  0.63897700  1
  P  P3  1  0.47301900  0.08228100  0.86102300  1
  P  P4  1  0.47301900  0.41771900  0.13897700  1
  P  P5  1  0.47301900  0.41771900  0.36102300  1
  P  P6  1  0.52698100  0.58228100  0.63897700  1
  P  P7  1  0.52698100  0.91771900  0.13897700  1
  P  P8  1  0.52698100  0.91771900  0.36102300  1
  P  P9  1  0.52698100  0.58228100  0.86102300  1
  P  P10  1  0.76411300  0.25000000  0.00000000  1
  P  P11  1  0.76411300  0.25000000  0.50000000  1
  O  O0  1  0.08623500  0.65716900  0.05503600  1
  O  O1  1  0.08623500  0.65716900  0.44496400  1
  O  O2  1  0.08623500  0.84283100  0.55503600  1
  O  O3  1  0.08623500  0.84283100  0.94496400  1
  O  O4  1  0.18687100  0.43928500  0.12189700  1
  O  O5  1  0.18687100  0.06071500  0.62189700  1
  O  O6  1  0.18687100  0.43928500  0.37810300  1
  O  O7  1  0.18687100  0.06071500  0.87810300  1
  O  O8  1  0.33855100  0.01557000  0.12878200  1
  O  O9  1  0.33855100  0.01557000  0.37121800  1
  O  O10  1  0.33855100  0.48443000  0.62878200  1
  O  O11  1  0.33855100  0.48443000  0.87121800  1
  O  O12  1  0.49902100  0.85904000  0.25000000  1
  O  O13  1  0.49902100  0.64096000  0.75000000  1
  O  O14  1  0.44272300  0.69326900  0.57564900  1
  O  O15  1  0.44272300  0.80673100  0.07564900  1
  O  O16  1  0.44272300  0.69326900  0.92435100  1
  O  O17  1  0.44272300  0.80673100  0.42435100  1
  O  O18  1  0.55727700  0.19326900  0.57564900  1
  O  O19  1  0.55727700  0.30673100  0.07564900  1
  O  O20  1  0.55727700  0.30673100  0.42435100  1
  O  O21  1  0.55727700  0.19326900  0.92435100  1
  O  O22  1  0.50097900  0.14096000  0.75000000  1
  O  O23  1  0.50097900  0.35904000  0.25000000  1
  O  O24  1  0.66144900  0.98443000  0.62878200  1
  O  O25  1  0.66144900  0.51557000  0.12878200  1
  O  O26  1  0.66144900  0.51557000  0.37121800  1
  O  O27  1  0.66144900  0.98443000  0.87121800  1
  O  O28  1  0.81312900  0.56071500  0.62189700  1
  O  O29  1  0.81312900  0.93928500  0.12189700  1
  O  O30  1  0.81312900  0.93928500  0.37810300  1
  O  O31  1  0.81312900  0.56071500  0.87810300  1
  O  O32  1  0.91376500  0.15716900  0.44496400  1
  O  O33  1  0.91376500  0.34283100  0.55503600  1
  O  O34  1  0.91376500  0.15716900  0.05503600  1
  O  O35  1  0.91376500  0.34283100  0.94496400  1
loop_
_geom_bond_atom_site_label_1
_geom_bond_atom_site_label_2
_geom_bond_distance
_geom_bond_site_symmetry_2
Li0 O9 2.013625 1_555
Li0 O8 2.013625 1_555
Li1 O11 2.013625 1_555
Li1 O10 2.013625 1_555
Li2 O26 2.013625 1_555
Li2 O25 2.013625 1_555
Li3 O27 2.013625 1_555
Li3 O24 2.013625 1_555
Cu0 O29 1.991686 1_445
Cu0 O7 1.991686 1_554
Cu0 O34 2.007701 1_455
Cu0 O3 2.007701 1_544
Cu0 O8 2.433125 1_555
Cu0 O27 2.433125 1_444
Cu1 O4 1.991686 1_555
Cu1 O31 1.991686 1_454
Cu1 O0 2.007701 1_555
Cu1 O35 2.007701 1_454
Cu1 O25 2.433125 1_455
Cu1 O11 2.433125 1_554
Cu2 O5 1.991686 1_555
Cu2 O30 1.991686 1_445
Cu2 O2 2.007701 1_545
Cu2 O32 2.007701 1_455
Cu2 O24 2.433125 1_445
Cu2 O9 2.433125 1_555
Cu3 O28 1.991686 1_455
Cu3 O6 1.991686 1_555
Cu3 O33 2.007701 1_455
Cu3 O1 2.007701 1_555
Cu3 O10 2.433125 1_555
Cu3 O26 2.433125 1_455
O0 P0 1.506825 1_555
O1 P1 1.506825 1_555
O2 P1 1.506825 1_555
O3 P0 1.506825 1_556
O4 P4 1.513420 1_555
O5 P2 1.513420 1_555
O6 P5 1.513420 1_555
O7 P3 1.513420 1_555
O8 P7 1.499019 1_545
O9 P8 1.499019 1_545
O10 P6 1.499019 1_555
O11 P9 1.499019 1_555
O12 P8 1.610142 1_555
O12 P7 1.610142 1_555
O13 P6 1.610142 1_555
O13 P9 1.610142 1_555
O14 P6 1.590029 1_555
O14 P1 1.596679 1_555
O15 P7 1.590029 1_555
O15 P0 1.596679 1_555
O16 P9 1.590029 1_555
O16 P0 1.596679 1_556
O17 P8 1.590029 1_555
O17 P1 1.596679 1_555
O18 P2 1.590029 1_555
O18 P11 1.596679 1_555
O19 P4 1.590029 1_555
O19 P10 1.596679 1_555
O20 P5 1.590029 1_555
O20 P11 1.596679 1_555
O21 P3 1.590029 1_555
O21 P10 1.596679 1_556
O22 P2 1.610142 1_555
O22 P3 1.610142 1_555
O23 P5 1.610142 1_555
O23 P4 1.610142 1_555
O24 P2 1.499019 1_565
O25 P4 1.499019 1_555
O26 P5 1.499019 1_555
O27 P3 1.499019 1_565
O28 P6 1.513420 1_555
O29 P7 1.513420 1_555
O30 P8 1.513420 1_555
O31 P9 1.513420 1_555
O32 P11 1.506825 1_555
O33 P11 1.506825 1_555
O34 P10 1.506825 1_555
O35 P10 1.506825 1_556
