# generated using pymatgen
data_LuBiO3
_symmetry_space_group_name_H-M   'P 1'
_cell_length_a   6.10858163
_cell_length_b   6.10858163
_cell_length_c   6.10858144
_cell_angle_alpha   57.68195007
_cell_angle_beta   57.68195007
_cell_angle_gamma   57.68194838
_symmetry_Int_Tables_number   1
_chemical_formula_structural   LuBiO3
_chemical_formula_sum   'Lu2 Bi2 O6'
_cell_volume   152.59323552
_cell_formula_units_Z   2
loop_
 _symmetry_equiv_pos_site_id
 _symmetry_equiv_pos_as_xyz
  1  'x, y, z'
loop_
 _atom_site_type_symbol
 _atom_site_label
 _atom_site_symmetry_multiplicity
 _atom_site_fract_x
 _atom_site_fract_y
 _atom_site_fract_z
 _atom_site_occupancy
  Lu  Lu0  1  0.85482900  0.85482900  0.85482900  1
  Lu  Lu1  1  0.14517100  0.14517100  0.14517100  1
  Bi  Bi0  1  0.64122400  0.64122400  0.64122400  1
  Bi  Bi1  1  0.35877600  0.35877600  0.35877600  1
  O  O0  1  0.98064600  0.21625900  0.54680400  1
  O  O1  1  0.54680400  0.98064600  0.21625900  1
  O  O2  1  0.21625900  0.54680400  0.98064600  1
  O  O3  1  0.78374100  0.45319600  0.01935400  1
  O  O4  1  0.45319600  0.01935400  0.78374100  1
  O  O5  1  0.01935400  0.78374100  0.45319600  1
loop_
_geom_bond_atom_site_label_1
_geom_bond_atom_site_label_2
_geom_bond_distance
_geom_bond_site_symmetry_2
Lu0 O1 2.198137 1_556
Lu0 O2 2.198137 1_655
Lu0 O0 2.198137 1_565
Lu0 O5 2.292142 1_655
Lu0 O4 2.292142 1_565
Lu0 O3 2.292142 1_556
Lu1 O4 2.198137 1_554
Lu1 O3 2.198137 1_455
Lu1 O5 2.198137 1_545
Lu1 O0 2.292142 1_455
Lu1 O1 2.292142 1_545
Lu1 O2 2.292142 1_554
Bi0 O3 2.378387 1_556
Bi0 O4 2.378387 1_565
Bi0 O5 2.378387 1_655
Bi0 O1 2.436738 1_555
Bi0 O0 2.436738 1_555
Bi0 O2 2.436738 1_555
Bi1 O2 2.378387 1_554
Bi1 O1 2.378387 1_545
Bi1 O0 2.378387 1_455
Bi1 O4 2.436738 1_555
Bi1 O5 2.436738 1_555
Bi1 O3 2.436738 1_555
