# generated using pymatgen
data_Gd3InO6
_symmetry_space_group_name_H-M   'P 1'
_cell_length_a   6.71240946
_cell_length_b   6.71240946
_cell_length_c   6.71240961
_cell_angle_alpha   92.20367571
_cell_angle_beta   92.20367566
_cell_angle_gamma   92.20368296
_symmetry_Int_Tables_number   1
_chemical_formula_structural   Gd3InO6
_chemical_formula_sum   'Gd6 In2 O12'
_cell_volume   301.74855322
_cell_formula_units_Z   2
loop_
 _symmetry_equiv_pos_site_id
 _symmetry_equiv_pos_as_xyz
  1  'x, y, z'
loop_
 _atom_site_type_symbol
 _atom_site_label
 _atom_site_symmetry_multiplicity
 _atom_site_fract_x
 _atom_site_fract_y
 _atom_site_fract_z
 _atom_site_occupancy
  Gd  Gd0  1  0.56034239  0.06755725  0.25348558  1
  Gd  Gd1  1  0.06755725  0.25348558  0.56034239  1
  Gd  Gd2  1  0.74651442  0.43965761  0.93244275  1
  Gd  Gd3  1  0.25348558  0.56034239  0.06755725  1
  Gd  Gd4  1  0.93244275  0.74651442  0.43965761  1
  Gd  Gd5  1  0.43965761  0.93244275  0.74651442  1
  In  In0  1  0.00000000  0.00000000  0.00000000  1
  In  In1  1  0.50000000  0.50000000  0.50000000  1
  O  O0  1  0.69145868  0.08784323  0.93107228  1
  O  O1  1  0.91215677  0.06892772  0.30854132  1
  O  O2  1  0.40484573  0.19051685  0.53519007  1
  O  O3  1  0.06892772  0.30854132  0.91215677  1
  O  O4  1  0.53519007  0.40484573  0.19051685  1
  O  O5  1  0.80948315  0.46480993  0.59515427  1
  O  O6  1  0.19051685  0.53519007  0.40484573  1
  O  O7  1  0.46480993  0.59515427  0.80948315  1
  O  O8  1  0.93107228  0.69145868  0.08784323  1
  O  O9  1  0.59515427  0.80948315  0.46480993  1
  O  O10  1  0.08784323  0.93107228  0.69145868  1
  O  O11  1  0.30854132  0.91215677  0.06892772  1
loop_
_geom_bond_atom_site_label_1
_geom_bond_atom_site_label_2
_geom_bond_distance
_geom_bond_site_symmetry_2
Gd0 O11 2.254670 1_545
Gd0 O9 2.293949 1_545
Gd0 O4 2.330329 1_555
Gd0 O2 2.333284 1_555
Gd0 O0 2.374171 1_554
Gd0 O1 2.375794 1_555
Gd1 O1 2.254670 1_455
Gd1 O5 2.293950 1_455
Gd1 O2 2.330329 1_555
Gd1 O6 2.333284 1_555
Gd1 O10 2.374171 1_545
Gd1 O3 2.375794 1_555
Gd2 O8 2.254670 1_556
Gd2 O4 2.293949 1_556
Gd2 O5 2.330329 1_555
Gd2 O7 2.333284 1_555
Gd2 O3 2.374171 1_655
Gd2 O0 2.375794 1_555
Gd3 O3 2.254670 1_554
Gd3 O7 2.293949 1_554
Gd3 O6 2.330329 1_555
Gd3 O4 2.333284 1_555
Gd3 O8 2.374171 1_455
Gd3 O11 2.375794 1_555
Gd4 O10 2.254670 1_655
Gd4 O6 2.293950 1_655
Gd4 O9 2.330329 1_555
Gd4 O5 2.333284 1_555
Gd4 O1 2.374171 1_565
Gd4 O8 2.375794 1_555
Gd5 O0 2.254670 1_565
Gd5 O2 2.293949 1_565
Gd5 O7 2.330329 1_555
Gd5 O9 2.333284 1_555
Gd5 O11 2.374171 1_556
Gd5 O10 2.375794 1_555
In0 O8 2.211835 1_445
In0 O3 2.211835 1_554
In0 O10 2.211835 1_544
In0 O1 2.211835 1_455
In0 O0 2.211835 1_454
In0 O11 2.211835 1_545
In1 O2 2.174063 1_555
In1 O9 2.174063 1_555
In1 O5 2.174063 1_555
In1 O6 2.174063 1_555
In1 O7 2.174063 1_555
In1 O4 2.174063 1_555
