# generated using pymatgen
data_FeOF
_symmetry_space_group_name_H-M   'P 1'
_cell_length_a   6.20982200
_cell_length_b   9.47776016
_cell_length_c   9.47954459
_cell_angle_alpha   89.62635154
_cell_angle_beta   89.69574820
_cell_angle_gamma   89.88783567
_symmetry_Int_Tables_number   1
_chemical_formula_structural   FeOF
_chemical_formula_sum   'Fe16 O16 F16'
_cell_volume   557.89976509
_cell_formula_units_Z   16
loop_
 _symmetry_equiv_pos_site_id
 _symmetry_equiv_pos_as_xyz
  1  'x, y, z'
loop_
 _atom_site_type_symbol
 _atom_site_label
 _atom_site_symmetry_multiplicity
 _atom_site_fract_x
 _atom_site_fract_y
 _atom_site_fract_z
 _atom_site_occupancy
  Fe  Fe0  1  0.98183700  0.73935400  0.75927100  1
  Fe  Fe1  1  0.51608300  0.75974300  0.74048700  1
  Fe  Fe2  1  0.00074100  0.74862300  0.24848400  1
  Fe  Fe3  1  0.50143700  0.75047100  0.25026100  1
  Fe  Fe4  1  0.73102600  0.01633600  0.51970900  1
  Fe  Fe5  1  0.26897400  0.98366400  0.48029100  1
  Fe  Fe6  1  0.77415600  0.98930900  0.98949900  1
  Fe  Fe7  1  0.22584400  0.01069100  0.01050100  1
  Fe  Fe8  1  0.01816300  0.26064600  0.24072900  1
  Fe  Fe9  1  0.48391700  0.24025700  0.25951300  1
  Fe  Fe10  1  0.99925900  0.25137700  0.75151600  1
  Fe  Fe11  1  0.49856300  0.24952900  0.74973900  1
  Fe  Fe12  1  0.77389200  0.50962500  0.50950700  1
  Fe  Fe13  1  0.22610800  0.49037500  0.49049300  1
  Fe  Fe14  1  0.76669800  0.51840800  0.01577300  1
  Fe  Fe15  1  0.23330200  0.48159200  0.98422700  1
  O  O0  1  0.25605700  0.83926500  0.33792900  1
  O  O1  1  0.74736300  0.84660200  0.84597600  1
  O  O2  1  0.49482700  0.90345100  0.59644600  1
  O  O3  1  0.99998700  0.89916900  0.09902400  1
  O  O4  1  0.50517300  0.09654900  0.40355400  1
  O  O5  1  0.00001300  0.10083100  0.90097600  1
  O  O6  1  0.25263700  0.15339800  0.15402400  1
  O  O7  1  0.74394300  0.16073500  0.66207100  1
  O  O8  1  0.25171900  0.34673300  0.34720300  1
  O  O9  1  0.25957000  0.33964300  0.84003300  1
  O  O10  1  0.99926000  0.40071100  0.60083100  1
  O  O11  1  0.99587000  0.40376000  0.09639400  1
  O  O12  1  0.00074000  0.59928900  0.39916900  1
  O  O13  1  0.00413000  0.59624000  0.90360600  1
  O  O14  1  0.74828100  0.65326700  0.65279700  1
  O  O15  1  0.74043000  0.66035700  0.15996700  1
  F  F0  1  0.74944600  0.85261200  0.35377800  1
  F  F1  1  0.25236900  0.84703100  0.84721000  1
  F  F2  1  0.00458500  0.90453500  0.59584500  1
  F  F3  1  0.50041800  0.90529100  0.09507400  1
  F  F4  1  0.99541500  0.09546500  0.40415500  1
  F  F5  1  0.49958200  0.09470900  0.90492600  1
  F  F6  1  0.25055400  0.14738800  0.64622200  1
  F  F7  1  0.74763100  0.15296900  0.15279000  1
  F  F8  1  0.74734900  0.34670500  0.34653600  1
  F  F9  1  0.73717600  0.35513100  0.85443500  1
  F  F10  1  0.49939200  0.40521400  0.59499500  1
  F  F11  1  0.50411700  0.40312200  0.09664100  1
  F  F12  1  0.50060800  0.59478600  0.40500500  1
  F  F13  1  0.49588300  0.59687800  0.90335900  1
  F  F14  1  0.25265100  0.65329500  0.65346400  1
  F  F15  1  0.26282400  0.64486900  0.14556500  1
loop_
_geom_bond_atom_site_label_1
_geom_bond_atom_site_label_2
_geom_bond_distance
_geom_bond_site_symmetry_2
Fe0 O13 1.925645 1_655
Fe0 O14 1.954190 1_555
Fe0 O1 1.954795 1_555
Fe1 O2 1.927158 1_555
Fe1 O1 1.941904 1_555
Fe1 O14 1.944480 1_555
Fe2 O0 1.999943 1_555
Fe2 O3 2.004227 1_455
Fe2 O12 2.004308 1_555
Fe2 O15 2.011420 1_455
Fe3 O15 1.911999 1_555
Fe3 O0 1.926500 1_555
Fe4 O7 1.930371 1_555
Fe4 O4 1.938740 1_555
Fe4 O2 1.951888 1_545
Fe5 O0 1.930371 1_555
Fe5 O2 1.938740 1_555
Fe5 O4 1.951888 1_565
Fe6 O1 1.932716 1_555
Fe6 O5 1.941706 1_665
Fe6 O3 1.942595 1_556
Fe7 O6 1.932716 1_555
Fe7 O3 1.941706 1_445
Fe7 O5 1.942595 1_554
Fe8 O11 1.925645 1_455
Fe8 O8 1.954190 1_555
Fe8 O6 1.954795 1_555
Fe9 O4 1.927158 1_555
Fe9 O6 1.941904 1_555
Fe9 O8 1.944480 1_555
Fe10 O7 1.999943 1_555
Fe10 O5 2.004227 1_655
Fe10 O10 2.004308 1_555
Fe10 O9 2.011420 1_655
Fe11 O9 1.911999 1_555
Fe11 O7 1.926500 1_555
Fe12 O14 1.935132 1_555
Fe12 O10 1.941432 1_555
Fe12 O12 1.943719 1_655
Fe13 O8 1.935132 1_555
Fe13 O12 1.941432 1_555
Fe13 O10 1.943719 1_455
Fe14 O15 1.930221 1_555
Fe14 O11 1.945436 1_555
Fe14 O13 1.956020 1_654
Fe15 O9 1.930221 1_555
Fe15 O13 1.945436 1_555
Fe15 O11 1.956020 1_456
F0 Fe3 2.075151 1_555
F0 Fe2 2.095966 1_655
F0 Fe4 2.219093 1_565
F1 Fe1 2.092303 1_555
F1 Fe0 2.142744 1_455
F1 Fe7 2.203818 1_566
F2 Fe5 2.105443 1_555
F2 Fe4 2.127313 1_465
F2 Fe0 2.199507 1_455
F3 Fe3 2.071038 1_555
F3 Fe6 2.121811 1_554
F3 Fe7 2.131965 1_565
F4 Fe4 2.105443 1_555
F4 Fe5 2.127313 1_645
F4 Fe8 2.199507 1_655
F5 Fe11 2.071038 1_555
F5 Fe7 2.121811 1_556
F5 Fe6 2.131965 1_545
F6 Fe11 2.075151 1_555
F6 Fe10 2.095966 1_455
F6 Fe5 2.219093 1_545
F7 Fe9 2.092303 1_555
F7 Fe8 2.142744 1_655
F7 Fe6 2.203818 1_544
F8 Fe9 2.099068 1_555
F8 Fe8 2.118211 1_655
F8 Fe12 2.198401 1_555
F9 Fe11 2.053457 1_555
F9 Fe10 2.134698 1_555
F9 Fe14 2.191443 1_556
F10 Fe11 2.073833 1_555
F10 Fe13 2.124816 1_555
F10 Fe12 2.126764 1_555
F11 Fe14 2.103123 1_555
F11 Fe15 2.126182 1_554
F11 Fe9 2.179410 1_555
F12 Fe3 2.073833 1_555
F12 Fe12 2.124816 1_555
F12 Fe13 2.126764 1_555
F13 Fe15 2.103123 1_555
F13 Fe14 2.126182 1_556
F13 Fe1 2.179410 1_555
F14 Fe1 2.099068 1_555
F14 Fe0 2.118211 1_455
F14 Fe13 2.198401 1_555
F15 Fe3 2.053457 1_555
F15 Fe2 2.134698 1_555
F15 Fe15 2.191443 1_554
