# generated using pymatgen
data_Li3(NiO2)5
_symmetry_space_group_name_H-M   'P 1'
_cell_length_a   4.99096115
_cell_length_b   5.85008734
_cell_length_c   6.49350179
_cell_angle_alpha   105.39277044
_cell_angle_beta   83.04519489
_cell_angle_gamma   73.95898357
_symmetry_Int_Tables_number   1
_chemical_formula_structural   Li3(NiO2)5
_chemical_formula_sum   'Li3 Ni5 O10'
_cell_volume   171.76503562
_cell_formula_units_Z   1
loop_
 _symmetry_equiv_pos_site_id
 _symmetry_equiv_pos_as_xyz
  1  'x, y, z'
loop_
 _atom_site_type_symbol
 _atom_site_label
 _atom_site_symmetry_multiplicity
 _atom_site_fract_x
 _atom_site_fract_y
 _atom_site_fract_z
 _atom_site_occupancy
  Li  Li0  1  0.59997800  0.29998600  0.80000900  1
  Li  Li1  1  0.39811400  0.69823100  0.19515400  1
  Li  Li2  1  0.80188900  0.90170600  0.40478200  1
  Ni  Ni0  1  0.99912500  0.00575200  0.99385400  1
  Ni  Ni1  1  0.20088100  0.59408500  0.60616600  1
  Ni  Ni2  1  0.59994900  0.80005800  0.80004300  1
  Ni  Ni3  1  0.39823900  0.20077600  0.20086100  1
  Ni  Ni4  1  0.80177500  0.39933100  0.39915400  1
  O  O0  1  0.09465800  0.08052000  0.28413900  1
  O  O1  1  0.10522800  0.51923900  0.31531100  1
  O  O2  1  0.67698300  0.34089000  0.12816100  1
  O  O3  1  0.52326900  0.25877500  0.47163300  1
  O  O4  1  0.66660500  0.88076400  0.08920600  1
  O  O5  1  0.53359200  0.71930000  0.51080400  1
  O  O6  1  0.33155800  0.12685000  0.91692900  1
  O  O7  1  0.86819300  0.47313600  0.68305200  1
  O  O8  1  0.31925000  0.67024100  0.88574100  1
  O  O9  1  0.88071600  0.93035800  0.71499800  1
loop_
_geom_bond_atom_site_label_1
_geom_bond_atom_site_label_2
_geom_bond_distance
_geom_bond_site_symmetry_2
Li0 O7 2.075184 1_555
Li0 O6 2.075774 1_555
Li0 O9 2.109107 1_545
Li0 O8 2.111501 1_555
Li0 O2 2.173472 1_556
Li0 O3 2.174224 1_555
Li1 O2 2.063766 1_555
Li1 O8 2.066640 1_554
Li1 O4 2.089688 1_555
Li1 O1 2.201244 1_555
Li1 O0 2.204412 1_565
Li1 O5 2.218362 1_555
Li2 O3 2.062210 1_565
Li2 O9 2.071173 1_555
Li2 O5 2.088579 1_555
Li2 O0 2.201286 1_665
Li2 O1 2.204696 1_655
Li2 O4 2.217568 1_555
Ni0 O9 1.949829 1_545
Ni0 O0 1.966462 1_656
Ni0 O6 2.034932 1_655
Ni0 O8 2.040054 1_645
Ni0 O2 2.049424 1_556
Ni0 O4 2.081919 1_546
Ni1 O8 1.954246 1_555
Ni1 O1 1.970168 1_555
Ni1 O7 2.035437 1_455
Ni1 O9 2.043043 1_455
Ni1 O3 2.050743 1_555
Ni1 O5 2.083620 1_555
Ni2 O8 1.863504 1_555
Ni2 O9 1.864414 1_555
Ni2 O6 1.895644 1_565
Ni2 O7 1.895936 1_555
Ni2 O5 1.904331 1_555
Ni2 O4 1.904396 1_556
Ni3 O4 1.866257 1_545
Ni3 O6 1.871340 1_554
Ni3 O2 1.872632 1_555
Ni3 O1 1.912569 1_555
Ni3 O3 1.913639 1_555
Ni3 O0 1.917208 1_555
Ni4 O5 1.865720 1_555
Ni4 O7 1.870645 1_555
Ni4 O3 1.873080 1_555
Ni4 O0 1.913767 1_655
Ni4 O2 1.914432 1_555
Ni4 O1 1.916361 1_655
