# generated using pymatgen
data_Li24Mn7Cr5O36
_symmetry_space_group_name_H-M   'P 1'
_cell_length_a   5.03474200
_cell_length_b   9.74688838
_cell_length_c   13.24092864
_cell_angle_alpha   97.02334241
_cell_angle_beta   100.69239305
_cell_angle_gamma   95.15872026
_symmetry_Int_Tables_number   1
_chemical_formula_structural   Li24Mn7Cr5O36
_chemical_formula_sum   'Li24 Mn7 Cr5 O36'
_cell_volume   629.46240368
_cell_formula_units_Z   1
loop_
 _symmetry_equiv_pos_site_id
 _symmetry_equiv_pos_as_xyz
  1  'x, y, z'
loop_
 _atom_site_type_symbol
 _atom_site_label
 _atom_site_symmetry_multiplicity
 _atom_site_fract_x
 _atom_site_fract_y
 _atom_site_fract_z
 _atom_site_occupancy
  Li  Li0  1  0.17102100  0.99955300  0.83434000  1
  Li  Li1  1  0.05171700  0.99962300  0.61290400  1
  Li  Li2  1  0.99910200  0.74969800  0.24851800  1
  Li  Li3  1  0.33239100  0.75005100  0.91629900  1
  Li  Li4  1  0.05095300  0.49996000  0.11269000  1
  Li  Li5  1  0.37940300  0.49870500  0.77941300  1
  Li  Li6  1  0.17175800  0.49898100  0.33430800  1
  Li  Li7  1  0.50228000  0.50041200  0.00052900  1
  Li  Li8  1  0.28670900  0.50041200  0.55382900  1
  Li  Li9  1  0.33407600  0.24962300  0.41647600  1
  Li  Li10  1  0.50204700  0.00063100  0.50025900  1
  Li  Li11  1  0.28226700  0.99834800  0.05219400  1
  Li  Li12  1  0.61261100  0.00038700  0.72014900  1
  Li  Li13  1  0.38241400  0.00053900  0.28066000  1
  Li  Li14  1  0.71303600  0.99904600  0.94563600  1
  Li  Li15  1  0.66489300  0.75012000  0.58159800  1
  Li  Li16  1  0.70953400  0.49860700  0.44610900  1
  Li  Li17  1  0.83572200  0.50022700  0.66675700  1
  Li  Li18  1  0.61264000  0.50017600  0.22028300  1
  Li  Li19  1  0.95196000  0.50186400  0.88712300  1
  Li  Li20  1  0.66327200  0.25059900  0.08203400  1
  Li  Li21  1  0.83774700  0.99900100  0.16702900  1
  Li  Li22  1  0.99956100  0.24954000  0.74995300  1
  Li  Li23  1  0.94858300  0.00075000  0.38671700  1
  Mn  Mn0  1  0.22226200  0.74995600  0.69467400  1
  Mn  Mn1  1  0.22288000  0.25101500  0.19487200  1
  Mn  Mn2  1  0.44300700  0.25035300  0.63862000  1
  Mn  Mn3  1  0.55399700  0.24886700  0.86032700  1
  Mn  Mn4  1  0.44403900  0.75003600  0.13904500  1
  Mn  Mn5  1  0.55521800  0.74976500  0.36120300  1
  Mn  Mn6  1  0.89021800  0.75066900  0.02793600  1
  Cr  Cr0  1  0.10400100  0.25009000  0.97136100  1
  Cr  Cr1  1  0.10709000  0.74965200  0.47017100  1
  Cr  Cr2  1  0.77363600  0.74981900  0.80358600  1
  Cr  Cr3  1  0.77311500  0.24918900  0.30328500  1
  Cr  Cr4  1  0.89055500  0.25079000  0.52805800  1
  O  O0  1  0.99949800  0.86263100  0.92952200  1
  O  O1  1  0.07415300  0.63454900  0.78440800  1
  O  O2  1  0.99891900  0.36205000  0.42957300  1
  O  O3  1  0.14633700  0.36224300  0.64357100  1
  O  O4  1  0.26653500  0.36324800  0.88355100  1
  O  O5  1  0.33366000  0.86184200  0.59576000  1
  O  O6  1  0.07450000  0.13461500  0.28448200  1
  O  O7  1  0.19176600  0.13774700  0.52414000  1
  O  O8  1  0.40541500  0.13548400  0.95170600  1
  O  O9  1  0.14561000  0.86162000  0.14348300  1
  O  O10  1  0.26517700  0.86304300  0.38339600  1
  O  O11  1  0.47140300  0.86249200  0.80898500  1
  O  O12  1  0.33049100  0.13860600  0.73780500  1
  O  O13  1  0.18892300  0.63883000  0.02385000  1
  O  O14  1  0.40777700  0.63465400  0.45115200  1
  O  O15  1  0.52309900  0.63898300  0.69145500  1
  O  O16  1  0.33089000  0.63868700  0.23810800  1
  O  O17  1  0.67105700  0.63852200  0.90494800  1
  O  O18  1  0.33664000  0.36336600  0.09719100  1
  O  O19  1  0.66855500  0.36166200  0.76214200  1
  O  O20  1  0.47143200  0.36264900  0.30951400  1
  O  O21  1  0.59577400  0.36496100  0.54916300  1
  O  O22  1  0.80957300  0.36166300  0.97568200  1
  O  O23  1  0.66774000  0.86180700  0.26190800  1
  O  O24  1  0.52400900  0.13917700  0.19082400  1
  O  O25  1  0.73841600  0.13739400  0.61842400  1
  O  O26  1  0.85191300  0.13808200  0.85607100  1
  O  O27  1  0.59854800  0.86359500  0.04847900  1
  O  O28  1  0.80498600  0.86288700  0.47577200  1
  O  O29  1  0.93202600  0.86316600  0.71692900  1
  O  O30  1  0.66917000  0.13740100  0.40334000  1
  O  O31  1  0.73558700  0.63668500  0.11911700  1
  O  O32  1  0.85578700  0.63880200  0.35796100  1
  O  O33  1  0.00218500  0.63821400  0.57107700  1
  O  O34  1  0.93182400  0.36306300  0.21670900  1
  O  O35  1  0.00490900  0.13852500  0.07085800  1
loop_
_geom_bond_atom_site_label_1
_geom_bond_atom_site_label_2
_geom_bond_distance
_geom_bond_site_symmetry_2
Li0 O8 2.024317 1_565
Li0 O29 2.035861 1_455
Li0 O11 2.150960 1_555
Li0 O0 2.173268 1_455
Li0 O12 2.173517 1_565
Li0 O26 2.225712 1_465
Li1 O7 2.052993 1_565
Li1 O5 2.063456 1_555
Li1 O29 2.154343 1_455
Li1 O25 2.167120 1_465
Li1 O12 2.188379 1_565
Li1 O28 2.211294 1_455
Li2 O9 2.067690 1_655
Li2 O31 2.083602 1_555
Li2 O16 2.086675 1_655
Li2 O23 2.097372 1_555
Li2 O32 2.102315 1_555
Li2 O10 2.137323 1_655
Li3 O11 2.078926 1_555
Li3 O13 2.084068 1_556
Li3 O1 2.102627 1_555
Li3 O0 2.106287 1_455
Li3 O27 2.114943 1_556
Li3 O17 2.121345 1_555
Li4 O13 2.054719 1_555
Li4 O18 2.066548 1_555
Li4 O34 2.156193 1_455
Li4 O31 2.169600 1_455
Li4 O16 2.193670 1_555
Li4 O22 2.207770 1_454
Li5 O15 2.067230 1_555
Li5 O19 2.086722 1_555
Li5 O1 2.121711 1_555
Li5 O4 2.137390 1_555
Li5 O3 2.175399 1_555
Li5 O17 2.226380 1_555
Li6 O14 2.022190 1_555
Li6 O34 2.036835 1_455
Li6 O20 2.141869 1_555
Li6 O16 2.173777 1_555
Li6 O2 2.177113 1_455
Li6 O32 2.226317 1_455
Li7 O4 2.030092 1_554
Li7 O31 2.033359 1_555
Li7 O18 2.175255 1_555
Li7 O17 2.178497 1_554
Li7 O22 2.187950 1_554
Li7 O13 2.205960 1_555
Li8 O3 2.063228 1_555
Li8 O33 2.073799 1_555
Li8 O14 2.128618 1_555
Li8 O21 2.133848 1_555
Li8 O2 2.201469 1_455
Li8 O15 2.205835 1_555
Li9 O20 2.075020 1_555
Li9 O7 2.086469 1_555
Li9 O6 2.104513 1_555
Li9 O30 2.113587 1_555
Li9 O2 2.114932 1_455
Li9 O21 2.116168 1_555
Li10 O10 2.033521 1_545
Li10 O25 2.038365 1_555
Li10 O28 2.163151 1_545
Li10 O30 2.179283 1_555
Li10 O5 2.181194 1_545
Li10 O7 2.186760 1_555
Li11 O9 2.061100 1_555
Li11 O35 2.065529 1_565
Li11 O8 2.129188 1_564
Li11 O27 2.156987 1_555
Li11 O0 2.166288 1_454
Li11 O24 2.233670 1_565
Li12 O11 2.054415 1_545
Li12 O12 2.068205 1_555
Li12 O25 2.145466 1_555
Li12 O5 2.182978 1_545
Li12 O29 2.185217 1_545
Li12 O26 2.192209 1_555
Li13 O24 2.069698 1_555
Li13 O23 2.086465 1_545
Li13 O6 2.119184 1_555
Li13 O10 2.143925 1_545
Li13 O30 2.180840 1_555
Li13 O9 2.204237 1_545
Li14 O26 2.064488 1_565
Li14 O0 2.069591 1_555
Li14 O27 2.126886 1_556
Li14 O8 2.136387 1_565
Li14 O11 2.197377 1_555
Li14 O35 2.223101 1_666
Li15 O28 2.067123 1_555
Li15 O14 2.087732 1_555
Li15 O5 2.096370 1_555
Li15 O15 2.104886 1_555
Li15 O33 2.115807 1_655
Li15 O29 2.142489 1_555
Li16 O32 2.073570 1_555
Li16 O2 2.082822 1_555
Li16 O14 2.109332 1_555
Li16 O21 2.115977 1_555
Li16 O20 2.188149 1_555
Li16 O33 2.223670 1_655
Li17 O1 2.026467 1_655
Li17 O21 2.033631 1_555
Li17 O33 2.173540 1_655
Li17 O19 2.175942 1_555
Li17 O3 2.191835 1_655
Li17 O15 2.208865 1_555
Li18 O20 2.055686 1_555
Li18 O16 2.069131 1_555
Li18 O31 2.131496 1_555
Li18 O18 2.158795 1_555
Li18 O34 2.183968 1_555
Li18 O32 2.218026 1_555
Li19 O17 2.053247 1_555
Li19 O22 2.069765 1_555
Li19 O1 2.120913 1_655
Li19 O4 2.175558 1_655
Li19 O13 2.191840 1_656
Li19 O19 2.205011 1_555
Li20 O22 2.076476 1_554
Li20 O18 2.084787 1_555
Li20 O8 2.086982 1_554
Li20 O24 2.089605 1_555
Li20 O35 2.136954 1_655
Li20 O34 2.137847 1_555
Li21 O6 2.027982 1_665
Li21 O27 2.040160 1_555
Li21 O23 2.168650 1_555
Li21 O9 2.177895 1_655
Li21 O35 2.189656 1_665
Li21 O24 2.220045 1_565
Li22 O26 2.079124 1_555
Li22 O12 2.086129 1_655
Li22 O3 2.087013 1_655
Li22 O19 2.093289 1_555
Li22 O25 2.093536 1_555
Li22 O4 2.129466 1_655
Li23 O30 2.044902 1_555
Li23 O28 2.061040 1_545
Li23 O6 2.130356 1_655
Li23 O10 2.177275 1_645
Li23 O23 2.192176 1_545
Li23 O7 2.208658 1_655
Mn0 O11 1.926021 1_555
Mn0 O5 1.931596 1_555
Mn0 O1 1.933355 1_555
Mn0 O33 1.940729 1_555
Mn0 O15 1.942469 1_555
Mn0 O29 1.951908 1_455
Mn1 O20 1.923665 1_555
Mn1 O18 1.925757 1_555
Mn1 O6 1.938761 1_555
Mn1 O35 1.943582 1_555
Mn1 O34 1.947178 1_455
Mn1 O24 1.950071 1_555
Mn2 O7 1.932456 1_555
Mn2 O3 1.932992 1_555
Mn2 O12 1.935695 1_555
Mn2 O21 1.936385 1_555
Mn2 O19 1.948568 1_555
Mn2 O25 1.966178 1_555
Mn3 O26 1.930466 1_555
Mn3 O12 1.931808 1_555
Mn3 O19 1.935263 1_555
Mn3 O8 1.938835 1_555
Mn3 O22 1.950144 1_555
Mn3 O4 1.950285 1_555
Mn4 O16 1.933176 1_555
Mn4 O9 1.937747 1_555
Mn4 O23 1.941114 1_555
Mn4 O13 1.941523 1_555
Mn4 O27 1.945300 1_555
Mn4 O31 1.951655 1_555
Mn5 O28 1.931861 1_555
Mn5 O14 1.932215 1_555
Mn5 O23 1.938655 1_555
Mn5 O32 1.941313 1_555
Mn5 O16 1.941600 1_555
Mn5 O10 1.951322 1_555
Mn6 O0 1.922885 1_554
Mn6 O17 1.935282 1_554
Mn6 O13 1.939976 1_655
Mn6 O9 1.943947 1_655
Mn6 O27 1.951305 1_555
Mn6 O31 1.954299 1_555
Cr0 O35 1.914071 1_556
Cr0 O22 1.920801 1_455
Cr0 O4 1.934503 1_555
Cr0 O26 1.938401 1_455
Cr0 O18 1.990042 1_556
Cr0 O8 1.999692 1_555
Cr1 O32 1.907809 1_455
Cr1 O10 1.914901 1_555
Cr1 O33 1.938416 1_555
Cr1 O28 1.964903 1_455
Cr1 O5 1.972152 1_555
Cr1 O14 1.997298 1_555
Cr2 O15 1.905338 1_555
Cr2 O29 1.914196 1_555
Cr2 O17 1.938383 1_555
Cr2 O11 1.961715 1_555
Cr2 O0 1.976330 1_555
Cr2 O1 1.998632 1_655
Cr3 O24 1.901266 1_555
Cr3 O34 1.917312 1_555
Cr3 O30 1.929758 1_555
Cr3 O20 1.965469 1_555
Cr3 O2 1.979535 1_555
Cr3 O6 1.997124 1_655
Cr4 O2 1.917708 1_555
Cr4 O25 1.936818 1_555
Cr4 O3 1.946558 1_655
Cr4 O7 1.957607 1_655
Cr4 O30 1.959595 1_555
Cr4 O21 1.973319 1_555
