# generated using pymatgen
data_Na14Cu2O9
_symmetry_space_group_name_H-M   'P 1'
_cell_length_a   6.65779559
_cell_length_b   6.65779559
_cell_length_c   9.28971600
_cell_angle_alpha   90.00000000
_cell_angle_beta   90.00000000
_cell_angle_gamma   119.99999596
_symmetry_Int_Tables_number   1
_chemical_formula_structural   Na14Cu2O9
_chemical_formula_sum   'Na14 Cu2 O9'
_cell_volume   356.61039737
_cell_formula_units_Z   1
loop_
 _symmetry_equiv_pos_site_id
 _symmetry_equiv_pos_as_xyz
  1  'x, y, z'
loop_
 _atom_site_type_symbol
 _atom_site_label
 _atom_site_symmetry_multiplicity
 _atom_site_fract_x
 _atom_site_fract_y
 _atom_site_fract_z
 _atom_site_occupancy
  Na  Na0  1  0.03421700  0.67566500  0.90689500  1
  Na  Na1  1  0.31726200  0.94082300  0.59463900  1
  Na  Na2  1  0.05917700  0.37643900  0.59463900  1
  Na  Na3  1  0.00000000  0.00000000  0.25376600  1
  Na  Na4  1  0.00000000  0.00000000  0.74623400  1
  Na  Na5  1  0.32433500  0.35855200  0.90689500  1
  Na  Na6  1  0.64144800  0.96578300  0.90689500  1
  Na  Na7  1  0.37643900  0.31726200  0.40536100  1
  Na  Na8  1  0.62356100  0.68273800  0.59463900  1
  Na  Na9  1  0.35855200  0.03421700  0.09310500  1
  Na  Na10  1  0.67566500  0.64144800  0.09310500  1
  Na  Na11  1  0.94082300  0.62356100  0.40536100  1
  Na  Na12  1  0.68273800  0.05917700  0.40536100  1
  Na  Na13  1  0.96578300  0.32433500  0.09310500  1
  Cu  Cu0  1  0.33333300  0.66666700  0.25929400  1
  Cu  Cu1  1  0.66666700  0.33333300  0.74070600  1
  O  O0  1  0.30479900  0.94756000  0.33586400  1
  O  O1  1  0.05244000  0.35723900  0.33586400  1
  O  O2  1  0.33333300  0.66666700  0.04418600  1
  O  O3  1  0.00000000  0.00000000  0.00000000  1
  O  O4  1  0.35723900  0.30479900  0.66413600  1
  O  O5  1  0.64276100  0.69520100  0.33586400  1
  O  O6  1  0.66666700  0.33333300  0.95581400  1
  O  O7  1  0.94756000  0.64276100  0.66413600  1
  O  O8  1  0.69520100  0.05244000  0.66413600  1
loop_
_geom_bond_atom_site_label_1
_geom_bond_atom_site_label_2
_geom_bond_distance
_geom_bond_site_symmetry_2
Na0 O7 2.310892 1_455
Na0 O2 2.390692 1_556
Na0 O6 2.410813 1_455
Na0 O3 2.440230 1_566
Na1 O8 2.330371 1_565
Na1 O7 2.351339 1_455
Na1 O4 2.390596 1_565
Na1 O0 2.406569 1_555
Na2 O7 2.330371 1_455
Na2 O4 2.351339 1_555
Na2 O8 2.390596 1_455
Na2 O1 2.406569 1_555
Na3 O0 2.351610 1_545
Na3 O1 2.351610 1_555
Na3 O5 2.351610 1_445
Na3 O3 2.357414 1_555
Na4 O8 2.351610 1_455
Na4 O7 2.351610 1_445
Na4 O4 2.351610 1_555
Na4 O3 2.357414 1_556
Na5 O4 2.310892 1_555
Na5 O2 2.390697 1_556
Na5 O6 2.410817 1_555
Na5 O3 2.440230 1_556
Na6 O8 2.310892 1_565
Na6 O2 2.390695 1_556
Na6 O6 2.410810 1_565
Na6 O3 2.440230 1_666
Na7 O5 2.330372 1_555
Na7 O0 2.351339 1_545
Na7 O1 2.390596 1_555
Na7 O4 2.406569 1_555
Na8 O4 2.330372 1_555
Na8 O8 2.351339 1_565
Na8 O7 2.390596 1_555
Na8 O5 2.406569 1_555
Na9 O0 2.310892 1_545
Na9 O6 2.390695 1_554
Na9 O2 2.410810 1_545
Na9 O3 2.440230 1_555
Na10 O5 2.310892 1_555
Na10 O6 2.390697 1_554
Na10 O2 2.410817 1_555
Na10 O3 2.440230 1_665
Na11 O1 2.330371 1_655
Na11 O5 2.351339 1_555
Na11 O0 2.390596 1_655
Na11 O7 2.406569 1_555
Na12 O0 2.330371 1_545
Na12 O1 2.351339 1_655
Na12 O5 2.390596 1_545
Na12 O8 2.406569 1_555
Na13 O1 2.310892 1_655
Na13 O6 2.390692 1_554
Na13 O2 2.410813 1_655
Na13 O3 2.440230 1_655
Cu0 O2 1.998292 1_555
Cu0 O0 2.096357 1_555
Cu0 O1 2.096360 1_555
Cu0 O5 2.096363 1_555
Cu1 O6 1.998292 1_555
Cu1 O8 2.096357 1_555
Cu1 O7 2.096360 1_555
Cu1 O4 2.096363 1_555
