# generated using pymatgen
data_Na6Co2As(CO4)4
_symmetry_space_group_name_H-M   'P 1'
_cell_length_a   9.92093441
_cell_length_b   9.92093441
_cell_length_c   9.92093441
_cell_angle_alpha   60.00000000
_cell_angle_beta   60.00000000
_cell_angle_gamma   60.00000000
_symmetry_Int_Tables_number   1
_chemical_formula_structural   Na6Co2As(CO4)4
_chemical_formula_sum   'Na12 Co4 As2 C8 O32'
_cell_volume   690.46669964
_cell_formula_units_Z   2
loop_
 _symmetry_equiv_pos_site_id
 _symmetry_equiv_pos_as_xyz
  1  'x, y, z'
loop_
 _atom_site_type_symbol
 _atom_site_label
 _atom_site_symmetry_multiplicity
 _atom_site_fract_x
 _atom_site_fract_y
 _atom_site_fract_z
 _atom_site_occupancy
  Na  Na0  1  0.33571000  0.33571000  0.91429000  1
  Na  Na1  1  0.91429000  0.33571000  0.33571000  1
  Na  Na2  1  0.91429000  0.33571000  0.91429000  1
  Na  Na3  1  0.08571000  0.08571000  0.66429000  1
  Na  Na4  1  0.33571000  0.91429000  0.33571000  1
  Na  Na5  1  0.33571000  0.91429000  0.91429000  1
  Na  Na6  1  0.66429000  0.08571000  0.66429000  1
  Na  Na7  1  0.66429000  0.08571000  0.08571000  1
  Na  Na8  1  0.91429000  0.91429000  0.33571000  1
  Na  Na9  1  0.08571000  0.66429000  0.66429000  1
  Na  Na10  1  0.08571000  0.66429000  0.08571000  1
  Na  Na11  1  0.66429000  0.66429000  0.08571000  1
  Co  Co0  1  0.50000000  0.50000000  0.00000000  1
  Co  Co1  1  0.50000000  0.50000000  0.50000000  1
  Co  Co2  1  0.00000000  0.50000000  0.50000000  1
  Co  Co3  1  0.50000000  0.00000000  0.50000000  1
  As  As0  1  0.87500000  0.87500000  0.87500000  1
  As  As1  1  0.12500000  0.12500000  0.12500000  1
  C  C0  1  0.71463300  0.35610200  0.71463300  1
  C  C1  1  0.28536700  0.28536700  0.28536700  1
  C  C2  1  0.28536700  0.28536700  0.64389800  1
  C  C3  1  0.64389800  0.28536700  0.28536700  1
  C  C4  1  0.35610200  0.71463300  0.71463300  1
  C  C5  1  0.71463300  0.71463300  0.35610200  1
  C  C6  1  0.71463300  0.71463300  0.71463300  1
  C  C7  1  0.28536700  0.64389800  0.28536700  1
  O  O0  1  0.60119200  0.35314600  0.68752800  1
  O  O1  1  0.68752800  0.35314600  0.85813300  1
  O  O2  1  0.85813300  0.35314600  0.60119200  1
  O  O3  1  0.14186700  0.39880800  0.31247200  1
  O  O4  1  0.66239300  0.94586900  0.94586900  1
  O  O5  1  0.14186700  0.31247200  0.64685400  1
  O  O6  1  0.31247200  0.39880800  0.64685400  1
  O  O7  1  0.94586900  0.94586900  0.94586900  1
  O  O8  1  0.94586900  0.94586900  0.66239300  1
  O  O9  1  0.39880800  0.31247200  0.14186700  1
  O  O10  1  0.31247200  0.14186700  0.39880800  1
  O  O11  1  0.94586900  0.66239300  0.94586900  1
  O  O12  1  0.64685400  0.39880800  0.14186700  1
  O  O13  1  0.39880800  0.14186700  0.64685400  1
  O  O14  1  0.64685400  0.31247200  0.39880800  1
  O  O15  1  0.35314600  0.85813300  0.68752800  1
  O  O16  1  0.64685400  0.14186700  0.31247200  1
  O  O17  1  0.35314600  0.68752800  0.60119200  1
  O  O18  1  0.60119200  0.85813300  0.35314600  1
  O  O19  1  0.35314600  0.60119200  0.85813300  1
  O  O20  1  0.05413100  0.33760700  0.05413100  1
  O  O21  1  0.68752800  0.85813300  0.60119200  1
  O  O22  1  0.60119200  0.68752800  0.85813300  1
  O  O23  1  0.05413100  0.05413100  0.05413100  1
  O  O24  1  0.05413100  0.05413100  0.33760700  1
  O  O25  1  0.68752800  0.60119200  0.35314600  1
  O  O26  1  0.85813300  0.68752800  0.35314600  1
  O  O27  1  0.33760700  0.05413100  0.05413100  1
  O  O28  1  0.85813300  0.60119200  0.68752800  1
  O  O29  1  0.14186700  0.64685400  0.39880800  1
  O  O30  1  0.31247200  0.64685400  0.14186700  1
  O  O31  1  0.39880800  0.64685400  0.31247200  1
loop_
_geom_bond_atom_site_label_1
_geom_bond_atom_site_label_2
_geom_bond_distance
_geom_bond_site_symmetry_2
Na0 O27 2.413881 1_556
Na0 O20 2.413881 1_556
Na0 O19 2.483791 1_555
Na0 O0 2.483795 1_555
Na0 O6 2.508194 1_555
Na0 O9 2.508204 1_556
Na1 O20 2.413881 1_655
Na1 O24 2.413881 1_655
Na1 O2 2.483791 1_555
Na1 O25 2.483795 1_555
Na1 O14 2.508194 1_555
Na1 O3 2.508204 1_655
Na2 O20 2.413881 1_656
Na2 O23 2.413881 1_656
Na2 O28 2.483796 1_555
Na2 O1 2.483801 1_555
Na2 O5 2.508197 1_655
Na2 O12 2.508199 1_556
Na3 O7 2.413881 1_445
Na3 O8 2.413881 1_445
Na3 O10 2.483796 1_555
Na3 O5 2.483801 1_555
Na3 O15 2.508197 1_545
Na3 O2 2.508199 1_455
Na4 O27 2.413881 1_565
Na4 O24 2.413881 1_565
Na4 O18 2.483791 1_555
Na4 O17 2.483795 1_555
Na4 O31 2.508194 1_555
Na4 O10 2.508204 1_565
Na5 O27 2.413881 1_566
Na5 O23 2.413881 1_566
Na5 O22 2.483796 1_555
Na5 O15 2.483801 1_555
Na5 O30 2.508197 1_556
Na5 O13 2.508199 1_565
Na6 O4 2.413881 1_545
Na6 O8 2.413881 1_545
Na6 O13 2.483791 1_555
Na6 O14 2.483795 1_555
Na6 O0 2.508194 1_555
Na6 O21 2.508204 1_545
Na7 O7 2.413881 1_544
Na7 O4 2.413881 1_544
Na7 O9 2.483796 1_555
Na7 O16 2.483801 1_555
Na7 O1 2.508197 1_554
Na7 O18 2.508199 1_545
Na8 O24 2.413881 1_665
Na8 O23 2.413881 1_665
Na8 O21 2.483796 1_555
Na8 O26 2.483801 1_555
Na8 O16 2.508197 1_565
Na8 O29 2.508199 1_655
Na9 O11 2.413881 1_455
Na9 O8 2.413881 1_455
Na9 O29 2.483791 1_555
Na9 O6 2.483795 1_555
Na9 O17 2.508194 1_555
Na9 O28 2.508204 1_455
Na10 O7 2.413881 1_454
Na10 O11 2.413881 1_454
Na10 O3 2.483796 1_555
Na10 O30 2.483801 1_555
Na10 O26 2.508197 1_455
Na10 O19 2.508199 1_554
Na11 O11 2.413881 1_554
Na11 O4 2.413881 1_554
Na11 O12 2.483791 1_555
Na11 O31 2.483795 1_555
Na11 O25 2.508194 1_555
Na11 O22 2.508204 1_554
Co0 O22 2.070347 1_554
Co0 O9 2.070347 1_555
Co0 O30 2.070353 1_555
Co0 O1 2.070353 1_554
Co0 O12 2.070355 1_555
Co0 O19 2.070355 1_554
Co1 O17 2.070347 1_555
Co1 O25 2.070347 1_555
Co1 O0 2.070347 1_555
Co1 O14 2.070347 1_555
Co1 O31 2.070347 1_555
Co1 O6 2.070347 1_555
Co2 O28 2.070347 1_455
Co2 O3 2.070347 1_555
Co2 O5 2.070353 1_555
Co2 O26 2.070353 1_455
Co2 O29 2.070355 1_555
Co2 O2 2.070355 1_455
Co3 O21 2.070347 1_545
Co3 O10 2.070347 1_555
Co3 O16 2.070353 1_555
Co3 O15 2.070353 1_545
Co3 O13 2.070355 1_555
Co3 O18 2.070355 1_545
As0 O7 1.722204 1_555
As0 O4 1.722204 1_555
As0 O8 1.722204 1_555
As0 O11 1.722204 1_555
As1 O20 1.722204 1_555
As1 O24 1.722204 1_555
As1 O27 1.722204 1_555
As1 O23 1.722204 1_555
C0 O1 1.297408 1_555
C0 O2 1.297414 1_555
C0 O0 1.297427 1_555
C1 O3 1.297416 1_555
C1 O10 1.297416 1_555
C1 O9 1.297416 1_555
C2 O5 1.297408 1_555
C2 O13 1.297414 1_555
C2 O6 1.297427 1_555
C3 O16 1.297408 1_555
C3 O12 1.297414 1_555
C3 O14 1.297427 1_555
C4 O15 1.297408 1_555
C4 O19 1.297414 1_555
C4 O17 1.297427 1_555
C5 O26 1.297408 1_555
C5 O18 1.297414 1_555
C5 O25 1.297427 1_555
C6 O21 1.297416 1_555
C6 O28 1.297416 1_555
C6 O22 1.297416 1_555
C7 O30 1.297408 1_555
C7 O29 1.297414 1_555
C7 O31 1.297427 1_555
