# generated using pymatgen
data_Li5FeOF5
_symmetry_space_group_name_H-M   'P 1'
_cell_length_a   5.15147317
_cell_length_b   9.83990871
_cell_length_c   8.96309537
_cell_angle_alpha   81.91386012
_cell_angle_beta   89.56000215
_cell_angle_gamma   85.32611589
_symmetry_Int_Tables_number   1
_chemical_formula_structural   Li5FeOF5
_chemical_formula_sum   'Li20 Fe4 O4 F20'
_cell_volume   448.32324279
_cell_formula_units_Z   4
loop_
 _symmetry_equiv_pos_site_id
 _symmetry_equiv_pos_as_xyz
  1  'x, y, z'
loop_
 _atom_site_type_symbol
 _atom_site_label
 _atom_site_symmetry_multiplicity
 _atom_site_fract_x
 _atom_site_fract_y
 _atom_site_fract_z
 _atom_site_occupancy
  Li  Li0  1  0.89475800  0.73933300  0.52871800  1
  Li  Li1  1  0.39477200  0.73935700  0.02872300  1
  Li  Li2  1  0.09568100  0.23933500  0.46172700  1
  Li  Li3  1  0.59571600  0.23932400  0.96172700  1
  Li  Li4  1  0.36051400  0.74591200  0.37500100  1
  Li  Li5  1  0.86055500  0.74594700  0.87499900  1
  Li  Li6  1  0.63230600  0.24588900  0.61772100  1
  Li  Li7  1  0.13228800  0.24591100  0.11774900  1
  Li  Li8  1  0.88544800  0.74418900  0.22296400  1
  Li  Li9  1  0.38544400  0.74420500  0.72295600  1
  Li  Li10  1  0.14174400  0.24419700  0.80417800  1
  Li  Li11  1  0.64177100  0.24418100  0.30422300  1
  Li  Li12  1  0.24190900  0.50835900  0.57205300  1
  Li  Li13  1  0.74201600  0.50834600  0.07208900  1
  Li  Li14  1  0.98714400  0.00835300  0.65700800  1
  Li  Li15  1  0.48713400  0.00834600  0.15701700  1
  Li  Li16  1  0.76222800  0.50977200  0.41436400  1
  Li  Li17  1  0.26218900  0.50979100  0.91435000  1
  Li  Li18  1  0.49041500  0.00974900  0.83825500  1
  Li  Li19  1  0.99039100  0.00976400  0.33828400  1
  Fe  Fe0  1  0.73838400  0.50637900  0.75965300  1
  Fe  Fe1  1  0.01998600  0.00643300  0.99905300  1
  Fe  Fe2  1  0.23861200  0.50642300  0.25959300  1
  Fe  Fe3  1  0.51999500  0.00642900  0.49904600  1
  O  O0  1  0.06820900  0.62200600  0.39347500  1
  O  O1  1  0.56833900  0.62207100  0.89353600  1
  O  O2  1  0.80615100  0.12196100  0.48088000  1
  O  O3  1  0.30611300  0.12198700  0.98084500  1
  F  F0  1  0.19277900  0.87175600  0.19146500  1
  F  F1  1  0.69278900  0.87178300  0.69146300  1
  F  F2  1  0.44083200  0.37179600  0.44217000  1
  F  F3  1  0.94078000  0.37177200  0.94219500  1
  F  F4  1  0.57519500  0.62624700  0.22344700  1
  F  F5  1  0.07516700  0.62628100  0.72347500  1
  F  F6  1  0.29769800  0.12627000  0.64934900  1
  F  F7  1  0.79766600  0.12625700  0.14937800  1
  F  F8  1  0.68882700  0.87017300  0.34919700  1
  F  F9  1  0.18887300  0.87017100  0.84920600  1
  F  F10  1  0.42944300  0.37014100  0.76900900  1
  F  F11  1  0.92943700  0.37015500  0.26905400  1
  F  F12  1  0.20779400  0.87957400  0.52006900  1
  F  F13  1  0.70776200  0.87955900  0.02011300  1
  F  F14  1  0.92603800  0.37951400  0.61391700  1
  F  F15  1  0.42617700  0.37954400  0.11391500  1
  F  F16  1  0.56523000  0.62626400  0.55573600  1
  F  F17  1  0.06532700  0.62627800  0.05573900  1
  F  F18  1  0.80098100  0.12627300  0.81044900  1
  F  F19  1  0.30099400  0.12624800  0.31047000  1
loop_
_geom_bond_atom_site_label_1
_geom_bond_atom_site_label_2
_geom_bond_distance
_geom_bond_site_symmetry_2
Li0 O0 1.951821 1_655
Li1 O1 1.951453 1_554
Li2 O2 1.951663 1_455
Li3 O3 1.951736 1_555
Li4 O0 2.004977 1_555
Li5 O1 2.004411 1_555
Li6 O2 2.004826 1_555
Li7 O3 2.005152 1_554
Li8 O0 1.997070 1_655
Li9 O1 1.997570 1_555
Li10 O3 1.997358 1_555
Li11 O2 1.997361 1_555
Li12 O0 1.992125 1_555
Li13 O1 1.992229 1_554
Li14 O2 1.991842 1_555
Li15 O3 1.992320 1_554
Li16 O0 1.990039 1_655
Li17 O1 1.991035 1_555
Li18 O3 1.990505 1_555
Li19 O2 1.990163 1_555
Fe0 O1 1.925867 1_555
Fe1 O3 1.925963 1_555
Fe2 O0 1.925915 1_555
Fe3 O2 1.925947 1_555
F0 Li4 2.064119 1_555
F0 Li8 2.092656 1_455
F0 Li15 2.099836 1_565
F0 Fe1 2.170525 1_564
F0 Li19 2.216708 1_465
F0 Li1 2.279943 1_555
F1 Li5 2.064143 1_555
F1 Li9 2.092781 1_555
F1 Li14 2.099706 1_565
F1 Fe3 2.170417 1_565
F1 Li18 2.216243 1_565
F1 Li0 2.280225 1_555
F2 Li6 2.063965 1_555
F2 Li11 2.093416 1_555
F2 Li12 2.099625 1_555
F2 Fe2 2.170135 1_555
F2 Li16 2.216169 1_555
F2 Li2 2.280267 1_555
F3 Li7 2.063854 1_656
F3 Li10 2.093641 1_655
F3 Li13 2.099408 1_556
F3 Fe0 2.170228 1_555
F3 Li17 2.216508 1_655
F3 Li3 2.279819 1_555
F4 Li13 2.046286 1_555
F4 Li8 2.049894 1_555
F4 Li1 2.111550 1_555
F4 Li16 2.112754 1_555
F4 Li4 2.160896 1_555
F4 Fe2 2.172238 1_555
F5 Li12 2.046689 1_555
F5 Li9 2.049857 1_555
F5 Li0 2.111530 1_455
F5 Li17 2.112511 1_555
F5 Li5 2.160548 1_455
F5 Fe0 2.173574 1_455
F6 Li14 2.046656 1_455
F6 Li10 2.049820 1_555
F6 Li2 2.112030 1_555
F6 Li18 2.112164 1_555
F6 Li6 2.160158 1_555
F6 Fe3 2.172556 1_555
F7 Li15 2.046535 1_555
F7 Li11 2.049806 1_555
F7 Li3 2.112069 1_554
F7 Li19 2.112074 1_555
F7 Li7 2.160423 1_655
F7 Fe1 2.172651 1_654
F8 Li8 2.003805 1_555
F8 Li0 2.143098 1_555
F8 Li19 2.148771 1_565
F8 Fe3 2.157917 1_565
F8 Li4 2.158810 1_555
F8 Li15 2.243572 1_565
F9 Li9 2.003671 1_555
F9 Li1 2.142883 1_556
F9 Li18 2.148578 1_565
F9 Fe1 2.158043 1_565
F9 Li5 2.158605 1_455
F9 Li14 2.243801 1_465
F10 Li10 2.003489 1_555
F10 Li3 2.142869 1_555
F10 Li17 2.149670 1_555
F10 Fe0 2.156631 1_555
F10 Li6 2.159192 1_555
F10 Li12 2.244121 1_555
F11 Li11 2.003548 1_555
F11 Li2 2.142537 1_655
F11 Li16 2.149173 1_555
F11 Fe2 2.157730 1_655
F11 Li7 2.159224 1_655
F11 Li13 2.243830 1_555
F12 Li4 2.082352 1_555
F12 Fe3 2.106316 1_565
F12 Li14 2.141412 1_465
F12 Li19 2.181100 1_465
F12 Li0 2.200319 1_455
F12 Li9 2.250372 1_555
F13 Li5 2.082427 1_554
F13 Fe1 2.106533 1_664
F13 Li15 2.141203 1_565
F13 Li18 2.181401 1_564
F13 Li1 2.199892 1_555
F13 Li8 2.250209 1_555
F14 Li6 2.080980 1_555
F14 Fe0 2.107560 1_555
F14 Li12 2.142184 1_655
F14 Li16 2.180835 1_555
F14 Li2 2.200374 1_655
F14 Li10 2.250559 1_655
F15 Li7 2.081643 1_555
F15 Fe2 2.107098 1_555
F15 Li13 2.141755 1_555
F15 Li17 2.181183 1_554
F15 Li3 2.200454 1_554
F15 Li11 2.250786 1_555
F16 Li16 2.036842 1_555
F16 Li0 2.098541 1_555
F16 Li12 2.098806 1_555
F16 Li4 2.099960 1_555
F16 Li9 2.178046 1_555
F16 Fe0 2.185140 1_555
F17 Li17 2.036605 1_554
F17 Li1 2.098233 1_555
F17 Li13 2.098920 1_455
F17 Li5 2.100210 1_454
F17 Li8 2.178085 1_455
F17 Fe2 2.184844 1_555
F18 Li18 2.036860 1_555
F18 Li3 2.098743 1_555
F18 Li14 2.098775 1_555
F18 Li6 2.099719 1_555
F18 Li10 2.177896 1_655
F18 Fe1 2.184666 1_655
F19 Li19 2.036781 1_455
F19 Li15 2.098697 1_555
F19 Li2 2.098926 1_555
F19 Li7 2.099922 1_555
F19 Li11 2.178022 1_555
F19 Fe3 2.184400 1_555
