# generated using pymatgen
data_La5Mn7Co(PbO8)3
_symmetry_space_group_name_H-M   'P 1'
_cell_length_a   5.51434400
_cell_length_b   7.95484234
_cell_length_c   11.12456276
_cell_angle_alpha   90.06273891
_cell_angle_beta   90.00652554
_cell_angle_gamma   90.74880664
_symmetry_Int_Tables_number   1
_chemical_formula_structural   La5Mn7Co(PbO8)3
_chemical_formula_sum   'La5 Mn7 Co1 Pb3 O24'
_cell_volume   487.94517531
_cell_formula_units_Z   1
loop_
 _symmetry_equiv_pos_site_id
 _symmetry_equiv_pos_as_xyz
  1  'x, y, z'
loop_
 _atom_site_type_symbol
 _atom_site_label
 _atom_site_symmetry_multiplicity
 _atom_site_fract_x
 _atom_site_fract_y
 _atom_site_fract_z
 _atom_site_occupancy
  La  La0  1  0.50061400  0.24807300  0.00098600  1
  La  La1  1  0.00177000  0.24772200  0.25001700  1
  La  La2  1  0.00040600  0.75023100  0.75021500  1
  La  La3  1  0.50132000  0.24748000  0.49993800  1
  La  La4  1  0.99767700  0.75409500  0.24784200  1
  Mn  Mn0  1  0.00172800  0.99948900  0.00027800  1
  Mn  Mn1  1  0.50006500  0.00010000  0.75023200  1
  Mn  Mn2  1  0.49993200  0.49982800  0.75002500  1
  Mn  Mn3  1  0.99998200  0.50106600  0.50005300  1
  Mn  Mn4  1  0.99897600  0.00126300  0.49946700  1
  Mn  Mn5  1  0.49913200  0.49971300  0.25009900  1
  Mn  Mn6  1  0.00105300  0.49955100  0.99999700  1
  Co  Co0  1  0.50009800  0.99954300  0.24990800  1
  Pb  Pb0  1  0.99945400  0.25117300  0.74932000  1
  Pb  Pb1  1  0.50002200  0.75064200  0.49877400  1
  Pb  Pb2  1  0.50167100  0.74966600  0.00044400  1
  O  O0  1  0.28082400  0.47138800  0.89176400  1
  O  O1  1  0.99940800  0.75127900  0.97398000  1
  O  O2  1  0.78052200  0.96904500  0.64026300  1
  O  O3  1  0.77481900  0.47935900  0.86430200  1
  O  O4  1  0.71851600  0.02961600  0.89010900  1
  O  O5  1  0.49934700  0.75100800  0.77341900  1
  O  O6  1  0.50150500  0.24919800  0.72091000  1
  O  O7  1  0.27552400  0.45912800  0.38661900  1
  O  O8  1  0.27601500  0.97659500  0.61289800  1
  O  O9  1  0.21857300  0.53140600  0.63842300  1
  O  O10  1  0.22578300  0.02320700  0.86214100  1
  O  O11  1  0.99838800  0.24940100  0.52000400  1
  O  O12  1  0.99938900  0.75158600  0.46745100  1
  O  O13  1  0.78736700  0.98166700  0.14026100  1
  O  O14  1  0.77784000  0.46728900  0.36015500  1
  O  O15  1  0.73306200  0.03653400  0.38731700  1
  O  O16  1  0.72607900  0.52327800  0.61207900  1
  O  O17  1  0.50195400  0.74115200  0.27148500  1
  O  O18  1  0.49800800  0.25635100  0.22075700  1
  O  O19  1  0.26283000  0.98591300  0.11492400  1
  O  O20  1  0.21067400  0.51939400  0.14671600  1
  O  O21  1  0.22126500  0.03168200  0.36442700  1
  O  O22  1  0.00078200  0.24924900  0.02700200  1
  O  O23  1  0.72762800  0.51564100  0.11499900  1
loop_
_geom_bond_atom_site_label_1
_geom_bond_atom_site_label_2
_geom_bond_distance
_geom_bond_site_symmetry_2
La0 O18 2.445720 1_555
La0 O4 2.456699 1_554
La0 O0 2.482271 1_554
La0 O19 2.758559 1_545
La0 O23 2.762284 1_555
La0 O22 2.771568 1_555
La0 O22 2.773102 1_655
La0 O10 2.793708 1_554
La0 O3 2.813781 1_554
La1 O21 2.469249 1_555
La1 O14 2.475625 1_455
La1 O22 2.480993 1_555
La1 O20 2.694198 1_555
La1 O15 2.700351 1_455
La1 O13 2.701202 1_445
La1 O7 2.709937 1_555
La1 O18 2.755729 1_555
La1 O18 2.798627 1_455
La1 O19 2.956411 1_545
La1 O11 3.003564 1_455
La1 O23 3.028907 1_455
La2 O2 2.460817 1_455
La2 O9 2.464629 1_555
La2 O1 2.489300 1_455
La2 O5 2.763312 1_555
La2 O5 2.775160 1_455
La2 O10 2.780904 1_565
La2 O3 2.781626 1_455
La2 O8 2.796577 1_555
La2 O16 2.798430 1_455
La3 O7 2.456251 1_555
La3 O6 2.458240 1_555
La3 O15 2.463805 1_555
La3 O21 2.743873 1_555
La3 O11 2.749895 1_555
La3 O8 2.775316 1_545
La3 O14 2.781621 1_555
La3 O11 2.782574 1_455
La3 O16 2.797914 1_555
La4 O12 2.443176 1_555
La4 O13 2.472600 1_555
La4 O20 2.486739 1_655
La4 O17 2.746843 1_555
La4 O19 2.767832 1_655
La4 O17 2.796384 1_655
La4 O23 2.814093 1_555
La4 O21 2.828501 1_665
La4 O14 2.858352 1_555
La4 O1 3.046670 1_554
La4 O15 3.108561 1_565
La4 O7 3.215263 1_655
Mn0 O19 1.927502 1_555
Mn0 O13 1.959315 1_455
Mn0 O10 1.979536 1_564
Mn0 O1 1.995586 1_454
Mn0 O4 2.002117 1_464
Mn0 O22 2.008673 1_565
Mn1 O10 1.969382 1_555
Mn1 O8 1.971906 1_545
Mn1 O4 1.979636 1_555
Mn1 O2 1.989764 1_545
Mn1 O5 1.998439 1_545
Mn1 O6 2.008470 1_555
Mn2 O16 1.984914 1_555
Mn2 O3 1.986668 1_555
Mn2 O0 1.997833 1_555
Mn2 O9 2.005516 1_555
Mn2 O5 2.014736 1_555
Mn2 O6 2.019640 1_555
Mn3 O9 1.967696 1_655
Mn3 O16 1.967880 1_555
Mn3 O14 1.996214 1_555
Mn3 O7 2.006275 1_655
Mn3 O11 2.014367 1_555
Mn3 O12 2.026016 1_555
Mn4 O15 1.948471 1_555
Mn4 O21 1.952264 1_655
Mn4 O11 1.986873 1_555
Mn4 O2 1.990813 1_545
Mn4 O8 1.993137 1_645
Mn4 O12 2.017470 1_545
Mn5 O17 1.934890 1_555
Mn5 O18 1.962810 1_555
Mn5 O23 1.964469 1_555
Mn5 O20 1.970760 1_555
Mn5 O7 1.980472 1_555
Mn5 O14 1.984479 1_555
Mn6 O3 1.963332 1_455
Mn6 O0 1.972022 1_555
Mn6 O23 1.982820 1_456
Mn6 O20 2.004828 1_556
Mn6 O22 2.013956 1_556
Mn6 O1 2.023716 1_455
Co0 O19 1.993492 1_555
Co0 O13 2.005840 1_555
Co0 O15 2.015502 1_565
Co0 O21 2.015573 1_565
Co0 O18 2.068978 1_565
Co0 O17 2.069847 1_555
O0 Pb0 2.812375 1_455
O2 Pb0 2.808749 1_565
O3 Pb0 2.553333 1_555
O4 Pb0 2.809713 1_555
O5 Pb2 2.525620 1_556
O6 Pb0 2.763794 1_555
O6 Pb0 2.786746 1_455
O8 Pb1 2.534125 1_555
O9 Pb0 2.808431 1_455
O10 Pb0 2.546607 1_455
O11 Pb0 2.551069 1_555
O16 Pb1 2.545082 1_555
O17 Pb1 2.529563 1_555
O19 Pb2 2.635936 1_555
O23 Pb2 2.589922 1_555
