# generated using pymatgen
data_Li(CuO)3
_symmetry_space_group_name_H-M   'P 1'
_cell_length_a   18.61831555
_cell_length_b   18.61831555
_cell_length_c   18.61831555
_cell_angle_alpha   167.77204647
_cell_angle_beta   167.77204647
_cell_angle_gamma   17.32607766
_symmetry_Int_Tables_number   1
_chemical_formula_structural   Li(CuO)3
_chemical_formula_sum   'Li4 Cu12 O12'
_cell_volume   289.50174361
_cell_formula_units_Z   4
loop_
 _symmetry_equiv_pos_site_id
 _symmetry_equiv_pos_as_xyz
  1  'x, y, z'
loop_
 _atom_site_type_symbol
 _atom_site_label
 _atom_site_symmetry_multiplicity
 _atom_site_fract_x
 _atom_site_fract_y
 _atom_site_fract_z
 _atom_site_occupancy
  Li  Li0  1  0.81102400  0.81102400  0.00000000  1
  Li  Li1  1  0.56066500  0.56066500  0.00000000  1
  Li  Li2  1  0.43933500  0.43933500  0.00000000  1
  Li  Li3  1  0.18897600  0.18897600  0.00000000  1
  Cu  Cu0  1  0.62492000  0.12492000  0.50000000  1
  Cu  Cu1  1  0.12492000  0.62492000  0.50000000  1
  Cu  Cu2  1  0.50000000  0.00000000  0.50000000  1
  Cu  Cu3  1  0.37508000  0.87508000  0.50000000  1
  Cu  Cu4  1  0.25000000  0.75000000  0.50000000  1
  Cu  Cu5  1  0.07285800  0.07285800  0.00000000  1
  Cu  Cu6  1  0.92714200  0.92714200  0.00000000  1
  Cu  Cu7  1  0.67662900  0.67662900  0.00000000  1
  Cu  Cu8  1  0.32337100  0.32337100  0.00000000  1
  Cu  Cu9  1  0.00000000  0.50000000  0.50000000  1
  Cu  Cu10  1  0.75000000  0.25000000  0.50000000  1
  Cu  Cu11  1  0.87508000  0.37508000  0.50000000  1
  O  O0  1  0.32443200  0.82443200  0.50000000  1
  O  O1  1  0.42559200  0.92559200  0.50000000  1
  O  O2  1  0.57440800  0.07440800  0.50000000  1
  O  O3  1  0.17556800  0.67556800  0.50000000  1
  O  O4  1  0.00000000  0.00000000  0.00000000  1
  O  O5  1  0.75367500  0.75367500  0.00000000  1
  O  O6  1  0.50000000  0.50000000  0.00000000  1
  O  O7  1  0.24632500  0.24632500  0.00000000  1
  O  O8  1  0.07440800  0.57440800  0.50000000  1
  O  O9  1  0.92559200  0.42559200  0.50000000  1
  O  O10  1  0.67556800  0.17556800  0.50000000  1
  O  O11  1  0.82443200  0.32443200  0.50000000  1
loop_
_geom_bond_atom_site_label_1
_geom_bond_atom_site_label_2
_geom_bond_distance
_geom_bond_site_symmetry_2
Li0 O0 2.043477 1_554
Li0 O11 2.043477 1_554
Li0 O11 2.043477 1_565
Li0 O0 2.043477 1_655
Li0 O5 2.111120 1_555
Li1 O8 2.046491 1_554
Li1 O2 2.046491 1_554
Li1 O8 2.046491 1_655
Li1 O2 2.046491 1_565
Li1 O6 2.233188 1_555
Li2 O9 2.046491 1_454
Li2 O1 2.046491 1_544
Li2 O9 2.046491 1_555
Li2 O1 2.046491 1_555
Li2 O6 2.233188 1_555
Li3 O10 2.043477 1_555
Li3 O3 2.043477 1_555
Li3 O3 2.043477 1_544
Li3 O10 2.043477 1_454
Li3 O7 2.111120 1_555
Cu0 O2 1.859438 1_555
Cu0 O10 1.864444 1_555
Cu1 O8 1.859438 1_555
Cu1 O3 1.864444 1_555
Cu2 O6 1.982974 1_556
Cu2 O6 1.982974 1_545
Cu2 O4 1.982974 1_656
Cu2 O4 1.982974 1_555
Cu3 O1 1.859438 1_555
Cu3 O0 1.864444 1_555
Cu4 O5 1.987583 1_455
Cu4 O5 1.987583 1_556
Cu4 O7 1.987583 1_566
Cu4 O7 1.987583 1_555
Cu5 O2 1.983795 1_555
Cu5 O8 1.983795 1_555
Cu5 O2 1.983795 1_454
Cu5 O8 1.983795 1_544
Cu6 O1 1.983795 1_655
Cu6 O9 1.983795 1_565
Cu6 O9 1.983795 1_554
Cu6 O1 1.983795 1_554
Cu7 O10 1.983359 1_565
Cu7 O3 1.983359 1_554
Cu7 O10 1.983359 1_554
Cu7 O3 1.983359 1_655
Cu8 O0 1.983359 1_555
Cu8 O11 1.983359 1_555
Cu8 O11 1.983359 1_454
Cu8 O0 1.983359 1_544
Cu9 O6 1.982974 1_556
Cu9 O4 1.982974 1_566
Cu9 O6 1.982974 1_455
Cu9 O4 1.982974 1_555
Cu10 O5 1.987583 1_545
Cu10 O7 1.987583 1_656
Cu10 O5 1.987583 1_556
Cu10 O7 1.987583 1_555
Cu11 O9 1.859438 1_555
Cu11 O11 1.864444 1_555
