# generated using pymatgen
data_Li2Ti3MnO8
_symmetry_space_group_name_H-M   'P 1'
_cell_length_a   8.56253500
_cell_length_b   8.56253500
_cell_length_c   8.56253500
_cell_angle_alpha   90.00000000
_cell_angle_beta   90.00000000
_cell_angle_gamma   90.00000000
_symmetry_Int_Tables_number   1
_chemical_formula_structural   Li2Ti3MnO8
_chemical_formula_sum   'Li8 Ti12 Mn4 O32'
_cell_volume   627.77942677
_cell_formula_units_Z   4
loop_
 _symmetry_equiv_pos_site_id
 _symmetry_equiv_pos_as_xyz
  1  'x, y, z'
loop_
 _atom_site_type_symbol
 _atom_site_label
 _atom_site_symmetry_multiplicity
 _atom_site_fract_x
 _atom_site_fract_y
 _atom_site_fract_z
 _atom_site_occupancy
  Li  Li0  1  0.00152800  0.00152800  0.00152800  1
  Li  Li1  1  0.24847200  0.24847200  0.24847200  1
  Li  Li2  1  0.25152800  0.75152800  0.74847200  1
  Li  Li3  1  0.49847200  0.99847200  0.50152800  1
  Li  Li4  1  0.50152800  0.49847200  0.99847200  1
  Li  Li5  1  0.74847200  0.25152800  0.75152800  1
  Li  Li6  1  0.75152800  0.74847200  0.25152800  1
  Li  Li7  1  0.99847200  0.50152800  0.49847200  1
  Ti  Ti0  1  0.12192900  0.12807100  0.62500000  1
  Ti  Ti1  1  0.12500000  0.37807100  0.87192900  1
  Ti  Ti2  1  0.12807100  0.62500000  0.12192900  1
  Ti  Ti3  1  0.37192900  0.37500000  0.62192900  1
  Ti  Ti4  1  0.37500000  0.62192900  0.37192900  1
  Ti  Ti5  1  0.37807100  0.87192900  0.12500000  1
  Ti  Ti6  1  0.62192900  0.37192900  0.37500000  1
  Ti  Ti7  1  0.62500000  0.12192900  0.12807100  1
  Ti  Ti8  1  0.62807100  0.87500000  0.87807100  1
  Ti  Ti9  1  0.87192900  0.12500000  0.37807100  1
  Ti  Ti10  1  0.87500000  0.87807100  0.62807100  1
  Ti  Ti11  1  0.87807100  0.62807100  0.87500000  1
  Mn  Mn0  1  0.12500000  0.87500000  0.37500000  1
  Mn  Mn1  1  0.37500000  0.12500000  0.87500000  1
  Mn  Mn2  1  0.62500000  0.62500000  0.62500000  1
  Mn  Mn3  1  0.87500000  0.37500000  0.12500000  1
  O  O0  1  0.09734300  0.13020900  0.39296100  1
  O  O1  1  0.10703900  0.90265700  0.63020900  1
  O  O2  1  0.11470800  0.61470800  0.88529200  1
  O  O3  1  0.11979100  0.15265700  0.85703900  1
  O  O4  1  0.13020900  0.39296100  0.09734300  1
  O  O5  1  0.13529200  0.36470800  0.63529200  1
  O  O6  1  0.14296100  0.61979100  0.34734300  1
  O  O7  1  0.15265700  0.85703900  0.11979100  1
  O  O8  1  0.34734300  0.14296100  0.61979100  1
  O  O9  1  0.35703900  0.38020900  0.84734300  1
  O  O10  1  0.36470800  0.63529200  0.13529200  1
  O  O11  1  0.36979100  0.60703900  0.59734300  1
  O  O12  1  0.38020900  0.84734300  0.35703900  1
  O  O13  1  0.38529200  0.38529200  0.38529200  1
  O  O14  1  0.39296100  0.09734300  0.13020900  1
  O  O15  1  0.40265700  0.86979100  0.89296100  1
  O  O16  1  0.59734300  0.36979100  0.60703900  1
  O  O17  1  0.60703900  0.59734300  0.36979100  1
  O  O18  1  0.61470800  0.88529200  0.11470800  1
  O  O19  1  0.61979100  0.34734300  0.14296100  1
  O  O20  1  0.63020900  0.10703900  0.90265700  1
  O  O21  1  0.63529200  0.13529200  0.36470800  1
  O  O22  1  0.64296100  0.88020900  0.65265700  1
  O  O23  1  0.65265700  0.64296100  0.88020900  1
  O  O24  1  0.84734300  0.35703900  0.38020900  1
  O  O25  1  0.85703900  0.11979100  0.15265700  1
  O  O26  1  0.86470800  0.86470800  0.86470800  1
  O  O27  1  0.86979100  0.89296100  0.40265700  1
  O  O28  1  0.88020900  0.65265700  0.64296100  1
  O  O29  1  0.88529200  0.11470800  0.61470800  1
  O  O30  1  0.89296100  0.40265700  0.86979100  1
  O  O31  1  0.90265700  0.63020900  0.10703900  1
loop_
_geom_bond_atom_site_label_1
_geom_bond_atom_site_label_2
_geom_bond_distance
_geom_bond_site_symmetry_2
Li0 O26 2.029143 1_444
Li0 O25 2.056848 1_455
Li0 O7 2.056848 1_545
Li0 O3 2.056848 1_554
Li1 O13 2.029143 1_555
Li1 O0 2.056848 1_555
Li1 O4 2.056848 1_555
Li1 O14 2.056848 1_555
Li2 O2 2.029143 1_555
Li2 O1 2.056848 1_555
Li2 O11 2.056848 1_555
Li2 O15 2.056848 1_555
Li3 O21 2.029143 1_565
Li3 O12 2.056848 1_555
Li3 O22 2.056848 1_555
Li3 O8 2.056848 1_565
Li4 O10 2.029143 1_556
Li4 O9 2.056848 1_555
Li4 O23 2.056848 1_555
Li4 O19 2.056848 1_556
Li5 O29 2.029143 1_555
Li5 O20 2.056848 1_555
Li5 O16 2.056848 1_555
Li5 O30 2.056848 1_555
Li6 O18 2.029143 1_555
Li6 O31 2.056848 1_555
Li6 O17 2.056848 1_555
Li6 O27 2.056848 1_555
Li7 O5 2.029143 1_655
Li7 O24 2.056848 1_555
Li7 O28 2.056848 1_555
Li7 O6 2.056848 1_655
Mn0 O12 2.203404 1_555
Mn0 O1 2.203404 1_555
Mn0 O0 2.203404 1_565
Mn0 O27 2.203404 1_455
Mn0 O7 2.203404 1_555
Mn0 O6 2.203404 1_555
Mn1 O9 2.203404 1_555
Mn1 O20 2.203404 1_555
Mn1 O14 2.203404 1_556
Mn1 O3 2.203404 1_555
Mn1 O15 2.203404 1_545
Mn1 O8 2.203404 1_555
Mn2 O23 2.203404 1_555
Mn2 O28 2.203404 1_555
Mn2 O22 2.203404 1_555
Mn2 O11 2.203404 1_555
Mn2 O17 2.203404 1_555
Mn2 O16 2.203404 1_555
Mn3 O24 2.203404 1_555
Mn3 O31 2.203404 1_555
Mn3 O4 2.203404 1_655
Mn3 O30 2.203404 1_554
Mn3 O25 2.203404 1_555
Mn3 O19 2.203404 1_555
O0 Ti9 1.934836 1_455
O0 Ti0 1.998048 1_555
O1 Ti0 1.934836 1_565
O1 Ti10 1.998048 1_455
O2 Ti1 2.031353 1_555
O2 Ti11 2.031353 1_455
O2 Ti2 2.031353 1_556
O3 Ti1 1.934836 1_555
O3 Ti0 1.998048 1_555
O4 Ti1 1.934836 1_554
O4 Ti2 1.998048 1_555
O5 Ti0 2.031353 1_555
O5 Ti3 2.031353 1_555
O5 Ti1 2.031353 1_555
O6 Ti2 1.934836 1_555
O6 Ti4 1.998048 1_555
O7 Ti5 1.934836 1_555
O7 Ti2 1.998048 1_555
O8 Ti0 1.934836 1_555
O8 Ti3 1.998048 1_555
O9 Ti3 1.934836 1_555
O9 Ti1 1.998048 1_555
O10 Ti5 2.031353 1_555
O10 Ti2 2.031353 1_555
O10 Ti4 2.031353 1_555
O11 Ti4 1.934836 1_555
O11 Ti3 1.998048 1_555
O12 Ti4 1.934836 1_555
O12 Ti5 1.998048 1_555
O13 Ti4 2.031353 1_555
O13 Ti6 2.031353 1_555
O13 Ti3 2.031353 1_555
O14 Ti5 1.934836 1_545
O14 Ti7 1.998048 1_555
O15 Ti8 1.934836 1_555
O15 Ti5 1.998048 1_556
O16 Ti3 1.934836 1_555
O16 Ti6 1.998048 1_555
O17 Ti6 1.934836 1_555
O17 Ti4 1.998048 1_555
O18 Ti5 2.031353 1_555
O18 Ti8 2.031353 1_554
O18 Ti7 2.031353 1_565
O19 Ti7 1.934836 1_555
O19 Ti6 1.998048 1_555
O20 Ti7 1.934836 1_556
O20 Ti8 1.998048 1_545
O21 Ti9 2.031353 1_555
O21 Ti7 2.031353 1_555
O21 Ti6 2.031353 1_555
O22 Ti8 1.934836 1_555
O22 Ti10 1.998048 1_555
O23 Ti11 1.934836 1_555
O23 Ti8 1.998048 1_555
O24 Ti6 1.934836 1_555
O24 Ti9 1.998048 1_555
O25 Ti9 1.934836 1_555
O25 Ti7 1.998048 1_555
O26 Ti11 2.031353 1_555
O26 Ti10 2.031353 1_555
O26 Ti8 2.031353 1_555
O27 Ti10 1.934836 1_555
O27 Ti9 1.998048 1_565
O28 Ti10 1.934836 1_555
O28 Ti11 1.998048 1_555
O29 Ti9 2.031353 1_555
O29 Ti10 2.031353 1_545
O29 Ti0 2.031353 1_655
O30 Ti11 1.934836 1_555
O30 Ti1 1.998048 1_655
O31 Ti2 1.934836 1_655
O31 Ti11 1.998048 1_554
