# generated using pymatgen
data_V6O7F5
_symmetry_space_group_name_H-M   'P 1'
_cell_length_a   5.59559131
_cell_length_b   5.59559131
_cell_length_c   7.35758973
_cell_angle_alpha   73.43166248
_cell_angle_beta   73.43166248
_cell_angle_gamma   71.86245554
_symmetry_Int_Tables_number   1
_chemical_formula_structural   V6O7F5
_chemical_formula_sum   'V6 O7 F5'
_cell_volume   204.89913708
_cell_formula_units_Z   1
loop_
 _symmetry_equiv_pos_site_id
 _symmetry_equiv_pos_as_xyz
  1  'x, y, z'
loop_
 _atom_site_type_symbol
 _atom_site_label
 _atom_site_symmetry_multiplicity
 _atom_site_fract_x
 _atom_site_fract_y
 _atom_site_fract_z
 _atom_site_occupancy
  V  V0  1  0.30698200  0.30698200  0.17194100  1
  V  V1  1  0.66260100  0.66260100  0.33195200  1
  V  V2  1  0.34700800  0.34700800  0.68419800  1
  V  V3  1  0.69571500  0.69571500  0.80852800  1
  V  V4  1  0.00788500  0.00788500  0.49331400  1
  V  V5  1  0.99643300  0.99643300  0.99572700  1
  O  O0  1  0.95633900  0.36081200  0.33802500  1
  O  O1  1  0.64638400  0.03666100  0.66433800  1
  O  O2  1  0.76463400  0.76463400  0.02795800  1
  O  O3  1  0.21898200  0.21898200  0.97087200  1
  O  O4  1  0.57083000  0.57083000  0.64695700  1
  O  O5  1  0.36081200  0.95633900  0.33802500  1
  O  O6  1  0.03666100  0.64638400  0.66433800  1
  F  F0  1  0.42691800  0.42691800  0.36947200  1
  F  F1  1  0.11079000  0.11079000  0.70024400  1
  F  F2  1  0.89870200  0.89870200  0.29160500  1
  F  F3  1  0.69073000  0.30159100  0.00125300  1
  F  F4  1  0.30159100  0.69073000  0.00125300  1
loop_
_geom_bond_atom_site_label_1
_geom_bond_atom_site_label_2
_geom_bond_distance
_geom_bond_site_symmetry_2
O0 V1 1.956012 1_555
O0 V4 1.958333 1_655
O0 V0 1.976917 1_655
O1 V3 1.877819 1_545
O1 V2 2.009282 1_555
O1 V4 2.040143 1_655
O2 V3 1.925289 1_554
O2 V5 2.029165 1_554
O2 V1 2.097847 1_555
O3 V0 1.911907 1_556
O3 V5 1.959769 1_445
O3 V2 2.017736 1_555
O4 V3 1.908251 1_555
O4 V2 1.948671 1_555
O4 V1 2.169254 1_555
O5 V1 1.956012 1_555
O5 V4 1.958333 1_565
O5 V0 1.976917 1_565
O6 V3 1.877819 1_455
O6 V2 2.009282 1_555
O6 V4 2.040143 1_565
F0 V1 2.054790 1_555
F0 V0 2.099039 1_555
F0 V2 2.169203 1_555
F1 V4 2.046351 1_555
F1 V5 2.052686 1_445
F1 V2 2.101877 1_555
F2 V5 2.040956 1_554
F2 V4 2.053200 1_665
F2 V1 2.053823 1_555
F3 V5 2.006201 1_544
F3 V0 2.152270 1_555
F3 V3 2.259941 1_554
F4 V5 2.006201 1_454
F4 V0 2.152270 1_555
F4 V3 2.259941 1_554
