# generated using pymatgen
data_Li12Ni11O28
_symmetry_space_group_name_H-M   'P 1'
_cell_length_a   5.83023000
_cell_length_b   6.41274169
_cell_length_c   12.91358774
_cell_angle_alpha   84.19225643
_cell_angle_beta   83.76674610
_cell_angle_gamma   74.29272139
_symmetry_Int_Tables_number   1
_chemical_formula_structural   Li12Ni11O28
_chemical_formula_sum   'Li12 Ni11 O28'
_cell_volume   460.73079353
_cell_formula_units_Z   1
loop_
 _symmetry_equiv_pos_site_id
 _symmetry_equiv_pos_as_xyz
  1  'x, y, z'
loop_
 _atom_site_type_symbol
 _atom_site_label
 _atom_site_symmetry_multiplicity
 _atom_site_fract_x
 _atom_site_fract_y
 _atom_site_fract_z
 _atom_site_occupancy
  Li  Li0  1  0.36039700  0.64893400  0.92857600  1
  Li  Li1  1  0.21015400  0.29158100  0.85699400  1
  Li  Li2  1  0.56739900  0.92839800  0.79285400  1
  Li  Li3  1  0.93663700  0.56138000  0.71790700  1
  Li  Li4  1  0.78837200  0.21477300  0.64335300  1
  Li  Li5  1  0.64648000  0.86439500  0.57226800  1
  Li  Li6  1  0.99939600  0.48939100  0.50004900  1
  Li  Li7  1  0.36012900  0.15299900  0.42568800  1
  Li  Li8  1  0.57854800  0.43574900  0.28592000  1
  Li  Li9  1  0.42991000  0.07698500  0.21459900  1
  Li  Li10  1  0.78574200  0.70142700  0.14663900  1
  Li  Li11  1  0.14454800  0.36556100  0.06671600  1
  Ni  Ni0  1  0.99596900  0.99408200  0.99930500  1
  Ni  Ni1  1  0.70983500  0.28982100  0.85763100  1
  Ni  Ni2  1  0.06864000  0.92998700  0.78472800  1
  Ni  Ni3  1  0.43110900  0.56799600  0.71444900  1
  Ni  Ni4  1  0.14507500  0.86073700  0.57178500  1
  Ni  Ni5  1  0.50541700  0.49768000  0.50121300  1
  Ni  Ni6  1  0.85684700  0.14379000  0.42686200  1
  Ni  Ni7  1  0.21605800  0.78049000  0.35707200  1
  Ni  Ni8  1  0.92526800  0.07414100  0.21463200  1
  Ni  Ni9  1  0.28421200  0.71132500  0.14291900  1
  Ni  Ni10  1  0.63812200  0.35837700  0.07001100  1
  O  O0  1  0.90209600  0.29730200  0.96642400  1
  O  O1  1  0.45927500  0.32879900  0.96407800  1
  O  O2  1  0.81226600  0.98344100  0.88751400  1
  O  O3  1  0.23929500  0.96433100  0.89150700  1
  O  O4  1  0.63032900  0.58437400  0.81241400  1
  O  O5  1  0.16584200  0.62387100  0.80949400  1
  O  O6  1  0.97490900  0.23419200  0.76084700  1
  O  O7  1  0.51048700  0.27374400  0.75908700  1
  O  O8  1  0.89141200  0.89262600  0.67527000  1
  O  O9  1  0.33528100  0.87344500  0.68149900  1
  O  O10  1  0.68540100  0.53664600  0.60667900  1
  O  O11  1  0.24051200  0.55760700  0.60530600  1
  O  O12  1  0.59309000  0.19530400  0.52172000  1
  O  O13  1  0.96148600  0.83630100  0.46685300  1
  O  O14  1  0.06141300  0.15373100  0.52626400  1
  O  O15  1  0.40333400  0.80420800  0.46762500  1
  O  O16  1  0.77010500  0.44009000  0.40658400  1
  O  O17  1  0.30197300  0.48818700  0.40181100  1
  O  O18  1  0.67765800  0.11411500  0.31951700  1
  O  O19  1  0.11993300  0.08362800  0.32173900  1
  O  O20  1  0.45593800  0.75174300  0.24911400  1
  O  O21  1  0.02731600  0.76941400  0.24922100  1
  O  O22  1  0.84435500  0.36680900  0.16963500  1
  O  O23  1  0.37366300  0.40986900  0.16499500  1
  O  O24  1  0.74056200  0.04970400  0.10890700  1
  O  O25  1  0.18024400  0.01689500  0.10795300  1
  O  O26  1  0.55302600  0.65504400  0.05026100  1
  O  O27  1  0.08224800  0.70132000  0.04303500  1
loop_
_geom_bond_atom_site_label_1
_geom_bond_atom_site_label_2
_geom_bond_distance
_geom_bond_site_symmetry_2
Li0 O3 1.980569 1_555
Li0 O1 1.995798 1_555
Li0 O26 2.037549 1_556
Li0 O4 2.039267 1_555
Li0 O5 2.050544 1_555
Li0 O27 2.052414 1_556
Li1 O7 2.029220 1_555
Li1 O3 2.065334 1_545
Li1 O6 2.072119 1_455
Li1 O5 2.110806 1_555
Li1 O0 2.155865 1_455
Li1 O1 2.183896 1_555
Li2 O2 2.096691 1_555
Li2 O4 2.129447 1_555
Li2 O3 2.151023 1_555
Li2 O7 2.154732 1_565
Li2 O9 2.192440 1_555
Li2 O8 2.267117 1_555
Li3 O5 2.018473 1_655
Li3 O4 2.030021 1_555
Li3 O6 2.073044 1_555
Li3 O8 2.091997 1_555
Li3 O11 2.162919 1_655
Li3 O10 2.205124 1_555
Li4 O6 1.992556 1_555
Li4 O8 2.001994 1_545
Li4 O10 2.009510 1_555
Li4 O14 2.057502 1_655
Li4 O7 2.063575 1_555
Li4 O12 2.069784 1_555
Li5 O10 2.059379 1_555
Li5 O12 2.105269 1_565
Li5 O8 2.107700 1_555
Li5 O13 2.141515 1_555
Li5 O9 2.165357 1_555
Li5 O15 2.191435 1_555
Li6 O16 2.000063 1_555
Li6 O17 2.056715 1_655
Li6 O14 2.082380 1_655
Li6 O10 2.139136 1_555
Li6 O13 2.177844 1_555
Li6 O11 2.209821 1_655
Li7 O12 2.022275 1_555
Li7 O14 2.055632 1_555
Li7 O17 2.079480 1_555
Li7 O18 2.153420 1_555
Li7 O19 2.197112 1_555
Li7 O15 2.199775 1_545
Li8 O20 1.984365 1_555
Li8 O18 2.001074 1_555
Li8 O16 2.019796 1_555
Li8 O22 2.027337 1_555
Li8 O17 2.058437 1_555
Li8 O23 2.111352 1_555
Li9 O20 2.055963 1_545
Li9 O23 2.112971 1_555
Li9 O24 2.124562 1_555
Li9 O19 2.146959 1_555
Li9 O18 2.157593 1_555
Li9 O25 2.238378 1_555
Li10 O26 2.034321 1_555
Li10 O27 2.067772 1_655
Li10 O22 2.074980 1_555
Li10 O20 2.179567 1_555
Li10 O21 2.187032 1_655
Li10 O24 2.187241 1_565
Li11 O23 2.030370 1_555
Li11 O22 2.078239 1_455
Li11 O27 2.080591 1_555
Li11 O1 2.116646 1_554
Li11 O0 2.171265 1_454
Li11 O25 2.203930 1_555
Ni0 O27 1.852668 1_656
Ni0 O3 1.861490 1_655
Ni0 O0 1.888904 1_565
Ni0 O25 1.896877 1_666
Ni0 O2 1.905537 1_555
Ni0 O24 1.924771 1_566
Ni1 O7 1.842131 1_555
Ni1 O6 1.857421 1_555
Ni1 O4 1.866875 1_555
Ni1 O1 1.876650 1_555
Ni1 O0 1.901912 1_555
Ni1 O2 1.904482 1_545
Ni2 O3 1.848740 1_555
Ni2 O2 1.870118 1_455
Ni2 O6 1.880677 1_465
Ni2 O5 1.893921 1_555
Ni2 O8 1.908606 1_455
Ni2 O9 1.915159 1_555
Ni3 O4 1.836453 1_555
Ni3 O5 1.844846 1_555
Ni3 O7 1.863344 1_555
Ni3 O9 1.902727 1_555
Ni3 O10 1.903280 1_555
Ni3 O11 1.903926 1_555
Ni4 O13 1.858801 1_455
Ni4 O14 1.859096 1_565
Ni4 O8 1.864739 1_455
Ni4 O15 1.889750 1_555
Ni4 O11 1.889994 1_555
Ni4 O9 1.912382 1_555
Ni5 O16 1.839665 1_555
Ni5 O17 1.855764 1_555
Ni5 O12 1.865522 1_555
Ni5 O10 1.881397 1_555
Ni5 O15 1.912155 1_555
Ni5 O11 1.916324 1_555
Ni6 O16 1.828240 1_555
Ni6 O12 1.836345 1_555
Ni6 O14 1.861295 1_655
Ni6 O18 1.877425 1_555
Ni6 O19 1.917764 1_655
Ni6 O13 1.933404 1_545
Ni7 O20 1.850013 1_555
Ni7 O17 1.852997 1_555
Ni7 O21 1.884363 1_555
Ni7 O19 1.894027 1_565
Ni7 O13 1.923256 1_455
Ni7 O15 1.930232 1_555
Ni8 O18 1.851910 1_555
Ni8 O22 1.855268 1_555
Ni8 O24 1.871411 1_555
Ni8 O19 1.897407 1_655
Ni8 O25 1.898583 1_655
Ni8 O21 1.903600 1_645
Ni9 O26 1.841782 1_555
Ni9 O27 1.855215 1_555
Ni9 O20 1.860323 1_555
Ni9 O23 1.861514 1_555
Ni9 O21 1.902997 1_555
Ni9 O25 1.910068 1_565
Ni10 O26 1.829955 1_555
Ni10 O23 1.840241 1_555
Ni10 O1 1.861168 1_554
Ni10 O22 1.867869 1_555
Ni10 O0 1.908926 1_554
Ni10 O24 1.936750 1_555
