# generated using pymatgen
data_Li2FeBO4
_symmetry_space_group_name_H-M   'P 1'
_cell_length_a   4.76851600
_cell_length_b   8.86679800
_cell_length_c   14.28088400
_cell_angle_alpha   90.00000000
_cell_angle_beta   90.00000000
_cell_angle_gamma   90.00000000
_symmetry_Int_Tables_number   1
_chemical_formula_structural   Li2FeBO4
_chemical_formula_sum   'Li16 Fe8 B8 O32'
_cell_volume   603.81674174
_cell_formula_units_Z   8
loop_
 _symmetry_equiv_pos_site_id
 _symmetry_equiv_pos_as_xyz
  1  'x, y, z'
loop_
 _atom_site_type_symbol
 _atom_site_label
 _atom_site_symmetry_multiplicity
 _atom_site_fract_x
 _atom_site_fract_y
 _atom_site_fract_z
 _atom_site_occupancy
  Li  Li0  1  0.02568100  0.99668000  0.54451000  1
  Li  Li1  1  0.52454000  0.99626300  0.93473400  1
  Li  Li2  1  0.95701000  0.23080400  0.22945300  1
  Li  Li3  1  0.47457300  0.22348100  0.32798200  1
  Li  Li4  1  0.95701000  0.26919600  0.72945300  1
  Li  Li5  1  0.47457300  0.27651900  0.82798200  1
  Li  Li6  1  0.52454000  0.50373700  0.43473400  1
  Li  Li7  1  0.02568100  0.50332000  0.04451000  1
  Li  Li8  1  0.47546000  0.49626300  0.93473400  1
  Li  Li9  1  0.97431900  0.49668000  0.54451000  1
  Li  Li10  1  0.52542700  0.72348100  0.32798200  1
  Li  Li11  1  0.04299000  0.73080400  0.22945300  1
  Li  Li12  1  0.52542700  0.77651900  0.82798200  1
  Li  Li13  1  0.04299000  0.76919600  0.72945300  1
  Li  Li14  1  0.47546000  0.00373700  0.43473400  1
  Li  Li15  1  0.97431900  0.00332000  0.04451000  1
  Fe  Fe0  1  0.51875100  0.01733700  0.69864900  1
  Fe  Fe1  1  0.48755000  0.23213500  0.05698100  1
  Fe  Fe2  1  0.48755000  0.26786500  0.55698100  1
  Fe  Fe3  1  0.51875100  0.48266300  0.19864900  1
  Fe  Fe4  1  0.48124900  0.51733700  0.69864900  1
  Fe  Fe5  1  0.51245000  0.73213500  0.05698100  1
  Fe  Fe6  1  0.51245000  0.76786500  0.55698100  1
  Fe  Fe7  1  0.48124900  0.98266300  0.19864900  1
  B  B0  1  0.02465700  0.01262100  0.81506200  1
  B  B1  1  0.98844800  0.23491300  0.42224600  1
  B  B2  1  0.98844800  0.26508700  0.92224600  1
  B  B3  1  0.02465700  0.48737900  0.31506200  1
  B  B4  1  0.97534300  0.51262100  0.81506200  1
  B  B5  1  0.01155200  0.73491300  0.42224600  1
  B  B6  1  0.01155200  0.76508700  0.92224600  1
  B  B7  1  0.97534300  0.98737900  0.31506200  1
  O  O0  1  0.28267000  0.00927800  0.31321100  1
  O  O1  1  0.87956700  0.00112000  0.21457000  1
  O  O2  1  0.83309100  0.10837000  0.37399300  1
  O  O3  1  0.36860200  0.02220800  0.07107000  1
  O  O4  1  0.11733300  0.16603100  0.84769800  1
  O  O5  1  0.55226500  0.23843200  0.68908500  1
  O  O6  1  0.21416400  0.16980300  0.48273600  1
  O  O7  1  0.79146900  0.17722400  0.97961600  1
  O  O8  1  0.21416400  0.33019700  0.98273600  1
  O  O9  1  0.79146900  0.32277600  0.47961600  1
  O  O10  1  0.11733300  0.33396900  0.34769800  1
  O  O11  1  0.55226500  0.26156800  0.18908500  1
  O  O12  1  0.36860200  0.47779200  0.57107000  1
  O  O13  1  0.83309100  0.39163000  0.87399300  1
  O  O14  1  0.28267000  0.49072200  0.81321100  1
  O  O15  1  0.87956700  0.49888000  0.71457000  1
  O  O16  1  0.12043300  0.50112000  0.21457000  1
  O  O17  1  0.71733000  0.50927800  0.31321100  1
  O  O18  1  0.16690900  0.60837000  0.37399300  1
  O  O19  1  0.63139800  0.52220800  0.07107000  1
  O  O20  1  0.44773500  0.73843200  0.68908500  1
  O  O21  1  0.88266700  0.66603100  0.84769800  1
  O  O22  1  0.20853100  0.67722400  0.97961600  1
  O  O23  1  0.78583600  0.66980300  0.48273600  1
  O  O24  1  0.20853100  0.82277600  0.47961600  1
  O  O25  1  0.78583600  0.83019700  0.98273600  1
  O  O26  1  0.44773500  0.76156800  0.18908500  1
  O  O27  1  0.88266700  0.83396900  0.34769800  1
  O  O28  1  0.63139800  0.97779200  0.57107000  1
  O  O29  1  0.16690900  0.89163000  0.87399300  1
  O  O30  1  0.12043300  0.99888000  0.71457000  1
  O  O31  1  0.71733000  0.99072200  0.81321100  1
loop_
_geom_bond_atom_site_label_1
_geom_bond_atom_site_label_2
_geom_bond_distance
_geom_bond_site_symmetry_2
Li0 O28 1.925321 1_455
Li0 O6 1.985557 1_565
Li0 O24 1.999195 1_555
Li0 O30 2.470356 1_555
Li1 O31 1.964529 1_555
Li1 O25 2.047097 1_555
Li1 O3 2.096821 1_566
Li1 O29 2.126374 1_555
Li1 O7 2.146054 1_565
Li2 O11 2.032677 1_555
Li2 O10 2.067060 1_655
Li2 O1 2.080656 1_555
Li2 O16 2.529286 1_655
Li3 O10 1.985187 1_555
Li3 O11 2.045937 1_555
Li3 O2 2.096721 1_555
Li3 O0 2.118776 1_555
Li4 O5 2.032677 1_555
Li4 O4 2.067060 1_655
Li4 O15 2.080656 1_555
Li4 O30 2.529286 1_645
Li5 O4 1.985187 1_555
Li5 O5 2.045937 1_555
Li5 O13 2.096721 1_555
Li5 O14 2.118776 1_555
Li6 O17 1.964529 1_555
Li6 O23 2.047097 1_555
Li6 O12 2.096821 1_555
Li6 O18 2.126374 1_555
Li6 O9 2.146054 1_555
Li7 O19 1.925321 1_455
Li7 O8 1.985557 1_554
Li7 O22 1.999195 1_554
Li7 O16 2.470356 1_555
Li8 O14 1.964529 1_555
Li8 O8 2.047097 1_555
Li8 O19 2.096821 1_556
Li8 O13 2.126374 1_555
Li8 O22 2.146054 1_555
Li9 O12 1.925321 1_655
Li9 O23 1.985557 1_555
Li9 O9 1.999195 1_555
Li9 O15 2.470356 1_555
Li10 O27 1.985187 1_555
Li10 O26 2.045937 1_555
Li10 O18 2.096721 1_555
Li10 O17 2.118776 1_555
Li11 O26 2.032677 1_555
Li11 O27 2.067060 1_455
Li11 O16 2.080656 1_555
Li11 O1 2.529286 1_465
Li12 O21 1.985187 1_555
Li12 O20 2.045937 1_555
Li12 O29 2.096721 1_555
Li12 O31 2.118776 1_555
Li13 O20 2.032677 1_555
Li13 O21 2.067060 1_455
Li13 O30 2.080656 1_555
Li13 O15 2.529286 1_455
Li14 O0 1.964529 1_555
Li14 O6 2.047097 1_555
Li14 O28 2.096821 1_545
Li14 O2 2.126374 1_555
Li14 O24 2.146054 1_545
Li15 O3 1.925321 1_655
Li15 O25 1.985557 1_544
Li15 O7 1.999195 1_554
Li15 O1 2.470356 1_555
Fe0 O31 1.904996 1_545
Fe0 O30 1.919933 1_545
Fe0 O28 1.931568 1_545
Fe0 O5 1.971644 1_555
Fe0 O20 2.499807 1_545
Fe1 O7 1.886275 1_554
Fe1 O8 1.892014 1_554
Fe1 O11 1.929366 1_555
Fe1 O3 1.956257 1_555
Fe2 O9 1.886275 1_555
Fe2 O6 1.892014 1_555
Fe2 O5 1.929366 1_555
Fe2 O12 1.956257 1_555
Fe3 O17 1.904996 1_555
Fe3 O16 1.919933 1_555
Fe3 O19 1.931568 1_555
Fe3 O11 1.971644 1_555
Fe3 O26 2.499807 1_555
Fe4 O14 1.904996 1_555
Fe4 O15 1.919933 1_555
Fe4 O12 1.931568 1_555
Fe4 O20 1.971644 1_555
Fe4 O5 2.499807 1_555
Fe5 O22 1.886275 1_554
Fe5 O25 1.892014 1_554
Fe5 O26 1.929366 1_555
Fe5 O19 1.956257 1_555
Fe6 O24 1.886275 1_555
Fe6 O23 1.892014 1_555
Fe6 O20 1.929366 1_555
Fe6 O28 1.956257 1_555
Fe7 O0 1.904996 1_565
Fe7 O1 1.919933 1_565
Fe7 O3 1.931568 1_565
Fe7 O26 1.971644 1_555
Fe7 O11 2.499807 1_565
B0 O31 1.478538 1_445
B0 O4 1.504266 1_555
B0 O30 1.510954 1_545
B0 O29 1.522927 1_545
B1 O9 1.469851 1_555
B1 O6 1.496001 1_655
B1 O10 1.510810 1_655
B1 O2 1.510836 1_555
B2 O7 1.469851 1_555
B2 O8 1.496001 1_655
B2 O4 1.510810 1_655
B2 O13 1.510836 1_555
B3 O17 1.478538 1_455
B3 O10 1.504266 1_555
B3 O16 1.510954 1_555
B3 O18 1.522927 1_555
B4 O14 1.478538 1_655
B4 O21 1.504266 1_555
B4 O15 1.510954 1_555
B4 O13 1.522927 1_555
B5 O24 1.469851 1_555
B5 O23 1.496001 1_455
B5 O27 1.510810 1_455
B5 O18 1.510836 1_555
B6 O22 1.469851 1_555
B6 O25 1.496001 1_455
B6 O21 1.510810 1_455
B6 O29 1.510836 1_555
B7 O0 1.478538 1_665
B7 O27 1.504266 1_555
B7 O1 1.510954 1_565
B7 O2 1.522927 1_565
