# generated using pymatgen
data_NaH2SeO4
_symmetry_space_group_name_H-M   'P 1'
_cell_length_a   6.65593029
_cell_length_b   6.65593029
_cell_length_c   9.81744000
_cell_angle_alpha   90.00000000
_cell_angle_beta   90.00000000
_cell_angle_gamma   117.03640303
_symmetry_Int_Tables_number   1
_chemical_formula_structural   NaH2SeO4
_chemical_formula_sum   'Na4 H8 Se4 O16'
_cell_volume   387.39674366
_cell_formula_units_Z   4
loop_
 _symmetry_equiv_pos_site_id
 _symmetry_equiv_pos_as_xyz
  1  'x, y, z'
loop_
 _atom_site_type_symbol
 _atom_site_label
 _atom_site_symmetry_multiplicity
 _atom_site_fract_x
 _atom_site_fract_y
 _atom_site_fract_z
 _atom_site_occupancy
  Na  Na0  1  0.59601500  0.92913900  0.57688300  1
  Na  Na1  1  0.07086100  0.40398500  0.57688300  1
  Na  Na2  1  0.40398500  0.07086100  0.07688400  1
  Na  Na3  1  0.92913900  0.59601500  0.07688400  1
  H  H0  1  0.65219500  0.82532400  0.04700700  1
  H  H1  1  0.17467600  0.34780500  0.04700700  1
  H  H2  1  0.34780500  0.17467600  0.54700700  1
  H  H3  1  0.82532400  0.65219500  0.54700700  1
  H  H4  1  0.68402600  0.31597400  0.77281900  1
  H  H5  1  0.31597400  0.68402600  0.27281900  1
  H  H6  1  0.81355600  0.18644400  0.82019200  1
  H  H7  1  0.18644400  0.81355600  0.32019200  1
  Se  Se0  1  0.43593100  0.56406900  0.88113900  1
  Se  Se1  1  0.56406900  0.43593100  0.38113900  1
  Se  Se2  1  0.09588900  0.90411100  0.74941100  1
  Se  Se3  1  0.90411100  0.09588900  0.24941100  1
  O  O0  1  0.23188100  0.76811900  0.68345400  1
  O  O1  1  0.76811900  0.23188100  0.18345400  1
  O  O2  1  0.09875500  0.90124500  0.91836700  1
  O  O3  1  0.90124500  0.09875500  0.41836700  1
  O  O4  1  0.22329500  0.17331600  0.69290000  1
  O  O5  1  0.82668400  0.77670500  0.69290000  1
  O  O6  1  0.77670500  0.82668400  0.19290000  1
  O  O7  1  0.17331600  0.22329500  0.19290000  1
  O  O8  1  0.56316800  0.83540300  0.96476000  1
  O  O9  1  0.16459700  0.43683200  0.96476000  1
  O  O10  1  0.43683200  0.16459700  0.46476000  1
  O  O11  1  0.83540300  0.56316800  0.46476000  1
  O  O12  1  0.56789100  0.43210900  0.95741100  1
  O  O13  1  0.43210900  0.56789100  0.45741100  1
  O  O14  1  0.76536900  0.23463100  0.73803600  1
  O  O15  1  0.23463100  0.76536900  0.23803600  1
loop_
_geom_bond_atom_site_label_1
_geom_bond_atom_site_label_2
_geom_bond_distance
_geom_bond_site_symmetry_2
Na0 O3 2.395538 1_565
Na0 O0 2.399149 1_555
Na0 O14 2.413387 1_565
Na0 O13 2.441825 1_555
Na0 O5 2.469824 1_555
Na0 O10 2.509955 1_565
Na1 O3 2.395538 1_455
Na1 O0 2.399149 1_555
Na1 O14 2.413387 1_455
Na1 O13 2.441825 1_555
Na1 O4 2.469824 1_555
Na1 O11 2.509955 1_455
Na2 O2 2.395544 1_544
Na2 O1 2.399144 1_555
Na2 O15 2.413381 1_545
Na2 O12 2.441830 1_554
Na2 O7 2.469819 1_555
Na2 O8 2.509959 1_544
Na3 O2 2.395544 1_654
Na3 O1 2.399144 1_555
Na3 O15 2.413381 1_655
Na3 O12 2.441830 1_554
Na3 O6 2.469819 1_555
Na3 O9 2.509959 1_654
H0 O8 1.021639 1_554
H0 O6 1.652733 1_555
H1 O9 1.021639 1_554
H1 O7 1.652733 1_555
H2 O10 1.021639 1_555
H2 O4 1.652733 1_555
H3 O11 1.021639 1_555
H3 O5 1.652733 1_555
H4 O14 0.984557 1_555
H5 O15 0.984557 1_555
H6 O14 0.974574 1_555
H7 O15 0.974574 1_555
O0 Se2 1.674138 1_555
O1 Se3 1.674138 1_555
O2 Se2 1.659034 1_555
O3 Se3 1.659034 1_555
O4 Se2 1.690008 1_545
O5 Se2 1.690008 1_655
O6 Se3 1.690008 1_565
O7 Se3 1.690008 1_455
O8 Se0 1.806178 1_555
O9 Se0 1.806178 1_555
O10 Se1 1.806178 1_555
O11 Se1 1.806178 1_555
O12 Se0 1.674784 1_555
O13 Se1 1.674784 1_555
