# generated using pymatgen
data_Li3FeF6
_symmetry_space_group_name_H-M   'P 1'
_cell_length_a   5.89231662
_cell_length_b   5.89231662
_cell_length_c   5.89231764
_cell_angle_alpha   91.18343636
_cell_angle_beta   91.18344588
_cell_angle_gamma   91.18343431
_symmetry_Int_Tables_number   1
_chemical_formula_structural   Li3FeF6
_chemical_formula_sum   'Li6 Fe2 F12'
_cell_volume   204.44496084
_cell_formula_units_Z   2
loop_
 _symmetry_equiv_pos_site_id
 _symmetry_equiv_pos_as_xyz
  1  'x, y, z'
loop_
 _atom_site_type_symbol
 _atom_site_label
 _atom_site_symmetry_multiplicity
 _atom_site_fract_x
 _atom_site_fract_y
 _atom_site_fract_z
 _atom_site_occupancy
  Li  Li0  1  0.75354790  0.93804778  0.44323188  1
  Li  Li1  1  0.06195222  0.55676812  0.24645210  1
  Li  Li2  1  0.55676812  0.24645210  0.06195222  1
  Li  Li3  1  0.44323188  0.75354790  0.93804778  1
  Li  Li4  1  0.93804778  0.44323188  0.75354790  1
  Li  Li5  1  0.24645210  0.06195222  0.55676812  1
  Fe  Fe0  1  -0.00000000  -0.00000000  -0.00000000  1
  Fe  Fe1  1  0.50000000  0.50000000  0.50000000  1
  F  F0  1  0.69343657  0.91515220  0.07578211  1
  F  F1  1  0.08484780  0.92421789  0.30656343  1
  F  F2  1  0.39627115  0.55135407  0.19309502  1
  F  F3  1  0.92421789  0.30656343  0.08484780  1
  F  F4  1  0.44864593  0.80690498  0.60372885  1
  F  F5  1  0.80690498  0.60372885  0.44864593  1
  F  F6  1  0.19309502  0.39627115  0.55135407  1
  F  F7  1  0.55135407  0.19309502  0.39627115  1
  F  F8  1  0.07578211  0.69343657  0.91515220  1
  F  F9  1  0.60372885  0.44864593  0.80690498  1
  F  F10  1  0.91515220  0.07578211  0.69343657  1
  F  F11  1  0.30656343  0.08484780  0.92421789  1
loop_
_geom_bond_atom_site_label_1
_geom_bond_atom_site_label_2
_geom_bond_distance
_geom_bond_site_symmetry_2
F0 Li3 1.897252 1_554
F0 Fe0 1.928094 1_665
F0 Li2 2.129489 1_565
F0 Li0 2.187631 1_555
F1 Li5 1.897252 1_565
F1 Fe0 1.928094 1_565
F1 Li0 2.129489 1_455
F1 Li1 2.187631 1_555
F2 Fe1 1.928721 1_555
F2 Li3 1.957539 1_554
F2 Li1 2.002045 1_555
F2 Li2 2.182243 1_555
F3 Li1 1.897252 1_655
F3 Fe0 1.928094 1_655
F3 Li4 2.129489 1_554
F3 Li2 2.187631 1_555
F4 Fe1 1.928721 1_555
F4 Li5 1.957539 1_565
F4 Li3 2.002045 1_555
F4 Li0 2.182243 1_555
F5 Fe1 1.928721 1_555
F5 Li1 1.957539 1_655
F5 Li0 2.002045 1_555
F5 Li4 2.182243 1_555
F6 Fe1 1.928721 1_555
F6 Li4 1.957539 1_455
F6 Li5 2.002045 1_555
F6 Li1 2.182243 1_555
F7 Fe1 1.928721 1_555
F7 Li0 1.957539 1_545
F7 Li2 2.002045 1_555
F7 Li5 2.182243 1_555
F8 Li4 1.897252 1_455
F8 Fe0 1.928094 1_566
F8 Li1 2.129489 1_556
F8 Li3 2.187631 1_555
F9 Fe1 1.928721 1_555
F9 Li2 1.957539 1_556
F9 Li4 2.002045 1_555
F9 Li3 2.182243 1_555
F10 Li0 1.897252 1_545
F10 Fe0 1.928094 1_656
F10 Li5 2.129489 1_655
F10 Li4 2.187631 1_555
F11 Li2 1.897252 1_556
F11 Fe0 1.928094 1_556
F11 Li3 2.129489 1_545
F11 Li5 2.187631 1_555
