# generated using pymatgen
data_Cd4B6O13
_symmetry_space_group_name_H-M   'P 1'
_cell_length_a   6.83438150
_cell_length_b   6.83438150
_cell_length_c   6.83438150
_cell_angle_alpha   109.47122063
_cell_angle_beta   109.47122063
_cell_angle_gamma   109.47122063
_symmetry_Int_Tables_number   1
_chemical_formula_structural   Cd4B6O13
_chemical_formula_sum   'Cd4 B6 O13'
_cell_volume   245.73994851
_cell_formula_units_Z   1
loop_
 _symmetry_equiv_pos_site_id
 _symmetry_equiv_pos_as_xyz
  1  'x, y, z'
loop_
 _atom_site_type_symbol
 _atom_site_label
 _atom_site_symmetry_multiplicity
 _atom_site_fract_x
 _atom_site_fract_y
 _atom_site_fract_z
 _atom_site_occupancy
  Cd  Cd0  1  0.68237300  0.00000000  0.00000000  1
  Cd  Cd1  1  0.31762700  0.31762700  0.31762700  1
  Cd  Cd2  1  0.00000000  0.68237300  0.00000000  1
  Cd  Cd3  1  0.00000000  0.00000000  0.68237300  1
  B  B0  1  0.75000000  0.50000000  0.25000000  1
  B  B1  1  0.75000000  0.25000000  0.50000000  1
  B  B2  1  0.50000000  0.25000000  0.75000000  1
  B  B3  1  0.50000000  0.75000000  0.25000000  1
  B  B4  1  0.25000000  0.75000000  0.50000000  1
  B  B5  1  0.25000000  0.50000000  0.75000000  1
  O  O0  1  0.70679200  0.00000000  0.41399600  1
  O  O1  1  0.70679200  0.41399600  0.00000000  1
  O  O2  1  0.70720400  0.29320800  0.29320800  1
  O  O3  1  0.00000000  0.00000000  0.00000000  1
  O  O4  1  0.41399600  0.70679200  0.00000000  1
  O  O5  1  0.41399600  0.00000000  0.70679200  1
  O  O6  1  0.58600400  0.29279600  0.58600400  1
  O  O7  1  0.58600400  0.58600400  0.29279600  1
  O  O8  1  0.29320800  0.29320800  0.70720400  1
  O  O9  1  0.29320800  0.70720400  0.29320800  1
  O  O10  1  0.29279600  0.58600400  0.58600400  1
  O  O11  1  0.00000000  0.70679200  0.41399600  1
  O  O12  1  0.00000000  0.41399600  0.70679200  1
loop_
_geom_bond_atom_site_label_1
_geom_bond_atom_site_label_2
_geom_bond_distance
_geom_bond_site_symmetry_2
Cd0 O3 2.170784 1_655
Cd0 O5 2.220248 1_554
Cd0 O4 2.220248 1_545
Cd0 O2 2.220248 1_555
Cd1 O3 2.170784 1_555
Cd1 O10 2.220248 1_555
Cd1 O6 2.220248 1_555
Cd1 O7 2.220248 1_555
Cd2 O3 2.170784 1_565
Cd2 O12 2.220248 1_554
Cd2 O9 2.220248 1_555
Cd2 O1 2.220248 1_455
Cd3 O3 2.170784 1_556
Cd3 O0 2.220248 1_455
Cd3 O11 2.220248 1_545
Cd3 O8 2.220248 1_555
B0 O11 1.493448 1_655
B0 O1 1.493448 1_555
B0 O2 1.493448 1_555
B0 O7 1.493448 1_555
B1 O12 1.493448 1_655
B1 O0 1.493448 1_555
B1 O2 1.493448 1_555
B1 O6 1.493448 1_555
B2 O5 1.493448 1_555
B2 O8 1.493448 1_555
B2 O1 1.493448 1_556
B2 O6 1.493448 1_555
B3 O4 1.493448 1_555
B3 O0 1.493448 1_565
B3 O9 1.493448 1_555
B3 O7 1.493448 1_555
B4 O9 1.493448 1_555
B4 O5 1.493448 1_565
B4 O11 1.493448 1_555
B4 O10 1.493448 1_555
B5 O12 1.493448 1_555
B5 O4 1.493448 1_556
B5 O8 1.493448 1_555
B5 O10 1.493448 1_555
