# generated using pymatgen
data_Li3Co4SnO8
_symmetry_space_group_name_H-M   'P 1'
_cell_length_a   6.01339866
_cell_length_b   6.01339866
_cell_length_c   6.09163384
_cell_angle_alpha   60.07872765
_cell_angle_beta   60.07872765
_cell_angle_gamma   60.55986273
_symmetry_Int_Tables_number   1
_chemical_formula_structural   Li3Co4SnO8
_chemical_formula_sum   'Li3 Co4 Sn1 O8'
_cell_volume   156.59680693
_cell_formula_units_Z   1
loop_
 _symmetry_equiv_pos_site_id
 _symmetry_equiv_pos_as_xyz
  1  'x, y, z'
loop_
 _atom_site_type_symbol
 _atom_site_label
 _atom_site_symmetry_multiplicity
 _atom_site_fract_x
 _atom_site_fract_y
 _atom_site_fract_z
 _atom_site_occupancy
  Li  Li0  1  0.00000000  0.50000000  0.00000000  1
  Li  Li1  1  0.00000000  0.00000000  0.50000000  1
  Li  Li2  1  0.50000000  0.00000000  0.00000000  1
  Co  Co0  1  0.50000000  0.50000000  0.50000000  1
  Co  Co1  1  0.00000000  0.00000000  0.00000000  1
  Co  Co2  1  0.00000000  0.50000000  0.50000000  1
  Co  Co3  1  0.50000000  0.00000000  0.50000000  1
  Sn  Sn0  1  0.50000000  0.50000000  0.00000000  1
  O  O0  1  0.25529800  0.25529800  0.26215100  1
  O  O1  1  0.25336300  0.74019800  0.76012600  1
  O  O2  1  0.74019800  0.25336300  0.76012600  1
  O  O3  1  0.75039300  0.75039300  0.26603600  1
  O  O4  1  0.24960700  0.24960700  0.73396400  1
  O  O5  1  0.25980200  0.74663700  0.23987400  1
  O  O6  1  0.74663700  0.25980200  0.23987400  1
  O  O7  1  0.74470200  0.74470200  0.73784900  1
loop_
_geom_bond_atom_site_label_1
_geom_bond_atom_site_label_2
_geom_bond_distance
_geom_bond_site_symmetry_2
Li0 O1 2.092728 1_554
Li0 O6 2.092728 1_455
Li0 O3 2.220901 1_455
Li0 O4 2.220901 1_554
Li0 O0 2.225564 1_555
Li0 O7 2.225564 1_454
Li1 O0 2.166050 1_555
Li1 O7 2.166050 1_445
Li1 O2 2.207235 1_455
Li1 O1 2.207235 1_545
Li1 O5 2.207235 1_545
Li1 O6 2.207235 1_455
Li2 O2 2.092728 1_554
Li2 O5 2.092728 1_545
Li2 O3 2.220901 1_545
Li2 O4 2.220901 1_554
Li2 O0 2.225564 1_555
Li2 O7 2.225564 1_544
Co0 O4 2.124279 1_555
Co0 O3 2.124279 1_555
Co0 O2 2.151701 1_555
Co0 O1 2.151701 1_555
Co0 O6 2.151701 1_555
Co0 O5 2.151701 1_555
Co1 O3 2.119805 1_445
Co1 O4 2.119805 1_554
Co1 O6 2.147973 1_455
Co1 O5 2.147973 1_545
Co1 O2 2.147973 1_454
Co1 O1 2.147973 1_544
Co2 O7 2.075723 1_455
Co2 O0 2.075723 1_555
Co2 O3 2.079177 1_455
Co2 O4 2.079177 1_555
Co2 O5 2.148220 1_555
Co2 O2 2.148220 1_455
Co3 O7 2.075723 1_545
Co3 O0 2.075723 1_555
Co3 O4 2.079177 1_555
Co3 O3 2.079177 1_545
Co3 O6 2.148220 1_555
Co3 O1 2.148220 1_545
O0 Sn0 2.078640 1_555
O1 Sn0 2.090865 1_556
O2 Sn0 2.090865 1_556
O5 Sn0 2.090865 1_555
O6 Sn0 2.090865 1_555
O7 Sn0 2.078640 1_556
