# generated using pymatgen
data_Li4V2Co3Sb3O16
_symmetry_space_group_name_H-M   'P 1'
_cell_length_a   6.13703475
_cell_length_b   6.09815665
_cell_length_c   9.74016335
_cell_angle_alpha   89.98112472
_cell_angle_beta   90.79921709
_cell_angle_gamma   119.77831066
_symmetry_Int_Tables_number   1
_chemical_formula_structural   Li4V2Co3Sb3O16
_chemical_formula_sum   'Li4 V2 Co3 Sb3 O16'
_cell_volume   316.34797941
_cell_formula_units_Z   1
loop_
 _symmetry_equiv_pos_site_id
 _symmetry_equiv_pos_as_xyz
  1  'x, y, z'
loop_
 _atom_site_type_symbol
 _atom_site_label
 _atom_site_symmetry_multiplicity
 _atom_site_fract_x
 _atom_site_fract_y
 _atom_site_fract_z
 _atom_site_occupancy
  Li  Li0  1  0.33912700  0.66973600  0.88670400  1
  Li  Li1  1  0.95646400  0.97825700  0.98058300  1
  Li  Li2  1  0.98770400  0.99388300  0.50788800  1
  Li  Li3  1  0.64885600  0.32438300  0.40338400  1
  V  V0  1  0.35656500  0.67821100  0.49999800  1
  V  V1  1  0.69444600  0.34731200  0.97561800  1
  Co  Co0  1  0.65807700  0.82899000  0.21546700  1
  Co  Co1  1  0.85076400  0.65811500  0.71661500  1
  Co  Co2  1  0.85118400  0.19324400  0.71670300  1
  Sb  Sb0  1  0.16264800  0.82874000  0.21519600  1
  Sb  Sb1  1  0.16265800  0.33398400  0.21520500  1
  Sb  Sb2  1  0.35310900  0.17631900  0.71336000  1
  O  O0  1  0.18511700  0.84458700  0.59275800  1
  O  O1  1  0.02719200  0.51356100  0.33858600  1
  O  O2  1  0.31252100  0.65631000  0.10289900  1
  O  O3  1  0.00748200  0.00378500  0.32027300  1
  O  O4  1  0.01631800  0.00811200  0.79784400  1
  O  O5  1  0.18510900  0.34042600  0.59283000  1
  O  O6  1  0.46091600  0.95498800  0.33965000  1
  O  O7  1  0.46088900  0.50579700  0.33965600  1
  O  O8  1  0.31298300  0.15659700  0.10333900  1
  O  O9  1  0.64577200  0.82253300  0.58132000  1
  O  O10  1  0.51657300  0.47624100  0.84453000  1
  O  O11  1  0.51699700  0.04006000  0.84407300  1
  O  O12  1  0.66456700  0.33241800  0.60346200  1
  O  O13  1  0.84654400  0.68013200  0.10358100  1
  O  O14  1  0.97307100  0.48672700  0.85281300  1
  O  O15  1  0.84634900  0.16684800  0.10350200  1
loop_
_geom_bond_atom_site_label_1
_geom_bond_atom_site_label_2
_geom_bond_distance
_geom_bond_site_symmetry_2
Li0 O14 1.972426 1_455
Li0 O11 2.006817 1_565
Li0 O10 2.009006 1_555
Li0 O2 2.112783 1_556
Li1 O4 1.813214 1_665
Li1 O13 1.999606 1_556
Li1 O15 2.002041 1_566
Li1 O8 2.227981 1_666
Li2 O3 1.832105 1_665
Li2 O9 1.967305 1_555
Li2 O0 2.011769 1_655
Li2 O5 2.012037 1_665
Li3 O12 1.949261 1_555
Li3 O7 2.046230 1_555
Li3 O6 2.047005 1_545
Li3 O1 2.121331 1_655
Co0 O13 2.104321 1_555
Co0 O15 2.106731 1_565
Co0 O3 2.108475 1_665
Co0 O7 2.117127 1_555
Co0 O6 2.117162 1_555
Co0 O2 2.127459 1_555
Co1 O4 2.009569 1_665
Co1 O14 2.041109 1_555
Co1 O12 2.043822 1_555
Co1 O0 2.170108 1_655
Co1 O10 2.190822 1_555
Co1 O9 2.351669 1_555
Co2 O4 2.009911 1_655
Co2 O14 2.040660 1_555
Co2 O12 2.044054 1_555
Co2 O5 2.168470 1_655
Co2 O11 2.187511 1_555
Co2 O9 2.358696 1_545
O0 V0 2.010043 1_555
O0 Sb2 2.105063 1_565
O1 Sb1 2.065823 1_555
O1 Sb0 2.066133 1_555
O1 V0 2.337147 1_555
O2 Sb1 2.033961 1_555
O2 Sb0 2.034088 1_555
O3 Sb1 2.032221 1_555
O3 Sb0 2.032564 1_545
O4 Sb2 1.985540 1_555
O5 V0 2.010029 1_555
O5 Sb2 2.105486 1_555
O6 Sb0 1.987895 1_555
O6 V0 2.156543 1_555
O7 Sb1 1.987746 1_555
O7 V0 2.156864 1_555
O8 Sb1 2.056340 1_555
O8 Sb0 2.056675 1_545
O8 V1 2.399292 1_554
O9 V0 1.720991 1_555
O10 Sb2 2.031531 1_555
O10 V1 2.062279 1_555
O11 Sb2 2.028968 1_555
O11 V1 2.067399 1_555
O12 Sb2 1.988619 1_555
O13 Sb0 1.990500 1_655
O13 V1 2.152075 1_554
O14 V1 1.920889 1_555
O15 Sb1 1.991832 1_655
O15 V1 2.148824 1_554
