# generated using pymatgen
data_Li2Fe2Cu(PO4)3
_symmetry_space_group_name_H-M   'P 1'
_cell_length_a   8.49602635
_cell_length_b   8.49602635
_cell_length_c   8.50986439
_cell_angle_alpha   61.07383926
_cell_angle_beta   61.07383926
_cell_angle_gamma   61.37496546
_symmetry_Int_Tables_number   1
_chemical_formula_structural   Li2Fe2Cu(PO4)3
_chemical_formula_sum   'Li4 Fe4 Cu2 P6 O24'
_cell_volume   445.81608011
_cell_formula_units_Z   2
loop_
 _symmetry_equiv_pos_site_id
 _symmetry_equiv_pos_as_xyz
  1  'x, y, z'
loop_
 _atom_site_type_symbol
 _atom_site_label
 _atom_site_symmetry_multiplicity
 _atom_site_fract_x
 _atom_site_fract_y
 _atom_site_fract_z
 _atom_site_occupancy
  Li  Li0  1  0.64353500  0.35646500  0.50000000  1
  Li  Li1  1  0.35037200  0.64962800  0.00000000  1
  Li  Li2  1  0.74980300  0.85059300  0.39965700  1
  Li  Li3  1  0.14940700  0.25019700  0.60034300  1
  Fe  Fe0  1  0.64374900  0.14207500  0.88966000  1
  Fe  Fe1  1  0.85792500  0.35625100  0.11034000  1
  Fe  Fe2  1  0.14668700  0.65047500  0.39774600  1
  Fe  Fe3  1  0.34952500  0.85331300  0.60225400  1
  Cu  Cu0  1  0.50028500  0.99227500  0.76272200  1
  Cu  Cu1  1  0.00772500  0.49971500  0.23727800  1
  P  P0  1  0.24771200  0.44861900  0.80367700  1
  P  P1  1  0.55138100  0.75228800  0.19632300  1
  P  P2  1  0.94980400  0.05019600  0.50000000  1
  P  P3  1  0.03280900  0.96719100  0.00000000  1
  P  P4  1  0.46606700  0.25041500  0.28590800  1
  P  P5  1  0.74958500  0.53393300  0.71409200  1
  O  O0  1  0.79979900  0.49566800  0.88033600  1
  O  O1  1  0.00293700  0.12629000  0.05700400  1
  O  O2  1  0.42514400  0.26480700  0.80200000  1
  O  O3  1  0.62452000  0.30326500  0.26946400  1
  O  O4  1  0.30210700  0.61133700  0.77399800  1
  O  O5  1  0.08234900  0.42925700  0.99530100  1
  O  O6  1  0.57074300  0.91765100  0.00469900  1
  O  O7  1  0.73519300  0.57485600  0.19800000  1
  O  O8  1  0.87371000  0.99706300  0.94299600  1
  O  O9  1  0.92562100  0.24626800  0.33765600  1
  O  O10  1  0.23114500  0.94334700  0.83972800  1
  O  O11  1  0.50433200  0.20020100  0.11966400  1
  O  O12  1  0.52028000  0.80637500  0.35953200  1
  O  O13  1  0.75373200  0.07437900  0.66234400  1
  O  O14  1  0.05665300  0.76885500  0.16027200  1
  O  O15  1  0.10881100  0.02447400  0.55525500  1
  O  O16  1  0.26969400  0.41079600  0.30793900  1
  O  O17  1  0.44001200  0.08990500  0.48305000  1
  O  O18  1  0.91009500  0.55998800  0.51695000  1
  O  O19  1  0.69673500  0.37548000  0.73053600  1
  O  O20  1  0.38866300  0.69789300  0.22600200  1
  O  O21  1  0.58920400  0.73030600  0.69206100  1
  O  O22  1  0.97552600  0.89118900  0.44474500  1
  O  O23  1  0.19362500  0.47972000  0.64046800  1
loop_
_geom_bond_atom_site_label_1
_geom_bond_atom_site_label_2
_geom_bond_distance
_geom_bond_site_symmetry_2
Li0 O13 2.104115 1_555
Li0 O9 2.104115 1_555
Li0 O19 2.305106 1_555
Li0 O3 2.305106 1_555
Li0 O2 2.342967 1_555
Li0 O7 2.342967 1_555
Li1 O14 2.176136 1_555
Li1 O10 2.176136 1_554
Li1 O20 2.338556 1_555
Li1 O4 2.338556 1_554
Li1 O21 2.430128 1_554
Li1 O16 2.430128 1_555
Li2 O18 2.157806 1_555
Li2 O21 2.165541 1_555
Li2 O22 2.327559 1_555
Li2 O12 2.351701 1_555
Li2 O14 2.434133 1_655
Li2 O17 2.454877 1_565
Li3 O17 2.157806 1_555
Li3 O16 2.165541 1_555
Li3 O15 2.327559 1_555
Li3 O23 2.351701 1_555
Li3 O10 2.434133 1_545
Li3 O18 2.454877 1_455
Fe0 O8 1.884569 1_545
Fe0 O11 1.899939 1_556
Fe0 O19 1.907009 1_555
Fe0 O6 1.928401 1_546
Fe0 O13 1.938738 1_555
Fe0 O2 1.955873 1_555
Fe1 O1 1.884569 1_655
Fe1 O0 1.899939 1_554
Fe1 O3 1.907009 1_555
Fe1 O5 1.928401 1_654
Fe1 O9 1.938738 1_555
Fe1 O7 1.955873 1_555
Fe2 O22 1.958628 1_455
Fe2 O20 1.960152 1_555
Fe2 O23 1.968208 1_555
Fe2 O18 2.101012 1_455
Fe2 O14 2.114865 1_555
Fe2 O16 2.125237 1_555
Fe3 O15 1.958628 1_565
Fe3 O4 1.960152 1_555
Fe3 O12 1.968208 1_555
Fe3 O17 2.101012 1_565
Fe3 O10 2.114865 1_555
Fe3 O21 2.125237 1_555
Cu0 O6 2.136919 1_556
Cu0 O13 2.221795 1_565
Cu0 O2 2.237516 1_565
Cu0 O10 2.242445 1_555
Cu0 O21 2.264992 1_555
Cu0 O17 2.340258 1_565
Cu1 O5 2.136919 1_554
Cu1 O9 2.221795 1_455
Cu1 O7 2.237516 1_455
Cu1 O14 2.242445 1_555
Cu1 O16 2.264992 1_555
Cu1 O18 2.340258 1_455
O0 P5 1.514976 1_555
O1 P3 1.520974 1_545
O2 P0 1.567348 1_555
O3 P4 1.539371 1_555
O4 P0 1.532980 1_555
O5 P0 1.551049 1_555
O6 P1 1.551049 1_555
O7 P1 1.567348 1_555
O8 P3 1.520974 1_656
O9 P2 1.564030 1_555
O10 P3 1.567691 1_556
O11 P4 1.514976 1_555
O12 P1 1.534937 1_555
O13 P2 1.564030 1_555
O14 P3 1.567691 1_555
O15 P2 1.525149 1_455
O16 P4 1.562589 1_555
O17 P4 1.562060 1_555
O18 P5 1.562060 1_555
O19 P5 1.539371 1_555
O20 P1 1.532980 1_555
O21 P5 1.562589 1_555
O22 P2 1.525149 1_565
O23 P0 1.534937 1_555
