# generated using pymatgen
data_Li4FeBi(TeO6)2
_symmetry_space_group_name_H-M   'P 1'
_cell_length_a   5.24111000
_cell_length_b   5.49953417
_cell_length_c   7.62376150
_cell_angle_alpha   86.09602722
_cell_angle_beta   89.98108368
_cell_angle_gamma   89.78933114
_symmetry_Int_Tables_number   1
_chemical_formula_structural   Li4FeBi(TeO6)2
_chemical_formula_sum   'Li4 Fe1 Bi1 Te2 O12'
_cell_volume   219.23334956
_cell_formula_units_Z   1
loop_
 _symmetry_equiv_pos_site_id
 _symmetry_equiv_pos_as_xyz
  1  'x, y, z'
loop_
 _atom_site_type_symbol
 _atom_site_label
 _atom_site_symmetry_multiplicity
 _atom_site_fract_x
 _atom_site_fract_y
 _atom_site_fract_z
 _atom_site_occupancy
  Li  Li0  1  0.50684100  0.08764300  0.31170900  1
  Li  Li1  1  0.49775100  0.09022300  0.76388900  1
  Li  Li2  1  0.99219500  0.53730900  0.74778800  1
  Li  Li3  1  0.00201500  0.55733700  0.30799400  1
  Fe  Fe0  1  0.50055500  0.51649400  0.50244700  1
  Bi  Bi0  1  0.99924900  0.00280000  0.00519800  1
  Te  Te0  1  0.00120500  0.00131800  0.50168500  1
  Te  Te1  1  0.49924300  0.50404700  0.00066400  1
  O  O0  1  0.64897000  0.17789100  0.06690200  1
  O  O1  1  0.30343000  0.18063300  0.55089100  1
  O  O2  1  0.80343300  0.29086100  0.43656300  1
  O  O3  1  0.19944800  0.32392500  0.91227700  1
  O  O4  1  0.37074600  0.49242300  0.23591300  1
  O  O5  1  0.62401300  0.46989100  0.76195800  1
  O  O6  1  0.82243400  0.65240900  0.06713000  1
  O  O7  1  0.17785800  0.68881400  0.54844200  1
  O  O8  1  0.71274800  0.80596400  0.42956400  1
  O  O9  1  0.33180100  0.80798500  0.91626400  1
  O  O10  1  0.14690900  0.98341400  0.26161600  1
  O  O11  1  0.85915500  0.97101600  0.74230300  1
loop_
_geom_bond_atom_site_label_1
_geom_bond_atom_site_label_2
_geom_bond_distance
_geom_bond_site_symmetry_2
Li0 O10 2.017751 1_545
Li0 O0 2.039647 1_555
Li0 O8 2.042173 1_545
Li0 O2 2.174870 1_555
Li0 O1 2.201095 1_555
Li0 O4 2.368893 1_555
Li1 O1 1.951609 1_555
Li1 O11 2.012476 1_545
Li1 O9 2.068563 1_545
Li1 O5 2.191765 1_555
Li1 O3 2.357549 1_555
Li1 O0 2.520483 1_556
Li2 O7 1.945088 1_655
Li2 O5 1.967862 1_555
Li2 O3 1.980090 1_655
Li2 O11 2.480175 1_555
Li3 O2 2.001652 1_455
Li3 O4 2.045765 1_555
Li3 O6 2.097137 1_455
Li3 O7 2.217885 1_555
Li3 O8 2.276727 1_455
Li3 O10 2.468300 1_555
Fe0 O7 1.978533 1_555
Fe0 O8 1.992996 1_555
Fe0 O5 2.080676 1_555
Fe0 O2 2.093278 1_555
Fe0 O1 2.129883 1_555
Fe0 O4 2.155826 1_555
Bi0 O10 2.098528 1_645
Bi0 O3 2.136461 1_654
Bi0 O0 2.137046 1_555
Bi0 O11 2.153209 1_544
Bi0 O6 2.164243 1_545
Bi0 O9 2.174817 1_644
O0 Te1 1.988660 1_555
O1 Te0 1.919507 1_555
O2 Te0 1.933145 1_655
O3 Te1 2.001803 1_556
O4 Te1 1.912624 1_555
O5 Te1 1.954375 1_556
O6 Te1 1.964370 1_555
O7 Te0 1.960370 1_565
O8 Te0 1.958349 1_665
O9 Te1 1.954808 1_556
O10 Te0 1.991396 1_565
O11 Te0 1.976236 1_665
