# generated using pymatgen
data_Li4Fe3TeO8
_symmetry_space_group_name_H-M   'P 1'
_cell_length_a   6.04375843
_cell_length_b   6.04375843
_cell_length_c   6.04375867
_cell_angle_alpha   61.94973394
_cell_angle_beta   61.94973394
_cell_angle_gamma   61.94973496
_symmetry_Int_Tables_number   1
_chemical_formula_structural   Li4Fe3TeO8
_chemical_formula_sum   'Li4 Fe3 Te1 O8'
_cell_volume   162.91140337
_cell_formula_units_Z   1
loop_
 _symmetry_equiv_pos_site_id
 _symmetry_equiv_pos_as_xyz
  1  'x, y, z'
loop_
 _atom_site_type_symbol
 _atom_site_label
 _atom_site_symmetry_multiplicity
 _atom_site_fract_x
 _atom_site_fract_y
 _atom_site_fract_z
 _atom_site_occupancy
  Li  Li0  1  0.50000000  0.50000000  0.50000000  1
  Li  Li1  1  0.00000000  0.00000000  0.50000000  1
  Li  Li2  1  0.50000000  0.00000000  0.00000000  1
  Li  Li3  1  0.00000000  0.50000000  0.00000000  1
  Fe  Fe0  1  0.50000000  0.50000000  0.00000000  1
  Fe  Fe1  1  0.00000000  0.50000000  0.50000000  1
  Fe  Fe2  1  0.50000000  0.00000000  0.50000000  1
  Te  Te0  1  0.00000000  0.00000000  0.00000000  1
  O  O0  1  0.26209900  0.26209900  0.26209900  1
  O  O1  1  0.77233300  0.77233300  0.22007500  1
  O  O2  1  0.22007500  0.77233300  0.77233300  1
  O  O3  1  0.73790100  0.73790100  0.73790100  1
  O  O4  1  0.77233300  0.22007600  0.77233300  1
  O  O5  1  0.22766700  0.22766700  0.77992500  1
  O  O6  1  0.77992500  0.22766700  0.22766700  1
  O  O7  1  0.22766700  0.77992500  0.22766700  1
loop_
_geom_bond_atom_site_label_1
_geom_bond_atom_site_label_2
_geom_bond_distance
_geom_bond_site_symmetry_2
Li0 O4 2.364397 1_555
Li0 O1 2.364397 1_555
Li0 O5 2.364397 1_555
Li0 O2 2.364397 1_555
Li0 O6 2.364397 1_555
Li0 O7 2.364397 1_555
Li1 O2 2.139898 1_545
Li1 O7 2.139898 1_545
Li1 O6 2.139898 1_455
Li1 O4 2.139902 1_455
Li1 O0 2.271926 1_555
Li1 O3 2.271926 1_445
Li2 O7 2.139898 1_545
Li2 O1 2.139898 1_545
Li2 O5 2.139898 1_554
Li2 O4 2.139902 1_554
Li2 O0 2.271926 1_555
Li2 O3 2.271926 1_544
Li3 O2 2.139898 1_554
Li3 O6 2.139898 1_455
Li3 O1 2.139898 1_455
Li3 O5 2.139898 1_554
Li3 O0 2.271926 1_555
Li3 O3 2.271926 1_454
Fe0 O3 2.074625 1_554
Fe0 O0 2.074625 1_555
Fe0 O4 2.214724 1_554
Fe0 O7 2.214728 1_555
Fe0 O6 2.214728 1_555
Fe0 O2 2.214728 1_554
Fe1 O3 2.074625 1_455
Fe1 O0 2.074625 1_555
Fe1 O4 2.214724 1_455
Fe1 O7 2.214728 1_555
Fe1 O5 2.214728 1_555
Fe1 O1 2.214728 1_455
Fe2 O3 2.074625 1_545
Fe2 O0 2.074625 1_555
Fe2 O6 2.214728 1_555
Fe2 O2 2.214728 1_545
Fe2 O5 2.214728 1_555
Fe2 O1 2.214728 1_545
O1 Te0 1.973274 1_665
O2 Te0 1.973275 1_566
O4 Te0 1.973275 1_656
O5 Te0 1.973274 1_556
O6 Te0 1.973275 1_655
O7 Te0 1.973275 1_565
