# generated using pymatgen
data_V2NiSe4
_symmetry_space_group_name_H-M   'P 1'
_cell_length_a   6.69683584
_cell_length_b   6.69683584
_cell_length_c   6.19321991
_cell_angle_alpha   64.17364278
_cell_angle_beta   64.17364278
_cell_angle_gamma   29.37128425
_symmetry_Int_Tables_number   1
_chemical_formula_structural   V2NiSe4
_chemical_formula_sum   'V2 Ni1 Se4'
_cell_volume   121.63071359
_cell_formula_units_Z   1
loop_
 _symmetry_equiv_pos_site_id
 _symmetry_equiv_pos_as_xyz
  1  'x, y, z'
loop_
 _atom_site_type_symbol
 _atom_site_label
 _atom_site_symmetry_multiplicity
 _atom_site_fract_x
 _atom_site_fract_y
 _atom_site_fract_z
 _atom_site_occupancy
  V  V0  1  0.25474400  0.25474400  0.68740300  1
  V  V1  1  0.74525600  0.74525600  0.31259700  1
  Ni  Ni0  1  0.00000000  0.00000000  0.00000000  1
  Se  Se0  1  0.36061000  0.36061000  0.97786100  1
  Se  Se1  1  0.63939000  0.63939000  0.02213900  1
  Se  Se2  1  0.10484600  0.10484600  0.55345500  1
  Se  Se3  1  0.89515400  0.89515400  0.44654500  1
loop_
_geom_bond_atom_site_label_1
_geom_bond_atom_site_label_2
_geom_bond_distance
_geom_bond_site_symmetry_2
Ni0 Se2 2.471798 1_554
Ni0 Se3 2.471798 1_445
Ni0 Se0 2.526987 1_454
Ni0 Se1 2.526987 1_545
Ni0 Se1 2.526987 1_455
Ni0 Se0 2.526987 1_544
Se0 V1 2.573523 1_456
Se0 V1 2.573523 1_546
Se0 V0 2.709177 1_555
Se1 V0 2.573523 1_654
Se1 V0 2.573523 1_564
Se1 V1 2.709177 1_555
Se2 V0 2.431269 1_555
Se2 V1 2.443902 1_455
Se2 V1 2.443902 1_545
Se3 V1 2.431269 1_555
Se3 V0 2.443902 1_655
Se3 V0 2.443902 1_565
