# generated using pymatgen
data_Li2Mn3NiO8
_symmetry_space_group_name_H-M   'P 1'
_cell_length_a   5.91059965
_cell_length_b   5.91059965
_cell_length_c   5.82852705
_cell_angle_alpha   60.45829656
_cell_angle_beta   90.00000000
_cell_angle_gamma   120.91659312
_symmetry_Int_Tables_number   1
_chemical_formula_structural   Li2Mn3NiO8
_chemical_formula_sum   'Li2 Mn3 Ni1 O8'
_cell_volume   142.95781811
_cell_formula_units_Z   1
loop_
 _symmetry_equiv_pos_site_id
 _symmetry_equiv_pos_as_xyz
  1  'x, y, z'
loop_
 _atom_site_type_symbol
 _atom_site_label
 _atom_site_symmetry_multiplicity
 _atom_site_fract_x
 _atom_site_fract_y
 _atom_site_fract_z
 _atom_site_occupancy
  Li  Li0  1  0.11978100  0.26043900  0.11978100  1
  Li  Li1  1  0.88021900  0.73956100  0.88021900  1
  Mn  Mn0  1  0.50000000  0.00000000  0.00000000  1
  Mn  Mn1  1  0.50000000  0.00000000  0.50000000  1
  Mn  Mn2  1  0.00000000  0.50000000  0.50000000  1
  Ni  Ni0  1  0.50000000  0.50000000  0.50000000  1
  O  O0  1  0.74649000  0.46312800  0.29038200  1
  O  O1  1  0.73698300  0.02603400  0.73698300  1
  O  O2  1  0.29038200  0.00702200  0.74649000  1
  O  O3  1  0.74649000  0.46312800  0.74649000  1
  O  O4  1  0.25351000  0.53687200  0.25351000  1
  O  O5  1  0.70961800  0.99297800  0.25351000  1
  O  O6  1  0.26301700  0.97396600  0.26301700  1
  O  O7  1  0.25351000  0.53687200  0.70961800  1
loop_
_geom_bond_atom_site_label_1
_geom_bond_atom_site_label_2
_geom_bond_distance
_geom_bond_site_symmetry_2
Li0 O4 1.957202 1_555
Li0 O5 1.957206 1_445
Li0 O7 1.957207 1_554
Li0 O6 2.088018 1_545
Li1 O3 1.957202 1_555
Li1 O2 1.957206 1_665
Li1 O0 1.957207 1_556
Li1 O1 2.088018 1_565
Mn0 O3 1.926759 1_554
Mn0 O4 1.926759 1_545
Mn0 O5 1.926760 1_545
Mn0 O2 1.926760 1_554
Mn0 O6 1.970195 1_545
Mn0 O1 1.970195 1_554
Mn1 O0 1.926759 1_555
Mn1 O7 1.926759 1_545
Mn1 O5 1.926768 1_545
Mn1 O2 1.926768 1_555
Mn1 O6 1.970195 1_545
Mn1 O1 1.970195 1_555
Mn2 O7 1.926760 1_555
Mn2 O0 1.926760 1_455
Mn2 O4 1.926760 1_555
Mn2 O3 1.926760 1_455
Mn2 O6 1.970194 1_555
Mn2 O1 1.970194 1_455
Ni0 O5 2.061934 1_555
Ni0 O2 2.061934 1_555
Ni0 O7 2.061943 1_555
Ni0 O0 2.061943 1_555
Ni0 O4 2.061943 1_555
Ni0 O3 2.061943 1_555
