# generated using pymatgen
data_Tm2SeO2
_symmetry_space_group_name_H-M   'P 1'
_cell_length_a   3.75543439
_cell_length_b   3.75542872
_cell_length_c   6.69870231
_cell_angle_alpha   89.99989047
_cell_angle_beta   90.00001549
_cell_angle_gamma   119.99979988
_symmetry_Int_Tables_number   1
_chemical_formula_structural   Tm2SeO2
_chemical_formula_sum   'Tm2 Se1 O2'
_cell_volume   81.81668674
_cell_formula_units_Z   1
loop_
 _symmetry_equiv_pos_site_id
 _symmetry_equiv_pos_as_xyz
  1  'x, y, z'
loop_
 _atom_site_type_symbol
 _atom_site_label
 _atom_site_symmetry_multiplicity
 _atom_site_fract_x
 _atom_site_fract_y
 _atom_site_fract_z
 _atom_site_occupancy
  Tm  Tm0  1  0.33332394  0.66667029  0.29240100  1
  Tm  Tm1  1  0.66665765  0.33332971  0.70759800  1
  Se  Se0  1  0.99982019  -0.00000000  0.00000000  1
  O  O0  1  0.33333016  0.66666511  0.62522644  1
  O  O1  1  0.66666706  0.33333489  0.37477356  1
loop_
_geom_bond_atom_site_label_1
_geom_bond_atom_site_label_2
_geom_bond_distance
_geom_bond_site_symmetry_2
Se0 Tm1 2.921501 1_554
Se0 Tm0 2.921513 1_545
Se0 Tm0 2.921935 1_655
Se0 Tm1 2.921939 1_544
Se0 Tm0 2.922320 1_645
Se0 Tm1 2.922341 1_654
O0 Tm0 2.229499 1_555
O0 Tm1 2.237295 1_555
O0 Tm1 2.237306 1_565
O0 Tm1 2.237333 1_455
O1 Tm1 2.229492 1_555
O1 Tm0 2.237285 1_655
O1 Tm0 2.237308 1_545
O1 Tm0 2.237345 1_555
