# generated using pymatgen
data_LiCrPO4
_symmetry_space_group_name_H-M   'P 1'
_cell_length_a   9.22541700
_cell_length_b   6.48144700
_cell_length_c   5.08678900
_cell_angle_alpha   89.99900936
_cell_angle_beta   89.99981674
_cell_angle_gamma   90.00142405
_symmetry_Int_Tables_number   1
_chemical_formula_structural   LiCrPO4
_chemical_formula_sum   'Li4 Cr4 P4 O16'
_cell_volume   304.15972254
_cell_formula_units_Z   4
loop_
 _symmetry_equiv_pos_site_id
 _symmetry_equiv_pos_as_xyz
  1  'x, y, z'
loop_
 _atom_site_type_symbol
 _atom_site_label
 _atom_site_symmetry_multiplicity
 _atom_site_fract_x
 _atom_site_fract_y
 _atom_site_fract_z
 _atom_site_occupancy
  Li  Li0  1  0.16574000  0.74997300  0.45680600  1
  Li  Li1  1  0.33419400  0.25000700  0.95681900  1
  Li  Li2  1  0.66578200  0.74999900  0.04309000  1
  Li  Li3  1  0.83418900  0.24998300  0.54310500  1
  Cr  Cr0  1  0.99986000  0.99967600  0.00027200  1
  Cr  Cr1  1  0.00016000  0.49967700  0.99958700  1
  Cr  Cr2  1  0.49998800  0.00023000  0.50017000  1
  Cr  Cr3  1  0.50003000  0.50011400  0.50005500  1
  P  P0  1  0.18335100  0.24994400  0.46063800  1
  P  P1  1  0.31665300  0.75007800  0.96070400  1
  P  P2  1  0.68332400  0.25007000  0.03937400  1
  P  P3  1  0.81668900  0.74995100  0.53933400  1
  O  O0  1  0.14810700  0.25003800  0.75689400  1
  O  O1  1  0.12280100  0.05271800  0.32912600  1
  O  O2  1  0.12272100  0.44708100  0.32904100  1
  O  O3  1  0.14586500  0.74994400  0.90822100  1
  O  O4  1  0.35416200  0.25009200  0.40841600  1
  O  O5  1  0.37721400  0.94729200  0.82917100  1
  O  O6  1  0.37735700  0.55291400  0.82928600  1
  O  O7  1  0.35177600  0.75007200  0.25699000  1
  O  O8  1  0.64816900  0.25007000  0.74308300  1
  O  O9  1  0.62264800  0.05289200  0.17080600  1
  O  O10  1  0.62280100  0.44728100  0.17093800  1
  O  O11  1  0.64589700  0.75009300  0.59173700  1
  O  O12  1  0.85412400  0.24994700  0.09166800  1
  O  O13  1  0.87726300  0.55272600  0.67079100  1
  O  O14  1  0.87735100  0.94710100  0.67083600  1
  O  O15  1  0.85178300  0.75003700  0.24304200  1
loop_
_geom_bond_atom_site_label_1
_geom_bond_atom_site_label_2
_geom_bond_distance
_geom_bond_site_symmetry_2
Li0 O7 1.994655 1_555
Li0 O1 2.104536 1_565
Li0 O2 2.105699 1_555
Li0 O3 2.303561 1_555
Li1 O0 1.995348 1_555
Li1 O5 2.104465 1_545
Li1 O6 2.105655 1_555
Li1 O4 2.304554 1_556
Li2 O15 1.994736 1_555
Li2 O10 2.104690 1_555
Li2 O9 2.105846 1_565
Li2 O11 2.303255 1_554
Li3 O8 1.994948 1_555
Li3 O13 2.104770 1_555
Li3 O14 2.105832 1_545
Li3 O12 2.303717 1_555
Cr0 O14 2.049801 1_554
Cr0 O1 2.050090 1_665
Cr0 O3 2.157226 1_654
Cr0 O12 2.157581 1_565
Cr0 O15 2.451323 1_555
Cr0 O0 2.456849 1_664
Cr1 O13 2.049632 1_455
Cr1 O2 2.050163 1_556
Cr1 O3 2.157288 1_555
Cr1 O12 2.157365 1_456
Cr1 O0 2.450531 1_555
Cr1 O15 2.457779 1_456
Cr2 O5 2.049720 1_545
Cr2 O9 2.050349 1_555
Cr2 O4 2.156490 1_555
Cr2 O11 2.158101 1_545
Cr2 O8 2.453117 1_555
Cr2 O7 2.455321 1_545
Cr3 O6 2.050030 1_555
Cr3 O10 2.050092 1_555
Cr3 O11 2.157178 1_555
Cr3 O4 2.157346 1_555
Cr3 O8 2.454085 1_555
Cr3 O7 2.454403 1_555
O0 P0 1.541667 1_555
O1 P0 1.547137 1_555
O2 P0 1.547117 1_555
O3 P1 1.598049 1_555
O4 P0 1.598036 1_555
O5 P1 1.547134 1_555
O6 P1 1.547133 1_555
O7 P1 1.541583 1_554
O8 P2 1.541670 1_556
O9 P2 1.547103 1_555
O10 P2 1.547102 1_555
O11 P3 1.598016 1_555
O12 P2 1.597998 1_555
O13 P3 1.547094 1_555
O14 P3 1.547081 1_555
O15 P3 1.541555 1_555
