# generated using pymatgen
data_Li3CuF6
_symmetry_space_group_name_H-M   'P 1'
_cell_length_a   5.19393500
_cell_length_b   9.17056200
_cell_length_c   17.29713800
_cell_angle_alpha   90.00000000
_cell_angle_beta   90.00000000
_cell_angle_gamma   90.00000000
_symmetry_Int_Tables_number   1
_chemical_formula_structural   Li3CuF6
_chemical_formula_sum   'Li24 Cu8 F48'
_cell_volume   823.88522010
_cell_formula_units_Z   8
loop_
 _symmetry_equiv_pos_site_id
 _symmetry_equiv_pos_as_xyz
  1  'x, y, z'
loop_
 _atom_site_type_symbol
 _atom_site_label
 _atom_site_symmetry_multiplicity
 _atom_site_fract_x
 _atom_site_fract_y
 _atom_site_fract_z
 _atom_site_occupancy
  Li  Li0  1  0.19774000  0.74812100  0.17005000  1
  Li  Li1  1  0.19774000  0.74812100  0.32995000  1
  Li  Li2  1  0.19774000  0.75187900  0.67005000  1
  Li  Li3  1  0.19774000  0.75187900  0.82995000  1
  Li  Li4  1  0.21290600  0.44338500  0.07296500  1
  Li  Li5  1  0.21290600  0.05661500  0.92703500  1
  Li  Li6  1  0.21290600  0.44338500  0.42703500  1
  Li  Li7  1  0.21290600  0.05661500  0.57296500  1
  Li  Li8  1  0.29254700  0.07688000  0.37106600  1
  Li  Li9  1  0.29254700  0.07688000  0.12893400  1
  Li  Li10  1  0.29254700  0.42312000  0.62893400  1
  Li  Li11  1  0.29254700  0.42312000  0.87106600  1
  Li  Li12  1  0.70745300  0.57688000  0.12893400  1
  Li  Li13  1  0.70745300  0.57688000  0.37106600  1
  Li  Li14  1  0.70745300  0.92312000  0.87106600  1
  Li  Li15  1  0.70745300  0.92312000  0.62893400  1
  Li  Li16  1  0.78709400  0.55661500  0.92703500  1
  Li  Li17  1  0.78709400  0.55661500  0.57296500  1
  Li  Li18  1  0.78709400  0.94338500  0.07296500  1
  Li  Li19  1  0.78709400  0.94338500  0.42703500  1
  Li  Li20  1  0.80226000  0.24812100  0.17005000  1
  Li  Li21  1  0.80226000  0.24812100  0.32995000  1
  Li  Li22  1  0.80226000  0.25187900  0.82995000  1
  Li  Li23  1  0.80226000  0.25187900  0.67005000  1
  Cu  Cu0  1  0.19372200  0.75000000  0.00000000  1
  Cu  Cu1  1  0.19372200  0.75000000  0.50000000  1
  Cu  Cu2  1  0.26110000  0.44516400  0.25000000  1
  Cu  Cu3  1  0.26110000  0.05483600  0.75000000  1
  Cu  Cu4  1  0.73890000  0.94516400  0.25000000  1
  Cu  Cu5  1  0.73890000  0.55483600  0.75000000  1
  Cu  Cu6  1  0.80627800  0.25000000  0.00000000  1
  Cu  Cu7  1  0.80627800  0.25000000  0.50000000  1
  F  F0  1  0.02982600  0.49745000  0.16787200  1
  F  F1  1  0.02982600  0.49745000  0.33212800  1
  F  F2  1  0.02982600  0.00255000  0.66787200  1
  F  F3  1  0.02982600  0.00255000  0.83212800  1
  F  F4  1  0.07308500  0.23836300  0.07768900  1
  F  F5  1  0.07308500  0.23836300  0.42231100  1
  F  F6  1  0.07308500  0.26163700  0.57768900  1
  F  F7  1  0.07308500  0.26163700  0.92231100  1
  F  F8  1  0.08937300  0.26000100  0.25000000  1
  F  F9  1  0.08937300  0.23999900  0.75000000  1
  F  F10  1  0.21510800  0.95203500  0.03059400  1
  F  F11  1  0.21510800  0.54796500  0.53059400  1
  F  F12  1  0.21510800  0.95203500  0.46940600  1
  F  F13  1  0.21510800  0.54796500  0.96940600  1
  F  F14  1  0.39135400  0.64001800  0.25000000  1
  F  F15  1  0.39135400  0.85998200  0.75000000  1
  F  F16  1  0.40842800  0.67662500  0.08210800  1
  F  F17  1  0.40842800  0.67662500  0.41789200  1
  F  F18  1  0.40842800  0.82337500  0.58210800  1
  F  F19  1  0.40842800  0.82337500  0.91789200  1
  F  F20  1  0.49732400  0.90516500  0.16869700  1
  F  F21  1  0.49732400  0.90516500  0.33130300  1
  F  F22  1  0.49732400  0.59483500  0.83130300  1
  F  F23  1  0.49732400  0.59483500  0.66869700  1
  F  F24  1  0.50267600  0.09483500  0.83130300  1
  F  F25  1  0.50267600  0.40516500  0.16869700  1
  F  F26  1  0.50267600  0.09483500  0.66869700  1
  F  F27  1  0.50267600  0.40516500  0.33130300  1
  F  F28  1  0.59157200  0.17662500  0.08210800  1
  F  F29  1  0.59157200  0.17662500  0.41789200  1
  F  F30  1  0.59157200  0.32337500  0.58210800  1
  F  F31  1  0.59157200  0.32337500  0.91789200  1
  F  F32  1  0.60864600  0.35998200  0.75000000  1
  F  F33  1  0.60864600  0.14001800  0.25000000  1
  F  F34  1  0.78489200  0.45203500  0.03059400  1
  F  F35  1  0.78489200  0.04796500  0.53059400  1
  F  F36  1  0.78489200  0.04796500  0.96940600  1
  F  F37  1  0.78489200  0.45203500  0.46940600  1
  F  F38  1  0.91062700  0.76000100  0.25000000  1
  F  F39  1  0.91062700  0.73999900  0.75000000  1
  F  F40  1  0.92691500  0.73836300  0.07768900  1
  F  F41  1  0.92691500  0.76163700  0.92231100  1
  F  F42  1  0.92691500  0.73836300  0.42231100  1
  F  F43  1  0.92691500  0.76163700  0.57768900  1
  F  F44  1  0.97017400  0.50255000  0.66787200  1
  F  F45  1  0.97017400  0.50255000  0.83212800  1
  F  F46  1  0.97017400  0.99745000  0.16787200  1
  F  F47  1  0.97017400  0.99745000  0.33212800  1
loop_
_geom_bond_atom_site_label_1
_geom_bond_atom_site_label_2
_geom_bond_distance
_geom_bond_site_symmetry_2
Cu0 F16 1.927030 1_555
Cu0 F19 1.927030 1_554
Cu0 F10 1.930065 1_555
Cu0 F13 1.930065 1_554
Cu0 F40 1.933277 1_455
Cu0 F41 1.933277 1_454
Cu1 F18 1.927030 1_555
Cu1 F17 1.927030 1_555
Cu1 F12 1.930065 1_555
Cu1 F11 1.930065 1_555
Cu1 F43 1.933277 1_455
Cu1 F42 1.933277 1_455
Cu2 F14 1.910701 1_555
Cu2 F8 1.918052 1_555
Cu2 F27 1.920053 1_555
Cu2 F25 1.920053 1_555
Cu2 F1 1.921170 1_555
Cu2 F0 1.921170 1_555
Cu3 F15 1.910701 1_545
Cu3 F9 1.918052 1_555
Cu3 F26 1.920053 1_555
Cu3 F24 1.920053 1_555
Cu3 F2 1.921170 1_555
Cu3 F3 1.921170 1_555
Cu4 F33 1.910701 1_565
Cu4 F38 1.918052 1_555
Cu4 F21 1.920053 1_555
Cu4 F20 1.920053 1_555
Cu4 F47 1.921170 1_555
Cu4 F46 1.921170 1_555
Cu5 F32 1.910701 1_555
Cu5 F39 1.918052 1_555
Cu5 F23 1.920053 1_555
Cu5 F22 1.920053 1_555
Cu5 F44 1.921170 1_555
Cu5 F45 1.921170 1_555
Cu6 F28 1.927030 1_555
Cu6 F31 1.927030 1_554
Cu6 F34 1.930065 1_555
Cu6 F36 1.930065 1_554
Cu6 F4 1.933277 1_655
Cu6 F7 1.933277 1_654
Cu7 F30 1.927030 1_555
Cu7 F29 1.927030 1_555
Cu7 F37 1.930065 1_555
Cu7 F35 1.930065 1_555
Cu7 F6 1.933277 1_655
Cu7 F5 1.933277 1_655
F0 Li12 1.946222 1_455
F0 Li4 1.960857 1_555
F1 Li13 1.946222 1_455
F1 Li6 1.960857 1_555
F2 Li15 1.946222 1_445
F2 Li7 1.960857 1_555
F3 Li14 1.946222 1_445
F3 Li5 1.960857 1_555
F4 Li4 2.017201 1_555
F4 Li9 2.068340 1_555
F4 Li20 2.130476 1_455
F5 Li6 2.017201 1_555
F5 Li8 2.068340 1_555
F5 Li21 2.130476 1_455
F6 Li7 2.017201 1_555
F6 Li10 2.068340 1_555
F6 Li23 2.130476 1_455
F7 Li5 2.017201 1_555
F7 Li11 2.068340 1_555
F7 Li22 2.130476 1_455
F8 Li20 2.036692 1_455
F8 Li21 2.036692 1_455
F9 Li23 2.036692 1_455
F9 Li22 2.036692 1_455
F10 Li5 2.031892 1_564
F10 Li9 2.089491 1_565
F10 Li18 2.342115 1_455
F11 Li6 2.031892 1_555
F11 Li10 2.089491 1_555
F11 Li17 2.342115 1_455
F12 Li7 2.031892 1_565
F12 Li8 2.089491 1_565
F12 Li19 2.342115 1_455
F13 Li4 2.031892 1_556
F13 Li11 2.089491 1_555
F13 Li16 2.342115 1_455
F14 Li0 1.976488 1_555
F14 Li1 1.976488 1_555
F15 Li2 1.976488 1_555
F15 Li3 1.976488 1_555
F16 Li12 1.976084 1_555
F16 Li0 1.985261 1_555
F16 Li4 2.373053 1_555
F17 Li13 1.976084 1_555
F17 Li1 1.985261 1_555
F17 Li6 2.373053 1_555
F18 Li15 1.976084 1_555
F18 Li2 1.985261 1_555
F18 Li7 2.373053 1_565
F19 Li14 1.976084 1_555
F19 Li3 1.985261 1_555
F19 Li5 2.373053 1_565
F20 Li9 2.020902 1_565
F20 Li0 2.120346 1_555
F20 Li18 2.264947 1_555
F21 Li8 2.020902 1_565
F21 Li1 2.120346 1_555
F21 Li19 2.264947 1_555
F22 Li11 2.020902 1_555
F22 Li3 2.120346 1_555
F22 Li16 2.264947 1_555
F23 Li10 2.020902 1_555
F23 Li2 2.120346 1_555
F23 Li17 2.264947 1_555
F24 Li14 2.020902 1_545
F24 Li22 2.120346 1_555
F24 Li5 2.264947 1_555
F25 Li12 2.020902 1_555
F25 Li20 2.120346 1_555
F25 Li4 2.264947 1_555
F26 Li15 2.020902 1_545
F26 Li23 2.120346 1_555
F26 Li7 2.264947 1_555
F27 Li13 2.020902 1_555
F27 Li21 2.120346 1_555
F27 Li6 2.264947 1_555
F28 Li9 1.976084 1_555
F28 Li20 1.985261 1_555
F28 Li18 2.373053 1_545
F29 Li8 1.976084 1_555
F29 Li21 1.985261 1_555
F29 Li19 2.373053 1_545
F30 Li10 1.976084 1_555
F30 Li23 1.985261 1_555
F30 Li17 2.373053 1_555
F31 Li11 1.976084 1_555
F31 Li22 1.985261 1_555
F31 Li16 2.373053 1_555
F32 Li23 1.976488 1_555
F32 Li22 1.976488 1_555
F33 Li20 1.976488 1_555
F33 Li21 1.976488 1_555
F34 Li16 2.031892 1_554
F34 Li12 2.089491 1_555
F34 Li4 2.342115 1_655
F35 Li19 2.031892 1_545
F35 Li15 2.089491 1_545
F35 Li7 2.342115 1_655
F36 Li18 2.031892 1_546
F36 Li14 2.089491 1_545
F36 Li5 2.342115 1_655
F37 Li17 2.031892 1_555
F37 Li13 2.089491 1_555
F37 Li6 2.342115 1_655
F38 Li0 2.036692 1_655
F38 Li1 2.036692 1_655
F39 Li2 2.036692 1_655
F39 Li3 2.036692 1_655
F40 Li18 2.017201 1_555
F40 Li12 2.068340 1_555
F40 Li0 2.130476 1_655
F41 Li16 2.017201 1_555
F41 Li14 2.068340 1_555
F41 Li3 2.130476 1_655
F42 Li19 2.017201 1_555
F42 Li13 2.068340 1_555
F42 Li1 2.130476 1_655
F43 Li17 2.017201 1_555
F43 Li15 2.068340 1_555
F43 Li2 2.130476 1_655
F44 Li10 1.946222 1_655
F44 Li17 1.960857 1_555
F45 Li11 1.946222 1_655
F45 Li16 1.960857 1_555
F46 Li9 1.946222 1_665
F46 Li18 1.960857 1_555
F47 Li8 1.946222 1_665
F47 Li19 1.960857 1_555
