# generated using pymatgen
data_Mn3(P2O7)2
_symmetry_space_group_name_H-M   'P 1'
_cell_length_a   8.91396000
_cell_length_b   10.59680300
_cell_length_c   12.46576400
_cell_angle_alpha   90.00000000
_cell_angle_beta   90.00000000
_cell_angle_gamma   90.00000000
_symmetry_Int_Tables_number   1
_chemical_formula_structural   Mn3(P2O7)2
_chemical_formula_sum   'Mn12 P16 O56'
_cell_volume   1177.50956118
_cell_formula_units_Z   4
loop_
 _symmetry_equiv_pos_site_id
 _symmetry_equiv_pos_as_xyz
  1  'x, y, z'
loop_
 _atom_site_type_symbol
 _atom_site_label
 _atom_site_symmetry_multiplicity
 _atom_site_fract_x
 _atom_site_fract_y
 _atom_site_fract_z
 _atom_site_occupancy
  Mn  Mn0  1  0.23177700  0.61862100  0.75000000  1
  Mn  Mn1  1  0.24686500  0.12216500  0.01092900  1
  Mn  Mn2  1  0.24686500  0.12216500  0.48907100  1
  Mn  Mn3  1  0.25313500  0.62216500  0.51092900  1
  Mn  Mn4  1  0.25313500  0.62216500  0.98907100  1
  Mn  Mn5  1  0.26822300  0.11862100  0.25000000  1
  Mn  Mn6  1  0.73177700  0.88137900  0.75000000  1
  Mn  Mn7  1  0.74686500  0.37783500  0.01092900  1
  Mn  Mn8  1  0.74686500  0.37783500  0.48907100  1
  Mn  Mn9  1  0.75313500  0.87783500  0.51092900  1
  Mn  Mn10  1  0.75313500  0.87783500  0.98907100  1
  Mn  Mn11  1  0.76822300  0.38137900  0.25000000  1
  P  P0  1  0.06609400  0.36543300  0.62759600  1
  P  P1  1  0.06609400  0.36543300  0.87240400  1
  P  P2  1  0.08207300  0.87934400  0.63095100  1
  P  P3  1  0.08207300  0.87934400  0.86904900  1
  P  P4  1  0.41792700  0.37934400  0.36904900  1
  P  P5  1  0.41792700  0.37934400  0.13095100  1
  P  P6  1  0.43390600  0.86543300  0.12759600  1
  P  P7  1  0.43390600  0.86543300  0.37240400  1
  P  P8  1  0.56609400  0.13456700  0.87240400  1
  P  P9  1  0.56609400  0.13456700  0.62759600  1
  P  P10  1  0.58207300  0.62065600  0.86904900  1
  P  P11  1  0.58207300  0.62065600  0.63095100  1
  P  P12  1  0.91792700  0.12065600  0.13095100  1
  P  P13  1  0.91792700  0.12065600  0.36904900  1
  P  P14  1  0.93390600  0.63456700  0.12759600  1
  P  P15  1  0.93390600  0.63456700  0.37240400  1
  O  O0  1  0.03688700  0.32114800  0.75000000  1
  O  O1  1  0.08914500  0.60178600  0.41792600  1
  O  O2  1  0.08914500  0.60178600  0.08207400  1
  O  O3  1  0.09259600  0.12788000  0.12675900  1
  O  O4  1  0.09259600  0.12788000  0.37324100  1
  O  O5  1  0.11633200  0.93324200  0.75000000  1
  O  O6  1  0.14669200  0.96821400  0.55102200  1
  O  O7  1  0.14669200  0.96821400  0.94897800  1
  O  O8  1  0.14503200  0.25787600  0.57304800  1
  O  O9  1  0.14503200  0.25787600  0.92695200  1
  O  O10  1  0.14819300  0.74576100  0.62749200  1
  O  O11  1  0.14819300  0.74576100  0.87250800  1
  O  O12  1  0.15733400  0.48837100  0.63236700  1
  O  O13  1  0.15733400  0.48837100  0.86763300  1
  O  O14  1  0.34266600  0.98837100  0.13236700  1
  O  O15  1  0.34266600  0.98837100  0.36763300  1
  O  O16  1  0.35180700  0.24576100  0.12749200  1
  O  O17  1  0.35180700  0.24576100  0.37250800  1
  O  O18  1  0.35496800  0.75787600  0.07304800  1
  O  O19  1  0.35496800  0.75787600  0.42695200  1
  O  O20  1  0.35330800  0.46821400  0.05102200  1
  O  O21  1  0.35330800  0.46821400  0.44897800  1
  O  O22  1  0.38366800  0.43324200  0.25000000  1
  O  O23  1  0.40740400  0.62788000  0.62675900  1
  O  O24  1  0.40740400  0.62788000  0.87324100  1
  O  O25  1  0.41085500  0.10178600  0.58207400  1
  O  O26  1  0.41085500  0.10178600  0.91792600  1
  O  O27  1  0.46311300  0.82114800  0.25000000  1
  O  O28  1  0.53688700  0.17885200  0.75000000  1
  O  O29  1  0.58914500  0.89821400  0.08207400  1
  O  O30  1  0.58914500  0.89821400  0.41792600  1
  O  O31  1  0.59259600  0.37212000  0.12675900  1
  O  O32  1  0.59259600  0.37212000  0.37324100  1
  O  O33  1  0.61633200  0.56675800  0.75000000  1
  O  O34  1  0.64669200  0.53178600  0.55102200  1
  O  O35  1  0.64669200  0.53178600  0.94897800  1
  O  O36  1  0.64503200  0.24212400  0.57304800  1
  O  O37  1  0.64503200  0.24212400  0.92695200  1
  O  O38  1  0.64819300  0.75423900  0.87250800  1
  O  O39  1  0.64819300  0.75423900  0.62749200  1
  O  O40  1  0.65733400  0.01162900  0.86763300  1
  O  O41  1  0.65733400  0.01162900  0.63236700  1
  O  O42  1  0.84266600  0.51162900  0.13236700  1
  O  O43  1  0.84266600  0.51162900  0.36763300  1
  O  O44  1  0.85180700  0.25423900  0.12749200  1
  O  O45  1  0.85180700  0.25423900  0.37250800  1
  O  O46  1  0.85496800  0.74212400  0.07304800  1
  O  O47  1  0.85496800  0.74212400  0.42695200  1
  O  O48  1  0.85330800  0.03178600  0.05102200  1
  O  O49  1  0.85330800  0.03178600  0.44897800  1
  O  O50  1  0.88366800  0.06675800  0.25000000  1
  O  O51  1  0.90740400  0.87212000  0.62675900  1
  O  O52  1  0.90740400  0.87212000  0.87324100  1
  O  O53  1  0.91085500  0.39821400  0.91792600  1
  O  O54  1  0.91085500  0.39821400  0.58207400  1
  O  O55  1  0.96311300  0.67885200  0.25000000  1
loop_
_geom_bond_atom_site_label_1
_geom_bond_atom_site_label_2
_geom_bond_distance
_geom_bond_site_symmetry_2
Mn0 O13 2.120300 1_555
Mn0 O12 2.120300 1_555
Mn0 O11 2.168521 1_555
Mn0 O10 2.168521 1_555
Mn0 O24 2.195612 1_555
Mn0 O23 2.195612 1_555
Mn1 O26 1.878190 1_554
Mn1 O3 1.994887 1_555
Mn1 O9 1.996996 1_554
Mn1 O7 2.013743 1_544
Mn1 O16 2.168359 1_555
Mn1 O14 2.242995 1_545
Mn2 O25 1.878190 1_555
Mn2 O4 1.994887 1_555
Mn2 O8 1.996996 1_555
Mn2 O6 2.013743 1_545
Mn2 O17 2.168359 1_555
Mn2 O15 2.242995 1_545
Mn3 O1 1.878190 1_555
Mn3 O23 1.994887 1_555
Mn3 O19 1.996996 1_555
Mn3 O21 2.013743 1_555
Mn3 O10 2.168359 1_555
Mn3 O12 2.242995 1_555
Mn4 O2 1.878190 1_556
Mn4 O24 1.994887 1_555
Mn4 O18 1.996996 1_556
Mn4 O20 2.013743 1_556
Mn4 O11 2.168359 1_555
Mn4 O13 2.242995 1_555
Mn5 O15 2.120300 1_545
Mn5 O14 2.120300 1_545
Mn5 O17 2.168521 1_555
Mn5 O16 2.168521 1_555
Mn5 O4 2.195612 1_555
Mn5 O3 2.195612 1_555
Mn6 O41 2.120300 1_565
Mn6 O40 2.120300 1_565
Mn6 O38 2.168521 1_555
Mn6 O39 2.168521 1_555
Mn6 O52 2.195612 1_555
Mn6 O51 2.195612 1_555
Mn7 O53 1.878190 1_554
Mn7 O31 1.994887 1_555
Mn7 O37 1.996996 1_554
Mn7 O35 2.013743 1_554
Mn7 O44 2.168359 1_555
Mn7 O42 2.242995 1_555
Mn8 O54 1.878190 1_555
Mn8 O32 1.994887 1_555
Mn8 O36 1.996996 1_555
Mn8 O34 2.013743 1_555
Mn8 O45 2.168359 1_555
Mn8 O43 2.242995 1_555
Mn9 O30 1.878190 1_555
Mn9 O51 1.994887 1_555
Mn9 O47 1.996996 1_555
Mn9 O49 2.013743 1_565
Mn9 O39 2.168359 1_555
Mn9 O41 2.242995 1_565
Mn10 O29 1.878190 1_556
Mn10 O52 1.994887 1_555
Mn10 O46 1.996996 1_556
Mn10 O48 2.013743 1_566
Mn10 O38 2.168359 1_555
Mn10 O40 2.242995 1_565
Mn11 O43 2.120300 1_555
Mn11 O42 2.120300 1_555
Mn11 O45 2.168521 1_555
Mn11 O44 2.168521 1_555
Mn11 O32 2.195612 1_555
Mn11 O31 2.195612 1_555
O0 P1 1.617483 1_555
O0 P0 1.617483 1_555
O1 P15 1.535439 1_455
O2 P14 1.535439 1_455
O3 P12 1.559749 1_455
O4 P13 1.559749 1_455
O5 P3 1.619207 1_555
O5 P2 1.619207 1_555
O6 P2 1.487086 1_555
O7 P3 1.487086 1_555
O8 P0 1.502183 1_555
O9 P1 1.502183 1_555
O10 P2 1.533959 1_555
O11 P3 1.533959 1_555
O12 P0 1.536934 1_555
O13 P1 1.536934 1_555
O14 P6 1.536934 1_555
O15 P7 1.536934 1_555
O16 P5 1.533959 1_555
O17 P4 1.533959 1_555
O18 P6 1.502183 1_555
O19 P7 1.502183 1_555
O20 P5 1.487086 1_555
O21 P4 1.487086 1_555
O22 P4 1.619207 1_555
O22 P5 1.619207 1_555
O23 P11 1.559749 1_555
O24 P10 1.559749 1_555
O25 P9 1.535439 1_555
O26 P8 1.535439 1_555
O27 P7 1.617483 1_555
O27 P6 1.617483 1_555
O28 P8 1.617483 1_555
O28 P9 1.617483 1_555
O29 P6 1.535439 1_555
O30 P7 1.535439 1_555
O31 P5 1.559749 1_555
O32 P4 1.559749 1_555
O33 P10 1.619207 1_555
O33 P11 1.619207 1_555
O34 P11 1.487086 1_555
O35 P10 1.487086 1_555
O36 P9 1.502183 1_555
O37 P8 1.502183 1_555
O38 P10 1.533959 1_555
O39 P11 1.533959 1_555
O40 P8 1.536934 1_555
O41 P9 1.536934 1_555
O42 P14 1.536934 1_555
O43 P15 1.536934 1_555
O44 P12 1.533959 1_555
O45 P13 1.533959 1_555
O46 P14 1.502183 1_555
O47 P15 1.502183 1_555
O48 P12 1.487086 1_555
O49 P13 1.487086 1_555
O50 P13 1.619207 1_555
O50 P12 1.619207 1_555
O51 P2 1.559749 1_655
O52 P3 1.559749 1_655
O53 P1 1.535439 1_655
O54 P0 1.535439 1_655
O55 P15 1.617483 1_555
O55 P14 1.617483 1_555
