# generated using pymatgen
data_Li3Fe8(BO3)8
_symmetry_space_group_name_H-M   'P 1'
_cell_length_a   5.23494100
_cell_length_b   9.12902538
_cell_length_c   11.36948478
_cell_angle_alpha   113.25819660
_cell_angle_beta   103.25672868
_cell_angle_gamma   89.40916493
_symmetry_Int_Tables_number   1
_chemical_formula_structural   Li3Fe8(BO3)8
_chemical_formula_sum   'Li3 Fe8 B8 O24'
_cell_volume   483.92925069
_cell_formula_units_Z   1
loop_
 _symmetry_equiv_pos_site_id
 _symmetry_equiv_pos_as_xyz
  1  'x, y, z'
loop_
 _atom_site_type_symbol
 _atom_site_label
 _atom_site_symmetry_multiplicity
 _atom_site_fract_x
 _atom_site_fract_y
 _atom_site_fract_z
 _atom_site_occupancy
  Li  Li0  1  0.28176500  0.27614100  0.89888900  1
  Li  Li1  1  0.26627500  0.25211400  0.16205700  1
  Li  Li2  1  0.97035600  0.98488200  0.63144600  1
  Fe  Fe0  1  0.01388100  0.34859300  0.38085600  1
  Fe  Fe1  1  0.25691800  0.92821300  0.87636500  1
  Fe  Fe2  1  0.46662800  0.16429300  0.62765400  1
  Fe  Fe3  1  0.25292000  0.57292500  0.13246300  1
  Fe  Fe4  1  0.77241300  0.44450400  0.88085300  1
  Fe  Fe5  1  0.51919500  0.85453500  0.37785000  1
  Fe  Fe6  1  0.98292000  0.64364600  0.63189600  1
  Fe  Fe7  1  0.73433000  0.05477500  0.12094500  1
  B  B0  1  0.03199800  0.69197900  0.38770200  1
  B  B1  1  0.27345200  0.59648600  0.87362000  1
  B  B2  1  0.48284700  0.81712000  0.62727400  1
  B  B3  1  0.23704100  0.90441000  0.13412400  1
  B  B4  1  0.51793400  0.17962400  0.36894700  1
  B  B5  1  0.76824200  0.11475200  0.88033100  1
  B  B6  1  0.96374100  0.31449700  0.63373800  1
  B  B7  1  0.73426000  0.38412400  0.11942000  1
  O  O0  1  0.02170800  0.10170900  0.86607600  1
  O  O1  1  0.12232400  0.69510000  0.82445300  1
  O  O2  1  0.15424300  0.49675300  0.91762000  1
  O  O3  1  0.09889900  0.18852000  0.63944500  1
  O  O4  1  0.04296500  0.41154500  0.57485100  1
  O  O5  1  0.23616700  0.82922900  0.66070300  1
  O  O6  1  0.25701400  0.68154800  0.34135400  1
  O  O7  1  0.53563000  0.59665200  0.88161900  1
  O  O8  1  0.61392900  0.22549700  0.84507400  1
  O  O9  1  0.46068400  0.07939000  0.42479800  1
  O  O10  1  0.34901000  0.28905600  0.35139900  1
  O  O11  1  0.65207400  0.02262000  0.93047600  1
  O  O12  1  0.35155500  0.00732200  0.09018100  1
  O  O13  1  0.63925400  0.69987400  0.63628400  1
  O  O14  1  0.56626200  0.93045600  0.58611500  1
  O  O15  1  0.39376300  0.80554600  0.18030500  1
  O  O16  1  0.46790200  0.37983500  0.10958900  1
  O  O17  1  0.74502100  0.35243300  0.68463400  1
  O  O18  1  0.75055400  0.16793200  0.32539500  1
  O  O19  1  0.96494200  0.57300800  0.42853400  1
  O  O20  1  0.87779500  0.81618500  0.39922500  1
  O  O21  1  0.86261600  0.47748400  0.07670100  1
  O  O22  1  0.89051000  0.28375600  0.17134700  1
  O  O23  1  0.97450300  0.90612400  0.12878900  1
loop_
_geom_bond_atom_site_label_1
_geom_bond_atom_site_label_2
_geom_bond_distance
_geom_bond_site_symmetry_2
Li0 O8 1.964612 1_555
Li0 O0 1.967453 1_555
Li0 O2 2.060543 1_555
Li0 O16 2.177568 1_556
Li1 O16 1.921688 1_555
Li1 O10 1.984332 1_555
Li1 O22 2.005887 1_455
Li1 O12 2.136716 1_555
Li2 O3 1.944541 1_665
Li2 O5 2.046041 1_655
Li2 O14 2.075298 1_555
Li2 O0 2.399179 1_665
Li2 O20 2.407243 1_555
Fe0 O10 1.895119 1_555
Fe0 O19 1.931949 1_455
Fe0 O18 1.960830 1_455
Fe0 O4 2.016176 1_555
Fe0 O22 2.151808 1_455
Fe1 O0 2.019513 1_565
Fe1 O1 2.054711 1_555
Fe1 O11 2.105897 1_565
Fe1 O12 2.178341 1_566
Fe1 O5 2.229467 1_555
Fe2 O3 1.964389 1_555
Fe2 O17 2.057528 1_555
Fe2 O14 2.084672 1_545
Fe2 O9 2.115859 1_555
Fe2 O8 2.249721 1_555
Fe3 O16 2.042712 1_555
Fe3 O15 2.070094 1_555
Fe3 O21 2.083792 1_455
Fe3 O6 2.177494 1_555
Fe3 O2 2.191853 1_554
Fe4 O7 1.850853 1_555
Fe4 O2 1.968925 1_655
Fe4 O17 2.019624 1_555
Fe4 O8 2.021931 1_555
Fe4 O21 2.064711 1_556
Fe5 O20 1.884171 1_555
Fe5 O9 1.946546 1_565
Fe5 O6 1.953413 1_555
Fe5 O15 2.052323 1_555
Fe5 O14 2.141898 1_555
Fe6 O13 1.872037 1_555
Fe6 O4 2.000866 1_655
Fe6 O1 2.002078 1_655
Fe6 O5 2.035703 1_655
Fe6 O19 2.120035 1_555
Fe7 O23 1.854523 1_545
Fe7 O12 1.975356 1_555
Fe7 O11 2.008492 1_554
Fe7 O22 2.059332 1_555
Fe7 O18 2.119547 1_555
B0 O20 1.366308 1_455
B0 O6 1.384573 1_555
B0 O19 1.413906 1_455
B1 O7 1.354504 1_555
B1 O1 1.388799 1_555
B1 O2 1.408278 1_555
B2 O13 1.362563 1_555
B2 O14 1.401988 1_555
B2 O5 1.418889 1_555
B3 O23 1.361944 1_455
B3 O15 1.387358 1_555
B3 O12 1.418196 1_565
B4 O10 1.370435 1_555
B4 O9 1.371917 1_555
B4 O18 1.404146 1_555
B5 O0 1.371563 1_655
B5 O11 1.396614 1_555
B5 O8 1.410696 1_555
B6 O3 1.359608 1_655
B6 O17 1.379566 1_555
B6 O4 1.417230 1_655
B7 O16 1.372764 1_555
B7 O21 1.379199 1_555
B7 O22 1.430883 1_555
