# generated using pymatgen
data_Li5Mn2P2(CO7)2
_symmetry_space_group_name_H-M   'P 1'
_cell_length_a   6.44234900
_cell_length_b   8.51357500
_cell_length_c   10.09104096
_cell_angle_alpha   86.09875414
_cell_angle_beta   90.00000000
_cell_angle_gamma   90.00000000
_symmetry_Int_Tables_number   1
_chemical_formula_structural   Li5Mn2P2(CO7)2
_chemical_formula_sum   'Li10 Mn4 P4 C4 O28'
_cell_volume   552.18508071
_cell_formula_units_Z   2
loop_
 _symmetry_equiv_pos_site_id
 _symmetry_equiv_pos_as_xyz
  1  'x, y, z'
loop_
 _atom_site_type_symbol
 _atom_site_label
 _atom_site_symmetry_multiplicity
 _atom_site_fract_x
 _atom_site_fract_y
 _atom_site_fract_z
 _atom_site_occupancy
  Li  Li0  1  0.75000000  0.90298500  0.61713600  1
  Li  Li1  1  0.97990200  0.75229400  0.88074200  1
  Li  Li2  1  0.52009800  0.75229400  0.88074200  1
  Li  Li3  1  0.97930600  0.73832300  0.36404200  1
  Li  Li4  1  0.52069400  0.73832300  0.36404200  1
  Li  Li5  1  0.47930600  0.26167700  0.63595800  1
  Li  Li6  1  0.02069400  0.26167700  0.63595800  1
  Li  Li7  1  0.47990200  0.24770600  0.11925800  1
  Li  Li8  1  0.02009800  0.24770600  0.11925800  1
  Li  Li9  1  0.25000000  0.09701500  0.38286400  1
  Mn  Mn0  1  0.25000000  0.66134500  0.60736600  1
  Mn  Mn1  1  0.25000000  0.65881000  0.10137700  1
  Mn  Mn2  1  0.75000000  0.34119000  0.89862300  1
  Mn  Mn3  1  0.75000000  0.33865500  0.39263400  1
  P  P0  1  0.75000000  0.58574600  0.63887700  1
  P  P1  1  0.75000000  0.58161100  0.13674800  1
  P  P2  1  0.25000000  0.41838900  0.86325200  1
  P  P3  1  0.25000000  0.41425400  0.36112300  1
  C  C0  1  0.25000000  0.96418700  0.63944800  1
  C  C1  1  0.25000000  0.95351700  0.14629300  1
  C  C2  1  0.75000000  0.04648300  0.85370700  1
  C  C3  1  0.75000000  0.03581300  0.36055200  1
  O  O0  1  0.25000000  0.92409000  0.51684600  1
  O  O1  1  0.75000000  0.90385100  0.81483600  1
  O  O2  1  0.25000000  0.91983000  0.02554500  1
  O  O3  1  0.25000000  0.84801000  0.73276900  1
  O  O4  1  0.75000000  0.89282900  0.33177600  1
  O  O5  1  0.25000000  0.83498800  0.24012000  1
  O  O6  1  0.93627600  0.68803600  0.58557100  1
  O  O7  1  0.56372400  0.68803600  0.58557100  1
  O  O8  1  0.94010800  0.67358000  0.07928700  1
  O  O9  1  0.55989200  0.67358000  0.07928700  1
  O  O10  1  0.25000000  0.59146400  0.90519000  1
  O  O11  1  0.75000000  0.57021600  0.79296600  1
  O  O12  1  0.25000000  0.58066100  0.41368900  1
  O  O13  1  0.75000000  0.57277700  0.29186200  1
  O  O14  1  0.25000000  0.42722300  0.70813800  1
  O  O15  1  0.75000000  0.41933900  0.58631100  1
  O  O16  1  0.25000000  0.42978400  0.20703400  1
  O  O17  1  0.75000000  0.40853600  0.09481000  1
  O  O18  1  0.05989200  0.32642000  0.92071300  1
  O  O19  1  0.44010800  0.32642000  0.92071300  1
  O  O20  1  0.43627600  0.31196400  0.41442900  1
  O  O21  1  0.06372400  0.31196400  0.41442900  1
  O  O22  1  0.75000000  0.16501200  0.75988000  1
  O  O23  1  0.25000000  0.10717100  0.66822400  1
  O  O24  1  0.75000000  0.15199000  0.26723100  1
  O  O25  1  0.75000000  0.08017000  0.97445500  1
  O  O26  1  0.25000000  0.09614900  0.18516400  1
  O  O27  1  0.75000000  0.07591000  0.48315400  1
loop_
_geom_bond_atom_site_label_1
_geom_bond_atom_site_label_2
_geom_bond_distance
_geom_bond_site_symmetry_2
Li0 O27 1.929898 1_565
Li0 O1 1.995514 1_555
Li0 O6 2.229293 1_555
Li0 O7 2.229293 1_555
Li1 O1 2.045501 1_555
Li1 O8 2.084760 1_556
Li1 O10 2.217553 1_655
Li1 O11 2.359659 1_555
Li1 O3 2.399155 1_655
Li2 O1 2.045501 1_555
Li2 O9 2.084760 1_556
Li2 O10 2.217553 1_555
Li2 O11 2.359659 1_555
Li2 O3 2.399155 1_555
Li3 O4 1.990058 1_555
Li3 O13 2.199753 1_555
Li3 O12 2.236599 1_655
Li3 O6 2.264328 1_555
Li3 O5 2.267641 1_655
Li4 O4 1.990058 1_555
Li4 O13 2.199753 1_555
Li4 O12 2.236599 1_555
Li4 O7 2.264328 1_555
Li4 O5 2.267641 1_555
Li5 O23 1.990058 1_555
Li5 O14 2.199753 1_555
Li5 O15 2.236599 1_555
Li5 O20 2.264328 1_555
Li5 O22 2.267641 1_555
Li6 O23 1.990058 1_555
Li6 O14 2.199753 1_555
Li6 O15 2.236599 1_455
Li6 O21 2.264328 1_555
Li6 O22 2.267641 1_455
Li7 O26 2.045501 1_555
Li7 O19 2.084760 1_554
Li7 O17 2.217553 1_555
Li7 O16 2.359659 1_555
Li7 O24 2.399155 1_555
Li8 O26 2.045501 1_555
Li8 O18 2.084760 1_554
Li8 O17 2.217553 1_455
Li8 O16 2.359659 1_555
Li8 O24 2.399155 1_455
Li9 O0 1.929898 1_545
Li9 O26 1.995514 1_555
Li9 O21 2.229293 1_555
Li9 O20 2.229293 1_555
Mn0 O7 2.044048 1_555
Mn0 O6 2.044048 1_455
Mn0 O3 2.097741 1_555
Mn0 O12 2.115233 1_555
Mn0 O14 2.175126 1_555
Mn0 O0 2.357977 1_555
Mn1 O9 2.011822 1_555
Mn1 O8 2.011822 1_455
Mn1 O10 2.098220 1_554
Mn1 O5 2.120291 1_555
Mn1 O16 2.157710 1_555
Mn1 O2 2.300523 1_555
Mn2 O18 2.011822 1_655
Mn2 O19 2.011822 1_555
Mn2 O17 2.098220 1_556
Mn2 O22 2.120291 1_555
Mn2 O11 2.157710 1_555
Mn2 O25 2.300523 1_555
Mn3 O20 2.044048 1_555
Mn3 O21 2.044048 1_655
Mn3 O24 2.097741 1_555
Mn3 O15 2.115233 1_555
Mn3 O13 2.175126 1_555
Mn3 O27 2.357977 1_555
C0 O23 1.270532 1_565
C0 O0 1.305611 1_555
C0 O3 1.318465 1_555
C1 O2 1.270622 1_555
C1 O26 1.301237 1_565
C1 O5 1.335941 1_555
C2 O25 1.270622 1_555
C2 O1 1.301237 1_545
C2 O22 1.335941 1_555
C3 O4 1.270532 1_545
C3 O27 1.305611 1_555
C3 O24 1.318465 1_555
O6 P0 1.556960 1_555
O7 P0 1.556960 1_555
O8 P1 1.545152 1_555
O9 P1 1.545152 1_555
O10 P2 1.560485 1_555
O11 P0 1.551540 1_555
O12 P3 1.546196 1_555
O13 P1 1.561948 1_555
O14 P2 1.561948 1_555
O15 P0 1.546196 1_555
O16 P3 1.551540 1_555
O17 P1 1.560485 1_555
O18 P2 1.545152 1_555
O19 P2 1.545152 1_555
O20 P3 1.556960 1_555
O21 P3 1.556960 1_555
