# generated using pymatgen
data_Li3Co3SbO8
_symmetry_space_group_name_H-M   'P 1'
_cell_length_a   6.06364489
_cell_length_b   6.00554740
_cell_length_c   8.62755382
_cell_angle_alpha   90.08461366
_cell_angle_beta   89.78543145
_cell_angle_gamma   90.20837925
_symmetry_Int_Tables_number   1
_chemical_formula_structural   Li3Co3SbO8
_chemical_formula_sum   'Li6 Co6 Sb2 O16'
_cell_volume   314.17212744
_cell_formula_units_Z   2
loop_
 _symmetry_equiv_pos_site_id
 _symmetry_equiv_pos_as_xyz
  1  'x, y, z'
loop_
 _atom_site_type_symbol
 _atom_site_label
 _atom_site_symmetry_multiplicity
 _atom_site_fract_x
 _atom_site_fract_y
 _atom_site_fract_z
 _atom_site_occupancy
  Li  Li0  1  0.50001100  0.99999200  0.99999900  1
  Li  Li1  1  0.99999000  0.50000400  0.50000300  1
  Li  Li2  1  0.75031100  0.24963600  0.75040100  1
  Li  Li3  1  0.24969000  0.75036600  0.24960100  1
  Li  Li4  1  0.25160100  0.24915000  0.24946000  1
  Li  Li5  1  0.74839600  0.75084800  0.75054300  1
  Co  Co0  1  0.99999900  0.49999900  0.00000000  1
  Co  Co1  1  0.49999900  0.00000300  0.50000300  1
  Co  Co2  1  0.75056100  0.25157600  0.25035400  1
  Co  Co3  1  0.24943200  0.74841800  0.74964300  1
  Co  Co4  1  0.25214500  0.24728500  0.74864000  1
  Co  Co5  1  0.74786300  0.75271100  0.25135800  1
  Sb  Sb0  1  0.00001600  0.99999500  0.99999600  1
  Sb  Sb1  1  0.49999100  0.50000500  0.49999800  1
  O  O0  1  0.53522300  0.00054100  0.25116200  1
  O  O1  1  0.03919100  0.49940100  0.75535200  1
  O  O2  1  0.46477900  0.99945900  0.74884200  1
  O  O3  1  0.96080300  0.50060100  0.24464800  1
  O  O4  1  0.50564100  0.49973600  0.26642800  1
  O  O5  1  0.00713200  0.99856700  0.76597500  1
  O  O6  1  0.99287300  0.00143300  0.23403100  1
  O  O7  1  0.49435300  0.50026400  0.73356400  1
  O  O8  1  0.26824700  0.26323000  0.50670600  1
  O  O9  1  0.77029000  0.76149200  0.00710500  1
  O  O10  1  0.22971900  0.23851300  0.99289800  1
  O  O11  1  0.73174300  0.73677300  0.49329000  1
  O  O12  1  0.76994700  0.23768500  0.00632900  1
  O  O13  1  0.26895500  0.73663100  0.50658800  1
  O  O14  1  0.73104000  0.26337600  0.49341100  1
  O  O15  1  0.23006300  0.76230800  0.99367400  1
loop_
_geom_bond_atom_site_label_1
_geom_bond_atom_site_label_2
_geom_bond_distance
_geom_bond_site_symmetry_2
Li0 O12 2.168690 1_566
Li0 O15 2.168708 1_555
Li0 O2 2.178169 1_555
Li0 O0 2.178208 1_566
Li0 O9 2.181584 1_556
Li0 O10 2.181725 1_565
Li1 O14 2.160062 1_555
Li1 O13 2.160125 1_655
Li1 O11 2.165337 1_555
Li1 O8 2.165400 1_655
Li1 O1 2.216718 1_655
Li1 O3 2.216760 1_555
Li2 O7 2.171348 1_555
Li2 O5 2.176206 1_645
Li2 O12 2.212970 1_556
Li2 O14 2.222379 1_555
Li2 O2 2.288308 1_545
Li2 O1 2.302465 1_655
Li3 O4 2.171320 1_555
Li3 O6 2.176178 1_465
Li3 O15 2.212956 1_554
Li3 O13 2.222350 1_555
Li3 O0 2.288305 1_565
Li3 O3 2.302497 1_455
Li4 O4 2.154810 1_555
Li4 O6 2.162440 1_455
Li4 O10 2.218783 1_554
Li4 O8 2.223545 1_555
Li4 O0 2.281655 1_555
Li4 O3 2.326251 1_455
Li5 O7 2.154821 1_555
Li5 O5 2.162485 1_655
Li5 O9 2.218789 1_556
Li5 O11 2.223606 1_555
Li5 O2 2.281640 1_555
Li5 O1 2.326221 1_655
Co0 O12 2.101016 1_555
Co0 O15 2.101041 1_654
Co0 O9 2.103574 1_555
Co0 O10 2.103587 1_654
Co0 O1 2.123165 1_654
Co0 O3 2.123167 1_555
Co1 O14 2.109791 1_555
Co1 O13 2.109797 1_545
Co1 O11 2.119508 1_545
Co1 O8 2.119524 1_555
Co1 O2 2.156678 1_545
Co1 O0 2.156697 1_555
Co2 O3 1.962171 1_555
Co2 O0 1.990853 1_555
Co2 O14 2.100988 1_555
Co2 O6 2.109332 1_555
Co2 O12 2.109722 1_555
Co2 O4 2.111830 1_555
Co3 O1 1.962131 1_555
Co3 O2 1.990916 1_555
Co3 O13 2.100969 1_555
Co3 O5 2.109311 1_555
Co3 O15 2.109768 1_555
Co3 O7 2.111812 1_555
Co4 O2 1.972690 1_545
Co4 O1 1.994150 1_555
Co4 O8 2.091534 1_555
Co4 O5 2.107972 1_545
Co4 O10 2.111946 1_555
Co4 O7 2.113059 1_555
Co5 O0 1.972731 1_565
Co5 O3 1.994067 1_555
Co5 O11 2.091519 1_555
Co5 O6 2.107971 1_565
Co5 O9 2.111905 1_555
Co5 O4 2.113097 1_555
O4 Sb1 2.015299 1_555
O5 Sb0 2.019334 1_555
O6 Sb0 2.019458 1_644
O7 Sb1 2.015264 1_555
O8 Sb1 1.996260 1_555
O9 Sb0 1.995208 1_654
O10 Sb0 1.995172 1_545
O11 Sb1 1.996264 1_555
O12 Sb0 2.000123 1_644
O13 Sb1 1.999723 1_555
O14 Sb1 1.999791 1_555
O15 Sb0 2.000014 1_555
