# generated using pymatgen
data_Na2CdO2
_symmetry_space_group_name_H-M   'P 1'
_cell_length_a   9.38808900
_cell_length_b   9.40170028
_cell_length_c   9.40939931
_cell_angle_alpha   109.66508000
_cell_angle_beta   109.35274611
_cell_angle_gamma   109.28691681
_symmetry_Int_Tables_number   1
_chemical_formula_structural   Na2CdO2
_chemical_formula_sum   'Na16 Cd8 O16'
_cell_volume   640.17979746
_cell_formula_units_Z   8
loop_
 _symmetry_equiv_pos_site_id
 _symmetry_equiv_pos_as_xyz
  1  'x, y, z'
loop_
 _atom_site_type_symbol
 _atom_site_label
 _atom_site_symmetry_multiplicity
 _atom_site_fract_x
 _atom_site_fract_y
 _atom_site_fract_z
 _atom_site_occupancy
  Na  Na0  1  0.57949600  0.81128100  0.45531900  1
  Na  Na1  1  0.50124400  0.99167100  0.73230200  1
  Na  Na2  1  0.18007100  0.44176300  0.04741800  1
  Na  Na3  1  0.97676300  0.70709300  0.03440500  1
  Na  Na4  1  0.00000200  0.53635300  0.22518000  1
  Na  Na5  1  0.81320600  0.80405300  0.22981700  1
  Na  Na6  1  0.81293600  0.58046400  0.46677300  1
  Na  Na7  1  0.47152100  0.52137400  0.25724500  1
  Na  Na8  1  0.29677100  0.75479100  0.23274200  1
  Na  Na9  1  0.76362600  0.80660100  0.73627200  1
  Na  Na10  1  0.21158000  0.17192600  0.27834800  1
  Na  Na11  1  0.44139400  0.21599000  0.00869600  1
  Na  Na12  1  0.54052100  0.49089300  0.73745500  1
  Na  Na13  1  0.19688700  0.41336500  0.53527300  1
  Na  Na14  1  0.19946400  0.20317000  0.76679600  1
  Na  Na15  1  0.00180600  0.46664600  0.77352800  1
  Cd  Cd0  1  0.75982600  0.03002100  0.50511800  1
  Cd  Cd1  1  0.54532600  0.76738800  0.99667800  1
  Cd  Cd2  1  0.68806100  0.23665700  0.76803900  1
  Cd  Cd3  1  0.03998400  0.29962200  0.96135000  1
  Cd  Cd4  1  0.81438400  0.55926200  0.95368000  1
  Cd  Cd5  1  0.24334300  0.98202100  0.48682400  1
  Cd  Cd6  1  0.47638200  0.98587700  0.27700700  1
  Cd  Cd7  1  0.42897600  0.19502100  0.54263700  1
  O  O0  1  0.32819400  0.55040500  0.71366100  1
  O  O1  1  0.47590100  0.21808400  0.74984900  1
  O  O2  1  0.97769300  0.48279800  0.00552600  1
  O  O3  1  0.03516900  0.28288000  0.25377300  1
  O  O4  1  0.77076400  0.29814600  0.47177900  1
  O  O5  1  0.27644100  0.31572900  0.96793600  1
  O  O6  1  0.67793000  0.96575900  0.79231500  1
  O  O7  1  0.51519000  0.00725300  0.98847400  1
  O  O8  1  0.33848300  0.04840500  0.20765900  1
  O  O9  1  0.72270800  0.68948800  0.02489500  1
  O  O10  1  0.20977600  0.69517100  0.52988900  1
  O  O11  1  0.98274800  0.73333000  0.74437700  1
  O  O12  1  0.00205800  0.00461500  0.49978400  1
  O  O13  1  0.54971700  0.80842500  0.23912200  1
  O  O14  1  0.65384900  0.43596500  0.29953400  1
  O  O15  1  0.49981000  0.49024400  0.50252300  1
loop_
_geom_bond_atom_site_label_1
_geom_bond_atom_site_label_2
_geom_bond_distance
_geom_bond_site_symmetry_2
Na0 O13 1.948984 1_555
Na1 O6 1.693633 1_555
Na1 O1 2.176958 1_565
Na1 O7 2.321477 1_565
Na1 O10 2.611393 1_555
Na2 O5 1.828147 1_554
Na2 O2 2.001052 1_455
Na3 O2 2.036867 1_555
Na3 O9 2.304746 1_555
Na3 O11 2.838473 1_554
Na4 O2 1.874069 1_455
Na4 O10 2.400462 1_555
Na4 O3 2.598622 1_555
Na5 O9 1.584874 1_555
Na5 O12 2.175895 1_665
Na5 O13 2.517266 1_555
Na6 O14 1.488506 1_555
Na6 O11 2.151725 1_555
Na6 O4 2.570296 1_555
Na7 O14 2.098738 1_555
Na7 O5 2.305861 1_554
Na7 O15 2.362713 1_555
Na7 O13 2.633492 1_555
Na8 O13 2.234077 1_555
Na8 O2 2.664364 1_455
Na9 O6 1.926077 1_555
Na9 O11 2.362137 1_555
Na9 O15 2.634117 1_555
Na10 O8 2.032170 1_555
Na10 O3 2.221334 1_555
Na10 O15 2.710464 1_555
Na11 O5 2.057242 1_554
Na11 O7 2.258699 1_554
Na11 O14 2.364889 1_555
Na11 O1 2.566798 1_554
Na12 O15 2.112381 1_555
Na12 O0 2.204972 1_555
Na12 O9 2.269865 1_556
Na12 O1 2.486062 1_555
Na13 O0 1.456346 1_555
Na13 O3 2.177894 1_555
Na13 O10 2.630483 1_555
Na14 O5 1.569845 1_555
Na14 O12 2.168790 1_555
Na14 O1 2.613268 1_555
Na15 O2 2.228619 1_456
Na15 O4 2.428374 1_455
Na15 O11 2.668409 1_455
Cd0 Na0 1.959768 1_545
Cd0 O13 2.235919 1_545
Cd0 O12 2.378548 1_655
Cd0 O4 2.616510 1_555
Cd1 O9 2.005884 1_556
Cd1 O13 2.165515 1_556
Cd1 O0 2.325378 1_555
Cd1 O7 2.386592 1_565
Cd2 O1 1.884449 1_555
Cd2 O2 2.465358 1_556
Cd3 Na2 1.255403 1_556
Cd3 O2 1.955817 1_456
Cd3 O5 2.152923 1_555
Cd4 Na3 1.398196 1_556
Cd4 O9 1.793025 1_556
Cd4 O2 1.890449 1_556
Cd4 Na12 2.392501 1_555
Cd5 O1 2.310526 1_565
Cd5 O12 2.382154 1_565
Cd5 O10 2.792021 1_555
Cd6 O8 1.627403 1_565
Cd6 O13 1.976265 1_555
Cd6 Na8 2.059704 1_555
Cd6 O4 2.697741 1_565
Cd7 O1 1.767955 1_555
Cd7 Na12 2.359290 1_555
