# generated using pymatgen
data_LiV2OF5
_symmetry_space_group_name_H-M   'P 1'
_cell_length_a   4.72466609
_cell_length_b   4.72457137
_cell_length_c   9.33670865
_cell_angle_alpha   89.24511927
_cell_angle_beta   89.98263542
_cell_angle_gamma   89.98571755
_symmetry_Int_Tables_number   1
_chemical_formula_structural   LiV2OF5
_chemical_formula_sum   'Li2 V4 O2 F10'
_cell_volume   208.39611288
_cell_formula_units_Z   2
loop_
 _symmetry_equiv_pos_site_id
 _symmetry_equiv_pos_as_xyz
  1  'x, y, z'
loop_
 _atom_site_type_symbol
 _atom_site_label
 _atom_site_symmetry_multiplicity
 _atom_site_fract_x
 _atom_site_fract_y
 _atom_site_fract_z
 _atom_site_occupancy
  Li  Li0  1  0.99934500  0.00756600  0.00535400  1
  Li  Li1  1  0.50075800  0.50745600  0.50528400  1
  V  V0  1  0.97834900  0.98270100  0.66526200  1
  V  V1  1  0.51016200  0.51023700  0.82270800  1
  V  V2  1  0.52176500  0.48285100  0.16523500  1
  V  V3  1  0.98947700  0.01014800  0.32265500  1
  O  O0  1  0.79960200  0.20462100  0.17914700  1
  O  O1  1  0.70049200  0.70459500  0.67910300  1
  F  F0  1  0.69672100  0.69627500  0.00031800  1
  F  F1  1  0.80315900  0.19619100  0.50018600  1
  F  F2  1  0.21004800  0.78994300  0.17043100  1
  F  F3  1  0.28984800  0.29007700  0.67043600  1
  F  F4  1  0.70131100  0.69815900  0.33206200  1
  F  F5  1  0.79884400  0.19804700  0.83196000  1
  F  F6  1  0.30242100  0.29960200  0.32987500  1
  F  F7  1  0.19760400  0.79929400  0.83014700  1
  F  F8  1  0.18501700  0.81124700  0.49503000  1
  F  F9  1  0.31507800  0.31098900  0.99480400  1
loop_
_geom_bond_atom_site_label_1
_geom_bond_atom_site_label_2
_geom_bond_distance
_geom_bond_site_symmetry_2
Li0 O0 2.104475 1_555
Li1 O1 2.105473 1_555
O0 V3 1.847205 1_555
O0 V2 1.860838 1_555
O1 V1 1.848464 1_555
O1 V0 1.860859 1_555
F0 V2 2.007408 1_555
F0 Li0 2.052425 1_565
F0 V1 2.083047 1_554
F1 V0 2.009323 1_545
F1 Li1 2.051091 1_555
F1 V3 2.081373 1_555
F2 V3 2.055708 1_465
F2 V2 2.068131 1_555
F2 Li0 2.093409 1_465
F3 V1 2.055996 1_555
F3 V0 2.068869 1_445
F3 Li1 2.093630 1_555
F4 V3 2.007884 1_565
F4 V2 2.055121 1_555
F4 Li1 2.070377 1_555
F5 V1 2.009723 1_555
F5 V0 2.053612 1_545
F5 Li0 2.071308 1_556
F6 V3 2.016024 1_455
F6 V2 2.037381 1_555
F6 Li1 2.137392 1_555
F7 V1 2.012970 1_555
F7 V0 2.039445 1_455
F7 Li0 2.136053 1_466
F8 V0 2.041668 1_455
F8 V3 2.070611 1_465
F8 Li1 2.071227 1_555
F9 V2 2.044606 1_556
F9 V1 2.068145 1_555
F9 Li0 2.070573 1_456
