# generated using pymatgen
data_LiCr(SO4)2
_symmetry_space_group_name_H-M   'P 1'
_cell_length_a   8.32109300
_cell_length_b   8.33027210
_cell_length_c   8.90489438
_cell_angle_alpha   90.18649432
_cell_angle_beta   117.65107965
_cell_angle_gamma   119.87063629
_symmetry_Int_Tables_number   1
_chemical_formula_structural   LiCr(SO4)2
_chemical_formula_sum   'Li3 Cr3 S6 O24'
_cell_volume   451.51304933
_cell_formula_units_Z   3
loop_
 _symmetry_equiv_pos_site_id
 _symmetry_equiv_pos_as_xyz
  1  'x, y, z'
loop_
 _atom_site_type_symbol
 _atom_site_label
 _atom_site_symmetry_multiplicity
 _atom_site_fract_x
 _atom_site_fract_y
 _atom_site_fract_z
 _atom_site_occupancy
  Li  Li0  1  0.67632900  0.84280600  0.54112500  1
  Li  Li1  1  0.04102900  0.22200600  0.62762000  1
  Li  Li2  1  0.80920200  0.58769300  0.62742800  1
  Cr  Cr0  1  0.29568700  0.65096100  0.94276700  1
  Cr  Cr1  1  0.71526600  0.35691700  0.07008600  1
  Cr  Cr2  1  0.29790500  0.14597900  0.44683900  1
  S  S0  1  0.49640800  0.53322600  0.75202900  1
  S  S1  1  0.78811800  0.25173400  0.75101200  1
  S  S2  1  0.21925100  0.96678700  0.74941900  1
  S  S3  1  0.79484100  0.04598200  0.25129900  1
  S  S4  1  0.20728600  0.74532100  0.25158800  1
  S  S5  1  0.50249000  0.45746800  0.25082000  1
  O  O0  1  0.38213700  0.48958000  0.08182200  1
  O  O1  1  0.59373000  0.89471700  0.08267500  1
  O  O2  1  0.65001900  0.65434100  0.70079300  1
  O  O3  1  0.17890900  0.69940600  0.07383700  1
  O  O4  1  0.31003700  0.33678600  0.60802600  1
  O  O5  1  0.38462800  0.61926300  0.77006700  1
  O  O6  1  0.00648000  0.38612100  0.76563900  1
  O  O7  1  0.71753400  0.05318400  0.70088000  1
  O  O8  1  0.13995500  0.76372500  0.76542500  1
  O  O9  1  0.97021300  0.01590000  0.28762300  1
  O  O10  1  0.76226600  0.03868800  0.40030600  1
  O  O11  1  0.36232300  0.71428400  0.38783600  1
  O  O12  1  0.63608600  0.29685100  0.60912500  1
  O  O13  1  0.26697800  0.97581100  0.60613100  1
  O  O14  1  0.04531600  0.99703300  0.70441600  1
  O  O15  1  0.86304100  0.24115200  0.22588900  1
  O  O16  1  0.27504100  0.95168500  0.29141400  1
  O  O17  1  0.98627600  0.61951500  0.22717300  1
  O  O18  1  0.60401900  0.36359500  0.22426200  1
  O  O19  1  0.67628900  0.63903900  0.39910600  1
  O  O20  1  0.82016100  0.31238200  0.92282300  1
  O  O21  1  0.33626900  0.31843000  0.28943100  1
  O  O22  1  0.41968100  0.10384400  0.92224800  1
  O  O23  1  0.61019900  0.50259000  0.92222100  1
loop_
_geom_bond_atom_site_label_1
_geom_bond_atom_site_label_2
_geom_bond_distance
_geom_bond_site_symmetry_2
Li0 O11 1.931375 1_555
Li0 O7 2.035961 1_565
Li0 O10 2.104700 1_565
Li0 O19 2.113228 1_555
Li0 O2 2.120235 1_555
Li0 O14 2.259835 1_655
Li1 O10 1.975699 1_455
Li1 O14 2.008340 1_545
Li1 O6 2.042236 1_555
Li1 O4 2.046210 1_555
Li2 O19 1.982347 1_555
Li2 O2 2.005721 1_555
Li2 O8 2.015987 1_655
Li2 O12 2.067528 1_555
Cr0 O3 1.977275 1_556
Cr0 O1 1.981276 1_556
Cr0 O0 2.001350 1_556
Cr0 O5 2.056923 1_555
Cr0 O6 2.076587 1_555
Cr0 O8 2.092432 1_555
Cr1 O17 1.991438 1_555
Cr1 O23 1.992328 1_554
Cr1 O15 1.993319 1_555
Cr1 O18 1.993825 1_555
Cr1 O20 2.000232 1_554
Cr1 O22 2.009639 1_554
Cr2 O16 2.001418 1_545
Cr2 O13 2.018980 1_545
Cr2 O9 2.019428 1_455
Cr2 O21 2.025345 1_555
Cr2 O12 2.068220 1_555
Cr2 O4 2.070672 1_555
O0 S5 1.486556 1_555
O1 S3 1.482535 1_565
O2 S0 1.455897 1_555
O3 S4 1.505545 1_555
O4 S0 1.529674 1_555
O5 S0 1.485453 1_555
O6 S1 1.524783 1_455
O7 S1 1.436690 1_555
O8 S2 1.514648 1_555
O9 S3 1.491175 1_555
O10 S3 1.468250 1_555
O11 S4 1.443839 1_555
O12 S1 1.526815 1_555
O13 S2 1.494217 1_555
O14 S2 1.464373 1_555
O15 S3 1.489659 1_555
O16 S4 1.497955 1_555
O17 S4 1.495087 1_655
O18 S5 1.491135 1_555
O19 S5 1.469195 1_555
O20 S1 1.466036 1_555
O21 S5 1.490320 1_555
O22 S2 1.470752 1_545
O23 S0 1.473034 1_555
