# generated using pymatgen
data_LiVSiO4
_symmetry_space_group_name_H-M   'P 1'
_cell_length_a   5.09166100
_cell_length_b   6.82141900
_cell_length_c   10.41243400
_cell_angle_alpha   90.00000000
_cell_angle_beta   90.00000000
_cell_angle_gamma   90.00000000
_symmetry_Int_Tables_number   1
_chemical_formula_structural   LiVSiO4
_chemical_formula_sum   'Li4 V4 Si4 O16'
_cell_volume   361.64833418
_cell_formula_units_Z   4
loop_
 _symmetry_equiv_pos_site_id
 _symmetry_equiv_pos_as_xyz
  1  'x, y, z'
loop_
 _atom_site_type_symbol
 _atom_site_label
 _atom_site_symmetry_multiplicity
 _atom_site_fract_x
 _atom_site_fract_y
 _atom_site_fract_z
 _atom_site_occupancy
  Li  Li0  1  0.18539700  0.78671600  0.65608900  1
  Li  Li1  1  0.68539700  0.28671600  0.84391100  1
  Li  Li2  1  0.31460300  0.78671600  0.15608900  1
  Li  Li3  1  0.81460300  0.28671600  0.34391100  1
  V  V0  1  0.18296700  0.28283500  0.65864500  1
  V  V1  1  0.68296700  0.78283500  0.84135500  1
  V  V2  1  0.31703300  0.28283500  0.15864500  1
  V  V3  1  0.81703300  0.78283500  0.34135500  1
  Si  Si0  1  0.68186900  0.53793300  0.59334100  1
  Si  Si1  1  0.18186900  0.03793300  0.90665900  1
  Si  Si2  1  0.81813100  0.53793300  0.09334100  1
  Si  Si3  1  0.31813100  0.03793300  0.40665900  1
  O  O0  1  0.24418100  0.04670700  0.56018100  1
  O  O1  1  0.36258000  0.52705400  0.61690300  1
  O  O2  1  0.81204700  0.34240600  0.66118700  1
  O  O3  1  0.79809500  0.73452500  0.66617500  1
  O  O4  1  0.29809500  0.23452500  0.83382500  1
  O  O5  1  0.31204700  0.84240600  0.83881300  1
  O  O6  1  0.86258000  0.02705400  0.88309700  1
  O  O7  1  0.74418100  0.54670700  0.93981900  1
  O  O8  1  0.25581900  0.04670700  0.06018100  1
  O  O9  1  0.13742000  0.52705400  0.11690300  1
  O  O10  1  0.68795300  0.34240600  0.16118700  1
  O  O11  1  0.70190500  0.73452500  0.16617500  1
  O  O12  1  0.20190500  0.23452500  0.33382500  1
  O  O13  1  0.18795300  0.84240600  0.33881300  1
  O  O14  1  0.63742000  0.02705400  0.38309700  1
  O  O15  1  0.75581900  0.54670700  0.43981900  1
loop_
_geom_bond_atom_site_label_1
_geom_bond_atom_site_label_2
_geom_bond_distance
_geom_bond_site_symmetry_2
Li0 O3 2.006640 1_455
Li0 O1 2.029222 1_555
Li0 O5 2.044517 1_555
Li0 O0 2.057228 1_565
Li1 O4 2.006640 1_555
Li1 O6 2.029222 1_555
Li1 O2 2.044517 1_555
Li1 O7 2.057228 1_555
Li2 O11 2.006640 1_555
Li2 O9 2.029222 1_555
Li2 O13 2.044517 1_555
Li2 O8 2.057228 1_565
Li3 O12 2.006640 1_655
Li3 O14 2.029222 1_555
Li3 O10 2.044517 1_555
Li3 O15 2.057228 1_555
O0 Si3 1.643374 1_555
O0 V0 1.934613 1_555
O1 Si0 1.645793 1_555
O1 V0 1.949503 1_555
O2 Si0 1.648436 1_555
O2 V0 1.932003 1_655
O3 Si0 1.650371 1_555
O3 V1 1.944063 1_555
O4 Si1 1.650371 1_555
O4 V0 1.944063 1_555
O5 Si1 1.648436 1_565
O5 V1 1.932003 1_555
O6 Si1 1.645793 1_655
O6 V1 1.949503 1_545
O7 Si2 1.643374 1_556
O7 V1 1.934613 1_555
O8 Si1 1.643374 1_554
O8 V2 1.934613 1_555
O9 Si2 1.645793 1_455
O9 V2 1.949503 1_555
O10 Si2 1.648436 1_555
O10 V2 1.932003 1_555
O11 Si2 1.650371 1_555
O11 V3 1.944063 1_555
O12 Si3 1.650371 1_555
O12 V2 1.944063 1_555
O13 Si3 1.648436 1_565
O13 V3 1.932003 1_455
O14 Si3 1.645793 1_555
O14 V3 1.949503 1_545
O15 Si0 1.643374 1_555
O15 V3 1.934613 1_555
