# generated using pymatgen
data_Li3Fe2P2(CO7)2
_symmetry_space_group_name_H-M   'P 1'
_cell_length_a   6.30206176
_cell_length_b   8.27597095
_cell_length_c   10.05941378
_cell_angle_alpha   85.11068125
_cell_angle_beta   90.00000000
_cell_angle_gamma   90.00000000
_symmetry_Int_Tables_number   1
_chemical_formula_structural   Li3Fe2P2(CO7)2
_chemical_formula_sum   'Li6 Fe4 P4 C4 O28'
_cell_volume   522.74645179
_cell_formula_units_Z   2
loop_
 _symmetry_equiv_pos_site_id
 _symmetry_equiv_pos_as_xyz
  1  'x, y, z'
loop_
 _atom_site_type_symbol
 _atom_site_label
 _atom_site_symmetry_multiplicity
 _atom_site_fract_x
 _atom_site_fract_y
 _atom_site_fract_z
 _atom_site_occupancy
  Li  Li0  1  0.01016949  0.88852516  0.58383359  1
  Li  Li1  1  0.98983051  0.88852516  0.08383359  1
  Li  Li2  1  0.70449843  0.28160831  0.63526993  1
  Li  Li3  1  0.29550157  0.28160831  0.13526993  1
  Li  Li4  1  0.51001106  0.09621585  0.89985354  1
  Li  Li5  1  0.48998894  0.09621585  0.39985354  1
  Fe  Fe0  1  0.50085429  0.67257888  0.60474381  1
  Fe  Fe1  1  0.49914571  0.67257888  0.10474381  1
  Fe  Fe2  1  0.00338065  0.33092790  0.89847923  1
  Fe  Fe3  1  0.99661935  0.33092790  0.39847923  1
  P  P0  1  0.99497957  0.57856583  0.63481274  1
  P  P1  1  0.00502043  0.57856583  0.13481274  1
  P  P2  1  0.50420058  0.41743450  0.87260372  1
  P  P3  1  0.49579942  0.41743450  0.37260372  1
  C  C0  1  0.51400015  0.95406371  0.66592901  1
  C  C1  1  0.48599985  0.95406371  0.16592901  1
  C  C2  1  0.00281973  0.05398493  0.82389906  1
  C  C3  1  0.99718027  0.05398493  0.32389906  1
  O  O0  1  0.50104394  0.92811318  0.54047054  1
  O  O1  1  0.01366448  0.92595762  0.76974493  1
  O  O2  1  0.49895606  0.92811318  0.04047054  1
  O  O3  1  0.49526521  0.82432570  0.74706221  1
  O  O4  1  0.98633552  0.92595762  0.26974493  1
  O  O5  1  0.50473479  0.82432570  0.24706221  1
  O  O6  1  0.19100397  0.67674050  0.59005800  1
  O  O7  1  0.81281705  0.69809615  0.60575775  1
  O  O8  1  0.18718295  0.69809615  0.10575775  1
  O  O9  1  0.80899603  0.67674050  0.09005800  1
  O  O10  1  0.48003984  0.56836749  0.94545478  1
  O  O11  1  0.00822019  0.52252952  0.78377742  1
  O  O12  1  0.51996016  0.56836749  0.44545478  1
  O  O13  1  0.99177981  0.52252952  0.28377742  1
  O  O14  1  0.52009532  0.46150581  0.72139082  1
  O  O15  1  0.95915428  0.42579190  0.56085748  1
  O  O16  1  0.47990468  0.46150581  0.22139082  1
  O  O17  1  0.04084572  0.42579190  0.06085748  1
  O  O18  1  0.69680443  0.31154618  0.91817652  1
  O  O19  1  0.32112643  0.29627061  0.90992533  1
  O  O20  1  0.67887357  0.29627061  0.40992533  1
  O  O21  1  0.30319557  0.31154618  0.41817652  1
  O  O22  1  0.98659431  0.19519529  0.75183368  1
  O  O23  1  0.54485826  0.09196517  0.70761271  1
  O  O24  1  0.01340569  0.19519529  0.25183368  1
  O  O25  1  0.00709959  0.07080182  0.95106920  1
  O  O26  1  0.45514174  0.09196517  0.20761271  1
  O  O27  1  0.99290041  0.07080182  0.45106920  1
loop_
_geom_bond_atom_site_label_1
_geom_bond_atom_site_label_2
_geom_bond_distance
_geom_bond_site_symmetry_2
Li0 O1 1.921642 1_555
Li0 O27 1.930722 1_465
Li0 O7 2.004988 1_455
Li0 O6 2.087106 1_555
Li1 O4 1.921642 1_555
Li1 O25 1.930722 1_664
Li1 O8 2.004988 1_655
Li1 O9 2.087106 1_555
Li2 O23 1.952005 1_555
Li2 O15 2.099404 1_555
Li2 O14 2.130143 1_555
Li2 O22 2.214481 1_555
Li2 O20 2.265492 1_555
Li3 O26 1.952005 1_555
Li3 O17 2.099404 1_555
Li3 O16 2.130143 1_555
Li3 O24 2.214481 1_555
Li3 O19 2.265492 1_554
Li4 O2 1.898882 1_546
Li4 O23 1.949554 1_555
Li4 O19 2.048656 1_555
Li4 O18 2.156731 1_555
Li5 O0 1.898882 1_545
Li5 O26 1.949554 1_555
Li5 O20 2.048656 1_555
Li5 O21 2.156731 1_555
Fe0 O12 1.887175 1_555
Fe0 O6 1.958358 1_555
Fe0 O7 1.977437 1_555
Fe0 O3 1.983552 1_555
Fe0 O14 2.023265 1_555
Fe0 O0 2.158080 1_555
Fe1 O10 1.887175 1_554
Fe1 O9 1.958358 1_555
Fe1 O8 1.977437 1_555
Fe1 O5 1.983552 1_555
Fe1 O16 2.023265 1_555
Fe1 O2 2.158080 1_555
Fe2 O11 1.880104 1_555
Fe2 O17 1.886481 1_556
Fe2 O22 1.931743 1_455
Fe2 O18 1.947418 1_455
Fe2 O19 2.024775 1_555
Fe2 O25 2.172742 1_555
Fe3 O13 1.880104 1_555
Fe3 O15 1.886481 1_555
Fe3 O24 1.931743 1_655
Fe3 O21 1.947418 1_655
Fe3 O20 2.024775 1_555
Fe3 O27 2.172742 1_555
C0 O23 1.264006 1_565
C0 O3 1.297504 1_555
C0 O0 1.300667 1_555
C1 O26 1.264006 1_565
C1 O5 1.297504 1_555
C1 O2 1.300667 1_555
C2 O1 1.233884 1_545
C2 O25 1.298825 1_555
C2 O22 1.325640 1_455
C3 O4 1.233884 1_545
C3 O27 1.298825 1_555
C3 O24 1.325640 1_655
O6 P0 1.525314 1_455
O7 P0 1.527291 1_555
O8 P1 1.527291 1_555
O9 P1 1.525314 1_655
O10 P2 1.508831 1_555
O11 P0 1.532666 1_455
O12 P3 1.508831 1_555
O13 P1 1.532666 1_655
O14 P2 1.536970 1_555
O15 P0 1.537321 1_555
O16 P3 1.536970 1_555
O17 P1 1.537321 1_555
O18 P2 1.543680 1_555
O19 P2 1.553515 1_555
O20 P3 1.553515 1_555
O21 P3 1.543680 1_555
