# generated using pymatgen
data_LiMn(CO3)2
_symmetry_space_group_name_H-M   'P 1'
_cell_length_a   6.50486908
_cell_length_b   6.50486908
_cell_length_c   8.40308913
_cell_angle_alpha   83.10787549
_cell_angle_beta   83.10787549
_cell_angle_gamma   130.98008330
_symmetry_Int_Tables_number   1
_chemical_formula_structural   LiMn(CO3)2
_chemical_formula_sum   'Li2 Mn2 C4 O12'
_cell_volume   256.95236499
_cell_formula_units_Z   2
loop_
 _symmetry_equiv_pos_site_id
 _symmetry_equiv_pos_as_xyz
  1  'x, y, z'
loop_
 _atom_site_type_symbol
 _atom_site_label
 _atom_site_symmetry_multiplicity
 _atom_site_fract_x
 _atom_site_fract_y
 _atom_site_fract_z
 _atom_site_occupancy
  Li  Li0  1  0.53277100  0.76702300  0.65164900  1
  Li  Li1  1  0.76702300  0.53277100  0.15164900  1
  Mn  Mn0  1  0.13423800  0.87577000  0.50292900  1
  Mn  Mn1  1  0.87577000  0.13423800  0.00292900  1
  C  C0  1  0.95515600  0.61763700  0.79131300  1
  C  C1  1  0.00171000  0.15779000  0.70715900  1
  C  C2  1  0.61763700  0.95515600  0.29131300  1
  C  C3  1  0.15779000  0.00171000  0.20715900  1
  O  O0  1  0.85863800  0.47068100  0.94025000  1
  O  O1  1  0.75397300  0.95967200  0.82013100  1
  O  O2  1  0.80942000  0.52951600  0.68008900  1
  O  O3  1  0.20936500  0.86721100  0.73197000  1
  O  O4  1  0.18976500  0.37258400  0.75889000  1
  O  O5  1  0.02814000  0.11987800  0.56423900  1
  O  O6  1  0.47068100  0.85863800  0.44025000  1
  O  O7  1  0.86721100  0.20936600  0.23197000  1
  O  O8  1  0.95967200  0.75397300  0.32013100  1
  O  O9  1  0.37258400  0.18976500  0.25889000  1
  O  O10  1  0.52951600  0.80942000  0.18008900  1
  O  O11  1  0.11987800  0.02814000  0.06423900  1
loop_
_geom_bond_atom_site_label_1
_geom_bond_atom_site_label_2
_geom_bond_distance
_geom_bond_site_symmetry_2
Li0 O4 1.956402 1_555
Li0 O6 1.976790 1_555
Li0 O1 2.048151 1_555
Li0 O5 2.348992 1_665
Li0 O3 2.620857 1_555
Li1 O9 1.956402 1_555
Li1 O0 1.976790 1_554
Li1 O8 2.048151 1_555
Li1 O11 2.348992 1_665
Li1 O7 2.620851 1_555
Mn0 O8 1.951244 1_455
Mn0 O2 1.987990 1_455
Mn0 O3 2.044971 1_555
Mn0 O5 2.193512 1_565
Mn0 O9 2.204342 1_565
Mn0 O6 2.266444 1_555
Mn1 O1 1.951244 1_544
Mn1 O10 1.987990 1_545
Mn1 O7 2.044974 1_555
Mn1 O11 2.193512 1_655
Mn1 O4 2.204342 1_654
Mn1 O0 2.266444 1_554
C0 O0 1.269417 1_555
C0 O3 1.305919 1_655
C0 O2 1.315025 1_555
C1 O5 1.268795 1_555
C1 O4 1.291979 1_555
C1 O1 1.332018 1_445
C2 O6 1.269417 1_555
C2 O7 1.305921 1_565
C2 O10 1.315025 1_555
C3 O11 1.268795 1_555
C3 O9 1.291979 1_555
C3 O8 1.332018 1_445
