# generated using pymatgen
data_La2Nb2N2O5
_symmetry_space_group_name_H-M   'P 1'
_cell_length_a   7.61987188
_cell_length_b   7.61987188
_cell_length_c   7.61453073
_cell_angle_alpha   60.08714015
_cell_angle_beta   60.08714015
_cell_angle_gamma   90.10059610
_symmetry_Int_Tables_number   1
_chemical_formula_structural   La2Nb2N2O5
_chemical_formula_sum   'La4 Nb4 N4 O10'
_cell_volume   313.17320442
_cell_formula_units_Z   2
loop_
 _symmetry_equiv_pos_site_id
 _symmetry_equiv_pos_as_xyz
  1  'x, y, z'
loop_
 _atom_site_type_symbol
 _atom_site_label
 _atom_site_symmetry_multiplicity
 _atom_site_fract_x
 _atom_site_fract_y
 _atom_site_fract_z
 _atom_site_occupancy
  La  La0  1  0.37443900  0.11976700  0.25509000  1
  La  La1  1  0.37323700  0.62948700  0.74742300  1
  La  La2  1  0.37051300  0.62676300  0.25257700  1
  La  La3  1  0.88023300  0.62556100  0.74491000  1
  Nb  Nb0  1  0.86874500  0.10897600  0.76353700  1
  Nb  Nb1  1  0.86278100  0.62380700  0.25567800  1
  Nb  Nb2  1  0.37619300  0.13721900  0.74432200  1
  Nb  Nb3  1  0.89102400  0.13125500  0.23646300  1
  N  N0  1  0.80956800  0.80950600  0.99547500  1
  N  N1  1  0.55687200  0.44312800  0.50000000  1
  N  N2  1  0.24868700  0.75131300  0.50000000  1
  N  N3  1  0.19049400  0.19043200  0.00452500  1
  O  O0  1  0.19596700  0.19789900  0.60222900  1
  O  O1  1  0.80145000  0.19855000  0.00000000  1
  O  O2  1  0.20293900  0.79706100  0.00000000  1
  O  O3  1  0.80210100  0.80403300  0.39777100  1
  O  O4  1  0.50170200  0.49829800  0.00000000  1
  O  O5  1  0.95016400  0.45099500  0.49995100  1
  O  O6  1  0.55452000  0.05427000  0.89297500  1
  O  O7  1  0.94363500  0.05636500  0.50000000  1
  O  O8  1  0.94573000  0.44548000  0.10702500  1
  O  O9  1  0.54900500  0.04983600  0.50004900  1
loop_
_geom_bond_atom_site_label_1
_geom_bond_atom_site_label_2
_geom_bond_distance
_geom_bond_site_symmetry_2
La0 N2 2.294501 1_545
La0 O4 2.357232 1_555
La0 O9 2.649187 1_555
La0 O0 2.679191 1_555
La0 O1 2.692026 1_555
La0 O6 2.708537 1_554
La0 O7 2.734467 1_455
La0 N3 2.745895 1_555
La1 N2 2.313878 1_555
La1 O4 2.370662 1_556
La1 O2 2.641829 1_556
La1 O9 2.655656 1_565
La1 O3 2.704067 1_555
La1 O8 2.708096 1_456
La1 N1 2.751351 1_555
La1 N3 2.774292 1_556
La2 N2 2.313878 1_555
La2 O4 2.370662 1_555
La2 O2 2.641829 1_555
La2 O5 2.655656 1_455
La2 O0 2.704067 1_555
La2 O6 2.708096 1_564
La2 N1 2.751351 1_555
La2 N0 2.774292 1_554
La3 N2 2.294501 1_655
La3 O4 2.357232 1_556
La3 O5 2.649187 1_555
La3 O3 2.679191 1_555
La3 O1 2.692026 1_556
La3 O8 2.708537 1_556
La3 O7 2.734467 1_565
La3 N0 2.745895 1_555
Nb0 O6 2.027602 1_555
Nb0 O7 2.043105 1_555
Nb0 O1 2.068066 1_556
Nb0 O0 2.072262 1_655
Nb0 O5 2.177315 1_555
Nb1 O3 2.062918 1_555
Nb1 O8 2.085823 1_555
Nb1 O5 2.105348 1_555
Nb1 O2 2.154776 1_655
Nb2 O0 2.062918 1_555
Nb2 O6 2.085823 1_555
Nb2 O9 2.105348 1_555
Nb2 O2 2.154776 1_546
Nb3 O8 2.027602 1_555
Nb3 O7 2.043105 1_555
Nb3 O1 2.068066 1_555
Nb3 O3 2.072262 1_545
Nb3 O9 2.177315 1_555
N0 Nb0 1.926718 1_565
N0 Nb1 2.024691 1_556
N1 Nb1 1.974605 1_555
N1 Nb2 1.974605 1_555
N3 Nb3 1.926718 1_455
N3 Nb2 2.024691 1_554
