# generated using pymatgen
data_Li4V3Cr3(WO8)2
_symmetry_space_group_name_H-M   'P 1'
_cell_length_a   5.98771957
_cell_length_b   5.98771957
_cell_length_c   9.71618482
_cell_angle_alpha   89.92258938
_cell_angle_beta   89.92258938
_cell_angle_gamma   59.94713033
_symmetry_Int_Tables_number   1
_chemical_formula_structural   Li4V3Cr3(WO8)2
_chemical_formula_sum   'Li4 V3 Cr3 W2 O16'
_cell_volume   301.52071805
_cell_formula_units_Z   1
loop_
 _symmetry_equiv_pos_site_id
 _symmetry_equiv_pos_as_xyz
  1  'x, y, z'
loop_
 _atom_site_type_symbol
 _atom_site_label
 _atom_site_symmetry_multiplicity
 _atom_site_fract_x
 _atom_site_fract_y
 _atom_site_fract_z
 _atom_site_occupancy
  Li  Li0  1  0.66567700  0.66567700  0.09706900  1
  Li  Li1  1  0.00038400  0.00038400  0.00688100  1
  Li  Li2  1  0.00175900  0.00175900  0.50802000  1
  Li  Li3  1  0.33293600  0.33293600  0.60003600  1
  V  V0  1  0.83067900  0.83067900  0.78705300  1
  V  V1  1  0.16707800  0.66107400  0.28718500  1
  V  V2  1  0.66107400  0.16707800  0.28718500  1
  Cr  Cr0  1  0.33892600  0.82776300  0.78637600  1
  Cr  Cr1  1  0.82776300  0.33892600  0.78637600  1
  Cr  Cr2  1  0.16936800  0.16936800  0.28522900  1
  W  W0  1  0.66629400  0.66629400  0.51359400  1
  W  W1  1  0.33239200  0.33239200  0.01304600  1
  O  O0  1  0.33878300  0.83222400  0.40475600  1
  O  O1  1  0.51907300  0.51907300  0.65949300  1
  O  O2  1  0.66697300  0.66697300  0.89169000  1
  O  O3  1  0.99977200  0.99977200  0.69383200  1
  O  O4  1  0.99977000  0.99977000  0.19155000  1
  O  O5  1  0.83222400  0.33878300  0.40475600  1
  O  O6  1  0.51805800  0.95865100  0.65468100  1
  O  O7  1  0.95865100  0.51805800  0.65468100  1
  O  O8  1  0.17073400  0.17073400  0.90508300  1
  O  O9  1  0.83360600  0.83360600  0.40704600  1
  O  O10  1  0.03688600  0.47824200  0.15692500  1
  O  O11  1  0.47824200  0.03688600  0.15692500  1
  O  O12  1  0.33375000  0.33375000  0.39276900  1
  O  O13  1  0.17015600  0.66660300  0.90463000  1
  O  O14  1  0.47755800  0.47755800  0.15094300  1
  O  O15  1  0.66660300  0.17015600  0.90463000  1
loop_
_geom_bond_atom_site_label_1
_geom_bond_atom_site_label_2
_geom_bond_distance
_geom_bond_site_symmetry_2
Li0 O2 1.995525 1_554
Li0 O11 2.010316 1_565
Li0 O10 2.010316 1_655
Li0 O14 2.019702 1_555
Li1 O4 1.794280 1_445
Li1 O13 1.995613 1_544
Li1 O15 1.995613 1_454
Li1 O8 2.023797 1_554
Li2 O3 1.805469 1_445
Li2 O9 2.002683 1_445
Li2 O5 2.013698 1_455
Li2 O0 2.013698 1_545
Li3 O6 2.010819 1_545
Li3 O7 2.010819 1_455
Li3 O12 2.013849 1_555
Li3 O1 2.016375 1_555
Cr0 O3 1.975045 1_455
Cr0 O2 1.985166 1_555
Cr0 O1 2.026175 1_555
Cr0 O6 2.058523 1_555
Cr0 O13 2.059885 1_555
Cr0 O8 2.119818 1_565
Cr1 O3 1.975045 1_545
Cr1 O2 1.985166 1_555
Cr1 O1 2.026175 1_555
Cr1 O7 2.058523 1_555
Cr1 O15 2.059885 1_555
Cr1 O8 2.119818 1_655
Cr2 O4 1.982136 1_445
Cr2 O12 2.001314 1_555
Cr2 O10 2.032438 1_555
Cr2 O11 2.032438 1_555
Cr2 O0 2.097322 1_545
Cr2 O5 2.097322 1_455
O0 W0 2.000594 1_555
O0 V1 2.115142 1_555
O1 W0 2.082126 1_555
O2 V0 1.977953 1_555
O3 V0 1.972923 1_555
O4 V1 1.985546 1_655
O4 V2 1.985546 1_565
O5 W0 2.000594 1_555
O5 V2 2.115142 1_555
O6 W0 2.044103 1_555
O6 V0 2.076655 1_555
O7 W0 2.044103 1_555
O7 V0 2.076655 1_555
O8 W1 1.979449 1_556
O9 W0 2.019563 1_555
O9 V2 2.083595 1_565
O9 V1 2.083595 1_655
O10 V1 2.066199 1_555
O10 W1 2.072837 1_555
O11 V2 2.066199 1_555
O11 W1 2.072837 1_555
O12 V2 1.981900 1_555
O12 V1 1.981900 1_555
O13 W1 2.026803 1_556
O13 V0 2.098847 1_455
O14 W1 2.017238 1_555
O14 V1 2.089761 1_555
O14 V2 2.089761 1_555
O15 W1 2.026803 1_556
O15 V0 2.098847 1_545
