# generated using pymatgen
data_Li3Mn4(BO3)4
_symmetry_space_group_name_H-M   'P 1'
_cell_length_a   5.23887800
_cell_length_b   7.92029310
_cell_length_c   12.36296438
_cell_angle_alpha   80.25904382
_cell_angle_beta   87.21795189
_cell_angle_gamma   88.17645166
_symmetry_Int_Tables_number   1
_chemical_formula_structural   Li3Mn4(BO3)4
_chemical_formula_sum   'Li6 Mn8 B8 O24'
_cell_volume   504.84511993
_cell_formula_units_Z   2
loop_
 _symmetry_equiv_pos_site_id
 _symmetry_equiv_pos_as_xyz
  1  'x, y, z'
loop_
 _atom_site_type_symbol
 _atom_site_label
 _atom_site_symmetry_multiplicity
 _atom_site_fract_x
 _atom_site_fract_y
 _atom_site_fract_z
 _atom_site_occupancy
  Li  Li0  1  0.08781800  0.84758700  0.48406500  1
  Li  Li1  1  0.08944700  0.84593700  0.98206700  1
  Li  Li2  1  0.91218200  0.15241300  0.51593500  1
  Li  Li3  1  0.57365000  0.36672400  0.23894700  1
  Li  Li4  1  0.42635000  0.63327600  0.76105300  1
  Li  Li5  1  0.91055300  0.15406300  0.01793300  1
  Mn  Mn0  1  0.60109500  0.00550600  0.37036600  1
  Mn  Mn1  1  0.09755200  0.48984400  0.62434800  1
  Mn  Mn2  1  0.90244800  0.51015600  0.37565200  1
  Mn  Mn3  1  0.39890500  0.99449400  0.62963400  1
  Mn  Mn4  1  0.59598500  0.00713400  0.87029400  1
  Mn  Mn5  1  0.10361500  0.50535500  0.12329800  1
  Mn  Mn6  1  0.89638500  0.49464500  0.87670200  1
  Mn  Mn7  1  0.40401500  0.99286600  0.12970600  1
  B  B0  1  0.90327400  0.82746100  0.70475300  1
  B  B1  1  0.59726000  0.67284600  0.54402000  1
  B  B2  1  0.90013000  0.83422600  0.19826300  1
  B  B3  1  0.40274000  0.32715400  0.45598000  1
  B  B4  1  0.59924900  0.66306100  0.04093000  1
  B  B5  1  0.09672600  0.17253900  0.29524700  1
  B  B6  1  0.40075100  0.33693900  0.95907000  1
  B  B7  1  0.09987000  0.16577400  0.80173700  1
  O  O0  1  0.00912600  0.95065300  0.62346500  1
  O  O1  1  0.04287200  0.68141700  0.74827900  1
  O  O2  1  0.64783100  0.84589000  0.74084200  1
  O  O3  1  0.46769400  0.82999100  0.50447400  1
  O  O4  1  0.48107100  0.55298000  0.61910600  1
  O  O5  1  0.01570600  0.95353100  0.11835600  1
  O  O6  1  0.85527600  0.65470900  0.50849300  1
  O  O7  1  0.01153400  0.67310100  0.23105500  1
  O  O8  1  0.66056200  0.87159200  0.24365500  1
  O  O9  1  0.14472400  0.34529100  0.49150700  1
  O  O10  1  0.51892900  0.44702000  0.38089400  1
  O  O11  1  0.46856800  0.81769200  0.00527500  1
  O  O12  1  0.53230600  0.17000900  0.49552600  1
  O  O13  1  0.49162100  0.53287400  0.11329400  1
  O  O14  1  0.85885600  0.64588700  0.00370400  1
  O  O15  1  0.35216900  0.15411000  0.25915800  1
  O  O16  1  0.95712800  0.31858300  0.25172100  1
  O  O17  1  0.14114400  0.35411300  0.99629600  1
  O  O18  1  0.99087400  0.04934700  0.37653500  1
  O  O19  1  0.50837900  0.46712600  0.88670600  1
  O  O20  1  0.53143200  0.18230800  0.99472500  1
  O  O21  1  0.33943800  0.12840800  0.75634500  1
  O  O22  1  0.98846600  0.32689900  0.76894500  1
  O  O23  1  0.98429400  0.04646900  0.88164400  1
loop_
_geom_bond_atom_site_label_1
_geom_bond_atom_site_label_2
_geom_bond_distance
_geom_bond_site_symmetry_2
Li0 O6 1.958492 1_455
Li0 O18 1.968209 1_465
Li0 O3 2.015657 1_555
Li0 O0 2.047459 1_555
Li1 O23 1.926374 1_465
Li1 O14 1.997107 1_456
Li1 O11 2.020534 1_556
Li1 O5 2.028841 1_556
Li2 O9 1.958492 1_655
Li2 O0 1.968209 1_645
Li2 O12 2.015657 1_555
Li2 O18 2.047459 1_555
Li3 O13 1.914853 1_555
Li3 O10 1.970655 1_555
Li3 O16 2.041581 1_555
Li3 O15 2.048981 1_555
Li4 O19 1.914853 1_555
Li4 O4 1.970655 1_555
Li4 O1 2.041581 1_555
Li4 O2 2.048981 1_555
Li5 O5 1.926374 1_645
Li5 O17 1.997107 1_654
Li5 O20 2.020534 1_554
Li5 O23 2.028841 1_554
Mn0 O8 2.042018 1_545
Mn0 O3 2.083073 1_545
Mn0 O18 2.089348 1_555
Mn0 O15 2.122495 1_555
Mn0 O12 2.195435 1_555
Mn1 O4 2.081229 1_555
Mn1 O22 2.086848 1_455
Mn1 O9 2.155901 1_555
Mn1 O6 2.192190 1_455
Mn1 O1 2.334139 1_555
Mn2 O10 2.081229 1_555
Mn2 O7 2.086848 1_655
Mn2 O6 2.155901 1_555
Mn2 O9 2.192190 1_655
Mn2 O16 2.334139 1_555
Mn3 O21 2.042018 1_565
Mn3 O12 2.083073 1_565
Mn3 O0 2.089348 1_555
Mn3 O2 2.122495 1_555
Mn3 O3 2.195435 1_555
Mn4 O23 2.082781 1_555
Mn4 O21 2.087418 1_555
Mn4 O11 2.142429 1_546
Mn4 O2 2.212108 1_545
Mn4 O20 2.246703 1_555
Mn5 O13 2.046804 1_555
Mn5 O7 2.066007 1_555
Mn5 O16 2.111212 1_455
Mn5 O17 2.128461 1_554
Mn5 O14 2.146039 1_455
Mn6 O19 2.046804 1_555
Mn6 O22 2.066007 1_555
Mn6 O1 2.111212 1_655
Mn6 O14 2.128461 1_556
Mn6 O17 2.146039 1_655
Mn7 O5 2.082781 1_555
Mn7 O8 2.087418 1_555
Mn7 O20 2.142429 1_564
Mn7 O15 2.212108 1_565
Mn7 O11 2.246703 1_555
B0 O0 1.384925 1_655
B0 O1 1.391451 1_655
B0 O2 1.401031 1_555
B1 O4 1.348054 1_555
B1 O6 1.411397 1_555
B1 O3 1.421767 1_555
B2 O5 1.377643 1_655
B2 O7 1.390703 1_655
B2 O8 1.393518 1_555
B3 O10 1.348054 1_555
B3 O9 1.411397 1_555
B3 O12 1.421767 1_555
B4 O13 1.362858 1_555
B4 O11 1.398645 1_555
B4 O14 1.424321 1_555
B5 O18 1.384925 1_455
B5 O16 1.391451 1_455
B5 O15 1.401031 1_555
B6 O19 1.362858 1_555
B6 O20 1.398645 1_555
B6 O17 1.424321 1_555
B7 O23 1.377643 1_455
B7 O22 1.390703 1_455
B7 O21 1.393518 1_555
