# generated using pymatgen
data_NaB2HO4
_symmetry_space_group_name_H-M   'P 1'
_cell_length_a   8.78230800
_cell_length_b   10.57598600
_cell_length_c   14.37669500
_cell_angle_alpha   90.00000000
_cell_angle_beta   90.00000000
_cell_angle_gamma   90.00000000
_symmetry_Int_Tables_number   1
_chemical_formula_structural   NaB2HO4
_chemical_formula_sum   'Na16 B32 H16 O64'
_cell_volume   1335.32995206
_cell_formula_units_Z   16
loop_
 _symmetry_equiv_pos_site_id
 _symmetry_equiv_pos_as_xyz
  1  'x, y, z'
loop_
 _atom_site_type_symbol
 _atom_site_label
 _atom_site_symmetry_multiplicity
 _atom_site_fract_x
 _atom_site_fract_y
 _atom_site_fract_z
 _atom_site_occupancy
  Na  Na0  1  0.41819500  0.52839800  0.18848600  1
  Na  Na1  1  0.91819500  0.97160200  0.81151400  1
  Na  Na2  1  0.58180500  0.02839800  0.31151400  1
  Na  Na3  1  0.08180500  0.47160200  0.68848600  1
  Na  Na4  1  0.58180500  0.47160200  0.81151400  1
  Na  Na5  1  0.08180500  0.02839800  0.18848600  1
  Na  Na6  1  0.41819500  0.97160200  0.68848600  1
  Na  Na7  1  0.91819500  0.52839800  0.31151400  1
  Na  Na8  1  0.26502600  0.47440100  0.43007400  1
  Na  Na9  1  0.76502600  0.02559900  0.56992600  1
  Na  Na10  1  0.73497400  0.97440100  0.06992600  1
  Na  Na11  1  0.23497400  0.52559900  0.93007400  1
  Na  Na12  1  0.73497400  0.52559900  0.56992600  1
  Na  Na13  1  0.23497400  0.97440100  0.43007400  1
  Na  Na14  1  0.26502600  0.02559900  0.93007400  1
  Na  Na15  1  0.76502600  0.47440100  0.06992600  1
  B  B0  1  0.07988600  0.26411400  0.33702900  1
  B  B1  1  0.57988600  0.23588600  0.66297100  1
  B  B2  1  0.92011400  0.76411400  0.16297100  1
  B  B3  1  0.42011400  0.73588600  0.83702900  1
  B  B4  1  0.92011400  0.73588600  0.66297100  1
  B  B5  1  0.42011400  0.76411400  0.33702900  1
  B  B6  1  0.07988600  0.23588600  0.83702900  1
  B  B7  1  0.57988600  0.26411400  0.16297100  1
  B  B8  1  0.90087700  0.10688500  0.38556800  1
  B  B9  1  0.40087700  0.39311500  0.61443200  1
  B  B10  1  0.09912300  0.60688500  0.11443200  1
  B  B11  1  0.59912300  0.89311500  0.88556800  1
  B  B12  1  0.09912300  0.89311500  0.61443200  1
  B  B13  1  0.59912300  0.60688500  0.38556800  1
  B  B14  1  0.90087700  0.39311500  0.88556800  1
  B  B15  1  0.40087700  0.10688500  0.11443200  1
  B  B16  1  0.82954800  0.25769700  0.26018400  1
  B  B17  1  0.32954800  0.24230300  0.73981600  1
  B  B18  1  0.17045200  0.75769700  0.23981600  1
  B  B19  1  0.67045200  0.74230300  0.76018400  1
  B  B20  1  0.17045200  0.74230300  0.73981600  1
  B  B21  1  0.67045200  0.75769700  0.26018400  1
  B  B22  1  0.82954800  0.24230300  0.76018400  1
  B  B23  1  0.32954800  0.25769700  0.23981600  1
  B  B24  1  0.95287800  0.28886100  0.48957300  1
  B  B25  1  0.45287800  0.21113900  0.51042700  1
  B  B26  1  0.04712200  0.78886100  0.01042700  1
  B  B27  1  0.54712200  0.71113900  0.98957300  1
  B  B28  1  0.04712200  0.71113900  0.51042700  1
  B  B29  1  0.54712200  0.78886100  0.48957300  1
  B  B30  1  0.95287800  0.21113900  0.98957300  1
  B  B31  1  0.45287800  0.28886100  0.01042700  1
  H  H0  1  0.93320300  0.91990300  0.41909500  1
  H  H1  1  0.43320300  0.58009700  0.58090500  1
  H  H2  1  0.06679700  0.41990300  0.08090500  1
  H  H3  1  0.56679700  0.08009700  0.91909500  1
  H  H4  1  0.06679700  0.08009700  0.58090500  1
  H  H5  1  0.56679700  0.41990300  0.41909500  1
  H  H6  1  0.93320300  0.58009700  0.91909500  1
  H  H7  1  0.43320300  0.91990300  0.08090500  1
  H  H8  1  0.84961900  0.29881400  0.60827900  1
  H  H9  1  0.34961900  0.20118600  0.39172100  1
  H  H10  1  0.15038100  0.79881400  0.89172100  1
  H  H11  1  0.65038100  0.70118600  0.10827900  1
  H  H12  1  0.15038100  0.70118600  0.39172100  1
  H  H13  1  0.65038100  0.79881400  0.60827900  1
  H  H14  1  0.84961900  0.20118600  0.10827900  1
  H  H15  1  0.34961900  0.29881400  0.89172100  1
  O  O0  1  0.97081600  0.31437400  0.26620500  1
  O  O1  1  0.47081600  0.18562600  0.73379500  1
  O  O2  1  0.02918400  0.81437400  0.23379500  1
  O  O3  1  0.52918400  0.68562600  0.76620500  1
  O  O4  1  0.02918400  0.68562600  0.73379500  1
  O  O5  1  0.52918400  0.81437400  0.26620500  1
  O  O6  1  0.97081600  0.18562600  0.76620500  1
  O  O7  1  0.47081600  0.31437400  0.23379500  1
  O  O8  1  0.23859800  0.29717300  0.31340200  1
  O  O9  1  0.73859800  0.20282700  0.68659800  1
  O  O10  1  0.76140200  0.79717300  0.18659800  1
  O  O11  1  0.26140200  0.70282700  0.81340200  1
  O  O12  1  0.76140200  0.70282700  0.68659800  1
  O  O13  1  0.26140200  0.79717300  0.31340200  1
  O  O14  1  0.23859800  0.20282700  0.81340200  1
  O  O15  1  0.73859800  0.29717300  0.18659800  1
  O  O16  1  0.05668900  0.12707300  0.35015700  1
  O  O17  1  0.55668900  0.37292700  0.64984300  1
  O  O18  1  0.94331100  0.62707300  0.14984300  1
  O  O19  1  0.44331100  0.87292700  0.85015700  1
  O  O20  1  0.94331100  0.87292700  0.64984300  1
  O  O21  1  0.44331100  0.62707300  0.35015700  1
  O  O22  1  0.05668900  0.37292700  0.85015700  1
  O  O23  1  0.55668900  0.12707300  0.14984300  1
  O  O24  1  0.04893500  0.33937000  0.42527500  1
  O  O25  1  0.54893500  0.16063000  0.57472500  1
  O  O26  1  0.95106500  0.83937000  0.07472500  1
  O  O27  1  0.45106500  0.66063000  0.92527500  1
  O  O28  1  0.95106500  0.66063000  0.57472500  1
  O  O29  1  0.45106500  0.83937000  0.42527500  1
  O  O30  1  0.04893500  0.16063000  0.92527500  1
  O  O31  1  0.54893500  0.33937000  0.07472500  1
  O  O32  1  0.78722300  0.16158800  0.31851500  1
  O  O33  1  0.28722300  0.33841200  0.68148500  1
  O  O34  1  0.21277700  0.66158800  0.18148500  1
  O  O35  1  0.71277700  0.83841200  0.81851500  1
  O  O36  1  0.21277700  0.83841200  0.68148500  1
  O  O37  1  0.71277700  0.66158800  0.31851500  1
  O  O38  1  0.78722300  0.33841200  0.81851500  1
  O  O39  1  0.28722300  0.16158800  0.18148500  1
  O  O40  1  0.88650600  0.17269800  0.47865400  1
  O  O41  1  0.38650600  0.32730200  0.52134600  1
  O  O42  1  0.11349400  0.67269800  0.02134600  1
  O  O43  1  0.61349400  0.82730200  0.97865400  1
  O  O44  1  0.11349400  0.82730200  0.52134600  1
  O  O45  1  0.61349400  0.67269800  0.47865400  1
  O  O46  1  0.88650600  0.32730200  0.97865400  1
  O  O47  1  0.38650600  0.17269800  0.02134600  1
  O  O48  1  0.85166100  0.97637200  0.39981100  1
  O  O49  1  0.35166100  0.52362800  0.60018900  1
  O  O50  1  0.14833900  0.47637200  0.10018900  1
  O  O51  1  0.64833900  0.02362800  0.89981100  1
  O  O52  1  0.14833900  0.02362800  0.60018900  1
  O  O53  1  0.64833900  0.47637200  0.39981100  1
  O  O54  1  0.85166100  0.52362800  0.89981100  1
  O  O55  1  0.35166100  0.97637200  0.10018900  1
  O  O56  1  0.91857300  0.35509300  0.57190800  1
  O  O57  1  0.41857300  0.14490700  0.42809200  1
  O  O58  1  0.08142700  0.85509300  0.92809200  1
  O  O59  1  0.58142700  0.64490700  0.07190800  1
  O  O60  1  0.08142700  0.64490700  0.42809200  1
  O  O61  1  0.58142700  0.85509300  0.57190800  1
  O  O62  1  0.91857300  0.14490700  0.07190800  1
  O  O63  1  0.41857300  0.35509300  0.92809200  1
loop_
_geom_bond_atom_site_label_1
_geom_bond_atom_site_label_2
_geom_bond_distance
_geom_bond_site_symmetry_2
Na0 O34 2.291049 1_555
Na0 O7 2.400288 1_555
Na0 O59 2.526338 1_555
Na0 O21 2.557356 1_555
Na0 O50 2.744244 1_555
Na0 O31 2.826637 1_555
Na1 O35 2.291049 1_555
Na1 O6 2.400288 1_565
Na1 O58 2.526338 1_655
Na1 O20 2.557356 1_555
Na1 O51 2.744244 1_565
Na1 O30 2.826637 1_665
Na2 O32 2.291049 1_555
Na2 O5 2.400288 1_545
Na2 O57 2.526338 1_555
Na2 O23 2.557356 1_555
Na2 O48 2.744244 1_545
Na2 O29 2.826637 1_545
Na3 O33 2.291049 1_555
Na3 O4 2.400288 1_555
Na3 O56 2.526338 1_455
Na3 O22 2.557356 1_555
Na3 O49 2.744244 1_555
Na3 O28 2.826637 1_455
Na4 O38 2.291049 1_555
Na4 O3 2.400288 1_555
Na4 O63 2.526338 1_555
Na4 O17 2.557356 1_555
Na4 O54 2.744244 1_555
Na4 O27 2.826637 1_555
Na5 O39 2.291049 1_555
Na5 O2 2.400288 1_545
Na5 O62 2.526338 1_455
Na5 O16 2.557356 1_555
Na5 O55 2.744244 1_545
Na5 O26 2.826637 1_445
Na6 O36 2.291049 1_555
Na6 O1 2.400288 1_565
Na6 O61 2.526338 1_555
Na6 O19 2.557356 1_555
Na6 O52 2.744244 1_565
Na6 O25 2.826637 1_565
Na7 O37 2.291049 1_555
Na7 O0 2.400288 1_555
Na7 O60 2.526338 1_655
Na7 O18 2.557356 1_555
Na7 O53 2.744244 1_555
Na7 O24 2.826637 1_655
Na8 O41 2.297894 1_555
Na8 O24 2.376079 1_555
Na8 O60 2.419194 1_555
Na8 O21 2.525623 1_555
Na8 O8 2.525990 1_555
Na8 O49 2.613686 1_555
Na9 O40 2.297894 1_555
Na9 O25 2.376079 1_555
Na9 O61 2.419194 1_545
Na9 O20 2.525623 1_545
Na9 O9 2.525990 1_555
Na9 O48 2.613686 1_545
Na10 O43 2.297894 1_554
Na10 O26 2.376079 1_555
Na10 O62 2.419194 1_565
Na10 O23 2.525623 1_565
Na10 O10 2.525990 1_555
Na10 O51 2.613686 1_564
Na11 O42 2.297894 1_556
Na11 O27 2.376079 1_555
Na11 O63 2.419194 1_555
Na11 O22 2.525623 1_555
Na11 O11 2.525990 1_555
Na11 O50 2.613686 1_556
Na12 O45 2.297894 1_555
Na12 O28 2.376079 1_555
Na12 O56 2.419194 1_555
Na12 O17 2.525623 1_555
Na12 O12 2.525990 1_555
Na12 O53 2.613686 1_555
Na13 O44 2.297894 1_555
Na13 O29 2.376079 1_555
Na13 O57 2.419194 1_565
Na13 O16 2.525623 1_565
Na13 O13 2.525990 1_555
Na13 O52 2.613686 1_565
Na14 O47 2.297894 1_556
Na14 O30 2.376079 1_555
Na14 O58 2.419194 1_545
Na14 O19 2.525623 1_545
Na14 O14 2.525990 1_555
Na14 O55 2.613686 1_546
Na15 O46 2.297894 1_554
Na15 O31 2.376079 1_555
Na15 O59 2.419194 1_555
Na15 O18 2.525623 1_555
Na15 O15 2.525990 1_555
Na15 O54 2.613686 1_554
B0 O16 1.475711 1_555
B0 O8 1.476639 1_555
B0 O0 1.495611 1_455
B0 O24 1.522142 1_555
B1 O17 1.475711 1_555
B1 O9 1.476639 1_555
B1 O1 1.495611 1_555
B1 O25 1.522142 1_555
B2 O18 1.475711 1_555
B2 O10 1.476639 1_555
B2 O2 1.495611 1_655
B2 O26 1.522142 1_555
B3 O19 1.475711 1_555
B3 O11 1.476639 1_555
B3 O3 1.495611 1_555
B3 O27 1.522142 1_555
B4 O20 1.475711 1_555
B4 O12 1.476639 1_555
B4 O4 1.495611 1_655
B4 O28 1.522142 1_555
B5 O21 1.475711 1_555
B5 O13 1.476639 1_555
B5 O5 1.495611 1_555
B5 O29 1.522142 1_555
B6 O22 1.475711 1_555
B6 O14 1.476639 1_555
B6 O6 1.495611 1_455
B6 O30 1.522142 1_555
B7 O23 1.475711 1_555
B7 O15 1.476639 1_555
B7 O7 1.495611 1_555
B7 O31 1.522142 1_555
B8 O48 1.460818 1_545
B8 O16 1.475551 1_655
B8 O32 1.503428 1_555
B8 O40 1.513724 1_555
B9 O49 1.460818 1_555
B9 O17 1.475551 1_555
B9 O33 1.503428 1_555
B9 O41 1.513724 1_555
B10 O50 1.460818 1_555
B10 O18 1.475551 1_455
B10 O34 1.503428 1_555
B10 O42 1.513724 1_555
B11 O51 1.460818 1_565
B11 O19 1.475551 1_555
B11 O35 1.503428 1_555
B11 O43 1.513724 1_555
B12 O52 1.460818 1_565
B12 O20 1.475551 1_455
B12 O36 1.503428 1_555
B12 O44 1.513724 1_555
B13 O53 1.460818 1_555
B13 O21 1.475551 1_555
B13 O37 1.503428 1_555
B13 O45 1.513724 1_555
B14 O54 1.460818 1_555
B14 O22 1.475551 1_655
B14 O38 1.503428 1_555
B14 O46 1.513724 1_555
B15 O55 1.460818 1_545
B15 O23 1.475551 1_555
B15 O39 1.503428 1_555
B15 O47 1.513724 1_555
B16 O32 1.369159 1_555
B16 O0 1.380589 1_555
B16 O15 1.389788 1_555
B17 O33 1.369159 1_555
B17 O1 1.380589 1_555
B17 O14 1.389788 1_555
B18 O34 1.369159 1_555
B18 O2 1.380589 1_555
B18 O13 1.389788 1_555
B19 O35 1.369159 1_555
B19 O3 1.380589 1_555
B19 O12 1.389788 1_555
B20 O36 1.369159 1_555
B20 O4 1.380589 1_555
B20 O11 1.389788 1_555
B21 O37 1.369159 1_555
B21 O5 1.380589 1_555
B21 O10 1.389788 1_555
B22 O38 1.369159 1_555
B22 O6 1.380589 1_555
B22 O9 1.389788 1_555
B23 O39 1.369159 1_555
B23 O7 1.380589 1_555
B23 O8 1.389788 1_555
B24 O24 1.360705 1_655
B24 O40 1.368839 1_555
B24 O56 1.408042 1_555
B25 O25 1.360705 1_555
B25 O41 1.368839 1_555
B25 O57 1.408042 1_555
B26 O26 1.360705 1_455
B26 O42 1.368839 1_555
B26 O58 1.408042 1_554
B27 O27 1.360705 1_555
B27 O43 1.368839 1_555
B27 O59 1.408042 1_556
B28 O28 1.360705 1_455
B28 O44 1.368839 1_555
B28 O60 1.408042 1_555
B29 O29 1.360705 1_555
B29 O45 1.368839 1_555
B29 O61 1.408042 1_555
B30 O30 1.360705 1_655
B30 O46 1.368839 1_555
B30 O62 1.408042 1_556
B31 O31 1.360705 1_555
B31 O47 1.368839 1_555
B31 O63 1.408042 1_554
H0 O48 0.972814 1_555
H1 O49 0.972814 1_555
H2 O50 0.972814 1_555
H3 O51 0.972814 1_555
H4 O52 0.972814 1_555
H5 O53 0.972814 1_555
H6 O54 0.972814 1_555
H7 O55 0.972814 1_555
H8 O56 0.997201 1_555
H9 O57 0.997201 1_555
H10 O58 0.997201 1_555
H11 O59 0.997201 1_555
H12 O60 0.997201 1_555
H13 O61 0.997201 1_555
H14 O62 0.997201 1_555
H15 O63 0.997201 1_555
