# generated using pymatgen
data_Sr3Li3Cu3(PO4)4
_symmetry_space_group_name_H-M   'P 1'
_cell_length_a   4.87419671
_cell_length_b   9.24462110
_cell_length_c   16.80139758
_cell_angle_alpha   84.54176681
_cell_angle_beta   89.99960756
_cell_angle_gamma   90.00020169
_symmetry_Int_Tables_number   1
_chemical_formula_structural   Sr3Li3Cu3(PO4)4
_chemical_formula_sum   'Sr6 Li6 Cu6 P8 O32'
_cell_volume   753.63996771
_cell_formula_units_Z   2
loop_
 _symmetry_equiv_pos_site_id
 _symmetry_equiv_pos_as_xyz
  1  'x, y, z'
loop_
 _atom_site_type_symbol
 _atom_site_label
 _atom_site_symmetry_multiplicity
 _atom_site_fract_x
 _atom_site_fract_y
 _atom_site_fract_z
 _atom_site_occupancy
  Sr  Sr0  1  0.98737061  0.97175769  0.23165510  1
  Sr  Sr1  1  0.53185335  0.54124687  0.27942427  1
  Sr  Sr2  1  0.51260868  0.47173198  0.73164866  1
  Sr  Sr3  1  0.51670088  0.49916901  0.00742703  1
  Sr  Sr4  1  0.96813424  0.04124530  0.77942153  1
  Sr  Sr5  1  0.98330918  0.99916531  0.50742048  1
  Li  Li0  1  0.07408295  0.75336383  0.71427634  1
  Li  Li1  1  0.49488580  0.81402303  0.40425283  1
  Li  Li2  1  0.98933167  0.69362486  0.10044784  1
  Li  Li3  1  0.00507771  0.31402561  0.90424936  1
  Li  Li4  1  0.42592908  0.25337297  0.21426187  1
  Li  Li5  1  0.51072280  0.19360275  0.60044035  1
  Cu  Cu0  1  0.55292859  0.82655179  0.89512286  1
  Cu  Cu1  1  0.14311124  0.64308242  0.57754548  1
  Cu  Cu2  1  0.49707951  0.49796429  0.50334135  1
  Cu  Cu3  1  0.94706019  0.32656046  0.39513897  1
  Cu  Cu4  1  0.35696019  0.14307804  0.07753068  1
  Cu  Cu5  1  0.00297245  0.99794665  0.00335744  1
  P  P0  1  0.52632400  0.89029390  0.65620422  1
  P  P1  1  0.55538033  0.83959032  0.10100640  1
  P  P2  1  0.04019341  0.61372327  0.84878337  1
  P  P3  1  0.06390483  0.66626062  0.39847386  1
  P  P4  1  0.94467793  0.33959491  0.60100135  1
  P  P5  1  0.97370735  0.39028823  0.15619191  1
  P  P6  1  0.43610918  0.16625630  0.89846101  1
  P  P7  1  0.45978092  0.11371057  0.34878852  1
  O  O0  1  0.43645199  0.99435660  0.58282767  1
  O  O1  1  0.68090129  0.99915258  0.08487163  1
  O  O2  1  0.42710883  0.94655101  0.73499100  1
  O  O3  1  0.84623199  0.88647288  0.65504305  1
  O  O4  1  0.24149688  0.84966074  0.11201457  1
  O  O5  1  0.92040738  0.77130360  0.84335888  1
  O  O6  1  0.69443094  0.76335831  0.17744665  1
  O  O7  1  0.63892335  0.75290549  0.03049750  1
  O  O8  1  0.15831233  0.75984953  0.46659947  1
  O  O9  1  0.19395180  0.74042219  0.32054958  1
  O  O10  1  0.40686748  0.73246946  0.65162109  1
  O  O11  1  0.35358510  0.61580490  0.86767346  1
  O  O12  1  0.00848655  0.55881750  0.76346669  1
  O  O13  1  0.75051076  0.66116179  0.39342422  1
  O  O14  1  0.89355754  0.50637218  0.91024243  1
  O  O15  1  0.19085491  0.50798672  0.41631793  1
  O  O16  1  0.81918021  0.49914485  0.58486402  1
  O  O17  1  0.06360075  0.49438074  0.08283078  1
  O  O18  1  0.25852428  0.34962613  0.61199343  1
  O  O19  1  0.07291439  0.44653900  0.23499376  1
  O  O20  1  0.65379825  0.38647832  0.15503248  1
  O  O21  1  0.57959505  0.27131550  0.34335214  1
  O  O22  1  0.80559757  0.26334006  0.67742206  1
  O  O23  1  0.86107634  0.25290145  0.53046676  1
  O  O24  1  0.34164645  0.25985653  0.96659882  1
  O  O25  1  0.30598953  0.24041716  0.82054617  1
  O  O26  1  0.09315685  0.23248557  0.15160466  1
  O  O27  1  0.74941420  0.16117823  0.89341260  1
  O  O28  1  0.14638853  0.11580924  0.36767590  1
  O  O29  1  0.49146768  0.05882651  0.26346150  1
  O  O30  1  0.30913767  0.00797912  0.91631953  1
  O  O31  1  0.60640608  0.00638311  0.41022652  1
loop_
_geom_bond_atom_site_label_1
_geom_bond_atom_site_label_2
_geom_bond_distance
_geom_bond_site_symmetry_2
Li0 O3 1.872197 1_455
Li0 O12 1.933163 1_555
Li0 O10 1.953257 1_555
Li0 O5 2.315282 1_455
Li1 O31 1.871317 1_565
Li1 O13 1.905631 1_555
Li1 O8 1.984839 1_555
Li1 O9 2.185023 1_555
Li2 O4 1.919001 1_655
Li2 O17 1.927461 1_655
Li2 O6 2.077013 1_555
Li2 O7 2.115705 1_555
Li3 O14 1.871248 1_455
Li3 O27 1.905676 1_455
Li3 O24 1.984850 1_555
Li3 O25 2.184966 1_555
Li4 O20 1.872185 1_555
Li4 O29 1.933175 1_555
Li4 O26 1.953226 1_555
Li4 O21 2.315402 1_555
Li5 O18 1.918983 1_555
Li5 O0 1.927462 1_545
Li5 O22 2.076760 1_555
Li5 O23 2.115715 1_555
Cu0 O5 2.076057 1_555
Cu0 O30 2.113193 1_565
Cu0 O11 2.263511 1_555
Cu0 O7 2.349025 1_556
Cu1 O10 2.019963 1_555
Cu1 O16 2.060955 1_455
Cu1 O8 2.064610 1_555
Cu2 O16 2.084203 1_555
Cu2 O15 2.085300 1_555
Cu2 O18 2.467542 1_555
Cu2 O13 2.585055 1_555
Cu3 O21 2.076168 1_555
Cu3 O15 2.113119 1_655
Cu3 O28 2.263583 1_655
Cu3 O23 2.348292 1_555
Cu4 O26 2.020173 1_555
Cu4 O1 2.060929 1_545
Cu4 O24 2.064474 1_554
Cu5 O1 2.084002 1_455
Cu5 O30 2.085246 1_564
Cu5 O4 2.467311 1_555
Cu5 O27 2.585837 1_464
O0 P0 1.552941 1_555
O0 Sr5 2.544571 1_455
O0 Sr5 2.949780 1_555
O1 P1 1.596127 1_555
O1 Sr0 2.873807 1_555
O2 P0 1.545173 1_555
O2 Sr4 2.540212 1_465
O2 Sr4 2.898628 1_565
O3 P0 1.559859 1_555
O3 Sr5 2.681768 1_555
O3 Sr4 2.708520 1_565
O4 P1 1.544938 1_555
O4 Sr0 2.698252 1_455
O5 P2 1.564010 1_655
O5 Sr4 2.631666 1_565
O6 P1 1.559896 1_555
O6 Sr0 2.629402 1_555
O6 Sr1 2.666543 1_555
O7 P1 1.546608 1_555
O7 Sr3 2.486043 1_555
O8 P3 1.568066 1_555
O8 Sr5 2.526125 1_455
O9 P3 1.554080 1_555
O9 Sr1 2.611985 1_555
O9 Sr0 2.685258 1_455
O10 P0 1.579582 1_555
O10 Sr2 2.695755 1_555
O11 P2 1.560649 1_555
O11 Sr3 2.612756 1_556
O11 Sr2 2.859528 1_555
O12 P2 1.573116 1_555
O12 Sr2 2.618726 1_455
O12 Sr2 2.655858 1_555
O13 P3 1.530873 1_655
O13 Sr1 2.537196 1_555
O14 P2 1.538516 1_655
O14 Sr3 2.454377 1_556
O15 P3 1.590670 1_555
O15 Sr1 2.830640 1_555
O16 P4 1.595989 1_555
O16 Sr2 2.874066 1_555
O17 P5 1.552923 1_455
O17 Sr3 2.544352 1_555
O17 Sr3 2.949964 1_455
O18 P4 1.544701 1_455
O18 Sr2 2.698402 1_555
O19 P5 1.545366 1_455
O19 Sr1 2.540109 1_555
O19 Sr1 2.898823 1_455
O20 P5 1.559861 1_555
O20 Sr3 2.681542 1_555
O20 Sr1 2.708724 1_555
O21 P7 1.564262 1_555
O21 Sr1 2.631538 1_555
O22 P4 1.559772 1_555
O22 Sr2 2.629607 1_555
O22 Sr4 2.666594 1_555
O23 P4 1.547085 1_555
O23 Sr5 2.485955 1_545
O24 P6 1.568367 1_555
O24 Sr3 2.526223 1_556
O25 P6 1.554104 1_555
O25 Sr4 2.611813 1_455
O25 Sr2 2.685197 1_555
O26 P5 1.579395 1_455
O26 Sr0 2.695874 1_445
O27 P6 1.530431 1_555
O27 Sr4 2.537283 1_555
O28 P7 1.560644 1_555
O28 Sr5 2.612585 1_445
O28 Sr0 2.859363 1_445
O29 P7 1.573186 1_555
O29 Sr0 2.618741 1_545
O29 Sr0 2.655652 1_445
O30 P6 1.590757 1_555
O30 Sr4 2.830735 1_455
O31 P7 1.538159 1_555
O31 Sr5 2.454663 1_545
