# generated using pymatgen
data_Li2V(CO3)3
_symmetry_space_group_name_H-M   'P 1'
_cell_length_a   6.24072639
_cell_length_b   6.24072639
_cell_length_c   9.79498000
_cell_angle_alpha   90.00000000
_cell_angle_beta   90.00000000
_cell_angle_gamma   101.05850627
_symmetry_Int_Tables_number   1
_chemical_formula_structural   Li2V(CO3)3
_chemical_formula_sum   'Li4 V2 C6 O18'
_cell_volume   374.39839459
_cell_formula_units_Z   2
loop_
 _symmetry_equiv_pos_site_id
 _symmetry_equiv_pos_as_xyz
  1  'x, y, z'
loop_
 _atom_site_type_symbol
 _atom_site_label
 _atom_site_symmetry_multiplicity
 _atom_site_fract_x
 _atom_site_fract_y
 _atom_site_fract_z
 _atom_site_occupancy
  Li  Li0  1  0.32618400  0.36840200  0.25000000  1
  Li  Li1  1  0.17665700  0.74746400  0.25000000  1
  Li  Li2  1  0.74746400  0.17665700  0.75000000  1
  Li  Li3  1  0.36840200  0.32618400  0.75000000  1
  V  V0  1  0.67227100  0.08460800  0.25000000  1
  V  V1  1  0.08460800  0.67227100  0.75000000  1
  C  C0  1  0.57255800  0.16704000  0.01839300  1
  C  C1  1  0.74269100  0.70955600  0.25000000  1
  C  C2  1  0.57255800  0.16704000  0.48160700  1
  C  C3  1  0.16704000  0.57255800  0.51839300  1
  C  C4  1  0.70955600  0.74269100  0.75000000  1
  C  C5  1  0.16704000  0.57255800  0.98160700  1
  O  O0  1  0.76772800  0.13980500  0.06244100  1
  O  O1  1  0.19670300  0.53185400  0.10318100  1
  O  O2  1  0.43529400  0.15343300  0.12153800  1
  O  O3  1  0.74985700  0.51249900  0.25000000  1
  O  O4  1  0.55024300  0.78114700  0.25000000  1
  O  O5  1  0.90671000  0.87502000  0.25000000  1
  O  O6  1  0.43529400  0.15343300  0.37846200  1
  O  O7  1  0.19670300  0.53185400  0.39681900  1
  O  O8  1  0.76772800  0.13980500  0.43755900  1
  O  O9  1  0.13980500  0.76772800  0.56244100  1
  O  O10  1  0.53185400  0.19670300  0.60318100  1
  O  O11  1  0.15343300  0.43529400  0.62153800  1
  O  O12  1  0.78114700  0.55024300  0.75000000  1
  O  O13  1  0.51249900  0.74985700  0.75000000  1
  O  O14  1  0.87502000  0.90671000  0.75000000  1
  O  O15  1  0.15343300  0.43529400  0.87846200  1
  O  O16  1  0.53185400  0.19670300  0.89681900  1
  O  O17  1  0.13980500  0.76772800  0.93755900  1
loop_
_geom_bond_atom_site_label_1
_geom_bond_atom_site_label_2
_geom_bond_distance
_geom_bond_site_symmetry_2
Li0 O7 2.019352 1_555
Li0 O1 2.019352 1_555
Li0 O2 2.048699 1_555
Li0 O6 2.048699 1_555
Li1 O7 1.989690 1_555
Li1 O1 1.989690 1_555
Li1 O5 1.996558 1_455
Li1 O4 2.300398 1_555
Li2 O16 1.989690 1_555
Li2 O10 1.989690 1_555
Li2 O14 1.996558 1_545
Li2 O12 2.300398 1_555
Li3 O16 2.019352 1_555
Li3 O10 2.019352 1_555
Li3 O11 2.048699 1_555
Li3 O15 2.048699 1_555
C0 O16 1.238901 1_554
C0 O2 1.316749 1_555
C0 O0 1.333411 1_555
C1 O3 1.239134 1_555
C1 O5 1.307121 1_555
C1 O4 1.359374 1_555
C2 O10 1.238901 1_555
C2 O6 1.316749 1_555
C2 O8 1.333411 1_555
C3 O7 1.238901 1_555
C3 O11 1.316749 1_555
C3 O9 1.333411 1_555
C4 O13 1.239134 1_555
C4 O14 1.307121 1_555
C4 O12 1.359374 1_555
C5 O1 1.238901 1_556
C5 O15 1.316749 1_555
C5 O17 1.333411 1_555
O0 V0 1.941621 1_555
O2 V0 2.049052 1_555
O3 V0 2.620917 1_555
O4 V0 1.900848 1_565
O5 V0 2.141381 1_565
O6 V0 2.049052 1_555
O8 V0 1.941621 1_555
O9 V1 1.941621 1_555
O11 V1 2.049052 1_555
O12 V1 1.900848 1_655
O13 V1 2.620917 1_555
O14 V1 2.141381 1_655
O15 V1 2.049052 1_555
O17 V1 1.941621 1_555
