# generated using pymatgen
data_Li6Fe5NiO12
_symmetry_space_group_name_H-M   'P 1'
_cell_length_a   5.03586778
_cell_length_b   5.03586778
_cell_length_c   10.00151600
_cell_angle_alpha   85.75539749
_cell_angle_beta   85.75539749
_cell_angle_gamma   120.16333606
_symmetry_Int_Tables_number   1
_chemical_formula_structural   Li6Fe5NiO12
_chemical_formula_sum   'Li6 Fe5 Ni1 O12'
_cell_volume   216.86659390
_cell_formula_units_Z   1
loop_
 _symmetry_equiv_pos_site_id
 _symmetry_equiv_pos_as_xyz
  1  'x, y, z'
loop_
 _atom_site_type_symbol
 _atom_site_label
 _atom_site_symmetry_multiplicity
 _atom_site_fract_x
 _atom_site_fract_y
 _atom_site_fract_z
 _atom_site_occupancy
  Li  Li0  1  0.11245700  0.11384500  0.74614200  1
  Li  Li1  1  0.56178100  0.23140000  0.25816900  1
  Li  Li2  1  0.22600400  0.55669900  0.26092400  1
  Li  Li3  1  0.76860000  0.43821900  0.74183100  1
  Li  Li4  1  0.44330100  0.77399600  0.73907600  1
  Li  Li5  1  0.88615500  0.88754300  0.25385800  1
  Fe  Fe0  1  0.49958100  0.50041900  0.50000000  1
  Fe  Fe1  1  0.83388700  0.16611300  0.50000000  1
  Fe  Fe2  1  0.16600300  0.83399700  0.50000000  1
  Fe  Fe3  1  0.66731500  0.33268500  0.00000000  1
  Fe  Fe4  1  0.33263300  0.66736700  0.00000000  1
  Ni  Ni0  1  0.99937900  0.00062100  0.00000000  1
  O  O0  1  0.21617300  0.21648400  0.38420700  1
  O  O1  1  0.70958500  0.05594600  0.88845200  1
  O  O2  1  0.01647300  0.68901700  0.89084500  1
  O  O3  1  0.46743300  0.15048900  0.61613000  1
  O  O4  1  0.15247000  0.46879700  0.61676800  1
  O  O5  1  0.38266600  0.36296900  0.89143700  1
  O  O6  1  0.63703100  0.61733400  0.10856300  1
  O  O7  1  0.84951100  0.53256700  0.38387000  1
  O  O8  1  0.53120300  0.84753000  0.38323200  1
  O  O9  1  0.94405400  0.29041500  0.11154800  1
  O  O10  1  0.31098300  0.98352700  0.10915500  1
  O  O11  1  0.78351600  0.78382700  0.61579300  1
loop_
_geom_bond_atom_site_label_1
_geom_bond_atom_site_label_2
_geom_bond_distance
_geom_bond_site_symmetry_2
Li0 O4 2.041340 1_555
Li0 O3 2.051664 1_555
Li0 O5 2.093861 1_555
Li0 O11 2.253761 1_445
Li0 O1 2.267943 1_455
Li0 O2 2.303047 1_545
Li1 O0 2.038048 1_555
Li1 O7 2.079365 1_555
Li1 O10 2.084270 1_545
Li1 O8 2.153978 1_545
Li1 O9 2.210730 1_555
Li1 O6 2.214764 1_555
Li2 O0 2.012738 1_555
Li2 O8 2.070026 1_555
Li2 O7 2.126669 1_455
Li2 O9 2.177932 1_455
Li2 O6 2.351336 1_555
Li2 O10 2.367243 1_555
Li3 O11 2.038048 1_555
Li3 O3 2.079365 1_555
Li3 O2 2.084270 1_655
Li3 O4 2.153978 1_655
Li3 O1 2.210730 1_555
Li3 O5 2.214764 1_555
Li4 O11 2.012738 1_555
Li4 O4 2.070026 1_555
Li4 O3 2.126669 1_565
Li4 O1 2.177932 1_565
Li4 O5 2.351336 1_555
Li4 O2 2.367243 1_555
Li5 O8 2.041340 1_555
Li5 O7 2.051664 1_555
Li5 O6 2.093861 1_555
Li5 O0 2.253761 1_665
Li5 O9 2.267943 1_565
Li5 O10 2.303047 1_655
Fe0 O4 1.958397 1_555
Fe0 O8 1.958397 1_555
Fe0 O0 1.965107 1_555
Fe0 O11 1.965107 1_555
Fe0 O3 1.965472 1_555
Fe0 O7 1.965472 1_555
Fe1 O11 2.060937 1_545
Fe1 O0 2.060937 1_655
Fe1 O7 2.069793 1_555
Fe1 O3 2.069793 1_555
Fe1 O8 2.084361 1_545
Fe1 O4 2.084361 1_655
Fe2 O0 2.062170 1_565
Fe2 O11 2.062170 1_455
Fe2 O4 2.072474 1_555
Fe2 O8 2.072474 1_555
Fe2 O7 2.072970 1_455
Fe2 O3 2.072970 1_565
Fe3 O5 1.919004 1_554
Fe3 O6 1.919004 1_555
Fe3 O9 1.930099 1_555
Fe3 O1 1.930099 1_554
Fe3 O10 1.938718 1_545
Fe3 O2 1.938718 1_654
Fe4 O2 2.037832 1_554
Fe4 O10 2.037832 1_555
Fe4 O5 2.046036 1_554
Fe4 O6 2.046036 1_555
Fe4 O1 2.075506 1_564
Fe4 O9 2.075506 1_455
Ni0 O2 2.009243 1_644
Ni0 O10 2.009243 1_645
Ni0 O1 2.013862 1_554
Ni0 O9 2.013862 1_555
Ni0 O5 2.022682 1_654
Ni0 O6 2.022682 1_545
