# generated using pymatgen
data_Li4CrO5
_symmetry_space_group_name_H-M   'P 1'
_cell_length_a   5.25965438
_cell_length_b   5.25965438
_cell_length_c   7.91609127
_cell_angle_alpha   83.51996080
_cell_angle_beta   83.51996080
_cell_angle_gamma   67.32064567
_symmetry_Int_Tables_number   1
_chemical_formula_structural   Li4CrO5
_chemical_formula_sum   'Li8 Cr2 O10'
_cell_volume   200.19147912
_cell_formula_units_Z   2
loop_
 _symmetry_equiv_pos_site_id
 _symmetry_equiv_pos_as_xyz
  1  'x, y, z'
loop_
 _atom_site_type_symbol
 _atom_site_label
 _atom_site_symmetry_multiplicity
 _atom_site_fract_x
 _atom_site_fract_y
 _atom_site_fract_z
 _atom_site_occupancy
  Li  Li0  1  0.63709500  0.96503900  0.64798200  1
  Li  Li1  1  0.96503900  0.63709500  0.14798200  1
  Li  Li2  1  0.78000100  0.43359500  0.55551400  1
  Li  Li3  1  0.43359500  0.78000100  0.05551400  1
  Li  Li4  1  0.56640500  0.21999900  0.94448600  1
  Li  Li5  1  0.21999900  0.56640500  0.44448600  1
  Li  Li6  1  0.03496100  0.36290500  0.85201800  1
  Li  Li7  1  0.36290500  0.03496100  0.35201800  1
  Cr  Cr0  1  0.17134700  0.82865300  0.75000000  1
  Cr  Cr1  1  0.82865300  0.17134700  0.25000000  1
  O  O0  1  0.98923800  0.64674800  0.65941800  1
  O  O1  1  0.64674800  0.98923800  0.15941800  1
  O  O2  1  0.40958800  0.76774700  0.57247300  1
  O  O3  1  0.76774700  0.40958800  0.07247300  1
  O  O4  1  0.87132200  0.12867800  0.75000000  1
  O  O5  1  0.12867800  0.87132200  0.25000000  1
  O  O6  1  0.23225300  0.59041200  0.92752700  1
  O  O7  1  0.59041200  0.23225300  0.42752700  1
  O  O8  1  0.35325200  0.01076200  0.84058200  1
  O  O9  1  0.01076200  0.35325200  0.34058200  1
loop_
_geom_bond_atom_site_label_1
_geom_bond_atom_site_label_2
_geom_bond_distance
_geom_bond_site_symmetry_2
Li0 O0 1.963115 1_555
Li0 O8 1.975675 1_565
Li0 O4 2.027263 1_565
Li0 O2 2.030995 1_555
Li0 O7 2.087606 1_565
Li1 O1 1.963115 1_555
Li1 O9 1.975675 1_655
Li1 O5 2.027263 1_655
Li1 O3 2.030995 1_555
Li1 O6 2.087606 1_654
Li2 O9 1.961425 1_655
Li2 O4 2.046606 1_555
Li2 O2 2.063084 1_555
Li2 O7 2.104005 1_555
Li2 O0 2.123309 1_555
Li3 O8 1.961425 1_564
Li3 O5 2.046606 1_555
Li3 O3 2.063084 1_555
Li3 O6 2.104005 1_554
Li3 O1 2.123309 1_555
Li4 O1 1.961425 1_546
Li4 O4 2.046606 1_555
Li4 O6 2.063084 1_555
Li4 O3 2.104005 1_556
Li4 O8 2.123309 1_555
Li5 O0 1.961425 1_455
Li5 O5 2.046606 1_555
Li5 O7 2.063084 1_555
Li5 O2 2.104005 1_555
Li5 O9 2.123309 1_555
Li6 O8 1.963115 1_555
Li6 O0 1.975675 1_455
Li6 O4 2.027263 1_455
Li6 O6 2.030995 1_555
Li6 O3 2.087606 1_456
Li7 O9 1.963115 1_555
Li7 O1 1.975675 1_545
Li7 O5 2.027263 1_545
Li7 O7 2.030995 1_555
Li7 O2 2.087606 1_545
Cr0 O6 1.744222 1_555
Cr0 O2 1.744222 1_555
Cr0 O4 1.749301 1_465
Cr0 O8 1.834000 1_565
Cr0 O0 1.834000 1_455
Cr1 O7 1.744222 1_555
Cr1 O3 1.744222 1_555
Cr1 O5 1.749301 1_645
Cr1 O9 1.834000 1_655
Cr1 O1 1.834000 1_545
