# generated using pymatgen
data_Li3CuF6
_symmetry_space_group_name_H-M   'P 1'
_cell_length_a   4.91435068
_cell_length_b   8.26103464
_cell_length_c   9.46378115
_cell_angle_alpha   90.00000000
_cell_angle_beta   90.00000000
_cell_angle_gamma   90.00000000
_symmetry_Int_Tables_number   1
_chemical_formula_structural   Li3CuF6
_chemical_formula_sum   'Li12 Cu4 F24'
_cell_volume   384.20700225
_cell_formula_units_Z   4
loop_
 _symmetry_equiv_pos_site_id
 _symmetry_equiv_pos_as_xyz
  1  'x, y, z'
loop_
 _atom_site_type_symbol
 _atom_site_label
 _atom_site_symmetry_multiplicity
 _atom_site_fract_x
 _atom_site_fract_y
 _atom_site_fract_z
 _atom_site_occupancy
  Li  Li0  1  0.49471704  0.44729685  0.10490180  1
  Li  Li1  1  0.00626685  0.86144234  0.12468060  1
  Li  Li2  1  0.50294420  0.05338642  0.14876129  1
  Li  Li3  1  0.00294420  0.55338642  0.35123871  1
  Li  Li4  1  0.50626685  0.36144234  0.37531940  1
  Li  Li5  1  0.99471704  0.94729685  0.39509820  1
  Li  Li6  1  0.49471704  0.05270315  0.60490180  1
  Li  Li7  1  0.00626685  0.63855766  0.62468060  1
  Li  Li8  1  0.50294420  0.44661358  0.64876129  1
  Li  Li9  1  0.00294420  0.94661358  0.85123871  1
  Li  Li10  1  0.50626685  0.13855766  0.87531940  1
  Li  Li11  1  0.99471704  0.55270315  0.89509820  1
  Cu  Cu0  1  -0.00025759  0.23963891  0.12862641  1
  Cu  Cu1  1  0.49974241  0.73963891  0.37137359  1
  Cu  Cu2  1  -0.00025759  0.26036109  0.62862641  1
  Cu  Cu3  1  0.49974241  0.76036109  0.87137359  1
  F  F0  1  0.82430031  0.08195648  0.01160243  1
  F  F1  1  0.32499284  0.24493376  0.02270160  1
  F  F2  1  0.84331582  0.40716853  0.02339474  1
  F  F3  1  0.14687799  0.06044240  0.22929873  1
  F  F4  1  0.68273920  0.23359358  0.24023374  1
  F  F5  1  0.18131534  0.38932610  0.24791844  1
  F  F6  1  0.68131534  0.88932610  0.25208156  1
  F  F7  1  0.18273920  0.73359358  0.25976626  1
  F  F8  1  0.64687799  0.56044240  0.27070127  1
  F  F9  1  0.34331582  0.90716853  0.47660526  1
  F  F10  1  0.82499284  0.74493376  0.47729840  1
  F  F11  1  0.32430031  0.58195648  0.48839757  1
  F  F12  1  0.82430031  0.41804352  0.51160243  1
  F  F13  1  0.32499284  0.25506624  0.52270160  1
  F  F14  1  0.84331582  0.09283147  0.52339474  1
  F  F15  1  0.14687799  0.43955760  0.72929873  1
  F  F16  1  0.68273920  0.26640642  0.74023374  1
  F  F17  1  0.18131534  0.11067390  0.74791844  1
  F  F18  1  0.68131534  0.61067390  0.75208156  1
  F  F19  1  0.18273920  0.76640642  0.75976626  1
  F  F20  1  0.64687799  0.93955760  0.77070127  1
  F  F21  1  0.34331582  0.59283147  0.97660526  1
  F  F22  1  0.82499284  0.75506624  0.97729840  1
  F  F23  1  0.32430031  0.91804352  0.98839757  1
loop_
_geom_bond_atom_site_label_1
_geom_bond_atom_site_label_2
_geom_bond_distance
_geom_bond_site_symmetry_2
Cu0 F2 1.870325 1_455
Cu0 F4 1.882831 1_455
Cu0 F1 1.887242 1_555
Cu0 F5 1.897332 1_555
Cu0 F3 1.903151 1_555
Cu0 F0 1.914866 1_455
Cu1 F9 1.870325 1_555
Cu1 F7 1.882831 1_555
Cu1 F10 1.887242 1_555
Cu1 F6 1.897332 1_555
Cu1 F8 1.903151 1_555
Cu1 F11 1.914866 1_555
Cu2 F14 1.870325 1_455
Cu2 F16 1.882831 1_455
Cu2 F13 1.887242 1_555
Cu2 F17 1.897332 1_555
Cu2 F15 1.903151 1_555
Cu2 F12 1.914866 1_455
Cu3 F21 1.870325 1_555
Cu3 F19 1.882831 1_555
Cu3 F22 1.887242 1_555
Cu3 F18 1.897332 1_555
Cu3 F20 1.903151 1_555
Cu3 F23 1.914866 1_555
F0 Li2 2.057831 1_555
F0 Li9 2.079442 1_644
F0 Li10 2.079625 1_554
F0 Li1 2.294209 1_645
F1 Li10 1.873846 1_554
F1 Li0 2.023744 1_555
F1 Li2 2.166092 1_555
F2 Li11 1.863665 1_554
F2 Li0 1.907809 1_555
F3 Li2 1.909515 1_555
F3 Li5 1.973542 1_445
F3 Li1 2.039687 1_545
F4 Li4 1.871352 1_555
F4 Li2 1.935541 1_555
F4 Li0 2.368710 1_555
F5 Li3 1.887152 1_555
F5 Li4 2.014183 1_555
F5 Li0 2.105554 1_555
F6 Li2 1.887152 1_565
F6 Li1 2.014183 1_655
F6 Li5 2.105554 1_555
F7 Li1 1.871352 1_555
F7 Li3 1.935541 1_555
F7 Li5 2.368710 1_455
F8 Li3 1.909515 1_655
F8 Li0 1.973542 1_555
F8 Li4 2.039687 1_555
F9 Li6 1.863665 1_565
F9 Li5 1.907809 1_455
F10 Li7 1.873846 1_655
F10 Li5 2.023744 1_555
F10 Li3 2.166092 1_655
F11 Li3 2.057831 1_555
F11 Li8 2.079442 1_555
F11 Li7 2.079625 1_555
F11 Li4 2.294209 1_555
F12 Li8 2.057831 1_555
F12 Li3 2.079442 1_655
F12 Li4 2.079625 1_555
F12 Li7 2.294209 1_655
F13 Li4 1.873846 1_555
F13 Li6 2.023744 1_555
F13 Li8 2.166092 1_555
F14 Li5 1.863665 1_545
F14 Li6 1.907809 1_555
F15 Li8 1.909515 1_555
F15 Li11 1.973542 1_455
F15 Li7 2.039687 1_555
F16 Li10 1.871352 1_555
F16 Li8 1.935541 1_555
F16 Li6 2.368710 1_555
F17 Li9 1.887152 1_545
F17 Li10 2.014183 1_555
F17 Li6 2.105554 1_555
F18 Li8 1.887152 1_555
F18 Li7 2.014183 1_655
F18 Li11 2.105554 1_555
F19 Li7 1.871352 1_555
F19 Li9 1.935541 1_555
F19 Li11 2.368710 1_455
F20 Li9 1.909515 1_655
F20 Li6 1.973542 1_565
F20 Li10 2.039687 1_565
F21 Li0 1.863665 1_556
F21 Li11 1.907809 1_455
F22 Li1 1.873846 1_656
F22 Li11 2.023744 1_555
F22 Li9 2.166092 1_655
F23 Li9 2.057831 1_555
F23 Li2 2.079442 1_566
F23 Li1 2.079625 1_556
F23 Li10 2.294209 1_565
