# generated using pymatgen
data_AlCoO3
_symmetry_space_group_name_H-M   'P 1'
_cell_length_a   4.85975372
_cell_length_b   5.32559542
_cell_length_c   4.96477640
_cell_angle_alpha   87.24563963
_cell_angle_beta   59.51777561
_cell_angle_gamma   116.01965390
_symmetry_Int_Tables_number   1
_chemical_formula_structural   AlCoO3
_chemical_formula_sum   'Al2 Co2 O6'
_cell_volume   93.23907440
_cell_formula_units_Z   2
loop_
 _symmetry_equiv_pos_site_id
 _symmetry_equiv_pos_as_xyz
  1  'x, y, z'
loop_
 _atom_site_type_symbol
 _atom_site_label
 _atom_site_symmetry_multiplicity
 _atom_site_fract_x
 _atom_site_fract_y
 _atom_site_fract_z
 _atom_site_occupancy
  Al  Al0  1  0.30894000  0.45589800  0.84486700  1
  Al  Al1  1  0.69975800  0.54902300  0.15070100  1
  Co  Co0  1  0.30422900  0.94769200  0.34465100  1
  Co  Co1  1  0.69804800  0.06487400  0.66227000  1
  O  O0  1  0.79953300  0.73702000  0.75767700  1
  O  O1  1  0.81161400  0.25634500  0.95623600  1
  O  O2  1  0.49037700  0.73301900  0.43474600  1
  O  O3  1  0.50126900  0.27306400  0.56279900  1
  O  O4  1  0.18862400  0.73552200  0.04001900  1
  O  O5  1  0.19760900  0.24754200  0.24603300  1
loop_
_geom_bond_atom_site_label_1
_geom_bond_atom_site_label_2
_geom_bond_distance
_geom_bond_site_symmetry_2
Al0 O3 1.839676 1_555
Al0 O1 1.900182 1_455
Al0 O5 1.912711 1_556
Al0 O4 1.956038 1_556
Al0 O2 1.962017 1_555
Al0 O0 1.967747 1_555
Al1 O0 1.863170 1_554
Al1 O4 1.866950 1_655
Al1 O2 1.880443 1_555
Al1 O3 1.934249 1_555
Al1 O1 2.003168 1_554
Al1 O5 2.018565 1_555
Co0 O2 1.895854 1_555
Co0 O0 1.934259 1_455
Co0 O1 1.953419 1_564
Co0 O5 1.991584 1_565
Co0 O4 2.085466 1_555
Co0 O3 2.206651 1_565
Co1 O3 1.935058 1_555
Co1 O5 1.937930 1_655
Co1 O4 1.971375 1_546
Co1 O1 1.985176 1_555
Co1 O0 2.104571 1_545
Co1 O2 2.280698 1_545
