# generated using pymatgen
data_Na5Cr2As(CO4)4
_symmetry_space_group_name_H-M   'P 1'
_cell_length_a   9.93880050
_cell_length_b   9.92761808
_cell_length_c   9.87907514
_cell_angle_alpha   60.23639869
_cell_angle_beta   60.12386350
_cell_angle_gamma   59.63973781
_symmetry_Int_Tables_number   1
_chemical_formula_structural   Na5Cr2As(CO4)4
_chemical_formula_sum   'Na10 Cr4 As2 C8 O32'
_cell_volume   689.21356293
_cell_formula_units_Z   2
loop_
 _symmetry_equiv_pos_site_id
 _symmetry_equiv_pos_as_xyz
  1  'x, y, z'
loop_
 _atom_site_type_symbol
 _atom_site_label
 _atom_site_symmetry_multiplicity
 _atom_site_fract_x
 _atom_site_fract_y
 _atom_site_fract_z
 _atom_site_occupancy
  Na  Na0  1  0.67412600  0.06984500  0.84198600  1
  Na  Na1  1  0.06882400  0.67365400  0.84315200  1
  Na  Na2  1  0.40801400  0.83595700  0.57587400  1
  Na  Na3  1  0.83562900  0.40684800  0.57634600  1
  Na  Na4  1  0.67084500  0.67084500  0.82915500  1
  Na  Na5  1  0.06984500  0.67412600  0.41404300  1
  Na  Na6  1  0.67365400  0.06882400  0.41437100  1
  Na  Na7  1  0.42084500  0.42084500  0.57915500  1
  Na  Na8  1  0.83595700  0.40801400  0.18015500  1
  Na  Na9  1  0.40684800  0.83562900  0.18117600  1
  Cr  Cr0  1  0.75228600  0.24729400  0.00065700  1
  Cr  Cr1  1  0.24729400  0.75228600  0.99976300  1
  Cr  Cr2  1  0.24934300  0.25023700  0.49771400  1
  Cr  Cr3  1  0.25023700  0.24934300  0.00270600  1
  As  As0  1  0.62687300  0.62687300  0.37312700  1
  As  As1  1  0.87687300  0.87687300  0.62312700  1
  C  C0  1  0.46254100  0.46252100  0.86227200  1
  C  C1  1  0.04085600  0.03825800  0.78566500  1
  C  C2  1  0.38772800  0.03733400  0.78745900  1
  C  C3  1  0.03733400  0.38772800  0.78747900  1
  C  C4  1  0.46433500  0.11477900  0.20914400  1
  C  C5  1  0.11477900  0.46433500  0.21174200  1
  C  C6  1  0.46252100  0.46254100  0.21266600  1
  C  C7  1  0.03825800  0.04085600  0.13522100  1
  O  O0  1  0.43668400  0.34796500  0.85962200  1
  O  O1  1  0.06572200  0.89447400  0.89852200  1
  O  O2  1  0.34747000  0.60649500  0.85854300  1
  O  O3  1  0.89583800  0.15349600  0.81103000  1
  O  O4  1  0.60523100  0.43607100  0.86054800  1
  O  O5  1  0.41294900  0.69435400  0.44663600  1
  O  O6  1  0.69435400  0.41294900  0.44606200  1
  O  O7  1  0.15694800  0.06511300  0.64602800  1
  O  O8  1  0.89427000  0.39037800  0.90203500  1
  O  O9  1  0.39037800  0.89427000  0.81331600  1
  O  O10  1  0.68788300  0.68861100  0.16227100  1
  O  O11  1  0.68861100  0.68788300  0.46123600  1
  O  O12  1  0.35147800  0.10871800  0.18427800  1
  O  O13  1  0.10871800  0.35147800  0.35552600  1
  O  O14  1  0.06250800  0.39145700  0.64350500  1
  O  O15  1  0.39145700  0.06250800  0.90253000  1
  O  O16  1  0.11036400  0.43897000  0.09650400  1
  O  O17  1  0.43897000  0.11036400  0.35416200  1
  O  O18  1  0.38945200  0.15185000  0.64476900  1
  O  O19  1  0.15185000  0.38945200  0.81392900  1
  O  O20  1  0.80393800  0.80336400  0.55564600  1
  O  O21  1  0.80336400  0.80393800  0.83705100  1
  O  O22  1  0.60397200  0.11808800  0.09305200  1
  O  O23  1  0.11808800  0.60397200  0.18488700  1
  O  O24  1  0.34796500  0.43668400  0.35573000  1
  O  O25  1  0.78876400  0.08772900  0.56138900  1
  O  O26  1  0.08772900  0.78876400  0.56211700  1
  O  O27  1  0.89447400  0.06572200  0.14128200  1
  O  O28  1  0.60649500  0.34747000  0.18749200  1
  O  O29  1  0.15349600  0.89583800  0.13963600  1
  O  O30  1  0.43607100  0.60523100  0.09815000  1
  O  O31  1  0.06511300  0.15694800  0.13191200  1
loop_
_geom_bond_atom_site_label_1
_geom_bond_atom_site_label_2
_geom_bond_distance
_geom_bond_site_symmetry_2
Na0 O21 2.293178 1_545
Na0 O25 2.362878 1_555
Na0 O22 2.446705 1_556
Na0 O3 2.562256 1_555
Na0 O0 2.589262 1_555
Na0 O15 2.597167 1_555
Na1 O21 2.295410 1_455
Na1 O26 2.365742 1_555
Na1 O16 2.475999 1_556
Na1 O1 2.492274 1_555
Na1 O2 2.567022 1_555
Na1 O19 2.634902 1_555
Na2 O5 2.293169 1_555
Na2 O11 2.362875 1_555
Na2 O7 2.446710 1_565
Na2 O17 2.562256 1_565
Na2 O9 2.589256 1_555
Na2 O2 2.597167 1_555
Na3 O6 2.295393 1_555
Na3 O11 2.365737 1_555
Na3 O3 2.476001 1_555
Na3 O13 2.492279 1_655
Na3 O14 2.567032 1_655
Na3 O4 2.634900 1_555
Na4 O21 2.334623 1_555
Na4 O20 2.334629 1_555
Na4 O8 2.560149 1_555
Na4 O9 2.560151 1_555
Na4 O30 2.563421 1_556
Na4 O4 2.563421 1_555
Na5 O20 2.293174 1_455
Na5 O26 2.362869 1_555
Na5 O23 2.446714 1_555
Na5 O29 2.562256 1_555
Na5 O24 2.589261 1_555
Na5 O14 2.597167 1_555
Na6 O20 2.295404 1_545
Na6 O25 2.365724 1_555
Na6 O17 2.476006 1_555
Na6 O27 2.492280 1_555
Na6 O28 2.567027 1_555
Na6 O18 2.634898 1_555
Na7 O5 2.334632 1_555
Na7 O6 2.334632 1_555
Na7 O24 2.560144 1_555
Na7 O0 2.560154 1_555
Na7 O18 2.563421 1_555
Na7 O19 2.563421 1_555
Na8 O6 2.293177 1_555
Na8 O10 2.362877 1_555
Na8 O31 2.446708 1_655
Na8 O16 2.562256 1_655
Na8 O8 2.589266 1_554
Na8 O28 2.597167 1_555
Na9 O5 2.295410 1_555
Na9 O10 2.365741 1_555
Na9 O29 2.475996 1_555
Na9 O12 2.492283 1_565
Na9 O15 2.567025 1_564
Na9 O30 2.634893 1_555
Cr0 O22 2.014897 1_555
Cr0 O27 2.017646 1_555
Cr0 O3 2.034280 1_554
Cr0 O28 2.048601 1_555
Cr0 O4 2.057992 1_554
Cr0 O8 2.059341 1_554
Cr1 O23 2.014895 1_556
Cr1 O1 2.017646 1_555
Cr1 O29 2.034280 1_556
Cr1 O2 2.048601 1_555
Cr1 O30 2.057992 1_556
Cr1 O9 2.059343 1_555
Cr2 O7 2.014890 1_555
Cr2 O13 2.017646 1_555
Cr2 O17 2.034280 1_555
Cr2 O14 2.048601 1_555
Cr2 O18 2.057992 1_555
Cr2 O24 2.059349 1_555
Cr3 O31 2.014889 1_555
Cr3 O12 2.017646 1_555
Cr3 O16 2.034280 1_555
Cr3 O15 2.048601 1_554
Cr3 O19 2.057992 1_554
Cr3 O0 2.059349 1_554
As0 O10 1.712371 1_555
As0 O11 1.712379 1_555
As0 O5 1.732519 1_555
As0 O6 1.732519 1_555
As1 O26 1.712371 1_655
As1 O25 1.712372 1_565
As1 O21 1.732519 1_555
As1 O20 1.732527 1_555
C0 O4 1.297836 1_555
C0 O2 1.299825 1_555
C0 O0 1.300696 1_555
C1 O7 1.290523 1_555
C1 O1 1.295956 1_545
C1 O3 1.306505 1_455
C2 O18 1.297836 1_555
C2 O15 1.299825 1_555
C2 O9 1.300706 1_545
C3 O19 1.297836 1_555
C3 O14 1.299825 1_555
C3 O8 1.300703 1_455
C4 O22 1.290522 1_555
C4 O12 1.295956 1_555
C4 O17 1.306505 1_555
C5 O23 1.290518 1_555
C5 O13 1.295956 1_555
C5 O16 1.306505 1_555
C6 O30 1.297836 1_555
C6 O28 1.299825 1_555
C6 O24 1.300702 1_555
C7 O31 1.290528 1_555
C7 O27 1.295956 1_455
C7 O29 1.306505 1_545
