# generated using pymatgen
data_Li4V3Cr3(TeO8)2
_symmetry_space_group_name_H-M   'P 1'
_cell_length_a   5.98506900
_cell_length_b   5.98429314
_cell_length_c   9.99324009
_cell_angle_alpha   89.95469979
_cell_angle_beta   90.28131877
_cell_angle_gamma   119.06870484
_symmetry_Int_Tables_number   1
_chemical_formula_structural   Li4V3Cr3(TeO8)2
_chemical_formula_sum   'Li4 V3 Cr3 Te2 O16'
_cell_volume   312.83300451
_cell_formula_units_Z   1
loop_
 _symmetry_equiv_pos_site_id
 _symmetry_equiv_pos_as_xyz
  1  'x, y, z'
loop_
 _atom_site_type_symbol
 _atom_site_label
 _atom_site_symmetry_multiplicity
 _atom_site_fract_x
 _atom_site_fract_y
 _atom_site_fract_z
 _atom_site_occupancy
  Li  Li0  1  0.33576100  0.67114300  0.90209300  1
  Li  Li1  1  0.99564500  0.99543700  0.99212100  1
  Li  Li2  1  0.99664800  0.99215300  0.49211300  1
  Li  Li3  1  0.67294500  0.33842600  0.39956800  1
  V  V0  1  0.65675000  0.83006800  0.21901300  1
  V  V1  1  0.82843900  0.65605700  0.71884900  1
  V  V2  1  0.82992000  0.16885600  0.71549600  1
  Cr  Cr0  1  0.16913000  0.83190200  0.21526900  1
  Cr  Cr1  1  0.17000300  0.33828800  0.21502800  1
  Cr  Cr2  1  0.33702100  0.16844100  0.71468100  1
  Te  Te0  1  0.32330200  0.65476700  0.49457200  1
  Te  Te1  1  0.65414000  0.32361600  0.99571400  1
  O  O0  1  0.15514500  0.83200800  0.60117400  1
  O  O1  1  0.03843300  0.52057600  0.33936500  1
  O  O2  1  0.33696000  0.66419900  0.11049400  1
  O  O3  1  0.99945700  0.00303200  0.30973200  1
  O  O4  1  0.00226900  0.99933900  0.80900500  1
  O  O5  1  0.15219800  0.31500400  0.59509000  1
  O  O6  1  0.50278000  0.97739700  0.32457100  1
  O  O7  1  0.49070400  0.51597300  0.32789700  1
  O  O8  1  0.31358000  0.15188900  0.09735300  1
  O  O9  1  0.69615700  0.83307900  0.60594100  1
  O  O10  1  0.51267100  0.48978300  0.82559500  1
  O  O11  1  0.52002400  0.03656200  0.84007000  1
  O  O12  1  0.66318200  0.33504100  0.60945300  1
  O  O13  1  0.83844600  0.69606800  0.10849500  1
  O  O14  1  0.97328200  0.50441900  0.83009400  1
  O  O15  1  0.83500800  0.15677800  0.09899200  1
loop_
_geom_bond_atom_site_label_1
_geom_bond_atom_site_label_2
_geom_bond_distance
_geom_bond_site_symmetry_2
Li0 O10 2.002325 1_555
Li0 O11 2.010851 1_565
Li0 O14 2.025391 1_455
Li0 O2 2.083030 1_556
Li1 O4 1.830431 1_655
Li1 O13 1.953651 1_556
Li1 O8 1.963179 1_666
Li1 O15 1.977592 1_566
Li2 O3 1.823556 1_565
Li2 O9 1.946626 1_555
Li2 O0 1.969195 1_655
Li2 O5 1.975956 1_665
Li3 O7 1.987156 1_555
Li3 O1 2.007502 1_655
Li3 O6 2.030676 1_545
Li3 O12 2.098339 1_555
Cr0 O3 1.998157 1_465
Cr0 O2 2.025832 1_555
Cr0 O13 2.033155 1_455
Cr0 O8 2.049524 1_565
Cr0 O1 2.051961 1_555
Cr0 O6 2.056557 1_555
Cr1 O3 1.994800 1_455
Cr1 O2 2.001719 1_555
Cr1 O7 2.021000 1_555
Cr1 O1 2.049491 1_555
Cr1 O8 2.075810 1_555
Cr1 O15 2.099359 1_455
Cr2 O4 1.993373 1_545
Cr2 O12 2.009425 1_555
Cr2 O10 2.014735 1_555
Cr2 O11 2.053660 1_555
Cr2 O5 2.085493 1_555
Cr2 O0 2.094491 1_545
O0 Te0 2.079033 1_555
O0 V1 2.082056 1_455
O1 Te0 2.145461 1_555
O2 V0 1.989929 1_555
O3 V0 2.005138 1_545
O4 V2 1.993035 1_465
O4 V1 2.007778 1_455
O5 Te0 2.043378 1_555
O5 V2 2.077276 1_455
O6 V0 1.881429 1_555
O6 Te0 2.401063 1_555
O7 V0 1.974051 1_555
O7 Te0 2.301132 1_555
O8 Te1 2.055620 1_554
O9 V1 1.956135 1_555
O9 V2 2.075782 1_565
O9 Te0 2.240702 1_555
O10 V1 1.972440 1_555
O10 Te1 2.323185 1_555
O11 V2 2.052048 1_555
O11 Te1 2.160214 1_555
O12 V1 2.002555 1_555
O12 V2 2.015001 1_555
O13 V0 1.976347 1_555
O13 Te1 2.248897 1_554
O14 V1 1.887906 1_555
O14 V2 2.097596 1_555
O14 Te1 2.361862 1_555
O15 Te1 2.066748 1_554
O15 V0 2.093152 1_545
