# generated using pymatgen
data_Li23Ni17O40
_symmetry_space_group_name_H-M   'P 1'
_cell_length_a   4.98045154
_cell_length_b   50.18205682
_cell_length_c   14.50804015
_cell_angle_alpha   22.39422107
_cell_angle_beta   29.53715686
_cell_angle_gamma   33.08559101
_symmetry_Int_Tables_number   1
_chemical_formula_structural   Li23Ni17O40
_chemical_formula_sum   'Li23 Ni17 O40'
_cell_volume   670.14456673
_cell_formula_units_Z   1
loop_
 _symmetry_equiv_pos_site_id
 _symmetry_equiv_pos_as_xyz
  1  'x, y, z'
loop_
 _atom_site_type_symbol
 _atom_site_label
 _atom_site_symmetry_multiplicity
 _atom_site_fract_x
 _atom_site_fract_y
 _atom_site_fract_z
 _atom_site_occupancy
  Li  Li0  1  0.50071900  0.02485500  0.24920600  1
  Li  Li1  1  0.50280300  0.12598700  0.24514900  1
  Li  Li2  1  0.49928100  0.07514500  0.75079400  1
  Li  Li3  1  0.49031700  0.22592500  0.25210100  1
  Li  Li4  1  0.00029200  0.25032000  0.49886800  1
  Li  Li5  1  0.49824100  0.17757400  0.74251600  1
  Li  Li6  1  0.50049900  0.32286100  0.25694600  1
  Li  Li7  1  0.50724000  0.27454500  0.74645600  1
  Li  Li8  1  0.50327500  0.42530300  0.24569600  1
  Li  Li9  1  0.49602300  0.37484300  0.75419700  1
  Li  Li10  1  0.49288600  0.52584700  0.25207300  1
  Li  Li11  1  0.50018000  0.47719600  0.74242900  1
  Li  Li12  1  0.49982000  0.62280400  0.25757100  1
  Li  Li13  1  0.00000000  0.55000000  0.50000000  1
  Li  Li14  1  0.50711400  0.57415300  0.74792700  1
  Li  Li15  1  0.50397700  0.72515700  0.24580300  1
  Li  Li16  1  0.49672500  0.67469700  0.75430400  1
  Li  Li17  1  0.49276000  0.82545500  0.25354400  1
  Li  Li18  1  0.99970800  0.84968000  0.50113200  1
  Li  Li19  1  0.49950100  0.77713900  0.74305400  1
  Li  Li20  1  0.50175900  0.92242600  0.25748400  1
  Li  Li21  1  0.50968300  0.87407500  0.74789900  1
  Li  Li22  1  0.49719700  0.97401300  0.75485100  1
  Ni  Ni0  1  0.00281200  0.99979800  0.00081700  1
  Ni  Ni1  1  0.99718800  0.10020200  0.99918300  1
  Ni  Ni2  1  0.00000000  0.05000000  0.50000000  1
  Ni  Ni3  1  0.99704400  0.19983800  0.99971700  1
  Ni  Ni4  1  0.00095000  0.15043600  0.49838300  1
  Ni  Ni5  1  0.00006200  0.40013800  0.99956000  1
  Ni  Ni6  1  0.99803400  0.29986400  0.00313500  1
  Ni  Ni7  1  0.00355300  0.34993100  0.49811900  1
  Ni  Ni8  1  0.99881800  0.50024000  0.99759000  1
  Ni  Ni9  1  0.99993800  0.69986200  0.00044000  1
  Ni  Ni10  1  0.99680500  0.45041000  0.50062400  1
  Ni  Ni11  1  0.00118200  0.59976000  0.00241000  1
  Ni  Ni12  1  0.00196600  0.80013600  0.99686500  1
  Ni  Ni13  1  0.00319500  0.64959000  0.49937600  1
  Ni  Ni14  1  0.99644700  0.75006900  0.50188100  1
  Ni  Ni15  1  0.00295600  0.90016200  0.00028300  1
  Ni  Ni16  1  0.99905000  0.94956400  0.50161700  1
  O  O0  1  0.24621400  0.01506200  0.12611100  1
  O  O1  1  0.27011200  0.11498300  0.11302200  1
  O  O2  1  0.76438700  0.03660500  0.36392000  1
  O  O3  1  0.23561300  0.06339500  0.63608000  1
  O  O4  1  0.27757800  0.21071900  0.12812700  1
  O  O5  1  0.72679000  0.13966700  0.36496300  1
  O  O6  1  0.27664800  0.31813000  0.10794100  1
  O  O7  1  0.28776600  0.15808300  0.63601600  1
  O  O8  1  0.75378600  0.08493800  0.87388900  1
  O  O9  1  0.78099300  0.23507900  0.36610100  1
  O  O10  1  0.30294100  0.41142300  0.11709000  1
  O  O11  1  0.21295400  0.26443800  0.63785800  1
  O  O12  1  0.72524200  0.34295000  0.35499000  1
  O  O13  1  0.71552300  0.18233700  0.89431100  1
  O  O14  1  0.26115500  0.36358400  0.62930300  1
  O  O15  1  0.27980400  0.51165400  0.12367200  1
  O  O16  1  0.73823600  0.43648100  0.37058100  1
  O  O17  1  0.72286300  0.28713700  0.87876700  1
  O  O18  1  0.27818900  0.61789700  0.10829500  1
  O  O19  1  0.27599800  0.45716000  0.64438700  1
  O  O20  1  0.78568200  0.53534900  0.36371100  1
  O  O21  1  0.69769600  0.38935000  0.88026600  1
  O  O22  1  0.21431800  0.56465100  0.63628900  1
  O  O23  1  0.30230400  0.71065000  0.11973400  1
  O  O24  1  0.72181100  0.48210300  0.89170500  1
  O  O25  1  0.72400200  0.64284000  0.35561300  1
  O  O26  1  0.26176400  0.66351900  0.62941900  1
  O  O27  1  0.27713700  0.81286300  0.12123300  1
  O  O28  1  0.73884500  0.73641600  0.37069700  1
  O  O29  1  0.72019600  0.58834600  0.87632800  1
  O  O30  1  0.27475800  0.75705000  0.64501000  1
  O  O31  1  0.28447700  0.91766300  0.10568900  1
  O  O32  1  0.69705900  0.68857700  0.88291000  1
  O  O33  1  0.78704600  0.83556200  0.36214200  1
  O  O34  1  0.21900700  0.86492100  0.63389900  1
  O  O35  1  0.72335200  0.78187000  0.89205900  1
  O  O36  1  0.71223400  0.94191700  0.36398400  1
  O  O37  1  0.27321000  0.96033300  0.63503700  1
  O  O38  1  0.72242200  0.88928100  0.87187300  1
  O  O39  1  0.72988800  0.98501700  0.88697800  1
loop_
_geom_bond_atom_site_label_1
_geom_bond_atom_site_label_2
_geom_bond_distance
_geom_bond_site_symmetry_2
Li0 O36 2.023480 1_545
Li0 O2 2.034012 1_455
Li0 O0 2.060049 1_655
Li0 O8 2.096626 1_554
Li0 O1 2.097232 1_555
Li0 O37 2.167353 1_545
Li1 O13 2.011903 1_554
Li1 O4 2.047616 1_555
Li1 O1 2.063462 1_655
Li1 O5 2.121477 1_455
Li1 O2 2.146435 1_555
Li1 O3 2.175574 1_555
Li2 O7 2.023480 1_555
Li2 O3 2.034012 1_655
Li2 O8 2.060049 1_455
Li2 O0 2.096626 1_556
Li2 O39 2.097232 1_545
Li2 O5 2.167353 1_555
Li3 O9 1.986276 1_455
Li3 O17 2.096166 1_554
Li3 O4 2.108033 1_655
Li3 O5 2.124040 1_555
Li3 O7 2.131808 1_555
Li3 O6 2.154737 1_555
Li4 O9 2.030334 1_555
Li4 O11 2.042547 1_455
Li4 O12 2.050351 1_455
Li4 O6 2.053655 1_555
Li4 O7 2.062744 1_555
Li4 O13 2.078753 1_455
Li5 O1 2.045181 1_556
Li5 O9 2.102422 1_555
Li5 O11 2.112292 1_555
Li5 O13 2.139430 1_455
Li5 O7 2.140972 1_655
Li5 O8 2.187539 1_555
Li6 O10 2.075509 1_555
Li6 O21 2.096770 1_554
Li6 O11 2.119074 1_555
Li6 O9 2.121765 1_555
Li6 O12 2.126066 1_455
Li6 O6 2.131333 1_655
Li7 O11 1.986882 1_655
Li7 O17 2.098331 1_455
Li7 O4 2.133247 1_556
Li7 O13 2.136029 1_555
Li7 O12 2.163920 1_555
Li7 O14 2.181829 1_555
Li8 O24 2.021771 1_554
Li8 O12 2.022927 1_555
Li8 O15 2.076365 1_555
Li8 O16 2.097746 1_455
Li8 O10 2.156963 1_655
Li8 O14 2.174079 1_555
Li9 O6 2.019100 1_556
Li9 O19 2.021338 1_555
Li9 O14 2.096224 1_655
Li9 O17 2.103689 1_555
Li9 O21 2.154461 1_455
Li9 O16 2.175900 1_555
Li10 O20 1.985858 1_455
Li10 O15 2.099874 1_655
Li10 O29 2.104925 1_554
Li10 O18 2.149122 1_555
Li10 O19 2.169368 1_555
Li10 O16 2.185343 1_555
Li11 O21 2.062702 1_555
Li11 O10 2.090709 1_556
Li11 O20 2.106165 1_555
Li11 O22 2.122855 1_555
Li11 O19 2.129562 1_655
Li11 O24 2.134638 1_455
Li12 O23 2.062702 1_555
Li12 O32 2.090709 1_554
Li12 O22 2.106165 1_555
Li12 O20 2.122855 1_555
Li12 O25 2.129562 1_455
Li12 O18 2.134638 1_655
Li13 O20 2.041108 1_555
Li13 O22 2.041108 1_455
Li13 O25 2.053126 1_455
Li13 O19 2.053126 1_555
Li13 O24 2.056353 1_455
Li13 O18 2.056353 1_555
Li14 O22 1.985858 1_655
Li14 O29 2.099874 1_455
Li14 O15 2.104925 1_556
Li14 O24 2.149122 1_555
Li14 O25 2.169368 1_555
Li14 O26 2.185343 1_555
Li15 O35 2.019100 1_554
Li15 O25 2.021338 1_555
Li15 O28 2.096224 1_455
Li15 O27 2.103689 1_555
Li15 O23 2.154461 1_655
Li15 O26 2.175900 1_555
Li16 O18 2.021771 1_556
Li16 O30 2.022927 1_555
Li16 O29 2.076365 1_555
Li16 O26 2.097746 1_655
Li16 O32 2.156963 1_455
Li16 O28 2.174079 1_555
Li17 O33 1.986882 1_455
Li17 O27 2.098331 1_655
Li17 O38 2.133247 1_554
Li17 O31 2.136029 1_555
Li17 O30 2.163920 1_555
Li17 O28 2.181829 1_555
Li18 O34 2.030334 1_555
Li18 O33 2.042547 1_655
Li18 O30 2.050351 1_655
Li18 O35 2.053655 1_555
Li18 O36 2.062744 1_555
Li18 O31 2.078753 1_655
Li19 O32 2.075509 1_555
Li19 O23 2.096770 1_556
Li19 O33 2.119074 1_555
Li19 O34 2.121765 1_555
Li19 O30 2.126066 1_655
Li19 O35 2.131333 1_455
Li20 O39 2.045181 1_554
Li20 O34 2.102422 1_555
Li20 O33 2.112292 1_555
Li20 O31 2.139430 1_655
Li20 O36 2.140972 1_455
Li20 O0 2.187539 1_565
Li21 O34 1.986276 1_655
Li21 O27 2.096166 1_556
Li21 O38 2.108033 1_455
Li21 O37 2.124040 1_555
Li21 O36 2.131808 1_555
Li21 O35 2.154737 1_555
Li22 O31 2.011903 1_556
Li22 O38 2.047616 1_555
Li22 O39 2.063462 1_455
Li22 O37 2.121477 1_655
Li22 O3 2.146435 1_565
Li22 O2 2.175574 1_565
Ni0 O31 1.923510 1_555
Ni0 O8 1.931156 1_464
Ni0 O39 1.936076 1_554
Ni0 O36 1.941154 1_455
Ni0 O3 1.956268 1_564
Ni0 O0 1.977209 1_465
Ni1 O13 1.923510 1_555
Ni1 O0 1.931156 1_656
Ni1 O1 1.936076 1_556
Ni1 O7 1.941154 1_655
Ni1 O2 1.956268 1_556
Ni1 O8 1.977209 1_655
Ni2 O2 1.982468 1_555
Ni2 O3 1.982468 1_455
Ni2 O5 2.003569 1_455
Ni2 O37 2.003569 1_545
Ni2 O39 2.078006 1_445
Ni2 O1 2.078006 1_555
Ni3 O4 1.896075 1_556
Ni3 O13 1.899965 1_655
Ni3 O11 1.942667 1_655
Ni3 O5 1.954668 1_556
Ni3 O1 1.981442 1_656
Ni3 O17 2.016334 1_555
Ni4 O7 1.882097 1_455
Ni4 O5 1.895193 1_555
Ni4 O9 1.926684 1_455
Ni4 O3 1.951459 1_555
Ni4 O4 1.990410 1_555
Ni4 O8 1.999210 1_455
Ni5 O10 1.863354 1_456
Ni5 O21 1.864832 1_555
Ni5 O24 1.899268 1_455
Ni5 O6 1.899887 1_556
Ni5 O19 1.905378 1_555
Ni5 O12 1.906738 1_456
Ni6 O6 1.900872 1_555
Ni6 O17 1.904927 1_654
Ni6 O9 1.947907 1_555
Ni6 O14 1.985563 1_654
Ni6 O21 2.040092 1_554
Ni6 O4 2.048041 1_655
Ni7 O12 1.897810 1_555
Ni7 O14 1.919406 1_455
Ni7 O11 1.923952 1_555
Ni7 O16 1.951986 1_455
Ni7 O10 2.031724 1_555
Ni7 O17 2.037239 1_455
Ni8 O15 1.897334 1_556
Ni8 O24 1.903304 1_655
Ni8 O22 1.941472 1_655
Ni8 O16 1.981350 1_556
Ni8 O10 2.032973 1_656
Ni8 O29 2.037738 1_555
Ni9 O32 1.863354 1_654
Ni9 O23 1.864832 1_555
Ni9 O18 1.899268 1_655
Ni9 O35 1.899887 1_554
Ni9 O25 1.905378 1_555
Ni9 O30 1.906738 1_654
Ni10 O19 1.895362 1_555
Ni10 O16 1.916886 1_655
Ni10 O20 1.920200 1_555
Ni10 O14 1.955947 1_655
Ni10 O15 2.026368 1_655
Ni10 O21 2.026873 1_555
Ni11 O29 1.897334 1_554
Ni11 O18 1.903304 1_455
Ni11 O20 1.941472 1_455
Ni11 O26 1.981350 1_554
Ni11 O32 2.032973 1_454
Ni11 O15 2.037738 1_555
Ni12 O35 1.900872 1_555
Ni12 O27 1.904927 1_456
Ni12 O34 1.947907 1_555
Ni12 O28 1.985563 1_456
Ni12 O23 2.040092 1_556
Ni12 O38 2.048041 1_455
Ni13 O25 1.895362 1_555
Ni13 O26 1.916886 1_455
Ni13 O22 1.920200 1_555
Ni13 O28 1.955947 1_455
Ni13 O29 2.026368 1_455
Ni13 O23 2.026873 1_555
Ni14 O30 1.897810 1_555
Ni14 O28 1.919406 1_655
Ni14 O33 1.923952 1_555
Ni14 O26 1.951986 1_655
Ni14 O32 2.031724 1_555
Ni14 O27 2.037239 1_655
Ni15 O38 1.896075 1_554
Ni15 O31 1.899965 1_455
Ni15 O33 1.942667 1_455
Ni15 O37 1.954668 1_554
Ni15 O39 1.981442 1_454
Ni15 O27 2.016334 1_555
Ni16 O36 1.882097 1_655
Ni16 O37 1.895193 1_555
Ni16 O34 1.926684 1_655
Ni16 O2 1.951459 1_565
Ni16 O38 1.990410 1_555
Ni16 O0 1.999210 1_665
