# generated using pymatgen
data_Li2Fe2SiO6
_symmetry_space_group_name_H-M   'P 1'
_cell_length_a   15.72518046
_cell_length_b   11.64850566
_cell_length_c   11.59233299
_cell_angle_alpha   85.15955456
_cell_angle_beta   47.57092802
_cell_angle_gamma   47.26951742
_symmetry_Int_Tables_number   1
_chemical_formula_structural   Li2Fe2SiO6
_chemical_formula_sum   'Li12 Fe12 Si6 O36'
_cell_volume   834.69678328
_cell_formula_units_Z   6
loop_
 _symmetry_equiv_pos_site_id
 _symmetry_equiv_pos_as_xyz
  1  'x, y, z'
loop_
 _atom_site_type_symbol
 _atom_site_label
 _atom_site_symmetry_multiplicity
 _atom_site_fract_x
 _atom_site_fract_y
 _atom_site_fract_z
 _atom_site_occupancy
  Li  Li0  1  0.99391600  0.50608400  0.99391600  1
  Li  Li1  1  0.66431000  0.83569000  0.66431000  1
  Li  Li2  1  0.44926700  0.91297400  0.09312300  1
  Li  Li3  1  0.07146200  0.21639600  0.78410800  1
  Li  Li4  1  0.03360400  0.17853800  0.32196600  1
  Li  Li5  1  0.33702600  0.80073300  0.70536400  1
  Li  Li6  1  0.74391600  0.25608400  0.74391600  1
  Li  Li7  1  0.41431000  0.58569000  0.41431000  1
  Li  Li8  1  0.70536400  0.15687700  0.33702600  1
  Li  Li9  1  0.32196600  0.46589200  0.03360400  1
  Li  Li10  1  0.78410800  0.92803400  0.07146200  1
  Li  Li11  1  0.09312300  0.54463600  0.44926700  1
  Fe  Fe0  1  0.15108200  0.34891800  0.15108200  1
  Fe  Fe1  1  0.49090100  0.00909900  0.49090100  1
  Fe  Fe2  1  0.95568400  0.42969200  0.57917600  1
  Fe  Fe3  1  0.56336900  0.72361500  0.28722400  1
  Fe  Fe4  1  0.52638500  0.68663100  0.82420800  1
  Fe  Fe5  1  0.82030800  0.29431600  0.21455200  1
  Fe  Fe6  1  0.90108200  0.09891800  0.90108200  1
  Fe  Fe7  1  0.24090100  0.75909900  0.24090100  1
  Fe  Fe8  1  0.21455200  0.67082400  0.82030800  1
  Fe  Fe9  1  0.82420800  0.96277600  0.52638500  1
  Fe  Fe10  1  0.28722400  0.42579200  0.56336900  1
  Fe  Fe11  1  0.57917600  0.03544800  0.95568300  1
  Si  Si0  1  0.87266800  0.62733200  0.87266800  1
  Si  Si1  1  0.22940500  0.10551800  0.91243300  1
  Si  Si2  1  0.14448200  0.02059500  0.49735700  1
  Si  Si3  1  0.62266800  0.37733200  0.62266800  1
  Si  Si4  1  0.49735700  0.33756700  0.14448200  1
  Si  Si5  1  0.91243300  0.75264300  0.22940500  1
  O  O0  1  0.97409100  0.51976700  0.42988300  1
  O  O1  1  0.26876000  0.19436200  0.79764000  1
  O  O2  1  0.03165900  0.46639000  0.63116200  1
  O  O3  1  0.84752500  0.53743300  0.99135100  1
  O  O4  1  0.38034600  0.98600000  0.49952400  1
  O  O5  1  0.07960900  0.26326900  0.15001600  1
  O  O6  1  0.66264400  0.64593300  0.83132500  1
  O  O7  1  0.46749200  0.85310400  0.75131900  1
  O  O8  1  0.13266100  0.14584500  0.41073300  1
  O  O9  1  0.10415500  0.11733900  0.93923900  1
  O  O10  1  0.39689600  0.78250800  0.32191500  1
  O  O11  1  0.60406700  0.58735600  0.38990100  1
  O  O12  1  0.98673100  0.17039100  0.74289300  1
  O  O13  1  0.26400000  0.86965400  0.11587000  1
  O  O14  1  0.71256700  0.40247500  0.62630900  1
  O  O15  1  0.78361000  0.21834100  0.37921100  1
  O  O16  1  0.05563800  0.98124000  0.51076200  1
  O  O17  1  0.73023300  0.27590900  0.17374100  1
  O  O18  1  0.17374100  0.82011700  0.73023300  1
  O  O19  1  0.51076200  0.45236000  0.05563800  1
  O  O20  1  0.37921100  0.61883800  0.78361000  1
  O  O21  1  0.62630900  0.25864900  0.71256700  1
  O  O22  1  0.11587000  0.75047600  0.26400000  1
  O  O23  1  0.74289300  0.09998400  0.98673100  1
  O  O24  1  0.38990100  0.41867500  0.60406700  1
  O  O25  1  0.32191500  0.49868100  0.39689600  1
  O  O26  1  0.93923900  0.83926700  0.10415500  1
  O  O27  1  0.41073300  0.31076100  0.13266100  1
  O  O28  1  0.75131900  0.92808500  0.46749200  1
  O  O29  1  0.83132500  0.86009900  0.66264400  1
  O  O30  1  0.15001600  0.50710700  0.07960900  1
  O  O31  1  0.49952400  0.13413000  0.38034600  1
  O  O32  1  0.99135100  0.62369100  0.84752500  1
  O  O33  1  0.63116200  0.87078900  0.03165900  1
  O  O34  1  0.79764000  0.73923800  0.26876000  1
  O  O35  1  0.42988300  0.07625900  0.97409100  1
loop_
_geom_bond_atom_site_label_1
_geom_bond_atom_site_label_2
_geom_bond_distance
_geom_bond_site_symmetry_2
Li0 O1 1.966892 1_655
Li0 O34 1.966892 1_556
Li0 O3 2.093624 1_555
Li0 O32 2.093624 1_555
Li1 O35 2.038186 1_565
Li1 O0 2.038186 1_555
Li1 O28 2.368062 1_555
Li1 O7 2.368062 1_555
Li2 O6 1.957791 1_554
Li2 O8 2.079523 1_565
Li2 O33 2.081406 1_555
Li2 O35 2.225408 1_564
Li3 O4 1.964721 1_545
Li3 O12 2.040091 1_455
Li3 O3 2.094297 1_455
Li3 O9 2.218555 1_555
Li4 O13 1.964721 1_545
Li4 O5 2.040083 1_555
Li4 O14 2.094297 1_455
Li4 O8 2.218555 1_555
Li5 O11 1.957797 1_555
Li5 O9 2.079523 1_565
Li5 O20 2.081406 1_555
Li5 O18 2.225408 1_555
Li6 O19 1.966892 1_556
Li6 O16 1.966892 1_645
Li6 O14 2.093624 1_555
Li6 O21 2.093624 1_555
Li7 O18 2.038186 1_555
Li7 O17 2.038186 1_555
Li7 O10 2.368062 1_555
Li7 O25 2.368062 1_555
Li8 O24 1.957798 1_555
Li8 O26 2.079523 1_545
Li8 O15 2.081406 1_555
Li8 O17 2.225408 1_555
Li9 O22 1.964721 1_555
Li9 O30 2.040076 1_555
Li9 O21 2.094297 1_554
Li9 O27 2.218555 1_555
Li10 O31 1.964721 1_565
Li10 O23 2.040083 1_564
Li10 O32 2.094297 1_554
Li10 O26 2.218555 1_555
Li11 O29 1.957798 1_455
Li11 O27 2.079523 1_555
Li11 O2 2.081406 1_555
Li11 O0 2.225408 1_455
Fe0 O0 1.892947 1_455
Fe0 O35 1.892947 1_554
Fe0 O5 1.949693 1_555
Fe0 O30 1.949703 1_555
Fe1 O31 1.870976 1_555
Fe1 O4 1.870976 1_545
Fe1 O1 1.951258 1_555
Fe1 O34 1.951258 1_545
Fe2 O6 1.854325 1_555
Fe2 O0 1.899897 1_555
Fe2 O2 1.918685 1_655
Fe2 O8 1.938923 1_655
Fe3 O4 1.858947 1_555
Fe3 O10 1.916811 1_555
Fe3 O11 1.917309 1_555
Fe3 O3 1.964112 1_554
Fe4 O13 1.858947 1_556
Fe4 O7 1.916811 1_555
Fe4 O6 1.917318 1_555
Fe4 O14 1.964112 1_555
Fe5 O11 1.854325 1_555
Fe5 O17 1.899897 1_555
Fe5 O15 1.918685 1_555
Fe5 O9 1.938923 1_654
Fe6 O18 1.892947 1_645
Fe6 O17 1.892947 1_556
Fe6 O12 1.949698 1_555
Fe6 O23 1.949707 1_555
Fe7 O22 1.870976 1_555
Fe7 O13 1.870976 1_555
Fe7 O19 1.951258 1_555
Fe7 O16 1.951258 1_555
Fe8 O24 1.854333 1_555
Fe8 O18 1.899897 1_555
Fe8 O20 1.918685 1_555
Fe8 O26 1.938923 1_456
Fe9 O22 1.858947 1_655
Fe9 O28 1.916811 1_555
Fe9 O29 1.917312 1_555
Fe9 O21 1.964112 1_565
Fe10 O31 1.858947 1_555
Fe10 O25 1.916811 1_555
Fe10 O24 1.917302 1_555
Fe10 O32 1.964112 1_455
Fe11 O29 1.854322 1_545
Fe11 O35 1.899889 1_555
Fe11 O33 1.918692 1_546
Fe11 O27 1.938926 1_556
O1 Si1 1.658416 1_555
O2 Si0 1.638088 1_455
O3 Si0 1.652432 1_555
O5 Si1 1.654231 1_554
O7 Si1 1.643983 1_565
O8 Si2 1.675740 1_555
O9 Si1 1.675733 1_555
O10 Si2 1.643980 1_565
O12 Si2 1.654212 1_655
O14 Si3 1.652432 1_555
O15 Si3 1.638088 1_555
O16 Si2 1.658422 1_565
O19 Si4 1.658412 1_555
O20 Si3 1.638088 1_555
O21 Si3 1.652432 1_555
O23 Si4 1.654217 1_556
O25 Si4 1.643979 1_555
O26 Si5 1.675741 1_555
O27 Si4 1.675748 1_555
O28 Si5 1.643987 1_555
O30 Si5 1.654224 1_455
O32 Si0 1.652432 1_555
O33 Si0 1.638088 1_554
O34 Si5 1.658406 1_555
