# generated using pymatgen
data_H20RuC6NO14
_symmetry_space_group_name_H-M   'P 1'
_cell_length_a   6.09784085
_cell_length_b   6.09784085
_cell_length_c   23.40699600
_cell_angle_alpha   90.00000000
_cell_angle_beta   90.00000000
_cell_angle_gamma   102.96393347
_symmetry_Int_Tables_number   1
_chemical_formula_structural   H20RuC6NO14
_chemical_formula_sum   'H40 Ru2 C12 N2 O28'
_cell_volume   848.17371262
_cell_formula_units_Z   2
loop_
 _symmetry_equiv_pos_site_id
 _symmetry_equiv_pos_as_xyz
  1  'x, y, z'
loop_
 _atom_site_type_symbol
 _atom_site_label
 _atom_site_symmetry_multiplicity
 _atom_site_fract_x
 _atom_site_fract_y
 _atom_site_fract_z
 _atom_site_occupancy
  H  H0  1  0.71869600  0.28130400  0.01046200  1
  H  H1  1  0.28130400  0.71869600  0.98953800  1
  H  H2  1  0.71869600  0.28130400  0.48953800  1
  H  H3  1  0.28130400  0.71869600  0.51046200  1
  H  H4  1  0.76306000  0.23694000  0.93812100  1
  H  H5  1  0.23694000  0.76306000  0.06187900  1
  H  H6  1  0.76306000  0.23694000  0.56187900  1
  H  H7  1  0.23694000  0.76306000  0.43812100  1
  H  H8  1  0.19740300  0.59220100  0.14336800  1
  H  H9  1  0.59220100  0.19740300  0.85663200  1
  H  H10  1  0.19740300  0.59220100  0.35663200  1
  H  H11  1  0.59220100  0.19740300  0.64336800  1
  H  H12  1  0.80259700  0.40779900  0.85663200  1
  H  H13  1  0.40779900  0.80259700  0.14336800  1
  H  H14  1  0.80259700  0.40779900  0.64336800  1
  H  H15  1  0.40779900  0.80259700  0.35663200  1
  H  H16  1  0.65812500  0.55169400  0.06383400  1
  H  H17  1  0.55169400  0.65812500  0.93616600  1
  H  H18  1  0.65812500  0.55169400  0.43616600  1
  H  H19  1  0.55169400  0.65812500  0.56383400  1
  H  H20  1  0.34187500  0.44830600  0.93616600  1
  H  H21  1  0.44830600  0.34187500  0.06383400  1
  H  H22  1  0.34187500  0.44830600  0.56383400  1
  H  H23  1  0.44830600  0.34187500  0.43616600  1
  H  H24  1  0.80308200  0.19691800  0.21423800  1
  H  H25  1  0.19691800  0.80308200  0.78576200  1
  H  H26  1  0.80308200  0.19691800  0.28576200  1
  H  H27  1  0.19691800  0.80308200  0.71423800  1
  H  H28  1  0.44380700  0.00359700  0.25000000  1
  H  H29  1  0.00359700  0.44380700  0.75000000  1
  H  H30  1  0.55619300  0.99640300  0.75000000  1
  H  H31  1  0.99640300  0.55619300  0.25000000  1
  H  H32  1  0.42142200  0.25188600  0.21176200  1
  H  H33  1  0.25188600  0.42142200  0.78823800  1
  H  H34  1  0.42142200  0.25188600  0.28823800  1
  H  H35  1  0.25188600  0.42142200  0.71176200  1
  H  H36  1  0.57857800  0.74811400  0.78823800  1
  H  H37  1  0.74811400  0.57857800  0.21176200  1
  H  H38  1  0.57857800  0.74811400  0.71176200  1
  H  H39  1  0.74811400  0.57857800  0.28823800  1
  Ru  Ru0  1  0.00000000  0.00000000  0.00000000  1
  Ru  Ru1  1  0.00000000  0.00000000  0.50000000  1
  C  C0  1  0.48901700  0.18722100  0.25000000  1
  C  C1  1  0.18722100  0.48901700  0.75000000  1
  C  C2  1  0.51098300  0.81277900  0.75000000  1
  C  C3  1  0.81277900  0.51098300  0.25000000  1
  C  C4  1  0.82115900  0.97561000  0.11345700  1
  C  C5  1  0.97561000  0.82115900  0.88654300  1
  C  C6  1  0.82115900  0.97561000  0.38654300  1
  C  C7  1  0.97561000  0.82115900  0.61345700  1
  C  C8  1  0.17884100  0.02439000  0.88654300  1
  C  C9  1  0.02439000  0.17884100  0.11345700  1
  C  C10  1  0.17884100  0.02439000  0.61345700  1
  C  C11  1  0.02439000  0.17884100  0.38654300  1
  N  N0  1  0.73733400  0.26266600  0.25000000  1
  N  N1  1  0.26266600  0.73733400  0.75000000  1
  O  O0  1  0.78585200  0.86483100  0.06566800  1
  O  O1  1  0.86483100  0.78585200  0.93433200  1
  O  O2  1  0.78585200  0.86483100  0.43433200  1
  O  O3  1  0.86483100  0.78585200  0.56566800  1
  O  O4  1  0.21414800  0.13516900  0.93433200  1
  O  O5  1  0.13516900  0.21414800  0.06566800  1
  O  O6  1  0.21414800  0.13516900  0.56566800  1
  O  O7  1  0.13516900  0.21414800  0.43433200  1
  O  O8  1  0.79460800  0.20539200  0.97981800  1
  O  O9  1  0.20539200  0.79460800  0.02018200  1
  O  O10  1  0.79460800  0.20539200  0.52018200  1
  O  O11  1  0.20539200  0.79460800  0.47981800  1
  O  O12  1  0.70373900  0.92917100  0.15725200  1
  O  O13  1  0.92917100  0.70373900  0.84274800  1
  O  O14  1  0.70373900  0.92917100  0.34274800  1
  O  O15  1  0.92917100  0.70373900  0.65725200  1
  O  O16  1  0.29626100  0.07082900  0.84274800  1
  O  O17  1  0.07082900  0.29626100  0.15725200  1
  O  O18  1  0.29626100  0.07082900  0.65725200  1
  O  O19  1  0.07082900  0.29626100  0.34274800  1
  O  O20  1  0.25099900  0.74900100  0.12988800  1
  O  O21  1  0.74900100  0.25099900  0.87011200  1
  O  O22  1  0.25099900  0.74900100  0.37011200  1
  O  O23  1  0.74900100  0.25099900  0.62988800  1
  O  O24  1  0.61415200  0.38584800  0.06273500  1
  O  O25  1  0.38584800  0.61415200  0.93726500  1
  O  O26  1  0.61415200  0.38584800  0.43726500  1
  O  O27  1  0.38584800  0.61415200  0.56273500  1
loop_
_geom_bond_atom_site_label_1
_geom_bond_atom_site_label_2
_geom_bond_distance
_geom_bond_site_symmetry_2
H0 O8 1.019406 1_554
H0 O24 1.578676 1_555
H1 O9 1.019406 1_556
H1 O25 1.578676 1_555
H2 O10 1.019406 1_555
H2 O26 1.578676 1_555
H3 O11 1.019406 1_555
H3 O27 1.578676 1_555
H4 O8 1.021371 1_555
H4 O21 1.597529 1_555
H5 O9 1.021371 1_555
H5 O20 1.597529 1_555
H6 O10 1.021371 1_555
H6 O23 1.597529 1_555
H7 O11 1.021371 1_555
H7 O22 1.597529 1_555
H8 O20 0.990136 1_555
H9 O21 0.990136 1_555
H10 O22 0.990136 1_555
H11 O23 0.990136 1_555
H12 O21 0.990136 1_555
H13 O20 0.990136 1_555
H14 O23 0.990136 1_555
H15 O22 0.990136 1_555
H16 O24 0.986725 1_555
H17 O25 0.986725 1_555
H18 O26 0.986725 1_555
H19 O27 0.986725 1_555
H20 O25 0.986725 1_555
H21 O24 0.986725 1_555
H22 O27 0.986725 1_555
H23 O26 0.986725 1_555
H24 N0 1.046087 1_555
H25 N1 1.046087 1_555
H26 N0 1.046087 1_555
H27 N1 1.046087 1_555
C0 H28 1.091445 1_555
C0 H32 1.095169 1_555
C0 H34 1.095169 1_555
C0 N0 1.480503 1_555
C1 H29 1.091445 1_555
C1 H35 1.095169 1_555
C1 H33 1.095169 1_555
C1 N1 1.480503 1_555
C2 H30 1.091445 1_555
C2 H38 1.095169 1_555
C2 H36 1.095169 1_555
C2 N1 1.480503 1_555
C3 H31 1.091445 1_555
C3 H39 1.095169 1_555
C3 H37 1.095169 1_555
C3 N0 1.480503 1_555
C4 O12 1.246088 1_555
C4 O0 1.299491 1_555
C5 O13 1.246088 1_555
C5 O1 1.299491 1_555
C6 O14 1.246088 1_555
C6 O2 1.299491 1_555
C7 O15 1.246088 1_555
C7 O3 1.299491 1_555
C8 O16 1.246088 1_555
C8 O4 1.299491 1_555
C9 O17 1.246088 1_555
C9 O5 1.299491 1_555
C10 O18 1.246088 1_555
C10 O6 1.299491 1_555
C11 O19 1.246088 1_555
C11 O7 1.299491 1_555
O0 Ru0 2.065022 1_665
O1 Ru0 2.065022 1_666
O2 Ru1 2.065022 1_665
O3 Ru1 2.065022 1_665
O4 Ru0 2.065022 1_556
O5 Ru0 2.065022 1_555
O6 Ru1 2.065022 1_555
O7 Ru1 2.065022 1_555
O8 Ru0 2.015990 1_656
O9 Ru0 2.015990 1_565
O10 Ru1 2.015990 1_655
O11 Ru1 2.015990 1_565
