# generated using pymatgen
data_Li3Fe(PO4)2
_symmetry_space_group_name_H-M   'P 1'
_cell_length_a   10.49345100
_cell_length_b   8.22375400
_cell_length_c   8.26734929
_cell_angle_alpha   75.93826459
_cell_angle_beta   90.00000000
_cell_angle_gamma   90.00000000
_symmetry_Int_Tables_number   1
_chemical_formula_structural   Li3Fe(PO4)2
_chemical_formula_sum   'Li12 Fe4 P8 O32'
_cell_volume   692.05707819
_cell_formula_units_Z   4
loop_
 _symmetry_equiv_pos_site_id
 _symmetry_equiv_pos_as_xyz
  1  'x, y, z'
loop_
 _atom_site_type_symbol
 _atom_site_label
 _atom_site_symmetry_multiplicity
 _atom_site_fract_x
 _atom_site_fract_y
 _atom_site_fract_z
 _atom_site_occupancy
  Li  Li0  1  0.91375600  0.60233000  0.90524400  1
  Li  Li1  1  0.66509100  0.45740200  0.78141200  1
  Li  Li2  1  0.10317600  0.84762100  0.65592800  1
  Li  Li3  1  0.19097900  0.53562600  0.72325100  1
  Li  Li4  1  0.90818800  0.35191700  0.66223200  1
  Li  Li5  1  0.42416000  0.39690100  0.59744400  1
  Li  Li6  1  0.08624400  0.60233000  0.40524400  1
  Li  Li7  1  0.33490900  0.45740200  0.28141200  1
  Li  Li8  1  0.89682400  0.84762100  0.15592800  1
  Li  Li9  1  0.80902100  0.53562600  0.22325100  1
  Li  Li10  1  0.09181200  0.35191700  0.16223200  1
  Li  Li11  1  0.57584000  0.39690100  0.09744400  1
  Fe  Fe0  1  0.09303600  0.09433200  0.91295000  1
  Fe  Fe1  1  0.90696400  0.09433200  0.41295000  1
  Fe  Fe2  1  0.58341500  0.90122300  0.59464000  1
  Fe  Fe3  1  0.41658500  0.90122300  0.09464000  1
  P  P0  1  0.66128900  0.75939300  0.95917000  1
  P  P1  1  0.33696700  0.28723600  0.96938900  1
  P  P2  1  0.84098900  0.71414000  0.52907900  1
  P  P3  1  0.33871100  0.75939300  0.45917000  1
  P  P4  1  0.15532400  0.23710400  0.53983100  1
  P  P5  1  0.66303300  0.28723600  0.46938900  1
  P  P6  1  0.15901100  0.71414000  0.02907900  1
  P  P7  1  0.84467600  0.23710400  0.03983100  1
  O  O0  1  0.29865000  0.77194200  0.99809700  1
  O  O1  1  0.60762400  0.60193600  0.91843100  1
  O  O2  1  0.70929400  0.27236100  0.98451300  1
  O  O3  1  0.10250500  0.66505200  0.87454800  1
  O  O4  1  0.65664600  0.90956100  0.80035700  1
  O  O5  1  0.39967700  0.11933500  0.95474600  1
  O  O6  1  0.92549900  0.19002400  0.89452800  1
  O  O7  1  0.34064200  0.41130500  0.79957000  1
  O  O8  1  0.85366100  0.57130000  0.68837000  1
  O  O9  1  0.41808800  0.81410400  0.59762300  1
  O  O10  1  0.92262800  0.87126400  0.55401000  1
  O  O11  1  0.13842800  0.07618200  0.69287300  1
  O  O12  1  0.19869100  0.73355500  0.52186900  1
  O  O13  1  0.60829400  0.35260200  0.61103300  1
  O  O14  1  0.70135000  0.77194200  0.49809700  1
  O  O15  1  0.08756800  0.38460000  0.59111600  1
  O  O16  1  0.39237600  0.60193600  0.41843100  1
  O  O17  1  0.81197100  0.24012600  0.51131400  1
  O  O18  1  0.29070600  0.27236100  0.48451300  1
  O  O19  1  0.89749500  0.66505200  0.37454800  1
  O  O20  1  0.34335400  0.90956100  0.30035700  1
  O  O21  1  0.60032300  0.11933500  0.45474600  1
  O  O22  1  0.07450100  0.19002400  0.39452800  1
  O  O23  1  0.65935800  0.41130500  0.29957000  1
  O  O24  1  0.58191200  0.81410400  0.09762300  1
  O  O25  1  0.14633900  0.57130000  0.18837000  1
  O  O26  1  0.07737200  0.87126400  0.05401000  1
  O  O27  1  0.86157200  0.07618200  0.19287300  1
  O  O28  1  0.80130900  0.73355500  0.02186900  1
  O  O29  1  0.39170600  0.35260200  0.11103300  1
  O  O30  1  0.91243200  0.38460000  0.09111600  1
  O  O31  1  0.18802900  0.24012600  0.01131400  1
loop_
_geom_bond_atom_site_label_1
_geom_bond_atom_site_label_2
_geom_bond_distance
_geom_bond_site_symmetry_2
Li0 O8 1.974808 1_555
Li0 O28 1.998036 1_556
Li0 O3 2.046886 1_655
Li0 O30 2.056841 1_556
Li1 O13 1.916251 1_555
Li1 O1 1.927154 1_555
Li1 O2 2.026964 1_555
Li1 O8 2.243741 1_555
Li2 O12 1.902122 1_555
Li2 O11 2.010501 1_565
Li2 O3 2.049958 1_555
Li2 O10 2.063385 1_455
Li3 O7 1.896397 1_555
Li3 O12 2.027566 1_555
Li3 O3 2.050928 1_555
Li3 O15 2.138397 1_555
Li4 O8 1.954096 1_555
Li4 O15 1.970847 1_655
Li4 O17 1.994670 1_555
Li4 O6 2.061865 1_555
Li5 O7 1.915901 1_555
Li5 O13 1.964396 1_555
Li5 O16 1.982935 1_555
Li5 O18 2.084803 1_555
Li6 O25 1.974808 1_555
Li6 O12 1.998036 1_555
Li6 O19 2.046886 1_455
Li6 O15 2.056841 1_555
Li7 O29 1.916251 1_555
Li7 O16 1.927154 1_555
Li7 O18 2.026964 1_555
Li7 O25 2.243741 1_555
Li8 O28 1.902122 1_555
Li8 O27 2.010501 1_565
Li8 O19 2.049958 1_555
Li8 O26 2.063385 1_655
Li9 O23 1.896397 1_555
Li9 O28 2.027566 1_555
Li9 O19 2.050928 1_555
Li9 O30 2.138397 1_555
Li10 O25 1.954096 1_555
Li10 O30 1.970847 1_455
Li10 O31 1.994670 1_555
Li10 O22 2.061865 1_555
Li11 O23 1.915901 1_555
Li11 O29 1.964396 1_555
Li11 O1 1.982935 1_554
Li11 O2 2.084803 1_554
Fe0 O31 1.888455 1_556
Fe0 O6 1.917016 1_455
Fe0 O11 1.921337 1_555
Fe0 O26 1.926831 1_546
Fe1 O17 1.888455 1_555
Fe1 O22 1.917016 1_655
Fe1 O27 1.921337 1_555
Fe1 O10 1.926831 1_545
Fe2 O9 1.874840 1_555
Fe2 O4 1.882652 1_555
Fe2 O21 1.891660 1_565
Fe2 O14 1.926464 1_555
Fe3 O24 1.874840 1_555
Fe3 O20 1.882652 1_555
Fe3 O5 1.891660 1_564
Fe3 O0 1.926464 1_554
O0 P6 1.542559 1_556
O1 P0 1.522897 1_555
O2 P7 1.498986 1_556
O3 P6 1.548329 1_556
O4 P0 1.569529 1_555
O5 P1 1.560592 1_555
O6 P7 1.593191 1_556
O7 P1 1.522341 1_555
O8 P2 1.542758 1_555
O9 P3 1.567381 1_555
O10 P2 1.604818 1_555
O11 P4 1.603117 1_555
O12 P3 1.555359 1_555
O13 P5 1.515282 1_555
O14 P2 1.542559 1_555
O15 P4 1.551287 1_555
O16 P3 1.522897 1_555
O17 P5 1.627130 1_555
O18 P4 1.498986 1_555
O19 P2 1.548329 1_555
O20 P3 1.569529 1_555
O21 P5 1.560592 1_555
O22 P4 1.593191 1_555
O23 P5 1.522341 1_555
O24 P0 1.567381 1_554
O25 P6 1.542758 1_555
O26 P6 1.604818 1_555
O27 P7 1.603117 1_555
O28 P0 1.555359 1_554
O29 P1 1.515282 1_554
O30 P7 1.551287 1_555
O31 P1 1.627130 1_554
