# generated using pymatgen
data_Tb3NbO7
_symmetry_space_group_name_H-M   'P 1'
_cell_length_a   7.49942700
_cell_length_b   7.63413400
_cell_length_c   10.64209900
_cell_angle_alpha   90.00000000
_cell_angle_beta   90.00000000
_cell_angle_gamma   90.00000000
_symmetry_Int_Tables_number   1
_chemical_formula_structural   Tb3NbO7
_chemical_formula_sum   'Tb12 Nb4 O28'
_cell_volume   609.27752120
_cell_formula_units_Z   4
loop_
 _symmetry_equiv_pos_site_id
 _symmetry_equiv_pos_as_xyz
  1  'x, y, z'
loop_
 _atom_site_type_symbol
 _atom_site_label
 _atom_site_symmetry_multiplicity
 _atom_site_fract_x
 _atom_site_fract_y
 _atom_site_fract_z
 _atom_site_occupancy
  Tb  Tb0  1  0.01544100  0.79958100  0.25000000  1
  Tb  Tb1  1  0.24960700  0.96663400  0.52178600  1
  Tb  Tb2  1  0.24960700  0.96663400  0.97821400  1
  Tb  Tb3  1  0.25039300  0.46663400  0.02178600  1
  Tb  Tb4  1  0.25039300  0.46663400  0.47821400  1
  Tb  Tb5  1  0.48455900  0.29958100  0.75000000  1
  Tb  Tb6  1  0.51544100  0.70041900  0.25000000  1
  Tb  Tb7  1  0.74960700  0.53336600  0.52178600  1
  Tb  Tb8  1  0.74960700  0.53336600  0.97821400  1
  Tb  Tb9  1  0.75039300  0.03336600  0.02178600  1
  Tb  Tb10  1  0.75039300  0.03336600  0.47821400  1
  Tb  Tb11  1  0.98455900  0.20041900  0.75000000  1
  Nb  Nb0  1  0.99561500  0.74574000  0.75000000  1
  Nb  Nb1  1  0.50438500  0.24574000  0.25000000  1
  Nb  Nb2  1  0.49561500  0.75426000  0.75000000  1
  Nb  Nb3  1  0.00438500  0.25426000  0.25000000  1
  O  O0  1  0.03727000  0.04585600  0.12465100  1
  O  O1  1  0.03727000  0.04585600  0.37534900  1
  O  O2  1  0.04170200  0.59062100  0.60979900  1
  O  O3  1  0.04170200  0.59062100  0.89020100  1
  O  O4  1  0.24920600  0.33857600  0.25000000  1
  O  O5  1  0.25722500  0.73274700  0.11591600  1
  O  O6  1  0.25722500  0.73274700  0.38408400  1
  O  O7  1  0.24277500  0.23274700  0.61591600  1
  O  O8  1  0.24277500  0.23274700  0.88408400  1
  O  O9  1  0.25079400  0.83857600  0.75000000  1
  O  O10  1  0.45829800  0.09062100  0.10979900  1
  O  O11  1  0.45829800  0.09062100  0.39020100  1
  O  O12  1  0.46273000  0.54585600  0.62465100  1
  O  O13  1  0.46273000  0.54585600  0.87534900  1
  O  O14  1  0.53727000  0.45414400  0.12465100  1
  O  O15  1  0.53727000  0.45414400  0.37534900  1
  O  O16  1  0.54170200  0.90937900  0.60979900  1
  O  O17  1  0.54170200  0.90937900  0.89020100  1
  O  O18  1  0.74920600  0.16142400  0.25000000  1
  O  O19  1  0.75722500  0.76725300  0.11591600  1
  O  O20  1  0.75722500  0.76725300  0.38408400  1
  O  O21  1  0.74277500  0.26725300  0.61591600  1
  O  O22  1  0.74277500  0.26725300  0.88408400  1
  O  O23  1  0.75079400  0.66142400  0.75000000  1
  O  O24  1  0.95829800  0.40937900  0.10979900  1
  O  O25  1  0.95829800  0.40937900  0.39020100  1
  O  O26  1  0.96273000  0.95414400  0.62465100  1
  O  O27  1  0.96273000  0.95414400  0.87534900  1
loop_
_geom_bond_atom_site_label_1
_geom_bond_atom_site_label_2
_geom_bond_distance
_geom_bond_site_symmetry_2
Nb0 O2 1.935962 1_655
Nb0 O3 1.935962 1_655
Nb0 O23 1.945580 1_555
Nb0 O9 2.040716 1_655
Nb0 O27 2.090824 1_555
Nb0 O26 2.090824 1_555
Nb1 O11 1.935962 1_555
Nb1 O10 1.935962 1_555
Nb1 O18 1.945580 1_555
Nb1 O4 2.040716 1_555
Nb1 O14 2.090824 1_555
Nb1 O15 2.090824 1_555
Nb2 O17 1.935962 1_555
Nb2 O16 1.935962 1_555
Nb2 O9 1.945580 1_555
Nb2 O23 2.040716 1_555
Nb2 O12 2.090824 1_555
Nb2 O13 2.090824 1_555
Nb3 O24 1.935962 1_455
Nb3 O25 1.935962 1_455
Nb3 O4 1.945580 1_555
Nb3 O18 2.040716 1_455
Nb3 O1 2.090824 1_555
Nb3 O0 2.090824 1_555
O0 Tb2 2.308707 1_544
O0 Tb0 2.311072 1_545
O0 Tb9 2.415789 1_455
O1 Tb1 2.308707 1_545
O1 Tb0 2.311072 1_545
O1 Tb10 2.415789 1_455
O2 Tb4 2.303541 1_555
O2 Tb7 2.422156 1_455
O3 Tb3 2.303541 1_556
O3 Tb8 2.422156 1_455
O4 Tb4 2.618066 1_555
O4 Tb3 2.618066 1_555
O5 Tb3 2.265673 1_555
O5 Tb2 2.310600 1_554
O5 Tb0 2.363115 1_555
O5 Tb6 2.418052 1_555
O6 Tb4 2.265673 1_555
O6 Tb1 2.310600 1_555
O6 Tb0 2.363115 1_555
O6 Tb6 2.418052 1_555
O7 Tb1 2.265673 1_545
O7 Tb4 2.310600 1_555
O7 Tb5 2.363115 1_555
O7 Tb11 2.418052 1_455
O8 Tb2 2.265673 1_545
O8 Tb3 2.310600 1_556
O8 Tb5 2.363115 1_555
O8 Tb11 2.418052 1_455
O9 Tb2 2.618066 1_555
O9 Tb1 2.618066 1_555
O10 Tb2 2.303541 1_544
O10 Tb9 2.422156 1_555
O11 Tb1 2.303541 1_545
O11 Tb10 2.422156 1_555
O12 Tb4 2.308707 1_555
O12 Tb5 2.311072 1_555
O12 Tb7 2.415789 1_555
O13 Tb3 2.308707 1_556
O13 Tb5 2.311072 1_555
O13 Tb8 2.415789 1_555
O14 Tb8 2.308707 1_554
O14 Tb6 2.311072 1_555
O14 Tb3 2.415789 1_555
O15 Tb7 2.308707 1_555
O15 Tb6 2.311072 1_555
O15 Tb4 2.415789 1_555
O16 Tb10 2.303541 1_565
O16 Tb1 2.422156 1_555
O17 Tb9 2.303541 1_566
O17 Tb2 2.422156 1_555
O18 Tb10 2.618066 1_555
O18 Tb9 2.618066 1_555
O19 Tb9 2.265673 1_565
O19 Tb8 2.310600 1_554
O19 Tb6 2.363115 1_555
O19 Tb0 2.418052 1_655
O20 Tb10 2.265673 1_565
O20 Tb7 2.310600 1_555
O20 Tb6 2.363115 1_555
O20 Tb0 2.418052 1_655
O21 Tb7 2.265673 1_555
O21 Tb10 2.310600 1_555
O21 Tb11 2.363115 1_555
O21 Tb5 2.418052 1_555
O22 Tb8 2.265673 1_555
O22 Tb9 2.310600 1_556
O22 Tb11 2.363115 1_555
O22 Tb5 2.418052 1_555
O23 Tb7 2.618066 1_555
O23 Tb8 2.618066 1_555
O24 Tb8 2.303541 1_554
O24 Tb3 2.422156 1_655
O25 Tb7 2.303541 1_555
O25 Tb4 2.422156 1_655
O26 Tb10 2.308707 1_565
O26 Tb11 2.311072 1_565
O26 Tb1 2.415789 1_655
O27 Tb9 2.308707 1_566
O27 Tb11 2.311072 1_565
O27 Tb2 2.415789 1_655
