# generated using pymatgen
data_Li3Cr2(PO4)3
_symmetry_space_group_name_H-M   'P 1'
_cell_length_a   8.58849760
_cell_length_b   8.58849760
_cell_length_c   8.55285725
_cell_angle_alpha   61.28035393
_cell_angle_beta   61.28035393
_cell_angle_gamma   61.32234265
_symmetry_Int_Tables_number   1
_chemical_formula_structural   Li3Cr2(PO4)3
_chemical_formula_sum   'Li6 Cr4 P6 O24'
_cell_volume   459.07807546
_cell_formula_units_Z   2
loop_
 _symmetry_equiv_pos_site_id
 _symmetry_equiv_pos_as_xyz
  1  'x, y, z'
loop_
 _atom_site_type_symbol
 _atom_site_label
 _atom_site_symmetry_multiplicity
 _atom_site_fract_x
 _atom_site_fract_y
 _atom_site_fract_z
 _atom_site_occupancy
  Li  Li0  1  0.99512200  0.50297900  0.72238100  1
  Li  Li1  1  0.84940400  0.15059600  0.00000000  1
  Li  Li2  1  0.49702100  0.00487800  0.27761900  1
  Li  Li3  1  0.15356700  0.84643300  0.50000000  1
  Li  Li4  1  0.74944000  0.65657100  0.09617500  1
  Li  Li5  1  0.34342900  0.25056000  0.90382500  1
  Cr  Cr0  1  0.85514800  0.36149500  0.60790000  1
  Cr  Cr1  1  0.63850500  0.14485200  0.39210000  1
  Cr  Cr2  1  0.35430300  0.85466100  0.10542800  1
  Cr  Cr3  1  0.14533900  0.64569700  0.89457200  1
  P  P0  1  0.24910800  0.04826600  0.70233600  1
  P  P1  1  0.95173400  0.75089200  0.29766400  1
  P  P2  1  0.54427000  0.45573000  0.00000000  1
  P  P3  1  0.45994000  0.54006000  0.50000000  1
  P  P4  1  0.03692600  0.24962500  0.20848700  1
  P  P5  1  0.75037500  0.96307400  0.79151300  1
  O  O0  1  0.71298800  0.99903800  0.61962000  1
  O  O1  1  0.48566000  0.37673700  0.45580800  1
  O  O2  1  0.07605900  0.23077900  0.70439900  1
  O  O3  1  0.87673200  0.20714000  0.21987200  1
  O  O4  1  0.40803100  0.06986500  0.51175900  1
  O  O5  1  0.19602300  0.88564100  0.73161100  1
  O  O6  1  0.93013500  0.59196900  0.48824100  1
  O  O7  1  0.76922100  0.92394100  0.29560100  1
  O  O8  1  0.56766100  0.26132600  0.15811300  1
  O  O9  1  0.62326300  0.51434000  0.54419200  1
  O  O10  1  0.26551600  0.56619500  0.66270400  1
  O  O11  1  0.00096200  0.28701200  0.38038000  1
  O  O12  1  0.98399400  0.69432200  0.13559300  1
  O  O13  1  0.73867400  0.43233900  0.84188700  1
  O  O14  1  0.38491300  0.48440100  0.94434500  1
  O  O15  1  0.43380500  0.73448400  0.33729600  1
  O  O16  1  0.23054700  0.08736500  0.18466300  1
  O  O17  1  0.06618600  0.41413200  0.01724100  1
  O  O18  1  0.79286000  0.12326800  0.78012800  1
  O  O19  1  0.58586800  0.93381400  0.98275900  1
  O  O20  1  0.11435900  0.80397700  0.26838900  1
  O  O21  1  0.91263500  0.76945300  0.81533700  1
  O  O22  1  0.51559900  0.61508700  0.05565500  1
  O  O23  1  0.30567800  0.01600600  0.86440700  1
loop_
_geom_bond_atom_site_label_1
_geom_bond_atom_site_label_2
_geom_bond_distance
_geom_bond_site_symmetry_2
Li0 O6 2.024788 1_555
Li0 O2 2.157600 1_655
Li0 O13 2.187877 1_555
Li0 O10 2.398522 1_655
Li0 O21 2.454175 1_555
Li0 O17 2.549035 1_656
Li1 O8 2.114454 1_555
Li1 O13 2.114454 1_554
Li1 O18 2.288793 1_554
Li1 O3 2.288793 1_555
Li1 O7 2.353526 1_545
Li1 O2 2.353526 1_654
Li2 O4 2.024788 1_555
Li2 O7 2.157600 1_545
Li2 O8 2.187877 1_555
Li2 O15 2.398522 1_545
Li2 O16 2.454175 1_555
Li2 O19 2.549035 1_544
Li3 O10 2.121266 1_555
Li3 O15 2.121266 1_555
Li3 O20 2.371404 1_555
Li3 O5 2.371404 1_555
Li3 O21 2.495752 1_455
Li3 O16 2.495752 1_565
Li4 O19 2.112720 1_554
Li4 O21 2.122394 1_554
Li4 O12 2.379383 1_555
Li4 O22 2.398918 1_555
Li4 O15 2.502374 1_555
Li4 O17 2.518180 1_655
Li5 O17 2.112720 1_556
Li5 O16 2.122394 1_556
Li5 O23 2.379383 1_555
Li5 O14 2.398918 1_555
Li5 O10 2.502374 1_555
Li5 O19 2.518180 1_545
Cr0 O9 1.957730 1_555
Cr0 O11 1.962054 1_655
Cr0 O6 2.005860 1_555
Cr0 O13 2.009483 1_555
Cr0 O18 2.009702 1_555
Cr0 O2 2.027660 1_655
Cr1 O1 1.957730 1_555
Cr1 O0 1.962054 1_545
Cr1 O4 2.005860 1_555
Cr1 O8 2.009483 1_555
Cr1 O3 2.009702 1_555
Cr1 O7 2.027660 1_545
Cr2 O23 1.967414 1_564
Cr2 O22 1.968065 1_555
Cr2 O20 1.973915 1_555
Cr2 O15 2.030311 1_555
Cr2 O19 2.031018 1_554
Cr2 O16 2.038117 1_565
Cr3 O12 1.967414 1_456
Cr3 O14 1.968065 1_555
Cr3 O5 1.973915 1_555
Cr3 O10 2.030311 1_555
Cr3 O17 2.031018 1_556
Cr3 O21 2.038117 1_455
O0 P5 1.510631 1_555
O1 P3 1.513645 1_555
O2 P0 1.559398 1_555
O3 P4 1.534417 1_655
O4 P0 1.539000 1_555
O5 P0 1.544895 1_565
O6 P1 1.539000 1_555
O7 P1 1.559398 1_555
O8 P2 1.557577 1_555
O9 P3 1.513645 1_555
O10 P3 1.575579 1_555
O11 P4 1.510631 1_555
O12 P1 1.543771 1_555
O13 P2 1.557577 1_556
O14 P2 1.533099 1_556
O15 P3 1.575579 1_555
O16 P4 1.572244 1_555
O17 P4 1.568304 1_555
O18 P5 1.534417 1_545
O19 P5 1.568304 1_555
O20 P1 1.544895 1_455
O21 P5 1.572244 1_555
O22 P2 1.533099 1_555
O23 P0 1.543771 1_555
