# generated using pymatgen
data_Li8MnFe7(BO3)8
_symmetry_space_group_name_H-M   'P 1'
_cell_length_a   5.22172200
_cell_length_b   9.06358808
_cell_length_c   10.40015206
_cell_angle_alpha   91.63205561
_cell_angle_beta   91.05173527
_cell_angle_gamma   89.99231301
_symmetry_Int_Tables_number   1
_chemical_formula_structural   Li8MnFe7(BO3)8
_chemical_formula_sum   'Li8 Mn1 Fe7 B8 O24'
_cell_volume   491.93098439
_cell_formula_units_Z   1
loop_
 _symmetry_equiv_pos_site_id
 _symmetry_equiv_pos_as_xyz
  1  'x, y, z'
loop_
 _atom_site_type_symbol
 _atom_site_label
 _atom_site_symmetry_multiplicity
 _atom_site_fract_x
 _atom_site_fract_y
 _atom_site_fract_z
 _atom_site_occupancy
  Li  Li0  1  0.84919800  0.82805300  0.66490500  1
  Li  Li1  1  0.81705000  0.83617800  0.16848500  1
  Li  Li2  1  0.68144200  0.66855300  0.41574300  1
  Li  Li3  1  0.66205800  0.67396500  0.91485900  1
  Li  Li4  1  0.34614300  0.32747000  0.66657500  1
  Li  Li5  1  0.31770900  0.33678200  0.16748500  1
  Li  Li6  1  0.18441400  0.17037000  0.41439400  1
  Li  Li7  1  0.16190600  0.17488100  0.91517300  1
  Mn  Mn0  1  0.66715400  0.00300200  0.88422800  1
  Fe  Fe0  1  0.81978900  0.50104800  0.13365200  1
  Fe  Fe1  1  0.84198700  0.16129000  0.63282300  1
  Fe  Fe2  1  0.67404900  0.33119900  0.38385200  1
  Fe  Fe3  1  0.33380200  0.65952300  0.63424000  1
  Fe  Fe4  1  0.31554000  0.99965200  0.13143100  1
  Fe  Fe5  1  0.18265500  0.83276600  0.38288100  1
  Fe  Fe6  1  0.16566500  0.50030000  0.88558400  1
  B  B0  1  0.82842600  0.16804700  0.12847400  1
  B  B1  1  0.83363700  0.50024200  0.62559500  1
  B  B2  1  0.66857400  0.00136500  0.37522200  1
  B  B3  1  0.67174000  0.33693100  0.87511500  1
  B  B4  1  0.32976000  0.66685100  0.12603200  1
  B  B5  1  0.33772500  0.00019300  0.62508700  1
  B  B6  1  0.16557300  0.50211100  0.37545300  1
  B  B7  1  0.16894800  0.83210800  0.87653700  1
  O  O0  1  0.90346900  0.51420000  0.34592600  1
  O  O1  1  0.90600200  0.82115900  0.86189300  1
  O  O2  1  0.82133100  0.21308600  0.84497000  1
  O  O3  1  0.80812200  0.12738100  0.41519300  1
  O  O4  1  0.78777500  0.86688200  0.36219100  1
  O  O5  1  0.78798600  0.46860400  0.91678000  1
  O  O6  1  0.72023000  0.63769200  0.61307600  1
  O  O7  1  0.70767500  0.03317200  0.09939900  1
  O  O8  1  0.69190100  0.37212100  0.59668300  1
  O  O9  1  0.68684500  0.29156100  0.16539100  1
  O  O10  1  0.59379500  0.67847600  0.11422800  1
  O  O11  1  0.59406700  0.99140600  0.66447600  1
  O  O12  1  0.40470500  0.01441400  0.34717700  1
  O  O13  1  0.40752300  0.32781000  0.86226200  1
  O  O14  1  0.32264300  0.71005300  0.84608400  1
  O  O15  1  0.30457700  0.62675600  0.41677000  1
  O  O16  1  0.28807000  0.36761000  0.36155900  1
  O  O17  1  0.27993900  0.96571600  0.91900100  1
  O  O18  1  0.21021900  0.53177000  0.09599300  1
  O  O19  1  0.22150800  0.13765300  0.61306800  1
  O  O20  1  0.19744300  0.87265100  0.59632200  1
  O  O21  1  0.18685400  0.78919300  0.16526700  1
  O  O22  1  0.09252900  0.17892300  0.11534900  1
  O  O23  1  0.09045100  0.48943100  0.66471500  1
loop_
_geom_bond_atom_site_label_1
_geom_bond_atom_site_label_2
_geom_bond_distance
_geom_bond_site_symmetry_2
Li0 O6 1.911785 1_555
Li0 O11 1.991617 1_555
Li0 O20 2.010748 1_655
Li0 O1 2.067379 1_555
Li1 O10 1.910715 1_555
Li1 O21 1.978035 1_655
Li1 O7 2.021901 1_565
Li1 O4 2.034373 1_555
Li2 O0 1.949651 1_555
Li2 O4 1.979495 1_555
Li2 O15 2.004345 1_555
Li2 O6 2.085328 1_555
Li3 O14 1.930385 1_555
Li3 O1 1.942663 1_555
Li3 O5 1.974477 1_555
Li3 O10 2.109573 1_556
Li4 O19 1.904088 1_555
Li4 O23 1.984445 1_555
Li4 O8 2.004229 1_555
Li4 O13 2.054353 1_555
Li5 O22 1.912206 1_555
Li5 O9 1.970949 1_555
Li5 O18 2.012573 1_555
Li5 O16 2.038453 1_555
Li6 O12 1.944922 1_555
Li6 O16 1.964159 1_555
Li6 O3 2.003416 1_455
Li6 O19 2.101188 1_555
Li7 O2 1.944792 1_455
Li7 O13 1.984640 1_555
Li7 O17 1.994628 1_545
Li7 O22 2.118977 1_556
Mn0 O1 2.077050 1_545
Mn0 O17 2.089780 1_545
Mn0 O2 2.120673 1_555
Mn0 O7 2.252803 1_556
Mn0 O11 2.309611 1_545
Fe0 O10 2.007170 1_555
Fe0 O9 2.059226 1_555
Fe0 O18 2.103087 1_655
Fe0 O0 2.242456 1_555
Fe0 O5 2.269321 1_554
Fe1 O19 2.006933 1_655
Fe1 O11 2.049436 1_545
Fe1 O8 2.106335 1_555
Fe1 O2 2.247171 1_555
Fe1 O3 2.279109 1_555
Fe2 O3 2.008618 1_555
Fe2 O16 2.052274 1_555
Fe2 O0 2.096892 1_555
Fe2 O8 2.234144 1_555
Fe2 O9 2.292316 1_555
Fe3 O23 2.033462 1_555
Fe3 O6 2.042771 1_555
Fe3 O20 2.103972 1_555
Fe3 O14 2.239309 1_555
Fe3 O15 2.275072 1_555
Fe4 O22 2.007974 1_565
Fe4 O21 2.064276 1_555
Fe4 O7 2.104045 1_565
Fe4 O17 2.226302 1_554
Fe4 O12 2.283384 1_565
Fe5 O15 2.011185 1_555
Fe5 O12 2.060098 1_565
Fe5 O4 2.093060 1_455
Fe5 O20 2.238805 1_555
Fe5 O21 2.286813 1_555
Fe6 O13 2.021646 1_555
Fe6 O5 2.026341 1_455
Fe6 O14 2.124186 1_555
Fe6 O18 2.206774 1_556
Fe6 O23 2.322605 1_555
B0 O9 1.390296 1_555
B0 O22 1.392086 1_655
B0 O7 1.398407 1_555
B1 O6 1.387744 1_555
B1 O23 1.398445 1_655
B1 O8 1.399575 1_555
B2 O4 1.372949 1_545
B2 O3 1.403697 1_555
B2 O12 1.408794 1_555
B3 O13 1.385935 1_555
B3 O5 1.393405 1_555
B3 O2 1.398969 1_555
B4 O10 1.390692 1_555
B4 O21 1.392153 1_555
B4 O18 1.399090 1_555
B5 O20 1.390994 1_545
B5 O19 1.393556 1_555
B5 O11 1.395552 1_545
B6 O16 1.381770 1_555
B6 O15 1.396030 1_555
B6 O0 1.402111 1_455
B7 O1 1.381939 1_455
B7 O14 1.399049 1_555
B7 O17 1.399180 1_555
