# generated using pymatgen
data_K3H8RhC4(ClO6)2
_symmetry_space_group_name_H-M   'P 1'
_cell_length_a   8.34788201
_cell_length_b   8.34788201
_cell_length_c   6.44823289
_cell_angle_alpha   71.67254182
_cell_angle_beta   71.67254182
_cell_angle_gamma   91.80278914
_symmetry_Int_Tables_number   1
_chemical_formula_structural   K3H8RhC4(ClO6)2
_chemical_formula_sum   'K3 H8 Rh1 C4 Cl2 O12'
_cell_volume   400.66957358
_cell_formula_units_Z   1
loop_
 _symmetry_equiv_pos_site_id
 _symmetry_equiv_pos_as_xyz
  1  'x, y, z'
loop_
 _atom_site_type_symbol
 _atom_site_label
 _atom_site_symmetry_multiplicity
 _atom_site_fract_x
 _atom_site_fract_y
 _atom_site_fract_z
 _atom_site_occupancy
  K  K0  1  0.50000000  0.50000000  0.00000000  1
  K  K1  1  0.76921400  0.23078600  0.50000000  1
  K  K2  1  0.23078600  0.76921400  0.50000000  1
  H  H0  1  0.87306100  0.54561100  0.97847200  1
  H  H1  1  0.54561100  0.87306100  0.97847200  1
  H  H2  1  0.37717300  0.86973200  0.92346300  1
  H  H3  1  0.86973200  0.37717300  0.92346300  1
  H  H4  1  0.62282700  0.13026800  0.07653700  1
  H  H5  1  0.13026800  0.62282700  0.07653700  1
  H  H6  1  0.45438900  0.12693900  0.02152800  1
  H  H7  1  0.12693900  0.45438900  0.02152800  1
  Rh  Rh0  1  0.00000000  0.00000000  0.00000000  1
  C  C0  1  0.70277900  0.83176200  0.39229100  1
  C  C1  1  0.83176200  0.70277900  0.39229100  1
  C  C2  1  0.29722100  0.16823800  0.60770900  1
  C  C3  1  0.16823800  0.29722100  0.60770900  1
  Cl  Cl0  1  0.86140300  0.86140300  0.82067400  1
  Cl  Cl1  1  0.13859700  0.13859700  0.17932600  1
  O  O0  1  0.57299400  0.18183000  0.95556700  1
  O  O1  1  0.18183000  0.57299400  0.95556700  1
  O  O2  1  0.78727600  0.55487200  0.53226800  1
  O  O3  1  0.55487200  0.78727600  0.53226800  1
  O  O4  1  0.76263900  0.98515900  0.24003800  1
  O  O5  1  0.98515900  0.76263900  0.24003800  1
  O  O6  1  0.23736100  0.01484100  0.75996200  1
  O  O7  1  0.01484100  0.23736100  0.75996200  1
  O  O8  1  0.44512800  0.21272400  0.46773200  1
  O  O9  1  0.21272400  0.44512800  0.46773200  1
  O  O10  1  0.81817000  0.42700600  0.04443300  1
  O  O11  1  0.42700600  0.81817000  0.04443300  1
loop_
_geom_bond_atom_site_label_1
_geom_bond_atom_site_label_2
_geom_bond_distance
_geom_bond_site_symmetry_2
K0 O10 2.824640 1_555
K0 O11 2.824640 1_555
K0 O0 2.824640 1_554
K0 O1 2.824640 1_554
K0 O8 3.093663 1_555
K0 O9 3.093663 1_555
K0 O2 3.093663 1_554
K0 O3 3.093663 1_554
K1 O0 2.767012 1_555
K1 O10 2.767012 1_555
K1 O2 2.780912 1_555
K1 O8 2.780912 1_555
K1 O7 3.038058 1_655
K1 O4 3.038058 1_545
K2 O1 2.767012 1_555
K2 O11 2.767012 1_555
K2 O3 2.780912 1_555
K2 O9 2.780912 1_555
K2 O6 3.038058 1_565
K2 O5 3.038058 1_455
H0 O10 0.977353 1_556
H1 O11 0.977353 1_556
H2 O11 0.985384 1_556
H3 O10 0.985384 1_556
H4 O0 0.985384 1_554
H5 O1 0.985384 1_554
H6 O0 0.977353 1_554
H7 O1 0.977353 1_554
C0 O3 1.239592 1_555
C0 O4 1.309166 1_555
C1 O2 1.239592 1_555
C1 O5 1.309166 1_555
C2 O8 1.239592 1_555
C2 O6 1.309166 1_555
C3 O9 1.239592 1_555
C3 O7 1.309166 1_555
Cl0 Rh0 2.369157 1_666
Cl0 K2 3.393600 1_655
Cl0 K1 3.393600 1_565
Cl1 Rh0 2.369157 1_555
Cl1 K1 3.393600 1_455
Cl1 K2 3.393600 1_545
O4 Rh0 2.066993 1_665
O5 Rh0 2.066993 1_665
O6 Rh0 2.066993 1_556
O7 Rh0 2.066993 1_556
