# generated using pymatgen
data_BaH2(SO4)2
_symmetry_space_group_name_H-M   'P 1'
_cell_length_a   4.79107700
_cell_length_b   10.79553600
_cell_length_c   13.36699800
_cell_angle_alpha   90.00000000
_cell_angle_beta   90.00000000
_cell_angle_gamma   90.00000000
_symmetry_Int_Tables_number   1
_chemical_formula_structural   BaH2(SO4)2
_chemical_formula_sum   'Ba4 H8 S8 O32'
_cell_volume   691.37113521
_cell_formula_units_Z   4
loop_
 _symmetry_equiv_pos_site_id
 _symmetry_equiv_pos_as_xyz
  1  'x, y, z'
loop_
 _atom_site_type_symbol
 _atom_site_label
 _atom_site_symmetry_multiplicity
 _atom_site_fract_x
 _atom_site_fract_y
 _atom_site_fract_z
 _atom_site_occupancy
  Ba  Ba0  1  0.50749900  0.56260900  0.33570500  1
  Ba  Ba1  1  0.99250100  0.43739100  0.83570500  1
  Ba  Ba2  1  0.00749900  0.93739100  0.66429500  1
  Ba  Ba3  1  0.49250100  0.06260900  0.16429500  1
  H  H0  1  0.21333900  0.76035500  0.90959600  1
  H  H1  1  0.28666100  0.23964500  0.40959600  1
  H  H2  1  0.71333900  0.73964500  0.09040400  1
  H  H3  1  0.78666100  0.26035500  0.59040400  1
  H  H4  1  0.44339600  0.55368400  0.63118100  1
  H  H5  1  0.05660400  0.44631600  0.13118100  1
  H  H6  1  0.94339600  0.94631600  0.36881900  1
  H  H7  1  0.55660400  0.05368400  0.86881900  1
  S  S0  1  0.56224900  0.71545600  0.81484400  1
  S  S1  1  0.93775100  0.28454400  0.31484400  1
  S  S2  1  0.06224900  0.78454400  0.18515600  1
  S  S3  1  0.43775100  0.21545600  0.68515600  1
  S  S4  1  0.03632700  0.57879500  0.56340000  1
  S  S5  1  0.46367300  0.42120500  0.06340000  1
  S  S6  1  0.53632700  0.92120500  0.43660000  1
  S  S7  1  0.96367300  0.07879500  0.93660000  1
  O  O0  1  0.51625200  0.82447300  0.75101100  1
  O  O1  1  0.98374800  0.17552700  0.25101100  1
  O  O2  1  0.01625200  0.67552700  0.24898900  1
  O  O3  1  0.48374800  0.32447300  0.74898900  1
  O  O4  1  0.85493600  0.69832400  0.84347900  1
  O  O5  1  0.64506400  0.30167600  0.34347900  1
  O  O6  1  0.35493600  0.80167600  0.15652100  1
  O  O7  1  0.14506400  0.19832400  0.65652100  1
  O  O8  1  0.44065300  0.60108500  0.77281800  1
  O  O9  1  0.05934700  0.39891500  0.27281800  1
  O  O10  1  0.94065300  0.89891500  0.22718200  1
  O  O11  1  0.55934700  0.10108500  0.72718200  1
  O  O12  1  0.41386300  0.74125300  0.91919900  1
  O  O13  1  0.08613700  0.25874700  0.41919900  1
  O  O14  1  0.91386300  0.75874700  0.08080100  1
  O  O15  1  0.58613700  0.24125300  0.58080100  1
  O  O16  1  0.97710700  0.55860800  0.45682700  1
  O  O17  1  0.52289300  0.44139200  0.95682700  1
  O  O18  1  0.47710700  0.94139200  0.54317300  1
  O  O19  1  0.02289300  0.05860800  0.04317300  1
  O  O20  1  0.97430600  0.70427100  0.59736700  1
  O  O21  1  0.52569400  0.29572900  0.09736700  1
  O  O22  1  0.47430600  0.79572900  0.40263300  1
  O  O23  1  0.02569400  0.20427100  0.90263300  1
  O  O24  1  0.57713900  0.51631200  0.12994800  1
  O  O25  1  0.92286100  0.48368800  0.62994800  1
  O  O26  1  0.07713900  0.98368800  0.87005200  1
  O  O27  1  0.42286100  0.01631200  0.37005200  1
  O  O28  1  0.36920300  0.55982200  0.56227500  1
  O  O29  1  0.13079700  0.44017800  0.06227500  1
  O  O30  1  0.86920300  0.94017800  0.43772500  1
  O  O31  1  0.63079700  0.05982200  0.93772500  1
loop_
_geom_bond_atom_site_label_1
_geom_bond_atom_site_label_2
_geom_bond_distance
_geom_bond_site_symmetry_2
Ba0 O22 2.675668 1_555
Ba0 O16 2.772242 1_555
Ba0 O24 2.815238 1_555
Ba0 O2 2.892925 1_555
Ba0 O5 2.894854 1_555
Ba0 O9 2.905110 1_555
Ba0 O2 2.961563 1_655
Ba0 O16 3.013401 1_455
Ba0 O28 3.100340 1_555
Ba0 O9 3.289369 1_655
Ba1 O23 2.675668 1_655
Ba1 O17 2.772242 1_555
Ba1 O25 2.815238 1_555
Ba1 O3 2.892925 1_655
Ba1 O4 2.894854 1_555
Ba1 O8 2.905110 1_655
Ba1 O3 2.961563 1_555
Ba1 O17 3.013401 1_655
Ba1 O29 3.100340 1_656
Ba1 O8 3.289369 1_555
Ba2 O20 2.675668 1_455
Ba2 O18 2.772242 1_555
Ba2 O26 2.815238 1_555
Ba2 O0 2.892925 1_455
Ba2 O7 2.894854 1_565
Ba2 O11 2.905110 1_465
Ba2 O0 2.961563 1_555
Ba2 O18 3.013401 1_455
Ba2 O30 3.100340 1_455
Ba2 O11 3.289369 1_565
Ba3 O21 2.675668 1_555
Ba3 O19 2.772242 1_555
Ba3 O27 2.815238 1_555
Ba3 O1 2.892925 1_555
Ba3 O6 2.894854 1_545
Ba3 O10 2.905110 1_545
Ba3 O1 2.961563 1_455
Ba3 O19 3.013401 1_655
Ba3 O31 3.100340 1_554
Ba3 O10 3.289369 1_445
H0 O12 0.990957 1_555
H1 O13 0.990957 1_555
H2 O14 0.990957 1_555
H3 O15 0.990957 1_555
H4 O28 0.989499 1_555
H5 O29 0.989499 1_555
H6 O30 0.989499 1_555
H7 O31 0.989499 1_555
O0 S0 1.470271 1_555
O1 S1 1.470271 1_555
O2 S2 1.470271 1_555
O3 S3 1.470271 1_555
O4 S0 1.465306 1_555
O5 S1 1.465306 1_555
O6 S2 1.465306 1_555
O7 S3 1.465306 1_555
O8 S0 1.476294 1_555
O9 S1 1.476294 1_455
O10 S2 1.476294 1_655
O11 S3 1.476294 1_555
O12 S0 1.590208 1_555
O13 S1 1.590208 1_455
O14 S2 1.590208 1_655
O15 S3 1.590208 1_555
O16 S4 1.468798 1_655
O17 S5 1.468798 1_556
O18 S6 1.468798 1_555
O19 S7 1.468798 1_454
O20 S4 1.459224 1_655
O21 S5 1.459224 1_555
O22 S6 1.459224 1_555
O23 S7 1.459224 1_455
O24 S5 1.463215 1_555
O25 S4 1.463215 1_655
O26 S7 1.463215 1_465
O27 S6 1.463215 1_545
O28 S4 1.608004 1_555
O29 S5 1.608004 1_555
O30 S6 1.608004 1_555
O31 S7 1.608004 1_555
