# generated using pymatgen
data_Ce2TiO5
_symmetry_space_group_name_H-M   'P 1'
_cell_length_a   6.70534470
_cell_length_b   6.70534470
_cell_length_c   7.69089590
_cell_angle_alpha   67.15272030
_cell_angle_beta   67.15272030
_cell_angle_gamma   46.94467873
_symmetry_Int_Tables_number   1
_chemical_formula_structural   Ce2TiO5
_chemical_formula_sum   'Ce4 Ti2 O10'
_cell_volume   228.91677907
_cell_formula_units_Z   2
loop_
 _symmetry_equiv_pos_site_id
 _symmetry_equiv_pos_as_xyz
  1  'x, y, z'
loop_
 _atom_site_type_symbol
 _atom_site_label
 _atom_site_symmetry_multiplicity
 _atom_site_fract_x
 _atom_site_fract_y
 _atom_site_fract_z
 _atom_site_occupancy
  Ce  Ce0  1  0.66475600  0.61678400  0.73194800  1
  Ce  Ce1  1  0.61678400  0.66475600  0.23194800  1
  Ce  Ce2  1  0.38321600  0.33524400  0.76805200  1
  Ce  Ce3  1  0.33524400  0.38321600  0.26805200  1
  Ti  Ti0  1  0.00000000  0.00000000  0.50000000  1
  Ti  Ti1  1  0.00000000  0.00000000  0.00000000  1
  O  O0  1  0.98784800  0.67894500  0.63880200  1
  O  O1  1  0.67894500  0.98784800  0.13880200  1
  O  O2  1  0.38938300  0.75169000  0.54086000  1
  O  O3  1  0.84707100  0.15292900  0.75000000  1
  O  O4  1  0.24831000  0.61061700  0.95914000  1
  O  O5  1  0.75169000  0.38938300  0.04086000  1
  O  O6  1  0.15292900  0.84707100  0.25000000  1
  O  O7  1  0.61061700  0.24831000  0.45914000  1
  O  O8  1  0.32105500  0.01215200  0.86119800  1
  O  O9  1  0.01215200  0.32105500  0.36119800  1
loop_
_geom_bond_atom_site_label_1
_geom_bond_atom_site_label_2
_geom_bond_distance
_geom_bond_site_symmetry_2
Ce0 O0 2.275146 1_555
Ce0 O2 2.276368 1_555
Ce0 O8 2.291897 1_565
Ce0 O5 2.314725 1_556
Ce0 O3 2.406767 1_555
Ce0 O4 2.676746 1_555
Ce1 O1 2.275146 1_555
Ce1 O5 2.276368 1_555
Ce1 O9 2.291897 1_655
Ce1 O2 2.314725 1_555
Ce1 O6 2.406767 1_555
Ce1 O7 2.676746 1_555
Ce2 O8 2.275146 1_555
Ce2 O4 2.276368 1_555
Ce2 O0 2.291897 1_455
Ce2 O7 2.314725 1_555
Ce2 O3 2.406767 1_555
Ce2 O2 2.676746 1_555
Ce3 O9 2.275146 1_555
Ce3 O7 2.276368 1_555
Ce3 O1 2.291897 1_545
Ce3 O4 2.314725 1_554
Ce3 O6 2.406767 1_555
Ce3 O5 2.676746 1_555
O0 Ti0 2.041582 1_665
O1 Ti1 2.041582 1_665
O2 Ti0 1.995776 1_565
O3 Ti0 2.089057 1_655
O3 Ti1 2.089057 1_656
O4 Ti1 1.995776 1_566
O5 Ti1 1.995776 1_655
O6 Ti1 2.089057 1_565
O6 Ti0 2.089057 1_565
O7 Ti0 1.995776 1_655
O8 Ti1 2.041582 1_556
O9 Ti0 2.041582 1_555
