# generated using pymatgen
data_Li4Mn5O10
_symmetry_space_group_name_H-M   'P 1'
_cell_length_a   5.07384358
_cell_length_b   5.15433549
_cell_length_c   7.72947098
_cell_angle_alpha   109.34752002
_cell_angle_beta   87.56499081
_cell_angle_gamma   94.05622414
_symmetry_Int_Tables_number   1
_chemical_formula_structural   Li4Mn5O10
_chemical_formula_sum   'Li4 Mn5 O10'
_cell_volume   190.21090546
_cell_formula_units_Z   1
loop_
 _symmetry_equiv_pos_site_id
 _symmetry_equiv_pos_as_xyz
  1  'x, y, z'
loop_
 _atom_site_type_symbol
 _atom_site_label
 _atom_site_symmetry_multiplicity
 _atom_site_fract_x
 _atom_site_fract_y
 _atom_site_fract_z
 _atom_site_occupancy
  Li  Li0  1  0.56417888  0.86136184  0.20639614  1
  Li  Li1  1  0.43923665  0.29909530  0.19219495  1
  Li  Li2  1  0.41683915  0.49200449  0.59154893  1
  Li  Li3  1  0.41753865  0.09728535  0.80190793  1
  Mn  Mn0  1  0.99239341  0.00121352  0.00442045  1
  Mn  Mn1  1  0.01659507  0.58926761  0.20041172  1
  Mn  Mn2  1  0.97159168  0.80496461  0.59616927  1
  Mn  Mn3  1  0.99353257  0.19803131  0.39655679  1
  Mn  Mn4  1  0.97038787  0.40917964  0.80550086  1
  O  O0  1  0.80662287  0.65776828  0.01455670  1
  O  O1  1  0.21453031  0.97485998  0.19782425  1
  O  O2  1  0.80720348  0.84798377  0.39229867  1
  O  O3  1  0.21107457  0.32683964  0.00982778  1
  O  O4  1  0.78622755  0.20355103  0.20315034  1
  O  O5  1  0.21410497  0.51522221  0.38434178  1
  O  O6  1  0.78201298  0.45220157  0.57498608  1
  O  O7  1  0.17797250  0.75522530  0.78626249  1
  O  O8  1  0.17833566  0.16744951  0.61026119  1
  O  O9  1  0.78034319  0.07985203  0.83136867  1
loop_
_geom_bond_atom_site_label_1
_geom_bond_atom_site_label_2
_geom_bond_distance
_geom_bond_site_symmetry_2
Li0 O1 1.917398 1_555
Li0 O0 1.951862 1_555
Li0 O2 1.954025 1_555
Li0 O4 2.031400 1_565
Li1 O4 1.874109 1_555
Li1 O3 1.908729 1_555
Li1 O5 1.921248 1_555
Li1 O1 1.967017 1_545
Li2 O6 1.872884 1_555
Li2 O5 1.980392 1_555
Li2 O8 2.035403 1_555
Li2 O7 2.073494 1_555
Li3 O9 1.876460 1_555
Li3 O3 1.962782 1_556
Li3 O7 2.041726 1_545
Li3 O8 2.089968 1_555
Mn0 O4 1.870230 1_555
Mn0 O9 1.911613 1_554
Mn0 O3 1.934901 1_655
Mn0 O1 1.955225 1_645
Mn0 O0 1.969230 1_545
Mn0 O7 1.988711 1_644
Mn1 O5 1.925046 1_555
Mn1 O3 1.928321 1_555
Mn1 O0 1.960284 1_455
Mn1 O2 1.965413 1_455
Mn1 O1 2.168249 1_555
Mn1 O4 2.239705 1_455
Mn2 O2 1.896683 1_555
Mn2 O7 1.933766 1_655
Mn2 O6 1.956222 1_555
Mn2 O8 2.049546 1_665
Mn2 O9 2.142895 1_565
Mn2 O5 2.212192 1_655
Mn3 O4 1.872966 1_555
Mn3 O6 1.909489 1_555
Mn3 O5 1.941336 1_655
Mn3 O1 1.950755 1_645
Mn3 O2 1.967795 1_545
Mn3 O8 1.989375 1_655
Mn4 O0 1.899457 1_556
Mn4 O8 1.935934 1_655
Mn4 O9 1.956553 1_555
Mn4 O7 2.051699 1_655
Mn4 O6 2.138654 1_555
Mn4 O3 2.201616 1_656
