# generated using pymatgen
data_Li4Mn2(PO4)3
_symmetry_space_group_name_H-M   'P 1'
_cell_length_a   8.75585700
_cell_length_b   8.90392800
_cell_length_c   15.26851984
_cell_angle_alpha   55.26032043
_cell_angle_beta   90.00000000
_cell_angle_gamma   90.00000000
_symmetry_Int_Tables_number   1
_chemical_formula_structural   Li4Mn2(PO4)3
_chemical_formula_sum   'Li16 Mn8 P12 O48'
_cell_volume   978.17539913
_cell_formula_units_Z   4
loop_
 _symmetry_equiv_pos_site_id
 _symmetry_equiv_pos_as_xyz
  1  'x, y, z'
loop_
 _atom_site_type_symbol
 _atom_site_label
 _atom_site_symmetry_multiplicity
 _atom_site_fract_x
 _atom_site_fract_y
 _atom_site_fract_z
 _atom_site_occupancy
  Li  Li0  1  0.94206000  0.15448400  0.79017300  1
  Li  Li1  1  0.57575300  0.73715300  0.21261700  1
  Li  Li2  1  0.23671800  0.48260600  0.31787600  1
  Li  Li3  1  0.26256400  0.10464900  0.67770300  1
  Li  Li4  1  0.76256400  0.89535100  0.82229700  1
  Li  Li5  1  0.73671800  0.51739400  0.18212400  1
  Li  Li6  1  0.07575300  0.26284700  0.28738300  1
  Li  Li7  1  0.44206000  0.84551600  0.70982700  1
  Li  Li8  1  0.55794000  0.15448400  0.29017300  1
  Li  Li9  1  0.92424700  0.73715300  0.71261700  1
  Li  Li10  1  0.26328200  0.48260600  0.81787600  1
  Li  Li11  1  0.23743600  0.10464900  0.17770300  1
  Li  Li12  1  0.73743600  0.89535100  0.32229700  1
  Li  Li13  1  0.76328200  0.51739400  0.68212400  1
  Li  Li14  1  0.42424700  0.26284700  0.78738300  1
  Li  Li15  1  0.05794000  0.84551600  0.20982700  1
  Mn  Mn0  1  0.94910500  0.14552100  0.60479100  1
  Mn  Mn1  1  0.44910500  0.85447900  0.89520900  1
  Mn  Mn2  1  0.55089500  0.14552100  0.10479100  1
  Mn  Mn3  1  0.05089500  0.85447900  0.39520900  1
  Mn  Mn4  1  0.04742800  0.64365500  0.10453100  1
  Mn  Mn5  1  0.54742800  0.35634500  0.39546900  1
  Mn  Mn6  1  0.45257200  0.64365500  0.60453100  1
  Mn  Mn7  1  0.95257200  0.35634500  0.89546900  1
  P  P0  1  0.75062000  0.94799500  0.00004300  1
  P  P1  1  0.60786000  0.24783600  0.64910300  1
  P  P2  1  0.89425600  0.55119300  0.34884000  1
  P  P3  1  0.10786000  0.75216400  0.85089700  1
  P  P4  1  0.39425600  0.44880700  0.15116000  1
  P  P5  1  0.25062000  0.05200500  0.49995700  1
  P  P6  1  0.74938000  0.94799500  0.50004300  1
  P  P7  1  0.60574400  0.55119300  0.84884000  1
  P  P8  1  0.89214000  0.24783600  0.14910300  1
  P  P9  1  0.10574400  0.44880700  0.65116000  1
  P  P10  1  0.39214000  0.75216400  0.35089700  1
  P  P11  1  0.24938000  0.05200500  0.99995700  1
  O  O0  1  0.13857500  0.89331000  0.07213600  1
  O  O1  1  0.33762000  0.03282100  0.91762400  1
  O  O2  1  0.09862600  0.25963700  0.66404400  1
  O  O3  1  0.40989100  0.61305300  0.32076000  1
  O  O4  1  0.64326400  0.94677700  0.91797000  1
  O  O5  1  0.77186000  0.15754800  0.69108900  1
  O  O6  1  0.59712500  0.33424000  0.53115200  1
  O  O7  1  0.73576900  0.54324800  0.30522300  1
  O  O8  1  0.82832700  0.75945600  0.06920300  1
  O  O9  1  0.92102400  0.38753700  0.46210000  1
  O  O10  1  0.02397600  0.56442500  0.27441900  1
  O  O11  1  0.48020900  0.10051300  0.71248000  1
  O  O12  1  0.98020900  0.89948700  0.78752000  1
  O  O13  1  0.52397600  0.43557500  0.22558100  1
  O  O14  1  0.42102400  0.61246300  0.03790000  1
  O  O15  1  0.32832700  0.24054400  0.43079700  1
  O  O16  1  0.09712500  0.66576000  0.96884800  1
  O  O17  1  0.23576900  0.45675200  0.19477700  1
  O  O18  1  0.27186000  0.84245200  0.80891100  1
  O  O19  1  0.14326400  0.05322300  0.58203000  1
  O  O20  1  0.59862600  0.74036300  0.83595600  1
  O  O21  1  0.90989100  0.38694700  0.17924000  1
  O  O22  1  0.83762000  0.96717900  0.58237600  1
  O  O23  1  0.63857500  0.10669000  0.42786400  1
  O  O24  1  0.36142500  0.89331000  0.57213600  1
  O  O25  1  0.16238000  0.03282100  0.41762400  1
  O  O26  1  0.09010900  0.61305300  0.82076000  1
  O  O27  1  0.40137400  0.25963700  0.16404400  1
  O  O28  1  0.85673600  0.94677700  0.41797000  1
  O  O29  1  0.72814000  0.15754800  0.19108900  1
  O  O30  1  0.76423100  0.54324800  0.80522300  1
  O  O31  1  0.90287500  0.33424000  0.03115200  1
  O  O32  1  0.67167300  0.75945600  0.56920300  1
  O  O33  1  0.57897600  0.38753700  0.96210000  1
  O  O34  1  0.47602400  0.56442500  0.77441900  1
  O  O35  1  0.01979100  0.10051300  0.21248000  1
  O  O36  1  0.51979100  0.89948700  0.28752000  1
  O  O37  1  0.97602400  0.43557500  0.72558100  1
  O  O38  1  0.07897600  0.61246300  0.53790000  1
  O  O39  1  0.17167300  0.24054400  0.93079700  1
  O  O40  1  0.26423100  0.45675200  0.69477700  1
  O  O41  1  0.40287500  0.66576000  0.46884800  1
  O  O42  1  0.22814000  0.84245200  0.30891100  1
  O  O43  1  0.35673600  0.05322300  0.08203000  1
  O  O44  1  0.59010900  0.38694700  0.67924000  1
  O  O45  1  0.90137400  0.74036300  0.33595600  1
  O  O46  1  0.66238000  0.96717900  0.08237600  1
  O  O47  1  0.86142500  0.10669000  0.92786400  1
loop_
_geom_bond_atom_site_label_1
_geom_bond_atom_site_label_2
_geom_bond_distance
_geom_bond_site_symmetry_2
Li0 O47 2.019841 1_555
Li0 O2 2.099915 1_655
Li0 O5 2.112653 1_555
Li0 O37 2.124146 1_555
Li0 O12 2.317993 1_545
Li1 O3 1.994255 1_555
Li1 O46 2.020589 1_555
Li1 O7 2.039828 1_555
Li1 O36 2.349732 1_555
Li2 O3 1.925718 1_555
Li2 O10 1.972277 1_555
Li2 O15 2.006541 1_555
Li2 O17 2.019616 1_555
Li3 O2 1.918415 1_555
Li3 O11 1.972966 1_555
Li3 O18 2.034691 1_545
Li3 O19 2.048663 1_555
Li4 O20 1.918415 1_555
Li4 O12 1.972966 1_555
Li4 O5 2.034691 1_565
Li4 O4 2.048663 1_555
Li5 O21 1.925718 1_555
Li5 O13 1.972277 1_555
Li5 O8 2.006541 1_555
Li5 O7 2.019616 1_555
Li6 O21 1.994255 1_455
Li6 O25 2.020589 1_555
Li6 O17 2.039828 1_555
Li6 O35 2.349732 1_555
Li7 O24 2.019841 1_555
Li7 O20 2.099915 1_555
Li7 O18 2.112653 1_555
Li7 O34 2.124146 1_555
Li7 O11 2.317993 1_565
Li8 O23 2.019841 1_555
Li8 O27 2.099915 1_555
Li8 O29 2.112653 1_555
Li8 O13 2.124146 1_555
Li8 O36 2.317993 1_545
Li9 O26 1.994255 1_655
Li9 O22 2.020589 1_555
Li9 O30 2.039828 1_555
Li9 O12 2.349732 1_555
Li10 O26 1.925718 1_555
Li10 O34 1.972277 1_555
Li10 O39 2.006541 1_555
Li10 O40 2.019616 1_555
Li11 O27 1.918415 1_555
Li11 O35 1.972966 1_555
Li11 O42 2.034691 1_545
Li11 O43 2.048663 1_555
Li12 O45 1.918415 1_555
Li12 O36 1.972966 1_555
Li12 O29 2.034691 1_565
Li12 O28 2.048663 1_555
Li13 O44 1.925718 1_555
Li13 O37 1.972277 1_555
Li13 O32 2.006541 1_555
Li13 O30 2.019616 1_555
Li14 O44 1.994255 1_555
Li14 O1 2.020589 1_555
Li14 O40 2.039828 1_555
Li14 O11 2.349732 1_555
Li15 O0 2.019841 1_555
Li15 O45 2.099915 1_455
Li15 O42 2.112653 1_555
Li15 O10 2.124146 1_555
Li15 O35 2.317993 1_565
Mn0 O19 2.002936 1_655
Mn0 O9 2.024843 1_555
Mn0 O22 2.052059 1_545
Mn0 O5 2.077729 1_555
Mn0 O2 2.147684 1_655
Mn0 O12 2.385689 1_545
Mn1 O4 2.002936 1_555
Mn1 O14 2.024843 1_556
Mn1 O1 2.052059 1_565
Mn1 O18 2.077729 1_555
Mn1 O20 2.147684 1_555
Mn1 O11 2.385689 1_565
Mn2 O43 2.002936 1_555
Mn2 O33 2.024843 1_554
Mn2 O46 2.052059 1_545
Mn2 O29 2.077729 1_555
Mn2 O27 2.147684 1_555
Mn2 O36 2.385689 1_545
Mn3 O28 2.002936 1_455
Mn3 O38 2.024843 1_555
Mn3 O25 2.052059 1_565
Mn3 O42 2.077729 1_555
Mn3 O45 2.147684 1_455
Mn3 O35 2.385689 1_565
Mn4 O16 2.013759 1_554
Mn4 O8 2.097748 1_455
Mn4 O0 2.137708 1_555
Mn4 O17 2.184991 1_555
Mn4 O21 2.237041 1_455
Mn4 O10 2.276577 1_555
Mn5 O6 2.013759 1_555
Mn5 O15 2.097748 1_555
Mn5 O23 2.137708 1_555
Mn5 O7 2.184991 1_555
Mn5 O3 2.237041 1_555
Mn5 O13 2.276577 1_555
Mn6 O41 2.013759 1_555
Mn6 O32 2.097748 1_555
Mn6 O24 2.137708 1_555
Mn6 O40 2.184991 1_555
Mn6 O44 2.237041 1_555
Mn6 O34 2.276577 1_555
Mn7 O31 2.013759 1_556
Mn7 O39 2.097748 1_655
Mn7 O47 2.137708 1_555
Mn7 O30 2.184991 1_555
Mn7 O26 2.237041 1_655
Mn7 O37 2.276577 1_555
O0 P11 1.541962 1_564
O1 P11 1.565614 1_555
O2 P9 1.581772 1_555
O3 P10 1.555533 1_555
O4 P0 1.571476 1_556
O5 P1 1.591186 1_555
O6 P1 1.504994 1_555
O7 P2 1.558169 1_555
O8 P0 1.541372 1_555
O9 P2 1.515547 1_555
O10 P2 1.562863 1_455
O11 P1 1.568329 1_555
O12 P3 1.568329 1_655
O13 P4 1.562863 1_555
O14 P4 1.515547 1_555
O15 P5 1.541372 1_555
O16 P3 1.504994 1_555
O17 P4 1.558169 1_555
O18 P3 1.591186 1_555
O19 P5 1.571476 1_555
O20 P7 1.581772 1_555
O21 P8 1.555533 1_555
O22 P6 1.565614 1_555
O23 P6 1.541962 1_545
O24 P5 1.541962 1_565
O25 P5 1.565614 1_555
O26 P3 1.555533 1_555
O27 P4 1.581772 1_555
O28 P6 1.571476 1_555
O29 P8 1.591186 1_555
O30 P7 1.558169 1_555
O31 P8 1.504994 1_555
O32 P6 1.541372 1_555
O33 P7 1.515547 1_555
O34 P7 1.562863 1_555
O35 P8 1.568329 1_455
O36 P10 1.568329 1_555
O37 P9 1.562863 1_655
O38 P9 1.515547 1_555
O39 P11 1.541372 1_555
O40 P9 1.558169 1_555
O41 P10 1.504994 1_555
O42 P10 1.591186 1_555
O43 P11 1.571476 1_554
O44 P1 1.555533 1_555
O45 P2 1.581772 1_555
O46 P0 1.565614 1_555
O47 P0 1.541962 1_546
