# generated using pymatgen
data_CuH6Se2NClO6
_symmetry_space_group_name_H-M   'P 1'
_cell_length_a   7.42493700
_cell_length_b   9.06481900
_cell_length_c   12.27747800
_cell_angle_alpha   90.00000000
_cell_angle_beta   90.00000000
_cell_angle_gamma   90.00000000
_symmetry_Int_Tables_number   1
_chemical_formula_structural   CuH6Se2NClO6
_chemical_formula_sum   'Cu4 H24 Se8 N4 Cl4 O24'
_cell_volume   826.34437369
_cell_formula_units_Z   4
loop_
 _symmetry_equiv_pos_site_id
 _symmetry_equiv_pos_as_xyz
  1  'x, y, z'
loop_
 _atom_site_type_symbol
 _atom_site_label
 _atom_site_symmetry_multiplicity
 _atom_site_fract_x
 _atom_site_fract_y
 _atom_site_fract_z
 _atom_site_occupancy
  Cu  Cu0  1  0.50000000  0.50000000  0.00000000  1
  Cu  Cu1  1  0.00000000  0.00000000  0.50000000  1
  Cu  Cu2  1  0.50000000  0.50000000  0.50000000  1
  Cu  Cu3  1  0.00000000  0.00000000  0.00000000  1
  H  H0  1  0.38932600  0.94640400  0.07459200  1
  H  H1  1  0.11067400  0.44640400  0.42540800  1
  H  H2  1  0.61067400  0.05359600  0.57459200  1
  H  H3  1  0.88932600  0.55359600  0.92540800  1
  H  H4  1  0.61067400  0.05359600  0.92540800  1
  H  H5  1  0.88932600  0.55359600  0.57459200  1
  H  H6  1  0.38932600  0.94640400  0.42540800  1
  H  H7  1  0.11067400  0.44640400  0.07459200  1
  H  H8  1  0.31247300  0.71869700  0.25000000  1
  H  H9  1  0.18752700  0.21869700  0.25000000  1
  H  H10  1  0.68752700  0.28130300  0.75000000  1
  H  H11  1  0.81247300  0.78130300  0.75000000  1
  H  H12  1  0.17846400  0.57217100  0.25000000  1
  H  H13  1  0.32153600  0.07217100  0.25000000  1
  H  H14  1  0.82153600  0.42782900  0.75000000  1
  H  H15  1  0.67846400  0.92782900  0.75000000  1
  H  H16  1  0.12001100  0.72691800  0.31923400  1
  H  H17  1  0.37998900  0.22691800  0.18076600  1
  H  H18  1  0.87998900  0.27308200  0.81923400  1
  H  H19  1  0.62001100  0.77308200  0.68076600  1
  H  H20  1  0.87998900  0.27308200  0.68076600  1
  H  H21  1  0.62001100  0.77308200  0.81923400  1
  H  H22  1  0.12001100  0.72691800  0.18076600  1
  H  H23  1  0.37998900  0.22691800  0.31923400  1
  Se  Se0  1  0.65741400  0.80842500  0.07633000  1
  Se  Se1  1  0.84258600  0.30842500  0.42367000  1
  Se  Se2  1  0.34258600  0.19157500  0.57633000  1
  Se  Se3  1  0.15741400  0.69157500  0.92367000  1
  Se  Se4  1  0.34258600  0.19157500  0.92367000  1
  Se  Se5  1  0.15741400  0.69157500  0.57633000  1
  Se  Se6  1  0.65741400  0.80842500  0.42367000  1
  Se  Se7  1  0.84258600  0.30842500  0.07633000  1
  N  N0  1  0.18014900  0.68591600  0.25000000  1
  N  N1  1  0.31985100  0.18591600  0.25000000  1
  N  N2  1  0.81985100  0.31408400  0.75000000  1
  N  N3  1  0.68014900  0.81408400  0.75000000  1
  Cl  Cl0  1  0.54935200  0.52040800  0.25000000  1
  Cl  Cl1  1  0.95064800  0.02040800  0.25000000  1
  Cl  Cl2  1  0.45064800  0.47959200  0.75000000  1
  Cl  Cl3  1  0.04935200  0.97959200  0.75000000  1
  O  O0  1  0.55922200  0.70931800  0.97140500  1
  O  O1  1  0.94077800  0.20931800  0.52859500  1
  O  O2  1  0.44077800  0.29068200  0.47140500  1
  O  O3  1  0.05922200  0.79068200  0.02859500  1
  O  O4  1  0.44077800  0.29068200  0.02859500  1
  O  O5  1  0.05922200  0.79068200  0.47140500  1
  O  O6  1  0.55922200  0.70931800  0.52859500  1
  O  O7  1  0.94077800  0.20931800  0.97140500  1
  O  O8  1  0.73786000  0.95656900  0.00069300  1
  O  O9  1  0.76214000  0.45656900  0.49930700  1
  O  O10  1  0.26214000  0.04343100  0.50069300  1
  O  O11  1  0.23786000  0.54343100  0.99930700  1
  O  O12  1  0.26214000  0.04343100  0.99930700  1
  O  O13  1  0.23786000  0.54343100  0.50069300  1
  O  O14  1  0.73786000  0.95656900  0.49930700  1
  O  O15  1  0.76214000  0.45656900  0.00069300  1
  O  O16  1  0.46193500  0.89301500  0.13361500  1
  O  O17  1  0.03806500  0.39301500  0.36638500  1
  O  O18  1  0.53806500  0.10698500  0.63361500  1
  O  O19  1  0.96193500  0.60698500  0.86638500  1
  O  O20  1  0.53806500  0.10698500  0.86638500  1
  O  O21  1  0.96193500  0.60698500  0.63361500  1
  O  O22  1  0.46193500  0.89301500  0.36638500  1
  O  O23  1  0.03806500  0.39301500  0.13361500  1
loop_
_geom_bond_atom_site_label_1
_geom_bond_atom_site_label_2
_geom_bond_distance
_geom_bond_site_symmetry_2
Cu0 O0 1.979102 1_554
Cu0 O4 1.979102 1_555
Cu0 O11 1.985808 1_554
Cu0 O15 1.985808 1_555
Cu1 O1 1.979102 1_455
Cu1 O5 1.979102 1_545
Cu1 O14 1.985808 1_445
Cu1 O10 1.985808 1_555
Cu2 O6 1.979102 1_555
Cu2 O2 1.979102 1_555
Cu2 O13 1.985808 1_555
Cu2 O9 1.985808 1_555
Cu3 O7 1.979102 1_454
Cu3 O3 1.979102 1_545
Cu3 O8 1.985808 1_445
Cu3 O12 1.985808 1_554
H0 O16 1.024690 1_555
H0 O12 1.587362 1_564
H1 O17 1.024690 1_555
H1 O13 1.587362 1_555
H2 O18 1.024690 1_555
H2 O14 1.587362 1_545
H3 O19 1.024690 1_555
H3 O15 1.587362 1_556
H4 O20 1.024690 1_555
H4 O8 1.587362 1_546
H5 O21 1.024690 1_555
H5 O9 1.587362 1_555
H6 O22 1.024690 1_555
H6 O10 1.587362 1_565
H7 O23 1.024690 1_555
H7 O11 1.587362 1_554
H8 N0 1.026451 1_555
H9 N1 1.026451 1_555
H10 N2 1.026451 1_555
H11 N3 1.026451 1_555
H12 N0 1.031154 1_555
H13 N1 1.031154 1_555
H14 N2 1.031154 1_555
H15 N3 1.031154 1_555
H16 N0 1.029590 1_555
H17 N1 1.029590 1_555
H18 N2 1.029590 1_555
H19 N3 1.029590 1_555
H20 N2 1.029590 1_555
H21 N3 1.029590 1_555
H22 N0 1.029590 1_555
H23 N1 1.029590 1_555
O0 Se0 1.731513 1_556
O1 Se1 1.731513 1_555
O2 Se2 1.731513 1_555
O3 Se3 1.731513 1_554
O4 Se4 1.731513 1_554
O5 Se5 1.731513 1_555
O6 Se6 1.731513 1_555
O7 Se7 1.731513 1_556
O8 Se0 1.738536 1_555
O9 Se1 1.738536 1_555
O10 Se2 1.738536 1_555
O11 Se3 1.738536 1_555
O12 Se4 1.738536 1_555
O13 Se5 1.738536 1_555
O14 Se6 1.738536 1_555
O15 Se7 1.738536 1_555
O16 Se0 1.785845 1_555
O17 Se1 1.785845 1_455
O18 Se2 1.785845 1_555
O19 Se3 1.785845 1_655
O20 Se4 1.785845 1_555
O21 Se5 1.785845 1_655
O22 Se6 1.785845 1_555
O23 Se7 1.785845 1_455
