# generated using pymatgen
data_Na2Be2O3
_symmetry_space_group_name_H-M   'P 1'
_cell_length_a   7.26879800
_cell_length_b   4.96194900
_cell_length_c   5.75445028
_cell_angle_alpha   71.31051675
_cell_angle_beta   90.00000000
_cell_angle_gamma   90.00000000
_symmetry_Int_Tables_number   1
_chemical_formula_structural   Na2Be2O3
_chemical_formula_sum   'Na4 Be4 O6'
_cell_volume   196.60389335
_cell_formula_units_Z   2
loop_
 _symmetry_equiv_pos_site_id
 _symmetry_equiv_pos_as_xyz
  1  'x, y, z'
loop_
 _atom_site_type_symbol
 _atom_site_label
 _atom_site_symmetry_multiplicity
 _atom_site_fract_x
 _atom_site_fract_y
 _atom_site_fract_z
 _atom_site_occupancy
  Na  Na0  1  0.36005600  0.27771900  0.11288200  1
  Na  Na1  1  0.86005600  0.72228100  0.38711800  1
  Na  Na2  1  0.13994400  0.27771900  0.61288200  1
  Na  Na3  1  0.63994400  0.72228100  0.88711800  1
  Be  Be0  1  0.51720400  0.29566200  0.51277000  1
  Be  Be1  1  0.98279600  0.29566200  0.01277000  1
  Be  Be2  1  0.01720400  0.70433800  0.98723000  1
  Be  Be3  1  0.48279600  0.70433800  0.48723000  1
  O  O0  1  0.50000000  0.00000000  0.50000000  1
  O  O1  1  0.00000000  0.00000000  0.00000000  1
  O  O2  1  0.06191700  0.42543400  0.20826400  1
  O  O3  1  0.56191700  0.57456600  0.29173600  1
  O  O4  1  0.43808300  0.42543400  0.70826400  1
  O  O5  1  0.93808300  0.57456600  0.79173600  1
loop_
_geom_bond_atom_site_label_1
_geom_bond_atom_site_label_2
_geom_bond_distance
_geom_bond_site_symmetry_2
Na0 O4 2.277371 1_554
Na0 O2 2.406799 1_555
Na0 O0 2.434911 1_555
Na0 O3 2.520574 1_555
Na1 O5 2.277371 1_555
Na1 O3 2.406799 1_555
Na1 O1 2.434911 1_665
Na1 O2 2.520574 1_655
Na2 O2 2.277371 1_555
Na2 O4 2.406799 1_555
Na2 O1 2.434911 1_556
Na2 O5 2.520574 1_455
Na3 O3 2.277371 1_556
Na3 O5 2.406799 1_555
Na3 O0 2.434911 1_565
Na3 O4 2.520574 1_555
Be0 O0 1.497462 1_555
Be0 O4 1.573268 1_555
Be0 O3 1.584468 1_555
Be1 O1 1.497462 1_655
Be1 O2 1.573268 1_655
Be1 O5 1.584468 1_554
Be2 O1 1.497462 1_566
Be2 O5 1.573268 1_455
Be2 O2 1.584468 1_556
Be3 O0 1.497462 1_565
Be3 O3 1.573268 1_555
Be3 O4 1.584468 1_555
