# generated using pymatgen
data_Sb2(SO4)3
_symmetry_space_group_name_H-M   'P 1'
_cell_length_a   9.59807768
_cell_length_b   9.59807768
_cell_length_c   9.59807768
_cell_angle_alpha   55.24963128
_cell_angle_beta   55.24963128
_cell_angle_gamma   55.24963231
_symmetry_Int_Tables_number   1
_chemical_formula_structural   Sb2(SO4)3
_chemical_formula_sum   'Sb4 S6 O24'
_cell_volume   556.19422154
_cell_formula_units_Z   2
loop_
 _symmetry_equiv_pos_site_id
 _symmetry_equiv_pos_as_xyz
  1  'x, y, z'
loop_
 _atom_site_type_symbol
 _atom_site_label
 _atom_site_symmetry_multiplicity
 _atom_site_fract_x
 _atom_site_fract_y
 _atom_site_fract_z
 _atom_site_occupancy
  Sb  Sb0  1  0.85718200  0.85718200  0.85718200  1
  Sb  Sb1  1  0.65238600  0.65238600  0.65238600  1
  Sb  Sb2  1  0.34761400  0.34761400  0.34761400  1
  Sb  Sb3  1  0.14281800  0.14281800  0.14281800  1
  S  S0  1  0.54405900  0.95948100  0.24898800  1
  S  S1  1  0.75101200  0.45594100  0.04051900  1
  S  S2  1  0.04051900  0.75101200  0.45594100  1
  S  S3  1  0.95948100  0.24898800  0.54405900  1
  S  S4  1  0.24898800  0.54405900  0.95948100  1
  S  S5  1  0.45594100  0.04051900  0.75101200  1
  O  O0  1  0.85875400  0.79220200  0.46804100  1
  O  O1  1  0.46804100  0.85875400  0.79220200  1
  O  O2  1  0.40985700  0.98224000  0.19784900  1
  O  O3  1  0.73285600  0.86465800  0.14027500  1
  O  O4  1  0.79220200  0.46804100  0.85875400  1
  O  O5  1  0.13534200  0.85972500  0.26714400  1
  O  O6  1  0.80215100  0.59014300  0.01776000  1
  O  O7  1  0.50592100  0.84839800  0.44637100  1
  O  O8  1  0.55362900  0.49407900  0.15160200  1
  O  O9  1  0.01776000  0.80215100  0.59014300  1
  O  O10  1  0.85972500  0.26714400  0.13534200  1
  O  O11  1  0.15160200  0.55362900  0.49407900  1
  O  O12  1  0.84839800  0.44637100  0.50592100  1
  O  O13  1  0.14027500  0.73285600  0.86465800  1
  O  O14  1  0.98224000  0.19784900  0.40985700  1
  O  O15  1  0.44637100  0.50592100  0.84839800  1
  O  O16  1  0.49407900  0.15160200  0.55362900  1
  O  O17  1  0.19784900  0.40985700  0.98224000  1
  O  O18  1  0.86465800  0.14027500  0.73285600  1
  O  O19  1  0.20779800  0.53195900  0.14124600  1
  O  O20  1  0.26714400  0.13534200  0.85972500  1
  O  O21  1  0.59014300  0.01776000  0.80215100  1
  O  O22  1  0.53195900  0.14124600  0.20779800  1
  O  O23  1  0.14124600  0.20779800  0.53195900  1
loop_
_geom_bond_atom_site_label_1
_geom_bond_atom_site_label_2
_geom_bond_distance
_geom_bond_site_symmetry_2
O0 S2 1.499493 1_655
O0 Sb1 2.276597 1_555
O1 S5 1.499493 1_565
O1 Sb1 2.276597 1_555
O2 S0 1.491827 1_555
O2 Sb3 2.309896 1_565
O3 S0 1.499238 1_555
O3 Sb0 2.289181 1_554
O4 S1 1.499493 1_556
O4 Sb1 2.276597 1_555
O5 S2 1.499238 1_555
O5 Sb3 2.289181 1_565
O6 S1 1.491827 1_555
O6 Sb0 2.309896 1_554
O7 S0 1.487122 1_555
O7 Sb1 2.310529 1_555
O8 S1 1.487122 1_555
O8 Sb2 2.310529 1_555
O9 S2 1.491827 1_555
O9 Sb0 2.309896 1_455
O10 S1 1.499238 1_555
O10 Sb3 2.289181 1_655
O11 S2 1.487122 1_555
O11 Sb2 2.310529 1_555
O12 S3 1.487122 1_555
O12 Sb1 2.310529 1_555
O13 S4 1.499238 1_555
O13 Sb0 2.289181 1_455
O14 S3 1.491827 1_555
O14 Sb3 2.309896 1_655
O15 S4 1.487122 1_555
O15 Sb1 2.310529 1_555
O16 S5 1.487122 1_555
O16 Sb2 2.310529 1_555
O17 S4 1.491827 1_555
O17 Sb3 2.309896 1_556
O18 S3 1.499238 1_555
O18 Sb0 2.289181 1_545
O19 S4 1.499493 1_554
O19 Sb2 2.276597 1_555
O20 S5 1.499238 1_555
O20 Sb3 2.289181 1_556
O21 S5 1.491827 1_555
O21 Sb0 2.309896 1_545
O22 S0 1.499493 1_545
O22 Sb2 2.276597 1_555
O23 S3 1.499493 1_455
O23 Sb2 2.276597 1_555
