# generated using pymatgen
data_Co(N3O4)3
_symmetry_space_group_name_H-M   'P 1'
_cell_length_a   7.55911291
_cell_length_b   7.55911291
_cell_length_c   7.55911291
_cell_angle_alpha   60.00000000
_cell_angle_beta   60.00000000
_cell_angle_gamma   60.00000000
_symmetry_Int_Tables_number   1
_chemical_formula_structural   Co(N3O4)3
_chemical_formula_sum   'Co1 N9 O12'
_cell_volume   305.42001899
_cell_formula_units_Z   1
loop_
 _symmetry_equiv_pos_site_id
 _symmetry_equiv_pos_as_xyz
  1  'x, y, z'
loop_
 _atom_site_type_symbol
 _atom_site_label
 _atom_site_symmetry_multiplicity
 _atom_site_fract_x
 _atom_site_fract_y
 _atom_site_fract_z
 _atom_site_occupancy
  Co  Co0  1  0.00000000  0.00000000  0.00000000  1
  N  N0  1  0.19152200  0.80847800  0.19152200  1
  N  N1  1  0.80847800  0.80847800  0.19152200  1
  N  N2  1  0.80847800  0.19152200  0.19152200  1
  N  N3  1  0.80847800  0.19152200  0.80847800  1
  N  N4  1  0.19152200  0.19152200  0.80847800  1
  N  N5  1  0.19152200  0.80847800  0.80847800  1
  N  N6  1  0.75000000  0.75000000  0.75000000  1
  N  N7  1  0.25000000  0.25000000  0.25000000  1
  N  N8  1  0.50000000  0.50000000  0.50000000  1
  O  O0  1  0.65520100  0.86106200  0.34479900  1
  O  O1  1  0.86106200  0.13893800  0.34479900  1
  O  O2  1  0.13893800  0.65520100  0.34479900  1
  O  O3  1  0.34479900  0.13893800  0.65520100  1
  O  O4  1  0.13893800  0.86106200  0.65520100  1
  O  O5  1  0.86106200  0.34479900  0.65520100  1
  O  O6  1  0.13893800  0.34479900  0.86106200  1
  O  O7  1  0.65520100  0.34479900  0.13893800  1
  O  O8  1  0.86106200  0.65520100  0.13893800  1
  O  O9  1  0.34479900  0.65520100  0.86106200  1
  O  O10  1  0.34479900  0.86106200  0.13893800  1
  O  O11  1  0.65520100  0.13893800  0.86106200  1
loop_
_geom_bond_atom_site_label_1
_geom_bond_atom_site_label_2
_geom_bond_distance
_geom_bond_site_symmetry_2
Co0 N5 2.047408 1_544
Co0 N4 2.047408 1_554
Co0 N3 2.047408 1_454
Co0 N0 2.047408 1_545
Co0 N1 2.047408 1_445
Co0 N2 2.047408 1_455
N0 O2 1.224924 1_555
N0 O10 1.224924 1_555
N1 O0 1.224924 1_555
N1 O8 1.224924 1_555
N2 O7 1.224924 1_555
N2 O1 1.224924 1_555
N3 O11 1.224924 1_555
N3 O5 1.224924 1_555
N4 O3 1.224924 1_555
N4 O6 1.224924 1_555
N5 O4 1.224924 1_555
N5 O9 1.224924 1_555
