# generated using pymatgen
data_Na4CrH8SO7
_symmetry_space_group_name_H-M   'P 1'
_cell_length_a   13.86621100
_cell_length_b   5.83140800
_cell_length_c   11.26736799
_cell_angle_alpha   76.21855260
_cell_angle_beta   90.00000000
_cell_angle_gamma   90.00000000
_symmetry_Int_Tables_number   1
_chemical_formula_structural   Na4CrH8SO7
_chemical_formula_sum   'Na16 Cr4 H32 S4 O28'
_cell_volume   884.84563530
_cell_formula_units_Z   4
loop_
 _symmetry_equiv_pos_site_id
 _symmetry_equiv_pos_as_xyz
  1  'x, y, z'
loop_
 _atom_site_type_symbol
 _atom_site_label
 _atom_site_symmetry_multiplicity
 _atom_site_fract_x
 _atom_site_fract_y
 _atom_site_fract_z
 _atom_site_occupancy
  Na  Na0  1  0.68455400  0.99070500  0.76348000  1
  Na  Na1  1  0.05574600  0.74957900  0.99509800  1
  Na  Na2  1  0.29787800  0.75351400  0.97503700  1
  Na  Na3  1  0.81544600  0.99070500  0.26348000  1
  Na  Na4  1  0.44425400  0.74957900  0.49509800  1
  Na  Na5  1  0.20212200  0.75351400  0.47503700  1
  Na  Na6  1  0.79311000  0.49854400  0.77735300  1
  Na  Na7  1  0.29311000  0.50145600  0.72264700  1
  Na  Na8  1  0.70689000  0.49854400  0.27735300  1
  Na  Na9  1  0.20689000  0.50145600  0.22264700  1
  Na  Na10  1  0.79787800  0.24648600  0.52496300  1
  Na  Na11  1  0.55574600  0.25042100  0.50490200  1
  Na  Na12  1  0.18455400  0.00929500  0.73652000  1
  Na  Na13  1  0.70212200  0.24648600  0.02496300  1
  Na  Na14  1  0.94425400  0.25042100  0.00490200  1
  Na  Na15  1  0.31544600  0.00929500  0.23652000  1
  Cr  Cr0  1  0.68626300  0.75056800  0.51633500  1
  Cr  Cr1  1  0.81373700  0.75056800  0.01633500  1
  Cr  Cr2  1  0.18626300  0.24943200  0.98366500  1
  Cr  Cr3  1  0.31373700  0.24943200  0.48366500  1
  H  H0  1  0.35696200  0.90084800  0.66124100  1
  H  H1  1  0.46351200  0.77384000  0.85315100  1
  H  H2  1  0.92319700  0.76114400  0.82892300  1
  H  H3  1  0.85081200  0.83905800  0.61285600  1
  H  H4  1  0.64264900  0.67367700  0.94816400  1
  H  H5  1  0.55191700  0.74991300  0.68209800  1
  H  H6  1  0.12222700  0.57390800  0.81577600  1
  H  H7  1  0.14303800  0.90084800  0.16124100  1
  H  H8  1  0.03648800  0.77384000  0.35315100  1
  H  H9  1  0.57680300  0.76114400  0.32892300  1
  H  H10  1  0.64918800  0.83905800  0.11285600  1
  H  H11  1  0.46407600  0.49157700  0.86278600  1
  H  H12  1  0.85735100  0.67367700  0.44816400  1
  H  H13  1  0.94808300  0.74991300  0.18209800  1
  H  H14  1  0.96407600  0.50842300  0.63721400  1
  H  H15  1  0.62222700  0.42609200  0.68422400  1
  H  H16  1  0.37777300  0.57390800  0.31577600  1
  H  H17  1  0.03592400  0.49157700  0.36278600  1
  H  H18  1  0.05191700  0.25008700  0.81790200  1
  H  H19  1  0.14264900  0.32632300  0.55183600  1
  H  H20  1  0.53592400  0.50842300  0.13721400  1
  H  H21  1  0.35081200  0.16094200  0.88714400  1
  H  H22  1  0.42319700  0.23885600  0.67107700  1
  H  H23  1  0.96351200  0.22616000  0.64684900  1
  H  H24  1  0.85696200  0.09915200  0.83875900  1
  H  H25  1  0.87777300  0.42609200  0.18422400  1
  H  H26  1  0.44808300  0.25008700  0.31790200  1
  H  H27  1  0.35735100  0.32632300  0.05183600  1
  H  H28  1  0.14918800  0.16094200  0.38714400  1
  H  H29  1  0.07680300  0.23885600  0.17107700  1
  H  H30  1  0.53648800  0.22616000  0.14684900  1
  H  H31  1  0.64303800  0.09915200  0.33875900  1
  S  S0  1  0.01477000  0.90667200  0.59180600  1
  S  S1  1  0.48523000  0.90667200  0.09180600  1
  S  S2  1  0.51477000  0.09332800  0.90819400  1
  S  S3  1  0.98523000  0.09332800  0.40819400  1
  O  O0  1  0.30778900  0.91483300  0.59798700  1
  O  O1  1  0.58008400  0.86420900  0.61334200  1
  O  O2  1  0.78149400  0.85533500  0.62828700  1
  O  O3  1  0.70634300  0.63690600  0.92059500  1
  O  O4  1  0.91022300  0.64268800  0.90439000  1
  O  O5  1  0.42849200  0.64119900  0.82952700  1
  O  O6  1  0.17722900  0.58471900  0.86811000  1
  O  O7  1  0.19221100  0.91483300  0.09798700  1
  O  O8  1  0.91991600  0.86420900  0.11334200  1
  O  O9  1  0.71850600  0.85533500  0.12828700  1
  O  O10  1  0.79365700  0.63690600  0.42059500  1
  O  O11  1  0.58977700  0.64268800  0.40439000  1
  O  O12  1  0.07150800  0.64119900  0.32952700  1
  O  O13  1  0.32277100  0.58471900  0.36811000  1
  O  O14  1  0.67722900  0.41528100  0.63189000  1
  O  O15  1  0.92849200  0.35880100  0.67047300  1
  O  O16  1  0.41022300  0.35731200  0.59561000  1
  O  O17  1  0.20634300  0.36309400  0.57940500  1
  O  O18  1  0.28149400  0.14466500  0.87171300  1
  O  O19  1  0.08008400  0.13579100  0.88665800  1
  O  O20  1  0.80778900  0.08516700  0.90201300  1
  O  O21  1  0.82277100  0.41528100  0.13189000  1
  O  O22  1  0.57150800  0.35880100  0.17047300  1
  O  O23  1  0.08977700  0.35731200  0.09561000  1
  O  O24  1  0.29365700  0.36309400  0.07940500  1
  O  O25  1  0.21850600  0.14466500  0.37171300  1
  O  O26  1  0.41991600  0.13579100  0.38665800  1
  O  O27  1  0.69221100  0.08516700  0.40201300  1
loop_
_geom_bond_atom_site_label_1
_geom_bond_atom_site_label_2
_geom_bond_distance
_geom_bond_site_symmetry_2
Na0 O2 2.307216 1_555
Na0 O3 2.396166 1_555
Na0 O20 2.463636 1_565
Na0 O1 2.469578 1_555
Na0 O14 2.567028 1_565
Na0 S2 3.004039 1_565
Na1 O19 2.316883 1_565
Na1 O23 2.345956 1_556
Na1 O4 2.410052 1_455
Na1 O8 2.488681 1_456
Na1 O7 2.526950 1_556
Na1 O6 2.542519 1_555
Na2 O24 2.300887 1_556
Na2 O18 2.311832 1_565
Na2 O7 2.360461 1_556
Na2 O6 2.405021 1_555
Na2 S1 3.136467 1_556
Na3 O9 2.307216 1_555
Na3 O10 2.396166 1_555
Na3 O27 2.463636 1_565
Na3 O8 2.469578 1_555
Na3 O21 2.567028 1_565
Na3 S3 3.004039 1_565
Na4 O26 2.316883 1_565
Na4 O16 2.345956 1_555
Na4 O11 2.410052 1_555
Na4 O1 2.488681 1_555
Na4 O0 2.526950 1_555
Na4 O13 2.542519 1_555
Na5 O17 2.300887 1_555
Na5 O25 2.311832 1_565
Na5 O0 2.360461 1_555
Na5 O13 2.405021 1_555
Na5 S0 3.136467 1_555
Na6 O3 2.307339 1_555
Na6 O2 2.347527 1_555
Na6 O14 2.425505 1_555
Na6 O4 2.442478 1_555
Na6 O15 2.471003 1_555
Na6 O20 2.492388 1_555
Na7 O17 2.307339 1_555
Na7 O18 2.347527 1_555
Na7 O6 2.425505 1_555
Na7 O16 2.442478 1_555
Na7 O5 2.471003 1_555
Na7 O0 2.492388 1_555
Na8 O10 2.307339 1_555
Na8 O9 2.347527 1_555
Na8 O21 2.425505 1_555
Na8 O11 2.442478 1_555
Na8 O22 2.471003 1_555
Na8 O27 2.492388 1_555
Na9 O24 2.307339 1_555
Na9 O25 2.347527 1_555
Na9 O13 2.425505 1_555
Na9 O23 2.442478 1_555
Na9 O12 2.471003 1_555
Na9 O7 2.492388 1_555
Na10 O10 2.300887 1_555
Na10 O2 2.311832 1_545
Na10 O27 2.360461 1_555
Na10 O14 2.405021 1_555
Na10 S3 3.136467 1_555
Na11 O1 2.316883 1_545
Na11 O11 2.345956 1_555
Na11 O16 2.410052 1_555
Na11 O26 2.488681 1_555
Na11 O27 2.526950 1_555
Na11 O14 2.542519 1_555
Na12 O18 2.307216 1_555
Na12 O17 2.396166 1_555
Na12 O0 2.463636 1_545
Na12 O19 2.469578 1_555
Na12 O6 2.567028 1_545
Na12 S0 3.004039 1_545
Na13 O3 2.300887 1_554
Na13 O9 2.311832 1_545
Na13 O20 2.360461 1_554
Na13 O21 2.405021 1_555
Na13 S2 3.136467 1_554
Na14 O8 2.316883 1_545
Na14 O4 2.345956 1_554
Na14 O23 2.410052 1_655
Na14 O19 2.488681 1_654
Na14 O20 2.526950 1_554
Na14 O21 2.542519 1_555
Na15 O25 2.307216 1_555
Na15 O24 2.396166 1_555
Na15 O7 2.463636 1_545
Na15 O26 2.469578 1_555
Na15 O13 2.567028 1_545
Na15 S1 3.004039 1_545
Cr0 O2 2.018725 1_555
Cr0 O1 2.036320 1_555
Cr0 O11 2.038311 1_555
Cr0 O10 2.039903 1_555
Cr0 O27 2.067775 1_565
Cr0 O14 2.078662 1_555
Cr1 O9 2.018725 1_555
Cr1 O8 2.036320 1_555
Cr1 O4 2.038311 1_554
Cr1 O3 2.039903 1_554
Cr1 O20 2.067775 1_564
Cr1 O21 2.078662 1_555
Cr2 O18 2.018725 1_555
Cr2 O19 2.036320 1_555
Cr2 O23 2.038311 1_556
Cr2 O24 2.039903 1_556
Cr2 O7 2.067775 1_546
Cr2 O6 2.078662 1_555
Cr3 O25 2.018725 1_555
Cr3 O26 2.036320 1_555
Cr3 O16 2.038311 1_555
Cr3 O17 2.039903 1_555
Cr3 O0 2.067775 1_545
Cr3 O13 2.078662 1_555
H0 O0 0.975612 1_555
H0 Na7 2.432940 1_555
H0 Na4 2.556231 1_555
H1 O5 1.001511 1_555
H2 O4 0.976069 1_555
H2 Na6 2.521957 1_555
H2 Na1 2.613077 1_655
H3 O2 0.985376 1_555
H3 Na6 2.502977 1_555
H4 O3 0.976850 1_555
H5 O1 0.975156 1_555
H5 Na4 2.582650 1_555
H6 O6 0.975221 1_555
H6 Na1 2.639641 1_555
H6 Na7 2.665581 1_555
H7 O7 0.975612 1_555
H7 Na9 2.432940 1_555
H7 Na1 2.556231 1_554
H8 O12 1.001511 1_555
H9 O11 0.976069 1_555
H9 Na8 2.521957 1_555
H9 Na4 2.613077 1_555
H10 O9 0.985376 1_555
H10 Na8 2.502977 1_555
H11 O5 0.994676 1_555
H12 O10 0.976850 1_555
H13 O8 0.975156 1_555
H13 Na1 2.582650 1_654
H14 O15 0.994676 1_555
H15 O14 0.975221 1_555
H15 Na11 2.639641 1_555
H15 Na6 2.665581 1_555
H16 O13 0.975221 1_555
H16 Na4 2.639641 1_555
H16 Na9 2.665581 1_555
H17 O12 0.994676 1_555
H18 O19 0.975156 1_555
H18 Na14 2.582650 1_456
H19 O17 0.976850 1_555
H20 O22 0.994676 1_555
H21 O18 0.985376 1_555
H21 Na7 2.502977 1_555
H22 O16 0.976069 1_555
H22 Na7 2.521957 1_555
H22 Na11 2.613077 1_555
H23 O15 1.001511 1_555
H24 O20 0.975612 1_555
H24 Na6 2.432940 1_555
H24 Na14 2.556231 1_556
H25 O21 0.975221 1_555
H25 Na14 2.639641 1_555
H25 Na8 2.665581 1_555
H26 O26 0.975156 1_555
H26 Na11 2.582650 1_555
H27 O24 0.976850 1_555
H28 O25 0.985376 1_555
H28 Na9 2.502977 1_555
H29 O23 0.976069 1_555
H29 Na9 2.521957 1_555
H29 Na14 2.613077 1_455
H30 O22 1.001511 1_555
H31 O27 0.975612 1_555
H31 Na8 2.432940 1_555
H31 Na11 2.556231 1_555
S0 S3 2.135347 1_465
S1 S2 2.135347 1_564
