# generated using pymatgen
data_K3LiTi7O16
_symmetry_space_group_name_H-M   'P 1'
_cell_length_a   7.10690700
_cell_length_b   7.14073126
_cell_length_c   8.20745247
_cell_angle_alpha   97.23879263
_cell_angle_beta   97.13814303
_cell_angle_gamma   114.98768187
_symmetry_Int_Tables_number   1
_chemical_formula_structural   K3LiTi7O16
_chemical_formula_sum   'K3 Li1 Ti7 O16'
_cell_volume   367.15168269
_cell_formula_units_Z   1
loop_
 _symmetry_equiv_pos_site_id
 _symmetry_equiv_pos_as_xyz
  1  'x, y, z'
loop_
 _atom_site_type_symbol
 _atom_site_label
 _atom_site_symmetry_multiplicity
 _atom_site_fract_x
 _atom_site_fract_y
 _atom_site_fract_z
 _atom_site_occupancy
  K  K0  1  0.73020000  0.26687000  0.03608100  1
  K  K1  1  0.43952700  0.56419000  0.00690700  1
  K  K2  1  0.16169500  0.87594800  0.03191600  1
  Li  Li0  1  0.53076500  0.15603100  0.37378600  1
  Ti  Ti0  1  0.76897800  0.90998500  0.35782800  1
  Ti  Ti1  1  0.71675300  0.58983900  0.62722200  1
  Ti  Ti2  1  0.96343200  0.34292100  0.62830200  1
  Ti  Ti3  1  0.47251400  0.84917900  0.62626800  1
  Ti  Ti4  1  0.03345700  0.65770700  0.38175100  1
  Ti  Ti5  1  0.28553600  0.39369500  0.35817200  1
  Ti  Ti6  1  0.22413700  0.09592800  0.62698000  1
  O  O0  1  0.86633600  0.73332600  0.23375300  1
  O  O1  1  0.95852600  0.83050400  0.57921300  1
  O  O2  1  0.61512700  0.96076100  0.20622600  1
  O  O3  1  0.80731800  0.43024400  0.44607600  1
  O  O4  1  0.54604300  0.67110500  0.43388500  1
  O  O5  1  0.29046900  0.91744200  0.44504800  1
  O  O6  1  0.87020500  0.49545600  0.77538300  1
  O  O7  1  0.62705000  0.75249100  0.76775900  1
  O  O8  1  0.44606100  0.33741500  0.56637100  1
  O  O9  1  0.12571900  0.50819500  0.23365400  1
  O  O10  1  0.71298700  0.07077100  0.56719900  1
  O  O11  1  0.36278200  0.26653400  0.20621400  1
  O  O12  1  0.20548300  0.58410600  0.57865900  1
  O  O13  1  0.39129500  0.01688100  0.77359600  1
  O  O14  1  0.04465000  0.16945100  0.42834900  1
  O  O15  1  0.13122700  0.25630000  0.76649600  1
loop_
_geom_bond_atom_site_label_1
_geom_bond_atom_site_label_2
_geom_bond_distance
_geom_bond_site_symmetry_2
K0 O2 2.634317 1_545
K0 O9 2.751537 1_655
K0 O13 2.781685 1_554
K0 O6 2.875697 1_554
K0 O11 3.109651 1_555
K1 O7 2.690336 1_554
K1 O15 2.700056 1_554
K1 O2 2.755396 1_555
K1 O11 2.758538 1_555
K1 O0 3.010092 1_555
K1 O9 3.010431 1_555
K2 O11 2.643233 1_565
K2 O0 2.769630 1_455
K2 O13 2.860162 1_564
K2 O6 2.970815 1_454
K2 O2 3.128112 1_555
K2 O9 3.215062 1_555
Li0 O5 2.049972 1_545
Li0 O3 2.053066 1_555
Li0 O11 2.144935 1_555
Li0 O2 2.150110 1_545
Li0 O8 2.217574 1_555
Li0 O10 2.228556 1_555
O0 Ti4 1.877839 1_655
O0 Ti0 1.922463 1_555
O1 Ti1 1.976155 1_555
O1 Ti6 1.978744 1_665
O1 Ti4 2.167556 1_655
O1 Ti0 2.394955 1_555
O2 Ti0 1.727920 1_555
O3 Ti4 1.929098 1_655
O3 Ti2 2.064883 1_555
O3 Ti1 2.086615 1_555
O4 Ti0 2.010089 1_555
O4 Ti5 2.010786 1_555
O4 Ti3 2.154903 1_555
O4 Ti1 2.162176 1_555
O5 Ti4 1.924933 1_555
O5 Ti6 2.068628 1_565
O5 Ti3 2.088292 1_555
O6 Ti2 1.886719 1_555
O6 Ti1 1.902683 1_555
O7 Ti1 1.885879 1_555
O7 Ti3 1.886047 1_555
O8 Ti1 1.950413 1_555
O8 Ti6 1.954980 1_555
O8 Ti5 2.111606 1_555
O9 Ti4 1.873411 1_555
O9 Ti5 1.926043 1_555
O10 Ti3 1.942710 1_545
O10 Ti2 1.950998 1_555
O10 Ti0 2.118530 1_545
O11 Ti5 1.728373 1_555
O12 Ti3 1.982794 1_555
O12 Ti2 1.984781 1_455
O12 Ti4 2.156058 1_555
O12 Ti5 2.395101 1_555
O13 Ti6 1.886888 1_555
O13 Ti3 1.903123 1_545
O14 Ti0 1.996839 1_445
O14 Ti5 1.997021 1_555
O14 Ti6 2.196630 1_555
O14 Ti2 2.210872 1_455
O15 Ti6 1.885443 1_555
O15 Ti2 1.885452 1_455
