# generated using pymatgen
data_Li12Mn3V5(PO4)12
_symmetry_space_group_name_H-M   'P 1'
_cell_length_a   8.70666876
_cell_length_b   12.19318500
_cell_length_c   8.72928042
_cell_angle_alpha   90.23005854
_cell_angle_beta   90.03873362
_cell_angle_gamma   90.52004463
_symmetry_Int_Tables_number   1
_chemical_formula_structural   Li12Mn3V5(PO4)12
_chemical_formula_sum   'Li12 Mn3 V5 P12 O48'
_cell_volume   926.67218994
_cell_formula_units_Z   1
loop_
 _symmetry_equiv_pos_site_id
 _symmetry_equiv_pos_as_xyz
  1  'x, y, z'
loop_
 _atom_site_type_symbol
 _atom_site_label
 _atom_site_symmetry_multiplicity
 _atom_site_fract_x
 _atom_site_fract_y
 _atom_site_fract_z
 _atom_site_occupancy
  Li  Li0  1  0.07257200  0.69787000  0.08075100  1
  Li  Li1  1  0.07565500  0.75986800  0.69654500  1
  Li  Li2  1  0.20489800  0.17804900  0.77952700  1
  Li  Li3  1  0.29518200  0.32403500  0.27941700  1
  Li  Li4  1  0.42356900  0.73972000  0.19656400  1
  Li  Li5  1  0.42525700  0.80133200  0.58052900  1
  Li  Li6  1  0.57928800  0.19949000  0.42132900  1
  Li  Li7  1  0.58521700  0.26258700  0.80235300  1
  Li  Li8  1  0.70771200  0.67400600  0.71902700  1
  Li  Li9  1  0.79050300  0.82330000  0.22197900  1
  Li  Li10  1  0.91388200  0.23815800  0.30623700  1
  Li  Li11  1  0.92297900  0.30325800  0.91636600  1
  Mn  Mn0  1  0.74636200  0.60796900  0.03961000  1
  Mn  Mn1  1  0.75349300  0.89061600  0.54199200  1
  Mn  Mn2  1  0.75338100  0.39747300  0.46786100  1
  V  V0  1  0.24494400  0.60829400  0.52652200  1
  V  V1  1  0.25372200  0.89107300  0.02633200  1
  V  V2  1  0.24464700  0.10983300  0.46177400  1
  V  V3  1  0.25339500  0.39091200  0.95988300  1
  V  V4  1  0.74530800  0.10828100  0.97109200  1
  P  P0  1  0.03911700  0.49099100  0.24488500  1
  P  P1  1  0.10480200  0.85228800  0.38208200  1
  P  P2  1  0.10512100  0.14734100  0.10310100  1
  P  P3  1  0.39443500  0.35233400  0.60517300  1
  P  P4  1  0.39539700  0.64777500  0.88146200  1
  P  P5  1  0.46176300  0.00870800  0.74769600  1
  P  P6  1  0.53484400  0.99487000  0.24821100  1
  P  P7  1  0.60185000  0.35221200  0.11635800  1
  P  P8  1  0.60149500  0.65446200  0.40174900  1
  P  P9  1  0.89551300  0.85122100  0.90157400  1
  P  P10  1  0.89619700  0.14141700  0.61736200  1
  P  P11  1  0.96777200  0.50435000  0.74631000  1
  O  O0  1  0.05805600  0.43444300  0.86780200  1
  O  O1  1  0.07639700  0.85393000  0.89486400  1
  O  O2  1  0.07527900  0.59441300  0.67644400  1
  O  O3  1  0.07115400  0.16544100  0.59254900  1
  O  O4  1  0.11191900  0.56797500  0.36803200  1
  O  O5  1  0.14818300  0.82211400  0.21334300  1
  O  O6  1  0.14998200  0.97345300  0.41364100  1
  O  O7  1  0.14646700  0.23804100  0.98285300  1
  O  O8  1  0.15807900  0.18508200  0.26577300  1
  O  O9  1  0.17544900  0.43260400  0.16335500  1
  O  O10  1  0.17445900  0.03945700  0.05274300  1
  O  O11  1  0.19449100  0.78098400  0.50105300  1
  O  O12  1  0.30566100  0.72060400  0.99993600  1
  O  O13  1  0.32633200  0.45965400  0.55111900  1
  O  O14  1  0.32843000  0.07042800  0.66813600  1
  O  O15  1  0.33624400  0.31636600  0.76762600  1
  O  O16  1  0.35084700  0.52736300  0.91196300  1
  O  O17  1  0.35280300  0.67832200  0.71304800  1
  O  O18  1  0.35110100  0.26055500  0.48482900  1
  O  O19  1  0.38811700  0.93197900  0.86897400  1
  O  O20  1  0.42742400  0.90689500  0.17511700  1
  O  O21  1  0.42020800  0.65110600  0.39619700  1
  O  O22  1  0.42566000  0.33299300  0.08752400  1
  O  O23  1  0.44645500  0.06888200  0.36203500  1
  O  O24  1  0.54381200  0.93392700  0.63364300  1
  O  O25  1  0.56836800  0.66878900  0.90173000  1
  O  O26  1  0.57152400  0.35214600  0.61677000  1
  O  O27  1  0.56853900  0.09672100  0.82093600  1
  O  O28  1  0.60601800  0.07367600  0.12680800  1
  O  O29  1  0.63896100  0.74408600  0.52536400  1
  O  O30  1  0.63736300  0.31574800  0.28241600  1
  O  O31  1  0.63958600  0.47250000  0.09248400  1
  O  O32  1  0.64734900  0.69420400  0.24057000  1
  O  O33  1  0.66976000  0.93721500  0.32500300  1
  O  O34  1  0.67326500  0.54898500  0.45373300  1
  O  O35  1  0.69385200  0.27992700  0.99792000  1
  O  O36  1  0.80179000  0.20634700  0.49868400  1
  O  O37  1  0.82461600  0.96096000  0.94606500  1
  O  O38  1  0.83453600  0.56455000  0.82264100  1
  O  O39  1  0.84783300  0.80835800  0.74163300  1
  O  O40  1  0.85755400  0.76524400  0.02682300  1
  O  O41  1  0.86716600  0.01826500  0.60156200  1
  O  O42  1  0.85873800  0.17709800  0.78717400  1
  O  O43  1  0.90902900  0.42017000  0.62989200  1
  O  O44  1  0.93201900  0.83027900  0.40107200  1
  O  O45  1  0.93688100  0.40058500  0.31304300  1
  O  O46  1  0.92585700  0.14554600  0.10954600  1
  O  O47  1  0.95611500  0.56749600  0.13388100  1
loop_
_geom_bond_atom_site_label_1
_geom_bond_atom_site_label_2
_geom_bond_distance
_geom_bond_site_symmetry_2
Li0 O47 1.935861 1_455
Li0 O5 2.008690 1_555
Li0 O40 2.105001 1_455
Li0 O12 2.164806 1_554
Li0 O1 2.505746 1_554
Li1 O11 2.012477 1_555
Li1 O2 2.024311 1_555
Li1 O1 2.072765 1_555
Li1 O39 2.111756 1_455
Li2 O14 1.959865 1_555
Li2 O7 1.985367 1_555
Li2 O3 2.008930 1_555
Li2 O15 2.032118 1_555
Li3 O9 1.974854 1_555
Li3 O18 2.016969 1_555
Li3 O22 2.027363 1_555
Li3 O8 2.066685 1_555
Li4 O12 2.011062 1_554
Li4 O20 2.047697 1_555
Li4 O21 2.054206 1_555
Li4 O32 2.066901 1_555
Li5 O24 1.964022 1_555
Li5 O17 1.995876 1_555
Li5 O29 2.050175 1_555
Li5 O11 2.137160 1_555
Li5 O21 2.433333 1_555
Li6 O30 1.933179 1_555
Li6 O23 2.025032 1_555
Li6 O36 2.052008 1_555
Li6 O18 2.198602 1_555
Li6 O26 2.521273 1_555
Li7 O35 1.960871 1_555
Li7 O26 1.961486 1_555
Li7 O27 2.033465 1_555
Li7 O15 2.290727 1_555
Li8 O38 1.963075 1_555
Li8 O29 1.991461 1_555
Li8 O25 2.005388 1_555
Li8 O39 2.042483 1_555
Li9 O40 1.934744 1_555
Li9 O33 1.964940 1_555
Li9 O44 1.990952 1_555
Li9 O32 2.006068 1_555
Li10 O36 1.981324 1_555
Li10 O45 1.989436 1_555
Li10 O46 2.054469 1_555
Li10 O8 2.255710 1_655
Li11 O42 1.980053 1_555
Li11 O0 2.023223 1_655
Li11 O35 2.135590 1_555
Li11 O7 2.187633 1_655
Mn0 O31 1.945397 1_555
Mn0 O47 2.067247 1_555
Mn0 O25 2.103753 1_554
Mn0 O38 2.111424 1_554
Mn0 O40 2.143682 1_555
Mn0 O32 2.220318 1_555
Mn1 O41 1.907172 1_565
Mn1 O29 2.042797 1_555
Mn1 O24 2.065901 1_555
Mn1 O33 2.111033 1_555
Mn1 O44 2.118161 1_555
Mn1 O39 2.178256 1_555
Mn2 O43 1.975124 1_555
Mn2 O34 1.984898 1_555
Mn2 O45 2.093478 1_555
Mn2 O26 2.120103 1_555
Mn2 O30 2.144862 1_555
Mn2 O36 2.388238 1_555
O0 P11 1.577185 1_455
O0 V3 1.959170 1_555
O1 P9 1.576077 1_455
O1 V1 1.971431 1_556
O2 P11 1.562542 1_455
O2 V0 1.980756 1_555
O3 P10 1.563969 1_455
O3 V2 2.014790 1_555
O4 P0 1.555207 1_555
O4 V0 1.865273 1_555
O5 P1 1.564157 1_555
O5 V1 2.053131 1_555
O6 P1 1.548980 1_555
O6 V2 1.894775 1_565
O7 P2 1.567509 1_556
O7 V3 2.086416 1_555
O8 P2 1.559106 1_555
O8 V2 2.088230 1_555
O9 P0 1.560361 1_555
O9 V3 1.968348 1_554
O10 P2 1.515993 1_555
O10 V1 1.955100 1_545
O11 P1 1.569304 1_555
O11 V0 2.167149 1_555
O12 P4 1.573173 1_555
O12 V1 2.142746 1_556
O13 P3 1.518309 1_555
O13 V0 1.964498 1_555
O14 P5 1.554126 1_555
O14 V2 2.004877 1_555
O15 P3 1.569065 1_555
O15 V3 2.040683 1_555
O16 P4 1.539452 1_555
O16 V3 1.908791 1_555
O17 P4 1.563240 1_555
O17 V0 2.057753 1_555
O18 P3 1.575002 1_555
O18 V2 2.059822 1_555
O19 P5 1.550873 1_565
O19 V1 1.871338 1_556
O20 P6 1.551776 1_555
O20 V1 2.000337 1_555
O21 P8 1.579271 1_555
O21 V0 1.971791 1_555
O22 P7 1.569710 1_555
O22 V3 2.003264 1_554
O23 P6 1.549300 1_545
O23 V2 2.027109 1_555
O24 P5 1.529202 1_565
O25 P4 1.535339 1_555
O26 P3 1.545130 1_555
O27 P5 1.549279 1_555
O27 V4 2.024482 1_555
O28 P6 1.558424 1_545
O28 V4 1.869229 1_554
O29 P8 1.564801 1_555
O30 P7 1.549708 1_555
O31 P7 1.515378 1_555
O32 P8 1.541595 1_555
O33 P6 1.530071 1_555
O34 P8 1.506432 1_555
O35 P7 1.579244 1_556
O35 V4 2.156169 1_555
O36 P10 1.546906 1_555
O37 P9 1.527559 1_555
O37 V4 1.941864 1_565
O38 P11 1.530048 1_555
O39 P9 1.544083 1_555
O40 P9 1.551455 1_554
O41 P10 1.526158 1_555
O42 P10 1.578298 1_555
O42 V4 2.062739 1_555
O43 P11 1.526196 1_555
O44 P1 1.534918 1_655
O45 P0 1.532856 1_655
O46 P2 1.561802 1_655
O46 V4 2.029374 1_554
O47 P0 1.532946 1_655
