# generated using pymatgen
data_Na5Fe2P2(CO7)2
_symmetry_space_group_name_H-M   'P 1'
_cell_length_a   6.59432200
_cell_length_b   9.01531300
_cell_length_c   10.50311941
_cell_angle_alpha   89.52206592
_cell_angle_beta   90.00000000
_cell_angle_gamma   90.00000000
_symmetry_Int_Tables_number   1
_chemical_formula_structural   Na5Fe2P2(CO7)2
_chemical_formula_sum   'Na10 Fe4 P4 C4 O28'
_cell_volume   624.38743192
_cell_formula_units_Z   2
loop_
 _symmetry_equiv_pos_site_id
 _symmetry_equiv_pos_as_xyz
  1  'x, y, z'
loop_
 _atom_site_type_symbol
 _atom_site_label
 _atom_site_symmetry_multiplicity
 _atom_site_fract_x
 _atom_site_fract_y
 _atom_site_fract_z
 _atom_site_occupancy
  Na  Na0  1  0.99859400  0.91312400  0.61602900  1
  Na  Na1  1  0.00140600  0.91312400  0.11602900  1
  Na  Na2  1  0.76972700  0.73306200  0.87395100  1
  Na  Na3  1  0.23027300  0.73306200  0.37395100  1
  Na  Na4  1  0.24657700  0.26161100  0.62488300  1
  Na  Na5  1  0.75305900  0.26133000  0.62753100  1
  Na  Na6  1  0.24694100  0.26133000  0.12753100  1
  Na  Na7  1  0.75342300  0.26161100  0.12488300  1
  Na  Na8  1  0.49094600  0.07340400  0.87883100  1
  Na  Na9  1  0.50905400  0.07340400  0.37883100  1
  Fe  Fe0  1  0.50322700  0.65410900  0.60694500  1
  Fe  Fe1  1  0.49677300  0.65410900  0.10694500  1
  Fe  Fe2  1  0.00203700  0.35221500  0.88844100  1
  Fe  Fe3  1  0.99796300  0.35221500  0.38844100  1
  P  P0  1  0.00036400  0.58224800  0.64971000  1
  P  P1  1  0.99963600  0.58224800  0.14971000  1
  P  P2  1  0.50135200  0.42111700  0.85655600  1
  P  P3  1  0.49864800  0.42111700  0.35655600  1
  C  C0  1  0.49838700  0.93638500  0.63415900  1
  C  C1  1  0.50161300  0.93638500  0.13415900  1
  C  C2  1  0.99540600  0.06187300  0.86354000  1
  C  C3  1  0.00459400  0.06187300  0.36354000  1
  O  O0  1  0.98221300  0.92207100  0.85249900  1
  O  O1  1  0.01778700  0.92207100  0.35249900  1
  O  O2  1  0.48419900  0.87293500  0.52320400  1
  O  O3  1  0.51580100  0.87293500  0.02320400  1
  O  O4  1  0.51160300  0.84876300  0.73251600  1
  O  O5  1  0.48839700  0.84876300  0.23251600  1
  O  O6  1  0.80797000  0.67835300  0.61679500  1
  O  O7  1  0.18869500  0.67699300  0.60716000  1
  O  O8  1  0.81130500  0.67699300  0.10716000  1
  O  O9  1  0.19203000  0.67835300  0.11679500  1
  O  O10  1  0.50825500  0.56582000  0.93455700  1
  O  O11  1  0.49174500  0.56582000  0.43455700  1
  O  O12  1  0.99980600  0.55453600  0.79443600  1
  O  O13  1  0.00019400  0.55453600  0.29443600  1
  O  O14  1  0.49966700  0.46413900  0.71092500  1
  O  O15  1  0.50033300  0.46413900  0.21092500  1
  O  O16  1  0.99812600  0.43370000  0.57744300  1
  O  O17  1  0.00187400  0.43370000  0.07744300  1
  O  O18  1  0.31540000  0.32275600  0.88789200  1
  O  O19  1  0.68684000  0.31945300  0.88366300  1
  O  O20  1  0.31316000  0.31945300  0.38366300  1
  O  O21  1  0.68460000  0.32275600  0.38789200  1
  O  O22  1  0.00321600  0.14923000  0.76262700  1
  O  O23  1  0.99678400  0.14923000  0.26262700  1
  O  O24  1  0.00228100  0.12522300  0.97591400  1
  O  O25  1  0.99771900  0.12522300  0.47591400  1
  O  O26  1  0.49947300  0.07903000  0.64458400  1
  O  O27  1  0.50052700  0.07903000  0.14458400  1
loop_
_geom_bond_atom_site_label_1
_geom_bond_atom_site_label_2
_geom_bond_distance
_geom_bond_site_symmetry_2
Na0 O25 2.403144 1_565
Na0 O6 2.461633 1_555
Na0 O7 2.472900 1_655
Na0 O0 2.488001 1_555
Na0 O22 2.637651 1_665
Na0 O1 2.771281 1_655
Na1 O24 2.403144 1_564
Na1 O9 2.461633 1_555
Na1 O8 2.472900 1_455
Na1 O1 2.488001 1_555
Na1 O23 2.637651 1_465
Na1 O0 2.771281 1_454
Na2 O0 2.216136 1_555
Na2 O12 2.369016 1_555
Na2 O10 2.373907 1_555
Na2 O4 2.483189 1_555
Na2 O8 2.511911 1_556
Na2 O3 2.623811 1_556
Na2 O6 2.761189 1_555
Na3 O1 2.216136 1_555
Na3 O13 2.369016 1_555
Na3 O11 2.373907 1_555
Na3 O5 2.483189 1_555
Na3 O7 2.511911 1_555
Na3 O2 2.623811 1_555
Na3 O9 2.761189 1_555
Na4 O16 2.307937 1_455
Na4 O26 2.351102 1_555
Na4 O22 2.381274 1_555
Na4 O25 2.585557 1_455
Na4 O20 2.619466 1_555
Na4 O14 2.638821 1_555
Na4 O18 2.857653 1_555
Na5 O16 2.299905 1_555
Na5 O26 2.350442 1_555
Na5 O22 2.394163 1_655
Na5 O25 2.584008 1_555
Na5 O21 2.611950 1_555
Na5 O14 2.632295 1_555
Na5 O19 2.779544 1_555
Na6 O17 2.299905 1_555
Na6 O27 2.350442 1_555
Na6 O23 2.394163 1_455
Na6 O24 2.584008 1_554
Na6 O18 2.611950 1_554
Na6 O15 2.632295 1_555
Na6 O20 2.779544 1_555
Na7 O17 2.307937 1_655
Na7 O27 2.351102 1_555
Na7 O23 2.381274 1_555
Na7 O24 2.585557 1_654
Na7 O19 2.619466 1_554
Na7 O15 2.638821 1_555
Na7 O21 2.857653 1_555
Na8 O3 2.355167 1_546
Na8 O26 2.461066 1_555
Na8 O18 2.531032 1_555
Na8 O4 2.556089 1_545
Na8 O19 2.567805 1_555
Na8 O27 2.792834 1_556
Na9 O2 2.355167 1_545
Na9 O27 2.461066 1_555
Na9 O21 2.531032 1_555
Na9 O5 2.556089 1_545
Na9 O20 2.567805 1_555
Na9 O26 2.792834 1_555
Fe0 O11 1.985354 1_555
Fe0 O14 2.023658 1_555
Fe0 O6 2.024163 1_555
Fe0 O7 2.084363 1_555
Fe0 O2 2.156912 1_555
Fe0 O4 2.204696 1_555
Fe1 O10 1.985354 1_554
Fe1 O15 2.023658 1_555
Fe1 O9 2.024163 1_555
Fe1 O8 2.084363 1_555
Fe1 O3 2.156912 1_555
Fe1 O5 2.204696 1_555
Fe2 O12 2.066870 1_455
Fe2 O18 2.083427 1_555
Fe2 O19 2.100050 1_455
Fe2 O17 2.122416 1_556
Fe2 O24 2.236177 1_555
Fe2 O22 2.266144 1_555
Fe3 O13 2.066870 1_655
Fe3 O21 2.083427 1_555
Fe3 O20 2.100050 1_655
Fe3 O16 2.122416 1_555
Fe3 O25 2.236177 1_555
Fe3 O23 2.266144 1_555
C0 O26 1.291572 1_565
C0 O4 1.298148 1_555
C0 O2 1.305825 1_555
C1 O27 1.291572 1_565
C1 O5 1.298148 1_555
C1 O3 1.305825 1_555
C2 O0 1.269630 1_545
C2 O22 1.316189 1_655
C2 O24 1.316258 1_655
C3 O1 1.269630 1_545
C3 O23 1.316189 1_455
C3 O25 1.316258 1_455
O6 P0 1.573155 1_655
O7 P0 1.570125 1_555
O8 P1 1.570125 1_555
O9 P1 1.573155 1_455
O10 P2 1.546904 1_555
O11 P3 1.546904 1_555
O12 P0 1.538415 1_655
O13 P1 1.538415 1_455
O14 P2 1.574888 1_555
O15 P3 1.574888 1_555
O16 P0 1.544919 1_655
O17 P1 1.544919 1_455
O18 P2 1.547069 1_555
O19 P2 1.553344 1_555
O20 P3 1.553344 1_555
O21 P3 1.547069 1_555
