# generated using pymatgen
data_Li2VCr(P2O7)2
_symmetry_space_group_name_H-M   'P 1'
_cell_length_a   9.54961884
_cell_length_b   9.54903466
_cell_length_c   7.01796071
_cell_angle_alpha   99.44046031
_cell_angle_beta   99.45246677
_cell_angle_gamma   118.72051267
_symmetry_Int_Tables_number   1
_chemical_formula_structural   Li2VCr(P2O7)2
_chemical_formula_sum   'Li4 V2 Cr2 P8 O28'
_cell_volume   531.33320495
_cell_formula_units_Z   2
loop_
 _symmetry_equiv_pos_site_id
 _symmetry_equiv_pos_as_xyz
  1  'x, y, z'
loop_
 _atom_site_type_symbol
 _atom_site_label
 _atom_site_symmetry_multiplicity
 _atom_site_fract_x
 _atom_site_fract_y
 _atom_site_fract_z
 _atom_site_occupancy
  Li  Li0  1  0.15645500  0.01970000  0.67709400  1
  Li  Li1  1  0.73050900  0.09376400  0.32247500  1
  Li  Li2  1  0.23003400  0.59341000  0.32293700  1
  Li  Li3  1  0.65632500  0.51966600  0.67729600  1
  V  V0  1  0.85863700  0.35779600  0.72930500  1
  V  V1  1  0.89250900  0.89163200  0.27096000  1
  Cr  Cr0  1  0.39269300  0.39238800  0.27239800  1
  Cr  Cr1  1  0.35738200  0.85705300  0.72746100  1
  P  P0  1  0.11053400  0.29040600  0.52114000  1
  P  P1  1  0.75090100  0.03566600  0.91439000  1
  P  P2  1  0.25306100  0.53621000  0.91456100  1
  P  P3  1  0.45940300  0.13984200  0.47769500  1
  P  P4  1  0.60924000  0.78975500  0.52269200  1
  P  P5  1  0.71289100  0.49739900  0.08631200  1
  P  P6  1  0.21521100  0.99859400  0.08479400  1
  P  P7  1  0.96056300  0.64033100  0.47848600  1
  O  O0  1  0.07470700  0.11164900  0.48185100  1
  O  O1  1  0.35944900  0.03865300  0.60643500  1
  O  O2  1  0.58287700  0.01755400  0.91639700  1
  O  O3  1  0.08495500  0.51887900  0.91911500  1
  O  O4  1  0.22114500  0.37324300  0.75361800  1
  O  O5  1  0.37674600  0.02864400  0.24615900  1
  O  O6  1  0.23234900  0.16627000  0.08240100  1
  O  O7  1  0.21240100  0.39068000  0.39324500  1
  O  O8  1  0.45291900  0.29890500  0.49102000  1
  O  O9  1  0.13850900  0.67517000  0.51850900  1
  O  O10  1  0.63806500  0.17580600  0.51790600  1
  O  O11  1  0.86388100  0.18721500  0.85107600  1
  O  O12  1  0.36517700  0.68872900  0.85350700  1
  O  O13  1  0.21851900  0.91185100  0.88331200  1
  O  O14  1  0.71665200  0.41275700  0.88482800  1
  O  O15  1  0.33821300  0.53150700  0.11628300  1
  O  O16  1  0.83737200  0.03358000  0.11563500  1
  O  O17  1  0.06289600  0.88565400  0.14720500  1
  O  O18  1  0.56112300  0.38530500  0.14787200  1
  O  O19  1  0.57408200  0.61170500  0.48158500  1
  O  O20  1  0.45054500  0.79689800  0.50879900  1
  O  O21  1  0.95146700  0.29575800  0.50537300  1
  O  O22  1  0.85915900  0.53743700  0.60606700  1
  O  O23  1  0.72117400  0.87335900  0.75348500  1
  O  O24  1  0.87666400  0.52905100  0.24676600  1
  O  O25  1  0.73131900  0.66610000  0.08235200  1
  O  O26  1  0.71119200  0.89059300  0.39406900  1
  O  O27  1  0.95450900  0.79902100  0.49513700  1
loop_
_geom_bond_atom_site_label_1
_geom_bond_atom_site_label_2
_geom_bond_distance
_geom_bond_site_symmetry_2
Li0 O0 1.989952 1_555
Li0 O1 2.011093 1_555
Li0 O27 2.047696 1_445
Li0 O13 2.073684 1_545
Li1 O10 1.996017 1_555
Li1 O26 2.014119 1_545
Li1 O21 2.051105 1_555
Li1 O16 2.062857 1_555
Li2 O9 1.988866 1_555
Li2 O7 2.011661 1_555
Li2 O20 2.060410 1_555
Li2 O15 2.077922 1_555
Li3 O19 1.995202 1_555
Li3 O22 2.015083 1_555
Li3 O8 2.062156 1_555
Li3 O14 2.067058 1_555
Cr0 O18 1.975413 1_555
Cr0 O6 1.998034 1_555
Cr0 O8 2.033357 1_555
Cr0 O7 2.034950 1_555
Cr0 O15 2.047021 1_555
Cr0 O19 2.052158 1_555
Cr1 O12 1.982759 1_555
Cr1 O2 1.991935 1_565
Cr1 O20 2.031446 1_555
Cr1 O13 2.045523 1_555
Cr1 O1 2.045652 1_565
Cr1 O9 2.050488 1_555
O0 P0 1.536270 1_555
O0 V1 2.062214 1_445
O1 P3 1.531111 1_555
O2 P1 1.531748 1_555
O3 P2 1.539092 1_555
O3 V0 1.999669 1_455
O4 P0 1.615824 1_555
O4 P2 1.626291 1_555
O5 P3 1.611854 1_555
O5 P6 1.624374 1_545
O6 P6 1.532517 1_545
O7 P0 1.530457 1_555
O8 P3 1.537962 1_555
O9 P7 1.531828 1_455
O10 P3 1.534756 1_555
O10 V0 2.065834 1_555
O11 P1 1.524321 1_555
O11 V0 1.976631 1_555
O12 P2 1.519146 1_555
O13 P6 1.530385 1_556
O14 P5 1.524349 1_556
O14 V0 2.070573 1_555
O15 P2 1.531417 1_554
O16 P1 1.522804 1_554
O16 V1 2.069994 1_545
O17 P6 1.525530 1_555
O17 V1 1.985521 1_455
O18 P5 1.516355 1_555
O19 P4 1.531443 1_555
O20 P4 1.537473 1_555
O21 P0 1.530870 1_655
O21 V0 2.064818 1_555
O22 P7 1.537445 1_555
O22 V0 2.042186 1_555
O23 P4 1.609460 1_555
O23 P1 1.629593 1_565
O24 P7 1.613243 1_555
O24 P5 1.631244 1_555
O25 P5 1.539701 1_555
O25 V1 1.992272 1_555
O26 P4 1.537109 1_555
O26 V1 2.054833 1_555
O27 P7 1.530218 1_555
O27 V1 2.064330 1_555
