# generated using pymatgen
data_Na2Ge2O5
_symmetry_space_group_name_H-M   'P 1'
_cell_length_a   5.74550000
_cell_length_b   8.69492000
_cell_length_c   9.96398000
_cell_angle_alpha   90.00000000
_cell_angle_beta   90.00000000
_cell_angle_gamma   90.00000000
_symmetry_Int_Tables_number   1
_chemical_formula_structural   Na2Ge2O5
_chemical_formula_sum   'Na8 Ge8 O20'
_cell_volume   497.76718960
_cell_formula_units_Z   4
loop_
 _symmetry_equiv_pos_site_id
 _symmetry_equiv_pos_as_xyz
  1  'x, y, z'
loop_
 _atom_site_type_symbol
 _atom_site_label
 _atom_site_symmetry_multiplicity
 _atom_site_fract_x
 _atom_site_fract_y
 _atom_site_fract_z
 _atom_site_occupancy
  Na  Na0  1  0.93604300  0.02304400  0.49024600  1
  Na  Na1  1  0.93604300  0.52304400  0.00975400  1
  Na  Na2  1  0.90786900  0.75042400  0.74315600  1
  Na  Na3  1  0.90786900  0.25042400  0.75684400  1
  Na  Na4  1  0.09213100  0.25042400  0.25684400  1
  Na  Na5  1  0.09213100  0.75042400  0.24315600  1
  Na  Na6  1  0.06395700  0.52304400  0.50975400  1
  Na  Na7  1  0.06395700  0.02304400  0.99024600  1
  Ge  Ge0  1  0.63359500  0.94659200  0.20085000  1
  Ge  Ge1  1  0.63359500  0.44659200  0.29915000  1
  Ge  Ge2  1  0.54581700  0.75039500  0.46146400  1
  Ge  Ge3  1  0.54581700  0.25039500  0.03853600  1
  Ge  Ge4  1  0.45418300  0.75039500  0.96146400  1
  Ge  Ge5  1  0.45418300  0.25039500  0.53853600  1
  Ge  Ge6  1  0.36640500  0.94659200  0.70085000  1
  Ge  Ge7  1  0.36640500  0.44659200  0.79915000  1
  O  O0  1  0.91099700  0.50292700  0.25892400  1
  O  O1  1  0.91099700  0.00292700  0.24107600  1
  O  O2  1  0.83476600  0.25473600  0.99700000  1
  O  O3  1  0.83476600  0.75473600  0.50300000  1
  O  O4  1  0.66164300  0.77773800  0.09398100  1
  O  O5  1  0.66164300  0.27773800  0.40601900  1
  O  O6  1  0.56216400  0.57171800  0.89064800  1
  O  O7  1  0.56216400  0.07171800  0.60935200  1
  O  O8  1  0.55467700  0.88681500  0.83579400  1
  O  O9  1  0.55467700  0.38681500  0.66420600  1
  O  O10  1  0.44532300  0.88681500  0.33579400  1
  O  O11  1  0.44532300  0.38681500  0.16420600  1
  O  O12  1  0.43783600  0.57171800  0.39064800  1
  O  O13  1  0.43783600  0.07171800  0.10935200  1
  O  O14  1  0.33835700  0.27773800  0.90601900  1
  O  O15  1  0.33835700  0.77773800  0.59398100  1
  O  O16  1  0.16523400  0.25473600  0.49700000  1
  O  O17  1  0.16523400  0.75473600  0.00300000  1
  O  O18  1  0.08900300  0.50292700  0.75892400  1
  O  O19  1  0.08900300  0.00292700  0.74107600  1
loop_
_geom_bond_atom_site_label_1
_geom_bond_atom_site_label_2
_geom_bond_distance
_geom_bond_site_symmetry_2
Na0 O16 2.407680 1_655
Na0 O3 2.407746 1_545
Na0 O7 2.490374 1_555
Na0 O1 2.493036 1_555
Na0 O19 2.655046 1_655
Na0 O5 2.845010 1_555
Na1 O17 2.407680 1_655
Na1 O2 2.407746 1_554
Na1 O6 2.490374 1_554
Na1 O0 2.493036 1_555
Na1 O18 2.655046 1_654
Na1 O4 2.845010 1_555
Na2 O18 2.395561 1_655
Na2 O19 2.429751 1_665
Na2 O3 2.429780 1_555
Na2 O8 2.525134 1_555
Na2 O15 2.895388 1_655
Na2 O6 2.918789 1_555
Na2 O17 2.981823 1_656
Na3 O19 2.395561 1_655
Na3 O18 2.429751 1_655
Na3 O2 2.429780 1_555
Na3 O9 2.525134 1_555
Na3 O14 2.895388 1_655
Na3 O7 2.918789 1_555
Na3 O16 2.981823 1_655
Na4 O1 2.395561 1_455
Na4 O0 2.429751 1_455
Na4 O16 2.429780 1_555
Na4 O11 2.525134 1_555
Na4 O5 2.895388 1_455
Na4 O13 2.918789 1_555
Na4 O2 2.981823 1_454
Na5 O0 2.395561 1_455
Na5 O1 2.429751 1_465
Na5 O17 2.429780 1_555
Na5 O10 2.525134 1_555
Na5 O4 2.895388 1_455
Na5 O12 2.918789 1_555
Na5 O3 2.981823 1_455
Na6 O3 2.407680 1_455
Na6 O16 2.407746 1_555
Na6 O12 2.490374 1_555
Na6 O18 2.493036 1_555
Na6 O0 2.655046 1_455
Na6 O15 2.845010 1_555
Na7 O2 2.407680 1_455
Na7 O17 2.407746 1_546
Na7 O13 2.490374 1_556
Na7 O19 2.493036 1_555
Na7 O1 2.655046 1_456
Na7 O14 2.845010 1_555
Ge0 O1 1.714882 1_565
Ge0 O10 1.802263 1_555
Ge0 O13 1.811036 1_565
Ge0 O4 1.820820 1_555
Ge1 O0 1.714882 1_555
Ge1 O11 1.802263 1_555
Ge1 O12 1.811036 1_555
Ge1 O5 1.820820 1_555
Ge2 O3 1.711382 1_555
Ge2 O15 1.794643 1_555
Ge2 O12 1.815600 1_555
Ge2 O10 1.818871 1_555
Ge3 O2 1.711382 1_554
Ge3 O14 1.794643 1_554
Ge3 O13 1.815600 1_555
Ge3 O11 1.818871 1_555
Ge4 O17 1.711382 1_556
Ge4 O4 1.794643 1_556
Ge4 O6 1.815600 1_555
Ge4 O8 1.818871 1_555
Ge5 O16 1.711382 1_555
Ge5 O5 1.794643 1_555
Ge5 O7 1.815600 1_555
Ge5 O9 1.818871 1_555
Ge6 O19 1.714882 1_565
Ge6 O8 1.802263 1_555
Ge6 O7 1.811036 1_565
Ge6 O15 1.820820 1_555
Ge7 O18 1.714882 1_555
Ge7 O9 1.802263 1_555
Ge7 O6 1.811036 1_555
Ge7 O14 1.820820 1_555
