# generated using pymatgen
data_Li8ScFe7(SiO3)16
_symmetry_space_group_name_H-M   'P 1'
_cell_length_a   7.26203520
_cell_length_b   9.41509218
_cell_length_c   13.05089969
_cell_angle_alpha   102.77280377
_cell_angle_beta   95.31861784
_cell_angle_gamma   102.16035446
_symmetry_Int_Tables_number   1
_chemical_formula_structural   Li8ScFe7(SiO3)16
_chemical_formula_sum   'Li8 Sc1 Fe7 Si16 O48'
_cell_volume   841.59244026
_cell_formula_units_Z   1
loop_
 _symmetry_equiv_pos_site_id
 _symmetry_equiv_pos_as_xyz
  1  'x, y, z'
loop_
 _atom_site_type_symbol
 _atom_site_label
 _atom_site_symmetry_multiplicity
 _atom_site_fract_x
 _atom_site_fract_y
 _atom_site_fract_z
 _atom_site_occupancy
  Li  Li0  1  0.24960772  0.00031969  0.37583859  1
  Li  Li1  1  0.24678652  0.50271558  0.12902392  1
  Li  Li2  1  0.74876614  0.50069616  0.37553765  1
  Li  Li3  1  0.24683536  0.99506386  0.87488210  1
  Li  Li4  1  0.25160033  0.49865587  0.62382435  1
  Li  Li5  1  0.75001709  0.00023925  0.12408954  1
  Li  Li6  1  0.75350976  0.50347848  0.87516216  1
  Li  Li7  1  0.74634448  0.00075553  0.62457499  1
  Sc  Sc0  1  0.42455324  0.32489675  0.94980530  1
  Fe  Fe0  1  0.57529075  0.68004465  0.05302322  1
  Fe  Fe1  1  0.07022634  0.17513982  0.05241046  1
  Fe  Fe2  1  0.92672297  0.82350995  0.44859873  1
  Fe  Fe3  1  0.57361333  0.67609492  0.55172306  1
  Fe  Fe4  1  0.42643075  0.32316218  0.44887562  1
  Fe  Fe5  1  0.07318610  0.17641956  0.55128410  1
  Fe  Fe6  1  0.92586951  0.82426098  0.94845115  1
  Si  Si0  1  0.32823517  0.94271822  0.10461443  1
  Si  Si1  1  0.98975911  0.78148174  0.19387663  1
  Si  Si2  1  0.51328148  0.72010686  0.30719142  1
  Si  Si3  1  0.83003506  0.44345568  0.10507828  1
  Si  Si4  1  0.32681607  0.94074952  0.60374700  1
  Si  Si5  1  0.17335045  0.55886554  0.39587059  1
  Si  Si6  1  0.48764718  0.28167527  0.19502511  1
  Si  Si7  1  0.01100769  0.21955063  0.30707341  1
  Si  Si8  1  0.98756418  0.77971858  0.69280623  1
  Si  Si9  1  0.51222264  0.71648185  0.80578487  1
  Si  Si10  1  0.82954930  0.44053949  0.60176571  1
  Si  Si11  1  0.17176977  0.56057651  0.89659310  1
  Si  Si12  1  0.67227929  0.05930285  0.39653952  1
  Si  Si13  1  0.49092236  0.28039274  0.69042491  1
  Si  Si14  1  0.00730366  0.21822638  0.80655420  1
  Si  Si15  1  0.67128850  0.05457956  0.89482946  1
  O  O0  1  0.17648667  0.97432004  0.01642452  1
  O  O1  1  0.48101907  0.85535860  0.05655845  1
  O  O2  1  0.20714339  0.85095324  0.17813154  1
  O  O3  1  0.84220245  0.81049786  0.10225145  1
  O  O4  1  0.54506364  0.90001712  0.32236749  1
  O  O5  1  0.68418328  0.47933301  0.01675368  1
  O  O6  1  0.17598758  0.97368997  0.51566868  1
  O  O7  1  0.53162152  0.64088263  0.18736471  1
  O  O8  1  0.29555188  0.64918061  0.32183289  1
  O  O9  1  0.33670054  0.31034249  0.10511133  1
  O  O10  1  0.02227422  0.64800262  0.44409620  1
  O  O11  1  0.97163608  0.86076938  0.31367103  1
  O  O12  1  0.04587195  0.39968750  0.32142317  1
  O  O13  1  0.96034167  0.60150876  0.17929661  1
  O  O14  1  0.02433162  0.13820172  0.18679937  1
  O  O15  1  0.47732448  0.85105112  0.55544388  1
  O  O16  1  0.97846830  0.35183945  0.05663808  1
  O  O17  1  0.65999164  0.69083181  0.39898863  1
  O  O18  1  0.20513719  0.85072196  0.67797844  1
  O  O19  1  0.70376905  0.35219682  0.17719643  1
  O  O20  1  0.47328956  0.36172580  0.31494845  1
  O  O21  1  0.32381741  0.52633577  0.48424546  1
  O  O22  1  0.45510425  0.10172102  0.17928506  1
  O  O23  1  0.84031360  0.80979418  0.60151908  1
  O  O24  1  0.15914615  0.18952491  0.39778903  1
  O  O25  1  0.54738082  0.89590884  0.81868478  1
  O  O26  1  0.67786712  0.47417658  0.51465353  1
  O  O27  1  0.52946616  0.63579687  0.68608357  1
  O  O28  1  0.29410488  0.64885002  0.82175060  1
  O  O29  1  0.79360496  0.15205430  0.32373172  1
  O  O30  1  0.34171722  0.30878101  0.59916671  1
  O  O31  1  0.52022707  0.14703110  0.44478749  1
  O  O32  1  0.02031806  0.64930610  0.94370848  1
  O  O33  1  0.97039509  0.85822533  0.81291162  1
  O  O34  1  0.04418426  0.39946327  0.82472335  1
  O  O35  1  0.95577709  0.59954073  0.67703379  1
  O  O36  1  0.02665415  0.14178729  0.68633516  1
  O  O37  1  0.98226439  0.35351036  0.55328490  1
  O  O38  1  0.65855450  0.69009833  0.89918564  1
  O  O39  1  0.70866793  0.34500488  0.67298095  1
  O  O40  1  0.47568957  0.36322750  0.80918063  1
  O  O41  1  0.32188658  0.53181661  0.98688541  1
  O  O42  1  0.82294813  0.02635142  0.48462653  1
  O  O43  1  0.45537295  0.10015177  0.67669016  1
  O  O44  1  0.15109908  0.18457106  0.89724111  1
  O  O45  1  0.78968448  0.14909625  0.82161443  1
  O  O46  1  0.51946380  0.13939048  0.94479367  1
  O  O47  1  0.82349818  0.02350088  0.98328330  1
loop_
_geom_bond_atom_site_label_1
_geom_bond_atom_site_label_2
_geom_bond_distance
_geom_bond_site_symmetry_2
Li0 O24 1.997305 1_555
Li0 O6 2.001424 1_545
Li0 O31 2.135138 1_555
Li0 O11 2.137075 1_445
Li1 O9 2.022454 1_555
Li1 O41 2.040345 1_554
Li1 O16 2.146243 1_455
Li1 O7 2.164951 1_555
Li1 O13 2.533987 1_455
Li1 O8 2.540405 1_555
Li2 O26 1.985794 1_555
Li2 O17 1.998608 1_555
Li2 O20 2.117975 1_555
Li2 O10 2.151848 1_655
Li3 O0 2.000984 1_556
Li3 O44 2.020391 1_565
Li3 O33 2.119602 1_455
Li3 O46 2.140606 1_565
Li4 O21 1.997682 1_555
Li4 O30 2.001306 1_555
Li4 O37 2.127080 1_455
Li4 O27 2.129242 1_555
Li5 O47 2.005040 1_554
Li5 O3 2.008687 1_545
Li5 O14 2.112575 1_655
Li5 O1 2.116629 1_545
Li6 O38 1.991970 1_555
Li6 O5 2.007453 1_556
Li6 O32 2.110535 1_655
Li6 O40 2.146718 1_555
Li7 O42 2.007482 1_555
Li7 O23 2.025952 1_545
Li7 O15 2.137329 1_545
Li7 O36 2.154155 1_655
Li7 O43 2.573212 1_555
Li7 O45 2.595995 1_555
Fe0 O1 1.908804 1_555
Fe0 O7 1.910540 1_555
Fe0 O3 2.023769 1_555
Fe0 O41 2.042070 1_554
Fe0 O38 2.165755 1_554
Fe0 O5 2.173447 1_555
Fe1 O14 1.907204 1_555
Fe1 O16 1.909985 1_455
Fe1 O47 2.028714 1_454
Fe1 O9 2.041216 1_555
Fe1 O0 2.163366 1_545
Fe1 O44 2.175285 1_554
Fe2 O11 1.913564 1_555
Fe2 O10 1.913927 1_655
Fe2 O17 2.030304 1_555
Fe2 O6 2.030483 1_655
Fe2 O23 2.169203 1_555
Fe2 O42 2.170537 1_565
Fe3 O15 1.913338 1_555
Fe3 O27 1.915396 1_555
Fe3 O21 2.032616 1_555
Fe3 O23 2.033679 1_555
Fe3 O26 2.165398 1_555
Fe3 O17 2.168754 1_555
Fe4 O20 1.908271 1_555
Fe4 O31 1.913173 1_555
Fe4 O24 2.038495 1_555
Fe4 O26 2.041696 1_555
Fe4 O30 2.133086 1_555
Fe4 O21 2.168277 1_555
Fe5 O36 1.909230 1_555
Fe5 O37 1.914255 1_455
Fe5 O42 2.034002 1_455
Fe5 O30 2.037706 1_555
Fe5 O6 2.165399 1_545
Fe5 O24 2.174072 1_555
Fe6 O32 1.904303 1_655
Fe6 O33 1.910093 1_555
Fe6 O38 2.038098 1_555
Fe6 O0 2.039266 1_656
Fe6 O47 2.133379 1_565
Fe6 O3 2.173218 1_556
O0 Si0 1.637699 1_555
O1 Si0 1.608188 1_555
O2 Si0 1.625791 1_555
O2 Si1 1.626881 1_455
O3 Si1 1.637993 1_555
O4 Si2 1.624861 1_555
O4 Si12 1.627331 1_565
O5 Si3 1.631341 1_555
O5 Sc0 2.100090 1_554
O6 Si4 1.638475 1_555
O7 Si2 1.607610 1_555
O8 Si5 1.627452 1_555
O8 Si2 1.627916 1_555
O9 Si6 1.636362 1_555
O9 Sc0 2.204490 1_554
O10 Si5 1.608253 1_555
O11 Si1 1.606973 1_555
O12 Si7 1.626490 1_555
O12 Si5 1.628481 1_555
O13 Si3 1.627133 1_555
O13 Si1 1.628017 1_555
O14 Si7 1.608624 1_555
O15 Si4 1.608251 1_555
O16 Si3 1.607034 1_555
O17 Si2 1.636907 1_555
O18 Si4 1.626059 1_555
O18 Si8 1.627793 1_455
O19 Si3 1.628056 1_555
O19 Si6 1.629497 1_555
O20 Si6 1.603199 1_555
O21 Si5 1.637558 1_555
O22 Si6 1.623905 1_555
O22 Si0 1.626966 1_545
O23 Si8 1.638172 1_555
O24 Si7 1.636733 1_555
O25 Si9 1.622314 1_555
O25 Si15 1.624940 1_565
O26 Si10 1.637125 1_555
O27 Si9 1.607749 1_555
O28 Si11 1.625672 1_555
O28 Si9 1.628741 1_555
O29 Si12 1.624726 1_555
O29 Si7 1.626563 1_655
O30 Si13 1.639357 1_555
O31 Si12 1.606601 1_555
O32 Si11 1.603429 1_555
O33 Si8 1.606751 1_555
O34 Si14 1.629849 1_555
O34 Si11 1.629990 1_555
O35 Si8 1.626411 1_555
O35 Si10 1.628182 1_555
O36 Si14 1.607341 1_555
O37 Si10 1.607901 1_555
O38 Si9 1.637618 1_555
O39 Si10 1.622261 1_555
O39 Si13 1.626358 1_555
O40 Si13 1.598822 1_555
O40 Sc0 1.999785 1_555
O41 Si11 1.636358 1_555
O41 Sc0 2.201676 1_555
O42 Si12 1.637857 1_555
O43 Si4 1.625858 1_545
O43 Si13 1.628155 1_555
O44 Si14 1.633323 1_555
O44 Sc0 2.097860 1_555
O45 Si14 1.624991 1_655
O45 Si15 1.627915 1_555
O46 Si15 1.597624 1_555
O46 Sc0 1.998701 1_555
O47 Si15 1.639857 1_555
