# generated using pymatgen
data_HfFeO3
_symmetry_space_group_name_H-M   'P 1'
_cell_length_a   5.42772200
_cell_length_b   5.51152700
_cell_length_c   7.87528800
_cell_angle_alpha   90.00000000
_cell_angle_beta   90.00000000
_cell_angle_gamma   90.00000000
_symmetry_Int_Tables_number   1
_chemical_formula_structural   HfFeO3
_chemical_formula_sum   'Hf4 Fe4 O12'
_cell_volume   235.58952680
_cell_formula_units_Z   4
loop_
 _symmetry_equiv_pos_site_id
 _symmetry_equiv_pos_as_xyz
  1  'x, y, z'
loop_
 _atom_site_type_symbol
 _atom_site_label
 _atom_site_symmetry_multiplicity
 _atom_site_fract_x
 _atom_site_fract_y
 _atom_site_fract_z
 _atom_site_occupancy
  Hf  Hf0  1  0.00000000  0.00000000  0.00000000  1
  Hf  Hf1  1  0.00000000  0.00000000  0.50000000  1
  Hf  Hf2  1  0.50000000  0.50000000  0.00000000  1
  Hf  Hf3  1  0.50000000  0.50000000  0.50000000  1
  Fe  Fe0  1  0.99093200  0.46291400  0.75000000  1
  Fe  Fe1  1  0.50906800  0.96291400  0.75000000  1
  Fe  Fe2  1  0.49093200  0.03708600  0.25000000  1
  Fe  Fe3  1  0.00906800  0.53708600  0.25000000  1
  O  O0  1  0.11815400  0.92190400  0.25000000  1
  O  O1  1  0.17023800  0.67458300  0.56517200  1
  O  O2  1  0.17023800  0.67458300  0.93482800  1
  O  O3  1  0.32976200  0.17458300  0.56517200  1
  O  O4  1  0.32976200  0.17458300  0.93482800  1
  O  O5  1  0.38184600  0.42190400  0.25000000  1
  O  O6  1  0.61815400  0.57809600  0.75000000  1
  O  O7  1  0.67023800  0.82541700  0.06517200  1
  O  O8  1  0.67023800  0.82541700  0.43482800  1
  O  O9  1  0.82976200  0.32541700  0.06517200  1
  O  O10  1  0.82976200  0.32541700  0.43482800  1
  O  O11  1  0.88184600  0.07809600  0.75000000  1
loop_
_geom_bond_atom_site_label_1
_geom_bond_atom_site_label_2
_geom_bond_distance
_geom_bond_site_symmetry_2
Hf0 O2 2.081829 1_544
Hf0 O9 2.081829 1_455
Hf0 O4 2.095919 1_554
Hf0 O7 2.095919 1_445
Hf0 O11 2.114900 1_454
Hf0 O0 2.114900 1_545
Hf1 O1 2.081829 1_545
Hf1 O10 2.081829 1_455
Hf1 O3 2.095919 1_555
Hf1 O8 2.095919 1_445
Hf1 O11 2.114900 1_455
Hf1 O0 2.114900 1_545
Hf2 O7 2.081829 1_555
Hf2 O4 2.081829 1_554
Hf2 O9 2.095919 1_555
Hf2 O2 2.095919 1_554
Hf2 O5 2.114900 1_555
Hf2 O6 2.114900 1_554
Hf3 O8 2.081829 1_555
Hf3 O3 2.081829 1_555
Hf3 O10 2.095919 1_555
Hf3 O1 2.095919 1_555
Hf3 O5 2.114900 1_555
Hf3 O6 2.114900 1_555
Fe0 O1 2.104010 1_655
Fe0 O2 2.104010 1_655
Fe0 O6 2.120588 1_555
Fe0 O11 2.202029 1_555
Fe1 O3 2.104010 1_565
Fe1 O4 2.104010 1_565
Fe1 O11 2.120588 1_565
Fe1 O6 2.202029 1_555
Fe2 O7 2.104010 1_545
Fe2 O8 2.104010 1_545
Fe2 O0 2.120588 1_545
Fe2 O5 2.202029 1_555
Fe3 O10 2.104010 1_455
Fe3 O9 2.104010 1_455
Fe3 O5 2.120588 1_555
Fe3 O0 2.202029 1_555
