# generated using pymatgen
data_Li2TiFe3O8
_symmetry_space_group_name_H-M   'P 1'
_cell_length_a   5.93510997
_cell_length_b   5.93510997
_cell_length_c   9.58573600
_cell_angle_alpha   90.00000000
_cell_angle_beta   90.00000000
_cell_angle_gamma   119.99999967
_symmetry_Int_Tables_number   1
_chemical_formula_structural   Li2TiFe3O8
_chemical_formula_sum   'Li4 Ti2 Fe6 O16'
_cell_volume   292.42442035
_cell_formula_units_Z   2
loop_
 _symmetry_equiv_pos_site_id
 _symmetry_equiv_pos_as_xyz
  1  'x, y, z'
loop_
 _atom_site_type_symbol
 _atom_site_label
 _atom_site_symmetry_multiplicity
 _atom_site_fract_x
 _atom_site_fract_y
 _atom_site_fract_z
 _atom_site_occupancy
  Li  Li0  1  0.33333300  0.66666700  0.89564500  1
  Li  Li1  1  0.00000000  0.00000000  0.99463100  1
  Li  Li2  1  0.00000000  0.00000000  0.49463100  1
  Li  Li3  1  0.66666700  0.33333300  0.39564500  1
  Ti  Ti0  1  0.33333300  0.66666700  0.49480000  1
  Ti  Ti1  1  0.66666700  0.33333300  0.99480000  1
  Fe  Fe0  1  0.17088400  0.82911600  0.21515800  1
  Fe  Fe1  1  0.17088400  0.34176800  0.21515800  1
  Fe  Fe2  1  0.65823200  0.82911600  0.21515800  1
  Fe  Fe3  1  0.34176800  0.17088400  0.71515800  1
  Fe  Fe4  1  0.82911600  0.65823200  0.71515800  1
  Fe  Fe5  1  0.82911600  0.17088400  0.71515800  1
  O  O0  1  0.16848700  0.83151300  0.59500700  1
  O  O1  1  0.03851400  0.51925700  0.34294100  1
  O  O2  1  0.33333300  0.66666700  0.10433900  1
  O  O3  1  0.00000000  0.00000000  0.30630300  1
  O  O4  1  0.00000000  0.00000000  0.80630300  1
  O  O5  1  0.16848700  0.33697500  0.59500700  1
  O  O6  1  0.48074300  0.96148600  0.34294100  1
  O  O7  1  0.48074300  0.51925700  0.34294100  1
  O  O8  1  0.33697500  0.16848700  0.09500700  1
  O  O9  1  0.66302500  0.83151300  0.59500700  1
  O  O10  1  0.51925700  0.48074300  0.84294100  1
  O  O11  1  0.51925700  0.03851400  0.84294100  1
  O  O12  1  0.66666700  0.33333300  0.60433900  1
  O  O13  1  0.83151300  0.66302500  0.09500700  1
  O  O14  1  0.96148600  0.48074300  0.84294100  1
  O  O15  1  0.83151300  0.16848700  0.09500700  1
loop_
_geom_bond_atom_site_label_1
_geom_bond_atom_site_label_2
_geom_bond_distance
_geom_bond_site_symmetry_2
Li0 O11 1.976920 1_565
Li0 O14 1.976920 1_455
Li0 O10 1.976925 1_555
Li0 O2 2.000486 1_556
Li1 O4 1.805262 1_555
Li1 O15 1.981343 1_456
Li1 O13 1.981347 1_446
Li1 O8 1.981347 1_556
Li2 O3 1.805262 1_555
Li2 O0 1.981343 1_545
Li2 O5 1.981347 1_555
Li2 O9 1.981347 1_445
Li3 O1 1.976920 1_655
Li3 O6 1.976920 1_545
Li3 O7 1.976925 1_555
Li3 O12 2.000486 1_555
Fe0 O3 1.961947 1_565
Fe0 O2 1.979195 1_555
Fe0 O1 2.013669 1_555
Fe0 O6 2.013669 1_555
Fe0 O13 2.090386 1_455
Fe0 O8 2.090386 1_565
Fe1 O3 1.961947 1_555
Fe1 O2 1.979200 1_555
Fe1 O1 2.013669 1_555
Fe1 O7 2.013669 1_555
Fe1 O15 2.090386 1_455
Fe1 O8 2.090390 1_555
Fe2 O3 1.961947 1_665
Fe2 O2 1.979200 1_555
Fe2 O6 2.013669 1_555
Fe2 O7 2.013669 1_555
Fe2 O15 2.090386 1_565
Fe2 O13 2.090390 1_555
Fe3 O4 1.961947 1_555
Fe3 O12 1.979200 1_555
Fe3 O11 2.013669 1_555
Fe3 O10 2.013669 1_555
Fe3 O0 2.090386 1_545
Fe3 O5 2.090390 1_555
Fe4 O4 1.961947 1_665
Fe4 O12 1.979200 1_555
Fe4 O14 2.013669 1_555
Fe4 O10 2.013669 1_555
Fe4 O0 2.090386 1_655
Fe4 O9 2.090390 1_555
Fe5 O4 1.961947 1_655
Fe5 O12 1.979195 1_555
Fe5 O11 2.013669 1_555
Fe5 O14 2.013669 1_555
Fe5 O5 2.090386 1_655
Fe5 O9 2.090386 1_545
O0 Ti0 1.947909 1_555
O1 Ti0 2.101264 1_555
O5 Ti0 1.947909 1_555
O6 Ti0 2.101264 1_555
O7 Ti0 2.101268 1_555
O8 Ti1 1.947909 1_554
O9 Ti0 1.947909 1_555
O10 Ti1 2.101268 1_555
O11 Ti1 2.101264 1_555
O13 Ti1 1.947909 1_554
O14 Ti1 2.101264 1_555
O15 Ti1 1.947909 1_554
