# generated using pymatgen
data_Li2VO2F
_symmetry_space_group_name_H-M   'P 1'
_cell_length_a   3.02510900
_cell_length_b   8.92976513
_cell_length_c   9.10220033
_cell_angle_alpha   109.58287020
_cell_angle_beta   90.23785288
_cell_angle_gamma   90.02878339
_symmetry_Int_Tables_number   1
_chemical_formula_structural   Li2VO2F
_chemical_formula_sum   'Li8 V4 O8 F4'
_cell_volume   231.65753783
_cell_formula_units_Z   4
loop_
 _symmetry_equiv_pos_site_id
 _symmetry_equiv_pos_as_xyz
  1  'x, y, z'
loop_
 _atom_site_type_symbol
 _atom_site_label
 _atom_site_symmetry_multiplicity
 _atom_site_fract_x
 _atom_site_fract_y
 _atom_site_fract_z
 _atom_site_occupancy
  Li  Li0  1  0.99965200  0.74368100  0.90198100  1
  Li  Li1  1  0.99967700  0.28191100  0.41934800  1
  Li  Li2  1  0.00211100  0.72517200  0.59035800  1
  Li  Li3  1  0.00024700  0.25444200  0.09580200  1
  Li  Li4  1  0.49911900  0.50227700  0.63257600  1
  Li  Li5  1  0.49974900  0.99758300  0.84415000  1
  Li  Li6  1  0.49721300  0.49758400  0.36708200  1
  Li  Li7  1  0.50009800  0.00071600  0.14416900  1
  V  V0  1  0.99621800  0.73687100  0.24458100  1
  V  V1  1  0.99245900  0.25418300  0.75059400  1
  V  V2  1  0.50605700  0.99954200  0.51902500  1
  V  V3  1  0.50830600  0.49926800  0.99735700  1
  O  O0  1  0.00093800  0.49359400  0.84521000  1
  O  O1  1  0.99423100  0.00426100  0.66266400  1
  O  O2  1  0.01483200  0.50327600  0.15256100  1
  O  O3  1  0.99780200  0.50343700  0.49953900  1
  O  O4  1  0.51532500  0.74667300  0.09173500  1
  O  O5  1  0.48908200  0.77053100  0.40020600  1
  O  O6  1  0.50017000  0.25485000  0.90605700  1
  O  O7  1  0.48591100  0.23458300  0.59022600  1
  F  F0  1  0.00074000  0.00010900  0.34154000  1
  F  F1  1  0.00076800  0.00007500  0.00200700  1
  F  F2  1  0.49894200  0.76200400  0.76059800  1
  F  F3  1  0.50043400  0.23337600  0.24063500  1
loop_
_geom_bond_atom_site_label_1
_geom_bond_atom_site_label_2
_geom_bond_distance
_geom_bond_site_symmetry_2
Li0 O0 2.116780 1_655
Li0 O4 2.262878 1_556
Li0 O4 2.316034 1_656
Li1 O3 1.864974 1_555
Li1 O7 2.276758 1_655
Li1 O7 2.339522 1_555
Li2 O3 1.872634 1_455
Li2 O1 2.354880 1_465
Li2 O5 2.412549 1_555
Li2 O5 2.452879 1_455
Li3 O2 2.106288 1_555
Li3 O6 2.292146 1_454
Li3 O6 2.301281 1_554
Li4 O3 1.938949 1_455
Li4 O3 1.940567 1_555
Li4 O7 2.290523 1_555
Li4 O0 2.476439 1_655
Li4 O0 2.479482 1_555
Li5 O6 2.174278 1_565
Li5 O1 2.248659 1_565
Li5 O1 2.261891 1_465
Li6 O3 1.921473 1_555
Li6 O3 1.926582 1_455
Li6 O5 2.353658 1_555
Li6 O2 2.446968 1_555
Li6 O2 2.521709 1_655
Li7 O4 2.156550 1_545
O0 V1 2.019516 1_455
O0 V3 2.027685 1_455
O0 V3 2.052175 1_555
O1 V2 1.959338 1_545
O1 V2 2.021983 1_645
O1 V1 2.103325 1_555
O2 V0 1.971096 1_455
O2 V3 2.051623 1_554
O2 V3 2.071957 1_454
O4 V0 2.030876 1_555
O4 V3 2.084914 1_554
O4 V0 2.123404 1_455
O5 V2 1.967544 1_555
O5 V0 2.004118 1_455
O5 V0 2.045382 1_555
O6 V1 2.057200 1_555
O6 V3 2.058847 1_555
O6 V1 2.082701 1_455
O7 V2 1.979287 1_545
O7 V1 2.058336 1_455
O7 V1 2.078316 1_555
F0 V2 2.207906 1_445
F0 V0 2.216721 1_445
F0 V2 2.220721 1_545
F0 Li7 2.346300 1_455
F0 Li7 2.353398 1_555
F0 Li1 2.374730 1_455
F1 Li7 1.983665 1_555
F1 Li7 1.994920 1_455
F1 Li5 2.079093 1_444
F1 Li5 2.083299 1_544
F1 Li3 2.142051 1_555
F1 Li0 2.161840 1_444
F2 Li5 1.982755 1_555
F2 Li0 2.025441 1_555
F2 Li0 2.030084 1_455
F2 Li2 2.099226 1_555
F2 Li2 2.122420 1_655
F2 Li4 2.219315 1_555
F3 Li7 1.965839 1_555
F3 Li3 2.052509 1_555
F3 Li3 2.059590 1_655
F3 Li1 2.149693 1_555
F3 Li1 2.162685 1_455
F3 Li6 2.251885 1_555
