# generated using pymatgen
data_V3OF7
_symmetry_space_group_name_H-M   'P 1'
_cell_length_a   7.97968384
_cell_length_b   9.95568300
_cell_length_c   4.01253296
_cell_angle_alpha   90.00000000
_cell_angle_beta   104.49929800
_cell_angle_gamma   90.00000000
_symmetry_Int_Tables_number   1
_chemical_formula_structural   V3OF7
_chemical_formula_sum   'V6 O2 F14'
_cell_volume   308.61591926
_cell_formula_units_Z   2
loop_
 _symmetry_equiv_pos_site_id
 _symmetry_equiv_pos_as_xyz
  1  'x, y, z'
loop_
 _atom_site_type_symbol
 _atom_site_label
 _atom_site_symmetry_multiplicity
 _atom_site_fract_x
 _atom_site_fract_y
 _atom_site_fract_z
 _atom_site_occupancy
  V  V0  1  0.07945800  0.25000000  0.52984900  1
  V  V1  1  0.35740900  0.57295100  0.66972600  1
  V  V2  1  0.35740900  0.92704900  0.66972600  1
  V  V3  1  0.64259400  0.07295100  0.31063000  1
  V  V4  1  0.64259400  0.42704900  0.31063000  1
  V  V5  1  0.92050000  0.75000000  0.44661600  1
  O  O0  1  0.41252800  0.75000000  0.69713800  1
  O  O1  1  0.58744300  0.25000000  0.28326900  1
  F  F0  1  0.07443600  0.25000000  0.02840300  1
  F  F1  1  0.10560300  0.61399400  0.55408500  1
  F  F2  1  0.10560300  0.88600600  0.55408500  1
  F  F3  1  0.26705300  0.11653500  0.62201600  1
  F  F4  1  0.26705300  0.38346500  0.62201600  1
  F  F5  1  0.39763700  0.96494700  0.18966400  1
  F  F6  1  0.39763700  0.53505300  0.18966400  1
  F  F7  1  0.60237400  0.03506400  0.79051800  1
  F  F8  1  0.60237400  0.46493600  0.79051800  1
  F  F9  1  0.73307500  0.61652600  0.35090900  1
  F  F10  1  0.73307500  0.88347400  0.35090900  1
  F  F11  1  0.89440200  0.11386100  0.44525100  1
  F  F12  1  0.89440200  0.38613900  0.44525100  1
  F  F13  1  0.92534300  0.75000000  0.95078300  1
loop_
_geom_bond_atom_site_label_1
_geom_bond_atom_site_label_2
_geom_bond_distance
_geom_bond_site_symmetry_2
O0 V1 1.813350 1_555
O0 V2 1.813350 1_555
O1 V4 1.813408 1_555
O1 V3 1.813408 1_555
F0 V0 2.002411 1_555
F0 V0 2.010872 1_554
F1 V5 1.970313 1_455
F1 V1 1.988171 1_555
F2 V5 1.970313 1_455
F2 V2 1.988171 1_555
F3 V0 1.966202 1_555
F3 V2 2.011500 1_545
F4 V0 1.966202 1_555
F4 V1 2.011500 1_555
F5 V2 2.064599 1_554
F5 V2 2.065314 1_555
F5 V3 2.176570 1_565
F6 V1 2.064599 1_554
F6 V1 2.065314 1_555
F6 V4 2.176570 1_555
F7 V3 2.064591 1_555
F7 V3 2.065264 1_556
F7 V2 2.176679 1_545
F8 V4 2.064591 1_555
F8 V4 2.065264 1_556
F8 V1 2.176679 1_555
F9 V5 1.965312 1_555
F9 V4 2.011813 1_555
F10 V5 1.965312 1_555
F10 V3 2.011813 1_565
F11 V0 1.970235 1_655
F11 V3 1.987876 1_555
F12 V0 1.970235 1_655
F12 V4 1.987876 1_555
F13 V5 1.999572 1_556
F13 V5 2.013659 1_555
