# generated using pymatgen
data_Tl2Au
_symmetry_space_group_name_H-M   'P 1'
_cell_length_a   6.07176800
_cell_length_b   6.07176800
_cell_length_c   6.07176800
_cell_angle_alpha   101.50601977
_cell_angle_beta   101.50601977
_cell_angle_gamma   126.94572489
_symmetry_Int_Tables_number   1
_chemical_formula_structural   Tl2Au
_chemical_formula_sum   'Tl4 Au2'
_cell_volume   160.06353138
_cell_formula_units_Z   2
loop_
 _symmetry_equiv_pos_site_id
 _symmetry_equiv_pos_as_xyz
  1  'x, y, z'
loop_
 _atom_site_type_symbol
 _atom_site_label
 _atom_site_symmetry_multiplicity
 _atom_site_fract_x
 _atom_site_fract_y
 _atom_site_fract_z
 _atom_site_occupancy
  Tl  Tl0  1  0.65084437  0.15084437  0.80168674  1
  Tl  Tl1  1  0.84915563  0.65084437  0.50000000  1
  Tl  Tl2  1  0.15084437  0.34915563  0.50000000  1
  Tl  Tl3  1  0.34915563  0.84915563  0.19831326  1
  Au  Au0  1  0.00000000  0.00000000  0.00000000  1
  Au  Au1  1  0.50000000  0.50000000  0.00000000  1
loop_
_geom_bond_atom_site_label_1
_geom_bond_atom_site_label_2
_geom_bond_distance
_geom_bond_site_symmetry_2
Tl0 Tl3 3.277857 1_545
Tl0 Tl3 3.463584 1_656
Tl0 Tl3 3.463601 1_546
Tl0 Tl1 3.567344 1_555
Tl0 Tl2 3.567344 1_655
Tl0 Tl2 3.567353 1_545
Tl0 Tl1 3.567353 1_445
Tl1 Tl2 3.277878 1_655
Tl1 Tl2 3.463579 1_665
Tl1 Tl2 3.463579 1_555
Tl1 Tl3 3.567344 1_655
Tl1 Tl3 3.567353 1_545
Tl2 Tl3 3.567344 1_555
Tl2 Tl3 3.567353 1_445
Au0 Au1 2.711783 1_555
Au0 Au1 2.711783 1_445
Au0 Tl2 2.922123 1_555
Au0 Tl1 2.922123 1_444
Au0 Tl3 2.922127 1_545
Au0 Tl0 2.922127 1_454
Au1 Tl1 2.922123 1_555
Au1 Tl2 2.922123 1_554
Au1 Tl0 2.922127 1_554
Au1 Tl3 2.922127 1_555
