# generated using pymatgen
data_Li2Fe(PO3)4
_symmetry_space_group_name_H-M   'P 1'
_cell_length_a   9.37551600
_cell_length_b   9.37551600
_cell_length_c   4.66945600
_cell_angle_alpha   90.00000000
_cell_angle_beta   90.00000000
_cell_angle_gamma   90.00000000
_symmetry_Int_Tables_number   1
_chemical_formula_structural   Li2Fe(PO3)4
_chemical_formula_sum   'Li4 Fe2 P8 O24'
_cell_volume   410.44658448
_cell_formula_units_Z   2
loop_
 _symmetry_equiv_pos_site_id
 _symmetry_equiv_pos_as_xyz
  1  'x, y, z'
loop_
 _atom_site_type_symbol
 _atom_site_label
 _atom_site_symmetry_multiplicity
 _atom_site_fract_x
 _atom_site_fract_y
 _atom_site_fract_z
 _atom_site_occupancy
  Li  Li0  1  0.25000000  0.25000000  0.50000000  1
  Li  Li1  1  0.75000000  0.25000000  0.50000000  1
  Li  Li2  1  0.75000000  0.75000000  0.50000000  1
  Li  Li3  1  0.25000000  0.75000000  0.50000000  1
  Fe  Fe0  1  0.50000000  0.50000000  0.50000000  1
  Fe  Fe1  1  0.00000000  0.00000000  0.50000000  1
  P  P0  1  0.00000000  0.27587400  0.00000000  1
  P  P1  1  0.77587400  0.50000000  0.00000000  1
  P  P2  1  0.22412600  0.50000000  0.00000000  1
  P  P3  1  0.00000000  0.72412600  0.00000000  1
  P  P4  1  0.50000000  0.77587400  0.00000000  1
  P  P5  1  0.27587400  0.00000000  0.00000000  1
  P  P6  1  0.72412600  0.00000000  0.00000000  1
  P  P7  1  0.50000000  0.22412600  0.00000000  1
  O  O0  1  0.57006000  0.29974000  0.24563500  1
  O  O1  1  0.42994000  0.29974000  0.75436500  1
  O  O2  1  0.11548800  0.38451200  0.85505000  1
  O  O3  1  0.88451200  0.38451200  0.14495000  1
  O  O4  1  0.29974000  0.42994000  0.24563500  1
  O  O5  1  0.70026000  0.42994000  0.75436500  1
  O  O6  1  0.70026000  0.57006000  0.24563500  1
  O  O7  1  0.29974000  0.57006000  0.75436500  1
  O  O8  1  0.11548800  0.61548800  0.14495000  1
  O  O9  1  0.88451200  0.61548800  0.85505000  1
  O  O10  1  0.42994000  0.70026000  0.24563500  1
  O  O11  1  0.57006000  0.70026000  0.75436500  1
  O  O12  1  0.92994000  0.79974000  0.24563500  1
  O  O13  1  0.07006000  0.79974000  0.75436500  1
  O  O14  1  0.38451200  0.88451200  0.85505000  1
  O  O15  1  0.61548800  0.88451200  0.14495000  1
  O  O16  1  0.20026000  0.92994000  0.24563500  1
  O  O17  1  0.79974000  0.92994000  0.75436500  1
  O  O18  1  0.79974000  0.07006000  0.24563500  1
  O  O19  1  0.20026000  0.07006000  0.75436500  1
  O  O20  1  0.38451200  0.11548800  0.14495000  1
  O  O21  1  0.61548800  0.11548800  0.85505000  1
  O  O22  1  0.92994000  0.20026000  0.75436500  1
  O  O23  1  0.07006000  0.20026000  0.24563500  1
loop_
_geom_bond_atom_site_label_1
_geom_bond_atom_site_label_2
_geom_bond_distance
_geom_bond_site_symmetry_2
Li0 O19 2.115250 1_555
Li0 O23 2.115250 1_555
Li0 O1 2.115250 1_555
Li0 O4 2.115250 1_555
Li0 O20 2.435045 1_555
Li0 O2 2.435045 1_555
Li1 O5 2.115250 1_555
Li1 O0 2.115250 1_555
Li1 O18 2.115250 1_555
Li1 O22 2.115250 1_555
Li1 O3 2.435045 1_555
Li1 O21 2.435045 1_555
Li2 O11 2.115250 1_555
Li2 O6 2.115250 1_555
Li2 O17 2.115250 1_555
Li2 O12 2.115250 1_555
Li2 O9 2.435045 1_555
Li2 O15 2.435045 1_555
Li3 O7 2.115250 1_555
Li3 O13 2.115250 1_555
Li3 O10 2.115250 1_555
Li3 O16 2.115250 1_555
Li3 O14 2.435045 1_555
Li3 O8 2.435045 1_555
Fe0 O1 2.316754 1_555
Fe0 O7 2.316754 1_555
Fe0 O4 2.316754 1_555
Fe0 O0 2.316754 1_555
Fe0 O5 2.316754 1_555
Fe0 O6 2.316754 1_555
Fe0 O10 2.316754 1_555
Fe0 O11 2.316754 1_555
Fe1 O18 2.316754 1_455
Fe1 O17 2.316754 1_445
Fe1 O13 2.316754 1_545
Fe1 O12 2.316754 1_445
Fe1 O16 2.316754 1_545
Fe1 O22 2.316754 1_455
Fe1 O19 2.316754 1_555
Fe1 O23 2.316754 1_555
O0 P7 1.499862 1_555
O1 P7 1.499862 1_556
O2 P0 1.633369 1_556
O2 P2 1.633369 1_556
O3 P0 1.633369 1_655
O3 P1 1.633369 1_555
O4 P2 1.499862 1_555
O5 P1 1.499862 1_556
O6 P1 1.499862 1_555
O7 P2 1.499862 1_556
O8 P2 1.633369 1_555
O8 P3 1.633369 1_555
O9 P1 1.633369 1_556
O9 P3 1.633369 1_656
O10 P4 1.499862 1_555
O11 P4 1.499862 1_556
O12 P3 1.499862 1_655
O13 P3 1.499862 1_556
O14 P5 1.633369 1_566
O14 P4 1.633369 1_556
O15 P4 1.633369 1_555
O15 P6 1.633369 1_565
O16 P5 1.499862 1_565
O17 P6 1.499862 1_566
O18 P6 1.499862 1_555
O19 P5 1.499862 1_556
O20 P5 1.633369 1_555
O20 P7 1.633369 1_555
O21 P7 1.633369 1_556
O21 P6 1.633369 1_556
O22 P0 1.499862 1_656
O23 P0 1.499862 1_555
