# generated using pymatgen
data_Na6Sn2C4SO16
_symmetry_space_group_name_H-M   'P 1'
_cell_length_a   10.32383820
_cell_length_b   10.32383820
_cell_length_c   10.32383820
_cell_angle_alpha   60.00000000
_cell_angle_beta   60.00000000
_cell_angle_gamma   60.00000000
_symmetry_Int_Tables_number   1
_chemical_formula_structural   Na6Sn2C4SO16
_chemical_formula_sum   'Na12 Sn4 C8 S2 O32'
_cell_volume   778.05190558
_cell_formula_units_Z   2
loop_
 _symmetry_equiv_pos_site_id
 _symmetry_equiv_pos_as_xyz
  1  'x, y, z'
loop_
 _atom_site_type_symbol
 _atom_site_label
 _atom_site_symmetry_multiplicity
 _atom_site_fract_x
 _atom_site_fract_y
 _atom_site_fract_z
 _atom_site_occupancy
  Na  Na0  1  0.45749300  0.45749300  0.04250700  1
  Na  Na1  1  0.20749300  0.79250700  0.79250700  1
  Na  Na2  1  0.45749300  0.04250700  0.45749300  1
  Na  Na3  1  0.04250700  0.45749300  0.04250700  1
  Na  Na4  1  0.20749300  0.20749300  0.79250700  1
  Na  Na5  1  0.79250700  0.20749300  0.20749300  1
  Na  Na6  1  0.45749300  0.04250700  0.04250700  1
  Na  Na7  1  0.04250700  0.04250700  0.45749300  1
  Na  Na8  1  0.79250700  0.20749300  0.79250700  1
  Na  Na9  1  0.20749300  0.79250700  0.20749300  1
  Na  Na10  1  0.04250700  0.45749300  0.45749300  1
  Na  Na11  1  0.79250700  0.79250700  0.20749300  1
  Sn  Sn0  1  0.62500000  0.12500000  0.62500000  1
  Sn  Sn1  1  0.62500000  0.62500000  0.12500000  1
  Sn  Sn2  1  0.62500000  0.62500000  0.62500000  1
  Sn  Sn3  1  0.12500000  0.62500000  0.62500000  1
  C  C0  1  0.85388900  0.43833400  0.85388900  1
  C  C1  1  0.85388900  0.85388900  0.43833400  1
  C  C2  1  0.43833400  0.85388900  0.85388900  1
  C  C3  1  0.85388900  0.85388900  0.85388900  1
  C  C4  1  0.39611100  0.39611100  0.39611100  1
  C  C5  1  0.39611100  0.39611100  0.81166600  1
  C  C6  1  0.81166600  0.39611100  0.39611100  1
  C  C7  1  0.39611100  0.81166600  0.39611100  1
  S  S0  1  0.25000000  0.25000000  0.25000000  1
  S  S1  1  0.00000000  0.00000000  0.00000000  1
  O  O0  1  0.39686700  0.52182000  0.81188000  1
  O  O1  1  0.26943200  0.81188000  0.52182000  1
  O  O2  1  0.72818000  0.43812000  0.85313300  1
  O  O3  1  0.85313300  0.43812000  0.98056800  1
  O  O4  1  0.19080200  0.19080200  0.19080200  1
  O  O5  1  0.43812000  0.85313300  0.72818000  1
  O  O6  1  0.43812000  0.72818000  0.98056800  1
  O  O7  1  0.19080200  0.19080200  0.42759300  1
  O  O8  1  0.42759300  0.19080200  0.19080200  1
  O  O9  1  0.98056800  0.85313300  0.43812000  1
  O  O10  1  0.72818000  0.98056800  0.43812000  1
  O  O11  1  0.19080200  0.42759300  0.19080200  1
  O  O12  1  0.98056800  0.72818000  0.85313300  1
  O  O13  1  0.43812000  0.98056800  0.85313300  1
  O  O14  1  0.72818000  0.85313300  0.98056800  1
  O  O15  1  0.39686700  0.26943200  0.52182000  1
  O  O16  1  0.85313300  0.98056800  0.72818000  1
  O  O17  1  0.52182000  0.39686700  0.26943200  1
  O  O18  1  0.81188000  0.26943200  0.39686700  1
  O  O19  1  0.26943200  0.52182000  0.39686700  1
  O  O20  1  0.05919800  0.82240700  0.05919800  1
  O  O21  1  0.52182000  0.26943200  0.81188000  1
  O  O22  1  0.26943200  0.39686700  0.81188000  1
  O  O23  1  0.82240700  0.05919800  0.05919800  1
  O  O24  1  0.05919800  0.05919800  0.82240700  1
  O  O25  1  0.81188000  0.52182000  0.26943200  1
  O  O26  1  0.81188000  0.39686700  0.52182000  1
  O  O27  1  0.05919800  0.05919800  0.05919800  1
  O  O28  1  0.39686700  0.81188000  0.26943200  1
  O  O29  1  0.52182000  0.81188000  0.39686700  1
  O  O30  1  0.98056800  0.43812000  0.72818000  1
  O  O31  1  0.85313300  0.72818000  0.43812000  1
loop_
_geom_bond_atom_site_label_1
_geom_bond_atom_site_label_2
_geom_bond_distance
_geom_bond_site_symmetry_2
Na0 O17 2.448478 1_555
Na0 O0 2.448488 1_554
Na0 O2 2.457701 1_554
Na0 O6 2.457703 1_554
Na0 O11 2.486322 1_555
Na0 O8 2.486322 1_555
Na1 O12 2.448478 1_455
Na1 O5 2.448488 1_555
Na1 O0 2.457701 1_555
Na1 O1 2.457703 1_555
Na1 O24 2.486322 1_565
Na1 O20 2.486322 1_556
Na2 O15 2.448478 1_555
Na2 O29 2.448488 1_545
Na2 O5 2.457701 1_545
Na2 O10 2.457703 1_545
Na2 O8 2.486322 1_555
Na2 O7 2.486322 1_555
Na3 O25 2.448482 1_455
Na3 O22 2.448485 1_554
Na3 O3 2.457693 1_454
Na3 O12 2.457700 1_454
Na3 O11 2.486314 1_555
Na3 O4 2.486319 1_555
Na4 O30 2.448482 1_455
Na4 O13 2.448485 1_545
Na4 O22 2.457693 1_555
Na4 O15 2.457700 1_555
Na4 O24 2.486314 1_555
Na4 O27 2.486319 1_556
Na5 O10 2.448482 1_545
Na5 O3 2.448485 1_554
Na5 O18 2.457693 1_555
Na5 O17 2.457700 1_555
Na5 O23 2.486314 1_555
Na5 O27 2.486319 1_655
Na6 O21 2.448482 1_554
Na6 O28 2.448485 1_545
Na6 O13 2.457693 1_544
Na6 O14 2.457700 1_544
Na6 O8 2.486314 1_555
Na6 O4 2.486319 1_555
Na7 O1 2.448482 1_545
Na7 O18 2.448485 1_455
Na7 O9 2.457693 1_445
Na7 O16 2.457700 1_445
Na7 O7 2.486314 1_555
Na7 O4 2.486319 1_555
Na8 O16 2.448478 1_545
Na8 O2 2.448488 1_555
Na8 O26 2.457701 1_555
Na8 O21 2.457703 1_555
Na8 O23 2.486322 1_556
Na8 O24 2.486322 1_655
Na9 O6 2.448482 1_554
Na9 O9 2.448485 1_455
Na9 O28 2.457693 1_555
Na9 O19 2.457700 1_555
Na9 O20 2.486314 1_555
Na9 O27 2.486319 1_565
Na10 O19 2.448478 1_555
Na10 O26 2.448488 1_455
Na10 O31 2.457701 1_455
Na10 O30 2.457703 1_455
Na10 O11 2.486322 1_555
Na10 O7 2.486322 1_555
Na11 O14 2.448478 1_554
Na11 O31 2.448488 1_555
Na11 O29 2.457701 1_555
Na11 O25 2.457703 1_555
Na11 O23 2.486322 1_565
Na11 O20 2.486322 1_655
C0 O2 1.302829 1_555
C0 O30 1.302829 1_555
C0 O3 1.302829 1_555
C1 O31 1.302829 1_555
C1 O10 1.302829 1_555
C1 O9 1.302829 1_555
C2 O5 1.302829 1_555
C2 O6 1.302829 1_555
C2 O13 1.302829 1_555
C3 O12 1.302829 1_555
C3 O16 1.302829 1_555
C3 O14 1.302829 1_555
C4 O17 1.302829 1_555
C4 O15 1.302829 1_555
C4 O19 1.302829 1_555
C5 O22 1.302829 1_555
C5 O21 1.302829 1_555
C5 O0 1.302829 1_555
C6 O18 1.302829 1_555
C6 O25 1.302829 1_555
C6 O26 1.302829 1_555
C7 O28 1.302829 1_555
C7 O1 1.302829 1_555
C7 O29 1.302829 1_555
O0 Sn2 2.512702 1_555
O1 Sn3 2.512694 1_555
O2 Sn2 2.512702 1_555
O3 Sn1 2.512697 1_556
O4 S0 1.497007 1_555
O5 Sn2 2.512702 1_555
O6 Sn1 2.512694 1_556
O7 S0 1.496999 1_555
O8 S0 1.496999 1_555
O9 Sn3 2.512697 1_655
O10 Sn0 2.512694 1_565
O11 S0 1.496999 1_555
O12 Sn3 2.512703 1_655
O13 Sn0 2.512697 1_565
O14 Sn1 2.512703 1_556
O15 Sn0 2.512703 1_555
O16 Sn0 2.512703 1_565
O17 Sn1 2.512703 1_555
O18 Sn0 2.512697 1_555
O19 Sn3 2.512703 1_555
O20 S1 1.496999 1_565
O21 Sn0 2.512694 1_555
O22 Sn3 2.512697 1_555
O23 S1 1.496999 1_655
O24 S1 1.496999 1_556
O25 Sn1 2.512694 1_555
O26 Sn2 2.512702 1_555
O27 S1 1.497007 1_555
O28 Sn1 2.512697 1_555
O29 Sn2 2.512702 1_555
O30 Sn3 2.512694 1_655
O31 Sn2 2.512702 1_555
