# generated using pymatgen
data_LiAgF4
_symmetry_space_group_name_H-M   'P 1'
_cell_length_a   5.21605500
_cell_length_b   7.79004400
_cell_length_c   7.81345876
_cell_angle_alpha   77.40614046
_cell_angle_beta   90.00000000
_cell_angle_gamma   90.00000000
_symmetry_Int_Tables_number   1
_chemical_formula_structural   LiAgF4
_chemical_formula_sum   'Li4 Ag4 F16'
_cell_volume   309.84791330
_cell_formula_units_Z   4
loop_
 _symmetry_equiv_pos_site_id
 _symmetry_equiv_pos_as_xyz
  1  'x, y, z'
loop_
 _atom_site_type_symbol
 _atom_site_label
 _atom_site_symmetry_multiplicity
 _atom_site_fract_x
 _atom_site_fract_y
 _atom_site_fract_z
 _atom_site_occupancy
  Li  Li0  1  0.25489400  0.67059800  0.64467100  1
  Li  Li1  1  0.24510600  0.17059800  0.64467100  1
  Li  Li2  1  0.75489400  0.82940200  0.35532900  1
  Li  Li3  1  0.74510600  0.32940200  0.35532900  1
  Ag  Ag0  1  0.75480900  0.82428100  0.81138700  1
  Ag  Ag1  1  0.74519100  0.32428100  0.81138700  1
  Ag  Ag2  1  0.25480900  0.67571900  0.18861300  1
  Ag  Ag3  1  0.24519100  0.17571900  0.18861300  1
  F  F0  1  0.44125800  0.69964100  0.94395300  1
  F  F1  1  0.05874200  0.19964100  0.94395300  1
  F  F2  1  0.92165800  0.57446300  0.80406900  1
  F  F3  1  0.08782000  0.92508100  0.69014800  1
  F  F4  1  0.57834200  0.07446300  0.80406900  1
  F  F5  1  0.41218000  0.42508100  0.69014800  1
  F  F6  1  0.57340600  0.80629100  0.57800700  1
  F  F7  1  0.92659400  0.30629100  0.57800700  1
  F  F8  1  0.07340600  0.69370900  0.42199300  1
  F  F9  1  0.42659400  0.19370900  0.42199300  1
  F  F10  1  0.58782000  0.57491900  0.30985200  1
  F  F11  1  0.42165800  0.92553700  0.19593100  1
  F  F12  1  0.91218000  0.07491900  0.30985200  1
  F  F13  1  0.07834200  0.42553700  0.19593100  1
  F  F14  1  0.94125800  0.80035900  0.05604700  1
  F  F15  1  0.55874200  0.30035900  0.05604700  1
loop_
_geom_bond_atom_site_label_1
_geom_bond_atom_site_label_2
_geom_bond_distance
_geom_bond_site_symmetry_2
Ag0 F3 2.051041 1_655
Ag0 F0 2.062017 1_555
Ag0 F6 2.086039 1_555
Ag0 F14 2.116497 1_556
Ag0 F2 2.143941 1_555
Ag0 F4 2.144819 1_565
Ag1 F5 2.051041 1_555
Ag1 F1 2.062017 1_655
Ag1 F7 2.086039 1_555
Ag1 F15 2.116497 1_556
Ag1 F4 2.143941 1_555
Ag1 F2 2.144819 1_555
Ag2 F10 2.051041 1_555
Ag2 F14 2.062017 1_455
Ag2 F8 2.086039 1_555
Ag2 F0 2.116497 1_554
Ag2 F11 2.143941 1_555
Ag2 F13 2.144819 1_555
Ag3 F12 2.051041 1_455
Ag3 F15 2.062017 1_555
Ag3 F9 2.086039 1_555
Ag3 F1 2.116497 1_554
Ag3 F13 2.143941 1_555
Ag3 F11 2.144819 1_545
F2 Li0 2.174055 1_655
F3 Li1 2.039846 1_565
F3 Li0 2.263392 1_555
F4 Li1 2.174055 1_555
F5 Li0 2.039846 1_555
F5 Li1 2.263392 1_555
F6 Li2 1.954268 1_555
F6 Li0 1.977055 1_555
F7 Li3 1.954268 1_555
F7 Li1 1.977055 1_655
F8 Li0 1.954268 1_555
F8 Li2 1.977055 1_455
F9 Li1 1.954268 1_555
F9 Li3 1.977055 1_555
F10 Li3 2.039846 1_555
F10 Li2 2.263392 1_555
F11 Li2 2.174055 1_555
F12 Li2 2.039846 1_545
F12 Li3 2.263392 1_555
F13 Li3 2.174055 1_455
