# generated using pymatgen
data_Fe5SiO8
_symmetry_space_group_name_H-M   'P 1'
_cell_length_a   8.51411100
_cell_length_b   5.98806000
_cell_length_c   12.08113008
_cell_angle_alpha   89.78497072
_cell_angle_beta   90.00000000
_cell_angle_gamma   90.00000000
_symmetry_Int_Tables_number   1
_chemical_formula_structural   Fe5SiO8
_chemical_formula_sum   'Fe20 Si4 O32'
_cell_volume   615.92800802
_cell_formula_units_Z   4
loop_
 _symmetry_equiv_pos_site_id
 _symmetry_equiv_pos_as_xyz
  1  'x, y, z'
loop_
 _atom_site_type_symbol
 _atom_site_label
 _atom_site_symmetry_multiplicity
 _atom_site_fract_x
 _atom_site_fract_y
 _atom_site_fract_z
 _atom_site_occupancy
  Fe  Fe0  1  0.24840500  0.24725200  0.75283600  1
  Fe  Fe1  1  0.75159500  0.75274800  0.24716400  1
  Fe  Fe2  1  0.37044300  0.75031700  0.37418500  1
  Fe  Fe3  1  0.50417000  0.50699100  0.12410500  1
  Fe  Fe4  1  0.87044300  0.24968300  0.12581500  1
  Fe  Fe5  1  0.25159500  0.24725200  0.25283600  1
  Fe  Fe6  1  0.28073900  0.24947000  0.50108100  1
  Fe  Fe7  1  0.00111800  0.99782100  0.62435900  1
  Fe  Fe8  1  0.50111800  0.00217900  0.87564100  1
  Fe  Fe9  1  0.49888200  0.99782100  0.12435900  1
  Fe  Fe10  1  0.71926100  0.75053000  0.49891900  1
  Fe  Fe11  1  0.74840500  0.75274800  0.74716400  1
  Fe  Fe12  1  0.78073900  0.75053000  0.99891900  1
  Fe  Fe13  1  0.00417000  0.49300900  0.37589500  1
  Fe  Fe14  1  0.99583000  0.50699100  0.62410500  1
  Fe  Fe15  1  0.49583000  0.49300900  0.87589500  1
  Fe  Fe16  1  0.21926100  0.24947000  0.00108100  1
  Fe  Fe17  1  0.62955700  0.24968300  0.62581500  1
  Fe  Fe18  1  0.99888200  0.00217900  0.37564100  1
  Fe  Fe19  1  0.12955700  0.75031700  0.87418500  1
  Si  Si0  1  0.36541100  0.74631300  0.63462300  1
  Si  Si1  1  0.86541100  0.25368700  0.86537700  1
  Si  Si2  1  0.63458900  0.25368700  0.36537700  1
  Si  Si3  1  0.13458900  0.74631300  0.13462300  1
  O  O0  1  0.50057500  0.73945300  0.24466500  1
  O  O1  1  0.47104300  0.74576700  0.51919700  1
  O  O2  1  0.24901900  0.51726900  0.13030000  1
  O  O3  1  0.73999700  0.50633400  0.12375500  1
  O  O4  1  0.98531200  0.26036700  0.75563500  1
  O  O5  1  0.47817200  0.27055500  0.00750300  1
  O  O6  1  0.97104300  0.25423300  0.98080300  1
  O  O7  1  0.51468800  0.26036700  0.25563500  1
  O  O8  1  0.75582300  0.99174400  0.62142300  1
  O  O9  1  0.25672400  0.97885300  0.63155400  1
  O  O10  1  0.75672400  0.02114700  0.86844600  1
  O  O11  1  0.25582300  0.00825600  0.87857700  1
  O  O12  1  0.74417700  0.99174400  0.12142300  1
  O  O13  1  0.24327600  0.97885300  0.13155400  1
  O  O14  1  0.97817200  0.72944500  0.49249700  1
  O  O15  1  0.48531200  0.73963300  0.74436500  1
  O  O16  1  0.99942500  0.73945300  0.74466500  1
  O  O17  1  0.52182800  0.72944500  0.99249700  1
  O  O18  1  0.23999700  0.49366600  0.37624500  1
  O  O19  1  0.74901900  0.48273100  0.36970000  1
  O  O20  1  0.25098100  0.51726900  0.63030000  1
  O  O21  1  0.76000300  0.50633400  0.62375500  1
  O  O22  1  0.26000300  0.49366600  0.87624500  1
  O  O23  1  0.75098100  0.48273100  0.86970000  1
  O  O24  1  0.00057500  0.26054700  0.25533500  1
  O  O25  1  0.52895700  0.25423300  0.48080300  1
  O  O26  1  0.02182800  0.27055500  0.50750300  1
  O  O27  1  0.49942500  0.26054700  0.75533500  1
  O  O28  1  0.74327600  0.02114700  0.36844600  1
  O  O29  1  0.24417700  0.00825600  0.37857700  1
  O  O30  1  0.02895700  0.74576700  0.01919700  1
  O  O31  1  0.01468800  0.73963300  0.24436500  1
loop_
_geom_bond_atom_site_label_1
_geom_bond_atom_site_label_2
_geom_bond_distance
_geom_bond_site_symmetry_2
Fe0 O11 2.084089 1_555
Fe0 O22 2.103884 1_555
Fe0 O27 2.138912 1_555
Fe0 O9 2.180053 1_545
Fe0 O20 2.188222 1_555
Fe0 O4 2.241639 1_455
Fe1 O12 2.084089 1_555
Fe1 O3 2.103884 1_555
Fe1 O0 2.138912 1_555
Fe1 O28 2.180053 1_565
Fe1 O19 2.188222 1_555
Fe1 O31 2.241639 1_655
Fe2 O29 1.882763 1_565
Fe2 O18 1.896238 1_555
Fe2 O0 1.918594 1_555
Fe2 O1 1.950178 1_555
Fe3 O3 2.007866 1_555
Fe3 O5 2.013163 1_555
Fe3 O0 2.018713 1_555
Fe3 O17 2.075843 1_554
Fe3 O7 2.167109 1_555
Fe3 O2 2.174552 1_555
Fe4 O12 1.882763 1_545
Fe4 O3 1.896238 1_555
Fe4 O24 1.918594 1_655
Fe4 O6 1.950178 1_554
Fe5 O29 2.084089 1_555
Fe5 O18 2.103884 1_555
Fe5 O24 2.138912 1_555
Fe5 O13 2.180053 1_545
Fe5 O2 2.188222 1_555
Fe5 O7 2.241639 1_555
Fe6 O29 2.095140 1_555
Fe6 O18 2.125212 1_555
Fe6 O25 2.127686 1_555
Fe6 O26 2.209389 1_555
Fe6 O20 2.256452 1_555
Fe6 O9 2.265648 1_545
Fe7 O8 2.089089 1_455
Fe7 O16 2.118817 1_455
Fe7 O26 2.161944 1_565
Fe7 O9 2.180936 1_555
Fe7 O4 2.241368 1_465
Fe7 O14 2.275474 1_455
Fe8 O11 2.089089 1_555
Fe8 O27 2.118817 1_555
Fe8 O17 2.161944 1_545
Fe8 O10 2.180936 1_555
Fe8 O15 2.241368 1_545
Fe8 O5 2.275474 1_556
Fe9 O12 2.089089 1_555
Fe9 O0 2.118817 1_555
Fe9 O5 2.161944 1_565
Fe9 O13 2.180936 1_555
Fe9 O7 2.241368 1_565
Fe9 O17 2.275474 1_554
Fe10 O8 2.095140 1_555
Fe10 O21 2.125212 1_555
Fe10 O1 2.127686 1_555
Fe10 O14 2.209389 1_555
Fe10 O19 2.256452 1_555
Fe10 O28 2.265648 1_565
Fe11 O8 2.084089 1_555
Fe11 O21 2.103884 1_555
Fe11 O16 2.138912 1_555
Fe11 O10 2.180053 1_565
Fe11 O23 2.188222 1_555
Fe11 O15 2.241639 1_555
Fe12 O12 2.095140 1_556
Fe12 O3 2.125212 1_556
Fe12 O30 2.127686 1_656
Fe12 O17 2.209389 1_555
Fe12 O23 2.256452 1_555
Fe12 O10 2.265648 1_565
Fe13 O18 2.007866 1_555
Fe13 O14 2.013163 1_455
Fe13 O24 2.018713 1_555
Fe13 O26 2.075843 1_555
Fe13 O31 2.167109 1_555
Fe13 O19 2.174552 1_455
Fe14 O21 2.007866 1_555
Fe14 O26 2.013163 1_655
Fe14 O16 2.018713 1_555
Fe14 O14 2.075843 1_555
Fe14 O4 2.167109 1_555
Fe14 O20 2.174552 1_655
Fe15 O22 2.007866 1_555
Fe15 O17 2.013163 1_555
Fe15 O27 2.018713 1_555
Fe15 O5 2.075843 1_556
Fe15 O15 2.167109 1_555
Fe15 O23 2.174552 1_555
Fe16 O11 2.095140 1_554
Fe16 O22 2.125212 1_554
Fe16 O6 2.127686 1_454
Fe16 O5 2.209389 1_555
Fe16 O2 2.256452 1_555
Fe16 O13 2.265648 1_545
Fe17 O8 1.882763 1_545
Fe17 O21 1.896238 1_555
Fe17 O27 1.918594 1_555
Fe17 O25 1.950178 1_555
Fe18 O29 2.089089 1_655
Fe18 O24 2.118817 1_655
Fe18 O14 2.161944 1_545
Fe18 O28 2.180936 1_555
Fe18 O31 2.241368 1_645
Fe18 O26 2.275474 1_655
Fe19 O11 1.882763 1_565
Fe19 O22 1.896238 1_555
Fe19 O16 1.918594 1_455
Fe19 O30 1.950178 1_556
O1 Si0 1.659356 1_555
O2 Si3 1.683318 1_555
O4 Si1 1.673650 1_555
O6 Si1 1.659356 1_555
O7 Si2 1.673650 1_555
O9 Si0 1.672201 1_555
O10 Si1 1.672201 1_555
O13 Si3 1.672201 1_555
O15 Si0 1.673650 1_555
O19 Si2 1.683318 1_555
O20 Si0 1.683318 1_555
O23 Si1 1.683318 1_555
O25 Si2 1.659356 1_555
O28 Si2 1.672201 1_555
O30 Si3 1.659356 1_555
O31 Si3 1.673650 1_555
