# generated using pymatgen
data_Li9Cr5O12
_symmetry_space_group_name_H-M   'P 1'
_cell_length_a   5.24136960
_cell_length_b   5.24138163
_cell_length_c   10.05454690
_cell_angle_alpha   93.04242280
_cell_angle_beta   86.95868716
_cell_angle_gamma   59.34199360
_symmetry_Int_Tables_number   1
_chemical_formula_structural   Li9Cr5O12
_chemical_formula_sum   'Li9 Cr5 O12'
_cell_volume   236.24135017
_cell_formula_units_Z   1
loop_
 _symmetry_equiv_pos_site_id
 _symmetry_equiv_pos_as_xyz
  1  'x, y, z'
loop_
 _atom_site_type_symbol
 _atom_site_label
 _atom_site_symmetry_multiplicity
 _atom_site_fract_x
 _atom_site_fract_y
 _atom_site_fract_z
 _atom_site_occupancy
  Li  Li0  1  0.80173400  0.19828700  0.25525100  1
  Li  Li1  1  0.73963200  0.26033100  0.80526400  1
  Li  Li2  1  0.35262800  0.19194800  0.75229500  1
  Li  Li3  1  0.80793000  0.64736000  0.75222600  1
  Li  Li4  1  0.00002600  0.99993100  0.99995500  1
  Li  Li5  1  0.19205900  0.35255900  0.24776700  1
  Li  Li6  1  0.64745000  0.80776900  0.24777700  1
  Li  Li7  1  0.26039000  0.73958100  0.19476700  1
  Li  Li8  1  0.19859400  0.80140000  0.74465200  1
  Cr  Cr0  1  0.16525300  0.16538900  0.49999900  1
  Cr  Cr1  1  0.49999500  0.49978600  0.49996100  1
  Cr  Cr2  1  0.83464900  0.83498800  0.50000400  1
  Cr  Cr3  1  0.33215900  0.33223100  0.00011000  1
  Cr  Cr4  1  0.66770100  0.66788000  0.00006700  1
  O  O0  1  0.81453600  0.18559100  0.60599400  1
  O  O1  1  0.32771900  0.02134000  0.11911400  1
  O  O2  1  0.97861600  0.67222400  0.11911600  1
  O  O3  1  0.85428200  0.47717200  0.39204100  1
  O  O4  1  0.52294400  0.14581700  0.39205700  1
  O  O5  1  0.60812500  0.39185600  0.11501400  1
  O  O6  1  0.39175900  0.60817200  0.88500600  1
  O  O7  1  0.47708600  0.85434100  0.60788800  1
  O  O8  1  0.14579100  0.52297100  0.60788100  1
  O  O9  1  0.02131200  0.32778700  0.88092700  1
  O  O10  1  0.67215300  0.97863600  0.88091000  1
  O  O11  1  0.18545800  0.81465800  0.39391800  1
loop_
_geom_bond_atom_site_label_1
_geom_bond_atom_site_label_2
_geom_bond_distance
_geom_bond_site_symmetry_2
Li0 O5 1.816863 1_555
Li0 O4 2.083177 1_555
Li0 O3 2.083635 1_555
Li1 O9 1.872554 1_655
Li1 O10 1.872636 1_545
Li1 O6 1.894961 1_555
Li1 O0 1.999564 1_555
Li2 O9 1.896910 1_555
Li2 O7 2.028418 1_545
Li2 O10 2.049587 1_545
Li2 O8 2.193206 1_555
Li3 O10 1.897118 1_555
Li3 O8 2.028975 1_655
Li3 O9 2.050407 1_655
Li3 O7 2.192195 1_555
Li4 O9 2.190281 1_565
Li4 O10 2.190453 1_455
Li4 O1 2.190585 1_566
Li4 O2 2.190683 1_456
Li4 O6 2.228109 1_555
Li4 O5 2.229317 1_466
Li5 O1 1.896800 1_555
Li5 O3 2.028025 1_455
Li5 O2 2.050381 1_455
Li5 O4 2.191807 1_555
Li6 O2 1.896746 1_555
Li6 O4 2.029095 1_565
Li6 O1 2.050765 1_565
Li6 O3 2.190820 1_555
Li7 O1 1.872523 1_565
Li7 O2 1.872652 1_455
Li7 O5 1.894399 1_555
Li7 O11 1.998473 1_555
Li8 O6 1.816551 1_555
Li8 O8 2.082463 1_555
Li8 O7 2.083061 1_555
Cr0 O0 2.026759 1_455
Cr0 O11 2.027211 1_545
Cr0 O7 2.040697 1_545
Cr0 O3 2.040845 1_455
Cr0 O8 2.068136 1_555
Cr0 O4 2.068669 1_555
Cr1 O0 2.042213 1_555
Cr1 O11 2.043766 1_555
Cr1 O4 2.044143 1_555
Cr1 O8 2.044747 1_555
Cr1 O3 2.046410 1_555
Cr1 O7 2.046954 1_555
Cr2 O0 2.026416 1_565
Cr2 O11 2.027310 1_655
Cr2 O4 2.040293 1_565
Cr2 O8 2.041235 1_655
Cr2 O7 2.068326 1_555
Cr2 O3 2.069173 1_555
Cr3 O5 2.030908 1_555
Cr3 O6 2.031962 1_554
Cr3 O2 2.052288 1_455
Cr3 O10 2.053361 1_544
Cr3 O1 2.080908 1_555
Cr3 O9 2.081815 1_554
Cr4 O5 2.031313 1_555
Cr4 O6 2.031961 1_554
Cr4 O1 2.052280 1_565
Cr4 O9 2.053297 1_654
Cr4 O2 2.081077 1_555
Cr4 O10 2.081301 1_554
