# generated using pymatgen
data_InP(H2O3)2
_symmetry_space_group_name_H-M   'P 1'
_cell_length_a   8.76292617
_cell_length_b   10.11894829
_cell_length_c   10.38227891
_cell_angle_alpha   90.00000000
_cell_angle_beta   90.00000000
_cell_angle_gamma   90.00000000
_symmetry_Int_Tables_number   1
_chemical_formula_structural   InP(H2O3)2
_chemical_formula_sum   'In8 P8 H32 O48'
_cell_volume   920.61324920
_cell_formula_units_Z   8
loop_
 _symmetry_equiv_pos_site_id
 _symmetry_equiv_pos_as_xyz
  1  'x, y, z'
loop_
 _atom_site_type_symbol
 _atom_site_label
 _atom_site_symmetry_multiplicity
 _atom_site_fract_x
 _atom_site_fract_y
 _atom_site_fract_z
 _atom_site_occupancy
  In  In0  1  0.65326831  0.67340458  0.63060420  1
  In  In1  1  0.15326831  0.82659542  0.36939580  1
  In  In2  1  0.34673169  0.17340458  0.86939580  1
  In  In3  1  0.84673169  0.32659542  0.13060420  1
  In  In4  1  0.34673169  0.32659542  0.36939580  1
  In  In5  1  0.84673169  0.17340458  0.63060420  1
  In  In6  1  0.65326831  0.82659542  0.13060420  1
  In  In7  1  0.15326831  0.67340458  0.86939580  1
  P  P0  1  0.52834656  0.35963180  0.65152056  1
  P  P1  1  0.02834656  0.14036820  0.34847944  1
  P  P2  1  0.47165344  0.85963180  0.84847944  1
  P  P3  1  0.97165344  0.64036820  0.15152056  1
  P  P4  1  0.47165344  0.64036820  0.34847944  1
  P  P5  1  0.97165344  0.85963180  0.65152056  1
  P  P6  1  0.52834656  0.14036820  0.15152056  1
  P  P7  1  0.02834656  0.35963180  0.84847944  1
  H  H0  1  0.79962709  0.45994358  0.56454396  1
  H  H1  1  0.29962709  0.04005642  0.43545604  1
  H  H2  1  0.20037291  0.95994358  0.93545604  1
  H  H3  1  0.70037291  0.54005642  0.06454396  1
  H  H4  1  0.20037291  0.54005642  0.43545604  1
  H  H5  1  0.70037291  0.95994358  0.56454396  1
  H  H6  1  0.79962709  0.04005642  0.06454396  1
  H  H7  1  0.29962709  0.45994358  0.93545604  1
  H  H8  1  0.86660399  0.56353602  0.46293572  1
  H  H9  1  0.36660399  0.93646398  0.53706428  1
  H  H10  1  0.13339601  0.06353602  0.03706428  1
  H  H11  1  0.63339601  0.43646398  0.96293572  1
  H  H12  1  0.13339601  0.43646398  0.53706428  1
  H  H13  1  0.63339601  0.06353602  0.46293572  1
  H  H14  1  0.86660399  0.93646398  0.96293572  1
  H  H15  1  0.36660399  0.56353602  0.03706428  1
  H  H16  1  0.69324569  0.67021128  0.87868227  1
  H  H17  1  0.19324569  0.82978872  0.12131773  1
  H  H18  1  0.30675431  0.17021128  0.62131773  1
  H  H19  1  0.80675431  0.32978872  0.37868227  1
  H  H20  1  0.30675431  0.32978872  0.12131773  1
  H  H21  1  0.80675431  0.17021128  0.87868227  1
  H  H22  1  0.69324569  0.82978872  0.37868227  1
  H  H23  1  0.19324569  0.67021128  0.62131773  1
  H  H24  1  0.83485642  0.57309774  0.83167378  1
  H  H25  1  0.33485642  0.92690226  0.16832622  1
  H  H26  1  0.16514358  0.07309774  0.66832622  1
  H  H27  1  0.66514358  0.42690226  0.33167378  1
  H  H28  1  0.16514358  0.42690226  0.16832622  1
  H  H29  1  0.66514358  0.07309774  0.83167378  1
  H  H30  1  0.83485642  0.92690226  0.33167378  1
  H  H31  1  0.33485642  0.57309774  0.66832622  1
  O  O0  1  0.84083454  0.55104761  0.55320689  1
  O  O1  1  0.34083454  0.94895239  0.44679311  1
  O  O2  1  0.15916546  0.05104761  0.94679311  1
  O  O3  1  0.65916546  0.44895239  0.05320689  1
  O  O4  1  0.15916546  0.44895239  0.44679311  1
  O  O5  1  0.65916546  0.05104761  0.55320689  1
  O  O6  1  0.84083454  0.94895239  0.05320689  1
  O  O7  1  0.34083454  0.55104761  0.94679311  1
  O  O8  1  0.72734130  0.60208298  0.81638990  1
  O  O9  1  0.22734130  0.89791702  0.18361010  1
  O  O10  1  0.27265870  0.10208298  0.68361010  1
  O  O11  1  0.77265870  0.39791702  0.31638990  1
  O  O12  1  0.27265870  0.39791702  0.18361010  1
  O  O13  1  0.77265870  0.10208298  0.81638990  1
  O  O14  1  0.72734130  0.89791702  0.31638990  1
  O  O15  1  0.22734130  0.60208298  0.68361010  1
  O  O16  1  0.49322692  0.80615873  0.71227958  1
  O  O17  1  0.99322692  0.69384127  0.28772042  1
  O  O18  1  0.50677308  0.30615873  0.78772042  1
  O  O19  1  0.00677308  0.19384127  0.21227958  1
  O  O20  1  0.50677308  0.19384127  0.28772042  1
  O  O21  1  0.00677308  0.30615873  0.71227958  1
  O  O22  1  0.49322692  0.69384127  0.21227958  1
  O  O23  1  0.99322692  0.80615873  0.78772042  1
  O  O24  1  0.58417978  0.71177486  0.43899613  1
  O  O25  1  0.08417978  0.78822514  0.56100387  1
  O  O26  1  0.41582022  0.21177486  0.06100387  1
  O  O27  1  0.91582022  0.28822514  0.93899613  1
  O  O28  1  0.41582022  0.28822514  0.56100387  1
  O  O29  1  0.91582022  0.21177486  0.43899613  1
  O  O30  1  0.58417978  0.78822514  0.93899613  1
  O  O31  1  0.08417978  0.71177486  0.06100387  1
  O  O32  1  0.80590560  0.83625367  0.60709281  1
  O  O33  1  0.30590560  0.66374633  0.39290719  1
  O  O34  1  0.19409440  0.33625367  0.89290719  1
  O  O35  1  0.69409440  0.16374633  0.10709281  1
  O  O36  1  0.19409440  0.16374633  0.39290719  1
  O  O37  1  0.69409440  0.33625367  0.60709281  1
  O  O38  1  0.80590560  0.66374633  0.10709281  1
  O  O39  1  0.30590560  0.83625367  0.89290719  1
  O  O40  1  0.49847458  0.50919594  0.64419851  1
  O  O41  1  0.99847458  0.99080406  0.35580149  1
  O  O42  1  0.50152542  0.00919594  0.85580149  1
  O  O43  1  0.00152542  0.49080406  0.14419851  1
  O  O44  1  0.50152542  0.49080406  0.35580149  1
  O  O45  1  0.00152542  0.00919594  0.64419851  1
  O  O46  1  0.49847458  0.99080406  0.14419851  1
  O  O47  1  0.99847458  0.50919594  0.85580149  1
loop_
_geom_bond_atom_site_label_1
_geom_bond_atom_site_label_2
_geom_bond_distance
_geom_bond_site_symmetry_2
In0 O24 2.115351 1_555
In0 O16 2.119061 1_555
In0 O32 2.136369 1_555
In0 O40 2.149615 1_555
In0 O8 2.159340 1_555
In0 O0 2.209112 1_555
In1 O25 2.115351 1_555
In1 O17 2.119061 1_455
In1 O33 2.136369 1_555
In1 O41 2.149615 1_455
In1 O9 2.159340 1_555
In1 O1 2.209112 1_555
In2 O26 2.115351 1_556
In2 O18 2.119061 1_555
In2 O34 2.136369 1_555
In2 O42 2.149615 1_555
In2 O10 2.159340 1_555
In2 O2 2.209112 1_555
In3 O27 2.115351 1_554
In3 O19 2.119061 1_655
In3 O35 2.136369 1_555
In3 O43 2.149615 1_655
In3 O11 2.159340 1_555
In3 O3 2.209112 1_555
In4 O28 2.115351 1_555
In4 O20 2.119061 1_555
In4 O36 2.136369 1_555
In4 O44 2.149615 1_555
In4 O12 2.159340 1_555
In4 O4 2.209112 1_555
In5 O29 2.115351 1_555
In5 O21 2.119061 1_655
In5 O37 2.136369 1_555
In5 O45 2.149615 1_655
In5 O13 2.159340 1_555
In5 O5 2.209112 1_555
In6 O30 2.115351 1_554
In6 O22 2.119061 1_555
In6 O38 2.136369 1_555
In6 O46 2.149615 1_555
In6 O14 2.159340 1_555
In6 O6 2.209112 1_555
In7 O31 2.115351 1_556
In7 O23 2.119061 1_455
In7 O39 2.136369 1_555
In7 O47 2.149615 1_455
In7 O15 2.159340 1_555
In7 O7 2.209112 1_555
H0 O0 0.997047 1_555
H0 O37 1.617680 1_555
H1 O1 0.997047 1_545
H1 O36 1.617680 1_555
H2 O2 0.997047 1_565
H2 O39 1.617680 1_555
H3 O3 0.997047 1_555
H3 O38 1.617680 1_555
H4 O4 0.997047 1_555
H4 O33 1.617680 1_555
H5 O5 0.997047 1_565
H5 O32 1.617680 1_555
H6 O6 0.997047 1_545
H6 O35 1.617680 1_555
H7 O7 0.997047 1_555
H7 O34 1.617680 1_555
H8 O0 0.972288 1_555
H9 O1 0.972288 1_555
H10 O2 0.972288 1_554
H11 O3 0.972288 1_556
H12 O4 0.972288 1_555
H13 O5 0.972288 1_555
H14 O6 0.972288 1_556
H15 O7 0.972288 1_554
H16 O8 0.991358 1_555
H16 O30 1.652758 1_555
H17 O9 0.991358 1_555
H17 O31 1.652758 1_555
H18 O10 0.991358 1_555
H18 O28 1.652758 1_555
H19 O11 0.991358 1_555
H19 O29 1.652758 1_555
H20 O12 0.991358 1_555
H20 O26 1.652758 1_555
H21 O13 0.991358 1_555
H21 O27 1.652758 1_555
H22 O14 0.991358 1_555
H22 O24 1.652758 1_555
H23 O15 0.991358 1_555
H23 O25 1.652758 1_555
H24 O8 0.999423 1_555
H24 O47 1.592663 1_555
H25 O9 0.999423 1_555
H25 O46 1.592663 1_555
H26 O10 0.999423 1_555
H26 O45 1.592663 1_555
H27 O11 0.999423 1_555
H27 O44 1.592663 1_555
H28 O12 0.999423 1_555
H28 O43 1.592663 1_555
H29 O13 0.999423 1_555
H29 O42 1.592663 1_555
H30 O14 0.999423 1_555
H30 O41 1.592663 1_555
H31 O15 0.999423 1_555
H31 O40 1.592663 1_555
O16 P2 1.525811 1_555
O17 P3 1.525811 1_555
O18 P0 1.525811 1_555
O19 P1 1.525811 1_555
O20 P6 1.525811 1_555
O21 P7 1.525811 1_555
O22 P4 1.525811 1_555
O23 P5 1.525811 1_555
O24 P4 1.541939 1_555
O25 P5 1.541939 1_455
O26 P6 1.541939 1_555
O27 P7 1.541939 1_655
O28 P0 1.541939 1_555
O29 P1 1.541939 1_655
O30 P2 1.541939 1_555
O31 P3 1.541939 1_455
O32 P5 1.542172 1_555
O33 P4 1.542172 1_555
O34 P7 1.542172 1_555
O35 P6 1.542172 1_555
O36 P1 1.542172 1_555
O37 P0 1.542172 1_555
O38 P3 1.542172 1_555
O39 P2 1.542172 1_555
O40 P0 1.537783 1_555
O41 P1 1.537783 1_665
O42 P2 1.537783 1_545
O43 P3 1.537783 1_455
O44 P4 1.537783 1_555
O45 P5 1.537783 1_445
O46 P6 1.537783 1_565
O47 P7 1.537783 1_655
