# generated using pymatgen
data_LiFe8(BO3)8
_symmetry_space_group_name_H-M   'P 1'
_cell_length_a   5.32351600
_cell_length_b   9.01880031
_cell_length_c   11.35671265
_cell_angle_alpha   112.88470330
_cell_angle_beta   103.37831528
_cell_angle_gamma   90.37610233
_symmetry_Int_Tables_number   1
_chemical_formula_structural   LiFe8(BO3)8
_chemical_formula_sum   'Li1 Fe8 B8 O24'
_cell_volume   485.86293541
_cell_formula_units_Z   1
loop_
 _symmetry_equiv_pos_site_id
 _symmetry_equiv_pos_as_xyz
  1  'x, y, z'
loop_
 _atom_site_type_symbol
 _atom_site_label
 _atom_site_symmetry_multiplicity
 _atom_site_fract_x
 _atom_site_fract_y
 _atom_site_fract_z
 _atom_site_occupancy
  Li  Li0  1  0.22488600  0.58369000  0.15668600  1
  Fe  Fe0  1  0.71691400  0.39390500  0.12421500  1
  Fe  Fe1  1  0.77658900  0.10457200  0.87747500  1
  Fe  Fe2  1  0.54176500  0.51873500  0.37695600  1
  Fe  Fe3  1  0.97423100  0.97979600  0.62793400  1
  Fe  Fe4  1  0.02763300  0.02314100  0.37608700  1
  Fe  Fe5  1  0.47671000  0.47903400  0.62891300  1
  Fe  Fe6  1  0.22520900  0.90551100  0.12663300  1
  Fe  Fe7  1  0.28050900  0.60423300  0.87829700  1
  B  B0  1  0.98475800  0.64507200  0.62923200  1
  B  B1  1  0.22535500  0.23509400  0.12548200  1
  B  B2  1  0.48175000  0.14045100  0.62632400  1
  B  B3  1  0.73756200  0.73511700  0.12903100  1
  B  B4  1  0.52279500  0.85727200  0.37069900  1
  B  B5  1  0.27058400  0.26857200  0.87661700  1
  B  B6  1  0.02783000  0.36023200  0.37984100  1
  B  B7  1  0.77519600  0.76811900  0.87847700  1
  O  O0  1  0.96604300  0.22441400  0.06618900  1
  O  O1  1  0.86726400  0.45602700  0.33199700  1
  O  O2  1  0.67839400  0.90151700  0.87119700  1
  O  O3  1  0.08133300  0.78405100  0.63111900  1
  O  O4  1  0.71891500  0.59117200  0.57596100  1
  O  O5  1  0.36771200  0.38914700  0.17835900  1
  O  O6  1  0.85569100  0.60303300  0.12735800  1
  O  O7  1  0.63872600  0.04115700  0.67270600  1
  O  O8  1  0.10429700  0.12484500  0.82339100  1
  O  O9  1  0.78385000  0.91371600  0.43057300  1
  O  O10  1  0.42790400  0.70585000  0.34917300  1
  O  O11  1  0.53237200  0.26348000  0.92153900  1
  O  O12  1  0.46142300  0.72770500  0.08538300  1
  O  O13  1  0.21652500  0.08616600  0.57059700  1
  O  O14  1  0.88617300  0.88565500  0.17428600  1
  O  O15  1  0.35967600  0.95634700  0.32634100  1
  O  O16  1  0.17642400  0.41323400  0.88894100  1
  O  O17  1  0.61544900  0.62166400  0.83251500  1
  O  O18  1  0.29361500  0.41571800  0.43403500  1
  O  O19  1  0.93075900  0.21946500  0.37571400  1
  O  O20  1  0.57774100  0.28435400  0.63416700  1
  O  O21  1  0.33985700  0.10413800  0.13430100  1
  O  O22  1  0.14391900  0.54763200  0.67934700  1
  O  O23  1  0.04245900  0.76854400  0.93275900  1
loop_
_geom_bond_atom_site_label_1
_geom_bond_atom_site_label_2
_geom_bond_distance
_geom_bond_site_symmetry_2
Li0 O6 1.936746 1_455
Li0 O5 1.995973 1_555
Li0 O10 2.044130 1_555
Li0 O12 2.279632 1_555
Fe0 O6 2.005375 1_555
Fe0 O0 2.043872 1_555
Fe0 O5 2.093849 1_555
Fe0 O11 2.116458 1_554
Fe0 O1 2.148175 1_555
Fe1 O2 1.871011 1_545
Fe1 O11 1.939677 1_555
Fe1 O0 1.990578 1_556
Fe1 O8 2.008282 1_655
Fe1 O7 2.108069 1_555
Fe2 O10 1.911504 1_555
Fe2 O1 1.944439 1_555
Fe2 O18 1.969037 1_555
Fe2 O5 2.068794 1_555
Fe2 O4 2.069111 1_555
Fe3 O3 1.869842 1_655
Fe3 O13 1.966297 1_665
Fe3 O7 1.992286 1_565
Fe3 O8 2.033821 1_665
Fe3 O9 2.075583 1_555
Fe4 O19 1.848739 1_455
Fe4 O9 1.967439 1_445
Fe4 O15 2.004497 1_545
Fe4 O13 2.049859 1_555
Fe4 O14 2.082267 1_445
Fe5 O20 1.858662 1_555
Fe5 O4 1.965118 1_555
Fe5 O22 2.014399 1_555
Fe5 O18 2.045917 1_555
Fe5 O17 2.104900 1_555
Fe6 O21 1.851713 1_565
Fe6 O12 2.021650 1_555
Fe6 O14 2.026232 1_455
Fe6 O23 2.048859 1_554
Fe6 O15 2.074177 1_555
Fe7 O16 1.862616 1_555
Fe7 O23 1.964437 1_555
Fe7 O17 1.990790 1_555
Fe7 O22 2.057206 1_555
Fe7 O12 2.144649 1_556
B0 O3 1.342162 1_655
B0 O4 1.403990 1_555
B0 O22 1.410577 1_655
B1 O21 1.360038 1_555
B1 O0 1.373318 1_455
B1 O5 1.411370 1_555
B2 O20 1.354162 1_555
B2 O7 1.396689 1_555
B2 O13 1.403638 1_555
B3 O6 1.346343 1_555
B3 O14 1.410089 1_555
B3 O12 1.430700 1_555
B4 O10 1.361642 1_555
B4 O9 1.391780 1_555
B4 O15 1.401460 1_555
B5 O16 1.368235 1_555
B5 O11 1.376458 1_555
B5 O8 1.398993 1_555
B6 O19 1.347180 1_455
B6 O1 1.390023 1_455
B6 O18 1.406900 1_555
B7 O2 1.336266 1_555
B7 O17 1.408516 1_555
B7 O23 1.412994 1_655
