# generated using pymatgen
data_Li2Mn(NiO3)2
_symmetry_space_group_name_H-M   'P 1'
_cell_length_a   4.92584174
_cell_length_b   4.92584174
_cell_length_c   9.99703400
_cell_angle_alpha   90.00000000
_cell_angle_beta   90.00000000
_cell_angle_gamma   117.17789489
_symmetry_Int_Tables_number   1
_chemical_formula_structural   Li2Mn(NiO3)2
_chemical_formula_sum   'Li4 Mn2 Ni4 O12'
_cell_volume   215.78600221
_cell_formula_units_Z   2
loop_
 _symmetry_equiv_pos_site_id
 _symmetry_equiv_pos_as_xyz
  1  'x, y, z'
loop_
 _atom_site_type_symbol
 _atom_site_label
 _atom_site_symmetry_multiplicity
 _atom_site_fract_x
 _atom_site_fract_y
 _atom_site_fract_z
 _atom_site_occupancy
  Li  Li0  1  0.63230300  0.13230300  0.75000000  1
  Li  Li1  1  0.86769700  0.36769700  0.25000000  1
  Li  Li2  1  0.13230300  0.63230300  0.75000000  1
  Li  Li3  1  0.36769700  0.86769700  0.25000000  1
  Mn  Mn0  1  0.00000000  0.00000000  0.00000000  1
  Mn  Mn1  1  0.50000000  0.50000000  0.50000000  1
  Ni  Ni0  1  0.83501400  0.16498600  0.50000000  1
  Ni  Ni1  1  0.66498600  0.33501400  0.00000000  1
  Ni  Ni2  1  0.33501400  0.66498600  0.00000000  1
  Ni  Ni3  1  0.16498600  0.83501400  0.50000000  1
  O  O0  1  0.69050100  0.03124800  0.10792800  1
  O  O1  1  0.30949900  0.96875200  0.89207200  1
  O  O2  1  0.53124800  0.19050100  0.39207200  1
  O  O3  1  0.80949900  0.46875200  0.60792800  1
  O  O4  1  0.16902800  0.16902800  0.59530100  1
  O  O5  1  0.33097200  0.33097200  0.09530100  1
  O  O6  1  0.66902800  0.66902800  0.90469900  1
  O  O7  1  0.96875200  0.30949900  0.89207200  1
  O  O8  1  0.83097200  0.83097200  0.40469900  1
  O  O9  1  0.19050100  0.53124800  0.39207200  1
  O  O10  1  0.46875200  0.80949900  0.60792800  1
  O  O11  1  0.03124800  0.69050100  0.10792800  1
loop_
_geom_bond_atom_site_label_1
_geom_bond_atom_site_label_2
_geom_bond_distance
_geom_bond_site_symmetry_2
Li0 O10 2.006097 1_545
Li0 O1 2.006097 1_545
Li0 O3 2.050435 1_555
Li0 O7 2.050435 1_555
Li1 O11 2.006097 1_655
Li1 O9 2.006097 1_655
Li1 O2 2.050435 1_555
Li1 O0 2.050435 1_555
Li2 O3 2.006097 1_455
Li2 O7 2.006097 1_455
Li2 O1 2.050435 1_555
Li2 O10 2.050435 1_555
Li3 O0 2.006097 1_565
Li3 O2 2.006097 1_565
Li3 O9 2.050435 1_555
Li3 O11 2.050435 1_555
Mn0 O7 1.930400 1_454
Mn0 O1 1.930400 1_544
Mn0 O11 1.930400 1_545
Mn0 O0 1.930400 1_455
Mn0 O5 1.948205 1_555
Mn0 O6 1.948205 1_444
Mn1 O9 1.930400 1_555
Mn1 O2 1.930400 1_555
Mn1 O10 1.930400 1_555
Mn1 O3 1.930400 1_555
Mn1 O8 1.948205 1_555
Mn1 O4 1.948205 1_555
Ni0 O4 1.893455 1_655
Ni0 O8 1.893455 1_545
Ni0 O3 1.894906 1_555
Ni0 O2 1.894906 1_555
Ni0 O10 2.144623 1_545
Ni0 O9 2.144623 1_655
Ni1 O5 1.893455 1_555
Ni1 O6 1.893455 1_554
Ni1 O0 1.894906 1_555
Ni1 O7 1.894906 1_554
Ni1 O11 2.144623 1_655
Ni1 O1 2.144623 1_544
Ni2 O5 1.893455 1_555
Ni2 O6 1.893455 1_554
Ni2 O11 1.894906 1_555
Ni2 O1 1.894906 1_554
Ni2 O0 2.144623 1_565
Ni2 O7 2.144623 1_454
Ni3 O4 1.893455 1_565
Ni3 O8 1.893455 1_455
Ni3 O10 1.894906 1_555
Ni3 O9 1.894906 1_555
Ni3 O3 2.144623 1_455
Ni3 O2 2.144623 1_565
