# generated using pymatgen
data_Na4Ti5Mn4O18
_symmetry_space_group_name_H-M   'P 1'
_cell_length_a   2.94337500
_cell_length_b   9.42692300
_cell_length_c   26.49639500
_cell_angle_alpha   90.00000000
_cell_angle_beta   90.00000000
_cell_angle_gamma   90.00000000
_symmetry_Int_Tables_number   1
_chemical_formula_structural   Na4Ti5Mn4O18
_chemical_formula_sum   'Na8 Ti10 Mn8 O36'
_cell_volume   735.19466353
_cell_formula_units_Z   2
loop_
 _symmetry_equiv_pos_site_id
 _symmetry_equiv_pos_as_xyz
  1  'x, y, z'
loop_
 _atom_site_type_symbol
 _atom_site_label
 _atom_site_symmetry_multiplicity
 _atom_site_fract_x
 _atom_site_fract_y
 _atom_site_fract_z
 _atom_site_occupancy
  Na  Na0  1  0.00000000  0.17028500  0.99329000  1
  Na  Na1  1  0.00000000  0.21042500  0.20281600  1
  Na  Na2  1  0.00000000  0.28957500  0.70281600  1
  Na  Na3  1  0.00000000  0.32971500  0.49329000  1
  Na  Na4  1  0.00000000  0.67028500  0.50671000  1
  Na  Na5  1  0.00000000  0.71042500  0.29718400  1
  Na  Na6  1  0.00000000  0.78957500  0.79718400  1
  Na  Na7  1  0.00000000  0.82971500  0.00671000  1
  Ti  Ti0  1  0.00000000  0.00000000  0.50000000  1
  Ti  Ti1  1  0.00000000  0.01513200  0.10489900  1
  Ti  Ti2  1  0.50000000  0.13746400  0.80917800  1
  Ti  Ti3  1  0.50000000  0.36253600  0.30917800  1
  Ti  Ti4  1  0.00000000  0.48486800  0.60489900  1
  Ti  Ti5  1  0.00000000  0.50000000  0.00000000  1
  Ti  Ti6  1  0.00000000  0.51513200  0.39510100  1
  Ti  Ti7  1  0.50000000  0.63746400  0.69082200  1
  Ti  Ti8  1  0.50000000  0.86253600  0.19082200  1
  Ti  Ti9  1  0.00000000  0.98486800  0.89510100  1
  Mn  Mn0  1  0.00000000  0.02894600  0.30724800  1
  Mn  Mn1  1  0.50000000  0.14139800  0.59019800  1
  Mn  Mn2  1  0.50000000  0.35860200  0.09019800  1
  Mn  Mn3  1  0.00000000  0.47105400  0.80724800  1
  Mn  Mn4  1  0.00000000  0.52894600  0.19275200  1
  Mn  Mn5  1  0.50000000  0.64139800  0.90980200  1
  Mn  Mn6  1  0.50000000  0.85860200  0.40980200  1
  Mn  Mn7  1  0.00000000  0.97105400  0.69275200  1
  O  O0  1  0.00000000  0.98875300  0.42383700  1
  O  O1  1  0.00000000  0.01124700  0.57616300  1
  O  O2  1  0.50000000  0.02613200  0.94006800  1
  O  O3  1  0.50000000  0.05315900  0.15701100  1
  O  O4  1  0.50000000  0.09081000  0.66958500  1
  O  O5  1  0.00000000  0.08575500  0.76509300  1
  O  O6  1  0.50000000  0.13907800  0.50088800  1
  O  O7  1  0.50000000  0.16030100  0.28794000  1
  O  O8  1  0.00000000  0.16964500  0.85899500  1
  O  O9  1  0.00000000  0.21856600  0.09152100  1
  O  O10  1  0.00000000  0.28143400  0.59152100  1
  O  O11  1  0.00000000  0.33035500  0.35899500  1
  O  O12  1  0.50000000  0.33969900  0.78794000  1
  O  O13  1  0.50000000  0.36092200  0.00088800  1
  O  O14  1  0.00000000  0.41424500  0.26509300  1
  O  O15  1  0.50000000  0.40919000  0.16958500  1
  O  O16  1  0.50000000  0.44684100  0.65701100  1
  O  O17  1  0.50000000  0.47386800  0.44006800  1
  O  O18  1  0.00000000  0.48875300  0.07616300  1
  O  O19  1  0.00000000  0.51124700  0.92383700  1
  O  O20  1  0.50000000  0.52613200  0.55993200  1
  O  O21  1  0.50000000  0.55315900  0.34298900  1
  O  O22  1  0.50000000  0.59081000  0.83041500  1
  O  O23  1  0.00000000  0.58575500  0.73490700  1
  O  O24  1  0.50000000  0.63907800  0.99911200  1
  O  O25  1  0.50000000  0.66030100  0.21206000  1
  O  O26  1  0.00000000  0.66964500  0.64100500  1
  O  O27  1  0.00000000  0.71856600  0.40847900  1
  O  O28  1  0.00000000  0.78143400  0.90847900  1
  O  O29  1  0.00000000  0.83035500  0.14100500  1
  O  O30  1  0.50000000  0.83969900  0.71206000  1
  O  O31  1  0.50000000  0.86092200  0.49911200  1
  O  O32  1  0.00000000  0.91424500  0.23490700  1
  O  O33  1  0.50000000  0.90919000  0.33041500  1
  O  O34  1  0.50000000  0.94684100  0.84298900  1
  O  O35  1  0.50000000  0.97386800  0.05993200  1
loop_
_geom_bond_atom_site_label_1
_geom_bond_atom_site_label_2
_geom_bond_distance
_geom_bond_site_symmetry_2
Na0 O13 2.331531 1_556
Na0 O13 2.331531 1_456
Na0 O2 2.449727 1_455
Na0 O2 2.449727 1_555
Na0 O9 2.642263 1_556
Na1 O3 2.415939 1_555
Na1 O3 2.415939 1_455
Na1 O14 2.532715 1_555
Na1 O15 2.540090 1_455
Na1 O15 2.540090 1_555
Na1 O7 2.734286 1_455
Na1 O7 2.734286 1_555
Na1 O32 2.918670 1_545
Na1 O9 2.949915 1_555
Na2 O16 2.415939 1_455
Na2 O16 2.415939 1_555
Na2 O5 2.532715 1_555
Na2 O4 2.540090 1_455
Na2 O4 2.540090 1_555
Na2 O12 2.734286 1_455
Na2 O12 2.734286 1_555
Na2 O23 2.918670 1_555
Na2 O10 2.949915 1_555
Na3 O6 2.331531 1_555
Na3 O6 2.331531 1_455
Na3 O17 2.449727 1_455
Na3 O17 2.449727 1_555
Na3 O10 2.642263 1_555
Na4 O31 2.331531 1_455
Na4 O31 2.331531 1_555
Na4 O20 2.449727 1_555
Na4 O20 2.449727 1_455
Na4 O27 2.642263 1_555
Na5 O21 2.415939 1_555
Na5 O21 2.415939 1_455
Na5 O32 2.532715 1_555
Na5 O33 2.540090 1_455
Na5 O33 2.540090 1_555
Na5 O25 2.734286 1_555
Na5 O25 2.734286 1_455
Na5 O14 2.918670 1_555
Na5 O27 2.949915 1_555
Na6 O34 2.415939 1_455
Na6 O34 2.415939 1_555
Na6 O23 2.532715 1_555
Na6 O22 2.540090 1_555
Na6 O22 2.540090 1_455
Na6 O30 2.734286 1_455
Na6 O30 2.734286 1_555
Na6 O5 2.918670 1_565
Na6 O28 2.949915 1_555
Na7 O24 2.331531 1_454
Na7 O24 2.331531 1_554
Na7 O35 2.449727 1_555
Na7 O35 2.449727 1_455
Na7 O28 2.642263 1_554
Mn0 O33 1.953753 1_545
Mn0 O33 1.953753 1_445
Mn0 O7 1.990204 1_555
Mn0 O7 1.990204 1_455
Mn0 O32 2.200725 1_545
Mn1 O1 1.951793 1_655
Mn1 O1 1.951793 1_555
Mn1 O10 1.977316 1_655
Mn1 O10 1.977316 1_555
Mn1 O4 2.156851 1_555
Mn1 O6 2.366494 1_555
Mn2 O18 1.951793 1_655
Mn2 O18 1.951793 1_555
Mn2 O9 1.977316 1_655
Mn2 O9 1.977316 1_555
Mn2 O15 2.156851 1_555
Mn2 O13 2.366494 1_555
Mn3 O22 1.953753 1_455
Mn3 O22 1.953753 1_555
Mn3 O12 1.990204 1_455
Mn3 O12 1.990204 1_555
Mn3 O23 2.200725 1_555
Mn4 O15 1.953753 1_555
Mn4 O15 1.953753 1_455
Mn4 O25 1.990204 1_455
Mn4 O25 1.990204 1_555
Mn4 O14 2.200725 1_555
Mn5 O19 1.951793 1_555
Mn5 O19 1.951793 1_655
Mn5 O28 1.977316 1_555
Mn5 O28 1.977316 1_655
Mn5 O22 2.156851 1_555
Mn5 O24 2.366494 1_555
Mn6 O0 1.951793 1_555
Mn6 O0 1.951793 1_655
Mn6 O27 1.977316 1_655
Mn6 O27 1.977316 1_555
Mn6 O33 2.156851 1_555
Mn6 O31 2.366494 1_555
Mn7 O4 1.953753 1_565
Mn7 O4 1.953753 1_465
Mn7 O30 1.990204 1_455
Mn7 O30 1.990204 1_555
Mn7 O5 2.200725 1_565
O0 Ti0 2.020828 1_565
O1 Ti0 2.020828 1_555
O2 Ti9 1.933071 1_645
O2 Ti9 1.933071 1_545
O3 Ti8 2.007922 1_545
O3 Ti1 2.049616 1_655
O3 Ti1 2.049616 1_555
O5 Ti2 1.941113 1_455
O5 Ti2 1.941113 1_555
O6 Ti0 1.971127 1_655
O6 Ti0 1.971127 1_555
O7 Ti3 1.987770 1_555
O8 Ti9 1.987304 1_545
O8 Ti2 2.000055 1_555
O8 Ti2 2.000055 1_455
O9 Ti1 1.950241 1_555
O10 Ti4 1.950241 1_555
O11 Ti6 1.987304 1_555
O11 Ti3 2.000055 1_455
O11 Ti3 2.000055 1_555
O12 Ti2 1.987770 1_555
O13 Ti5 1.971127 1_555
O13 Ti5 1.971127 1_655
O14 Ti3 1.941113 1_455
O14 Ti3 1.941113 1_555
O16 Ti7 2.007922 1_555
O16 Ti4 2.049616 1_555
O16 Ti4 2.049616 1_655
O17 Ti6 1.933071 1_655
O17 Ti6 1.933071 1_555
O18 Ti5 2.020828 1_555
O19 Ti5 2.020828 1_556
O20 Ti4 1.933071 1_555
O20 Ti4 1.933071 1_655
O21 Ti3 2.007922 1_555
O21 Ti6 2.049616 1_555
O21 Ti6 2.049616 1_655
O23 Ti7 1.941113 1_555
O23 Ti7 1.941113 1_455
O24 Ti5 1.971127 1_556
O24 Ti5 1.971127 1_656
O25 Ti8 1.987770 1_555
O26 Ti4 1.987304 1_555
O26 Ti7 2.000055 1_555
O26 Ti7 2.000055 1_455
O27 Ti6 1.950241 1_555
O28 Ti9 1.950241 1_555
O29 Ti1 1.987304 1_565
O29 Ti8 2.000055 1_555
O29 Ti8 2.000055 1_455
O30 Ti7 1.987770 1_555
O31 Ti0 1.971127 1_665
O31 Ti0 1.971127 1_565
O32 Ti8 1.941113 1_455
O32 Ti8 1.941113 1_555
O34 Ti2 2.007922 1_565
O34 Ti9 2.049616 1_655
O34 Ti9 2.049616 1_555
O35 Ti1 1.933071 1_565
O35 Ti1 1.933071 1_665
