# generated using pymatgen
data_Na2FeO3
_symmetry_space_group_name_H-M   'P 1'
_cell_length_a   5.14256401
_cell_length_b   5.14874891
_cell_length_c   10.66560423
_cell_angle_alpha   85.21007109
_cell_angle_beta   99.65655311
_cell_angle_gamma   119.95098523
_symmetry_Int_Tables_number   1
_chemical_formula_structural   Na2FeO3
_chemical_formula_sum   'Na8 Fe4 O12'
_cell_volume   241.22051132
_cell_formula_units_Z   4
loop_
 _symmetry_equiv_pos_site_id
 _symmetry_equiv_pos_as_xyz
  1  'x, y, z'
loop_
 _atom_site_type_symbol
 _atom_site_label
 _atom_site_symmetry_multiplicity
 _atom_site_fract_x
 _atom_site_fract_y
 _atom_site_fract_z
 _atom_site_occupancy
  Na  Na0  1  0.15830593  0.84460203  0.49912094  1
  Na  Na1  1  0.99999961  0.50003854  0.99996774  1
  Na  Na2  1  0.08559712  0.17119442  0.24999767  1
  Na  Na3  1  0.50003877  0.50003386  0.50003048  1
  Na  Na4  1  0.68629705  0.84457944  0.00088684  1
  Na  Na5  1  0.31369370  0.15543216  0.99909185  1
  Na  Na6  1  0.91439871  0.82879766  0.75000211  1
  Na  Na7  1  0.84171711  0.15541031  0.50090075  1
  Fe  Fe0  1  0.24704084  0.49423103  0.74999840  1
  Fe  Fe1  1  0.42013772  0.84052518  0.25000919  1
  Fe  Fe2  1  0.57987379  0.15946876  0.74999171  1
  Fe  Fe3  1  0.75294491  0.50575511  0.25000239  1
  O  O0  1  0.05188162  0.79638935  0.14913624  1
  O  O1  1  0.32534531  0.82671375  0.84876776  1
  O  O2  1  0.12143190  0.55171976  0.34815630  1
  O  O3  1  0.50154915  0.82706625  0.65122341  1
  O  O4  1  0.25534832  0.20359880  0.64917784  1
  O  O5  1  0.56980644  0.44820954  0.84812286  1
  O  O6  1  0.43021516  0.55180548  0.15186999  1
  O  O7  1  0.74460839  0.79636236  0.35082952  1
  O  O8  1  0.49848705  0.17293735  0.34878176  1
  O  O9  1  0.87857547  0.44830566  0.65184734  1
  O  O10  1  0.67460557  0.17325810  0.15122886  1
  O  O11  1  0.94810338  0.20356710  0.85085803  1
loop_
_geom_bond_atom_site_label_1
_geom_bond_atom_site_label_2
_geom_bond_distance
_geom_bond_site_symmetry_2
Na0 O2 2.218108 1_555
Na0 O3 2.220282 1_555
Na0 O7 2.344877 1_455
Na0 O4 2.352027 1_565
Na0 O8 2.454524 1_565
Na0 O9 2.487224 1_455
Na1 O11 2.187864 1_555
Na1 O0 2.187936 1_656
Na1 O5 2.422602 1_555
Na1 O1 2.423049 1_655
Na1 O6 2.423102 1_656
Na1 O10 2.423793 1_556
Na2 O10 2.202392 1_455
Na2 O8 2.202416 1_555
Na2 O0 2.204849 1_545
Na2 O7 2.205207 1_445
Na2 O2 2.210406 1_555
Na2 O6 2.210958 1_555
Na3 O4 2.189003 1_555
Na3 O7 2.189032 1_555
Na3 O9 2.422902 1_555
Na3 O3 2.423186 1_555
Na3 O2 2.423393 1_555
Na3 O8 2.423767 1_555
Na4 O6 2.218916 1_555
Na4 O1 2.220452 1_554
Na4 O0 2.345037 1_655
Na4 O11 2.352336 1_564
Na4 O10 2.454737 1_565
Na4 O5 2.487080 1_554
Na5 O5 2.218865 1_555
Na5 O10 2.220488 1_556
Na5 O11 2.344843 1_455
Na5 O0 2.352589 1_546
Na5 O1 2.454657 1_545
Na5 O6 2.487152 1_556
Na6 O1 2.202223 1_655
Na6 O3 2.202240 1_555
Na6 O11 2.204681 1_565
Na6 O4 2.205004 1_665
Na6 O9 2.210259 1_555
Na6 O5 2.210807 1_555
Na7 O9 2.218038 1_555
Na7 O8 2.220323 1_555
Na7 O4 2.344620 1_655
Na7 O7 2.352230 1_545
Na7 O3 2.454379 1_545
Na7 O2 2.487365 1_655
Fe0 O9 1.915920 1_455
Fe0 O1 1.916484 1_555
Fe0 O5 1.917039 1_555
Fe0 O3 1.918613 1_555
Fe0 O4 1.935274 1_555
Fe0 O11 1.936198 1_455
Fe1 O6 1.913921 1_555
Fe1 O2 1.914489 1_555
Fe1 O8 1.916125 1_565
Fe1 O10 1.918311 1_565
Fe1 O0 1.929540 1_555
Fe1 O7 1.930887 1_555
Fe2 O5 1.913932 1_555
Fe2 O9 1.914514 1_555
Fe2 O3 1.916099 1_545
Fe2 O1 1.918444 1_545
Fe2 O11 1.929461 1_555
Fe2 O4 1.931009 1_555
Fe3 O2 1.915959 1_655
Fe3 O10 1.916513 1_555
Fe3 O6 1.916994 1_555
Fe3 O8 1.918510 1_555
Fe3 O7 1.935285 1_555
Fe3 O0 1.936189 1_655
