# generated using pymatgen
data_SnP4O11
_symmetry_space_group_name_H-M   'P 1'
_cell_length_a   9.90325100
_cell_length_b   9.95871516
_cell_length_c   11.45079004
_cell_angle_alpha   111.19290412
_cell_angle_beta   109.64894416
_cell_angle_gamma   87.99184339
_symmetry_Int_Tables_number   1
_chemical_formula_structural   SnP4O11
_chemical_formula_sum   'Sn4 P16 O44'
_cell_volume   986.80385928
_cell_formula_units_Z   4
loop_
 _symmetry_equiv_pos_site_id
 _symmetry_equiv_pos_as_xyz
  1  'x, y, z'
loop_
 _atom_site_type_symbol
 _atom_site_label
 _atom_site_symmetry_multiplicity
 _atom_site_fract_x
 _atom_site_fract_y
 _atom_site_fract_z
 _atom_site_occupancy
  Sn  Sn0  1  0.75779400  0.77867200  0.02010000  1
  Sn  Sn1  1  0.27053500  0.73150200  0.49888000  1
  Sn  Sn2  1  0.72946500  0.26849800  0.50112000  1
  Sn  Sn3  1  0.24220600  0.22132800  0.97990000  1
  P  P0  1  0.92196500  0.57383600  0.22532200  1
  P  P1  1  0.76192700  0.90772700  0.56298600  1
  P  P2  1  0.91693400  0.24972800  0.07238000  1
  P  P3  1  0.40189000  0.77090200  0.09323600  1
  P  P4  1  0.74150300  0.58703400  0.39011500  1
  P  P5  1  0.61251700  0.92121600  0.76188500  1
  P  P6  1  0.92934900  0.12453900  0.28661100  1
  P  P7  1  0.43306100  0.57409800  0.25164000  1
  P  P8  1  0.56693900  0.42590200  0.74836000  1
  P  P9  1  0.07065100  0.87546100  0.71338900  1
  P  P10  1  0.38748300  0.07878400  0.23811500  1
  P  P11  1  0.25849700  0.41296600  0.60988500  1
  P  P12  1  0.59811000  0.22909800  0.90676400  1
  P  P13  1  0.08306600  0.75027200  0.92762000  1
  P  P14  1  0.23807300  0.09227300  0.43701400  1
  P  P15  1  0.07803500  0.42616400  0.77467800  1
  O  O0  1  0.02611600  0.81360400  0.03687600  1
  O  O1  1  0.81153400  0.00400100  0.21173200  1
  O  O2  1  0.92148500  0.94826000  0.66466100  1
  O  O3  1  0.79327300  0.60624100  0.12953500  1
  O  O4  1  0.96990000  0.41582800  0.15184400  1
  O  O5  1  0.52181300  0.77247100  0.04471000  1
  O  O6  1  0.76226700  0.76090300  0.44435700  1
  O  O7  1  0.40447900  0.90651900  0.22041000  1
  O  O8  1  0.86704600  0.53764900  0.33311700  1
  O  O9  1  0.66997900  0.86669200  0.63525300  1
  O  O10  1  0.96652400  0.18046600  0.18129000  1
  O  O11  1  0.74484900  0.24063700  0.02723500  1
  O  O12  1  0.73121200  0.92357600  0.88511600  1
  O  O13  1  0.60077600  0.54338600  0.25977500  1
  O  O14  1  0.38325800  0.63745200  0.13012000  1
  O  O15  1  0.28993100  0.97824700  0.49010200  1
  O  O16  1  0.74055000  0.52851600  0.49095000  1
  O  O17  1  0.92135200  0.25208500  0.40216100  1
  O  O18  1  0.44035300  0.69308700  0.37951700  1
  O  O19  1  0.46978200  0.83987700  0.71504100  1
  O  O20  1  0.94275700  0.32661200  0.70316900  1
  O  O21  1  0.65580600  0.56573700  0.80116600  1
  O  O22  1  0.34419400  0.43426300  0.19883400  1
  O  O23  1  0.05724300  0.67338800  0.29683100  1
  O  O24  1  0.53021800  0.16012300  0.28495900  1
  O  O25  1  0.55964700  0.30691300  0.62048300  1
  O  O26  1  0.07864800  0.74791500  0.59783900  1
  O  O27  1  0.25945000  0.47148400  0.50905000  1
  O  O28  1  0.71006900  0.02175300  0.50989800  1
  O  O29  1  0.61674200  0.36254800  0.86988000  1
  O  O30  1  0.39922400  0.45661400  0.74022500  1
  O  O31  1  0.26878800  0.07642400  0.11488400  1
  O  O32  1  0.25515100  0.75936300  0.97276500  1
  O  O33  1  0.03347600  0.81953400  0.81871000  1
  O  O34  1  0.33002100  0.13330800  0.36474700  1
  O  O35  1  0.13295400  0.46235100  0.66688300  1
  O  O36  1  0.59552100  0.09348100  0.77959000  1
  O  O37  1  0.23773300  0.23909700  0.55564300  1
  O  O38  1  0.47818700  0.22752900  0.95529000  1
  O  O39  1  0.03010000  0.58417200  0.84815600  1
  O  O40  1  0.20672700  0.39375900  0.87046500  1
  O  O41  1  0.07851500  0.05174000  0.33533900  1
  O  O42  1  0.18846600  0.99599900  0.78826800  1
  O  O43  1  0.97388400  0.18639600  0.96312400  1
loop_
_geom_bond_atom_site_label_1
_geom_bond_atom_site_label_2
_geom_bond_distance
_geom_bond_site_symmetry_2
O0 P13 1.469738 1_554
O0 Sn0 2.625287 1_455
O1 P6 1.489516 1_555
O1 Sn0 2.423214 1_545
O2 P1 1.575748 1_555
O2 P9 1.637754 1_655
O3 P0 1.489452 1_555
O3 Sn0 2.420730 1_555
O4 P2 1.578248 1_555
O4 P0 1.633513 1_555
O5 P3 1.473378 1_555
O5 Sn0 2.451590 1_555
O6 P1 1.596833 1_555
O6 P4 1.608626 1_555
O7 P3 1.581347 1_555
O7 P10 1.662452 1_565
O8 P4 1.576196 1_555
O8 P0 1.654114 1_555
O9 P1 1.567889 1_555
O9 P5 1.638681 1_555
O10 P2 1.567974 1_555
O10 P6 1.642807 1_555
O11 P2 1.601323 1_555
O11 P12 1.605270 1_554
O12 P5 1.495300 1_555
O12 Sn0 2.419348 1_556
O13 P4 1.591639 1_555
O13 P7 1.655849 1_555
O14 P3 1.566547 1_555
O14 P7 1.651968 1_555
O15 P14 1.473446 1_565
O15 Sn1 2.511929 1_555
O16 P4 1.472114 1_555
O16 Sn2 2.641474 1_555
O17 P6 1.489512 1_555
O17 Sn2 2.492869 1_555
O18 P7 1.494616 1_555
O18 Sn1 2.442434 1_555
O19 P5 1.482617 1_555
O19 Sn1 2.473492 1_555
O20 P15 1.488811 1_655
O20 Sn2 2.445507 1_555
O21 P8 1.482774 1_555
O21 Sn0 2.530879 1_556
O22 P7 1.482774 1_555
O22 Sn3 2.530879 1_554
O23 P0 1.488811 1_455
O23 Sn1 2.445507 1_555
O24 P10 1.482617 1_555
O24 Sn2 2.473492 1_555
O25 P8 1.494616 1_555
O25 Sn2 2.442434 1_555
O26 P9 1.489512 1_555
O26 Sn1 2.492869 1_555
O27 P11 1.472114 1_555
O27 Sn1 2.641474 1_555
O28 P1 1.473446 1_545
O28 Sn2 2.511929 1_555
O29 P12 1.566547 1_555
O29 P8 1.651968 1_555
O30 P11 1.591639 1_555
O30 P8 1.655849 1_555
O31 P10 1.495300 1_555
O31 Sn3 2.419348 1_554
O32 P13 1.601323 1_555
O32 P3 1.605270 1_556
O33 P13 1.567974 1_555
O33 P9 1.642807 1_555
O34 P14 1.567889 1_555
O34 P10 1.638681 1_555
O35 P11 1.576196 1_555
O35 P15 1.654114 1_555
O36 P12 1.581347 1_555
O36 P5 1.662452 1_545
O37 P14 1.596833 1_555
O37 P11 1.608626 1_555
O38 P12 1.473378 1_555
O38 Sn3 2.451590 1_555
O39 P13 1.578248 1_555
O39 P15 1.633513 1_555
O40 P15 1.489452 1_555
O40 Sn3 2.420730 1_555
O41 P14 1.575748 1_555
O41 P6 1.637754 1_455
O42 P9 1.489516 1_555
O42 Sn3 2.423214 1_565
O43 P2 1.469738 1_556
O43 Sn3 2.625287 1_655
