# generated using pymatgen
data_LiMnPO4
_symmetry_space_group_name_H-M   'P 1'
_cell_length_a   5.10743600
_cell_length_b   11.53089576
_cell_length_c   6.08161640
_cell_angle_alpha   90.04130526
_cell_angle_beta   89.99877151
_cell_angle_gamma   89.99512489
_symmetry_Int_Tables_number   1
_chemical_formula_structural   LiMnPO4
_chemical_formula_sum   'Li4 Mn4 P4 O16'
_cell_volume   358.16643843
_cell_formula_units_Z   4
loop_
 _symmetry_equiv_pos_site_id
 _symmetry_equiv_pos_as_xyz
  1  'x, y, z'
loop_
 _atom_site_type_symbol
 _atom_site_label
 _atom_site_symmetry_multiplicity
 _atom_site_fract_x
 _atom_site_fract_y
 _atom_site_fract_z
 _atom_site_occupancy
  Li  Li0  1  0.99359600  0.06209800  0.21554400  1
  Li  Li1  1  0.49401800  0.43798700  0.71557200  1
  Li  Li2  1  0.99395400  0.56207600  0.28444900  1
  Li  Li3  1  0.49365400  0.93789100  0.78432700  1
  Mn  Mn0  1  0.98969900  0.33095600  0.96880000  1
  Mn  Mn1  1  0.48909400  0.66892000  0.03180600  1
  Mn  Mn2  1  0.48912300  0.16899600  0.46907600  1
  Mn  Mn3  1  0.98892300  0.83100400  0.53054200  1
  P  P0  1  0.99680700  0.08551900  0.73477800  1
  P  P1  1  0.49708900  0.41440400  0.23481300  1
  P  P2  1  0.99708000  0.58553400  0.76524200  1
  P  P3  1  0.49674200  0.91451800  0.26511200  1
  O  O0  1  0.38253100  0.03909200  0.24268100  1
  O  O1  1  0.88295300  0.46094000  0.74275700  1
  O  O2  1  0.38286100  0.53897200  0.25741600  1
  O  O3  1  0.88256900  0.96097000  0.75722000  1
  O  O4  1  0.29990400  0.08092400  0.72024800  1
  O  O5  1  0.80020100  0.41905200  0.22029700  1
  O  O6  1  0.30019400  0.58101400  0.77984900  1
  O  O7  1  0.79979600  0.91910200  0.27963300  1
  O  O8  1  0.91629900  0.15607300  0.94316800  1
  O  O9  1  0.41644600  0.34398400  0.44316300  1
  O  O10  1  0.91648400  0.65600600  0.55689800  1
  O  O11  1  0.41626100  0.84394500  0.05674900  1
  O  O12  1  0.89165400  0.14533500  0.52144100  1
  O  O13  1  0.39209700  0.35463800  0.02129700  1
  O  O14  1  0.89189300  0.64537200  0.97870500  1
  O  O15  1  0.39162900  0.85467700  0.47841400  1
loop_
_geom_bond_atom_site_label_1
_geom_bond_atom_site_label_2
_geom_bond_distance
_geom_bond_site_symmetry_2
Li0 O7 1.962557 1_545
Li0 O0 2.010876 1_655
Li0 O8 2.019052 1_554
Li0 O12 2.156500 1_555
Li1 O6 1.962532 1_555
Li1 O1 2.010833 1_555
Li1 O9 2.018419 1_555
Li1 O13 2.157381 1_556
Li2 O5 1.962319 1_555
Li2 O2 2.010794 1_655
Li2 O10 2.018015 1_555
Li2 O14 2.157361 1_554
Li3 O4 1.962641 1_565
Li3 O3 2.010909 1_555
Li3 O11 2.019220 1_556
Li3 O15 2.156628 1_555
Mn0 O8 2.056945 1_555
Mn0 O5 2.074984 1_556
Mn0 O13 2.097722 1_656
Mn0 O1 2.106281 1_555
Mn1 O11 2.057651 1_555
Mn1 O6 2.074665 1_554
Mn1 O14 2.100031 1_554
Mn1 O2 2.103640 1_555
Mn2 O9 2.057752 1_555
Mn2 O4 2.073887 1_555
Mn2 O12 2.098248 1_555
Mn2 O0 2.105475 1_555
Mn3 O10 2.057917 1_555
Mn3 O7 2.072587 1_555
Mn3 O15 2.098956 1_655
Mn3 O3 2.106713 1_555
O0 P3 1.556409 1_545
O1 P2 1.556400 1_555
O2 P1 1.556285 1_555
O3 P0 1.556290 1_565
O4 P0 1.551465 1_455
O5 P1 1.551571 1_555
O6 P2 1.551557 1_455
O7 P3 1.551251 1_555
O8 P0 1.560624 1_555
O9 P1 1.560791 1_555
O10 P2 1.560989 1_555
O11 P3 1.560619 1_555
O12 P0 1.564851 1_555
O13 P1 1.564433 1_555
O14 P2 1.564814 1_555
O15 P3 1.564753 1_555
