# generated using pymatgen
data_Zn2H10N12O5
_symmetry_space_group_name_H-M   'P 1'
_cell_length_a   7.17941000
_cell_length_b   9.85242900
_cell_length_c   15.84947771
_cell_angle_alpha   52.44310602
_cell_angle_beta   90.00000000
_cell_angle_gamma   90.00000000
_symmetry_Int_Tables_number   1
_chemical_formula_structural   Zn2H10N12O5
_chemical_formula_sum   'Zn4 H20 N24 O10'
_cell_volume   888.75576401
_cell_formula_units_Z   2
loop_
 _symmetry_equiv_pos_site_id
 _symmetry_equiv_pos_as_xyz
  1  'x, y, z'
loop_
 _atom_site_type_symbol
 _atom_site_label
 _atom_site_symmetry_multiplicity
 _atom_site_fract_x
 _atom_site_fract_y
 _atom_site_fract_z
 _atom_site_occupancy
  Zn  Zn0  1  0.81333500  0.56562700  0.49904100  1
  Zn  Zn1  1  0.18666500  0.43437300  0.50095900  1
  Zn  Zn2  1  0.81333500  0.43437300  0.00095900  1
  Zn  Zn3  1  0.18666500  0.56562700  0.99904100  1
  H  H0  1  0.76347700  0.42773600  0.81291900  1
  H  H1  1  0.23652300  0.57226400  0.18708100  1
  H  H2  1  0.76347700  0.57226400  0.68708100  1
  H  H3  1  0.23652300  0.42773600  0.31291900  1
  H  H4  1  0.84188900  0.38588900  0.43461000  1
  H  H5  1  0.15811100  0.61411100  0.56539000  1
  H  H6  1  0.84188900  0.61411100  0.06539000  1
  H  H7  1  0.15811100  0.38588900  0.93461000  1
  H  H8  1  0.38066000  0.13832400  0.68028400  1
  H  H9  1  0.61934000  0.86167600  0.31971600  1
  H  H10  1  0.38066000  0.86167600  0.81971600  1
  H  H11  1  0.61934000  0.13832400  0.18028400  1
  H  H12  1  0.49065300  0.20442000  0.29736800  1
  H  H13  1  0.50934700  0.79558000  0.70263200  1
  H  H14  1  0.49065300  0.79558000  0.20263200  1
  H  H15  1  0.50934700  0.20442000  0.79736800  1
  H  H16  1  0.57027900  0.38883400  0.19727500  1
  H  H17  1  0.42972100  0.61116600  0.80272500  1
  H  H18  1  0.57027900  0.61116600  0.30272500  1
  H  H19  1  0.42972100  0.38883400  0.69727500  1
  N  N0  1  0.46576800  0.16473600  0.54747000  1
  N  N1  1  0.53423200  0.83526400  0.45253000  1
  N  N2  1  0.46576800  0.83526400  0.95253000  1
  N  N3  1  0.53423200  0.16473600  0.04747000  1
  N  N4  1  0.50160600  0.70345300  0.04077700  1
  N  N5  1  0.49839400  0.29654700  0.95922300  1
  N  N6  1  0.50160600  0.29654700  0.45922300  1
  N  N7  1  0.49839400  0.70345300  0.54077700  1
  N  N8  1  0.29947900  0.29324300  0.47002500  1
  N  N9  1  0.70052100  0.70675700  0.52997500  1
  N  N10  1  0.29947900  0.70675700  0.02997500  1
  N  N11  1  0.70052100  0.29324300  0.97002500  1
  N  N12  1  0.51616600  0.72350800  0.28294400  1
  N  N13  1  0.48383400  0.27649200  0.71705600  1
  N  N14  1  0.51616600  0.27649200  0.21705600  1
  N  N15  1  0.48383400  0.72350800  0.78294400  1
  N  N16  1  0.96803500  0.21174400  0.80118000  1
  N  N17  1  0.03196500  0.78825600  0.19882000  1
  N  N18  1  0.96803500  0.78825600  0.69882000  1
  N  N19  1  0.03196500  0.21174400  0.30118000  1
  N  N20  1  0.91151100  0.75397900  0.77515900  1
  N  N21  1  0.08848900  0.24602100  0.22484100  1
  N  N22  1  0.91151100  0.24602100  0.72484100  1
  N  N23  1  0.08848900  0.75397900  0.27515900  1
  O  O0  1  0.68457300  0.50000000  0.75000000  1
  O  O1  1  0.31542700  0.50000000  0.25000000  1
  O  O2  1  0.90795900  0.41380900  0.47560600  1
  O  O3  1  0.09204100  0.58619100  0.52439400  1
  O  O4  1  0.90795900  0.58619100  0.02439400  1
  O  O5  1  0.09204100  0.41380900  0.97560600  1
  O  O6  1  0.67624400  0.19318900  0.20875800  1
  O  O7  1  0.32375600  0.80681100  0.79124200  1
  O  O8  1  0.67624400  0.80681100  0.29124200  1
  O  O9  1  0.32375600  0.19318900  0.70875800  1
loop_
_geom_bond_atom_site_label_1
_geom_bond_atom_site_label_2
_geom_bond_distance
_geom_bond_site_symmetry_2
H0 O0 0.978121 1_555
H1 O1 0.978121 1_555
H2 O0 0.978121 1_555
H3 O1 0.978121 1_555
H4 O2 0.969930 1_555
H5 O3 0.969930 1_555
H6 O4 0.969930 1_555
H7 O5 0.969930 1_555
H8 O9 0.979883 1_555
H9 O8 0.979883 1_555
H10 O7 0.979883 1_555
H11 O6 0.979883 1_555
H12 N14 1.027691 1_555
H13 N15 1.027691 1_555
H14 N12 1.027691 1_555
H15 N13 1.027691 1_555
H16 N14 1.025319 1_555
H17 N15 1.025319 1_555
H18 N12 1.025319 1_555
H19 N13 1.025319 1_555
N0 N6 1.222550 1_555
N0 N8 1.624927 1_555
N1 N7 1.222550 1_555
N1 N9 1.624927 1_555
N2 N4 1.222550 1_556
N3 N5 1.222550 1_554
N6 N8 1.459254 1_555
N7 N9 1.459254 1_555
N8 Zn1 1.913347 1_555
N9 Zn0 1.913347 1_555
N10 N4 1.459254 1_555
N10 N2 1.624927 1_554
N10 Zn3 1.913347 1_554
N11 N5 1.459254 1_555
N11 N3 1.624927 1_556
N11 Zn2 1.913347 1_556
N12 O8 1.464005 1_555
N13 O9 1.464005 1_555
N14 O6 1.464005 1_555
N15 O7 1.464005 1_555
N16 N22 1.115587 1_555
N17 N23 1.115587 1_555
N18 N20 1.115587 1_555
N19 N21 1.115587 1_555
O2 Zn0 1.874600 1_555
O2 Zn1 2.074981 1_655
O3 Zn1 1.874600 1_555
O3 Zn0 2.074981 1_455
O4 Zn2 1.874600 1_555
O4 Zn3 2.074981 1_654
O5 Zn3 1.874600 1_555
O5 Zn2 2.074981 1_456
