# generated using pymatgen
data_Li5V(PO4)3
_symmetry_space_group_name_H-M   'P 1'
_cell_length_a   8.51153500
_cell_length_b   8.56546293
_cell_length_c   8.58421616
_cell_angle_alpha   62.66639648
_cell_angle_beta   62.22763341
_cell_angle_gamma   62.65724062
_symmetry_Int_Tables_number   1
_chemical_formula_structural   Li5V(PO4)3
_chemical_formula_sum   'Li10 V2 P6 O24'
_cell_volume   467.33531969
_cell_formula_units_Z   2
loop_
 _symmetry_equiv_pos_site_id
 _symmetry_equiv_pos_as_xyz
  1  'x, y, z'
loop_
 _atom_site_type_symbol
 _atom_site_label
 _atom_site_symmetry_multiplicity
 _atom_site_fract_x
 _atom_site_fract_y
 _atom_site_fract_z
 _atom_site_occupancy
  Li  Li0  1  0.49039000  0.10110400  0.79927700  1
  Li  Li1  1  0.57990100  0.99500200  0.41632100  1
  Li  Li2  1  0.99443100  0.41859000  0.57992100  1
  Li  Li3  1  0.39959000  0.41063000  0.40926300  1
  Li  Li4  1  0.26210100  0.27287600  0.25439300  1
  Li  Li5  1  0.59655600  0.58681200  0.59588400  1
  Li  Li6  1  0.74699900  0.73434400  0.72309400  1
  Li  Li7  1  0.20170300  0.90244500  0.50354300  1
  Li  Li8  1  0.79944400  0.50490800  0.10185200  1
  Li  Li9  1  0.41252900  0.57101700  0.99093400  1
  V  V0  1  0.09898500  0.10969200  0.11314200  1
  V  V1  1  0.89442100  0.88879500  0.89949800  1
  P  P0  1  0.28864500  0.00148500  0.71104600  1
  P  P1  1  0.19157400  0.49801300  0.81040600  1
  P  P2  1  0.80659700  0.19314500  0.51102400  1
  P  P3  1  0.71457500  0.28897600  0.99835500  1
  P  P4  1  0.00129500  0.70981000  0.28517500  1
  P  P5  1  0.49733600  0.80652700  0.19904800  1
  O  O0  1  0.80204100  0.13098700  0.91263300  1
  O  O1  1  0.22797700  0.09350900  0.85777000  1
  O  O2  1  0.28981100  0.14355200  0.51794100  1
  O  O3  1  0.70721600  0.47997100  0.85121700  1
  O  O4  1  0.62896000  0.21527700  0.48781900  1
  O  O5  1  0.35420300  0.54402600  0.79011100  1
  O  O6  1  0.99835300  0.15284100  0.34966000  1
  O  O7  1  0.99136400  0.65009600  0.85572200  1
  O  O8  1  0.21123700  0.45938200  0.64513400  1
  O  O9  1  0.79714300  0.35596600  0.54715300  1
  O  O10  1  0.33012000  0.98882600  0.17162400  1
  O  O11  1  0.65150300  0.85524400  0.00395200  1
  O  O12  1  0.84883400  0.25291200  0.09762800  1
  O  O13  1  0.14933300  0.90041000  0.76447300  1
  O  O14  1  0.48609400  0.86383400  0.70521500  1
  O  O15  1  0.52179400  0.28437200  0.14121100  1
  O  O16  1  0.15829700  0.52568700  0.28556400  1
  O  O17  1  0.85504100  0.70546600  0.47737400  1
  O  O18  1  0.16448100  0.33317600  0.00032600  1
  O  O19  1  0.83986100  0.00006800  0.66827400  1
  O  O20  1  0.51803000  0.79318400  0.37353400  1
  O  O21  1  0.48777600  0.62729000  0.21015700  1
  O  O22  1  0.07852200  0.87242100  0.21497800  1
  O  O23  1  0.90675700  0.75925400  0.14389400  1
loop_
_geom_bond_atom_site_label_1
_geom_bond_atom_site_label_2
_geom_bond_distance
_geom_bond_site_symmetry_2
Li0 O1 2.074459 1_555
Li0 O4 2.283734 1_555
Li0 O11 2.365777 1_546
Li0 O19 2.504622 1_555
Li0 O14 2.527141 1_545
Li1 O14 2.114217 1_555
Li1 O2 2.145344 1_565
Li1 O20 2.236093 1_555
Li1 O4 2.477282 1_565
Li1 O17 2.554289 1_555
Li1 O15 2.559707 1_565
Li2 O17 2.128202 1_555
Li2 O9 2.143091 1_555
Li2 O16 2.221259 1_655
Li2 O8 2.361232 1_655
Li2 O3 2.512845 1_555
Li2 O2 2.572445 1_655
Li3 O8 1.995156 1_555
Li3 O21 2.024800 1_555
Li3 O4 2.062962 1_555
Li3 O16 2.351334 1_555
Li3 O2 2.483562 1_555
Li3 O15 2.562732 1_555
Li4 O15 1.987510 1_555
Li4 O16 2.023763 1_555
Li4 O2 2.087285 1_555
Li4 O18 2.444145 1_555
Li4 O6 2.530359 1_455
Li4 O10 2.582595 1_545
Li5 O9 1.998119 1_555
Li5 O5 2.024223 1_555
Li5 O20 2.054175 1_555
Li5 O3 2.412222 1_555
Li5 O17 2.434555 1_555
Li5 O14 2.562901 1_555
Li6 O17 1.954115 1_555
Li6 O14 2.020872 1_555
Li6 O3 2.049776 1_555
Li6 O7 2.493298 1_555
Li6 O19 2.519708 1_565
Li7 O13 2.063223 1_555
Li7 O20 2.283579 1_555
Li7 O6 2.336549 1_465
Li7 O10 2.401056 1_555
Li7 O2 2.566362 1_565
Li7 O19 2.616428 1_465
Li8 O12 2.015222 1_555
Li8 O7 2.217165 1_554
Li8 O21 2.245551 1_555
Li9 O5 2.130907 1_555
Li9 O3 2.143941 1_555
Li9 O15 2.160806 1_556
Li9 O16 2.449417 1_556
Li9 O21 2.534504 1_556
Li9 O14 2.657165 1_555
O0 P3 1.550963 1_555
O0 V1 1.888975 1_545
O1 P0 1.551136 1_555
O1 V0 1.981546 1_556
O2 P0 1.540137 1_555
O3 P3 1.535457 1_555
O4 P2 1.531126 1_555
O5 P1 1.521553 1_555
O6 P2 1.586329 1_555
O6 V0 1.941679 1_655
O7 P1 1.600176 1_655
O7 V1 1.967020 1_555
O8 P1 1.519625 1_555
O9 P2 1.522674 1_555
O10 P5 1.566024 1_555
O10 V0 1.940690 1_565
O11 P5 1.585560 1_555
O11 V1 1.934697 1_554
O12 P3 1.571312 1_554
O12 V0 1.941859 1_655
O13 P0 1.561249 1_565
O13 V1 1.951842 1_455
O14 P0 1.540324 1_565
O15 P3 1.528932 1_554
O16 P4 1.528504 1_555
O17 P4 1.531430 1_655
O18 P1 1.593559 1_554
O18 V0 1.920341 1_555
O19 P2 1.585328 1_555
O19 V1 1.943938 1_545
O20 P5 1.535491 1_555
O21 P5 1.531593 1_555
O22 P4 1.560873 1_555
O22 V0 1.864576 1_565
O23 P4 1.556408 1_655
O23 V1 1.898443 1_554
