# generated using pymatgen
data_KBaP3O10
_symmetry_space_group_name_H-M   'P 1'
_cell_length_a   17.55642400
_cell_length_b   7.22662800
_cell_length_c   9.77586387
_cell_angle_alpha   50.26604196
_cell_angle_beta   90.00000000
_cell_angle_gamma   90.00000000
_symmetry_Int_Tables_number   1
_chemical_formula_structural   KBaP3O10
_chemical_formula_sum   'K4 Ba4 P12 O40'
_cell_volume   953.81689767
_cell_formula_units_Z   4
loop_
 _symmetry_equiv_pos_site_id
 _symmetry_equiv_pos_as_xyz
  1  'x, y, z'
loop_
 _atom_site_type_symbol
 _atom_site_label
 _atom_site_symmetry_multiplicity
 _atom_site_fract_x
 _atom_site_fract_y
 _atom_site_fract_z
 _atom_site_occupancy
  K  K0  1  0.75544400  0.89322400  0.61129900  1
  K  K1  1  0.74455600  0.89322400  0.11129900  1
  K  K2  1  0.24455600  0.10677600  0.38870100  1
  K  K3  1  0.25544400  0.10677600  0.88870100  1
  Ba  Ba0  1  0.95452100  0.07393300  0.77209700  1
  Ba  Ba1  1  0.54547900  0.07393300  0.27209700  1
  Ba  Ba2  1  0.04547900  0.92606700  0.22790300  1
  Ba  Ba3  1  0.45452100  0.92606700  0.72790300  1
  P  P0  1  0.60727600  0.46225200  0.73863600  1
  P  P1  1  0.89272400  0.46225200  0.23863600  1
  P  P2  1  0.39272400  0.53774800  0.26136400  1
  P  P3  1  0.10727600  0.53774800  0.76136400  1
  P  P4  1  0.75216900  0.38225400  0.62241300  1
  P  P5  1  0.74783100  0.38225400  0.12241300  1
  P  P6  1  0.24783100  0.61774600  0.37758700  1
  P  P7  1  0.25216900  0.61774600  0.87758700  1
  P  P8  1  0.89491800  0.42373200  0.96143400  1
  P  P9  1  0.60508200  0.42373200  0.46143400  1
  P  P10  1  0.10508200  0.57626800  0.03856600  1
  P  P11  1  0.39491800  0.57626800  0.53856600  1
  O  O0  1  0.69608900  0.37584300  0.75982600  1
  O  O1  1  0.80391100  0.37584300  0.25982600  1
  O  O2  1  0.30391100  0.62415700  0.24017400  1
  O  O3  1  0.19608900  0.62415700  0.74017400  1
  O  O4  1  0.57057500  0.36467500  0.64164200  1
  O  O5  1  0.92942500  0.36467500  0.14164200  1
  O  O6  1  0.42942500  0.63532500  0.35835800  1
  O  O7  1  0.07057500  0.63532500  0.85835800  1
  O  O8  1  0.69223500  0.32422600  0.52613900  1
  O  O9  1  0.80776500  0.32422600  0.02613900  1
  O  O10  1  0.30776500  0.67577400  0.47386100  1
  O  O11  1  0.19223500  0.67577400  0.97386100  1
  O  O12  1  0.57392500  0.31042900  0.92222900  1
  O  O13  1  0.92607500  0.31042900  0.42222900  1
  O  O14  1  0.42607500  0.68957100  0.07777100  1
  O  O15  1  0.07392500  0.68957100  0.57777100  1
  O  O16  1  0.60443100  0.73097500  0.61948200  1
  O  O17  1  0.89556900  0.73097500  0.11948200  1
  O  O18  1  0.39556900  0.26902500  0.38051800  1
  O  O19  1  0.10443100  0.26902500  0.88051800  1
  O  O20  1  0.78497600  0.63115200  0.48833100  1
  O  O21  1  0.71502400  0.63115200  0.98833100  1
  O  O22  1  0.21502400  0.36884800  0.51166900  1
  O  O23  1  0.28497600  0.36884800  0.01166900  1
  O  O24  1  0.80264900  0.16685000  0.73460600  1
  O  O25  1  0.69735100  0.16685000  0.23460600  1
  O  O26  1  0.19735100  0.83315000  0.26539400  1
  O  O27  1  0.30264900  0.83315000  0.76539400  1
  O  O28  1  0.93512300  0.25432700  0.94763300  1
  O  O29  1  0.56487700  0.25432700  0.44763300  1
  O  O30  1  0.06487700  0.74567300  0.05236700  1
  O  O31  1  0.43512300  0.74567300  0.55236700  1
  O  O32  1  0.60771400  0.68950300  0.31147800  1
  O  O33  1  0.89228600  0.68950300  0.81147800  1
  O  O34  1  0.39228600  0.31049700  0.68852200  1
  O  O35  1  0.10771400  0.31049700  0.18852200  1
  O  O36  1  0.07681000  0.41090600  0.50578500  1
  O  O37  1  0.42319000  0.41090600  0.00578500  1
  O  O38  1  0.92319000  0.58909400  0.49421500  1
  O  O39  1  0.57681000  0.58909400  0.99421500  1
loop_
_geom_bond_atom_site_label_1
_geom_bond_atom_site_label_2
_geom_bond_distance
_geom_bond_site_symmetry_2
K0 O33 2.843508 1_555
K0 O20 2.865550 1_555
K0 O16 2.879304 1_555
K0 O8 2.882850 1_565
K0 O21 2.958272 1_555
K0 O24 3.016174 1_565
K0 O25 3.033440 1_565
K0 O1 3.061620 1_565
K0 O0 3.198934 1_555
K1 O32 2.843508 1_555
K1 O21 2.865550 1_554
K1 O17 2.879304 1_555
K1 O9 2.882850 1_565
K1 O20 2.958272 1_555
K1 O25 3.016174 1_565
K1 O24 3.033440 1_564
K1 O0 3.061620 1_564
K1 O1 3.198934 1_555
K2 O35 2.843508 1_555
K2 O22 2.865550 1_555
K2 O18 2.879304 1_555
K2 O10 2.882850 1_545
K2 O23 2.958272 1_555
K2 O26 3.016174 1_545
K2 O27 3.033440 1_545
K2 O3 3.061620 1_545
K2 O2 3.198934 1_555
K3 O34 2.843508 1_555
K3 O23 2.865550 1_556
K3 O19 2.879304 1_555
K3 O11 2.882850 1_545
K3 O22 2.958272 1_555
K3 O27 3.016174 1_545
K3 O26 3.033440 1_546
K3 O2 3.061620 1_546
K3 O3 3.198934 1_555
Ba0 O24 2.716596 1_555
Ba0 O13 2.719449 1_555
Ba0 O28 2.760461 1_555
Ba0 O33 2.773575 1_545
Ba0 O17 2.825989 1_546
Ba0 O30 2.928943 1_646
Ba0 O38 2.934721 1_555
Ba0 O36 3.035168 1_655
Ba1 O25 2.716596 1_555
Ba1 O12 2.719449 1_554
Ba1 O29 2.760461 1_555
Ba1 O32 2.773575 1_545
Ba1 O16 2.825989 1_545
Ba1 O31 2.928943 1_545
Ba1 O39 2.934721 1_554
Ba1 O37 3.035168 1_555
Ba2 O26 2.716596 1_555
Ba2 O15 2.719449 1_555
Ba2 O30 2.760461 1_555
Ba2 O35 2.773575 1_565
Ba2 O19 2.825989 1_564
Ba2 O28 2.928943 1_464
Ba2 O36 2.934721 1_555
Ba2 O38 3.035168 1_455
Ba3 O27 2.716596 1_555
Ba3 O14 2.719449 1_556
Ba3 O31 2.760461 1_555
Ba3 O34 2.773575 1_565
Ba3 O18 2.825989 1_565
Ba3 O29 2.928943 1_565
Ba3 O37 2.934721 1_556
Ba3 O39 3.035168 1_555
O0 P4 1.642098 1_555
O0 P0 1.642771 1_555
O1 P5 1.642098 1_555
O1 P1 1.642771 1_555
O2 P6 1.642098 1_555
O2 P2 1.642771 1_555
O3 P7 1.642098 1_555
O3 P3 1.642771 1_555
O4 P0 1.632880 1_555
O4 P9 1.640578 1_555
O5 P1 1.632880 1_555
O5 P8 1.640578 1_554
O6 P2 1.632880 1_555
O6 P11 1.640578 1_555
O7 P3 1.632880 1_555
O7 P10 1.640578 1_556
O8 P4 1.635049 1_555
O8 P9 1.636119 1_555
O9 P5 1.635049 1_555
O9 P8 1.636119 1_554
O10 P6 1.635049 1_555
O10 P11 1.636119 1_555
O11 P7 1.635049 1_555
O11 P10 1.636119 1_556
O12 P0 1.500122 1_555
O13 P1 1.500122 1_555
O14 P2 1.500122 1_555
O15 P3 1.500122 1_555
O16 P0 1.496201 1_555
O17 P1 1.496201 1_555
O18 P2 1.496201 1_555
O19 P3 1.496201 1_555
O20 P4 1.506983 1_555
O21 P5 1.506983 1_556
O22 P6 1.506983 1_555
O23 P7 1.506983 1_554
O24 P4 1.492922 1_555
O25 P5 1.492922 1_555
O26 P6 1.492922 1_555
O27 P7 1.492922 1_555
O28 P8 1.492088 1_555
O29 P9 1.492088 1_555
O30 P10 1.492088 1_555
O31 P11 1.492088 1_555
O32 P9 1.496807 1_555
O33 P8 1.496807 1_555
O34 P11 1.496807 1_555
O35 P10 1.496807 1_555
