# generated using pymatgen
data_HoBO3
_symmetry_space_group_name_H-M   'P 1'
_cell_length_a   3.92809569
_cell_length_b   3.92809569
_cell_length_c   8.61853900
_cell_angle_alpha   90.00000000
_cell_angle_beta   90.00000000
_cell_angle_gamma   116.97263901
_symmetry_Int_Tables_number   1
_chemical_formula_structural   HoBO3
_chemical_formula_sum   'Ho2 B2 O6'
_cell_volume   118.51798572
_cell_formula_units_Z   2
loop_
 _symmetry_equiv_pos_site_id
 _symmetry_equiv_pos_as_xyz
  1  'x, y, z'
loop_
 _atom_site_type_symbol
 _atom_site_label
 _atom_site_symmetry_multiplicity
 _atom_site_fract_x
 _atom_site_fract_y
 _atom_site_fract_z
 _atom_site_occupancy
  Ho  Ho0  1  0.05374900  0.05374900  0.00000000  1
  Ho  Ho1  1  0.05374900  0.05374900  0.50000000  1
  B  B0  1  0.50132100  0.75885800  0.25000000  1
  B  B1  1  0.75885800  0.50132100  0.75000000  1
  O  O0  1  0.33320900  0.67402400  0.10304900  1
  O  O1  1  0.33320900  0.67402400  0.39695100  1
  O  O2  1  0.89309700  0.96274000  0.25000000  1
  O  O3  1  0.67402400  0.33320900  0.60304900  1
  O  O4  1  0.67402400  0.33320900  0.89695100  1
  O  O5  1  0.96274000  0.89309700  0.75000000  1
loop_
_geom_bond_atom_site_label_1
_geom_bond_atom_site_label_2
_geom_bond_distance
_geom_bond_site_symmetry_2
Ho0 O5 2.227967 1_444
Ho0 O2 2.227967 1_445
Ho0 O0 2.346080 1_555
Ho0 O4 2.346080 1_554
Ho0 O0 2.388307 1_545
Ho0 O4 2.388307 1_454
Ho0 O0 2.682322 1_445
Ho0 O4 2.682322 1_444
Ho1 O5 2.227967 1_445
Ho1 O2 2.227967 1_445
Ho1 O3 2.346080 1_555
Ho1 O1 2.346080 1_555
Ho1 O3 2.388307 1_455
Ho1 O1 2.388307 1_545
Ho1 O3 2.682322 1_445
Ho1 O1 2.682322 1_445
B0 O2 1.375385 1_555
B0 O0 1.396972 1_555
B0 O1 1.396972 1_555
B1 O5 1.375385 1_555
B1 O4 1.396972 1_555
B1 O3 1.396972 1_555
