# generated using pymatgen
data_Li2MnCSO7
_symmetry_space_group_name_H-M   'P 1'
_cell_length_a   8.19305414
_cell_length_b   8.19382061
_cell_length_c   9.94467784
_cell_angle_alpha   103.39313108
_cell_angle_beta   103.36960356
_cell_angle_gamma   105.65611519
_symmetry_Int_Tables_number   1
_chemical_formula_structural   Li2MnCSO7
_chemical_formula_sum   'Li8 Mn4 C4 S4 O28'
_cell_volume   593.81473812
_cell_formula_units_Z   4
loop_
 _symmetry_equiv_pos_site_id
 _symmetry_equiv_pos_as_xyz
  1  'x, y, z'
loop_
 _atom_site_type_symbol
 _atom_site_label
 _atom_site_symmetry_multiplicity
 _atom_site_fract_x
 _atom_site_fract_y
 _atom_site_fract_z
 _atom_site_occupancy
  Li  Li0  1  0.44777600  0.93300500  0.16957700  1
  Li  Li1  1  0.94776700  0.43300600  0.16957900  1
  Li  Li2  1  0.68293700  0.69775600  0.16962300  1
  Li  Li3  1  0.18287300  0.19774100  0.16957200  1
  Li  Li4  1  0.05224200  0.56702600  0.83040900  1
  Li  Li5  1  0.55225800  0.06700100  0.83043800  1
  Li  Li6  1  0.81709300  0.80226300  0.83039000  1
  Li  Li7  1  0.31711600  0.30225500  0.83044700  1
  Mn  Mn0  1  0.43299600  0.68285900  0.36268500  1
  Mn  Mn1  1  0.06731000  0.81696000  0.63733100  1
  Mn  Mn2  1  0.93280700  0.18300300  0.36277700  1
  Mn  Mn3  1  0.56701600  0.31691200  0.63724800  1
  C  C0  1  0.77693600  0.02700700  0.07437100  1
  C  C1  1  0.27696900  0.52704300  0.07436600  1
  C  C2  1  0.72304700  0.47299400  0.92563000  1
  C  C3  1  0.22307800  0.97302500  0.92562400  1
  S  S0  1  0.70750300  0.45754000  0.40314000  1
  S  S1  1  0.20745300  0.95751700  0.40310900  1
  S  S2  1  0.79249800  0.04244000  0.59687600  1
  S  S3  1  0.29250900  0.54247200  0.59686500  1
  O  O0  1  0.30512700  0.05512100  0.06134900  1
  O  O1  1  0.80509100  0.55511300  0.06137300  1
  O  O2  1  0.19493700  0.44495000  0.93863900  1
  O  O3  1  0.69490600  0.94488100  0.93863500  1
  O  O4  1  0.91948200  0.16953700  0.12025100  1
  O  O5  1  0.41954100  0.66954600  0.12027700  1
  O  O6  1  0.58049700  0.33048500  0.87975900  1
  O  O7  1  0.08051500  0.83050000  0.87973300  1
  O  O8  1  0.72093400  0.97112500  0.17543600  1
  O  O9  1  0.22095600  0.47113400  0.17542500  1
  O  O10  1  0.77904600  0.52887500  0.82455900  1
  O  O11  1  0.27907100  0.02890900  0.82455500  1
  O  O12  1  0.67592200  0.92549400  0.44878800  1
  O  O13  1  0.17588300  0.42553600  0.44879000  1
  O  O14  1  0.82410800  0.57457200  0.55118200  1
  O  O15  1  0.32400100  0.07441800  0.55120700  1
  O  O16  1  0.56379200  0.31344400  0.42004300  1
  O  O17  1  0.06368900  0.81342300  0.41995400  1
  O  O18  1  0.93620900  0.18657800  0.58003000  1
  O  O19  1  0.43624400  0.68657700  0.57998300  1
  O  O20  1  0.62567500  0.55911400  0.31844100  1
  O  O21  1  0.12571800  0.05922700  0.31849200  1
  O  O22  1  0.80963000  0.37628900  0.31867500  1
  O  O23  1  0.30964900  0.87627500  0.31867700  1
  O  O24  1  0.69028600  0.12365800  0.68130600  1
  O  O25  1  0.19037600  0.62375200  0.68133000  1
  O  O26  1  0.87429800  0.94080900  0.68152600  1
  O  O27  1  0.37423800  0.44083200  0.68152700  1
loop_
_geom_bond_atom_site_label_1
_geom_bond_atom_site_label_2
_geom_bond_distance
_geom_bond_site_symmetry_2
Li0 O0 2.018384 1_565
Li0 O5 2.035126 1_555
Li0 O23 2.122904 1_555
Li0 O8 2.159530 1_555
Li1 O1 2.018345 1_555
Li1 O4 2.035104 1_555
Li1 O22 2.122896 1_555
Li1 O9 2.159804 1_655
Li2 O1 2.018239 1_555
Li2 O5 2.034640 1_555
Li2 O20 2.124419 1_555
Li2 O8 2.161690 1_555
Li3 O0 2.018625 1_555
Li3 O4 2.034619 1_455
Li3 O21 2.124427 1_555
Li3 O9 2.161687 1_555
Li4 O2 2.018362 1_555
Li4 O7 2.035167 1_555
Li4 O25 2.122750 1_555
Li4 O10 2.159825 1_455
Li5 O3 2.018246 1_545
Li5 O6 2.035312 1_555
Li5 O24 2.122524 1_555
Li5 O11 2.159739 1_555
Li6 O3 2.018302 1_555
Li6 O7 2.034798 1_655
Li6 O26 2.124206 1_555
Li6 O10 2.161742 1_555
Li7 O2 2.018352 1_555
Li7 O6 2.034493 1_555
Li7 O27 2.124692 1_555
Li7 O11 2.161254 1_555
Mn0 O19 2.147987 1_555
Mn0 O20 2.166149 1_555
Mn0 O23 2.169254 1_555
Mn0 O9 2.208209 1_555
Mn0 O12 2.221404 1_555
Mn0 O5 2.363084 1_555
Mn1 O17 2.148421 1_555
Mn1 O25 2.166273 1_555
Mn1 O26 2.169008 1_455
Mn1 O11 2.207866 1_565
Mn1 O14 2.221531 1_455
Mn1 O7 2.363063 1_555
Mn2 O18 2.147518 1_555
Mn2 O22 2.167680 1_555
Mn2 O21 2.168128 1_655
Mn2 O8 2.208551 1_545
Mn2 O13 2.221654 1_655
Mn2 O4 2.364218 1_555
Mn3 O16 2.147562 1_555
Mn3 O24 2.167798 1_555
Mn3 O27 2.167858 1_555
Mn3 O10 2.209159 1_555
Mn3 O15 2.221183 1_555
Mn3 O6 2.363633 1_555
C0 O3 1.281470 1_544
C0 O4 1.306374 1_555
C0 O8 1.320377 1_545
C1 O2 1.281362 1_554
C1 O5 1.306350 1_555
C1 O9 1.320455 1_555
C2 O1 1.281534 1_556
C2 O6 1.306300 1_555
C2 O10 1.320417 1_555
C3 O0 1.281369 1_566
C3 O7 1.306423 1_555
C3 O11 1.320389 1_565
O12 S2 1.483595 1_565
O13 S3 1.483584 1_555
O14 S0 1.483505 1_555
O15 S1 1.483520 1_545
O16 S0 1.497264 1_555
O17 S1 1.497240 1_555
O18 S2 1.497201 1_555
O19 S3 1.497327 1_555
O20 S0 1.488756 1_555
O21 S1 1.488820 1_545
O22 S0 1.488470 1_555
O23 S1 1.488702 1_555
O24 S2 1.488704 1_555
O25 S3 1.488621 1_555
O26 S2 1.488739 1_565
O27 S3 1.488596 1_555
