# generated using pymatgen
data_RbH2O2F
_symmetry_space_group_name_H-M   'P 1'
_cell_length_a   12.20790800
_cell_length_b   12.20790800
_cell_length_c   4.49138300
_cell_angle_alpha   90.00000000
_cell_angle_beta   90.00000000
_cell_angle_gamma   90.00000000
_symmetry_Int_Tables_number   1
_chemical_formula_structural   RbH2O2F
_chemical_formula_sum   'Rb8 H16 O16 F8'
_cell_volume   669.36436230
_cell_formula_units_Z   8
loop_
 _symmetry_equiv_pos_site_id
 _symmetry_equiv_pos_as_xyz
  1  'x, y, z'
loop_
 _atom_site_type_symbol
 _atom_site_label
 _atom_site_symmetry_multiplicity
 _atom_site_fract_x
 _atom_site_fract_y
 _atom_site_fract_z
 _atom_site_occupancy
  Rb  Rb0  1  0.00000000  0.00000000  0.00000000  1
  Rb  Rb1  1  0.50000000  0.00000000  0.73411400  1
  Rb  Rb2  1  0.73643400  0.23643400  0.75218600  1
  Rb  Rb3  1  0.23643400  0.26356600  0.24781400  1
  Rb  Rb4  1  0.50000000  0.50000000  0.00000000  1
  Rb  Rb5  1  0.00000000  0.50000000  0.26588600  1
  Rb  Rb6  1  0.76356600  0.73643400  0.24781400  1
  Rb  Rb7  1  0.26356600  0.76356600  0.75218600  1
  H  H0  1  0.71503700  0.04036400  0.27154800  1
  H  H1  1  0.25789300  0.06969800  0.69377300  1
  H  H2  1  0.54036400  0.21503700  0.27154800  1
  H  H3  1  0.43030200  0.24210700  0.69377300  1
  H  H4  1  0.93030200  0.25789300  0.30622700  1
  H  H5  1  0.04036400  0.28496300  0.72845200  1
  H  H6  1  0.75789300  0.43030200  0.30622700  1
  H  H7  1  0.21503700  0.45963600  0.72845200  1
  H  H8  1  0.78496300  0.54036400  0.72845200  1
  H  H9  1  0.24210700  0.56969800  0.30622700  1
  H  H10  1  0.95963600  0.71503700  0.72845200  1
  H  H11  1  0.06969800  0.74210700  0.30622700  1
  H  H12  1  0.56969800  0.75789300  0.69377300  1
  H  H13  1  0.45963600  0.78496300  0.27154800  1
  H  H14  1  0.74210700  0.93030200  0.69377300  1
  H  H15  1  0.28496300  0.95963600  0.27154800  1
  O  O0  1  0.21215400  0.00298500  0.63894400  1
  O  O1  1  0.21750200  0.00701400  0.31094300  1
  O  O2  1  0.99701500  0.21215400  0.36105600  1
  O  O3  1  0.99298600  0.21750200  0.68905700  1
  O  O4  1  0.49298600  0.28249800  0.31094300  1
  O  O5  1  0.49701500  0.28784600  0.63894400  1
  O  O6  1  0.71750200  0.49298600  0.68905700  1
  O  O7  1  0.71215400  0.49701500  0.36105600  1
  O  O8  1  0.28784600  0.50298500  0.36105600  1
  O  O9  1  0.28249800  0.50701400  0.68905700  1
  O  O10  1  0.50298500  0.71215400  0.63894400  1
  O  O11  1  0.50701400  0.71750200  0.31094300  1
  O  O12  1  0.00701400  0.78249800  0.68905700  1
  O  O13  1  0.00298500  0.78784600  0.36105600  1
  O  O14  1  0.78249800  0.99298600  0.31094300  1
  O  O15  1  0.78784600  0.99701500  0.63894400  1
  F  F0  1  0.61356000  0.11356000  0.22748200  1
  F  F1  1  0.33339000  0.16661000  0.75819100  1
  F  F2  1  0.83339000  0.33339000  0.24180900  1
  F  F3  1  0.11356000  0.38644000  0.77251800  1
  F  F4  1  0.88644000  0.61356000  0.77251800  1
  F  F5  1  0.16661000  0.66661000  0.24180900  1
  F  F6  1  0.66661000  0.83339000  0.75819100  1
  F  F7  1  0.38644000  0.88644000  0.22748200  1
loop_
_geom_bond_atom_site_label_1
_geom_bond_atom_site_label_2
_geom_bond_distance
_geom_bond_site_symmetry_2
H0 O14 1.021805 1_545
H1 O0 1.017703 1_555
H2 O4 1.021805 1_555
H3 O5 1.017703 1_555
H4 O2 1.017703 1_555
H5 O3 1.021805 1_455
H6 O7 1.017703 1_555
H7 O9 1.021805 1_555
H8 O6 1.021805 1_555
H9 O8 1.017703 1_555
H10 O12 1.021805 1_655
H11 O13 1.017703 1_555
H12 O10 1.017703 1_555
H13 O11 1.021805 1_555
H14 O15 1.017703 1_555
H15 O1 1.021805 1_565
O0 Rb7 3.032392 1_545
O0 Rb0 3.055965 1_556
O1 Rb0 3.001341 1_555
O1 Rb3 3.153253 1_555
O2 Rb3 3.032392 1_655
O2 Rb0 3.055965 1_655
O3 Rb0 3.001341 1_656
O3 Rb2 3.153253 1_555
O4 Rb4 3.001341 1_555
O4 Rb3 3.153253 1_555
O5 Rb2 3.032392 1_555
O5 Rb4 3.055965 1_556
O6 Rb4 3.001341 1_556
O6 Rb2 3.153253 1_555
O7 Rb6 3.032392 1_555
O7 Rb4 3.055965 1_555
O8 Rb3 3.032392 1_555
O8 Rb4 3.055965 1_555
O9 Rb4 3.001341 1_556
O9 Rb7 3.153253 1_555
O10 Rb7 3.032392 1_555
O10 Rb4 3.055965 1_556
O11 Rb4 3.001341 1_555
O11 Rb6 3.153253 1_555
O12 Rb0 3.001341 1_566
O12 Rb7 3.153253 1_555
O13 Rb6 3.032392 1_455
O13 Rb0 3.055965 1_565
O14 Rb0 3.001341 1_665
O14 Rb6 3.153253 1_555
O15 Rb2 3.032392 1_565
O15 Rb0 3.055965 1_666
F0 H0 1.540233 1_555
F0 H2 1.540233 1_555
F0 Rb1 2.958725 1_554
F0 Rb1 3.003602 1_555
F0 Rb2 3.009536 1_554
F0 Rb2 3.170803 1_555
F1 H3 1.527376 1_555
F1 H1 1.527376 1_555
F1 Rb3 2.763681 1_556
F1 Rb3 2.838414 1_555
F1 Rb1 2.878485 1_555
F2 H6 1.527376 1_555
F2 H4 1.527376 1_555
F2 Rb2 2.763681 1_554
F2 Rb2 2.838414 1_555
F2 Rb5 2.878485 1_655
F3 H7 1.540233 1_555
F3 H5 1.540233 1_555
F3 Rb5 2.958725 1_556
F3 Rb5 3.003602 1_555
F3 Rb3 3.009536 1_556
F3 Rb3 3.170803 1_555
F4 H10 1.540233 1_555
F4 H8 1.540233 1_555
F4 Rb5 2.958725 1_656
F4 Rb5 3.003602 1_655
F4 Rb6 3.009536 1_556
F4 Rb6 3.170803 1_555
F5 H11 1.527376 1_555
F5 H9 1.527376 1_555
F5 Rb7 2.763681 1_554
F5 Rb7 2.838414 1_555
F5 Rb5 2.878485 1_555
F6 H14 1.527376 1_555
F6 H12 1.527376 1_555
F6 Rb6 2.763681 1_556
F6 Rb6 2.838414 1_555
F6 Rb1 2.878485 1_565
F7 H13 1.540233 1_555
F7 H15 1.540233 1_555
F7 Rb1 2.958725 1_564
F7 Rb1 3.003602 1_565
F7 Rb7 3.009536 1_554
F7 Rb7 3.170803 1_555
