# generated using pymatgen
data_TiP2O7
_symmetry_space_group_name_H-M   'P 1'
_cell_length_a   8.13196510
_cell_length_b   7.12151822
_cell_length_c   9.38073496
_cell_angle_alpha   70.39509435
_cell_angle_beta   90.00018843
_cell_angle_gamma   90.00010581
_symmetry_Int_Tables_number   1
_chemical_formula_structural   TiP2O7
_chemical_formula_sum   'Ti4 P8 O28'
_cell_volume   511.76326563
_cell_formula_units_Z   4
loop_
 _symmetry_equiv_pos_site_id
 _symmetry_equiv_pos_as_xyz
  1  'x, y, z'
loop_
 _atom_site_type_symbol
 _atom_site_label
 _atom_site_symmetry_multiplicity
 _atom_site_fract_x
 _atom_site_fract_y
 _atom_site_fract_z
 _atom_site_occupancy
  Ti  Ti0  1  0.50834799  0.71983092  0.74400974  1
  Ti  Ti1  1  0.99164769  0.71983128  0.24401139  1
  Ti  Ti2  1  0.00835457  0.28017147  0.75598629  1
  Ti  Ti3  1  0.49165151  0.28016499  0.25598952  1
  P  P0  1  0.76334960  0.92054680  0.94284622  1
  P  P1  1  0.73664224  0.92054129  0.44285443  1
  P  P2  1  0.19738773  0.68037616  0.54894989  1
  P  P3  1  0.69739484  0.31961763  0.95105924  1
  P  P4  1  0.30261622  0.68037691  0.04895140  1
  P  P5  1  0.80260232  0.31961786  0.45105734  1
  P  P6  1  0.26334569  0.07946710  0.55714390  1
  P  P7  1  0.23665512  0.07948060  0.05714177  1
  O  O0  1  0.90935891  0.01134058  0.84365622  1
  O  O1  1  0.64633051  0.80808056  0.87656928  1
  O  O2  1  0.59064025  0.01134054  0.34366444  1
  O  O3  1  0.15554189  0.90228873  0.53922226  1
  O  O4  1  0.32604412  0.66790604  0.89317287  1
  O  O5  1  0.68463131  0.78957765  0.59949767  1
  O  O6  1  0.85366182  0.80806724  0.37657726  1
  O  O7  1  0.37348936  0.64089467  0.60416658  1
  O  O8  1  0.34445504  0.90229552  0.03922580  1
  O  O9  1  0.17394682  0.66791455  0.39316396  1
  O  O10  1  0.57774910  0.44966364  0.83623188  1
  O  O11  1  0.81536878  0.78957568  0.09949722  1
  O  O12  1  0.07775009  0.55034565  0.66377158  1
  O  O13  1  0.87348897  0.35910347  0.89583474  1
  O  O14  1  0.12651198  0.64089610  0.10417270  1
  O  O15  1  0.92224938  0.44965689  0.33622344  1
  O  O16  1  0.18463419  0.21041912  0.90050266  1
  O  O17  1  0.42224947  0.55034486  0.16377277  1
  O  O18  1  0.82604937  0.33208879  0.60682601  1
  O  O19  1  0.65554586  0.09771238  0.96077217  1
  O  O20  1  0.62651322  0.35909816  0.39583423  1
  O  O21  1  0.14633721  0.19192368  0.62342353  1
  O  O22  1  0.31536616  0.21041887  0.40050231  1
  O  O23  1  0.67395881  0.33208627  0.10683430  1
  O  O24  1  0.84446118  0.09770567  0.46077636  1
  O  O25  1  0.40936410  0.98865422  0.65634014  1
  O  O26  1  0.35366685  0.19192334  0.12342583  1
  O  O27  1  0.09063873  0.98865715  0.15633965  1
loop_
_geom_bond_atom_site_label_1
_geom_bond_atom_site_label_2
_geom_bond_distance
_geom_bond_site_symmetry_2
O0 P0 1.513246 1_545
O0 Ti2 1.983203 1_655
O1 P0 1.505896 1_555
O1 Ti0 1.929962 1_555
O2 P1 1.513205 1_545
O2 Ti3 1.983147 1_555
O3 P2 1.588984 1_555
O3 P6 1.590982 1_565
O4 P4 1.505565 1_556
O4 Ti0 1.986260 1_555
O5 P1 1.512708 1_555
O5 Ti0 1.920314 1_555
O6 P1 1.505942 1_555
O6 Ti1 1.929976 1_555
O7 P2 1.516704 1_555
O7 Ti0 1.932471 1_555
O8 P4 1.589018 1_555
O8 P7 1.590988 1_565
O9 P2 1.505620 1_555
O9 Ti1 1.986164 1_455
O10 P3 1.514986 1_555
O10 Ti0 1.910953 1_555
O11 P0 1.512797 1_554
O11 Ti1 1.920294 1_555
O12 P2 1.514878 1_555
O12 Ti2 1.910973 1_555
O13 P3 1.516671 1_555
O13 Ti2 1.932532 1_655
O14 P4 1.516738 1_555
O14 Ti1 1.932467 1_455
O15 P5 1.515008 1_555
O15 Ti1 1.910978 1_555
O16 P7 1.512648 1_556
O16 Ti2 1.920312 1_555
O17 P4 1.514855 1_555
O17 Ti3 1.911026 1_555
O18 P5 1.505492 1_555
O18 Ti2 1.986248 1_655
O19 P3 1.588976 1_555
O19 P0 1.590924 1_545
O20 P5 1.516624 1_555
O20 Ti3 1.932485 1_555
O21 P6 1.505815 1_555
O21 Ti2 1.929984 1_555
O22 P6 1.512694 1_555
O22 Ti3 1.920330 1_555
O23 P3 1.505535 1_554
O23 Ti3 1.986234 1_555
O24 P5 1.589026 1_555
O24 P1 1.590968 1_545
O25 P6 1.513359 1_565
O25 Ti0 1.983120 1_555
O26 P7 1.505785 1_555
O26 Ti3 1.929970 1_555
O27 P7 1.513372 1_565
O27 Ti1 1.983159 1_455
