# generated using pymatgen
data_Li2V(BO2)5
_symmetry_space_group_name_H-M   'P 1'
_cell_length_a   15.40250500
_cell_length_b   7.26205000
_cell_length_c   7.29046526
_cell_angle_alpha   89.11929344
_cell_angle_beta   90.00000000
_cell_angle_gamma   90.00000000
_symmetry_Int_Tables_number   1
_chemical_formula_structural   Li2V(BO2)5
_chemical_formula_sum   'Li8 V4 B20 O40'
_cell_volume   815.36962677
_cell_formula_units_Z   4
loop_
 _symmetry_equiv_pos_site_id
 _symmetry_equiv_pos_as_xyz
  1  'x, y, z'
loop_
 _atom_site_type_symbol
 _atom_site_label
 _atom_site_symmetry_multiplicity
 _atom_site_fract_x
 _atom_site_fract_y
 _atom_site_fract_z
 _atom_site_occupancy
  Li  Li0  1  0.83132100  0.90118500  0.99990800  1
  Li  Li1  1  0.66867900  0.90118500  0.49990800  1
  Li  Li2  1  0.07400500  0.69485400  0.59052200  1
  Li  Li3  1  0.42599500  0.69485400  0.09052200  1
  Li  Li4  1  0.57400500  0.30514600  0.90947800  1
  Li  Li5  1  0.92599500  0.30514600  0.40947800  1
  Li  Li6  1  0.33132100  0.09881500  0.50009200  1
  Li  Li7  1  0.16867900  0.09881500  0.00009200  1
  V  V0  1  0.87590500  0.84797100  0.53557400  1
  V  V1  1  0.62409500  0.84797100  0.03557400  1
  V  V2  1  0.37590500  0.15202900  0.96442600  1
  V  V3  1  0.12409500  0.15202900  0.46442600  1
  B  B0  1  0.97400100  0.79792200  0.90873500  1
  B  B1  1  0.52599900  0.79792200  0.40873500  1
  B  B2  1  0.22337200  0.78343600  0.52132500  1
  B  B3  1  0.27662800  0.78343600  0.02132500  1
  B  B4  1  0.49575700  0.75277100  0.73338100  1
  B  B5  1  0.00424300  0.75277100  0.23338100  1
  B  B6  1  0.37955200  0.68199100  0.50531400  1
  B  B7  1  0.12044800  0.68199100  0.00531400  1
  B  B8  1  0.74190600  0.54239500  0.50108200  1
  B  B9  1  0.75809400  0.54239500  0.00108200  1
  B  B10  1  0.24190600  0.45760500  0.99891800  1
  B  B11  1  0.25809400  0.45760500  0.49891800  1
  B  B12  1  0.87955200  0.31800900  0.99468600  1
  B  B13  1  0.62044800  0.31800900  0.49468600  1
  B  B14  1  0.99575700  0.24722900  0.76661900  1
  B  B15  1  0.50424300  0.24722900  0.26661900  1
  B  B16  1  0.72337200  0.21656400  0.97867500  1
  B  B17  1  0.77662800  0.21656400  0.47867500  1
  B  B18  1  0.47400100  0.20207800  0.59126500  1
  B  B19  1  0.02599900  0.20207800  0.09126500  1
  O  O0  1  0.15762300  0.90691000  0.53880000  1
  O  O1  1  0.34237700  0.90691000  0.03880000  1
  O  O2  1  0.91133900  0.84968300  0.78727800  1
  O  O3  1  0.58866100  0.84968300  0.28727800  1
  O  O4  1  0.19097800  0.82950500  0.99376100  1
  O  O5  1  0.54854500  0.82905100  0.59394400  1
  O  O6  1  0.30902200  0.82950500  0.49376100  1
  O  O7  1  0.95145500  0.82905100  0.09394400  1
  O  O8  1  0.52370700  0.75020300  0.91230100  1
  O  O9  1  0.97629300  0.75020300  0.41230100  1
  O  O10  1  0.76722400  0.72274300  0.50946000  1
  O  O11  1  0.05274100  0.72353400  0.86225800  1
  O  O12  1  0.73277600  0.72274300  0.00946000  1
  O  O13  1  0.44725900  0.72353400  0.36225800  1
  O  O14  1  0.41699700  0.68207600  0.69018600  1
  O  O15  1  0.08300300  0.68207600  0.19018600  1
  O  O16  1  0.19737600  0.59709300  0.53727500  1
  O  O17  1  0.30262400  0.59709300  0.03727500  1
  O  O18  1  0.65737200  0.49796100  0.53068900  1
  O  O19  1  0.15737200  0.50203900  0.96931100  1
  O  O20  1  0.84262800  0.49796100  0.03068900  1
  O  O21  1  0.34262800  0.50203900  0.46931100  1
  O  O22  1  0.69737600  0.40290700  0.96272500  1
  O  O23  1  0.80262400  0.40290700  0.46272500  1
  O  O24  1  0.91699700  0.31792400  0.80981400  1
  O  O25  1  0.58300300  0.31792400  0.30981400  1
  O  O26  1  0.55274100  0.27646600  0.63774200  1
  O  O27  1  0.26722400  0.27725700  0.99054000  1
  O  O28  1  0.94725900  0.27646600  0.13774200  1
  O  O29  1  0.23277600  0.27725700  0.49054000  1
  O  O30  1  0.02370700  0.24979700  0.58769900  1
  O  O31  1  0.47629300  0.24979700  0.08769900  1
  O  O32  1  0.04854500  0.17094900  0.90605600  1
  O  O33  1  0.69097800  0.17049500  0.50623900  1
  O  O34  1  0.45145500  0.17094900  0.40605600  1
  O  O35  1  0.80902200  0.17049500  0.00623900  1
  O  O36  1  0.41133900  0.15031700  0.71272200  1
  O  O37  1  0.08866100  0.15031700  0.21272200  1
  O  O38  1  0.65762300  0.09309000  0.96120000  1
  O  O39  1  0.84237700  0.09309000  0.46120000  1
loop_
_geom_bond_atom_site_label_1
_geom_bond_atom_site_label_2
_geom_bond_distance
_geom_bond_site_symmetry_2
Li0 O35 1.986907 1_566
Li0 O12 1.996285 1_556
Li0 O2 2.019837 1_555
Li0 O7 2.038926 1_556
Li1 O33 1.986907 1_565
Li1 O10 1.996285 1_555
Li1 O3 2.019837 1_555
Li1 O5 2.038926 1_555
Li2 O11 2.021884 1_555
Li2 O9 2.024544 1_455
Li2 O0 2.038277 1_555
Li2 O16 2.067374 1_555
Li3 O13 2.021884 1_555
Li3 O8 2.024544 1_554
Li3 O1 2.038277 1_555
Li3 O17 2.067374 1_555
Li4 O26 2.021884 1_555
Li4 O31 2.024544 1_556
Li4 O38 2.038277 1_555
Li4 O22 2.067374 1_555
Li5 O28 2.021884 1_555
Li5 O30 2.024544 1_655
Li5 O39 2.038277 1_555
Li5 O23 2.067374 1_555
Li6 O6 1.986907 1_545
Li6 O29 1.996285 1_555
Li6 O36 2.019837 1_555
Li6 O34 2.038926 1_555
Li7 O4 1.986907 1_544
Li7 O27 1.996285 1_554
Li7 O37 2.019837 1_555
Li7 O32 2.038926 1_554
B0 O2 1.358915 1_555
B0 O11 1.372273 1_655
B0 O7 1.415726 1_556
B1 O3 1.358915 1_555
B1 O13 1.372273 1_555
B1 O5 1.415726 1_555
B2 O0 1.359900 1_555
B2 O6 1.374990 1_555
B2 O16 1.414300 1_555
B3 O1 1.359900 1_555
B3 O4 1.374990 1_554
B3 O17 1.414300 1_555
B4 O14 1.356217 1_555
B4 O8 1.373469 1_555
B4 O5 1.408553 1_555
B5 O15 1.356217 1_555
B5 O9 1.373469 1_455
B5 O7 1.408553 1_455
B6 O21 1.452812 1_555
B6 O14 1.466027 1_555
B6 O13 1.502208 1_555
B6 O6 1.527101 1_555
B7 O19 1.452812 1_554
B7 O15 1.466027 1_555
B7 O11 1.502208 1_554
B7 O4 1.527101 1_554
B8 O18 1.357891 1_555
B8 O10 1.368782 1_555
B8 O23 1.409833 1_555
B9 O20 1.357891 1_555
B9 O12 1.368782 1_555
B9 O22 1.409833 1_554
B10 O19 1.357891 1_555
B10 O27 1.368782 1_555
B10 O17 1.409833 1_556
B11 O21 1.357891 1_555
B11 O29 1.368782 1_555
B11 O16 1.409833 1_555
B12 O20 1.452812 1_556
B12 O24 1.466027 1_555
B12 O28 1.502208 1_556
B12 O35 1.527101 1_556
B13 O18 1.452812 1_555
B13 O25 1.466027 1_555
B13 O26 1.502208 1_555
B13 O33 1.527101 1_555
B14 O24 1.356217 1_555
B14 O30 1.373469 1_655
B14 O32 1.408553 1_655
B15 O25 1.356217 1_555
B15 O31 1.373469 1_555
B15 O34 1.408553 1_555
B16 O38 1.359900 1_555
B16 O35 1.374990 1_556
B16 O22 1.414300 1_555
B17 O39 1.359900 1_555
B17 O33 1.374990 1_555
B17 O23 1.414300 1_555
B18 O36 1.358915 1_555
B18 O26 1.372273 1_555
B18 O34 1.415726 1_555
B19 O37 1.358915 1_555
B19 O28 1.372273 1_455
B19 O32 1.415726 1_554
O0 V3 1.923448 1_565
O1 V2 1.923448 1_564
O2 V0 1.914704 1_555
O3 V1 1.914704 1_555
O8 V1 1.929306 1_556
O9 V0 1.929306 1_555
O10 V0 1.915917 1_555
O12 V1 1.915917 1_555
O27 V2 1.915917 1_555
O29 V3 1.915917 1_555
O30 V3 1.929306 1_555
O31 V2 1.929306 1_554
O36 V2 1.914704 1_555
O37 V3 1.914704 1_555
O38 V1 1.923448 1_546
O39 V0 1.923448 1_545
