# generated using pymatgen
data_Rb2MgO2
_symmetry_space_group_name_H-M   'P 1'
_cell_length_a   5.63648100
_cell_length_b   6.52831300
_cell_length_c   10.93176600
_cell_angle_alpha   90.00000000
_cell_angle_beta   90.00000000
_cell_angle_gamma   90.00000000
_symmetry_Int_Tables_number   1
_chemical_formula_structural   Rb2MgO2
_chemical_formula_sum   'Rb8 Mg4 O8'
_cell_volume   402.25304719
_cell_formula_units_Z   4
loop_
 _symmetry_equiv_pos_site_id
 _symmetry_equiv_pos_as_xyz
  1  'x, y, z'
loop_
 _atom_site_type_symbol
 _atom_site_label
 _atom_site_symmetry_multiplicity
 _atom_site_fract_x
 _atom_site_fract_y
 _atom_site_fract_z
 _atom_site_occupancy
  Rb  Rb0  1  0.56171400  0.36226500  0.15556700  1
  Rb  Rb1  1  0.06171400  0.63773500  0.15556700  1
  Rb  Rb2  1  0.06171400  0.13773500  0.34443300  1
  Rb  Rb3  1  0.56171400  0.86226500  0.34443300  1
  Rb  Rb4  1  0.43828600  0.13773500  0.65556700  1
  Rb  Rb5  1  0.93828600  0.86226500  0.65556700  1
  Rb  Rb6  1  0.93828600  0.36226500  0.84443300  1
  Rb  Rb7  1  0.43828600  0.63773500  0.84443300  1
  Mg  Mg0  1  0.25000000  0.01275700  0.00000000  1
  Mg  Mg1  1  0.75000000  0.98724300  0.00000000  1
  Mg  Mg2  1  0.75000000  0.48724300  0.50000000  1
  Mg  Mg3  1  0.25000000  0.51275700  0.50000000  1
  O  O0  1  0.99425500  0.16554600  0.09067000  1
  O  O1  1  0.49425500  0.83445400  0.09067000  1
  O  O2  1  0.49425500  0.33445400  0.40933000  1
  O  O3  1  0.99425500  0.66554600  0.40933000  1
  O  O4  1  0.00574500  0.33445400  0.59067000  1
  O  O5  1  0.50574500  0.66554600  0.59067000  1
  O  O6  1  0.50574500  0.16554600  0.90933000  1
  O  O7  1  0.00574500  0.83445400  0.90933000  1
loop_
_geom_bond_atom_site_label_1
_geom_bond_atom_site_label_2
_geom_bond_distance
_geom_bond_site_symmetry_2
Mg0 O0 2.013774 1_455
Mg0 O6 2.013774 1_554
Mg0 O7 2.057375 1_544
Mg0 O1 2.057375 1_545
Mg1 O1 2.013774 1_555
Mg1 O7 2.013774 1_654
Mg1 O6 2.057375 1_564
Mg1 O0 2.057375 1_565
Mg2 O2 2.013774 1_555
Mg2 O4 2.013774 1_655
Mg2 O5 2.057375 1_555
Mg2 O3 2.057375 1_555
Mg3 O3 2.013774 1_455
Mg3 O5 2.013774 1_555
Mg3 O2 2.057375 1_555
Mg3 O4 2.057375 1_555
O0 Rb2 2.805895 1_655
O0 Rb0 2.845430 1_555
O0 Rb6 2.999103 1_554
O0 Rb1 3.185952 1_655
O1 Rb3 2.805895 1_555
O1 Rb1 2.845430 1_555
O1 Rb7 2.999103 1_554
O1 Rb0 3.185952 1_555
O2 Rb0 2.805895 1_555
O2 Rb2 2.845430 1_555
O2 Rb4 2.999103 1_555
O2 Rb3 3.185952 1_545
O3 Rb1 2.805895 1_655
O3 Rb3 2.845430 1_555
O3 Rb5 2.999103 1_555
O3 Rb2 3.185952 1_665
O4 Rb6 2.805895 1_455
O4 Rb4 2.845430 1_555
O4 Rb2 2.999103 1_555
O4 Rb5 3.185952 1_445
O5 Rb7 2.805895 1_555
O5 Rb5 2.845430 1_555
O5 Rb3 2.999103 1_555
O5 Rb4 3.185952 1_565
O6 Rb4 2.805895 1_555
O6 Rb6 2.845430 1_555
O6 Rb0 2.999103 1_556
O6 Rb7 3.185952 1_555
O7 Rb5 2.805895 1_455
O7 Rb7 2.845430 1_555
O7 Rb1 2.999103 1_556
O7 Rb6 3.185952 1_455
