# generated using pymatgen
data_Li3Mn5O8
_symmetry_space_group_name_H-M   'P 1'
_cell_length_a   6.09519958
_cell_length_b   6.09519958
_cell_length_c   6.09519965
_cell_angle_alpha   59.94281322
_cell_angle_beta   59.94281322
_cell_angle_gamma   59.94281032
_symmetry_Int_Tables_number   1
_chemical_formula_structural   Li3Mn5O8
_chemical_formula_sum   'Li3 Mn5 O8'
_cell_volume   159.91350037
_cell_formula_units_Z   1
loop_
 _symmetry_equiv_pos_site_id
 _symmetry_equiv_pos_as_xyz
  1  'x, y, z'
loop_
 _atom_site_type_symbol
 _atom_site_label
 _atom_site_symmetry_multiplicity
 _atom_site_fract_x
 _atom_site_fract_y
 _atom_site_fract_z
 _atom_site_occupancy
  Li  Li0  1  0.00000000  0.00000000  0.50000000  1
  Li  Li1  1  0.50000000  0.00000000  0.00000000  1
  Li  Li2  1  0.00000000  0.50000000  0.00000000  1
  Mn  Mn0  1  0.50000000  0.50000000  0.50000000  1
  Mn  Mn1  1  0.00000000  0.00000000  0.00000000  1
  Mn  Mn2  1  0.50000000  0.00000000  0.50000000  1
  Mn  Mn3  1  0.50000000  0.50000000  0.00000000  1
  Mn  Mn4  1  0.00000000  0.50000000  0.50000000  1
  O  O0  1  0.26636500  0.26636500  0.26636500  1
  O  O1  1  0.75028500  0.24925500  0.75028500  1
  O  O2  1  0.75028500  0.75028500  0.24925500  1
  O  O3  1  0.24925500  0.75028500  0.75028500  1
  O  O4  1  0.75074500  0.24971500  0.24971500  1
  O  O5  1  0.24971500  0.24971500  0.75074500  1
  O  O6  1  0.24971500  0.75074500  0.24971500  1
  O  O7  1  0.73363500  0.73363500  0.73363500  1
loop_
_geom_bond_atom_site_label_1
_geom_bond_atom_site_label_2
_geom_bond_distance
_geom_bond_site_symmetry_2
Li0 O1 2.152068 1_455
Li0 O3 2.152068 1_545
Li0 O4 2.152068 1_455
Li0 O6 2.152068 1_545
Li0 O0 2.303948 1_555
Li0 O7 2.303948 1_445
Li1 O2 2.152068 1_545
Li1 O5 2.152068 1_554
Li1 O1 2.152068 1_554
Li1 O6 2.152068 1_545
Li1 O0 2.303948 1_555
Li1 O7 2.303948 1_544
Li2 O2 2.152068 1_455
Li2 O5 2.152068 1_554
Li2 O3 2.152068 1_554
Li2 O4 2.152068 1_455
Li2 O0 2.303948 1_555
Li2 O7 2.303948 1_454
Mn0 O3 2.156501 1_555
Mn0 O6 2.156501 1_555
Mn0 O4 2.156501 1_555
Mn0 O1 2.156501 1_555
Mn0 O5 2.156501 1_555
Mn0 O2 2.156501 1_555
Mn1 O6 2.151597 1_545
Mn1 O1 2.151597 1_454
Mn1 O4 2.151597 1_455
Mn1 O3 2.151597 1_544
Mn1 O5 2.151597 1_554
Mn1 O2 2.151597 1_445
Mn2 O7 2.022662 1_545
Mn2 O0 2.022662 1_555
Mn2 O5 2.156031 1_555
Mn2 O2 2.156031 1_545
Mn2 O4 2.156031 1_555
Mn2 O3 2.156031 1_545
Mn3 O7 2.022662 1_554
Mn3 O0 2.022662 1_555
Mn3 O6 2.156031 1_555
Mn3 O4 2.156031 1_555
Mn3 O3 2.156031 1_554
Mn3 O1 2.156031 1_554
Mn4 O7 2.022662 1_455
Mn4 O0 2.022662 1_555
Mn4 O5 2.156031 1_555
Mn4 O2 2.156031 1_455
Mn4 O6 2.156031 1_555
Mn4 O1 2.156031 1_455
