# generated using pymatgen
data_BaCaI4
_symmetry_space_group_name_H-M   'P 1'
_cell_length_a   10.86842200
_cell_length_b   10.83946400
_cell_length_c   20.81730195
_cell_angle_alpha   63.61160767
_cell_angle_beta   90.00000000
_cell_angle_gamma   90.00000000
_symmetry_Int_Tables_number   1
_chemical_formula_structural   BaCaI4
_chemical_formula_sum   'Ba8 Ca8 I32'
_cell_volume   2196.90199321
_cell_formula_units_Z   8
loop_
 _symmetry_equiv_pos_site_id
 _symmetry_equiv_pos_as_xyz
  1  'x, y, z'
loop_
 _atom_site_type_symbol
 _atom_site_label
 _atom_site_symmetry_multiplicity
 _atom_site_fract_x
 _atom_site_fract_y
 _atom_site_fract_z
 _atom_site_occupancy
  Ba  Ba0  1  0.97174300  0.24231000  0.15147300  1
  Ba  Ba1  1  0.70687500  0.68586300  0.14293900  1
  Ba  Ba2  1  0.47174300  0.75769000  0.34852700  1
  Ba  Ba3  1  0.20687500  0.31413700  0.35706100  1
  Ba  Ba4  1  0.79312500  0.68586300  0.64293900  1
  Ba  Ba5  1  0.52825700  0.24231000  0.65147300  1
  Ba  Ba6  1  0.29312500  0.31413700  0.85706100  1
  Ba  Ba7  1  0.02825700  0.75769000  0.84852700  1
  Ca  Ca0  1  0.45190900  0.27594100  0.08275100  1
  Ca  Ca1  1  0.16629400  0.84338100  0.08074500  1
  Ca  Ca2  1  0.95190900  0.72405900  0.41724900  1
  Ca  Ca3  1  0.66629400  0.15661900  0.41925500  1
  Ca  Ca4  1  0.33370600  0.84338100  0.58074500  1
  Ca  Ca5  1  0.04809100  0.27594100  0.58275100  1
  Ca  Ca6  1  0.83370600  0.15661900  0.91925500  1
  Ca  Ca7  1  0.54809100  0.72405900  0.91724900  1
  I  I0  1  0.43104400  0.77926400  0.04386800  1
  I  I1  1  0.22434100  0.13895400  0.05642600  1
  I  I2  1  0.67878100  0.46531100  0.05311200  1
  I  I3  1  0.89563900  0.98790900  0.09067400  1
  I  I4  1  0.99968300  0.59770800  0.10234300  1
  I  I5  1  0.56707500  0.00194500  0.18824700  1
  I  I6  1  0.28052400  0.32734700  0.18921200  1
  I  I7  1  0.25767900  0.68515600  0.23882300  1
  I  I8  1  0.75767900  0.31484400  0.26117700  1
  I  I9  1  0.78052400  0.67265300  0.31078800  1
  I  I10  1  0.06707500  0.99805500  0.31175300  1
  I  I11  1  0.49968300  0.40229200  0.39765700  1
  I  I12  1  0.39563900  0.01209100  0.40932600  1
  I  I13  1  0.72434100  0.86104600  0.44357400  1
  I  I14  1  0.17878100  0.53468900  0.44688800  1
  I  I15  1  0.93104400  0.22073600  0.45613200  1
  I  I16  1  0.06895600  0.77926400  0.54386800  1
  I  I17  1  0.82121900  0.46531100  0.55311200  1
  I  I18  1  0.27565900  0.13895400  0.55642600  1
  I  I19  1  0.60436100  0.98790900  0.59067400  1
  I  I20  1  0.50031700  0.59770800  0.60234300  1
  I  I21  1  0.93292500  0.00194500  0.68824700  1
  I  I22  1  0.21947600  0.32734700  0.68921200  1
  I  I23  1  0.24232100  0.68515600  0.73882300  1
  I  I24  1  0.74232100  0.31484400  0.76117700  1
  I  I25  1  0.71947600  0.67265300  0.81078800  1
  I  I26  1  0.43292500  0.99805500  0.81175300  1
  I  I27  1  0.00031700  0.40229200  0.89765700  1
  I  I28  1  0.10436100  0.01209100  0.90932600  1
  I  I29  1  0.32121900  0.53468900  0.94688800  1
  I  I30  1  0.77565900  0.86104600  0.94357400  1
  I  I31  1  0.56895600  0.22073600  0.95613200  1
loop_
_geom_bond_atom_site_label_1
_geom_bond_atom_site_label_2
_geom_bond_distance
_geom_bond_site_symmetry_2
Ba0 I10 3.370992 1_645
Ba0 I4 3.532189 1_555
Ba0 I8 3.583641 1_555
Ba0 I3 3.604540 1_545
Ba0 I6 3.656915 1_655
Ba0 I1 3.831111 1_655
Ba0 I2 3.971655 1_555
Ba1 I0 3.522712 1_555
Ba1 I9 3.525004 1_555
Ba1 I4 3.531646 1_555
Ba1 I3 3.597977 1_555
Ba1 I2 3.644044 1_555
Ba1 I8 3.706457 1_555
Ba1 I30 3.792599 1_554
Ba1 I5 4.220106 1_565
Ba2 I5 3.370992 1_565
Ba2 I11 3.532189 1_555
Ba2 I7 3.583641 1_555
Ba2 I12 3.604540 1_565
Ba2 I9 3.656915 1_555
Ba2 I13 3.831111 1_555
Ba2 I14 3.971655 1_555
Ba3 I15 3.522712 1_455
Ba3 I6 3.525004 1_555
Ba3 I11 3.531646 1_555
Ba3 I12 3.597977 1_555
Ba3 I14 3.644044 1_555
Ba3 I7 3.706457 1_555
Ba3 I18 3.792599 1_555
Ba3 I10 4.220106 1_545
Ba4 I16 3.522712 1_655
Ba4 I25 3.525004 1_555
Ba4 I20 3.531646 1_555
Ba4 I19 3.597977 1_555
Ba4 I17 3.644044 1_555
Ba4 I24 3.706457 1_555
Ba4 I13 3.792599 1_555
Ba4 I21 4.220106 1_565
Ba5 I26 3.370992 1_545
Ba5 I20 3.532189 1_555
Ba5 I24 3.583641 1_555
Ba5 I19 3.604540 1_545
Ba5 I22 3.656915 1_555
Ba5 I18 3.831111 1_555
Ba5 I17 3.971655 1_555
Ba6 I31 3.522712 1_555
Ba6 I22 3.525004 1_555
Ba6 I27 3.531646 1_555
Ba6 I28 3.597977 1_555
Ba6 I29 3.644044 1_555
Ba6 I23 3.706457 1_555
Ba6 I1 3.792599 1_556
Ba6 I26 4.220106 1_545
Ba7 I21 3.370992 1_465
Ba7 I27 3.532189 1_555
Ba7 I23 3.583641 1_555
Ba7 I28 3.604540 1_565
Ba7 I25 3.656915 1_455
Ba7 I30 3.831111 1_455
Ba7 I29 3.971655 1_555
Ca0 I1 3.057076 1_555
Ca0 I5 3.067991 1_555
Ca0 I2 3.090019 1_555
Ca0 I6 3.128815 1_555
Ca0 I31 3.213441 1_554
Ca0 I29 3.291174 1_554
Ca1 I1 3.078506 1_565
Ca1 I4 3.083542 1_455
Ca1 I7 3.120919 1_555
Ca1 I0 3.134665 1_555
Ca1 I28 3.275755 1_564
Ca1 I3 3.381979 1_455
Ca2 I13 3.057076 1_555
Ca2 I10 3.067991 1_655
Ca2 I14 3.090019 1_655
Ca2 I9 3.128815 1_555
Ca2 I16 3.213441 1_655
Ca2 I17 3.291174 1_555
Ca3 I13 3.078506 1_545
Ca3 I11 3.083542 1_555
Ca3 I8 3.120919 1_555
Ca3 I15 3.134665 1_555
Ca3 I19 3.275755 1_545
Ca3 I12 3.381979 1_555
Ca4 I18 3.078506 1_565
Ca4 I20 3.083542 1_555
Ca4 I23 3.120919 1_555
Ca4 I16 3.134665 1_555
Ca4 I12 3.275755 1_565
Ca4 I19 3.381979 1_555
Ca5 I18 3.057076 1_555
Ca5 I21 3.067991 1_455
Ca5 I17 3.090019 1_455
Ca5 I22 3.128815 1_555
Ca5 I15 3.213441 1_455
Ca5 I14 3.291174 1_555
Ca6 I30 3.078506 1_545
Ca6 I27 3.083542 1_655
Ca6 I24 3.120919 1_555
Ca6 I31 3.134665 1_555
Ca6 I3 3.275755 1_546
Ca6 I28 3.381979 1_655
Ca7 I30 3.057076 1_555
Ca7 I26 3.067991 1_555
Ca7 I29 3.090019 1_555
Ca7 I25 3.128815 1_555
Ca7 I0 3.213441 1_556
Ca7 I2 3.291174 1_556
