# generated using pymatgen
data_Li3V2P4(HO8)2
_symmetry_space_group_name_H-M   'P 1'
_cell_length_a   7.88494800
_cell_length_b   8.07467655
_cell_length_c   13.77166522
_cell_angle_alpha   90.24502686
_cell_angle_beta   100.04486163
_cell_angle_gamma   89.97889728
_symmetry_Int_Tables_number   1
_chemical_formula_structural   Li3V2P4(HO8)2
_chemical_formula_sum   'Li9 V6 P12 H6 O48'
_cell_volume   863.37165054
_cell_formula_units_Z   3
loop_
 _symmetry_equiv_pos_site_id
 _symmetry_equiv_pos_as_xyz
  1  'x, y, z'
loop_
 _atom_site_type_symbol
 _atom_site_label
 _atom_site_symmetry_multiplicity
 _atom_site_fract_x
 _atom_site_fract_y
 _atom_site_fract_z
 _atom_site_occupancy
  Li  Li0  1  0.97616200  0.13230900  0.82010600  1
  Li  Li1  1  0.69538300  0.86686200  0.85185900  1
  Li  Li2  1  0.19930200  0.63115600  0.84850700  1
  Li  Li3  1  0.85635600  0.63205600  0.51289800  1
  Li  Li4  1  0.63518600  0.13053100  0.48546500  1
  Li  Li5  1  0.13767000  0.36481100  0.48176100  1
  Li  Li6  1  0.80501600  0.36729300  0.14816000  1
  Li  Li7  1  0.52483100  0.63287500  0.18075700  1
  Li  Li8  1  0.30031800  0.13169700  0.15181200  1
  V  V0  1  0.82145100  0.49629500  0.83406300  1
  V  V1  1  0.33576400  0.00371300  0.83147600  1
  V  V2  1  0.49664700  0.50263200  0.50157100  1
  V  V3  1  0.01178400  0.99463000  0.49928100  1
  V  V4  1  0.67764500  0.99718000  0.16584500  1
  V  V5  1  0.16403600  0.50510900  0.16871000  1
  P  P0  1  0.72551600  0.15190300  0.95504700  1
  P  P1  1  0.21493300  0.34808500  0.95508500  1
  P  P2  1  0.94600800  0.84261700  0.71043800  1
  P  P3  1  0.88677500  0.34279800  0.62294500  1
  P  P4  1  0.44451300  0.64912300  0.71224100  1
  P  P5  1  0.38927900  0.14899300  0.62112100  1
  P  P6  1  0.61738100  0.84690500  0.37773600  1
  P  P7  1  0.55318000  0.34401100  0.28916600  1
  P  P8  1  0.10881700  0.65115500  0.37758300  1
  P  P9  1  0.05591500  0.14909400  0.28716500  1
  P  P10  1  0.77486800  0.65221200  0.04502400  1
  P  P11  1  0.28467500  0.84806700  0.04499700  1
  H  H0  1  0.47404200  0.48992500  0.99085900  1
  H  H1  1  0.67642300  0.98958000  0.67074900  1
  H  H2  1  0.15653000  0.48967300  0.66246700  1
  H  H3  1  0.81952700  0.49029100  0.32793400  1
  H  H4  1  0.35494300  0.98813400  0.34134300  1
  H  H5  1  0.02598900  0.98971100  0.00919100  1
  O  O0  1  0.88363200  0.05389000  0.93589100  1
  O  O1  1  0.78418500  0.67163700  0.93273500  1
  O  O2  1  0.72827600  0.32740800  0.91058200  1
  O  O3  1  0.56740000  0.05100200  0.90658700  1
  O  O4  1  0.37282900  0.45189600  0.93561600  1
  O  O5  1  0.94936700  0.67487500  0.76443100  1
  O  O6  1  0.28680000  0.82789900  0.93389100  1
  O  O7  1  0.88153600  0.32193000  0.73445600  1
  O  O8  1  0.21042900  0.18163600  0.90238200  1
  O  O9  1  0.78028800  0.93788200  0.72812000  1
  O  O10  1  0.05641900  0.45427800  0.90527300  1
  O  O11  1  0.61207300  0.54603500  0.76225200  1
  O  O12  1  0.45979000  0.81578600  0.76724200  1
  O  O13  1  0.95083100  0.82174400  0.59886800  1
  O  O14  1  0.37283300  0.16674300  0.72970000  1
  O  O15  1  0.28013700  0.56018500  0.72780100  1
  O  O16  1  0.88372500  0.17478500  0.56897500  1
  O  O17  1  0.09718500  0.95129100  0.75931000  1
  O  O18  1  0.73605000  0.45195000  0.57412600  1
  O  O19  1  0.55330500  0.05947600  0.60529000  1
  O  O20  1  0.46220200  0.66716100  0.60388800  1
  O  O21  1  0.37404600  0.31527300  0.56640200  1
  O  O22  1  0.94812200  0.55328500  0.39636400  1
  O  O23  1  0.22073500  0.04729600  0.57071200  1
  O  O24  1  0.77527900  0.95279100  0.42807900  1
  O  O25  1  0.05263400  0.43777200  0.60537300  1
  O  O26  1  0.62162900  0.67966900  0.42940600  1
  O  O27  1  0.55244500  0.32470800  0.40022700  1
  O  O28  1  0.45917800  0.95030700  0.39576500  1
  O  O29  1  0.26428100  0.54816200  0.42958700  1
  O  O30  1  0.88684200  0.04889100  0.24094800  1
  O  O31  1  0.10443400  0.82521300  0.42504200  1
  O  O32  1  0.71823200  0.44012500  0.27010100  1
  O  O33  1  0.62356500  0.82489700  0.26608000  1
  O  O34  1  0.04357500  0.17021800  0.39893700  1
  O  O35  1  0.54948500  0.17682500  0.23415100  1
  O  O36  1  0.40147900  0.45277700  0.24061500  1
  O  O37  1  0.93233100  0.55013000  0.09317800  1
  O  O38  1  0.21759200  0.05965200  0.27142700  1
  O  O39  1  0.77285700  0.82799500  0.08997100  1
  O  O40  1  0.12080500  0.66938400  0.26815900  1
  O  O41  1  0.71715600  0.17119900  0.06760400  1
  O  O42  1  0.03996500  0.31775900  0.23472600  1
  O  O43  1  0.61618000  0.55506700  0.06384200  1
  O  O44  1  0.44405300  0.95377700  0.09501000  1
  O  O45  1  0.28967500  0.68187400  0.09780500  1
  O  O46  1  0.21227000  0.32787400  0.06625700  1
  O  O47  1  0.12698400  0.95210600  0.06458900  1
loop_
_geom_bond_atom_site_label_1
_geom_bond_atom_site_label_2
_geom_bond_distance
_geom_bond_site_symmetry_2
Li0 O0 1.972477 1_555
Li0 O7 1.999993 1_555
Li0 O17 2.003819 1_645
Li0 O8 2.030063 1_655
Li0 O9 2.399394 1_545
Li1 O1 1.989458 1_555
Li1 O3 2.012917 1_565
Li1 O9 2.021780 1_555
Li1 O12 2.054309 1_555
Li1 O0 2.282686 1_565
Li2 O15 1.964476 1_555
Li2 O6 2.020959 1_555
Li2 O10 2.058704 1_555
Li2 O5 2.134484 1_455
Li2 O4 2.201637 1_555
Li3 O22 1.974772 1_555
Li3 O13 1.995079 1_555
Li3 O18 2.004089 1_555
Li3 O26 2.038699 1_555
Li3 O25 2.409545 1_655
Li4 O19 1.961931 1_555
Li4 O27 2.002449 1_555
Li4 O24 2.048955 1_545
Li4 O16 2.121704 1_555
Li4 O28 2.226625 1_545
Li5 O29 1.991285 1_555
Li5 O34 2.002677 1_555
Li5 O25 2.020875 1_555
Li5 O21 2.058666 1_555
Li5 O22 2.309421 1_455
Li6 O41 1.983810 1_555
Li6 O32 2.006584 1_555
Li6 O37 2.009110 1_555
Li6 O42 2.060657 1_655
Li6 O43 2.296641 1_555
Li7 O43 1.975241 1_555
Li7 O36 2.007815 1_555
Li7 O33 2.014223 1_555
Li7 O45 2.040596 1_555
Li7 O32 2.371049 1_555
Li8 O38 1.964892 1_555
Li8 O46 2.027140 1_555
Li8 O44 2.063687 1_545
Li8 O35 2.120938 1_555
Li8 O47 2.197183 1_545
H0 O4 1.047079 1_555
H0 O43 1.464902 1_556
H1 O9 1.116275 1_555
H1 O19 1.331269 1_565
H2 O25 1.112527 1_555
H2 O15 1.331829 1_555
H3 O32 1.100877 1_555
H3 O22 1.355695 1_555
H4 O28 1.057075 1_555
H4 O38 1.440146 1_565
H5 O47 1.047988 1_555
H5 O0 1.468436 1_464
O0 P0 1.537049 1_555
O1 P10 1.569422 1_556
O1 V0 2.014942 1_555
O2 P0 1.547854 1_555
O2 V0 1.947572 1_555
O3 P0 1.539285 1_555
O3 V1 1.972246 1_555
O4 P1 1.563234 1_555
O5 P2 1.545927 1_555
O5 V0 2.089610 1_555
O6 P11 1.541059 1_556
O6 V1 2.088354 1_565
O7 P3 1.553318 1_555
O7 V0 2.073200 1_555
O8 P1 1.522220 1_555
O8 V1 2.077935 1_555
O9 P2 1.570708 1_555
O10 P1 1.572635 1_555
O10 V0 1.969251 1_455
O11 P4 1.612293 1_555
O11 V0 1.816120 1_555
O12 P4 1.535859 1_555
O12 V1 2.081046 1_565
O13 P2 1.552051 1_555
O13 V3 2.075466 1_655
O14 P5 1.529417 1_555
O14 V1 1.985424 1_555
O15 P4 1.529838 1_555
O16 P3 1.542295 1_555
O16 V3 2.093317 1_645
O17 P2 1.536158 1_455
O17 V1 2.012598 1_565
O18 P3 1.538448 1_555
O18 V2 2.018460 1_555
O19 P5 1.529395 1_555
O20 P4 1.530297 1_555
O20 V2 1.985307 1_555
O21 P5 1.536876 1_555
O21 V2 2.081857 1_555
O22 P8 1.553609 1_655
O23 P5 1.611362 1_555
O23 V3 1.815102 1_545
O24 P6 1.567279 1_555
O24 V3 1.978127 1_655
O25 P3 1.571532 1_455
O26 P6 1.526715 1_555
O26 V2 2.087397 1_555
O27 P7 1.539095 1_555
O27 V2 2.098121 1_555
O28 P6 1.555742 1_555
O29 P8 1.550895 1_555
O29 V2 1.960578 1_555
O30 P9 1.592922 1_655
O30 V4 1.834845 1_545
O31 P8 1.550382 1_555
O31 V3 1.923075 1_555
O32 P7 1.576910 1_555
O33 P6 1.556360 1_555
O33 V4 2.060287 1_555
O34 P9 1.567786 1_555
O34 V3 2.029915 1_545
O35 P7 1.543012 1_555
O35 V4 2.080648 1_545
O36 P7 1.540917 1_555
O36 V5 2.005155 1_555
O37 P10 1.541900 1_555
O37 V5 1.972774 1_655
O38 P9 1.512644 1_555
O39 P10 1.547246 1_555
O39 V4 1.944841 1_555
O40 P8 1.533981 1_555
O40 V5 1.974447 1_555
O41 P0 1.570030 1_554
O41 V4 2.016325 1_545
O42 P9 1.539080 1_555
O42 V5 2.096488 1_555
O43 P10 1.537421 1_555
O44 P11 1.573552 1_555
O44 V4 1.959000 1_555
O45 P11 1.526303 1_555
O45 V5 2.079079 1_555
O46 P1 1.544170 1_554
O46 V5 2.086392 1_555
O47 P11 1.561687 1_555
