# generated using pymatgen
data_CuNi4O5
_symmetry_space_group_name_H-M   'P 1'
_cell_length_a   12.29602165
_cell_length_b   12.29602165
_cell_length_c   5.15971656
_cell_angle_alpha   85.90129671
_cell_angle_beta   85.90129671
_cell_angle_gamma   13.92539410
_symmetry_Int_Tables_number   1
_chemical_formula_structural   CuNi4O5
_chemical_formula_sum   'Cu2 Ni8 O10'
_cell_volume   187.25224553
_cell_formula_units_Z   2
loop_
 _symmetry_equiv_pos_site_id
 _symmetry_equiv_pos_as_xyz
  1  'x, y, z'
loop_
 _atom_site_type_symbol
 _atom_site_label
 _atom_site_symmetry_multiplicity
 _atom_site_fract_x
 _atom_site_fract_y
 _atom_site_fract_z
 _atom_site_occupancy
  Cu  Cu0  1  0.90001300  0.90001300  0.69953100  1
  Cu  Cu1  1  0.09998700  0.09998700  0.30046900  1
  Ni  Ni0  1  0.20035300  0.20035300  0.60026400  1
  Ni  Ni1  1  0.69949500  0.69949500  0.10008300  1
  Ni  Ni2  1  0.60003000  0.60003000  0.79966000  1
  Ni  Ni3  1  0.50000000  0.50000000  0.50000000  1
  Ni  Ni4  1  0.00000000  0.00000000  0.00000000  1
  Ni  Ni5  1  0.30050500  0.30050500  0.89991700  1
  Ni  Ni6  1  0.39997000  0.39997000  0.20034000  1
  Ni  Ni7  1  0.79964700  0.79964700  0.39973600  1
  O  O0  1  0.75033800  0.75033800  0.75107000  1
  O  O1  1  0.65106000  0.65106000  0.45426300  1
  O  O2  1  0.15035600  0.15035600  0.94595300  1
  O  O3  1  0.04944000  0.04944000  0.65331800  1
  O  O4  1  0.24966200  0.24966200  0.24893000  1
  O  O5  1  0.34894000  0.34894000  0.54573700  1
  O  O6  1  0.45109900  0.45109900  0.85340600  1
  O  O7  1  0.54890100  0.54890100  0.14659400  1
  O  O8  1  0.84964400  0.84964400  0.05404700  1
  O  O9  1  0.95056000  0.95056000  0.34668200  1
loop_
_geom_bond_atom_site_label_1
_geom_bond_atom_site_label_2
_geom_bond_distance
_geom_bond_site_symmetry_2
Cu0 O9 2.124513 1_555
Cu0 O8 2.129286 1_556
Cu0 O5 2.132668 1_655
Cu0 O5 2.132668 1_565
Cu0 O6 2.133035 1_565
Cu0 O6 2.133035 1_655
Cu1 O3 2.124513 1_555
Cu1 O2 2.129286 1_554
Cu1 O1 2.132668 1_455
Cu1 O1 2.132668 1_545
Cu1 O7 2.133035 1_545
Cu1 O7 2.133035 1_455
Ni0 O2 2.087453 1_555
Ni0 O1 2.089901 1_455
Ni0 O1 2.089901 1_545
Ni0 O4 2.102562 1_555
Ni0 O0 2.110161 1_545
Ni0 O0 2.110161 1_455
Ni1 O1 2.103898 1_555
Ni1 O2 2.104862 1_654
Ni1 O2 2.104862 1_564
Ni1 O4 2.108727 1_565
Ni1 O4 2.108727 1_655
Ni1 O0 2.112203 1_554
Ni2 O1 2.099540 1_555
Ni2 O2 2.105773 1_655
Ni2 O2 2.105773 1_565
Ni2 O7 2.107221 1_556
Ni2 O3 2.109806 1_565
Ni2 O3 2.109806 1_655
Ni3 O7 2.106306 1_555
Ni3 O6 2.106306 1_555
Ni3 O9 2.107508 1_545
Ni3 O9 2.107508 1_455
Ni3 O3 2.107508 1_655
Ni3 O3 2.107508 1_565
Ni4 O9 2.084554 1_445
Ni4 O3 2.084554 1_554
Ni4 O7 2.085391 1_455
Ni4 O7 2.085391 1_545
Ni4 O6 2.085391 1_454
Ni4 O6 2.085391 1_544
Ni5 O5 2.103898 1_555
Ni5 O8 2.104862 1_546
Ni5 O8 2.104862 1_456
Ni5 O0 2.108727 1_545
Ni5 O0 2.108727 1_455
Ni5 O4 2.112203 1_556
Ni6 O5 2.099540 1_555
Ni6 O8 2.105773 1_455
Ni6 O8 2.105773 1_545
Ni6 O6 2.107221 1_554
Ni6 O9 2.109806 1_455
Ni6 O9 2.109806 1_545
Ni7 O8 2.087453 1_555
Ni7 O5 2.089901 1_655
Ni7 O5 2.089901 1_565
Ni7 O0 2.102562 1_555
Ni7 O4 2.110161 1_655
Ni7 O4 2.110161 1_565
