# generated using pymatgen
data_Mn3(OF2)2
_symmetry_space_group_name_H-M   'P 1'
_cell_length_a   5.80901395
_cell_length_b   5.80901395
_cell_length_c   7.14321147
_cell_angle_alpha   74.43463806
_cell_angle_beta   74.43463806
_cell_angle_gamma   76.71310696
_symmetry_Int_Tables_number   1
_chemical_formula_structural   Mn3(OF2)2
_chemical_formula_sum   'Mn6 O4 F8'
_cell_volume   220.43004839
_cell_formula_units_Z   2
loop_
 _symmetry_equiv_pos_site_id
 _symmetry_equiv_pos_as_xyz
  1  'x, y, z'
loop_
 _atom_site_type_symbol
 _atom_site_label
 _atom_site_symmetry_multiplicity
 _atom_site_fract_x
 _atom_site_fract_y
 _atom_site_fract_z
 _atom_site_occupancy
  Mn  Mn0  1  0.66718800  0.66718800  0.83608700  1
  Mn  Mn1  1  0.34941200  0.34941200  0.67049100  1
  Mn  Mn2  1  0.65058800  0.65058800  0.32950900  1
  Mn  Mn3  1  0.33281200  0.33281200  0.16391300  1
  Mn  Mn4  1  0.00000000  0.00000000  0.50000000  1
  Mn  Mn5  1  0.00000000  0.00000000  0.00000000  1
  O  O0  1  0.57065900  0.57065900  0.62725900  1
  O  O1  1  0.24105800  0.24105800  0.96073100  1
  O  O2  1  0.75894200  0.75894200  0.03926900  1
  O  O3  1  0.42934100  0.42934100  0.37274100  1
  F  F0  1  0.63982400  0.02176200  0.67307100  1
  F  F1  1  0.97823800  0.36017600  0.32692900  1
  F  F2  1  0.87884300  0.87884300  0.30524300  1
  F  F3  1  0.12115700  0.12115700  0.69475700  1
  F  F4  1  0.36017600  0.97823800  0.32692900  1
  F  F5  1  0.02176200  0.63982400  0.67307100  1
  F  F6  1  0.69257300  0.30742700  0.00000000  1
  F  F7  1  0.30742700  0.69257300  0.00000000  1
loop_
_geom_bond_atom_site_label_1
_geom_bond_atom_site_label_2
_geom_bond_distance
_geom_bond_site_symmetry_2
Mn0 O2 1.906716 1_556
Mn0 O0 1.973922 1_555
Mn1 O0 1.931899 1_555
Mn1 O1 1.967775 1_555
Mn1 O3 1.998488 1_555
Mn2 O3 1.931899 1_555
Mn2 O2 1.967775 1_555
Mn2 O0 1.998488 1_555
Mn3 O1 1.906716 1_554
Mn3 O3 1.973922 1_555
Mn5 O2 2.116631 1_445
Mn5 O1 2.116631 1_554
F0 Mn0 2.070108 1_545
F0 Mn4 2.120395 1_655
F0 Mn1 2.234037 1_555
F1 Mn3 2.070108 1_655
F1 Mn4 2.120395 1_655
F1 Mn2 2.234037 1_555
F2 Mn2 2.026744 1_555
F2 Mn4 2.050540 1_665
F2 Mn5 2.079766 1_665
F3 Mn1 2.026744 1_555
F3 Mn4 2.050540 1_555
F3 Mn5 2.079766 1_556
F4 Mn3 2.070108 1_565
F4 Mn4 2.120395 1_565
F4 Mn2 2.234037 1_555
F5 Mn0 2.070108 1_455
F5 Mn4 2.120395 1_565
F5 Mn1 2.234037 1_555
F6 Mn3 2.097133 1_555
F6 Mn0 2.097133 1_554
F6 Mn5 2.216428 1_655
F7 Mn3 2.097133 1_555
F7 Mn0 2.097133 1_554
F7 Mn5 2.216428 1_565
