# generated using pymatgen
data_NaSb5O13
_symmetry_space_group_name_H-M   'P 1'
_cell_length_a   5.62216552
_cell_length_b   5.62216552
_cell_length_c   16.78283300
_cell_angle_alpha   90.00000000
_cell_angle_beta   90.00000000
_cell_angle_gamma   107.09087646
_symmetry_Int_Tables_number   1
_chemical_formula_structural   NaSb5O13
_chemical_formula_sum   'Na2 Sb10 O26'
_cell_volume   507.05801066
_cell_formula_units_Z   2
loop_
 _symmetry_equiv_pos_site_id
 _symmetry_equiv_pos_as_xyz
  1  'x, y, z'
loop_
 _atom_site_type_symbol
 _atom_site_label
 _atom_site_symmetry_multiplicity
 _atom_site_fract_x
 _atom_site_fract_y
 _atom_site_fract_z
 _atom_site_occupancy
  Na  Na0  1  0.89841700  0.15089700  0.75000000  1
  Na  Na1  1  0.15089700  0.89841700  0.25000000  1
  Sb  Sb0  1  0.38562600  0.61466500  0.07964400  1
  Sb  Sb1  1  0.61466500  0.38562600  0.92035600  1
  Sb  Sb2  1  0.00022800  0.00022800  0.00000000  1
  Sb  Sb3  1  0.38562600  0.61466500  0.42035600  1
  Sb  Sb4  1  0.61466500  0.38562600  0.57964400  1
  Sb  Sb5  1  0.00022800  0.00022800  0.50000000  1
  Sb  Sb6  1  0.76911200  0.23258100  0.36098200  1
  Sb  Sb7  1  0.76911200  0.23258100  0.13901800  1
  Sb  Sb8  1  0.23258100  0.76911200  0.86098200  1
  Sb  Sb9  1  0.23258100  0.76911200  0.63901800  1
  O  O0  1  0.53031200  0.06882300  0.86362400  1
  O  O1  1  0.06882300  0.53031200  0.36362400  1
  O  O2  1  0.06882300  0.53031200  0.13637600  1
  O  O3  1  0.53031200  0.06882300  0.63637600  1
  O  O4  1  0.31104900  0.31104900  0.00000000  1
  O  O5  1  0.31104900  0.31104900  0.50000000  1
  O  O6  1  0.01373800  0.98660900  0.61510700  1
  O  O7  1  0.17113700  0.82861400  0.75000000  1
  O  O8  1  0.22567800  0.77441100  0.98965600  1
  O  O9  1  0.22567800  0.77441100  0.51034400  1
  O  O10  1  0.44570900  0.55271000  0.65399000  1
  O  O11  1  0.55271000  0.44570900  0.15399000  1
  O  O12  1  0.77441100  0.22567800  0.48965600  1
  O  O13  1  0.98660900  0.01373800  0.38489300  1
  O  O14  1  0.55271000  0.44570900  0.34601000  1
  O  O15  1  0.98660900  0.01373800  0.11510700  1
  O  O16  1  0.82861400  0.17113700  0.25000000  1
  O  O17  1  0.77441100  0.22567800  0.01034400  1
  O  O18  1  0.01373800  0.98660900  0.88489300  1
  O  O19  1  0.44570900  0.55271000  0.84601000  1
  O  O20  1  0.68916000  0.68916000  0.50000000  1
  O  O21  1  0.68916000  0.68916000  0.00000000  1
  O  O22  1  0.47050600  0.93207400  0.36350600  1
  O  O23  1  0.93207400  0.47050600  0.63649400  1
  O  O24  1  0.93207400  0.47050600  0.86350600  1
  O  O25  1  0.47050600  0.93207400  0.13649400  1
loop_
_geom_bond_atom_site_label_1
_geom_bond_atom_site_label_2
_geom_bond_distance
_geom_bond_site_symmetry_2
Na0 O23 2.587204 1_555
Na0 O24 2.587204 1_555
Na0 O18 2.598206 1_645
Na0 O6 2.598206 1_645
Na0 O7 2.695733 1_645
Na0 O0 2.751552 1_555
Na0 O3 2.751552 1_555
Na1 O22 2.587204 1_555
Na1 O25 2.587204 1_555
Na1 O13 2.598206 1_465
Na1 O15 2.598206 1_465
Na1 O16 2.695733 1_465
Na1 O1 2.751552 1_555
Na1 O2 2.751552 1_555
O0 Sb1 1.951242 1_555
O0 Sb8 1.996331 1_545
O1 Sb3 1.951242 1_555
O1 Sb6 1.996331 1_455
O2 Sb0 1.951242 1_555
O2 Sb7 1.996331 1_455
O3 Sb4 1.951242 1_555
O3 Sb9 1.996331 1_545
O4 Sb2 2.076662 1_555
O4 Sb0 2.110815 1_555
O4 Sb1 2.110815 1_554
O5 Sb5 2.076662 1_555
O5 Sb4 2.110815 1_555
O5 Sb3 2.110815 1_555
O6 Sb5 1.935713 1_565
O6 Sb9 2.013557 1_555
O7 Sb8 1.941242 1_555
O7 Sb9 1.941242 1_555
O8 Sb2 2.048031 1_566
O8 Sb0 2.090658 1_556
O8 Sb8 2.160226 1_555
O9 Sb5 2.048031 1_565
O9 Sb3 2.090658 1_555
O9 Sb9 2.160226 1_555
O10 Sb9 1.958579 1_555
O10 Sb4 1.966229 1_555
O11 Sb7 1.958579 1_555
O11 Sb0 1.966229 1_555
O12 Sb5 2.048031 1_655
O12 Sb4 2.090658 1_555
O12 Sb6 2.160226 1_555
O13 Sb5 1.935713 1_655
O13 Sb6 2.013557 1_555
O14 Sb6 1.958579 1_555
O14 Sb3 1.966229 1_555
O15 Sb2 1.935713 1_655
O15 Sb7 2.013557 1_555
O16 Sb6 1.941242 1_555
O16 Sb7 1.941242 1_555
O17 Sb2 2.048031 1_655
O17 Sb1 2.090658 1_554
O17 Sb7 2.160226 1_555
O18 Sb2 1.935713 1_566
O18 Sb8 2.013557 1_555
O19 Sb8 1.958579 1_555
O19 Sb1 1.966229 1_555
O20 Sb5 2.078312 1_665
O20 Sb4 2.110487 1_555
O20 Sb3 2.110487 1_555
O21 Sb2 2.078312 1_665
O21 Sb0 2.110487 1_555
O21 Sb1 2.110487 1_554
O22 Sb3 1.955001 1_555
O22 Sb6 2.001868 1_565
O23 Sb4 1.955001 1_555
O23 Sb9 2.001868 1_655
O24 Sb1 1.955001 1_555
O24 Sb8 2.001868 1_655
O25 Sb0 1.955001 1_555
O25 Sb7 2.001868 1_565
