# generated using pymatgen
data_Li8TiMn3O12
_symmetry_space_group_name_H-M   'P 1'
_cell_length_a   4.95421356
_cell_length_b   8.44879800
_cell_length_c   9.95332302
_cell_angle_alpha   90.00187547
_cell_angle_beta   90.06819789
_cell_angle_gamma   89.99893537
_symmetry_Int_Tables_number   1
_chemical_formula_structural   Li8TiMn3O12
_chemical_formula_sum   'Li16 Ti2 Mn6 O24'
_cell_volume   416.61743525
_cell_formula_units_Z   2
loop_
 _symmetry_equiv_pos_site_id
 _symmetry_equiv_pos_as_xyz
  1  'x, y, z'
loop_
 _atom_site_type_symbol
 _atom_site_label
 _atom_site_symmetry_multiplicity
 _atom_site_fract_x
 _atom_site_fract_y
 _atom_site_fract_z
 _atom_site_occupancy
  Li  Li0  1  0.00369100  0.92139900  0.25016300  1
  Li  Li1  1  0.00369000  0.92142700  0.75016600  1
  Li  Li2  1  0.00208000  0.23121400  0.25022400  1
  Li  Li3  1  0.00208400  0.23125700  0.75022400  1
  Li  Li4  1  0.00030600  0.56359000  0.00008500  1
  Li  Li5  1  0.00031400  0.56359300  0.50004600  1
  Li  Li6  1  0.00010100  0.25295400  0.00024400  1
  Li  Li7  1  0.00036800  0.25295400  0.50021600  1
  Li  Li8  1  0.50102700  0.75750400  0.24998600  1
  Li  Li9  1  0.50102100  0.75746900  0.74998900  1
  Li  Li10  1  0.50008000  0.72782500  0.49998900  1
  Li  Li11  1  0.49990200  0.72782400  0.00000900  1
  Li  Li12  1  0.50029600  0.41549900  0.00019900  1
  Li  Li13  1  0.50017800  0.41549600  0.50015100  1
  Li  Li14  1  0.50328500  0.07145500  0.25040100  1
  Li  Li15  1  0.50328600  0.07143800  0.75040200  1
  Ti  Ti0  1  0.00021200  0.90094100  0.00013600  1
  Ti  Ti1  1  0.00006300  0.90094700  0.50000100  1
  Mn  Mn0  1  0.00063800  0.57956600  0.75006700  1
  Mn  Mn1  1  0.50048500  0.08500200  0.00029200  1
  Mn  Mn2  1  0.50032500  0.08499600  0.50025300  1
  Mn  Mn3  1  0.00064500  0.57961000  0.25006300  1
  Mn  Mn4  1  0.50072700  0.40367400  0.25017000  1
  Mn  Mn5  1  0.50071900  0.40377100  0.75018500  1
  O  O0  1  0.13887900  0.74106600  0.12735800  1
  O  O1  1  0.13833100  0.74115600  0.62743300  1
  O  O2  1  0.86246800  0.74121900  0.37274400  1
  O  O3  1  0.86299700  0.74130600  0.87266300  1
  O  O4  1  0.17576200  0.41810400  0.14312400  1
  O  O5  1  0.17600700  0.41830700  0.64307300  1
  O  O6  1  0.82556200  0.41818600  0.35713100  1
  O  O7  1  0.82530500  0.41838800  0.85718000  1
  O  O8  1  0.17979200  0.06979200  0.10852500  1
  O  O9  1  0.17974000  0.06981300  0.60855300  1
  O  O10  1  0.82151800  0.06989500  0.39193800  1
  O  O11  1  0.82156900  0.06992000  0.89190800  1
  O  O12  1  0.32662400  0.56736100  0.35739600  1
  O  O13  1  0.32643200  0.56716100  0.85743400  1
  O  O14  1  0.67454900  0.56732400  0.14279100  1
  O  O15  1  0.67470900  0.56713100  0.64273200  1
  O  O16  1  0.32974900  0.92127100  0.39122800  1
  O  O17  1  0.32987900  0.92131900  0.89124000  1
  O  O18  1  0.67148600  0.92126300  0.10918800  1
  O  O19  1  0.67135800  0.92130500  0.60917400  1
  O  O20  1  0.35244500  0.24508000  0.37578400  1
  O  O21  1  0.35298000  0.24510100  0.87588300  1
  O  O22  1  0.64896800  0.24506900  0.12460300  1
  O  O23  1  0.64843000  0.24508700  0.62449700  1
loop_
_geom_bond_atom_site_label_1
_geom_bond_atom_site_label_2
_geom_bond_distance
_geom_bond_site_symmetry_2
Li0 O0 2.065372 1_555
Li0 O2 2.073096 1_455
Li0 O8 2.079317 1_565
Li0 O10 2.093507 1_465
Li0 O16 2.139017 1_555
Li0 O18 2.161503 1_455
Li1 O1 2.063682 1_555
Li1 O3 2.071351 1_455
Li1 O9 2.079006 1_565
Li1 O11 2.093159 1_465
Li1 O17 2.139565 1_555
Li1 O19 2.162091 1_455
Li2 O4 2.091009 1_555
Li2 O6 2.096306 1_455
Li2 O20 2.140876 1_555
Li2 O8 2.151070 1_555
Li2 O22 2.152263 1_455
Li2 O10 2.156525 1_455
Li3 O5 2.092781 1_555
Li3 O7 2.098107 1_455
Li3 O21 2.143571 1_555
Li3 O9 2.150891 1_555
Li3 O23 2.155044 1_455
Li3 O11 2.156329 1_455
Li4 O7 2.068048 1_454
Li4 O4 2.071368 1_555
Li4 O0 2.079011 1_555
Li4 O3 2.079365 1_454
Li4 O14 2.151408 1_455
Li4 O13 2.152402 1_554
Li5 O6 2.068629 1_455
Li5 O5 2.070776 1_555
Li5 O2 2.078959 1_455
Li5 O1 2.079326 1_555
Li5 O15 2.150687 1_455
Li5 O12 2.153104 1_555
Li6 O11 2.081857 1_454
Li6 O8 2.084847 1_555
Li6 O22 2.137253 1_455
Li6 O21 2.144304 1_554
Li6 O4 2.173407 1_555
Li6 O7 2.174477 1_454
Li7 O10 2.082385 1_455
Li7 O9 2.084330 1_555
Li7 O23 2.140049 1_455
Li7 O20 2.141478 1_555
Li7 O6 2.173537 1_455
Li7 O5 2.174315 1_555
Li8 O14 2.112155 1_555
Li8 O12 2.114860 1_555
Li8 O18 2.143444 1_555
Li8 O16 2.147905 1_555
Li8 O2 2.170965 1_555
Li8 O0 2.173208 1_555
Li9 O15 2.113818 1_555
Li9 O13 2.116473 1_555
Li9 O19 2.143736 1_555
Li9 O17 2.148149 1_555
Li9 O3 2.172616 1_555
Li9 O1 2.174956 1_555
Li10 O16 2.133795 1_555
Li10 O19 2.137981 1_555
Li10 O12 2.141918 1_555
Li10 O15 2.146507 1_555
Li10 O1 2.199788 1_555
Li10 O2 2.201263 1_555
Li11 O17 2.133550 1_554
Li11 O18 2.138287 1_555
Li11 O13 2.142892 1_554
Li11 O14 2.145763 1_555
Li11 O0 2.196271 1_555
Li11 O3 2.204740 1_554
Li12 O21 2.033249 1_554
Li12 O22 2.036426 1_555
Li12 O13 2.097664 1_554
Li12 O14 2.098094 1_555
Li12 O4 2.148188 1_555
Li12 O7 2.150599 1_554
Li13 O20 2.034406 1_555
Li13 O23 2.035200 1_555
Li13 O15 2.097605 1_555
Li13 O12 2.098016 1_555
Li13 O5 2.146840 1_555
Li13 O6 2.151980 1_555
Li14 O22 2.059755 1_555
Li14 O20 2.066354 1_555
Li14 O18 2.069488 1_545
Li14 O16 2.077731 1_545
Li14 O10 2.113090 1_555
Li14 O8 2.134816 1_555
Li15 O23 2.059678 1_555
Li15 O21 2.066214 1_555
Li15 O19 2.069026 1_545
Li15 O17 2.077204 1_545
Li15 O11 2.113067 1_555
Li15 O9 2.134833 1_555
Mn0 O5 1.935786 1_555
Mn0 O7 1.935949 1_455
Mn0 O13 1.937544 1_555
Mn0 O15 1.937939 1_455
Mn0 O1 1.954803 1_555
Mn0 O3 1.955289 1_455
Mn1 O8 1.924931 1_555
Mn1 O11 1.927293 1_554
Mn1 O17 1.950075 1_544
Mn1 O18 1.950424 1_545
Mn1 O21 1.973559 1_554
Mn1 O22 1.974522 1_555
Mn2 O9 1.924848 1_555
Mn2 O10 1.927365 1_555
Mn2 O16 1.950113 1_545
Mn2 O19 1.950343 1_545
Mn2 O23 1.973548 1_555
Mn2 O20 1.974534 1_555
Mn3 O4 1.936394 1_555
Mn3 O6 1.936609 1_455
Mn3 O12 1.938050 1_555
Mn3 O14 1.938215 1_455
Mn3 O0 1.955394 1_555
Mn3 O2 1.955974 1_455
Mn4 O6 1.932412 1_555
Mn4 O4 1.933370 1_555
Mn4 O12 1.948753 1_555
Mn4 O14 1.948822 1_555
Mn4 O22 1.974611 1_555
Mn4 O20 1.974994 1_555
Mn5 O7 1.931628 1_555
Mn5 O5 1.932746 1_555
Mn5 O13 1.947503 1_555
Mn5 O15 1.947858 1_555
Mn5 O23 1.974850 1_555
Mn5 O21 1.974959 1_555
O0 Ti0 1.974324 1_555
O1 Ti1 1.974494 1_555
O2 Ti1 1.971820 1_655
O3 Ti0 1.972016 1_656
O8 Ti0 1.997052 1_545
O9 Ti1 1.998232 1_545
O10 Ti1 1.993639 1_645
O11 Ti0 1.994927 1_646
O16 Ti1 1.968156 1_555
O17 Ti0 1.968793 1_556
O18 Ti0 1.965729 1_655
O19 Ti1 1.966336 1_655
