# generated using pymatgen
data_Ta2CrNO5
_symmetry_space_group_name_H-M   'P 1'
_cell_length_a   4.76166709
_cell_length_b   9.24916823
_cell_length_c   4.76300503
_cell_angle_alpha   90.16804155
_cell_angle_beta   89.70383265
_cell_angle_gamma   90.08149987
_symmetry_Int_Tables_number   1
_chemical_formula_structural   Ta2CrNO5
_chemical_formula_sum   'Ta4 Cr2 N2 O10'
_cell_volume   209.76578331
_cell_formula_units_Z   2
loop_
 _symmetry_equiv_pos_site_id
 _symmetry_equiv_pos_as_xyz
  1  'x, y, z'
loop_
 _atom_site_type_symbol
 _atom_site_label
 _atom_site_symmetry_multiplicity
 _atom_site_fract_x
 _atom_site_fract_y
 _atom_site_fract_z
 _atom_site_occupancy
  Ta  Ta0  1  0.00924500  0.33985300  0.98879400  1
  Ta  Ta1  1  0.00026400  0.66462400  0.97628000  1
  Ta  Ta2  1  0.50105300  0.16381300  0.49197600  1
  Ta  Ta3  1  0.51250300  0.82181700  0.50236400  1
  Cr  Cr0  1  0.49889200  0.50029000  0.50182100  1
  Cr  Cr1  1  0.99766200  0.00158000  0.00391500  1
  N  N0  1  0.69565900  0.66921200  0.69982100  1
  N  N1  1  0.19675400  0.49869900  0.80603100  1
  O  O0  1  0.80911300  0.49864300  0.19694600  1
  O  O1  1  0.80407500  0.83585600  0.20206300  1
  O  O2  1  0.79827800  0.16693400  0.20086800  1
  O  O3  1  0.30033100  0.32645900  0.30509400  1
  O  O4  1  0.30073300  0.67209200  0.30689600  1
  O  O5  1  0.29932700  0.00604600  0.30730600  1
  O  O6  1  0.69007400  0.00246000  0.69645600  1
  O  O7  1  0.69491400  0.32768900  0.69927900  1
  O  O8  1  0.19393100  0.16846600  0.80597100  1
  O  O9  1  0.19719100  0.83546400  0.80811900  1
loop_
_geom_bond_atom_site_label_1
_geom_bond_atom_site_label_2
_geom_bond_distance
_geom_bond_site_symmetry_2
Cr0 N1 2.036664 1_555
Cr0 N0 2.050519 1_555
Cr0 O0 2.066077 1_555
Cr0 O4 2.073470 1_555
Cr0 O7 2.080003 1_555
Cr0 O3 2.086365 1_555
Cr1 O1 2.021239 1_545
Cr1 O2 2.026549 1_555
Cr1 O9 2.029678 1_644
Cr1 O8 2.034747 1_654
Cr1 O5 2.043074 1_655
Cr1 O6 2.076546 1_554
N0 Ta3 1.912365 1_555
N0 Ta1 1.964608 1_655
N1 Ta0 1.925935 1_555
N1 Ta1 1.969032 1_555
O0 Ta0 2.008419 1_654
O0 Ta1 2.070151 1_654
O1 Ta3 1.992570 1_555
O1 Ta1 2.126337 1_654
O2 Ta2 1.976416 1_555
O2 Ta0 2.140516 1_654
O3 Ta2 1.997396 1_555
O3 Ta0 2.056532 1_554
O4 Ta3 1.949242 1_555
O4 Ta1 2.133988 1_554
O5 Ta2 1.955211 1_555
O5 Ta3 2.195674 1_545
O6 Ta2 2.001816 1_555
O6 Ta3 2.087133 1_545
O7 Ta2 2.030051 1_555
O7 Ta0 2.043128 1_655
O8 Ta0 2.008086 1_555
O8 Ta2 2.086718 1_555
O9 Ta1 2.003261 1_555
O9 Ta3 2.089945 1_555
