# generated using pymatgen
data_LiV4OF11
_symmetry_space_group_name_H-M   'P 1'
_cell_length_a   5.20462300
_cell_length_b   5.50782364
_cell_length_c   17.26767000
_cell_angle_alpha   83.39282066
_cell_angle_beta   81.43936169
_cell_angle_gamma   61.93499928
_symmetry_Int_Tables_number   1
_chemical_formula_structural   LiV4OF11
_chemical_formula_sum   'Li2 V8 O2 F22'
_cell_volume   431.35111463
_cell_formula_units_Z   2
loop_
 _symmetry_equiv_pos_site_id
 _symmetry_equiv_pos_as_xyz
  1  'x, y, z'
loop_
 _atom_site_type_symbol
 _atom_site_label
 _atom_site_symmetry_multiplicity
 _atom_site_fract_x
 _atom_site_fract_y
 _atom_site_fract_z
 _atom_site_occupancy
  Li  Li0  1  0.45412600  0.41144400  0.68574400  1
  Li  Li1  1  0.58999900  0.49769300  0.31370400  1
  V  V0  1  0.37793400  0.37203300  0.87883000  1
  V  V1  1  0.22450300  0.25975300  0.24369500  1
  V  V2  1  0.86966900  0.87073700  0.37517900  1
  V  V3  1  0.00876300  0.99660100  0.00344800  1
  V  V4  1  0.74981100  0.75252700  0.75065000  1
  V  V5  1  0.14203800  0.13732300  0.61892700  1
  V  V6  1  0.48526500  0.49115700  0.50489300  1
  V  V7  1  0.63991300  0.61511400  0.12959900  1
  O  O0  1  0.84220000  0.47072800  0.21925300  1
  O  O1  1  0.34093400  0.34522900  0.59397900  1
  F  F0  1  0.16726700  0.15803300  0.90806500  1
  F  F1  1  0.56095700  0.19735300  0.43279100  1
  F  F2  1  0.08254500  0.69188400  0.93374100  1
  F  F3  1  0.67563000  0.06974600  0.80932800  1
  F  F4  1  0.65070600  0.64741900  0.40346000  1
  F  F5  1  0.61186100  0.20847500  0.96583200  1
  F  F6  1  0.34951600  0.97087600  0.71744500  1
  F  F7  1  0.07190900  0.09722700  0.34263800  1
  F  F8  1  0.90167700  0.27208300  0.53250400  1
  F  F9  1  0.60120200  0.58399100  0.84052300  1
  F  F10  1  0.80103500  0.44804100  0.68813300  1
  F  F11  1  0.19348500  0.56181100  0.31341000  1
  F  F12  1  0.41739400  0.39617800  0.15645700  1
  F  F13  1  0.08759700  0.71787000  0.46610600  1
  F  F14  1  0.90822100  0.91958700  0.66281200  1
  F  F15  1  0.63679100  0.04226200  0.28692500  1
  F  F16  1  0.40033100  0.78606500  0.03495300  1
  F  F17  1  0.16835600  0.52335900  0.77784800  1
  F  F18  1  0.31806400  0.92388400  0.19011500  1
  F  F19  1  0.93244700  0.31941900  0.05838100  1
  F  F20  1  0.44402500  0.80109900  0.56338800  1
  F  F21  1  0.84540600  0.84579900  0.09163900  1
loop_
_geom_bond_atom_site_label_1
_geom_bond_atom_site_label_2
_geom_bond_distance
_geom_bond_site_symmetry_2
Li0 O1 1.898418 1_555
Li1 O0 1.907869 1_555
O0 V1 1.857167 1_655
O0 V7 1.884580 1_555
O1 V5 1.854066 1_555
O1 V6 1.875164 1_555
F0 V0 1.939232 1_555
F0 V3 2.032863 1_546
F1 V2 2.005916 1_545
F1 V6 2.010400 1_555
F2 V0 1.941162 1_555
F2 V3 2.033207 1_556
F3 V4 1.970929 1_545
F3 V0 2.022847 1_555
F4 Li1 1.966496 1_555
F4 V2 2.016220 1_555
F4 V6 2.109828 1_555
F5 V0 1.936980 1_555
F5 V3 2.001922 1_646
F6 V4 1.988703 1_555
F6 V5 2.038878 1_565
F7 V2 1.969257 1_445
F7 V1 2.064976 1_555
F8 V5 1.941679 1_655
F8 V6 2.023586 1_555
F9 V4 1.963417 1_555
F9 V0 2.005159 1_555
F10 Li0 1.915414 1_555
F10 V4 1.989773 1_555
F10 V5 2.118497 1_655
F11 Li1 1.923686 1_555
F11 V2 2.014287 1_455
F11 V1 2.096039 1_555
F12 V1 1.959796 1_555
F12 V7 2.008959 1_555
F13 V2 1.946272 1_455
F13 V6 2.019887 1_555
F14 V4 1.961456 1_555
F14 V5 2.093541 1_665
F15 V2 1.955789 1_545
F15 V1 2.109291 1_555
F15 Li1 2.494786 1_555
F16 V3 1.937823 1_555
F16 V7 2.064032 1_555
F17 Li0 1.944286 1_555
F17 V4 2.034702 1_455
F17 V0 2.073981 1_555
F18 V1 1.981766 1_565
F18 V7 1.999361 1_555
F19 V3 1.957127 1_645
F19 V7 2.013243 1_555
F20 V6 1.991987 1_555
F20 V5 2.010141 1_565
F21 V3 1.928668 1_655
F21 V7 2.016470 1_555
