# generated using pymatgen
data_LiVF4
_symmetry_space_group_name_H-M   'P 1'
_cell_length_a   4.75222400
_cell_length_b   6.28182700
_cell_length_c   9.96829700
_cell_angle_alpha   90.00000000
_cell_angle_beta   90.00000000
_cell_angle_gamma   90.00000000
_symmetry_Int_Tables_number   1
_chemical_formula_structural   LiVF4
_chemical_formula_sum   'Li4 V4 F16'
_cell_volume   297.58007180
_cell_formula_units_Z   4
loop_
 _symmetry_equiv_pos_site_id
 _symmetry_equiv_pos_as_xyz
  1  'x, y, z'
loop_
 _atom_site_type_symbol
 _atom_site_label
 _atom_site_symmetry_multiplicity
 _atom_site_fract_x
 _atom_site_fract_y
 _atom_site_fract_z
 _atom_site_occupancy
  Li  Li0  1  0.97334200  0.75000000  0.71611100  1
  Li  Li1  1  0.52665800  0.75000000  0.21611100  1
  Li  Li2  1  0.47334200  0.25000000  0.78388900  1
  Li  Li3  1  0.02665800  0.25000000  0.28388900  1
  V  V0  1  0.50000000  0.50000000  0.50000000  1
  V  V1  1  0.00000000  0.50000000  0.00000000  1
  V  V2  1  0.50000000  0.00000000  0.50000000  1
  V  V3  1  0.00000000  0.00000000  0.00000000  1
  F  F0  1  0.75420800  0.51374800  0.15043600  1
  F  F1  1  0.25420800  0.48625200  0.34956400  1
  F  F2  1  0.81166900  0.75000000  0.90918400  1
  F  F3  1  0.68833100  0.75000000  0.40918400  1
  F  F4  1  0.28161400  0.75000000  0.57846400  1
  F  F5  1  0.21838600  0.75000000  0.07846400  1
  F  F6  1  0.74579200  0.98625200  0.65043600  1
  F  F7  1  0.75420800  0.98625200  0.15043600  1
  F  F8  1  0.24579200  0.01374800  0.84956400  1
  F  F9  1  0.25420800  0.01374800  0.34956400  1
  F  F10  1  0.78161400  0.25000000  0.92153600  1
  F  F11  1  0.71838600  0.25000000  0.42153600  1
  F  F12  1  0.31166900  0.25000000  0.59081600  1
  F  F13  1  0.18833100  0.25000000  0.09081600  1
  F  F14  1  0.74579200  0.51374800  0.65043600  1
  F  F15  1  0.24579200  0.48625200  0.84956400  1
loop_
_geom_bond_atom_site_label_1
_geom_bond_atom_site_label_2
_geom_bond_distance
_geom_bond_site_symmetry_2
F0 V1 1.902785 1_655
F0 Li1 1.949483 1_555
F0 Li3 2.488193 1_655
F1 V0 1.902785 1_555
F1 Li3 1.949483 1_555
F1 Li1 2.488193 1_555
F2 V3 2.021603 1_666
F2 V1 2.021603 1_656
F2 Li0 2.072297 1_555
F3 V0 2.021603 1_555
F3 V2 2.021603 1_565
F3 Li1 2.072297 1_555
F4 Li0 2.007196 1_455
F4 V0 2.038422 1_555
F4 V2 2.038422 1_565
F5 Li1 2.007196 1_555
F5 V3 2.038422 1_565
F5 V1 2.038422 1_555
F6 V2 1.902785 1_565
F6 Li0 1.949483 1_555
F6 Li2 2.488193 1_565
F7 V3 1.902785 1_665
F7 Li1 1.949483 1_555
F7 Li3 2.488193 1_665
F8 V3 1.902785 1_556
F8 Li2 1.949483 1_555
F8 Li0 2.488193 1_445
F9 V2 1.902785 1_555
F9 Li3 1.949483 1_555
F9 Li1 2.488193 1_545
F10 Li2 2.007196 1_555
F10 V3 2.038422 1_656
F10 V1 2.038422 1_656
F11 Li3 2.007196 1_655
F11 V0 2.038422 1_555
F11 V2 2.038422 1_555
F12 V2 2.021603 1_555
F12 V0 2.021603 1_555
F12 Li2 2.072297 1_555
F13 V3 2.021603 1_555
F13 V1 2.021603 1_555
F13 Li3 2.072297 1_555
F14 V0 1.902785 1_555
F14 Li0 1.949483 1_555
F14 Li2 2.488193 1_555
F15 V1 1.902785 1_556
F15 Li2 1.949483 1_555
F15 Li0 2.488193 1_455
