# generated using pymatgen
data_MgSiO3
_symmetry_space_group_name_H-M   'P 1'
_cell_length_a   10.05341496
_cell_length_b   10.05341496
_cell_length_c   10.05341496
_cell_angle_alpha   109.24155338
_cell_angle_beta   109.24155338
_cell_angle_gamma   109.93153810
_symmetry_Int_Tables_number   1
_chemical_formula_structural   MgSiO3
_chemical_formula_sum   'Mg16 Si16 O48'
_cell_volume   782.16412121
_cell_formula_units_Z   16
loop_
 _symmetry_equiv_pos_site_id
 _symmetry_equiv_pos_as_xyz
  1  'x, y, z'
loop_
 _atom_site_type_symbol
 _atom_site_label
 _atom_site_symmetry_multiplicity
 _atom_site_fract_x
 _atom_site_fract_y
 _atom_site_fract_z
 _atom_site_occupancy
  Mg  Mg0  1  0.00215400  0.50215300  0.50000000  1
  Mg  Mg1  1  0.75215300  0.75215300  0.00000000  1
  Mg  Mg2  1  0.12500000  0.37500000  0.25000000  1
  Mg  Mg3  1  0.48784200  0.62384500  0.39195300  1
  Mg  Mg4  1  0.01810800  0.65411000  0.89195300  1
  Mg  Mg5  1  0.34589000  0.23784200  0.36399800  1
  Mg  Mg6  1  0.37615500  0.76810800  0.86399800  1
  Mg  Mg7  1  0.12500000  0.87500000  0.25000000  1
  Mg  Mg8  1  0.62500000  0.87500000  0.75000000  1
  Mg  Mg9  1  0.87384500  0.98189200  0.63600200  1
  Mg  Mg10  1  0.90411000  0.51215800  0.13600200  1
  Mg  Mg11  1  0.23189200  0.09589000  0.60804700  1
  Mg  Mg12  1  0.76215800  0.12615500  0.10804700  1
  Mg  Mg13  1  0.49784700  0.99784600  0.50000000  1
  Mg  Mg14  1  0.12500000  0.87500000  0.75000000  1
  Mg  Mg15  1  0.24784700  0.24784700  0.00000000  1
  Si  Si0  1  0.85900800  0.74504900  0.36449800  1
  Si  Si1  1  0.62500000  0.37500000  0.25000000  1
  Si  Si2  1  0.74451000  0.60900800  0.61395900  1
  Si  Si3  1  0.62500000  0.87500000  0.25000000  1
  Si  Si4  1  0.75000000  0.25000000  0.50000000  1
  Si  Si5  1  0.25000000  0.75000000  0.50000000  1
  Si  Si6  1  0.62500000  0.37500000  0.75000000  1
  Si  Si7  1  0.99504900  0.13055100  0.38604100  1
  Si  Si8  1  0.86944900  0.25549000  0.86449800  1
  Si  Si9  1  0.12500000  0.37500000  0.75000000  1
  Si  Si10  1  0.38055100  0.49451000  0.63550200  1
  Si  Si11  1  0.25495100  0.61944900  0.11395900  1
  Si  Si12  1  0.00000000  0.00000000  0.00000000  1
  Si  Si13  1  0.50000000  0.50000000  0.00000000  1
  Si  Si14  1  0.50549000  0.14099200  0.88604100  1
  Si  Si15  1  0.39099200  0.00495100  0.13550200  1
  O  O0  1  0.71396800  0.79395300  0.36716300  1
  O  O1  1  0.71072800  0.75839300  0.62153600  1
  O  O2  1  0.80993100  0.55831100  0.33759200  1
  O  O3  1  0.74020300  0.30637100  0.36157300  1
  O  O4  1  0.09370600  0.56924300  0.35021700  1
  O  O5  1  0.44168900  0.77928200  0.25162000  1
  O  O6  1  0.72233800  0.55993100  0.75162000  1
  O  O7  1  0.93168200  0.64878000  0.66516100  1
  O  O8  1  0.98361900  0.26652100  0.33483900  1
  O  O9  1  0.69362900  0.05520200  0.43383200  1
  O  O10  1  0.62863100  0.49020300  0.93383200  1
  O  O11  1  0.21902600  0.74348900  0.64978300  1
  O  O12  1  0.99348900  0.84370600  0.02446300  1
  O  O13  1  0.43075700  0.78097400  0.52446300  1
  O  O14  1  0.94479800  0.37863100  0.63842700  1
  O  O15  1  0.82321100  0.40319600  0.86716300  1
  O  O16  1  0.33919200  0.46072800  0.45233600  1
  O  O17  1  0.24160700  0.86314400  0.95233600  1
  O  O18  1  0.73347900  0.06831800  0.71709800  1
  O  O19  1  0.89878000  0.73361900  0.21709800  1
  O  O20  1  0.22071800  0.47233800  0.66240800  1
  O  O21  1  0.13685600  0.08919200  0.37846400  1
  O  O22  1  0.04395300  0.17678900  0.57998500  1
  O  O23  1  0.65319600  0.28603200  0.07998500  1
  O  O24  1  0.20604700  0.57321100  0.92001500  1
  O  O25  1  0.59680400  0.46396800  0.42001500  1
  O  O26  1  0.11314400  0.66080800  0.12153600  1
  O  O27  1  0.02928200  0.27766200  0.83759200  1
  O  O28  1  0.51652100  0.68168200  0.78290200  1
  O  O29  1  0.35122000  0.01638100  0.28290200  1
  O  O30  1  0.00839300  0.88685600  0.54766400  1
  O  O31  1  0.91080800  0.28927200  0.04766400  1
  O  O32  1  0.42678900  0.34680400  0.63283700  1
  O  O33  1  0.30520200  0.37136900  0.86157300  1
  O  O34  1  0.25651100  0.90629400  0.47553700  1
  O  O35  1  0.81924300  0.96902600  0.97553700  1
  O  O36  1  0.03097400  0.00651100  0.85021700  1
  O  O37  1  0.55637100  0.69479800  0.06616800  1
  O  O38  1  0.62136900  0.25979700  0.56616800  1
  O  O39  1  0.26638100  0.48347900  0.16516100  1
  O  O40  1  0.31831800  0.10122000  0.83483900  1
  O  O41  1  0.52766200  0.19006900  0.74838000  1
  O  O42  1  0.80831100  0.97071800  0.24838000  1
  O  O43  1  0.15629400  0.18075700  0.14978300  1
  O  O44  1  0.50979700  0.44362900  0.13842700  1
  O  O45  1  0.44006900  0.19168900  0.16240800  1
  O  O46  1  0.53927200  0.99160700  0.87846400  1
  O  O47  1  0.53603200  0.95604700  0.13283700  1
loop_
_geom_bond_atom_site_label_1
_geom_bond_atom_site_label_2
_geom_bond_distance
_geom_bond_site_symmetry_2
Mg0 O4 2.174690 1_555
Mg0 O11 2.174692 1_555
Mg0 O14 2.234076 1_455
Mg0 O3 2.234086 1_455
Mg0 O8 2.303490 1_455
Mg0 O7 2.303502 1_455
Mg0 O20 2.447631 1_555
Mg0 O2 2.447645 1_455
Mg1 O12 2.174696 1_555
Mg1 O35 2.174696 1_554
Mg1 O10 2.234079 1_554
Mg1 O37 2.234080 1_555
Mg1 O28 2.303495 1_554
Mg1 O19 2.303495 1_555
Mg1 O42 2.447634 1_555
Mg1 O6 2.447634 1_554
Mg2 O16 2.051751 1_555
Mg2 O31 2.051751 1_455
Mg2 O43 2.063625 1_555
Mg2 O4 2.063625 1_555
Mg2 O39 2.071807 1_555
Mg2 O8 2.071807 1_455
Mg3 O13 2.081931 1_555
Mg3 O39 2.130342 1_555
Mg3 O1 2.155208 1_555
Mg3 O16 2.207779 1_555
Mg3 O25 2.271266 1_555
Mg3 O0 2.481638 1_555
Mg3 O5 2.482671 1_555
Mg3 O44 2.725338 1_555
Mg4 O12 2.081938 1_456
Mg4 O7 2.130346 1_455
Mg4 O26 2.155204 1_556
Mg4 O17 2.207778 1_555
Mg4 O24 2.271259 1_555
Mg4 O15 2.481619 1_455
Mg4 O6 2.482673 1_455
Mg4 O14 2.725326 1_455
Mg5 O43 2.081942 1_555
Mg5 O29 2.130337 1_555
Mg5 O16 2.155214 1_555
Mg5 O21 2.207780 1_555
Mg5 O32 2.271268 1_555
Mg5 O25 2.481629 1_555
Mg5 O45 2.482664 1_555
Mg5 O38 2.725319 1_555
Mg6 O11 2.081938 1_555
Mg6 O28 2.130346 1_555
Mg6 O17 2.155214 1_555
Mg6 O46 2.207776 1_555
Mg6 O47 2.271266 1_556
Mg6 O24 2.481624 1_555
Mg6 O20 2.482671 1_555
Mg6 O37 2.725332 1_556
Mg7 O21 2.051751 1_565
Mg7 O26 2.051751 1_555
Mg7 O12 2.063625 1_455
Mg7 O34 2.063625 1_555
Mg7 O29 2.071807 1_565
Mg7 O19 2.071807 1_455
Mg8 O46 2.051746 1_555
Mg8 O1 2.051746 1_555
Mg8 O35 2.063625 1_555
Mg8 O13 2.063625 1_555
Mg8 O28 2.071807 1_555
Mg8 O18 2.071807 1_565
Mg9 O36 2.081938 1_665
Mg9 O18 2.130346 1_565
Mg9 O30 2.155214 1_655
Mg9 O1 2.207776 1_555
Mg9 O0 2.271266 1_555
Mg9 O22 2.481624 1_665
Mg9 O27 2.482671 1_665
Mg9 O9 2.725332 1_565
Mg10 O4 2.081942 1_655
Mg10 O19 2.130337 1_555
Mg10 O31 2.155214 1_555
Mg10 O26 2.207780 1_655
Mg10 O15 2.271268 1_554
Mg10 O23 2.481629 1_555
Mg10 O2 2.482664 1_555
Mg10 O10 2.725319 1_554
Mg11 O34 2.081938 1_545
Mg11 O40 2.130346 1_555
Mg11 O21 2.155204 1_555
Mg11 O30 2.207778 1_545
Mg11 O22 2.271259 1_555
Mg11 O32 2.481619 1_555
Mg11 O41 2.482673 1_555
Mg11 O33 2.725326 1_555
Mg12 O35 2.081931 1_544
Mg12 O8 2.130342 1_555
Mg12 O46 2.155208 1_544
Mg12 O31 2.207779 1_555
Mg12 O23 2.271266 1_555
Mg12 O47 2.481638 1_545
Mg12 O42 2.482671 1_545
Mg12 O3 2.725338 1_555
Mg13 O13 2.174686 1_555
Mg13 O34 2.174696 1_555
Mg13 O9 2.234080 1_565
Mg13 O38 2.234088 1_565
Mg13 O18 2.303491 1_565
Mg13 O29 2.303501 1_565
Mg13 O5 2.447629 1_555
Mg13 O41 2.447638 1_565
Mg14 O30 2.051748 1_555
Mg14 O17 2.051748 1_555
Mg14 O36 2.063625 1_565
Mg14 O11 2.063625 1_555
Mg14 O7 2.071807 1_455
Mg14 O40 2.071807 1_565
Mg15 O36 2.174696 1_554
Mg15 O43 2.174696 1_555
Mg15 O33 2.234073 1_554
Mg15 O44 2.234080 1_555
Mg15 O40 2.303495 1_554
Mg15 O39 2.303495 1_555
Mg15 O27 2.447638 1_554
Mg15 O45 2.447639 1_555
O0 Si0 1.695429 1_555
O0 Si3 1.812839 1_555
O1 Si2 1.632802 1_555
O2 Si0 1.669392 1_555
O2 Si1 1.773013 1_555
O3 Si4 1.653826 1_555
O3 Si1 1.809494 1_555
O4 Si5 1.651940 1_555
O5 Si11 1.669395 1_555
O5 Si3 1.773012 1_555
O6 Si2 1.669395 1_555
O6 Si6 1.773012 1_555
O7 Si2 1.636659 1_555
O8 Si7 1.636659 1_555
O9 Si4 1.653826 1_555
O9 Si3 1.809494 1_545
O10 Si13 1.653836 1_556
O10 Si6 1.809489 1_555
O11 Si5 1.651940 1_555
O12 Si12 1.651940 1_665
O13 Si5 1.651940 1_555
O14 Si4 1.653827 1_555
O14 Si9 1.809500 1_655
O15 Si8 1.695433 1_555
O15 Si6 1.812843 1_555
O16 Si10 1.632792 1_555
O17 Si15 1.632795 1_566
O18 Si8 1.636659 1_555
O19 Si0 1.636659 1_555
O20 Si10 1.669400 1_555
O20 Si9 1.773003 1_555
O21 Si7 1.632792 1_455
O22 Si7 1.695431 1_455
O22 Si9 1.812845 1_555
O23 Si14 1.695431 1_554
O23 Si1 1.812845 1_555
O24 Si11 1.695431 1_556
O24 Si9 1.812845 1_555
O25 Si2 1.695431 1_555
O25 Si1 1.812845 1_555
O26 Si11 1.632792 1_555
O27 Si8 1.669400 1_455
O27 Si9 1.773003 1_555
O28 Si10 1.636659 1_555
O29 Si15 1.636659 1_555
O30 Si0 1.632795 1_455
O31 Si8 1.632792 1_554
O32 Si10 1.695433 1_555
O32 Si6 1.812843 1_555
O33 Si13 1.653827 1_556
O33 Si9 1.809500 1_555
O34 Si5 1.651940 1_555
O35 Si12 1.651940 1_666
O36 Si12 1.651940 1_556
O37 Si13 1.653826 1_555
O37 Si3 1.809494 1_555
O38 Si4 1.653836 1_555
O38 Si6 1.809489 1_555
O39 Si11 1.636659 1_555
O40 Si14 1.636659 1_555
O41 Si14 1.669395 1_555
O41 Si6 1.773012 1_555
O42 Si7 1.669395 1_565
O42 Si3 1.773012 1_555
O43 Si12 1.651940 1_555
O44 Si13 1.653826 1_555
O44 Si1 1.809494 1_555
O45 Si15 1.669392 1_555
O45 Si1 1.773013 1_555
O46 Si14 1.632802 1_565
O47 Si15 1.695429 1_565
O47 Si3 1.812839 1_555
