# generated using pymatgen
data_Yb2TiO5
_symmetry_space_group_name_H-M   'P 1'
_cell_length_a   5.21420798
_cell_length_b   6.27029635
_cell_length_c   7.44617069
_cell_angle_alpha   67.98176677
_cell_angle_beta   90.01842270
_cell_angle_gamma   65.44460485
_symmetry_Int_Tables_number   1
_chemical_formula_structural   Yb2TiO5
_chemical_formula_sum   'Yb4 Ti2 O10'
_cell_volume   201.73274091
_cell_formula_units_Z   2
loop_
 _symmetry_equiv_pos_site_id
 _symmetry_equiv_pos_as_xyz
  1  'x, y, z'
loop_
 _atom_site_type_symbol
 _atom_site_label
 _atom_site_symmetry_multiplicity
 _atom_site_fract_x
 _atom_site_fract_y
 _atom_site_fract_z
 _atom_site_occupancy
  Yb  Yb0  1  0.63896876  0.72155522  0.75084007  1
  Yb  Yb1  1  0.64059568  0.72140060  0.25096790  1
  Yb  Yb2  1  0.35635407  0.27379188  0.74883016  1
  Yb  Yb3  1  0.37063746  0.27386533  0.24889675  1
  Ti  Ti0  1  0.01072639  0.00150156  0.51651691  1
  Ti  Ti1  1  0.98839856  0.00170229  0.01677564  1
  O  O0  1  0.75045049  0.85438508  0.95667124  1
  O  O1  1  0.39579215  0.85418538  0.45657490  1
  O  O2  1  0.02783894  0.65762816  0.64080484  1
  O  O3  1  0.68296588  0.34231481  0.85436948  1
  O  O4  1  0.31472036  0.65785623  0.14135113  1
  O  O5  1  0.97540345  0.34208295  0.35406381  1
  O  O6  1  0.60902549  0.14723452  0.54253904  1
  O  O7  1  0.17829865  0.99781057  0.74515728  1
  O  O8  1  0.24433557  0.14750887  0.04245977  1
  O  O9  1  0.82449708  0.99802158  0.24523707  1
loop_
_geom_bond_atom_site_label_1
_geom_bond_atom_site_label_2
_geom_bond_distance
_geom_bond_site_symmetry_2
O0 Ti1 1.963440 1_566
O0 Yb0 2.177058 1_555
O0 Yb1 2.203012 1_556
O0 Yb2 2.447125 1_565
O1 Ti0 1.962654 1_565
O1 Yb1 2.177197 1_555
O1 Yb0 2.203627 1_555
O1 Yb3 2.448512 1_565
O2 Ti0 1.964032 1_565
O2 Yb2 2.120079 1_555
O2 Yb0 2.124889 1_455
O3 Ti1 1.948159 1_556
O3 Yb0 2.115071 1_555
O3 Yb2 2.136106 1_555
O4 Ti1 1.963258 1_465
O4 Yb3 2.119943 1_555
O4 Yb1 2.125526 1_555
O5 Ti0 1.947753 1_655
O5 Yb1 2.114943 1_555
O5 Yb3 2.136062 1_655
O6 Ti0 1.949854 1_655
O6 Yb2 2.184341 1_555
O6 Yb3 2.198304 1_555
O6 Yb0 2.470573 1_545
O7 Ti0 1.901360 1_565
O7 Ti1 2.256066 1_466
O7 Yb2 2.286500 1_565
O7 Yb0 2.293209 1_555
O8 Ti1 1.948934 1_455
O8 Yb3 2.184148 1_555
O8 Yb2 2.199019 1_554
O8 Yb1 2.473366 1_545
O9 Ti1 1.900723 1_565
O9 Ti0 2.252371 1_665
O9 Yb3 2.286066 1_565
O9 Yb1 2.292746 1_555
