# generated using pymatgen
data_Al2(SeO4)3
_symmetry_space_group_name_H-M   'P 1'
_cell_length_a   8.82656863
_cell_length_b   8.82656863
_cell_length_c   8.82656949
_cell_angle_alpha   56.18674695
_cell_angle_beta   56.18674826
_cell_angle_gamma   56.18674554
_symmetry_Int_Tables_number   1
_chemical_formula_structural   Al2(SeO4)3
_chemical_formula_sum   'Al4 Se6 O24'
_cell_volume   443.33145790
_cell_formula_units_Z   2
loop_
 _symmetry_equiv_pos_site_id
 _symmetry_equiv_pos_as_xyz
  1  'x, y, z'
loop_
 _atom_site_type_symbol
 _atom_site_label
 _atom_site_symmetry_multiplicity
 _atom_site_fract_x
 _atom_site_fract_y
 _atom_site_fract_z
 _atom_site_occupancy
  Al  Al0  1  0.64815668  0.64815668  0.64815668  1
  Al  Al1  1  0.85830970  0.85830970  0.85830970  1
  Al  Al2  1  0.14169030  0.14169030  0.14169030  1
  Al  Al3  1  0.35184332  0.35184332  0.35184332  1
  Se  Se0  1  0.96666970  0.53804814  0.24852991  1
  Se  Se1  1  0.53804814  0.24852991  0.96666970  1
  Se  Se2  1  0.24852991  0.96666970  0.53804814  1
  Se  Se3  1  0.75147009  0.03333030  0.46195186  1
  Se  Se4  1  0.46195186  0.75147009  0.03333030  1
  Se  Se5  1  0.03333030  0.46195186  0.75147009  1
  O  O0  1  0.81428024  0.50941067  0.47551691  1
  O  O1  1  0.87727844  0.75557081  0.10297652  1
  O  O2  1  0.98881655  0.37072349  0.20055169  1
  O  O3  1  0.51843279  0.21014370  0.18157441  1
  O  O4  1  0.75557081  0.10297652  0.87727844  1
  O  O5  1  0.50941067  0.47551691  0.81428024  1
  O  O6  1  0.47551691  0.81428024  0.50941067  1
  O  O7  1  0.21014370  0.18157441  0.51843279  1
  O  O8  1  0.79944831  0.01118345  0.62927651  1
  O  O9  1  0.18157441  0.51843279  0.21014370  1
  O  O10  1  0.89702348  0.12272156  0.24442919  1
  O  O11  1  0.62927651  0.79944831  0.01118345  1
  O  O12  1  0.37072349  0.20055169  0.98881655  1
  O  O13  1  0.10297652  0.87727844  0.75557081  1
  O  O14  1  0.81842559  0.48156721  0.78985630  1
  O  O15  1  0.20055169  0.98881655  0.37072349  1
  O  O16  1  0.78985630  0.81842559  0.48156721  1
  O  O17  1  0.52448309  0.18571976  0.49058933  1
  O  O18  1  0.49058933  0.52448309  0.18571976  1
  O  O19  1  0.24442919  0.89702348  0.12272156  1
  O  O20  1  0.48156721  0.78985630  0.81842559  1
  O  O21  1  0.01118345  0.62927651  0.79944831  1
  O  O22  1  0.12272156  0.24442919  0.89702348  1
  O  O23  1  0.18571976  0.49058933  0.52448309  1
loop_
_geom_bond_atom_site_label_1
_geom_bond_atom_site_label_2
_geom_bond_distance
_geom_bond_site_symmetry_2
Al0 O5 1.887702 1_555
Al0 O6 1.887702 1_555
Al0 O0 1.887702 1_555
Al0 O16 1.889650 1_555
Al0 O14 1.889650 1_555
Al0 O20 1.889650 1_555
Al1 O21 1.878873 1_655
Al1 O11 1.878873 1_556
Al1 O8 1.878873 1_565
Al1 O4 1.888899 1_565
Al1 O13 1.888899 1_655
Al1 O1 1.888899 1_556
Al2 O2 1.878873 1_455
Al2 O12 1.878873 1_554
Al2 O15 1.878873 1_545
Al2 O19 1.888899 1_545
Al2 O10 1.888899 1_455
Al2 O22 1.888899 1_554
Al3 O18 1.887702 1_555
Al3 O17 1.887702 1_555
Al3 O23 1.887702 1_555
Al3 O7 1.889650 1_555
Al3 O9 1.889650 1_555
Al3 O3 1.889650 1_555
O0 Se0 1.643966 1_555
O1 Se0 1.629796 1_555
O2 Se0 1.637509 1_555
O3 Se1 1.651472 1_554
O4 Se1 1.629796 1_555
O5 Se1 1.643966 1_555
O6 Se2 1.643966 1_555
O7 Se2 1.651472 1_545
O8 Se3 1.637509 1_555
O9 Se0 1.651472 1_455
O10 Se3 1.629796 1_555
O11 Se4 1.637509 1_555
O12 Se1 1.637509 1_555
O13 Se2 1.629796 1_555
O14 Se5 1.651472 1_655
O15 Se2 1.637509 1_555
O16 Se3 1.651472 1_565
O17 Se3 1.643966 1_555
O18 Se4 1.643966 1_555
O19 Se4 1.629796 1_555
O20 Se4 1.651472 1_556
O21 Se5 1.637509 1_555
O22 Se5 1.629796 1_555
O23 Se5 1.643966 1_555
