# generated using pymatgen
data_Li3MnV(PO4)3
_symmetry_space_group_name_H-M   'P 1'
_cell_length_a   9.83148100
_cell_length_b   9.83912493
_cell_length_c   9.86624960
_cell_angle_alpha   85.67110416
_cell_angle_beta   87.54652913
_cell_angle_gamma   87.71974917
_symmetry_Int_Tables_number   1
_chemical_formula_structural   Li3MnV(PO4)3
_chemical_formula_sum   'Li12 Mn4 V4 P12 O48'
_cell_volume   950.15818426
_cell_formula_units_Z   4
loop_
 _symmetry_equiv_pos_site_id
 _symmetry_equiv_pos_as_xyz
  1  'x, y, z'
loop_
 _atom_site_type_symbol
 _atom_site_label
 _atom_site_symmetry_multiplicity
 _atom_site_fract_x
 _atom_site_fract_y
 _atom_site_fract_z
 _atom_site_occupancy
  Li  Li0  1  0.98116300  0.00199000  0.04854100  1
  Li  Li1  1  0.14015000  0.05272000  0.73933600  1
  Li  Li2  1  0.72936100  0.13281000  0.06944900  1
  Li  Li3  1  0.64516600  0.23069800  0.55061900  1
  Li  Li4  1  0.95083300  0.27671400  0.85127100  1
  Li  Li5  1  0.43312400  0.36638500  0.76712100  1
  Li  Li6  1  0.76586100  0.44562500  0.35628800  1
  Li  Li7  1  0.45290100  0.50012900  0.51501700  1
  Li  Li8  1  0.54480800  0.64510800  0.23524600  1
  Li  Li9  1  0.34192000  0.76480700  0.47326100  1
  Li  Li10  1  0.03016700  0.72457100  0.16330000  1
  Li  Li11  1  0.26837400  0.85373200  0.95129700  1
  Mn  Mn0  1  0.02922300  0.25369400  0.47135500  1
  Mn  Mn1  1  0.97355400  0.73889300  0.52717800  1
  Mn  Mn2  1  0.75328100  0.75911100  0.74204900  1
  Mn  Mn3  1  0.53050000  0.97266700  0.76094000  1
  V  V0  1  0.47467900  0.02884700  0.25912600  1
  V  V1  1  0.24929200  0.24531300  0.25158400  1
  V  V2  1  0.24352100  0.46552600  0.02395800  1
  V  V3  1  0.74847400  0.53674000  0.96142600  1
  P  P0  1  0.85407100  0.05602300  0.67432600  1
  P  P1  1  0.33232900  0.14771800  0.95461100  1
  P  P2  1  0.35830400  0.17258300  0.55242800  1
  P  P3  1  0.94827200  0.32540400  0.14272500  1
  P  P4  1  0.54674500  0.35470600  0.16764600  1
  P  P5  1  0.83475900  0.44795800  0.64562000  1
  P  P6  1  0.17508300  0.54565700  0.33956900  1
  P  P7  1  0.45227100  0.64839000  0.81741000  1
  P  P8  1  0.04880300  0.67863500  0.84772500  1
  P  P9  1  0.65459800  0.82449800  0.45057200  1
  P  P10  1  0.67166300  0.85210700  0.05046800  1
  P  P11  1  0.15098200  0.94824000  0.32576100  1
  O  O0  1  0.41176300  0.03308200  0.61867500  1
  O  O1  1  0.22335700  0.05645300  0.90885700  1
  O  O2  1  0.11904700  0.10741700  0.33303600  1
  O  O3  1  0.33481700  0.11999600  0.11534400  1
  O  O4  1  0.70086000  0.09437100  0.69351600  1
  O  O5  1  0.47501700  0.11383800  0.89172500  1
  O  O6  1  0.94585600  0.09992800  0.78357100  1
  O  O7  1  0.89835100  0.12264200  0.53062700  1
  O  O8  1  0.38218800  0.16897900  0.39220900  1
  O  O9  1  0.20522600  0.18364000  0.59056700  1
  O  O10  1  0.58239700  0.19893600  0.19338000  1
  O  O11  1  0.90479200  0.21061100  0.05774000  1
  O  O12  1  0.10958700  0.32460100  0.12022500  1
  O  O13  1  0.44449400  0.28993400  0.59171900  1
  O  O14  1  0.30508300  0.30333800  0.91456100  1
  O  O15  1  0.90811400  0.31141000  0.29582100  1
  O  O16  1  0.38530500  0.37713800  0.16464100  1
  O  O17  1  0.16633100  0.38348900  0.37682000  1
  O  O18  1  0.60997600  0.39919000  0.02689600  1
  O  O19  1  0.97539000  0.37614500  0.61499900  1
  O  O20  1  0.72536300  0.40458400  0.55380800  1
  O  O21  1  0.59144800  0.44156700  0.27948600  1
  O  O22  1  0.80378200  0.41523200  0.80092600  1
  O  O23  1  0.89050600  0.46633000  0.08604300  1
  O  O24  1  0.10461200  0.53406000  0.89726600  1
  O  O25  1  0.19037600  0.57863000  0.18182300  1
  O  O26  1  0.29743800  0.59057200  0.41154600  1
  O  O27  1  0.41686800  0.56426200  0.70090100  1
  O  O28  1  0.03595800  0.61225700  0.37778000  1
  O  O29  1  0.38957700  0.59554300  0.95615900  1
  O  O30  1  0.84727400  0.60700900  0.61681000  1
  O  O31  1  0.61559200  0.63129700  0.82636100  1
  O  O32  1  0.68949700  0.69372200  0.08289800  1
  O  O33  1  0.08632900  0.70734600  0.69536400  1
  O  O34  1  0.55874300  0.71631400  0.40975900  1
  O  O35  1  0.88537100  0.67527300  0.87007100  1
  O  O36  1  0.09183800  0.78603700  0.94013000  1
  O  O37  1  0.80662200  0.79731700  0.41569200  1
  O  O38  1  0.41015000  0.80295100  0.80141300  1
  O  O39  1  0.62760800  0.83099700  0.61193600  1
  O  O40  1  0.10225600  0.87443600  0.46320300  1
  O  O41  1  0.08567000  0.90345300  0.20045400  1
  O  O42  1  0.53566100  0.89324000  0.12403400  1
  O  O43  1  0.30890700  0.91969700  0.32427600  1
  O  O44  1  0.65569400  0.88340700  0.89076000  1
  O  O45  1  0.79103400  0.93467600  0.08585800  1
  O  O46  1  0.87706100  0.89728000  0.66908900  1
  O  O47  1  0.60985000  0.96937700  0.39074400  1
loop_
_geom_bond_atom_site_label_1
_geom_bond_atom_site_label_2
_geom_bond_distance
_geom_bond_site_symmetry_2
Li0 O45 2.017693 1_545
Li0 O41 2.018733 1_645
Li0 O11 2.164489 1_555
Li1 O1 1.896506 1_555
Li1 O9 1.980606 1_555
Li1 O6 1.985875 1_455
Li2 O11 1.910165 1_555
Li2 O10 1.974862 1_555
Li2 O45 2.015184 1_545
Li3 O20 1.915039 1_555
Li3 O4 1.951632 1_555
Li3 O13 2.066919 1_555
Li4 O6 1.912875 1_555
Li4 O22 1.999209 1_555
Li4 O11 2.126511 1_556
Li4 O19 2.464920 1_555
Li5 O13 1.935566 1_555
Li5 O14 1.963337 1_555
Li5 O27 2.008759 1_555
Li6 O21 1.907187 1_555
Li6 O20 1.986681 1_555
Li6 O15 1.989040 1_555
Li7 O27 1.997108 1_555
Li7 O26 2.014543 1_555
Li7 O13 2.151436 1_555
Li7 O34 2.536901 1_555
Li8 O34 1.919404 1_555
Li8 O21 2.055127 1_555
Li8 O32 2.067409 1_555
Li9 O26 1.934150 1_555
Li9 O43 2.062001 1_555
Li9 O34 2.239228 1_555
Li9 O40 2.554776 1_555
Li10 O41 1.928947 1_555
Li10 O25 2.093147 1_555
Li10 O36 2.301167 1_554
Li10 O28 2.314011 1_555
Li11 O36 1.894085 1_555
Li11 O1 2.041853 1_565
Li11 O38 2.063731 1_555
Mn0 O7 1.901027 1_455
Mn0 O19 1.970539 1_455
Mn0 O17 2.041423 1_555
Mn0 O15 2.171134 1_455
Mn0 O2 2.192223 1_555
Mn0 O9 2.193084 1_555
Mn1 O40 1.927913 1_655
Mn1 O30 1.966774 1_555
Mn1 O33 2.032617 1_655
Mn1 O37 2.053743 1_555
Mn1 O28 2.059264 1_655
Mn1 O46 2.320979 1_555
Mn2 O39 1.898419 1_555
Mn2 O46 1.938084 1_555
Mn2 O35 1.964747 1_555
Mn2 O31 1.996764 1_555
Mn2 O44 2.150782 1_555
Mn2 O30 2.166048 1_555
Mn3 O0 1.909278 1_565
Mn3 O44 1.950887 1_555
Mn3 O5 2.010450 1_565
Mn3 O38 2.089017 1_555
Mn3 O4 2.150731 1_565
Mn3 O39 2.258092 1_555
O0 P2 1.556906 1_555
O1 P1 1.528753 1_555
O2 P11 1.591385 1_545
O2 V1 2.002969 1_555
O3 P1 1.589764 1_554
O3 V1 2.026098 1_555
O3 V0 2.141091 1_555
O4 P0 1.545401 1_555
O5 P1 1.543864 1_555
O6 P0 1.532065 1_555
O7 P0 1.568059 1_555
O8 P2 1.590981 1_555
O8 V1 2.028793 1_555
O8 V0 2.126794 1_555
O9 P2 1.537228 1_555
O10 P4 1.562829 1_555
O10 V0 2.064301 1_555
O11 P3 1.540632 1_555
O12 P3 1.591777 1_455
O12 V1 2.022200 1_555
O12 V2 2.097138 1_555
O13 P2 1.541118 1_555
O14 P1 1.567624 1_555
O14 V2 2.050625 1_556
O15 P3 1.542163 1_555
O16 P4 1.594974 1_555
O16 V1 2.019435 1_555
O16 V2 2.124367 1_555
O17 P6 1.614955 1_555
O17 V1 2.029626 1_555
O18 P4 1.537018 1_555
O18 V3 2.010544 1_554
O19 P5 1.555912 1_555
O20 P5 1.528961 1_555
O21 P4 1.534574 1_555
O22 P5 1.561315 1_555
O22 V3 2.095924 1_555
O23 P3 1.550929 1_555
O23 V3 1.970515 1_554
O24 P8 1.555422 1_555
O24 V2 1.956490 1_556
O25 P6 1.567718 1_555
O25 V2 2.020658 1_555
O26 P6 1.519691 1_555
O27 P7 1.525943 1_555
O28 P6 1.537609 1_555
O29 P7 1.539502 1_555
O29 V2 2.020060 1_556
O30 P5 1.578003 1_555
O31 P7 1.613296 1_555
O31 V3 2.052625 1_555
O32 P10 1.571439 1_555
O32 V3 2.075311 1_554
O33 P8 1.540235 1_555
O34 P9 1.536326 1_555
O35 P8 1.613765 1_655
O35 V3 2.082880 1_555
O36 P8 1.530013 1_555
O37 P9 1.536845 1_555
O38 P7 1.558305 1_555
O39 P9 1.608414 1_555
O40 P11 1.555330 1_555
O41 P11 1.519107 1_555
O42 P10 1.548109 1_555
O42 V0 2.013101 1_565
O43 P11 1.566442 1_555
O43 V0 2.041591 1_565
O44 P10 1.595762 1_556
O45 P10 1.520862 1_555
O46 P0 1.573644 1_565
O47 P9 1.555403 1_555
O47 V0 1.940593 1_565
