# generated using pymatgen
data_Mn3Cr3(SnO8)2
_symmetry_space_group_name_H-M   'P 1'
_cell_length_a   5.84989565
_cell_length_b   5.84989565
_cell_length_c   9.51162963
_cell_angle_alpha   89.88248403
_cell_angle_beta   89.88248403
_cell_angle_gamma   59.83459203
_symmetry_Int_Tables_number   1
_chemical_formula_structural   Mn3Cr3(SnO8)2
_chemical_formula_sum   'Mn3 Cr3 Sn2 O16'
_cell_volume   281.41957638
_cell_formula_units_Z   1
loop_
 _symmetry_equiv_pos_site_id
 _symmetry_equiv_pos_as_xyz
  1  'x, y, z'
loop_
 _atom_site_type_symbol
 _atom_site_label
 _atom_site_symmetry_multiplicity
 _atom_site_fract_x
 _atom_site_fract_y
 _atom_site_fract_z
 _atom_site_occupancy
  Mn  Mn0  1  0.82973800  0.82973800  0.78536200  1
  Mn  Mn1  1  0.16671200  0.66349400  0.28569000  1
  Mn  Mn2  1  0.66349400  0.16671200  0.28569000  1
  Cr  Cr0  1  0.33265600  0.82861500  0.78619700  1
  Cr  Cr1  1  0.82861500  0.33265600  0.78619700  1
  Cr  Cr2  1  0.16544300  0.16544300  0.29161400  1
  Sn  Sn0  1  0.67019300  0.67019300  0.50832300  1
  Sn  Sn1  1  0.33408600  0.33408600  0.01035400  1
  O  O0  1  0.32501800  0.84160100  0.39095100  1
  O  O1  1  0.52370500  0.52370500  0.67189300  1
  O  O2  1  0.66960900  0.66960900  0.89303800  1
  O  O3  1  0.99681500  0.99681500  0.68829000  1
  O  O4  1  0.99694700  0.99694700  0.18745800  1
  O  O5  1  0.84160100  0.32501800  0.39095100  1
  O  O6  1  0.51866500  0.96478900  0.66915900  1
  O  O7  1  0.96478900  0.51866500  0.66915900  1
  O  O8  1  0.16506500  0.16506500  0.88951000  1
  O  O9  1  0.84186400  0.84186400  0.39491900  1
  O  O10  1  0.03730700  0.48221500  0.17180800  1
  O  O11  1  0.48221500  0.03730700  0.17180800  1
  O  O12  1  0.33771200  0.33771200  0.39222300  1
  O  O13  1  0.16113500  0.67904600  0.89309800  1
  O  O14  1  0.48272000  0.48272000  0.17010500  1
  O  O15  1  0.67904600  0.16113500  0.89309800  1
loop_
_geom_bond_atom_site_label_1
_geom_bond_atom_site_label_2
_geom_bond_distance
_geom_bond_site_symmetry_2
Mn0 O2 1.917780 1_555
Mn0 O3 1.927617 1_555
Mn0 O7 1.927977 1_555
Mn0 O6 1.927977 1_555
Mn0 O15 1.967855 1_565
Mn0 O13 1.967855 1_655
Mn1 O10 1.919852 1_555
Mn1 O4 1.927120 1_455
Mn1 O12 1.933849 1_555
Mn1 O14 1.943225 1_555
Mn1 O9 1.944989 1_455
Mn1 O0 1.980752 1_555
Mn2 O11 1.919852 1_555
Mn2 O4 1.927120 1_545
Mn2 O12 1.933849 1_555
Mn2 O14 1.943225 1_555
Mn2 O9 1.944989 1_545
Mn2 O5 1.980752 1_555
Cr0 O1 1.900577 1_555
Cr0 O13 1.918513 1_555
Cr0 O3 1.938084 1_455
Cr0 O8 1.966051 1_565
Cr0 O6 1.980002 1_555
Cr0 O2 1.986208 1_555
Cr1 O1 1.900577 1_555
Cr1 O15 1.918513 1_555
Cr1 O3 1.938084 1_545
Cr1 O8 1.966051 1_655
Cr1 O7 1.980002 1_555
Cr1 O2 1.986208 1_555
Cr2 O5 1.889991 1_455
Cr2 O0 1.889991 1_545
Cr2 O11 1.973127 1_555
Cr2 O10 1.973127 1_555
Cr2 O4 1.977134 1_445
Cr2 O12 1.993857 1_555
O0 Sn0 2.073385 1_555
O1 Sn0 2.148566 1_555
O5 Sn0 2.073385 1_555
O6 Sn0 2.136826 1_555
O7 Sn0 2.136826 1_555
O8 Sn1 2.065985 1_556
O9 Sn0 2.045789 1_555
O10 Sn1 2.146149 1_555
O11 Sn1 2.146149 1_555
O13 Sn1 2.069606 1_556
O14 Sn1 2.142785 1_555
O15 Sn1 2.069606 1_556
