# generated using pymatgen
data_LiP2WO8
_symmetry_space_group_name_H-M   'P 1'
_cell_length_a   13.02663400
_cell_length_b   5.02887900
_cell_length_c   11.17974051
_cell_angle_alpha   70.98117697
_cell_angle_beta   90.00000000
_cell_angle_gamma   90.00000000
_symmetry_Int_Tables_number   1
_chemical_formula_structural   LiP2WO8
_chemical_formula_sum   'Li4 P8 W4 O32'
_cell_volume   692.39836325
_cell_formula_units_Z   4
loop_
 _symmetry_equiv_pos_site_id
 _symmetry_equiv_pos_as_xyz
  1  'x, y, z'
loop_
 _atom_site_type_symbol
 _atom_site_label
 _atom_site_symmetry_multiplicity
 _atom_site_fract_x
 _atom_site_fract_y
 _atom_site_fract_z
 _atom_site_occupancy
  Li  Li0  1  0.88117500  0.91023700  0.47069300  1
  Li  Li1  1  0.38117500  0.08976300  0.02930700  1
  Li  Li2  1  0.61882500  0.91023700  0.97069300  1
  Li  Li3  1  0.11882500  0.08976300  0.52930700  1
  P  P0  1  0.08534700  0.30576800  0.88235800  1
  P  P1  1  0.75375400  0.41947400  0.78890600  1
  P  P2  1  0.25375400  0.58052600  0.71109400  1
  P  P3  1  0.58534700  0.69423200  0.61764200  1
  P  P4  1  0.41465300  0.30576800  0.38235800  1
  P  P5  1  0.74624600  0.41947400  0.28890600  1
  P  P6  1  0.24624600  0.58052600  0.21109400  1
  P  P7  1  0.91465300  0.69423200  0.11764200  1
  W  W0  1  0.57418500  0.90327700  0.29003500  1
  W  W1  1  0.07418500  0.09672300  0.20996500  1
  W  W2  1  0.92581500  0.90327700  0.79003500  1
  W  W3  1  0.42581500  0.09672300  0.70996500  1
  O  O0  1  0.84385300  0.26892700  0.74896300  1
  O  O1  1  0.29433300  0.33373600  0.67020000  1
  O  O2  1  0.51275200  0.44848400  0.63511100  1
  O  O3  1  0.67759500  0.24380200  0.87905900  1
  O  O4  1  0.94265100  0.86458900  0.20535300  1
  O  O5  1  0.56413100  0.91580300  0.12925300  1
  O  O6  1  0.09331600  0.11940400  0.02033300  1
  O  O7  1  0.69973900  0.57850200  0.65180500  1
  O  O8  1  0.19973900  0.42149800  0.84819500  1
  O  O9  1  0.17759500  0.75619800  0.62094100  1
  O  O10  1  0.59331600  0.88059600  0.47966700  1
  O  O11  1  0.01275200  0.55151600  0.86488900  1
  O  O12  1  0.06413100  0.08419700  0.37074700  1
  O  O13  1  0.79433300  0.66626400  0.82980000  1
  O  O14  1  0.34385300  0.73107300  0.75103700  1
  O  O15  1  0.44265100  0.13541100  0.29464700  1
  O  O16  1  0.55734900  0.86458900  0.70535300  1
  O  O17  1  0.65614700  0.26892700  0.24896300  1
  O  O18  1  0.20566700  0.33373600  0.17020000  1
  O  O19  1  0.93586900  0.91580300  0.62925300  1
  O  O20  1  0.98724800  0.44848400  0.13511100  1
  O  O21  1  0.40668400  0.11940400  0.52033300  1
  O  O22  1  0.82240500  0.24380200  0.37905900  1
  O  O23  1  0.80026100  0.57850200  0.15180500  1
  O  O24  1  0.30026100  0.42149800  0.34819500  1
  O  O25  1  0.90668400  0.88059600  0.97966700  1
  O  O26  1  0.43586900  0.08419700  0.87074700  1
  O  O27  1  0.05734900  0.13541100  0.79464700  1
  O  O28  1  0.32240500  0.75619800  0.12094100  1
  O  O29  1  0.48724800  0.55151600  0.36488900  1
  O  O30  1  0.70566700  0.66626400  0.32980000  1
  O  O31  1  0.15614700  0.73107300  0.25103700  1
loop_
_geom_bond_atom_site_label_1
_geom_bond_atom_site_label_2
_geom_bond_distance
_geom_bond_site_symmetry_2
Li0 O22 1.824674 1_565
Li0 O19 1.919133 1_555
Li1 O28 1.824674 1_545
Li1 O26 1.919133 1_554
Li2 O3 1.824674 1_565
Li2 O5 1.919133 1_556
Li3 O9 1.824674 1_545
Li3 O12 1.919133 1_555
O0 P1 1.539632 1_555
O0 W2 2.044926 1_545
O1 P2 1.548717 1_555
O1 W3 2.050977 1_555
O2 P3 1.517372 1_555
O2 W3 2.036483 1_555
O3 P1 1.483313 1_555
O4 P7 1.541440 1_555
O4 W1 2.083397 1_665
O5 W0 1.782788 1_555
O6 P0 1.525217 1_554
O6 W1 2.100493 1_555
O7 P3 1.600075 1_555
O7 P1 1.638623 1_555
O8 P0 1.600075 1_555
O8 P2 1.638623 1_555
O9 P2 1.483313 1_555
O10 P3 1.525217 1_555
O10 W0 2.100493 1_555
O11 P0 1.517372 1_555
O11 W2 2.036483 1_455
O12 W1 1.782788 1_555
O13 P1 1.548717 1_555
O13 W2 2.050977 1_555
O14 P2 1.539632 1_555
O14 W3 2.044926 1_565
O15 P4 1.541440 1_555
O15 W0 2.083397 1_545
O16 P3 1.541440 1_555
O16 W3 2.083397 1_565
O17 P5 1.539632 1_555
O17 W0 2.044926 1_545
O18 P6 1.548717 1_555
O18 W1 2.050977 1_555
O19 W2 1.782788 1_555
O20 P7 1.517372 1_555
O20 W1 2.036483 1_655
O21 P4 1.525217 1_555
O21 W3 2.100493 1_555
O22 P5 1.483313 1_555
O23 P7 1.600075 1_555
O23 P5 1.638623 1_555
O24 P4 1.600075 1_555
O24 P6 1.638623 1_555
O25 P7 1.525217 1_556
O25 W2 2.100493 1_555
O26 W3 1.782788 1_555
O27 P0 1.541440 1_555
O27 W2 2.083397 1_445
O28 P6 1.483313 1_555
O29 P4 1.517372 1_555
O29 W0 2.036483 1_555
O30 P5 1.548717 1_555
O30 W0 2.050977 1_555
O31 P6 1.539632 1_555
O31 W1 2.044926 1_565
