# generated using pymatgen
data_Cs2NiH12(SO7)2
_symmetry_space_group_name_H-M   'P 1'
_cell_length_a   13.78080400
_cell_length_b   6.82355400
_cell_length_c   9.84289681
_cell_angle_alpha   69.22912137
_cell_angle_beta   90.00000000
_cell_angle_gamma   90.00000000
_symmetry_Int_Tables_number   1
_chemical_formula_structural   Cs2NiH12(SO7)2
_chemical_formula_sum   'Cs4 Ni2 H24 S4 O28'
_cell_volume   865.41125427
_cell_formula_units_Z   2
loop_
 _symmetry_equiv_pos_site_id
 _symmetry_equiv_pos_as_xyz
  1  'x, y, z'
loop_
 _atom_site_type_symbol
 _atom_site_label
 _atom_site_symmetry_multiplicity
 _atom_site_fract_x
 _atom_site_fract_y
 _atom_site_fract_z
 _atom_site_occupancy
  Cs  Cs0  1  0.14364800  0.62076500  0.63748800  1
  Cs  Cs1  1  0.64364800  0.37923500  0.86251200  1
  Cs  Cs2  1  0.85635200  0.37923500  0.36251200  1
  Cs  Cs3  1  0.35635200  0.62076500  0.13748800  1
  Ni  Ni0  1  0.50000000  0.00000000  0.50000000  1
  Ni  Ni1  1  0.00000000  0.00000000  0.00000000  1
  H  H0  1  0.39359400  0.73583900  0.70930800  1
  H  H1  1  0.89359400  0.26416100  0.79069200  1
  H  H2  1  0.60640600  0.26416100  0.29069200  1
  H  H3  1  0.10640600  0.73583900  0.20930800  1
  H  H4  1  0.40183300  0.95997100  0.72658800  1
  H  H5  1  0.90183300  0.04002900  0.77341200  1
  H  H6  1  0.59816700  0.04002900  0.27341200  1
  H  H7  1  0.09816700  0.95997100  0.22658800  1
  H  H8  1  0.36551400  0.06417200  0.18222400  1
  H  H9  1  0.86551400  0.93582800  0.31777600  1
  H  H10  1  0.63448600  0.93582800  0.81777600  1
  H  H11  1  0.13448600  0.06417200  0.68222400  1
  H  H12  1  0.33301600  0.05686000  0.33328000  1
  H  H13  1  0.83301600  0.94314000  0.16672000  1
  H  H14  1  0.66698400  0.94314000  0.66672000  1
  H  H15  1  0.16698400  0.05686000  0.83328000  1
  H  H16  1  0.56761800  0.72394600  0.32876800  1
  H  H17  1  0.06761800  0.27605400  0.17123200  1
  H  H18  1  0.43238200  0.27605400  0.67123200  1
  H  H19  1  0.93238200  0.72394600  0.82876800  1
  H  H20  1  0.68210600  0.72675000  0.48341100  1
  H  H21  1  0.18210600  0.27325000  0.01658900  1
  H  H22  1  0.31789400  0.27325000  0.51658900  1
  H  H23  1  0.81789400  0.72675000  0.98341100  1
  S  S0  1  0.36640500  0.26058100  0.88120900  1
  S  S1  1  0.86640500  0.73941900  0.61879100  1
  S  S2  1  0.63359500  0.73941900  0.11879100  1
  S  S3  1  0.13359500  0.26058100  0.38120900  1
  O  O0  1  0.05162000  0.19079700  0.27478200  1
  O  O1  1  0.55162000  0.80920300  0.22521800  1
  O  O2  1  0.94838000  0.80920300  0.72521800  1
  O  O3  1  0.44838000  0.19079700  0.77478200  1
  O  O4  1  0.42868300  0.23471600  0.01092900  1
  O  O5  1  0.92868300  0.76528400  0.48907100  1
  O  O6  1  0.57131700  0.76528400  0.98907100  1
  O  O7  1  0.07131700  0.23471600  0.51092900  1
  O  O8  1  0.34930600  0.48818200  0.79309000  1
  O  O9  1  0.84930600  0.51181800  0.70691000  1
  O  O10  1  0.65069400  0.51181800  0.20691000  1
  O  O11  1  0.15069400  0.48818200  0.29309000  1
  O  O12  1  0.57158700  0.74849300  0.60020800  1
  O  O13  1  0.07158700  0.25150700  0.89979200  1
  O  O14  1  0.42841300  0.25150700  0.39979200  1
  O  O15  1  0.92841300  0.74849300  0.10020800  1
  O  O16  1  0.39506800  0.89032400  0.65457800  1
  O  O17  1  0.89506800  0.10967600  0.84542200  1
  O  O18  1  0.60493200  0.10967600  0.34542200  1
  O  O19  1  0.10493200  0.89032400  0.15457800  1
  O  O20  1  0.32139100  0.98789500  0.26272600  1
  O  O21  1  0.82139100  0.01210500  0.23727400  1
  O  O22  1  0.67860900  0.01210500  0.73727400  1
  O  O23  1  0.17860900  0.98789500  0.76272600  1
  O  O24  1  0.62016600  0.65097800  0.50537800  1
  O  O25  1  0.12016600  0.34902200  0.99462200  1
  O  O26  1  0.37983400  0.34902200  0.49462200  1
  O  O27  1  0.87983400  0.65097800  0.00537800  1
loop_
_geom_bond_atom_site_label_1
_geom_bond_atom_site_label_2
_geom_bond_distance
_geom_bond_site_symmetry_2
Cs0 O13 3.063769 1_555
Cs0 O8 3.195893 1_555
Cs0 O23 3.196503 1_555
Cs0 H11 3.210777 1_565
Cs0 O2 3.229197 1_455
Cs0 O5 3.295534 1_455
Cs0 O25 3.358089 1_555
Cs0 O7 3.436849 1_555
Cs1 O12 3.063769 1_555
Cs1 O9 3.195893 1_555
Cs1 O22 3.196503 1_555
Cs1 H10 3.210777 1_545
Cs1 O3 3.229197 1_555
Cs1 O4 3.295534 1_556
Cs1 O24 3.358089 1_555
Cs1 O6 3.436849 1_555
Cs2 O15 3.063769 1_555
Cs2 O10 3.195893 1_555
Cs2 O21 3.196503 1_555
Cs2 H9 3.210777 1_545
Cs2 O0 3.229197 1_655
Cs2 O7 3.295534 1_655
Cs2 O27 3.358089 1_555
Cs2 O5 3.436849 1_555
Cs3 O14 3.063769 1_555
Cs3 O11 3.195893 1_555
Cs3 O20 3.196503 1_555
Cs3 H8 3.210777 1_565
Cs3 O1 3.229197 1_555
Cs3 O6 3.295534 1_554
Cs3 O26 3.358089 1_555
Cs3 O4 3.436849 1_555
Ni0 O12 1.921133 1_545
Ni0 O14 1.921133 1_555
Ni0 O18 2.039232 1_555
Ni0 O16 2.039232 1_545
Ni1 O13 1.921133 1_554
Ni1 O15 1.921133 1_445
Ni1 O19 2.039232 1_545
Ni1 O17 2.039232 1_454
H0 O16 0.999525 1_555
H1 O17 0.999525 1_555
H2 O18 0.999525 1_555
H3 O19 0.999525 1_555
H4 O16 0.987843 1_555
H5 O17 0.987843 1_555
H6 O18 0.987843 1_555
H7 O19 0.987843 1_555
H8 O20 0.987912 1_545
H9 O21 0.987912 1_565
H10 O22 0.987912 1_565
H11 O23 0.987912 1_545
H12 O20 0.980394 1_545
H13 O21 0.980394 1_565
H14 O22 0.980394 1_565
H15 O23 0.980394 1_545
H16 O1 1.002659 1_555
H17 O0 1.002659 1_555
H18 O3 1.002659 1_555
H19 O2 1.002659 1_555
H20 O24 0.981524 1_555
H21 O25 0.981524 1_554
H22 O26 0.981524 1_555
H23 O27 0.981524 1_556
O0 S3 1.718743 1_555
O1 S2 1.718743 1_555
O2 S1 1.718743 1_555
O3 S0 1.718743 1_555
O4 S0 1.496050 1_554
O5 S1 1.496050 1_555
O6 S2 1.496050 1_556
O7 S3 1.496050 1_555
O8 S0 1.504783 1_555
O9 S1 1.504783 1_555
O10 S2 1.504783 1_555
O11 S3 1.504783 1_555
O12 O24 1.484143 1_555
O13 O25 1.484143 1_555
O14 O26 1.484143 1_555
O15 O27 1.484143 1_555
