# generated using pymatgen
data_Li2FeP4O13
_symmetry_space_group_name_H-M   'P 1'
_cell_length_a   5.10960600
_cell_length_b   8.02194688
_cell_length_c   13.75326549
_cell_angle_alpha   79.75674872
_cell_angle_beta   83.52581039
_cell_angle_gamma   80.81700576
_symmetry_Int_Tables_number   1
_chemical_formula_structural   Li2FeP4O13
_chemical_formula_sum   'Li4 Fe2 P8 O26'
_cell_volume   545.56804401
_cell_formula_units_Z   2
loop_
 _symmetry_equiv_pos_site_id
 _symmetry_equiv_pos_as_xyz
  1  'x, y, z'
loop_
 _atom_site_type_symbol
 _atom_site_label
 _atom_site_symmetry_multiplicity
 _atom_site_fract_x
 _atom_site_fract_y
 _atom_site_fract_z
 _atom_site_occupancy
  Li  Li0  1  0.07591800  0.32610000  0.00595400  1
  Li  Li1  1  0.34712700  0.32906100  0.47210800  1
  Li  Li2  1  0.65287300  0.67093900  0.52789200  1
  Li  Li3  1  0.92408200  0.67390000  0.99404600  1
  Fe  Fe0  1  0.43052300  0.05580800  0.25906500  1
  Fe  Fe1  1  0.56947700  0.94419200  0.74093500  1
  P  P0  1  0.99569900  0.90242100  0.15356700  1
  P  P1  1  0.12923400  0.79325800  0.64109100  1
  P  P2  1  0.29685700  0.66741900  0.30135600  1
  P  P3  1  0.34958200  0.57518100  0.82006900  1
  P  P4  1  0.65041800  0.42481900  0.17993100  1
  P  P5  1  0.70314300  0.33258100  0.69864400  1
  P  P6  1  0.87076600  0.20674200  0.35890900  1
  P  P7  1  0.00430100  0.09757900  0.84643300  1
  O  O0  1  0.15426700  0.04042800  0.16859100  1
  O  O1  1  0.17246300  0.14930300  0.36444200  1
  O  O2  1  0.03228900  0.74698100  0.24695600  1
  O  O3  1  0.07192300  0.82733600  0.05887100  1
  O  O4  1  0.23242300  0.52672400  0.38138000  1
  O  O5  1  0.14345300  0.64200900  0.73780900  1
  O  O6  1  0.30578100  0.03607900  0.84465200  1
  O  O7  1  0.26071700  0.71935200  0.55156300  1
  O  O8  1  0.45446000  0.29856600  0.18549300  1
  O  O9  1  0.19335900  0.52861400  0.91705800  1
  O  O10  1  0.49587800  0.60089200  0.21095000  1
  O  O11  1  0.27132000  0.93567800  0.66347400  1
  O  O12  1  0.41572500  0.81266400  0.32970900  1
  O  O13  1  0.58427500  0.18733600  0.67029100  1
  O  O14  1  0.72868000  0.06432200  0.33652600  1
  O  O15  1  0.50412200  0.39910800  0.78905000  1
  O  O16  1  0.80664100  0.47138600  0.08294200  1
  O  O17  1  0.54554000  0.70143400  0.81450700  1
  O  O18  1  0.73928300  0.28064800  0.44843700  1
  O  O19  1  0.69421900  0.96392100  0.15534800  1
  O  O20  1  0.85654700  0.35799100  0.26219100  1
  O  O21  1  0.76757700  0.47327600  0.61862000  1
  O  O22  1  0.92807700  0.17266400  0.94112900  1
  O  O23  1  0.96771100  0.25301900  0.75304400  1
  O  O24  1  0.82753700  0.85069700  0.63555800  1
  O  O25  1  0.84573300  0.95957200  0.83140900  1
loop_
_geom_bond_atom_site_label_1
_geom_bond_atom_site_label_2
_geom_bond_distance
_geom_bond_site_symmetry_2
Li0 O22 1.928589 1_454
Li0 O9 1.983268 1_554
Li0 O16 1.992763 1_455
Li1 O4 1.891929 1_555
Li1 O18 1.980241 1_555
Li1 O1 2.556703 1_555
Li2 O21 1.891929 1_555
Li2 O7 1.980241 1_555
Li2 O24 2.556703 1_555
Li3 O3 1.928589 1_656
Li3 O16 1.983268 1_556
Li3 O9 1.992763 1_655
Fe0 O14 1.971207 1_555
Fe0 O19 2.004260 1_545
Fe0 O1 2.010367 1_555
Fe0 O0 2.015519 1_555
Fe0 O12 2.027465 1_545
Fe0 O8 2.044125 1_555
Fe1 O11 1.971207 1_555
Fe1 O6 2.004260 1_565
Fe1 O24 2.010367 1_555
Fe1 O25 2.015519 1_555
Fe1 O13 2.027465 1_565
Fe1 O17 2.044125 1_555
O0 P0 1.526498 1_445
O1 P6 1.543295 1_455
O2 P2 1.605446 1_555
O2 P0 1.627767 1_455
O3 P0 1.516711 1_455
O4 P2 1.479406 1_555
O5 P3 1.596694 1_555
O5 P1 1.632929 1_555
O6 P7 1.539540 1_555
O7 P1 1.504959 1_555
O8 P4 1.520851 1_555
O9 P3 1.494621 1_555
O10 P4 1.607138 1_555
O10 P2 1.625596 1_555
O11 P1 1.538618 1_555
O12 P2 1.522957 1_555
O13 P5 1.522957 1_555
O14 P6 1.538618 1_555
O15 P3 1.607138 1_555
O15 P5 1.625596 1_555
O16 P4 1.494621 1_555
O17 P3 1.520851 1_555
O18 P6 1.504959 1_555
O19 P0 1.539540 1_555
O20 P4 1.596694 1_555
O20 P6 1.632929 1_555
O21 P5 1.479406 1_555
O22 P7 1.516711 1_655
O23 P5 1.605446 1_555
O23 P7 1.627767 1_655
O24 P1 1.543295 1_655
O25 P7 1.526498 1_665
