# generated using pymatgen
data_MnFeCo(PO4)3
_symmetry_space_group_name_H-M   'P 1'
_cell_length_a   5.97461300
_cell_length_b   9.87103400
_cell_length_c   14.61498754
_cell_angle_alpha   89.95011754
_cell_angle_beta   90.00000000
_cell_angle_gamma   90.00000000
_symmetry_Int_Tables_number   1
_chemical_formula_structural   MnFeCo(PO4)3
_chemical_formula_sum   'Mn4 Fe4 Co4 P12 O48'
_cell_volume   861.92745023
_cell_formula_units_Z   4
loop_
 _symmetry_equiv_pos_site_id
 _symmetry_equiv_pos_as_xyz
  1  'x, y, z'
loop_
 _atom_site_type_symbol
 _atom_site_label
 _atom_site_symmetry_multiplicity
 _atom_site_fract_x
 _atom_site_fract_y
 _atom_site_fract_z
 _atom_site_occupancy
  Mn  Mn0  1  0.50000000  0.78329400  0.81279400  1
  Mn  Mn1  1  0.50000000  0.77926000  0.14805300  1
  Mn  Mn2  1  0.00000000  0.71728900  0.31393600  1
  Mn  Mn3  1  0.50000000  0.28257300  0.02005100  1
  Fe  Fe0  1  0.50000000  0.77683800  0.48781800  1
  Fe  Fe1  1  0.00000000  0.72550800  0.65495600  1
  Fe  Fe2  1  0.00000000  0.72288700  0.98717700  1
  Fe  Fe3  1  0.50000000  0.27446000  0.34483400  1
  Co  Co0  1  0.50000000  0.26719700  0.67438800  1
  Co  Co1  1  0.00000000  0.22723900  0.51086000  1
  Co  Co2  1  0.00000000  0.22473400  0.17865300  1
  Co  Co3  1  0.00000000  0.22252700  0.84730600  1
  P  P0  1  0.00000000  0.90222100  0.13955600  1
  P  P1  1  0.00000000  0.90562200  0.80528900  1
  P  P2  1  0.00000000  0.90325800  0.47236500  1
  P  P3  1  0.50000000  0.60002900  0.97348500  1
  P  P4  1  0.50000000  0.59684900  0.64053400  1
  P  P5  1  0.50000000  0.59834500  0.30564800  1
  P  P6  1  0.00000000  0.40209600  0.02802000  1
  P  P7  1  0.00000000  0.39765800  0.69686000  1
  P  P8  1  0.00000000  0.40255000  0.35980700  1
  P  P9  1  0.50000000  0.09801700  0.52891700  1
  P  P10  1  0.50000000  0.09752700  0.19271000  1
  P  P11  1  0.50000000  0.09966400  0.85897900  1
  O  O0  1  0.50000000  0.94556300  0.21512000  1
  O  O1  1  0.50000000  0.94720800  0.88279600  1
  O  O2  1  0.50000000  0.94736300  0.55323900  1
  O  O3  1  0.00000000  0.88267000  0.24334400  1
  O  O4  1  0.00000000  0.88170800  0.57614600  1
  O  O5  1  0.00000000  0.88274300  0.90833100  1
  O  O6  1  0.20447800  0.83222000  0.42577100  1
  O  O7  1  0.79552200  0.83222000  0.42577100  1
  O  O8  1  0.19841300  0.82826300  0.08950200  1
  O  O9  1  0.80158700  0.82826300  0.08950200  1
  O  O10  1  0.19813500  0.82756800  0.75602000  1
  O  O11  1  0.80186500  0.82756800  0.75602000  1
  O  O12  1  0.70054800  0.67096300  0.59205700  1
  O  O13  1  0.29945200  0.67096300  0.59205700  1
  O  O14  1  0.70427300  0.67111600  0.92701900  1
  O  O15  1  0.29572700  0.67111600  0.92701900  1
  O  O16  1  0.70121800  0.67196400  0.25742300  1
  O  O17  1  0.29878200  0.67196400  0.25742300  1
  O  O18  1  0.50000000  0.61897200  0.40934800  1
  O  O19  1  0.50000000  0.61650600  0.07867000  1
  O  O20  1  0.50000000  0.61828700  0.74492000  1
  O  O21  1  0.00000000  0.55218400  0.05350200  1
  O  O22  1  0.00000000  0.55045400  0.71515500  1
  O  O23  1  0.00000000  0.55415400  0.38510100  1
  O  O24  1  0.50000000  0.44706200  0.95224000  1
  O  O25  1  0.50000000  0.44383400  0.62123200  1
  O  O26  1  0.50000000  0.44697000  0.28226800  1
  O  O27  1  0.00000000  0.38295100  0.25514900  1
  O  O28  1  0.00000000  0.38312100  0.92450600  1
  O  O29  1  0.00000000  0.37478300  0.59148700  1
  O  O30  1  0.19905700  0.32657600  0.07815800  1
  O  O31  1  0.80094300  0.32657600  0.07815800  1
  O  O32  1  0.20275400  0.32933400  0.40764100  1
  O  O33  1  0.79724600  0.32933400  0.40764100  1
  O  O34  1  0.20127100  0.32659200  0.74550700  1
  O  O35  1  0.79872900  0.32659200  0.74550700  1
  O  O36  1  0.70096700  0.17014800  0.24183100  1
  O  O37  1  0.29903300  0.17014800  0.24183100  1
  O  O38  1  0.70086700  0.17278400  0.57753900  1
  O  O39  1  0.29913300  0.17278400  0.57753900  1
  O  O40  1  0.70574900  0.17052200  0.90541000  1
  O  O41  1  0.29425100  0.17052200  0.90541000  1
  O  O42  1  0.50000000  0.11828500  0.75425000  1
  O  O43  1  0.50000000  0.11855800  0.42522400  1
  O  O44  1  0.50000000  0.11583600  0.08788600  1
  O  O45  1  0.00000000  0.05797400  0.45188100  1
  O  O46  1  0.00000000  0.05500000  0.11842900  1
  O  O47  1  0.00000000  0.05461400  0.77792800  1
loop_
_geom_bond_atom_site_label_1
_geom_bond_atom_site_label_2
_geom_bond_distance
_geom_bond_site_symmetry_2
Mn0 O20 1.907823 1_555
Mn0 O1 1.915071 1_555
Mn0 O10 2.032624 1_555
Mn0 O11 2.032624 1_555
Mn0 O14 2.345061 1_555
Mn0 O15 2.345061 1_555
Mn1 O19 1.900553 1_555
Mn1 O0 1.912683 1_555
Mn1 O8 2.052373 1_555
Mn1 O9 2.052373 1_555
Mn1 O16 2.262541 1_555
Mn1 O17 2.262541 1_555
Mn2 O23 1.916231 1_555
Mn2 O3 1.930407 1_555
Mn2 O17 2.017323 1_555
Mn2 O16 2.017323 1_455
Mn2 O6 2.335438 1_555
Mn2 O7 2.335438 1_455
Mn3 O24 1.901504 1_554
Mn3 O44 1.920657 1_555
Mn3 O30 2.035527 1_555
Mn3 O31 2.035527 1_555
Mn3 O40 2.354766 1_554
Mn3 O41 2.354766 1_554
Fe0 O18 1.935627 1_555
Fe0 O2 1.936579 1_555
Fe0 O6 2.058581 1_555
Fe0 O7 2.058581 1_555
Fe0 O13 2.201371 1_555
Fe0 O12 2.201371 1_555
Fe1 O4 1.923769 1_555
Fe1 O22 1.938369 1_555
Fe1 O13 2.082480 1_555
Fe1 O12 2.082480 1_455
Fe1 O11 2.144885 1_455
Fe1 O10 2.144885 1_555
Fe2 O21 1.943206 1_556
Fe2 O5 1.953103 1_555
Fe2 O14 2.038803 1_455
Fe2 O15 2.038803 1_555
Fe2 O9 2.174026 1_456
Fe2 O8 2.174026 1_556
Fe3 O26 1.932129 1_555
Fe3 O43 1.935328 1_555
Fe3 O32 2.071419 1_555
Fe3 O33 2.071419 1_555
Fe3 O36 2.184213 1_555
Fe3 O37 2.184213 1_555
Co0 O42 1.876160 1_555
Co0 O25 1.908214 1_555
Co0 O38 2.077155 1_555
Co0 O39 2.077155 1_555
Co0 O34 2.147238 1_555
Co0 O35 2.147238 1_555
Co1 O29 1.874210 1_555
Co1 O45 1.880732 1_555
Co1 O38 2.105183 1_455
Co1 O39 2.105183 1_555
Co1 O33 2.180853 1_455
Co1 O32 2.180853 1_555
Co2 O46 1.893253 1_555
Co2 O27 1.921470 1_555
Co2 O37 2.081824 1_555
Co2 O36 2.081824 1_455
Co2 O31 2.140003 1_455
Co2 O30 2.140003 1_555
Co3 O47 1.943775 1_555
Co3 O28 1.946554 1_555
Co3 O41 2.018558 1_555
Co3 O40 2.018558 1_455
Co3 O35 2.170739 1_455
Co3 O34 2.170739 1_555
O0 P10 1.535103 1_565
O1 P11 1.544335 1_565
O2 P9 1.528703 1_565
O3 P0 1.528921 1_555
O4 P2 1.531419 1_555
O5 P1 1.522603 1_555
O6 P2 1.564850 1_555
O7 P2 1.564850 1_655
O8 P0 1.572994 1_555
O9 P0 1.572994 1_655
O10 P1 1.585694 1_555
O11 P1 1.585694 1_655
O12 P4 1.572242 1_555
O13 P4 1.572242 1_555
O14 P3 1.562766 1_555
O15 P3 1.562766 1_555
O16 P5 1.571379 1_555
O17 P5 1.571379 1_555
O18 P5 1.529366 1_555
O19 P3 1.545998 1_554
O20 P4 1.540389 1_555
O21 P6 1.527930 1_555
O22 P7 1.532001 1_555
O23 P8 1.541784 1_555
O24 P3 1.541801 1_555
O25 P4 1.536775 1_555
O26 P5 1.533090 1_555
O27 P8 1.541929 1_555
O28 P6 1.524568 1_556
O29 P7 1.556685 1_555
O30 P6 1.583071 1_555
O31 P6 1.583071 1_655
O32 P8 1.574041 1_555
O33 P8 1.574041 1_655
O34 P7 1.562933 1_555
O35 P7 1.562933 1_655
O36 P10 1.572204 1_555
O37 P10 1.572204 1_555
O38 P9 1.578230 1_555
O39 P9 1.578230 1_555
O40 P11 1.568959 1_555
O41 P11 1.568959 1_555
O42 P11 1.541451 1_555
O43 P9 1.528801 1_555
O44 P10 1.542469 1_555
O45 P2 1.556017 1_545
O46 P0 1.539108 1_545
O47 P1 1.523763 1_545
