# generated using pymatgen
data_LiFeCo3O8
_symmetry_space_group_name_H-M   'P 1'
_cell_length_a   5.76781235
_cell_length_b   5.76781235
_cell_length_c   5.89353241
_cell_angle_alpha   60.70317265
_cell_angle_beta   60.70317265
_cell_angle_gamma   59.99999602
_symmetry_Int_Tables_number   1
_chemical_formula_structural   LiFeCo3O8
_chemical_formula_sum   'Li1 Fe1 Co3 O8'
_cell_volume   140.09348271
_cell_formula_units_Z   1
loop_
 _symmetry_equiv_pos_site_id
 _symmetry_equiv_pos_as_xyz
  1  'x, y, z'
loop_
 _atom_site_type_symbol
 _atom_site_label
 _atom_site_symmetry_multiplicity
 _atom_site_fract_x
 _atom_site_fract_y
 _atom_site_fract_z
 _atom_site_occupancy
  Li  Li0  1  0.50000000  0.50000000  0.50000000  1
  Fe  Fe0  1  0.00000000  0.00000000  0.00000000  1
  Co  Co0  1  0.50000000  0.00000000  0.00000000  1
  Co  Co1  1  0.50000000  0.50000000  0.00000000  1
  Co  Co2  1  0.00000000  0.50000000  0.00000000  1
  O  O0  1  0.28632900  0.75586800  0.20193500  1
  O  O1  1  0.73208700  0.73208700  0.80373900  1
  O  O2  1  0.75586800  0.75586800  0.20193500  1
  O  O3  1  0.75586800  0.28632900  0.20193500  1
  O  O4  1  0.24413200  0.71367100  0.79806500  1
  O  O5  1  0.24413200  0.24413200  0.79806500  1
  O  O6  1  0.26791300  0.26791300  0.19626100  1
  O  O7  1  0.71367100  0.24413200  0.79806500  1
loop_
_geom_bond_atom_site_label_1
_geom_bond_atom_site_label_2
_geom_bond_distance
_geom_bond_site_symmetry_2
Li0 O2 2.132006 1_555
Li0 O5 2.132006 1_555
Li0 O7 2.132006 1_555
Li0 O3 2.132006 1_555
Li0 O0 2.132006 1_555
Li0 O4 2.132006 1_555
Fe0 O5 2.021028 1_554
Fe0 O2 2.021028 1_445
Fe0 O7 2.021028 1_454
Fe0 O4 2.021028 1_544
Fe0 O3 2.021028 1_455
Fe0 O0 2.021028 1_545
Co0 O0 1.891526 1_545
Co0 O7 1.891526 1_554
Co0 O2 1.891526 1_545
Co0 O5 1.891526 1_554
Co0 O1 1.919128 1_544
Co0 O6 1.919128 1_555
Co1 O7 1.891526 1_554
Co1 O4 1.891526 1_554
Co1 O0 1.891526 1_555
Co1 O3 1.891526 1_555
Co1 O6 1.919128 1_555
Co1 O1 1.919128 1_554
Co2 O3 1.891526 1_455
Co2 O4 1.891526 1_554
Co2 O5 1.891526 1_554
Co2 O2 1.891526 1_455
Co2 O1 1.919128 1_454
Co2 O6 1.919128 1_555
