# generated using pymatgen
data_MnFe7(PO4)8
_symmetry_space_group_name_H-M   'P 1'
_cell_length_a   11.91257700
_cell_length_b   4.89037800
_cell_length_c   9.93610330
_cell_angle_alpha   89.76965383
_cell_angle_beta   90.00000000
_cell_angle_gamma   90.00000000
_symmetry_Int_Tables_number   1
_chemical_formula_structural   MnFe7(PO4)8
_chemical_formula_sum   'Mn1 Fe7 P8 O32'
_cell_volume   578.84293647
_cell_formula_units_Z   1
loop_
 _symmetry_equiv_pos_site_id
 _symmetry_equiv_pos_as_xyz
  1  'x, y, z'
loop_
 _atom_site_type_symbol
 _atom_site_label
 _atom_site_symmetry_multiplicity
 _atom_site_fract_x
 _atom_site_fract_y
 _atom_site_fract_z
 _atom_site_occupancy
  Mn  Mn0  1  0.50000000  0.93884000  0.71793000  1
  Fe  Fe0  1  0.00000000  0.96967800  0.72750000  1
  Fe  Fe1  1  0.00000000  0.53156600  0.22698800  1
  Fe  Fe2  1  0.50000000  0.53088800  0.22685600  1
  Fe  Fe3  1  0.25087000  0.46619600  0.77459300  1
  Fe  Fe4  1  0.74913000  0.46619600  0.77459300  1
  Fe  Fe5  1  0.24952200  0.03085800  0.27280100  1
  Fe  Fe6  1  0.75047800  0.03085800  0.27280100  1
  P  P0  1  0.24812900  0.91935500  0.59663700  1
  P  P1  1  0.75187100  0.91935500  0.59663700  1
  P  P2  1  0.24999500  0.58331800  0.09661900  1
  P  P3  1  0.75000500  0.58331800  0.09661900  1
  P  P4  1  0.00000000  0.41810000  0.90370300  1
  P  P5  1  0.50000000  0.41930100  0.90007600  1
  P  P6  1  0.50000000  0.07905900  0.40437000  1
  P  P7  1  0.00000000  0.08112300  0.40321500  1
  O  O0  1  0.24925000  0.84996500  0.44660300  1
  O  O1  1  0.75075000  0.84996500  0.44660300  1
  O  O2  1  0.14800700  0.77357900  0.67147700  1
  O  O3  1  0.65161400  0.77114300  0.67156800  1
  O  O4  1  0.85199300  0.77357900  0.67147700  1
  O  O5  1  0.34838600  0.77114300  0.67156800  1
  O  O6  1  0.50000000  0.76987800  0.38302600  1
  O  O7  1  0.00000000  0.77210300  0.38120300  1
  O  O8  1  0.50000000  0.73357000  0.88034400  1
  O  O9  1  0.00000000  0.72746200  0.88168200  1
  O  O10  1  0.14930300  0.72663200  0.17212400  1
  O  O11  1  0.35080600  0.72722500  0.17188400  1
  O  O12  1  0.85069700  0.72663200  0.17212400  1
  O  O13  1  0.64919400  0.72722500  0.17188400  1
  O  O14  1  0.24878600  0.65387000  0.94675800  1
  O  O15  1  0.75121400  0.65387000  0.94675800  1
  O  O16  1  0.50000000  0.35918600  0.05182100  1
  O  O17  1  0.00000000  0.34920000  0.05415400  1
  O  O18  1  0.39779100  0.28169500  0.82833400  1
  O  O19  1  0.60220900  0.28169500  0.82833400  1
  O  O20  1  0.89924400  0.27364800  0.82909300  1
  O  O21  1  0.10075600  0.27364800  0.82909300  1
  O  O22  1  0.25056300  0.27379100  0.11901600  1
  O  O23  1  0.74943700  0.27379100  0.11901600  1
  O  O24  1  0.24924200  0.22777100  0.61869400  1
  O  O25  1  0.75075800  0.22777100  0.61869400  1
  O  O26  1  0.39935300  0.22532600  0.33022000  1
  O  O27  1  0.60064700  0.22532600  0.33022000  1
  O  O28  1  0.89925400  0.22608100  0.32804900  1
  O  O29  1  0.10074600  0.22608100  0.32804900  1
  O  O30  1  0.50000000  0.14880700  0.55508200  1
  O  O31  1  0.00000000  0.15033000  0.55310500  1
loop_
_geom_bond_atom_site_label_1
_geom_bond_atom_site_label_2
_geom_bond_distance
_geom_bond_site_symmetry_2
Mn0 O8 1.897080 1_555
Mn0 O30 1.912893 1_565
Mn0 O3 2.037119 1_555
Mn0 O5 2.037119 1_555
Mn0 O19 2.347752 1_565
Mn0 O18 2.347752 1_565
Fe0 O9 1.932729 1_555
Fe0 O31 1.941856 1_565
Fe0 O4 2.083869 1_455
Fe0 O2 2.083869 1_555
Fe0 O20 2.163661 1_465
Fe0 O21 2.163661 1_565
Fe1 O7 1.935496 1_555
Fe1 O17 1.938246 1_555
Fe1 O10 2.089584 1_555
Fe1 O12 2.089584 1_455
Fe1 O29 2.160661 1_555
Fe1 O28 2.160661 1_455
Fe2 O16 1.934300 1_555
Fe2 O6 1.946382 1_555
Fe2 O11 2.091597 1_555
Fe2 O13 2.091597 1_555
Fe2 O26 2.170934 1_555
Fe2 O27 2.170934 1_555
Fe3 O24 1.942657 1_555
Fe3 O14 1.944714 1_555
Fe3 O18 2.039263 1_555
Fe3 O21 2.091323 1_555
Fe3 O5 2.146878 1_555
Fe3 O2 2.190558 1_555
Fe4 O25 1.942657 1_555
Fe4 O15 1.944714 1_555
Fe4 O19 2.039263 1_555
Fe4 O20 2.091323 1_555
Fe4 O3 2.146878 1_555
Fe4 O4 2.190558 1_555
Fe5 O22 1.931797 1_555
Fe5 O0 1.937148 1_545
Fe5 O29 2.087608 1_555
Fe5 O26 2.102397 1_555
Fe5 O10 2.156722 1_545
Fe5 O11 2.162883 1_545
Fe6 O23 1.931797 1_555
Fe6 O1 1.937148 1_545
Fe6 O28 2.087608 1_555
Fe6 O27 2.102397 1_555
Fe6 O12 2.156722 1_545
Fe6 O13 2.162883 1_545
O0 P0 1.530276 1_555
O1 P1 1.530276 1_555
O2 P0 1.574640 1_555
O3 P1 1.581685 1_555
O4 P1 1.574640 1_555
O5 P0 1.581685 1_555
O6 P6 1.527657 1_565
O7 P7 1.527839 1_565
O8 P5 1.548567 1_555
O9 P4 1.527767 1_555
O10 P2 1.580213 1_555
O11 P2 1.581449 1_555
O12 P3 1.580213 1_555
O13 P3 1.581449 1_555
O14 P2 1.527201 1_556
O15 P3 1.527201 1_556
O16 P5 1.534987 1_554
O17 P4 1.531078 1_554
O18 P5 1.564395 1_555
O19 P5 1.564395 1_555
O20 P4 1.579067 1_655
O21 P4 1.579067 1_555
O22 P2 1.529105 1_555
O23 P3 1.529105 1_555
O24 P0 1.525040 1_545
O25 P1 1.525040 1_545
O26 P6 1.577261 1_555
O27 P6 1.577261 1_555
O28 P7 1.580007 1_655
O29 P7 1.580007 1_555
O30 P6 1.537182 1_555
O31 P7 1.528621 1_555
