# generated using pymatgen
data_Tm2TeO6
_symmetry_space_group_name_H-M   'P 1'
_cell_length_a   4.94587600
_cell_length_b   4.94587600
_cell_length_c   9.96382500
_cell_angle_alpha   90.00000000
_cell_angle_beta   90.00000000
_cell_angle_gamma   90.00000000
_symmetry_Int_Tables_number   1
_chemical_formula_structural   Tm2TeO6
_chemical_formula_sum   'Tm4 Te2 O12'
_cell_volume   243.73199246
_cell_formula_units_Z   2
loop_
 _symmetry_equiv_pos_site_id
 _symmetry_equiv_pos_as_xyz
  1  'x, y, z'
loop_
 _atom_site_type_symbol
 _atom_site_label
 _atom_site_symmetry_multiplicity
 _atom_site_fract_x
 _atom_site_fract_y
 _atom_site_fract_z
 _atom_site_occupancy
  Tm  Tm0  1  0.50000000  0.50000000  0.33452700  1
  Tm  Tm1  1  0.50000000  0.50000000  0.66547300  1
  Tm  Tm2  1  0.00000000  0.00000000  0.16547300  1
  Tm  Tm3  1  0.00000000  0.00000000  0.83452700  1
  Te  Te0  1  0.50000000  0.50000000  0.00000000  1
  Te  Te1  1  0.00000000  0.00000000  0.50000000  1
  O  O0  1  0.68425900  0.68425900  0.14792800  1
  O  O1  1  0.68425900  0.68425900  0.85207200  1
  O  O2  1  0.71914700  0.71914700  0.50000000  1
  O  O3  1  0.78085300  0.21914700  0.00000000  1
  O  O4  1  0.81574100  0.18425900  0.35207200  1
  O  O5  1  0.81574100  0.18425900  0.64792800  1
  O  O6  1  0.18425900  0.81574100  0.35207200  1
  O  O7  1  0.18425900  0.81574100  0.64792800  1
  O  O8  1  0.21914700  0.78085300  0.00000000  1
  O  O9  1  0.28085300  0.28085300  0.50000000  1
  O  O10  1  0.31574100  0.31574100  0.14792800  1
  O  O11  1  0.31574100  0.31574100  0.85207200  1
loop_
_geom_bond_atom_site_label_1
_geom_bond_atom_site_label_2
_geom_bond_distance
_geom_bond_site_symmetry_2
O0 Te0 1.957928 1_555
O0 Tm2 2.215366 1_665
O0 Tm0 2.262253 1_555
O1 Te0 1.957928 1_556
O1 Tm3 2.215366 1_665
O1 Tm1 2.262253 1_555
O2 Te1 1.964433 1_665
O2 Tm1 2.251205 1_555
O2 Tm0 2.251205 1_555
O3 Te0 1.964433 1_555
O3 Tm3 2.251205 1_654
O3 Tm2 2.251205 1_655
O4 Te1 1.957928 1_655
O4 Tm0 2.215366 1_555
O4 Tm2 2.262253 1_655
O5 Te1 1.957928 1_655
O5 Tm1 2.215366 1_555
O5 Tm3 2.262253 1_655
O6 Te1 1.957928 1_565
O6 Tm0 2.215366 1_555
O6 Tm2 2.262253 1_565
O7 Te1 1.957928 1_565
O7 Tm1 2.215366 1_555
O7 Tm3 2.262253 1_565
O8 Te0 1.964433 1_555
O8 Tm2 2.251205 1_565
O8 Tm3 2.251205 1_564
O9 Te1 1.964433 1_555
O9 Tm1 2.251205 1_555
O9 Tm0 2.251205 1_555
O10 Te0 1.957928 1_555
O10 Tm2 2.215366 1_555
O10 Tm0 2.262253 1_555
O11 Te0 1.957928 1_556
O11 Tm3 2.215366 1_555
O11 Tm1 2.262253 1_555
