# generated using pymatgen
data_Na2CuH20C12(N2O3)6
_symmetry_space_group_name_H-M   'P 1'
_cell_length_a   6.86170300
_cell_length_b   10.49860720
_cell_length_c   10.54435241
_cell_angle_alpha   117.14777593
_cell_angle_beta   83.99385303
_cell_angle_gamma   108.82543179
_symmetry_Int_Tables_number   1
_chemical_formula_structural   Na2CuH20C12(N2O3)6
_chemical_formula_sum   'Na2 Cu1 H20 C12 N12 O18'
_cell_volume   638.93837496
_cell_formula_units_Z   1
loop_
 _symmetry_equiv_pos_site_id
 _symmetry_equiv_pos_as_xyz
  1  'x, y, z'
loop_
 _atom_site_type_symbol
 _atom_site_label
 _atom_site_symmetry_multiplicity
 _atom_site_fract_x
 _atom_site_fract_y
 _atom_site_fract_z
 _atom_site_occupancy
  Na  Na0  1  0.75734500  0.46386600  0.39708600  1
  Na  Na1  1  0.24265500  0.53613400  0.60291400  1
  Cu  Cu0  1  0.00000000  0.00000000  0.00000000  1
  H  H0  1  0.12225400  0.86315500  0.36732300  1
  H  H1  1  0.87774600  0.13684500  0.63267700  1
  H  H2  1  0.77324900  0.50801100  0.01285600  1
  H  H3  1  0.22675100  0.49198900  0.98714400  1
  H  H4  1  0.69771800  0.88187300  0.56030200  1
  H  H5  1  0.30228200  0.11812700  0.43969800  1
  H  H6  1  0.33684600  0.53298700  0.21227700  1
  H  H7  1  0.66315400  0.46701300  0.78772300  1
  H  H8  1  0.69825100  0.11435700  0.12740700  1
  H  H9  1  0.30174900  0.88564300  0.87259300  1
  H  H10  1  0.68352900  0.97454600  0.16549400  1
  H  H11  1  0.31647100  0.02545400  0.83450600  1
  H  H12  1  0.08268600  0.29490800  0.32294000  1
  H  H13  1  0.91731400  0.70509200  0.67706000  1
  H  H14  1  0.92860000  0.24076700  0.41997100  1
  H  H15  1  0.07140000  0.75923300  0.58002900  1
  H  H16  1  0.42818100  0.18267800  0.18046100  1
  H  H17  1  0.57181900  0.81732200  0.81953900  1
  H  H18  1  0.56067400  0.26901300  0.09657200  1
  H  H19  1  0.43932600  0.73098700  0.90342800  1
  C  C0  1  0.09909800  0.91456100  0.19963300  1
  C  C1  1  0.90090200  0.08543900  0.80036700  1
  C  C2  1  0.94581400  0.67051200  0.19858600  1
  C  C3  1  0.05418600  0.32948800  0.80141400  1
  C  C4  1  0.89512600  0.71021900  0.99575000  1
  C  C5  1  0.10487400  0.28978100  0.00425000  1
  C  C6  1  0.67547800  0.93485800  0.39242800  1
  C  C7  1  0.32452200  0.06514200  0.60757200  1
  C  C8  1  0.51341400  0.69381400  0.39550700  1
  C  C9  1  0.48658600  0.30618600  0.60449300  1
  C  C10  1  0.47110000  0.73434700  0.19191000  1
  C  C11  1  0.52890000  0.26565300  0.80809000  1
  N  N0  1  0.00819900  0.85788400  0.06844600  1
  N  N1  1  0.99180100  0.14211600  0.93155400  1
  N  N2  1  0.06310500  0.81963600  0.26290600  1
  N  N3  1  0.93689500  0.18036400  0.73709400  1
  N  N4  1  0.87033400  0.61932200  0.06252200  1
  N  N5  1  0.12966600  0.38067800  0.93747800  1
  N  N6  1  0.59473700  0.87904200  0.25875000  1
  N  N7  1  0.40526300  0.12095800  0.74125000  1
  N  N8  1  0.63684400  0.84040700  0.45727500  1
  N  N9  1  0.36315600  0.15959300  0.54272500  1
  N  N10  1  0.42877400  0.64548900  0.26322900  1
  N  N11  1  0.57122600  0.35451100  0.73677100  1
  O  O0  1  0.20921500  0.04954000  0.26371600  1
  O  O1  1  0.79078500  0.95046000  0.73628400  1
  O  O2  1  0.91015700  0.58839400  0.25871400  1
  O  O3  1  0.08984300  0.41160600  0.74128600  1
  O  O4  1  0.81378800  0.65781800  0.87416600  1
  O  O5  1  0.18621200  0.34218200  0.12583400  1
  O  O6  1  0.78689300  0.06951100  0.46036400  1
  O  O7  1  0.21310700  0.93048900  0.53963600  1
  O  O8  1  0.48250600  0.61036500  0.45443400  1
  O  O9  1  0.51749400  0.38963500  0.54556600  1
  O  O10  1  0.39273000  0.67668600  0.06754500  1
  O  O11  1  0.60727000  0.32331400  0.93245500  1
  O  O12  1  0.74535200  0.02525700  0.10145900  1
  O  O13  1  0.25464800  0.97474300  0.89854100  1
  O  O14  1  0.00381900  0.33126400  0.40748300  1
  O  O15  1  0.99618100  0.66873600  0.59251700  1
  O  O16  1  0.56812000  0.24495500  0.17574100  1
  O  O17  1  0.43188000  0.75504500  0.82425900  1
loop_
_geom_bond_atom_site_label_1
_geom_bond_atom_site_label_2
_geom_bond_distance
_geom_bond_site_symmetry_2
Na0 O2 2.339522 1_555
Na0 O9 2.348110 1_555
Na0 O15 2.438336 1_555
Na0 O16 2.495680 1_555
Na0 O14 2.551055 1_655
Na0 O8 2.659366 1_555
Na1 O3 2.339522 1_555
Na1 O8 2.348110 1_555
Na1 O14 2.438336 1_555
Na1 O17 2.495680 1_555
Na1 O15 2.551055 1_455
Na1 O9 2.659366 1_555
Cu0 N1 1.948208 1_454
Cu0 N0 1.948208 1_545
Cu0 O12 1.979115 1_455
Cu0 O13 1.979115 1_544
H0 N2 1.049035 1_555
H1 N3 1.049035 1_555
H2 N4 1.046799 1_555
H3 N5 1.046799 1_555
H4 N8 1.044115 1_555
H5 N9 1.044115 1_555
H6 N10 1.045265 1_555
H7 N11 1.045265 1_555
H8 O12 0.998689 1_555
H9 O13 0.998689 1_555
H10 O12 1.020616 1_565
H10 N6 1.650326 1_555
H11 O13 1.020616 1_545
H11 N7 1.650326 1_555
H12 O14 0.977275 1_555
H13 O15 0.977275 1_555
H14 O14 0.984825 1_655
H15 O15 0.984825 1_455
H16 O16 0.983109 1_555
H17 O17 0.983109 1_555
H18 O16 0.986377 1_555
H19 O17 0.986377 1_555
C0 O0 1.256041 1_565
C0 N0 1.358845 1_555
C0 N2 1.383012 1_555
C1 O1 1.256041 1_545
C1 N1 1.358845 1_555
C1 N3 1.383012 1_555
C2 O2 1.239075 1_555
C2 N4 1.373929 1_555
C2 N2 1.375085 1_655
C3 O3 1.239075 1_555
C3 N5 1.373929 1_555
C3 N3 1.375085 1_455
C4 O4 1.251273 1_555
C4 N0 1.362593 1_656
C4 N4 1.385148 1_556
C5 O5 1.251273 1_555
C5 N1 1.362593 1_454
C5 N5 1.385148 1_554
C6 O6 1.260574 1_565
C6 N6 1.355464 1_555
C6 N8 1.390059 1_555
C7 O7 1.260574 1_545
C7 N7 1.355464 1_555
C7 N9 1.390059 1_555
C8 O8 1.244138 1_555
C8 N8 1.367325 1_555
C8 N10 1.368837 1_555
C9 O9 1.244138 1_555
C9 N9 1.367325 1_555
C9 N11 1.368837 1_555
C10 O10 1.260285 1_555
C10 N6 1.356637 1_555
C10 N10 1.392765 1_555
C11 O11 1.260285 1_555
C11 N7 1.356637 1_555
C11 N11 1.392765 1_555
