# generated using pymatgen
data_Li7Mn11O24
_symmetry_space_group_name_H-M   'P 1'
_cell_length_a   5.93543071
_cell_length_b   5.93543071
_cell_length_c   14.59125733
_cell_angle_alpha   89.04243813
_cell_angle_beta   89.04243813
_cell_angle_gamma   58.21149096
_symmetry_Int_Tables_number   1
_chemical_formula_structural   Li7Mn11O24
_chemical_formula_sum   'Li7 Mn11 O24'
_cell_volume   436.85350668
_cell_formula_units_Z   1
loop_
 _symmetry_equiv_pos_site_id
 _symmetry_equiv_pos_as_xyz
  1  'x, y, z'
loop_
 _atom_site_type_symbol
 _atom_site_label
 _atom_site_symmetry_multiplicity
 _atom_site_fract_x
 _atom_site_fract_y
 _atom_site_fract_z
 _atom_site_occupancy
  Li  Li0  1  0.52070500  0.52070500  0.35622400  1
  Li  Li1  1  0.47929500  0.47929500  0.64377600  1
  Li  Li2  1  0.50000000  0.50000000  0.50000000  1
  Li  Li3  1  0.84222200  0.84222200  0.04437400  1
  Li  Li4  1  0.82803400  0.82803400  0.30122200  1
  Li  Li5  1  0.17196600  0.17196600  0.69877800  1
  Li  Li6  1  0.15777800  0.15777800  0.95562600  1
  Mn  Mn0  1  0.83705600  0.83705600  0.65950000  1
  Mn  Mn1  1  0.50000000  0.00000000  0.50000000  1
  Mn  Mn2  1  0.33459600  0.33459600  0.16786000  1
  Mn  Mn3  1  0.16294400  0.16294400  0.34050000  1
  Mn  Mn4  1  0.33845600  0.83814500  0.16687400  1
  Mn  Mn5  1  0.00000000  0.50000000  0.50000000  1
  Mn  Mn6  1  0.83814500  0.33845600  0.16687400  1
  Mn  Mn7  1  0.66540400  0.66540400  0.83214000  1
  Mn  Mn8  1  0.50000000  0.50000000  0.00000000  1
  Mn  Mn9  1  0.66154400  0.16185500  0.83312600  1
  Mn  Mn10  1  0.16185500  0.66154400  0.83312600  1
  O  O0  1  0.64699700  0.13657700  0.58508000  1
  O  O1  1  0.67818800  0.67818800  0.57896200  1
  O  O2  1  0.32181200  0.32181200  0.42103800  1
  O  O3  1  0.17821100  0.17821100  0.56722800  1
  O  O4  1  0.35300300  0.86342300  0.41492000  1
  O  O5  1  0.86342300  0.35300300  0.41492000  1
  O  O6  1  0.20750600  0.66098200  0.09125700  1
  O  O7  1  0.01458300  0.46163700  0.24408400  1
  O  O8  1  0.13657700  0.64699700  0.58508000  1
  O  O9  1  0.02052800  0.02052800  0.24781400  1
  O  O10  1  0.82178900  0.82178900  0.43277200  1
  O  O11  1  0.15540000  0.15540000  0.09349700  1
  O  O12  1  0.51477000  0.51477000  0.23499500  1
  O  O13  1  0.66130100  0.66130100  0.09459700  1
  O  O14  1  0.84460000  0.84460000  0.90650300  1
  O  O15  1  0.53836300  0.98541700  0.75591600  1
  O  O16  1  0.66098200  0.20750600  0.09125700  1
  O  O17  1  0.33901800  0.79249400  0.90874300  1
  O  O18  1  0.79249400  0.33901800  0.90874300  1
  O  O19  1  0.46163700  0.01458300  0.24408400  1
  O  O20  1  0.33869900  0.33869900  0.90540300  1
  O  O21  1  0.48523000  0.48523000  0.76500500  1
  O  O22  1  0.97947200  0.97947200  0.75218600  1
  O  O23  1  0.98541700  0.53836300  0.75591600  1
loop_
_geom_bond_atom_site_label_1
_geom_bond_atom_site_label_2
_geom_bond_distance
_geom_bond_site_symmetry_2
Li0 O12 1.771131 1_555
Li0 O5 1.938725 1_555
Li0 O4 1.938725 1_555
Li0 O2 2.252834 1_555
Li1 O21 1.771131 1_555
Li1 O8 1.938725 1_555
Li1 O0 1.938725 1_555
Li1 O1 2.252834 1_555
Li2 O1 2.196483 1_555
Li2 O2 2.196483 1_555
Li2 O4 2.217924 1_555
Li2 O5 2.217924 1_555
Li2 O8 2.217924 1_555
Li2 O0 2.217924 1_555
Li3 O6 1.973226 1_655
Li3 O16 1.973226 1_565
Li3 O13 2.001403 1_555
Li3 O14 2.011391 1_554
Li4 O10 1.919334 1_555
Li4 O7 2.035509 1_655
Li4 O19 2.035509 1_565
Li4 O9 2.129287 1_665
Li5 O3 1.919334 1_555
Li5 O23 2.035509 1_455
Li5 O15 2.035509 1_545
Li5 O22 2.129287 1_445
Li6 O17 1.973226 1_545
Li6 O18 1.973226 1_455
Li6 O20 2.001403 1_555
Li6 O11 2.011391 1_556
Mn0 O8 1.864330 1_655
Mn0 O0 1.864330 1_565
Mn0 O22 2.021706 1_555
Mn0 O1 2.042095 1_555
Mn0 O23 2.052053 1_555
Mn0 O15 2.052053 1_555
Mn1 O3 1.890130 1_555
Mn1 O10 1.890130 1_545
Mn1 O4 1.942813 1_545
Mn1 O0 1.942813 1_555
Mn1 O1 1.983248 1_545
Mn1 O2 1.983248 1_555
Mn2 O7 1.965149 1_555
Mn2 O19 1.965149 1_555
Mn2 O16 1.996860 1_555
Mn2 O6 1.996860 1_555
Mn2 O12 2.126451 1_555
Mn2 O11 2.169989 1_555
Mn3 O5 1.864330 1_455
Mn3 O4 1.864330 1_545
Mn3 O9 2.021706 1_555
Mn3 O2 2.042095 1_555
Mn3 O19 2.052053 1_555
Mn3 O7 2.052053 1_555
Mn4 O12 1.903129 1_555
Mn4 O11 1.920580 1_565
Mn4 O13 1.932932 1_555
Mn4 O19 1.942708 1_565
Mn4 O6 1.963605 1_555
Mn4 O9 1.985855 1_565
Mn5 O3 1.890130 1_555
Mn5 O10 1.890130 1_455
Mn5 O5 1.942813 1_455
Mn5 O8 1.942813 1_555
Mn5 O1 1.983248 1_455
Mn5 O2 1.983248 1_555
Mn6 O12 1.903129 1_555
Mn6 O11 1.920580 1_655
Mn6 O13 1.932932 1_555
Mn6 O7 1.942708 1_655
Mn6 O16 1.963605 1_555
Mn6 O9 1.985855 1_655
Mn7 O23 1.965149 1_555
Mn7 O15 1.965149 1_555
Mn7 O17 1.996860 1_555
Mn7 O18 1.996860 1_555
Mn7 O21 2.126451 1_555
Mn7 O14 2.169989 1_555
Mn8 O6 1.979282 1_555
Mn8 O16 1.979282 1_555
Mn8 O17 1.979282 1_554
Mn8 O18 1.979282 1_554
Mn8 O13 2.189162 1_555
Mn8 O20 2.189162 1_554
Mn9 O21 1.903129 1_555
Mn9 O14 1.920580 1_545
Mn9 O20 1.932932 1_555
Mn9 O15 1.942708 1_545
Mn9 O18 1.963605 1_555
Mn9 O22 1.985855 1_545
Mn10 O21 1.903129 1_555
Mn10 O14 1.920580 1_455
Mn10 O20 1.932932 1_555
Mn10 O23 1.942708 1_455
Mn10 O17 1.963605 1_555
Mn10 O22 1.985855 1_455
