# generated using pymatgen
data_Co2OF3
_symmetry_space_group_name_H-M   'P 1'
_cell_length_a   4.73604800
_cell_length_b   5.71663500
_cell_length_c   10.39074868
_cell_angle_alpha   83.39828502
_cell_angle_beta   90.00000000
_cell_angle_gamma   90.00000000
_symmetry_Int_Tables_number   1
_chemical_formula_structural   Co2OF3
_chemical_formula_sum   'Co8 O4 F12'
_cell_volume   279.45645452
_cell_formula_units_Z   4
loop_
 _symmetry_equiv_pos_site_id
 _symmetry_equiv_pos_as_xyz
  1  'x, y, z'
loop_
 _atom_site_type_symbol
 _atom_site_label
 _atom_site_symmetry_multiplicity
 _atom_site_fract_x
 _atom_site_fract_y
 _atom_site_fract_z
 _atom_site_occupancy
  Co  Co0  1  0.50000000  0.50000000  0.00000000  1
  Co  Co1  1  0.50000000  0.00000000  0.50000000  1
  Co  Co2  1  0.53123100  0.74109200  0.26890700  1
  Co  Co3  1  0.46876900  0.25890800  0.73109300  1
  Co  Co4  1  0.03123100  0.25890800  0.23109300  1
  Co  Co5  1  0.00000000  0.50000000  0.50000000  1
  Co  Co6  1  0.96876900  0.74109200  0.76890700  1
  Co  Co7  1  0.00000000  0.00000000  0.00000000  1
  O  O0  1  0.80019400  0.71889300  0.92470600  1
  O  O1  1  0.69980600  0.71889300  0.42470600  1
  O  O2  1  0.30019400  0.28110700  0.57529400  1
  O  O3  1  0.19980600  0.28110700  0.07529400  1
  F  F0  1  0.79965800  0.47821000  0.67925400  1
  F  F1  1  0.81473900  0.22426600  0.41194500  1
  F  F2  1  0.80094000  0.98451500  0.17587900  1
  F  F3  1  0.70034200  0.47821000  0.17925400  1
  F  F4  1  0.68526100  0.22426600  0.91194500  1
  F  F5  1  0.69906000  0.98451500  0.67587900  1
  F  F6  1  0.31473900  0.77573400  0.08805500  1
  F  F7  1  0.30094000  0.01548500  0.32412100  1
  F  F8  1  0.29965800  0.52179000  0.82074600  1
  F  F9  1  0.19906000  0.01548500  0.82412100  1
  F  F10  1  0.20034200  0.52179000  0.32074600  1
  F  F11  1  0.18526100  0.77573400  0.58805500  1
loop_
_geom_bond_atom_site_label_1
_geom_bond_atom_site_label_2
_geom_bond_distance
_geom_bond_site_symmetry_2
Co0 O3 1.993525 1_555
Co0 O0 1.993525 1_554
Co0 F3 2.081265 1_555
Co0 F8 2.081265 1_554
Co0 F4 2.103148 1_554
Co0 F6 2.103148 1_555
Co1 F7 2.049205 1_555
Co1 F5 2.049205 1_545
Co1 O2 2.092616 1_555
Co1 O1 2.092616 1_545
Co1 F11 2.105474 1_545
Co1 F1 2.105474 1_555
Co2 O1 1.796388 1_555
Co2 F3 2.022271 1_555
Co2 F10 2.040191 1_555
Co2 F7 2.046009 1_565
Co2 F2 2.047721 1_555
Co2 F6 2.129852 1_555
Co3 O2 1.796388 1_555
Co3 F8 2.022271 1_555
Co3 F0 2.040191 1_555
Co3 F5 2.046009 1_545
Co3 F9 2.047721 1_555
Co3 F4 2.129852 1_555
Co4 O3 1.796388 1_555
Co4 F10 2.022271 1_555
Co4 F3 2.040191 1_455
Co4 F2 2.046009 1_445
Co4 F7 2.047721 1_555
Co4 F1 2.129852 1_455
Co5 O2 1.993525 1_555
Co5 O1 1.993525 1_455
Co5 F0 2.081265 1_455
Co5 F10 2.081265 1_555
Co5 F11 2.103148 1_555
Co5 F1 2.103148 1_455
Co6 O0 1.796388 1_555
Co6 F0 2.022271 1_555
Co6 F8 2.040191 1_655
Co6 F9 2.046009 1_665
Co6 F5 2.047721 1_555
Co6 F11 2.129852 1_655
Co7 F9 2.049205 1_554
Co7 F2 2.049205 1_445
Co7 O0 2.092616 1_444
Co7 O3 2.092616 1_555
Co7 F6 2.105474 1_545
Co7 F4 2.105474 1_454
