# generated using pymatgen
data_LiFeBO3
_symmetry_space_group_name_H-M   'P 1'
_cell_length_a   3.16103000
_cell_length_b   14.46426305
_cell_length_c   14.47145303
_cell_angle_alpha   60.07779474
_cell_angle_beta   89.20958636
_cell_angle_gamma   89.28442305
_symmetry_Int_Tables_number   1
_chemical_formula_structural   LiFeBO3
_chemical_formula_sum   'Li9 Fe9 B9 O27'
_cell_volume   573.39934967
_cell_formula_units_Z   9
loop_
 _symmetry_equiv_pos_site_id
 _symmetry_equiv_pos_as_xyz
  1  'x, y, z'
loop_
 _atom_site_type_symbol
 _atom_site_label
 _atom_site_symmetry_multiplicity
 _atom_site_fract_x
 _atom_site_fract_y
 _atom_site_fract_z
 _atom_site_occupancy
  Li  Li0  1  0.50817200  0.88319200  0.90032300  1
  Li  Li1  1  0.48643600  0.56256200  0.88478300  1
  Li  Li2  1  0.56050100  0.88404900  0.55294400  1
  Li  Li3  1  0.50593400  0.21638200  0.88389900  1
  Li  Li4  1  0.44952000  0.55377800  0.56314300  1
  Li  Li5  1  0.50312200  0.25088500  0.54671700  1
  Li  Li6  1  0.49412200  0.90036500  0.21655000  1
  Li  Li7  1  0.48933400  0.54635800  0.20323100  1
  Li  Li8  1  0.50054200  0.20252600  0.25158800  1
  Fe  Fe0  1  0.06442800  0.80450600  0.75257100  1
  Fe  Fe1  1  0.00795700  0.44215000  0.80596100  1
  Fe  Fe2  1  0.01063900  0.11284200  0.77427400  1
  Fe  Fe3  1  0.94097100  0.75339100  0.44282500  1
  Fe  Fe4  1  0.97451500  0.46437700  0.43013300  1
  Fe  Fe5  1  0.02251800  0.10580600  0.46521500  1
  Fe  Fe6  1  0.98581600  0.77417400  0.11367500  1
  Fe  Fe7  1  0.98740100  0.42907000  0.10678100  1
  Fe  Fe8  1  0.00962500  0.11313300  0.11295000  1
  B  B0  1  0.99640700  0.66262500  0.99131800  1
  B  B1  1  0.00060800  0.66701800  0.66662700  1
  B  B2  1  0.98657700  0.34622100  0.66351200  1
  B  B3  1  0.01582600  0.99094400  0.34640100  1
  B  B4  1  0.53056700  0.01373700  0.66810600  1
  B  B5  1  0.46697100  0.66770300  0.31921700  1
  B  B6  1  0.99815300  0.33297000  0.33402600  1
  B  B7  1  0.00704100  0.99973500  0.00031600  1
  B  B8  1  0.50358200  0.31798400  0.01474200  1
  O  O0  1  0.01021900  0.91522400  0.98009300  1
  O  O1  1  0.97024600  0.57315800  0.97885900  1
  O  O2  1  0.07719800  0.76305100  0.90356400  1
  O  O3  1  0.56354300  0.91340100  0.67879600  1
  O  O4  1  0.50369300  0.40771300  0.91441300  1
  O  O5  1  0.00747100  0.59260200  0.77431900  1
  O  O6  1  0.07245300  0.77347100  0.63298900  1
  O  O7  1  0.02470400  0.10425100  0.91606400  1
  O  O8  1  0.05483000  0.97815900  0.44816500  1
  O  O9  1  0.05667200  0.33282600  0.76449400  1
  O  O10  1  0.92166200  0.63494500  0.59306800  1
  O  O11  1  0.91899900  0.90405800  0.33366800  1
  O  O12  1  0.94563100  0.25739400  0.65103900  1
  O  O13  1  0.96000700  0.44836300  0.57444900  1
  O  O14  1  0.51474000  0.02426600  0.75855600  1
  O  O15  1  0.44666100  0.67887800  0.40870200  1
  O  O16  1  0.47432600  0.56566900  0.33196900  1
  O  O17  1  0.51381000  0.10291600  0.56635300  1
  O  O18  1  0.98642300  0.97958500  0.10491000  1
  O  O19  1  0.48045500  0.75791800  0.21829600  1
  O  O20  1  0.00947200  0.32643900  0.43292200  1
  O  O21  1  0.98414200  0.24059500  0.32744700  1
  O  O22  1  0.00063300  0.43192100  0.24179200  1
  O  O23  1  0.94445400  0.65056000  0.09240900  1
  O  O24  1  0.06957100  0.09148900  0.25741100  1
  O  O25  1  0.49586400  0.33040500  0.10416800  1
  O  O26  1  0.51065600  0.21717000  0.02478600  1
loop_
_geom_bond_atom_site_label_1
_geom_bond_atom_site_label_2
_geom_bond_distance
_geom_bond_site_symmetry_2
Li0 O14 2.048557 1_565
Li0 O0 2.118994 1_555
Li0 O0 2.160625 1_655
Li0 O2 2.203169 1_555
Li0 O2 2.469873 1_655
Li1 O4 2.059829 1_555
Li1 O5 2.096160 1_555
Li1 O1 2.118320 1_555
Li1 O1 2.163329 1_455
Li1 O5 2.170057 1_655
Li2 O3 2.066234 1_555
Li2 O6 2.108075 1_555
Li2 O8 2.126591 1_655
Li2 O6 2.158140 1_655
Li2 O8 2.158815 1_555
Li3 O26 2.044810 1_556
Li3 O7 2.109529 1_555
Li3 O7 2.176639 1_655
Li3 O9 2.223478 1_555
Li3 O9 2.437232 1_655
Li4 O15 2.057902 1_555
Li4 O10 2.088566 1_555
Li4 O13 2.132847 1_455
Li4 O13 2.156963 1_555
Li4 O10 2.188233 1_455
Li5 O17 2.013535 1_555
Li5 O12 2.109023 1_555
Li5 O20 2.138698 1_555
Li5 O20 2.154900 1_655
Li5 O12 2.336192 1_455
Li6 O19 2.048895 1_555
Li6 O18 2.114973 1_555
Li6 O18 2.162729 1_455
Li6 O11 2.198664 1_555
Li6 O11 2.486638 1_455
Li7 O16 2.016810 1_555
Li7 O23 2.119530 1_555
Li7 O22 2.134531 1_555
Li7 O22 2.167948 1_655
Li7 O23 2.325976 1_455
Li8 O25 2.009040 1_555
Li8 O24 2.087801 1_555
Li8 O21 2.124990 1_555
Li8 O21 2.168895 1_455
Li8 O24 2.370432 1_655
Fe0 O2 1.957160 1_555
Fe0 O6 1.992581 1_555
Fe0 O3 2.105778 1_455
Fe0 O3 2.108997 1_555
Fe1 O9 1.955083 1_555
Fe1 O5 1.987769 1_555
Fe1 O4 2.103097 1_455
Fe1 O4 2.106027 1_555
Fe2 O12 1.968167 1_455
Fe2 O7 1.993927 1_555
Fe2 O14 2.112367 1_555
Fe2 O14 2.121587 1_455
Fe3 O11 1.953012 1_555
Fe3 O10 1.987192 1_555
Fe3 O15 2.103998 1_655
Fe3 O15 2.107430 1_555
Fe4 O20 1.977075 1_655
Fe4 O13 1.983038 1_555
Fe4 O16 2.140145 1_655
Fe4 O16 2.142944 1_555
Fe5 O21 1.978267 1_455
Fe5 O8 1.982243 1_545
Fe5 O17 2.134418 1_555
Fe5 O17 2.146023 1_455
Fe6 O23 1.965859 1_555
Fe6 O0 1.992596 1_654
Fe6 O19 2.118235 1_555
Fe6 O19 2.119731 1_655
Fe7 O22 1.975724 1_655
Fe7 O1 1.981005 1_554
Fe7 O25 2.136145 1_555
Fe7 O25 2.148550 1_655
Fe8 O24 1.964909 1_555
Fe8 O18 1.994561 1_445
Fe8 O26 2.112073 1_455
Fe8 O26 2.118725 1_555
B0 O23 1.391757 1_556
B0 O2 1.395681 1_655
B0 O1 1.396364 1_555
B1 O10 1.383314 1_455
B1 O5 1.383712 1_555
B1 O6 1.384673 1_555
B2 O12 1.391493 1_555
B2 O9 1.395560 1_655
B2 O13 1.396838 1_555
B3 O24 1.390685 1_565
B3 O11 1.396147 1_455
B3 O8 1.396750 1_555
B4 O3 1.383369 1_545
B4 O14 1.391369 1_555
B4 O17 1.393008 1_555
B5 O15 1.383289 1_555
B5 O19 1.391380 1_555
B5 O16 1.392935 1_555
B6 O22 1.387169 1_655
B6 O21 1.387369 1_555
B6 O20 1.387407 1_655
B7 O7 1.391558 1_564
B7 O0 1.391580 1_554
B7 O18 1.392084 1_455
B8 O4 1.382945 1_554
B8 O26 1.391329 1_555
B8 O25 1.392338 1_555
