# generated using pymatgen
data_V4O7F5
_symmetry_space_group_name_H-M   'P 1'
_cell_length_a   5.12824631
_cell_length_b   5.28843591
_cell_length_c   8.87211134
_cell_angle_alpha   73.43642371
_cell_angle_beta   90.11155469
_cell_angle_gamma   60.19099315
_symmetry_Int_Tables_number   1
_chemical_formula_structural   V4O7F5
_chemical_formula_sum   'V4 O7 F5'
_cell_volume   197.10713552
_cell_formula_units_Z   1
loop_
 _symmetry_equiv_pos_site_id
 _symmetry_equiv_pos_as_xyz
  1  'x, y, z'
loop_
 _atom_site_type_symbol
 _atom_site_label
 _atom_site_symmetry_multiplicity
 _atom_site_fract_x
 _atom_site_fract_y
 _atom_site_fract_z
 _atom_site_occupancy
  V  V0  1  0.73192178  0.52318513  0.26584430  1
  V  V1  1  0.45695008  0.04042005  0.51202677  1
  V  V2  1  0.24397315  0.54714799  0.75387292  1
  V  V3  1  0.04210261  0.00339082  0.01537756  1
  O  O0  1  0.96485364  0.23244582  0.12038387  1
  O  O1  1  0.55146096  0.74710920  0.36944292  1
  O  O2  1  0.41352621  0.73851726  0.08183057  1
  O  O3  1  0.40567927  0.74529471  0.66133658  1
  O  O4  1  0.45986228  0.23180640  0.62780420  1
  O  O5  1  0.04398103  0.74495770  0.86635635  1
  O  O6  1  0.09445662  0.25406011  0.41202389  1
  F  F0  1  0.92069057  0.72848150  0.58205274  1
  F  F1  1  0.91687495  0.74815215  0.15512477  1
  F  F2  1  0.60153686  0.22882353  0.33616684  1
  F  F3  1  0.57680612  0.23892504  0.91303637  1
  F  F4  1  0.07532386  0.24728558  0.82731635  1
loop_
_geom_bond_atom_site_label_1
_geom_bond_atom_site_label_2
_geom_bond_distance
_geom_bond_site_symmetry_2
O0 V3 1.630947 1_655
O0 V0 2.183528 1_555
O1 V0 1.624171 1_555
O1 V1 2.148251 1_565
O2 V3 1.676273 1_565
O2 V0 1.925924 1_555
O3 V2 1.684007 1_555
O3 V1 1.868269 1_565
O4 V1 1.639358 1_555
O4 V2 2.119091 1_555
O5 V2 1.635441 1_555
O5 V3 2.152495 1_566
O6 V1 1.689169 1_555
O6 V0 1.863215 1_455
F0 V2 1.888912 1_655
F0 V1 2.066996 1_565
F1 V3 1.918955 1_665
F1 V0 1.933706 1_555
F2 V0 1.934538 1_555
F2 V1 1.956926 1_555
F3 V2 1.864534 1_555
F3 V3 2.112200 1_656
F4 V3 1.862557 1_556
F4 V2 2.112819 1_555
