# generated using pymatgen
data_K4SnO4
_symmetry_space_group_name_H-M   'P 1'
_cell_length_a   6.50948221
_cell_length_b   6.51013191
_cell_length_c   9.78162319
_cell_angle_alpha   71.64646296
_cell_angle_beta   79.98472618
_cell_angle_gamma   67.24242638
_symmetry_Int_Tables_number   1
_chemical_formula_structural   K4SnO4
_chemical_formula_sum   'K8 Sn2 O8'
_cell_volume   362.16307808
_cell_formula_units_Z   2
loop_
 _symmetry_equiv_pos_site_id
 _symmetry_equiv_pos_as_xyz
  1  'x, y, z'
loop_
 _atom_site_type_symbol
 _atom_site_label
 _atom_site_symmetry_multiplicity
 _atom_site_fract_x
 _atom_site_fract_y
 _atom_site_fract_z
 _atom_site_occupancy
  K  K0  1  0.76269516  0.40717576  0.82922897  1
  K  K1  1  0.23730484  0.59282424  0.17077103  1
  K  K2  1  0.22771932  0.48593669  0.56050527  1
  K  K3  1  0.77228068  0.51406331  0.43949473  1
  K  K4  1  0.74185419  0.76145230  0.02200807  1
  K  K5  1  0.25814581  0.23854770  0.97799193  1
  K  K6  1  0.27375630  0.04149505  0.38704924  1
  K  K7  1  0.72624370  0.95850495  0.61295076  1
  Sn  Sn0  1  0.77772557  0.15639996  0.24637973  1
  Sn  Sn1  1  0.22227443  0.84360004  0.75362027  1
  O  O0  1  0.53034696  0.29728116  0.37686338  1
  O  O1  1  0.46965304  0.70271884  0.62313662  1
  O  O2  1  0.96403818  0.84324446  0.35637506  1
  O  O3  1  0.03596182  0.15675554  0.64362494  1
  O  O4  1  0.96645194  0.34977536  0.19348436  1
  O  O5  1  0.03354806  0.65022464  0.80651564  1
  O  O6  1  0.63764030  0.15726718  0.08333290  1
  O  O7  1  0.36235970  0.84273282  0.91666710  1
loop_
_geom_bond_atom_site_label_1
_geom_bond_atom_site_label_2
_geom_bond_distance
_geom_bond_site_symmetry_2
K0 O6 2.694770 1_556
K0 O1 2.731294 1_555
K0 O5 2.731708 1_655
K0 O3 2.759551 1_655
K1 O7 2.694770 1_554
K1 O0 2.731294 1_555
K1 O4 2.731708 1_455
K1 O2 2.759551 1_455
K2 O0 2.627274 1_555
K2 O3 2.725975 1_555
K2 O1 2.728889 1_555
K2 O2 2.742625 1_455
K2 O5 2.837108 1_555
K3 O1 2.627274 1_555
K3 O2 2.725975 1_555
K3 O0 2.728889 1_555
K3 O3 2.742625 1_655
K3 O4 2.837108 1_555
K4 O6 2.634282 1_565
K4 O7 2.640996 1_554
K4 O5 2.660481 1_654
K4 O4 2.669116 1_555
K5 O7 2.634282 1_545
K5 O6 2.640996 1_556
K5 O4 2.660481 1_456
K5 O5 2.669116 1_555
K6 O4 2.726282 1_455
K6 O1 2.732058 1_545
K6 O0 2.749926 1_555
K6 O3 2.862506 1_555
K6 O2 2.878863 1_445
K7 O5 2.726282 1_655
K7 O0 2.732058 1_565
K7 O1 2.749926 1_555
K7 O2 2.862506 1_555
K7 O3 2.878863 1_665
O0 Sn0 1.985699 1_555
O1 Sn1 1.985699 1_555
O2 Sn0 1.986038 1_565
O3 Sn1 1.986038 1_545
O4 Sn0 1.981670 1_555
O5 Sn1 1.981670 1_555
O6 Sn0 1.967572 1_555
O7 Sn1 1.967572 1_555
