# generated using pymatgen
data_Li2Ti3CoO8
_symmetry_space_group_name_H-M   'P 1'
_cell_length_a   5.94284617
_cell_length_b   5.94406404
_cell_length_c   9.76246622
_cell_angle_alpha   89.99550011
_cell_angle_beta   90.02447732
_cell_angle_gamma   120.00418322
_symmetry_Int_Tables_number   1
_chemical_formula_structural   Li2Ti3CoO8
_chemical_formula_sum   'Li4 Ti6 Co2 O16'
_cell_volume   298.64124760
_cell_formula_units_Z   2
loop_
 _symmetry_equiv_pos_site_id
 _symmetry_equiv_pos_as_xyz
  1  'x, y, z'
loop_
 _atom_site_type_symbol
 _atom_site_label
 _atom_site_symmetry_multiplicity
 _atom_site_fract_x
 _atom_site_fract_y
 _atom_site_fract_z
 _atom_site_occupancy
  Li  Li0  1  0.33344800  0.66665700  0.88959700  1
  Li  Li1  1  0.00010800  0.99997700  0.99860800  1
  Li  Li2  1  0.99960400  0.99991600  0.49910400  1
  Li  Li3  1  0.66666000  0.33329300  0.39010600  1
  Ti  Ti0  1  0.16942000  0.83182300  0.21565200  1
  Ti  Ti1  1  0.16940700  0.33779800  0.21558400  1
  Ti  Ti2  1  0.66254500  0.83119300  0.21477500  1
  Ti  Ti3  1  0.33760000  0.16895800  0.71489700  1
  Ti  Ti4  1  0.83111900  0.66293500  0.71548100  1
  Ti  Ti5  1  0.83096200  0.16850900  0.71576100  1
  Co  Co0  1  0.32979100  0.66438300  0.49220100  1
  Co  Co1  1  0.66708200  0.33301000  0.99506800  1
  O  O0  1  0.15848200  0.84218100  0.60709100  1
  O  O1  1  0.03568000  0.51790300  0.32853600  1
  O  O2  1  0.33300700  0.66662200  0.10473800  1
  O  O3  1  0.99998600  0.00015400  0.31492900  1
  O  O4  1  0.00020800  0.00022800  0.81517500  1
  O  O5  1  0.15865600  0.31658300  0.60696500  1
  O  O6  1  0.48226000  0.96470900  0.32846000  1
  O  O7  1  0.48241000  0.51785000  0.32842200  1
  O  O8  1  0.31629400  0.15818800  0.10686100  1
  O  O9  1  0.68382100  0.84203000  0.60697500  1
  O  O10  1  0.51783700  0.48258900  0.82825700  1
  O  O11  1  0.51783700  0.03504700  0.82831800  1
  O  O12  1  0.66680900  0.33346300  0.60444200  1
  O  O13  1  0.84162700  0.68361400  0.10685900  1
  O  O14  1  0.96546700  0.48270000  0.82819600  1
  O  O15  1  0.84187200  0.15799100  0.10677700  1
loop_
_geom_bond_atom_site_label_1
_geom_bond_atom_site_label_2
_geom_bond_distance
_geom_bond_site_symmetry_2
Li0 O14 1.986137 1_455
Li0 O11 1.988501 1_565
Li0 O10 1.989016 1_555
Li0 O2 2.100309 1_556
Li1 O4 1.790759 1_565
Li1 O8 1.939898 1_566
Li1 O15 1.940610 1_466
Li1 O13 1.941467 1_456
Li2 O3 1.798004 1_565
Li2 O9 1.936921 1_555
Li2 O5 1.940438 1_665
Li2 O0 1.940696 1_655
Li3 O6 1.990355 1_545
Li3 O7 1.991413 1_555
Li3 O1 1.992246 1_655
Li3 O12 2.092448 1_555
Co0 O5 2.112181 1_555
Co0 O0 2.118633 1_555
Co0 O9 2.138531 1_555
Co0 O1 2.200405 1_555
Co0 O7 2.220195 1_555
Co0 O6 2.223985 1_555
Co1 O15 2.104807 1_556
Co1 O13 2.108916 1_556
Co1 O8 2.109980 1_556
Co1 O11 2.236443 1_555
Co1 O14 2.239261 1_555
Co1 O10 2.239725 1_555
O0 Ti3 1.986227 1_565
O0 Ti4 1.992044 1_455
O1 Ti0 1.960906 1_555
O1 Ti1 1.960976 1_555
O2 Ti2 2.007133 1_555
O2 Ti1 2.009119 1_555
O2 Ti0 2.009389 1_555
O3 Ti1 1.990444 1_655
O3 Ti0 1.990719 1_645
O3 Ti2 1.992567 1_545
O4 Ti5 1.989805 1_455
O4 Ti4 1.990263 1_445
O4 Ti3 1.993705 1_555
O5 Ti3 1.985777 1_555
O5 Ti5 1.995652 1_455
O6 Ti0 1.955224 1_555
O6 Ti2 1.964961 1_555
O7 Ti1 1.956109 1_555
O7 Ti2 1.962786 1_555
O8 Ti0 1.990021 1_545
O8 Ti1 1.990330 1_555
O9 Ti4 1.988128 1_555
O9 Ti5 1.990194 1_565
O10 Ti4 1.957817 1_555
O10 Ti3 1.962054 1_555
O11 Ti5 1.955695 1_555
O11 Ti3 1.964297 1_555
O12 Ti3 2.008704 1_555
O12 Ti5 2.012368 1_555
O12 Ti4 2.012657 1_555
O13 Ti2 1.986676 1_555
O13 Ti0 1.995231 1_655
O14 Ti5 1.959119 1_555
O14 Ti4 1.962285 1_555
O15 Ti2 1.987689 1_545
O15 Ti1 1.994296 1_655
