# generated using pymatgen
data_Li2VSiCO7
_symmetry_space_group_name_H-M   'P 1'
_cell_length_a   6.32884600
_cell_length_b   10.22271934
_cell_length_c   8.53819816
_cell_angle_alpha   86.61480481
_cell_angle_beta   90.00038453
_cell_angle_gamma   89.99999885
_symmetry_Int_Tables_number   1
_chemical_formula_structural   Li2VSiCO7
_chemical_formula_sum   'Li8 V4 Si4 C4 O28'
_cell_volume   551.44060450
_cell_formula_units_Z   4
loop_
 _symmetry_equiv_pos_site_id
 _symmetry_equiv_pos_as_xyz
  1  'x, y, z'
loop_
 _atom_site_type_symbol
 _atom_site_label
 _atom_site_symmetry_multiplicity
 _atom_site_fract_x
 _atom_site_fract_y
 _atom_site_fract_z
 _atom_site_occupancy
  Li  Li0  1  0.51037700  0.11959400  0.22270600  1
  Li  Li1  1  0.51037400  0.61962900  0.22268900  1
  Li  Li2  1  0.98961900  0.11959200  0.22270200  1
  Li  Li3  1  0.98962600  0.61962800  0.22268800  1
  Li  Li4  1  0.48962600  0.38036700  0.77731200  1
  Li  Li5  1  0.48961800  0.88040700  0.77729900  1
  Li  Li6  1  0.01037500  0.38036900  0.77731500  1
  Li  Li7  1  0.01038200  0.88040500  0.77729700  1
  V  V0  1  0.74999800  0.90209200  0.34234400  1
  V  V1  1  0.25000700  0.09789400  0.65765000  1
  V  V2  1  0.74999800  0.40213100  0.34242000  1
  V  V3  1  0.25000000  0.59786500  0.65756500  1
  Si  Si0  1  0.24999500  0.35227000  0.42590400  1
  Si  Si1  1  0.25000000  0.85230000  0.42583200  1
  Si  Si2  1  0.74999900  0.14769900  0.57416600  1
  Si  Si3  1  0.74999900  0.64773100  0.57409200  1
  C  C0  1  0.75000300  0.36583900  0.05405500  1
  C  C1  1  0.75000000  0.86594300  0.05404700  1
  C  C2  1  0.25000200  0.13406200  0.94595600  1
  C  C3  1  0.25000200  0.63416300  0.94595900  1
  O  O0  1  0.24999800  0.14854100  0.09178600  1
  O  O1  1  0.24999900  0.64862900  0.09167700  1
  O  O2  1  0.75000300  0.35137100  0.90832400  1
  O  O3  1  0.75000100  0.85146300  0.90821400  1
  O  O4  1  0.74999700  0.48164900  0.11454300  1
  O  O5  1  0.74999700  0.98170200  0.11448900  1
  O  O6  1  0.25000100  0.01830200  0.88551400  1
  O  O7  1  0.25000100  0.51835100  0.88546200  1
  O  O8  1  0.75000200  0.26665100  0.16082100  1
  O  O9  1  0.75000300  0.76672600  0.16074700  1
  O  O10  1  0.25000800  0.23327800  0.83925100  1
  O  O11  1  0.25000300  0.73335100  0.83918500  1
  O  O12  1  0.75000000  0.08316000  0.40246300  1
  O  O13  1  0.74999600  0.58313500  0.40242400  1
  O  O14  1  0.25000100  0.41686300  0.59757100  1
  O  O15  1  0.25000200  0.91683800  0.59753600  1
  O  O16  1  0.25000200  0.19173700  0.45147600  1
  O  O17  1  0.24999500  0.69180500  0.45137200  1
  O  O18  1  0.74999700  0.30819400  0.54863000  1
  O  O19  1  0.75000500  0.80826200  0.54852200  1
  O  O20  1  0.04243300  0.40269600  0.32464400  1
  O  O21  1  0.04242500  0.90274300  0.32457300  1
  O  O22  1  0.45754900  0.40268900  0.32463900  1
  O  O23  1  0.45758000  0.90273800  0.32457500  1
  O  O24  1  0.54242300  0.09725600  0.67542600  1
  O  O25  1  0.54244400  0.59731400  0.67535700  1
  O  O26  1  0.95757900  0.09726400  0.67542200  1
  O  O27  1  0.95755600  0.59731000  0.67536000  1
loop_
_geom_bond_atom_site_label_1
_geom_bond_atom_site_label_2
_geom_bond_distance
_geom_bond_site_symmetry_2
Li0 O0 2.003390 1_555
Li0 O12 2.174093 1_555
Li0 O8 2.178370 1_555
Li0 O5 2.300969 1_545
Li0 O23 2.356887 1_545
Li1 O1 2.003863 1_555
Li1 O13 2.174037 1_555
Li1 O9 2.178762 1_555
Li1 O4 2.301289 1_555
Li1 O22 2.357918 1_555
Li2 O0 2.003386 1_655
Li2 O12 2.174111 1_555
Li2 O8 2.178337 1_555
Li2 O5 2.300941 1_545
Li2 O21 2.356833 1_645
Li3 O1 2.003861 1_655
Li3 O13 2.174092 1_555
Li3 O9 2.178736 1_555
Li3 O4 2.301296 1_555
Li3 O20 2.357841 1_655
Li4 O2 2.003869 1_555
Li4 O14 2.174089 1_555
Li4 O10 2.178653 1_555
Li4 O7 2.301338 1_555
Li4 O25 2.357991 1_555
Li5 O3 2.003384 1_555
Li5 O15 2.174094 1_555
Li5 O11 2.178321 1_555
Li5 O6 2.300969 1_565
Li5 O24 2.356839 1_565
Li6 O2 2.003843 1_455
Li6 O14 2.174123 1_555
Li6 O10 2.178723 1_555
Li6 O7 2.301310 1_555
Li6 O27 2.357934 1_455
Li7 O3 2.003393 1_455
Li7 O15 2.174117 1_555
Li7 O11 2.178332 1_555
Li7 O6 2.300989 1_565
Li7 O26 2.356935 1_465
C0 O2 1.261682 1_554
C0 O4 1.319295 1_555
C0 O8 1.322865 1_555
C1 O3 1.262569 1_554
C1 O5 1.318641 1_555
C1 O9 1.322718 1_555
C2 O0 1.262541 1_556
C2 O6 1.318650 1_555
C2 O10 1.322738 1_555
C3 O1 1.261568 1_556
C3 O7 1.319348 1_555
C3 O11 1.322909 1_555
O4 V2 2.063879 1_555
O5 V0 2.064025 1_555
O6 V1 2.064033 1_555
O7 V3 2.064022 1_555
O8 V2 2.139135 1_555
O9 V0 2.138317 1_555
O10 V1 2.138470 1_555
O11 V3 2.139314 1_555
O12 Si2 1.642794 1_555
O12 V0 1.949852 1_545
O13 Si3 1.642785 1_555
O13 V2 1.948907 1_555
O14 Si0 1.642763 1_555
O14 V3 1.948860 1_555
O15 Si1 1.642797 1_555
O15 V1 1.949720 1_565
O16 Si0 1.642715 1_555
O16 V1 1.954412 1_555
O17 Si1 1.642310 1_555
O17 V3 1.954987 1_555
O18 Si2 1.642307 1_555
O18 V2 1.955100 1_555
O19 Si3 1.642693 1_555
O19 V0 1.954383 1_555
O20 Si0 1.638962 1_555
O20 V2 1.856971 1_455
O21 Si1 1.639072 1_555
O21 V0 1.856916 1_455
O22 Si0 1.638932 1_555
O22 V2 1.857061 1_555
O23 Si1 1.639084 1_555
O23 V0 1.856856 1_555
O24 Si2 1.639091 1_555
O24 V1 1.856848 1_555
O25 Si3 1.638931 1_555
O25 V3 1.857037 1_555
O26 Si2 1.639062 1_555
O26 V1 1.856923 1_655
O27 Si3 1.638957 1_555
O27 V3 1.857041 1_655
