# generated using pymatgen
data_Na4Sn2C4SO16
_symmetry_space_group_name_H-M   'P 1'
_cell_length_a   10.31555345
_cell_length_b   10.22110506
_cell_length_c   9.94921331
_cell_angle_alpha   61.49975081
_cell_angle_beta   60.54808795
_cell_angle_gamma   57.95216124
_symmetry_Int_Tables_number   1
_chemical_formula_structural   Na4Sn2C4SO16
_chemical_formula_sum   'Na8 Sn4 C8 S2 O32'
_cell_volume   740.25954938
_cell_formula_units_Z   2
loop_
 _symmetry_equiv_pos_site_id
 _symmetry_equiv_pos_as_xyz
  1  'x, y, z'
loop_
 _atom_site_type_symbol
 _atom_site_label
 _atom_site_symmetry_multiplicity
 _atom_site_fract_x
 _atom_site_fract_y
 _atom_site_fract_z
 _atom_site_occupancy
  Na  Na0  1  0.29804000  0.70196000  0.29804000  1
  Na  Na1  1  0.29673200  0.70326800  0.70326800  1
  Na  Na2  1  0.70326800  0.29673200  0.29673200  1
  Na  Na3  1  0.70196000  0.29804000  0.70196000  1
  Na  Na4  1  0.54804000  0.95196000  0.54804000  1
  Na  Na5  1  0.54673200  0.95326800  0.95326800  1
  Na  Na6  1  0.95326800  0.54673200  0.54673200  1
  Na  Na7  1  0.95196000  0.54804000  0.95196000  1
  Sn  Sn0  1  0.12500000  0.12500000  0.62500000  1
  Sn  Sn1  1  0.12500000  0.12500000  0.12500000  1
  Sn  Sn2  1  0.12500000  0.62500000  0.12500000  1
  Sn  Sn3  1  0.62500000  0.12500000  0.12500000  1
  C  C0  1  0.28969200  0.88750300  0.90674900  1
  C  C1  1  0.88750300  0.28969200  0.91605700  1
  C  C2  1  0.90674900  0.91605700  0.28969200  1
  C  C3  1  0.91605700  0.90674900  0.88750300  1
  C  C4  1  0.33394300  0.34325100  0.36249700  1
  C  C5  1  0.34325100  0.33394300  0.96030800  1
  C  C6  1  0.36249700  0.96030800  0.33394300  1
  C  C7  1  0.96030800  0.36249700  0.34325100  1
  S  S0  1  0.50000000  0.50000000  0.50000000  1
  S  S1  1  0.75000000  0.75000000  0.75000000  1
  O  O0  1  0.28335300  0.75806700  0.92048900  1
  O  O1  1  0.29095500  0.90311900  0.02925300  1
  O  O2  1  0.90311900  0.29095500  0.77667300  1
  O  O3  1  0.24774100  0.95465600  0.31848900  1
  O  O4  1  0.75806700  0.28335300  0.03809100  1
  O  O5  1  0.02925300  0.77667300  0.29095500  1
  O  O6  1  0.92048900  0.03809100  0.28335300  1
  O  O7  1  0.95465600  0.24774100  0.47911400  1
  O  O8  1  0.77088600  0.93151200  0.29534400  1
  O  O9  1  0.03809100  0.92048900  0.75806700  1
  O  O10  1  0.55733000  0.55545600  0.31931800  1
  O  O11  1  0.93068200  0.68210400  0.69267000  1
  O  O12  1  0.47332700  0.22074700  0.34688100  1
  O  O13  1  0.31848900  0.47911400  0.24774100  1
  O  O14  1  0.55545600  0.55733000  0.56789600  1
  O  O15  1  0.56789600  0.31931800  0.55545600  1
  O  O16  1  0.68210400  0.93068200  0.69454400  1
  O  O17  1  0.69454400  0.69267000  0.68210400  1
  O  O18  1  0.93151100  0.77088600  0.00225900  1
  O  O19  1  0.77667300  0.02925300  0.90311900  1
  O  O20  1  0.31931800  0.56789600  0.55733000  1
  O  O21  1  0.69267000  0.69454400  0.93068200  1
  O  O22  1  0.21190900  0.32951100  0.49193300  1
  O  O23  1  0.47911400  0.31848800  0.95465600  1
  O  O24  1  0.29534400  0.00225900  0.77088600  1
  O  O25  1  0.32951100  0.21190900  0.96664700  1
  O  O26  1  0.22074700  0.47332700  0.95904500  1
  O  O27  1  0.49193300  0.96664700  0.21190900  1
  O  O28  1  0.00225900  0.29534400  0.93151100  1
  O  O29  1  0.34688100  0.95904500  0.47332700  1
  O  O30  1  0.95904500  0.34688100  0.22074700  1
  O  O31  1  0.96664700  0.49193300  0.32951100  1
loop_
_geom_bond_atom_site_label_1
_geom_bond_atom_site_label_2
_geom_bond_distance
_geom_bond_site_symmetry_2
Na0 O20 2.333453 1_555
Na0 O10 2.333453 1_555
Na0 O3 2.440713 1_555
Na0 O13 2.440713 1_555
Na0 O1 2.483886 1_555
Na0 O5 2.483886 1_555
Na1 O14 2.306394 1_555
Na1 O20 2.306394 1_555
Na1 O9 2.404851 1_555
Na1 O0 2.404851 1_555
Na1 O26 2.626743 1_555
Na1 O29 2.626743 1_555
Na2 O15 2.306394 1_555
Na2 O10 2.306394 1_555
Na2 O4 2.404851 1_555
Na2 O6 2.404851 1_555
Na2 O12 2.626743 1_555
Na2 O30 2.626743 1_555
Na3 O14 2.333453 1_555
Na3 O15 2.333453 1_555
Na3 O23 2.440712 1_555
Na3 O7 2.440713 1_555
Na3 O2 2.483886 1_555
Na3 O19 2.483886 1_555
Na4 O17 2.333453 1_555
Na4 O16 2.333453 1_555
Na4 O8 2.440712 1_555
Na4 O24 2.440713 1_565
Na4 O29 2.483886 1_555
Na4 O12 2.483886 1_565
Na5 O21 2.306394 1_555
Na5 O16 2.306394 1_555
Na5 O25 2.404851 1_565
Na5 O27 2.404851 1_556
Na5 O19 2.626743 1_565
Na5 O1 2.626743 1_556
Na6 O17 2.306394 1_555
Na6 O11 2.306394 1_555
Na6 O22 2.404851 1_655
Na6 O31 2.404851 1_555
Na6 O2 2.626743 1_555
Na6 O5 2.626743 1_655
Na7 O11 2.333453 1_555
Na7 O21 2.333453 1_555
Na7 O18 2.440713 1_556
Na7 O28 2.440713 1_655
Na7 O30 2.483886 1_556
Na7 O26 2.483886 1_655
C0 O0 1.297560 1_555
C0 O24 1.299364 1_565
C0 O1 1.309443 1_556
C1 O4 1.297556 1_556
C1 O28 1.299358 1_655
C1 O2 1.309453 1_555
C2 O6 1.297550 1_565
C2 O8 1.299364 1_555
C2 O5 1.309449 1_655
C3 O9 1.297554 1_655
C3 O18 1.299364 1_556
C3 O19 1.309448 1_565
C4 O22 1.297554 1_555
C4 O13 1.299364 1_555
C4 O12 1.309448 1_555
C5 O25 1.297550 1_555
C5 O23 1.299364 1_555
C5 O26 1.309449 1_555
C6 O27 1.297556 1_555
C6 O3 1.299358 1_555
C6 O29 1.309453 1_555
C7 O31 1.297560 1_555
C7 O7 1.299364 1_555
C7 O30 1.309443 1_555
O0 Sn2 2.259770 1_556
O1 Sn1 2.306329 1_565
O2 Sn0 2.306329 1_655
O3 Sn1 2.280169 1_565
O4 Sn3 2.259770 1_555
O5 Sn2 2.306329 1_555
O6 Sn1 2.259770 1_655
O7 Sn0 2.280169 1_655
O8 Sn3 2.280167 1_565
O9 Sn0 2.259770 1_565
O10 S0 1.496813 1_555
O11 S1 1.496813 1_555
O12 Sn3 2.306329 1_555
O13 Sn2 2.280169 1_555
O14 S0 1.496813 1_555
O15 S0 1.496813 1_555
O16 S1 1.496813 1_555
O17 S1 1.496813 1_555
O18 Sn2 2.280169 1_655
O19 Sn3 2.306329 1_556
O20 S0 1.496813 1_555
O21 S1 1.496813 1_555
O22 Sn0 2.259770 1_555
O23 Sn3 2.280167 1_556
O24 Sn0 2.280169 1_555
O25 Sn1 2.259770 1_556
O26 Sn2 2.306329 1_556
O27 Sn3 2.259770 1_565
O28 Sn1 2.280169 1_556
O29 Sn0 2.306329 1_565
O30 Sn1 2.306329 1_655
O31 Sn2 2.259770 1_655
