# generated using pymatgen
data_Li2(VS2)3
_symmetry_space_group_name_H-M   'P 1'
_cell_length_a   5.59603571
_cell_length_b   5.59603571
_cell_length_c   14.89587800
_cell_angle_alpha   90.00000000
_cell_angle_beta   90.00000000
_cell_angle_gamma   119.99999655
_symmetry_Int_Tables_number   1
_chemical_formula_structural   Li2(VS2)3
_chemical_formula_sum   'Li4 V6 S12'
_cell_volume   403.97799337
_cell_formula_units_Z   2
loop_
 _symmetry_equiv_pos_site_id
 _symmetry_equiv_pos_as_xyz
  1  'x, y, z'
loop_
 _atom_site_type_symbol
 _atom_site_label
 _atom_site_symmetry_multiplicity
 _atom_site_fract_x
 _atom_site_fract_y
 _atom_site_fract_z
 _atom_site_occupancy
  Li  Li0  1  0.33333300  0.66666700  0.00000000  1
  Li  Li1  1  0.33333300  0.66666700  0.50000000  1
  Li  Li2  1  0.66666700  0.33333300  0.50000000  1
  Li  Li3  1  0.66666700  0.33333300  0.00000000  1
  V  V0  1  0.00000000  0.67474100  0.75000000  1
  V  V1  1  0.00000000  0.32525900  0.25000000  1
  V  V2  1  0.32525900  0.32525900  0.75000000  1
  V  V3  1  0.32525900  0.00000000  0.25000000  1
  V  V4  1  0.67474100  0.67474100  0.25000000  1
  V  V5  1  0.67474100  0.00000000  0.75000000  1
  S  S0  1  0.33333300  0.66666700  0.84595900  1
  S  S1  1  0.33333300  0.66666700  0.34595900  1
  S  S2  1  0.00000000  0.00000000  0.84982300  1
  S  S3  1  0.00000000  0.00000000  0.15017700  1
  S  S4  1  0.00000000  0.00000000  0.34982300  1
  S  S5  1  0.33333300  0.66666700  0.15404100  1
  S  S6  1  0.00000000  0.00000000  0.65017700  1
  S  S7  1  0.33333300  0.66666700  0.65404100  1
  S  S8  1  0.66666700  0.33333300  0.84595900  1
  S  S9  1  0.66666700  0.33333300  0.34595900  1
  S  S10  1  0.66666700  0.33333300  0.65404100  1
  S  S11  1  0.66666700  0.33333300  0.15404100  1
loop_
_geom_bond_atom_site_label_1
_geom_bond_atom_site_label_2
_geom_bond_distance
_geom_bond_site_symmetry_2
Li0 S0 2.294576 1_554
Li0 S5 2.294576 1_555
Li1 S7 2.294576 1_555
Li1 S1 2.294576 1_555
Li2 S9 2.294576 1_555
Li2 S10 2.294576 1_555
Li3 S8 2.294576 1_554
Li3 S11 2.294576 1_555
S0 V0 2.368331 1_555
S0 V5 2.368334 1_565
S0 V2 2.368336 1_555
S1 V3 2.368331 1_565
S1 V1 2.368334 1_555
S1 V4 2.368336 1_555
S2 V5 2.350321 1_455
S2 V0 2.350321 1_545
S2 V2 2.350321 1_555
S3 V3 2.350321 1_555
S3 V1 2.350321 1_555
S3 V4 2.350321 1_445
S4 V3 2.350321 1_555
S4 V1 2.350321 1_555
S4 V4 2.350321 1_445
S5 V3 2.368331 1_565
S5 V1 2.368334 1_555
S5 V4 2.368336 1_555
S6 V5 2.350321 1_455
S6 V0 2.350321 1_545
S6 V2 2.350321 1_555
S7 V0 2.368331 1_555
S7 V5 2.368334 1_565
S7 V2 2.368336 1_555
S8 V5 2.368331 1_555
S8 V0 2.368334 1_655
S8 V2 2.368336 1_555
S9 V1 2.368331 1_655
S9 V3 2.368334 1_555
S9 V4 2.368336 1_555
S10 V5 2.368331 1_555
S10 V0 2.368334 1_655
S10 V2 2.368336 1_555
S11 V1 2.368331 1_655
S11 V3 2.368334 1_555
S11 V4 2.368336 1_555
