# generated using pymatgen
data_PrSiO4
_symmetry_space_group_name_H-M   'P 1'
_cell_length_a   6.08153817
_cell_length_b   6.08153817
_cell_length_c   6.08153817
_cell_angle_alpha   106.37676966
_cell_angle_beta   106.37676966
_cell_angle_gamma   115.85499298
_symmetry_Int_Tables_number   1
_chemical_formula_structural   PrSiO4
_chemical_formula_sum   'Pr2 Si2 O8'
_cell_volume   171.51869080
_cell_formula_units_Z   2
loop_
 _symmetry_equiv_pos_site_id
 _symmetry_equiv_pos_as_xyz
  1  'x, y, z'
loop_
 _atom_site_type_symbol
 _atom_site_label
 _atom_site_symmetry_multiplicity
 _atom_site_fract_x
 _atom_site_fract_y
 _atom_site_fract_z
 _atom_site_occupancy
  Pr  Pr0  1  0.25000000  0.75000000  0.50000000  1
  Pr  Pr1  1  0.00000000  0.00000000  0.00000000  1
  Si  Si0  1  0.50000000  0.50000000  0.00000000  1
  Si  Si1  1  0.75000000  0.25000000  0.50000000  1
  O  O0  1  0.48547400  0.66049500  0.82498000  1
  O  O1  1  0.33950500  0.16448500  0.82498000  1
  O  O2  1  0.33950500  0.51452600  0.17502000  1
  O  O3  1  0.83551500  0.66049500  0.17502000  1
  O  O4  1  0.41448500  0.08950500  0.32498000  1
  O  O5  1  0.91049500  0.58551500  0.67502000  1
  O  O6  1  0.91049500  0.23547400  0.32498000  1
  O  O7  1  0.76452600  0.08950500  0.67502000  1
loop_
_geom_bond_atom_site_label_1
_geom_bond_atom_site_label_2
_geom_bond_distance
_geom_bond_site_symmetry_2
O0 Si0 1.643607 1_556
O0 Pr0 2.437958 1_555
O0 Pr1 2.536713 1_666
O1 Si0 1.643606 1_556
O1 Pr0 2.437961 1_545
O1 Pr1 2.536708 1_556
O2 Si0 1.643607 1_555
O2 Pr0 2.437958 1_555
O2 Pr1 2.536713 1_555
O3 Si0 1.643606 1_555
O3 Pr0 2.437961 1_655
O3 Pr1 2.536708 1_665
O4 Si1 1.643606 1_555
O4 Pr1 2.437961 1_555
O4 Pr0 2.536708 1_545
O5 Si1 1.643606 1_555
O5 Pr1 2.437961 1_666
O5 Pr0 2.536708 1_655
O6 Si1 1.643607 1_555
O6 Pr1 2.437958 1_655
O6 Pr0 2.536713 1_655
O7 Si1 1.643607 1_555
O7 Pr1 2.437958 1_656
O7 Pr0 2.536713 1_545
