# generated using pymatgen
data_MgH12(ClO5)2
_symmetry_space_group_name_H-M   'P 1'
_cell_length_a   7.46837000
_cell_length_b   7.46837000
_cell_length_c   10.16911500
_cell_angle_alpha   90.00000000
_cell_angle_beta   90.00000000
_cell_angle_gamma   90.00000000
_symmetry_Int_Tables_number   1
_chemical_formula_structural   MgH12(ClO5)2
_chemical_formula_sum   'Mg2 H24 Cl4 O20'
_cell_volume   567.19815590
_cell_formula_units_Z   2
loop_
 _symmetry_equiv_pos_site_id
 _symmetry_equiv_pos_as_xyz
  1  'x, y, z'
loop_
 _atom_site_type_symbol
 _atom_site_label
 _atom_site_symmetry_multiplicity
 _atom_site_fract_x
 _atom_site_fract_y
 _atom_site_fract_z
 _atom_site_occupancy
  Mg  Mg0  1  0.50000000  0.50000000  0.00000000  1
  Mg  Mg1  1  0.00000000  0.00000000  0.50000000  1
  H  H0  1  0.50000000  0.60821300  0.26052600  1
  H  H1  1  0.50000000  0.39178700  0.26052600  1
  H  H2  1  0.10821300  0.00000000  0.76052600  1
  H  H3  1  0.89178700  0.00000000  0.76052600  1
  H  H4  1  0.00000000  0.89178700  0.23947400  1
  H  H5  1  0.00000000  0.10821300  0.23947400  1
  H  H6  1  0.39178700  0.50000000  0.73947400  1
  H  H7  1  0.60821300  0.50000000  0.73947400  1
  H  H8  1  0.19356100  0.30504700  0.05523100  1
  H  H9  1  0.80643900  0.30504700  0.05523100  1
  H  H10  1  0.19356100  0.69495300  0.05523100  1
  H  H11  1  0.80643900  0.69495300  0.05523100  1
  H  H12  1  0.80504700  0.69356100  0.55523100  1
  H  H13  1  0.19495300  0.69356100  0.55523100  1
  H  H14  1  0.80504700  0.30643900  0.55523100  1
  H  H15  1  0.19495300  0.30643900  0.55523100  1
  H  H16  1  0.30643900  0.19495300  0.44476900  1
  H  H17  1  0.69356100  0.19495300  0.44476900  1
  H  H18  1  0.30643900  0.80504700  0.44476900  1
  H  H19  1  0.69356100  0.80504700  0.44476900  1
  H  H20  1  0.69495300  0.80643900  0.94476900  1
  H  H21  1  0.30504700  0.80643900  0.94476900  1
  H  H22  1  0.69495300  0.19356100  0.94476900  1
  H  H23  1  0.30504700  0.19356100  0.94476900  1
  Cl  Cl0  1  0.00000000  0.50000000  0.74063900  1
  Cl  Cl1  1  0.00000000  0.50000000  0.24063900  1
  Cl  Cl2  1  0.50000000  0.00000000  0.75936100  1
  Cl  Cl3  1  0.50000000  0.00000000  0.25936100  1
  O  O0  1  0.17374200  0.50000000  0.64965600  1
  O  O1  1  0.82625800  0.50000000  0.64965600  1
  O  O2  1  0.00000000  0.67374200  0.14965600  1
  O  O3  1  0.00000000  0.32625800  0.14965600  1
  O  O4  1  0.32625800  0.00000000  0.85034400  1
  O  O5  1  0.67374200  0.00000000  0.85034400  1
  O  O6  1  0.50000000  0.82625800  0.35034400  1
  O  O7  1  0.50000000  0.17374200  0.35034400  1
  O  O8  1  0.50000000  0.50000000  0.20569800  1
  O  O9  1  0.00000000  0.00000000  0.70569800  1
  O  O10  1  0.00000000  0.00000000  0.29430200  1
  O  O11  1  0.50000000  0.50000000  0.79430200  1
  O  O12  1  0.30328500  0.30328500  0.00000000  1
  O  O13  1  0.69671500  0.30328500  0.00000000  1
  O  O14  1  0.30328500  0.69671500  0.00000000  1
  O  O15  1  0.69671500  0.69671500  0.00000000  1
  O  O16  1  0.80328500  0.80328500  0.50000000  1
  O  O17  1  0.19671500  0.80328500  0.50000000  1
  O  O18  1  0.80328500  0.19671500  0.50000000  1
  O  O19  1  0.19671500  0.19671500  0.50000000  1
loop_
_geom_bond_atom_site_label_1
_geom_bond_atom_site_label_2
_geom_bond_distance
_geom_bond_site_symmetry_2
Mg0 O15 2.077678 1_555
Mg0 O13 2.077678 1_555
Mg0 O14 2.077678 1_555
Mg0 O12 2.077678 1_555
Mg0 O8 2.091767 1_555
Mg0 O11 2.091767 1_554
Mg1 O19 2.077678 1_555
Mg1 O18 2.077678 1_455
Mg1 O17 2.077678 1_545
Mg1 O16 2.077678 1_445
Mg1 O9 2.091767 1_555
Mg1 O10 2.091767 1_555
H0 O8 0.981841 1_555
H1 O8 0.981841 1_555
H2 O9 0.981841 1_555
H3 O9 0.981841 1_655
H4 O10 0.981841 1_565
H5 O10 0.981841 1_555
H6 O11 0.981841 1_555
H7 O11 0.981841 1_555
H8 O12 0.993548 1_555
H8 O3 1.742650 1_555
H9 O13 0.993548 1_555
H9 O3 1.742650 1_655
H10 O14 0.993548 1_555
H10 O2 1.742650 1_555
H11 O15 0.993548 1_555
H11 O2 1.742650 1_655
H12 O16 0.993548 1_555
H12 O1 1.742650 1_555
H13 O17 0.993548 1_555
H13 O0 1.742650 1_555
H14 O18 0.993548 1_555
H14 O1 1.742650 1_555
H15 O19 0.993548 1_555
H15 O0 1.742650 1_555
H16 O19 0.993548 1_555
H16 O7 1.742650 1_555
H17 O18 0.993548 1_555
H17 O7 1.742650 1_555
H18 O17 0.993548 1_555
H18 O6 1.742650 1_555
H19 O16 0.993548 1_555
H19 O6 1.742650 1_555
H20 O15 0.993548 1_556
H20 O5 1.742650 1_565
H21 O14 0.993548 1_556
H21 O4 1.742650 1_565
H22 O13 0.993548 1_556
H22 O5 1.742650 1_555
H23 O12 0.993548 1_556
H23 O4 1.742650 1_555
Cl0 O0 1.593648 1_555
Cl0 O1 1.593648 1_455
Cl1 O2 1.593648 1_555
Cl1 O3 1.593648 1_555
Cl2 O5 1.593648 1_555
Cl2 O4 1.593648 1_555
Cl3 O7 1.593648 1_555
Cl3 O6 1.593648 1_545
