# generated using pymatgen
data_Mn2OF3
_symmetry_space_group_name_H-M   'P 1'
_cell_length_a   4.79438300
_cell_length_b   5.73909009
_cell_length_c   13.82622214
_cell_angle_alpha   79.07426613
_cell_angle_beta   89.10726887
_cell_angle_gamma   89.34755905
_symmetry_Int_Tables_number   1
_chemical_formula_structural   Mn2OF3
_chemical_formula_sum   'Mn10 O5 F15'
_cell_volume   373.47898663
_cell_formula_units_Z   5
loop_
 _symmetry_equiv_pos_site_id
 _symmetry_equiv_pos_as_xyz
  1  'x, y, z'
loop_
 _atom_site_type_symbol
 _atom_site_label
 _atom_site_symmetry_multiplicity
 _atom_site_fract_x
 _atom_site_fract_y
 _atom_site_fract_z
 _atom_site_occupancy
  Mn  Mn0  1  0.50298400  0.49879300  0.99929900  1
  Mn  Mn1  1  0.48597200  0.69568600  0.40175200  1
  Mn  Mn2  1  0.54184300  0.28883500  0.59080900  1
  Mn  Mn3  1  0.46621700  0.09890000  0.21422900  1
  Mn  Mn4  1  0.52047700  0.90776700  0.79062200  1
  Mn  Mn5  1  0.96574200  0.60138800  0.18589500  1
  Mn  Mn6  1  0.99794600  0.20017500  0.40038200  1
  Mn  Mn7  1  0.03827800  0.39833000  0.81188100  1
  Mn  Mn8  1  0.98544100  0.80451400  0.60345600  1
  Mn  Mn9  1  0.99990500  0.00138000  0.00003800  1
  O  O0  1  0.79949400  0.70068500  0.04926600  1
  O  O1  1  0.69808300  0.39160400  0.45601600  1
  O  O2  1  0.70865500  0.97764800  0.65686800  1
  O  O3  1  0.28643600  0.00539700  0.35082400  1
  O  O4  1  0.20487300  0.29891300  0.94893700  1
  F  F0  1  0.81160000  0.07874700  0.86388900  1
  F  F1  1  0.81132000  0.27179100  0.26204500  1
  F  F2  1  0.81510200  0.48618500  0.66850300  1
  F  F3  1  0.79669800  0.88244800  0.46443300  1
  F  F4  1  0.70112500  0.18296400  0.06966700  1
  F  F5  1  0.68630400  0.77465100  0.26507300  1
  F  F6  1  0.68828800  0.57257300  0.86017200  1
  F  F7  1  0.31490400  0.43088000  0.13819200  1
  F  F8  1  0.30085700  0.81826800  0.93019000  1
  F  F9  1  0.32129000  0.23299500  0.72809200  1
  F  F10  1  0.29274200  0.61570500  0.54520700  1
  F  F11  1  0.18087600  0.11599700  0.53964400  1
  F  F12  1  0.19107200  0.51476200  0.33125500  1
  F  F13  1  0.19097400  0.92286700  0.13478400  1
  F  F14  1  0.19450300  0.72915400  0.73857900  1
loop_
_geom_bond_atom_site_label_1
_geom_bond_atom_site_label_2
_geom_bond_distance
_geom_bond_site_symmetry_2
Mn0 O0 2.052380 1_556
Mn0 O4 2.052969 1_555
Mn1 O3 2.019452 1_565
Mn1 O1 2.032156 1_555
Mn2 O1 1.982967 1_555
Mn2 O2 2.008797 1_545
Mn3 O3 2.042870 1_555
Mn4 O2 2.017390 1_555
Mn5 O0 2.038898 1_555
Mn6 O3 1.964114 1_655
Mn6 O1 2.028655 1_555
Mn7 O4 2.044829 1_555
Mn8 O2 1.873829 1_555
Mn9 O0 1.984117 1_545
Mn9 O4 1.984922 1_654
F0 Mn9 2.069475 1_556
F0 Mn4 2.095057 1_545
F0 Mn7 2.140850 1_655
F1 Mn6 2.091604 1_555
F1 Mn3 2.116436 1_555
F1 Mn5 2.118350 1_555
F2 Mn8 2.049799 1_555
F2 Mn2 2.166097 1_555
F2 Mn7 2.236926 1_655
F3 Mn8 2.105398 1_555
F3 Mn6 2.107496 1_565
F3 Mn1 2.132594 1_555
F4 Mn9 2.090007 1_555
F4 Mn0 2.110810 1_554
F4 Mn3 2.252299 1_555
F5 Mn5 2.078150 1_555
F5 Mn1 2.080327 1_555
F5 Mn3 2.133781 1_565
F6 Mn0 2.077348 1_555
F6 Mn7 2.107464 1_655
F6 Mn4 2.135482 1_555
F7 Mn0 2.079217 1_554
F7 Mn5 2.089944 1_455
F7 Mn3 2.120035 1_555
F8 Mn9 2.103732 1_466
F8 Mn0 2.130282 1_555
F8 Mn4 2.160909 1_555
F9 Mn7 2.102839 1_555
F9 Mn4 2.125260 1_545
F9 Mn2 2.130310 1_555
F10 Mn8 2.061778 1_455
F10 Mn1 2.147159 1_555
F10 Mn2 2.206144 1_555
F11 Mn8 2.065551 1_445
F11 Mn6 2.097705 1_455
F11 Mn2 2.196051 1_555
F12 Mn6 2.094472 1_455
F12 Mn1 2.118311 1_555
F12 Mn5 2.264979 1_455
F13 Mn9 2.058794 1_465
F13 Mn3 2.112999 1_565
F13 Mn5 2.144021 1_455
F14 Mn4 2.088578 1_555
F14 Mn8 2.103381 1_455
F14 Mn7 2.114772 1_555
