# generated using pymatgen
data_ZnAs2
_symmetry_space_group_name_H-M   'P 1'
_cell_length_a   7.69436264
_cell_length_b   8.02387316
_cell_length_c   9.26330243
_cell_angle_alpha   102.50121340
_cell_angle_beta   90.00000000
_cell_angle_gamma   90.00000000
_symmetry_Int_Tables_number   1
_chemical_formula_structural   ZnAs2
_chemical_formula_sum   'Zn8 As16'
_cell_volume   558.34421824
_cell_formula_units_Z   8
loop_
 _symmetry_equiv_pos_site_id
 _symmetry_equiv_pos_as_xyz
  1  'x, y, z'
loop_
 _atom_site_type_symbol
 _atom_site_label
 _atom_site_symmetry_multiplicity
 _atom_site_fract_x
 _atom_site_fract_y
 _atom_site_fract_z
 _atom_site_occupancy
  Zn  Zn0  1  0.74947005  0.39479191  0.08179493  1
  Zn  Zn1  1  0.24947005  0.10520809  0.91820507  1
  Zn  Zn2  1  0.25052995  0.60520809  0.91820507  1
  Zn  Zn3  1  0.75052995  0.89479191  0.08179493  1
  Zn  Zn4  1  0.10120276  0.22244030  0.38906059  1
  Zn  Zn5  1  0.60120276  0.27755970  0.61093941  1
  Zn  Zn6  1  0.89879724  0.77755970  0.61093941  1
  Zn  Zn7  1  0.39879724  0.72244030  0.38906059  1
  As  As0  1  0.42453292  0.21917896  0.38522487  1
  As  As1  1  0.92453292  0.28082104  0.61477513  1
  As  As2  1  0.57546708  0.78082104  0.61477513  1
  As  As3  1  0.07546708  0.71917896  0.38522487  1
  As  As4  1  0.01261120  0.43245736  0.23798194  1
  As  As5  1  0.51261120  0.06754264  0.76201806  1
  As  As6  1  0.98738880  0.56754264  0.76201806  1
  As  As7  1  0.48738880  0.93245736  0.23798194  1
  As  As8  1  0.49142399  0.43611950  0.24339776  1
  As  As9  1  0.99142399  0.06388050  0.75660224  1
  As  As10  1  0.50857601  0.56388050  0.75660224  1
  As  As11  1  0.00857601  0.93611950  0.24339776  1
  As  As12  1  0.25538677  0.39207944  0.06672323  1
  As  As13  1  0.75538677  0.10792056  0.93327677  1
  As  As14  1  0.74461323  0.60792056  0.93327677  1
  As  As15  1  0.24461323  0.89207944  0.06672323  1
loop_
_geom_bond_atom_site_label_1
_geom_bond_atom_site_label_2
_geom_bond_distance
_geom_bond_site_symmetry_2
As0 As8 2.451742 1_555
As0 Zn5 2.452546 1_555
As0 As7 2.455329 1_545
As0 Zn4 2.488130 1_555
As1 As9 2.451742 1_555
As1 Zn4 2.452546 1_655
As1 As6 2.455329 1_555
As1 Zn5 2.488130 1_555
As2 Zn7 2.452546 1_555
As2 As5 2.455329 1_565
As2 Zn6 2.488130 1_555
As3 Zn6 2.452546 1_455
As3 As4 2.455329 1_555
As3 Zn7 2.488130 1_555
As4 Zn0 2.468748 1_455
As4 Zn4 2.506776 1_555
As5 Zn1 2.468748 1_555
As5 Zn5 2.506776 1_555
As6 Zn2 2.468748 1_655
As6 Zn6 2.506776 1_555
As7 Zn3 2.468748 1_555
As7 Zn7 2.506776 1_555
As8 Zn0 2.465402 1_555
As8 Zn7 2.502926 1_555
As9 Zn1 2.465402 1_655
As9 Zn6 2.502926 1_545
As10 As14 2.418957 1_555
As10 As2 2.451742 1_555
As10 Zn2 2.465402 1_555
As10 Zn5 2.502926 1_555
As11 As15 2.418957 1_555
As11 As3 2.451742 1_555
As11 Zn3 2.465402 1_455
As11 Zn4 2.502926 1_565
As12 Zn1 2.412928 1_554
As12 Zn2 2.416026 1_554
As12 As8 2.418957 1_555
As12 As4 2.426649 1_555
As13 Zn0 2.412928 1_556
As13 Zn3 2.416026 1_546
As13 As9 2.418957 1_555
As13 As5 2.426649 1_555
As14 Zn3 2.412928 1_556
As14 Zn0 2.416026 1_556
As14 As6 2.426649 1_555
As15 Zn2 2.412928 1_554
As15 Zn1 2.416026 1_564
As15 As7 2.426649 1_555
