# generated using pymatgen
data_NaNi3P4H8NO16
_symmetry_space_group_name_H-M   'P 1'
_cell_length_a   10.41039014
_cell_length_b   10.41039014
_cell_length_c   9.19743386
_cell_angle_alpha   72.90487073
_cell_angle_beta   72.90487073
_cell_angle_gamma   45.56249250
_symmetry_Int_Tables_number   1
_chemical_formula_structural   NaNi3P4H8NO16
_chemical_formula_sum   'Na2 Ni6 P8 H16 N2 O32'
_cell_volume   674.57418020
_cell_formula_units_Z   2
loop_
 _symmetry_equiv_pos_site_id
 _symmetry_equiv_pos_as_xyz
  1  'x, y, z'
loop_
 _atom_site_type_symbol
 _atom_site_label
 _atom_site_symmetry_multiplicity
 _atom_site_fract_x
 _atom_site_fract_y
 _atom_site_fract_z
 _atom_site_occupancy
  Na  Na0  1  0.53913100  0.46086900  0.25000000  1
  Na  Na1  1  0.46086900  0.53913100  0.75000000  1
  Ni  Ni0  1  0.20351600  0.42645700  0.43203900  1
  Ni  Ni1  1  0.42645700  0.20351600  0.93203900  1
  Ni  Ni2  1  0.00000000  0.50000000  0.00000000  1
  Ni  Ni3  1  0.57354300  0.79648400  0.06796100  1
  Ni  Ni4  1  0.50000000  0.00000000  0.50000000  1
  Ni  Ni5  1  0.79648400  0.57354300  0.56796100  1
  P  P0  1  0.21432600  0.58500800  0.08630700  1
  P  P1  1  0.84777200  0.75290700  0.24202600  1
  P  P2  1  0.58500800  0.21432600  0.58630700  1
  P  P3  1  0.75290700  0.84777200  0.74202600  1
  P  P4  1  0.24709300  0.15222800  0.25797400  1
  P  P5  1  0.41499200  0.78567400  0.41369300  1
  P  P6  1  0.15222800  0.24709300  0.75797400  1
  P  P7  1  0.78567400  0.41499200  0.91369300  1
  H  H0  1  0.88632400  0.10646100  0.34338500  1
  H  H1  1  0.99396500  0.91324300  0.27542800  1
  H  H2  1  0.10646100  0.88632400  0.84338500  1
  H  H3  1  0.64690400  0.22542100  0.00679500  1
  H  H4  1  0.91324300  0.99396500  0.77542800  1
  H  H5  1  0.63916900  0.08247100  0.12226900  1
  H  H6  1  0.22542100  0.64690400  0.50679500  1
  H  H7  1  0.08247100  0.63916900  0.62226900  1
  H  H8  1  0.91752900  0.36083100  0.37773100  1
  H  H9  1  0.77457900  0.35309600  0.49320500  1
  H  H10  1  0.36083100  0.91752900  0.87773100  1
  H  H11  1  0.08675700  0.00603500  0.22457200  1
  H  H12  1  0.35309600  0.77457900  0.99320500  1
  H  H13  1  0.89353900  0.11367600  0.15661500  1
  H  H14  1  0.00603500  0.08675700  0.72457200  1
  H  H15  1  0.11367600  0.89353900  0.65661500  1
  N  N0  1  0.96750800  0.03249200  0.25000000  1
  N  N1  1  0.03249200  0.96750800  0.75000000  1
  O  O0  1  0.67398900  0.27748600  0.46657800  1
  O  O1  1  0.27748600  0.67398900  0.96657800  1
  O  O2  1  0.30964300  0.49003700  0.22963500  1
  O  O3  1  0.00162600  0.75934600  0.13965700  1
  O  O4  1  0.63187600  0.13993200  0.01311300  1
  O  O5  1  0.69541800  0.93947300  0.29474900  1
  O  O6  1  0.49003700  0.30964300  0.72963500  1
  O  O7  1  0.21570000  0.46442900  0.01969800  1
  O  O8  1  0.94253300  0.59723900  0.37169100  1
  O  O9  1  0.75934600  0.00162600  0.63965700  1
  O  O10  1  0.13993200  0.63187600  0.51311300  1
  O  O11  1  0.29021800  0.19977500  0.36824600  1
  O  O12  1  0.93947300  0.69541800  0.79474900  1
  O  O13  1  0.80022500  0.70978200  0.13175400  1
  O  O14  1  0.46442900  0.21570000  0.51969800  1
  O  O15  1  0.59723900  0.94253300  0.87169100  1
  O  O16  1  0.40276100  0.05746700  0.12830900  1
  O  O17  1  0.53557100  0.78430000  0.48030200  1
  O  O18  1  0.19977500  0.29021800  0.86824600  1
  O  O19  1  0.06052700  0.30458200  0.20525100  1
  O  O20  1  0.70978200  0.80022500  0.63175400  1
  O  O21  1  0.86006800  0.36812400  0.48688700  1
  O  O22  1  0.24065400  0.99837400  0.36034300  1
  O  O23  1  0.05746700  0.40276100  0.62830900  1
  O  O24  1  0.78430000  0.53557100  0.98030200  1
  O  O25  1  0.50996300  0.69035700  0.27036500  1
  O  O26  1  0.30458200  0.06052700  0.70525100  1
  O  O27  1  0.36812400  0.86006800  0.98688700  1
  O  O28  1  0.99837400  0.24065400  0.86034300  1
  O  O29  1  0.69035700  0.50996300  0.77036500  1
  O  O30  1  0.72251400  0.32601100  0.03342200  1
  O  O31  1  0.32601100  0.72251400  0.53342200  1
loop_
_geom_bond_atom_site_label_1
_geom_bond_atom_site_label_2
_geom_bond_distance
_geom_bond_site_symmetry_2
Na0 O2 2.246939 1_555
Na0 O25 2.246939 1_555
Na0 O30 2.288870 1_555
Na0 O0 2.288870 1_555
Na1 O6 2.246939 1_555
Na1 O29 2.246939 1_555
Na1 O1 2.288870 1_555
Na1 O31 2.288870 1_555
Ni0 O2 2.052960 1_555
Ni0 O10 2.057309 1_555
Ni0 O11 2.061054 1_555
Ni0 O23 2.069054 1_555
Ni0 O8 2.096017 1_455
Ni0 O14 2.178143 1_555
Ni1 O6 2.052960 1_555
Ni1 O4 2.057309 1_556
Ni1 O18 2.061054 1_555
Ni1 O16 2.069054 1_556
Ni1 O15 2.096017 1_545
Ni1 O7 2.178143 1_556
Ni2 O7 2.060992 1_555
Ni2 O24 2.060992 1_454
Ni2 O13 2.068216 1_455
Ni2 O18 2.068216 1_554
Ni2 O19 2.178518 1_555
Ni2 O12 2.178518 1_454
Ni3 O25 2.052960 1_555
Ni3 O27 2.057309 1_554
Ni3 O13 2.061054 1_555
Ni3 O15 2.069054 1_554
Ni3 O16 2.096017 1_565
Ni3 O24 2.178143 1_554
Ni4 O17 2.060992 1_545
Ni4 O14 2.060992 1_555
Ni4 O11 2.068216 1_555
Ni4 O20 2.068216 1_545
Ni4 O5 2.178518 1_545
Ni4 O26 2.178518 1_555
Ni5 O29 2.052960 1_555
Ni5 O21 2.057309 1_555
Ni5 O20 2.061054 1_555
Ni5 O8 2.069054 1_555
Ni5 O23 2.096017 1_655
Ni5 O17 2.178143 1_555
H0 N0 1.046777 1_555
H1 N0 1.029610 1_565
H2 N1 1.046777 1_555
H3 O4 0.989505 1_555
H4 N1 1.029610 1_655
H5 O4 0.999831 1_555
H5 O5 1.735709 1_545
H6 O10 0.989505 1_555
H7 O10 0.999831 1_555
H7 O12 1.735709 1_455
H8 O21 0.999831 1_555
H8 O19 1.735709 1_655
H9 O21 0.989505 1_555
H10 O27 0.999831 1_555
H10 O26 1.735709 1_565
H11 N0 1.029610 1_455
H12 O27 0.989505 1_555
H13 N0 1.046777 1_555
H14 N1 1.029610 1_545
H15 N1 1.046777 1_555
O0 P2 1.526603 1_555
O1 P0 1.526603 1_556
O2 P0 1.526095 1_555
O3 P1 1.637983 1_455
O3 P0 1.641726 1_555
O5 P1 1.520205 1_555
O6 P2 1.526095 1_555
O7 P0 1.540475 1_555
O8 P1 1.529222 1_555
O9 P3 1.637983 1_545
O9 P2 1.641726 1_555
O11 P4 1.532716 1_555
O12 P3 1.520205 1_555
O13 P1 1.532716 1_555
O14 P2 1.540475 1_555
O15 P3 1.529222 1_555
O16 P4 1.529222 1_555
O17 P5 1.540475 1_555
O18 P6 1.532716 1_555
O19 P4 1.520205 1_555
O20 P3 1.532716 1_555
O22 P4 1.637983 1_565
O22 P5 1.641726 1_555
O23 P6 1.529222 1_555
O24 P7 1.540475 1_555
O25 P5 1.526095 1_555
O26 P6 1.520205 1_555
O28 P6 1.637983 1_655
O28 P7 1.641726 1_555
O29 P7 1.526095 1_555
O30 P7 1.526603 1_554
O31 P5 1.526603 1_555
