# generated using pymatgen
data_Ti17(NO4)6
_symmetry_space_group_name_H-M   'P 1'
_cell_length_a   10.39368900
_cell_length_b   10.71132305
_cell_length_c   11.29538097
_cell_angle_alpha   110.09137209
_cell_angle_beta   109.58999444
_cell_angle_gamma   84.75899416
_symmetry_Int_Tables_number   1
_chemical_formula_structural   Ti17(NO4)6
_chemical_formula_sum   'Ti34 N12 O48'
_cell_volume   1112.22746781
_cell_formula_units_Z   2
loop_
 _symmetry_equiv_pos_site_id
 _symmetry_equiv_pos_as_xyz
  1  'x, y, z'
loop_
 _atom_site_type_symbol
 _atom_site_label
 _atom_site_symmetry_multiplicity
 _atom_site_fract_x
 _atom_site_fract_y
 _atom_site_fract_z
 _atom_site_occupancy
  Ti  Ti0  1  0.17456500  0.35497900  0.92929000  1
  Ti  Ti1  1  0.33245300  0.48176400  0.24897200  1
  Ti  Ti2  1  0.10892700  0.42839900  0.42582600  1
  Ti  Ti3  1  0.16972900  0.51680500  0.75049400  1
  Ti  Ti4  1  0.67893900  0.35115200  0.92215900  1
  Ti  Ti5  1  0.32106100  0.64884800  0.07784100  1
  Ti  Ti6  1  0.83027100  0.48319500  0.24950600  1
  Ti  Ti7  1  0.61016000  0.42905900  0.42908600  1
  Ti  Ti8  1  0.01191700  0.69376300  0.94432000  1
  Ti  Ti9  1  0.66754700  0.51823600  0.75102800  1
  Ti  Ti10  1  0.89107300  0.57160100  0.57417400  1
  Ti  Ti11  1  0.82543500  0.64502100  0.07071000  1
  Ti  Ti12  1  0.94609800  0.76488500  0.42982000  1
  Ti  Ti13  1  0.21643100  0.89866900  0.55725500  1
  Ti  Ti14  1  0.66359300  0.81654800  0.25139700  1
  Ti  Ti15  1  0.38984000  0.57094100  0.57091400  1
  Ti  Ti16  1  0.50721100  0.68926600  0.92938500  1
  Ti  Ti17  1  0.15875000  0.97317500  0.07697000  1
  Ti  Ti18  1  0.00262200  0.84840600  0.75061300  1
  Ti  Ti19  1  0.43764200  0.76581400  0.42308100  1
  Ti  Ti20  1  0.27463900  0.08961800  0.42227000  1
  Ti  Ti21  1  0.72536100  0.91038200  0.57773000  1
  Ti  Ti22  1  0.99737800  0.15159400  0.24938700  1
  Ti  Ti23  1  0.65991300  0.97867600  0.07430500  1
  Ti  Ti24  1  0.50248700  0.85442800  0.74953200  1
  Ti  Ti25  1  0.84125000  0.02682500  0.92303000  1
  Ti  Ti26  1  0.78356900  0.10133100  0.44274500  1
  Ti  Ti27  1  0.34008700  0.02132400  0.92569500  1
  Ti  Ti28  1  0.49751300  0.14557200  0.25046800  1
  Ti  Ti29  1  0.05390200  0.23511500  0.57018000  1
  Ti  Ti30  1  0.98808300  0.30623700  0.05568000  1
  Ti  Ti31  1  0.56235800  0.23418600  0.57691900  1
  Ti  Ti32  1  0.49278900  0.31073400  0.07061500  1
  Ti  Ti33  1  0.33640700  0.18345200  0.74860300  1
  N  N0  1  0.97507300  0.34114900  0.24991600  1
  N  N1  1  0.32051200  0.66503800  0.25003000  1
  N  N2  1  0.47633100  0.33928100  0.25037700  1
  N  N3  1  0.02492700  0.65885100  0.75008400  1
  N  N4  1  0.80573400  0.67194600  0.25001200  1
  N  N5  1  0.52366900  0.66071900  0.74962300  1
  N  N6  1  0.14282700  0.02132700  0.24949000  1
  N  N7  1  0.85717300  0.97867300  0.75051000  1
  N  N8  1  0.63989400  0.00625000  0.25078400  1
  N  N9  1  0.19426600  0.32805400  0.74998800  1
  N  N10  1  0.36010600  0.99375000  0.74921600  1
  N  N11  1  0.67948800  0.33496200  0.74997000  1
  O  O0  1  0.16488900  0.39062900  0.12263800  1
  O  O1  1  0.25090700  0.47679300  0.38256700  1
  O  O2  1  0.24991700  0.52373700  0.61875900  1
  O  O3  1  0.13666800  0.54244700  0.93684600  1
  O  O4  1  0.01243300  0.41885600  0.56516300  1
  O  O5  1  0.66181300  0.39131900  0.12124200  1
  O  O6  1  0.86333200  0.45755300  0.06315400  1
  O  O7  1  0.98756700  0.58114400  0.43483700  1
  O  O8  1  0.75008300  0.47626300  0.38124100  1
  O  O9  1  0.36628500  0.45776600  0.06521300  1
  O  O10  1  0.33521900  0.92395000  0.44847100  1
  O  O11  1  0.63371500  0.54223400  0.93478700  1
  O  O12  1  0.20282500  0.79078600  0.05107300  1
  O  O13  1  0.48784600  0.58142500  0.43645300  1
  O  O14  1  0.08318300  0.81118200  0.39050300  1
  O  O15  1  0.51215400  0.41857500  0.56354700  1
  O  O16  1  0.98927000  0.71766400  0.10964100  1
  O  O17  1  0.83511100  0.60937100  0.87736200  1
  O  O18  1  0.74909300  0.52320700  0.61743300  1
  O  O19  1  0.49560900  0.72248300  0.11729800  1
  O  O20  1  0.33050200  0.05455100  0.11828500  1
  O  O21  1  0.84555000  0.74958500  0.56578800  1
  O  O22  1  0.33818700  0.60868100  0.87875800  1
  O  O23  1  0.58323200  0.80748200  0.37934700  1
  O  O24  1  0.97178600  0.87505600  0.93842300  1
  O  O25  1  0.69765300  0.79292400  0.06501100  1
  O  O26  1  0.82157300  0.91626700  0.43736800  1
  O  O27  1  0.17025600  0.94637900  0.88037900  1
  O  O28  1  0.08347600  0.85722600  0.62213800  1
  O  O29  1  0.66949800  0.94544900  0.88171500  1
  O  O30  1  0.15445000  0.25041500  0.43421200  1
  O  O31  1  0.82974400  0.05362100  0.11962100  1
  O  O32  1  0.02821400  0.12494400  0.06157700  1
  O  O33  1  0.17842700  0.08373300  0.56263200  1
  O  O34  1  0.58396800  0.85598300  0.61973000  1
  O  O35  1  0.34452100  0.75032100  0.56288500  1
  O  O36  1  0.30234700  0.20707600  0.93498900  1
  O  O37  1  0.46786000  0.87412800  0.93480500  1
  O  O38  1  0.91652400  0.14277400  0.37786200  1
  O  O39  1  0.66478100  0.07605000  0.55152900  1
  O  O40  1  0.91681700  0.18881800  0.60949700  1
  O  O41  1  0.01073000  0.28233600  0.89035900  1
  O  O42  1  0.79717500  0.20921400  0.94892700  1
  O  O43  1  0.65547900  0.24967900  0.43711500  1
  O  O44  1  0.53214000  0.12587200  0.06519500  1
  O  O45  1  0.41603200  0.14401700  0.38027000  1
  O  O46  1  0.41676800  0.19251800  0.62065300  1
  O  O47  1  0.50439100  0.27751700  0.88270200  1
loop_
_geom_bond_atom_site_label_1
_geom_bond_atom_site_label_2
_geom_bond_distance
_geom_bond_site_symmetry_2
N0 Ti2 1.965971 1_655
N0 Ti22 2.020605 1_555
N0 Ti6 2.040077 1_555
N0 Ti30 2.144215 1_555
N1 Ti5 1.894316 1_555
N1 Ti19 1.913839 1_555
N1 Ti1 1.951845 1_555
N2 Ti7 1.990514 1_555
N2 Ti32 2.010573 1_555
N2 Ti1 2.037043 1_555
N2 Ti28 2.066750 1_555
N3 Ti10 1.965971 1_455
N3 Ti18 2.020605 1_555
N3 Ti3 2.040077 1_555
N3 Ti8 2.144215 1_555
N4 Ti6 2.012829 1_555
N4 Ti11 2.023089 1_555
N4 Ti12 2.033145 1_555
N4 Ti14 2.040269 1_555
N5 Ti15 1.990514 1_555
N5 Ti16 2.010573 1_555
N5 Ti9 2.037043 1_555
N5 Ti24 2.066750 1_555
N6 Ti17 1.897606 1_545
N6 Ti20 1.905297 1_555
N6 Ti22 1.961355 1_455
N7 Ti25 1.897606 1_565
N7 Ti21 1.905297 1_555
N7 Ti18 1.961355 1_655
N8 Ti23 1.991625 1_545
N8 Ti28 2.003421 1_555
N8 Ti14 2.026491 1_545
N8 Ti26 2.134958 1_555
N9 Ti3 2.012829 1_555
N9 Ti0 2.023089 1_555
N9 Ti29 2.033145 1_555
N9 Ti33 2.040269 1_555
N10 Ti27 1.991625 1_565
N10 Ti24 2.003421 1_555
N10 Ti33 2.026491 1_565
N10 Ti13 2.134958 1_555
N11 Ti4 1.894316 1_555
N11 Ti31 1.913839 1_555
N11 Ti9 1.951845 1_555
O0 Ti30 1.915183 1_455
O0 Ti1 1.925988 1_555
O0 Ti0 2.119630 1_554
O1 Ti2 1.866127 1_555
O1 Ti1 1.979747 1_555
O1 Ti15 2.088113 1_555
O2 Ti15 1.873994 1_555
O2 Ti3 1.957837 1_555
O2 Ti2 2.131280 1_555
O3 Ti8 1.977573 1_555
O3 Ti0 1.988698 1_555
O3 Ti5 2.147926 1_556
O3 Ti3 2.166743 1_555
O4 Ti10 1.967973 1_455
O4 Ti29 1.991912 1_555
O4 Ti3 2.159924 1_555
O4 Ti2 2.163586 1_555
O5 Ti32 1.850028 1_555
O5 Ti6 1.940959 1_555
O5 Ti4 2.205277 1_554
O6 Ti30 1.977573 1_555
O6 Ti11 1.988698 1_555
O6 Ti4 2.147926 1_554
O6 Ti6 2.166743 1_555
O7 Ti2 1.967973 1_655
O7 Ti12 1.991912 1_555
O7 Ti6 2.159924 1_555
O7 Ti10 2.163586 1_555
O8 Ti7 1.873994 1_555
O8 Ti6 1.957837 1_555
O8 Ti10 2.131280 1_555
O9 Ti32 1.961322 1_555
O9 Ti5 2.024614 1_555
O9 Ti1 2.145767 1_555
O9 Ti0 2.174404 1_554
O10 Ti19 1.904256 1_555
O10 Ti20 1.914342 1_565
O10 Ti13 2.101076 1_555
O11 Ti16 1.961322 1_555
O11 Ti4 2.024614 1_555
O11 Ti9 2.145767 1_555
O11 Ti11 2.174404 1_556
O12 Ti5 1.907460 1_555
O12 Ti17 1.909403 1_555
O12 Ti8 2.093458 1_554
O13 Ti7 1.971106 1_555
O13 Ti19 2.039544 1_555
O13 Ti15 2.128964 1_555
O13 Ti1 2.168172 1_555
O14 Ti12 1.782683 1_455
O14 Ti13 1.902391 1_555
O15 Ti15 1.971106 1_555
O15 Ti31 2.039544 1_555
O15 Ti7 2.128964 1_555
O15 Ti9 2.168172 1_555
O16 Ti11 1.789795 1_555
O16 Ti8 1.887668 1_654
O17 Ti8 1.915183 1_655
O17 Ti9 1.925988 1_555
O17 Ti11 2.119630 1_556
O18 Ti10 1.866127 1_555
O18 Ti9 1.979747 1_555
O18 Ti7 2.088113 1_555
O19 Ti5 1.894663 1_555
O19 Ti14 1.964017 1_555
O19 Ti16 2.071544 1_554
O20 Ti17 1.900112 1_545
O20 Ti28 1.940130 1_555
O20 Ti27 2.115605 1_554
O21 Ti10 1.948485 1_555
O21 Ti21 2.026205 1_555
O21 Ti18 2.157787 1_655
O21 Ti12 2.181336 1_555
O22 Ti16 1.850028 1_555
O22 Ti3 1.940959 1_555
O22 Ti5 2.205277 1_556
O23 Ti19 1.873281 1_555
O23 Ti14 1.927826 1_555
O23 Ti21 2.190703 1_555
O24 Ti8 1.967639 1_655
O24 Ti25 2.036368 1_565
O24 Ti17 2.129243 1_656
O24 Ti18 2.169712 1_655
O25 Ti23 1.965991 1_555
O25 Ti11 1.976414 1_555
O25 Ti16 2.167294 1_554
O25 Ti14 2.176935 1_555
O26 Ti26 1.969638 1_565
O26 Ti12 1.976687 1_555
O26 Ti21 2.158918 1_555
O26 Ti14 2.171536 1_555
O27 Ti27 1.841994 1_565
O27 Ti18 1.962183 1_555
O27 Ti17 2.182095 1_556
O28 Ti13 1.912723 1_555
O28 Ti18 1.935855 1_555
O28 Ti12 2.106630 1_455
O29 Ti25 1.900112 1_565
O29 Ti24 1.940130 1_555
O29 Ti23 2.115605 1_556
O30 Ti2 1.948485 1_555
O30 Ti20 2.026205 1_555
O30 Ti22 2.157787 1_455
O30 Ti29 2.181336 1_555
O31 Ti23 1.841994 1_545
O31 Ti22 1.962183 1_555
O31 Ti25 2.182095 1_554
O32 Ti30 1.967639 1_455
O32 Ti17 2.036368 1_545
O32 Ti25 2.129243 1_454
O32 Ti22 2.169712 1_455
O33 Ti13 1.969638 1_545
O33 Ti29 1.976687 1_555
O33 Ti20 2.158918 1_555
O33 Ti33 2.171536 1_555
O34 Ti21 1.881001 1_555
O34 Ti24 1.928502 1_555
O34 Ti19 2.169981 1_555
O35 Ti15 1.961528 1_555
O35 Ti13 1.981813 1_555
O35 Ti19 2.166169 1_555
O35 Ti24 2.186785 1_555
O36 Ti27 1.965991 1_555
O36 Ti0 1.976414 1_555
O36 Ti32 2.167294 1_556
O36 Ti33 2.176935 1_555
O37 Ti16 1.969122 1_555
O37 Ti27 1.974190 1_565
O37 Ti24 2.177468 1_555
O37 Ti23 2.192800 1_556
O38 Ti26 1.912723 1_555
O38 Ti22 1.935855 1_555
O38 Ti29 2.106630 1_655
O39 Ti31 1.904256 1_555
O39 Ti21 1.914342 1_545
O39 Ti26 2.101076 1_555
O40 Ti29 1.782683 1_655
O40 Ti26 1.902391 1_555
O41 Ti0 1.789795 1_555
O41 Ti30 1.887668 1_456
O42 Ti4 1.907460 1_555
O42 Ti25 1.909403 1_555
O42 Ti30 2.093458 1_556
O43 Ti7 1.961528 1_555
O43 Ti26 1.981813 1_555
O43 Ti31 2.166169 1_555
O43 Ti28 2.186785 1_555
O44 Ti32 1.969122 1_555
O44 Ti23 1.974190 1_545
O44 Ti28 2.177468 1_555
O44 Ti27 2.192800 1_554
O45 Ti20 1.881001 1_555
O45 Ti28 1.928502 1_555
O45 Ti31 2.169981 1_555
O46 Ti31 1.873281 1_555
O46 Ti33 1.927826 1_555
O46 Ti20 2.190703 1_555
O47 Ti4 1.894663 1_555
O47 Ti33 1.964017 1_555
O47 Ti32 2.071544 1_556
