# generated using pymatgen
data_MnH5SO7
_symmetry_space_group_name_H-M   'P 1'
_cell_length_a   7.27400800
_cell_length_b   7.20641600
_cell_length_c   12.18496392
_cell_angle_alpha   61.31821422
_cell_angle_beta   90.00000000
_cell_angle_gamma   90.00000000
_symmetry_Int_Tables_number   1
_chemical_formula_structural   MnH5SO7
_chemical_formula_sum   'Mn4 H20 S4 O28'
_cell_volume   560.35709717
_cell_formula_units_Z   4
loop_
 _symmetry_equiv_pos_site_id
 _symmetry_equiv_pos_as_xyz
  1  'x, y, z'
loop_
 _atom_site_type_symbol
 _atom_site_label
 _atom_site_symmetry_multiplicity
 _atom_site_fract_x
 _atom_site_fract_y
 _atom_site_fract_z
 _atom_site_occupancy
  Mn  Mn0  1  0.50000000  0.00000000  0.50000000  1
  Mn  Mn1  1  0.00000000  0.00000000  0.00000000  1
  Mn  Mn2  1  0.00000000  0.00000000  0.50000000  1
  Mn  Mn3  1  0.50000000  0.00000000  0.00000000  1
  H  H0  1  0.25001300  0.25538600  0.47324200  1
  H  H1  1  0.24998700  0.25538600  0.97324200  1
  H  H2  1  0.74998700  0.74461400  0.52675800  1
  H  H3  1  0.75001300  0.74461400  0.02675800  1
  H  H4  1  0.35795500  0.75098500  0.75368800  1
  H  H5  1  0.14204500  0.75098500  0.25368800  1
  H  H6  1  0.64204500  0.24901500  0.24631200  1
  H  H7  1  0.85795500  0.24901500  0.74631200  1
  H  H8  1  0.57290600  0.73198400  0.76107700  1
  H  H9  1  0.92709400  0.73198400  0.26107700  1
  H  H10  1  0.42709400  0.26801600  0.23892300  1
  H  H11  1  0.07290600  0.26801600  0.73892300  1
  H  H12  1  0.95928600  0.72888800  0.76029700  1
  H  H13  1  0.54071400  0.72888800  0.26029700  1
  H  H14  1  0.04071400  0.27111200  0.23970300  1
  H  H15  1  0.45928600  0.27111200  0.73970300  1
  H  H16  1  0.00775600  0.95736800  0.73740400  1
  H  H17  1  0.49224400  0.95736800  0.23740400  1
  H  H18  1  0.99224400  0.04263200  0.26259600  1
  H  H19  1  0.50775600  0.04263200  0.76259600  1
  S  S0  1  0.25402800  0.61280700  0.52100600  1
  S  S1  1  0.24597200  0.61280700  0.02100600  1
  S  S2  1  0.74597200  0.38719300  0.47899400  1
  S  S3  1  0.75402800  0.38719300  0.97899400  1
  O  O0  1  0.41736600  0.76179100  0.48121500  1
  O  O1  1  0.08263400  0.76179100  0.98121500  1
  O  O2  1  0.58263400  0.23820900  0.51878500  1
  O  O3  1  0.91736600  0.23820900  0.01878500  1
  O  O4  1  0.08251400  0.74382000  0.50076100  1
  O  O5  1  0.41748600  0.74382000  0.00076100  1
  O  O6  1  0.91748600  0.25618000  0.49923900  1
  O  O7  1  0.58251400  0.25618000  0.99923900  1
  O  O8  1  0.24549500  0.52315200  0.43671700  1
  O  O9  1  0.25450500  0.52315200  0.93671700  1
  O  O10  1  0.75450500  0.47684800  0.56328300  1
  O  O11  1  0.74549500  0.47684800  0.06328300  1
  O  O12  1  0.26918500  0.45610100  0.65373000  1
  O  O13  1  0.23081500  0.45610100  0.15373000  1
  O  O14  1  0.73081500  0.54389900  0.34627000  1
  O  O15  1  0.76918500  0.54389900  0.84627000  1
  O  O16  1  0.25093900  0.11045100  0.48208200  1
  O  O17  1  0.24906100  0.11045100  0.98208200  1
  O  O18  1  0.74906100  0.88954900  0.51791800  1
  O  O19  1  0.75093900  0.88954900  0.01791800  1
  O  O20  1  0.47112300  0.83227000  0.71721400  1
  O  O21  1  0.02887700  0.83227000  0.21721400  1
  O  O22  1  0.52887700  0.16773000  0.28278600  1
  O  O23  1  0.97112300  0.16773000  0.78278600  1
  O  O24  1  0.03292200  0.85585700  0.70639600  1
  O  O25  1  0.46707800  0.85585700  0.20639600  1
  O  O26  1  0.96707800  0.14414300  0.29360400  1
  O  O27  1  0.53292200  0.14414300  0.79360400  1
loop_
_geom_bond_atom_site_label_1
_geom_bond_atom_site_label_2
_geom_bond_distance
_geom_bond_site_symmetry_2
Mn0 O0 1.933310 1_545
Mn0 O2 1.933310 1_555
Mn0 O18 1.948476 1_545
Mn0 O16 1.948476 1_555
Mn0 O20 2.332280 1_545
Mn0 O22 2.332280 1_555
Mn1 O3 1.933310 1_455
Mn1 O1 1.933310 1_544
Mn1 O19 1.948476 1_445
Mn1 O17 1.948476 1_554
Mn1 O21 2.332280 1_545
Mn1 O23 2.332280 1_454
Mn2 O4 1.937043 1_545
Mn2 O6 1.937043 1_455
Mn2 O16 1.961184 1_555
Mn2 O18 1.961184 1_445
Mn2 O26 2.225671 1_455
Mn2 O24 2.225671 1_545
Mn3 O5 1.937043 1_545
Mn3 O7 1.937043 1_554
Mn3 O19 1.961184 1_545
Mn3 O17 1.961184 1_554
Mn3 O27 2.225671 1_554
Mn3 O25 2.225671 1_545
H0 O16 0.997275 1_555
H1 O17 0.997275 1_555
H2 O18 0.997275 1_555
H3 O19 0.997275 1_555
H4 O20 0.984068 1_555
H5 O21 0.984068 1_555
H6 O22 0.984068 1_555
H7 O23 0.984068 1_555
H8 O20 0.992641 1_555
H9 O21 0.992641 1_655
H10 O22 0.992641 1_555
H11 O23 0.992641 1_455
H12 O24 0.989255 1_655
H13 O25 0.989255 1_555
H14 O26 0.989255 1_455
H15 O27 0.989255 1_555
H16 O24 0.988288 1_555
H17 O25 0.988288 1_555
H18 O26 0.988288 1_555
H19 O27 0.988288 1_555
O0 S0 1.516490 1_555
O1 S1 1.516490 1_556
O2 S2 1.516490 1_555
O3 S3 1.516490 1_554
O4 S0 1.511679 1_555
O5 S1 1.511679 1_555
O6 S2 1.511679 1_555
O7 S3 1.511679 1_555
O8 S0 1.453648 1_555
O9 S1 1.453648 1_556
O10 S2 1.453648 1_555
O11 S3 1.453648 1_554
O12 S0 1.466231 1_555
O13 S1 1.466231 1_555
O14 S2 1.466231 1_555
O15 S3 1.466231 1_555
