# generated using pymatgen
data_Li3Mn2(CO3)4
_symmetry_space_group_name_H-M   'P 1'
_cell_length_a   9.97812300
_cell_length_b   7.16825400
_cell_length_c   8.63687793
_cell_angle_alpha   68.64616503
_cell_angle_beta   90.00000000
_cell_angle_gamma   90.00000000
_symmetry_Int_Tables_number   1
_chemical_formula_structural   Li3Mn2(CO3)4
_chemical_formula_sum   'Li6 Mn4 C8 O24'
_cell_volume   575.34945931
_cell_formula_units_Z   2
loop_
 _symmetry_equiv_pos_site_id
 _symmetry_equiv_pos_as_xyz
  1  'x, y, z'
loop_
 _atom_site_type_symbol
 _atom_site_label
 _atom_site_symmetry_multiplicity
 _atom_site_fract_x
 _atom_site_fract_y
 _atom_site_fract_z
 _atom_site_occupancy
  Li  Li0  1  0.18219300  0.32080700  0.81364400  1
  Li  Li1  1  0.08194900  0.26579600  0.40295400  1
  Li  Li2  1  0.41406200  0.76144300  0.90399700  1
  Li  Li3  1  0.68219300  0.67919300  0.18635600  1
  Li  Li4  1  0.58194900  0.73420400  0.59704600  1
  Li  Li5  1  0.91406200  0.23855700  0.09600300  1
  Mn  Mn0  1  0.36623200  0.28736900  0.19161300  1
  Mn  Mn1  1  0.86623200  0.71263100  0.80838700  1
  Mn  Mn2  1  0.14888900  0.79527000  0.67186900  1
  Mn  Mn3  1  0.64888900  0.20473000  0.32813100  1
  C  C0  1  0.11029100  0.48583800  0.03133100  1
  C  C1  1  0.61029100  0.51416200  0.96866900  1
  C  C2  1  0.47640500  0.52325500  0.38998000  1
  C  C3  1  0.97640500  0.47674500  0.61002000  1
  C  C4  1  0.01772400  0.02247600  0.88395300  1
  C  C5  1  0.51772400  0.97752400  0.11604700  1
  C  C6  1  0.39282000  0.99142200  0.53284500  1
  C  C7  1  0.89282000  0.00857800  0.46715500  1
  O  O0  1  0.14953500  0.35805200  0.17256500  1
  O  O1  1  0.48255200  0.47321800  0.99000300  1
  O  O2  1  0.69750900  0.44062700  0.08608000  1
  O  O3  1  0.19750900  0.55937300  0.91392000  1
  O  O4  1  0.98255200  0.52678200  0.00999700  1
  O  O5  1  0.64953500  0.64194800  0.82743500  1
  O  O6  1  0.95517500  0.36887400  0.52646400  1
  O  O7  1  0.37657000  0.47632800  0.31204000  1
  O  O8  1  0.59897900  0.46147200  0.37679000  1
  O  O9  1  0.09897900  0.53852800  0.62321000  1
  O  O10  1  0.87657000  0.52367200  0.68796000  1
  O  O11  1  0.53162400  0.84740600  0.04689800  1
  O  O12  1  0.45517500  0.63112600  0.47353600  1
  O  O13  1  0.11630600  0.99589200  0.79690400  1
  O  O14  1  0.90415800  0.92452600  0.90245100  1
  O  O15  1  0.40415800  0.07547400  0.09754900  1
  O  O16  1  0.61630600  0.00410800  0.20309600  1
  O  O17  1  0.03162400  0.15259400  0.95310200  1
  O  O18  1  0.35094700  0.85995200  0.67133000  1
  O  O19  1  0.01910500  0.97454600  0.48500800  1
  O  O20  1  0.80516500  0.92000800  0.58206800  1
  O  O21  1  0.30516500  0.07999200  0.41793200  1
  O  O22  1  0.51910500  0.02545400  0.51499200  1
  O  O23  1  0.85094700  0.14004800  0.32867000  1
loop_
_geom_bond_atom_site_label_1
_geom_bond_atom_site_label_2
_geom_bond_distance
_geom_bond_site_symmetry_2
Li0 O9 1.990224 1_555
Li0 O17 2.025889 1_555
Li0 O3 2.185515 1_555
Li0 O13 2.474456 1_545
Li1 O6 1.964191 1_455
Li1 O0 1.973140 1_555
Li1 O19 2.043690 1_545
Li2 O11 1.957780 1_556
Li2 O18 1.974844 1_555
Li2 O1 2.042009 1_555
Li2 O3 2.585360 1_555
Li3 O8 1.990224 1_555
Li3 O11 2.025889 1_555
Li3 O2 2.185515 1_555
Li3 O16 2.474456 1_565
Li4 O12 1.964191 1_555
Li4 O5 1.973140 1_555
Li4 O22 2.043690 1_565
Li5 O17 1.957780 1_654
Li5 O23 1.974844 1_555
Li5 O4 2.042009 1_555
Li5 O2 2.585360 1_555
Mn0 O7 1.988254 1_555
Mn0 O15 2.002250 1_555
Mn0 O21 2.070214 1_555
Mn0 O1 2.112960 1_554
Mn0 O0 2.213214 1_555
Mn1 O10 1.988254 1_555
Mn1 O14 2.002250 1_555
Mn1 O20 2.070214 1_555
Mn1 O4 2.112960 1_556
Mn1 O5 2.213214 1_555
Mn2 O18 2.068412 1_555
Mn2 O9 2.091635 1_555
Mn2 O19 2.103034 1_555
Mn2 O13 2.114490 1_555
Mn2 O3 2.211507 1_555
Mn3 O23 2.068412 1_555
Mn3 O8 2.091635 1_555
Mn3 O22 2.103034 1_555
Mn3 O16 2.114490 1_555
Mn3 O2 2.211507 1_555
C0 O0 1.290984 1_555
C0 O3 1.293939 1_554
C0 O4 1.305872 1_455
C1 O5 1.290984 1_555
C1 O2 1.293939 1_556
C1 O1 1.305872 1_555
C2 O12 1.252982 1_555
C2 O7 1.312840 1_555
C2 O8 1.319747 1_555
C3 O6 1.252982 1_555
C3 O10 1.312840 1_555
C3 O9 1.319747 1_655
C4 O17 1.285130 1_555
C4 O13 1.293636 1_545
C4 O14 1.311833 1_445
C5 O11 1.285130 1_555
C5 O16 1.293636 1_565
C5 O15 1.311833 1_565
C6 O22 1.282074 1_565
C6 O18 1.293222 1_555
C6 O21 1.301620 1_565
C7 O19 1.282074 1_645
C7 O23 1.293222 1_555
C7 O20 1.301620 1_545
