# generated using pymatgen
data_Na2Li4Co2C4SO16
_symmetry_space_group_name_H-M   'P 1'
_cell_length_a   9.82551907
_cell_length_b   9.60579715
_cell_length_c   9.59295685
_cell_angle_alpha   61.56475833
_cell_angle_beta   59.28194807
_cell_angle_gamma   59.15329360
_symmetry_Int_Tables_number   1
_chemical_formula_structural   Na2Li4Co2C4SO16
_chemical_formula_sum   'Na4 Li8 Co4 C8 S2 O32'
_cell_volume   639.48646374
_cell_formula_units_Z   2
loop_
 _symmetry_equiv_pos_site_id
 _symmetry_equiv_pos_as_xyz
  1  'x, y, z'
loop_
 _atom_site_type_symbol
 _atom_site_label
 _atom_site_symmetry_multiplicity
 _atom_site_fract_x
 _atom_site_fract_y
 _atom_site_fract_z
 _atom_site_occupancy
  Na  Na0  1  0.47207200  0.47207200  0.02792800  1
  Na  Na1  1  0.22207200  0.22207200  0.77792800  1
  Na  Na2  1  0.02792800  0.02792800  0.47207200  1
  Na  Na3  1  0.77792800  0.77792800  0.22207200  1
  Li  Li0  1  0.94310200  0.29173600  0.15263900  1
  Li  Li1  1  0.63747700  0.09736100  0.95826400  1
  Li  Li2  1  0.15263900  0.61252300  0.94310200  1
  Li  Li3  1  0.95826400  0.30689800  0.63747700  1
  Li  Li4  1  0.29173600  0.94310200  0.61252300  1
  Li  Li5  1  0.09736100  0.63747700  0.30689800  1
  Li  Li6  1  0.61252300  0.15263900  0.29173600  1
  Li  Li7  1  0.30689800  0.95826400  0.09736100  1
  Co  Co0  1  0.62500000  0.62500000  0.12500000  1
  Co  Co1  1  0.12500000  0.62500000  0.62500000  1
  Co  Co2  1  0.62500000  0.62500000  0.62500000  1
  Co  Co3  1  0.62500000  0.12500000  0.62500000  1
  C  C0  1  0.85129700  0.46159600  0.83928800  1
  C  C1  1  0.40218100  0.41071200  0.78840400  1
  C  C2  1  0.46159600  0.85129700  0.84781900  1
  C  C3  1  0.83928800  0.84781900  0.85129700  1
  C  C4  1  0.41071200  0.40218100  0.39870300  1
  C  C5  1  0.78840400  0.39870300  0.40218100  1
  C  C6  1  0.84781900  0.83928800  0.46159600  1
  C  C7  1  0.39870300  0.78840400  0.41071200  1
  S  S0  1  0.00000000  0.00000000  0.00000000  1
  S  S1  1  0.25000000  0.25000000  0.25000000  1
  O  O0  1  0.06395900  0.81002300  0.06064200  1
  O  O1  1  0.71783600  0.83788700  0.99748500  1
  O  O2  1  0.81002300  0.06395900  0.06537600  1
  O  O3  1  0.06064200  0.06537600  0.06395900  1
  O  O4  1  0.44679200  0.99748500  0.83788700  1
  O  O5  1  0.06537600  0.06064200  0.81002300  1
  O  O6  1  0.83172700  0.46468200  0.98222300  1
  O  O7  1  0.52863200  0.26777700  0.78531800  1
  O  O8  1  0.72966200  0.46544000  0.81812400  1
  O  O9  1  0.26322600  0.43187600  0.78456000  1
  O  O10  1  0.46544000  0.72966200  0.98677400  1
  O  O11  1  0.99748500  0.44679200  0.71783600  1
  O  O12  1  0.43187600  0.26322600  0.52033800  1
  O  O13  1  0.41211300  0.53216400  0.80320800  1
  O  O14  1  0.98222300  0.72136800  0.83172700  1
  O  O15  1  0.78531800  0.41827300  0.52863200  1
  O  O16  1  0.46468200  0.83172700  0.72136800  1
  O  O17  1  0.26777700  0.52863200  0.41827300  1
  O  O18  1  0.83788700  0.71783600  0.44679200  1
  O  O19  1  0.81812400  0.98677400  0.72966200  1
  O  O20  1  0.25251500  0.80320800  0.53216400  1
  O  O21  1  0.78456000  0.52033800  0.26322600  1
  O  O22  1  0.98677400  0.81812400  0.46544000  1
  O  O23  1  0.52033800  0.78456000  0.43187600  1
  O  O24  1  0.72136800  0.98222300  0.46468200  1
  O  O25  1  0.41827300  0.78531800  0.26777700  1
  O  O26  1  0.18462400  0.18935800  0.43997700  1
  O  O27  1  0.80320800  0.25251500  0.41211300  1
  O  O28  1  0.18935800  0.18462400  0.18604100  1
  O  O29  1  0.43997700  0.18604100  0.18462400  1
  O  O30  1  0.53216400  0.41211300  0.25251500  1
  O  O31  1  0.18604100  0.43997700  0.18935800  1
loop_
_geom_bond_atom_site_label_1
_geom_bond_atom_site_label_2
_geom_bond_distance
_geom_bond_site_symmetry_2
Na0 O30 2.256355 1_555
Na0 O13 2.256355 1_554
Na0 O10 2.283244 1_554
Na0 O8 2.283244 1_554
Na0 O29 2.525690 1_555
Na0 O31 2.525690 1_555
Na1 O11 2.256355 1_455
Na1 O4 2.256355 1_545
Na1 O12 2.283244 1_555
Na1 O9 2.283244 1_555
Na1 O5 2.525690 1_555
Na1 O3 2.525690 1_556
Na2 O20 2.256355 1_545
Na2 O27 2.256355 1_455
Na2 O22 2.283244 1_445
Na2 O19 2.283244 1_445
Na2 O28 2.525690 1_555
Na2 O26 2.525690 1_555
Na3 O1 2.256355 1_554
Na3 O18 2.256355 1_555
Na3 O21 2.283244 1_555
Na3 O23 2.283244 1_555
Na3 O2 2.525690 1_565
Na3 O0 2.525690 1_655
Li0 O6 2.001730 1_554
Li0 O27 2.090362 1_555
Li0 O28 2.222806 1_655
Li0 O3 2.228909 1_655
Li0 O21 2.323004 1_555
Li1 O7 2.001730 1_555
Li1 O1 2.090362 1_545
Li1 O2 2.222806 1_556
Li1 O29 2.228909 1_556
Li1 O19 2.323004 1_545
Li2 O14 2.001730 1_455
Li2 O13 2.090362 1_555
Li2 O31 2.222806 1_556
Li2 O0 2.228909 1_556
Li2 O9 2.323004 1_555
Li3 O15 2.001730 1_555
Li3 O11 2.090362 1_555
Li3 O5 2.222806 1_655
Li3 O26 2.228909 1_655
Li3 O8 2.323004 1_555
Li4 O16 2.001730 1_555
Li4 O20 2.090362 1_555
Li4 O26 2.222806 1_565
Li4 O5 2.228909 1_565
Li4 O23 2.323004 1_555
Li5 O17 2.001730 1_555
Li5 O18 2.090362 1_455
Li5 O0 2.222806 1_555
Li5 O31 2.228909 1_555
Li5 O22 2.323004 1_455
Li6 O24 2.001730 1_545
Li6 O30 2.090362 1_555
Li6 O29 2.222806 1_555
Li6 O2 2.228909 1_555
Li6 O12 2.323004 1_555
Li7 O25 2.001730 1_555
Li7 O4 2.090362 1_554
Li7 O3 2.222806 1_565
Li7 O28 2.228909 1_565
Li7 O10 2.323004 1_554
Co0 O25 2.081351 1_555
Co0 O6 2.081351 1_554
Co0 O10 2.113007 1_554
Co0 O21 2.113007 1_555
Co0 O30 2.213795 1_555
Co0 O1 2.213795 1_554
Co1 O14 2.081351 1_455
Co1 O17 2.081351 1_555
Co1 O22 2.113007 1_455
Co1 O9 2.113007 1_555
Co1 O11 2.213795 1_455
Co1 O20 2.213795 1_555
Co2 O15 2.081351 1_555
Co2 O16 2.081351 1_555
Co2 O8 2.113007 1_555
Co2 O23 2.113007 1_555
Co2 O13 2.213795 1_555
Co2 O18 2.213795 1_555
Co3 O7 2.081351 1_555
Co3 O24 2.081351 1_545
Co3 O19 2.113007 1_545
Co3 O12 2.113007 1_555
Co3 O4 2.213795 1_545
Co3 O27 2.213795 1_555
C0 O8 1.290894 1_555
C0 O11 1.295932 1_555
C0 O6 1.296712 1_555
C1 O9 1.290894 1_555
C1 O13 1.295932 1_555
C1 O7 1.296712 1_555
C2 O10 1.290894 1_555
C2 O4 1.295932 1_555
C2 O16 1.296712 1_555
C3 O19 1.290894 1_555
C3 O1 1.295932 1_555
C3 O14 1.296712 1_555
C4 O12 1.290894 1_555
C4 O30 1.295932 1_555
C4 O17 1.296712 1_555
C5 O21 1.290894 1_555
C5 O27 1.295932 1_555
C5 O15 1.296712 1_555
C6 O22 1.290894 1_555
C6 O18 1.295932 1_555
C6 O24 1.296712 1_555
C7 O23 1.290894 1_555
C7 O20 1.295932 1_555
C7 O25 1.296712 1_555
O0 S0 1.499996 1_565
O2 S0 1.499996 1_655
O3 S0 1.499996 1_555
O5 S0 1.499996 1_556
O26 S1 1.499996 1_555
O28 S1 1.499996 1_555
O29 S1 1.499996 1_555
O31 S1 1.499996 1_555
