# generated using pymatgen
data_Li5CoO4
_symmetry_space_group_name_H-M   'P 1'
_cell_length_a   9.19176300
_cell_length_b   9.20438900
_cell_length_c   9.20471400
_cell_angle_alpha   90.00000000
_cell_angle_beta   90.00000000
_cell_angle_gamma   90.00000000
_symmetry_Int_Tables_number   1
_chemical_formula_structural   Li5CoO4
_chemical_formula_sum   'Li40 Co8 O32'
_cell_volume   778.76079859
_cell_formula_units_Z   8
loop_
 _symmetry_equiv_pos_site_id
 _symmetry_equiv_pos_as_xyz
  1  'x, y, z'
loop_
 _atom_site_type_symbol
 _atom_site_label
 _atom_site_symmetry_multiplicity
 _atom_site_fract_x
 _atom_site_fract_y
 _atom_site_fract_z
 _atom_site_occupancy
  Li  Li0  1  0.61149700  0.14288800  0.11012700  1
  Li  Li1  1  0.88850300  0.64288800  0.11012700  1
  Li  Li2  1  0.10931500  0.83964700  0.11848700  1
  Li  Li3  1  0.39068500  0.33964700  0.11848700  1
  Li  Li4  1  0.85169000  0.37456800  0.11952300  1
  Li  Li5  1  0.64831000  0.87456800  0.11952300  1
  Li  Li6  1  0.87629500  0.10553400  0.14835600  1
  Li  Li7  1  0.62370500  0.60553400  0.14835600  1
  Li  Li8  1  0.11815900  0.39440600  0.15748300  1
  Li  Li9  1  0.38184100  0.89440600  0.15748300  1
  Li  Li10  1  0.88184100  0.89440600  0.34251700  1
  Li  Li11  1  0.61815900  0.39440600  0.34251700  1
  Li  Li12  1  0.37629500  0.10553400  0.35164400  1
  Li  Li13  1  0.12370500  0.60553400  0.35164400  1
  Li  Li14  1  0.14831000  0.87456800  0.38047700  1
  Li  Li15  1  0.35169000  0.37456800  0.38047700  1
  Li  Li16  1  0.89068500  0.33964700  0.38151300  1
  Li  Li17  1  0.60931500  0.83964700  0.38151300  1
  Li  Li18  1  0.11149700  0.14288800  0.38987300  1
  Li  Li19  1  0.38850300  0.64288800  0.38987300  1
  Li  Li20  1  0.61149700  0.35711200  0.61012700  1
  Li  Li21  1  0.88850300  0.85711200  0.61012700  1
  Li  Li22  1  0.10931500  0.66035300  0.61848700  1
  Li  Li23  1  0.39068500  0.16035300  0.61848700  1
  Li  Li24  1  0.64831000  0.62543200  0.61952300  1
  Li  Li25  1  0.85169000  0.12543200  0.61952300  1
  Li  Li26  1  0.62370500  0.89446600  0.64835600  1
  Li  Li27  1  0.87629500  0.39446600  0.64835600  1
  Li  Li28  1  0.11815900  0.10559400  0.65748300  1
  Li  Li29  1  0.38184100  0.60559400  0.65748300  1
  Li  Li30  1  0.61815900  0.10559400  0.84251700  1
  Li  Li31  1  0.88184100  0.60559400  0.84251700  1
  Li  Li32  1  0.37629500  0.39446600  0.85164400  1
  Li  Li33  1  0.12370500  0.89446600  0.85164400  1
  Li  Li34  1  0.14831000  0.62543200  0.88047700  1
  Li  Li35  1  0.35169000  0.12543200  0.88047700  1
  Li  Li36  1  0.60931500  0.66035300  0.88151300  1
  Li  Li37  1  0.89068500  0.16035300  0.88151300  1
  Li  Li38  1  0.11149700  0.35711200  0.88987300  1
  Li  Li39  1  0.38850300  0.85711200  0.88987300  1
  Co  Co0  1  0.14775200  0.11821300  0.11360000  1
  Co  Co1  1  0.35224800  0.61821300  0.11360000  1
  Co  Co2  1  0.64775200  0.11821300  0.38640000  1
  Co  Co3  1  0.85224800  0.61821300  0.38640000  1
  Co  Co4  1  0.14775200  0.38178700  0.61360000  1
  Co  Co5  1  0.35224800  0.88178700  0.61360000  1
  Co  Co6  1  0.64775200  0.38178700  0.88640000  1
  Co  Co7  1  0.85224800  0.88178700  0.88640000  1
  O  O0  1  0.25148000  0.48379000  0.00663600  1
  O  O1  1  0.24852000  0.98379000  0.00663600  1
  O  O2  1  0.00688100  0.24596200  0.03591600  1
  O  O3  1  0.49311900  0.74596200  0.03591600  1
  O  O4  1  0.03377300  0.99995900  0.24454600  1
  O  O5  1  0.46622700  0.49995900  0.24454600  1
  O  O6  1  0.24677600  0.24059900  0.24585100  1
  O  O7  1  0.25322400  0.74059900  0.24585100  1
  O  O8  1  0.74677600  0.24059900  0.25414900  1
  O  O9  1  0.75322400  0.74059900  0.25414900  1
  O  O10  1  0.53377300  0.99995900  0.25545400  1
  O  O11  1  0.96622700  0.49995900  0.25545400  1
  O  O12  1  0.50688100  0.24596200  0.46408400  1
  O  O13  1  0.99311900  0.74596200  0.46408400  1
  O  O14  1  0.75148000  0.48379000  0.49336400  1
  O  O15  1  0.74852000  0.98379000  0.49336400  1
  O  O16  1  0.25148000  0.01621000  0.50663600  1
  O  O17  1  0.24852000  0.51621000  0.50663600  1
  O  O18  1  0.00688100  0.25403800  0.53591600  1
  O  O19  1  0.49311900  0.75403800  0.53591600  1
  O  O20  1  0.03377300  0.50004100  0.74454600  1
  O  O21  1  0.46622700  0.00004100  0.74454600  1
  O  O22  1  0.24677600  0.25940100  0.74585100  1
  O  O23  1  0.25322400  0.75940100  0.74585100  1
  O  O24  1  0.74677600  0.25940100  0.75414900  1
  O  O25  1  0.75322400  0.75940100  0.75414900  1
  O  O26  1  0.53377300  0.50004100  0.75545400  1
  O  O27  1  0.96622700  0.00004100  0.75545400  1
  O  O28  1  0.50688100  0.25403800  0.96408400  1
  O  O29  1  0.99311900  0.75403800  0.96408400  1
  O  O30  1  0.75148000  0.01621000  0.99336400  1
  O  O31  1  0.74852000  0.51621000  0.99336400  1
loop_
_geom_bond_atom_site_label_1
_geom_bond_atom_site_label_2
_geom_bond_distance
_geom_bond_site_symmetry_2
Li0 O28 1.943824 1_554
Li0 O10 2.007624 1_545
Li0 O8 2.027923 1_555
Li0 O30 2.042118 1_554
Li1 O29 1.943824 1_554
Li1 O11 2.007624 1_555
Li1 O9 2.027923 1_555
Li1 O31 2.042118 1_554
Li2 O29 1.944619 1_454
Li2 O7 1.988793 1_555
Li2 O4 2.001460 1_555
Li2 O1 2.111272 1_555
Li3 O28 1.944619 1_554
Li3 O6 1.988793 1_555
Li3 O5 2.001460 1_555
Li3 O0 2.111272 1_555
Li4 O31 1.986838 1_554
Li4 O8 1.996523 1_555
Li4 O11 2.001488 1_555
Li4 O2 2.007071 1_655
Li5 O30 1.986838 1_564
Li5 O9 1.996523 1_555
Li5 O10 2.001488 1_555
Li5 O3 2.007071 1_555
Li6 O4 1.955377 1_645
Li6 O8 1.977652 1_555
Li6 O30 2.006875 1_554
Li6 O2 2.045149 1_655
Li7 O5 1.955377 1_555
Li7 O9 1.977652 1_555
Li7 O31 2.006875 1_554
Li7 O3 2.045149 1_555
Li8 O11 1.925467 1_455
Li8 O6 2.015804 1_555
Li8 O0 2.026465 1_555
Li8 O2 2.040886 1_555
Li9 O10 1.925467 1_555
Li9 O7 2.015804 1_555
Li9 O1 2.026465 1_555
Li9 O3 2.040886 1_555
Li10 O4 1.925467 1_655
Li10 O9 2.015804 1_555
Li10 O15 2.026465 1_555
Li10 O13 2.040886 1_555
Li11 O5 1.925467 1_555
Li11 O8 2.015804 1_555
Li11 O14 2.026465 1_555
Li11 O12 2.040886 1_555
Li12 O10 1.955377 1_545
Li12 O6 1.977652 1_555
Li12 O16 2.006875 1_555
Li12 O12 2.045149 1_555
Li13 O11 1.955377 1_455
Li13 O7 1.977652 1_555
Li13 O17 2.006875 1_555
Li13 O13 2.045149 1_455
Li14 O16 1.986838 1_565
Li14 O7 1.996523 1_555
Li14 O4 2.001488 1_555
Li14 O13 2.007071 1_455
Li15 O17 1.986838 1_555
Li15 O6 1.996523 1_555
Li15 O5 2.001488 1_555
Li15 O12 2.007071 1_555
Li16 O18 1.944619 1_655
Li16 O8 1.988793 1_555
Li16 O11 2.001460 1_555
Li16 O14 2.111272 1_555
Li17 O19 1.944619 1_555
Li17 O9 1.988793 1_555
Li17 O10 2.001460 1_555
Li17 O15 2.111272 1_555
Li18 O18 1.943824 1_555
Li18 O4 2.007624 1_545
Li18 O6 2.027923 1_555
Li18 O16 2.042118 1_555
Li19 O19 1.943824 1_555
Li19 O5 2.007624 1_555
Li19 O7 2.027923 1_555
Li19 O17 2.042118 1_555
Li20 O12 1.943824 1_555
Li20 O26 2.007624 1_555
Li20 O24 2.027923 1_555
Li20 O14 2.042118 1_555
Li21 O13 1.943824 1_555
Li21 O27 2.007624 1_565
Li21 O25 2.027923 1_555
Li21 O15 2.042118 1_555
Li22 O13 1.944619 1_455
Li22 O23 1.988793 1_555
Li22 O20 2.001460 1_555
Li22 O17 2.111272 1_555
Li23 O12 1.944619 1_555
Li23 O22 1.988793 1_555
Li23 O21 2.001460 1_555
Li23 O16 2.111272 1_555
Li24 O14 1.986838 1_555
Li24 O25 1.996523 1_555
Li24 O26 2.001488 1_555
Li24 O19 2.007071 1_555
Li25 O15 1.986838 1_545
Li25 O24 1.996523 1_555
Li25 O27 2.001488 1_555
Li25 O18 2.007071 1_655
Li26 O21 1.955377 1_565
Li26 O25 1.977652 1_555
Li26 O15 2.006875 1_555
Li26 O19 2.045149 1_555
Li27 O20 1.955377 1_655
Li27 O24 1.977652 1_555
Li27 O14 2.006875 1_555
Li27 O18 2.045149 1_655
Li28 O27 1.925467 1_455
Li28 O22 2.015804 1_555
Li28 O16 2.026465 1_555
Li28 O18 2.040886 1_555
Li29 O26 1.925467 1_555
Li29 O23 2.015804 1_555
Li29 O17 2.026465 1_555
Li29 O19 2.040886 1_555
Li30 O21 1.925467 1_555
Li30 O24 2.015804 1_555
Li30 O30 2.026465 1_555
Li30 O28 2.040886 1_555
Li31 O20 1.925467 1_655
Li31 O25 2.015804 1_555
Li31 O31 2.026465 1_555
Li31 O29 2.040886 1_555
Li32 O26 1.955377 1_555
Li32 O22 1.977652 1_555
Li32 O0 2.006875 1_556
Li32 O28 2.045149 1_555
Li33 O27 1.955377 1_465
Li33 O23 1.977652 1_555
Li33 O1 2.006875 1_556
Li33 O29 2.045149 1_455
Li34 O0 1.986838 1_556
Li34 O23 1.996523 1_555
Li34 O20 2.001488 1_555
Li34 O29 2.007071 1_455
Li35 O1 1.986838 1_546
Li35 O22 1.996523 1_555
Li35 O21 2.001488 1_555
Li35 O28 2.007071 1_555
Li36 O3 1.944619 1_556
Li36 O25 1.988793 1_555
Li36 O26 2.001460 1_555
Li36 O31 2.111272 1_555
Li37 O2 1.944619 1_656
Li37 O24 1.988793 1_555
Li37 O27 2.001460 1_555
Li37 O30 2.111272 1_555
Li38 O2 1.943824 1_556
Li38 O20 2.007624 1_555
Li38 O22 2.027923 1_555
Li38 O0 2.042118 1_556
Li39 O3 1.943824 1_556
Li39 O21 2.007624 1_565
Li39 O23 2.027923 1_555
Li39 O1 2.042118 1_556
Co0 O1 1.832529 1_545
Co0 O2 1.889598 1_555
Co0 O6 1.891917 1_555
Co0 O4 1.932651 1_545
Co1 O0 1.832529 1_555
Co1 O3 1.889598 1_555
Co1 O7 1.891917 1_555
Co1 O5 1.932651 1_555
Co2 O15 1.832529 1_545
Co2 O12 1.889598 1_555
Co2 O8 1.891917 1_555
Co2 O10 1.932651 1_545
Co3 O14 1.832529 1_555
Co3 O13 1.889598 1_555
Co3 O9 1.891917 1_555
Co3 O11 1.932651 1_555
Co4 O17 1.832529 1_555
Co4 O18 1.889598 1_555
Co4 O22 1.891917 1_555
Co4 O20 1.932651 1_555
Co5 O16 1.832529 1_565
Co5 O19 1.889598 1_555
Co5 O23 1.891917 1_555
Co5 O21 1.932651 1_565
Co6 O31 1.832529 1_555
Co6 O28 1.889598 1_555
Co6 O24 1.891917 1_555
Co6 O26 1.932651 1_555
Co7 O30 1.832529 1_565
Co7 O29 1.889598 1_555
Co7 O25 1.891917 1_555
Co7 O27 1.932651 1_565
