# generated using pymatgen
data_Ca13Si10H12(O17F5)2
_symmetry_space_group_name_H-M   'P 1'
_cell_length_a   13.51721595
_cell_length_b   13.51721595
_cell_length_c   13.51721577
_cell_angle_alpha   40.88008405
_cell_angle_beta   40.88008405
_cell_angle_gamma   40.88008659
_symmetry_Int_Tables_number   1
_chemical_formula_structural   Ca13Si10H12(O17F5)2
_chemical_formula_sum   'Ca13 Si10 H12 O34 F10'
_cell_volume   954.84131180
_cell_formula_units_Z   1
loop_
 _symmetry_equiv_pos_site_id
 _symmetry_equiv_pos_as_xyz
  1  'x, y, z'
loop_
 _atom_site_type_symbol
 _atom_site_label
 _atom_site_symmetry_multiplicity
 _atom_site_fract_x
 _atom_site_fract_y
 _atom_site_fract_z
 _atom_site_occupancy
  Ca  Ca0  1  0.00000000  0.00000000  0.00000000  1
  Ca  Ca1  1  0.41984200  0.70369600  0.83716800  1
  Ca  Ca2  1  0.83716800  0.41984200  0.70369600  1
  Ca  Ca3  1  0.70369600  0.83716800  0.41984200  1
  Ca  Ca4  1  0.58015800  0.29630400  0.16283200  1
  Ca  Ca5  1  0.16283200  0.58015800  0.29630400  1
  Ca  Ca6  1  0.29630400  0.16283200  0.58015800  1
  Ca  Ca7  1  0.37097900  0.80083700  0.54305200  1
  Ca  Ca8  1  0.54305200  0.37097900  0.80083700  1
  Ca  Ca9  1  0.80083700  0.54305200  0.37097900  1
  Ca  Ca10  1  0.62902100  0.19916300  0.45694800  1
  Ca  Ca11  1  0.45694800  0.62902100  0.19916300  1
  Ca  Ca12  1  0.19916300  0.45694800  0.62902100  1
  Si  Si0  1  0.88321400  0.88321400  0.88321400  1
  Si  Si1  1  0.11678600  0.11678600  0.11678600  1
  Si  Si2  1  0.14268200  0.62661200  0.01273000  1
  Si  Si3  1  0.01273000  0.14268200  0.62661200  1
  Si  Si4  1  0.62661200  0.01273000  0.14268200  1
  Si  Si5  1  0.85731800  0.37338800  0.98727000  1
  Si  Si6  1  0.98727000  0.85731800  0.37338800  1
  Si  Si7  1  0.37338800  0.98727000  0.85731800  1
  Si  Si8  1  0.26838700  0.26838700  0.26838700  1
  Si  Si9  1  0.73161300  0.73161300  0.73161300  1
  H  H0  1  0.23484300  0.80131000  0.45523000  1
  H  H1  1  0.45523000  0.23484300  0.80131000  1
  H  H2  1  0.80131000  0.45523000  0.23484300  1
  H  H3  1  0.76515700  0.19869000  0.54477000  1
  H  H4  1  0.54477000  0.76515700  0.19869000  1
  H  H5  1  0.19869000  0.54477000  0.76515700  1
  H  H6  1  0.23928100  0.98040900  0.30238900  1
  H  H7  1  0.30238900  0.23928100  0.98040900  1
  H  H8  1  0.98040900  0.30238900  0.23928100  1
  H  H9  1  0.76071900  0.01959100  0.69761100  1
  H  H10  1  0.69761100  0.76071900  0.01959100  1
  H  H11  1  0.01959100  0.69761100  0.76071900  1
  O  O0  1  0.84013000  0.84013000  0.84013000  1
  O  O1  1  0.15987000  0.15987000  0.15987000  1
  O  O2  1  0.02596500  0.95850200  0.71729500  1
  O  O3  1  0.71729500  0.02596500  0.95850200  1
  O  O4  1  0.95850200  0.71729500  0.02596500  1
  O  O5  1  0.97403500  0.04149800  0.28270500  1
  O  O6  1  0.28270500  0.97403500  0.04149800  1
  O  O7  1  0.04149800  0.28270500  0.97403500  1
  O  O8  1  0.17282900  0.14449400  0.43887000  1
  O  O9  1  0.43887000  0.17282900  0.14449400  1
  O  O10  1  0.14449400  0.43887000  0.17282900  1
  O  O11  1  0.82717100  0.85550600  0.56113000  1
  O  O12  1  0.56113000  0.82717100  0.85550600  1
  O  O13  1  0.85550600  0.56113000  0.82717100  1
  O  O14  1  0.30013500  0.61558200  0.83663600  1
  O  O15  1  0.83663600  0.30013500  0.61558200  1
  O  O16  1  0.61558200  0.83663600  0.30013500  1
  O  O17  1  0.69986500  0.38441800  0.16336400  1
  O  O18  1  0.16336400  0.69986500  0.38441800  1
  O  O19  1  0.38441800  0.16336400  0.69986500  1
  O  O20  1  0.31185800  0.31185800  0.31185800  1
  O  O21  1  0.68814200  0.68814200  0.68814200  1
  O  O22  1  0.04671000  0.14322100  0.71886800  1
  O  O23  1  0.71886800  0.04671000  0.14322100  1
  O  O24  1  0.14322100  0.71886800  0.04671000  1
  O  O25  1  0.95329000  0.85677900  0.28113200  1
  O  O26  1  0.28113200  0.95329000  0.85677900  1
  O  O27  1  0.85677900  0.28113200  0.95329000  1
  O  O28  1  0.29777600  0.86573300  0.37658100  1
  O  O29  1  0.37658100  0.29777600  0.86573300  1
  O  O30  1  0.86573300  0.37658100  0.29777600  1
  O  O31  1  0.70222400  0.13426700  0.62341900  1
  O  O32  1  0.62341900  0.70222400  0.13426700  1
  O  O33  1  0.13426700  0.62341900  0.70222400  1
  F  F0  1  0.40749200  0.92279500  0.57819800  1
  F  F1  1  0.57819800  0.40749200  0.92279500  1
  F  F2  1  0.92279500  0.57819800  0.40749200  1
  F  F3  1  0.59250800  0.07720500  0.42180200  1
  F  F4  1  0.42180200  0.59250800  0.07720500  1
  F  F5  1  0.07720500  0.42180200  0.59250800  1
  F  F6  1  0.61463900  0.61463900  0.61463900  1
  F  F7  1  0.38536100  0.38536100  0.38536100  1
  F  F8  1  0.54368300  0.54368300  0.54368300  1
  F  F9  1  0.45631700  0.45631700  0.45631700  1
loop_
_geom_bond_atom_site_label_1
_geom_bond_atom_site_label_2
_geom_bond_distance
_geom_bond_site_symmetry_2
Ca0 O25 2.383883 1_445
Ca0 O22 2.383883 1_554
Ca0 O26 2.383883 1_544
Ca0 O23 2.383883 1_455
Ca0 O27 2.383883 1_454
Ca0 O24 2.383883 1_545
Ca1 F4 2.341555 1_556
Ca1 F0 2.347749 1_555
Ca1 O21 2.386408 1_555
Ca1 F1 2.394021 1_555
Ca1 O24 2.397838 1_556
Ca1 O26 2.450222 1_555
Ca1 F6 2.477069 1_555
Ca1 O14 2.642309 1_555
Ca2 F5 2.341555 1_655
Ca2 F1 2.347749 1_555
Ca2 O21 2.386408 1_555
Ca2 F2 2.394021 1_555
Ca2 O22 2.397839 1_655
Ca2 O27 2.450222 1_555
Ca2 F6 2.477069 1_555
Ca2 O15 2.642309 1_555
Ca3 F3 2.341556 1_565
Ca3 F2 2.347749 1_555
Ca3 O21 2.386408 1_555
Ca3 F0 2.394021 1_555
Ca3 O23 2.397838 1_565
Ca3 O25 2.450222 1_555
Ca3 F6 2.477069 1_555
Ca3 O16 2.642309 1_555
Ca4 F1 2.341555 1_554
Ca4 F3 2.347749 1_555
Ca4 O20 2.386408 1_555
Ca4 F4 2.394021 1_555
Ca4 O27 2.397838 1_554
Ca4 O23 2.450222 1_555
Ca4 F7 2.477069 1_555
Ca4 O17 2.642309 1_555
Ca5 F2 2.341555 1_455
Ca5 F4 2.347749 1_555
Ca5 O20 2.386408 1_555
Ca5 F5 2.394021 1_555
Ca5 O25 2.397839 1_455
Ca5 O24 2.450222 1_555
Ca5 F7 2.477069 1_555
Ca5 O18 2.642309 1_555
Ca6 F0 2.341556 1_545
Ca6 F5 2.347749 1_555
Ca6 O20 2.386408 1_555
Ca6 F3 2.394021 1_555
Ca6 O26 2.397838 1_545
Ca6 O22 2.450222 1_555
Ca6 F7 2.477069 1_555
Ca6 O19 2.642309 1_555
Ca7 F8 2.290650 1_555
Ca7 O16 2.355339 1_555
Ca7 O14 2.405970 1_555
Ca7 O28 2.425210 1_555
Ca7 F0 2.440526 1_555
Ca7 F6 2.592334 1_555
Ca7 O8 2.780825 1_565
Ca7 O2 2.791023 1_555
Ca8 F8 2.290650 1_555
Ca8 O14 2.355340 1_555
Ca8 O15 2.405970 1_555
Ca8 O29 2.425210 1_555
Ca8 F1 2.440526 1_555
Ca8 F6 2.592334 1_555
Ca8 O9 2.780824 1_556
Ca8 O3 2.791023 1_555
Ca9 F8 2.290650 1_555
Ca9 O15 2.355339 1_555
Ca9 O16 2.405970 1_555
Ca9 O30 2.425210 1_555
Ca9 F2 2.440526 1_555
Ca9 F6 2.592334 1_555
Ca9 O10 2.780825 1_655
Ca9 O4 2.791022 1_555
Ca10 F9 2.290650 1_555
Ca10 O19 2.355339 1_555
Ca10 O17 2.405970 1_555
Ca10 O31 2.425210 1_555
Ca10 F3 2.440526 1_555
Ca10 F7 2.592334 1_555
Ca10 O11 2.780825 1_545
Ca10 O5 2.791023 1_555
Ca11 F9 2.290650 1_555
Ca11 O17 2.355340 1_555
Ca11 O18 2.405970 1_555
Ca11 O32 2.425210 1_555
Ca11 F4 2.440526 1_555
Ca11 F7 2.592334 1_555
Ca11 O12 2.780824 1_554
Ca11 O6 2.791023 1_555
Ca12 F9 2.290650 1_555
Ca12 O18 2.355339 1_555
Ca12 O19 2.405970 1_555
Ca12 O33 2.425210 1_555
Ca12 F5 2.440526 1_555
Ca12 F7 2.592334 1_555
Ca12 O13 2.780825 1_455
Ca12 O7 2.791022 1_555
H0 O28 0.982294 1_555
H1 O29 0.982294 1_555
H2 O30 0.982294 1_555
H3 O31 0.982294 1_555
H4 O32 0.982294 1_555
H5 O33 0.982294 1_555
H6 O28 1.014259 1_555
H6 O1 1.694348 1_565
H7 O29 1.014259 1_555
H7 O1 1.694348 1_556
H8 O30 1.014259 1_555
H8 O1 1.694348 1_655
H9 O31 1.014259 1_555
H9 O0 1.694348 1_545
H10 O32 1.014259 1_555
H10 O0 1.694348 1_554
H11 O33 1.014259 1_555
H11 O0 1.694348 1_455
O0 Si0 1.598776 1_555
O1 Si1 1.598776 1_555
O2 Si0 1.662228 1_455
O2 Si3 1.666159 1_565
O3 Si0 1.662228 1_545
O3 Si4 1.666159 1_556
O4 Si0 1.662228 1_554
O4 Si2 1.666159 1_655
O5 Si1 1.662228 1_655
O5 Si6 1.666159 1_545
O6 Si1 1.662228 1_565
O6 Si7 1.666159 1_554
O7 Si1 1.662228 1_556
O7 Si5 1.666159 1_455
O8 Si8 1.648529 1_555
O8 Si3 1.674977 1_555
O9 Si8 1.648529 1_555
O9 Si4 1.674977 1_555
O10 Si8 1.648529 1_555
O10 Si2 1.674977 1_555
O11 Si9 1.648529 1_555
O11 Si6 1.674977 1_555
O12 Si9 1.648529 1_555
O12 Si7 1.674977 1_555
O13 Si9 1.648529 1_555
O13 Si5 1.674977 1_555
O14 Si2 1.616770 1_556
O15 Si3 1.616770 1_655
O16 Si4 1.616770 1_565
O17 Si5 1.616770 1_554
O18 Si6 1.616770 1_455
O19 Si7 1.616770 1_545
O20 Si8 1.613137 1_555
O21 Si9 1.613137 1_555
O22 Si3 1.628216 1_555
O23 Si4 1.628216 1_555
O24 Si2 1.628216 1_555
O25 Si6 1.628216 1_555
O26 Si7 1.628216 1_555
O27 Si5 1.628216 1_555
