# generated using pymatgen
data_Li3MnFe3O8
_symmetry_space_group_name_H-M   'P 1'
_cell_length_a   5.88202830
_cell_length_b   5.88165007
_cell_length_c   9.57266230
_cell_angle_alpha   89.99895346
_cell_angle_beta   90.00249280
_cell_angle_gamma   119.99992740
_symmetry_Int_Tables_number   1
_chemical_formula_structural   Li3MnFe3O8
_chemical_formula_sum   'Li6 Mn2 Fe6 O16'
_cell_volume   286.80715360
_cell_formula_units_Z   2
loop_
 _symmetry_equiv_pos_site_id
 _symmetry_equiv_pos_as_xyz
  1  'x, y, z'
loop_
 _atom_site_type_symbol
 _atom_site_label
 _atom_site_symmetry_multiplicity
 _atom_site_fract_x
 _atom_site_fract_y
 _atom_site_fract_z
 _atom_site_occupancy
  Li  Li0  1  0.17316400  0.82685100  0.05702100  1
  Li  Li1  1  0.65352800  0.82677300  0.05707600  1
  Li  Li2  1  0.17318700  0.34642500  0.05704200  1
  Li  Li3  1  0.82673100  0.65351300  0.55695300  1
  Li  Li4  1  0.34635800  0.17317400  0.55692700  1
  Li  Li5  1  0.82673400  0.17325600  0.55696500  1
  Mn  Mn0  1  0.33329900  0.66664700  0.51391800  1
  Mn  Mn1  1  0.66667600  0.33335100  0.01388800  1
  Fe  Fe0  1  0.16813400  0.83186800  0.78874300  1
  Fe  Fe1  1  0.66371000  0.83185200  0.78876800  1
  Fe  Fe2  1  0.16812400  0.33626900  0.78875200  1
  Fe  Fe3  1  0.83185600  0.66372000  0.28875300  1
  Fe  Fe4  1  0.33628600  0.16814400  0.28873300  1
  Fe  Fe5  1  0.83186500  0.16815200  0.28875800  1
  O  O0  1  0.16862900  0.83135300  0.40685600  1
  O  O1  1  0.47910700  0.95826300  0.64889000  1
  O  O2  1  0.04174600  0.52087500  0.64887500  1
  O  O3  1  0.33333100  0.66667400  0.90447300  1
  O  O4  1  0.66268400  0.83135000  0.40685700  1
  O  O5  1  0.47909100  0.52083400  0.64888400  1
  O  O6  1  0.16863200  0.33729300  0.40685400  1
  O  O7  1  0.83133900  0.66267900  0.90683600  1
  O  O8  1  0.52088600  0.47913600  0.14888600  1
  O  O9  1  0.95824100  0.47914500  0.14888300  1
  O  O10  1  0.66663900  0.33331500  0.40450000  1
  O  O11  1  0.00000800  0.00003200  0.17804700  1
  O  O12  1  0.33731700  0.16866200  0.90683900  1
  O  O13  1  0.99993300  0.99996400  0.67808000  1
  O  O14  1  0.52087500  0.04174200  0.14889100  1
  O  O15  1  0.83133400  0.16867500  0.90683700  1
loop_
_geom_bond_atom_site_label_1
_geom_bond_atom_site_label_2
_geom_bond_distance
_geom_bond_site_symmetry_2
Li0 O9 1.992106 1_455
Li0 O14 1.992185 1_565
Li0 O11 2.110613 1_565
Li0 O3 2.189819 1_554
Li0 O12 2.258257 1_564
Li0 O7 2.258370 1_454
Li1 O8 1.991624 1_555
Li1 O14 1.991631 1_565
Li1 O11 2.110909 1_665
Li1 O3 2.189571 1_554
Li1 O15 2.258977 1_564
Li1 O7 2.259073 1_554
Li2 O9 1.991946 1_455
Li2 O8 1.992105 1_555
Li2 O11 2.110665 1_555
Li2 O3 2.189520 1_554
Li2 O15 2.258609 1_454
Li2 O12 2.258790 1_554
Li3 O2 1.992222 1_655
Li3 O5 1.992274 1_555
Li3 O13 2.111545 1_555
Li3 O10 2.188577 1_555
Li3 O4 2.258033 1_555
Li3 O0 2.258222 1_655
Li4 O5 1.992296 1_555
Li4 O1 1.992324 1_545
Li4 O13 2.111708 1_445
Li4 O10 2.188852 1_555
Li4 O0 2.257620 1_545
Li4 O6 2.257733 1_555
Li5 O2 1.991994 1_655
Li5 O1 1.992198 1_545
Li5 O13 2.111668 1_545
Li5 O10 2.188490 1_555
Li5 O4 2.258188 1_545
Li5 O6 2.258313 1_655
Mn0 O6 1.965905 1_555
Mn0 O0 1.966007 1_555
Mn0 O4 1.966155 1_555
Mn0 O2 1.968470 1_555
Mn0 O5 1.968616 1_555
Mn0 O1 1.968692 1_555
Mn1 O7 1.965739 1_554
Mn1 O15 1.965832 1_554
Mn1 O12 1.965913 1_554
Mn1 O9 1.968678 1_555
Mn1 O8 1.968771 1_555
Mn1 O14 1.968868 1_555
Fe0 O13 2.014092 1_455
Fe0 O3 2.014824 1_555
Fe0 O12 2.054510 1_565
Fe0 O7 2.054632 1_455
Fe0 O1 2.081134 1_555
Fe0 O2 2.081184 1_555
Fe1 O13 2.014013 1_555
Fe1 O3 2.014758 1_555
Fe1 O7 2.054411 1_555
Fe1 O15 2.054491 1_565
Fe1 O1 2.081333 1_555
Fe1 O5 2.081381 1_555
Fe2 O13 2.014155 1_445
Fe2 O3 2.014822 1_555
Fe2 O12 2.054503 1_555
Fe2 O15 2.054569 1_455
Fe2 O5 2.081185 1_555
Fe2 O2 2.081205 1_555
Fe3 O11 2.014364 1_665
Fe3 O10 2.014966 1_555
Fe3 O0 2.054516 1_655
Fe3 O4 2.054668 1_555
Fe3 O8 2.081122 1_555
Fe3 O9 2.081127 1_555
Fe4 O11 2.014170 1_555
Fe4 O10 2.014900 1_555
Fe4 O0 2.054646 1_545
Fe4 O6 2.054761 1_555
Fe4 O8 2.081067 1_555
Fe4 O14 2.081099 1_555
Fe5 O11 2.014250 1_655
Fe5 O10 2.014944 1_555
Fe5 O6 2.054453 1_655
Fe5 O4 2.054568 1_545
Fe5 O14 2.081198 1_555
Fe5 O9 2.081231 1_555
