# generated using pymatgen
data_Li24Mn7Cr5O36
_symmetry_space_group_name_H-M   'P 1'
_cell_length_a   5.00586500
_cell_length_b   5.01038607
_cell_length_c   28.82816525
_cell_angle_alpha   90.19122103
_cell_angle_beta   90.27878676
_cell_angle_gamma   119.65665475
_symmetry_Int_Tables_number   1
_chemical_formula_structural   Li24Mn7Cr5O36
_chemical_formula_sum   'Li24 Mn7 Cr5 O36'
_cell_volume   628.31223174
_cell_formula_units_Z   1
loop_
 _symmetry_equiv_pos_site_id
 _symmetry_equiv_pos_as_xyz
  1  'x, y, z'
loop_
 _atom_site_type_symbol
 _atom_site_label
 _atom_site_symmetry_multiplicity
 _atom_site_fract_x
 _atom_site_fract_y
 _atom_site_fract_z
 _atom_site_occupancy
  Li  Li0  1  0.16610700  0.66667900  0.66672300  1
  Li  Li1  1  0.16673900  0.66657200  0.91665700  1
  Li  Li2  1  0.49523100  0.66984400  0.83327400  1
  Li  Li3  1  0.83395400  0.33554400  0.33332700  1
  Li  Li4  1  0.83131100  0.33518600  0.58334800  1
  Li  Li5  1  0.83256100  0.33305300  0.83342500  1
  Li  Li6  1  0.16381000  0.33972200  0.49984500  1
  Li  Li7  1  0.49887000  0.99948300  0.99987600  1
  Li  Li8  1  0.49881600  0.99744800  0.24999500  1
  Li  Li9  1  0.49994200  0.00094700  0.50001500  1
  Li  Li10  1  0.83796500  0.66103700  0.99972100  1
  Li  Li11  1  0.82616200  0.00062000  0.16651000  1
  Li  Li12  1  0.16717000  0.66808400  0.16664900  1
  Li  Li13  1  0.82623500  0.00264100  0.66686100  1
  Li  Li14  1  0.50817700  0.32947000  0.66659400  1
  Li  Li15  1  0.49699500  0.67304600  0.33344900  1
  Li  Li16  1  0.16957200  0.99211800  0.33322400  1
  Li  Li17  1  0.17195900  0.99653600  0.83359700  1
  Li  Li18  1  0.16366400  0.33919400  0.99999800  1
  Li  Li19  1  0.50008000  0.00281200  0.75003900  1
  Li  Li20  1  0.83718900  0.65866500  0.50015900  1
  Li  Li21  1  0.16419100  0.66741100  0.41667600  1
  Li  Li22  1  0.50708600  0.33122700  0.16682200  1
  Li  Li23  1  0.83172300  0.33556700  0.08329700  1
  Mn  Mn0  1  0.16768800  0.33321100  0.74999800  1
  Mn  Mn1  1  0.83363800  0.99900800  0.41669300  1
  Mn  Mn2  1  0.49944300  0.33393500  0.91667600  1
  Mn  Mn3  1  0.50091100  0.66599100  0.08328300  1
  Mn  Mn4  1  0.83243200  0.66652600  0.25001100  1
  Mn  Mn5  1  0.83363000  0.99956300  0.91667700  1
  Mn  Mn6  1  0.50065800  0.66586900  0.58330900  1
  Cr  Cr0  1  0.83235800  0.67168600  0.75001800  1
  Cr  Cr1  1  0.49562900  0.33551400  0.41667800  1
  Cr  Cr2  1  0.16378900  0.00403000  0.08333100  1
  Cr  Cr3  1  0.16292800  0.00383800  0.58330700  1
  Cr  Cr4  1  0.16539100  0.32782200  0.25001200  1
  O  O0  1  0.13944500  0.63981800  0.78787400  1
  O  O1  1  0.85859100  0.35575600  0.71182300  1
  O  O2  1  0.81012900  0.30769400  0.45473900  1
  O  O3  1  0.52520800  0.66794700  0.95381900  1
  O  O4  1  0.50079600  0.63844100  0.71280700  1
  O  O5  1  0.52636300  0.02660500  0.37872900  1
  O  O6  1  0.80826700  0.66580300  0.87940200  1
  O  O7  1  0.47493400  0.97406800  0.12128900  1
  O  O8  1  0.19406100  0.33217500  0.62042800  1
  O  O9  1  0.16645500  0.30639600  0.37937500  1
  O  O10  1  0.16515700  0.30826300  0.87951200  1
  O  O11  1  0.49567300  0.35386900  0.78767300  1
  O  O12  1  0.19248300  0.69117300  0.04535500  1
  O  O13  1  0.48025900  0.33885400  0.54551400  1
  O  O14  1  0.85686700  0.99886700  0.28732200  1
  O  O15  1  0.85993400  0.00090200  0.78722900  1
  O  O16  1  0.83447900  0.97244600  0.04615600  1
  O  O17  1  0.83420400  0.97274100  0.54619500  1
  O  O18  1  0.16275300  0.02093200  0.45430600  1
  O  O19  1  0.16773000  0.02515300  0.95395300  1
  O  O20  1  0.14014500  0.99723600  0.21258800  1
  O  O21  1  0.14523000  0.00342600  0.71242000  1
  O  O22  1  0.52780300  0.66571000  0.45379200  1
  O  O23  1  0.80923000  0.30903200  0.95459200  1
  O  O24  1  0.50289900  0.64494700  0.21248400  1
  O  O25  1  0.82874800  0.68649100  0.12101900  1
  O  O26  1  0.82804700  0.68655700  0.62114300  1
  O  O27  1  0.81298400  0.67136200  0.37902700  1
  O  O28  1  0.52384100  0.02407600  0.87875400  1
  O  O29  1  0.19351500  0.33246800  0.12059200  1
  O  O30  1  0.47490000  0.97377800  0.62128300  1
  O  O31  1  0.49955500  0.36141200  0.28727700  1
  O  O32  1  0.47968000  0.33808900  0.04569300  1
  O  O33  1  0.19249000  0.69174300  0.54536600  1
  O  O34  1  0.14193600  0.64568900  0.28825600  1
  O  O35  1  0.86121000  0.36018400  0.21214000  1
loop_
_geom_bond_atom_site_label_1
_geom_bond_atom_site_label_2
_geom_bond_distance
_geom_bond_site_symmetry_2
Li0 O1 2.036365 1_455
Li0 O30 2.037738 1_555
Li0 O26 2.178608 1_455
Li0 O21 2.180393 1_565
Li0 O4 2.192291 1_555
Li0 O8 2.197424 1_555
Li1 O3 2.082500 1_555
Li1 O10 2.083920 1_555
Li1 O6 2.085173 1_455
Li1 O19 2.088573 1_565
Li1 O28 2.112186 1_565
Li1 O23 2.113623 1_455
Li2 O11 2.055273 1_555
Li2 O6 2.058052 1_555
Li2 O0 2.149059 1_555
Li2 O28 2.149571 1_565
Li2 O10 2.205507 1_555
Li2 O15 2.210852 1_565
Li3 O34 2.035188 1_655
Li3 O5 2.038256 1_555
Li3 O27 2.176946 1_555
Li3 O9 2.185014 1_655
Li3 O31 2.185294 1_555
Li3 O14 2.189899 1_545
Li4 O13 2.071604 1_555
Li4 O26 2.074276 1_555
Li4 O8 2.109175 1_655
Li4 O17 2.111486 1_545
Li4 O30 2.119712 1_545
Li4 O33 2.120208 1_655
Li5 O0 2.035487 1_655
Li5 O28 2.039137 1_555
Li5 O10 2.176426 1_655
Li5 O6 2.176833 1_555
Li5 O11 2.178951 1_555
Li5 O15 2.185074 1_555
Li6 O13 2.056518 1_555
Li6 O18 2.062111 1_555
Li6 O2 2.132190 1_455
Li6 O33 2.141423 1_555
Li6 O22 2.200741 1_555
Li6 O17 2.219061 1_445
Li7 O12 2.036172 1_556
Li7 O23 2.042578 1_565
Li7 O19 2.169731 1_565
Li7 O3 2.177916 1_555
Li7 O32 2.186235 1_566
Li7 O16 2.196682 1_556
Li8 O24 2.076612 1_555
Li8 O14 2.083046 1_555
Li8 O20 2.089457 1_555
Li8 O34 2.104914 1_555
Li8 O31 2.112077 1_565
Li8 O35 2.134182 1_565
Li9 O2 2.036724 1_555
Li9 O33 2.037552 1_545
Li9 O18 2.177603 1_555
Li9 O13 2.179004 1_555
Li9 O17 2.192194 1_545
Li9 O22 2.198874 1_545
Li10 O3 2.058444 1_555
Li10 O16 2.059114 1_556
Li10 O23 2.134393 1_555
Li10 O12 2.147949 1_656
Li10 O32 2.181027 1_556
Li10 O19 2.202528 1_665
Li11 O25 2.050300 1_545
Li11 O20 2.059468 1_645
Li11 O7 2.133894 1_545
Li11 O35 2.162379 1_555
Li11 O24 2.175719 1_545
Li11 O29 2.216087 1_655
Li12 O7 2.032109 1_555
Li12 O35 2.034786 1_455
Li12 O20 2.167928 1_555
Li12 O25 2.177741 1_455
Li12 O24 2.180837 1_555
Li12 O29 2.194130 1_555
Li13 O26 2.060493 1_545
Li13 O21 2.061127 1_655
Li13 O1 2.129690 1_555
Li13 O30 2.136592 1_545
Li13 O4 2.198521 1_545
Li13 O8 2.222262 1_655
Li14 O4 2.053299 1_555
Li14 O8 2.060288 1_555
Li14 O1 2.131279 1_555
Li14 O30 2.144441 1_545
Li14 O26 2.163976 1_555
Li14 O21 2.194424 1_555
Li15 O31 2.053279 1_555
Li15 O27 2.054659 1_555
Li15 O5 2.142101 1_565
Li15 O34 2.147187 1_555
Li15 O14 2.192275 1_555
Li15 O9 2.212460 1_555
Li16 O14 2.057926 1_455
Li16 O9 2.064075 1_565
Li16 O34 2.111411 1_555
Li16 O5 2.147321 1_565
Li16 O27 2.170444 1_455
Li16 O31 2.218045 1_565
Li17 O10 2.057161 1_565
Li17 O15 2.059284 1_465
Li17 O28 2.133647 1_565
Li17 O0 2.156998 1_555
Li17 O11 2.179382 1_565
Li17 O6 2.203782 1_455
Li18 O32 2.055789 1_556
Li18 O19 2.063056 1_555
Li18 O12 2.138138 1_556
Li18 O23 2.143581 1_455
Li18 O3 2.202024 1_555
Li18 O16 2.214446 1_446
Li19 O11 2.072986 1_555
Li19 O21 2.078018 1_555
Li19 O15 2.095910 1_555
Li19 O1 2.110288 1_555
Li19 O4 2.116233 1_545
Li19 O0 2.130665 1_545
Li20 O22 2.054465 1_555
Li20 O17 2.060917 1_555
Li20 O2 2.138297 1_555
Li20 O33 2.138589 1_655
Li20 O13 2.161729 1_555
Li20 O18 2.192606 1_665
Li21 O27 2.070095 1_455
Li21 O18 2.077051 1_565
Li21 O9 2.106112 1_555
Li21 O22 2.110570 1_555
Li21 O2 2.112980 1_455
Li21 O5 2.127459 1_565
Li22 O24 2.054999 1_555
Li22 O29 2.056573 1_555
Li22 O35 2.142885 1_555
Li22 O7 2.156033 1_545
Li22 O25 2.169028 1_555
Li22 O20 2.216194 1_545
Li23 O32 2.069904 1_555
Li23 O25 2.070648 1_555
Li23 O29 2.108362 1_655
Li23 O16 2.113933 1_545
Li23 O12 2.116674 1_655
Li23 O7 2.121570 1_545
Mn0 O11 1.923466 1_555
Mn0 O21 1.928597 1_555
Mn0 O4 1.942571 1_555
Mn0 O1 1.943000 1_455
Mn0 O0 1.943562 1_555
Mn0 O15 1.946072 1_455
Mn1 O27 1.924511 1_555
Mn1 O18 1.924787 1_665
Mn1 O22 1.942735 1_555
Mn1 O5 1.943706 1_565
Mn1 O2 1.943952 1_565
Mn1 O9 1.947900 1_665
Mn2 O10 1.932160 1_555
Mn2 O3 1.933123 1_555
Mn2 O23 1.947062 1_555
Mn2 O19 1.947270 1_555
Mn2 O6 1.947734 1_555
Mn2 O28 1.948835 1_555
Mn3 O32 1.923270 1_555
Mn3 O25 1.924134 1_555
Mn3 O12 1.942287 1_555
Mn3 O16 1.944869 1_555
Mn3 O7 1.946467 1_555
Mn3 O29 1.949507 1_555
Mn4 O24 1.925768 1_555
Mn4 O14 1.931280 1_555
Mn4 O34 1.941941 1_655
Mn4 O31 1.943023 1_555
Mn4 O35 1.943638 1_555
Mn4 O20 1.945379 1_655
Mn5 O19 1.933315 1_665
Mn5 O6 1.934907 1_555
Mn5 O3 1.944273 1_555
Mn5 O10 1.944883 1_665
Mn5 O28 1.946285 1_565
Mn5 O23 1.947114 1_565
Mn6 O26 1.923527 1_555
Mn6 O13 1.924471 1_555
Mn6 O33 1.943054 1_555
Mn6 O30 1.944749 1_555
Mn6 O17 1.945376 1_555
Mn6 O8 1.945387 1_555
Cr0 O4 1.908182 1_555
Cr0 O15 1.911036 1_565
Cr0 O0 1.951231 1_655
Cr0 O21 1.960322 1_665
Cr0 O11 1.981935 1_555
Cr0 O1 1.982624 1_555
Cr1 O22 1.905408 1_555
Cr1 O9 1.907033 1_555
Cr1 O5 1.960109 1_555
Cr1 O18 1.966608 1_555
Cr1 O2 1.975671 1_555
Cr1 O27 1.979135 1_555
Cr2 O16 1.901201 1_445
Cr2 O29 1.904809 1_555
Cr2 O7 1.965147 1_545
Cr2 O32 1.972035 1_555
Cr2 O12 1.972113 1_545
Cr2 O25 1.978190 1_445
Cr3 O17 1.898620 1_445
Cr3 O8 1.899661 1_555
Cr3 O30 1.969092 1_545
Cr3 O33 1.970431 1_545
Cr3 O13 1.979474 1_555
Cr3 O26 1.979705 1_445
Cr4 O31 1.919193 1_555
Cr4 O20 1.924332 1_545
Cr4 O35 1.940668 1_455
Cr4 O14 1.941035 1_445
Cr4 O24 1.980462 1_555
Cr4 O34 1.985040 1_555
