# generated using pymatgen
data_Dy2Ge2O7
_symmetry_space_group_name_H-M   'P 1'
_cell_length_a   6.87136900
_cell_length_b   6.87136900
_cell_length_c   12.51820700
_cell_angle_alpha   90.00000000
_cell_angle_beta   90.00000000
_cell_angle_gamma   90.00000000
_symmetry_Int_Tables_number   1
_chemical_formula_structural   Dy2Ge2O7
_chemical_formula_sum   'Dy8 Ge8 O28'
_cell_volume   591.05605564
_cell_formula_units_Z   4
loop_
 _symmetry_equiv_pos_site_id
 _symmetry_equiv_pos_as_xyz
  1  'x, y, z'
loop_
 _atom_site_type_symbol
 _atom_site_label
 _atom_site_symmetry_multiplicity
 _atom_site_fract_x
 _atom_site_fract_y
 _atom_site_fract_z
 _atom_site_occupancy
  Dy  Dy0  1  0.12462000  0.64668200  0.63540500  1
  Dy  Dy1  1  0.14668200  0.37538000  0.38540500  1
  Dy  Dy2  1  0.35331800  0.87538000  0.86459500  1
  Dy  Dy3  1  0.37538000  0.14668200  0.61459500  1
  Dy  Dy4  1  0.62462000  0.85331800  0.11459500  1
  Dy  Dy5  1  0.64668200  0.12462000  0.36459500  1
  Dy  Dy6  1  0.85331800  0.62462000  0.88540500  1
  Dy  Dy7  1  0.87538000  0.35331800  0.13540500  1
  Ge  Ge0  1  0.09930300  0.84835400  0.11901700  1
  Ge  Ge1  1  0.15164600  0.90069700  0.38098300  1
  Ge  Ge2  1  0.34835400  0.40069700  0.86901700  1
  Ge  Ge3  1  0.40069700  0.34835400  0.13098300  1
  Ge  Ge4  1  0.59930300  0.65164600  0.63098300  1
  Ge  Ge5  1  0.65164600  0.59930300  0.36901700  1
  Ge  Ge6  1  0.84835400  0.09930300  0.88098300  1
  Ge  Ge7  1  0.90069700  0.15164600  0.61901700  1
  O  O0  1  0.03155200  0.92143300  0.87716500  1
  O  O1  1  0.06357800  0.33809800  0.57093100  1
  O  O2  1  0.07856700  0.96844800  0.62283500  1
  O  O3  1  0.14360100  0.68355800  0.45536200  1
  O  O4  1  0.16190200  0.56357800  0.82093100  1
  O  O5  1  0.18355800  0.35639900  0.20536200  1
  O  O6  1  0.19667100  0.80332900  0.25000000  1
  O  O7  1  0.30332900  0.30332900  0.00000000  1
  O  O8  1  0.31644200  0.85639900  0.04463800  1
  O  O9  1  0.33809800  0.06357800  0.42906900  1
  O  O10  1  0.35639900  0.18355800  0.79463800  1
  O  O11  1  0.42143300  0.46844800  0.62716500  1
  O  O12  1  0.43642200  0.83809800  0.67906900  1
  O  O13  1  0.46844800  0.42143300  0.37283500  1
  O  O14  1  0.53155200  0.57856700  0.87283500  1
  O  O15  1  0.56357800  0.16190200  0.17906900  1
  O  O16  1  0.57856700  0.53155200  0.12716500  1
  O  O17  1  0.64360100  0.81644200  0.29463800  1
  O  O18  1  0.66190200  0.93642200  0.92906900  1
  O  O19  1  0.68355800  0.14360100  0.54463800  1
  O  O20  1  0.69667100  0.69667100  0.50000000  1
  O  O21  1  0.80332900  0.19667100  0.75000000  1
  O  O22  1  0.81644200  0.64360100  0.70536200  1
  O  O23  1  0.83809800  0.43642200  0.32093100  1
  O  O24  1  0.85639900  0.31644200  0.95536200  1
  O  O25  1  0.92143300  0.03155200  0.12283500  1
  O  O26  1  0.93642200  0.66190200  0.07093100  1
  O  O27  1  0.96844800  0.07856700  0.37716500  1
loop_
_geom_bond_atom_site_label_1
_geom_bond_atom_site_label_2
_geom_bond_distance
_geom_bond_site_symmetry_2
Dy0 O2 2.239040 1_555
Dy0 O3 2.271762 1_555
Dy0 O22 2.291640 1_455
Dy0 O1 2.307252 1_555
Dy0 O11 2.381211 1_555
Dy0 O4 2.405307 1_555
Dy0 O12 2.572759 1_555
Dy1 O13 2.239040 1_555
Dy1 O5 2.271762 1_555
Dy1 O3 2.291640 1_555
Dy1 O23 2.307252 1_455
Dy1 O27 2.381211 1_455
Dy1 O1 2.405307 1_555
Dy1 O9 2.572759 1_555
Dy2 O0 2.239040 1_555
Dy2 O8 2.271762 1_556
Dy2 O10 2.291640 1_565
Dy2 O18 2.307252 1_555
Dy2 O14 2.381211 1_555
Dy2 O12 2.405307 1_555
Dy2 O4 2.572759 1_555
Dy3 O11 2.239040 1_555
Dy3 O10 2.271762 1_555
Dy3 O19 2.291640 1_555
Dy3 O12 2.307252 1_545
Dy3 O2 2.381211 1_545
Dy3 O9 2.405307 1_555
Dy3 O1 2.572759 1_555
Dy4 O16 2.239040 1_555
Dy4 O17 2.271762 1_555
Dy4 O8 2.291640 1_555
Dy4 O15 2.307252 1_565
Dy4 O25 2.381211 1_565
Dy4 O18 2.405307 1_554
Dy4 O26 2.572759 1_555
Dy5 O27 2.239040 1_555
Dy5 O19 2.271762 1_555
Dy5 O17 2.291640 1_545
Dy5 O9 2.307252 1_555
Dy5 O13 2.381211 1_555
Dy5 O15 2.405307 1_555
Dy5 O23 2.572759 1_555
Dy6 O14 2.239040 1_555
Dy6 O22 2.271762 1_555
Dy6 O24 2.291640 1_555
Dy6 O4 2.307252 1_655
Dy6 O0 2.381211 1_655
Dy6 O26 2.405307 1_556
Dy6 O18 2.572759 1_555
Dy7 O25 2.239040 1_555
Dy7 O24 2.271762 1_554
Dy7 O5 2.291640 1_655
Dy7 O26 2.307252 1_555
Dy7 O16 2.381211 1_555
Dy7 O23 2.405307 1_555
Dy7 O15 2.572759 1_555
Ge0 O25 1.755196 1_465
Ge0 O8 1.759596 1_555
Ge0 O6 1.797741 1_555
Ge0 O26 1.804553 1_455
Ge1 O27 1.755196 1_465
Ge1 O3 1.759596 1_555
Ge1 O6 1.797741 1_555
Ge1 O9 1.804553 1_565
Ge2 O14 1.755196 1_555
Ge2 O10 1.759596 1_555
Ge2 O7 1.797741 1_556
Ge2 O4 1.804553 1_555
Ge3 O16 1.755196 1_555
Ge3 O5 1.759596 1_555
Ge3 O7 1.797741 1_555
Ge3 O15 1.804553 1_555
Ge4 O11 1.755196 1_555
Ge4 O22 1.759596 1_555
Ge4 O20 1.797741 1_555
Ge4 O12 1.804553 1_555
Ge5 O13 1.755196 1_555
Ge5 O17 1.759596 1_555
Ge5 O20 1.797741 1_555
Ge5 O23 1.804553 1_555
Ge6 O0 1.755196 1_645
Ge6 O24 1.759596 1_555
Ge6 O21 1.797741 1_555
Ge6 O18 1.804553 1_545
Ge7 O2 1.755196 1_645
Ge7 O19 1.759596 1_555
Ge7 O21 1.797741 1_555
Ge7 O1 1.804553 1_655
