# generated using pymatgen
data_LiCrPO4
_symmetry_space_group_name_H-M   'P 1'
_cell_length_a   5.12072600
_cell_length_b   9.24874900
_cell_length_c   6.44572100
_cell_angle_alpha   90.00024834
_cell_angle_beta   89.99995096
_cell_angle_gamma   89.99993546
_symmetry_Int_Tables_number   1
_chemical_formula_structural   LiCrPO4
_chemical_formula_sum   'Li4 Cr4 P4 O16'
_cell_volume   305.27134133
_cell_formula_units_Z   4
loop_
 _symmetry_equiv_pos_site_id
 _symmetry_equiv_pos_as_xyz
  1  'x, y, z'
loop_
 _atom_site_type_symbol
 _atom_site_label
 _atom_site_symmetry_multiplicity
 _atom_site_fract_x
 _atom_site_fract_y
 _atom_site_fract_z
 _atom_site_occupancy
  Li  Li0  1  0.00000500  0.00000700  0.00000100  1
  Li  Li1  1  0.00000600  0.00000800  0.49999700  1
  Li  Li2  1  0.49999000  0.50000500  0.00000200  1
  Li  Li3  1  0.49999200  0.50000500  0.49999700  1
  Cr  Cr0  1  0.94970000  0.36193700  0.24999900  1
  Cr  Cr1  1  0.55027200  0.86193700  0.25000400  1
  Cr  Cr2  1  0.44960600  0.13798900  0.75000500  1
  Cr  Cr3  1  0.05043600  0.63799700  0.74999800  1
  P  P0  1  0.46339200  0.18839500  0.24999900  1
  P  P1  1  0.96341500  0.31161400  0.74999700  1
  P  P2  1  0.03660400  0.68839500  0.24999900  1
  P  P3  1  0.53658600  0.81161400  0.75000000  1
  O  O0  1  0.76365800  0.15958500  0.25000400  1
  O  O1  1  0.26368800  0.34043000  0.74999900  1
  O  O2  1  0.73634300  0.65958500  0.25000200  1
  O  O3  1  0.23631700  0.84043300  0.75000200  1
  O  O4  1  0.90286000  0.14644700  0.75000000  1
  O  O5  1  0.40281400  0.35356700  0.25000400  1
  O  O6  1  0.59714800  0.64644500  0.74999600  1
  O  O7  1  0.09718100  0.85356600  0.25000000  1
  O  O8  1  0.34036900  0.11421300  0.05684100  1
  O  O9  1  0.34036900  0.11421200  0.44315700  1
  O  O10  1  0.84040500  0.38579600  0.94316900  1
  O  O11  1  0.84040400  0.38579600  0.55682900  1
  O  O12  1  0.15963300  0.61421500  0.05684000  1
  O  O13  1  0.15963300  0.61421200  0.44315700  1
  O  O14  1  0.65958800  0.88579900  0.55683100  1
  O  O15  1  0.65958800  0.88579700  0.94317000  1
loop_
_geom_bond_atom_site_label_1
_geom_bond_atom_site_label_2
_geom_bond_distance
_geom_bond_site_symmetry_2
Li0 O8 2.070667 1_555
Li0 O15 2.070904 1_444
Li0 O4 2.163000 1_454
Li0 O7 2.163033 1_545
Li0 O3 2.497826 1_544
Li0 O0 2.497952 1_455
Li1 O9 2.070654 1_555
Li1 O14 2.070908 1_445
Li1 O4 2.162996 1_455
Li1 O7 2.163019 1_545
Li1 O3 2.497864 1_545
Li1 O0 2.497917 1_455
Li2 O12 2.070651 1_555
Li2 O10 2.070890 1_554
Li2 O5 2.163030 1_555
Li2 O6 2.163040 1_554
Li2 O1 2.497827 1_554
Li2 O2 2.497968 1_555
Li3 O13 2.070650 1_555
Li3 O11 2.070878 1_555
Li3 O5 2.162981 1_555
Li3 O6 2.162996 1_555
Li3 O1 2.497834 1_555
Li3 O2 2.497949 1_555
Cr0 O11 2.067216 1_555
Cr0 O10 2.067217 1_554
Cr0 O0 2.100026 1_555
Cr0 O5 2.321564 1_655
Cr1 O14 2.067229 1_555
Cr1 O15 2.067271 1_554
Cr1 O2 2.100091 1_555
Cr1 O7 2.321446 1_555
Cr2 O8 2.067091 1_556
Cr2 O9 2.067165 1_555
Cr2 O1 2.100469 1_555
Cr2 O4 2.322308 1_555
Cr3 O13 2.067074 1_555
Cr3 O12 2.067079 1_556
Cr3 O3 2.100344 1_555
Cr3 O6 2.322478 1_455
O0 P0 1.560497 1_555
O1 P1 1.560542 1_455
O2 P2 1.560472 1_655
O3 P3 1.560526 1_555
O4 P1 1.558743 1_555
O5 P0 1.558811 1_555
O6 P3 1.558768 1_555
O7 P2 1.558802 1_555
O8 P0 1.554897 1_555
O9 P0 1.554905 1_555
O10 P1 1.554941 1_555
O11 P1 1.554928 1_555
O12 P2 1.554905 1_555
O13 P2 1.554918 1_555
O14 P3 1.554926 1_555
O15 P3 1.554920 1_555
