# generated using pymatgen
data_CuNi3O4
_symmetry_space_group_name_H-M   'P 1'
_cell_length_a   5.86304942
_cell_length_b   5.86277859
_cell_length_c   6.07257645
_cell_angle_alpha   61.13640297
_cell_angle_beta   61.13483863
_cell_angle_gamma   90.00069791
_symmetry_Int_Tables_number   1
_chemical_formula_structural   CuNi3O4
_chemical_formula_sum   'Cu2 Ni6 O8'
_cell_volume   152.52431614
_cell_formula_units_Z   2
loop_
 _symmetry_equiv_pos_site_id
 _symmetry_equiv_pos_as_xyz
  1  'x, y, z'
loop_
 _atom_site_type_symbol
 _atom_site_label
 _atom_site_symmetry_multiplicity
 _atom_site_fract_x
 _atom_site_fract_y
 _atom_site_fract_z
 _atom_site_occupancy
  Cu  Cu0  1  0.99998300  0.49998100  0.00003000  1
  Cu  Cu1  1  0.49998000  0.49999900  0.99998800  1
  Ni  Ni0  1  0.50000200  0.99999700  0.00000000  1
  Ni  Ni1  1  0.00001000  0.00000300  0.49999700  1
  Ni  Ni2  1  0.50000500  0.00000700  0.49999300  1
  Ni  Ni3  1  0.99999600  0.00000000  0.99999900  1
  Ni  Ni4  1  0.00001000  0.50000700  0.49999500  1
  Ni  Ni5  1  0.50001100  0.50000400  0.49999700  1
  O  O0  1  0.72752300  0.22743400  0.54496100  1
  O  O1  1  0.22768800  0.22776600  0.54463200  1
  O  O2  1  0.27248500  0.77256600  0.45503800  1
  O  O3  1  0.77231900  0.77223900  0.45536800  1
  O  O4  1  0.75031600  0.26341400  0.99996900  1
  O  O5  1  0.24976400  0.26340300  0.99997200  1
  O  O6  1  0.75023100  0.73659000  0.00002900  1
  O  O7  1  0.24967800  0.73659000  0.00003200  1
loop_
_geom_bond_atom_site_label_1
_geom_bond_atom_site_label_2
_geom_bond_distance
_geom_bond_site_symmetry_2
Cu0 O4 2.016758 1_554
Cu0 O7 2.016802 1_655
Cu0 O5 2.017053 1_654
Cu0 O6 2.017061 1_555
Cu0 O0 2.417985 1_555
Cu0 O2 2.418255 1_654
Cu1 O5 2.019026 1_555
Cu1 O6 2.019258 1_556
Cu1 O7 2.019325 1_556
Cu1 O4 2.019449 1_555
Cu1 O3 2.416605 1_555
Cu1 O1 2.416711 1_556
Ni0 O2 2.019109 1_555
Ni0 O0 2.019113 1_564
Ni0 O6 2.130092 1_555
Ni0 O5 2.130124 1_564
Ni0 O7 2.130320 1_555
Ni0 O4 2.130327 1_564
Ni1 O2 2.082080 1_545
Ni1 O0 2.082107 1_455
Ni1 O1 2.082597 1_555
Ni1 O3 2.082628 1_445
Ni1 O5 2.220114 1_554
Ni1 O6 2.220147 1_446
Ni2 O0 2.082066 1_555
Ni2 O2 2.082073 1_545
Ni2 O1 2.082621 1_555
Ni2 O3 2.082640 1_545
Ni2 O4 2.220111 1_554
Ni2 O7 2.220178 1_546
Ni3 O1 2.020569 1_655
Ni3 O3 2.020577 1_546
Ni3 O7 2.127897 1_646
Ni3 O4 2.127906 1_555
Ni3 O5 2.128080 1_655
Ni3 O6 2.128085 1_546
Ni4 O1 2.081973 1_555
Ni4 O3 2.081985 1_455
Ni4 O2 2.082732 1_555
Ni4 O0 2.082806 1_455
Ni4 O7 2.219843 1_555
Ni4 O4 2.219891 1_455
Ni5 O3 2.081921 1_555
Ni5 O1 2.081973 1_555
Ni5 O0 2.082784 1_555
Ni5 O2 2.082807 1_555
Ni5 O6 2.219865 1_555
Ni5 O5 2.219893 1_555
