# generated using pymatgen
data_Li8Fe(O2F)2
_symmetry_space_group_name_H-M   'P 1'
_cell_length_a   5.82389284
_cell_length_b   9.00614473
_cell_length_c   12.07763273
_cell_angle_alpha   104.17013827
_cell_angle_beta   91.56185311
_cell_angle_gamma   90.07758836
_symmetry_Int_Tables_number   1
_chemical_formula_structural   Li8Fe(O2F)2
_chemical_formula_sum   'Li32 Fe4 O16 F8'
_cell_volume   613.95761330
_cell_formula_units_Z   4
loop_
 _symmetry_equiv_pos_site_id
 _symmetry_equiv_pos_as_xyz
  1  'x, y, z'
loop_
 _atom_site_type_symbol
 _atom_site_label
 _atom_site_symmetry_multiplicity
 _atom_site_fract_x
 _atom_site_fract_y
 _atom_site_fract_z
 _atom_site_occupancy
  Li  Li0  1  0.29336400  0.19209200  0.17360100  1
  Li  Li1  1  0.79337200  0.69205800  0.17365300  1
  Li  Li2  1  0.04333500  0.44214600  0.67296900  1
  Li  Li3  1  0.54320600  0.94226800  0.67307300  1
  Li  Li4  1  0.95675600  0.55788900  0.32695300  1
  Li  Li5  1  0.45669900  0.05789400  0.32708900  1
  Li  Li6  1  0.70653800  0.80799000  0.82635400  1
  Li  Li7  1  0.20664100  0.30778700  0.82628300  1
  Li  Li8  1  0.96446600  0.23054400  0.30741700  1
  Li  Li9  1  0.46432400  0.73064600  0.30744600  1
  Li  Li10  1  0.71439200  0.48067200  0.80690000  1
  Li  Li11  1  0.21429300  0.98061400  0.80703800  1
  Li  Li12  1  0.28559300  0.51937700  0.19292200  1
  Li  Li13  1  0.78562300  0.01924800  0.19303300  1
  Li  Li14  1  0.03550200  0.76935400  0.69258700  1
  Li  Li15  1  0.53557900  0.26946600  0.69242700  1
  Li  Li16  1  0.52073200  0.42556400  0.35689500  1
  Li  Li17  1  0.02067100  0.92540900  0.35698700  1
  Li  Li18  1  0.27059400  0.67551600  0.85653000  1
  Li  Li19  1  0.77061600  0.17556500  0.85641400  1
  Li  Li20  1  0.72934400  0.32451800  0.14360600  1
  Li  Li21  1  0.22946600  0.82444800  0.14360400  1
  Li  Li22  1  0.47930000  0.57459000  0.64301000  1
  Li  Li23  1  0.97920600  0.07430900  0.64304100  1
  Li  Li24  1  0.08588600  0.30965900  0.05022300  1
  Li  Li25  1  0.58595200  0.80962600  0.05021100  1
  Li  Li26  1  0.83588100  0.56026900  0.54992700  1
  Li  Li27  1  0.33586100  0.06006100  0.55003900  1
  Li  Li28  1  0.16412000  0.43991500  0.44989600  1
  Li  Li29  1  0.66409000  0.93986500  0.45007600  1
  Li  Li30  1  0.91405500  0.69024400  0.94973300  1
  Li  Li31  1  0.41398200  0.19031700  0.94970900  1
  Fe  Fe0  1  0.50001000  0.50005300  0.99998100  1
  Fe  Fe1  1  0.24999000  0.75001400  0.50010300  1
  Fe  Fe2  1  0.00001300  0.99997500  0.00004500  1
  Fe  Fe3  1  0.75030500  0.25006900  0.50012400  1
  O  O0  1  0.95754700  0.17255600  0.13871300  1
  O  O1  1  0.45764900  0.67260600  0.13871800  1
  O  O2  1  0.70749000  0.42320200  0.63822100  1
  O  O3  1  0.20725400  0.92318000  0.63844600  1
  O  O4  1  0.29269500  0.57688600  0.36167200  1
  O  O5  1  0.79265000  0.07689100  0.36188200  1
  O  O6  1  0.04231800  0.82744400  0.86127800  1
  O  O7  1  0.54243200  0.32744000  0.86128600  1
  O  O8  1  0.41956800  0.33905100  0.09726100  1
  O  O9  1  0.91969200  0.83900700  0.09729100  1
  O  O10  1  0.16966400  0.58872700  0.59731300  1
  O  O11  1  0.66954900  0.08879700  0.59737300  1
  O  O12  1  0.83041600  0.41121100  0.40265800  1
  O  O13  1  0.33028400  0.91131400  0.40272300  1
  O  O14  1  0.58040400  0.66102400  0.90273400  1
  O  O15  1  0.08032600  0.16095600  0.90272700  1
  F  F0  1  0.30332100  0.25070000  0.34362200  1
  F  F1  1  0.80329800  0.75091000  0.34401800  1
  F  F2  1  0.05438000  0.50134000  0.84254300  1
  F  F3  1  0.55396900  0.00127600  0.84221500  1
  F  F4  1  0.94606600  0.49872300  0.15777200  1
  F  F5  1  0.44582700  0.99837200  0.15747800  1
  F  F6  1  0.69676600  0.74906800  0.65584900  1
  F  F7  1  0.19667700  0.24928400  0.65630800  1
loop_
_geom_bond_atom_site_label_1
_geom_bond_atom_site_label_2
_geom_bond_distance
_geom_bond_site_symmetry_2
Li0 O8 1.942636 1_555
Li0 O0 1.987802 1_455
Li1 O9 1.943001 1_555
Li1 O1 1.987333 1_555
Li2 O10 1.934832 1_555
Li2 O2 1.987504 1_455
Li3 O11 1.934836 1_565
Li3 O3 1.987919 1_555
Li4 O12 1.935938 1_555
Li4 O4 1.987998 1_655
Li5 O13 1.934848 1_545
Li5 O5 1.988212 1_555
Li6 O14 1.942842 1_555
Li6 O6 1.987637 1_655
Li7 O15 1.942789 1_555
Li7 O7 1.987919 1_555
Li8 O12 1.927735 1_555
Li8 O5 1.956211 1_555
Li8 O0 1.974952 1_555
Li9 O13 1.927892 1_555
Li9 O4 1.954897 1_555
Li9 O1 1.975249 1_555
Li10 O14 1.928492 1_555
Li10 O7 1.953158 1_555
Li10 O2 1.974611 1_555
Li11 O15 1.927669 1_565
Li11 O6 1.951841 1_555
Li11 O3 1.973585 1_555
Li12 O8 1.927452 1_555
Li12 O1 1.952279 1_555
Li12 O4 1.975434 1_555
Li13 O9 1.927546 1_545
Li13 O0 1.953171 1_555
Li13 O5 1.976605 1_555
Li14 O10 1.927919 1_555
Li14 O3 1.955202 1_555
Li14 O6 1.974816 1_555
Li15 O11 1.926646 1_555
Li15 O2 1.955453 1_555
Li15 O7 1.976762 1_555
Li16 O12 1.885821 1_555
Li16 O4 1.896038 1_555
Li17 O13 1.885008 1_555
Li17 O5 1.896820 1_465
Li18 O14 1.888213 1_555
Li18 O6 1.900950 1_555
Li19 O15 1.888190 1_655
Li19 O7 1.900044 1_555
Li20 O8 1.888567 1_555
Li20 O0 1.900649 1_555
Li21 O9 1.888478 1_455
Li21 O1 1.899807 1_555
Li22 O10 1.885055 1_555
Li22 O2 1.897069 1_555
Li23 O11 1.885519 1_555
Li23 O3 1.895125 1_645
Li24 O15 1.948509 1_554
Li24 O0 1.978053 1_455
Li24 O8 2.008516 1_555
Li25 O14 1.947917 1_554
Li25 O1 1.977550 1_555
Li25 O9 2.008948 1_555
Li26 O12 1.947957 1_555
Li26 O2 1.976262 1_555
Li26 O10 2.009534 1_655
Li27 O13 1.947071 1_545
Li27 O3 1.976449 1_545
Li27 O11 2.009004 1_555
Li28 O10 1.948254 1_555
Li28 O4 1.975435 1_555
Li28 O12 2.008814 1_455
Li29 O11 1.947681 1_565
Li29 O5 1.975521 1_565
Li29 O13 2.009620 1_555
Li30 O9 1.949313 1_556
Li30 O6 1.978243 1_655
Li30 O14 2.008143 1_555
Li31 O8 1.949141 1_556
Li31 O7 1.977873 1_555
Li31 O15 2.008202 1_555
Fe0 O1 2.008044 1_556
Fe0 O7 2.008075 1_555
Fe0 O14 2.135933 1_555
Fe0 O8 2.136513 1_556
Fe1 O3 2.008442 1_555
Fe1 O4 2.008905 1_555
Fe1 O10 2.137833 1_555
Fe1 O13 2.139367 1_555
Fe2 O0 2.007737 1_465
Fe2 O6 2.008118 1_554
Fe2 O9 2.135803 1_455
Fe2 O15 2.136516 1_564
Fe3 O2 2.006424 1_555
Fe3 O5 2.007382 1_555
Fe3 O11 2.138648 1_555
Fe3 O12 2.138712 1_555
F0 Li5 1.922801 1_555
F0 Li0 1.990323 1_555
F0 Li16 1.992232 1_555
F0 Li8 2.007937 1_455
F0 Li28 2.048952 1_555
F1 Li4 1.924058 1_555
F1 Li17 1.990044 1_655
F1 Li1 1.994365 1_555
F1 Li9 2.009401 1_555
F1 Li29 2.046249 1_555
F2 Li7 1.926032 1_555
F2 Li18 1.981951 1_555
F2 Li2 1.985200 1_555
F2 Li10 2.013425 1_455
F2 Li30 2.054596 1_455
F3 Li6 1.925269 1_545
F3 Li3 1.980133 1_545
F3 Li19 1.984008 1_555
F3 Li11 2.010729 1_545
F3 Li31 2.056222 1_555
F4 Li1 1.925970 1_555
F4 Li4 1.980609 1_555
F4 Li20 1.983752 1_555
F4 Li12 2.009824 1_655
F4 Li24 2.056250 1_655
F5 Li0 1.928081 1_565
F5 Li21 1.980918 1_555
F5 Li5 1.985677 1_565
F5 Li13 2.012231 1_565
F5 Li25 2.053561 1_555
F6 Li3 1.925557 1_555
F6 Li22 1.990449 1_555
F6 Li6 1.996006 1_555
F6 Li14 2.008398 1_655
F6 Li26 2.044359 1_555
F7 Li2 1.922984 1_555
F7 Li7 1.989775 1_555
F7 Li23 1.993232 1_455
F7 Li15 2.008037 1_555
F7 Li27 2.048934 1_555
