# generated using pymatgen
data_Co6OF11
_symmetry_space_group_name_H-M   'P 1'
_cell_length_a   10.50284079
_cell_length_b   10.50284079
_cell_length_c   3.20603100
_cell_angle_alpha   90.00000000
_cell_angle_beta   90.00000000
_cell_angle_gamma   142.45768313
_symmetry_Int_Tables_number   1
_chemical_formula_structural   Co6OF11
_chemical_formula_sum   'Co6 O1 F11'
_cell_volume   215.49942125
_cell_formula_units_Z   1
loop_
 _symmetry_equiv_pos_site_id
 _symmetry_equiv_pos_as_xyz
  1  'x, y, z'
loop_
 _atom_site_type_symbol
 _atom_site_label
 _atom_site_symmetry_multiplicity
 _atom_site_fract_x
 _atom_site_fract_y
 _atom_site_fract_z
 _atom_site_occupancy
  Co  Co0  1  0.00104400  0.99895600  0.00000000  1
  Co  Co1  1  0.49182500  0.50817400  0.50000000  1
  Co  Co2  1  0.66329100  0.33670900  0.00000000  1
  Co  Co3  1  0.83176600  0.16823400  0.50000000  1
  Co  Co4  1  0.16970500  0.83029500  0.50000000  1
  Co  Co5  1  0.34142100  0.65857900  0.00000000  1
  O  O0  1  0.40267600  0.59732400  0.50000000  1
  F  F0  1  0.69652800  0.69302400  0.00000000  1
  F  F1  1  0.30697600  0.30347200  0.00000000  1
  F  F2  1  0.96851900  0.63556100  0.00000000  1
  F  F3  1  0.59493900  0.40506100  0.50000000  1
  F  F4  1  0.72888500  0.27111500  0.50000000  1
  F  F5  1  0.06628000  0.93372000  0.50000000  1
  F  F6  1  0.36443900  0.03148100  0.00000000  1
  F  F7  1  0.63809300  0.97288300  0.00000000  1
  F  F8  1  0.93529300  0.06470700  0.50000000  1
  F  F9  1  0.27097300  0.72902700  0.50000000  1
  F  F10  1  0.02711700  0.36190700  0.00000000  1
loop_
_geom_bond_atom_site_label_1
_geom_bond_atom_site_label_2
_geom_bond_distance
_geom_bond_site_symmetry_2
Co0 F5 2.062283 1_554
Co0 F5 2.062283 1_555
Co0 F1 2.063179 1_565
Co0 F0 2.063179 1_455
Co0 F8 2.068742 1_464
Co0 F8 2.068742 1_465
Co1 O0 1.773043 1_555
Co1 F3 2.050764 1_555
Co1 F1 2.083742 1_556
Co1 F1 2.083742 1_555
Co1 F0 2.083746 1_556
Co1 F0 2.083746 1_555
Co2 F2 2.042593 1_555
Co2 F6 2.042593 1_555
Co2 F4 2.066770 1_554
Co2 F4 2.066770 1_555
Co2 F3 2.101824 1_554
Co2 F3 2.101824 1_555
Co3 F4 2.046140 1_555
Co3 F8 2.058988 1_555
Co3 F10 2.073305 1_656
Co3 F10 2.073305 1_655
Co3 F7 2.073305 1_546
Co3 F7 2.073305 1_545
Co4 F9 2.014060 1_555
Co4 F5 2.056960 1_555
Co4 F6 2.089082 1_565
Co4 F6 2.089082 1_566
Co4 F2 2.089082 1_455
Co4 F2 2.089082 1_456
Co5 O0 2.013412 1_554
Co5 O0 2.013412 1_555
Co5 F7 2.072346 1_555
Co5 F10 2.072346 1_555
Co5 F9 2.129023 1_555
Co5 F9 2.129023 1_554
