# generated using pymatgen
data_Li4Cr3GaO8
_symmetry_space_group_name_H-M   'P 1'
_cell_length_a   5.11581375
_cell_length_b   5.16349561
_cell_length_c   11.84178665
_cell_angle_alpha   89.99961441
_cell_angle_beta   90.00033405
_cell_angle_gamma   70.69563731
_symmetry_Int_Tables_number   1
_chemical_formula_structural   Li4Cr3GaO8
_chemical_formula_sum   'Li8 Cr6 Ga2 O16'
_cell_volume   295.21919950
_cell_formula_units_Z   2
loop_
 _symmetry_equiv_pos_site_id
 _symmetry_equiv_pos_as_xyz
  1  'x, y, z'
loop_
 _atom_site_type_symbol
 _atom_site_label
 _atom_site_symmetry_multiplicity
 _atom_site_fract_x
 _atom_site_fract_y
 _atom_site_fract_z
 _atom_site_occupancy
  Li  Li0  1  0.00000200  0.99999100  0.49999900  1
  Li  Li1  1  0.99999900  0.00001600  0.00000000  1
  Li  Li2  1  0.00000800  0.00000200  0.25000200  1
  Li  Li3  1  0.00000500  0.99999600  0.74999900  1
  Li  Li4  1  0.49998300  0.00001000  0.12499900  1
  Li  Li5  1  0.49999600  0.99999500  0.62499700  1
  Li  Li6  1  0.49999300  0.99999500  0.37499900  1
  Li  Li7  1  0.49999200  0.00000200  0.87500400  1
  Cr  Cr0  1  0.50000300  0.49997000  0.24999200  1
  Cr  Cr1  1  0.00001000  0.49997800  0.62468900  1
  Cr  Cr2  1  0.00000500  0.50002700  0.87530600  1
  Cr  Cr3  1  0.50002500  0.49997500  0.75000200  1
  Cr  Cr4  1  0.99999100  0.50005900  0.12470000  1
  Cr  Cr5  1  0.00000500  0.49999000  0.37530800  1
  Ga  Ga0  1  0.49997500  0.50002600  0.49999500  1
  Ga  Ga1  1  0.50000200  0.49998700  0.00000000  1
  O  O0  1  0.24402500  0.27361200  0.00001100  1
  O  O1  1  0.24404200  0.27355800  0.49999600  1
  O  O2  1  0.75595900  0.72641200  0.49999700  1
  O  O3  1  0.75594600  0.72644300  0.00000400  1
  O  O4  1  0.24088400  0.27361700  0.24999800  1
  O  O5  1  0.24090500  0.27360100  0.75000200  1
  O  O6  1  0.75909200  0.72640400  0.25000700  1
  O  O7  1  0.75909900  0.72639000  0.74999600  1
  O  O8  1  0.25872600  0.72643700  0.12441400  1
  O  O9  1  0.25872900  0.72639700  0.62441700  1
  O  O10  1  0.74129200  0.27358500  0.12441100  1
  O  O11  1  0.74127200  0.27356900  0.62441300  1
  O  O12  1  0.25872700  0.72638800  0.37558100  1
  O  O13  1  0.25874000  0.72641800  0.87558800  1
  O  O14  1  0.74128200  0.27356900  0.37558400  1
  O  O15  1  0.74129200  0.27358200  0.87559100  1
loop_
_geom_bond_atom_site_label_1
_geom_bond_atom_site_label_2
_geom_bond_distance
_geom_bond_site_symmetry_2
Li0 O14 2.163718 1_465
Li0 O11 2.163753 1_465
Li0 O9 2.163793 1_555
Li0 O12 2.163834 1_555
Li0 O1 2.172554 1_565
Li0 O2 2.172618 1_455
Li1 O15 2.163615 1_554
Li1 O10 2.163662 1_555
Li1 O8 2.163726 1_645
Li1 O13 2.163806 1_644
Li1 O0 2.172623 1_655
Li1 O3 2.172632 1_545
Li2 O4 2.160005 1_555
Li2 O6 2.160092 1_445
Li2 O14 2.173161 1_455
Li2 O8 2.173189 1_545
Li2 O12 2.173208 1_545
Li2 O10 2.173227 1_455
Li3 O5 2.160058 1_565
Li3 O7 2.160086 1_455
Li3 O11 2.173198 1_465
Li3 O9 2.173231 1_555
Li3 O13 2.173238 1_555
Li3 O15 2.173260 1_465
Li4 O8 2.161367 1_545
Li4 O10 2.161585 1_555
Li4 O0 2.162857 1_555
Li4 O3 2.162865 1_545
Li4 O4 2.169290 1_555
Li4 O6 2.169357 1_545
Li5 O11 2.161448 1_565
Li5 O9 2.161516 1_555
Li5 O1 2.162863 1_565
Li5 O2 2.162943 1_555
Li5 O7 2.169270 1_555
Li5 O5 2.169320 1_565
Li6 O14 2.161500 1_565
Li6 O12 2.161551 1_555
Li6 O1 2.162848 1_565
Li6 O2 2.162909 1_555
Li6 O6 2.169196 1_555
Li6 O4 2.169337 1_565
Li7 O13 2.161395 1_545
Li7 O15 2.161571 1_555
Li7 O3 2.162846 1_546
Li7 O0 2.163071 1_556
Li7 O5 2.169248 1_555
Li7 O7 2.169390 1_545
Cr0 O4 2.036574 1_555
Cr0 O10 2.036574 1_555
Cr0 O14 2.036656 1_555
Cr0 O8 2.036658 1_555
Cr0 O12 2.036679 1_555
Cr0 O6 2.036775 1_555
Cr1 O5 2.033381 1_555
Cr1 O7 2.033453 1_455
Cr1 O1 2.034880 1_555
Cr1 O2 2.034917 1_455
Cr1 O9 2.035125 1_555
Cr1 O11 2.035166 1_455
Cr2 O7 2.033351 1_455
Cr2 O5 2.033430 1_555
Cr2 O0 2.034925 1_556
Cr2 O3 2.034974 1_456
Cr2 O13 2.035080 1_555
Cr2 O15 2.035206 1_455
Cr3 O15 2.036590 1_555
Cr3 O11 2.036594 1_555
Cr3 O7 2.036633 1_555
Cr3 O5 2.036663 1_555
Cr3 O9 2.036673 1_555
Cr3 O13 2.036720 1_555
Cr4 O6 2.033297 1_555
Cr4 O4 2.033373 1_655
Cr4 O3 2.034843 1_555
Cr4 O0 2.034902 1_655
Cr4 O8 2.035027 1_655
Cr4 O10 2.035264 1_555
Cr5 O4 2.033335 1_555
Cr5 O6 2.033387 1_455
Cr5 O1 2.034849 1_555
Cr5 O2 2.034880 1_455
Cr5 O12 2.035053 1_555
Cr5 O14 2.035151 1_455
Ga0 O2 2.023245 1_555
Ga0 O1 2.023362 1_555
Ga0 O12 2.026351 1_555
Ga0 O9 2.026454 1_555
Ga0 O14 2.026657 1_555
Ga0 O11 2.026674 1_555
Ga1 O0 2.023170 1_555
Ga1 O3 2.023360 1_555
Ga1 O10 2.026492 1_555
Ga1 O13 2.026497 1_554
Ga1 O15 2.026503 1_554
Ga1 O8 2.026603 1_555
