# generated using pymatgen
data_Mn6O5F7
_symmetry_space_group_name_H-M   'P 1'
_cell_length_a   4.72802758
_cell_length_b   5.72468670
_cell_length_c   15.63151851
_cell_angle_alpha   90.40068868
_cell_angle_beta   91.15181672
_cell_angle_gamma   86.64902480
_symmetry_Int_Tables_number   1
_chemical_formula_structural   Mn6O5F7
_chemical_formula_sum   'Mn12 O10 F14'
_cell_volume   422.27421610
_cell_formula_units_Z   2
loop_
 _symmetry_equiv_pos_site_id
 _symmetry_equiv_pos_as_xyz
  1  'x, y, z'
loop_
 _atom_site_type_symbol
 _atom_site_label
 _atom_site_symmetry_multiplicity
 _atom_site_fract_x
 _atom_site_fract_y
 _atom_site_fract_z
 _atom_site_occupancy
  Mn  Mn0  1  0.01883100  0.16809800  0.41666800  1
  Mn  Mn1  1  0.98247100  0.82545900  0.23691300  1
  Mn  Mn2  1  0.99317700  0.15020400  0.08006400  1
  Mn  Mn3  1  0.03464800  0.16478700  0.75927600  1
  Mn  Mn4  1  0.02698700  0.83727000  0.58021500  1
  Mn  Mn5  1  0.03120900  0.82932700  0.91315800  1
  Mn  Mn6  1  0.47602400  0.35231700  0.58081700  1
  Mn  Mn7  1  0.50507700  0.36393400  0.92191600  1
  Mn  Mn8  1  0.51859100  0.35909600  0.25432900  1
  Mn  Mn9  1  0.49099400  0.64813500  0.08386900  1
  Mn  Mn10  1  0.49020700  0.64940700  0.42003600  1
  Mn  Mn11  1  0.46851900  0.64844900  0.75062100  1
  O  O0  1  0.20898400  0.88449600  0.13205200  1
  O  O1  1  0.23032100  0.88953800  0.47241800  1
  O  O2  1  0.23183900  0.88148200  0.81137000  1
  O  O3  1  0.27061100  0.39213100  0.47432000  1
  O  O4  1  0.27353700  0.60961000  0.63683700  1
  O  O5  1  0.29575400  0.39406100  0.81222500  1
  O  O6  1  0.28422100  0.61572200  0.97454800  1
  O  O7  1  0.72437700  0.38450800  0.02944900  1
  O  O8  1  0.69678200  0.61128200  0.19404400  1
  O  O9  1  0.72594000  0.39740600  0.36502300  1
  F  F0  1  0.23523500  0.11617000  0.29853300  1
  F  F1  1  0.24081600  0.10844700  0.64360000  1
  F  F2  1  0.23050900  0.11918100  0.97480300  1
  F  F3  1  0.24777500  0.37794200  0.14845600  1
  F  F4  1  0.24614900  0.61669300  0.31022800  1
  F  F5  1  0.74040400  0.61349900  0.52906100  1
  F  F6  1  0.74876000  0.61790700  0.85273800  1
  F  F7  1  0.73055300  0.37810000  0.69221800  1
  F  F8  1  0.74906100  0.11295700  0.18421400  1
  F  F9  1  0.76272200  0.11101000  0.53417700  1
  F  F10  1  0.76720300  0.89862900  0.35801000  1
  F  F11  1  0.77849600  0.87966100  0.01428400  1
  F  F12  1  0.76669700  0.11627300  0.86726400  1
  F  F13  1  0.77651600  0.87681300  0.69225000  1
loop_
_geom_bond_atom_site_label_1
_geom_bond_atom_site_label_2
_geom_bond_distance
_geom_bond_site_symmetry_2
Mn0 O3 1.998321 1_555
Mn0 O9 2.012453 1_455
Mn0 O1 2.024910 1_545
Mn1 O8 1.980555 1_555
Mn1 O0 2.017073 1_655
Mn2 O7 1.953309 1_555
Mn2 O0 1.953904 1_645
Mn3 O2 1.993451 1_545
Mn3 O5 2.016169 1_555
Mn4 O4 1.907307 1_555
Mn4 O1 1.989698 1_555
Mn5 O2 1.902890 1_555
Mn5 O6 1.909561 1_555
Mn6 O3 1.918558 1_555
Mn6 O4 1.924492 1_555
Mn7 O6 1.920129 1_555
Mn7 O7 1.963624 1_556
Mn7 O5 1.966001 1_555
Mn8 O8 1.968546 1_555
Mn8 O9 1.988670 1_555
Mn9 O6 1.964682 1_554
Mn9 O8 1.967456 1_555
Mn9 O0 1.997789 1_555
Mn9 O7 2.010957 1_555
Mn10 O9 1.973855 1_555
Mn10 O1 1.974143 1_555
Mn10 O3 2.049116 1_555
Mn11 O2 1.945280 1_555
Mn11 O5 1.976262 1_555
Mn11 O4 2.003818 1_555
F0 Mn8 2.115354 1_555
F0 Mn0 2.139626 1_555
F0 Mn1 2.299882 1_445
F1 Mn3 2.085595 1_555
F1 Mn6 2.096046 1_555
F1 Mn4 2.129657 1_545
F2 Mn2 2.011175 1_456
F2 Mn7 2.145655 1_555
F2 Mn5 2.166502 1_545
F3 Mn8 2.071512 1_555
F3 Mn2 2.098538 1_455
F3 Mn9 2.238439 1_555
F4 Mn1 2.020749 1_455
F4 Mn10 2.062518 1_555
F4 Mn8 2.098221 1_555
F5 Mn10 2.059468 1_555
F5 Mn4 2.064310 1_655
F5 Mn6 2.174547 1_555
F6 Mn11 2.055711 1_555
F6 Mn5 2.064577 1_655
F6 Mn7 2.208741 1_555
F7 Mn3 2.099812 1_655
F7 Mn6 2.106011 1_555
F7 Mn11 2.136618 1_555
F8 Mn2 2.034021 1_555
F8 Mn8 2.054506 1_555
F8 Mn1 2.091725 1_545
F9 Mn6 2.020883 1_555
F9 Mn4 2.070138 1_645
F9 Mn0 2.256355 1_655
F10 Mn0 2.187860 1_665
F10 Mn1 2.193415 1_555
F10 Mn10 2.231496 1_555
F11 Mn5 2.009664 1_654
F11 Mn2 2.146110 1_565
F11 Mn9 2.253403 1_555
F12 Mn7 2.022495 1_555
F12 Mn5 2.125402 1_645
F12 Mn3 2.159903 1_655
F13 Mn4 2.137082 1_655
F13 Mn11 2.225942 1_555
F13 Mn3 2.337653 1_665
