# generated using pymatgen
data_Ni(SO4)2
_symmetry_space_group_name_H-M   'P 1'
_cell_length_a   9.00587008
_cell_length_b   9.00587008
_cell_length_c   9.00587040
_cell_angle_alpha   56.23227081
_cell_angle_beta   56.23227081
_cell_angle_gamma   56.23227241
_symmetry_Int_Tables_number   1
_chemical_formula_structural   Ni(SO4)2
_chemical_formula_sum   'Ni3 S6 O24'
_cell_volume   471.45496162
_cell_formula_units_Z   3
loop_
 _symmetry_equiv_pos_site_id
 _symmetry_equiv_pos_as_xyz
  1  'x, y, z'
loop_
 _atom_site_type_symbol
 _atom_site_label
 _atom_site_symmetry_multiplicity
 _atom_site_fract_x
 _atom_site_fract_y
 _atom_site_fract_z
 _atom_site_occupancy
  Ni  Ni0  1  0.35639700  0.35639700  0.35639700  1
  Ni  Ni1  1  0.64368700  0.64368700  0.64368700  1
  Ni  Ni2  1  0.85109500  0.85109500  0.85109500  1
  S  S0  1  0.74470500  0.04335000  0.46457500  1
  S  S1  1  0.04335000  0.46457400  0.74470500  1
  S  S2  1  0.46457500  0.74470500  0.04335000  1
  S  S3  1  0.54207500  0.24979100  0.95948900  1
  S  S4  1  0.95948900  0.54207500  0.24979100  1
  S  S5  1  0.24979100  0.95948900  0.54207500  1
  O  O0  1  0.30260600  0.10463300  0.51252600  1
  O  O1  1  0.51252600  0.30260600  0.10463300  1
  O  O2  1  0.94870900  0.00550400  0.33452900  1
  O  O3  1  0.10463300  0.51252600  0.30260600  1
  O  O4  1  0.72082400  0.02581900  0.64983300  1
  O  O5  1  0.61965400  0.23566100  0.37957700  1
  O  O6  1  0.23566100  0.37957700  0.61965400  1
  O  O7  1  0.00550400  0.33452900  0.94870900  1
  O  O8  1  0.37957700  0.61965400  0.23566100  1
  O  O9  1  0.67371900  0.04898200  0.98519600  1
  O  O10  1  0.35678100  0.27687000  0.97171800  1
  O  O11  1  0.97171800  0.35678100  0.27687000  1
  O  O12  1  0.02581900  0.64983300  0.72082400  1
  O  O13  1  0.64983300  0.72082400  0.02581900  1
  O  O14  1  0.33452900  0.94870900  0.00550400  1
  O  O15  1  0.62264900  0.37922500  0.76254900  1
  O  O16  1  0.98519600  0.67371900  0.04898200  1
  O  O17  1  0.76254900  0.62264900  0.37922500  1
  O  O18  1  0.37922500  0.76254900  0.62264900  1
  O  O19  1  0.27687000  0.97171800  0.35678100  1
  O  O20  1  0.89553700  0.48917400  0.69492200  1
  O  O21  1  0.04898200  0.98519600  0.67371900  1
  O  O22  1  0.48917400  0.69492200  0.89553700  1
  O  O23  1  0.69492200  0.89553700  0.48917400  1
loop_
_geom_bond_atom_site_label_1
_geom_bond_atom_site_label_2
_geom_bond_distance
_geom_bond_site_symmetry_2
Ni0 O0 2.066979 1_555
Ni0 O3 2.066979 1_555
Ni0 O1 2.066979 1_555
Ni0 O8 2.068563 1_555
Ni0 O5 2.068563 1_555
Ni0 O6 2.068563 1_555
Ni1 O23 2.057847 1_555
Ni1 O20 2.057847 1_555
Ni1 O22 2.057847 1_555
Ni1 O15 2.072755 1_555
Ni1 O18 2.072755 1_555
Ni1 O17 2.072755 1_555
Ni2 O21 2.066307 1_655
Ni2 O9 2.066307 1_565
Ni2 O16 2.066307 1_556
Ni2 O13 2.068546 1_556
Ni2 O12 2.068546 1_655
Ni2 O4 2.068546 1_565
O0 S5 1.472905 1_545
O1 S3 1.472906 1_554
O2 S0 1.489601 1_555
O3 S4 1.472905 1_455
O4 S0 1.483512 1_555
O5 S0 1.473136 1_555
O6 S1 1.473133 1_555
O7 S1 1.489599 1_555
O8 S2 1.473136 1_555
O9 S3 1.478493 1_555
O10 S3 1.493130 1_555
O11 S4 1.493130 1_555
O12 S1 1.483521 1_555
O13 S2 1.483512 1_555
O14 S2 1.489601 1_555
O15 S3 1.497448 1_555
O16 S4 1.478493 1_555
O17 S4 1.497448 1_555
O18 S5 1.497448 1_555
O19 S5 1.493130 1_555
O20 S1 1.499113 1_655
O21 S5 1.478493 1_555
O22 S2 1.499118 1_556
O23 S0 1.499118 1_565
