# generated using pymatgen
data_Li6Sn5(P2O7)4
_symmetry_space_group_name_H-M   'P 1'
_cell_length_a   9.62673300
_cell_length_b   11.41976374
_cell_length_c   13.65259127
_cell_angle_alpha   77.44934400
_cell_angle_beta   74.83760837
_cell_angle_gamma   67.10070028
_symmetry_Int_Tables_number   1
_chemical_formula_structural   Li6Sn5(P2O7)4
_chemical_formula_sum   'Li12 Sn10 P16 O56'
_cell_volume   1323.16831823
_cell_formula_units_Z   2
loop_
 _symmetry_equiv_pos_site_id
 _symmetry_equiv_pos_as_xyz
  1  'x, y, z'
loop_
 _atom_site_type_symbol
 _atom_site_label
 _atom_site_symmetry_multiplicity
 _atom_site_fract_x
 _atom_site_fract_y
 _atom_site_fract_z
 _atom_site_occupancy
  Li  Li0  1  0.03999400  0.87159200  0.57551200  1
  Li  Li1  1  0.43793900  0.65401700  0.67203900  1
  Li  Li2  1  0.00000000  0.50000000  0.50000000  1
  Li  Li3  1  0.56206100  0.34598300  0.32796100  1
  Li  Li4  1  0.96000600  0.12840800  0.42448800  1
  Li  Li5  1  0.17473700  0.05723100  0.24757400  1
  Li  Li6  1  0.05048000  0.87281300  0.05102700  1
  Li  Li7  1  0.41893700  0.70427300  0.15594700  1
  Li  Li8  1  0.00000000  0.50000000  0.00000000  1
  Li  Li9  1  0.58106300  0.29572700  0.84405300  1
  Li  Li10  1  0.94952000  0.12718700  0.94897300  1
  Li  Li11  1  0.82526300  0.94276900  0.75242600  1
  Sn  Sn0  1  0.59682100  0.29408200  0.59708000  1
  Sn  Sn1  1  0.19418200  0.00207600  0.75212300  1
  Sn  Sn2  1  0.26020900  0.26776200  0.57121300  1
  Sn  Sn3  1  0.73979100  0.73223800  0.42878700  1
  Sn  Sn4  1  0.80581800  0.99792400  0.24787700  1
  Sn  Sn5  1  0.40317900  0.70591800  0.40292000  1
  Sn  Sn6  1  0.58644400  0.30552700  0.10096900  1
  Sn  Sn7  1  0.26569700  0.25803600  0.07828000  1
  Sn  Sn8  1  0.73430300  0.74196400  0.92172000  1
  Sn  Sn9  1  0.41355600  0.69447300  0.89903100  1
  P  P0  1  0.22432000  0.58129100  0.59540900  1
  P  P1  1  0.67932000  0.78996500  0.65933400  1
  P  P2  1  0.89723900  0.29759900  0.71721100  1
  P  P3  1  0.71807600  0.00789500  0.51372700  1
  P  P4  1  0.28192400  0.99210500  0.48627300  1
  P  P5  1  0.10276100  0.70240100  0.28278900  1
  P  P6  1  0.32068000  0.21003500  0.34066600  1
  P  P7  1  0.77568000  0.41870900  0.40459100  1
  P  P8  1  0.22511700  0.58039400  0.09425500  1
  P  P9  1  0.66477100  0.81251500  0.15791900  1
  P  P10  1  0.89437100  0.30091100  0.21695700  1
  P  P11  1  0.71368500  0.01502600  0.99503900  1
  P  P12  1  0.28631500  0.98497400  0.00496100  1
  P  P13  1  0.10562900  0.69908900  0.78304300  1
  P  P14  1  0.33522900  0.18748500  0.84208100  1
  P  P15  1  0.77488300  0.41960600  0.90574500  1
  O  O0  1  0.04604900  0.83586300  0.72672300  1
  O  O1  1  0.11737100  0.60024200  0.70791700  1
  O  O2  1  0.25862600  0.16351600  0.76507100  1
  O  O3  1  0.39427400  0.53628700  0.60498900  1
  O  O4  1  0.54053400  0.74833900  0.70557700  1
  O  O5  1  0.84066400  0.00469900  0.56801900  1
  O  O6  1  0.61121700  0.93209300  0.59174800  1
  O  O7  1  0.73135400  0.32591900  0.70709800  1
  O  O8  1  0.18335300  0.71304900  0.52834400  1
  O  O9  1  0.18164900  0.48787400  0.55479300  1
  O  O10  1  0.61175100  0.14373800  0.48524400  1
  O  O11  1  0.00206500  0.33376500  0.61975300  1
  O  O12  1  0.79885400  0.70241100  0.58074100  1
  O  O13  1  0.20770800  0.06807300  0.58109400  1
  O  O14  1  0.79229200  0.93192700  0.41890600  1
  O  O15  1  0.20114600  0.29758900  0.41925900  1
  O  O16  1  0.99793500  0.66623500  0.38024700  1
  O  O17  1  0.38824900  0.85626200  0.51475600  1
  O  O18  1  0.81835100  0.51212600  0.44520700  1
  O  O19  1  0.81664700  0.28695100  0.47165600  1
  O  O20  1  0.26864600  0.67408100  0.29290200  1
  O  O21  1  0.38878300  0.06790700  0.40825200  1
  O  O22  1  0.15933600  0.99530100  0.43198100  1
  O  O23  1  0.45946600  0.25166100  0.29442300  1
  O  O24  1  0.03559300  0.84281600  0.23052100  1
  O  O25  1  0.60572600  0.46371300  0.39501100  1
  O  O26  1  0.74137400  0.83648400  0.23492900  1
  O  O27  1  0.11411400  0.60804000  0.20514800  1
  O  O28  1  0.88262900  0.39975800  0.29208300  1
  O  O29  1  0.25018500  0.18646200  0.26272800  1
  O  O30  1  0.39477400  0.53426300  0.10645400  1
  O  O31  1  0.95395100  0.16413700  0.27327700  1
  O  O32  1  0.52185900  0.78021700  0.21311100  1
  O  O33  1  0.85183500  0.00080400  0.04002200  1
  O  O34  1  0.60443200  0.95237700  0.08681900  1
  O  O35  1  0.72731700  0.33702600  0.20309000  1
  O  O36  1  0.19078400  0.70978700  0.02408100  1
  O  O37  1  0.17918000  0.48764400  0.05682300  1
  O  O38  1  0.61602900  0.15540000  0.97076700  1
  O  O39  1  0.00371100  0.32979900  0.11920400  1
  O  O40  1  0.78028600  0.71748500  0.08547800  1
  O  O41  1  0.23485800  0.06039400  0.09666800  1
  O  O42  1  0.76514200  0.93960500  0.90333200  1
  O  O43  1  0.21971400  0.28251500  0.91452200  1
  O  O44  1  0.99628900  0.67020100  0.88079600  1
  O  O45  1  0.38397100  0.84460000  0.02923300  1
  O  O46  1  0.82082000  0.51235600  0.94317700  1
  O  O47  1  0.80921600  0.29021300  0.97591900  1
  O  O48  1  0.27268300  0.66297400  0.79691000  1
  O  O49  1  0.39556800  0.04762300  0.91318100  1
  O  O50  1  0.14816500  0.99919600  0.95997800  1
  O  O51  1  0.47814100  0.21978300  0.78688900  1
  O  O52  1  0.60522600  0.46573700  0.89354600  1
  O  O53  1  0.74981500  0.81353800  0.73727200  1
  O  O54  1  0.88588600  0.39196000  0.79485200  1
  O  O55  1  0.96440700  0.15718400  0.76947900  1
loop_
_geom_bond_atom_site_label_1
_geom_bond_atom_site_label_2
_geom_bond_distance
_geom_bond_site_symmetry_2
Li0 O8 1.922132 1_555
Li0 O5 1.941223 1_465
Li0 O0 2.027332 1_555
Li0 O22 2.457215 1_555
Li1 O4 1.903721 1_555
Li1 O48 1.994525 1_555
Li1 O3 1.999545 1_555
Li2 O9 2.021760 1_555
Li2 O18 2.021760 1_455
Li2 O16 2.217195 1_455
Li2 O11 2.217195 1_555
Li2 O15 2.610587 1_555
Li2 O12 2.610587 1_455
Li3 O23 1.903721 1_555
Li3 O35 1.994525 1_555
Li3 O25 1.999545 1_555
Li4 O19 1.922132 1_555
Li4 O22 1.941223 1_645
Li4 O31 2.027332 1_555
Li4 O5 2.457215 1_555
Li5 O29 1.947760 1_555
Li5 O31 1.976811 1_455
Li5 O41 1.985221 1_555
Li5 O22 2.444000 1_545
Li6 O36 1.872558 1_555
Li6 O33 1.922365 1_465
Li6 O50 2.043907 1_554
Li6 O24 2.373347 1_555
Li7 O32 1.926212 1_555
Li7 O45 2.086650 1_555
Li7 O20 2.097891 1_555
Li7 O30 2.298658 1_555
Li8 O37 2.014971 1_555
Li8 O46 2.014971 1_454
Li8 O39 2.242606 1_555
Li8 O44 2.242606 1_454
Li9 O51 1.926212 1_555
Li9 O38 2.086650 1_555
Li9 O7 2.097891 1_555
Li9 O52 2.298658 1_555
Li10 O47 1.872558 1_555
Li10 O50 1.922365 1_645
Li10 O33 2.043907 1_556
Li10 O55 2.373347 1_555
Li11 O53 1.947760 1_555
Li11 O0 1.976811 1_655
Li11 O42 1.985220 1_555
Li11 O5 2.444000 1_565
O0 P13 1.539929 1_555
O1 P0 1.615557 1_555
O1 P13 1.637744 1_555
O2 P14 1.553027 1_555
O2 Sn1 2.214523 1_555
O2 Sn2 2.654421 1_555
O3 P0 1.544804 1_555
O3 Sn0 2.699356 1_555
O4 P1 1.527147 1_555
O4 Sn9 2.653017 1_555
O5 P3 1.534844 1_555
O6 P3 1.631333 1_565
O6 P1 1.659233 1_555
O7 P2 1.538783 1_555
O7 Sn0 2.384740 1_555
O8 P0 1.544729 1_555
O8 Sn5 2.334102 1_555
O9 P0 1.526950 1_555
O9 Sn2 2.303240 1_555
O10 P3 1.521759 1_555
O10 Sn0 2.476310 1_555
O11 P2 1.530501 1_455
O11 Sn2 2.254069 1_555
O12 P1 1.549244 1_555
O12 Sn3 2.214125 1_555
O13 P4 1.568707 1_545
O13 Sn1 2.278080 1_555
O13 Sn2 2.490270 1_555
O14 P3 1.568707 1_565
O14 Sn4 2.278080 1_555
O14 Sn3 2.490270 1_555
O15 P6 1.549244 1_555
O15 Sn2 2.214125 1_555
O16 P5 1.530501 1_655
O16 Sn3 2.254069 1_555
O17 P4 1.521759 1_555
O17 Sn5 2.476310 1_555
O18 P7 1.526950 1_555
O18 Sn3 2.303240 1_555
O19 P7 1.544729 1_555
O19 Sn0 2.334102 1_555
O20 P5 1.538783 1_555
O20 Sn5 2.384740 1_555
O21 P4 1.631333 1_545
O21 P6 1.659233 1_555
O22 P4 1.534844 1_555
O23 P6 1.527147 1_555
O23 Sn6 2.653017 1_555
O24 P5 1.560682 1_555
O24 Sn4 2.223868 1_455
O25 P7 1.544804 1_555
O25 Sn5 2.699356 1_555
O26 P9 1.553027 1_555
O26 Sn4 2.214523 1_555
O26 Sn3 2.654421 1_555
O27 P8 1.622522 1_555
O27 P5 1.625082 1_555
O28 P7 1.615557 1_555
O28 P10 1.637744 1_555
O29 P6 1.519748 1_555
O29 Sn7 2.456708 1_555
O30 P8 1.551554 1_555
O30 Sn6 2.548570 1_555
O31 P10 1.539929 1_555
O32 P9 1.525910 1_555
O32 Sn5 2.643967 1_555
O33 P11 1.545339 1_554
O34 P11 1.641554 1_564
O34 P9 1.652219 1_555
O35 P10 1.549634 1_555
O35 Sn6 2.345003 1_555
O36 P8 1.542999 1_555
O36 Sn9 2.338179 1_554
O37 P8 1.515447 1_555
O37 Sn7 2.397710 1_555
O38 P11 1.524019 1_555
O38 Sn6 2.619127 1_556
O39 P10 1.530333 1_455
O39 Sn7 2.279907 1_555
O40 P9 1.531152 1_555
O40 Sn8 2.328591 1_554
O41 P12 1.538498 1_545
O41 Sn7 2.341269 1_555
O42 P11 1.538505 1_565
O42 Sn8 2.341258 1_555
O43 P14 1.531152 1_555
O43 Sn7 2.328591 1_556
O44 P13 1.530333 1_655
O44 Sn8 2.279907 1_555
O45 P12 1.524019 1_555
O45 Sn9 2.619127 1_554
O46 P15 1.515447 1_555
O46 Sn8 2.397710 1_555
O47 P15 1.542999 1_555
O47 Sn6 2.338179 1_556
O48 P13 1.549634 1_555
O48 Sn9 2.345003 1_555
O49 P12 1.641554 1_546
O49 P14 1.652219 1_555
O50 P12 1.545339 1_556
O51 P14 1.525910 1_555
O51 Sn0 2.643967 1_555
O52 P15 1.551554 1_555
O52 Sn9 2.548570 1_555
O53 P1 1.519748 1_555
O53 Sn8 2.456708 1_555
O54 P15 1.622522 1_555
O54 P2 1.625082 1_555
O55 P2 1.560682 1_555
O55 Sn1 2.223868 1_655
