# generated using pymatgen
data_TlPO4
_symmetry_space_group_name_H-M   'P 1'
_cell_length_a   4.56881700
_cell_length_b   4.67137800
_cell_length_c   14.59567688
_cell_angle_alpha   89.80808829
_cell_angle_beta   90.00000000
_cell_angle_gamma   90.00000000
_symmetry_Int_Tables_number   1
_chemical_formula_structural   TlPO4
_chemical_formula_sum   'Tl4 P4 O16'
_cell_volume   311.50898534
_cell_formula_units_Z   4
loop_
 _symmetry_equiv_pos_site_id
 _symmetry_equiv_pos_as_xyz
  1  'x, y, z'
loop_
 _atom_site_type_symbol
 _atom_site_label
 _atom_site_symmetry_multiplicity
 _atom_site_fract_x
 _atom_site_fract_y
 _atom_site_fract_z
 _atom_site_occupancy
  Tl  Tl0  1  0.51472700  0.73694400  0.63681200  1
  Tl  Tl1  1  0.01472700  0.26305600  0.86318800  1
  Tl  Tl2  1  0.48527300  0.26305600  0.36318800  1
  Tl  Tl3  1  0.98527300  0.73694400  0.13681200  1
  P  P0  1  0.51758900  0.75595800  0.87617100  1
  P  P1  1  0.01758900  0.24404200  0.62382900  1
  P  P2  1  0.48241100  0.24404200  0.12382900  1
  P  P3  1  0.98241100  0.75595800  0.37617100  1
  O  O0  1  0.72606800  0.57465500  0.93782400  1
  O  O1  1  0.22606800  0.42534500  0.56217600  1
  O  O2  1  0.27393200  0.42534500  0.06217600  1
  O  O3  1  0.77393200  0.57465500  0.43782400  1
  O  O4  1  0.70082800  0.95061100  0.81006700  1
  O  O5  1  0.20082800  0.04938900  0.68993300  1
  O  O6  1  0.29917200  0.04938900  0.18993300  1
  O  O7  1  0.79917200  0.95061100  0.31006700  1
  O  O8  1  0.34966800  0.55340400  0.80834800  1
  O  O9  1  0.84966800  0.44659600  0.69165200  1
  O  O10  1  0.65033200  0.44659600  0.19165200  1
  O  O11  1  0.15033200  0.55340400  0.30834800  1
  O  O12  1  0.29714400  0.93374800  0.93300100  1
  O  O13  1  0.79714400  0.06625200  0.56699900  1
  O  O14  1  0.70285600  0.06625200  0.06699900  1
  O  O15  1  0.20285600  0.93374800  0.43300100  1
loop_
_geom_bond_atom_site_label_1
_geom_bond_atom_site_label_2
_geom_bond_distance
_geom_bond_site_symmetry_2
O0 P0 1.558594 1_555
O0 Tl1 2.248424 1_655
O1 P1 1.558594 1_555
O1 Tl0 2.248424 1_555
O2 P2 1.558594 1_555
O2 Tl3 2.248424 1_455
O3 P3 1.558594 1_555
O3 Tl2 2.248424 1_555
O4 P0 1.566118 1_555
O4 Tl1 2.189929 1_665
O5 P1 1.566118 1_555
O5 Tl0 2.189929 1_545
O6 P2 1.566118 1_555
O6 Tl3 2.189929 1_445
O7 P3 1.566118 1_555
O7 Tl2 2.189929 1_565
O8 P0 1.571663 1_555
O8 Tl1 2.194265 1_555
O9 P1 1.571663 1_655
O9 Tl0 2.194265 1_555
O10 P2 1.571663 1_555
O10 Tl3 2.194265 1_555
O11 P3 1.571663 1_455
O11 Tl2 2.194265 1_555
O12 P0 1.548162 1_555
O12 Tl1 2.249252 1_565
O13 P1 1.548162 1_655
O13 Tl0 2.249252 1_545
O14 P2 1.548162 1_555
O14 Tl3 2.249252 1_545
O15 P3 1.548162 1_455
O15 Tl2 2.249252 1_565
