# generated using pymatgen
data_Li4Ti5VO12
_symmetry_space_group_name_H-M   'P 1'
_cell_length_a   8.89447600
_cell_length_b   8.91468281
_cell_length_c   10.43407011
_cell_angle_alpha   88.86012936
_cell_angle_beta   88.38732862
_cell_angle_gamma   60.31597994
_symmetry_Int_Tables_number   1
_chemical_formula_structural   Li4Ti5VO12
_chemical_formula_sum   'Li12 Ti15 V3 O36'
_cell_volume   718.45967020
_cell_formula_units_Z   3
loop_
 _symmetry_equiv_pos_site_id
 _symmetry_equiv_pos_as_xyz
  1  'x, y, z'
loop_
 _atom_site_type_symbol
 _atom_site_label
 _atom_site_symmetry_multiplicity
 _atom_site_fract_x
 _atom_site_fract_y
 _atom_site_fract_z
 _atom_site_occupancy
  Li  Li0  1  0.72483900  0.05153700  0.23123400  1
  Li  Li1  1  0.78364300  0.08925700  0.72685100  1
  Li  Li2  1  0.70936600  0.39648000  0.22934600  1
  Li  Li3  1  0.21635700  0.91074300  0.27314900  1
  Li  Li4  1  0.75332000  0.44576800  0.72359100  1
  Li  Li5  1  0.27516100  0.94846300  0.76876600  1
  Li  Li6  1  0.61485800  0.78760300  0.25326400  1
  Li  Li7  1  0.05931000  0.36823100  0.23489000  1
  Li  Li8  1  0.94069000  0.63176900  0.76511000  1
  Li  Li9  1  0.38514200  0.21239700  0.74673600  1
  Li  Li10  1  0.24668000  0.55423200  0.27640900  1
  Li  Li11  1  0.29063400  0.60352000  0.77065400  1
  Ti  Ti0  1  0.83799600  0.83274100  0.00070000  1
  Ti  Ti1  1  0.33857800  0.66957200  0.50694800  1
  Ti  Ti2  1  0.66142200  0.33042800  0.49305200  1
  Ti  Ti3  1  0.15787000  0.83382500  0.99995300  1
  Ti  Ti4  1  0.84213000  0.16617500  0.00004700  1
  Ti  Ti5  1  0.33689800  0.00565700  0.49294600  1
  Ti  Ti6  1  0.00080200  0.32860800  0.50858500  1
  Ti  Ti7  1  0.50354100  0.83506500  0.99179700  1
  Ti  Ti8  1  0.16200400  0.16725900  0.99930000  1
  Ti  Ti9  1  0.83413000  0.50334200  0.00038700  1
  Ti  Ti10  1  0.66310200  0.99434300  0.50705400  1
  Ti  Ti11  1  0.99919800  0.67139200  0.49141500  1
  Ti  Ti12  1  0.49645900  0.16493500  0.00820300  1
  Ti  Ti13  1  0.16587000  0.49665800  0.99961300  1
  Ti  Ti14  1  0.50000000  0.50000000  0.00000000  1
  V  V0  1  0.00000000  0.00000000  0.50000000  1
  V  V1  1  0.33559800  0.33357500  0.49810200  1
  V  V2  1  0.66440200  0.66642500  0.50189800  1
  O  O0  1  0.73129500  0.71850200  0.89381800  1
  O  O1  1  0.78285300  0.78590500  0.39577700  1
  O  O2  1  0.06361800  0.71359100  0.88871300  1
  O  O3  1  0.72348000  0.05914300  0.90267800  1
  O  O4  1  0.87985300  0.87978800  0.60393600  1
  O  O5  1  0.93704500  0.95079000  0.10715000  1
  O  O6  1  0.12647300  0.76443300  0.39238400  1
  O  O7  1  0.76371000  0.11947700  0.39773400  1
  O  O8  1  0.23629000  0.88052300  0.60226600  1
  O  O9  1  0.87352700  0.23556700  0.60761600  1
  O  O10  1  0.38600100  0.72272500  0.89222200  1
  O  O11  1  0.72451200  0.39138600  0.89874300  1
  O  O12  1  0.06295500  0.04921000  0.89285000  1
  O  O13  1  0.12014700  0.12021200  0.39606400  1
  O  O14  1  0.27652000  0.94085700  0.09732200  1
  O  O15  1  0.93638200  0.28640900  0.11128700  1
  O  O16  1  0.43380500  0.78951300  0.39027500  1
  O  O17  1  0.78791400  0.42945400  0.39803500  1
  O  O18  1  0.54023000  0.90406000  0.60350000  1
  O  O19  1  0.89751200  0.54592300  0.60549900  1
  O  O20  1  0.38796800  0.05957500  0.89093700  1
  O  O21  1  0.05471100  0.39529100  0.89499100  1
  O  O22  1  0.21714700  0.21409500  0.60422300  1
  O  O23  1  0.26870500  0.28149800  0.10618200  1
  O  O24  1  0.61203200  0.94042500  0.10906300  1
  O  O25  1  0.94528900  0.60470900  0.10500900  1
  O  O26  1  0.45977000  0.09594000  0.39650000  1
  O  O27  1  0.10248800  0.45407700  0.39450100  1
  O  O28  1  0.56619500  0.21048700  0.60972500  1
  O  O29  1  0.21208600  0.57054600  0.60196500  1
  O  O30  1  0.38945900  0.38987600  0.89442800  1
  O  O31  1  0.45300700  0.45541000  0.39401200  1
  O  O32  1  0.61399900  0.27727500  0.10777800  1
  O  O33  1  0.27548800  0.60861400  0.10125700  1
  O  O34  1  0.54699300  0.54459000  0.60598800  1
  O  O35  1  0.61054100  0.61012400  0.10557200  1
loop_
_geom_bond_atom_site_label_1
_geom_bond_atom_site_label_2
_geom_bond_distance
_geom_bond_site_symmetry_2
Li0 O7 1.946162 1_555
Li0 O5 2.067644 1_545
Li0 O32 2.164331 1_555
Li0 O24 2.172421 1_545
Li1 O3 1.947197 1_555
Li1 O4 2.077242 1_545
Li1 O28 2.100586 1_555
Li1 O9 2.190983 1_555
Li2 O17 1.991409 1_555
Li2 O35 2.091851 1_555
Li2 O32 2.112988 1_555
Li2 O15 2.122054 1_555
Li3 O14 1.947197 1_555
Li3 O13 2.077242 1_565
Li3 O16 2.100586 1_555
Li3 O6 2.190983 1_555
Li4 O11 1.924069 1_555
Li4 O34 2.032771 1_555
Li4 O9 2.037628 1_555
Li4 O19 2.227488 1_555
Li5 O8 1.946162 1_555
Li5 O12 2.067644 1_565
Li5 O10 2.164331 1_555
Li5 O20 2.172421 1_565
Li6 O24 2.001785 1_555
Li6 O16 2.116961 1_555
Li6 O1 2.132100 1_555
Li6 O35 2.244996 1_555
Li7 O27 1.970912 1_555
Li7 O15 2.073043 1_455
Li7 O23 2.084313 1_555
Li7 O25 2.270555 1_455
Li7 O13 2.593803 1_555
Li8 O19 1.970912 1_555
Li8 O2 2.073043 1_655
Li8 O0 2.084313 1_555
Li8 O21 2.270555 1_655
Li8 O4 2.593803 1_555
Li9 O20 2.001785 1_555
Li9 O28 2.116961 1_555
Li9 O22 2.132100 1_555
Li9 O30 2.244996 1_555
Li10 O33 1.924069 1_555
Li10 O31 2.032771 1_555
Li10 O6 2.037628 1_555
Li10 O27 2.227488 1_555
Li11 O29 1.991409 1_555
Li11 O30 2.091851 1_555
Li11 O10 2.112988 1_555
Li11 O2 2.122054 1_555
O0 Ti9 1.996711 1_556
O0 Ti7 2.017281 1_555
O0 Ti0 2.059994 1_556
O1 Ti11 1.965378 1_555
O1 Ti10 1.997830 1_555
O1 V2 2.114093 1_555
O2 Ti13 2.033284 1_555
O2 Ti3 2.047695 1_555
O2 Ti0 2.080143 1_456
O3 Ti0 2.024222 1_546
O3 Ti4 2.037776 1_556
O3 Ti12 2.051613 1_556
O4 Ti10 1.974883 1_555
O4 Ti11 2.004996 1_555
O4 V0 2.118800 1_665
O5 Ti4 2.002639 1_565
O5 Ti3 2.022473 1_654
O5 Ti0 2.033994 1_555
O6 Ti11 1.966523 1_455
O6 Ti1 2.051768 1_555
O6 V0 2.149254 1_565
O7 Ti2 1.918933 1_555
O7 Ti10 2.055936 1_545
O7 V0 2.134011 1_655
O8 Ti1 1.918933 1_555
O8 Ti5 2.055936 1_565
O8 V0 2.134011 1_565
O9 Ti6 1.966523 1_655
O9 Ti2 2.051768 1_555
O9 V0 2.149254 1_655
O10 Ti14 2.053393 1_556
O10 Ti3 2.070559 1_555
O10 Ti7 2.077237 1_555
O11 Ti14 2.012053 1_556
O11 Ti9 2.033621 1_556
O11 Ti4 2.034715 1_556
O12 Ti3 2.002639 1_545
O12 Ti4 2.022473 1_456
O12 Ti8 2.033994 1_555
O13 Ti5 1.974883 1_555
O13 Ti6 2.004996 1_555
O13 V0 2.118800 1_555
O14 Ti8 2.024222 1_564
O14 Ti3 2.037776 1_554
O14 Ti7 2.051613 1_554
O15 Ti9 2.033284 1_555
O15 Ti4 2.047695 1_555
O15 Ti8 2.080143 1_654
O16 Ti5 1.997137 1_565
O16 Ti1 2.032194 1_555
O16 V2 2.149848 1_555
O17 Ti2 1.978412 1_555
O17 Ti6 2.029744 1_655
O17 V2 2.137654 1_555
O18 Ti10 1.905758 1_555
O18 Ti5 1.968564 1_565
O18 V2 2.130160 1_555
O19 Ti6 1.970418 1_655
O19 Ti11 2.091516 1_555
O19 V2 2.120236 1_555
O20 Ti7 2.027148 1_545
O20 Ti8 2.060032 1_555
O20 Ti12 2.078538 1_556
O21 Ti13 1.992656 1_555
O21 Ti9 2.008831 1_456
O21 Ti8 2.068019 1_555
O22 Ti6 1.965378 1_555
O22 Ti5 1.997830 1_555
O22 V1 2.114093 1_555
O23 Ti13 1.996711 1_554
O23 Ti12 2.017281 1_555
O23 Ti8 2.059994 1_554
O24 Ti12 2.027148 1_565
O24 Ti0 2.060032 1_555
O24 Ti7 2.078538 1_554
O25 Ti9 1.992656 1_555
O25 Ti13 2.008831 1_654
O25 Ti0 2.068019 1_555
O26 Ti5 1.905758 1_555
O26 Ti10 1.968564 1_545
O26 V1 2.130160 1_555
O27 Ti11 1.970418 1_455
O27 Ti6 2.091516 1_555
O27 V1 2.120236 1_555
O28 Ti10 1.997137 1_545
O28 Ti2 2.032194 1_555
O28 V1 2.149848 1_555
O29 Ti1 1.978412 1_555
O29 Ti11 2.029744 1_455
O29 V1 2.137654 1_555
O30 Ti13 2.027158 1_555
O30 Ti14 2.050329 1_556
O30 Ti12 2.101161 1_556
O31 Ti2 1.939593 1_555
O31 Ti1 2.041303 1_555
O31 V1 2.112435 1_555
O32 Ti14 2.053393 1_555
O32 Ti4 2.070559 1_555
O32 Ti12 2.077237 1_555
O33 Ti14 2.012053 1_555
O33 Ti13 2.033621 1_554
O33 Ti3 2.034715 1_554
O34 Ti1 1.939593 1_555
O34 Ti2 2.041303 1_555
O34 V2 2.112435 1_555
O35 Ti9 2.027158 1_555
O35 Ti14 2.050329 1_555
O35 Ti7 2.101161 1_554
