# generated using pymatgen
data_Li2FeP2HO8
_symmetry_space_group_name_H-M   'P 1'
_cell_length_a   7.94168691
_cell_length_b   8.11439900
_cell_length_c   9.73845265
_cell_angle_alpha   89.99953745
_cell_angle_beta   112.12863461
_cell_angle_gamma   90.00058629
_symmetry_Int_Tables_number   1
_chemical_formula_structural   Li2FeP2HO8
_chemical_formula_sum   'Li8 Fe4 P8 H4 O32'
_cell_volume   581.33935561
_cell_formula_units_Z   4
loop_
 _symmetry_equiv_pos_site_id
 _symmetry_equiv_pos_as_xyz
  1  'x, y, z'
loop_
 _atom_site_type_symbol
 _atom_site_label
 _atom_site_symmetry_multiplicity
 _atom_site_fract_x
 _atom_site_fract_y
 _atom_site_fract_z
 _atom_site_occupancy
  Li  Li0  1  0.65713400  0.36655200  0.76989600  1
  Li  Li1  1  0.65713800  0.36655800  0.26990200  1
  Li  Li2  1  0.84287000  0.86654500  0.73010100  1
  Li  Li3  1  0.84285500  0.86656300  0.23011500  1
  Li  Li4  1  0.15893900  0.13453400  0.27729200  1
  Li  Li5  1  0.15896400  0.13451700  0.77728600  1
  Li  Li6  1  0.34106200  0.63453200  0.22272900  1
  Li  Li7  1  0.34104500  0.63452300  0.72271400  1
  Fe  Fe0  1  0.49537800  0.00004800  0.24713600  1
  Fe  Fe1  1  0.00455100  0.50002000  0.25282100  1
  Fe  Fe2  1  0.49541900  0.99996000  0.74715000  1
  Fe  Fe3  1  0.00461000  0.49997800  0.75284900  1
  P  P0  1  0.26868400  0.34834700  0.56874500  1
  P  P1  1  0.26866200  0.34840100  0.06875300  1
  P  P2  1  0.23132800  0.84837600  0.43125700  1
  P  P3  1  0.23132100  0.84835200  0.93124600  1
  P  P4  1  0.76237600  0.15534200  0.56533100  1
  P  P5  1  0.76233200  0.15535700  0.06525400  1
  P  P6  1  0.73765600  0.65537300  0.43474200  1
  P  P7  1  0.73763800  0.65535300  0.93467200  1
  H  H0  1  0.51277900  0.51130200  0.49038100  1
  H  H1  1  0.51278400  0.51131300  0.99037700  1
  H  H2  1  0.98721900  0.01131100  0.50963000  1
  H  H3  1  0.98721500  0.01130500  0.00963000  1
  O  O0  1  0.83952700  0.54528000  0.86225700  1
  O  O1  1  0.83952500  0.54527700  0.36225200  1
  O  O2  1  0.66048500  0.04528500  0.63773800  1
  O  O3  1  0.66046500  0.04526800  0.13774900  1
  O  O4  1  0.31220500  0.17896000  0.64867200  1
  O  O5  1  0.31214200  0.17908500  0.14876600  1
  O  O6  1  0.18784100  0.67906600  0.35126000  1
  O  O7  1  0.18786000  0.67903300  0.85130400  1
  O  O8  1  0.34779500  0.82499700  0.59857600  1
  O  O9  1  0.34781600  0.82499400  0.09860400  1
  O  O10  1  0.15217300  0.32499400  0.40139300  1
  O  O11  1  0.15220500  0.32499700  0.90142300  1
  O  O12  1  0.44823000  0.44145800  0.59600800  1
  O  O13  1  0.44823000  0.44146100  0.09602000  1
  O  O14  1  0.05176700  0.94146100  0.40397900  1
  O  O15  1  0.05177600  0.94145300  0.90398500  1
  O  O16  1  0.81443800  0.32096400  0.64764800  1
  O  O17  1  0.81441600  0.32098600  0.14765400  1
  O  O18  1  0.68555600  0.82098400  0.35234000  1
  O  O19  1  0.68558000  0.82096000  0.85235800  1
  O  O20  1  0.84702900  0.67646000  0.60182400  1
  O  O21  1  0.84703800  0.67647800  0.10188100  1
  O  O22  1  0.65296800  0.17646900  0.39811700  1
  O  O23  1  0.65297100  0.17645700  0.89817100  1
  O  O24  1  0.94749600  0.06038400  0.59464200  1
  O  O25  1  0.94747600  0.06039000  0.09463900  1
  O  O26  1  0.55252100  0.56039000  0.40536700  1
  O  O27  1  0.55250900  0.56038700  0.90536200  1
  O  O28  1  0.34083500  0.95520500  0.36130000  1
  O  O29  1  0.34081600  0.95517300  0.86130800  1
  O  O30  1  0.15915500  0.45522000  0.13869500  1
  O  O31  1  0.15919700  0.45516600  0.63869900  1
loop_
_geom_bond_atom_site_label_1
_geom_bond_atom_site_label_2
_geom_bond_distance
_geom_bond_site_symmetry_2
Li0 O12 1.967979 1_555
Li0 O23 1.992988 1_555
Li0 O0 2.007214 1_555
Li0 O16 2.057977 1_555
Li0 O27 2.393846 1_555
Li1 O13 1.967956 1_555
Li1 O22 1.992595 1_555
Li1 O1 2.007116 1_555
Li1 O17 2.057783 1_555
Li1 O26 2.393788 1_555
Li2 O15 1.967969 1_655
Li2 O20 1.992946 1_555
Li2 O2 2.007264 1_565
Li2 O19 2.057943 1_555
Li2 O24 2.393800 1_565
Li3 O14 1.967863 1_655
Li3 O21 1.992729 1_555
Li3 O3 2.007086 1_565
Li3 O18 2.057742 1_555
Li3 O25 2.393827 1_565
Li4 O10 1.975073 1_555
Li4 O28 1.995793 1_545
Li4 O25 2.023797 1_455
Li4 O5 2.079641 1_555
Li4 O14 2.343504 1_545
Li5 O11 1.975404 1_555
Li5 O29 1.995702 1_545
Li5 O24 2.023740 1_455
Li5 O4 2.080438 1_555
Li5 O15 2.343604 1_545
Li6 O9 1.975190 1_555
Li6 O30 1.995765 1_555
Li6 O26 2.023695 1_555
Li6 O6 2.079780 1_555
Li6 O13 2.343643 1_555
Li7 O8 1.975337 1_555
Li7 O31 1.995739 1_555
Li7 O27 2.023756 1_555
Li7 O7 2.079987 1_555
Li7 O12 2.343666 1_555
Fe0 O28 1.975547 1_545
Fe0 O3 2.010097 1_555
Fe0 O5 2.023777 1_555
Fe0 O9 2.050917 1_545
Fe0 O18 2.067904 1_545
Fe0 O22 2.095515 1_555
Fe1 O30 1.975600 1_555
Fe1 O1 2.010080 1_455
Fe1 O6 2.024187 1_555
Fe1 O10 2.051096 1_555
Fe1 O17 2.067458 1_455
Fe1 O21 2.095328 1_455
Fe2 O29 1.975814 1_555
Fe2 O2 2.010300 1_565
Fe2 O4 2.023680 1_565
Fe2 O8 2.050756 1_555
Fe2 O19 2.067474 1_555
Fe2 O23 2.096022 1_565
Fe3 O31 1.975691 1_555
Fe3 O0 2.010358 1_455
Fe3 O7 2.024099 1_555
Fe3 O11 2.050787 1_555
Fe3 O16 2.067577 1_455
Fe3 O20 2.096035 1_455
H0 O26 1.067966 1_555
H0 O12 1.428054 1_555
H1 O27 1.067852 1_555
H1 O13 1.428238 1_556
H2 O24 1.067822 1_555
H2 O14 1.428279 1_645
H3 O25 1.067907 1_555
H3 O15 1.428301 1_644
O0 P7 1.542650 1_555
O1 P6 1.543126 1_555
O2 P4 1.542519 1_555
O3 P5 1.543097 1_555
O4 P0 1.552999 1_555
O5 P1 1.552828 1_555
O6 P2 1.552726 1_555
O7 P3 1.552560 1_555
O8 P2 1.552776 1_555
O9 P3 1.553113 1_554
O10 P0 1.553086 1_555
O11 P1 1.552874 1_556
O12 P0 1.545732 1_555
O13 P1 1.545673 1_555
O14 P2 1.545718 1_555
O15 P3 1.545701 1_555
O16 P4 1.539483 1_555
O17 P5 1.539885 1_555
O18 P6 1.539771 1_555
O19 P7 1.539358 1_555
O20 P6 1.538347 1_555
O21 P7 1.539462 1_554
O22 P4 1.539515 1_555
O23 P5 1.538350 1_556
O24 P4 1.587590 1_555
O25 P5 1.587667 1_555
O26 P6 1.587673 1_555
O27 P7 1.587672 1_555
O28 P2 1.555066 1_555
O29 P3 1.554841 1_555
O30 P1 1.554942 1_555
O31 P0 1.554903 1_555
