# generated using pymatgen
data_Rb5FeO4
_symmetry_space_group_name_H-M   'P 1'
_cell_length_a   11.98825500
_cell_length_b   12.54154200
_cell_length_c   12.77894200
_cell_angle_alpha   90.00000000
_cell_angle_beta   90.00000000
_cell_angle_gamma   90.00000000
_symmetry_Int_Tables_number   1
_chemical_formula_structural   Rb5FeO4
_chemical_formula_sum   'Rb40 Fe8 O32'
_cell_volume   1921.32931030
_cell_formula_units_Z   8
loop_
 _symmetry_equiv_pos_site_id
 _symmetry_equiv_pos_as_xyz
  1  'x, y, z'
loop_
 _atom_site_type_symbol
 _atom_site_label
 _atom_site_symmetry_multiplicity
 _atom_site_fract_x
 _atom_site_fract_y
 _atom_site_fract_z
 _atom_site_occupancy
  Rb  Rb0  1  0.83892500  0.38316500  0.10813400  1
  Rb  Rb1  1  0.33892500  0.11683500  0.10813400  1
  Rb  Rb2  1  0.16247400  0.89281300  0.10756000  1
  Rb  Rb3  1  0.66247400  0.60718700  0.10756000  1
  Rb  Rb4  1  0.63857600  0.15969700  0.11854000  1
  Rb  Rb5  1  0.13857600  0.34030300  0.11854000  1
  Rb  Rb6  1  0.92582500  0.11145900  0.14502100  1
  Rb  Rb7  1  0.42582500  0.38854100  0.14502100  1
  Rb  Rb8  1  0.59835000  0.87428600  0.15656800  1
  Rb  Rb9  1  0.09835000  0.62571400  0.15656800  1
  Rb  Rb10  1  0.09835000  0.12571400  0.34343200  1
  Rb  Rb11  1  0.59835000  0.37428600  0.34343200  1
  Rb  Rb12  1  0.92582500  0.61145900  0.35497900  1
  Rb  Rb13  1  0.42582500  0.88854100  0.35497900  1
  Rb  Rb14  1  0.63857600  0.65969700  0.38146000  1
  Rb  Rb15  1  0.13857600  0.84030300  0.38146000  1
  Rb  Rb16  1  0.66247400  0.10718700  0.39244000  1
  Rb  Rb17  1  0.16247400  0.39281300  0.39244000  1
  Rb  Rb18  1  0.83892500  0.88316500  0.39186600  1
  Rb  Rb19  1  0.33892500  0.61683500  0.39186600  1
  Rb  Rb20  1  0.66107500  0.38316500  0.60813400  1
  Rb  Rb21  1  0.16107500  0.11683500  0.60813400  1
  Rb  Rb22  1  0.83752600  0.60718700  0.60756000  1
  Rb  Rb23  1  0.33752600  0.89281300  0.60756000  1
  Rb  Rb24  1  0.36142400  0.34030300  0.61854000  1
  Rb  Rb25  1  0.86142400  0.15969700  0.61854000  1
  Rb  Rb26  1  0.57417500  0.11145900  0.64502100  1
  Rb  Rb27  1  0.07417500  0.38854100  0.64502100  1
  Rb  Rb28  1  0.90165000  0.87428600  0.65656800  1
  Rb  Rb29  1  0.40165000  0.62571400  0.65656800  1
  Rb  Rb30  1  0.90165000  0.37428600  0.84343200  1
  Rb  Rb31  1  0.40165000  0.12571400  0.84343200  1
  Rb  Rb32  1  0.57417500  0.61145900  0.85497900  1
  Rb  Rb33  1  0.07417500  0.88854100  0.85497900  1
  Rb  Rb34  1  0.36142400  0.84030300  0.88146000  1
  Rb  Rb35  1  0.86142400  0.65969700  0.88146000  1
  Rb  Rb36  1  0.33752600  0.39281300  0.89244000  1
  Rb  Rb37  1  0.83752600  0.10718700  0.89244000  1
  Rb  Rb38  1  0.66107500  0.88316500  0.89186600  1
  Rb  Rb39  1  0.16107500  0.61683500  0.89186600  1
  Fe  Fe0  1  0.88274800  0.84848700  0.13607800  1
  Fe  Fe1  1  0.38274800  0.65151300  0.13607800  1
  Fe  Fe2  1  0.88274800  0.34848700  0.36392200  1
  Fe  Fe3  1  0.38274800  0.15151300  0.36392200  1
  Fe  Fe4  1  0.61725200  0.84848700  0.63607800  1
  Fe  Fe5  1  0.11725200  0.65151300  0.63607800  1
  Fe  Fe6  1  0.61725200  0.34848700  0.86392200  1
  Fe  Fe7  1  0.11725200  0.15151300  0.86392200  1
  O  O0  1  0.47547900  0.72755600  0.03535500  1
  O  O1  1  0.97547900  0.77244400  0.03535500  1
  O  O2  1  0.78802200  0.95679000  0.07010100  1
  O  O3  1  0.28802200  0.54321000  0.07010100  1
  O  O4  1  0.98441300  0.92195300  0.23425500  1
  O  O5  1  0.48441300  0.57804700  0.23425500  1
  O  O6  1  0.78614500  0.76005900  0.22362400  1
  O  O7  1  0.28614500  0.73994100  0.22362400  1
  O  O8  1  0.78614500  0.26005900  0.27637600  1
  O  O9  1  0.28614500  0.23994100  0.27637600  1
  O  O10  1  0.98441300  0.42195300  0.26574500  1
  O  O11  1  0.48441300  0.07804700  0.26574500  1
  O  O12  1  0.78802200  0.45679000  0.42989900  1
  O  O13  1  0.28802200  0.04321000  0.42989900  1
  O  O14  1  0.47547900  0.22755600  0.46464500  1
  O  O15  1  0.97547900  0.27244400  0.46464500  1
  O  O16  1  0.02452100  0.72755600  0.53535500  1
  O  O17  1  0.52452100  0.77244400  0.53535500  1
  O  O18  1  0.71197800  0.95679000  0.57010100  1
  O  O19  1  0.21197800  0.54321000  0.57010100  1
  O  O20  1  0.01558700  0.57804700  0.73425500  1
  O  O21  1  0.51558700  0.92195300  0.73425500  1
  O  O22  1  0.71385500  0.76005900  0.72362400  1
  O  O23  1  0.21385500  0.73994100  0.72362400  1
  O  O24  1  0.71385500  0.26005900  0.77637600  1
  O  O25  1  0.21385500  0.23994100  0.77637600  1
  O  O26  1  0.01558700  0.07804700  0.76574500  1
  O  O27  1  0.51558700  0.42195300  0.76574500  1
  O  O28  1  0.21197800  0.04321000  0.92989900  1
  O  O29  1  0.71197800  0.45679000  0.92989900  1
  O  O30  1  0.02452100  0.22755600  0.96464500  1
  O  O31  1  0.52452100  0.27244400  0.96464500  1
loop_
_geom_bond_atom_site_label_1
_geom_bond_atom_site_label_2
_geom_bond_distance
_geom_bond_site_symmetry_2
Fe0 O1 1.949894 1_555
Fe0 O6 1.955178 1_555
Fe0 O2 1.960962 1_555
Fe0 O4 1.976965 1_555
Fe1 O0 1.949894 1_555
Fe1 O7 1.955178 1_555
Fe1 O3 1.960962 1_555
Fe1 O5 1.976965 1_555
Fe2 O15 1.949894 1_555
Fe2 O8 1.955178 1_555
Fe2 O12 1.960962 1_555
Fe2 O10 1.976965 1_555
Fe3 O14 1.949894 1_555
Fe3 O9 1.955178 1_555
Fe3 O13 1.960962 1_555
Fe3 O11 1.976965 1_555
Fe4 O17 1.949894 1_555
Fe4 O22 1.955178 1_555
Fe4 O18 1.960962 1_555
Fe4 O21 1.976965 1_555
Fe5 O16 1.949894 1_555
Fe5 O23 1.955178 1_555
Fe5 O19 1.960962 1_555
Fe5 O20 1.976965 1_555
Fe6 O31 1.949894 1_555
Fe6 O24 1.955178 1_555
Fe6 O29 1.960962 1_555
Fe6 O27 1.976965 1_555
Fe7 O30 1.949894 1_555
Fe7 O25 1.955178 1_555
Fe7 O28 1.960962 1_555
Fe7 O26 1.976965 1_555
O0 Rb34 2.781474 1_554
O0 Rb8 2.820547 1_555
O0 Rb3 2.855823 1_555
O0 Rb32 2.972049 1_554
O1 Rb35 2.781474 1_554
O1 Rb9 2.820547 1_655
O1 Rb2 2.855823 1_655
O1 Rb33 2.972049 1_654
O2 Rb6 2.721865 1_565
O2 Rb8 2.731652 1_555
O2 Rb38 2.890748 1_554
O2 Rb37 3.010705 1_564
O2 Rb4 3.173140 1_565
O3 Rb7 2.721865 1_555
O3 Rb9 2.731652 1_555
O3 Rb39 2.890748 1_554
O3 Rb36 3.010705 1_554
O3 Rb5 3.173140 1_555
O4 Rb2 2.703979 1_655
O4 Rb18 2.708376 1_555
O4 Rb6 2.728064 1_565
O4 Rb15 2.828936 1_655
O4 Rb10 3.215999 1_665
O5 Rb3 2.703979 1_555
O5 Rb19 2.708376 1_555
O5 Rb7 2.728064 1_555
O5 Rb14 2.828936 1_555
O5 Rb11 3.215999 1_555
O6 Rb18 2.721473 1_555
O6 Rb8 2.802693 1_555
O6 Rb3 2.841436 1_555
O6 Rb14 2.963478 1_555
O6 Rb12 3.015778 1_555
O7 Rb19 2.721473 1_555
O7 Rb9 2.802693 1_555
O7 Rb2 2.841436 1_555
O7 Rb15 2.963478 1_555
O7 Rb13 3.015778 1_555
O8 Rb0 2.721473 1_555
O8 Rb11 2.802693 1_555
O8 Rb16 2.841436 1_555
O8 Rb4 2.963478 1_555
O8 Rb6 3.015778 1_555
O9 Rb1 2.721473 1_555
O9 Rb10 2.802693 1_555
O9 Rb17 2.841436 1_555
O9 Rb5 2.963478 1_555
O9 Rb7 3.015778 1_555
O10 Rb17 2.703979 1_655
O10 Rb0 2.708376 1_555
O10 Rb12 2.728064 1_555
O10 Rb5 2.828936 1_655
O10 Rb9 3.215999 1_655
O11 Rb16 2.703979 1_555
O11 Rb1 2.708376 1_555
O11 Rb13 2.728064 1_545
O11 Rb4 2.828936 1_555
O11 Rb8 3.215999 1_545
O12 Rb12 2.721865 1_555
O12 Rb11 2.731652 1_555
O12 Rb20 2.890748 1_555
O12 Rb22 3.010705 1_555
O12 Rb14 3.173140 1_555
O13 Rb13 2.721865 1_545
O13 Rb10 2.731652 1_555
O13 Rb21 2.890748 1_555
O13 Rb23 3.010705 1_545
O13 Rb15 3.173140 1_545
O14 Rb24 2.781474 1_555
O14 Rb11 2.820547 1_555
O14 Rb16 2.855823 1_555
O14 Rb26 2.972049 1_555
O15 Rb25 2.781474 1_555
O15 Rb10 2.820547 1_655
O15 Rb17 2.855823 1_655
O15 Rb27 2.972049 1_655
O16 Rb15 2.781474 1_555
O16 Rb28 2.820547 1_455
O16 Rb22 2.855823 1_455
O16 Rb12 2.972049 1_455
O17 Rb14 2.781474 1_555
O17 Rb29 2.820547 1_555
O17 Rb23 2.855823 1_555
O17 Rb13 2.972049 1_555
O18 Rb26 2.721865 1_565
O18 Rb28 2.731652 1_555
O18 Rb18 2.890748 1_555
O18 Rb16 3.010705 1_565
O18 Rb25 3.173140 1_565
O19 Rb27 2.721865 1_555
O19 Rb29 2.731652 1_555
O19 Rb19 2.890748 1_555
O19 Rb17 3.010705 1_555
O19 Rb24 3.173140 1_555
O20 Rb22 2.703979 1_455
O20 Rb39 2.708376 1_555
O20 Rb27 2.728064 1_555
O20 Rb35 2.828936 1_455
O20 Rb30 3.215999 1_455
O21 Rb23 2.703979 1_555
O21 Rb38 2.708376 1_555
O21 Rb26 2.728064 1_565
O21 Rb34 2.828936 1_555
O21 Rb31 3.215999 1_565
O22 Rb38 2.721473 1_555
O22 Rb28 2.802693 1_555
O22 Rb22 2.841436 1_555
O22 Rb35 2.963478 1_555
O22 Rb32 3.015778 1_555
O23 Rb39 2.721473 1_555
O23 Rb29 2.802693 1_555
O23 Rb23 2.841436 1_555
O23 Rb34 2.963478 1_555
O23 Rb33 3.015778 1_555
O24 Rb20 2.721473 1_555
O24 Rb30 2.802693 1_555
O24 Rb37 2.841436 1_555
O24 Rb25 2.963478 1_555
O24 Rb26 3.015778 1_555
O25 Rb21 2.721473 1_555
O25 Rb31 2.802693 1_555
O25 Rb36 2.841436 1_555
O25 Rb24 2.963478 1_555
O25 Rb27 3.015778 1_555
O26 Rb37 2.703979 1_455
O26 Rb21 2.708376 1_555
O26 Rb33 2.728064 1_545
O26 Rb25 2.828936 1_455
O26 Rb28 3.215999 1_445
O27 Rb36 2.703979 1_555
O27 Rb20 2.708376 1_555
O27 Rb32 2.728064 1_555
O27 Rb24 2.828936 1_555
O27 Rb29 3.215999 1_555
O28 Rb33 2.721865 1_545
O28 Rb31 2.731652 1_555
O28 Rb1 2.890748 1_556
O28 Rb2 3.010705 1_546
O28 Rb34 3.173140 1_545
O29 Rb32 2.721865 1_555
O29 Rb30 2.731652 1_555
O29 Rb0 2.890748 1_556
O29 Rb3 3.010705 1_556
O29 Rb35 3.173140 1_555
O30 Rb5 2.781474 1_556
O30 Rb30 2.820547 1_455
O30 Rb37 2.855823 1_455
O30 Rb6 2.972049 1_456
O31 Rb4 2.781474 1_556
O31 Rb31 2.820547 1_555
O31 Rb36 2.855823 1_555
O31 Rb7 2.972049 1_556
