# generated using pymatgen
data_LiFe2F7
_symmetry_space_group_name_H-M   'P 1'
_cell_length_a   4.93566454
_cell_length_b   7.26203772
_cell_length_c   12.49975735
_cell_angle_alpha   85.60504579
_cell_angle_beta   90.00000000
_cell_angle_gamma   90.00000000
_symmetry_Int_Tables_number   1
_chemical_formula_structural   LiFe2F7
_chemical_formula_sum   'Li4 Fe8 F28'
_cell_volume   446.71115272
_cell_formula_units_Z   4
loop_
 _symmetry_equiv_pos_site_id
 _symmetry_equiv_pos_as_xyz
  1  'x, y, z'
loop_
 _atom_site_type_symbol
 _atom_site_label
 _atom_site_symmetry_multiplicity
 _atom_site_fract_x
 _atom_site_fract_y
 _atom_site_fract_z
 _atom_site_occupancy
  Li  Li0  1  0.24776245  0.18051335  0.08542186  1
  Li  Li1  1  0.25223755  0.68051335  0.08542186  1
  Li  Li2  1  0.74776245  0.31948665  0.91457814  1
  Li  Li3  1  0.75223755  0.81948665  0.91457814  1
  Fe  Fe0  1  0.75480736  0.36456073  0.17917149  1
  Fe  Fe1  1  0.74519264  0.86456073  0.17917149  1
  Fe  Fe2  1  0.24960796  0.28052402  0.39258806  1
  Fe  Fe3  1  0.25039204  0.78052402  0.39258806  1
  Fe  Fe4  1  0.74960796  0.21947598  0.60741194  1
  Fe  Fe5  1  0.75039204  0.71947598  0.60741194  1
  Fe  Fe6  1  0.25480736  0.13543927  0.82082851  1
  Fe  Fe7  1  0.24519264  0.63543927  0.82082851  1
  F  F0  1  0.07674562  0.44294416  0.11167229  1
  F  F1  1  0.57765416  0.31460007  0.05074078  1
  F  F2  1  0.91259812  0.10768911  0.17704030  1
  F  F3  1  0.42325438  0.94294416  0.11167229  1
  F  F4  1  0.92234584  0.81460007  0.05074078  1
  F  F5  1  0.58740188  0.60768911  0.17704030  1
  F  F6  1  0.92666692  0.37323261  0.31898371  1
  F  F7  1  0.43310786  0.25371439  0.25602294  1
  F  F8  1  0.57333308  0.87323261  0.31898371  1
  F  F9  1  0.06689214  0.75371439  0.25602294  1
  F  F10  1  0.38558070  0.53080749  0.39145634  1
  F  F11  1  0.11441930  0.03080749  0.39145634  1
  F  F12  1  0.56617825  0.19220028  0.47194516  1
  F  F13  1  0.06617825  0.30779972  0.52805484  1
  F  F14  1  0.93382175  0.69220028  0.47194516  1
  F  F15  1  0.43382175  0.80779972  0.52805484  1
  F  F16  1  0.88558070  0.96919251  0.60854366  1
  F  F17  1  0.61441930  0.46919251  0.60854366  1
  F  F18  1  0.93310786  0.24628561  0.74397706  1
  F  F19  1  0.42666692  0.12676739  0.68101629  1
  F  F20  1  0.56689214  0.74628561  0.74397706  1
  F  F21  1  0.07333308  0.62676739  0.68101629  1
  F  F22  1  0.41259812  0.39231089  0.82295970  1
  F  F23  1  0.07765416  0.18539993  0.94925922  1
  F  F24  1  0.57674562  0.05705584  0.88832771  1
  F  F25  1  0.08740188  0.89231089  0.82295970  1
  F  F26  1  0.42234584  0.68539993  0.94925922  1
  F  F27  1  0.92325438  0.55705584  0.88832771  1
loop_
_geom_bond_atom_site_label_1
_geom_bond_atom_site_label_2
_geom_bond_distance
_geom_bond_site_symmetry_2
F0 Fe0 1.867387 1_455
F0 Li1 1.935871 1_555
F0 Li0 2.132601 1_555
F1 Fe0 1.887480 1_555
F1 Li2 1.895714 1_554
F1 Li0 1.929392 1_555
F2 Fe1 1.947709 1_545
F2 Fe0 2.023516 1_555
F2 Li0 2.057896 1_655
F3 Fe1 1.867387 1_555
F3 Li0 1.935871 1_565
F3 Li1 2.132601 1_555
F4 Fe1 1.887480 1_555
F4 Li3 1.895714 1_554
F4 Li1 1.929392 1_655
F5 Fe0 1.947709 1_555
F5 Fe1 2.023516 1_555
F5 Li1 2.057896 1_555
F6 Fe2 1.935307 1_655
F6 Fe0 1.947952 1_555
F7 Fe2 1.955269 1_555
F7 Fe0 1.993332 1_555
F7 Li0 2.416739 1_555
F8 Fe3 1.935307 1_555
F8 Fe1 1.947952 1_555
F9 Fe3 1.955269 1_555
F9 Fe1 1.993332 1_455
F9 Li1 2.416739 1_555
F10 Fe3 1.933379 1_555
F10 Fe2 1.936546 1_555
F11 Fe2 1.933379 1_555
F11 Fe3 1.936546 1_545
F12 Fe2 1.933703 1_555
F12 Fe4 1.943596 1_555
F13 Fe4 1.933703 1_455
F13 Fe2 1.943596 1_555
F14 Fe3 1.933703 1_655
F14 Fe5 1.943596 1_555
F15 Fe5 1.933703 1_555
F15 Fe3 1.943596 1_555
F16 Fe5 1.933379 1_555
F16 Fe4 1.936546 1_565
F17 Fe4 1.933379 1_555
F17 Fe5 1.936546 1_555
F18 Fe4 1.955269 1_555
F18 Fe6 1.993332 1_655
F18 Li2 2.416739 1_555
F19 Fe4 1.935307 1_555
F19 Fe6 1.947952 1_555
F20 Fe5 1.955269 1_555
F20 Fe7 1.993332 1_555
F20 Li3 2.416739 1_555
F21 Fe5 1.935307 1_455
F21 Fe7 1.947952 1_555
F22 Fe7 1.947709 1_555
F22 Fe6 2.023516 1_555
F22 Li2 2.057896 1_555
F23 Fe6 1.887480 1_555
F23 Li0 1.895714 1_556
F23 Li2 1.929392 1_455
F24 Fe6 1.867387 1_555
F24 Li3 1.935871 1_545
F24 Li2 2.132601 1_555
F25 Fe6 1.947709 1_565
F25 Fe7 2.023516 1_555
F25 Li3 2.057896 1_455
F26 Fe7 1.887480 1_555
F26 Li1 1.895714 1_556
F26 Li3 1.929392 1_555
F27 Fe7 1.867387 1_655
F27 Li2 1.935871 1_555
F27 Li3 2.132601 1_555
