# generated using pymatgen
data_MnNb(PO4)2
_symmetry_space_group_name_H-M   'P 1'
_cell_length_a   6.14002301
_cell_length_b   10.11818783
_cell_length_c   10.19762958
_cell_angle_alpha   92.51525148
_cell_angle_beta   90.00297665
_cell_angle_gamma   89.99345411
_symmetry_Int_Tables_number   1
_chemical_formula_structural   MnNb(PO4)2
_chemical_formula_sum   'Mn4 Nb4 P8 O32'
_cell_volume   632.92660804
_cell_formula_units_Z   4
loop_
 _symmetry_equiv_pos_site_id
 _symmetry_equiv_pos_as_xyz
  1  'x, y, z'
loop_
 _atom_site_type_symbol
 _atom_site_label
 _atom_site_symmetry_multiplicity
 _atom_site_fract_x
 _atom_site_fract_y
 _atom_site_fract_z
 _atom_site_occupancy
  Mn  Mn0  1  0.25034700  0.97037700  0.27808900  1
  Mn  Mn1  1  0.75045200  0.52944400  0.72220400  1
  Mn  Mn2  1  0.24930300  0.47101100  0.27760600  1
  Mn  Mn3  1  0.74946600  0.02960400  0.72200800  1
  Nb  Nb0  1  0.74971900  0.21796900  0.21602000  1
  Nb  Nb1  1  0.74995700  0.71857800  0.21639500  1
  Nb  Nb2  1  0.24974300  0.28204100  0.78411900  1
  Nb  Nb3  1  0.24998400  0.78137300  0.78349700  1
  P  P0  1  0.24976200  0.20587100  0.08907200  1
  P  P1  1  0.24998200  0.70597200  0.08894600  1
  P  P2  1  0.74978400  0.29411200  0.91104100  1
  P  P3  1  0.75001300  0.79404100  0.91096400  1
  P  P4  1  0.75010700  0.44018600  0.39885100  1
  P  P5  1  0.75027000  0.94072100  0.39903600  1
  P  P6  1  0.25016200  0.05984700  0.60113300  1
  P  P7  1  0.25035900  0.55916000  0.60095900  1
  O  O0  1  0.75010400  0.34209400  0.05688600  1
  O  O1  1  0.75008500  0.84213600  0.05686500  1
  O  O2  1  0.25007500  0.15788800  0.94320900  1
  O  O3  1  0.25006300  0.65785800  0.94307900  1
  O  O4  1  0.24989400  0.35486900  0.10506800  1
  O  O5  1  0.24996500  0.85495700  0.10503300  1
  O  O6  1  0.74999800  0.14513300  0.89494000  1
  O  O7  1  0.75008100  0.64505700  0.89499800  1
  O  O8  1  0.75041500  0.08817600  0.36555100  1
  O  O9  1  0.75014300  0.58741400  0.36436800  1
  O  O10  1  0.25040400  0.41169900  0.63445900  1
  O  O11  1  0.25013400  0.91262400  0.63559700  1
  O  O12  1  0.24991500  0.07528100  0.45517400  1
  O  O13  1  0.25011000  0.57560600  0.45508100  1
  O  O14  1  0.74988100  0.42474100  0.54483700  1
  O  O15  1  0.75006300  0.92436600  0.54488400  1
  O  O16  1  0.04831400  0.14183200  0.16110400  1
  O  O17  1  0.04883000  0.64192100  0.16133400  1
  O  O18  1  0.45071900  0.14168000  0.16145000  1
  O  O19  1  0.45099300  0.64193200  0.16144100  1
  O  O20  1  0.54829400  0.35814700  0.83898800  1
  O  O21  1  0.54873700  0.85801000  0.83862200  1
  O  O22  1  0.95065800  0.35832500  0.83860800  1
  O  O23  1  0.95101300  0.85803400  0.83847900  1
  O  O24  1  0.94430800  0.36481100  0.32546700  1
  O  O25  1  0.94431000  0.86549500  0.32514700  1
  O  O26  1  0.55596600  0.36473800  0.32523900  1
  O  O27  1  0.55611600  0.86552900  0.32505700  1
  O  O28  1  0.05605700  0.13537200  0.67470200  1
  O  O29  1  0.05623400  0.63439900  0.67497400  1
  O  O30  1  0.44432900  0.13523300  0.67449900  1
  O  O31  1  0.44438000  0.63433500  0.67492200  1
loop_
_geom_bond_atom_site_label_1
_geom_bond_atom_site_label_2
_geom_bond_distance
_geom_bond_site_symmetry_2
Mn0 O12 2.054143 1_565
Mn0 O5 2.073005 1_555
Mn0 O27 2.218928 1_555
Mn0 O25 2.220953 1_455
Mn0 O18 2.472694 1_565
Mn0 O16 2.480437 1_565
Mn1 O14 2.055638 1_555
Mn1 O7 2.071826 1_555
Mn1 O29 2.220405 1_655
Mn1 O31 2.221474 1_555
Mn1 O22 2.469358 1_555
Mn1 O20 2.478881 1_555
Mn2 O13 2.056064 1_555
Mn2 O4 2.072503 1_555
Mn2 O24 2.224045 1_455
Mn2 O26 2.232232 1_555
Mn2 O17 2.467960 1_555
Mn2 O19 2.471477 1_555
Mn3 O15 2.056103 1_545
Mn3 O6 2.072541 1_555
Mn3 O30 2.220828 1_555
Mn3 O28 2.228809 1_655
Mn3 O21 2.475782 1_545
Mn3 O23 2.477107 1_545
Nb0 O8 2.055642 1_555
Nb0 O16 2.056765 1_655
Nb0 O18 2.058747 1_555
Nb0 O0 2.095155 1_555
Nb0 O26 2.171555 1_555
Nb0 O24 2.176104 1_555
Nb1 O9 2.052822 1_555
Nb1 O17 2.060577 1_655
Nb1 O19 2.060861 1_555
Nb1 O1 2.094764 1_555
Nb1 O27 2.170334 1_555
Nb1 O25 2.172396 1_555
Nb2 O10 2.055739 1_555
Nb2 O20 2.056393 1_555
Nb2 O22 2.058878 1_455
Nb2 O2 2.094974 1_555
Nb2 O28 2.171759 1_555
Nb2 O30 2.176596 1_555
Nb3 O11 2.052852 1_555
Nb3 O21 2.060120 1_555
Nb3 O23 2.060921 1_455
Nb3 O3 2.094916 1_555
Nb3 O29 2.169624 1_555
Nb3 O31 2.172362 1_555
O0 P2 1.544122 1_554
O1 P3 1.544974 1_554
O2 P0 1.544299 1_556
O3 P1 1.544697 1_556
O4 P0 1.509255 1_555
O5 P1 1.509184 1_555
O6 P2 1.509134 1_555
O7 P3 1.509095 1_555
O8 P5 1.545093 1_545
O9 P4 1.545568 1_555
O10 P7 1.545193 1_555
O11 P6 1.545466 1_565
O12 P6 1.503407 1_555
O13 P7 1.504128 1_555
O14 P4 1.503697 1_555
O15 P5 1.503683 1_555
O16 P0 1.591033 1_555
O17 P1 1.591418 1_555
O18 P0 1.590872 1_555
O19 P1 1.591050 1_555
O20 P2 1.591144 1_555
O21 P3 1.591254 1_555
O22 P2 1.591017 1_555
O23 P3 1.590920 1_555
O24 P4 1.585330 1_555
O25 P5 1.586224 1_555
O26 P4 1.586515 1_555
O27 P5 1.587081 1_555
O28 P6 1.586437 1_555
O29 P7 1.587260 1_555
O30 P6 1.585214 1_555
O31 P7 1.586314 1_555
