# generated using pymatgen
data_Mn12O7F17
_symmetry_space_group_name_H-M   'P 1'
_cell_length_a   4.76180500
_cell_length_b   5.74739251
_cell_length_c   15.98747081
_cell_angle_alpha   90.06621677
_cell_angle_beta   90.25658607
_cell_angle_gamma   94.09828217
_symmetry_Int_Tables_number   1
_chemical_formula_structural   Mn12O7F17
_chemical_formula_sum   'Mn12 O7 F17'
_cell_volume   436.42081218
_cell_formula_units_Z   1
loop_
 _symmetry_equiv_pos_site_id
 _symmetry_equiv_pos_as_xyz
  1  'x, y, z'
loop_
 _atom_site_type_symbol
 _atom_site_label
 _atom_site_symmetry_multiplicity
 _atom_site_fract_x
 _atom_site_fract_y
 _atom_site_fract_z
 _atom_site_occupancy
  Mn  Mn0  1  0.01767900  0.84608900  0.59056300  1
  Mn  Mn1  1  0.02191500  0.14487500  0.75564300  1
  Mn  Mn2  1  0.00232800  0.84268100  0.91644000  1
  Mn  Mn3  1  0.00632200  0.84310200  0.25144700  1
  Mn  Mn4  1  0.02364600  0.16640800  0.42934500  1
  Mn  Mn5  1  0.02134800  0.16980800  0.09306200  1
  Mn  Mn6  1  0.52600800  0.66822400  0.40806600  1
  Mn  Mn7  1  0.51993600  0.66561800  0.07174700  1
  Mn  Mn8  1  0.49087100  0.68344000  0.73595600  1
  Mn  Mn9  1  0.51031100  0.34268100  0.91095300  1
  Mn  Mn10  1  0.50234800  0.34770600  0.58411400  1
  Mn  Mn11  1  0.50589400  0.34297400  0.24943800  1
  O  O0  1  0.20820500  0.89159200  0.69807200  1
  O  O1  1  0.22418700  0.10978400  0.86569200  1
  O  O2  1  0.24003500  0.10954500  0.53828500  1
  O  O3  1  0.23053100  0.11101800  0.20298900  1
  O  O4  1  0.73244100  0.61021200  0.96294200  1
  O  O5  1  0.71701500  0.61987900  0.63449600  1
  O  O6  1  0.73077000  0.61169600  0.29762200  1
  F  F0  1  0.21783500  0.88318100  0.36232000  1
  F  F1  1  0.21407600  0.88273700  0.02627000  1
  F  F2  1  0.26843100  0.60997500  0.85021400  1
  F  F3  1  0.25529500  0.38838000  0.68713000  1
  F  F4  1  0.26340500  0.60080800  0.51803100  1
  F  F5  1  0.27040300  0.38537900  0.35402300  1
  F  F6  1  0.25896000  0.60905600  0.18395100  1
  F  F7  1  0.27210900  0.38430300  0.01781900  1
  F  F8  1  0.72996300  0.37683000  0.80106300  1
  F  F9  1  0.71884600  0.38154400  0.47358000  1
  F  F10  1  0.71439400  0.38336700  0.13873600  1
  F  F11  1  0.75651100  0.88044500  0.81450600  1
  F  F12  1  0.78435800  0.87953400  0.48426800  1
  F  F13  1  0.75637100  0.12337600  0.64991800  1
  F  F14  1  0.75751100  0.11040200  0.98025600  1
  F  F15  1  0.76978000  0.88568100  0.14541200  1
  F  F16  1  0.75996500  0.10766900  0.31563000  1
loop_
_geom_bond_atom_site_label_1
_geom_bond_atom_site_label_2
_geom_bond_distance
_geom_bond_site_symmetry_2
Mn0 O0 1.948547 1_555
Mn0 O2 1.973345 1_565
Mn0 O5 1.994612 1_455
Mn1 O0 1.985440 1_545
Mn1 O1 2.019234 1_555
Mn2 O4 1.937753 1_455
Mn2 O1 1.977311 1_565
Mn3 O6 1.948590 1_455
Mn3 O3 1.971363 1_565
Mn4 O2 2.057995 1_555
Mn5 O3 2.056407 1_555
Mn6 O6 2.057520 1_555
Mn7 O4 2.052273 1_554
Mn8 O0 1.958136 1_555
Mn8 O5 1.998685 1_555
Mn9 O1 1.974816 1_555
Mn9 O4 1.982573 1_555
Mn10 O2 1.927634 1_555
Mn10 O5 1.975308 1_555
Mn11 O3 1.946065 1_555
Mn11 O6 1.969485 1_555
F0 Mn3 2.039466 1_555
F0 Mn6 2.113353 1_555
F0 Mn4 2.207504 1_565
F1 Mn2 2.025562 1_554
F1 Mn7 2.111734 1_555
F1 Mn5 2.219424 1_565
F2 Mn8 2.142948 1_555
F2 Mn2 2.183210 1_555
F2 Mn9 2.208158 1_555
F3 Mn1 2.045872 1_555
F3 Mn10 2.051067 1_555
F3 Mn8 2.112041 1_555
F4 Mn10 2.180878 1_555
F4 Mn6 2.180960 1_555
F4 Mn0 2.223800 1_555
F5 Mn11 2.041450 1_555
F5 Mn4 2.054124 1_555
F5 Mn6 2.138952 1_555
F6 Mn3 2.158863 1_555
F6 Mn7 2.198072 1_555
F6 Mn11 2.251037 1_555
F7 Mn5 2.049035 1_555
F7 Mn9 2.077985 1_554
F7 Mn7 2.113069 1_555
F8 Mn9 2.051095 1_555
F8 Mn1 2.123433 1_655
F8 Mn8 2.401133 1_555
F9 Mn10 2.052298 1_555
F9 Mn4 2.097437 1_655
F9 Mn6 2.206054 1_555
F10 Mn11 2.038557 1_555
F10 Mn5 2.107153 1_655
F10 Mn7 2.201324 1_555
F11 Mn2 2.023145 1_655
F11 Mn8 2.058374 1_555
F11 Mn1 2.128843 1_665
F12 Mn0 2.042945 1_655
F12 Mn6 2.059657 1_555
F12 Mn4 2.128755 1_665
F13 Mn1 2.104572 1_655
F13 Mn10 2.108772 1_555
F13 Mn0 2.297626 1_645
F14 Mn9 2.147510 1_555
F14 Mn5 2.205558 1_656
F14 Mn2 2.242978 1_645
F15 Mn7 2.042313 1_555
F15 Mn3 2.055640 1_655
F15 Mn5 2.129476 1_665
F16 Mn11 2.153659 1_555
F16 Mn4 2.216579 1_655
F16 Mn3 2.236823 1_645
