# generated using pymatgen
data_LiFe2(BO3)2
_symmetry_space_group_name_H-M   'P 1'
_cell_length_a   5.27569200
_cell_length_b   9.11362129
_cell_length_c   11.35907006
_cell_angle_alpha   113.53310783
_cell_angle_beta   103.05838085
_cell_angle_gamma   89.73798920
_symmetry_Int_Tables_number   1
_chemical_formula_structural   LiFe2(BO3)2
_chemical_formula_sum   'Li4 Fe8 B8 O24'
_cell_volume   485.53149555
_cell_formula_units_Z   4
loop_
 _symmetry_equiv_pos_site_id
 _symmetry_equiv_pos_as_xyz
  1  'x, y, z'
loop_
 _atom_site_type_symbol
 _atom_site_label
 _atom_site_symmetry_multiplicity
 _atom_site_fract_x
 _atom_site_fract_y
 _atom_site_fract_z
 _atom_site_occupancy
  Li  Li0  1  0.83225600  0.18359100  0.34633200  1
  Li  Li1  1  0.39388600  0.04902500  0.10362000  1
  Li  Li2  1  0.07115100  0.41018100  0.83875000  1
  Li  Li3  1  0.57045900  0.90506600  0.83435900  1
  Fe  Fe0  1  0.60057900  0.58822900  0.86896300  1
  Fe  Fe1  1  0.90514200  0.88539500  0.12162300  1
  Fe  Fe2  1  0.15720000  0.47766700  0.61410200  1
  Fe  Fe3  1  0.34280800  0.02183400  0.37549200  1
  Fe  Fe4  1  0.65445600  0.97732300  0.61814200  1
  Fe  Fe5  1  0.85255100  0.53384000  0.36679800  1
  Fe  Fe6  1  0.09161800  0.09520200  0.87279400  1
  Fe  Fe7  1  0.39773200  0.40400700  0.12821000  1
  B  B0  1  0.35237500  0.34594100  0.36426600  1
  B  B1  1  0.10517200  0.76931500  0.87543300  1
  B  B2  1  0.85485800  0.85763500  0.37106400  1
  B  B3  1  0.59466400  0.26550800  0.87464800  1
  B  B4  1  0.15241800  0.14736500  0.62913800  1
  B  B5  1  0.39803000  0.72904000  0.11730500  1
  B  B6  1  0.65848000  0.64257800  0.62314600  1
  B  B7  1  0.89722500  0.22606400  0.12393600  1
  O  O0  1  0.86961900  0.78984000  0.91606200  1
  O  O1  1  0.52599000  0.53978700  0.65744400  1
  O  O2  1  0.78776500  0.09280300  0.13266300  1
  O  O3  1  0.47763900  0.21158600  0.35540500  1
  O  O4  1  0.12191800  0.37085400  0.41157200  1
  O  O5  1  0.18637900  0.61538300  0.82362900  1
  O  O6  1  0.73183200  0.38584400  0.86727500  1
  O  O7  1  0.93508500  0.96565200  0.31917400  1
  O  O8  1  0.28232300  0.87565500  0.15448300  1
  O  O9  1  0.36840900  0.09772800  0.58012400  1
  O  O10  1  0.06613900  0.29349200  0.64117300  1
  O  O11  1  0.62389300  0.72701700  0.07409700  1
  O  O12  1  0.36217300  0.29126900  0.91966000  1
  O  O13  1  0.64253600  0.90083100  0.42837600  1
  O  O14  1  0.68038100  0.11015400  0.83409900  1
  O  O15  1  0.02383900  0.04993900  0.66989000  1
  O  O16  1  0.28744800  0.59591600  0.11716100  1
  O  O17  1  0.77019100  0.36336000  0.15283700  1
  O  O18  1  0.87343600  0.59496800  0.57231100  1
  O  O19  1  0.57961000  0.79346000  0.64776900  1
  O  O20  1  0.97886500  0.72910100  0.36311400  1
  O  O21  1  0.25530300  0.90389700  0.89307400  1
  O  O22  1  0.44519400  0.45521900  0.32242500  1
  O  O23  1  0.13722500  0.21821100  0.08918300  1
loop_
_geom_bond_atom_site_label_1
_geom_bond_atom_site_label_2
_geom_bond_distance
_geom_bond_site_symmetry_2
Li0 O3 1.907239 1_555
Li0 O7 1.977620 1_545
Li0 O4 2.073462 1_655
Li0 O2 2.184287 1_555
Li1 O8 2.016894 1_545
Li1 O2 2.044194 1_555
Li1 O23 2.078536 1_555
Li1 O21 2.167110 1_544
Li1 O3 2.573179 1_555
Li2 O6 1.918834 1_455
Li2 O5 2.051960 1_555
Li2 O10 2.058155 1_555
Li2 O12 2.125771 1_555
Li3 O21 1.927779 1_555
Li3 O14 1.960846 1_565
Li3 O19 1.963003 1_555
Li3 O0 2.134535 1_555
Fe0 O6 1.961623 1_555
Fe0 O11 2.136081 1_556
Fe0 O0 2.138368 1_555
Fe0 O5 2.165596 1_555
Fe0 O1 2.202230 1_555
Fe1 O11 1.900476 1_555
Fe1 O8 1.948351 1_655
Fe1 O2 1.951226 1_565
Fe1 O7 2.031166 1_555
Fe1 O0 2.103708 1_554
Fe2 O10 1.904998 1_555
Fe2 O18 1.918026 1_455
Fe2 O1 1.924315 1_555
Fe2 O4 2.072341 1_555
Fe2 O5 2.171241 1_555
Fe3 O3 1.987036 1_555
Fe3 O13 2.039904 1_545
Fe3 O7 2.103564 1_445
Fe3 O9 2.115357 1_555
Fe3 O8 2.269395 1_545
Fe4 O19 1.895633 1_555
Fe4 O9 1.933072 1_565
Fe4 O15 1.940267 1_665
Fe4 O13 1.968643 1_555
Fe4 O14 2.231644 1_565
Fe5 O20 1.922366 1_555
Fe5 O18 2.148928 1_555
Fe5 O22 2.149938 1_555
Fe5 O4 2.177599 1_655
Fe5 O17 2.241234 1_555
Fe6 O21 2.013847 1_545
Fe6 O12 2.105715 1_555
Fe6 O15 2.116561 1_555
Fe6 O14 2.129074 1_455
Fe6 O23 2.211579 1_556
Fe7 O16 1.883138 1_555
Fe7 O17 1.975936 1_555
Fe7 O22 2.019067 1_555
Fe7 O23 2.024619 1_555
Fe7 O12 2.135410 1_554
B0 O3 1.367626 1_555
B0 O22 1.394685 1_555
B0 O4 1.419082 1_555
B1 O21 1.383025 1_555
B1 O5 1.395379 1_555
B1 O0 1.407266 1_455
B2 O20 1.320446 1_555
B2 O13 1.397983 1_555
B2 O7 1.440680 1_555
B3 O6 1.356992 1_555
B3 O14 1.410230 1_555
B3 O12 1.416287 1_555
B4 O10 1.369897 1_555
B4 O9 1.376201 1_555
B4 O15 1.392274 1_555
B5 O16 1.347875 1_555
B5 O11 1.384901 1_555
B5 O8 1.412376 1_555
B6 O19 1.372021 1_555
B6 O18 1.378074 1_555
B6 O1 1.392278 1_555
B7 O17 1.373433 1_555
B7 O2 1.395248 1_555
B7 O23 1.402360 1_655
