# generated using pymatgen
data_Fe2OF3
_symmetry_space_group_name_H-M   'P 1'
_cell_length_a   4.74312600
_cell_length_b   5.77716800
_cell_length_c   10.76575993
_cell_angle_alpha   82.65488474
_cell_angle_beta   90.00000000
_cell_angle_gamma   90.00000000
_symmetry_Int_Tables_number   1
_chemical_formula_structural   Fe2OF3
_chemical_formula_sum   'Fe8 O4 F12'
_cell_volume   292.58082684
_cell_formula_units_Z   4
loop_
 _symmetry_equiv_pos_site_id
 _symmetry_equiv_pos_as_xyz
  1  'x, y, z'
loop_
 _atom_site_type_symbol
 _atom_site_label
 _atom_site_symmetry_multiplicity
 _atom_site_fract_x
 _atom_site_fract_y
 _atom_site_fract_z
 _atom_site_occupancy
  Fe  Fe0  1  0.50000000  0.00000000  0.50000000  1
  Fe  Fe1  1  0.50000000  0.50000000  0.00000000  1
  Fe  Fe2  1  0.47562700  0.25632800  0.73250700  1
  Fe  Fe3  1  0.52437300  0.74367200  0.26749300  1
  Fe  Fe4  1  0.02437300  0.25632800  0.23250700  1
  Fe  Fe5  1  0.00000000  0.50000000  0.50000000  1
  Fe  Fe6  1  0.97562700  0.74367200  0.76749300  1
  Fe  Fe7  1  0.00000000  0.00000000  0.00000000  1
  O  O0  1  0.80718200  0.72150900  0.92221400  1
  O  O1  1  0.69281800  0.72150900  0.42221400  1
  O  O2  1  0.30718200  0.27849100  0.57778600  1
  O  O3  1  0.19281800  0.27849100  0.07778600  1
  F  F0  1  0.79414800  0.48286900  0.68586100  1
  F  F1  1  0.81670700  0.21847000  0.40445800  1
  F  F2  1  0.78998500  0.98406000  0.18183200  1
  F  F3  1  0.70585200  0.48286900  0.18586100  1
  F  F4  1  0.68329300  0.21847000  0.90445800  1
  F  F5  1  0.71001500  0.98406000  0.68183200  1
  F  F6  1  0.31670700  0.78153000  0.09554200  1
  F  F7  1  0.29414800  0.51713100  0.81413900  1
  F  F8  1  0.28998500  0.01594000  0.31816800  1
  F  F9  1  0.21001500  0.01594000  0.81816800  1
  F  F10  1  0.20585200  0.51713100  0.31413900  1
  F  F11  1  0.18329300  0.78153000  0.59554200  1
loop_
_geom_bond_atom_site_label_1
_geom_bond_atom_site_label_2
_geom_bond_distance
_geom_bond_site_symmetry_2
Fe0 O2 2.114409 1_555
Fe0 O1 2.114409 1_545
Fe1 O3 2.046398 1_555
Fe1 O0 2.046398 1_554
Fe2 O2 1.837039 1_555
Fe3 O1 1.837039 1_555
Fe4 O3 1.837039 1_555
Fe5 O2 2.046398 1_555
Fe5 O1 2.046398 1_455
Fe6 O0 1.837039 1_555
Fe7 O3 2.114409 1_555
Fe7 O0 2.114409 1_444
F0 Fe2 2.019771 1_555
F0 Fe6 2.030272 1_555
F0 Fe5 2.217256 1_655
F1 Fe4 2.083600 1_655
F1 Fe0 2.139061 1_555
F1 Fe5 2.210631 1_655
F2 Fe3 2.009683 1_555
F2 Fe4 2.055998 1_665
F2 Fe7 2.187852 1_665
F3 Fe4 2.019771 1_655
F3 Fe3 2.030272 1_555
F3 Fe1 2.217256 1_555
F4 Fe2 2.083600 1_555
F4 Fe7 2.139061 1_656
F4 Fe1 2.210631 1_556
F5 Fe6 2.009683 1_555
F5 Fe2 2.055998 1_565
F5 Fe0 2.187852 1_565
F6 Fe3 2.083600 1_555
F6 Fe7 2.139061 1_565
F6 Fe1 2.210631 1_555
F7 Fe6 2.019771 1_455
F7 Fe2 2.030272 1_555
F7 Fe1 2.217256 1_556
F8 Fe4 2.009683 1_555
F8 Fe3 2.055998 1_545
F8 Fe0 2.187852 1_555
F9 Fe2 2.009683 1_555
F9 Fe6 2.055998 1_445
F9 Fe7 2.187852 1_556
F10 Fe3 2.019771 1_555
F10 Fe4 2.030272 1_555
F10 Fe5 2.217256 1_555
F11 Fe6 2.083600 1_455
F11 Fe0 2.139061 1_565
F11 Fe5 2.210631 1_555
