# generated using pymatgen
data_Li2CuSiO4
_symmetry_space_group_name_H-M   'P 1'
_cell_length_a   5.04166974
_cell_length_b   5.04166974
_cell_length_c   11.42128500
_cell_angle_alpha   90.00000000
_cell_angle_beta   90.00000000
_cell_angle_gamma   119.99999662
_symmetry_Int_Tables_number   1
_chemical_formula_structural   Li2CuSiO4
_chemical_formula_sum   'Li6 Cu3 Si3 O12'
_cell_volume   251.41686249
_cell_formula_units_Z   3
loop_
 _symmetry_equiv_pos_site_id
 _symmetry_equiv_pos_as_xyz
  1  'x, y, z'
loop_
 _atom_site_type_symbol
 _atom_site_label
 _atom_site_symmetry_multiplicity
 _atom_site_fract_x
 _atom_site_fract_y
 _atom_site_fract_z
 _atom_site_occupancy
  Li  Li0  1  0.34114100  0.89634100  0.58608200  1
  Li  Li1  1  0.10365900  0.44480000  0.91941600  1
  Li  Li2  1  0.55520000  0.65885900  0.25274900  1
  Li  Li3  1  0.44480000  0.10365900  0.08058400  1
  Li  Li4  1  0.65885900  0.55520000  0.74725100  1
  Li  Li5  1  0.89634100  0.34114100  0.41391800  1
  Cu  Cu0  1  0.00000000  0.44983700  0.16666700  1
  Cu  Cu1  1  0.55016300  0.55016300  0.50000000  1
  Cu  Cu2  1  0.44983700  0.00000000  0.83333300  1
  Si  Si0  1  0.00000000  0.19039600  0.66666700  1
  Si  Si1  1  0.19039600  0.00000000  0.33333300  1
  Si  Si2  1  0.80960400  0.80960400  0.00000000  1
  O  O0  1  0.14110400  0.85388700  0.95661100  1
  O  O1  1  0.13401700  0.44314000  0.55910700  1
  O  O2  1  0.30912400  0.86598300  0.22577400  1
  O  O3  1  0.14611300  0.28721700  0.28994400  1
  O  O4  1  0.28721700  0.14611300  0.71005600  1
  O  O5  1  0.71278300  0.85889600  0.62327700  1
  O  O6  1  0.55686000  0.69087600  0.89244000  1
  O  O7  1  0.69087600  0.55686000  0.10756000  1
  O  O8  1  0.44314000  0.13401700  0.44089300  1
  O  O9  1  0.85889600  0.71278300  0.37672300  1
  O  O10  1  0.85388700  0.14110400  0.04338900  1
  O  O11  1  0.86598300  0.30912400  0.77422600  1
loop_
_geom_bond_atom_site_label_1
_geom_bond_atom_site_label_2
_geom_bond_distance
_geom_bond_site_symmetry_2
Li0 O8 1.958034 1_565
Li0 O4 2.001728 1_565
Li0 O1 2.005019 1_555
Li0 O5 2.020042 1_555
Li1 O11 1.958043 1_455
Li1 O10 2.001720 1_456
Li1 O6 2.005021 1_555
Li1 O0 2.020042 1_555
Li2 O7 1.958032 1_555
Li2 O9 2.001728 1_555
Li2 O2 2.005015 1_555
Li2 O3 2.020043 1_555
Li3 O2 1.958043 1_545
Li3 O0 2.001720 1_544
Li3 O7 2.005021 1_555
Li3 O10 2.020042 1_555
Li4 O6 1.958032 1_555
Li4 O5 2.001728 1_555
Li4 O11 2.005015 1_555
Li4 O4 2.020043 1_555
Li5 O1 1.958034 1_655
Li5 O3 2.001728 1_655
Li5 O8 2.005019 1_555
Li5 O9 2.020042 1_555
Cu0 O3 1.949675 1_555
Cu0 O10 1.949683 1_455
Cu0 O2 2.004173 1_555
Cu0 O7 2.004177 1_455
Cu1 O5 1.949675 1_555
Cu1 O9 1.949675 1_555
Cu1 O1 2.004172 1_555
Cu1 O8 2.004172 1_555
Cu2 O4 1.949675 1_555
Cu2 O0 1.949683 1_545
Cu2 O11 2.004173 1_555
Cu2 O6 2.004177 1_545
O0 Si2 1.647900 1_456
O1 Si0 1.651793 1_555
O2 Si1 1.651788 1_565
O3 Si1 1.647900 1_555
O4 Si0 1.647900 1_555
O5 Si0 1.647903 1_665
O6 Si2 1.651793 1_556
O7 Si2 1.651793 1_555
O8 Si1 1.651793 1_555
O9 Si1 1.647903 1_665
O10 Si2 1.647900 1_545
O11 Si0 1.651788 1_655
