# generated using pymatgen
data_TiNi5(PO4)6
_symmetry_space_group_name_H-M   'P 1'
_cell_length_a   8.50543246
_cell_length_b   8.50543246
_cell_length_c   8.50543235
_cell_angle_alpha   60.91068670
_cell_angle_beta   60.91068670
_cell_angle_gamma   60.91068578
_symmetry_Int_Tables_number   1
_chemical_formula_structural   TiNi5(PO4)6
_chemical_formula_sum   'Ti1 Ni5 P6 O24'
_cell_volume   444.01540844
_cell_formula_units_Z   1
loop_
 _symmetry_equiv_pos_site_id
 _symmetry_equiv_pos_as_xyz
  1  'x, y, z'
loop_
 _atom_site_type_symbol
 _atom_site_label
 _atom_site_symmetry_multiplicity
 _atom_site_fract_x
 _atom_site_fract_y
 _atom_site_fract_z
 _atom_site_occupancy
  Ti  Ti0  1  0.85451300  0.85451300  0.85451300  1
  Ni  Ni0  1  0.00086900  0.00086900  0.00086900  1
  Ni  Ni1  1  0.35976500  0.35976500  0.35976500  1
  Ni  Ni2  1  0.50098800  0.50098800  0.50098800  1
  Ni  Ni3  1  0.14257900  0.14257900  0.14257900  1
  Ni  Ni4  1  0.64227200  0.64227200  0.64227200  1
  P  P0  1  0.74907200  0.04744000  0.45213600  1
  P  P1  1  0.04744000  0.45213600  0.74907200  1
  P  P2  1  0.45213600  0.74907200  0.04744000  1
  P  P3  1  0.54657600  0.25172600  0.95339900  1
  P  P4  1  0.95339900  0.54657600  0.25172600  1
  P  P5  1  0.25172600  0.95339900  0.54657600  1
  O  O0  1  0.89824600  0.49284100  0.67128200  1
  O  O1  1  0.49284100  0.67128200  0.89824600  1
  O  O2  1  0.67128200  0.89824600  0.49284100  1
  O  O3  1  0.91011700  0.05481500  0.25678600  1
  O  O4  1  0.82399700  0.98742600  0.61440300  1
  O  O5  1  0.59841500  0.24655500  0.44455100  1
  O  O6  1  0.05481500  0.25678600  0.91011700  1
  O  O7  1  0.24655500  0.44455100  0.59841500  1
  O  O8  1  0.39044200  0.18493300  0.99294700  1
  O  O9  1  0.44455100  0.59841500  0.24655500  1
  O  O10  1  0.74639800  0.08854900  0.93655700  1
  O  O11  1  0.99294700  0.39044200  0.18493300  1
  O  O12  1  0.98742600  0.61440300  0.82399700  1
  O  O13  1  0.25678600  0.91011700  0.05481500  1
  O  O14  1  0.56355700  0.40581800  0.75224400  1
  O  O15  1  0.61440300  0.82399700  0.98742600  1
  O  O16  1  0.75224400  0.56355700  0.40581800  1
  O  O17  1  0.93655700  0.74639800  0.08854900  1
  O  O18  1  0.40581800  0.75224400  0.56355700  1
  O  O19  1  0.18493300  0.99294700  0.39044200  1
  O  O20  1  0.08854900  0.93655700  0.74639800  1
  O  O21  1  0.32129900  0.10556200  0.51092400  1
  O  O22  1  0.51092400  0.32129900  0.10556200  1
  O  O23  1  0.10556200  0.51092400  0.32129900  1
loop_
_geom_bond_atom_site_label_1
_geom_bond_atom_site_label_2
_geom_bond_distance
_geom_bond_site_symmetry_2
Ni0 O3 2.130106 1_455
Ni0 O13 2.130106 1_545
Ni0 O6 2.130106 1_554
Ni0 O20 2.173705 1_544
Ni0 O10 2.173705 1_454
Ni0 O17 2.173705 1_445
Ni1 O22 2.002655 1_555
Ni1 O23 2.002655 1_555
Ni1 O21 2.002655 1_555
Ni1 O7 2.101204 1_555
Ni1 O5 2.101204 1_555
Ni1 O9 2.101204 1_555
Ni2 O9 2.116573 1_555
Ni2 O5 2.116573 1_555
Ni2 O7 2.116573 1_555
Ni2 O14 2.123756 1_555
Ni2 O18 2.123756 1_555
Ni2 O16 2.123756 1_555
Ni3 O19 1.969196 1_545
Ni3 O11 1.969196 1_455
Ni3 O8 1.969196 1_554
Ni3 O6 2.067035 1_554
Ni3 O13 2.067035 1_545
Ni3 O3 2.067035 1_455
Ni4 O1 1.985733 1_555
Ni4 O0 1.985733 1_555
Ni4 O2 1.985733 1_555
Ni4 O16 2.058893 1_555
Ni4 O18 2.058893 1_555
Ni4 O14 2.058893 1_555
O0 P1 1.527856 1_655
O1 P2 1.527856 1_556
O2 P0 1.527856 1_565
O3 P0 1.552455 1_555
O4 P0 1.557365 1_565
O4 Ti0 1.871185 1_555
O5 P0 1.542183 1_555
O6 P1 1.552455 1_555
O7 P1 1.542183 1_555
O8 P3 1.520807 1_555
O9 P2 1.542183 1_555
O10 P3 1.580603 1_555
O10 Ti0 2.059566 1_545
O11 P4 1.520807 1_555
O12 P1 1.557365 1_655
O12 Ti0 1.871185 1_555
O13 P2 1.552455 1_555
O14 P3 1.558603 1_555
O15 P2 1.557365 1_556
O15 Ti0 1.871186 1_555
O16 P4 1.558603 1_555
O17 P4 1.580603 1_555
O17 Ti0 2.059566 1_554
O18 P5 1.558603 1_555
O19 P5 1.520807 1_555
O20 P5 1.580603 1_555
O20 Ti0 2.059566 1_455
O21 P5 1.518452 1_545
O22 P3 1.518452 1_554
O23 P4 1.518452 1_455
