# generated using pymatgen
data_Mn6O7F5
_symmetry_space_group_name_H-M   'P 1'
_cell_length_a   4.68352300
_cell_length_b   5.62318605
_cell_length_c   7.72185140
_cell_angle_alpha   86.25909169
_cell_angle_beta   89.79728644
_cell_angle_gamma   88.52467485
_symmetry_Int_Tables_number   1
_chemical_formula_structural   Mn6O7F5
_chemical_formula_sum   'Mn6 O7 F5'
_cell_volume   202.86422383
_cell_formula_units_Z   1
loop_
 _symmetry_equiv_pos_site_id
 _symmetry_equiv_pos_as_xyz
  1  'x, y, z'
loop_
 _atom_site_type_symbol
 _atom_site_label
 _atom_site_symmetry_multiplicity
 _atom_site_fract_x
 _atom_site_fract_y
 _atom_site_fract_z
 _atom_site_occupancy
  Mn  Mn0  1  0.49574700  0.49623000  0.99946100  1
  Mn  Mn1  1  0.48670600  0.84183000  0.66491900  1
  Mn  Mn2  1  0.53133500  0.16679300  0.34358300  1
  Mn  Mn3  1  0.02279400  0.32090500  0.66154500  1
  Mn  Mn4  1  0.95319600  0.66333600  0.32781400  1
  Mn  Mn5  1  0.00874600  0.00278400  0.00402600  1
  O  O0  1  0.80469400  0.36325600  0.43924200  1
  O  O1  1  0.80660600  0.70547300  0.10412200  1
  O  O2  1  0.69132300  0.20509400  0.11111200  1
  O  O3  1  0.69427400  0.87644200  0.43926200  1
  O  O4  1  0.31685800  0.13096000  0.56150000  1
  O  O5  1  0.30294500  0.79079000  0.89069500  1
  O  O6  1  0.19045500  0.29488200  0.89432900  1
  F  F0  1  0.80089600  0.03533000  0.76804300  1
  F  F1  1  0.70415600  0.54082500  0.74990800  1
  F  F2  1  0.29641300  0.45999500  0.24876000  1
  F  F3  1  0.18003200  0.64118400  0.54643400  1
  F  F4  1  0.21282300  0.96389100  0.24524500  1
loop_
_geom_bond_atom_site_label_1
_geom_bond_atom_site_label_2
_geom_bond_distance
_geom_bond_site_symmetry_2
Mn0 O2 2.001665 1_556
Mn0 O5 2.002786 1_555
Mn0 O6 2.048639 1_555
Mn0 O1 2.092337 1_556
Mn1 O4 1.918943 1_565
Mn1 O5 1.949198 1_555
Mn1 O3 1.993170 1_555
Mn2 O3 1.891123 1_545
Mn2 O0 1.895053 1_555
Mn2 O2 1.943861 1_555
Mn2 O4 1.958420 1_555
Mn3 O4 1.912816 1_555
Mn3 O6 1.959301 1_555
Mn3 O0 1.998337 1_455
Mn4 O1 1.859498 1_555
Mn4 O3 1.923416 1_555
Mn4 O0 1.984479 1_555
Mn5 O6 2.006237 1_554
Mn5 O5 2.031870 1_544
Mn5 O1 2.048523 1_445
Mn5 O2 2.053066 1_455
F0 Mn1 2.046265 1_545
F0 Mn3 2.059767 1_655
F0 Mn5 2.064341 1_656
F1 Mn1 2.025792 1_555
F1 Mn3 2.056660 1_655
F1 Mn0 2.159917 1_555
F2 Mn2 2.054210 1_555
F2 Mn4 2.062401 1_455
F2 Mn0 2.136542 1_554
F3 Mn4 1.993109 1_455
F3 Mn1 2.097743 1_555
F3 Mn3 2.104933 1_555
F4 Mn2 2.076644 1_565
F4 Mn5 2.092738 1_565
F4 Mn4 2.168220 1_455
