# generated using pymatgen
data_Na2ZnCl4O3
_symmetry_space_group_name_H-M   'P 1'
_cell_length_a   7.36676409
_cell_length_b   7.36676409
_cell_length_c   5.17635719
_cell_angle_alpha   89.91044889
_cell_angle_beta   89.91044889
_cell_angle_gamma   118.50647150
_symmetry_Int_Tables_number   1
_chemical_formula_structural   Na2ZnCl4O3
_chemical_formula_sum   'Na2 Zn1 Cl4 O3'
_cell_volume   246.85822417
_cell_formula_units_Z   1
loop_
 _symmetry_equiv_pos_site_id
 _symmetry_equiv_pos_as_xyz
  1  'x, y, z'
loop_
 _atom_site_type_symbol
 _atom_site_label
 _atom_site_symmetry_multiplicity
 _atom_site_fract_x
 _atom_site_fract_y
 _atom_site_fract_z
 _atom_site_occupancy
  Na  Na0  1  0.66749500  0.32867800  0.83464200  1
  Na  Na1  1  0.32867800  0.66749500  0.83464200  1
  Zn  Zn0  1  0.99789600  0.99789600  0.00760700  1
  Cl  Cl0  1  0.00232100  0.00232100  0.56634400  1
  Cl  Cl1  1  0.00062200  0.31041900  0.09929300  1
  Cl  Cl2  1  0.31041900  0.00062200  0.09929300  1
  Cl  Cl3  1  0.69236500  0.69236500  0.09179600  1
  O  O0  1  0.00079800  0.46827600  0.66290000  1
  O  O1  1  0.46827600  0.00079800  0.66290000  1
  O  O2  1  0.53113000  0.53113000  0.66058400  1
loop_
_geom_bond_atom_site_label_1
_geom_bond_atom_site_label_2
_geom_bond_distance
_geom_bond_site_symmetry_2
Na0 O1 2.324985 1_555
Na0 O0 2.335983 1_655
Na0 O2 2.339652 1_555
Na1 O0 2.324985 1_555
Na1 O1 2.335983 1_565
Na1 O2 2.339652 1_555
Cl0 Zn0 2.284276 1_446
Cl1 Zn0 2.342108 1_445
Cl1 Na0 2.870934 1_454
Cl1 Na1 2.923540 1_554
Cl2 Zn0 2.342108 1_445
Cl2 Na1 2.870934 1_544
Cl2 Na0 2.923540 1_554
Cl3 Zn0 2.340981 1_555
Cl3 Na0 2.920089 1_554
Cl3 Na1 2.920089 1_554
