# generated using pymatgen
data_Li3V2(O2F)2
_symmetry_space_group_name_H-M   'P 1'
_cell_length_a   5.28340534
_cell_length_b   14.97931066
_cell_length_c   5.89211982
_cell_angle_alpha   100.62400068
_cell_angle_beta   91.38468044
_cell_angle_gamma   87.02975482
_symmetry_Int_Tables_number   1
_chemical_formula_structural   Li3V2(O2F)2
_chemical_formula_sum   'Li12 V8 O16 F8'
_cell_volume   457.65291936
_cell_formula_units_Z   4
loop_
 _symmetry_equiv_pos_site_id
 _symmetry_equiv_pos_as_xyz
  1  'x, y, z'
loop_
 _atom_site_type_symbol
 _atom_site_label
 _atom_site_symmetry_multiplicity
 _atom_site_fract_x
 _atom_site_fract_y
 _atom_site_fract_z
 _atom_site_occupancy
  Li  Li0  1  0.32012900  0.30939500  0.18208500  1
  Li  Li1  1  0.81996600  0.80958100  0.18243100  1
  Li  Li2  1  0.18004700  0.19046100  0.81746500  1
  Li  Li3  1  0.67982800  0.69058800  0.81780700  1
  Li  Li4  1  0.70084500  0.17690800  0.09521300  1
  Li  Li5  1  0.20074000  0.67699000  0.09524600  1
  Li  Li6  1  0.79909500  0.32304200  0.90473100  1
  Li  Li7  1  0.29895300  0.82313300  0.90477500  1
  Li  Li8  1  0.85825000  0.31483800  0.41092800  1
  Li  Li9  1  0.35849000  0.81506800  0.41101200  1
  Li  Li10  1  0.64172200  0.18489000  0.58891300  1
  Li  Li11  1  0.14200000  0.68510500  0.58898300  1
  V  V0  1  0.49977400  0.50000100  0.99988700  1
  V  V1  1  0.00017400  0.00004600  0.00029600  1
  V  V2  1  0.00028100  0.00000500  0.50023300  1
  V  V3  1  0.49971600  0.49997600  0.49992000  1
  V  V4  1  0.49171200  0.00584700  0.25142800  1
  V  V5  1  0.99088700  0.50596000  0.25110100  1
  V  V6  1  0.00862900  0.49404200  0.74861800  1
  V  V7  1  0.50870300  0.99421000  0.74896400  1
  O  O0  1  0.34190500  0.06999600  0.03455400  1
  O  O1  1  0.84164500  0.56992000  0.03445200  1
  O  O2  1  0.15811800  0.43007300  0.96532000  1
  O  O3  1  0.65831400  0.93004500  0.96554500  1
  O  O4  1  0.68167100  0.43014600  0.21804000  1
  O  O5  1  0.18251200  0.93030100  0.21889100  1
  O  O6  1  0.81841700  0.06975100  0.78175700  1
  O  O7  1  0.31723700  0.56977100  0.78129300  1
  O  O8  1  0.81368100  0.06982200  0.27986900  1
  O  O9  1  0.31359600  0.56992100  0.27907600  1
  O  O10  1  0.68627100  0.43010300  0.72061700  1
  O  O11  1  0.18653100  0.93014000  0.72067200  1
  O  O12  1  0.15901000  0.42939800  0.45091100  1
  O  O13  1  0.65880100  0.92916100  0.45111500  1
  O  O14  1  0.34162000  0.07079300  0.54899100  1
  O  O15  1  0.84073200  0.57058000  0.54884600  1
  F  F0  1  0.99960900  0.25480200  0.10924100  1
  F  F1  1  0.49983900  0.75468600  0.10913600  1
  F  F2  1  0.50019100  0.24532700  0.89083300  1
  F  F3  1  0.00039400  0.74498400  0.89062800  1
  F  F4  1  0.54804500  0.25123200  0.35693400  1
  F  F5  1  0.04793900  0.75128800  0.35662600  1
  F  F6  1  0.95199900  0.24878200  0.64336200  1
  F  F7  1  0.45198200  0.74889500  0.64325300  1
loop_
_geom_bond_atom_site_label_1
_geom_bond_atom_site_label_2
_geom_bond_distance
_geom_bond_site_symmetry_2
Li0 O12 2.306840 1_555
Li0 O2 2.503943 1_554
Li1 O13 2.302452 1_555
Li1 O3 2.501284 1_554
Li2 O14 2.303348 1_555
Li2 O0 2.502374 1_556
Li3 O15 2.306934 1_555
Li3 O1 2.503076 1_556
Li4 O8 2.150653 1_555
Li4 O6 2.287455 1_554
Li4 O0 2.521866 1_555
Li5 O9 2.147371 1_555
Li5 O7 2.288522 1_554
Li5 O1 2.524045 1_455
Li6 O10 2.148297 1_555
Li6 O4 2.286235 1_556
Li6 O2 2.523361 1_655
Li7 O11 2.147108 1_555
Li7 O5 2.288695 1_556
Li7 O3 2.523609 1_555
Li8 O12 2.375023 1_655
Li8 O4 2.377177 1_555
Li8 O10 2.427387 1_555
Li9 O13 2.368151 1_555
Li9 O5 2.372473 1_555
Li9 O11 2.425643 1_555
Li10 O14 2.367470 1_555
Li10 O6 2.375221 1_555
Li10 O8 2.423324 1_555
Li11 O7 2.373009 1_555
Li11 O15 2.376481 1_455
Li11 O9 2.426806 1_555
O0 V4 1.872900 1_555
O0 V7 2.039744 1_544
O0 V1 2.121069 1_555
O1 V5 1.869005 1_555
O1 V6 2.041740 1_654
O1 V0 2.121446 1_554
O2 V6 1.869822 1_555
O2 V5 2.042115 1_456
O2 V0 2.120522 1_555
O3 V7 1.871331 1_555
O3 V4 2.040663 1_566
O3 V1 2.122017 1_666
O4 V0 2.000682 1_554
O4 V5 2.022862 1_555
O4 V3 2.027109 1_555
O5 V1 2.002583 1_565
O5 V4 2.020528 1_565
O5 V2 2.024818 1_565
O6 V1 2.000630 1_656
O6 V7 2.022711 1_545
O6 V2 2.024913 1_655
O7 V0 2.003270 1_555
O7 V6 2.019498 1_555
O7 V3 2.026030 1_555
O8 V4 1.983958 1_555
O8 V2 2.020774 1_655
O8 V1 2.028221 1_655
O9 V5 1.987365 1_455
O9 V3 2.022873 1_555
O9 V0 2.026512 1_554
O10 V6 1.985559 1_655
O10 V3 2.022606 1_555
O10 V0 2.027554 1_555
O11 V7 1.985654 1_555
O11 V2 2.020712 1_565
O11 V1 2.028760 1_566
O12 V5 1.957561 1_455
O12 V6 2.001798 1_555
O12 V3 2.121540 1_555
O13 V4 1.956080 1_565
O13 V7 2.003715 1_555
O13 V2 2.127178 1_665
O14 V7 1.956205 1_545
O14 V4 2.001892 1_555
O14 V2 2.126046 1_555
O15 V6 1.956675 1_655
O15 V5 2.001399 1_555
O15 V3 2.123156 1_555
F0 Li0 1.923449 1_655
F0 Li6 1.974705 1_554
F0 Li8 1.982783 1_555
F0 Li4 2.002222 1_555
F0 Li2 2.041159 1_654
F1 Li1 1.923865 1_555
F1 Li7 1.976939 1_554
F1 Li9 1.985077 1_555
F1 Li5 2.001914 1_555
F1 Li3 2.036978 1_554
F2 Li2 1.923812 1_555
F2 Li4 1.976157 1_556
F2 Li10 1.985873 1_555
F2 Li6 2.001242 1_555
F2 Li0 2.036677 1_556
F3 Li3 1.922385 1_455
F3 Li5 1.972489 1_556
F3 Li11 1.982439 1_555
F3 Li7 2.003633 1_555
F3 Li1 2.042382 1_456
F4 Li0 1.852768 1_555
F4 Li10 1.875624 1_555
F4 Li4 1.898223 1_555
F4 Li8 1.928724 1_555
F5 Li1 1.851590 1_455
F5 Li11 1.876349 1_555
F5 Li5 1.896628 1_555
F5 Li9 1.931764 1_555
F6 Li2 1.851720 1_655
F6 Li8 1.875125 1_555
F6 Li6 1.896571 1_555
F6 Li10 1.931376 1_555
F7 Li3 1.852616 1_555
F7 Li9 1.875032 1_555
F7 Li7 1.897353 1_555
F7 Li11 1.929185 1_555
