# generated using pymatgen
data_LiMn2O2F3
_symmetry_space_group_name_H-M   'P 1'
_cell_length_a   5.31336939
_cell_length_b   5.31336939
_cell_length_c   9.99362393
_cell_angle_alpha   89.37440106
_cell_angle_beta   89.37440106
_cell_angle_gamma   44.80241033
_symmetry_Int_Tables_number   1
_chemical_formula_structural   LiMn2O2F3
_chemical_formula_sum   'Li2 Mn4 O4 F6'
_cell_volume   198.79930171
_cell_formula_units_Z   2
loop_
 _symmetry_equiv_pos_site_id
 _symmetry_equiv_pos_as_xyz
  1  'x, y, z'
loop_
 _atom_site_type_symbol
 _atom_site_label
 _atom_site_symmetry_multiplicity
 _atom_site_fract_x
 _atom_site_fract_y
 _atom_site_fract_z
 _atom_site_occupancy
  Li  Li0  1  0.86334100  0.86334100  0.06014500  1
  Li  Li1  1  0.13665900  0.13665900  0.93985500  1
  Mn  Mn0  1  0.85960400  0.85960400  0.44229900  1
  Mn  Mn1  1  0.81599000  0.81599000  0.74938000  1
  Mn  Mn2  1  0.18401000  0.18401000  0.25062000  1
  Mn  Mn3  1  0.14039600  0.14039600  0.55770100  1
  O  O0  1  0.95268100  0.95268100  0.61416800  1
  O  O1  1  0.31061200  0.31061200  0.42458200  1
  O  O2  1  0.68938800  0.68938800  0.57541800  1
  O  O3  1  0.04731900  0.04731900  0.38583200  1
  F  F0  1  0.95346800  0.95346800  0.88137800  1
  F  F1  1  0.31296900  0.31296900  0.09384500  1
  F  F2  1  0.76338800  0.76338800  0.26082300  1
  F  F3  1  0.23661200  0.23661200  0.73917700  1
  F  F4  1  0.68703100  0.68703100  0.90615500  1
  F  F5  1  0.04653200  0.04653200  0.11862200  1
loop_
_geom_bond_atom_site_label_1
_geom_bond_atom_site_label_2
_geom_bond_distance
_geom_bond_site_symmetry_2
Mn0 O3 1.922286 1_665
Mn0 O0 1.955371 1_555
Mn0 O1 2.089294 1_565
Mn0 O1 2.089294 1_655
Mn0 O2 2.124615 1_555
Mn1 O0 1.893830 1_555
Mn1 O2 2.149567 1_555
Mn2 O3 1.893830 1_555
Mn2 O1 2.149567 1_555
Mn3 O0 1.922286 1_445
Mn3 O3 1.955371 1_555
Mn3 O2 2.089294 1_545
Mn3 O2 2.089294 1_455
Mn3 O1 2.124615 1_555
F0 Li1 1.898871 1_665
F0 Mn1 1.899103 1_555
F0 Li0 1.984541 1_556
F1 Mn2 2.003274 1_555
F1 Li0 2.110572 1_545
F1 Li0 2.110572 1_455
F1 Li1 2.330622 1_554
F2 Mn0 2.055055 1_555
F2 Mn2 2.172690 1_565
F2 Mn2 2.172690 1_655
F2 Li0 2.222584 1_555
F3 Mn3 2.055055 1_555
F3 Mn1 2.172690 1_545
F3 Mn1 2.172690 1_455
F3 Li1 2.222584 1_555
F4 Mn1 2.003274 1_555
F4 Li1 2.110572 1_565
F4 Li1 2.110572 1_655
F4 Li0 2.330622 1_556
F5 Li0 1.898871 1_445
F5 Mn2 1.899103 1_555
F5 Li1 1.984541 1_554
