# generated using pymatgen
data_Rb5(CoO2)2
_symmetry_space_group_name_H-M   'P 1'
_cell_length_a   7.06137700
_cell_length_b   9.32316657
_cell_length_c   9.72549129
_cell_angle_alpha   118.05706487
_cell_angle_beta   89.66912512
_cell_angle_gamma   108.44379706
_symmetry_Int_Tables_number   1
_chemical_formula_structural   Rb5(CoO2)2
_chemical_formula_sum   'Rb10 Co4 O8'
_cell_volume   528.12251702
_cell_formula_units_Z   2
loop_
 _symmetry_equiv_pos_site_id
 _symmetry_equiv_pos_as_xyz
  1  'x, y, z'
loop_
 _atom_site_type_symbol
 _atom_site_label
 _atom_site_symmetry_multiplicity
 _atom_site_fract_x
 _atom_site_fract_y
 _atom_site_fract_z
 _atom_site_occupancy
  Rb  Rb0  1  0.09669000  0.38819600  0.22168100  1
  Rb  Rb1  1  0.90331000  0.61180400  0.77831900  1
  Rb  Rb2  1  0.09778700  0.99333400  0.22224500  1
  Rb  Rb3  1  0.90221300  0.00666600  0.77775500  1
  Rb  Rb4  1  0.27009700  0.09814000  0.97564200  1
  Rb  Rb5  1  0.72990300  0.90186000  0.02435800  1
  Rb  Rb6  1  0.61885300  0.62937500  0.36339600  1
  Rb  Rb7  1  0.38114700  0.37062500  0.63660400  1
  Rb  Rb8  1  0.37825200  0.93395700  0.61599300  1
  Rb  Rb9  1  0.62174800  0.06604300  0.38400700  1
  Co  Co0  1  0.40001600  0.63468500  0.97394900  1
  Co  Co1  1  0.59998400  0.36531500  0.02605100  1
  Co  Co2  1  0.01539500  0.63643300  0.57748600  1
  Co  Co3  1  0.98460500  0.36356700  0.42251400  1
  O  O0  1  0.31081600  0.82305200  0.95469000  1
  O  O1  1  0.68918400  0.17694800  0.04531000  1
  O  O2  1  0.77094600  0.16588900  0.52090100  1
  O  O3  1  0.22905400  0.83411100  0.47909900  1
  O  O4  1  0.68248900  0.54631100  0.04737300  1
  O  O5  1  0.31751100  0.45368900  0.95262700  1
  O  O6  1  0.18921100  0.57371700  0.31445500  1
  O  O7  1  0.81078900  0.42628300  0.68554500  1
loop_
_geom_bond_atom_site_label_1
_geom_bond_atom_site_label_2
_geom_bond_distance
_geom_bond_site_symmetry_2
Co0 O5 1.509997 1_555
Co0 O0 2.127606 1_555
Co0 Rb5 2.657874 1_556
Co0 Rb7 3.006983 1_555
Co1 O4 1.509997 1_555
Co1 O1 2.127606 1_555
Co1 Rb4 2.657874 1_554
Co1 Rb6 3.006983 1_555
Co2 Rb1 2.187052 1_455
Co2 O3 2.543870 1_555
Co2 Rb6 3.464420 1_455
Co3 Rb0 2.187052 1_655
Co3 O2 2.543870 1_555
Co3 Rb7 3.464420 1_655
O0 Rb4 2.583826 1_565
O0 Rb5 2.817021 1_556
O0 Rb1 2.897333 1_455
O0 Rb2 3.022251 1_556
O1 Rb5 2.583826 1_545
O1 Rb4 2.817021 1_554
O1 Rb0 2.897333 1_655
O1 Rb3 3.022251 1_554
O2 Rb9 1.406704 1_555
O3 Rb8 1.406704 1_555
O4 Rb6 2.865857 1_555
O5 Rb7 2.865857 1_555
O6 Rb0 1.433987 1_555
O6 Rb6 2.913478 1_555
O7 Rb1 1.433987 1_555
O7 Rb7 2.913478 1_555
