# generated using pymatgen
data_Li2MnO2F
_symmetry_space_group_name_H-M   'P 1'
_cell_length_a   5.14562488
_cell_length_b   5.14567178
_cell_length_c   9.83955279
_cell_angle_alpha   95.07754954
_cell_angle_beta   84.92502253
_cell_angle_gamma   60.45685140
_symmetry_Int_Tables_number   1
_chemical_formula_structural   Li2MnO2F
_chemical_formula_sum   'Li8 Mn4 O8 F4'
_cell_volume   223.12797361
_cell_formula_units_Z   4
loop_
 _symmetry_equiv_pos_site_id
 _symmetry_equiv_pos_as_xyz
  1  'x, y, z'
loop_
 _atom_site_type_symbol
 _atom_site_label
 _atom_site_symmetry_multiplicity
 _atom_site_fract_x
 _atom_site_fract_y
 _atom_site_fract_z
 _atom_site_occupancy
  Li  Li0  1  0.79275200  0.04276700  0.62503300  1
  Li  Li1  1  0.14603700  0.39607400  0.62503300  1
  Li  Li2  1  0.29060200  0.54061900  0.12500000  1
  Li  Li3  1  0.61255400  0.86257000  0.12499300  1
  Li  Li4  1  0.66974700  0.48273300  0.87320500  1
  Li  Li5  1  0.23270700  0.91973600  0.37679600  1
  Li  Li6  1  0.38117800  0.12364600  0.88094700  1
  Li  Li7  1  0.87370900  0.63114500  0.36908200  1
  Mn  Mn0  1  0.47773000  0.72754100  0.62493400  1
  Mn  Mn1  1  0.93056600  0.18065300  0.12500100  1
  Mn  Mn2  1  0.01466200  0.81117900  0.87021500  1
  Mn  Mn3  1  0.56108900  0.26461300  0.37977000  1
  O  O0  1  0.38307000  0.50015000  0.75068900  1
  O  O1  1  0.25012200  0.63298900  0.49924700  1
  O  O2  1  0.52742600  0.98989800  0.50056900  1
  O  O3  1  0.73989800  0.77741900  0.74939100  1
  O  O4  1  0.67316300  0.14705600  0.99065000  1
  O  O5  1  0.89705100  0.92312600  0.25937400  1
  O  O6  1  0.26675100  0.85492800  0.00178000  1
  O  O7  1  0.60484100  0.51678600  0.24828000  1
  F  F0  1  0.88488600  0.31368100  0.50176400  1
  F  F1  1  0.06368600  0.13486100  0.74822200  1
  F  F2  1  0.98152500  0.49428300  0.00646800  1
  F  F3  1  0.24425100  0.23154500  0.24355700  1
loop_
_geom_bond_atom_site_label_1
_geom_bond_atom_site_label_2
_geom_bond_distance
_geom_bond_site_symmetry_2
Li0 O3 2.009624 1_545
Li0 O2 2.010197 1_545
Li0 O0 2.375468 1_555
Li0 O1 2.376063 1_645
Li1 O0 2.024068 1_555
Li1 O1 2.024488 1_555
Li1 O3 2.189456 1_455
Li1 O2 2.190040 1_545
Li2 O6 2.068449 1_555
Li2 O7 2.068524 1_555
Li2 O5 2.204102 1_455
Li2 O4 2.204131 1_554
Li3 O4 2.169641 1_564
Li3 O5 2.169759 1_555
Li3 O6 2.253830 1_555
Li3 O7 2.254378 1_555
Li4 O0 1.959756 1_555
Li4 O4 2.155508 1_555
Li4 O3 2.168596 1_555
Li4 O6 2.181530 1_556
Li5 O1 1.959652 1_555
Li5 O5 2.155270 1_455
Li5 O2 2.168460 1_555
Li5 O7 2.181063 1_555
Li6 O4 1.969621 1_555
Li6 O3 2.045194 1_545
Li6 O6 2.154589 1_546
Li6 O0 2.419112 1_555
Li7 O5 1.969548 1_555
Li7 O2 2.045048 1_555
Li7 O7 2.154803 1_555
Li7 O1 2.418017 1_655
Mn0 O0 1.961916 1_555
Mn0 O1 1.962016 1_555
Mn0 O2 1.990685 1_555
Mn0 O3 1.990841 1_555
Mn1 O6 1.918770 1_645
Mn1 O7 1.918930 1_555
Mn1 O4 2.006707 1_554
Mn1 O5 2.007250 1_545
Mn2 O4 1.937334 1_465
Mn2 O0 1.954144 1_555
Mn2 O6 1.985598 1_556
Mn2 O3 1.986328 1_455
Mn3 O5 1.937305 1_545
Mn3 O1 1.953751 1_555
Mn3 O7 1.985471 1_555
Mn3 O2 1.985823 1_545
F0 Li1 2.053249 1_655
F0 Li5 2.101433 1_645
F0 Li0 2.118620 1_555
F0 Li7 2.162034 1_555
F0 Mn3 2.235103 1_555
F0 Mn0 2.255510 1_555
F1 Li1 2.052962 1_555
F1 Li4 2.101568 1_455
F1 Li0 2.118065 1_455
F1 Li6 2.162322 1_555
F1 Mn2 2.234555 1_545
F1 Mn0 2.256708 1_545
F2 Li3 2.055470 1_555
F2 Li2 2.144610 1_655
F2 Li6 2.158176 1_654
F2 Mn1 2.174831 1_555
F2 Li4 2.179234 1_554
F2 Mn2 2.259685 1_654
F3 Li3 2.055668 1_545
F3 Li2 2.144833 1_555
F3 Li7 2.157886 1_455
F3 Mn1 2.174998 1_455
F3 Li5 2.179252 1_545
F3 Mn3 2.258994 1_555
