# generated using pymatgen
data_Pr2(N4O9)3
_symmetry_space_group_name_H-M   'P 1'
_cell_length_a   13.95556600
_cell_length_b   13.95556600
_cell_length_c   13.95556600
_cell_angle_alpha   90.00000000
_cell_angle_beta   90.00000000
_cell_angle_gamma   90.00000000
_symmetry_Int_Tables_number   1
_chemical_formula_structural   Pr2(N4O9)3
_chemical_formula_sum   'Pr8 N48 O108'
_cell_volume   2717.95564425
_cell_formula_units_Z   4
loop_
 _symmetry_equiv_pos_site_id
 _symmetry_equiv_pos_as_xyz
  1  'x, y, z'
loop_
 _atom_site_type_symbol
 _atom_site_label
 _atom_site_symmetry_multiplicity
 _atom_site_fract_x
 _atom_site_fract_y
 _atom_site_fract_z
 _atom_site_occupancy
  Pr  Pr0  1  0.56132200  0.06132200  0.43867800  1
  Pr  Pr1  1  0.43867800  0.56132200  0.06132200  1
  Pr  Pr2  1  0.06132200  0.43867800  0.56132200  1
  Pr  Pr3  1  0.93867800  0.93867800  0.93867800  1
  Pr  Pr4  1  0.18867800  0.68867800  0.81132200  1
  Pr  Pr5  1  0.68867800  0.81132200  0.18867800  1
  Pr  Pr6  1  0.81132200  0.18867800  0.68867800  1
  Pr  Pr7  1  0.31132200  0.31132200  0.31132200  1
  N  N0  1  0.69927800  0.44927800  0.37500000  1
  N  N1  1  0.30072200  0.94927800  0.12500000  1
  N  N2  1  0.94927800  0.12500000  0.30072200  1
  N  N3  1  0.05072200  0.62500000  0.19927800  1
  N  N4  1  0.62500000  0.19927800  0.05072200  1
  N  N5  1  0.37500000  0.69927800  0.44927800  1
  N  N6  1  0.19927800  0.05072200  0.62500000  1
  N  N7  1  0.80072200  0.55072200  0.87500000  1
  N  N8  1  0.44927800  0.37500000  0.69927800  1
  N  N9  1  0.55072200  0.87500000  0.80072200  1
  N  N10  1  0.12500000  0.30072200  0.94927800  1
  N  N11  1  0.87500000  0.80072200  0.55072200  1
  N  N12  1  0.51869400  0.26869400  0.37500000  1
  N  N13  1  0.48130600  0.76869400  0.12500000  1
  N  N14  1  0.76869400  0.12500000  0.48130600  1
  N  N15  1  0.23130600  0.62500000  0.01869400  1
  N  N16  1  0.62500000  0.01869400  0.23130600  1
  N  N17  1  0.37500000  0.51869400  0.26869400  1
  N  N18  1  0.01869400  0.23130600  0.62500000  1
  N  N19  1  0.98130600  0.73130600  0.87500000  1
  N  N20  1  0.26869400  0.37500000  0.51869400  1
  N  N21  1  0.73130600  0.87500000  0.98130600  1
  N  N22  1  0.12500000  0.48130600  0.76869400  1
  N  N23  1  0.87500000  0.98130600  0.73130600  1
  N  N24  1  0.35999800  0.40437500  0.92495300  1
  N  N25  1  0.64000200  0.90437500  0.57504700  1
  N  N26  1  0.90437500  0.57504700  0.64000200  1
  N  N27  1  0.09562500  0.07504700  0.85999800  1
  N  N28  1  0.07504700  0.85999800  0.09562500  1
  N  N29  1  0.92495300  0.35999800  0.40437500  1
  N  N30  1  0.85999800  0.09562500  0.07504700  1
  N  N31  1  0.14000200  0.59562500  0.42495300  1
  N  N32  1  0.40437500  0.92495300  0.35999800  1
  N  N33  1  0.59562500  0.42495300  0.14000200  1
  N  N34  1  0.57504700  0.64000200  0.90437500  1
  N  N35  1  0.42495300  0.14000200  0.59562500  1
  N  N36  1  0.84562500  0.89000200  0.32504700  1
  N  N37  1  0.34562500  0.60999800  0.67495300  1
  N  N38  1  0.15437500  0.39000200  0.17495300  1
  N  N39  1  0.65437500  0.10999800  0.82504700  1
  N  N40  1  0.60999800  0.67495300  0.34562500  1
  N  N41  1  0.39000200  0.17495300  0.15437500  1
  N  N42  1  0.89000200  0.32504700  0.84562500  1
  N  N43  1  0.10999800  0.82504700  0.65437500  1
  N  N44  1  0.67495300  0.34562500  0.60999800  1
  N  N45  1  0.17495300  0.15437500  0.39000200  1
  N  N46  1  0.32504700  0.84562500  0.89000200  1
  N  N47  1  0.82504700  0.65437500  0.10999800  1
  O  O0  1  0.45252200  0.20252200  0.37500000  1
  O  O1  1  0.54747800  0.70252200  0.12500000  1
  O  O2  1  0.70252200  0.12500000  0.54747800  1
  O  O3  1  0.29747800  0.62500000  0.95252200  1
  O  O4  1  0.62500000  0.95252200  0.29747800  1
  O  O5  1  0.37500000  0.45252200  0.20252200  1
  O  O6  1  0.95252200  0.29747800  0.62500000  1
  O  O7  1  0.04747800  0.79747800  0.87500000  1
  O  O8  1  0.20252200  0.37500000  0.45252200  1
  O  O9  1  0.79747800  0.87500000  0.04747800  1
  O  O10  1  0.12500000  0.54747800  0.70252200  1
  O  O11  1  0.87500000  0.04747800  0.79747800  1
  O  O12  1  0.65319600  0.99592500  0.14952700  1
  O  O13  1  0.34680400  0.49592500  0.35047300  1
  O  O14  1  0.49592500  0.35047300  0.34680400  1
  O  O15  1  0.50407500  0.85047300  0.15319600  1
  O  O16  1  0.85047300  0.15319600  0.50407500  1
  O  O17  1  0.14952700  0.65319600  0.99592500  1
  O  O18  1  0.15319600  0.50407500  0.85047300  1
  O  O19  1  0.84680400  0.00407500  0.64952700  1
  O  O20  1  0.99592500  0.14952700  0.65319600  1
  O  O21  1  0.00407500  0.64952700  0.84680400  1
  O  O22  1  0.35047300  0.34680400  0.49592500  1
  O  O23  1  0.64952700  0.84680400  0.00407500  1
  O  O24  1  0.25407500  0.59680400  0.10047300  1
  O  O25  1  0.75407500  0.90319600  0.89952700  1
  O  O26  1  0.74592500  0.09680400  0.39952700  1
  O  O27  1  0.24592500  0.40319600  0.60047300  1
  O  O28  1  0.90319600  0.89952700  0.75407500  1
  O  O29  1  0.09680400  0.39952700  0.74592500  1
  O  O30  1  0.59680400  0.10047300  0.25407500  1
  O  O31  1  0.40319600  0.60047300  0.24592500  1
  O  O32  1  0.89952700  0.75407500  0.90319600  1
  O  O33  1  0.39952700  0.74592500  0.09680400  1
  O  O34  1  0.10047300  0.25407500  0.59680400  1
  O  O35  1  0.60047300  0.24592500  0.40319600  1
  O  O36  1  0.68388300  0.65214700  0.29731400  1
  O  O37  1  0.31611700  0.15214700  0.20268600  1
  O  O38  1  0.15214700  0.20268600  0.31611700  1
  O  O39  1  0.84785300  0.70268600  0.18388300  1
  O  O40  1  0.70268600  0.18388300  0.84785300  1
  O  O41  1  0.29731400  0.68388300  0.65214700  1
  O  O42  1  0.18388300  0.84785300  0.70268600  1
  O  O43  1  0.81611700  0.34785300  0.79731400  1
  O  O44  1  0.65214700  0.29731400  0.68388300  1
  O  O45  1  0.34785300  0.79731400  0.81611700  1
  O  O46  1  0.20268600  0.31611700  0.15214700  1
  O  O47  1  0.79731400  0.81611700  0.34785300  1
  O  O48  1  0.59785300  0.56611700  0.95268600  1
  O  O49  1  0.09785300  0.93388300  0.04731400  1
  O  O50  1  0.40214700  0.06611700  0.54731400  1
  O  O51  1  0.90214700  0.43388300  0.45268600  1
  O  O52  1  0.93388300  0.04731400  0.09785300  1
  O  O53  1  0.06611700  0.54731400  0.40214700  1
  O  O54  1  0.56611700  0.95268600  0.59785300  1
  O  O55  1  0.43388300  0.45268600  0.90214700  1
  O  O56  1  0.04731400  0.09785300  0.93388300  1
  O  O57  1  0.54731400  0.40214700  0.06611700  1
  O  O58  1  0.95268600  0.59785300  0.56611700  1
  O  O59  1  0.45268600  0.90214700  0.43388300  1
  O  O60  1  0.57336200  0.75700900  0.32807700  1
  O  O61  1  0.42663800  0.25700900  0.17192300  1
  O  O62  1  0.25700900  0.17192300  0.42663800  1
  O  O63  1  0.74299100  0.67192300  0.07336200  1
  O  O64  1  0.67192300  0.07336200  0.74299100  1
  O  O65  1  0.32807700  0.57336200  0.75700900  1
  O  O66  1  0.07336200  0.74299100  0.67192300  1
  O  O67  1  0.92663800  0.24299100  0.82807700  1
  O  O68  1  0.75700900  0.32807700  0.57336200  1
  O  O69  1  0.24299100  0.82807700  0.92663800  1
  O  O70  1  0.17192300  0.42663800  0.25700900  1
  O  O71  1  0.82807700  0.92663800  0.24299100  1
  O  O72  1  0.49299100  0.67663800  0.92192300  1
  O  O73  1  0.99299100  0.82336200  0.07807700  1
  O  O74  1  0.50700900  0.17663800  0.57807700  1
  O  O75  1  0.00700900  0.32336200  0.42192300  1
  O  O76  1  0.82336200  0.07807700  0.99299100  1
  O  O77  1  0.17663800  0.57807700  0.50700900  1
  O  O78  1  0.67663800  0.92192300  0.49299100  1
  O  O79  1  0.32336200  0.42192300  0.00700900  1
  O  O80  1  0.07807700  0.99299100  0.82336200  1
  O  O81  1  0.57807700  0.50700900  0.17663800  1
  O  O82  1  0.92192300  0.49299100  0.67663800  1
  O  O83  1  0.42192300  0.00700900  0.32336200  1
  O  O84  1  0.57545100  0.62103700  0.40651500  1
  O  O85  1  0.42454900  0.12103700  0.09348500  1
  O  O86  1  0.12103700  0.09348500  0.42454900  1
  O  O87  1  0.87896300  0.59348500  0.07545100  1
  O  O88  1  0.59348500  0.07545100  0.87896300  1
  O  O89  1  0.40651500  0.57545100  0.62103700  1
  O  O90  1  0.07545100  0.87896300  0.59348500  1
  O  O91  1  0.92454900  0.37896300  0.90651500  1
  O  O92  1  0.62103700  0.40651500  0.57545100  1
  O  O93  1  0.37896300  0.90651500  0.92454900  1
  O  O94  1  0.09348500  0.42454900  0.12103700  1
  O  O95  1  0.90651500  0.92454900  0.37896300  1
  O  O96  1  0.62896300  0.67454900  0.84348500  1
  O  O97  1  0.12896300  0.82545100  0.15651500  1
  O  O98  1  0.37103700  0.17454900  0.65651500  1
  O  O99  1  0.87103700  0.32545100  0.34348500  1
  O  O100  1  0.82545100  0.15651500  0.12896300  1
  O  O101  1  0.17454900  0.65651500  0.37103700  1
  O  O102  1  0.67454900  0.84348500  0.62896300  1
  O  O103  1  0.32545100  0.34348500  0.87103700  1
  O  O104  1  0.15651500  0.12896300  0.82545100  1
  O  O105  1  0.65651500  0.37103700  0.17454900  1
  O  O106  1  0.84348500  0.62896300  0.67454900  1
  O  O107  1  0.34348500  0.87103700  0.32545100  1
loop_
_geom_bond_atom_site_label_1
_geom_bond_atom_site_label_2
_geom_bond_distance
_geom_bond_site_symmetry_2
N12 O14 1.248321 1_555
N12 O35 1.248321 1_555
N12 O0 1.305981 1_555
N13 O33 1.248321 1_555
N13 O15 1.248321 1_555
N13 O1 1.305981 1_555
N14 O26 1.248321 1_555
N14 O16 1.248321 1_555
N14 O2 1.305981 1_555
N15 O24 1.248321 1_555
N15 O17 1.248321 1_554
N15 O3 1.305981 1_554
N16 O30 1.248321 1_555
N16 O12 1.248321 1_545
N16 O4 1.305981 1_545
N17 O13 1.248321 1_555
N17 O31 1.248321 1_555
N17 O5 1.305981 1_555
N18 O34 1.248321 1_555
N18 O20 1.248321 1_455
N18 O6 1.305981 1_455
N19 O21 1.248321 1_655
N19 O32 1.248321 1_555
N19 O7 1.305981 1_655
N20 O22 1.248321 1_555
N20 O27 1.248321 1_555
N20 O8 1.305981 1_555
N21 O25 1.248321 1_555
N21 O23 1.248321 1_556
N21 O9 1.305981 1_556
N22 O29 1.248321 1_555
N22 O18 1.248321 1_555
N22 O10 1.305981 1_555
N23 O19 1.248321 1_565
N23 O28 1.248321 1_555
N23 O11 1.305981 1_565
N24 O103 1.233156 1_555
N24 O55 1.272412 1_555
N24 O79 1.277778 1_556
N25 O102 1.233156 1_555
N25 O54 1.272412 1_555
N25 O78 1.277778 1_555
N26 O106 1.233156 1_555
N26 O58 1.272412 1_555
N26 O82 1.277778 1_555
N27 O104 1.233156 1_555
N27 O56 1.272412 1_555
N27 O80 1.277778 1_545
N28 O97 1.233156 1_555
N28 O49 1.272412 1_555
N28 O73 1.277778 1_455
N29 O99 1.233156 1_555
N29 O51 1.272412 1_555
N29 O75 1.277778 1_655
N30 O100 1.233156 1_555
N30 O52 1.272412 1_555
N30 O76 1.277778 1_554
N31 O101 1.233156 1_555
N31 O53 1.272412 1_555
N31 O77 1.277778 1_555
N32 O107 1.233156 1_555
N32 O59 1.272412 1_555
N32 O83 1.277778 1_565
N33 O105 1.233156 1_555
N33 O57 1.272412 1_555
N33 O81 1.277778 1_555
N34 O96 1.233156 1_555
N34 O48 1.272412 1_555
N34 O72 1.277778 1_555
N35 O98 1.233156 1_555
N35 O50 1.272412 1_555
N35 O74 1.277778 1_555
N36 O95 1.233156 1_555
N36 O47 1.272412 1_555
N36 O71 1.277778 1_555
N37 O89 1.233156 1_555
N37 O41 1.272412 1_555
N37 O65 1.277778 1_555
N38 O94 1.233156 1_555
N38 O46 1.272412 1_555
N38 O70 1.277778 1_555
N39 O88 1.233156 1_555
N39 O40 1.272412 1_555
N39 O64 1.277778 1_555
N40 O84 1.233156 1_555
N40 O36 1.272412 1_555
N40 O60 1.277778 1_555
N41 O85 1.233156 1_555
N41 O37 1.272412 1_555
N41 O61 1.277778 1_555
N42 O91 1.233156 1_555
N42 O43 1.272412 1_555
N42 O67 1.277778 1_555
N43 O90 1.233156 1_555
N43 O42 1.272412 1_555
N43 O66 1.277778 1_555
N44 O92 1.233156 1_555
N44 O44 1.272412 1_555
N44 O68 1.277778 1_555
N45 O86 1.233156 1_555
N45 O38 1.272412 1_555
N45 O62 1.277778 1_555
N46 O93 1.233156 1_555
N46 O45 1.272412 1_555
N46 O69 1.277778 1_555
N47 O87 1.233156 1_555
N47 O39 1.272412 1_555
N47 O63 1.277778 1_555
O0 Pr7 2.641615 1_555
O0 Pr0 2.641615 1_555
O1 Pr1 2.641615 1_555
O1 Pr5 2.641615 1_555
O2 Pr0 2.641615 1_555
O2 Pr6 2.641615 1_555
O3 Pr4 2.641615 1_555
O3 Pr1 2.641615 1_556
O4 Pr5 2.641615 1_555
O4 Pr0 2.641615 1_565
O5 Pr1 2.641615 1_555
O5 Pr7 2.641615 1_555
O6 Pr6 2.641615 1_555
O6 Pr2 2.641615 1_655
O7 Pr3 2.641615 1_455
O7 Pr4 2.641615 1_555
O8 Pr7 2.641615 1_555
O8 Pr2 2.641615 1_555
O9 Pr3 2.641615 1_554
O9 Pr5 2.641615 1_555
O10 Pr2 2.641615 1_555
O10 Pr4 2.641615 1_555
O11 Pr3 2.641615 1_545
O11 Pr6 2.641615 1_555
O12 Pr5 2.679688 1_555
O13 Pr7 2.679688 1_555
O14 Pr7 2.679688 1_555
O15 Pr5 2.679688 1_555
O16 Pr6 2.679688 1_555
O17 Pr4 2.679688 1_555
O18 Pr4 2.679688 1_555
O19 Pr6 2.679688 1_555
O20 Pr6 2.679688 1_555
O21 Pr4 2.679688 1_555
O22 Pr7 2.679688 1_555
O23 Pr5 2.679688 1_555
O24 Pr1 2.679688 1_555
O25 Pr3 2.679688 1_555
O26 Pr0 2.679688 1_555
O27 Pr2 2.679688 1_555
O28 Pr3 2.679688 1_555
O29 Pr2 2.679688 1_555
O30 Pr0 2.679688 1_555
O31 Pr1 2.679688 1_555
O32 Pr3 2.679688 1_555
O33 Pr1 2.679688 1_555
O34 Pr2 2.679688 1_555
O35 Pr0 2.679688 1_555
O36 Pr5 2.690257 1_555
O37 Pr7 2.690257 1_555
O38 Pr7 2.690257 1_555
O39 Pr5 2.690257 1_555
O40 Pr6 2.690257 1_555
O41 Pr4 2.690257 1_555
O42 Pr4 2.690257 1_555
O43 Pr6 2.690257 1_555
O44 Pr6 2.690257 1_555
O45 Pr4 2.690257 1_555
O46 Pr7 2.690257 1_555
O47 Pr5 2.690257 1_555
O48 Pr1 2.690257 1_556
O49 Pr3 2.690257 1_454
O50 Pr0 2.690257 1_555
O51 Pr2 2.690257 1_655
O52 Pr3 2.690257 1_544
O53 Pr2 2.690257 1_555
O54 Pr0 2.690257 1_565
O55 Pr1 2.690257 1_556
O56 Pr3 2.690257 1_445
O57 Pr1 2.690257 1_555
O58 Pr2 2.690257 1_655
O59 Pr0 2.690257 1_565
O60 Pr5 2.636079 1_555
O61 Pr7 2.636079 1_555
O62 Pr7 2.636079 1_555
O63 Pr5 2.636079 1_555
O64 Pr6 2.636079 1_555
O65 Pr4 2.636079 1_555
O66 Pr4 2.636079 1_555
O67 Pr6 2.636079 1_555
O68 Pr6 2.636079 1_555
O69 Pr4 2.636079 1_555
O70 Pr7 2.636079 1_555
O71 Pr5 2.636079 1_555
O72 Pr1 2.636079 1_556
O73 Pr3 2.636079 1_554
O74 Pr0 2.636079 1_555
O75 Pr2 2.636079 1_555
O76 Pr3 2.636079 1_545
O77 Pr2 2.636079 1_555
O78 Pr0 2.636079 1_565
O79 Pr1 2.636079 1_555
O80 Pr3 2.636079 1_455
O81 Pr1 2.636079 1_555
O82 Pr2 2.636079 1_655
O83 Pr0 2.636079 1_555
