# generated using pymatgen
data_H18RuN5(ClO)2
_symmetry_space_group_name_H-M   'P 1'
_cell_length_a   10.22091900
_cell_length_b   10.05615000
_cell_length_c   13.28338807
_cell_angle_alpha   51.91552645
_cell_angle_beta   90.00000000
_cell_angle_gamma   90.00000000
_symmetry_Int_Tables_number   1
_chemical_formula_structural   H18RuN5(ClO)2
_chemical_formula_sum   'H72 Ru4 N20 Cl8 O8'
_cell_volume   1074.63672277
_cell_formula_units_Z   4
loop_
 _symmetry_equiv_pos_site_id
 _symmetry_equiv_pos_as_xyz
  1  'x, y, z'
loop_
 _atom_site_type_symbol
 _atom_site_label
 _atom_site_symmetry_multiplicity
 _atom_site_fract_x
 _atom_site_fract_y
 _atom_site_fract_z
 _atom_site_occupancy
  H  H0  1  0.19154100  0.90698900  0.11613500  1
  H  H1  1  0.30845900  0.90698900  0.61613500  1
  H  H2  1  0.80845900  0.09301100  0.88386500  1
  H  H3  1  0.69154100  0.09301100  0.38386500  1
  H  H4  1  0.11234400  0.04432400  0.12640900  1
  H  H5  1  0.38765600  0.04432400  0.62640900  1
  H  H6  1  0.88765600  0.95567600  0.87359100  1
  H  H7  1  0.61234400  0.95567600  0.37359100  1
  H  H8  1  0.91094800  0.58547800  0.35428600  1
  H  H9  1  0.58905200  0.58547800  0.85428600  1
  H  H10  1  0.08905200  0.41452200  0.64571400  1
  H  H11  1  0.41094800  0.41452200  0.14571400  1
  H  H12  1  0.92252400  0.75558400  0.34262600  1
  H  H13  1  0.57747600  0.75558400  0.84262600  1
  H  H14  1  0.07747600  0.24441600  0.65737400  1
  H  H15  1  0.42252400  0.24441600  0.15737400  1
  H  H16  1  0.05944000  0.66529900  0.34654600  1
  H  H17  1  0.44056000  0.66529900  0.84654600  1
  H  H18  1  0.94056000  0.33470100  0.65345400  1
  H  H19  1  0.55944000  0.33470100  0.15345400  1
  H  H20  1  0.00397300  0.68495800  0.02196300  1
  H  H21  1  0.49602700  0.68495800  0.52196300  1
  H  H22  1  0.99602700  0.31504200  0.97803700  1
  H  H23  1  0.50397300  0.31504200  0.47803700  1
  H  H24  1  0.00012200  0.56625300  0.17895300  1
  H  H25  1  0.49987800  0.56625300  0.67895300  1
  H  H26  1  0.99987800  0.43374700  0.82104700  1
  H  H27  1  0.50012200  0.43374700  0.32104700  1
  H  H28  1  0.13003500  0.67748200  0.10238500  1
  H  H29  1  0.36996500  0.67748200  0.60238500  1
  H  H30  1  0.86996500  0.32251800  0.89761500  1
  H  H31  1  0.63003500  0.32251800  0.39761500  1
  H  H32  1  0.76792200  0.95578900  0.20549100  1
  H  H33  1  0.73207800  0.95578900  0.70549100  1
  H  H34  1  0.23207800  0.04421100  0.79450900  1
  H  H35  1  0.26792200  0.04421100  0.29450900  1
  H  H36  1  0.77156700  0.12556800  0.05830200  1
  H  H37  1  0.72843300  0.12556800  0.55830200  1
  H  H38  1  0.22843300  0.87443200  0.94169800  1
  H  H39  1  0.27156700  0.87443200  0.44169800  1
  H  H40  1  0.88912600  0.09039300  0.15342000  1
  H  H41  1  0.61087400  0.09039300  0.65342000  1
  H  H42  1  0.11087400  0.90960700  0.84658000  1
  H  H43  1  0.38912600  0.90960700  0.34658000  1
  H  H44  1  0.70002300  0.80543500  0.05285700  1
  H  H45  1  0.79997700  0.80543500  0.55285700  1
  H  H46  1  0.29997700  0.19456500  0.94714300  1
  H  H47  1  0.20002300  0.19456500  0.44714300  1
  H  H48  1  0.69739600  0.73391900  0.20325800  1
  H  H49  1  0.80260400  0.73391900  0.70325800  1
  H  H50  1  0.30260400  0.26608100  0.79674200  1
  H  H51  1  0.19739600  0.26608100  0.29674200  1
  H  H52  1  0.76612300  0.61980800  0.16658600  1
  H  H53  1  0.73387700  0.61980800  0.66658600  1
  H  H54  1  0.23387700  0.38019200  0.83341400  1
  H  H55  1  0.26612300  0.38019200  0.33341400  1
  H  H56  1  0.96823900  0.01823600  0.33794700  1
  H  H57  1  0.53176100  0.01823600  0.83794700  1
  H  H58  1  0.03176100  0.98176400  0.66205300  1
  H  H59  1  0.46823900  0.98176400  0.16205300  1
  H  H60  1  0.99985400  0.83420900  0.45573200  1
  H  H61  1  0.50014600  0.83420900  0.95573200  1
  H  H62  1  0.00014600  0.16579100  0.54426800  1
  H  H63  1  0.49985400  0.16579100  0.04426800  1
  H  H64  1  0.38102100  0.69079300  0.25536600  1
  H  H65  1  0.11897900  0.69079300  0.75536600  1
  H  H66  1  0.61897900  0.30920700  0.74463400  1
  H  H67  1  0.88102100  0.30920700  0.24463400  1
  H  H68  1  0.24435100  0.53758800  0.47215100  1
  H  H69  1  0.25564900  0.53758800  0.97215100  1
  H  H70  1  0.75564900  0.46241200  0.52784900  1
  H  H71  1  0.74435100  0.46241200  0.02784900  1
  Ru  Ru0  1  0.93741600  0.87166300  0.10160400  1
  Ru  Ru1  1  0.56258400  0.87166300  0.60160400  1
  Ru  Ru2  1  0.06258400  0.12833700  0.89839600  1
  Ru  Ru3  1  0.43741600  0.12833700  0.39839600  1
  N  N0  1  0.10976300  0.98116500  0.08816000  1
  N  N1  1  0.39023700  0.98116500  0.58816000  1
  N  N2  1  0.89023700  0.01883500  0.91184000  1
  N  N3  1  0.60976300  0.01883500  0.41184000  1
  N  N4  1  0.96100800  0.69833600  0.30631300  1
  N  N5  1  0.53899200  0.69833600  0.80631300  1
  N  N6  1  0.03899200  0.30166400  0.69368700  1
  N  N7  1  0.46100800  0.30166400  0.19368700  1
  N  N8  1  0.02990700  0.68138700  0.09880300  1
  N  N9  1  0.47009300  0.68138700  0.59880300  1
  N  N10  1  0.97009300  0.31861300  0.90119700  1
  N  N11  1  0.52990700  0.31861300  0.40119700  1
  N  N12  1  0.83033800  0.03058400  0.12950300  1
  N  N13  1  0.66966200  0.03058400  0.62950300  1
  N  N14  1  0.16966200  0.96941600  0.87049700  1
  N  N15  1  0.33033800  0.96941600  0.37049700  1
  N  N16  1  0.75436100  0.74055200  0.13592000  1
  N  N17  1  0.74563900  0.74055200  0.63592000  1
  N  N18  1  0.24563900  0.25944800  0.86408000  1
  N  N19  1  0.25436100  0.25944800  0.36408000  1
  Cl  Cl0  1  0.56472600  0.76381400  0.32513500  1
  Cl  Cl1  1  0.93527400  0.76381400  0.82513500  1
  Cl  Cl2  1  0.43527400  0.23618600  0.67486500  1
  Cl  Cl3  1  0.06472600  0.23618600  0.17486500  1
  Cl  Cl4  1  0.86175000  0.32853000  0.33354800  1
  Cl  Cl5  1  0.63825000  0.32853000  0.83354800  1
  Cl  Cl6  1  0.13825000  0.67147000  0.66645200  1
  Cl  Cl7  1  0.36175000  0.67147000  0.16645200  1
  O  O0  1  0.92585300  0.90919800  0.40722400  1
  O  O1  1  0.57414700  0.90919800  0.90722400  1
  O  O2  1  0.07414700  0.09080200  0.59277600  1
  O  O3  1  0.42585300  0.09080200  0.09277600  1
  O  O4  1  0.18890800  0.63724100  0.43213400  1
  O  O5  1  0.31109200  0.63724100  0.93213400  1
  O  O6  1  0.81109200  0.36275900  0.56786600  1
  O  O7  1  0.68890800  0.36275900  0.06786600  1
loop_
_geom_bond_atom_site_label_1
_geom_bond_atom_site_label_2
_geom_bond_distance
_geom_bond_site_symmetry_2
H0 N0 1.025271 1_555
H1 N1 1.025271 1_555
H2 N2 1.025271 1_555
H3 N3 1.025271 1_555
H4 N0 1.029723 1_545
H5 N1 1.029723 1_545
H6 N2 1.029723 1_565
H7 N3 1.029723 1_565
H8 N4 1.031366 1_555
H9 N5 1.031366 1_555
H10 N6 1.031366 1_555
H11 N7 1.031366 1_555
H12 N4 1.030236 1_555
H13 N5 1.030236 1_555
H14 N6 1.030236 1_555
H15 N7 1.030236 1_555
H16 N4 1.090469 1_455
H16 O4 1.651513 1_555
H17 N5 1.090469 1_555
H17 O5 1.651513 1_555
H18 N6 1.090469 1_655
H18 O6 1.651513 1_555
H19 N7 1.090469 1_555
H19 O7 1.651513 1_555
H20 N8 1.033515 1_555
H21 N9 1.033515 1_555
H22 N10 1.033515 1_555
H23 N11 1.033515 1_555
H24 N8 1.022750 1_555
H25 N9 1.022750 1_555
H26 N10 1.022750 1_555
H27 N11 1.022750 1_555
H28 N8 1.024133 1_555
H29 N9 1.024133 1_555
H30 N10 1.024133 1_555
H31 N11 1.024133 1_555
H32 N12 1.027115 1_565
H33 N13 1.027115 1_565
H34 N14 1.027115 1_545
H35 N15 1.027115 1_545
H36 N12 1.026275 1_555
H37 N13 1.026275 1_555
H38 N14 1.026275 1_555
H39 N15 1.026275 1_555
H40 N12 1.029290 1_555
H41 N13 1.029290 1_555
H42 N14 1.029290 1_555
H43 N15 1.029290 1_555
H44 N16 1.031240 1_555
H45 N17 1.031240 1_555
H46 N18 1.031240 1_555
H47 N19 1.031240 1_555
H48 N16 1.034375 1_555
H49 N17 1.034375 1_555
H50 N18 1.034375 1_555
H51 N19 1.034375 1_555
H52 N16 1.022028 1_555
H53 N17 1.022028 1_555
H54 N18 1.022028 1_555
H55 N19 1.022028 1_555
H56 O0 0.996009 1_545
H57 O1 0.996009 1_545
H58 O2 0.996009 1_565
H59 O3 0.996009 1_565
H60 O0 0.978007 1_555
H61 O1 0.978007 1_555
H62 O2 0.978007 1_555
H63 O3 0.978007 1_555
H68 O4 0.975082 1_555
H69 O5 0.975082 1_555
H70 O6 0.975082 1_555
H71 O7 0.975082 1_555
N0 Ru0 2.026057 1_455
N0 Ru2 2.043186 1_564
N1 Ru1 2.026057 1_555
N1 Ru3 2.043186 1_565
N2 Ru2 2.026057 1_655
N2 Ru0 2.043186 1_546
N3 Ru3 2.026057 1_555
N3 Ru1 2.043186 1_545
N4 Ru0 2.154854 1_555
N5 Ru1 2.154854 1_555
N6 Ru2 2.154854 1_555
N7 Ru3 2.154854 1_555
N8 Ru0 2.155030 1_455
N9 Ru1 2.155030 1_555
N10 Ru2 2.155030 1_655
N11 Ru3 2.155030 1_555
N12 Ru0 2.149371 1_545
N13 Ru1 2.149371 1_545
N14 Ru2 2.149371 1_565
N15 Ru3 2.149371 1_565
N16 Ru0 2.169178 1_555
N17 Ru1 2.169178 1_555
N18 Ru2 2.169178 1_555
N19 Ru3 2.169178 1_555
Cl4 H67 1.324623 1_555
Cl5 H66 1.324623 1_555
Cl6 H65 1.324623 1_555
Cl7 H64 1.324623 1_555
