# generated using pymatgen
data_Mn4OF6
_symmetry_space_group_name_H-M   'P 1'
_cell_length_a   5.24337800
_cell_length_b   7.28236635
_cell_length_c   7.28234835
_cell_angle_alpha   90.06970828
_cell_angle_beta   90.00009089
_cell_angle_gamma   90.00009089
_symmetry_Int_Tables_number   1
_chemical_formula_structural   Mn4OF6
_chemical_formula_sum   'Mn8 O2 F12'
_cell_volume   278.07043628
_cell_formula_units_Z   2
loop_
 _symmetry_equiv_pos_site_id
 _symmetry_equiv_pos_as_xyz
  1  'x, y, z'
loop_
 _atom_site_type_symbol
 _atom_site_label
 _atom_site_symmetry_multiplicity
 _atom_site_fract_x
 _atom_site_fract_y
 _atom_site_fract_z
 _atom_site_occupancy
  Mn  Mn0  1  0.05404300  0.25011600  0.49995400  1
  Mn  Mn1  1  0.55400800  0.49995700  0.25011700  1
  Mn  Mn2  1  0.94597300  0.75011800  0.99994200  1
  Mn  Mn3  1  0.44596800  0.99994200  0.75012300  1
  Mn  Mn4  1  0.55403000  0.00005800  0.24987800  1
  Mn  Mn5  1  0.05404200  0.24986700  0.00006300  1
  Mn  Mn6  1  0.44596100  0.50005600  0.74987100  1
  Mn  Mn7  1  0.94596400  0.74987900  0.50006700  1
  O  O0  1  0.25000500  0.24999800  0.75000200  1
  O  O1  1  0.75000100  0.75000700  0.24999700  1
  F  F0  1  0.83245700  0.24999700  0.25000100  1
  F  F1  1  0.33245500  0.25000200  0.24999200  1
  F  F2  1  0.16754300  0.74999700  0.74999700  1
  F  F3  1  0.66754800  0.75000200  0.74999700  1
  F  F4  1  0.74999600  0.04045800  0.95954900  1
  F  F5  1  0.75000000  0.03992800  0.53992900  1
  F  F6  1  0.75000400  0.45955200  0.54046000  1
  F  F7  1  0.75000500  0.46006100  0.96006000  1
  F  F8  1  0.25000000  0.53992800  0.03992900  1
  F  F9  1  0.24999700  0.54046500  0.45955000  1
  F  F10  1  0.25000100  0.95955300  0.04046100  1
  F  F11  1  0.24999900  0.96005900  0.46006100  1
loop_
_geom_bond_atom_site_label_1
_geom_bond_atom_site_label_2
_geom_bond_distance
_geom_bond_site_symmetry_2
Mn0 O0 2.090830 1_555
Mn1 O1 2.090927 1_555
Mn2 O1 2.090903 1_556
Mn3 O0 2.090890 1_565
Mn4 O1 2.090879 1_545
Mn5 O0 2.090918 1_554
Mn6 O0 2.090882 1_555
Mn7 O1 2.090972 1_555
F0 Mn5 2.159352 1_655
F0 Mn0 2.159444 1_655
F0 Mn4 2.333287 1_555
F0 Mn1 2.333482 1_555
F1 Mn4 2.159365 1_555
F1 Mn1 2.159367 1_555
F1 Mn5 2.333180 1_555
F1 Mn0 2.333368 1_555
F2 Mn7 2.159283 1_455
F2 Mn2 2.159353 1_455
F2 Mn6 2.333272 1_555
F2 Mn3 2.333314 1_555
F3 Mn3 2.159354 1_555
F3 Mn6 2.159408 1_555
F3 Mn7 2.333200 1_555
F3 Mn2 2.333311 1_555
F4 Mn5 2.225558 1_656
F4 Mn3 2.225575 1_545
F4 Mn4 2.369399 1_556
F4 Mn2 2.369493 1_545
F5 Mn3 2.229411 1_545
F5 Mn0 2.229412 1_655
F5 Mn7 2.366461 1_545
F5 Mn4 2.366487 1_555
F6 Mn6 2.225549 1_555
F6 Mn0 2.225663 1_655
F6 Mn7 2.369368 1_555
F6 Mn1 2.369560 1_555
F7 Mn6 2.229437 1_555
F7 Mn5 2.229449 1_656
F7 Mn2 2.366537 1_555
F7 Mn1 2.366614 1_556
F8 Mn1 2.229274 1_555
F8 Mn2 2.229376 1_454
F8 Mn6 2.366517 1_554
F8 Mn5 2.366526 1_555
F9 Mn7 2.225541 1_455
F9 Mn1 2.225543 1_555
F9 Mn6 2.369348 1_555
F9 Mn0 2.369507 1_555
F10 Mn4 2.225523 1_565
F10 Mn2 2.225625 1_454
F10 Mn5 2.369288 1_565
F10 Mn3 2.369449 1_554
F11 Mn4 2.229365 1_565
F11 Mn7 2.229371 1_455
F11 Mn0 2.366522 1_565
F11 Mn3 2.366568 1_555
