# generated using pymatgen
data_MnNi3(PO4)4
_symmetry_space_group_name_H-M   'P 1'
_cell_length_a   5.81482700
_cell_length_b   4.78972300
_cell_length_c   9.91137759
_cell_angle_alpha   89.81874822
_cell_angle_beta   90.00000000
_cell_angle_gamma   90.00000000
_symmetry_Int_Tables_number   1
_chemical_formula_structural   MnNi3(PO4)4
_chemical_formula_sum   'Mn1 Ni3 P4 O16'
_cell_volume   276.04446595
_cell_formula_units_Z   1
loop_
 _symmetry_equiv_pos_site_id
 _symmetry_equiv_pos_as_xyz
  1  'x, y, z'
loop_
 _atom_site_type_symbol
 _atom_site_label
 _atom_site_symmetry_multiplicity
 _atom_site_fract_x
 _atom_site_fract_y
 _atom_site_fract_z
 _atom_site_occupancy
  Mn  Mn0  1  0.50000000  0.96137900  0.72579200  1
  Ni  Ni0  1  0.00000000  0.03745900  0.27317800  1
  Ni  Ni1  1  0.00000000  0.45831700  0.77105800  1
  Ni  Ni2  1  0.50000000  0.54005900  0.22938600  1
  P  P0  1  0.50000000  0.09203000  0.40778800  1
  P  P1  1  0.50000000  0.40329500  0.90555400  1
  P  P2  1  0.00000000  0.59379500  0.09451900  1
  P  P3  1  0.00000000  0.91627100  0.59197900  1
  O  O0  1  0.50000000  0.17069200  0.56013500  1
  O  O1  1  0.29374800  0.23810200  0.33428100  1
  O  O2  1  0.70625200  0.23810200  0.33428100  1
  O  O3  1  0.00000000  0.23082200  0.60733300  1
  O  O4  1  0.00000000  0.27579500  0.11204300  1
  O  O5  1  0.29696000  0.25073100  0.82905100  1
  O  O6  1  0.70304000  0.25073100  0.82905100  1
  O  O7  1  0.50000000  0.33841300  0.05490200  1
  O  O8  1  0.00000000  0.66110400  0.94359600  1
  O  O9  1  0.79473100  0.73992200  0.16919300  1
  O  O10  1  0.20526900  0.73992200  0.16919300  1
  O  O11  1  0.50000000  0.72121900  0.88130800  1
  O  O12  1  0.50000000  0.77519200  0.39328200  1
  O  O13  1  0.79166000  0.77032900  0.66920900  1
  O  O14  1  0.20834000  0.77032900  0.66920900  1
  O  O15  1  0.00000000  0.82599100  0.44468400  1
loop_
_geom_bond_atom_site_label_1
_geom_bond_atom_site_label_2
_geom_bond_distance
_geom_bond_site_symmetry_2
Mn0 O11 1.920369 1_555
Mn0 O0 1.921066 1_565
Mn0 O13 2.007830 1_555
Mn0 O14 2.007830 1_555
Mn0 O5 2.090713 1_565
Mn0 O6 2.090713 1_565
Ni0 O4 1.960169 1_555
Ni0 O15 1.975992 1_545
Ni0 O1 2.052219 1_555
Ni0 O2 2.052219 1_455
Ni0 O9 2.127712 1_445
Ni0 O10 2.127712 1_545
Ni1 O3 1.957494 1_555
Ni1 O8 1.969346 1_555
Ni1 O5 2.072944 1_555
Ni1 O6 2.072944 1_455
Ni1 O13 2.170367 1_455
Ni1 O14 2.170367 1_555
Ni2 O12 1.979581 1_555
Ni2 O7 1.983466 1_555
Ni2 O10 2.050819 1_555
Ni2 O9 2.050819 1_555
Ni2 O2 2.145109 1_555
Ni2 O1 2.145109 1_555
O0 P0 1.557421 1_555
O1 P0 1.566984 1_555
O2 P0 1.566984 1_555
O3 P3 1.514757 1_545
O4 P2 1.532457 1_555
O5 P1 1.583144 1_555
O6 P1 1.583144 1_555
O7 P1 1.511552 1_554
O8 P2 1.529205 1_556
O9 P2 1.570229 1_655
O10 P2 1.570229 1_555
O11 P1 1.540862 1_555
O12 P0 1.524814 1_565
O13 P3 1.593363 1_655
O14 P3 1.593363 1_555
O15 P3 1.523901 1_555
