# generated using pymatgen
data_Cd2S3(NO6)2
_symmetry_space_group_name_H-M   'P 1'
_cell_length_a   10.59062100
_cell_length_b   10.59062100
_cell_length_c   10.59062100
_cell_angle_alpha   90.00000000
_cell_angle_beta   90.00000000
_cell_angle_gamma   90.00000000
_symmetry_Int_Tables_number   1
_chemical_formula_structural   Cd2S3(NO6)2
_chemical_formula_sum   'Cd8 S12 N8 O48'
_cell_volume   1187.85732316
_cell_formula_units_Z   4
loop_
 _symmetry_equiv_pos_site_id
 _symmetry_equiv_pos_as_xyz
  1  'x, y, z'
loop_
 _atom_site_type_symbol
 _atom_site_label
 _atom_site_symmetry_multiplicity
 _atom_site_fract_x
 _atom_site_fract_y
 _atom_site_fract_z
 _atom_site_occupancy
  Cd  Cd0  1  0.91889400  0.41889400  0.08110600  1
  Cd  Cd1  1  0.41889400  0.08110600  0.91889400  1
  Cd  Cd2  1  0.08110600  0.91889400  0.41889400  1
  Cd  Cd3  1  0.58110600  0.58110600  0.58110600  1
  Cd  Cd4  1  0.66118700  0.16118700  0.33881300  1
  Cd  Cd5  1  0.16118700  0.33881300  0.66118700  1
  Cd  Cd6  1  0.33881300  0.66118700  0.16118700  1
  Cd  Cd7  1  0.83881300  0.83881300  0.83881300  1
  S  S0  1  0.23945800  0.37515300  0.97531100  1
  S  S1  1  0.02468900  0.73945800  0.12484700  1
  S  S2  1  0.87515300  0.52468900  0.76054200  1
  S  S3  1  0.73945800  0.12484700  0.02468900  1
  S  S4  1  0.52468900  0.76054200  0.87515300  1
  S  S5  1  0.37515300  0.97531100  0.23945800  1
  S  S6  1  0.76054200  0.87515300  0.52468900  1
  S  S7  1  0.97531100  0.23945800  0.37515300  1
  S  S8  1  0.12484700  0.02468900  0.73945800  1
  S  S9  1  0.26054200  0.62484700  0.47531100  1
  S  S10  1  0.47531100  0.26054200  0.62484700  1
  S  S11  1  0.62484700  0.47531100  0.26054200  1
  N  N0  1  0.43491900  0.93491900  0.56508100  1
  N  N1  1  0.93491900  0.56508100  0.43491900  1
  N  N2  1  0.56508100  0.43491900  0.93491900  1
  N  N3  1  0.06508100  0.06508100  0.06508100  1
  N  N4  1  0.19891100  0.69891100  0.80108900  1
  N  N5  1  0.69891100  0.80108900  0.19891100  1
  N  N6  1  0.80108900  0.19891100  0.69891100  1
  N  N7  1  0.30108900  0.30108900  0.30108900  1
  O  O0  1  0.10513500  0.34289800  0.00023200  1
  O  O1  1  0.99976800  0.60513500  0.15710200  1
  O  O2  1  0.84289800  0.49976800  0.89486500  1
  O  O3  1  0.60513500  0.15710200  0.99976800  1
  O  O4  1  0.49976800  0.89486500  0.84289800  1
  O  O5  1  0.34289800  0.00023200  0.10513500  1
  O  O6  1  0.89486500  0.84289800  0.49976800  1
  O  O7  1  0.00023200  0.10513500  0.34289800  1
  O  O8  1  0.15710200  0.99976800  0.60513500  1
  O  O9  1  0.39486500  0.65710200  0.50023200  1
  O  O10  1  0.50023200  0.39486500  0.65710200  1
  O  O11  1  0.65710200  0.50023200  0.39486500  1
  O  O12  1  0.31588500  0.25954500  0.99458900  1
  O  O13  1  0.00541100  0.81588500  0.24045500  1
  O  O14  1  0.75954500  0.50541100  0.68411500  1
  O  O15  1  0.81588500  0.24045500  0.00541100  1
  O  O16  1  0.50541100  0.68411500  0.75954500  1
  O  O17  1  0.25954500  0.99458900  0.31588500  1
  O  O18  1  0.68411500  0.75954500  0.50541100  1
  O  O19  1  0.99458900  0.31588500  0.25954500  1
  O  O20  1  0.24045500  0.00541100  0.81588500  1
  O  O21  1  0.18411500  0.74045500  0.49458900  1
  O  O22  1  0.49458900  0.18411500  0.74045500  1
  O  O23  1  0.74045500  0.49458900  0.18411500  1
  O  O24  1  0.25274400  0.41852100  0.84160600  1
  O  O25  1  0.15839400  0.75274400  0.08147900  1
  O  O26  1  0.91852100  0.65839400  0.74725600  1
  O  O27  1  0.75274400  0.08147900  0.15839400  1
  O  O28  1  0.65839400  0.74725600  0.91852100  1
  O  O29  1  0.41852100  0.84160600  0.25274400  1
  O  O30  1  0.74725600  0.91852100  0.65839400  1
  O  O31  1  0.84160600  0.25274400  0.41852100  1
  O  O32  1  0.08147900  0.15839400  0.75274400  1
  O  O33  1  0.24725600  0.58147900  0.34160600  1
  O  O34  1  0.34160600  0.24725600  0.58147900  1
  O  O35  1  0.58147900  0.34160600  0.24725600  1
  O  O36  1  0.28431000  0.47424900  0.06180600  1
  O  O37  1  0.93819400  0.78431000  0.02575100  1
  O  O38  1  0.97424900  0.43819400  0.71569000  1
  O  O39  1  0.78431000  0.02575100  0.93819400  1
  O  O40  1  0.43819400  0.71569000  0.97424900  1
  O  O41  1  0.47424900  0.06180600  0.28431000  1
  O  O42  1  0.71569000  0.97424900  0.43819400  1
  O  O43  1  0.06180600  0.28431000  0.47424900  1
  O  O44  1  0.02575100  0.93819400  0.78431000  1
  O  O45  1  0.21569000  0.52575100  0.56180600  1
  O  O46  1  0.56180600  0.21569000  0.52575100  1
  O  O47  1  0.52575100  0.56180600  0.21569000  1
loop_
_geom_bond_atom_site_label_1
_geom_bond_atom_site_label_2
_geom_bond_distance
_geom_bond_site_symmetry_2
Cd0 O0 2.296034 1_655
Cd0 O2 2.296034 1_554
Cd0 O1 2.296034 1_555
Cd0 O19 2.324661 1_555
Cd0 O15 2.324661 1_555
Cd0 O23 2.324661 1_555
Cd1 O5 2.296034 1_556
Cd1 O4 2.296034 1_545
Cd1 O3 2.296034 1_555
Cd1 O12 2.324661 1_555
Cd1 O22 2.324661 1_555
Cd1 O20 2.324661 1_555
Cd2 O8 2.296034 1_555
Cd2 O6 2.296034 1_455
Cd2 O7 2.296034 1_565
Cd2 O21 2.324661 1_555
Cd2 O13 2.324661 1_555
Cd2 O17 2.324661 1_555
Cd3 O10 2.296034 1_555
Cd3 O11 2.296034 1_555
Cd3 O9 2.296034 1_555
Cd3 O18 2.324661 1_555
Cd3 O16 2.324661 1_555
Cd3 O14 2.324661 1_555
Cd4 O35 2.302993 1_555
Cd4 O27 2.302993 1_555
Cd4 O31 2.302993 1_555
Cd4 O46 2.315280 1_555
Cd4 O42 2.315280 1_545
Cd4 O41 2.315280 1_555
Cd5 O32 2.302993 1_555
Cd5 O34 2.302993 1_555
Cd5 O24 2.302993 1_555
Cd5 O45 2.315280 1_555
Cd5 O43 2.315280 1_555
Cd5 O38 2.315280 1_455
Cd6 O25 2.302993 1_555
Cd6 O29 2.302993 1_555
Cd6 O33 2.302993 1_555
Cd6 O47 2.315280 1_555
Cd6 O36 2.315280 1_555
Cd6 O40 2.315280 1_554
Cd7 O28 2.302993 1_555
Cd7 O26 2.302993 1_555
Cd7 O30 2.302993 1_555
Cd7 O37 2.315280 1_556
Cd7 O44 2.315280 1_655
Cd7 O39 2.315280 1_565
O0 S0 1.486620 1_554
O1 S1 1.486620 1_655
O2 S2 1.486620 1_555
O3 S3 1.486620 1_556
O4 S4 1.486620 1_555
O5 S5 1.486620 1_545
O6 S6 1.486620 1_555
O7 S7 1.486620 1_455
O8 S8 1.486620 1_565
O9 S9 1.486620 1_555
O10 S10 1.486620 1_555
O11 S11 1.486620 1_555
O12 S0 1.481852 1_555
O13 S1 1.481852 1_555
O14 S2 1.481852 1_555
O15 S3 1.481852 1_555
O16 S4 1.481852 1_555
O17 S5 1.481852 1_555
O18 S6 1.481852 1_555
O19 S7 1.481852 1_555
O20 S8 1.481852 1_555
O21 S9 1.481852 1_555
O22 S10 1.481852 1_555
O23 S11 1.481852 1_555
O24 S0 1.495279 1_555
O25 S1 1.495279 1_555
O26 S2 1.495279 1_555
O27 S3 1.495279 1_555
O28 S4 1.495279 1_555
O29 S5 1.495279 1_555
O30 S6 1.495279 1_555
O31 S7 1.495279 1_555
O32 S8 1.495279 1_555
O33 S9 1.495279 1_555
O34 S10 1.495279 1_555
O35 S11 1.495279 1_555
O36 S0 1.471795 1_554
O37 S1 1.471795 1_655
O38 S2 1.471795 1_555
O39 S3 1.471795 1_556
O40 S4 1.471795 1_555
O41 S5 1.471795 1_545
O42 S6 1.471795 1_555
O43 S7 1.471795 1_455
O44 S8 1.471795 1_565
O45 S9 1.471795 1_555
O46 S10 1.471795 1_555
O47 S11 1.471795 1_555
