# generated using pymatgen
data_Li11Fe6F29
_symmetry_space_group_name_H-M   'P 1'
_cell_length_a   14.16877935
_cell_length_b   14.16877935
_cell_length_c   7.45014231
_cell_angle_alpha   89.61345980
_cell_angle_beta   89.61345980
_cell_angle_gamma   22.59053459
_symmetry_Int_Tables_number   1
_chemical_formula_structural   Li11Fe6F29
_chemical_formula_sum   'Li11 Fe6 F29'
_cell_volume   574.52887819
_cell_formula_units_Z   1
loop_
 _symmetry_equiv_pos_site_id
 _symmetry_equiv_pos_as_xyz
  1  'x, y, z'
loop_
 _atom_site_type_symbol
 _atom_site_label
 _atom_site_symmetry_multiplicity
 _atom_site_fract_x
 _atom_site_fract_y
 _atom_site_fract_z
 _atom_site_occupancy
  Li  Li0  1  0.44060700  0.44060700  0.45458700  1
  Li  Li1  1  0.90586900  0.90586900  0.59912600  1
  Li  Li2  1  0.32329700  0.32329700  0.94819700  1
  Li  Li3  1  0.34434900  0.34434900  0.41845200  1
  Li  Li4  1  0.77250700  0.77250700  0.08340300  1
  Li  Li5  1  0.22749300  0.22749300  0.91659700  1
  Li  Li6  1  0.65565100  0.65565100  0.58154800  1
  Li  Li7  1  0.67670300  0.67670300  0.05180300  1
  Li  Li8  1  0.09413100  0.09413100  0.40087400  1
  Li  Li9  1  0.55939300  0.55939300  0.54541300  1
  Li  Li10  1  0.00000000  0.00000000  0.00000000  1
  Fe  Fe0  1  0.43692600  0.43692600  0.84121200  1
  Fe  Fe1  1  0.90251200  0.90251200  0.19418500  1
  Fe  Fe2  1  0.76890700  0.76890700  0.68079900  1
  Fe  Fe3  1  0.23109300  0.23109300  0.31920100  1
  Fe  Fe4  1  0.09748800  0.09748800  0.80581500  1
  Fe  Fe5  1  0.56307400  0.56307400  0.15878800  1
  F  F0  1  0.22251000  0.68250800  0.65573000  1
  F  F1  1  0.68250800  0.22251000  0.65573000  1
  F  F2  1  0.97012700  0.97012700  0.22740900  1
  F  F3  1  0.15857700  0.67617600  0.00259700  1
  F  F4  1  0.67617600  0.15857700  0.00259700  1
  F  F5  1  0.37048800  0.37048800  0.75990200  1
  F  F6  1  0.14882500  0.63868000  0.37553700  1
  F  F7  1  0.63868000  0.14882500  0.37553700  1
  F  F8  1  0.83708300  0.83708300  0.12964700  1
  F  F9  1  0.83454100  0.83454100  0.61569100  1
  F  F10  1  0.03030800  0.52704100  0.86238700  1
  F  F11  1  0.52704100  0.03030800  0.86238700  1
  F  F12  1  0.29943300  0.29943300  0.22957100  1
  F  F13  1  0.00000000  0.50000000  0.50000000  1
  F  F14  1  0.50000000  0.00000000  0.50000000  1
  F  F15  1  0.70056700  0.70056700  0.77042900  1
  F  F16  1  0.47295900  0.96969200  0.13761300  1
  F  F17  1  0.96969200  0.47295900  0.13761300  1
  F  F18  1  0.16545900  0.16545900  0.38430900  1
  F  F19  1  0.16291700  0.16291700  0.87035300  1
  F  F20  1  0.85117500  0.36132000  0.62446300  1
  F  F21  1  0.36132000  0.85117500  0.62446300  1
  F  F22  1  0.62951200  0.62951200  0.24009800  1
  F  F23  1  0.84142300  0.32382400  0.99740300  1
  F  F24  1  0.32382400  0.84142300  0.99740300  1
  F  F25  1  0.02987300  0.02987300  0.77259100  1
  F  F26  1  0.77749000  0.31749200  0.34427000  1
  F  F27  1  0.31749200  0.77749000  0.34427000  1
  F  F28  1  0.50000000  0.50000000  0.00000000  1
loop_
_geom_bond_atom_site_label_1
_geom_bond_atom_site_label_2
_geom_bond_distance
_geom_bond_site_symmetry_2
F0 Fe0 1.928335 1_555
F0 Li0 1.997869 1_555
F0 Li1 2.027544 1_455
F1 Fe0 1.928335 1_555
F1 Li0 1.997869 1_555
F1 Li1 2.027544 1_545
F2 Li10 1.881537 1_665
F2 Fe1 1.896853 1_555
F3 Fe0 1.948097 1_554
F3 Fe1 1.998024 1_455
F4 Fe0 1.948097 1_554
F4 Fe1 1.998024 1_545
F5 Li2 1.913717 1_555
F5 Fe0 1.947021 1_555
F6 Li3 1.956777 1_555
F6 Fe1 1.970916 1_455
F6 Li0 1.975023 1_555
F6 Li1 2.213638 1_455
F7 Li3 1.956777 1_555
F7 Fe1 1.970916 1_545
F7 Li0 1.975023 1_555
F7 Li1 2.213638 1_545
F8 Li4 1.829582 1_555
F8 Fe1 1.883883 1_555
F9 Fe2 1.884055 1_555
F9 Li1 1.985102 1_555
F10 Li2 1.964058 1_555
F10 Fe2 1.964581 1_455
F10 Li5 2.019496 1_555
F10 Li4 2.165045 1_456
F11 Li2 1.964058 1_555
F11 Fe2 1.964581 1_545
F11 Li5 2.019496 1_555
F11 Li4 2.165045 1_546
F12 Li3 1.887391 1_555
F12 Fe3 2.008718 1_555
F12 Li2 2.194314 1_554
F13 Fe2 2.006371 1_455
F13 Fe3 2.006371 1_555
F14 Fe2 2.006371 1_545
F14 Fe3 2.006371 1_555
F15 Li6 1.887391 1_555
F15 Fe2 2.008718 1_555
F15 Li7 2.194314 1_556
F16 Li7 1.964058 1_555
F16 Fe3 1.964581 1_565
F16 Li4 2.019496 1_555
F16 Li5 2.165045 1_564
F17 Li7 1.964058 1_555
F17 Fe3 1.964581 1_655
F17 Li4 2.019496 1_555
F17 Li5 2.165045 1_654
F18 Fe3 1.884055 1_555
F18 Li8 1.985102 1_555
F19 Li5 1.829582 1_555
F19 Fe4 1.883883 1_555
F20 Li6 1.956777 1_555
F20 Fe4 1.970916 1_655
F20 Li9 1.975023 1_555
F20 Li8 2.213638 1_655
F21 Li6 1.956777 1_555
F21 Fe4 1.970916 1_565
F21 Li9 1.975023 1_555
F21 Li8 2.213638 1_565
F22 Li7 1.913717 1_555
F22 Fe5 1.947021 1_555
F23 Fe5 1.948097 1_556
F23 Fe4 1.998024 1_655
F24 Fe5 1.948097 1_556
F24 Fe4 1.998024 1_565
F25 Li10 1.881537 1_556
F25 Fe4 1.896853 1_555
F26 Fe5 1.928335 1_555
F26 Li9 1.997869 1_555
F26 Li8 2.027544 1_655
F27 Fe5 1.928335 1_555
F27 Li9 1.997869 1_555
F27 Li8 2.027544 1_565
F28 Fe5 2.121347 1_555
F28 Fe0 2.121347 1_554
