# generated using pymatgen
data_LiFe2(BO3)2
_symmetry_space_group_name_H-M   'P 1'
_cell_length_a   5.24991200
_cell_length_b   9.08730767
_cell_length_c   10.20399716
_cell_angle_alpha   89.21346834
_cell_angle_beta   89.95162087
_cell_angle_gamma   89.52470221
_symmetry_Int_Tables_number   1
_chemical_formula_structural   LiFe2(BO3)2
_chemical_formula_sum   'Li4 Fe8 B8 O24'
_cell_volume   486.74511783
_cell_formula_units_Z   4
loop_
 _symmetry_equiv_pos_site_id
 _symmetry_equiv_pos_as_xyz
  1  'x, y, z'
loop_
 _atom_site_type_symbol
 _atom_site_label
 _atom_site_symmetry_multiplicity
 _atom_site_fract_x
 _atom_site_fract_y
 _atom_site_fract_z
 _atom_site_occupancy
  Li  Li0  1  0.18014200  0.16614200  0.15718200  1
  Li  Li1  1  0.32050400  0.32977400  0.41696800  1
  Li  Li2  1  0.33648500  0.32754500  0.90799000  1
  Li  Li3  1  0.66029200  0.67728800  0.65590600  1
  Fe  Fe0  1  0.15022700  0.84822200  0.62895400  1
  Fe  Fe1  1  0.18286500  0.50661200  0.13198800  1
  Fe  Fe2  1  0.31891000  0.99103800  0.87411900  1
  Fe  Fe3  1  0.32990100  0.67336200  0.37667600  1
  Fe  Fe4  1  0.68193100  0.33254100  0.63109000  1
  Fe  Fe5  1  0.66931500  0.99391300  0.12851400  1
  Fe  Fe6  1  0.83772600  0.14650400  0.38395100  1
  Fe  Fe7  1  0.82847600  0.50734100  0.88926700  1
  B  B0  1  0.17588600  0.50415200  0.62015000  1
  B  B1  1  0.16529600  0.83720800  0.13050600  1
  B  B2  1  0.34328500  0.99944600  0.37067200  1
  B  B3  1  0.33256900  0.66237000  0.87089600  1
  B  B4  1  0.65420100  0.00023500  0.63535700  1
  B  B5  1  0.67586800  0.32393100  0.12441300  1
  B  B6  1  0.82741800  0.49632200  0.38407100  1
  B  B7  1  0.82036900  0.16694000  0.88053200  1
  O  O0  1  0.09119800  0.49906800  0.35375800  1
  O  O1  1  0.08170800  0.15871800  0.88703900  1
  O  O2  1  0.19509600  0.79395500  0.84733900  1
  O  O3  1  0.23553600  0.87445900  0.42382600  1
  O  O4  1  0.21334000  0.13204100  0.36269700  1
  O  O5  1  0.20692300  0.53786800  0.91913300  1
  O  O6  1  0.32255300  0.37712300  0.61958200  1
  O  O7  1  0.30751100  0.95959800  0.08320800  1
  O  O8  1  0.28503000  0.63772900  0.58291300  1
  O  O9  1  0.29162500  0.71555800  0.18230300  1
  O  O10  1  0.41141500  0.32340300  0.11617900  1
  O  O11  1  0.40721800  0.00735100  0.68679200  1
  O  O12  1  0.58882800  0.99172800  0.32077000  1
  O  O13  1  0.58355200  0.65727500  0.84155200  1
  O  O14  1  0.69519200  0.29276900  0.83057100  1
  O  O15  1  0.71977500  0.36159200  0.42578700  1
  O  O16  1  0.67864000  0.61885500  0.37853400  1
  O  O17  1  0.66584000  0.05368300  0.92859700  1
  O  O18  1  0.81524700  0.44394400  0.08947900  1
  O  O19  1  0.78063300  0.87118700  0.62570500  1
  O  O20  1  0.76316800  0.13101400  0.58937300  1
  O  O21  1  0.80711400  0.19326000  0.16294400  1
  O  O22  1  0.90890600  0.84451400  0.12543700  1
  O  O23  1  0.91871000  0.49884900  0.65576500  1
loop_
_geom_bond_atom_site_label_1
_geom_bond_atom_site_label_2
_geom_bond_distance
_geom_bond_site_symmetry_2
Li0 O10 1.924325 1_555
Li0 O21 1.972707 1_455
Li0 O4 2.122736 1_555
Li0 O7 2.134708 1_545
Li1 O4 1.973960 1_555
Li1 O0 2.043365 1_555
Li1 O6 2.117601 1_555
Li1 O15 2.120514 1_555
Li2 O5 2.028005 1_555
Li2 O1 2.057185 1_555
Li2 O14 2.065134 1_555
Li2 O10 2.160564 1_556
Li3 O19 1.897910 1_555
Li3 O13 1.942767 1_555
Li3 O23 2.105584 1_555
Li3 O8 2.141689 1_555
Fe0 O19 1.950065 1_455
Fe0 O11 2.077694 1_565
Fe0 O8 2.093339 1_555
Fe0 O3 2.150602 1_555
Fe0 O2 2.287626 1_555
Fe1 O10 2.052175 1_555
Fe1 O9 2.059159 1_555
Fe1 O18 2.064859 1_455
Fe1 O5 2.190270 1_554
Fe1 O0 2.313362 1_555
Fe2 O2 1.933327 1_555
Fe2 O1 1.965637 1_565
Fe2 O11 1.970417 1_565
Fe2 O17 1.994496 1_565
Fe2 O7 2.149546 1_556
Fe3 O16 1.892741 1_555
Fe3 O3 1.955792 1_555
Fe3 O9 2.024779 1_555
Fe3 O0 2.043854 1_555
Fe3 O8 2.137929 1_555
Fe4 O6 1.929755 1_555
Fe4 O20 1.930034 1_555
Fe4 O23 1.983624 1_555
Fe4 O14 2.063582 1_555
Fe4 O15 2.117263 1_555
Fe5 O22 1.843657 1_555
Fe5 O7 1.983456 1_555
Fe5 O21 1.991999 1_565
Fe5 O12 2.006288 1_555
Fe5 O17 2.103860 1_564
Fe6 O4 1.987113 1_655
Fe6 O12 2.039148 1_545
Fe6 O15 2.094855 1_555
Fe6 O20 2.134993 1_555
Fe6 O21 2.294614 1_555
Fe7 O13 1.923691 1_555
Fe7 O5 2.032177 1_655
Fe7 O18 2.116254 1_556
Fe7 O14 2.169283 1_555
Fe7 O23 2.431037 1_555
B0 O6 1.382344 1_555
B0 O8 1.394508 1_555
B0 O23 1.398954 1_455
B1 O22 1.348112 1_455
B1 O9 1.383351 1_555
B1 O7 1.423298 1_555
B2 O3 1.377470 1_555
B2 O4 1.381174 1_565
B2 O12 1.387192 1_555
B3 O13 1.351545 1_555
B3 O5 1.397844 1_555
B3 O2 1.409458 1_555
B4 O19 1.347458 1_545
B4 O20 1.398324 1_555
B4 O11 1.399752 1_555
B5 O18 1.361623 1_555
B5 O10 1.391018 1_555
B5 O21 1.418958 1_555
B6 O16 1.355380 1_555
B6 O15 1.412907 1_555
B6 O0 1.419037 1_655
B7 O1 1.375031 1_655
B7 O17 1.399026 1_555
B7 O14 1.404042 1_555
