# generated using pymatgen
data_Li2MnCrO4
_symmetry_space_group_name_H-M   'P 1'
_cell_length_a   6.03475400
_cell_length_b   10.24075069
_cell_length_c   10.24858700
_cell_angle_alpha   107.63210282
_cell_angle_beta   91.23878961
_cell_angle_gamma   91.95776118
_symmetry_Int_Tables_number   1
_chemical_formula_structural   Li2MnCrO4
_chemical_formula_sum   'Li16 Mn8 Cr8 O32'
_cell_volume   602.91980499
_cell_formula_units_Z   8
loop_
 _symmetry_equiv_pos_site_id
 _symmetry_equiv_pos_as_xyz
  1  'x, y, z'
loop_
 _atom_site_type_symbol
 _atom_site_label
 _atom_site_symmetry_multiplicity
 _atom_site_fract_x
 _atom_site_fract_y
 _atom_site_fract_z
 _atom_site_occupancy
  Li  Li0  1  0.25555700  0.74888800  0.99696500  1
  Li  Li1  1  0.50526600  0.75032800  0.74988400  1
  Li  Li2  1  0.49596100  0.25079800  0.74960500  1
  Li  Li3  1  0.99141100  0.75103700  0.75150800  1
  Li  Li4  1  0.74444300  0.25111200  0.00303500  1
  Li  Li5  1  0.75528800  0.99814600  0.74963100  1
  Li  Li6  1  0.99803000  0.24892500  0.75044400  1
  Li  Li7  1  0.24849900  0.49828800  0.75055500  1
  Li  Li8  1  0.74640500  0.75041000  0.50317200  1
  Li  Li9  1  0.25359500  0.24959000  0.49682800  1
  Li  Li10  1  0.50403900  0.74920200  0.25039500  1
  Li  Li11  1  0.00197000  0.75107500  0.24955600  1
  Li  Li12  1  0.24471200  0.00185400  0.25036900  1
  Li  Li13  1  0.49473400  0.24967200  0.25011600  1
  Li  Li14  1  0.00858900  0.24896300  0.24849200  1
  Li  Li15  1  0.75150100  0.50171200  0.24944500  1
  Mn  Mn0  1  0.50000000  0.00000000  0.00000000  1
  Mn  Mn1  1  0.50000000  0.50000000  0.00000000  1
  Mn  Mn2  1  0.24019300  0.25007200  0.99884000  1
  Mn  Mn3  1  0.75980700  0.74992800  0.00116000  1
  Mn  Mn4  1  0.00000000  0.00000000  0.00000000  1
  Mn  Mn5  1  0.24982900  0.74935600  0.49950000  1
  Mn  Mn6  1  0.00000000  0.50000000  0.50000000  1
  Mn  Mn7  1  0.75017100  0.25064400  0.50050000  1
  Cr  Cr0  1  0.00000000  0.50000000  0.00000000  1
  Cr  Cr1  1  0.25317600  0.99677900  0.74919300  1
  Cr  Cr2  1  0.50000000  0.00000000  0.50000000  1
  Cr  Cr3  1  0.00000000  0.00000000  0.50000000  1
  Cr  Cr4  1  0.50000000  0.50000000  0.50000000  1
  Cr  Cr5  1  0.74653600  0.50106800  0.75066400  1
  Cr  Cr6  1  0.25346400  0.49893200  0.24933600  1
  Cr  Cr7  1  0.74682400  0.00322100  0.25080700  1
  O  O0  1  0.77270500  0.87158700  0.88627900  1
  O  O1  1  0.49683500  0.11428700  0.87478900  1
  O  O2  1  0.73932800  0.38839000  0.88546700  1
  O  O3  1  0.27053900  0.88091400  0.87716200  1
  O  O4  1  0.47343400  0.87786900  0.62227600  1
  O  O5  1  0.22328900  0.37047100  0.88541900  1
  O  O6  1  0.02434900  0.11345800  0.87248400  1
  O  O7  1  0.52550000  0.61755300  0.88004800  1
  O  O8  1  0.25973400  0.11031400  0.61659500  1
  O  O9  1  0.50084000  0.38389100  0.62861000  1
  O  O10  1  0.00392400  0.88327800  0.62720100  1
  O  O11  1  0.99764500  0.61409200  0.87091900  1
  O  O12  1  0.74026600  0.88968600  0.38340500  1
  O  O13  1  0.97078600  0.38186800  0.62377300  1
  O  O14  1  0.25234700  0.61529300  0.60536600  1
  O  O15  1  0.75952900  0.12063800  0.60905400  1
  O  O16  1  0.24047100  0.87936200  0.39094600  1
  O  O17  1  0.52656600  0.12213100  0.37772400  1
  O  O18  1  0.74765300  0.38470700  0.39463400  1
  O  O19  1  0.99607600  0.11672200  0.37279900  1
  O  O20  1  0.26167000  0.38066800  0.37347200  1
  O  O21  1  0.73833000  0.61933200  0.62652800  1
  O  O22  1  0.49916000  0.61610900  0.37139000  1
  O  O23  1  0.50316500  0.88571300  0.12521100  1
  O  O24  1  0.97565100  0.88654200  0.12751600  1
  O  O25  1  0.22729500  0.12841300  0.11372100  1
  O  O26  1  0.47450000  0.38244700  0.11995200  1
  O  O27  1  0.02921400  0.61813200  0.37622700  1
  O  O28  1  0.26067200  0.61161000  0.11453300  1
  O  O29  1  0.72946100  0.11908600  0.12283800  1
  O  O30  1  0.00235500  0.38590800  0.12908100  1
  O  O31  1  0.77671100  0.62952900  0.11458100  1
loop_
_geom_bond_atom_site_label_1
_geom_bond_atom_site_label_2
_geom_bond_distance
_geom_bond_site_symmetry_2
Li0 O3 2.084669 1_555
Li0 O28 2.111075 1_556
Li0 O23 2.140085 1_556
Li0 O11 2.163965 1_455
Li0 O7 2.270741 1_555
Li0 O24 2.397586 1_456
Li1 O4 2.119969 1_555
Li1 O21 2.134116 1_555
Li1 O3 2.156144 1_555
Li1 O7 2.178631 1_555
Li1 O0 2.194249 1_555
Li1 O14 2.225495 1_555
Li2 O9 2.102131 1_555
Li2 O8 2.132603 1_555
Li2 O2 2.159341 1_555
Li2 O1 2.164971 1_555
Li2 O5 2.313105 1_555
Li2 O15 2.337151 1_555
Li3 O0 2.081088 1_555
Li3 O10 2.122509 1_655
Li3 O11 2.123020 1_555
Li3 O21 2.126134 1_555
Li3 O3 2.231661 1_655
Li3 O14 2.376034 1_655
Li4 O29 2.084669 1_555
Li4 O2 2.111075 1_554
Li4 O1 2.140085 1_554
Li4 O30 2.163965 1_655
Li4 O26 2.270741 1_555
Li4 O6 2.397586 1_654
Li5 O6 2.120393 1_665
Li5 O10 2.125401 1_655
Li5 O15 2.178097 1_565
Li5 O0 2.180504 1_555
Li5 O1 2.186687 1_565
Li5 O4 2.213770 1_555
Li6 O5 2.017614 1_655
Li6 O15 2.127114 1_555
Li6 O6 2.138164 1_655
Li6 O13 2.154678 1_555
Li6 O2 2.332495 1_555
Li6 O8 2.336265 1_655
Li7 O11 2.130016 1_455
Li7 O9 2.137879 1_555
Li7 O14 2.174871 1_555
Li7 O5 2.176776 1_555
Li7 O13 2.179286 1_455
Li7 O7 2.197717 1_555
Li8 O21 2.104464 1_555
Li8 O22 2.142253 1_555
Li8 O12 2.145814 1_555
Li8 O10 2.145833 1_655
Li8 O4 2.275082 1_555
Li8 O27 2.372067 1_655
Li9 O20 2.104464 1_555
Li9 O9 2.142253 1_555
Li9 O8 2.145814 1_555
Li9 O19 2.145833 1_455
Li9 O17 2.275082 1_555
Li9 O13 2.372067 1_455
Li10 O22 2.102131 1_555
Li10 O12 2.132603 1_555
Li10 O28 2.159341 1_555
Li10 O23 2.164971 1_555
Li10 O31 2.313105 1_555
Li10 O16 2.337151 1_555
Li11 O31 2.017614 1_455
Li11 O16 2.127114 1_555
Li11 O24 2.138164 1_455
Li11 O27 2.154678 1_555
Li11 O28 2.332495 1_555
Li11 O12 2.336265 1_455
Li12 O24 2.120393 1_445
Li12 O19 2.125401 1_455
Li12 O16 2.178097 1_545
Li12 O25 2.180504 1_555
Li12 O23 2.186687 1_545
Li12 O17 2.213770 1_555
Li13 O17 2.119969 1_555
Li13 O20 2.134116 1_555
Li13 O29 2.156144 1_555
Li13 O26 2.178631 1_555
Li13 O25 2.194249 1_555
Li13 O18 2.225495 1_555
Li14 O25 2.081088 1_555
Li14 O19 2.122509 1_455
Li14 O30 2.123020 1_555
Li14 O20 2.126134 1_555
Li14 O29 2.231661 1_455
Li14 O18 2.376034 1_455
Li15 O30 2.130016 1_655
Li15 O22 2.137879 1_555
Li15 O18 2.174871 1_555
Li15 O31 2.176776 1_555
Li15 O27 2.179286 1_655
Li15 O26 2.197717 1_555
Mn0 O29 1.966922 1_555
Mn0 O3 1.966922 1_544
Mn0 O1 1.981711 1_554
Mn0 O23 1.981711 1_545
Mn0 O0 2.257952 1_544
Mn0 O25 2.257952 1_555
Mn1 O7 1.968814 1_554
Mn1 O26 1.968814 1_555
Mn1 O2 2.035554 1_554
Mn1 O28 2.035554 1_555
Mn1 O5 2.178813 1_554
Mn1 O31 2.178813 1_555
Mn2 O5 1.937406 1_555
Mn2 O25 1.957151 1_556
Mn2 O6 2.008960 1_555
Mn2 O26 2.037522 1_556
Mn2 O30 2.207076 1_556
Mn2 O1 2.260514 1_555
Mn3 O31 1.937406 1_555
Mn3 O0 1.957151 1_554
Mn3 O24 2.008960 1_555
Mn3 O7 2.037522 1_554
Mn3 O11 2.207076 1_554
Mn3 O23 2.260514 1_555
Mn4 O0 1.961708 1_444
Mn4 O25 1.961708 1_555
Mn4 O24 1.998997 1_445
Mn4 O6 1.998997 1_554
Mn4 O29 2.243311 1_455
Mn4 O3 2.243311 1_544
Mn5 O16 1.978167 1_555
Mn5 O4 1.984497 1_555
Mn5 O27 1.987718 1_555
Mn5 O14 1.991327 1_555
Mn5 O10 2.220720 1_555
Mn5 O22 2.233864 1_555
Mn6 O18 1.978091 1_455
Mn6 O14 1.978091 1_555
Mn6 O13 2.007099 1_455
Mn6 O27 2.007099 1_555
Mn6 O20 2.220114 1_555
Mn6 O21 2.220114 1_455
Mn7 O15 1.978167 1_555
Mn7 O17 1.984497 1_555
Mn7 O13 1.987718 1_555
Mn7 O18 1.991327 1_555
Mn7 O19 2.220720 1_555
Mn7 O9 2.233864 1_555
Cr0 O11 2.012979 1_454
Cr0 O30 2.012979 1_555
Cr0 O28 2.035523 1_555
Cr0 O2 2.035523 1_454
Cr0 O31 2.049667 1_455
Cr0 O5 2.049667 1_554
Cr1 O3 2.020937 1_555
Cr1 O10 2.023745 1_555
Cr1 O1 2.031249 1_565
Cr1 O8 2.038748 1_565
Cr1 O4 2.041399 1_555
Cr1 O6 2.050556 1_565
Cr2 O17 2.026050 1_555
Cr2 O4 2.026050 1_545
Cr2 O12 2.043397 1_545
Cr2 O8 2.043397 1_555
Cr2 O15 2.045483 1_555
Cr2 O16 2.045483 1_545
Cr3 O19 2.018269 1_455
Cr3 O10 2.018269 1_545
Cr3 O8 2.034985 1_555
Cr3 O12 2.034985 1_445
Cr3 O15 2.058516 1_455
Cr3 O16 2.058516 1_545
Cr4 O20 2.020590 1_555
Cr4 O21 2.020590 1_555
Cr4 O9 2.025026 1_555
Cr4 O22 2.025026 1_555
Cr4 O14 2.052235 1_555
Cr4 O18 2.052235 1_555
Cr5 O21 2.005639 1_555
Cr5 O11 2.022428 1_555
Cr5 O9 2.022870 1_555
Cr5 O7 2.046340 1_555
Cr5 O2 2.051092 1_555
Cr5 O13 2.059115 1_555
Cr6 O20 2.005639 1_555
Cr6 O30 2.022428 1_555
Cr6 O22 2.022870 1_555
Cr6 O26 2.046340 1_555
Cr6 O28 2.051092 1_555
Cr6 O27 2.059115 1_555
Cr7 O29 2.020937 1_555
Cr7 O19 2.023745 1_555
Cr7 O23 2.031249 1_545
Cr7 O12 2.038748 1_545
Cr7 O17 2.041399 1_555
Cr7 O24 2.050556 1_545
