# generated using pymatgen
data_Li4Fe2Ni3Sb3O16
_symmetry_space_group_name_H-M   'P 1'
_cell_length_a   6.05032100
_cell_length_b   6.08042358
_cell_length_c   9.69375987
_cell_angle_alpha   91.46234971
_cell_angle_beta   90.50644314
_cell_angle_gamma   119.72147534
_symmetry_Int_Tables_number   1
_chemical_formula_structural   Li4Fe2Ni3Sb3O16
_chemical_formula_sum   'Li4 Fe2 Ni3 Sb3 O16'
_cell_volume   309.50852961
_cell_formula_units_Z   1
loop_
 _symmetry_equiv_pos_site_id
 _symmetry_equiv_pos_as_xyz
  1  'x, y, z'
loop_
 _atom_site_type_symbol
 _atom_site_label
 _atom_site_symmetry_multiplicity
 _atom_site_fract_x
 _atom_site_fract_y
 _atom_site_fract_z
 _atom_site_occupancy
  Li  Li0  1  0.66209400  0.33315600  0.88293300  1
  Li  Li1  1  0.98045700  0.95824200  0.98574000  1
  Li  Li2  1  0.99258000  0.98281000  0.50448800  1
  Li  Li3  1  0.32487000  0.65368900  0.40288300  1
  Fe  Fe0  1  0.68231100  0.35381900  0.50599800  1
  Fe  Fe1  1  0.34819800  0.70371200  0.97361600  1
  Ni  Ni0  1  0.82889700  0.65817400  0.21557500  1
  Ni  Ni1  1  0.17018100  0.83265400  0.71254800  1
  Ni  Ni2  1  0.66400100  0.83731100  0.71336400  1
  Sb  Sb0  1  0.33632300  0.16709500  0.21604400  1
  Sb  Sb1  1  0.83061700  0.16684200  0.21485900  1
  Sb  Sb2  1  0.17479300  0.34538900  0.71553300  1
  O  O0  1  0.33603800  0.18783000  0.59409300  1
  O  O1  1  0.51496100  0.02558200  0.33603200  1
  O  O2  1  0.65687300  0.31842600  0.10098200  1
  O  O3  1  0.00303800  0.00416100  0.31756500  1
  O  O4  1  0.01917700  0.00876700  0.80451100  1
  O  O5  1  0.84802100  0.17491700  0.59675800  1
  O  O6  1  0.51015600  0.47144100  0.33983200  1
  O  O7  1  0.96183300  0.46884100  0.33924800  1
  O  O8  1  0.15356700  0.30927700  0.10225100  1
  O  O9  1  0.85669500  0.67834500  0.59947900  1
  O  O10  1  0.03359400  0.50828600  0.84648500  1
  O  O11  1  0.48050100  0.52157400  0.84590100  1
  O  O12  1  0.31930100  0.66513800  0.60834700  1
  O  O13  1  0.17009100  0.84703300  0.10043400  1
  O  O14  1  0.46353800  0.96703200  0.83546100  1
  O  O15  1  0.67698900  0.85045500  0.09687900  1
loop_
_geom_bond_atom_site_label_1
_geom_bond_atom_site_label_2
_geom_bond_distance
_geom_bond_site_symmetry_2
Li0 O14 1.974077 1_545
Li0 O11 1.977543 1_555
Li0 O10 1.992695 1_655
Li0 O2 2.117746 1_556
Li1 O4 1.788584 1_665
Li1 O13 1.948049 1_656
Li1 O15 1.959393 1_556
Li1 O8 2.137237 1_666
Li2 O3 1.819352 1_665
Li2 O9 1.882090 1_555
Li2 O5 1.975596 1_565
Li2 O0 1.992713 1_665
Li3 O7 1.990247 1_455
Li3 O12 1.992325 1_555
Li3 O6 2.016836 1_555
Li3 O1 2.089312 1_565
Fe0 O9 1.911947 1_555
Fe0 O5 2.019222 1_555
Fe0 O0 2.028828 1_555
Fe0 O7 2.212544 1_555
Fe0 O6 2.226837 1_555
Fe0 O1 2.349897 1_555
Fe1 O14 1.965232 1_555
Fe1 O10 2.048151 1_555
Fe1 O11 2.055864 1_555
Fe1 O15 2.079595 1_556
Fe1 O13 2.081309 1_556
Fe1 O8 2.464097 1_556
Ni0 O3 2.047168 1_665
Ni0 O2 2.077323 1_555
Ni0 O7 2.093086 1_555
Ni0 O6 2.097328 1_555
Ni0 O13 2.140450 1_655
Ni0 O15 2.156620 1_555
Ni1 O4 1.926627 1_565
Ni1 O14 1.926776 1_555
Ni1 O12 1.935618 1_555
Ni1 O9 1.955837 1_455
Ni1 O10 2.189089 1_555
Ni1 O0 2.233281 1_565
Ni2 O4 2.045342 1_665
Ni2 O12 2.055472 1_555
Ni2 O14 2.102466 1_555
Ni2 O9 2.144284 1_555
Ni2 O5 2.146081 1_565
Ni2 O11 2.146301 1_555
O0 Sb2 2.035901 1_555
O1 Sb0 2.052427 1_555
O1 Sb1 2.056573 1_555
O2 Sb1 2.040903 1_555
O2 Sb0 2.042854 1_555
O3 Sb1 2.028070 1_455
O3 Sb0 2.029812 1_555
O4 Sb2 2.003355 1_555
O5 Sb2 2.043457 1_655
O6 Sb0 1.976131 1_555
O7 Sb1 1.969946 1_555
O8 Sb0 2.040056 1_555
O8 Sb1 2.041458 1_455
O10 Sb2 2.028875 1_555
O11 Sb2 2.022540 1_555
O12 Sb2 2.014353 1_555
O13 Sb0 1.995696 1_565
O15 Sb1 1.992154 1_565
