# generated using pymatgen
data_Fe4OF7
_symmetry_space_group_name_H-M   'P 1'
_cell_length_a   5.79066474
_cell_length_b   10.33727509
_cell_length_c   5.80279457
_cell_angle_alpha   82.20416600
_cell_angle_beta   63.40686972
_cell_angle_gamma   99.93352710
_symmetry_Int_Tables_number   1
_chemical_formula_structural   Fe4OF7
_chemical_formula_sum   'Fe8 O2 F14'
_cell_volume   296.88079792
_cell_formula_units_Z   2
loop_
 _symmetry_equiv_pos_site_id
 _symmetry_equiv_pos_as_xyz
  1  'x, y, z'
loop_
 _atom_site_type_symbol
 _atom_site_label
 _atom_site_symmetry_multiplicity
 _atom_site_fract_x
 _atom_site_fract_y
 _atom_site_fract_z
 _atom_site_occupancy
  Fe  Fe0  1  0.61528500  0.24483900  0.87268900  1
  Fe  Fe1  1  0.87989800  0.75510200  0.62757100  1
  Fe  Fe2  1  0.25873100  0.49563800  0.73149700  1
  Fe  Fe3  1  0.72961500  0.49639100  0.26363500  1
  Fe  Fe4  1  0.52311800  0.99695800  0.46797600  1
  Fe  Fe5  1  0.39070700  0.75864700  0.12674500  1
  Fe  Fe6  1  0.14829400  0.26432800  0.38518500  1
  Fe  Fe7  1  0.96363200  0.99585600  0.02801200  1
  O  O0  1  0.35306400  0.39865900  0.45525600  1
  O  O1  1  0.59290700  0.89468700  0.19916600  1
  F  F0  1  0.84196700  0.39645800  0.94810900  1
  F  F1  1  0.91889600  0.14700900  0.78257800  1
  F  F2  1  0.57303500  0.85131700  0.72042300  1
  F  F3  1  0.32438400  0.35091900  0.97372100  1
  F  F4  1  0.82311800  0.35104400  0.47604700  1
  F  F5  1  0.92040900  0.11297600  0.30581800  1
  F  F6  1  0.66063000  0.60845300  0.55293700  1
  F  F7  1  0.39179700  0.09465900  0.79809200  1
  F  F8  1  0.10001700  0.90179800  0.69907000  1
  F  F9  1  0.67883600  0.64673200  0.02189100  1
  F  F10  1  0.16693500  0.64682600  0.52755900  1
  F  F11  1  0.43059900  0.14812900  0.27372100  1
  F  F12  1  0.07035200  0.84922700  0.22437400  1
  F  F13  1  0.14594600  0.59643600  0.04536200  1
loop_
_geom_bond_atom_site_label_1
_geom_bond_atom_site_label_2
_geom_bond_distance
_geom_bond_site_symmetry_2
Fe2 O0 1.927133 1_555
Fe3 O0 1.943212 1_555
Fe4 O1 1.935078 1_555
Fe5 O1 1.886254 1_555
Fe6 O0 1.875194 1_555
Fe7 O1 1.929611 1_555
F0 Fe0 2.088464 1_555
F0 Fe3 2.126326 1_556
F0 Fe2 2.129826 1_655
F1 Fe0 2.078678 1_555
F1 Fe7 2.098371 1_546
F1 Fe6 2.120364 1_655
F2 Fe1 2.082069 1_555
F2 Fe5 2.097902 1_556
F2 Fe4 2.104052 1_555
F3 Fe0 2.076367 1_555
F3 Fe2 2.112436 1_555
F3 Fe6 2.113617 1_556
F4 Fe0 2.080833 1_555
F4 Fe3 2.108476 1_555
F4 Fe6 2.109237 1_655
F5 Fe7 2.097603 1_545
F5 Fe4 2.102434 1_545
F5 Fe6 2.104428 1_655
F6 Fe1 2.025877 1_555
F6 Fe3 2.099181 1_555
F6 Fe2 2.103963 1_555
F7 Fe0 2.064700 1_555
F7 Fe4 2.180238 1_545
F7 Fe7 2.183001 1_446
F8 Fe1 2.018339 1_455
F8 Fe7 2.152048 1_456
F8 Fe4 2.153537 1_555
F9 Fe1 2.077414 1_554
F9 Fe3 2.098830 1_555
F9 Fe5 2.107225 1_555
F10 Fe1 2.075267 1_455
F10 Fe2 2.115100 1_555
F10 Fe5 2.116690 1_555
F11 Fe0 2.080965 1_554
F11 Fe4 2.085983 1_545
F11 Fe6 2.115451 1_555
F12 Fe1 2.083049 1_455
F12 Fe5 2.107430 1_555
F12 Fe7 2.112530 1_455
F13 Fe2 2.124626 1_554
F13 Fe3 2.129910 1_455
F13 Fe5 2.244480 1_555
