# generated using pymatgen
data_Li12VCo3P4(CO7)4
_symmetry_space_group_name_H-M   'P 1'
_cell_length_a   6.51585600
_cell_length_b   8.44785700
_cell_length_c   9.99893139
_cell_angle_alpha   84.72730685
_cell_angle_beta   90.00000000
_cell_angle_gamma   90.00000000
_symmetry_Int_Tables_number   1
_chemical_formula_structural   Li12VCo3P4(CO7)4
_chemical_formula_sum   'Li12 V1 Co3 P4 C4 O28'
_cell_volume   548.06245434
_cell_formula_units_Z   1
loop_
 _symmetry_equiv_pos_site_id
 _symmetry_equiv_pos_as_xyz
  1  'x, y, z'
loop_
 _atom_site_type_symbol
 _atom_site_label
 _atom_site_symmetry_multiplicity
 _atom_site_fract_x
 _atom_site_fract_y
 _atom_site_fract_z
 _atom_site_occupancy
  Li  Li0  1  0.00000000  0.90269900  0.61504400  1
  Li  Li1  1  0.00000000  0.90048500  0.11563100  1
  Li  Li2  1  0.22928400  0.72369700  0.87398400  1
  Li  Li3  1  0.77071600  0.72369700  0.87398400  1
  Li  Li4  1  0.23123500  0.72307900  0.37448500  1
  Li  Li5  1  0.76876500  0.72307900  0.37448500  1
  Li  Li6  1  0.72637100  0.27790500  0.62780400  1
  Li  Li7  1  0.27362900  0.27790500  0.62780400  1
  Li  Li8  1  0.72717900  0.27710600  0.12410000  1
  Li  Li9  1  0.27282100  0.27710600  0.12410000  1
  Li  Li10  1  0.50000000  0.09841400  0.88421400  1
  Li  Li11  1  0.50000000  0.09970700  0.38424100  1
  V  V0  1  0.00000000  0.32882100  0.39605800  1
  Co  Co0  1  0.50000000  0.66828500  0.60516800  1
  Co  Co1  1  0.50000000  0.66846400  0.10607900  1
  Co  Co2  1  0.00000000  0.33175200  0.89455000  1
  P  P0  1  0.00000000  0.58869800  0.63927900  1
  P  P1  1  0.00000000  0.58757700  0.13891600  1
  P  P2  1  0.50000000  0.41313500  0.86137800  1
  P  P3  1  0.50000000  0.41216600  0.36101600  1
  C  C0  1  0.50000000  0.96311000  0.65074000  1
  C  C1  1  0.50000000  0.96303800  0.15044900  1
  C  C2  1  0.00000000  0.03757300  0.84921800  1
  C  C3  1  0.00000000  0.03431000  0.34779800  1
  O  O0  1  0.50000000  0.92776300  0.52743500  1
  O  O1  1  0.00000000  0.89152500  0.81842100  1
  O  O2  1  0.50000000  0.92787500  0.02734900  1
  O  O3  1  0.50000000  0.84595900  0.74539700  1
  O  O4  1  0.00000000  0.88828200  0.31979600  1
  O  O5  1  0.50000000  0.84578200  0.24517200  1
  O  O6  1  0.18654200  0.69266000  0.58728200  1
  O  O7  1  0.81345800  0.69266000  0.58728200  1
  O  O8  1  0.18702400  0.69112900  0.08748000  1
  O  O9  1  0.81297600  0.69112900  0.08748000  1
  O  O10  1  0.50000000  0.57934600  0.91357200  1
  O  O11  1  0.00000000  0.56669000  0.79614600  1
  O  O12  1  0.50000000  0.57892700  0.41292200  1
  O  O13  1  0.00000000  0.56900900  0.29562700  1
  O  O14  1  0.50000000  0.43401800  0.70419000  1
  O  O15  1  0.00000000  0.42181500  0.58809800  1
  O  O16  1  0.50000000  0.43439200  0.20385500  1
  O  O17  1  0.00000000  0.42122200  0.08604800  1
  O  O18  1  0.31363000  0.30847000  0.91250800  1
  O  O19  1  0.68637000  0.30847000  0.91250800  1
  O  O20  1  0.68313800  0.30647300  0.41431500  1
  O  O21  1  0.31686200  0.30647300  0.41431500  1
  O  O22  1  0.00000000  0.15485900  0.75432200  1
  O  O23  1  0.50000000  0.10901800  0.68160100  1
  O  O24  1  0.00000000  0.14976600  0.25179100  1
  O  O25  1  0.00000000  0.07281700  0.97221100  1
  O  O26  1  0.50000000  0.10907800  0.18132500  1
  O  O27  1  0.00000000  0.07258200  0.47102800  1
loop_
_geom_bond_atom_site_label_1
_geom_bond_atom_site_label_2
_geom_bond_distance
_geom_bond_site_symmetry_2
Li0 O27 1.937379 1_565
Li0 O1 2.027059 1_555
Li0 O6 2.189383 1_555
Li0 O7 2.189383 1_455
Li1 O25 1.947367 1_564
Li1 O4 2.034550 1_555
Li1 O9 2.187178 1_455
Li1 O8 2.187178 1_555
Li2 O1 2.099045 1_555
Li2 O8 2.144913 1_556
Li2 O10 2.160220 1_555
Li2 O11 2.187858 1_555
Li2 O3 2.363753 1_555
Li3 O1 2.099045 1_655
Li3 O9 2.144913 1_556
Li3 O10 2.160220 1_555
Li3 O11 2.187858 1_655
Li3 O3 2.363753 1_555
Li4 O4 2.092037 1_555
Li4 O6 2.139541 1_555
Li4 O12 2.147437 1_555
Li4 O13 2.185071 1_555
Li4 O5 2.359408 1_555
Li5 O4 2.092037 1_655
Li5 O7 2.139541 1_555
Li5 O12 2.147437 1_555
Li5 O13 2.185071 1_655
Li5 O5 2.359408 1_555
Li6 O23 2.087940 1_555
Li6 O20 2.144690 1_555
Li6 O14 2.164117 1_555
Li6 O15 2.173878 1_655
Li6 O22 2.370230 1_655
Li7 O23 2.087940 1_555
Li7 O21 2.144690 1_555
Li7 O14 2.164117 1_555
Li7 O15 2.173878 1_555
Li7 O22 2.370230 1_555
Li8 O26 2.093854 1_555
Li8 O19 2.124627 1_554
Li8 O17 2.168398 1_655
Li8 O16 2.188015 1_555
Li8 O24 2.386427 1_655
Li9 O26 2.093854 1_555
Li9 O18 2.124627 1_554
Li9 O17 2.168398 1_555
Li9 O16 2.188015 1_555
Li9 O24 2.386427 1_555
Li10 O2 1.935187 1_546
Li10 O23 2.019652 1_555
Li10 O18 2.189957 1_555
Li10 O19 2.189957 1_555
Li11 O0 1.943630 1_545
Li11 O26 2.023205 1_555
Li11 O21 2.159165 1_555
Li11 O20 2.159165 1_555
Co0 O6 2.058934 1_555
Co0 O7 2.058934 1_555
Co0 O12 2.128758 1_555
Co0 O14 2.129987 1_555
Co0 O3 2.146088 1_555
Co0 O0 2.257429 1_555
Co1 O8 2.055109 1_555
Co1 O9 2.055109 1_555
Co1 O16 2.123826 1_555
Co1 O10 2.130314 1_554
Co1 O5 2.135661 1_555
Co1 O2 2.259462 1_555
Co2 O19 2.059273 1_455
Co2 O18 2.059273 1_555
Co2 O17 2.122177 1_556
Co2 O11 2.132683 1_555
Co2 O22 2.141074 1_555
Co2 O25 2.252936 1_555
C0 O0 1.294959 1_555
C0 O23 1.297865 1_565
C0 O3 1.305030 1_555
C1 O2 1.292469 1_555
C1 O26 1.298997 1_565
C1 O5 1.306076 1_555
C2 O25 1.291645 1_555
C2 O1 1.298806 1_545
C2 O22 1.307385 1_555
C3 O4 1.289846 1_545
C3 O27 1.302302 1_555
C3 O24 1.304136 1_555
O6 P0 1.560486 1_555
O7 P0 1.560486 1_655
O8 P1 1.559526 1_555
O9 P1 1.559526 1_655
O10 P2 1.542276 1_555
O11 P0 1.562424 1_555
O12 P3 1.545441 1_555
O13 P1 1.560365 1_555
O13 V0 2.179695 1_555
O14 P2 1.565388 1_555
O15 P0 1.543386 1_555
O15 V0 2.140459 1_555
O16 P3 1.565393 1_555
O17 P1 1.546277 1_555
O18 P2 1.560372 1_555
O19 P2 1.560372 1_555
O20 P3 1.554915 1_555
O20 V0 2.079740 1_655
O21 P3 1.554915 1_555
O21 V0 2.079740 1_555
O24 V0 2.184019 1_555
O27 V0 2.224745 1_555
