# generated using pymatgen
data_Li2AlFeO4
_symmetry_space_group_name_H-M   'P 1'
_cell_length_a   5.04583400
_cell_length_b   6.40400200
_cell_length_c   10.92380300
_cell_angle_alpha   90.00000000
_cell_angle_beta   90.00000000
_cell_angle_gamma   90.00000000
_symmetry_Int_Tables_number   1
_chemical_formula_structural   Li2AlFeO4
_chemical_formula_sum   'Li8 Al4 Fe4 O16'
_cell_volume   352.98664718
_cell_formula_units_Z   4
loop_
 _symmetry_equiv_pos_site_id
 _symmetry_equiv_pos_as_xyz
  1  'x, y, z'
loop_
 _atom_site_type_symbol
 _atom_site_label
 _atom_site_symmetry_multiplicity
 _atom_site_fract_x
 _atom_site_fract_y
 _atom_site_fract_z
 _atom_site_occupancy
  Li  Li0  1  0.75566200  0.00400700  0.16734400  1
  Li  Li1  1  0.75618400  0.24719500  0.91470000  1
  Li  Li2  1  0.75618400  0.25280500  0.41470000  1
  Li  Li3  1  0.75566200  0.49599300  0.66734400  1
  Li  Li4  1  0.25566200  0.50400700  0.33265600  1
  Li  Li5  1  0.25618400  0.74719500  0.58530000  1
  Li  Li6  1  0.25618400  0.75280500  0.08530000  1
  Li  Li7  1  0.25566200  0.99599300  0.83265600  1
  Al  Al0  1  0.26202200  0.00667000  0.33276000  1
  Al  Al1  1  0.26202200  0.49333000  0.83276000  1
  Al  Al2  1  0.76202200  0.50667000  0.16724000  1
  Al  Al3  1  0.76202200  0.99333000  0.66724000  1
  Fe  Fe0  1  0.25966800  0.24352100  0.58452500  1
  Fe  Fe1  1  0.25966800  0.25647900  0.08452500  1
  Fe  Fe2  1  0.75966800  0.74352100  0.91547500  1
  Fe  Fe3  1  0.75966800  0.75647900  0.41547500  1
  O  O0  1  0.11595000  0.00498600  0.66371500  1
  O  O1  1  0.15645500  0.01562700  0.17620400  1
  O  O2  1  0.15899100  0.26491000  0.91589300  1
  O  O3  1  0.63819400  0.22360200  0.59347000  1
  O  O4  1  0.63819400  0.27639800  0.09347000  1
  O  O5  1  0.15899100  0.23509000  0.41589300  1
  O  O6  1  0.15645500  0.48437300  0.67620400  1
  O  O7  1  0.11595000  0.49501400  0.16371500  1
  O  O8  1  0.61595000  0.50498600  0.83628500  1
  O  O9  1  0.65645500  0.51562700  0.32379600  1
  O  O10  1  0.65899100  0.76491000  0.58410700  1
  O  O11  1  0.13819400  0.72360200  0.90653000  1
  O  O12  1  0.13819400  0.77639800  0.40653000  1
  O  O13  1  0.65899100  0.73509000  0.08410700  1
  O  O14  1  0.65645500  0.98437300  0.82379600  1
  O  O15  1  0.61595000  0.99501400  0.33628500  1
loop_
_geom_bond_atom_site_label_1
_geom_bond_atom_site_label_2
_geom_bond_distance
_geom_bond_site_symmetry_2
Li0 O15 1.976381 1_545
Li0 O13 2.007606 1_545
Li0 O4 2.011331 1_555
Li0 O1 2.026017 1_655
Li1 O8 1.989948 1_555
Li1 O14 2.017964 1_545
Li1 O2 2.035703 1_655
Li1 O4 2.050132 1_556
Li2 O15 1.989948 1_545
Li2 O9 2.017964 1_555
Li2 O5 2.035703 1_655
Li2 O3 2.050132 1_555
Li3 O8 1.976381 1_555
Li3 O10 2.007606 1_555
Li3 O3 2.011331 1_555
Li3 O6 2.026017 1_655
Li4 O7 1.976381 1_555
Li4 O5 2.007606 1_555
Li4 O12 2.011331 1_555
Li4 O9 2.026017 1_555
Li5 O0 1.989948 1_565
Li5 O6 2.017964 1_555
Li5 O10 2.035703 1_555
Li5 O12 2.050132 1_555
Li6 O7 1.989948 1_555
Li6 O1 2.017964 1_565
Li6 O13 2.035703 1_555
Li6 O11 2.050132 1_554
Li7 O0 1.976381 1_565
Li7 O2 2.007606 1_565
Li7 O11 2.011331 1_555
Li7 O14 2.026017 1_555
Al0 O15 1.787836 1_545
Al0 O1 1.792141 1_555
Al0 O12 1.792879 1_545
Al0 O5 1.798544 1_555
Al1 O8 1.787836 1_555
Al1 O6 1.792141 1_555
Al1 O11 1.792879 1_555
Al1 O2 1.798544 1_555
Al2 O7 1.787836 1_655
Al2 O9 1.792141 1_555
Al2 O4 1.792879 1_555
Al2 O13 1.798544 1_555
Al3 O0 1.787836 1_665
Al3 O14 1.792141 1_555
Al3 O3 1.792879 1_565
Al3 O10 1.798544 1_555
Fe0 O0 1.899395 1_555
Fe0 O6 1.911347 1_555
Fe0 O5 1.911628 1_555
Fe0 O3 1.916727 1_555
Fe1 O7 1.899395 1_555
Fe1 O1 1.911347 1_555
Fe1 O2 1.911628 1_554
Fe1 O4 1.916727 1_555
Fe2 O8 1.899395 1_555
Fe2 O14 1.911347 1_555
Fe2 O13 1.911628 1_556
Fe2 O11 1.916727 1_655
Fe3 O15 1.899395 1_555
Fe3 O9 1.911347 1_555
Fe3 O10 1.911628 1_555
Fe3 O12 1.916727 1_655
