# generated using pymatgen
data_Li3Ti6O13
_symmetry_space_group_name_H-M   'P 1'
_cell_length_a   6.33971566
_cell_length_b   6.33971566
_cell_length_c   10.51469228
_cell_angle_alpha   79.81631376
_cell_angle_beta   79.81631376
_cell_angle_gamma   36.54374928
_symmetry_Int_Tables_number   1
_chemical_formula_structural   Li3Ti6O13
_chemical_formula_sum   'Li3 Ti6 O13'
_cell_volume   247.23500159
_cell_formula_units_Z   1
loop_
 _symmetry_equiv_pos_site_id
 _symmetry_equiv_pos_as_xyz
  1  'x, y, z'
loop_
 _atom_site_type_symbol
 _atom_site_label
 _atom_site_symmetry_multiplicity
 _atom_site_fract_x
 _atom_site_fract_y
 _atom_site_fract_z
 _atom_site_occupancy
  Li  Li0  1  0.93072200  0.93072200  0.41325200  1
  Li  Li1  1  0.00000000  0.00000000  0.00000000  1
  Li  Li2  1  0.06927800  0.06927800  0.58674800  1
  Ti  Ti0  1  0.71787000  0.71787000  0.64084300  1
  Ti  Ti1  1  0.59828800  0.59828800  0.36030400  1
  Ti  Ti2  1  0.65800500  0.65800500  0.00139900  1
  Ti  Ti3  1  0.34199500  0.34199500  0.99860100  1
  Ti  Ti4  1  0.40171200  0.40171200  0.63969600  1
  Ti  Ti5  1  0.28213000  0.28213000  0.35915700  1
  O  O0  1  0.89330600  0.89330600  0.60682000  1
  O  O1  1  0.82929600  0.82929600  0.00014400  1
  O  O2  1  0.76162000  0.76162000  0.39954300  1
  O  O3  1  0.68355900  0.68355900  0.80796000  1
  O  O4  1  0.56754200  0.56754200  0.59272300  1
  O  O5  1  0.62175700  0.62175700  0.19184900  1
  O  O6  1  0.37824300  0.37824300  0.80815100  1
  O  O7  1  0.50000000  0.50000000  0.00000000  1
  O  O8  1  0.43245800  0.43245800  0.40727700  1
  O  O9  1  0.31644100  0.31644100  0.19204000  1
  O  O10  1  0.23838000  0.23838000  0.60045700  1
  O  O11  1  0.17070400  0.17070400  0.99985600  1
  O  O12  1  0.10669400  0.10669400  0.39318000  1
loop_
_geom_bond_atom_site_label_1
_geom_bond_atom_site_label_2
_geom_bond_distance
_geom_bond_site_symmetry_2
Li0 O8 1.988648 1_565
Li0 O8 1.988648 1_655
Li0 O0 2.000996 1_555
Li0 O2 2.067705 1_555
Li0 O12 2.089743 1_665
Li1 O7 1.987668 1_455
Li1 O7 1.987668 1_545
Li1 O11 2.055017 1_554
Li1 O1 2.055017 1_445
Li2 O4 1.988648 1_455
Li2 O4 1.988648 1_545
Li2 O12 2.000996 1_555
Li2 O10 2.067705 1_555
Li2 O0 2.089743 1_445
O0 Ti4 2.023262 1_655
O0 Ti4 2.023262 1_565
O0 Ti0 2.075640 1_555
O1 Ti3 1.993374 1_564
O1 Ti3 1.993374 1_654
O1 Ti2 2.059949 1_555
O2 Ti5 2.037911 1_565
O2 Ti5 2.037911 1_655
O2 Ti1 2.083180 1_555
O2 Ti0 2.493420 1_555
O3 Ti0 1.728594 1_555
O3 Ti2 1.999646 1_556
O4 Ti4 1.965500 1_555
O4 Ti0 1.967997 1_555
O4 Ti1 2.402578 1_555
O5 Ti1 1.740920 1_555
O5 Ti2 1.968533 1_555
O6 Ti4 1.740920 1_555
O6 Ti3 1.968533 1_555
O7 Ti2 1.905194 1_555
O7 Ti3 1.905194 1_554
O8 Ti1 1.965500 1_555
O8 Ti5 1.967997 1_555
O8 Ti4 2.402578 1_555
O9 Ti5 1.728594 1_555
O9 Ti3 1.999646 1_554
O10 Ti0 2.037911 1_455
O10 Ti0 2.037911 1_545
O10 Ti4 2.083180 1_555
O10 Ti5 2.493420 1_555
O11 Ti2 1.993374 1_546
O11 Ti2 1.993374 1_456
O11 Ti3 2.059949 1_555
O12 Ti1 2.023262 1_455
O12 Ti1 2.023262 1_545
O12 Ti5 2.075640 1_555
