# generated using pymatgen
data_Li4V2Ni3Sb3O16
_symmetry_space_group_name_H-M   'P 1'
_cell_length_a   6.08720130
_cell_length_b   6.08720130
_cell_length_c   9.73503592
_cell_angle_alpha   88.69803334
_cell_angle_beta   88.69803334
_cell_angle_gamma   60.16886919
_symmetry_Int_Tables_number   1
_chemical_formula_structural   Li4V2Ni3Sb3O16
_chemical_formula_sum   'Li4 V2 Ni3 Sb3 O16'
_cell_volume   312.81691871
_cell_formula_units_Z   1
loop_
 _symmetry_equiv_pos_site_id
 _symmetry_equiv_pos_as_xyz
  1  'x, y, z'
loop_
 _atom_site_type_symbol
 _atom_site_label
 _atom_site_symmetry_multiplicity
 _atom_site_fract_x
 _atom_site_fract_y
 _atom_site_fract_z
 _atom_site_occupancy
  Li  Li0  1  0.67960500  0.67960500  0.11271200  1
  Li  Li1  1  0.97891600  0.97891600  0.01487000  1
  Li  Li2  1  0.99279100  0.99279100  0.49562700  1
  Li  Li3  1  0.32849100  0.32849100  0.59551600  1
  V  V0  1  0.67805000  0.67805000  0.50171900  1
  V  V1  1  0.36213400  0.36213400  0.03512800  1
  Ni  Ni0  1  0.83110000  0.83110000  0.78427600  1
  Ni  Ni1  1  0.16474200  0.67714600  0.29336200  1
  Ni  Ni2  1  0.67714600  0.16474200  0.29336200  1
  Sb  Sb0  1  0.33495700  0.83601600  0.78622200  1
  Sb  Sb1  1  0.83601600  0.33495700  0.78622200  1
  Sb  Sb2  1  0.17496700  0.17496700  0.28678000  1
  O  O0  1  0.32747300  0.85625400  0.40045900  1
  O  O1  1  0.51600100  0.51600100  0.66502800  1
  O  O2  1  0.66318200  0.66318200  0.89852400  1
  O  O3  1  0.00343300  0.00343300  0.68462000  1
  O  O4  1  0.01055600  0.01055600  0.19306600  1
  O  O5  1  0.85625400  0.32747300  0.40045900  1
  O  O6  1  0.50712300  0.96414800  0.66230100  1
  O  O7  1  0.96414800  0.50712300  0.66230100  1
  O  O8  1  0.15682700  0.15682700  0.89867300  1
  O  O9  1  0.83626700  0.83626700  0.40577700  1
  O  O10  1  0.04885300  0.47887600  0.14816500  1
  O  O11  1  0.47887600  0.04885300  0.14816500  1
  O  O12  1  0.33415000  0.33415000  0.39171700  1
  O  O13  1  0.17297100  0.67860300  0.90187700  1
  O  O14  1  0.49061300  0.49061300  0.14100900  1
  O  O15  1  0.67860300  0.17297100  0.90187700  1
loop_
_geom_bond_atom_site_label_1
_geom_bond_atom_site_label_2
_geom_bond_distance
_geom_bond_site_symmetry_2
Li0 O10 1.986938 1_655
Li0 O11 1.986938 1_565
Li0 O14 2.002699 1_555
Li0 O2 2.096815 1_554
Li1 O4 1.775049 1_665
Li1 O15 1.957325 1_564
Li1 O13 1.957325 1_654
Li1 O8 2.163510 1_664
Li2 O3 1.846202 1_665
Li2 O9 1.886700 1_555
Li2 O5 1.991039 1_565
Li2 O0 1.991039 1_655
Li3 O12 1.983321 1_555
Li3 O6 2.022662 1_545
Li3 O7 2.022662 1_455
Li3 O1 2.104739 1_555
Ni0 O3 2.035791 1_665
Ni0 O2 2.064636 1_555
Ni0 O7 2.104477 1_555
Ni0 O6 2.104477 1_555
Ni0 O13 2.154335 1_655
Ni0 O15 2.154335 1_565
Ni1 O4 2.002428 1_565
Ni1 O12 2.037504 1_555
Ni1 O9 2.038556 1_455
Ni1 O0 2.104753 1_555
Ni1 O10 2.218590 1_555
Ni1 O14 2.264039 1_555
Ni2 O4 2.002428 1_655
Ni2 O12 2.037504 1_555
Ni2 O9 2.038556 1_545
Ni2 O5 2.104753 1_555
Ni2 O11 2.218590 1_555
Ni2 O14 2.264039 1_555
O0 Sb2 2.001919 1_565
O0 V0 2.108663 1_555
O1 Sb1 2.076230 1_555
O1 Sb0 2.076230 1_555
O1 V0 2.301982 1_555
O2 Sb0 2.061479 1_555
O2 Sb1 2.061479 1_555
O3 Sb0 2.021938 1_545
O3 Sb1 2.021938 1_455
O4 Sb2 1.978634 1_555
O5 Sb2 2.001919 1_655
O5 V0 2.108663 1_555
O6 Sb0 1.968510 1_555
O6 V0 2.192348 1_555
O7 Sb1 1.968510 1_555
O7 V0 2.192348 1_555
O8 Sb1 2.030827 1_455
O8 Sb0 2.030827 1_545
O8 V1 2.567708 1_556
O9 V0 1.889057 1_555
O10 V1 1.986078 1_555
O10 Sb2 2.086461 1_555
O11 V1 1.986078 1_555
O11 Sb2 2.086461 1_555
O12 Sb2 1.986335 1_555
O13 Sb0 1.999655 1_555
O13 V1 2.113558 1_556
O14 V1 1.722653 1_555
O15 Sb1 1.999655 1_555
O15 V1 2.113558 1_556
