# generated using pymatgen
data_FeOF
_symmetry_space_group_name_H-M   'P 1'
_cell_length_a   3.09798400
_cell_length_b   7.85505896
_cell_length_c   7.75715579
_cell_angle_alpha   119.26616803
_cell_angle_beta   90.00000718
_cell_angle_gamma   89.99987721
_symmetry_Int_Tables_number   1
_chemical_formula_structural   FeOF
_chemical_formula_sum   'Fe4 O4 F4'
_cell_volume   164.67433814
_cell_formula_units_Z   4
loop_
 _symmetry_equiv_pos_site_id
 _symmetry_equiv_pos_as_xyz
  1  'x, y, z'
loop_
 _atom_site_type_symbol
 _atom_site_label
 _atom_site_symmetry_multiplicity
 _atom_site_fract_x
 _atom_site_fract_y
 _atom_site_fract_z
 _atom_site_occupancy
  Fe  Fe0  1  0.75000000  0.13660200  0.44381700  1
  Fe  Fe1  1  0.25000100  0.86339800  0.55618200  1
  Fe  Fe2  1  0.74999900  0.13660000  0.94381500  1
  Fe  Fe3  1  0.25000100  0.86340000  0.05618500  1
  O  O0  1  0.25000000  0.92954400  0.83883700  1
  O  O1  1  0.25000000  0.92954800  0.33884000  1
  O  O2  1  0.75000000  0.07045700  0.16116300  1
  O  O3  1  0.75000000  0.07045200  0.66115900  1
  F  F0  1  0.24999800  0.31809600  0.53418700  1
  F  F1  1  0.24999800  0.31808800  0.03418200  1
  F  F2  1  0.75000200  0.68190300  0.46581400  1
  F  F3  1  0.75000200  0.68191100  0.96581900  1
loop_
_geom_bond_atom_site_label_1
_geom_bond_atom_site_label_2
_geom_bond_distance
_geom_bond_site_symmetry_2
Fe0 O2 1.990871 1_555
Fe0 O3 1.992230 1_555
Fe0 O1 2.100664 1_645
Fe0 O1 2.100669 1_545
Fe1 O0 1.990876 1_555
Fe1 O1 1.992230 1_555
Fe1 O3 2.100667 1_465
Fe1 O3 2.100667 1_565
Fe2 O3 1.990879 1_555
Fe2 O2 1.992239 1_556
Fe2 O0 2.100676 1_645
Fe2 O0 2.100676 1_545
Fe3 O1 1.990872 1_555
Fe3 O0 1.992244 1_554
Fe3 O2 2.100680 1_465
Fe3 O2 2.100681 1_565
F0 Fe0 1.986481 1_455
F0 Fe0 1.986486 1_555
F1 Fe2 1.986458 1_454
F1 Fe2 1.986458 1_554
F2 Fe1 1.986488 1_655
F2 Fe1 1.986488 1_555
F3 Fe3 1.986462 1_656
F3 Fe3 1.986462 1_556
