# generated using pymatgen
data_V2P4H3O16
_symmetry_space_group_name_H-M   'P 1'
_cell_length_a   4.96323500
_cell_length_b   7.32629401
_cell_length_c   8.00243824
_cell_angle_alpha   90.81515438
_cell_angle_beta   91.71557741
_cell_angle_gamma   102.25856305
_symmetry_Int_Tables_number   1
_chemical_formula_structural   V2P4H3O16
_chemical_formula_sum   'V2 P4 H3 O16'
_cell_volume   284.16038725
_cell_formula_units_Z   1
loop_
 _symmetry_equiv_pos_site_id
 _symmetry_equiv_pos_as_xyz
  1  'x, y, z'
loop_
 _atom_site_type_symbol
 _atom_site_label
 _atom_site_symmetry_multiplicity
 _atom_site_fract_x
 _atom_site_fract_y
 _atom_site_fract_z
 _atom_site_occupancy
  V  V0  1  0.00056200  0.49727200  0.00398000  1
  V  V1  1  0.49919700  0.00179900  0.49919000  1
  P  P0  1  0.09790100  0.24699600  0.66895400  1
  P  P1  1  0.39862000  0.23652200  0.15110000  1
  P  P2  1  0.59838400  0.75349600  0.84490700  1
  P  P3  1  0.90115600  0.75527500  0.33091000  1
  H  H0  1  0.42039000  0.43156900  0.56811600  1
  H  H1  1  0.57845800  0.56954300  0.43185900  1
  H  H2  1  0.93665400  0.96951200  0.98227600  1
  O  O0  1  0.16584900  0.84790200  0.42933600  1
  O  O1  1  0.02064000  0.30678300  0.84235800  1
  O  O2  1  0.21912500  0.39317600  0.15349400  1
  O  O3  1  0.22491200  0.43320100  0.57439200  1
  O  O4  1  0.32212600  0.65810100  0.92131200  1
  O  O5  1  0.54907400  0.81044500  0.66434100  1
  O  O6  1  0.25835100  0.07350500  0.04489200  1
  O  O7  1  0.30916700  0.12323600  0.67323500  1
  O  O8  1  0.68992900  0.87906500  0.32606100  1
  O  O9  1  0.73169300  0.92757400  0.95450300  1
  O  O10  1  0.45183600  0.19324800  0.33642100  1
  O  O11  1  0.68228900  0.34691400  0.08268600  1
  O  O12  1  0.77410000  0.56884000  0.42510000  1
  O  O13  1  0.78645700  0.60837200  0.84256300  1
  O  O14  1  0.97833200  0.69580400  0.15747900  1
  O  O15  1  0.83368000  0.15375200  0.57063600  1
loop_
_geom_bond_atom_site_label_1
_geom_bond_atom_site_label_2
_geom_bond_distance
_geom_bond_site_symmetry_2
H0 O3 0.975595 1_555
H1 O12 0.975237 1_555
H2 O9 1.015101 1_555
H2 O6 1.674971 1_666
O0 P3 1.533315 1_455
O0 V1 1.858922 1_565
O1 P0 1.533096 1_555
O1 V0 1.909396 1_556
O2 P1 1.595558 1_555
O2 V0 1.868014 1_555
O3 P0 1.588646 1_555
O4 P2 1.548459 1_555
O4 V0 1.913121 1_556
O5 P2 1.536635 1_555
O5 V1 1.988418 1_565
O6 P1 1.488635 1_555
O7 P0 1.524869 1_555
O7 V1 2.005160 1_555
O8 P3 1.524928 1_555
O8 V1 2.007164 1_565
O9 P2 1.551958 1_555
O10 P1 1.547613 1_555
O10 V1 1.973035 1_555
O11 P1 1.584701 1_555
O11 V0 1.856305 1_655
O12 P3 1.588527 1_555
O13 P2 1.556936 1_555
O13 V0 1.943023 1_656
O14 P3 1.532397 1_555
O14 V0 1.913652 1_655
O15 P0 1.532303 1_655
O15 V1 1.860770 1_555
