# generated using pymatgen
data_Li3Co3OF7
_symmetry_space_group_name_H-M   'P 1'
_cell_length_a   6.06955524
_cell_length_b   6.07247105
_cell_length_c   10.53379645
_cell_angle_alpha   73.31468314
_cell_angle_beta   89.85157122
_cell_angle_gamma   119.82766694
_symmetry_Int_Tables_number   1
_chemical_formula_structural   Li3Co3OF7
_chemical_formula_sum   'Li6 Co6 O2 F14'
_cell_volume   317.65531790
_cell_formula_units_Z   2
loop_
 _symmetry_equiv_pos_site_id
 _symmetry_equiv_pos_as_xyz
  1  'x, y, z'
loop_
 _atom_site_type_symbol
 _atom_site_label
 _atom_site_symmetry_multiplicity
 _atom_site_fract_x
 _atom_site_fract_y
 _atom_site_fract_z
 _atom_site_occupancy
  Li  Li0  1  0.50225400  0.99872100  0.49914000  1
  Li  Li1  1  0.00232700  0.99850700  0.99929900  1
  Li  Li2  1  0.61606500  0.25589100  0.12810000  1
  Li  Li3  1  0.11608300  0.25577800  0.62800300  1
  Li  Li4  1  0.06180900  0.62555100  0.31265200  1
  Li  Li5  1  0.56168000  0.62526700  0.81278000  1
  Co  Co0  1  0.31920800  0.61144000  0.06850200  1
  Co  Co1  1  0.81992500  0.61302700  0.56885800  1
  Co  Co2  1  0.05612900  0.61187400  0.80658900  1
  Co  Co3  1  0.08114500  0.13739600  0.30601000  1
  Co  Co4  1  0.58224700  0.13729500  0.80560800  1
  Co  Co5  1  0.55681700  0.61306700  0.30592600  1
  O  O0  1  0.42134000  0.38606200  0.19257400  1
  O  O1  1  0.92126400  0.38538600  0.69295000  1
  F  F0  1  0.70601500  0.86292000  0.43115200  1
  F  F1  1  0.20598200  0.86242400  0.93144500  1
  F  F2  1  0.94961700  0.38593600  0.19340500  1
  F  F3  1  0.44976900  0.38592300  0.69318600  1
  F  F4  1  0.42082000  0.85685500  0.19349200  1
  F  F5  1  0.92080600  0.85655600  0.69262400  1
  F  F6  1  0.18612900  0.38528900  0.42842000  1
  F  F7  1  0.68618900  0.38708400  0.92840400  1
  F  F8  1  0.69816900  0.39588200  0.43394800  1
  F  F9  1  0.19912000  0.39586400  0.93360300  1
  F  F10  1  0.93490500  0.86739000  0.19796700  1
  F  F11  1  0.43389900  0.86730700  0.69805100  1
  F  F12  1  0.17009700  0.86762200  0.43369600  1
  F  F13  1  0.67018400  0.86768300  0.93361800  1
loop_
_geom_bond_atom_site_label_1
_geom_bond_atom_site_label_2
_geom_bond_distance
_geom_bond_site_symmetry_2
Li2 O0 1.927806 1_555
Li3 O1 1.927822 1_455
Co0 O0 1.945893 1_555
Co0 F9 2.094887 1_554
Co0 F13 2.096509 1_554
Co0 F2 2.129022 1_455
Co0 F4 2.133395 1_555
Co0 F1 2.159413 1_554
Co1 O1 1.951987 1_555
Co1 F12 2.094314 1_655
Co1 F8 2.101554 1_555
Co1 F5 2.114712 1_555
Co1 F3 2.128391 1_555
Co1 F0 2.160961 1_555
Co2 O1 1.955779 1_455
Co2 F9 2.096342 1_555
Co2 F11 2.097754 1_555
Co2 F7 2.117023 1_455
Co2 F5 2.125634 1_455
Co2 F1 2.156504 1_555
Co3 O0 1.954721 1_555
Co3 F10 2.097727 1_445
Co3 F12 2.098237 1_545
Co3 F2 2.120758 1_455
Co3 F6 2.121166 1_555
Co3 F0 2.155806 1_445
Co4 O1 1.946513 1_555
Co4 F11 2.094216 1_545
Co4 F13 2.094973 1_545
Co4 F3 2.124692 1_555
Co4 F7 2.133285 1_555
Co4 F1 2.163432 1_545
Co5 O0 1.955686 1_555
Co5 F10 2.096892 1_555
Co5 F8 2.098652 1_555
Co5 F4 2.118842 1_555
Co5 F6 2.122387 1_555
Co5 F0 2.156552 1_555
F0 Li0 2.017813 1_555
F1 Li1 2.018021 1_555
F2 Li2 1.980969 1_555
F2 Li4 2.055977 1_655
F3 Li3 1.981037 1_555
F3 Li5 2.057809 1_555
F4 Li2 1.982714 1_565
F4 Li4 2.055567 1_555
F5 Li3 1.983703 1_665
F5 Li5 2.060412 1_555
F6 Li3 1.983058 1_555
F6 Li4 2.064798 1_555
F7 Li2 1.984067 1_556
F7 Li5 2.055972 1_555
F8 Li0 1.973309 1_545
F8 Li4 2.085433 1_655
F9 Li1 1.974243 1_545
F9 Li5 2.078660 1_555
F10 Li1 1.973714 1_654
F10 Li4 2.078633 1_655
F11 Li0 1.976151 1_555
F11 Li5 2.083546 1_555
F12 Li0 1.974636 1_555
F12 Li4 2.082801 1_555
F13 Li1 1.975743 1_655
F13 Li5 2.082506 1_555
