# generated using pymatgen
data_Zr2O
_symmetry_space_group_name_H-M   'P 1'
_cell_length_a   5.65038706
_cell_length_b   5.65023909
_cell_length_c   10.43250800
_cell_angle_alpha   89.99979167
_cell_angle_beta   90.00030392
_cell_angle_gamma   119.99932746
_symmetry_Int_Tables_number   1
_chemical_formula_structural   Zr2O
_chemical_formula_sum   'Zr12 O6'
_cell_volume   288.44786291
_cell_formula_units_Z   6
loop_
 _symmetry_equiv_pos_site_id
 _symmetry_equiv_pos_as_xyz
  1  'x, y, z'
loop_
 _atom_site_type_symbol
 _atom_site_label
 _atom_site_symmetry_multiplicity
 _atom_site_fract_x
 _atom_site_fract_y
 _atom_site_fract_z
 _atom_site_occupancy
  Zr  Zr0  1  0.00084888  0.65806274  0.24614764  1
  Zr  Zr1  1  0.00024791  0.66706397  0.74916139  1
  Zr  Zr2  1  0.00025332  0.33315603  0.00085755  1
  Zr  Zr3  1  0.00082201  0.34285872  0.50386239  1
  Zr  Zr4  1  0.33288413  0.33316137  0.74914445  1
  Zr  Zr5  1  0.34199121  0.34282913  0.24612625  1
  Zr  Zr6  1  0.33290203  0.99971382  0.00083057  1
  Zr  Zr7  1  0.34201050  0.99916691  0.50386214  1
  Zr  Zr8  1  0.66682009  0.66707855  0.00086122  1
  Zr  Zr9  1  0.65716323  0.65799317  0.50389080  1
  Zr  Zr10  1  0.65711777  0.99918203  0.24613692  1
  Zr  Zr11  1  0.66680510  0.99972852  0.74915340  1
  O  O0  1  0.33330937  0.66669267  0.11754061  1
  O  O1  1  0.33329206  0.66667866  0.63249581  1
  O  O2  1  0.33337958  0.66661363  0.37497745  1
  O  O3  1  0.99996583  0.99998257  0.87498643  1
  O  O4  1  0.66664770  0.33333142  0.87498397  1
  O  O5  1  0.66664128  0.33340508  0.37497700  1
loop_
_geom_bond_atom_site_label_1
_geom_bond_atom_site_label_2
_geom_bond_distance
_geom_bond_site_symmetry_2
O0 Zr6 2.242191 1_555
O0 Zr2 2.242417 1_555
O0 Zr8 2.242509 1_555
O0 Zr10 2.289007 1_555
O0 Zr0 2.289067 1_555
O0 Zr5 2.289160 1_555
O1 Zr1 2.242046 1_555
O1 Zr11 2.242202 1_555
O1 Zr4 2.242263 1_555
O1 Zr7 2.289112 1_555
O1 Zr3 2.289215 1_555
O1 Zr9 2.289370 1_555
O2 Zr5 2.290265 1_555
O2 Zr10 2.290539 1_555
O2 Zr9 2.290691 1_555
O2 Zr3 2.290824 1_555
O2 Zr0 2.290913 1_555
O2 Zr7 2.291146 1_555
O3 Zr11 2.294418 1_555
O3 Zr1 2.294460 1_655
O3 Zr4 2.294543 1_665
O3 Zr2 2.294596 1_666
O3 Zr8 2.294630 1_556
O3 Zr6 2.294655 1_656
O4 Zr1 2.297291 1_655
O4 Zr11 2.297376 1_545
O4 Zr4 2.297446 1_555
O4 Zr6 2.297505 1_546
O4 Zr8 2.297558 1_556
O4 Zr2 2.297717 1_656
O5 Zr5 2.296187 1_555
O5 Zr9 2.296389 1_555
O5 Zr0 2.296397 1_655
O5 Zr10 2.296557 1_545
O5 Zr7 2.296750 1_545
O5 Zr3 2.296824 1_655
