# generated using pymatgen
data_Li3Zn2Fe19O32
_symmetry_space_group_name_H-M   'P 1'
_cell_length_a   6.01247400
_cell_length_b   6.01326157
_cell_length_c   19.92504734
_cell_angle_alpha   89.97496946
_cell_angle_beta   98.66276034
_cell_angle_gamma   119.87994122
_symmetry_Int_Tables_number   1
_chemical_formula_structural   Li3Zn2Fe19O32
_chemical_formula_sum   'Li3 Zn2 Fe19 O32'
_cell_volume   615.15365822
_cell_formula_units_Z   1
loop_
 _symmetry_equiv_pos_site_id
 _symmetry_equiv_pos_as_xyz
  1  'x, y, z'
loop_
 _atom_site_type_symbol
 _atom_site_label
 _atom_site_symmetry_multiplicity
 _atom_site_fract_x
 _atom_site_fract_y
 _atom_site_fract_z
 _atom_site_occupancy
  Li  Li0  1  0.12596500  0.56661800  0.68775400  1
  Li  Li1  1  0.62396000  0.80931600  0.43819200  1
  Li  Li2  1  0.12731900  0.06648600  0.18612600  1
  Zn  Zn0  1  0.55682100  0.78060900  0.84225000  1
  Zn  Zn1  1  0.31281900  0.65820100  0.96848300  1
  Fe  Fe0  1  0.00302300  0.00155400  0.00185900  1
  Fe  Fe1  1  0.06396700  0.28862600  0.84281200  1
  Fe  Fe2  1  0.06353900  0.77922600  0.84282800  1
  Fe  Fe3  1  0.61504400  0.30993400  0.93531900  1
  Fe  Fe4  1  0.81256700  0.90822200  0.71419400  1
  Fe  Fe5  1  0.50894000  0.25406800  0.74742400  1
  Fe  Fe6  1  0.56811500  0.54353600  0.59374600  1
  Fe  Fe7  1  0.56716500  0.02786700  0.59359800  1
  Fe  Fe8  1  0.06900600  0.27753800  0.34476900  1
  Fe  Fe9  1  0.30925400  0.14942900  0.46628900  1
  Fe  Fe10  1  0.05193600  0.02680800  0.59361400  1
  Fe  Fe11  1  0.55329600  0.27585400  0.34500900  1
  Fe  Fe12  1  0.99667700  0.49554400  0.50064600  1
  Fe  Fe13  1  0.50276000  0.75455900  0.25201400  1
  Fe  Fe14  1  0.06693300  0.79112500  0.34462400  1
  Fe  Fe15  1  0.56714900  0.03718500  0.09623300  1
  Fe  Fe16  1  0.06103300  0.53065400  0.09577700  1
  Fe  Fe17  1  0.81280900  0.41106600  0.21662300  1
  Fe  Fe18  1  0.56726200  0.53217500  0.09527100  1
  O  O0  1  0.41915000  0.46732900  0.90463100  1
  O  O1  1  0.94222800  0.47334200  0.90265600  1
  O  O2  1  0.18127200  0.59264000  0.79090700  1
  O  O3  1  0.93972800  0.97143300  0.90286100  1
  O  O4  1  0.70650600  0.09252600  0.78048700  1
  O  O5  1  0.19730900  0.33246500  0.53195900  1
  O  O6  1  0.70522900  0.61480700  0.77978600  1
  O  O7  1  0.91243800  0.18869700  0.65011600  1
  O  O8  1  0.41826800  0.95678100  0.90515300  1
  O  O9  1  0.96234900  0.98100900  0.40338400  1
  O  O10  1  0.68927000  0.85023000  0.53964100  1
  O  O11  1  0.46901500  0.74028100  0.65138900  1
  O  O12  1  0.17472800  0.08944700  0.78207400  1
  O  O13  1  0.43694100  0.21442400  0.64823900  1
  O  O14  1  0.66531400  0.32620700  0.53313500  1
  O  O15  1  0.20367600  0.86047900  0.53379100  1
  O  O16  1  0.69915400  0.11680600  0.28276900  1
  O  O17  1  0.42088200  0.43691900  0.40384500  1
  O  O18  1  0.41954400  0.97783300  0.40300400  1
  O  O19  1  0.92345600  0.73375100  0.65176500  1
  O  O20  1  0.19413300  0.09733800  0.28890900  1
  O  O21  1  0.43645300  0.71828600  0.15315700  1
  O  O22  1  0.17128600  0.58579600  0.28296100  1
  O  O23  1  0.67736700  0.84043100  0.03663900  1
  O  O24  1  0.93122600  0.46566800  0.40061900  1
  O  O25  1  0.19819600  0.36121500  0.03661600  1
  O  O26  1  0.69985400  0.58979700  0.28309400  1
  O  O27  1  0.20064800  0.83981300  0.03737200  1
  O  O28  1  0.92208400  0.69006200  0.15292100  1
  O  O29  1  0.92034900  0.23538500  0.15352500  1
  O  O30  1  0.46917800  0.23731400  0.15326700  1
  O  O31  1  0.69149400  0.34797300  0.03555200  1
loop_
_geom_bond_atom_site_label_1
_geom_bond_atom_site_label_2
_geom_bond_distance
_geom_bond_site_symmetry_2
Li0 O19 1.990569 1_455
Li0 O2 2.025337 1_555
Li0 O11 2.042843 1_555
Li0 O7 2.044397 1_455
Li1 O10 1.991421 1_555
Li1 O17 1.999774 1_555
Li1 O18 2.002422 1_555
Li1 O9 2.004463 1_555
Li2 O30 2.002417 1_555
Li2 O29 2.004292 1_455
Li2 O28 2.014048 1_445
Li2 O20 2.016970 1_555
Fe0 O27 1.938056 1_545
Fe0 O25 1.939556 1_555
Fe0 O23 1.941830 1_445
Fe0 O3 1.942691 1_444
Fe1 O2 1.960213 1_555
Fe1 O0 2.038312 1_555
Fe1 O4 2.055224 1_455
Fe1 O1 2.065295 1_455
Fe1 O12 2.093173 1_555
Fe1 O3 2.115473 1_445
Fe2 O2 1.960391 1_555
Fe2 O8 2.040918 1_555
Fe2 O1 2.063872 1_455
Fe2 O6 2.064013 1_455
Fe2 O12 2.095569 1_565
Fe2 O3 2.108909 1_455
Fe3 O0 1.884182 1_555
Fe3 O8 1.885278 1_545
Fe3 O1 1.928223 1_555
Fe3 O31 1.967564 1_556
Fe4 O11 1.999137 1_555
Fe4 O19 2.010074 1_555
Fe4 O7 2.013752 1_565
Fe4 O4 2.082988 1_565
Fe4 O6 2.086891 1_555
Fe4 O12 2.123230 1_665
Fe5 O4 1.924062 1_555
Fe5 O6 1.932700 1_555
Fe5 O13 1.946723 1_555
Fe5 O12 1.982373 1_555
Fe6 O11 1.995880 1_555
Fe6 O10 1.997569 1_555
Fe6 O19 2.007872 1_555
Fe6 O13 2.102007 1_555
Fe6 O5 2.110025 1_555
Fe6 O14 2.117270 1_555
Fe7 O7 1.951757 1_555
Fe7 O11 1.962370 1_545
Fe7 O10 1.963654 1_545
Fe7 O14 2.043399 1_555
Fe7 O13 2.046910 1_555
Fe7 O15 2.057716 1_545
Fe8 O17 2.002642 1_555
Fe8 O9 2.009774 1_445
Fe8 O20 2.011093 1_555
Fe8 O24 2.101647 1_455
Fe8 O22 2.102659 1_555
Fe8 O16 2.106481 1_455
Fe9 O18 2.007292 1_545
Fe9 O9 2.013936 1_445
Fe9 O17 2.020071 1_555
Fe9 O14 2.088512 1_555
Fe9 O5 2.093136 1_555
Fe9 O15 2.094549 1_545
Fe10 O19 1.989011 1_445
Fe10 O7 2.004367 1_455
Fe10 O10 2.006575 1_445
Fe10 O5 2.090973 1_555
Fe10 O13 2.110904 1_555
Fe10 O15 2.119276 1_545
Fe11 O17 1.999151 1_555
Fe11 O20 2.007307 1_555
Fe11 O18 2.008919 1_545
Fe11 O24 2.086224 1_555
Fe11 O16 2.094286 1_555
Fe11 O26 2.128433 1_555
Fe12 O5 1.938415 1_655
Fe12 O14 1.947260 1_555
Fe12 O15 1.957844 1_655
Fe12 O24 1.962897 1_555
Fe13 O26 1.928103 1_555
Fe13 O16 1.932654 1_565
Fe13 O22 1.933008 1_555
Fe13 O21 1.939983 1_555
Fe14 O18 1.998732 1_555
Fe14 O9 2.002059 1_455
Fe14 O20 2.014610 1_565
Fe14 O26 2.088957 1_455
Fe14 O24 2.102833 1_455
Fe14 O22 2.105489 1_555
Fe15 O29 1.995604 1_555
Fe15 O30 1.998944 1_555
Fe15 O27 2.063186 1_545
Fe15 O23 2.066001 1_545
Fe15 O21 2.084799 1_545
Fe15 O31 2.095613 1_555
Fe16 O29 1.996733 1_455
Fe16 O28 1.999644 1_455
Fe16 O25 2.058851 1_555
Fe16 O27 2.062152 1_555
Fe16 O31 2.085528 1_455
Fe16 O21 2.088383 1_555
Fe17 O28 2.002097 1_555
Fe17 O30 2.004628 1_555
Fe17 O29 2.010305 1_555
Fe17 O26 2.090436 1_555
Fe17 O22 2.093608 1_655
Fe17 O16 2.097494 1_555
Fe18 O30 1.997145 1_555
Fe18 O28 2.004181 1_555
Fe18 O23 2.060922 1_555
Fe18 O25 2.072100 1_555
Fe18 O31 2.072180 1_555
Fe18 O21 2.086308 1_555
O0 Zn1 2.078970 1_555
O0 Zn0 2.129111 1_555
O1 Zn1 2.138640 1_655
O2 Zn0 2.045690 1_555
O3 Zn0 2.146374 1_555
O4 Zn0 2.119468 1_545
O6 Zn0 2.135715 1_555
O8 Zn1 2.079103 1_555
O8 Zn0 2.140579 1_555
O23 Zn1 2.135575 1_554
O25 Zn1 2.135558 1_554
O27 Zn1 2.132039 1_554
