# generated using pymatgen
data_Li2VFeP2(O4F)2
_symmetry_space_group_name_H-M   'P 1'
_cell_length_a   5.24306159
_cell_length_b   10.77144240
_cell_length_c   7.42833059
_cell_angle_alpha   72.99841955
_cell_angle_beta   71.14987852
_cell_angle_gamma   97.67578414
_symmetry_Int_Tables_number   1
_chemical_formula_structural   Li2VFeP2(O4F)2
_chemical_formula_sum   'Li4 V2 Fe2 P4 O16 F4'
_cell_volume   367.41608292
_cell_formula_units_Z   2
loop_
 _symmetry_equiv_pos_site_id
 _symmetry_equiv_pos_as_xyz
  1  'x, y, z'
loop_
 _atom_site_type_symbol
 _atom_site_label
 _atom_site_symmetry_multiplicity
 _atom_site_fract_x
 _atom_site_fract_y
 _atom_site_fract_z
 _atom_site_occupancy
  Li  Li0  1  0.27257100  0.80885400  0.81101900  1
  Li  Li1  1  0.27220000  0.30779300  0.80827700  1
  Li  Li2  1  0.72780000  0.69220700  0.19172300  1
  Li  Li3  1  0.72742900  0.19114600  0.18898100  1
  V  V0  1  0.00000000  0.50000000  0.00000000  1
  V  V1  1  0.00000000  0.00000000  0.50000000  1
  Fe  Fe0  1  0.00000000  0.00000000  0.00000000  1
  Fe  Fe1  1  0.00000000  0.50000000  0.50000000  1
  P  P0  1  0.32280800  0.82072800  0.23669000  1
  P  P1  1  0.32323300  0.32107700  0.23809500  1
  P  P2  1  0.67676700  0.67892300  0.76190500  1
  P  P3  1  0.67719200  0.17927200  0.76331000  1
  O  O0  1  0.13041600  0.83406100  0.11095000  1
  O  O1  1  0.13430800  0.33490600  0.11011500  1
  O  O2  1  0.24892400  0.89311000  0.38936500  1
  O  O3  1  0.30537800  0.67070100  0.34120600  1
  O  O4  1  0.24843000  0.39364500  0.38982800  1
  O  O5  1  0.30619500  0.17096200  0.34314600  1
  O  O6  1  0.63333500  0.87748400  0.08818800  1
  O  O7  1  0.63319300  0.37541900  0.08945800  1
  O  O8  1  0.36680700  0.62458100  0.91054200  1
  O  O9  1  0.36666500  0.12251600  0.91181200  1
  O  O10  1  0.69380500  0.82903800  0.65685400  1
  O  O11  1  0.75157000  0.60635500  0.61017200  1
  O  O12  1  0.69462200  0.32929900  0.65879400  1
  O  O13  1  0.75107600  0.10689000  0.61063500  1
  O  O14  1  0.86569200  0.66509400  0.88988500  1
  O  O15  1  0.86958400  0.16593900  0.88905000  1
  F  F0  1  0.12695800  0.96306800  0.74041900  1
  F  F1  1  0.12733100  0.46303000  0.73434100  1
  F  F2  1  0.87266900  0.53697000  0.26565900  1
  F  F3  1  0.87304200  0.03693200  0.25958100  1
loop_
_geom_bond_atom_site_label_1
_geom_bond_atom_site_label_2
_geom_bond_distance
_geom_bond_site_symmetry_2
Li0 O10 2.080440 1_555
Li0 O8 2.090532 1_555
Li0 O0 2.219895 1_556
Li0 O14 2.251988 1_455
Li1 O12 2.077325 1_555
Li1 O9 2.105287 1_555
Li1 O15 2.221387 1_455
Li1 O1 2.242116 1_556
Li2 O3 2.077325 1_555
Li2 O6 2.105287 1_555
Li2 O0 2.221387 1_655
Li2 O14 2.242116 1_554
Li3 O5 2.080440 1_555
Li3 O7 2.090532 1_555
Li3 O15 2.219895 1_554
Li3 O1 2.251988 1_655
Fe0 O9 1.967082 1_554
Fe0 O6 1.967082 1_445
Fe0 O0 2.042252 1_545
Fe0 O15 2.042252 1_454
Fe1 O4 1.984141 1_555
Fe1 O11 1.984141 1_455
Fe1 O3 2.015086 1_555
Fe1 O12 2.015086 1_455
O0 P0 1.574693 1_555
O1 P1 1.572344 1_555
O1 V0 2.045333 1_555
O2 P0 1.535591 1_555
O2 V1 1.991495 1_565
O3 P0 1.550352 1_555
O4 P1 1.531890 1_555
O5 P1 1.552401 1_555
O5 V1 2.018122 1_555
O6 P0 1.555810 1_555
O7 P1 1.552817 1_555
O7 V0 1.975923 1_655
O8 P2 1.552817 1_555
O8 V0 1.975923 1_556
O9 P3 1.555810 1_555
O10 P2 1.552401 1_555
O10 V1 2.018122 1_665
O11 P2 1.531890 1_555
O12 P3 1.550352 1_555
O13 P3 1.535591 1_555
O13 V1 1.991495 1_655
O14 P2 1.572344 1_555
O14 V0 2.045333 1_656
O15 P3 1.574693 1_555
F0 Li0 1.924900 1_555
F0 Fe0 2.002354 1_566
F0 V1 2.052869 1_565
F1 Li1 1.935554 1_555
F1 Fe1 2.012740 1_555
F1 V0 2.043980 1_556
F2 Li2 1.935554 1_555
F2 Fe1 2.012740 1_655
F2 V0 2.043980 1_655
F3 Li3 1.924900 1_555
F3 Fe0 2.002354 1_655
F3 V1 2.052869 1_655
