# generated using pymatgen
data_Fe2OF3
_symmetry_space_group_name_H-M   'P 1'
_cell_length_a   4.86401724
_cell_length_b   4.86401724
_cell_length_c   12.40846300
_cell_angle_alpha   90.00000000
_cell_angle_beta   90.00000000
_cell_angle_gamma   91.27105570
_symmetry_Int_Tables_number   1
_chemical_formula_structural   Fe2OF3
_chemical_formula_sum   'Fe8 O4 F12'
_cell_volume   293.49541942
_cell_formula_units_Z   4
loop_
 _symmetry_equiv_pos_site_id
 _symmetry_equiv_pos_as_xyz
  1  'x, y, z'
loop_
 _atom_site_type_symbol
 _atom_site_label
 _atom_site_symmetry_multiplicity
 _atom_site_fract_x
 _atom_site_fract_y
 _atom_site_fract_z
 _atom_site_occupancy
  Fe  Fe0  1  0.97196200  0.97196200  0.00000000  1
  Fe  Fe1  1  0.02409500  0.02409500  0.25035300  1
  Fe  Fe2  1  0.01025800  0.01025800  0.50000000  1
  Fe  Fe3  1  0.02409500  0.02409500  0.74964700  1
  Fe  Fe4  1  0.47458900  0.47458900  0.62492300  1
  Fe  Fe5  1  0.50019400  0.50019400  0.12435000  1
  Fe  Fe6  1  0.50019400  0.50019400  0.87565000  1
  Fe  Fe7  1  0.47458900  0.47458900  0.37507700  1
  O  O0  1  0.31230600  0.31230600  0.50000000  1
  O  O1  1  0.32084000  0.32084000  0.24644000  1
  O  O2  1  0.32084000  0.32084000  0.75356000  1
  O  O3  1  0.66884900  0.66884900  0.00000000  1
  F  F0  1  0.79326800  0.20161800  0.12418300  1
  F  F1  1  0.79468900  0.21119900  0.37585500  1
  F  F2  1  0.79468900  0.21119900  0.62414500  1
  F  F3  1  0.79326800  0.20161800  0.87581700  1
  F  F4  1  0.29290300  0.29290300  0.00000000  1
  F  F5  1  0.70513900  0.70513900  0.25120700  1
  F  F6  1  0.69245700  0.69245700  0.50000000  1
  F  F7  1  0.70513900  0.70513900  0.74879300  1
  F  F8  1  0.21119900  0.79468900  0.37585500  1
  F  F9  1  0.21119900  0.79468900  0.62414500  1
  F  F10  1  0.20161800  0.79326800  0.12418300  1
  F  F11  1  0.20161800  0.79326800  0.87581700  1
loop_
_geom_bond_atom_site_label_1
_geom_bond_atom_site_label_2
_geom_bond_distance
_geom_bond_site_symmetry_2
Fe0 O3 2.061786 1_555
Fe1 O1 2.019055 1_555
Fe2 O0 2.054542 1_555
Fe3 O2 2.019055 1_555
Fe4 O0 1.902975 1_555
Fe4 O2 1.908278 1_555
Fe5 O3 1.922729 1_555
Fe5 O1 1.945098 1_555
Fe6 O3 1.922729 1_556
Fe6 O2 1.945098 1_555
Fe7 O0 1.902975 1_555
Fe7 O1 1.908278 1_555
F0 Fe5 2.057441 1_555
F0 Fe0 2.102562 1_545
F0 Fe1 2.121364 1_655
F1 Fe7 2.038149 1_555
F1 Fe2 2.114979 1_655
F1 Fe1 2.131554 1_655
F2 Fe4 2.038149 1_555
F2 Fe2 2.114979 1_655
F2 Fe3 2.131554 1_655
F3 Fe6 2.057441 1_555
F3 Fe0 2.102562 1_546
F3 Fe3 2.121364 1_655
F4 Fe6 2.090198 1_554
F4 Fe5 2.090198 1_555
F4 Fe0 2.183053 1_445
F5 Fe5 2.102653 1_555
F5 Fe1 2.169577 1_665
F5 Fe7 2.195851 1_555
F6 Fe4 2.144524 1_555
F6 Fe7 2.144524 1_555
F6 Fe2 2.161694 1_665
F7 Fe6 2.102653 1_555
F7 Fe3 2.169577 1_665
F7 Fe4 2.195851 1_555
F8 Fe7 2.038149 1_555
F8 Fe2 2.114979 1_565
F8 Fe1 2.131554 1_565
F9 Fe4 2.038149 1_555
F9 Fe2 2.114979 1_565
F9 Fe3 2.131554 1_565
F10 Fe5 2.057441 1_555
F10 Fe0 2.102562 1_455
F10 Fe1 2.121364 1_565
F11 Fe6 2.057441 1_555
F11 Fe0 2.102562 1_456
F11 Fe3 2.121364 1_565
