# generated using pymatgen
data_Li2BiBO4
_symmetry_space_group_name_H-M   'P 1'
_cell_length_a   4.93924600
_cell_length_b   6.67169900
_cell_length_c   10.50478800
_cell_angle_alpha   90.00000000
_cell_angle_beta   90.00000000
_cell_angle_gamma   90.00000000
_symmetry_Int_Tables_number   1
_chemical_formula_structural   Li2BiBO4
_chemical_formula_sum   'Li8 Bi4 B4 O16'
_cell_volume   346.16598703
_cell_formula_units_Z   4
loop_
 _symmetry_equiv_pos_site_id
 _symmetry_equiv_pos_as_xyz
  1  'x, y, z'
loop_
 _atom_site_type_symbol
 _atom_site_label
 _atom_site_symmetry_multiplicity
 _atom_site_fract_x
 _atom_site_fract_y
 _atom_site_fract_z
 _atom_site_occupancy
  Li  Li0  1  0.18347900  0.99916600  0.58279600  1
  Li  Li1  1  0.31652100  0.99916600  0.08279600  1
  Li  Li2  1  0.31652100  0.50083400  0.08279600  1
  Li  Li3  1  0.18347900  0.50083400  0.58279600  1
  Li  Li4  1  0.68347900  0.49916600  0.91720400  1
  Li  Li5  1  0.81652100  0.49916600  0.41720400  1
  Li  Li6  1  0.81652100  0.00083400  0.41720400  1
  Li  Li7  1  0.68347900  0.00083400  0.91720400  1
  Bi  Bi0  1  0.19397100  0.25000000  0.82913100  1
  Bi  Bi1  1  0.30602900  0.25000000  0.32913100  1
  Bi  Bi2  1  0.69397100  0.75000000  0.67086900  1
  Bi  Bi3  1  0.80602900  0.75000000  0.17086900  1
  B  B0  1  0.67103500  0.25000000  0.65439600  1
  B  B1  1  0.82896500  0.25000000  0.15439600  1
  B  B2  1  0.32896500  0.75000000  0.34560400  1
  B  B3  1  0.17103500  0.75000000  0.84560400  1
  O  O0  1  0.79523300  0.07017600  0.59739900  1
  O  O1  1  0.70476700  0.07017600  0.09739900  1
  O  O2  1  0.36501000  0.25000000  0.63356200  1
  O  O3  1  0.79234400  0.25000000  0.30100700  1
  O  O4  1  0.70765600  0.25000000  0.80100700  1
  O  O5  1  0.13499000  0.25000000  0.13356200  1
  O  O6  1  0.70476700  0.42982400  0.09739900  1
  O  O7  1  0.79523300  0.42982400  0.59739900  1
  O  O8  1  0.20476700  0.57017600  0.40260100  1
  O  O9  1  0.29523300  0.57017600  0.90260100  1
  O  O10  1  0.63499000  0.75000000  0.36643800  1
  O  O11  1  0.86501000  0.75000000  0.86643800  1
  O  O12  1  0.20765600  0.75000000  0.69899300  1
  O  O13  1  0.29234400  0.75000000  0.19899300  1
  O  O14  1  0.20476700  0.92982400  0.40260100  1
  O  O15  1  0.29523300  0.92982400  0.90260100  1
loop_
_geom_bond_atom_site_label_1
_geom_bond_atom_site_label_2
_geom_bond_distance
_geom_bond_site_symmetry_2
Li0 O14 1.951459 1_555
Li0 O2 1.972029 1_565
Li0 O0 1.981245 1_465
Li0 O12 2.065824 1_555
Li1 O15 1.951459 1_554
Li1 O5 1.972029 1_565
Li1 O1 1.981245 1_565
Li1 O13 2.065824 1_555
Li2 O9 1.951459 1_554
Li2 O5 1.972029 1_555
Li2 O6 1.981245 1_555
Li2 O13 2.065824 1_555
Li3 O8 1.951459 1_555
Li3 O2 1.972029 1_555
Li3 O7 1.981245 1_455
Li3 O12 2.065824 1_555
Li4 O6 1.951459 1_556
Li4 O11 1.972029 1_555
Li4 O9 1.981245 1_555
Li4 O4 2.065824 1_555
Li5 O7 1.951459 1_555
Li5 O10 1.972029 1_555
Li5 O8 1.981245 1_655
Li5 O3 2.065824 1_555
Li6 O0 1.951459 1_555
Li6 O10 1.972029 1_545
Li6 O14 1.981245 1_645
Li6 O3 2.065824 1_555
Li7 O1 1.951459 1_556
Li7 O11 1.972029 1_545
Li7 O15 1.981245 1_545
Li7 O4 2.065824 1_555
Bi0 O2 2.221328 1_555
Bi0 O15 2.325685 1_545
Bi0 O9 2.325685 1_555
Bi0 O4 2.420130 1_455
Bi0 O4 2.554359 1_555
Bi1 O5 2.221328 1_555
Bi1 O8 2.325685 1_555
Bi1 O14 2.325685 1_545
Bi1 O3 2.420130 1_555
Bi1 O3 2.554359 1_455
Bi2 O11 2.221328 1_555
Bi2 O0 2.325685 1_565
Bi2 O7 2.325685 1_555
Bi2 O12 2.420130 1_555
Bi2 O12 2.554359 1_655
Bi3 O10 2.221328 1_555
Bi3 O1 2.325685 1_565
Bi3 O6 2.325685 1_555
Bi3 O13 2.420130 1_655
Bi3 O13 2.554359 1_555
B0 O7 1.474504 1_555
B0 O0 1.474504 1_555
B0 O2 1.527295 1_555
B0 O4 1.550703 1_555
B1 O1 1.474504 1_555
B1 O6 1.474504 1_555
B1 O5 1.527295 1_655
B1 O3 1.550703 1_555
B2 O14 1.474504 1_555
B2 O8 1.474504 1_555
B2 O10 1.527295 1_555
B2 O13 1.550703 1_555
B3 O9 1.474504 1_555
B3 O15 1.474504 1_555
B3 O11 1.527295 1_455
B3 O12 1.550703 1_555
