# generated using pymatgen
data_Li4Fe7(OF7)2
_symmetry_space_group_name_H-M   'P 1'
_cell_length_a   5.17677500
_cell_length_b   6.12352033
_cell_length_c   10.69874151
_cell_angle_alpha   92.16351086
_cell_angle_beta   90.71699105
_cell_angle_gamma   91.11589127
_symmetry_Int_Tables_number   1
_chemical_formula_structural   Li4Fe7(OF7)2
_chemical_formula_sum   'Li4 Fe7 O2 F14'
_cell_volume   338.81520834
_cell_formula_units_Z   1
loop_
 _symmetry_equiv_pos_site_id
 _symmetry_equiv_pos_as_xyz
  1  'x, y, z'
loop_
 _atom_site_type_symbol
 _atom_site_label
 _atom_site_symmetry_multiplicity
 _atom_site_fract_x
 _atom_site_fract_y
 _atom_site_fract_z
 _atom_site_occupancy
  Li  Li0  1  0.55332300  0.23136600  0.08378000  1
  Li  Li1  1  0.02682200  0.74748900  0.40356400  1
  Li  Li2  1  0.97317800  0.25251100  0.59643600  1
  Li  Li3  1  0.44667700  0.76863400  0.91622000  1
  Fe  Fe0  1  0.00000000  0.50000000  0.00000000  1
  Fe  Fe1  1  0.50623400  0.74746500  0.23826700  1
  Fe  Fe2  1  0.99582900  0.23842000  0.26218500  1
  Fe  Fe3  1  0.50000000  0.00000000  0.50000000  1
  Fe  Fe4  1  0.50000000  0.50000000  0.50000000  1
  Fe  Fe5  1  0.00417100  0.76158000  0.73781500  1
  Fe  Fe6  1  0.49376600  0.25253500  0.76173300  1
  O  O0  1  0.66270500  0.74701700  0.41134800  1
  O  O1  1  0.33729500  0.25298300  0.58865200  1
  F  F0  1  0.30057300  0.72659000  0.07504400  1
  F  F1  1  0.19802600  0.26713100  0.08985900  1
  F  F2  1  0.72764800  0.02626900  0.17968500  1
  F  F3  1  0.75162100  0.48276600  0.16355000  1
  F  F4  1  0.21904500  0.50169500  0.33005600  1
  F  F5  1  0.22466300  0.98214100  0.32961400  1
  F  F6  1  0.79256600  0.25133200  0.43591600  1
  F  F7  1  0.20743400  0.74866800  0.56408400  1
  F  F8  1  0.77533700  0.01785900  0.67038600  1
  F  F9  1  0.78095500  0.49830500  0.66994400  1
  F  F10  1  0.24837900  0.51723400  0.83645000  1
  F  F11  1  0.27235200  0.97373100  0.82031500  1
  F  F12  1  0.80197400  0.73286900  0.91014100  1
  F  F13  1  0.69942700  0.27341000  0.92495600  1
loop_
_geom_bond_atom_site_label_1
_geom_bond_atom_site_label_2
_geom_bond_distance
_geom_bond_site_symmetry_2
Li1 O0 1.887782 1_455
Li2 O1 1.887782 1_655
Fe1 O0 2.011973 1_555
Fe3 O1 1.992176 1_555
Fe3 O0 1.992176 1_545
Fe4 O0 1.993922 1_555
Fe4 O1 1.993922 1_555
Fe6 O1 2.011973 1_555
F0 Li3 1.892959 1_554
F0 Fe1 2.032401 1_555
F0 Fe0 2.188952 1_555
F1 Li0 1.858171 1_555
F1 Fe0 2.035766 1_555
F1 Fe2 2.142727 1_455
F2 Li0 1.887537 1_555
F2 Fe2 2.051018 1_555
F2 Fe1 2.154974 1_545
F3 Li0 1.992333 1_555
F3 Fe0 2.188862 1_655
F3 Fe1 2.210830 1_555
F3 Fe2 2.260556 1_555
F4 Li1 1.965364 1_555
F4 Fe2 2.068740 1_455
F4 Fe4 2.314550 1_555
F4 Fe1 2.345342 1_555
F5 Li1 1.946371 1_555
F5 Fe2 2.126747 1_465
F5 Fe1 2.270703 1_555
F5 Fe3 2.297928 1_565
F6 Li2 1.944788 1_555
F6 Fe2 2.146938 1_555
F6 Fe4 2.262655 1_555
F6 Fe3 2.268795 1_555
F7 Li1 1.944788 1_555
F7 Fe5 2.146938 1_555
F7 Fe4 2.262655 1_555
F7 Fe3 2.268795 1_565
F8 Li2 1.946371 1_555
F8 Fe5 2.126747 1_645
F8 Fe6 2.270703 1_555
F8 Fe3 2.297928 1_555
F9 Li2 1.965364 1_555
F9 Fe5 2.068740 1_655
F9 Fe4 2.314550 1_555
F9 Fe6 2.345342 1_555
F10 Li3 1.992333 1_555
F10 Fe0 2.188862 1_556
F10 Fe6 2.210830 1_555
F10 Fe5 2.260556 1_555
F11 Li3 1.887537 1_555
F11 Fe5 2.051018 1_555
F11 Fe6 2.154974 1_565
F12 Li3 1.858171 1_555
F12 Fe0 2.035766 1_656
F12 Fe5 2.142727 1_655
F13 Li0 1.892959 1_556
F13 Fe6 2.032401 1_555
F13 Fe0 2.188952 1_656
