# generated using pymatgen
data_Li2Mn2(SiO3)3
_symmetry_space_group_name_H-M   'P 1'
_cell_length_a   10.18019433
_cell_length_b   10.18019433
_cell_length_c   12.52050300
_cell_angle_alpha   90.00000000
_cell_angle_beta   90.00000000
_cell_angle_gamma   120.00000214
_symmetry_Int_Tables_number   1
_chemical_formula_structural   Li2Mn2(SiO3)3
_chemical_formula_sum   'Li12 Mn12 Si18 O54'
_cell_volume   1123.73662472
_cell_formula_units_Z   6
loop_
 _symmetry_equiv_pos_site_id
 _symmetry_equiv_pos_as_xyz
  1  'x, y, z'
loop_
 _atom_site_type_symbol
 _atom_site_label
 _atom_site_symmetry_multiplicity
 _atom_site_fract_x
 _atom_site_fract_y
 _atom_site_fract_z
 _atom_site_occupancy
  Li  Li0  1  0.46973300  0.61970100  0.18589100  1
  Li  Li1  1  0.63418500  0.49505500  0.01765700  1
  Li  Li2  1  0.50494500  0.13913000  0.68432400  1
  Li  Li3  1  0.38029900  0.85003200  0.85255800  1
  Li  Li4  1  0.86087000  0.36581500  0.35099100  1
  Li  Li5  1  0.50651600  0.71243700  0.68173100  1
  Li  Li6  1  0.67589800  0.00893300  0.74959200  1
  Li  Li7  1  0.14996800  0.53026700  0.51922400  1
  Li  Li8  1  0.20592100  0.49348400  0.01506400  1
  Li  Li9  1  0.99106700  0.66696500  0.41625800  1
  Li  Li10  1  0.33303500  0.32410200  0.08292500  1
  Li  Li11  1  0.28756300  0.79407900  0.34839800  1
  Mn  Mn0  1  0.64603500  0.47836300  0.48922000  1
  Mn  Mn1  1  0.52163700  0.16767200  0.15588700  1
  Mn  Mn2  1  0.83232800  0.35396500  0.82255300  1
  Mn  Mn3  1  0.66811500  0.97429900  0.25471700  1
  Mn  Mn4  1  0.70094200  0.00511400  0.00145700  1
  Mn  Mn5  1  0.81927000  0.82953700  0.84051400  1
  Mn  Mn6  1  0.01026800  0.18073000  0.17384700  1
  Mn  Mn7  1  0.30618400  0.33188500  0.58805100  1
  Mn  Mn8  1  0.30417200  0.29905800  0.33479100  1
  Mn  Mn9  1  0.99488600  0.69582800  0.66812400  1
  Mn  Mn10  1  0.02570100  0.69381600  0.92138400  1
  Mn  Mn11  1  0.17046300  0.98973200  0.50718100  1
  Si  Si0  1  0.47252200  0.62332000  0.91721400  1
  Si  Si1  1  0.61767500  0.47483200  0.75830400  1
  Si  Si2  1  0.50191000  0.17455100  0.90143000  1
  Si  Si3  1  0.67264100  0.49809000  0.23476300  1
  Si  Si4  1  0.37668000  0.84920200  0.58388100  1
  Si  Si5  1  0.52516800  0.14284300  0.42497100  1
  Si  Si6  1  0.50175500  0.67260900  0.43918000  1
  Si  Si7  1  0.82544900  0.32735900  0.56809700  1
  Si  Si8  1  0.85715700  0.38232500  0.09163800  1
  Si  Si9  1  0.95525100  0.15818200  0.44806800  1
  Si  Si10  1  0.79958700  0.85251600  0.56872500  1
  Si  Si11  1  0.15079800  0.52747800  0.25054800  1
  Si  Si12  1  0.17085400  0.49824500  0.77251300  1
  Si  Si13  1  0.05293000  0.20041300  0.90205900  1
  Si  Si14  1  0.84181800  0.79707000  0.11473500  1
  Si  Si15  1  0.20293000  0.04474900  0.78140100  1
  Si  Si16  1  0.14748400  0.94707000  0.23539200  1
  Si  Si17  1  0.32739100  0.82914600  0.10584700  1
  O  O0  1  0.40939100  0.48792300  0.44340600  1
  O  O1  1  0.43394500  0.54539100  0.03388600  1
  O  O2  1  0.53641500  0.53757000  0.83976500  1
  O  O3  1  0.49211300  0.37688200  0.22798500  1
  O  O4  1  0.42144900  0.22046200  0.44211300  1
  O  O5  1  0.34334800  0.03781400  0.84661800  1
  O  O6  1  0.54518800  0.44578300  0.63955300  1
  O  O7  1  0.47999800  0.24512300  0.01098700  1
  O  O8  1  0.69446600  0.65665200  0.17995200  1
  O  O9  1  0.56971700  0.30454600  0.80498600  1
  O  O10  1  0.46243000  0.99884400  0.50643200  1
  O  O11  1  0.76512400  0.52000200  0.34432000  1
  O  O12  1  0.45460900  0.88855400  0.70055300  1
  O  O13  1  0.55421700  0.09940500  0.30621900  1
  O  O14  1  0.79901300  0.57855100  0.77544600  1
  O  O15  1  0.73483000  0.43028300  0.13832000  1
  O  O16  1  0.62311800  0.11523100  0.89465100  1
  O  O17  1  0.51207700  0.92146700  0.11007200  1
  O  O18  1  0.41599800  0.72437200  0.52864300  1
  O  O19  1  0.69545400  0.26517000  0.47165300  1
  O  O20  1  0.52329500  0.75837400  0.32683100  1
  O  O21  1  0.75487700  0.23487600  0.67765400  1
  O  O22  1  0.88476900  0.50788700  0.56131800  1
  O  O23  1  0.90059500  0.45481200  0.97288600  1
  O  O24  1  0.58879200  0.80305900  0.90344900  1
  O  O25  1  0.77953800  0.20098700  0.10877900  1
  O  O26  1  0.00115600  0.46358500  0.17309800  1
  O  O27  1  0.96218600  0.30553400  0.51328500  1
  O  O28  1  0.66720500  0.71128700  0.49425100  1
  O  O29  1  0.07853300  0.59060900  0.77673900  1
  O  O30  1  0.89357400  0.15728900  0.32653600  1
  O  O31  1  0.72988600  0.84231600  0.68762700  1
  O  O32  1  0.11144600  0.56605500  0.36722000  1
  O  O33  1  0.82396600  0.00703300  0.50934800  1
  O  O34  1  0.82099500  0.94548600  0.13110100  1
  O  O35  1  0.88562800  0.05264300  0.89315500  1
  O  O36  1  0.04408100  0.33279500  0.82758400  1
  O  O37  1  0.84271100  0.73628500  0.99320200  1
  O  O38  1  0.11243000  0.27011400  0.02096000  1
  O  O39  1  0.23507900  0.47670500  0.66016500  1
  O  O40  1  0.21426700  0.41120800  0.23678200  1
  O  O41  1  0.94735700  0.83298400  0.55982100  1
  O  O42  1  0.12449100  0.17900500  0.46443500  1
  O  O43  1  0.30837400  0.58400200  0.86197700  1
  O  O44  1  0.99296700  0.81693300  0.17601400  1
  O  O45  1  0.18306700  0.17603400  0.84268100  1
  O  O46  1  0.16701600  0.11437200  0.22648800  1
  O  O47  1  0.05451400  0.87550900  0.79776800  1
  O  O48  1  0.15768400  0.88757000  0.35429300  1
  O  O49  1  0.26371500  0.10642600  0.65986900  1
  O  O50  1  0.19694100  0.78573300  0.57011600  1
  O  O51  1  0.28871300  0.95591900  0.16091700  1
  O  O52  1  0.24162600  0.76492100  0.99349800  1
  O  O53  1  0.27562800  0.69162600  0.19531000  1
loop_
_geom_bond_atom_site_label_1
_geom_bond_atom_site_label_2
_geom_bond_distance
_geom_bond_site_symmetry_2
Li0 O1 2.012832 1_555
Li0 O8 2.126163 1_555
Li0 O20 2.152778 1_555
Li0 O53 2.429319 1_555
Li0 O40 2.480854 1_555
Li0 O3 2.646389 1_555
Li1 O15 2.107742 1_555
Li1 O7 2.225034 1_555
Li1 O37 2.327614 1_554
Li1 O1 2.346031 1_555
Li1 O8 2.490472 1_555
Li1 O2 2.563127 1_554
Li2 O9 2.107726 1_555
Li2 O21 2.225033 1_555
Li2 O49 2.327614 1_555
Li2 O12 2.346031 1_545
Li2 O5 2.490462 1_555
Li2 O10 2.563132 1_545
Li3 O12 2.012832 1_555
Li3 O5 2.126164 1_565
Li3 O52 2.152778 1_555
Li3 O43 2.429318 1_555
Li3 O24 2.480855 1_555
Li3 O16 2.646387 1_565
Li4 O19 2.107727 1_555
Li4 O11 2.225043 1_555
Li4 O30 2.327614 1_555
Li4 O32 2.346031 1_655
Li4 O27 2.490462 1_555
Li4 O26 2.563142 1_655
Li5 O31 1.979366 1_555
Li5 O12 2.120540 1_555
Li5 O18 2.156330 1_555
Li6 O12 2.047687 1_545
Li6 O31 2.171014 1_545
Li6 O21 2.213370 1_555
Li6 O16 2.310797 1_555
Li7 O32 2.012820 1_555
Li7 O27 2.126163 1_455
Li7 O39 2.152788 1_555
Li7 O18 2.429318 1_555
Li7 O50 2.480858 1_555
Li7 O22 2.646389 1_455
Li8 O38 1.979366 1_555
Li8 O1 2.120540 1_555
Li8 O43 2.156318 1_554
Li9 O32 2.047683 1_655
Li9 O48 2.171014 1_655
Li9 O11 2.213368 1_555
Li9 O22 2.310807 1_555
Li10 O1 2.047687 1_555
Li10 O38 2.171014 1_555
Li10 O7 2.213361 1_555
Li10 O3 2.310807 1_555
Li11 O48 1.979366 1_555
Li11 O32 2.120540 1_555
Li11 O53 2.156330 1_555
Mn0 O6 2.089578 1_555
Mn0 O11 2.104036 1_555
Mn0 O28 2.272010 1_555
Mn0 O22 2.466046 1_555
Mn0 O19 2.470582 1_555
Mn0 O0 2.525201 1_555
Mn0 O4 2.542756 1_555
Mn1 O13 2.089567 1_555
Mn1 O7 2.104041 1_555
Mn1 O51 2.272005 1_545
Mn1 O3 2.466046 1_555
Mn1 O15 2.470575 1_555
Mn1 O17 2.525214 1_545
Mn1 O25 2.542759 1_555
Mn2 O23 2.089578 1_555
Mn2 O21 2.104026 1_555
Mn2 O36 2.272000 1_655
Mn2 O16 2.466046 1_555
Mn2 O9 2.470572 1_555
Mn2 O29 2.525206 1_655
Mn2 O14 2.542756 1_555
Mn3 O20 2.140081 1_555
Mn3 O13 2.204330 1_565
Mn3 O17 2.288681 1_555
Mn3 O30 2.295909 1_565
Mn3 O34 2.315221 1_555
Mn3 O25 2.708009 1_565
Mn4 O16 2.135595 1_554
Mn4 O17 2.152662 1_545
Mn4 O24 2.166086 1_544
Mn4 O35 2.167498 1_554
Mn4 O25 2.196922 1_555
Mn4 O34 2.288853 1_545
Mn5 O35 2.124868 1_565
Mn5 O31 2.151174 1_555
Mn5 O37 2.199867 1_555
Mn5 O47 2.262717 1_655
Mn5 O24 2.359299 1_555
Mn5 O14 2.589941 1_555
Mn6 O46 2.124868 1_555
Mn6 O38 2.151171 1_555
Mn6 O30 2.199883 1_455
Mn6 O34 2.262720 1_445
Mn6 O40 2.359295 1_555
Mn6 O25 2.589950 1_455
Mn7 O39 2.140081 1_555
Mn7 O6 2.204330 1_555
Mn7 O0 2.288682 1_555
Mn7 O49 2.295904 1_555
Mn7 O42 2.315221 1_555
Mn7 O4 2.708009 1_555
Mn8 O3 2.135595 1_555
Mn8 O0 2.152662 1_555
Mn8 O40 2.166093 1_555
Mn8 O46 2.167504 1_555
Mn8 O4 2.196922 1_555
Mn8 O42 2.288853 1_555
Mn9 O22 2.135595 1_555
Mn9 O29 2.152669 1_655
Mn9 O50 2.166086 1_655
Mn9 O41 2.167499 1_555
Mn9 O14 2.196922 1_555
Mn9 O47 2.288853 1_655
Mn10 O52 2.140081 1_555
Mn10 O23 2.204330 1_455
Mn10 O29 2.288687 1_555
Mn10 O37 2.295904 1_455
Mn10 O47 2.315221 1_555
Mn10 O14 2.708009 1_455
Mn11 O41 2.124864 1_455
Mn11 O48 2.151181 1_555
Mn11 O49 2.199871 1_565
Mn11 O42 2.262727 1_565
Mn11 O50 2.359289 1_555
Mn11 O4 2.589945 1_565
O0 Si6 1.629108 1_555
O1 Si0 1.614299 1_554
O2 Si1 1.631214 1_555
O2 Si0 1.641111 1_555
O3 Si3 1.624683 1_555
O4 Si5 1.618535 1_555
O5 Si2 1.663522 1_555
O5 Si15 1.678118 1_555
O6 Si1 1.620004 1_555
O7 Si2 1.614855 1_554
O8 Si3 1.663517 1_555
O8 Si14 1.678113 1_555
O9 Si1 1.654933 1_555
O9 Si2 1.665062 1_555
O10 Si5 1.631221 1_565
O10 Si4 1.641104 1_555
O11 Si3 1.614850 1_555
O12 Si4 1.614299 1_555
O13 Si5 1.620015 1_555
O14 Si1 1.618535 1_555
O15 Si8 1.654924 1_555
O15 Si3 1.665059 1_555
O16 Si2 1.624684 1_555
O17 Si17 1.629108 1_555
O18 Si6 1.659690 1_555
O18 Si4 1.661958 1_555
O19 Si5 1.654930 1_555
O19 Si7 1.665061 1_555
O20 Si6 1.611722 1_555
O21 Si7 1.614851 1_555
O22 Si7 1.624684 1_555
O23 Si8 1.620015 1_556
O24 Si0 1.616478 1_555
O25 Si8 1.618534 1_555
O26 Si8 1.631213 1_455
O26 Si11 1.641111 1_555
O27 Si7 1.663522 1_555
O27 Si9 1.678109 1_555
O28 Si6 1.674570 1_555
O28 Si10 1.677850 1_555
O29 Si12 1.629099 1_555
O30 Si9 1.644386 1_555
O31 Si10 1.629987 1_555
O32 Si11 1.614299 1_555
O33 Si9 1.638930 1_555
O33 Si10 1.642637 1_545
O34 Si14 1.640134 1_555
O35 Si13 1.616813 1_655
O36 Si12 1.674573 1_555
O36 Si13 1.677867 1_555
O37 Si14 1.644402 1_556
O38 Si13 1.629974 1_554
O39 Si12 1.611712 1_555
O40 Si11 1.616479 1_555
O41 Si10 1.616814 1_555
O42 Si9 1.640146 1_455
O43 Si12 1.659699 1_555
O43 Si0 1.661953 1_555
O44 Si14 1.638928 1_555
O44 Si16 1.642640 1_655
O45 Si15 1.638925 1_555
O45 Si13 1.642634 1_555
O46 Si16 1.616814 1_545
O47 Si15 1.640142 1_565
O48 Si16 1.629971 1_555
O49 Si15 1.644388 1_555
O50 Si4 1.616478 1_555
O51 Si17 1.674574 1_555
O51 Si16 1.677850 1_555
O52 Si17 1.611722 1_556
O53 Si17 1.659690 1_555
O53 Si11 1.661958 1_555
