# generated using pymatgen
data_NaCa5ScZn5(SiO3)12
_symmetry_space_group_name_H-M   'P 1'
_cell_length_a   6.72573225
_cell_length_b   6.72573225
_cell_length_c   15.96890816
_cell_angle_alpha   78.22222856
_cell_angle_beta   78.22222856
_cell_angle_gamma   84.12975509
_symmetry_Int_Tables_number   1
_chemical_formula_structural   NaCa5ScZn5(SiO3)12
_chemical_formula_sum   'Na1 Ca5 Sc1 Zn5 Si12 O36'
_cell_volume   690.87906740
_cell_formula_units_Z   1
loop_
 _symmetry_equiv_pos_site_id
 _symmetry_equiv_pos_as_xyz
  1  'x, y, z'
loop_
 _atom_site_type_symbol
 _atom_site_label
 _atom_site_symmetry_multiplicity
 _atom_site_fract_x
 _atom_site_fract_y
 _atom_site_fract_z
 _atom_site_occupancy
  Na  Na0  1  0.69877700  0.30122300  0.00000000  1
  Ca  Ca0  1  0.30315400  0.69727800  0.83115000  1
  Ca  Ca1  1  0.69931500  0.29680700  0.66480400  1
  Ca  Ca2  1  0.29894600  0.70105400  0.50000000  1
  Ca  Ca3  1  0.70319300  0.30068500  0.33519600  1
  Ca  Ca4  1  0.30272200  0.69684600  0.16885000  1
  Sc  Sc0  1  0.08441300  0.91558700  0.00000000  1
  Zn  Zn0  1  0.89384900  0.10415400  0.83253800  1
  Zn  Zn1  1  0.09411500  0.90449000  0.66778600  1
  Zn  Zn2  1  0.90878400  0.09121600  0.50000000  1
  Zn  Zn3  1  0.09551000  0.90588500  0.33221400  1
  Zn  Zn4  1  0.89584600  0.10615100  0.16746200  1
  Si  Si0  1  0.80931100  0.61721800  0.82952600  1
  Si  Si1  1  0.37796700  0.19889500  0.83706900  1
  Si  Si2  1  0.62306500  0.80261100  0.66221900  1
  Si  Si3  1  0.19130600  0.38051800  0.67085900  1
  Si  Si4  1  0.80690400  0.61919700  0.49489500  1
  Si  Si5  1  0.38080300  0.19309600  0.50510500  1
  Si  Si6  1  0.61948200  0.80869400  0.32914100  1
  Si  Si7  1  0.19738900  0.37693500  0.33778100  1
  Si  Si8  1  0.80110500  0.62203300  0.16293100  1
  Si  Si9  1  0.38278200  0.19068900  0.17047400  1
  Si  Si10  1  0.61720400  0.80113300  0.99465500  1
  Si  Si11  1  0.19886700  0.38279600  0.00534500  1
  O  O0  1  0.62943000  0.66917200  0.91552800  1
  O  O1  1  0.90224700  0.38988800  0.85728200  1
  O  O2  1  0.97168900  0.79520500  0.80002700  1
  O  O3  1  0.20867400  0.02832400  0.86894400  1
  O  O4  1  0.60706300  0.11266900  0.80590900  1
  O  O5  1  0.67170600  0.62797500  0.75028400  1
  O  O6  1  0.33024900  0.37036100  0.74854100  1
  O  O7  1  0.39189100  0.88546200  0.69315400  1
  O  O8  1  0.79422100  0.97030900  0.63190100  1
  O  O9  1  0.02662300  0.20669100  0.70050400  1
  O  O10  1  0.10937900  0.61123300  0.63960000  1
  O  O11  1  0.63240500  0.66672500  0.58350000  1
  O  O12  1  0.36848000  0.33183000  0.58309500  1
  O  O13  1  0.88875200  0.38793300  0.52546100  1
  O  O14  1  0.97356700  0.79125700  0.46472500  1
  O  O15  1  0.20874300  0.02643300  0.53527500  1
  O  O16  1  0.61206700  0.11124800  0.47453900  1
  O  O17  1  0.66817000  0.63152000  0.41690500  1
  O  O18  1  0.33327500  0.36759500  0.41650000  1
  O  O19  1  0.38876700  0.89062100  0.36040000  1
  O  O20  1  0.79330900  0.97337700  0.29949600  1
  O  O21  1  0.02969100  0.20577900  0.36809900  1
  O  O22  1  0.11453800  0.60810900  0.30684600  1
  O  O23  1  0.62963900  0.66975100  0.25145900  1
  O  O24  1  0.37202500  0.32829400  0.24971600  1
  O  O25  1  0.88733100  0.39293700  0.19409100  1
  O  O26  1  0.97167600  0.79132600  0.13105600  1
  O  O27  1  0.20479500  0.02831100  0.19997300  1
  O  O28  1  0.61011200  0.09775300  0.14271800  1
  O  O29  1  0.66258700  0.63711600  0.08561700  1
  O  O30  1  0.33082800  0.37057000  0.08447200  1
  O  O31  1  0.38259600  0.88130100  0.02412600  1
  O  O32  1  0.79236700  0.96528400  0.96539700  1
  O  O33  1  0.03471600  0.20763300  0.03460300  1
  O  O34  1  0.11869900  0.61740400  0.97587400  1
  O  O35  1  0.36288400  0.33741300  0.91438300  1
loop_
_geom_bond_atom_site_label_1
_geom_bond_atom_site_label_2
_geom_bond_distance
_geom_bond_site_symmetry_2
Na0 O1 2.400278 1_554
Na0 O28 2.400278 1_555
Na0 O32 2.425567 1_544
Na0 O33 2.425567 1_655
Na0 O30 2.611394 1_555
Na0 O0 2.611394 1_554
Na0 O29 2.836324 1_555
Na0 O35 2.836324 1_554
Ca0 O7 2.300695 1_555
Ca0 O34 2.372303 1_555
Ca0 O2 2.380991 1_455
Ca0 O3 2.414138 1_565
Ca0 O35 2.547926 1_555
Ca0 O5 2.594578 1_555
Ca0 O6 2.758978 1_555
Ca0 O0 2.772206 1_555
Ca1 O13 2.322910 1_555
Ca1 O4 2.333090 1_555
Ca1 O8 2.356490 1_545
Ca1 O9 2.374195 1_655
Ca1 O11 2.601730 1_555
Ca1 O6 2.618811 1_555
Ca1 O12 2.767969 1_555
Ca1 O5 2.812818 1_555
Ca2 O10 2.325423 1_555
Ca2 O19 2.325423 1_555
Ca2 O15 2.359380 1_565
Ca2 O14 2.359380 1_455
Ca2 O12 2.610907 1_555
Ca2 O17 2.610907 1_555
Ca2 O18 2.801865 1_555
Ca2 O11 2.801865 1_555
Ca3 O16 2.322910 1_555
Ca3 O25 2.333090 1_555
Ca3 O21 2.356490 1_655
Ca3 O20 2.374195 1_545
Ca3 O18 2.601730 1_555
Ca3 O23 2.618811 1_555
Ca3 O17 2.767969 1_555
Ca3 O24 2.812818 1_555
Ca4 O22 2.300695 1_555
Ca4 O31 2.372303 1_555
Ca4 O27 2.380991 1_565
Ca4 O26 2.414138 1_455
Ca4 O29 2.547926 1_555
Ca4 O24 2.594578 1_555
Ca4 O23 2.758978 1_555
Ca4 O30 2.772206 1_555
O0 Si10 1.670798 1_555
O0 Si0 1.703833 1_555
O1 Si0 1.601823 1_555
O1 Zn0 2.047885 1_555
O2 Si0 1.635494 1_555
O2 Zn1 2.111403 1_655
O2 Zn0 2.228953 1_565
O3 Si1 1.632133 1_555
O3 Sc0 2.102639 1_546
O3 Zn0 2.289584 1_455
O4 Si1 1.606277 1_555
O4 Zn0 2.051061 1_555
O5 Si0 1.700016 1_555
O5 Si2 1.702702 1_555
O6 Si3 1.685931 1_555
O6 Si1 1.695714 1_555
O7 Si2 1.610463 1_555
O7 Zn1 2.109301 1_555
O8 Si2 1.626907 1_555
O8 Zn2 2.111381 1_565
O8 Zn1 2.185935 1_655
O9 Si3 1.625616 1_555
O9 Zn0 2.117146 1_455
O9 Zn1 2.181319 1_545
O10 Si3 1.606808 1_555
O10 Zn1 2.098927 1_555
O11 Si2 1.686545 1_555
O11 Si4 1.706341 1_555
O12 Si5 1.686720 1_555
O12 Si3 1.707968 1_555
O13 Si4 1.607864 1_555
O13 Zn2 2.102360 1_555
O14 Si4 1.626362 1_555
O14 Zn3 2.121224 1_655
O14 Zn2 2.182009 1_565
O15 Si5 1.626362 1_555
O15 Zn1 2.121224 1_545
O15 Zn2 2.182009 1_455
O16 Si5 1.607864 1_555
O16 Zn2 2.102360 1_555
O17 Si4 1.686720 1_555
O17 Si6 1.707968 1_555
O18 Si7 1.686545 1_555
O18 Si5 1.706341 1_555
O19 Si6 1.606808 1_555
O19 Zn3 2.098927 1_555
O20 Si6 1.625616 1_555
O20 Zn4 2.117146 1_565
O20 Zn3 2.181319 1_655
O21 Si7 1.626907 1_555
O21 Zn2 2.111381 1_455
O21 Zn3 2.185935 1_545
O22 Si7 1.610463 1_555
O22 Zn3 2.109301 1_555
O23 Si6 1.685931 1_555
O23 Si8 1.695714 1_555
O24 Si9 1.700016 1_555
O24 Si7 1.702702 1_555
O25 Si8 1.606277 1_555
O25 Zn4 2.051061 1_555
O26 Si8 1.632133 1_555
O26 Sc0 2.102639 1_655
O26 Zn4 2.289584 1_565
O27 Si9 1.635494 1_555
O27 Zn3 2.111403 1_545
O27 Zn4 2.228953 1_455
O28 Si9 1.601823 1_555
O28 Zn4 2.047885 1_555
O29 Si8 1.673803 1_555
O29 Si10 1.696466 1_554
O30 Si11 1.670798 1_555
O30 Si9 1.703833 1_555
O31 Si10 1.621239 1_554
O31 Sc0 2.099568 1_555
O32 Si10 1.629687 1_555
O32 Sc0 2.123351 1_656
O32 Zn0 2.137699 1_565
O33 Si11 1.629687 1_555
O33 Sc0 2.123351 1_545
O33 Zn4 2.137699 1_455
O34 Si11 1.621239 1_556
O34 Sc0 2.099568 1_556
O35 Si1 1.673803 1_555
O35 Si11 1.696466 1_556
