# generated using pymatgen
data_Na2SiBSbO7
_symmetry_space_group_name_H-M   'P 1'
_cell_length_a   6.63995100
_cell_length_b   5.44211200
_cell_length_c   9.38537847
_cell_angle_alpha   86.87609579
_cell_angle_beta   90.00000000
_cell_angle_gamma   90.00000000
_symmetry_Int_Tables_number   1
_chemical_formula_structural   Na2SiBSbO7
_chemical_formula_sum   'Na4 Si2 B2 Sb2 O14'
_cell_volume   338.64004108
_cell_formula_units_Z   2
loop_
 _symmetry_equiv_pos_site_id
 _symmetry_equiv_pos_as_xyz
  1  'x, y, z'
loop_
 _atom_site_type_symbol
 _atom_site_label
 _atom_site_symmetry_multiplicity
 _atom_site_fract_x
 _atom_site_fract_y
 _atom_site_fract_z
 _atom_site_occupancy
  Na  Na0  1  0.00525900  0.76211400  0.80398900  1
  Na  Na1  1  0.49474100  0.76211400  0.80398900  1
  Na  Na2  1  0.50525900  0.23788600  0.19601100  1
  Na  Na3  1  0.99474100  0.23788600  0.19601100  1
  Si  Si0  1  0.75000000  0.26877900  0.56387500  1
  Si  Si1  1  0.25000000  0.73122100  0.43612500  1
  B  B0  1  0.25000000  0.27866600  0.92099100  1
  B  B1  1  0.75000000  0.72133400  0.07900900  1
  Sb  Sb0  1  0.25000000  0.21689900  0.65534800  1
  Sb  Sb1  1  0.75000000  0.78310100  0.34465200  1
  O  O0  1  0.75000000  0.68233900  0.94333200  1
  O  O1  1  0.25000000  0.04843800  0.85338500  1
  O  O2  1  0.25000000  0.46834700  0.80513100  1
  O  O3  1  0.94750200  0.19366200  0.66127200  1
  O  O4  1  0.55249800  0.19366200  0.66127200  1
  O  O5  1  0.25000000  0.87664500  0.58560600  1
  O  O6  1  0.75000000  0.57097800  0.52349100  1
  O  O7  1  0.25000000  0.42902200  0.47650900  1
  O  O8  1  0.75000000  0.12335500  0.41439400  1
  O  O9  1  0.44750200  0.80633800  0.33872800  1
  O  O10  1  0.05249800  0.80633800  0.33872800  1
  O  O11  1  0.75000000  0.53165300  0.19486900  1
  O  O12  1  0.75000000  0.95156200  0.14661500  1
  O  O13  1  0.25000000  0.31766100  0.05666800  1
loop_
_geom_bond_atom_site_label_1
_geom_bond_atom_site_label_2
_geom_bond_distance
_geom_bond_site_symmetry_2
Na0 O0 2.170165 1_455
Na0 O2 2.279249 1_555
Na0 O1 2.315711 1_565
Na0 O5 2.662892 1_555
Na0 O3 2.667200 1_465
Na1 O0 2.170165 1_555
Na1 O2 2.279249 1_555
Na1 O1 2.315711 1_565
Na1 O5 2.662892 1_555
Na1 O4 2.667200 1_565
Na2 O13 2.170165 1_555
Na2 O11 2.279249 1_555
Na2 O12 2.315711 1_545
Na2 O8 2.662892 1_555
Na2 O9 2.667200 1_545
Na3 O13 2.170165 1_655
Na3 O11 2.279249 1_555
Na3 O12 2.315711 1_545
Na3 O8 2.662892 1_555
Na3 O10 2.667200 1_645
B0 O13 1.302300 1_556
B0 O1 1.434947 1_555
B0 O2 1.457961 1_555
B1 O0 1.302300 1_554
B1 O12 1.434947 1_555
B1 O11 1.457961 1_555
O1 Sb0 2.027156 1_555
O2 Sb0 2.014545 1_555
O3 Si0 1.637607 1_555
O3 Sb0 2.013126 1_655
O4 Si0 1.637607 1_555
O4 Sb0 2.013126 1_555
O5 Si1 1.647901 1_555
O5 Sb0 1.997333 1_565
O6 Si0 1.667462 1_555
O6 Sb1 1.984620 1_555
O7 Si1 1.667462 1_555
O7 Sb0 1.984620 1_555
O8 Si0 1.647901 1_555
O8 Sb1 1.997333 1_545
O9 Si1 1.637607 1_555
O9 Sb1 2.013126 1_555
O10 Si1 1.637607 1_555
O10 Sb1 2.013126 1_455
O11 Sb1 2.014545 1_555
O12 Sb1 2.027156 1_555
