# generated using pymatgen
data_BaSiO3
_symmetry_space_group_name_H-M   'P 1'
_cell_length_a   4.63802200
_cell_length_b   5.69167400
_cell_length_c   12.70790900
_cell_angle_alpha   90.00000000
_cell_angle_beta   90.00000000
_cell_angle_gamma   90.00000000
_symmetry_Int_Tables_number   1
_chemical_formula_structural   BaSiO3
_chemical_formula_sum   'Ba4 Si4 O12'
_cell_volume   335.46476985
_cell_formula_units_Z   4
loop_
 _symmetry_equiv_pos_site_id
 _symmetry_equiv_pos_as_xyz
  1  'x, y, z'
loop_
 _atom_site_type_symbol
 _atom_site_label
 _atom_site_symmetry_multiplicity
 _atom_site_fract_x
 _atom_site_fract_y
 _atom_site_fract_z
 _atom_site_occupancy
  Ba  Ba0  1  0.72941000  0.81560000  0.85790800  1
  Ba  Ba1  1  0.22941000  0.68440000  0.14209200  1
  Ba  Ba2  1  0.27059000  0.31560000  0.64209200  1
  Ba  Ba3  1  0.77059000  0.18440000  0.35790800  1
  Si  Si0  1  0.18107900  0.30347200  0.92703100  1
  Si  Si1  1  0.68107900  0.19652800  0.07296900  1
  Si  Si2  1  0.81892100  0.80347200  0.57296900  1
  Si  Si3  1  0.31892100  0.69652800  0.42703100  1
  O  O0  1  0.24022400  0.58017300  0.90635600  1
  O  O1  1  0.74022400  0.91982700  0.09364400  1
  O  O2  1  0.75977600  0.08017300  0.59364400  1
  O  O3  1  0.25977600  0.41982700  0.40635600  1
  O  O4  1  0.24951200  0.12164100  0.83252000  1
  O  O5  1  0.74951200  0.37835900  0.16748000  1
  O  O6  1  0.75048800  0.62164100  0.66748000  1
  O  O7  1  0.25048800  0.87835900  0.33252000  1
  O  O8  1  0.67084100  0.72317600  0.45744200  1
  O  O9  1  0.17084100  0.77682400  0.54255800  1
  O  O10  1  0.32915900  0.22317600  0.04255800  1
  O  O11  1  0.82915900  0.27682400  0.95744200  1
loop_
_geom_bond_atom_site_label_1
_geom_bond_atom_site_label_2
_geom_bond_distance
_geom_bond_site_symmetry_2
Ba0 O6 2.661651 1_555
Ba0 O0 2.705973 1_555
Ba0 O0 2.790615 1_655
Ba0 O4 2.844704 1_565
Ba0 O11 2.950469 1_565
Ba0 O4 2.992855 1_665
Ba0 O1 3.054295 1_556
Ba0 O11 3.349265 1_555
Ba1 O7 2.661651 1_555
Ba1 O1 2.705973 1_455
Ba1 O1 2.790615 1_555
Ba1 O5 2.844704 1_455
Ba1 O10 2.950469 1_555
Ba1 O5 2.992855 1_555
Ba1 O0 3.054295 1_554
Ba1 O10 3.349265 1_565
Ba2 O4 2.661651 1_555
Ba2 O2 2.705973 1_555
Ba2 O2 2.790615 1_455
Ba2 O6 2.844704 1_555
Ba2 O9 2.950469 1_555
Ba2 O6 2.992855 1_455
Ba2 O3 3.054295 1_555
Ba2 O9 3.349265 1_545
Ba3 O5 2.661651 1_555
Ba3 O3 2.705973 1_655
Ba3 O3 2.790615 1_555
Ba3 O7 2.844704 1_645
Ba3 O8 2.950469 1_545
Ba3 O7 2.992855 1_545
Ba3 O2 3.054295 1_555
Ba3 O8 3.349265 1_555
O0 Si0 1.620051 1_555
O1 Si1 1.620051 1_565
O2 Si2 1.620051 1_545
O3 Si3 1.620051 1_555
O4 Si0 1.616878 1_555
O5 Si1 1.616878 1_555
O6 Si2 1.616878 1_555
O7 Si3 1.616878 1_555
O8 Si2 1.684012 1_555
O8 Si3 1.684184 1_555
O9 Si3 1.684012 1_555
O9 Si2 1.684184 1_455
O10 Si0 1.684012 1_554
O10 Si1 1.684184 1_555
O11 Si1 1.684012 1_556
O11 Si0 1.684184 1_655
