# generated using pymatgen
data_Sm2WO6
_symmetry_space_group_name_H-M   'P 1'
_cell_length_a   10.08227398
_cell_length_b   10.08227398
_cell_length_c   5.52264200
_cell_angle_alpha   75.79597695
_cell_angle_beta   75.79597695
_cell_angle_gamma   68.63849964
_symmetry_Int_Tables_number   1
_chemical_formula_structural   Sm2WO6
_chemical_formula_sum   'Sm8 W4 O24'
_cell_volume   499.21509383
_cell_formula_units_Z   4
loop_
 _symmetry_equiv_pos_site_id
 _symmetry_equiv_pos_as_xyz
  1  'x, y, z'
loop_
 _atom_site_type_symbol
 _atom_site_label
 _atom_site_symmetry_multiplicity
 _atom_site_fract_x
 _atom_site_fract_y
 _atom_site_fract_z
 _atom_site_occupancy
  Sm  Sm0  1  0.94238600  0.71239300  0.38447300  1
  Sm  Sm1  1  0.71239300  0.94238600  0.88447300  1
  Sm  Sm2  1  0.36780300  0.63219700  0.25000000  1
  Sm  Sm3  1  0.89263300  0.10736700  0.25000000  1
  Sm  Sm4  1  0.10736700  0.89263300  0.75000000  1
  Sm  Sm5  1  0.63219700  0.36780300  0.75000000  1
  Sm  Sm6  1  0.28760700  0.05761400  0.11552700  1
  Sm  Sm7  1  0.05761400  0.28760700  0.61552700  1
  W  W0  1  0.80007400  0.50484600  0.06511400  1
  W  W1  1  0.50484600  0.80007400  0.56511400  1
  W  W2  1  0.49515400  0.19992600  0.43488600  1
  W  W3  1  0.19992600  0.49515400  0.93488600  1
  O  O0  1  0.89299800  0.92280100  0.07852300  1
  O  O1  1  0.92280100  0.89299800  0.57852300  1
  O  O2  1  0.52745900  0.93604700  0.26761900  1
  O  O3  1  0.78346700  0.67922100  0.14627700  1
  O  O4  1  0.93604700  0.52745900  0.76761900  1
  O  O5  1  0.67922100  0.78346700  0.64627700  1
  O  O6  1  0.82502300  0.38171800  0.37741800  1
  O  O7  1  0.38171800  0.82502300  0.87741800  1
  O  O8  1  0.61385000  0.54382500  0.02234000  1
  O  O9  1  0.31581700  0.83897800  0.42057600  1
  O  O10  1  0.54382500  0.61385000  0.52234000  1
  O  O11  1  0.83897800  0.31581700  0.92057600  1
  O  O12  1  0.16102200  0.68418300  0.07942400  1
  O  O13  1  0.45617500  0.38615000  0.47766000  1
  O  O14  1  0.68418300  0.16102200  0.57942400  1
  O  O15  1  0.38615000  0.45617500  0.97766000  1
  O  O16  1  0.61828200  0.17497700  0.12258200  1
  O  O17  1  0.17497700  0.61828200  0.62258200  1
  O  O18  1  0.32077900  0.21653300  0.35372300  1
  O  O19  1  0.06395300  0.47254100  0.23238100  1
  O  O20  1  0.21653300  0.32077900  0.85372300  1
  O  O21  1  0.47254100  0.06395300  0.73238100  1
  O  O22  1  0.07719900  0.10700200  0.42147700  1
  O  O23  1  0.10700200  0.07719900  0.92147700  1
loop_
_geom_bond_atom_site_label_1
_geom_bond_atom_site_label_2
_geom_bond_distance
_geom_bond_site_symmetry_2
O0 Sm1 2.257220 1_554
O0 Sm3 2.284228 1_565
O0 Sm0 2.342535 1_555
O0 Sm4 2.433742 1_654
O1 Sm0 2.257220 1_555
O1 Sm4 2.284228 1_655
O1 Sm1 2.342535 1_555
O1 Sm3 2.433742 1_565
O2 W1 1.889241 1_555
O2 Sm1 2.458103 1_554
O2 Sm6 2.527461 1_565
O3 W0 1.858845 1_555
O3 Sm0 2.459724 1_555
O3 Sm1 2.623866 1_554
O4 W0 1.889241 1_556
O4 Sm0 2.458103 1_555
O4 Sm7 2.527461 1_655
O5 W1 1.858845 1_555
O5 Sm1 2.459724 1_555
O5 Sm0 2.623866 1_555
O6 W0 1.874508 1_555
O6 Sm5 2.475288 1_555
O6 Sm7 2.721908 1_655
O6 Sm3 2.820860 1_555
O7 W1 1.874508 1_555
O7 Sm2 2.475288 1_556
O7 Sm6 2.721908 1_566
O7 Sm4 2.820860 1_555
O8 W0 1.835768 1_555
O8 Sm2 2.436695 1_555
O8 Sm5 2.525894 1_554
O9 W1 2.114615 1_555
O9 Sm2 2.331111 1_555
O9 Sm6 2.394603 1_565
O9 Sm4 2.407849 1_555
O10 W1 1.835768 1_555
O10 Sm5 2.436695 1_555
O10 Sm2 2.525894 1_555
O11 W0 2.114615 1_556
O11 Sm5 2.331111 1_555
O11 Sm7 2.394603 1_655
O11 Sm3 2.407849 1_556
O12 W3 2.114615 1_554
O12 Sm2 2.331111 1_555
O12 Sm0 2.394603 1_455
O12 Sm4 2.407849 1_554
O13 W2 1.835768 1_555
O13 Sm2 2.436695 1_555
O13 Sm5 2.525894 1_555
O14 W2 2.114615 1_555
O14 Sm5 2.331111 1_555
O14 Sm1 2.394603 1_545
O14 Sm3 2.407849 1_555
O15 W3 1.835768 1_555
O15 Sm5 2.436695 1_555
O15 Sm2 2.525894 1_556
O16 W2 1.874508 1_555
O16 Sm5 2.475288 1_554
O16 Sm1 2.721908 1_544
O16 Sm3 2.820860 1_555
O17 W3 1.874508 1_555
O17 Sm2 2.475288 1_555
O17 Sm0 2.721908 1_455
O17 Sm4 2.820860 1_555
O18 W2 1.858845 1_555
O18 Sm6 2.459724 1_555
O18 Sm7 2.623866 1_555
O19 W3 1.889241 1_554
O19 Sm7 2.458103 1_555
O19 Sm0 2.527461 1_455
O20 W3 1.858845 1_555
O20 Sm7 2.459724 1_555
O20 Sm6 2.623866 1_556
O21 W2 1.889241 1_555
O21 Sm6 2.458103 1_556
O21 Sm1 2.527461 1_545
O22 Sm7 2.257220 1_555
O22 Sm3 2.284228 1_455
O22 Sm6 2.342535 1_555
O22 Sm4 2.433742 1_545
O23 Sm6 2.257220 1_556
O23 Sm4 2.284228 1_545
O23 Sm7 2.342535 1_555
O23 Sm3 2.433742 1_456
