# generated using pymatgen
data_Sc6N2O5
_symmetry_space_group_name_H-M   'P 1'
_cell_length_a   5.46561500
_cell_length_b   5.46964145
_cell_length_c   5.47295966
_cell_angle_alpha   99.79910369
_cell_angle_beta   99.84097128
_cell_angle_gamma   99.69275772
_symmetry_Int_Tables_number   1
_chemical_formula_structural   Sc6N2O5
_chemical_formula_sum   'Sc6 N2 O5'
_cell_volume   155.53482174
_cell_formula_units_Z   1
loop_
 _symmetry_equiv_pos_site_id
 _symmetry_equiv_pos_as_xyz
  1  'x, y, z'
loop_
 _atom_site_type_symbol
 _atom_site_label
 _atom_site_symmetry_multiplicity
 _atom_site_fract_x
 _atom_site_fract_y
 _atom_site_fract_z
 _atom_site_occupancy
  Sc  Sc0  1  0.15422400  0.57403700  0.27623100  1
  Sc  Sc1  1  0.71808100  0.85246000  0.43161500  1
  Sc  Sc2  1  0.43382600  0.72601100  0.85993200  1
  Sc  Sc3  1  0.56312200  0.27058700  0.14881500  1
  Sc  Sc4  1  0.27848400  0.14191700  0.55625100  1
  Sc  Sc5  1  0.85229800  0.43569000  0.72341700  1
  N  N0  1  0.37515000  0.92220300  0.22359700  1
  N  N1  1  0.50161300  0.49942400  0.50086300  1
  O  O0  1  0.07607200  0.77215500  0.62409700  1
  O  O1  1  0.77638600  0.62212900  0.07575500  1
  O  O2  1  0.22229200  0.37701700  0.92054500  1
  O  O3  1  0.92196700  0.22601200  0.38050000  1
  O  O4  1  0.62648300  0.08035800  0.77838400  1
loop_
_geom_bond_atom_site_label_1
_geom_bond_atom_site_label_2
_geom_bond_distance
_geom_bond_site_symmetry_2
N0 Sc3 2.145710 1_565
N0 Sc1 2.148004 1_555
N0 Sc0 2.167689 1_555
N0 Sc2 2.196098 1_554
N0 Sc4 2.199049 1_565
N1 Sc5 2.202358 1_555
N1 Sc1 2.214770 1_555
N1 Sc0 2.217388 1_555
N1 Sc4 2.219914 1_555
N1 Sc3 2.221312 1_555
N1 Sc2 2.260448 1_555
O0 Sc0 2.170942 1_555
O0 Sc1 2.207587 1_455
O0 Sc2 2.228763 1_555
O0 Sc5 2.233396 1_455
O0 Sc4 2.257162 1_565
O1 Sc5 2.162665 1_554
O1 Sc3 2.209540 1_555
O1 Sc1 2.234736 1_555
O1 Sc0 2.245968 1_655
O1 Sc2 2.248172 1_554
O2 Sc2 2.166576 1_555
O2 Sc0 2.181206 1_556
O2 Sc5 2.224193 1_455
O2 Sc3 2.277507 1_556
O2 Sc4 2.278730 1_555
O3 Sc5 2.154355 1_555
O3 Sc4 2.178413 1_655
O3 Sc3 2.220394 1_555
O3 Sc1 2.242576 1_545
O3 Sc0 2.316113 1_655
O4 Sc4 2.184864 1_555
O4 Sc2 2.198244 1_545
O4 Sc5 2.215704 1_555
O4 Sc3 2.226208 1_556
O4 Sc1 2.266266 1_545
