# generated using pymatgen
data_Li4Mn3V3(TeO8)2
_symmetry_space_group_name_H-M   'P 1'
_cell_length_a   6.06694512
_cell_length_b   6.06694512
_cell_length_c   10.22379755
_cell_angle_alpha   89.40128946
_cell_angle_beta   89.40128946
_cell_angle_gamma   57.69753055
_symmetry_Int_Tables_number   1
_chemical_formula_structural   Li4Mn3V3(TeO8)2
_chemical_formula_sum   'Li4 Mn3 V3 Te2 O16'
_cell_volume   318.05402342
_cell_formula_units_Z   1
loop_
 _symmetry_equiv_pos_site_id
 _symmetry_equiv_pos_as_xyz
  1  'x, y, z'
loop_
 _atom_site_type_symbol
 _atom_site_label
 _atom_site_symmetry_multiplicity
 _atom_site_fract_x
 _atom_site_fract_y
 _atom_site_fract_z
 _atom_site_occupancy
  Li  Li0  1  0.34226600  0.34226600  0.90528400  1
  Li  Li1  1  0.99435000  0.99435000  0.98923900  1
  Li  Li2  1  0.99462700  0.99462700  0.49086100  1
  Li  Li3  1  0.66680000  0.66680000  0.40061700  1
  Mn  Mn0  1  0.16466400  0.16466400  0.21486500  1
  Mn  Mn1  1  0.83148600  0.33678500  0.71332800  1
  Mn  Mn2  1  0.33678500  0.83148600  0.71332800  1
  V  V0  1  0.64777400  0.16674200  0.21946200  1
  V  V1  1  0.16674200  0.64777400  0.21946200  1
  V  V2  1  0.82495000  0.82495000  0.73071200  1
  Te  Te0  1  0.33070400  0.33070400  0.50307600  1
  Te  Te1  1  0.65584600  0.65584600  0.99622600  1
  O  O0  1  0.66695900  0.16095500  0.59872300  1
  O  O1  1  0.48406500  0.48406500  0.33110000  1
  O  O2  1  0.33995300  0.33995300  0.10670400  1
  O  O3  1  0.99513600  0.99513600  0.30568300  1
  O  O4  1  0.99123600  0.99123600  0.80052300  1
  O  O5  1  0.16095500  0.66695900  0.59872300  1
  O  O6  1  0.50144600  0.02471400  0.31992500  1
  O  O7  1  0.02471400  0.50144600  0.31992500  1
  O  O8  1  0.85442100  0.85442100  0.11336300  1
  O  O9  1  0.15745500  0.15745500  0.59706600  1
  O  O10  1  0.98396500  0.53152900  0.83085600  1
  O  O11  1  0.53152900  0.98396500  0.83085600  1
  O  O12  1  0.67787100  0.67787100  0.61585800  1
  O  O13  1  0.82676700  0.32109300  0.09519400  1
  O  O14  1  0.52486700  0.52486700  0.85156400  1
  O  O15  1  0.32109300  0.82676700  0.09519400  1
loop_
_geom_bond_atom_site_label_1
_geom_bond_atom_site_label_2
_geom_bond_distance
_geom_bond_site_symmetry_2
Li0 O10 1.992851 1_455
Li0 O11 1.992851 1_545
Li0 O14 2.010594 1_555
Li0 O2 2.059131 1_556
Li1 O4 1.930073 1_555
Li1 O8 1.943464 1_556
Li1 O15 2.001145 1_656
Li1 O13 2.001145 1_566
Li2 O3 1.893166 1_555
Li2 O0 2.004924 1_565
Li2 O5 2.004924 1_655
Li2 O9 2.053925 1_665
Li3 O7 2.013409 1_655
Li3 O6 2.013409 1_565
Li3 O1 2.076023 1_555
Li3 O12 2.205125 1_555
Mn0 O3 2.017053 1_445
Mn0 O6 2.054773 1_555
Mn0 O7 2.054773 1_555
Mn0 O13 2.132821 1_455
Mn0 O15 2.132821 1_545
Mn0 O2 2.155077 1_555
Mn1 O4 1.984051 1_545
Mn1 O12 2.014675 1_555
Mn1 O9 2.045946 1_655
Mn1 O14 2.114249 1_555
Mn1 O0 2.166978 1_555
Mn1 O10 2.217336 1_555
Mn2 O4 1.984051 1_455
Mn2 O12 2.014675 1_555
Mn2 O9 2.045946 1_565
Mn2 O14 2.114249 1_555
Mn2 O5 2.166978 1_555
Mn2 O11 2.217336 1_555
O0 Te0 1.988418 1_555
O0 V2 2.185517 1_545
O1 V0 1.993517 1_555
O1 V1 1.993517 1_555
O1 Te0 2.383215 1_555
O2 V1 1.960396 1_555
O2 V0 1.960396 1_555
O3 V0 1.994213 1_565
O3 V1 1.994213 1_655
O4 V2 1.913853 1_555
O5 Te0 1.988418 1_555
O5 V2 2.185517 1_455
O6 V0 1.834557 1_555
O6 Te0 2.449985 1_555
O7 V1 1.834557 1_555
O7 Te0 2.449985 1_555
O8 V1 1.953052 1_655
O8 V0 1.953052 1_565
O8 Te1 2.438967 1_554
O9 Te0 2.066772 1_555
O10 V2 1.815222 1_555
O10 Te1 2.396203 1_555
O11 V2 1.815222 1_555
O11 Te1 2.396203 1_555
O12 V2 1.966243 1_555
O13 Te1 1.987938 1_554
O13 V0 2.168754 1_555
O14 Te1 2.043122 1_555
O15 Te1 1.987938 1_554
O15 V1 2.168754 1_555
