# generated using pymatgen
data_Li4MnFe3(BO3)4
_symmetry_space_group_name_H-M   'P 1'
_cell_length_a   5.25381338
_cell_length_b   5.22821477
_cell_length_c   20.86099616
_cell_angle_alpha   89.03816475
_cell_angle_beta   91.11459567
_cell_angle_gamma   59.80429268
_symmetry_Int_Tables_number   1
_chemical_formula_structural   Li4MnFe3(BO3)4
_chemical_formula_sum   'Li8 Mn2 Fe6 B8 O24'
_cell_volume   494.93290448
_cell_formula_units_Z   2
loop_
 _symmetry_equiv_pos_site_id
 _symmetry_equiv_pos_as_xyz
  1  'x, y, z'
loop_
 _atom_site_type_symbol
 _atom_site_label
 _atom_site_symmetry_multiplicity
 _atom_site_fract_x
 _atom_site_fract_y
 _atom_site_fract_z
 _atom_site_occupancy
  Li  Li0  1  0.32910875  0.65493080  0.66640725  1
  Li  Li1  1  0.35171633  0.66639517  0.91408884  1
  Li  Li2  1  0.32583889  0.66639201  0.16687692  1
  Li  Li3  1  0.33865058  0.67642581  0.41776759  1
  Li  Li4  1  0.64107601  0.34328286  0.79091916  1
  Li  Li5  1  0.64925363  0.36727349  0.54199662  1
  Li  Li6  1  0.65381283  0.32128224  0.29338200  1
  Li  Li7  1  0.66767078  0.34847787  0.04160729  1
  Mn  Mn0  1  0.33542331  0.00745264  0.05833012  1
  Mn  Mn1  1  0.66774559  -0.00022902  0.43276719  1
  Fe  Fe0  1  0.32597030  0.02092910  0.56032846  1
  Fe  Fe1  1  0.68771088  0.99474716  0.93374758  1
  Fe  Fe2  1  0.00208704  0.31775970  0.68493479  1
  Fe  Fe3  1  0.99382701  0.33244567  0.18371993  1
  Fe  Fe4  1  0.98885221  0.66710140  0.80791023  1
  Fe  Fe5  1  -0.00003869  0.65984704  0.30876030  1
  B  B0  1  0.01032112  0.32811326  0.93523697  1
  B  B1  1  0.99827072  0.33485124  0.43708208  1
  B  B2  1  0.32955654  0.00451887  0.81167825  1
  B  B3  1  0.32726970  0.99326071  0.31114697  1
  B  B4  1  0.66992746  0.99490590  0.68702487  1
  B  B5  1  0.66649147  0.00619707  0.18744013  1
  B  B6  1  0.98653086  0.67964905  0.56378315  1
  B  B7  1  0.00101002  0.66855172  0.06192022  1
  O  O0  1  0.06428969  0.25557177  0.79132792  1
  O  O1  1  0.06242256  0.24438695  0.29182547  1
  O  O2  1  0.26661555  0.05844433  0.95069529  1
  O  O3  1  0.02931696  0.57429602  0.91587830  1
  O  O4  1  0.24934139  0.06130415  0.45258225  1
  O  O5  1  0.02853375  0.57432872  0.41689200  1
  O  O6  1  0.57738059  0.03030488  0.82576952  1
  O  O7  1  0.25462700  0.66625798  0.57087897  1
  O  O8  1  0.57672127  0.01469135  0.32528991  1
  O  O9  1  0.27441946  0.64318346  0.06954713  1
  O  O10  1  0.34388246  0.73398234  0.81898991  1
  O  O11  1  0.34564861  0.72012047  0.31860808  1
  O  O12  1  0.64730731  0.26986053  0.69243786  1
  O  O13  1  0.64302293  0.28063850  0.19424391  1
  O  O14  1  0.73735167  0.35078106  0.94141974  1
  O  O15  1  0.42500514  0.97473422  0.66876882  1
  O  O16  1  0.72306601  0.36625635  0.44327412  1
  O  O17  1  0.42189407  0.98762919  0.16744151  1
  O  O18  1  0.96348281  0.42814110  0.57826256  1
  O  O19  1  0.96551080  0.42634828  0.07721654  1
  O  O20  1  0.73518184  0.94214304  0.54259078  1
  O  O21  1  0.75686103  0.93480800  0.04001881  1
  O  O22  1  0.94135128  0.73929786  0.70154989  1
  O  O23  1  0.93748048  0.74912671  0.20183480  1
loop_
_geom_bond_atom_site_label_1
_geom_bond_atom_site_label_2
_geom_bond_distance
_geom_bond_site_symmetry_2
Li0 O12 1.919687 1_555
Li0 O15 1.975100 1_555
Li0 O22 2.011784 1_455
Li0 O7 2.017507 1_555
Li1 O14 1.926998 1_555
Li1 O3 1.981054 1_555
Li1 O10 2.005221 1_555
Li1 O2 2.031841 1_565
Li2 O13 1.927177 1_555
Li2 O17 1.982054 1_555
Li2 O23 2.015612 1_455
Li2 O9 2.056725 1_555
Li3 O16 1.904345 1_555
Li3 O5 1.952913 1_555
Li3 O4 1.977185 1_565
Li3 O11 2.080396 1_555
Li4 O10 1.954689 1_555
Li4 O6 1.959186 1_555
Li4 O0 2.031680 1_655
Li4 O12 2.094161 1_555
Li5 O18 1.971564 1_555
Li5 O7 1.981215 1_555
Li5 O20 2.033159 1_545
Li5 O16 2.102644 1_555
Li6 O8 1.950436 1_555
Li6 O1 1.976424 1_655
Li6 O11 1.979979 1_555
Li6 O13 2.085137 1_555
Li7 O19 1.942142 1_555
Li7 O9 1.963974 1_555
Li7 O21 1.970218 1_545
Li7 O14 2.129712 1_554
Mn0 O21 2.093924 1_545
Mn0 O9 2.094389 1_545
Mn0 O19 2.122725 1_455
Mn0 O2 2.257171 1_554
Mn0 O17 2.302733 1_545
Mn1 O16 2.091799 1_555
Mn1 O4 2.105938 1_555
Mn1 O5 2.111447 1_645
Mn1 O8 2.275216 1_555
Mn1 O20 2.302822 1_545
Fe0 O20 2.018417 1_545
Fe0 O18 2.067711 1_455
Fe0 O7 2.077499 1_545
Fe0 O4 2.263216 1_555
Fe0 O15 2.292584 1_545
Fe1 O14 2.013762 1_565
Fe1 O3 2.068132 1_655
Fe1 O2 2.103255 1_565
Fe1 O21 2.230642 1_556
Fe1 O6 2.295909 1_565
Fe2 O12 2.010245 1_455
Fe2 O15 2.075597 1_545
Fe2 O22 2.098009 1_455
Fe2 O0 2.231416 1_555
Fe2 O18 2.268849 1_455
Fe3 O13 2.008565 1_555
Fe3 O23 2.087957 1_555
Fe3 O17 2.096458 1_645
Fe3 O19 2.253100 1_555
Fe3 O1 2.279110 1_655
Fe4 O0 2.019534 1_655
Fe4 O10 2.072900 1_655
Fe4 O6 2.084174 1_565
Fe4 O22 2.232339 1_555
Fe4 O3 2.279143 1_655
Fe5 O11 2.000840 1_555
Fe5 O1 2.064905 1_555
Fe5 O8 2.099247 1_465
Fe5 O23 2.254665 1_455
Fe5 O5 2.279525 1_555
B0 O14 1.387139 1_455
B0 O3 1.393913 1_555
B0 O2 1.401097 1_555
B1 O16 1.379627 1_555
B1 O5 1.398366 1_655
B1 O4 1.400044 1_655
B2 O10 1.383744 1_545
B2 O6 1.401019 1_555
B2 O0 1.401260 1_555
B3 O11 1.387834 1_555
B3 O1 1.394685 1_565
B3 O8 1.396773 1_565
B4 O12 1.388333 1_565
B4 O15 1.389512 1_555
B4 O22 1.401379 1_555
B5 O13 1.386964 1_555
B5 O17 1.393149 1_545
B5 O23 1.403050 1_545
B6 O7 1.379531 1_655
B6 O20 1.398792 1_555
B6 O18 1.408267 1_555
B7 O9 1.380228 1_555
B7 O21 1.396992 1_455
B7 O19 1.402290 1_455
