# generated using pymatgen
data_NaCd4(GeO3)5
_symmetry_space_group_name_H-M   'P 1'
_cell_length_a   7.24669100
_cell_length_b   8.13547505
_cell_length_c   12.36726622
_cell_angle_alpha   106.87033611
_cell_angle_beta   93.07389267
_cell_angle_gamma   94.53701874
_symmetry_Int_Tables_number   1
_chemical_formula_structural   NaCd4(GeO3)5
_chemical_formula_sum   'Na2 Cd8 Ge10 O30'
_cell_volume   693.30616984
_cell_formula_units_Z   2
loop_
 _symmetry_equiv_pos_site_id
 _symmetry_equiv_pos_as_xyz
  1  'x, y, z'
loop_
 _atom_site_type_symbol
 _atom_site_label
 _atom_site_symmetry_multiplicity
 _atom_site_fract_x
 _atom_site_fract_y
 _atom_site_fract_z
 _atom_site_occupancy
  Na  Na0  1  0.62789900  0.82719300  0.36222900  1
  Na  Na1  1  0.37210100  0.17280700  0.63777100  1
  Cd  Cd0  1  0.93665400  0.90496000  0.85024200  1
  Cd  Cd1  1  0.06334600  0.09504000  0.14975800  1
  Cd  Cd2  1  0.87045600  0.68886500  0.55514800  1
  Cd  Cd3  1  0.12954400  0.31113500  0.44485200  1
  Cd  Cd4  1  0.82873700  0.46268600  0.26442800  1
  Cd  Cd5  1  0.17126300  0.53731400  0.73557200  1
  Cd  Cd6  1  0.72960800  0.26216400  0.97683100  1
  Cd  Cd7  1  0.27039200  0.73783600  0.02316900  1
  Ge  Ge0  1  0.57444300  0.03708300  0.16913300  1
  Ge  Ge1  1  0.42555700  0.96291700  0.83086700  1
  Ge  Ge2  1  0.63994200  0.24145000  0.44521600  1
  Ge  Ge3  1  0.36005800  0.75855000  0.55478400  1
  Ge  Ge4  1  0.68814800  0.49757700  0.77289900  1
  Ge  Ge5  1  0.31185200  0.50242300  0.22710100  1
  Ge  Ge6  1  0.77907700  0.68812400  0.04452500  1
  Ge  Ge7  1  0.22092300  0.31187600  0.95547500  1
  Ge  Ge8  1  0.87550400  0.15098400  0.64781900  1
  Ge  Ge9  1  0.12449600  0.84901600  0.35218100  1
  O  O0  1  0.55656700  0.07724700  0.31814700  1
  O  O1  1  0.44343300  0.92275300  0.68185300  1
  O  O2  1  0.96628100  0.82394800  0.02429100  1
  O  O3  1  0.03371900  0.17605200  0.97570900  1
  O  O4  1  0.86570000  0.62367200  0.73297900  1
  O  O5  1  0.13430000  0.37632800  0.26702100  1
  O  O6  1  0.70800600  0.10165900  0.52730000  1
  O  O7  1  0.29199400  0.89834100  0.47270000  1
  O  O8  1  0.82622900  0.38712700  0.43635900  1
  O  O9  1  0.17377100  0.61287300  0.56364100  1
  O  O10  1  0.75386600  0.18014400  0.14873900  1
  O  O11  1  0.24613400  0.81985600  0.85126100  1
  O  O12  1  0.63285200  0.57991800  0.91646600  1
  O  O13  1  0.36714800  0.42008200  0.08353400  1
  O  O14  1  0.62162400  0.81138500  0.13517600  1
  O  O15  1  0.37837600  0.18861500  0.86482400  1
  O  O16  1  0.92223700  0.96137400  0.67807500  1
  O  O17  1  0.07776300  0.03862600  0.32192500  1
  O  O18  1  0.75915600  0.28568300  0.76528000  1
  O  O19  1  0.24084400  0.71431700  0.23472000  1
  O  O20  1  0.56601600  0.68127700  0.49753500  1
  O  O21  1  0.43398400  0.31872300  0.50246500  1
  O  O22  1  0.92540600  0.73320400  0.37873800  1
  O  O23  1  0.07459400  0.26679600  0.62126200  1
  O  O24  1  0.64514700  0.97948900  0.90048400  1
  O  O25  1  0.35485300  0.02051100  0.09951600  1
  O  O26  1  0.83762200  0.51654100  0.09390900  1
  O  O27  1  0.16237800  0.48345900  0.90609100  1
  O  O28  1  0.52745200  0.52201600  0.30553500  1
  O  O29  1  0.47254800  0.47798400  0.69446500  1
loop_
_geom_bond_atom_site_label_1
_geom_bond_atom_site_label_2
_geom_bond_distance
_geom_bond_site_symmetry_2
Na0 O0 2.341513 1_565
Na0 O20 2.357896 1_555
Na0 O22 2.361920 1_555
Na0 O28 2.415478 1_555
Na0 O6 2.551973 1_565
Na0 O14 2.771171 1_555
Na0 O7 2.871849 1_555
Na1 O1 2.341513 1_545
Na1 O21 2.357896 1_555
Na1 O23 2.361920 1_555
Na1 O29 2.415478 1_555
Na1 O7 2.551973 1_545
Na1 O15 2.771171 1_555
Na1 O6 2.871849 1_555
Cd0 O16 2.303501 1_555
Cd0 O24 2.311050 1_555
Cd0 O4 2.326372 1_555
Cd0 O3 2.327615 1_665
Cd0 O11 2.399363 1_655
Cd0 O2 2.431049 1_556
Cd1 O17 2.303501 1_555
Cd1 O25 2.311050 1_555
Cd1 O5 2.326372 1_555
Cd1 O2 2.327615 1_445
Cd1 O10 2.399363 1_455
Cd1 O3 2.431049 1_554
Cd2 O20 2.272239 1_555
Cd2 O16 2.284303 1_555
Cd2 O9 2.335057 1_655
Cd2 O22 2.361306 1_555
Cd2 O4 2.408650 1_555
Cd2 O8 2.453324 1_555
Cd3 O21 2.272239 1_555
Cd3 O17 2.284303 1_555
Cd3 O8 2.335057 1_455
Cd3 O23 2.361306 1_555
Cd3 O5 2.408650 1_555
Cd3 O9 2.453324 1_555
Cd4 O22 2.275267 1_555
Cd4 O26 2.278103 1_555
Cd4 O28 2.324146 1_555
Cd4 O10 2.331452 1_555
Cd4 O5 2.376851 1_655
Cd4 O8 2.379167 1_555
Cd5 O23 2.275267 1_555
Cd5 O27 2.278103 1_555
Cd5 O29 2.324146 1_555
Cd5 O11 2.331452 1_555
Cd5 O4 2.376851 1_455
Cd5 O9 2.379167 1_555
Cd6 O26 2.207923 1_556
Cd6 O24 2.238253 1_545
Cd6 O3 2.364233 1_655
Cd6 O10 2.407912 1_556
Cd6 O18 2.696605 1_555
Cd6 O15 2.766787 1_555
Cd7 O27 2.207923 1_554
Cd7 O25 2.238253 1_565
Cd7 O2 2.364233 1_455
Cd7 O11 2.407912 1_554
Cd7 O19 2.696605 1_555
Cd7 O14 2.766787 1_555
Ge0 O25 1.744545 1_555
Ge0 O10 1.753546 1_555
Ge0 O0 1.789582 1_555
Ge0 O14 1.825351 1_545
Ge1 O24 1.744545 1_555
Ge1 O11 1.753546 1_555
Ge1 O1 1.789582 1_555
Ge1 O15 1.825351 1_565
Ge2 O8 1.754160 1_555
Ge2 O21 1.768479 1_555
Ge2 O0 1.780787 1_555
Ge2 O6 1.808958 1_555
Ge3 O9 1.754160 1_555
Ge3 O20 1.768479 1_555
Ge3 O1 1.780787 1_555
Ge3 O7 1.808958 1_555
Ge4 O4 1.762062 1_555
Ge4 O29 1.765136 1_555
Ge4 O12 1.786128 1_555
Ge4 O18 1.815657 1_555
Ge5 O5 1.762062 1_555
Ge5 O28 1.765136 1_555
Ge5 O13 1.786128 1_555
Ge5 O19 1.815657 1_555
Ge6 O26 1.749943 1_555
Ge6 O2 1.756064 1_555
Ge6 O14 1.797237 1_555
Ge6 O12 1.808111 1_554
Ge7 O27 1.749943 1_555
Ge7 O3 1.756064 1_555
Ge7 O15 1.797237 1_555
Ge7 O13 1.808111 1_556
Ge8 O16 1.743070 1_545
Ge8 O23 1.758541 1_655
Ge8 O6 1.799355 1_555
Ge8 O18 1.837274 1_555
Ge9 O17 1.743070 1_565
Ge9 O22 1.758541 1_455
Ge9 O7 1.799355 1_555
Ge9 O19 1.837274 1_555
