# generated using pymatgen
data_MnFe3(PO4)4
_symmetry_space_group_name_H-M   'P 1'
_cell_length_a   9.93721400
_cell_length_b   7.72642500
_cell_length_c   7.73878048
_cell_angle_alpha   78.72339068
_cell_angle_beta   90.00000000
_cell_angle_gamma   90.00000000
_symmetry_Int_Tables_number   1
_chemical_formula_structural   MnFe3(PO4)4
_chemical_formula_sum   'Mn2 Fe6 P8 O32'
_cell_volume   582.70605951
_cell_formula_units_Z   2
loop_
 _symmetry_equiv_pos_site_id
 _symmetry_equiv_pos_as_xyz
  1  'x, y, z'
loop_
 _atom_site_type_symbol
 _atom_site_label
 _atom_site_symmetry_multiplicity
 _atom_site_fract_x
 _atom_site_fract_y
 _atom_site_fract_z
 _atom_site_occupancy
  Mn  Mn0  1  0.46483100  0.84023000  0.40452600  1
  Mn  Mn1  1  0.53516900  0.34023000  0.40452600  1
  Fe  Fe0  1  0.47575800  0.36282200  0.89485400  1
  Fe  Fe1  1  0.52424200  0.86282200  0.89485400  1
  Fe  Fe2  1  0.97698300  0.64071400  0.60959200  1
  Fe  Fe3  1  0.97622200  0.13937300  0.10984200  1
  Fe  Fe4  1  0.02301700  0.14071400  0.60959200  1
  Fe  Fe5  1  0.02377800  0.63937300  0.10984200  1
  P  P0  1  0.34857300  0.58361100  0.16376400  1
  P  P1  1  0.34968200  0.08775500  0.66507000  1
  P  P2  1  0.65031800  0.58775500  0.66507000  1
  P  P3  1  0.65142700  0.08361100  0.16376400  1
  P  P4  1  0.84834100  0.91521400  0.83405400  1
  P  P5  1  0.84716500  0.41479500  0.33529700  1
  P  P6  1  0.15165900  0.41521400  0.83405400  1
  P  P7  1  0.15283500  0.91479500  0.33529700  1
  O  O0  1  0.30399100  0.94940300  0.30147400  1
  O  O1  1  0.30160600  0.44875200  0.79748000  1
  O  O2  1  0.36953200  0.74058300  0.01114600  1
  O  O3  1  0.37162600  0.24083600  0.50817500  1
  O  O4  1  0.42320500  0.91422200  0.63973700  1
  O  O5  1  0.42223300  0.61128200  0.33638700  1
  O  O6  1  0.42268800  0.11628300  0.83740700  1
  O  O7  1  0.41958400  0.41261100  0.13065400  1
  O  O8  1  0.57731200  0.61628300  0.83740700  1
  O  O9  1  0.58041600  0.91261100  0.13065400  1
  O  O10  1  0.57776700  0.11128200  0.33638700  1
  O  O11  1  0.57679500  0.41422200  0.63973700  1
  O  O12  1  0.62837400  0.74083600  0.50817500  1
  O  O13  1  0.63046800  0.24058300  0.01114600  1
  O  O14  1  0.69839400  0.94875200  0.79748000  1
  O  O15  1  0.69600900  0.44940300  0.30147400  1
  O  O16  1  0.80090200  0.55698200  0.69492000  1
  O  O17  1  0.80265700  0.05232800  0.19784400  1
  O  O18  1  0.86822500  0.26034600  0.48915700  1
  O  O19  1  0.87061600  0.76148600  0.98834400  1
  O  O20  1  0.92421500  0.88732100  0.66190400  1
  O  O21  1  0.92076300  0.58789200  0.36331500  1
  O  O22  1  0.92287800  0.08799600  0.86234000  1
  O  O23  1  0.92102300  0.38716200  0.16271800  1
  O  O24  1  0.07578500  0.38732100  0.66190400  1
  O  O25  1  0.07923700  0.08789200  0.36331500  1
  O  O26  1  0.07712200  0.58799600  0.86234000  1
  O  O27  1  0.07897700  0.88716200  0.16271800  1
  O  O28  1  0.12938400  0.26148600  0.98834400  1
  O  O29  1  0.13177500  0.76034600  0.48915700  1
  O  O30  1  0.19909800  0.05698200  0.69492000  1
  O  O31  1  0.19734300  0.55232800  0.19784400  1
loop_
_geom_bond_atom_site_label_1
_geom_bond_atom_site_label_2
_geom_bond_distance
_geom_bond_site_symmetry_2
Mn0 O12 1.906147 1_555
Mn0 O0 1.907617 1_555
Mn0 O5 1.987771 1_555
Mn0 O4 2.053829 1_555
Mn0 O10 2.343414 1_565
Mn0 O9 2.379175 1_555
Mn1 O3 1.906147 1_555
Mn1 O15 1.907617 1_555
Mn1 O10 1.987771 1_555
Mn1 O11 2.053829 1_555
Mn1 O5 2.343414 1_555
Mn1 O7 2.379175 1_555
Fe0 O13 1.932119 1_556
Fe0 O1 1.951387 1_555
Fe0 O7 2.015947 1_556
Fe0 O6 2.106054 1_555
Fe0 O8 2.170411 1_555
Fe0 O11 2.181051 1_555
Fe1 O2 1.932119 1_556
Fe1 O14 1.951387 1_555
Fe1 O9 2.015947 1_556
Fe1 O8 2.106054 1_555
Fe1 O6 2.170411 1_565
Fe1 O4 2.181051 1_555
Fe2 O16 1.936272 1_555
Fe2 O29 1.937055 1_655
Fe2 O20 2.090702 1_555
Fe2 O21 2.101256 1_555
Fe2 O24 2.156605 1_655
Fe2 O26 2.161097 1_655
Fe3 O17 1.926593 1_555
Fe3 O28 1.934890 1_654
Fe3 O22 2.098702 1_554
Fe3 O23 2.107156 1_555
Fe3 O27 2.166938 1_645
Fe3 O25 2.179165 1_655
Fe4 O30 1.936272 1_555
Fe4 O18 1.937055 1_455
Fe4 O24 2.090702 1_555
Fe4 O25 2.101256 1_555
Fe4 O20 2.156605 1_445
Fe4 O22 2.161097 1_455
Fe5 O31 1.926593 1_555
Fe5 O19 1.934890 1_454
Fe5 O26 2.098702 1_554
Fe5 O27 2.107156 1_555
Fe5 O23 2.166938 1_455
Fe5 O21 2.179165 1_455
O0 P7 1.539108 1_555
O1 P6 1.529327 1_555
O2 P0 1.532666 1_555
O3 P1 1.535928 1_555
O4 P1 1.572498 1_565
O5 P0 1.574104 1_555
O6 P1 1.571167 1_555
O7 P0 1.562567 1_555
O8 P2 1.571167 1_555
O9 P3 1.562567 1_565
O10 P3 1.574104 1_555
O11 P2 1.572498 1_555
O12 P2 1.535928 1_555
O13 P3 1.532666 1_555
O14 P4 1.529327 1_555
O15 P5 1.539108 1_555
O16 P2 1.525642 1_555
O17 P3 1.536708 1_555
O18 P5 1.526399 1_555
O19 P4 1.526700 1_555
O20 P4 1.581788 1_555
O21 P5 1.576073 1_555
O22 P4 1.578929 1_545
O23 P5 1.574634 1_555
O24 P6 1.581788 1_555
O25 P7 1.576073 1_545
O26 P6 1.578929 1_555
O27 P7 1.574634 1_555
O28 P6 1.526700 1_555
O29 P7 1.526399 1_555
O30 P1 1.525642 1_555
O31 P0 1.536708 1_555
