# generated using pymatgen
data_Sr21Fe14O47
_symmetry_space_group_name_H-M   'P 1'
_cell_length_a   8.62324711
_cell_length_b   11.76158922
_cell_length_c   12.19487992
_cell_angle_alpha   108.08715118
_cell_angle_beta   98.16343315
_cell_angle_gamma   111.50161104
_symmetry_Int_Tables_number   1
_chemical_formula_structural   Sr21Fe14O47
_chemical_formula_sum   'Sr21 Fe14 O47'
_cell_volume   1047.15373502
_cell_formula_units_Z   1
loop_
 _symmetry_equiv_pos_site_id
 _symmetry_equiv_pos_as_xyz
  1  'x, y, z'
loop_
 _atom_site_type_symbol
 _atom_site_label
 _atom_site_symmetry_multiplicity
 _atom_site_fract_x
 _atom_site_fract_y
 _atom_site_fract_z
 _atom_site_occupancy
  Sr  Sr0  1  -0.00000000  0.00000000  -0.00000000  1
  Sr  Sr1  1  0.84838567  0.00010235  0.28908924  1
  Sr  Sr2  1  0.35327277  0.36535838  0.84458559  1
  Sr  Sr3  1  0.64672723  0.63464162  0.15541441  1
  Sr  Sr4  1  0.50705211  0.63771884  0.44197608  1
  Sr  Sr5  1  0.79148762  0.63384310  0.86940260  1
  Sr  Sr6  1  0.49294789  0.36228116  0.55802392  1
  Sr  Sr7  1  0.28951610  0.99981486  0.43444522  1
  Sr  Sr8  1  0.77818361  0.36118694  0.98627010  1
  Sr  Sr9  1  0.56189270  0.99975160  0.85878784  1
  Sr  Sr10  1  0.15161433  -0.00010235  0.71091076  1
  Sr  Sr11  1  0.43810730  0.00024840  0.14121216  1
  Sr  Sr12  1  0.63734816  0.36505826  0.27300885  1
  Sr  Sr13  1  0.07748483  0.63412177  0.29822334  1
  Sr  Sr14  1  0.93423955  0.63517114  0.58363418  1
  Sr  Sr15  1  0.22181639  0.63881306  0.01372990  1
  Sr  Sr16  1  0.06576045  0.36482886  0.41636582  1
  Sr  Sr17  1  0.20851238  0.36615690  0.13059740  1
  Sr  Sr18  1  0.92251517  0.36587823  0.70177666  1
  Sr  Sr19  1  0.71048390  0.00018514  0.56555478  1
  Sr  Sr20  1  0.36265184  0.63494174  0.72699115  1
  Fe  Fe0  1  0.39357770  0.19144606  0.99710083  1
  Fe  Fe1  1  0.26036222  0.20553380  0.28745515  1
  Fe  Fe2  1  0.10914091  0.19140314  0.56878357  1
  Fe  Fe3  1  0.73963778  0.79446620  0.71254485  1
  Fe  Fe4  1  0.17506224  0.80878439  0.85983149  1
  Fe  Fe5  1  0.02428199  0.79423987  0.14113288  1
  Fe  Fe6  1  0.89085909  0.80859686  0.43121643  1
  Fe  Fe7  1  0.68174767  0.19422888  0.42646558  1
  Fe  Fe8  1  0.53966508  0.19234084  0.71154905  1
  Fe  Fe9  1  0.82493776  0.19121561  0.14016851  1
  Fe  Fe10  1  0.97571801  0.20576013  0.85886712  1
  Fe  Fe11  1  0.31825233  0.80577112  0.57353442  1
  Fe  Fe12  1  0.46033492  0.80765916  0.28845095  1
  Fe  Fe13  1  0.60642230  0.80855394  0.00289917  1
  O  O0  1  0.16592723  0.17889784  0.91853296  1
  O  O1  1  0.68718552  0.82105885  0.85872433  1
  O  O2  1  0.50621683  0.61722027  0.93272558  1
  O  O3  1  0.46617422  0.19073406  0.85171524  1
  O  O4  1  0.49378317  0.38277973  0.06727442  1
  O  O5  1  0.36920237  0.39579590  0.35312193  1
  O  O6  1  0.96064220  0.82104731  0.79060403  1
  O  O7  1  0.67942542  0.80879267  0.36163293  1
  O  O8  1  0.28839101  0.99949224  0.92800895  1
  O  O9  1  0.17807313  0.18170758  0.41499208  1
  O  O10  1  -0.00000000  0.00000000  0.50000000  1
  O  O11  1  0.31281448  0.17894115  0.14127567  1
  O  O12  1  0.83407277  0.82110216  0.08146704  1
  O  O13  1  0.63079763  0.60420410  0.64687807  1
  O  O14  1  0.32057458  0.19120733  0.63836707  1
  O  O15  1  0.05820499  0.61780945  0.79231504  1
  O  O16  1  0.10683575  0.81924623  0.01257041  1
  O  O17  1  0.91343237  0.60362166  0.07367726  1
  O  O18  1  0.82192687  0.81829242  0.58500792  1
  O  O19  1  0.60890315  0.19180473  0.06877379  1
  O  O20  1  0.97100291  0.82000099  0.28586686  1
  O  O21  1  0.45153688  0.17975455  0.34673085  1
  O  O22  1  0.78299676  0.61740008  0.36214981  1
  O  O23  1  0.89316425  0.18075377  0.98742959  1
  O  O24  1  0.94179501  0.38219055  0.20768496  1
  O  O25  1  0.60936640  0.19072091  0.56810593  1
  O  O26  1  0.78685254  0.38633676  0.49288940  1
  O  O27  1  0.65400294  0.38253319  0.78100353  1
  O  O28  1  0.42770173  0.00235267  0.64239069  1
  O  O29  1  0.10311587  0.80907126  0.50163521  1
  O  O30  1  0.75175981  0.19048545  0.28429035  1
  O  O31  1  0.57229827  -0.00235267  0.35760931  1
  O  O32  1  0.71160899  0.00050776  0.07199105  1
  O  O33  1  0.24455716  0.82028659  0.21860204  1
  O  O34  1  0.39109685  0.80819527  0.93122621  1
  O  O35  1  0.08656763  0.39637834  0.92632274  1
  O  O36  1  0.39063360  0.80927909  0.43189407  1
  O  O37  1  0.34599706  0.61746681  0.21899647  1
  O  O38  1  0.21314746  0.61366324  0.50711060  1
  O  O39  1  0.03935780  0.17895269  0.20939597  1
  O  O40  1  0.75544284  0.17971341  0.78139796  1
  O  O41  1  0.53382578  0.80926594  0.14828476  1
  O  O42  1  0.24824019  0.80951455  0.71570965  1
  O  O43  1  0.89688413  0.19092874  0.49836479  1
  O  O44  1  0.21700324  0.38259992  0.63785019  1
  O  O45  1  0.02899709  0.17999901  0.71413314  1
  O  O46  1  0.54846312  0.82024445  0.65326915  1
loop_
_geom_bond_atom_site_label_1
_geom_bond_atom_site_label_2
_geom_bond_distance
_geom_bond_site_symmetry_2
Fe0 O4 1.926653 1_556
Fe0 O8 1.931428 1_545
Fe0 O19 1.934621 1_556
Fe0 O3 1.960914 1_555
Fe0 O0 1.989760 1_555
Fe0 O11 2.007769 1_556
Fe1 O9 1.854534 1_555
Fe1 O11 1.861909 1_555
Fe1 O21 1.869825 1_555
Fe1 O39 1.870592 1_555
Fe1 O5 1.914174 1_555
Fe2 O14 1.899789 1_555
Fe2 O43 1.905463 1_455
Fe2 O44 1.923459 1_555
Fe2 O10 1.925470 1_555
Fe2 O45 2.016185 1_555
Fe2 O9 2.029092 1_555
Fe3 O18 1.854534 1_555
Fe3 O1 1.861909 1_555
Fe3 O46 1.869818 1_555
Fe3 O6 1.870592 1_555
Fe3 O13 1.914174 1_555
Fe4 O8 1.918823 1_555
Fe4 O15 1.922352 1_555
Fe4 O34 1.944514 1_555
Fe4 O42 1.951312 1_555
Fe4 O6 1.995018 1_455
Fe4 O16 2.013119 1_556
Fe5 O20 1.848902 1_455
Fe5 O33 1.865075 1_555
Fe5 O16 1.871119 1_555
Fe5 O12 1.871700 1_455
Fe5 O17 1.917653 1_455
Fe6 O7 1.899789 1_555
Fe6 O29 1.905463 1_655
Fe6 O22 1.923459 1_555
Fe6 O10 1.925470 1_665
Fe6 O20 2.016185 1_555
Fe6 O18 2.029092 1_555
Fe7 O30 1.908373 1_555
Fe7 O25 1.925188 1_555
Fe7 O26 1.933070 1_555
Fe7 O43 1.955487 1_555
Fe7 O31 1.977746 1_555
Fe7 O21 2.004151 1_555
Fe8 O3 1.908566 1_555
Fe8 O28 1.911482 1_555
Fe8 O27 1.913923 1_555
Fe8 O25 1.925583 1_555
Fe8 O14 1.965018 1_555
Fe8 O40 2.010188 1_555
Fe9 O32 1.918823 1_555
Fe9 O24 1.922352 1_555
Fe9 O19 1.944514 1_555
Fe9 O30 1.951312 1_555
Fe9 O39 1.995018 1_655
Fe9 O23 2.013119 1_554
Fe10 O45 1.848902 1_655
Fe10 O40 1.865075 1_555
Fe10 O23 1.871119 1_555
Fe10 O0 1.871700 1_655
Fe10 O35 1.917653 1_655
Fe11 O42 1.908373 1_555
Fe11 O36 1.925188 1_555
Fe11 O38 1.933070 1_555
Fe11 O29 1.955487 1_555
Fe11 O28 1.977746 1_565
Fe11 O46 2.004156 1_555
Fe12 O41 1.908566 1_555
Fe12 O31 1.911482 1_565
Fe12 O37 1.913923 1_555
Fe12 O36 1.925583 1_555
Fe12 O7 1.965018 1_555
Fe12 O33 2.010188 1_555
Fe13 O2 1.926653 1_554
Fe13 O32 1.931428 1_565
Fe13 O34 1.934621 1_554
Fe13 O41 1.960914 1_555
Fe13 O12 1.989760 1_555
Fe13 O1 2.007769 1_554
O0 Sr0 2.637487 1_556
O0 Sr10 2.696144 1_555
O0 Sr17 2.697101 1_556
O0 Sr2 2.697635 1_555
O1 Sr0 2.634593 1_666
O1 Sr9 2.692273 1_555
O1 Sr20 2.693199 1_555
O1 Sr5 2.696500 1_555
O2 Sr2 2.535020 1_555
O2 Sr5 2.639434 1_555
O2 Sr3 2.724508 1_556
O2 Sr20 2.739062 1_555
O2 Sr15 2.836137 1_556
O3 Sr8 2.588471 1_555
O3 Sr2 2.593531 1_555
O3 Sr10 2.676791 1_555
O3 Sr9 2.682092 1_545
O4 Sr3 2.535020 1_555
O4 Sr17 2.639434 1_555
O4 Sr2 2.724508 1_554
O4 Sr12 2.739062 1_555
O4 Sr8 2.836137 1_554
O5 Sr4 2.433878 1_555
O5 Sr17 2.719592 1_555
O5 Sr12 2.732559 1_555
O5 Sr16 2.761030 1_555
O5 Sr6 2.774985 1_555
O6 Sr0 2.637965 1_666
O6 Sr14 2.692109 1_555
O6 Sr5 2.693804 1_555
O6 Sr10 2.695537 1_665
O7 Sr4 2.581318 1_555
O7 Sr3 2.603093 1_555
O7 Sr1 2.677170 1_565
O7 Sr19 2.686305 1_565
O8 Sr9 2.614710 1_555
O8 Sr11 2.729605 1_566
O8 Sr10 2.743263 1_565
O8 Sr0 2.753717 1_566
O9 Sr6 2.655761 1_555
O9 Sr16 2.662412 1_555
O9 Sr1 2.697180 1_455
O9 Sr7 2.704457 1_545
O10 Sr10 2.715281 1_555
O10 Sr1 2.715281 1_455
O10 Sr7 2.727941 1_545
O10 Sr19 2.727941 1_455
O11 Sr0 2.634593 1_555
O11 Sr11 2.692273 1_555
O11 Sr12 2.693199 1_555
O11 Sr17 2.696500 1_555
O12 Sr0 2.637487 1_665
O12 Sr1 2.696144 1_565
O12 Sr5 2.697101 1_554
O12 Sr3 2.697635 1_555
O13 Sr6 2.433878 1_555
O13 Sr5 2.719592 1_555
O13 Sr20 2.732559 1_555
O13 Sr14 2.761030 1_555
O13 Sr4 2.774985 1_555
O14 Sr6 2.581318 1_555
O14 Sr2 2.603093 1_555
O14 Sr10 2.677170 1_555
O14 Sr7 2.686305 1_545
O15 Sr18 2.535410 1_455
O15 Sr5 2.651616 1_455
O15 Sr14 2.714910 1_455
O15 Sr15 2.755122 1_556
O15 Sr20 2.805945 1_555
O16 Sr0 2.643843 1_565
O16 Sr15 2.654063 1_555
O16 Sr5 2.671870 1_454
O16 Sr11 2.710921 1_565
O17 Sr8 2.439033 1_554
O17 Sr3 2.730637 1_555
O17 Sr5 2.741825 1_554
O17 Sr13 2.747039 1_655
O17 Sr15 2.776797 1_655
O18 Sr4 2.655761 1_555
O18 Sr14 2.662412 1_555
O18 Sr10 2.697180 1_665
O18 Sr19 2.704457 1_565
O19 Sr8 2.577188 1_554
O19 Sr12 2.593161 1_555
O19 Sr11 2.682984 1_555
O19 Sr9 2.695639 1_544
O20 Sr1 2.684893 1_565
O20 Sr3 2.686501 1_555
O20 Sr7 2.692358 1_655
O20 Sr13 2.698571 1_655
O21 Sr6 2.667882 1_555
O21 Sr12 2.681696 1_555
O21 Sr11 2.684225 1_555
O21 Sr7 2.690312 1_545
O22 Sr12 2.538545 1_555
O22 Sr13 2.717811 1_655
O22 Sr3 2.725574 1_555
O22 Sr14 2.736627 1_555
O22 Sr4 2.756306 1_555
O23 Sr0 2.643843 1_656
O23 Sr8 2.654063 1_555
O23 Sr17 2.671870 1_656
O23 Sr9 2.710921 1_545
O24 Sr13 2.535410 1_655
O24 Sr17 2.651616 1_655
O24 Sr16 2.714910 1_655
O24 Sr8 2.755122 1_554
O24 Sr12 2.805945 1_555
O25 Sr6 2.588144 1_555
O25 Sr18 2.603831 1_555
O25 Sr19 2.679596 1_555
O25 Sr7 2.686398 1_545
O26 Sr14 2.503649 1_555
O26 Sr12 2.698101 1_555
O26 Sr6 2.705518 1_555
O26 Sr18 2.766968 1_555
O26 Sr16 2.766972 1_655
O27 Sr5 2.528662 1_555
O27 Sr18 2.680193 1_555
O27 Sr8 2.702186 1_555
O27 Sr2 2.766108 1_555
O27 Sr6 2.768117 1_555
O28 Sr10 2.626151 1_555
O28 Sr7 2.630632 1_545
O28 Sr19 2.739443 1_555
O28 Sr9 2.740949 1_545
O29 Sr13 2.603410 1_555
O29 Sr14 2.608474 1_455
O29 Sr7 2.675832 1_555
O29 Sr10 2.679115 1_565
O30 Sr16 2.602152 1_655
O30 Sr12 2.613424 1_555
O30 Sr1 2.673384 1_555
O30 Sr11 2.676860 1_555
O31 Sr1 2.626151 1_555
O31 Sr19 2.630632 1_555
O31 Sr7 2.739443 1_545
O31 Sr11 2.740949 1_555
O32 Sr11 2.614710 1_555
O32 Sr9 2.729605 1_544
O32 Sr1 2.743263 1_555
O32 Sr0 2.753717 1_655
O33 Sr15 2.660644 1_555
O33 Sr7 2.682590 1_555
O33 Sr13 2.686571 1_555
O33 Sr11 2.693420 1_565
O34 Sr15 2.577188 1_556
O34 Sr20 2.593161 1_555
O34 Sr9 2.682984 1_555
O34 Sr11 2.695639 1_566
O35 Sr15 2.439033 1_556
O35 Sr2 2.730637 1_555
O35 Sr17 2.741825 1_556
O35 Sr18 2.747039 1_455
O35 Sr8 2.776797 1_455
O36 Sr4 2.588144 1_555
O36 Sr13 2.603831 1_555
O36 Sr7 2.679596 1_555
O36 Sr19 2.686398 1_565
O37 Sr17 2.528662 1_555
O37 Sr13 2.680193 1_555
O37 Sr15 2.702186 1_555
O37 Sr3 2.766108 1_555
O37 Sr4 2.768117 1_555
O38 Sr16 2.503649 1_555
O38 Sr20 2.698101 1_555
O38 Sr4 2.705518 1_555
O38 Sr13 2.766968 1_555
O38 Sr14 2.766972 1_455
O39 Sr0 2.637965 1_555
O39 Sr16 2.692109 1_555
O39 Sr17 2.693804 1_555
O39 Sr1 2.695537 1_455
O40 Sr8 2.660644 1_555
O40 Sr19 2.682590 1_555
O40 Sr18 2.686571 1_555
O40 Sr9 2.693420 1_545
O41 Sr15 2.588471 1_555
O41 Sr3 2.593531 1_555
O41 Sr1 2.676791 1_565
O41 Sr11 2.682092 1_565
O42 Sr14 2.602152 1_455
O42 Sr20 2.613424 1_555
O42 Sr10 2.673384 1_565
O42 Sr9 2.676860 1_555
O43 Sr18 2.603410 1_555
O43 Sr16 2.608474 1_655
O43 Sr19 2.675832 1_555
O43 Sr1 2.679115 1_555
O44 Sr20 2.538545 1_555
O44 Sr18 2.717811 1_455
O44 Sr2 2.725574 1_555
O44 Sr16 2.736627 1_555
O44 Sr6 2.756306 1_555
O45 Sr10 2.684893 1_555
O45 Sr2 2.686501 1_555
O45 Sr19 2.692358 1_455
O45 Sr18 2.698571 1_455
O46 Sr4 2.667877 1_555
O46 Sr20 2.681687 1_555
O46 Sr9 2.684231 1_555
O46 Sr19 2.690321 1_565
