# generated using pymatgen
data_SrBr2O7
_symmetry_space_group_name_H-M   'P 1'
_cell_length_a   7.33669453
_cell_length_b   7.33669453
_cell_length_c   8.66455681
_cell_angle_alpha   56.93576673
_cell_angle_beta   56.93576673
_cell_angle_gamma   64.78939102
_symmetry_Int_Tables_number   1
_chemical_formula_structural   SrBr2O7
_chemical_formula_sum   'Sr2 Br4 O14'
_cell_volume   322.05361260
_cell_formula_units_Z   2
loop_
 _symmetry_equiv_pos_site_id
 _symmetry_equiv_pos_as_xyz
  1  'x, y, z'
loop_
 _atom_site_type_symbol
 _atom_site_label
 _atom_site_symmetry_multiplicity
 _atom_site_fract_x
 _atom_site_fract_y
 _atom_site_fract_z
 _atom_site_occupancy
  Sr  Sr0  1  0.34102200  0.65897800  0.25000000  1
  Sr  Sr1  1  0.65897800  0.34102200  0.75000000  1
  Br  Br0  1  0.78725300  0.82691500  0.20047700  1
  Br  Br1  1  0.82691500  0.78725300  0.70047700  1
  Br  Br2  1  0.21274700  0.17308500  0.79952300  1
  Br  Br3  1  0.17308500  0.21274700  0.29952300  1
  O  O0  1  0.71616400  0.89826200  0.01607400  1
  O  O1  1  0.89826200  0.71616400  0.51607400  1
  O  O2  1  0.28383600  0.10173800  0.98392600  1
  O  O3  1  0.10173800  0.28383600  0.48392600  1
  O  O4  1  0.06442700  0.74264700  0.10655600  1
  O  O5  1  0.74264700  0.06442700  0.60655600  1
  O  O6  1  0.93557300  0.25735300  0.89344400  1
  O  O7  1  0.25735300  0.93557300  0.39344400  1
  O  O8  1  0.68423600  0.59137900  0.37512600  1
  O  O9  1  0.59137900  0.68423600  0.87512600  1
  O  O10  1  0.31576400  0.40862100  0.62487400  1
  O  O11  1  0.40862100  0.31576400  0.12487400  1
  O  O12  1  0.68000100  0.31999900  0.25000000  1
  O  O13  1  0.31999900  0.68000100  0.75000000  1
loop_
_geom_bond_atom_site_label_1
_geom_bond_atom_site_label_2
_geom_bond_distance
_geom_bond_site_symmetry_2
Br0 O4 1.688787 1_655
Br0 O8 1.690752 1_555
Br0 O0 1.692046 1_555
Br1 O5 1.688787 1_565
Br1 O9 1.690752 1_555
Br1 O1 1.692046 1_555
Br2 O6 1.688787 1_455
Br2 O10 1.690752 1_555
Br2 O2 1.692046 1_555
Br3 O7 1.688787 1_545
Br3 O11 1.690752 1_555
Br3 O3 1.692046 1_555
O0 Sr1 2.786728 1_564
O0 Sr0 2.985264 1_555
O1 Sr0 2.786728 1_655
O1 Sr1 2.985264 1_555
O2 Sr0 2.786728 1_546
O2 Sr1 2.985264 1_555
O3 Sr1 2.786728 1_455
O3 Sr0 2.985264 1_555
O4 Sr0 2.626402 1_555
O5 Sr1 2.626402 1_555
O6 Sr1 2.626402 1_555
O7 Sr0 2.626402 1_555
O8 Sr1 2.661132 1_555
O8 Sr0 3.015002 1_555
O9 Sr0 2.661132 1_556
O9 Sr1 3.015002 1_555
O10 Sr0 2.661132 1_555
O10 Sr1 3.015002 1_555
O11 Sr1 2.661132 1_554
O11 Sr0 3.015002 1_555
O12 Sr0 2.664798 1_555
O13 Sr1 2.664798 1_555
